# Generated by pormake.
# Topology cha, (4)-cn, num edge types: 1
# Building blocks:
#     Node 0, Type 0, BuildingBlock: GALJAG_clean_sbu_0, # of connection points: 4
#     Node 1, Type 0, BuildingBlock: GALJAG_clean_sbu_0, # of connection points: 4
#     Node 2, Type 0, BuildingBlock: GALJAG_clean_sbu_0, # of connection points: 4
#     Node 3, Type 0, BuildingBlock: GALJAG_clean_sbu_0, # of connection points: 4
#     Node 4, Type 0, BuildingBlock: GALJAG_clean_sbu_0, # of connection points: 4
#     Node 5, Type 0, BuildingBlock: GALJAG_clean_sbu_0, # of connection points: 4
#     Node 6, Type 0, BuildingBlock: GALJAG_clean_sbu_0, # of connection points: 4
#     Node 7, Type 0, BuildingBlock: GALJAG_clean_sbu_0, # of connection points: 4
#     Node 8, Type 0, BuildingBlock: GALJAG_clean_sbu_0, # of connection points: 4
#     Node 9, Type 0, BuildingBlock: GALJAG_clean_sbu_0, # of connection points: 4
#     Node 10, Type 0, BuildingBlock: GALJAG_clean_sbu_0, # of connection points: 4
#     Node 11, Type 0, BuildingBlock: GALJAG_clean_sbu_0, # of connection points: 4
#     Node 12, Type 0, BuildingBlock: GALJAG_clean_sbu_0, # of connection points: 4
#     Node 13, Type 0, BuildingBlock: GALJAG_clean_sbu_0, # of connection points: 4
#     Node 14, Type 0, BuildingBlock: GALJAG_clean_sbu_0, # of connection points: 4
#     Node 15, Type 0, BuildingBlock: GALJAG_clean_sbu_0, # of connection points: 4
#     Node 16, Type 0, BuildingBlock: GALJAG_clean_sbu_0, # of connection points: 4
#     Node 17, Type 0, BuildingBlock: GALJAG_clean_sbu_0, # of connection points: 4
#     Node 18, Type 0, BuildingBlock: GALJAG_clean_sbu_0, # of connection points: 4
#     Node 19, Type 0, BuildingBlock: GALJAG_clean_sbu_0, # of connection points: 4
#     Node 20, Type 0, BuildingBlock: GALJAG_clean_sbu_0, # of connection points: 4
#     Node 21, Type 0, BuildingBlock: GALJAG_clean_sbu_0, # of connection points: 4
#     Node 22, Type 0, BuildingBlock: GALJAG_clean_sbu_0, # of connection points: 4
#     Node 23, Type 0, BuildingBlock: GALJAG_clean_sbu_0, # of connection points: 4
#     Node 24, Type 0, BuildingBlock: GALJAG_clean_sbu_0, # of connection points: 4
#     Node 25, Type 0, BuildingBlock: GALJAG_clean_sbu_0, # of connection points: 4
#     Node 26, Type 0, BuildingBlock: GALJAG_clean_sbu_0, # of connection points: 4
#     Node 27, Type 0, BuildingBlock: GALJAG_clean_sbu_0, # of connection points: 4
#     Node 28, Type 0, BuildingBlock: GALJAG_clean_sbu_0, # of connection points: 4
#     Node 29, Type 0, BuildingBlock: GALJAG_clean_sbu_0, # of connection points: 4
#     Node 30, Type 0, BuildingBlock: GALJAG_clean_sbu_0, # of connection points: 4
#     Node 31, Type 0, BuildingBlock: GALJAG_clean_sbu_0, # of connection points: 4
#     Node 32, Type 0, BuildingBlock: GALJAG_clean_sbu_0, # of connection points: 4
#     Node 33, Type 0, BuildingBlock: GALJAG_clean_sbu_0, # of connection points: 4
#     Node 34, Type 0, BuildingBlock: GALJAG_clean_sbu_0, # of connection points: 4
#     Node 35, Type 0, BuildingBlock: GALJAG_clean_sbu_0, # of connection points: 4
#     Edge 36, Type (0, 0), BuildingBlock: ZUJKAS_clean_linker_0, # of connection points: 2
#     Edge 37, Type (0, 0), BuildingBlock: ZUJKAS_clean_linker_0, # of connection points: 2
#     Edge 38, Type (0, 0), BuildingBlock: ZUJKAS_clean_linker_0, # of connection points: 2
#     Edge 39, Type (0, 0), BuildingBlock: ZUJKAS_clean_linker_0, # of connection points: 2
#     Edge 40, Type (0, 0), BuildingBlock: ZUJKAS_clean_linker_0, # of connection points: 2
#     Edge 41, Type (0, 0), BuildingBlock: ZUJKAS_clean_linker_0, # of connection points: 2
#     Edge 42, Type (0, 0), BuildingBlock: ZUJKAS_clean_linker_0, # of connection points: 2
#     Edge 43, Type (0, 0), BuildingBlock: ZUJKAS_clean_linker_0, # of connection points: 2
#     Edge 44, Type (0, 0), BuildingBlock: ZUJKAS_clean_linker_0, # of connection points: 2
#     Edge 45, Type (0, 0), BuildingBlock: ZUJKAS_clean_linker_0, # of connection points: 2
#     Edge 46, Type (0, 0), BuildingBlock: ZUJKAS_clean_linker_0, # of connection points: 2
#     Edge 47, Type (0, 0), BuildingBlock: ZUJKAS_clean_linker_0, # of connection points: 2
#     Edge 48, Type (0, 0), BuildingBlock: ZUJKAS_clean_linker_0, # of connection points: 2
#     Edge 49, Type (0, 0), BuildingBlock: ZUJKAS_clean_linker_0, # of connection points: 2
#     Edge 50, Type (0, 0), BuildingBlock: ZUJKAS_clean_linker_0, # of connection points: 2
#     Edge 51, Type (0, 0), BuildingBlock: ZUJKAS_clean_linker_0, # of connection points: 2
#     Edge 52, Type (0, 0), BuildingBlock: ZUJKAS_clean_linker_0, # of connection points: 2
#     Edge 53, Type (0, 0), BuildingBlock: ZUJKAS_clean_linker_0, # of connection points: 2
#     Edge 54, Type (0, 0), BuildingBlock: ZUJKAS_clean_linker_0, # of connection points: 2
#     Edge 55, Type (0, 0), BuildingBlock: ZUJKAS_clean_linker_0, # of connection points: 2
#     Edge 56, Type (0, 0), BuildingBlock: ZUJKAS_clean_linker_0, # of connection points: 2
#     Edge 57, Type (0, 0), BuildingBlock: ZUJKAS_clean_linker_0, # of connection points: 2
#     Edge 58, Type (0, 0), BuildingBlock: ZUJKAS_clean_linker_0, # of connection points: 2
#     Edge 59, Type (0, 0), BuildingBlock: ZUJKAS_clean_linker_0, # of connection points: 2
#     Edge 60, Type (0, 0), BuildingBlock: ZUJKAS_clean_linker_0, # of connection points: 2
#     Edge 61, Type (0, 0), BuildingBlock: ZUJKAS_clean_linker_0, # of connection points: 2
#     Edge 62, Type (0, 0), BuildingBlock: ZUJKAS_clean_linker_0, # of connection points: 2
#     Edge 63, Type (0, 0), BuildingBlock: ZUJKAS_clean_linker_0, # of connection points: 2
#     Edge 64, Type (0, 0), BuildingBlock: ZUJKAS_clean_linker_0, # of connection points: 2
#     Edge 65, Type (0, 0), BuildingBlock: ZUJKAS_clean_linker_0, # of connection points: 2
#     Edge 66, Type (0, 0), BuildingBlock: ZUJKAS_clean_linker_0, # of connection points: 2
#     Edge 67, Type (0, 0), BuildingBlock: ZUJKAS_clean_linker_0, # of connection points: 2
#     Edge 68, Type (0, 0), BuildingBlock: ZUJKAS_clean_linker_0, # of connection points: 2
#     Edge 69, Type (0, 0), BuildingBlock: ZUJKAS_clean_linker_0, # of connection points: 2
#     Edge 70, Type (0, 0), BuildingBlock: ZUJKAS_clean_linker_0, # of connection points: 2
#     Edge 71, Type (0, 0), BuildingBlock: ZUJKAS_clean_linker_0, # of connection points: 2
#     Edge 72, Type (0, 0), BuildingBlock: ZUJKAS_clean_linker_0, # of connection points: 2
#     Edge 73, Type (0, 0), BuildingBlock: ZUJKAS_clean_linker_0, # of connection points: 2
#     Edge 74, Type (0, 0), BuildingBlock: ZUJKAS_clean_linker_0, # of connection points: 2
#     Edge 75, Type (0, 0), BuildingBlock: ZUJKAS_clean_linker_0, # of connection points: 2
#     Edge 76, Type (0, 0), BuildingBlock: ZUJKAS_clean_linker_0, # of connection points: 2
#     Edge 77, Type (0, 0), BuildingBlock: ZUJKAS_clean_linker_0, # of connection points: 2
#     Edge 78, Type (0, 0), BuildingBlock: ZUJKAS_clean_linker_0, # of connection points: 2
#     Edge 79, Type (0, 0), BuildingBlock: ZUJKAS_clean_linker_0, # of connection points: 2
#     Edge 80, Type (0, 0), BuildingBlock: ZUJKAS_clean_linker_0, # of connection points: 2
#     Edge 81, Type (0, 0), BuildingBlock: ZUJKAS_clean_linker_0, # of connection points: 2
#     Edge 82, Type (0, 0), BuildingBlock: ZUJKAS_clean_linker_0, # of connection points: 2
#     Edge 83, Type (0, 0), BuildingBlock: ZUJKAS_clean_linker_0, # of connection points: 2
#     Edge 84, Type (0, 0), BuildingBlock: ZUJKAS_clean_linker_0, # of connection points: 2
#     Edge 85, Type (0, 0), BuildingBlock: ZUJKAS_clean_linker_0, # of connection points: 2
#     Edge 86, Type (0, 0), BuildingBlock: ZUJKAS_clean_linker_0, # of connection points: 2
#     Edge 87, Type (0, 0), BuildingBlock: ZUJKAS_clean_linker_0, # of connection points: 2
#     Edge 88, Type (0, 0), BuildingBlock: ZUJKAS_clean_linker_0, # of connection points: 2
#     Edge 89, Type (0, 0), BuildingBlock: ZUJKAS_clean_linker_0, # of connection points: 2
#     Edge 90, Type (0, 0), BuildingBlock: ZUJKAS_clean_linker_0, # of connection points: 2
#     Edge 91, Type (0, 0), BuildingBlock: ZUJKAS_clean_linker_0, # of connection points: 2
#     Edge 92, Type (0, 0), BuildingBlock: ZUJKAS_clean_linker_0, # of connection points: 2
#     Edge 93, Type (0, 0), BuildingBlock: ZUJKAS_clean_linker_0, # of connection points: 2
#     Edge 94, Type (0, 0), BuildingBlock: ZUJKAS_clean_linker_0, # of connection points: 2
#     Edge 95, Type (0, 0), BuildingBlock: ZUJKAS_clean_linker_0, # of connection points: 2
#     Edge 96, Type (0, 0), BuildingBlock: ZUJKAS_clean_linker_0, # of connection points: 2
#     Edge 97, Type (0, 0), BuildingBlock: ZUJKAS_clean_linker_0, # of connection points: 2
#     Edge 98, Type (0, 0), BuildingBlock: ZUJKAS_clean_linker_0, # of connection points: 2
#     Edge 99, Type (0, 0), BuildingBlock: ZUJKAS_clean_linker_0, # of connection points: 2
#     Edge 100, Type (0, 0), BuildingBlock: ZUJKAS_clean_linker_0, # of connection points: 2
#     Edge 101, Type (0, 0), BuildingBlock: ZUJKAS_clean_linker_0, # of connection points: 2
#     Edge 102, Type (0, 0), BuildingBlock: ZUJKAS_clean_linker_0, # of connection points: 2
#     Edge 103, Type (0, 0), BuildingBlock: ZUJKAS_clean_linker_0, # of connection points: 2
#     Edge 104, Type (0, 0), BuildingBlock: ZUJKAS_clean_linker_0, # of connection points: 2
#     Edge 105, Type (0, 0), BuildingBlock: ZUJKAS_clean_linker_0, # of connection points: 2
#     Edge 106, Type (0, 0), BuildingBlock: ZUJKAS_clean_linker_0, # of connection points: 2
#     Edge 107, Type (0, 0), BuildingBlock: ZUJKAS_clean_linker_0, # of connection points: 2
# Relax obj value: 0.076
# Max RMSD: 0.060
# Mean RMSD: 0.060
data_MOF--net-cha--node1-GALJAG_clean_sbu_0--edge1-ZUJKAS_clean_linker_0
_symmetry_space_group_name_H-M    P1
_symmetry_Int_Tables_number       1
_symmetry_cell_setting            triclinic
loop_
_symmetry_equiv_pos_as_xyz
'x, y, z'
_cell_length_a     75.088321
_cell_length_b     75.091168
_cell_length_c     108.47895
_cell_angle_alpha  90.022132
_cell_angle_beta   89.989678
_cell_angle_gamma 119.99831
loop_
_atom_site_label
_atom_site_type_symbol
_atom_site_fract_x
_atom_site_fract_y
_atom_site_fract_z
_atom_type_partial_charge
In0 In 0.0305 0.29033 0.08778 0.0
O1 O 0.02437 0.30936 0.07353 0.0
O2 O 0.03877 0.29274 0.06751 0.0
C3 C 0.02959 0.30829 0.10919 0.0
C4 C 0.06641 0.29066 0.08986 0.0
C5 C 0.99419 0.25479 0.08733 0.0
O6 O 0.03621 0.31839 0.09931 0.0
O7 O 0.02351 0.28939 0.10819 0.0
O8 O 0.01106 0.25549 0.08941 0.0
O9 O 0.99563 0.27203 0.0854 0.0
C10 C 0.03194 0.30446 0.06466 0.0
O11 O 0.04937 0.2743 0.08861 0.0
O12 O 0.06534 0.30691 0.0902 0.0
In13 In 0.76121 0.76558 0.08623 0.0
O14 O 0.74104 0.74166 0.07165 0.0
O15 O 0.76175 0.77222 0.06586 0.0
C16 C 0.7438 0.74643 0.10762 0.0
C17 C 0.75924 0.80026 0.0888 0.0
C18 C 0.79642 0.76421 0.08556 0.0
O19 O 0.73381 0.74179 0.09763 0.0
O20 O 0.76229 0.76049 0.10672 0.0
O21 O 0.79609 0.7807 0.0871 0.0
O22 O 0.77895 0.74836 0.08431 0.0
C23 C 0.74831 0.75426 0.06281 0.0
O24 O 0.77603 0.80021 0.08866 0.0
O25 O 0.74339 0.78275 0.08774 0.0
In26 In 0.29286 0.0263 0.08813 0.0
O27 O 0.31854 0.0425 0.07383 0.0
O28 O 0.29576 0.01147 0.0705 0.0
C29 C 0.31379 0.02599 0.10833 0.0
C30 C 0.25578 0.99168 0.08813 0.0
C31 C 0.2885 0.05995 0.08918 0.0
O32 O 0.3224 0.03215 0.09798 0.0
O33 O 0.29481 0.01977 0.10836 0.0
O34 O 0.28628 0.05013 0.07934 0.0
O35 O 0.2926 0.05264 0.0985 0.0
C36 C 0.31159 0.02728 0.06662 0.0
O37 O 0.25777 0.00932 0.08704 0.0
O38 O 0.27246 0.99156 0.08918 0.0
In39 In 0.28891 0.03019 0.91521 0.0
O40 O 0.27335 0.04952 0.9146 0.0
O41 O 0.30603 0.06531 0.91478 0.0
C42 C 0.25389 0.99344 0.91401 0.0
C43 C 0.3021 0.03192 0.93859 0.0
C44 C 0.30708 0.02852 0.89406 0.0
O45 O 0.25436 0.01026 0.91219 0.0
O46 O 0.27112 0.99513 0.91636 0.0
O47 O 0.31193 0.02459 0.90443 0.0
O48 O 0.29339 0.03353 0.89442 0.0
C49 C 0.28988 0.06657 0.91457 0.0
O50 O 0.31377 0.03534 0.92943 0.0
O51 O 0.28406 0.02761 0.93589 0.0
In52 In 0.02548 0.28999 0.91227 0.0
O53 O 0.02343 0.31075 0.92715 0.0
O54 O 0.02836 0.28647 0.93277 0.0
C55 C 0.02535 0.3093 0.8913 0.0
C56 C 0.98836 0.25554 0.91199 0.0
C57 C 0.06163 0.29068 0.90979 0.0
O58 O 0.03079 0.31856 0.90151 0.0
O59 O 0.01978 0.29046 0.89176 0.0
O60 O 0.04446 0.27431 0.9093 0.0
O61 O 0.06059 0.30675 0.9115 0.0
C62 C 0.02596 0.30127 0.93597 0.0
O63 O 0.00498 0.25539 0.91059 0.0
O64 O 0.99043 0.27316 0.91349 0.0
In65 In 0.76926 0.76592 0.91117 0.0
O66 O 0.74486 0.74542 0.92538 0.0
O67 O 0.77521 0.76587 0.93164 0.0
C68 C 0.75017 0.74839 0.88976 0.0
C69 C 0.80417 0.76443 0.90836 0.0
C70 C 0.76787 0.8011 0.91219 0.0
O71 O 0.74617 0.73826 0.89967 0.0
O72 O 0.76359 0.7671 0.89074 0.0
O73 O 0.78451 0.80087 0.91131 0.0
O74 O 0.75191 0.78357 0.91264 0.0
C75 C 0.75711 0.75236 0.9344 0.0
O76 O 0.80374 0.78099 0.90773 0.0
O77 O 0.78697 0.7486 0.91033 0.0
In78 In 0.02992 0.76313 0.91305 0.0
O79 O 0.01047 0.77843 0.91495 0.0
O80 O 0.99657 0.7487 0.90676 0.0
C81 C 0.06507 0.79974 0.91463 0.0
C82 C 0.02649 0.74564 0.93542 0.0
C83 C 0.03295 0.74632 0.8917 0.0
O84 O 0.04824 0.79808 0.91124 0.0
O85 O 0.06415 0.78296 0.91731 0.0
O86 O 0.02438 0.73554 0.90113 0.0
O87 O 0.03998 0.76532 0.89313 0.0
C88 C 0.9946 0.76372 0.91015 0.0
O89 O 0.01656 0.75435 0.93236 0.0
O90 O 0.03805 0.7453 0.9271 0.0
In91 In 0.28956 0.29362 0.91183 0.0
O92 O 0.3138 0.3085 0.92721 0.0
O93 O 0.28389 0.30347 0.9306 0.0
C94 C 0.30899 0.31213 0.89071 0.0
C95 C 0.28943 0.25761 0.91354 0.0
C96 C 0.25391 0.29308 0.90809 0.0
O97 O 0.31524 0.32054 0.9011 0.0
O98 O 0.29317 0.29457 0.89104 0.0
O99 O 0.25487 0.2768 0.90915 0.0
O100 O 0.27099 0.30961 0.90882 0.0
C101 C 0.30175 0.30995 0.93468 0.0
O102 O 0.27331 0.25874 0.91467 0.0
O103 O 0.3055 0.27457 0.91159 0.0
In104 In 0.76402 0.02628 0.91211 0.0
O105 O 0.7438 0.02969 0.92679 0.0
O106 O 0.76583 0.02159 0.93258 0.0
C107 C 0.74463 0.02557 0.89099 0.0
C108 C 0.79822 0.06366 0.91187 0.0
C109 C 0.76391 0.99038 0.91027 0.0
O110 O 0.73536 0.02028 0.90121 0.0
O111 O 0.7635 0.03128 0.8915 0.0
O112 O 0.78023 0.00763 0.91 0.0
O113 O 0.74762 0.99124 0.91133 0.0
C114 C 0.7519 0.0254 0.93565 0.0
O115 O 0.79862 0.0472 0.9103 0.0
O116 O 0.78053 0.06127 0.91355 0.0
In117 In 0.7651 0.02996 0.08813 0.0
O118 O 0.77915 0.00935 0.08967 0.0
O119 O 0.74678 0.99491 0.08713 0.0
C120 C 0.80086 0.06579 0.09025 0.0
C121 C 0.75406 0.03081 0.06454 0.0
C122 C 0.74628 0.03092 0.10915 0.0
O123 O 0.79981 0.04851 0.09093 0.0
O124 O 0.78384 0.06499 0.08865 0.0
O125 O 0.74277 0.03662 0.09893 0.0
O126 O 0.75898 0.02463 0.10867 0.0
C127 C 0.76229 0.99276 0.08853 0.0
O128 O 0.74148 0.02618 0.07334 0.0
O129 O 0.77184 0.03487 0.0677 0.0
In130 In 0.02547 0.76807 0.08608 0.0
O131 O 0.02901 0.74687 0.07222 0.0
O132 O 0.02538 0.77133 0.06532 0.0
C133 C 0.02536 0.74997 0.10761 0.0
C134 C 0.06166 0.80357 0.08674 0.0
C135 C 0.98823 0.76541 0.08685 0.0
O136 O 0.02152 0.74058 0.09744 0.0
O137 O 0.02929 0.76832 0.10686 0.0
O138 O 0.00486 0.78213 0.08821 0.0
O139 O 0.99033 0.74995 0.08516 0.0
C140 C 0.02786 0.75629 0.06289 0.0
O141 O 0.04455 0.80295 0.08681 0.0
O142 O 0.06054 0.78623 0.08639 0.0
In143 In 0.2925 0.2889 0.08777 0.0
O144 O 0.25753 0.27299 0.08679 0.0
O145 O 0.27423 0.30565 0.08752 0.0
C146 C 0.29223 0.25314 0.0907 0.0
C147 C 0.30526 0.301 0.06441 0.0
C148 C 0.31272 0.30846 0.10853 0.0
O149 O 0.27662 0.25488 0.09278 0.0
O150 O 0.30804 0.26951 0.08735 0.0
O151 O 0.32186 0.31096 0.09836 0.0
O152 O 0.2936 0.29634 0.10813 0.0
C153 C 0.2569 0.28947 0.087 0.0
O154 O 0.30953 0.3138 0.07304 0.0
O155 O 0.29486 0.28245 0.06762 0.0
In156 In 0.6964 0.62505 0.42041 0.0
O157 O 0.69938 0.64857 0.40578 0.0
O158 O 0.6954 0.61985 0.39982 0.0
C159 C 0.69554 0.64358 0.44155 0.0
C160 C 0.73335 0.62747 0.42153 0.0
C161 C 0.65995 0.58968 0.42186 0.0
O162 O 0.69058 0.64786 0.43132 0.0
O163 O 0.70103 0.63025 0.44103 0.0
O164 O 0.67698 0.59033 0.42296 0.0
O165 O 0.66128 0.6069 0.42007 0.0
C166 C 0.69777 0.63711 0.39681 0.0
O167 O 0.71661 0.61065 0.42222 0.0
O168 O 0.73148 0.64318 0.42026 0.0
In169 In 0.43329 0.09928 0.42135 0.0
O170 O 0.40905 0.07979 0.40677 0.0
O171 O 0.44002 0.09837 0.40103 0.0
C172 C 0.41461 0.07928 0.44233 0.0
C173 C 0.43059 0.13379 0.42111 0.0
C174 C 0.46959 0.10061 0.42433 0.0
O175 O 0.41102 0.07025 0.43204 0.0
O176 O 0.42734 0.09828 0.44196 0.0
O177 O 0.46789 0.1165 0.42458 0.0
O178 O 0.45294 0.08399 0.42263 0.0
C179 C 0.42177 0.08578 0.39799 0.0
O180 O 0.44752 0.13407 0.42131 0.0
O181 O 0.41492 0.11605 0.42096 0.0
In182 In 0.95807 0.36195 0.42076 0.0
O183 O 0.97694 0.35742 0.4057 0.0
O184 O 0.95786 0.36968 0.40062 0.0
C185 C 0.97869 0.36095 0.44097 0.0
C186 C 0.92262 0.32555 0.42084 0.0
C187 C 0.95867 0.39804 0.42314 0.0
O188 O 0.98726 0.36681 0.43059 0.0
O189 O 0.95983 0.35527 0.44103 0.0
O190 O 0.94222 0.38108 0.42191 0.0
O191 O 0.9748 0.39677 0.42328 0.0
C192 C 0.97041 0.36415 0.39718 0.0
O193 O 0.92446 0.34135 0.42612 0.0
O194 O 0.93869 0.32803 0.41558 0.0
In195 In 0.95964 0.36423 0.24444 0.0
O196 O 0.94508 0.38408 0.24117 0.0
O197 O 0.97763 0.39923 0.24287 0.0
C198 C 0.92391 0.32813 0.2451 0.0
C199 C 0.97208 0.36625 0.26802 0.0
C200 C 0.97789 0.36201 0.22349 0.0
O201 O 0.92471 0.34514 0.24342 0.0
O202 O 0.94115 0.32931 0.24651 0.0
O203 O 0.98749 0.36768 0.23359 0.0
O204 O 0.95935 0.35752 0.22404 0.0
C205 C 0.96187 0.4009 0.24131 0.0
O206 O 0.97873 0.35976 0.25944 0.0
O207 O 0.95941 0.37162 0.26465 0.0
In208 In 0.69674 0.62724 0.24467 0.0
O209 O 0.67716 0.59258 0.24227 0.0
O210 O 0.66184 0.60995 0.24272 0.0
C211 C 0.73285 0.62761 0.24509 0.0
C212 C 0.69543 0.63906 0.26803 0.0
C213 C 0.6979 0.64662 0.22346 0.0
O214 O 0.71578 0.61131 0.24376 0.0
O215 O 0.7317 0.64372 0.24629 0.0
O216 O 0.69173 0.65032 0.23345 0.0
O217 O 0.70353 0.63344 0.22427 0.0
C218 C 0.66031 0.59248 0.2418 0.0
O219 O 0.70285 0.65185 0.25931 0.0
O220 O 0.6887 0.62063 0.26491 0.0
In221 In 0.43178 0.09791 0.24627 0.0
O222 O 0.41144 0.07417 0.26086 0.0
O223 O 0.43127 0.10502 0.26651 0.0
C224 C 0.4139 0.07859 0.22496 0.0
C225 C 0.46669 0.09606 0.24759 0.0
C226 C 0.43129 0.13331 0.24318 0.0
O227 O 0.40395 0.07475 0.23493 0.0
O228 O 0.43267 0.09189 0.22583 0.0
O229 O 0.44767 0.13248 0.24307 0.0
O230 O 0.41509 0.11621 0.24471 0.0
C231 C 0.41801 0.08702 0.2696 0.0
O232 O 0.46663 0.1127 0.24612 0.0
O233 O 0.44909 0.08028 0.24843 0.0
In234 In 0.69627 0.10154 0.24694 0.0
O235 O 0.67531 0.11527 0.24587 0.0
O236 O 0.66123 0.08291 0.24826 0.0
C237 C 0.73252 0.13694 0.24489 0.0
C238 C 0.69811 0.09046 0.27039 0.0
C239 C 0.69627 0.08279 0.22569 0.0
O240 O 0.71542 0.13631 0.24444 0.0
O241 O 0.73133 0.11971 0.24629 0.0
O242 O 0.69993 0.07748 0.23599 0.0
O243 O 0.69243 0.09731 0.22618 0.0
C244 C 0.65885 0.09833 0.24713 0.0
O245 O 0.69526 0.07866 0.26138 0.0
O246 O 0.69988 0.10754 0.26752 0.0
In247 In 0.95951 0.62655 0.24446 0.0
O248 O 0.94517 0.59202 0.24186 0.0
O249 O 0.97743 0.60934 0.2449 0.0
C250 C 0.9242 0.62765 0.24302 0.0
C251 C 0.97056 0.63725 0.2682 0.0
C252 C 0.97845 0.64733 0.22374 0.0
O253 O 0.92471 0.61114 0.24232 0.0
O254 O 0.94152 0.64364 0.24433 0.0
O255 O 0.98304 0.65562 0.23426 0.0
O256 O 0.96461 0.62867 0.22375 0.0
C257 C 0.96183 0.59192 0.24301 0.0
O258 O 0.98307 0.64576 0.25943 0.0
O259 O 0.95283 0.62353 0.26494 0.0
In260 In 0.43677 0.36319 0.24512 0.0
O261 O 0.41461 0.363 0.25979 0.0
O262 O 0.44309 0.36631 0.26567 0.0
C263 C 0.41702 0.36171 0.22405 0.0
C264 C 0.47084 0.40038 0.24306 0.0
C265 C 0.43517 0.32644 0.24438 0.0
O266 O 0.40931 0.36091 0.23453 0.0
O267 O 0.43456 0.36337 0.22428 0.0
O268 O 0.45168 0.34329 0.24308 0.0
O269 O 0.41946 0.32809 0.24612 0.0
C270 C 0.42638 0.36523 0.2687 0.0
O271 O 0.47134 0.38383 0.24313 0.0
O272 O 0.45309 0.39819 0.24399 0.0
In273 In 0.43325 0.36176 0.42073 0.0
O274 O 0.41376 0.36624 0.40604 0.0
O275 O 0.43369 0.35537 0.40035 0.0
C276 C 0.41444 0.36217 0.44186 0.0
C277 C 0.43034 0.32464 0.42239 0.0
C278 C 0.46894 0.39809 0.42119 0.0
O279 O 0.40666 0.36131 0.4314 0.0
O280 O 0.43152 0.3628 0.4416 0.0
O281 O 0.46812 0.38108 0.4228 0.0
O282 O 0.45177 0.39682 0.41934 0.0
C283 C 0.42065 0.36042 0.39725 0.0
O284 O 0.44735 0.34124 0.4221 0.0
O285 O 0.41468 0.32675 0.42194 0.0
In286 In 0.69483 0.09837 0.42061 0.0
O287 O 0.70625 0.0834 0.40648 0.0
O288 O 0.68123 0.08752 0.40157 0.0
C289 C 0.69299 0.0781 0.4415 0.0
C290 C 0.73079 0.13436 0.41984 0.0
C291 C 0.66046 0.10073 0.42384 0.0
O292 O 0.69117 0.07009 0.43099 0.0
O293 O 0.69586 0.09613 0.44136 0.0
O294 O 0.67813 0.11653 0.4234 0.0
O295 O 0.66022 0.0839 0.42268 0.0
C296 C 0.69337 0.08142 0.39833 0.0
O297 O 0.71546 0.13112 0.41342 0.0
O298 O 0.728 0.1195 0.42655 0.0
In299 In 0.95877 0.62514 0.42051 0.0
O300 O 0.98266 0.6447 0.40576 0.0
O301 O 0.9518 0.62473 0.4002 0.0
C302 C 0.97847 0.64293 0.44171 0.0
C303 C 0.92426 0.62733 0.42333 0.0
C304 C 0.95949 0.58959 0.42008 0.0
O305 O 0.98269 0.6528 0.4317 0.0
O306 O 0.96449 0.62438 0.44095 0.0
O307 O 0.94308 0.59021 0.42125 0.0
O308 O 0.97556 0.60693 0.41903 0.0
C309 C 0.96983 0.63778 0.39702 0.0
O310 O 0.92425 0.61052 0.42335 0.0
O311 O 0.94176 0.64311 0.42206 0.0
In312 In 0.35767 0.95739 0.75618 0.0
O313 O 0.36099 0.98106 0.74152 0.0
O314 O 0.35318 0.951 0.7357 0.0
C315 C 0.35672 0.97559 0.77747 0.0
C316 C 0.39497 0.96031 0.75638 0.0
C317 C 0.32153 0.92181 0.75768 0.0
O318 O 0.35227 0.98035 0.76722 0.0
O319 O 0.36177 0.96194 0.77689 0.0
O320 O 0.33868 0.92255 0.75822 0.0
O321 O 0.32261 0.93905 0.75655 0.0
C322 C 0.35681 0.96869 0.73264 0.0
O323 O 0.37842 0.94347 0.75769 0.0
O324 O 0.39274 0.97578 0.755 0.0
In325 In 0.09893 0.43079 0.75388 0.0
O326 O 0.07491 0.41124 0.7392 0.0
O327 O 0.10557 0.43158 0.73344 0.0
C328 C 0.08006 0.41114 0.77491 0.0
C329 C 0.0969 0.46566 0.75423 0.0
C330 C 0.13436 0.43008 0.75582 0.0
O331 O 0.07541 0.40232 0.76454 0.0
O332 O 0.094 0.42975 0.7746 0.0
O333 O 0.13367 0.44652 0.75617 0.0
O334 O 0.11712 0.41392 0.75463 0.0
C335 C 0.08753 0.41836 0.73037 0.0
O336 O 0.11357 0.46555 0.75532 0.0
O337 O 0.08117 0.44814 0.75292 0.0
In338 In 0.62254 0.6965 0.75549 0.0
O339 O 0.64471 0.69885 0.7401 0.0
O340 O 0.61472 0.69249 0.73517 0.0
C341 C 0.64375 0.69862 0.77604 0.0
C342 C 0.58834 0.65962 0.75877 0.0
C343 C 0.6239 0.73306 0.75556 0.0
O344 O 0.64762 0.69344 0.76575 0.0
O345 O 0.62943 0.70276 0.77586 0.0
O346 O 0.60751 0.71623 0.75732 0.0
O347 O 0.63968 0.73148 0.7538 0.0
C348 C 0.63195 0.69547 0.73157 0.0
O349 O 0.58822 0.67635 0.75917 0.0
O350 O 0.60574 0.66148 0.75676 0.0
In351 In 0.62018 0.69199 0.57797 0.0
O352 O 0.60666 0.71301 0.57598 0.0
O353 O 0.63901 0.72702 0.57847 0.0
C354 C 0.58482 0.65585 0.57542 0.0
C355 C 0.63006 0.69178 0.60189 0.0
C356 C 0.64008 0.69154 0.55737 0.0
O357 O 0.58562 0.673 0.57469 0.0
O358 O 0.60188 0.65691 0.5774 0.0
O359 O 0.64431 0.68728 0.56785 0.0
O360 O 0.62603 0.69608 0.55738 0.0
C361 C 0.62368 0.72945 0.57698 0.0
O362 O 0.64237 0.69411 0.59327 0.0
O363 O 0.61302 0.68942 0.59838 0.0
In364 In 0.36311 0.95917 0.58043 0.0
O365 O 0.35833 0.97876 0.59496 0.0
O366 O 0.3687 0.95855 0.60089 0.0
C367 C 0.36377 0.97813 0.55915 0.0
C368 C 0.32633 0.92422 0.57999 0.0
C369 C 0.39927 0.95991 0.57849 0.0
O370 O 0.36875 0.98755 0.56933 0.0
O371 O 0.35836 0.95935 0.55979 0.0
O372 O 0.38216 0.94343 0.57841 0.0
O373 O 0.39815 0.97608 0.57945 0.0
C374 C 0.36373 0.9717 0.60387 0.0
O375 O 0.34316 0.92439 0.57914 0.0
O376 O 0.32801 0.94173 0.58115 0.0
In377 In 0.09818 0.4329 0.57868 0.0
O378 O 0.07789 0.40884 0.59314 0.0
O379 O 0.09786 0.43953 0.59902 0.0
C380 C 0.08018 0.41407 0.55727 0.0
C381 C 0.13304 0.43088 0.57945 0.0
C382 C 0.09725 0.46821 0.57644 0.0
O383 O 0.07042 0.40964 0.56733 0.0
O384 O 0.09884 0.42774 0.55809 0.0
O385 O 0.11381 0.46772 0.57665 0.0
O386 O 0.08113 0.45084 0.57719 0.0
C387 C 0.08455 0.42147 0.60199 0.0
O388 O 0.133 0.44744 0.57759 0.0
O389 O 0.11547 0.41529 0.58096 0.0
In390 In 0.35889 0.42847 0.57857 0.0
O391 O 0.33925 0.44366 0.57748 0.0
O392 O 0.32405 0.41156 0.58118 0.0
C393 C 0.39438 0.46411 0.57502 0.0
C394 C 0.36169 0.41799 0.60203 0.0
C395 C 0.35809 0.4081 0.55783 0.0
O396 O 0.37707 0.46305 0.57513 0.0
O397 O 0.39377 0.44716 0.57658 0.0
O398 O 0.36593 0.40647 0.56775 0.0
O399 O 0.35039 0.4196 0.55847 0.0
C400 C 0.32249 0.42738 0.57958 0.0
O401 O 0.35409 0.40475 0.59354 0.0
O402 O 0.36772 0.43617 0.59865 0.0
In403 In 0.62449 0.95619 0.57929 0.0
O404 O 0.60997 0.92159 0.57736 0.0
O405 O 0.64267 0.93943 0.57764 0.0
C406 C 0.58918 0.9574 0.58028 0.0
C407 C 0.63898 0.96859 0.60235 0.0
C408 C 0.64053 0.97386 0.55735 0.0
O409 O 0.5895 0.94079 0.57954 0.0
O410 O 0.60666 0.97338 0.58063 0.0
O411 O 0.65042 0.98063 0.5673 0.0
O412 O 0.62285 0.9584 0.55856 0.0
C413 C 0.62688 0.92179 0.57692 0.0
O414 O 0.64501 0.98094 0.59336 0.0
O415 O 0.62596 0.9503 0.59963 0.0
In416 In 0.1003 0.69689 0.57895 0.0
O417 O 0.07566 0.69248 0.59315 0.0
O418 O 0.10621 0.70346 0.59938 0.0
C419 C 0.0813 0.69509 0.55747 0.0
C420 C 0.13512 0.73347 0.5766 0.0
C421 C 0.0993 0.66047 0.57948 0.0
O422 O 0.07715 0.70121 0.56734 0.0
O423 O 0.09488 0.69001 0.55852 0.0
O424 O 0.11571 0.67738 0.57798 0.0
O425 O 0.08338 0.66194 0.58084 0.0
C426 C 0.08799 0.69842 0.60214 0.0
O427 O 0.13508 0.71667 0.57719 0.0
O428 O 0.11756 0.73181 0.57705 0.0
In429 In 0.09688 0.69236 0.75312 0.0
O430 O 0.07652 0.69645 0.73887 0.0
O431 O 0.09611 0.68541 0.73275 0.0
C432 C 0.07998 0.69432 0.77468 0.0
C433 C 0.09521 0.65587 0.75569 0.0
C434 C 0.13223 0.72884 0.75238 0.0
O435 O 0.06973 0.6888 0.76479 0.0
O436 O 0.09844 0.69872 0.77361 0.0
O437 O 0.13181 0.71194 0.75369 0.0
O438 O 0.11479 0.72734 0.75129 0.0
C439 C 0.0829 0.69038 0.72993 0.0
O440 O 0.11193 0.67272 0.75521 0.0
O441 O 0.07925 0.65741 0.75499 0.0
In442 In 0.36278 0.43292 0.75389 0.0
O443 O 0.38216 0.4675 0.75693 0.0
O444 O 0.39757 0.45025 0.75645 0.0
C445 C 0.3267 0.43245 0.75269 0.0
C446 C 0.365 0.42141 0.7306 0.0
C447 C 0.3598 0.41274 0.77506 0.0
O448 O 0.34365 0.44874 0.75442 0.0
O449 O 0.32798 0.4164 0.75145 0.0
O450 O 0.36802 0.41037 0.76551 0.0
O451 O 0.35312 0.42503 0.77384 0.0
C452 C 0.39901 0.46765 0.75759 0.0
O453 O 0.35834 0.40868 0.73938 0.0
O454 O 0.37055 0.43965 0.73363 0.0
In455 In 0.62108 0.95894 0.75389 0.0
O456 O 0.58653 0.94493 0.75593 0.0
O457 O 0.60453 0.97751 0.75455 0.0
C458 C 0.62247 0.92365 0.7543 0.0
C459 C 0.63193 0.97162 0.73039 0.0
C460 C 0.6408 0.97692 0.77507 0.0
O461 O 0.60604 0.92409 0.75577 0.0
O462 O 0.63821 0.941 0.75259 0.0
O463 O 0.64868 0.98373 0.76462 0.0
O464 O 0.62306 0.96133 0.77478 0.0
C465 C 0.58684 0.96189 0.75564 0.0
O466 O 0.64345 0.98117 0.73939 0.0
O467 O 0.6152 0.95589 0.73329 0.0
H468 H 0.07225 0.25767 0.08868 0.0
H469 H 0.10497 0.25795 0.08862 0.0
H470 H 0.13773 0.32406 0.09176 0.0
H471 H 0.10504 0.32391 0.09197 0.0
H472 H 0.13709 0.27808 0.0715 0.0
H473 H 0.16306 0.306 0.11919 0.0
H474 H 0.13679 0.29595 0.11424 0.0
H475 H 0.1561 0.32171 0.11022 0.0
C476 C 0.08641 0.27226 0.08948 0.0
C477 C 0.08611 0.29077 0.09037 0.0
C478 C 0.10507 0.27238 0.08941 0.0
C479 C 0.12372 0.29099 0.09032 0.0
C480 C 0.12347 0.30951 0.09128 0.0
H481 H 0.25188 0.32298 0.08832 0.0
H482 H 0.21948 0.3234 0.08868 0.0
C483 C 0.10481 0.3094 0.09134 0.0
C484 C 0.14344 0.29105 0.08977 0.0
H485 H 0.18708 0.3037 0.10605 0.0
C486 C 0.148 0.2836 0.07906 0.0
C487 C 0.15762 0.29834 0.09964 0.0
C488 C 0.15314 0.3058 0.11153 0.0
C489 C 0.16654 0.28347 0.0779 0.0
C490 C 0.18069 0.29069 0.08779 0.0
C491 C 0.17617 0.29821 0.09848 0.0
C492 C 0.20021 0.29037 0.08729 0.0
C493 C 0.171 0.27597 0.06603 0.0
C494 C 0.20003 0.27163 0.08647 0.0
C495 C 0.21849 0.27134 0.08626 0.0
C496 C 0.23741 0.28979 0.08692 0.0
C497 C 0.23753 0.30853 0.08776 0.0
C498 C 0.21907 0.3088 0.08799 0.0
H499 H 0.16114 0.27585 0.05835 0.0
H500 H 0.18738 0.28574 0.06334 0.0
H501 H 0.16793 0.26002 0.06733 0.0
H502 H 0.18561 0.25722 0.08614 0.0
H503 H 0.21792 0.25667 0.08567 0.0
H504 H 0.72773 0.95492 0.08682 0.0
H505 H 0.72557 0.92128 0.08784 0.0
H506 H 0.79143 0.95115 0.09204 0.0
H507 H 0.7937 0.98475 0.09119 0.0
H508 H 0.74418 0.90547 0.07245 0.0
H509 H 0.77036 0.91047 0.12078 0.0
H510 H 0.76218 0.92755 0.1146 0.0
H511 H 0.7876 0.93199 0.11144 0.0
C512 C 0.74174 0.95429 0.08801 0.0
C513 C 0.76088 0.97244 0.08899 0.0
C514 C 0.74047 0.93509 0.08859 0.0
C515 C 0.7583 0.93375 0.09023 0.0
C516 C 0.77744 0.95185 0.09105 0.0
H517 H 0.79134 0.83942 0.09106 0.0
H518 H 0.7899 0.87126 0.09162 0.0
C519 C 0.77872 0.97103 0.09048 0.0
C520 C 0.75703 0.91344 0.09071 0.0
H521 H 0.76891 0.88339 0.10855 0.0
C522 C 0.74938 0.90052 0.08038 0.0
C523 C 0.76383 0.90708 0.10108 0.0
C524 C 0.77128 0.9199 0.11266 0.0
C525 C 0.749 0.88165 0.07998 0.0
C526 C 0.75616 0.87547 0.09027 0.0
C527 C 0.76349 0.88824 0.10067 0.0
C528 C 0.75675 0.85607 0.09027 0.0
C529 C 0.74156 0.86879 0.06842 0.0
C530 C 0.73854 0.83701 0.08953 0.0
C531 C 0.73931 0.81879 0.08921 0.0
C532 C 0.7583 0.81939 0.08967 0.0
C533 C 0.77648 0.83849 0.09066 0.0
C534 C 0.77569 0.85668 0.091 0.0
H535 H 0.74085 0.87772 0.06046 0.0
H536 H 0.75176 0.86255 0.06599 0.0
H537 H 0.72588 0.85561 0.07002 0.0
H538 H 0.72375 0.83623 0.08918 0.0
H539 H 0.72505 0.80428 0.0885 0.0
H540 H 0.06757 0.84248 0.08687 0.0
H541 H 0.10033 0.87489 0.08722 0.0
H542 H 0.13307 0.84131 0.08753 0.0
H543 H 0.10034 0.80878 0.08727 0.0
H544 H 0.14666 0.87373 0.10537 0.0
H545 H 0.14136 0.89965 0.0582 0.0
H546 H 0.11941 0.89248 0.06791 0.0
H547 H 0.12567 0.87333 0.0632 0.0
C548 C 0.08175 0.84199 0.08699 0.0
C549 C 0.08142 0.82311 0.087 0.0
C550 C 0.10043 0.86051 0.08712 0.0
C551 C 0.11907 0.86045 0.08723 0.0
C552 C 0.11881 0.84163 0.08738 0.0
H553 H 0.24825 0.95229 0.08957 0.0
H554 H 0.21486 0.92065 0.08962 0.0
C555 C 0.10013 0.8231 0.08722 0.0
C556 C 0.13887 0.88002 0.08742 0.0
H557 H 0.16911 0.92324 0.07061 0.0
C558 C 0.15163 0.88455 0.09777 0.0
C559 C 0.14518 0.89409 0.07751 0.0
C560 C 0.13231 0.88965 0.06602 0.0
C561 C 0.17051 0.90296 0.09853 0.0
C562 C 0.17694 0.91695 0.08855 0.0
C563 C 0.16411 0.91247 0.07824 0.0
C564 C 0.19713 0.93614 0.08853 0.0
C565 C 0.18322 0.90742 0.11009 0.0
C566 C 0.19823 0.9553 0.08755 0.0
C567 C 0.21732 0.97342 0.08742 0.0
C568 C 0.23559 0.97262 0.0882 0.0
C569 C 0.23442 0.95339 0.08904 0.0
C570 C 0.21536 0.93531 0.08915 0.0
H571 H 0.17375 0.89821 0.11803 0.0
H572 H 0.19539 0.90339 0.10853 0.0
H573 H 0.19078 0.92397 0.11255 0.0
H574 H 0.18432 0.95623 0.08698 0.0
H575 H 0.21775 0.98802 0.08673 0.0
H576 H 0.25702 0.07266 0.91488 0.0
H577 H 0.2575 0.10549 0.91483 0.0
H578 H 0.3238 0.13802 0.91411 0.0
H579 H 0.32347 0.10522 0.91408 0.0
H580 H 0.27685 0.13811 0.93237 0.0
H581 H 0.30772 0.16276 0.88501 0.0
H582 H 0.29684 0.13651 0.8902 0.0
H583 H 0.32239 0.15553 0.89477 0.0
C584 C 0.27171 0.0868 0.91466 0.0
C585 C 0.29022 0.08639 0.91443 0.0
C586 C 0.27194 0.10552 0.91465 0.0
C587 C 0.29067 0.12413 0.91432 0.0
C588 C 0.30919 0.12379 0.91416 0.0
H589 H 0.32264 0.25216 0.91239 0.0
H590 H 0.32286 0.21971 0.91318 0.0
C591 C 0.30897 0.10507 0.9142 0.0
C592 C 0.29077 0.14388 0.91438 0.0
H593 H 0.30406 0.18683 0.89724 0.0
C594 C 0.28274 0.14877 0.92469 0.0
C595 C 0.29853 0.15771 0.90435 0.0
C596 C 0.30672 0.15287 0.8929 0.0
C597 C 0.28252 0.16732 0.92531 0.0
C598 C 0.29014 0.18111 0.91523 0.0
C599 C 0.29823 0.17622 0.90494 0.0
C600 C 0.28988 0.2007 0.91514 0.0
C601 C 0.27453 0.17219 0.93684 0.0
C602 C 0.27124 0.20074 0.91591 0.0
C603 C 0.27107 0.21926 0.91553 0.0
C604 C 0.28953 0.23803 0.91424 0.0
C605 C 0.30816 0.23793 0.91341 0.0
C606 C 0.30832 0.21943 0.91384 0.0
H607 H 0.27459 0.16296 0.94483 0.0
H608 H 0.28385 0.18875 0.93922 0.0
H609 H 0.25844 0.16851 0.93528 0.0
H610 H 0.25679 0.18642 0.91665 0.0
H611 H 0.25647 0.21887 0.9161 0.0
H612 H 0.95044 0.25172 0.91503 0.0
H613 H 0.91706 0.21983 0.91548 0.0
H614 H 0.94733 0.18465 0.90927 0.0
H615 H 0.98067 0.21633 0.90894 0.0
H616 H 0.89848 0.18905 0.89706 0.0
H617 H 0.91229 0.15805 0.94016 0.0
H618 H 0.92785 0.18466 0.93567 0.0
H619 H 0.93216 0.16532 0.92882 0.0
C620 C 0.94996 0.23718 0.91379 0.0
C621 C 0.96815 0.23648 0.91203 0.0
C622 C 0.93091 0.21901 0.91403 0.0
C623 C 0.9298 0.19991 0.9126 0.0
C624 C 0.94791 0.19922 0.91064 0.0
H625 H 0.83769 0.07218 0.90857 0.0
H626 H 0.86894 0.10593 0.90866 0.0
C627 C 0.96693 0.21734 0.91039 0.0
C628 C 0.90973 0.18062 0.91299 0.0
H629 H 0.88336 0.13483 0.92815 0.0
C630 C 0.89504 0.17725 0.90391 0.0
C631 C 0.90534 0.16533 0.92197 0.0
C632 C 0.92015 0.16854 0.93228 0.0
C633 C 0.87632 0.1586 0.90332 0.0
C634 C 0.87216 0.14314 0.91215 0.0
C635 C 0.88668 0.1467 0.92136 0.0
C636 C 0.85306 0.12289 0.91182 0.0
C637 C 0.86147 0.15532 0.89303 0.0
C638 C 0.83382 0.12129 0.91365 0.0
C639 C 0.81592 0.10202 0.91361 0.0
C640 C 0.81704 0.08406 0.91179 0.0
C641 C 0.83635 0.08574 0.90998 0.0
C642 C 0.8542 0.10499 0.91004 0.0
H643 H 0.86886 0.16679 0.88553 0.0
H644 H 0.85502 0.13966 0.88906 0.0
H645 H 0.84852 0.15684 0.89675 0.0
H646 H 0.83266 0.13491 0.91527 0.0
H647 H 0.80125 0.10118 0.91507 0.0
H648 H 0.84249 0.7961 0.90287 0.0
H649 H 0.8746 0.79515 0.90196 0.0
H650 H 0.84148 0.73045 0.9106 0.0
H651 H 0.80928 0.73123 0.91154 0.0
H652 H 0.87742 0.75565 0.92557 0.0
H653 H 0.89317 0.76759 0.87527 0.0
H654 H 0.88724 0.78539 0.88274 0.0
H655 H 0.86792 0.75872 0.88173 0.0
C656 C 0.84203 0.78163 0.90448 0.0
C657 C 0.8234 0.76373 0.90726 0.0
C658 C 0.86035 0.78111 0.90389 0.0
C659 C 0.86031 0.76269 0.90609 0.0
C660 C 0.84174 0.74477 0.90882 0.0
H661 H 0.95949 0.73542 0.89852 0.0
H662 H 0.92669 0.73504 0.89731 0.0
C663 C 0.8234 0.74525 0.90933 0.0
C664 C 0.87982 0.76234 0.90615 0.0
H665 H 0.91968 0.76893 0.88786 0.0
C666 C 0.88664 0.75848 0.91733 0.0
C667 C 0.89167 0.76591 0.89535 0.0
C668 C 0.88463 0.76948 0.88305 0.0
C669 C 0.90528 0.75847 0.91805 0.0
C670 C 0.91736 0.76251 0.90731 0.0
C671 C 0.91038 0.76598 0.89608 0.0
C672 C 0.93735 0.7632 0.90764 0.0
C673 C 0.91193 0.75406 0.93025 0.0
C674 C 0.95418 0.77935 0.91369 0.0
C675 C 0.97292 0.77968 0.91435 0.0
C676 C 0.97506 0.76381 0.90899 0.0
C677 C 0.95825 0.74781 0.90277 0.0
C678 C 0.93955 0.74758 0.90205 0.0
H679 H 0.89921 0.74761 0.93709 0.0
H680 H 0.91764 0.74309 0.92902 0.0
H681 H 0.92472 0.76856 0.93405 0.0
H682 H 0.95276 0.79162 0.91797 0.0
H683 H 0.98562 0.79221 0.91918 0.0
H684 H 0.74069 0.59564 0.42408 0.0
H685 H 0.77403 0.59731 0.42496 0.0
H686 H 0.80484 0.66326 0.42107 0.0
H687 H 0.77149 0.66175 0.4203 0.0
H688 H 0.80503 0.61343 0.40674 0.0
H689 H 0.8328 0.65458 0.45141 0.0
H690 H 0.80614 0.64228 0.44679 0.0
H691 H 0.82448 0.66668 0.44031 0.0
C692 C 0.75456 0.61051 0.42347 0.0
C693 C 0.75351 0.62858 0.42215 0.0
C694 C 0.77358 0.61143 0.42398 0.0
C695 C 0.79186 0.63042 0.42324 0.0
C696 C 0.79089 0.64849 0.42188 0.0
H697 H 0.92026 0.66152 0.42244 0.0
H698 H 0.88826 0.66277 0.42241 0.0
C699 C 0.77184 0.64759 0.42137 0.0
C700 C 0.81188 0.6311 0.42347 0.0
H701 H 0.85609 0.64833 0.44011 0.0
C702 C 0.81619 0.62104 0.41403 0.0
C703 C 0.82641 0.64114 0.43297 0.0
C704 C 0.82225 0.65166 0.44352 0.0
C705 C 0.83473 0.62078 0.41382 0.0
C706 C 0.84912 0.63051 0.42343 0.0
C707 C 0.84496 0.64084 0.43278 0.0
C708 C 0.86845 0.62984 0.42401 0.0
C709 C 0.83885 0.6103 0.40323 0.0
C710 C 0.86786 0.61095 0.42521 0.0
C711 C 0.88605 0.61019 0.42522 0.0
C712 C 0.90516 0.62833 0.42411 0.0
C713 C 0.90575 0.6473 0.42328 0.0
C714 C 0.88751 0.64804 0.42326 0.0
H715 H 0.829 0.60843 0.39513 0.0
H716 H 0.85522 0.61912 0.40033 0.0
H717 H 0.83547 0.59477 0.40618 0.0
H718 H 0.85329 0.59677 0.42604 0.0
H719 H 0.88513 0.59536 0.42595 0.0
H720 H 0.46199 0.31672 0.42267 0.0
H721 H 0.45984 0.28314 0.4228 0.0
H722 H 0.39362 0.25318 0.42348 0.0
H723 H 0.39563 0.28677 0.42318 0.0
H724 H 0.44137 0.25154 0.44031 0.0
H725 H 0.4053 0.22594 0.39412 0.0
H726 H 0.41712 0.25237 0.39912 0.0
H727 H 0.392 0.2338 0.4046 0.0
C728 C 0.44696 0.30298 0.42284 0.0
C729 C 0.42897 0.30435 0.42286 0.0
C730 C 0.44577 0.28383 0.42292 0.0
C731 C 0.42658 0.26571 0.42297 0.0
C732 C 0.40857 0.267 0.4232 0.0
H733 H 0.39599 0.13715 0.42149 0.0
H734 H 0.39417 0.16883 0.42242 0.0
C735 C 0.40975 0.28618 0.4231 0.0
C736 C 0.42558 0.24552 0.42292 0.0
H737 H 0.41016 0.20211 0.40575 0.0
C738 C 0.43453 0.24071 0.43277 0.0
C739 C 0.41656 0.23143 0.41308 0.0
C740 C 0.40733 0.23613 0.40207 0.0
C741 C 0.43474 0.22215 0.43305 0.0
C742 C 0.42609 0.20823 0.4231 0.0
C743 C 0.41679 0.21285 0.41336 0.0
C744 C 0.42715 0.1891 0.42246 0.0
C745 C 0.4441 0.21753 0.44404 0.0
C746 C 0.44629 0.19008 0.42195 0.0
C747 C 0.44737 0.17208 0.42144 0.0
C748 C 0.42932 0.15277 0.42133 0.0
C749 C 0.41015 0.15182 0.4216 0.0
C750 C 0.40908 0.16987 0.42212 0.0
H751 H 0.44479 0.22677 0.45222 0.0
H752 H 0.43522 0.20098 0.4465 0.0
H753 H 0.46004 0.22141 0.44175 0.0
H754 H 0.4604 0.2048 0.42192 0.0
H755 H 0.46236 0.1733 0.42115 0.0
H756 H 0.88943 0.31375 0.43578 0.0
H757 H 0.85712 0.28091 0.43565 0.0
H758 H 0.8791 0.26046 0.40504 0.0
H759 H 0.91178 0.29291 0.40553 0.0
H760 H 0.82834 0.26365 0.41895 0.0
H761 H 0.86026 0.21239 0.42749 0.0
H762 H 0.87557 0.23995 0.42895 0.0
H763 H 0.87111 0.22793 0.41402 0.0
C764 C 0.8874 0.30217 0.4291 0.0
C765 C 0.90314 0.30577 0.42074 0.0
C766 C 0.86894 0.28343 0.42901 0.0
C767 C 0.8658 0.26803 0.42049 0.0
C768 C 0.88138 0.27182 0.41196 0.0
H769 H 0.74389 0.16528 0.40289 0.0
H770 H 0.77664 0.19775 0.40272 0.0
C771 C 0.89999 0.29042 0.41218 0.0
C772 C 0.846 0.24829 0.42035 0.0
H773 H 0.82518 0.19618 0.42124 0.0
C774 C 0.82764 0.24889 0.41952 0.0
C775 C 0.84507 0.22903 0.42127 0.0
C776 C 0.86405 0.22726 0.42311 0.0
C777 C 0.8084 0.23081 0.41952 0.0
C778 C 0.80751 0.21153 0.4199 0.0
C779 C 0.82587 0.21094 0.4208 0.0
C780 C 0.78773 0.19178 0.41978 0.0
C781 C 0.78927 0.23263 0.41947 0.0
C782 C 0.78338 0.17727 0.42915 0.0
C783 C 0.76493 0.15855 0.42909 0.0
C784 C 0.75039 0.15404 0.41972 0.0
C785 C 0.75475 0.16848 0.4103 0.0
C786 C 0.77339 0.18709 0.41025 0.0
H787 H 0.79245 0.24785 0.42297 0.0
H788 H 0.78354 0.23104 0.40987 0.0
H789 H 0.77693 0.22046 0.42519 0.0
H790 H 0.79422 0.1805 0.43658 0.0
H791 H 0.76196 0.1477 0.43648 0.0
H792 H 0.99588 0.43916 0.24286 0.0
H793 H 0.99696 0.47233 0.24274 0.0
H794 H 0.93126 0.44112 0.23744 0.0
H795 H 0.93 0.40795 0.23771 0.0
H796 H 0.9839 0.49058 0.22473 0.0
H797 H 0.94028 0.47605 0.26843 0.0
H798 H 0.95134 0.46068 0.26357 0.0
H799 H 0.92751 0.45634 0.25701 0.0
C800 C 0.98169 0.43939 0.24162 0.0
C801 C 0.96283 0.42097 0.24039 0.0
C802 C 0.98233 0.45832 0.24155 0.0
C803 C 0.96415 0.45911 0.2403 0.0
C804 C 0.94541 0.44079 0.23867 0.0
H805 H 0.93015 0.55297 0.23927 0.0
H806 H 0.93173 0.52125 0.23826 0.0
C807 C 0.94473 0.42188 0.23876 0.0
C808 C 0.96468 0.47906 0.24084 0.0
H809 H 0.94616 0.50541 0.25694 0.0
C810 C 0.97577 0.49392 0.23181 0.0
C811 C 0.95411 0.48334 0.25012 0.0
C812 C 0.94279 0.46836 0.26041 0.0
C813 C 0.97608 0.51277 0.23161 0.0
C814 C 0.96524 0.51689 0.24078 0.0
C815 C 0.95437 0.50213 0.24989 0.0
C816 C 0.96464 0.53628 0.24102 0.0
C817 C 0.98751 0.52788 0.2214 0.0
C818 C 0.98263 0.5552 0.24298 0.0
C819 C 0.98178 0.57336 0.24357 0.0
C820 C 0.9629 0.57284 0.24225 0.0
C821 C 0.94492 0.55386 0.2403 0.0
C822 C 0.94579 0.53573 0.23972 0.0
H823 H 0.99106 0.52056 0.21361 0.0
H824 H 0.97846 0.5348 0.21786 0.0
H825 H 0.00226 0.54048 0.22507 0.0
H826 H 0.99727 0.55588 0.24423 0.0
H827 H 0.99586 0.58777 0.24513 0.0
H828 H 0.65342 0.55334 0.23978 0.0
H829 H 0.62025 0.52149 0.23876 0.0
H830 H 0.5889 0.55639 0.24028 0.0
H831 H 0.62207 0.58836 0.24142 0.0
H832 H 0.57392 0.52347 0.25702 0.0
H833 H 0.57974 0.49839 0.20981 0.0
H834 H 0.60145 0.50433 0.21945 0.0
H835 H 0.59614 0.52436 0.21521 0.0
C836 C 0.63947 0.55425 0.23979 0.0
C837 C 0.64032 0.57333 0.24065 0.0
C838 C 0.62055 0.53605 0.23914 0.0
C839 C 0.60216 0.53663 0.23926 0.0
C840 C 0.60295 0.55566 0.24009 0.0
H841 H 0.4737 0.43811 0.24264 0.0
H842 H 0.50507 0.47178 0.24138 0.0
C843 C 0.62188 0.57388 0.24073 0.0
C844 C 0.58212 0.5173 0.23915 0.0
H845 H 0.55288 0.47357 0.22251 0.0
C846 C 0.56918 0.51263 0.24943 0.0
C847 C 0.57607 0.50323 0.22923 0.0
C848 C 0.58897 0.50786 0.21774 0.0
C849 C 0.55061 0.49391 0.25024 0.0
C850 C 0.54472 0.4797 0.2404 0.0
C851 C 0.5575 0.48452 0.23004 0.0
C852 C 0.52566 0.45944 0.24087 0.0
C853 C 0.53781 0.4892 0.26178 0.0
C854 C 0.52686 0.44139 0.24068 0.0
C855 C 0.50901 0.42219 0.24133 0.0
C856 C 0.48963 0.42071 0.24212 0.0
C857 C 0.48844 0.4388 0.24211 0.0
C858 C 0.50632 0.45802 0.24145 0.0
H859 H 0.54669 0.49955 0.26952 0.0
H860 H 0.52444 0.4913 0.2599 0.0
H861 H 0.53185 0.47303 0.26472 0.0
H862 H 0.54166 0.44219 0.24019 0.0
H863 H 0.51041 0.40851 0.24128 0.0
H864 H 0.47073 0.06206 0.25027 0.0
H865 H 0.50274 0.06084 0.25101 0.0
H866 H 0.53779 0.12671 0.24665 0.0
H867 H 0.50597 0.1281 0.24603 0.0
H868 H 0.53385 0.0744 0.23291 0.0
H869 H 0.56395 0.1163 0.27701 0.0
H870 H 0.53744 0.10558 0.27237 0.0
H871 H 0.55693 0.12965 0.26606 0.0
C872 C 0.48528 0.07629 0.24954 0.0
C873 C 0.48588 0.09519 0.24816 0.0
C874 C 0.50351 0.07555 0.24995 0.0
C875 C 0.5226 0.09371 0.24907 0.0
C876 C 0.52322 0.11257 0.2476 0.0
H877 H 0.65044 0.12953 0.24502 0.0
H878 H 0.61674 0.12711 0.24548 0.0
C879 C 0.50503 0.11332 0.24718 0.0
C880 C 0.54193 0.09297 0.24932 0.0
H881 H 0.58743 0.11137 0.2647 0.0
C882 C 0.5455 0.08229 0.23992 0.0
C883 C 0.55705 0.10329 0.25849 0.0
C884 C 0.55363 0.1142 0.26913 0.0
C885 C 0.56416 0.08226 0.2392 0.0
C886 C 0.57943 0.09293 0.24824 0.0
C887 C 0.57569 0.10328 0.25776 0.0
C888 C 0.59968 0.09408 0.2478 0.0
C889 C 0.56764 0.07141 0.22856 0.0
C890 C 0.60122 0.0763 0.24905 0.0
C891 C 0.62047 0.07763 0.24878 0.0
C892 C 0.63846 0.09678 0.24732 0.0
C893 C 0.63685 0.11456 0.24613 0.0
C894 C 0.61763 0.11321 0.2464 0.0
H895 H 0.55636 0.06791 0.22101 0.0
H896 H 0.5834 0.08087 0.22477 0.0
H897 H 0.566 0.05668 0.23185 0.0
H898 H 0.58756 0.06143 0.25035 0.0
H899 H 0.62126 0.06369 0.24977 0.0
H900 H 0.43275 0.99483 0.75406 0.0
H901 H 0.46636 0.99682 0.75372 0.0
H902 H 0.43666 0.93109 0.75849 0.0
H903 H 0.40307 0.92894 0.75874 0.0
H904 H 0.48449 0.98357 0.77206 0.0
H905 H 0.47305 0.94226 0.72774 0.0
H906 H 0.45715 0.95281 0.73246 0.0
H907 H 0.45275 0.92878 0.73872 0.0
C908 C 0.4334 0.98081 0.75501 0.0
C909 C 0.41529 0.96171 0.75636 0.0
C910 C 0.45258 0.98198 0.75483 0.0
C911 C 0.45393 0.96407 0.75589 0.0
C912 C 0.4359 0.94504 0.75742 0.0
H913 H 0.54753 0.93029 0.75813 0.0
H914 H 0.51596 0.93217 0.75846 0.0
C915 C 0.41674 0.94386 0.75762 0.0
C916 C 0.47417 0.9652 0.75557 0.0
H917 H 0.50182 0.94783 0.73981 0.0
C918 C 0.48841 0.97593 0.76496 0.0
C919 C 0.47917 0.95523 0.74627 0.0
C920 C 0.46483 0.94427 0.73565 0.0
C921 C 0.5073 0.97634 0.76555 0.0
C922 C 0.51212 0.96602 0.75638 0.0
C923 C 0.49802 0.95564 0.74686 0.0
C924 C 0.53144 0.96527 0.75663 0.0
C925 C 0.52163 0.98722 0.77618 0.0
C926 C 0.55061 0.98329 0.75546 0.0
C927 C 0.5687 0.98227 0.75529 0.0
C928 C 0.56788 0.9632 0.75622 0.0
C929 C 0.54866 0.94521 0.75742 0.0
C930 C 0.53062 0.94625 0.75759 0.0
H931 H 0.51371 0.99028 0.78385 0.0
H932 H 0.52834 0.97801 0.77979 0.0
H933 H 0.53444 0.00219 0.77295 0.0
H934 H 0.55154 0.99808 0.75448 0.0
H935 H 0.5833 0.99637 0.75429 0.0
H936 H 0.0628 0.46974 0.75256 0.0
H937 H 0.0615 0.50173 0.75294 0.0
H938 H 0.12742 0.53663 0.75706 0.0
H939 H 0.12888 0.50483 0.75661 0.0
H940 H 0.07594 0.53249 0.7718 0.0
H941 H 0.11583 0.56331 0.72717 0.0
H942 H 0.105 0.53665 0.73149 0.0
H943 H 0.12932 0.55578 0.73771 0.0
C944 C 0.07701 0.48425 0.75351 0.0
C945 C 0.09596 0.48482 0.75449 0.0
C946 C 0.07623 0.50246 0.75374 0.0
C947 C 0.09438 0.5215 0.75486 0.0
C948 C 0.11328 0.52209 0.75597 0.0
H949 H 0.12755 0.64915 0.75764 0.0
H950 H 0.12647 0.61605 0.75802 0.0
C951 C 0.11407 0.50392 0.75576 0.0
C952 C 0.09361 0.5408 0.75502 0.0
H953 H 0.11049 0.58612 0.73972 0.0
C954 C 0.08335 0.54419 0.76475 0.0
C955 C 0.10332 0.55596 0.74581 0.0
C956 C 0.11385 0.55274 0.73488 0.0
C957 C 0.08303 0.56268 0.7657 0.0
C958 C 0.09294 0.57794 0.75655 0.0
C959 C 0.10299 0.57441 0.74675 0.0
C960 C 0.0933 0.59782 0.75698 0.0
C961 C 0.07262 0.56596 0.77666 0.0
C962 C 0.07499 0.59849 0.75626 0.0
C963 C 0.07555 0.61738 0.75608 0.0
C964 C 0.09446 0.63588 0.75651 0.0
C965 C 0.11275 0.63514 0.75731 0.0
C966 C 0.11217 0.61627 0.75752 0.0
H967 H 0.07033 0.55515 0.78429 0.0
H968 H 0.08171 0.58195 0.78017 0.0
H969 H 0.05728 0.56331 0.77382 0.0
H970 H 0.06029 0.58443 0.75559 0.0
H971 H 0.06122 0.6175 0.75539 0.0
H972 H 0.40575 0.50669 0.76013 0.0
H973 H 0.43892 0.53855 0.76166 0.0
H974 H 0.47031 0.50369 0.76019 0.0
H975 H 0.43721 0.47176 0.75855 0.0
H976 H 0.4713 0.55041 0.7794 0.0
H977 H 0.49591 0.54569 0.73172 0.0
H978 H 0.46958 0.53049 0.7368 0.0
H979 H 0.48824 0.52334 0.74115 0.0
C980 C 0.41972 0.50581 0.76017 0.0
C981 C 0.41892 0.48677 0.75913 0.0
C982 C 0.43862 0.524 0.76106 0.0
C983 C 0.45702 0.52345 0.76087 0.0
C984 C 0.45627 0.50443 0.76015 0.0
H985 H 0.5849 0.62168 0.7582 0.0
H986 H 0.55338 0.58821 0.75978 0.0
C987 C 0.43736 0.48623 0.75926 0.0
C988 C 0.47698 0.54284 0.76122 0.0
H989 H 0.51982 0.57306 0.74412 0.0
C990 C 0.48195 0.55539 0.77171 0.0
C991 C 0.4908 0.5492 0.75117 0.0
C992 C 0.48588 0.5366 0.73952 0.0
C993 C 0.50049 0.57417 0.77243 0.0
C994 C 0.51417 0.58068 0.76229 0.0
C995 C 0.5093 0.56799 0.75188 0.0
C996 C 0.53331 0.60091 0.76208 0.0
C997 C 0.50538 0.58675 0.78408 0.0
C998 C 0.53242 0.61911 0.76281 0.0
C999 C 0.55037 0.63822 0.76193 0.0
C1000 C 0.5695 0.63944 0.76021 0.0
C1001 C 0.57037 0.6212 0.75955 0.0
C1002 C 0.5524 0.60209 0.76044 0.0
H1003 H 0.4965 0.57716 0.79207 0.0
H1004 H 0.52203 0.59434 0.78628 0.0
H1005 H 0.50122 0.59888 0.78279 0.0
H1006 H 0.51779 0.61854 0.76379 0.0
H1007 H 0.54921 0.65202 0.7624 0.0
H1008 H 0.65872 0.76697 0.57812 0.0
H1009 H 0.66148 0.80087 0.57728 0.0
H1010 H 0.59556 0.77201 0.57394 0.0
H1011 H 0.59269 0.73811 0.57458 0.0
H1012 H 0.61712 0.80403 0.55715 0.0
H1013 H 0.64604 0.82781 0.60496 0.0
H1014 H 0.66072 0.81999 0.59564 0.0
H1015 H 0.63471 0.80152 0.59976 0.0
C1016 C 0.64482 0.76787 0.57723 0.0
C1017 C 0.62548 0.74992 0.57647 0.0
C1018 C 0.64642 0.78722 0.57682 0.0
C1019 C 0.6287 0.78891 0.57573 0.0
C1020 C 0.60941 0.77101 0.57483 0.0
H1021 H 0.59497 0.88258 0.57465 0.0
H1022 H 0.59665 0.85093 0.57361 0.0
C1023 C 0.60779 0.75168 0.57522 0.0
C1024 C 0.63016 0.80929 0.57538 0.0
H1025 H 0.64387 0.85243 0.59248 0.0
C1026 C 0.623 0.81464 0.56486 0.0
C1027 C 0.63791 0.82309 0.58544 0.0
C1028 C 0.64514 0.81782 0.59714 0.0
C1029 C 0.6233 0.83344 0.56415 0.0
C1030 C 0.63069 0.84706 0.57429 0.0
C1031 C 0.63825 0.84192 0.58471 0.0
C1032 C 0.62986 0.86631 0.57451 0.0
C1033 C 0.6158 0.83861 0.55253 0.0
C1034 C 0.64798 0.88539 0.57558 0.0
C1035 C 0.64707 0.90352 0.57621 0.0
C1036 C 0.628 0.90278 0.5759 0.0
C1037 C 0.60989 0.88363 0.57485 0.0
C1038 C 0.61082 0.86555 0.57419 0.0
H1039 H 0.61595 0.8294 0.54455 0.0
H1040 H 0.59974 0.83516 0.55392 0.0
H1041 H 0.62538 0.85519 0.55025 0.0
H1042 H 0.6628 0.88624 0.57593 0.0
H1043 H 0.66126 0.91806 0.57705 0.0
H1044 H 0.17444 0.74061 0.5756 0.0
H1045 H 0.20627 0.77393 0.5756 0.0
H1046 H 0.17098 0.80491 0.57609 0.0
H1047 H 0.13905 0.77164 0.57619 0.0
H1048 H 0.21969 0.80721 0.55854 0.0
H1049 H 0.21005 0.82913 0.60601 0.0
H1050 H 0.19547 0.80308 0.60034 0.0
H1051 H 0.18867 0.8219 0.59579 0.0
C1052 C 0.17346 0.75452 0.57568 0.0
C1053 C 0.15428 0.75354 0.57597 0.0
C1054 C 0.19164 0.77351 0.57567 0.0
C1055 C 0.19093 0.79182 0.57603 0.0
C1056 C 0.17182 0.79092 0.57603 0.0
H1057 H 0.28805 0.92008 0.58073 0.0
H1058 H 0.25485 0.88818 0.57923 0.0
C1059 C 0.15362 0.77192 0.57602 0.0
C1060 C 0.21027 0.81184 0.57643 0.0
H1061 H 0.23855 0.85384 0.59463 0.0
C1062 C 0.22384 0.81743 0.56641 0.0
C1063 C 0.21554 0.82511 0.58672 0.0
C1064 C 0.20179 0.81951 0.59789 0.0
C1065 C 0.24258 0.83605 0.56638 0.0
C1066 C 0.24801 0.84919 0.57675 0.0
C1067 C 0.23431 0.84371 0.5867 0.0
C1068 C 0.26807 0.86845 0.57759 0.0
C1069 C 0.25627 0.84162 0.55518 0.0
C1070 C 0.28644 0.86784 0.57737 0.0
C1071 C 0.30538 0.88599 0.5782 0.0
C1072 C 0.30626 0.90505 0.57938 0.0
C1073 C 0.28783 0.9056 0.5798 0.0
C1074 C 0.26888 0.88743 0.57895 0.0
H1075 H 0.24753 0.83302 0.54688 0.0
H1076 H 0.26383 0.85835 0.55322 0.0
H1077 H 0.26844 0.83764 0.5569 0.0
H1078 H 0.28613 0.8533 0.57661 0.0
H1079 H 0.31932 0.88507 0.57792 0.0
H1080 H 0.31574 0.45948 0.57622 0.0
H1081 H 0.28281 0.45874 0.57662 0.0
H1082 H 0.2514 0.39359 0.58398 0.0
H1083 H 0.28434 0.39423 0.58373 0.0
H1084 H 0.24849 0.4354 0.56143 0.0
H1085 H 0.2295 0.4162 0.61094 0.0
H1086 H 0.25504 0.42547 0.60487 0.0
H1087 H 0.23541 0.39915 0.60257 0.0
C1088 C 0.30183 0.44501 0.57799 0.0
C1089 C 0.3026 0.42692 0.57998 0.0
C1090 C 0.28305 0.44462 0.5782 0.0
C1091 C 0.26473 0.42617 0.58048 0.0
C1092 C 0.26542 0.40805 0.58243 0.0
H1093 H 0.13696 0.39707 0.58341 0.0
H1094 H 0.16872 0.39537 0.58341 0.0
C1095 C 0.28422 0.40843 0.58222 0.0
C1096 C 0.24487 0.42588 0.58042 0.0
H1097 H 0.20402 0.41704 0.59851 0.0
C1098 C 0.23877 0.43142 0.56953 0.0
C1099 C 0.23222 0.42058 0.591 0.0
C1100 C 0.23838 0.41517 0.60305 0.0
C1101 C 0.22026 0.43172 0.56892 0.0
C1102 C 0.20774 0.42669 0.57954 0.0
C1103 C 0.2137 0.42089 0.59039 0.0
C1104 C 0.18859 0.42776 0.57963 0.0
C1105 C 0.21414 0.43715 0.55686 0.0
C1106 C 0.18933 0.44659 0.5777 0.0
C1107 C 0.17126 0.4476 0.57769 0.0
C1108 C 0.15214 0.42981 0.57968 0.0
C1109 C 0.15147 0.41101 0.58181 0.0
C1110 C 0.16957 0.41002 0.58182 0.0
H1111 H 0.22244 0.43528 0.54894 0.0
H1112 H 0.19734 0.42746 0.55525 0.0
H1113 H 0.21799 0.45347 0.55714 0.0
H1114 H 0.20391 0.46052 0.57623 0.0
H1115 H 0.17227 0.46232 0.5761 0.0
H1116 H 0.04596 0.34916 0.11474 0.0
H1117 H 0.04415 0.36402 0.13455 0.0
H1118 H 0.00883 0.30303 0.14985 0.0
H1119 H 0.01114 0.28825 0.13034 0.0
H1120 H 0.01176 0.36006 0.14661 0.0
H1121 H 0.05057 0.33058 0.17651 0.0
H1122 H 0.05165 0.32977 0.15991 0.0
H1123 H 0.03009 0.30982 0.16822 0.0
C1124 C 0.038 0.33898 0.12239 0.0
C1125 C 0.02879 0.31756 0.12103 0.0
C1126 C 0.037 0.34747 0.13369 0.0
C1127 C 0.02678 0.33467 0.14378 0.0
C1128 C 0.0174 0.31327 0.14235 0.0
H1129 H 0.9585 0.34583 0.2018 0.0
H1130 H 0.97347 0.34268 0.18258 0.0
C1131 C 0.01856 0.30482 0.13114 0.0
C1132 C 0.02452 0.34334 0.15559 0.0
H1133 H 0.02682 0.33883 0.18677 0.0
C1134 C 0.01543 0.35574 0.15539 0.0
C1135 C 0.02976 0.3382 0.16706 0.0
C1136 C 0.04128 0.32656 0.16793 0.0
C1137 C 0.01011 0.3619 0.16634 0.0
C1138 C 0.01344 0.35495 0.17778 0.0
C1139 C 0.02388 0.34382 0.17801 0.0
C1140 C 0.00473 0.35759 0.18946 0.0
C1141 C 0.00072 0.37553 0.16551 0.0
C1142 C 0.01718 0.36633 0.1999 0.0
C1143 C 0.00855 0.36783 0.21103 0.0
C1144 C 0.98733 0.36057 0.21186 0.0
C1145 C 0.97493 0.35175 0.20141 0.0
C1146 C 0.98351 0.35011 0.19037 0.0
H1147 H 0.00616 0.38538 0.15715 0.0
H1148 H 0.98375 0.36579 0.16481 0.0
H1149 H 0.00445 0.38557 0.17374 0.0
H1150 H 0.03357 0.37199 0.19944 0.0
H1151 H 0.01846 0.37467 0.21895 0.0
H1152 H 0.70341 0.71903 0.11297 0.0
H1153 H 0.68916 0.70251 0.13291 0.0
H1154 H 0.75005 0.73399 0.14871 0.0
H1155 H 0.76416 0.75087 0.12908 0.0
H1156 H 0.69622 0.67676 0.14587 0.0
H1157 H 0.71891 0.74558 0.17438 0.0
H1158 H 0.71983 0.74663 0.15775 0.0
H1159 H 0.7409 0.74789 0.16645 0.0
C1160 C 0.71367 0.72253 0.12075 0.0
C1161 C 0.73486 0.73632 0.1195 0.0
C1162 C 0.70553 0.71313 0.13213 0.0
C1163 C 0.71847 0.71741 0.1424 0.0
C1164 C 0.73965 0.73098 0.14106 0.0
H1165 H 0.71547 0.64456 0.20205 0.0
H1166 H 0.71672 0.66099 0.18247 0.0
C1167 C 0.74773 0.74048 0.12978 0.0
C1168 C 0.71031 0.70674 0.15432 0.0
H1169 H 0.71402 0.71521 0.18537 0.0
C1170 C 0.69975 0.68516 0.1545 0.0
C1171 C 0.71439 0.71763 0.16559 0.0
C1172 C 0.72392 0.74071 0.16602 0.0
C1173 C 0.69453 0.67427 0.16565 0.0
C1174 C 0.7006 0.68527 0.17691 0.0
C1175 C 0.70975 0.70676 0.17674 0.0
C1176 C 0.69918 0.67495 0.18883 0.0
C1177 C 0.68286 0.65107 0.16523 0.0
C1178 C 0.68962 0.678 0.19911 0.0
C1179 C 0.68923 0.6689 0.21045 0.0
C1180 C 0.69841 0.65663 0.21165 0.0
C1181 C 0.70808 0.65376 0.20138 0.0
C1182 C 0.70863 0.66298 0.19013 0.0
H1183 H 0.67297 0.64539 0.15689 0.0
H1184 H 0.69395 0.64541 0.16476 0.0
H1185 H 0.67304 0.6444 0.17351 0.0
H1186 H 0.68244 0.68738 0.19835 0.0
H1187 H 0.68168 0.67137 0.21823 0.0
H1188 H 0.2979 0.01432 0.13138 0.0
H1189 H 0.31671 0.02007 0.15069 0.0
H1190 H 0.37387 0.04634 0.13059 0.0
H1191 H 0.35512 0.04093 0.11116 0.0
H1192 H 0.34406 0.00754 0.15951 0.0
H1193 H 0.38177 0.09246 0.15426 0.0
H1194 H 0.36033 0.0749 0.14483 0.0
H1195 H 0.38568 0.07918 0.1417 0.0
C1196 C 0.31446 0.02115 0.13104 0.0
C1197 C 0.32508 0.02739 0.11977 0.0
C1198 C 0.32517 0.02437 0.14209 0.0
C1199 C 0.34668 0.03392 0.14208 0.0
C1200 C 0.35728 0.03928 0.1308 0.0
H1201 H 0.43316 0.08332 0.20296 0.0
H1202 H 0.41734 0.07036 0.18284 0.0
C1203 C 0.34656 0.0361 0.11971 0.0
C1204 C 0.35791 0.03924 0.15395 0.0
H1205 H 0.39044 0.08007 0.17183 0.0
C1206 C 0.3543 0.02338 0.1622 0.0
C1207 C 0.37115 0.05993 0.15743 0.0
C1208 C 0.37489 0.07765 0.14916 0.0
C1209 C 0.36366 0.02769 0.17387 0.0
C1210 C 0.37667 0.04839 0.17741 0.0
C1211 C 0.3805 0.0642 0.16907 0.0
C1212 C 0.38617 0.05422 0.1898 0.0
C1213 C 0.35966 0.01006 0.18227 0.0
C1214 C 0.37388 0.0493 0.20041 0.0
C1215 C 0.3829 0.05665 0.21196 0.0
C1216 C 0.40432 0.06921 0.21303 0.0
C1217 C 0.41659 0.07371 0.20243 0.0
C1218 C 0.40759 0.06631 0.19092 0.0
H1219 H 0.35427 0.99553 0.17704 0.0
H1220 H 0.37371 0.01341 0.1875 0.0
H1221 H 0.34749 0.00762 0.18899 0.0
H1222 H 0.35728 0.04036 0.19972 0.0
H1223 H 0.37306 0.05303 0.21997 0.0
H1224 H 0.29992 0.03784 0.87098 0.0
H1225 H 0.31194 0.03157 0.85137 0.0
H1226 H 0.34582 0.00801 0.87089 0.0
H1227 H 0.33379 0.01418 0.89059 0.0
H1228 H 0.3535 0.04548 0.84232 0.0
H1229 H 0.30589 0.96057 0.84753 0.0
H1230 H 0.30158 0.9782 0.85662 0.0
H1231 H 0.32262 0.97414 0.86022 0.0
C1232 C 0.31006 0.03148 0.87111 0.0
C1233 C 0.31579 0.02634 0.88232 0.0
C1234 C 0.31694 0.02796 0.85991 0.0
C1235 C 0.32954 0.01912 0.8597 0.0
C1236 C 0.33589 0.01462 0.87087 0.0
H1237 H 0.36842 0.96948 0.80007 0.0
H1238 H 0.36382 0.98191 0.81996 0.0
C1239 C 0.32907 0.01821 0.88211 0.0
C1240 C 0.33525 0.01378 0.84777 0.0
H1241 H 0.32715 0.97291 0.83001 0.0
C1242 C 0.34781 0.02963 0.83961 0.0
C1243 C 0.32772 0.99309 0.84429 0.0
C1244 C 0.31357 0.97546 0.85255 0.0
C1245 C 0.35327 0.02532 0.82805 0.0
C1246 C 0.34556 0.0046 0.82452 0.0
C1247 C 0.33308 0.98878 0.83274 0.0
C1248 C 0.35 0.99878 0.81232 0.0
C1249 C 0.36748 0.04297 0.81984 0.0
C1250 C 0.34387 0.00424 0.80139 0.0
C1251 C 0.3466 0.99723 0.78997 0.0
C1252 C 0.35526 0.98444 0.78933 0.0
C1253 C 0.36168 0.97929 0.80027 0.0
C1254 C 0.35906 0.98638 0.81164 0.0
H1255 H 0.37651 0.05741 0.82517 0.0
H1256 H 0.37831 0.03949 0.81486 0.0
H1257 H 0.35822 0.04566 0.81291 0.0
H1258 H 0.33643 0.01341 0.80171 0.0
H1259 H 0.3414 0.00134 0.7817 0.0
H1260 H 0.08756 0.42762 0.79798 0.0
H1261 H 0.07424 0.40954 0.81752 0.0
H1262 H 0.03817 0.35256 0.79787 0.0
H1263 H 0.05157 0.37053 0.77823 0.0
H1264 H 0.03272 0.3844 0.82641 0.0
H1265 H 0.07495 0.34146 0.82151 0.0
H1266 H 0.08079 0.36368 0.81223 0.0
H1267 H 0.05862 0.33923 0.80879 0.0
C1268 C 0.07668 0.41126 0.79781 0.0
C1269 C 0.07074 0.40043 0.78659 0.0
C1270 C 0.06905 0.40099 0.80897 0.0
C1271 C 0.05545 0.37971 0.80912 0.0
C1272 C 0.0489 0.36896 0.79793 0.0
H1273 H 0.0112 0.29145 0.86892 0.0
H1274 H 0.01617 0.30853 0.84903 0.0
C1275 C 0.05651 0.37924 0.78674 0.0
C1276 C 0.0489 0.36871 0.82103 0.0
H1277 H 0.05362 0.33394 0.8389 0.0
C1278 C 0.0372 0.37331 0.82916 0.0
C1279 C 0.05489 0.35434 0.82457 0.0
C1280 C 0.06814 0.34944 0.81639 0.0
C1281 C 0.03113 0.3637 0.84073 0.0
C1282 C 0.03727 0.34946 0.8443 0.0
C1283 C 0.04886 0.34481 0.83612 0.0
C1284 C 0.03224 0.33934 0.85654 0.0
C1285 C 0.01796 0.36866 0.84893 0.0
C1286 C 0.03942 0.35101 0.8674 0.0
C1287 C 0.0365 0.34127 0.87883 0.0
C1288 C 0.02658 0.31971 0.87952 0.0
C1289 C 0.01895 0.30809 0.86867 0.0
C1290 C 0.02177 0.31782 0.8573 0.0
H1291 H 0.00986 0.3751 0.84358 0.0
H1292 H 0.00637 0.35479 0.85395 0.0
H1293 H 0.0279 0.38034 0.85583 0.0
H1294 H 0.04794 0.36765 0.86701 0.0
H1295 H 0.04264 0.3506 0.88703 0.0
H1296 H 0.67128 0.6853 0.77996 0.0
H1297 H 0.68916 0.68706 0.79927 0.0
H1298 H 0.65967 0.71699 0.81699 0.0
H1299 H 0.64141 0.71469 0.79797 0.0
H1300 H 0.71616 0.71926 0.81218 0.0
H1301 H 0.64884 0.67337 0.84184 0.0
H1302 H 0.64679 0.67374 0.82527 0.0
H1303 H 0.64655 0.69354 0.83456 0.0
C1304 C 0.66854 0.6921 0.78802 0.0
C1305 C 0.65486 0.69974 0.7875 0.0
C1306 C 0.67871 0.69306 0.79904 0.0
C1307 C 0.67536 0.70168 0.80967 0.0
C1308 C 0.66197 0.70962 0.80905 0.0
H1309 H 0.75247 0.76878 0.86865 0.0
H1310 H 0.73516 0.75441 0.84914 0.0
C1311 C 0.65169 0.70848 0.79812 0.0
C1312 C 0.68669 0.70367 0.82126 0.0
H1313 H 0.68009 0.69807 0.85242 0.0
C1314 C 0.70826 0.71427 0.82096 0.0
C1315 C 0.67646 0.69667 0.8327 0.0
C1316 C 0.65338 0.68349 0.83359 0.0
C1317 C 0.71984 0.71938 0.83186 0.0
C1318 C 0.70955 0.71431 0.84337 0.0
C1319 C 0.68801 0.70236 0.84362 0.0
C1320 C 0.72065 0.72269 0.85516 0.0
C1321 C 0.74298 0.73043 0.83092 0.0
C1322 C 0.71766 0.70972 0.86523 0.0
C1323 C 0.72726 0.71798 0.87654 0.0
C1324 C 0.73998 0.73934 0.87792 0.0
C1325 C 0.74291 0.75224 0.86783 0.0
C1326 C 0.73319 0.74402 0.85662 0.0
H1327 H 0.74794 0.72618 0.82229 0.0
H1328 H 0.749 0.74727 0.83065 0.0
H1329 H 0.74999 0.72691 0.83888 0.0
H1330 H 0.70786 0.69322 0.86435 0.0
H1331 H 0.72472 0.70769 0.88417 0.0
H1332 H 0.01447 0.70574 0.88495 0.0
H1333 H 0.01692 0.69184 0.86493 0.0
H1334 H 0.05767 0.75343 0.85184 0.0
H1335 H 0.05483 0.76734 0.87158 0.0
H1336 H 0.02831 0.73055 0.83501 0.0
H1337 H 0.06557 0.68753 0.85258 0.0
H1338 H 0.04119 0.68068 0.85941 0.0
H1339 H 0.06286 0.70593 0.8619 0.0
C1340 C 0.02398 0.71626 0.87779 0.0
C1341 C 0.03454 0.73761 0.87983 0.0
C1342 C 0.02543 0.70831 0.86639 0.0
C1343 C 0.03768 0.72159 0.85695 0.0
C1344 C 0.04812 0.74289 0.85899 0.0
H1345 H 0.10098 0.71058 0.79591 0.0
H1346 H 0.08759 0.71449 0.81556 0.0
C1347 C 0.04653 0.75082 0.8703 0.0
C1348 C 0.03993 0.71363 0.84489 0.0
H1349 H 0.0597 0.68632 0.83124 0.0
C1350 C 0.03499 0.72071 0.83416 0.0
C1351 C 0.04872 0.70086 0.84384 0.0
C1352 C 0.05507 0.6934 0.85502 0.0
C1353 C 0.03939 0.7161 0.8224 0.0
C1354 C 0.0485 0.70361 0.82136 0.0
C1355 C 0.05263 0.69581 0.83208 0.0
C1356 C 0.05599 0.70034 0.8094 0.0
C1357 C 0.0353 0.72558 0.81127 0.0
C1358 C 0.04263 0.69091 0.79939 0.0
C1359 C 0.05033 0.68888 0.78804 0.0
C1360 C 0.07144 0.69599 0.7866 0.0
C1361 C 0.08464 0.70496 0.79672 0.0
C1362 C 0.077 0.70715 0.80798 0.0
H1363 H 0.03236 0.73821 0.81385 0.0
H1364 H 0.0485 0.73179 0.80478 0.0
H1365 H 0.02152 0.71363 0.80636 0.0
H1366 H 0.0263 0.68517 0.80035 0.0
H1367 H 0.0398 0.68174 0.78041 0.0
H1368 H 0.33544 0.40888 0.79448 0.0
H1369 H 0.33306 0.39249 0.81426 0.0
H1370 H 0.37869 0.37726 0.80237 0.0
H1371 H 0.38052 0.39304 0.78223 0.0
H1372 H 0.34867 0.34588 0.81399 0.0
H1373 H 0.3721 0.4148 0.8425 0.0
H1374 H 0.35068 0.41026 0.83305 0.0
H1375 H 0.37475 0.41616 0.82594 0.0
C1376 C 0.34501 0.40208 0.79608 0.0
C1377 C 0.35827 0.40234 0.78686 0.0
C1378 C 0.34379 0.3929 0.80744 0.0
C1379 C 0.35617 0.38422 0.80996 0.0
C1380 C 0.36918 0.3841 0.80068 0.0
H1381 H 0.34717 0.34572 0.88725 0.0
H1382 H 0.36269 0.36273 0.86766 0.0
C1383 C 0.37019 0.39306 0.78919 0.0
C1384 C 0.35468 0.37455 0.82213 0.0
H1385 H 0.35171 0.38205 0.85289 0.0
C1386 C 0.34972 0.35389 0.82252 0.0
C1387 C 0.35668 0.38513 0.8333 0.0
C1388 C 0.3641 0.40788 0.83367 0.0
C1389 C 0.34525 0.34315 0.83372 0.0
C1390 C 0.34501 0.35314 0.84475 0.0
C1391 C 0.35144 0.3742 0.84443 0.0
C1392 C 0.33662 0.34181 0.85648 0.0
C1393 C 0.34068 0.32117 0.83356 0.0
C1394 C 0.31682 0.32447 0.85675 0.0
C1395 C 0.30813 0.31459 0.86785 0.0
C1396 C 0.31883 0.32218 0.87899 0.0
C1397 C 0.3386 0.33957 0.87879 0.0
C1398 C 0.34747 0.34926 0.86761 0.0
H1399 H 0.34927 0.31871 0.82603 0.0
H1400 H 0.34474 0.31675 0.84244 0.0
H1401 H 0.32405 0.3108 0.83177 0.0
H1402 H 0.30779 0.31886 0.8484 0.0
H1403 H 0.29276 0.30135 0.86775 0.0
H1404 H 0.76247 0.03962 0.86859 0.0
H1405 H 0.74538 0.03565 0.84878 0.0
H1406 H 0.6863 0.00415 0.86682 0.0
H1407 H 0.70336 0.00853 0.88675 0.0
H1408 H 0.71964 -0.00029 0.83772 0.0
H1409 H 0.67957 0.04399 0.84491 0.0
H1410 H 0.69959 0.04617 0.85508 0.0
H1411 H 0.67377 0.02492 0.85657 0.0
C1412 C 0.74584 0.0321 0.86836 0.0
C1413 C 0.73423 0.02438 0.87921 0.0
C1414 C 0.73611 0.02985 0.85704 0.0
C1415 C 0.71458 0.01984 0.85633 0.0
C1416 C 0.70294 0.01237 0.86718 0.0
H1417 H 0.62541 0.96651 0.79833 0.0
H1418 H 0.64409 0.97889 0.81779 0.0
C1419 C 0.71269 0.01475 0.87855 0.0
C1420 C 0.70438 0.01581 0.84413 0.0
H1421 H 0.66922 0.02176 0.82733 0.0
C1422 C 0.7088 0.00475 0.8354 0.0
C1423 C 0.69022 0.02238 0.84113 0.0
C1424 C 0.68564 0.0352 0.84987 0.0
C1425 C 0.69904 -0.00041 0.82388 0.0
C1426 C 0.68462 0.00581 0.82097 0.0
C1427 C 0.68032 0.01706 0.82962 0.0
C1428 C 0.67317 -0.00015 0.80921 0.0
C1429 C 0.70375 0.98699 0.81501 0.0
C1430 C 0.6833 0.0079 0.79797 0.0
C1431 C 0.67266 0.00091 0.78683 0.0
C1432 C 0.65175 0.9857 0.78678 0.0
C1433 C 0.64154 0.97817 0.79808 0.0
C1434 C 0.65215 0.98525 0.8092 0.0
H1435 H 0.71264 0.98055 0.81945 0.0
H1436 H 0.68931 0.97413 0.81119 0.0
H1437 H 0.71294 0.99685 0.8072 0.0
H1438 H 0.69951 0.01932 0.79783 0.0
H1439 H 0.6809 0.00701 0.77826 0.0
H1440 H 0.72396 0.05004 0.11348 0.0
H1441 H 0.71234 0.05555 0.13353 0.0
H1442 H 0.73644 0.02065 0.15129 0.0
H1443 H 0.74845 0.01547 0.1314 0.0
H1444 H 0.68626 0.02868 0.15185 0.0
H1445 H 0.7663 0.07595 0.16896 0.0
H1446 H 0.76041 0.06906 0.15294 0.0
H1447 H 0.7601 0.05079 0.16378 0.0
C1448 C 0.72662 0.04342 0.12166 0.0
C1449 C 0.73733 0.03255 0.12092 0.0
C1450 C 0.71998 0.04656 0.13309 0.0
C1451 C 0.72392 0.03886 0.14391 0.0
C1452 C 0.73368 0.02713 0.14308 0.0
H1453 H 0.70833 0.05437 0.22193 0.0
H1454 H 0.71297 0.04152 0.2021 0.0
C1455 C 0.74045 0.02412 0.13171 0.0
C1456 C 0.71857 0.04373 0.15611 0.0
H1457 H 0.73967 0.06767 0.1834 0.0
C1458 C 0.69791 0.03722 0.15875 0.0
C1459 C 0.73385 0.05493 0.16507 0.0
C1460 C 0.75643 0.06327 0.16254 0.0
C1461 C 0.69208 0.04141 0.17022 0.0
C1462 C 0.70736 0.05255 0.17917 0.0
C1463 C 0.72799 0.05897 0.17654 0.0
C1464 C 0.70255 0.05863 0.19114 0.0
C1465 C 0.66963 0.0337 0.17273 0.0
C1466 C 0.69512 0.07243 0.19151 0.0
C1467 C 0.69255 0.07984 0.20279 0.0
C1468 C 0.69743 0.07361 0.21389 0.0
C1469 C 0.7044 0.0594 0.21352 0.0
C1470 C 0.70706 0.05206 0.20222 0.0
H1471 H 0.65953 0.02112 0.16632 0.0
H1472 H 0.66557 0.02806 0.18235 0.0
H1473 H 0.66647 0.04653 0.17147 0.0
H1474 H 0.69193 0.078 0.18305 0.0
H1475 H 0.68718 0.09081 0.20278 0.0
H1476 H 0.03703 0.76856 0.13002 0.0
H1477 H 0.03382 0.75229 0.15003 0.0
H1478 H 0.00809 0.69305 0.13231 0.0
H1479 H 0.01175 0.70934 0.1122 0.0
H1480 H 0.99839 0.72426 0.16064 0.0
H1481 H 0.04952 0.69127 0.15536 0.0
H1482 H 0.05013 0.71022 0.14486 0.0
H1483 H 0.0307 0.68359 0.14332 0.0
C1484 C 0.03094 0.7521 0.13037 0.0
C1485 C 0.02463 0.7402 0.11956 0.0
C1486 C 0.02913 0.74283 0.14181 0.0
C1487 C 0.02097 0.7215 0.14266 0.0
C1488 C 0.01491 0.7096 0.13185 0.0
H1489 H 0.97203 0.63177 0.20046 0.0
H1490 H 0.9845 0.65084 0.18115 0.0
C1491 C 0.01686 0.7189 0.12037 0.0
C1492 C 0.01726 0.71159 0.15494 0.0
H1493 H 0.02635 0.67921 0.17251 0.0
C1494 C 0.00472 0.71462 0.16329 0.0
C1495 C 0.0255 0.69898 0.15837 0.0
C1496 C 0.03988 0.69596 0.15005 0.0
C1497 C -0.0003 0.70492 0.17483 0.0
C1498 C 0.00761 0.69202 0.17816 0.0
C1499 C 0.02036 0.68916 0.1699 0.0
C1500 C 0.00185 0.68056 0.18992 0.0
C1501 C 0.98541 0.70799 0.18322 0.0
C1502 C 0.00793 0.69096 0.20125 0.0
C1503 C 0.00084 0.6801 0.21232 0.0
C1504 C 0.98757 0.6587 0.2122 0.0
C1505 C 0.98216 0.64827 0.20084 0.0
C1506 C 0.9893 0.65911 0.1898 0.0
H1507 H 0.9777 0.71531 0.17836 0.0
H1508 H 0.97345 0.69307 0.18709 0.0
H1509 H 0.99435 0.71806 0.19102 0.0
H1510 H 0.01781 0.7075 0.2015 0.0
H1511 H 0.00532 0.68852 0.22094 0.0
H1512 H 0.29537 0.30782 0.13064 0.0
H1513 H 0.31277 0.32111 0.15034 0.0
H1514 H 0.37153 0.34325 0.13257 0.0
H1515 H 0.35419 0.33036 0.11273 0.0
H1516 H 0.33623 0.30828 0.16187 0.0
H1517 H 0.38221 0.39227 0.15363 0.0
H1518 H 0.36147 0.37515 0.14359 0.0
H1519 H 0.38639 0.37737 0.14226 0.0
C1520 C 0.31202 0.3158 0.13089 0.0
C1521 C 0.32345 0.31805 0.12016 0.0
C1522 C 0.32193 0.32339 0.14215 0.0
C1523 C 0.34344 0.33337 0.14291 0.0
C1524 C 0.35493 0.33601 0.13215 0.0
H1525 H 0.43199 0.36559 0.20077 0.0
H1526 H 0.41337 0.36006 0.18137 0.0
C1527 C 0.34502 0.32853 0.12084 0.0
C1528 C 0.35364 0.33934 0.15511 0.0
H1529 H 0.39083 0.37956 0.17155 0.0
C1530 C 0.34799 0.32392 0.16404 0.0
C1531 C 0.369 0.35974 0.1579 0.0
C1532 C 0.375 0.37713 0.14888 0.0
C1533 C 0.35769 0.3282 0.17557 0.0
C1534 C 0.3733 0.3485 0.17827 0.0
C1535 C 0.37881 0.36401 0.16942 0.0
C1536 C 0.38479 0.35357 0.19002 0.0
C1537 C 0.35167 0.31086 0.18463 0.0
C1538 C 0.37495 0.35217 0.20127 0.0
C1539 C 0.38556 0.35535 0.21239 0.0
C1540 C 0.40614 0.35993 0.21238 0.0
C1541 C 0.41611 0.36197 0.20107 0.0
C1542 C 0.40553 0.35889 0.18998 0.0
H1543 H 0.34207 0.29554 0.18029 0.0
H1544 H 0.36555 0.31147 0.18868 0.0
H1545 H 0.34271 0.31243 0.19227 0.0
H1546 H 0.35898 0.34828 0.20145 0.0
H1547 H 0.37752 0.35375 0.22098 0.0
H1548 H 0.66762 0.67809 0.55441 0.0
H1549 H 0.68171 0.67382 0.53494 0.0
H1550 H 0.64858 0.69779 0.51498 0.0
H1551 H 0.63458 0.7022 0.53432 0.0
H1552 H 0.65693 0.6487 0.51544 0.0
H1553 H 0.70663 0.72928 0.49994 0.0
H1554 H 0.69819 0.72266 0.51572 0.0
H1555 H 0.68107 0.72305 0.50428 0.0
C1556 C 0.6636 0.68273 0.54588 0.0
C1557 C 0.64998 0.69044 0.54587 0.0
C1558 C 0.67165 0.68029 0.53479 0.0
C1559 C 0.66639 0.68575 0.52356 0.0
C1560 C 0.65317 0.69388 0.52357 0.0
H1561 H 0.67752 0.66689 0.446 0.0
H1562 H 0.67194 0.67819 0.46614 0.0
C1563 C 0.64506 0.69625 0.53462 0.0
C1564 C 0.67312 0.68121 0.51173 0.0
H1565 H 0.69873 0.70304 0.48497 0.0
C1566 C 0.66628 0.66058 0.50883 0.0
C1567 C 0.68512 0.69676 0.50311 0.0
C1568 C 0.69335 0.71921 0.50593 0.0
C1569 C 0.67063 0.65499 0.49737 0.0
C1570 C 0.68257 0.67052 0.4887 0.0
C1571 C 0.6896 0.69119 0.49165 0.0
C1572 C 0.68761 0.66544 0.47648 0.0
C1573 C 0.66178 0.63244 0.4945 0.0
C1574 C 0.69882 0.65514 0.47561 0.0
C1575 C 0.70186 0.64855 0.46418 0.0
C1576 C 0.69399 0.6524 0.45339 0.0
C1577 C 0.68369 0.66366 0.45418 0.0
C1578 C 0.68052 0.67013 0.46566 0.0
H1579 H 0.64877 0.62255 0.50071 0.0
H1580 H 0.65631 0.62901 0.48482 0.0
H1581 H 0.67389 0.62825 0.49577 0.0
H1582 H 0.70483 0.6518 0.48382 0.0
H1583 H 0.71006 0.6401 0.46384 0.0
H1584 H 0.42034 0.09598 0.46529 0.0
H1585 H 0.40794 0.07781 0.48489 0.0
H1586 H 0.37614 0.02001 0.46549 0.0
H1587 H 0.38867 0.03808 0.4458 0.0
H1588 H 0.36721 0.05026 0.49375 0.0
H1589 H 0.41512 0.01316 0.48948 0.0
H1590 H 0.41915 0.03458 0.47997 0.0
H1591 H 0.39831 0.00919 0.47669 0.0
C1592 C 0.41059 0.07941 0.46518 0.0
C1593 C 0.40562 0.06841 0.45402 0.0
C1594 C 0.40348 0.06907 0.47638 0.0
C1595 C 0.39138 0.04758 0.47662 0.0
C1596 C 0.38574 0.0366 0.46548 0.0
H1597 H 0.35136 0.95995 0.53669 0.0
H1598 H 0.35597 0.9767 0.51672 0.0
C1599 C 0.39283 0.04693 0.45426 0.0
C1600 C 0.38548 0.03668 0.48859 0.0
H1601 H 0.39328 0.00412 0.50675 0.0
C1602 C 0.37284 0.04013 0.49661 0.0
C1603 C 0.39296 0.02356 0.49228 0.0
C1604 C 0.40728 0.01997 0.48423 0.0
C1605 C 0.36727 0.03057 0.50821 0.0
C1606 C 0.37488 0.01757 0.51192 0.0
C1607 C 0.38742 0.01406 0.50386 0.0
C1608 C 0.37031 0.00753 0.52418 0.0
C1609 C 0.35307 0.03423 0.5163 0.0
C1610 C 0.37671 0.01932 0.53503 0.0
C1611 C 0.37403 0.00976 0.54649 0.0
C1612 C 0.36509 0.98829 0.54725 0.0
C1613 C 0.35833 0.97653 0.5364 0.0
C1614 C 0.36094 0.98607 0.52498 0.0
H1615 H 0.34426 0.03981 0.51089 0.0
H1616 H 0.34205 0.01998 0.52125 0.0
H1617 H 0.36232 0.04613 0.52327 0.0
H1618 H 0.38438 0.03594 0.5346 0.0
H1619 H 0.37948 0.01921 0.5547 0.0
H1620 H 0.96288 0.3491 0.46404 0.0
H1621 H 0.98183 0.35492 0.48333 0.0
H1622 H 0.03889 0.38143 0.46311 0.0
H1623 H 0.02001 0.37587 0.44372 0.0
H1624 H 0.01013 0.34272 0.49195 0.0
H1625 H 0.04588 0.42751 0.48686 0.0
H1626 H 0.02432 0.40962 0.47761 0.0
H1627 H 0.04975 0.41443 0.47417 0.0
C1628 C 0.97945 0.35597 0.46368 0.0
C1629 C 0.99 0.36224 0.45238 0.0
C1630 C 0.99024 0.35923 0.4747 0.0
C1631 C 0.01175 0.36888 0.47465 0.0
C1632 C 0.02228 0.37425 0.46335 0.0
H1633 H 0.09909 0.41999 0.53503 0.0
H1634 H 0.08302 0.40701 0.51496 0.0
C1635 C 0.01149 0.37099 0.45229 0.0
C1636 C 0.0231 0.37437 0.48648 0.0
H1637 H 0.05518 0.41548 0.50433 0.0
C1638 C 0.02007 0.35861 0.49466 0.0
C1639 C 0.03596 0.39513 0.48998 0.0
C1640 C 0.03911 0.4127 0.48177 0.0
C1641 C 0.02968 0.36308 0.50626 0.0
C1642 C 0.04231 0.38385 0.50982 0.0
C1643 C 0.04552 0.39957 0.50156 0.0
C1644 C 0.05204 0.38983 0.52215 0.0
C1645 C 0.02639 0.34556 0.51455 0.0
C1646 C 0.03997 0.38436 0.53288 0.0
C1647 C 0.04913 0.39171 0.5444 0.0
C1648 C 0.0705 0.40483 0.54533 0.0
C1649 C 0.08258 0.40994 0.5346 0.0
C1650 C 0.07343 0.40253 0.52313 0.0
H1651 H 0.02137 0.33117 0.50924 0.0
H1652 H 0.04064 0.34932 0.51968 0.0
H1653 H 0.01418 0.34263 0.52135 0.0
H1654 H 0.02339 0.37495 0.53232 0.0
H1655 H 0.03944 0.38762 0.5525 0.0
H1656 H 0.38088 0.3898 0.5528 0.0
H1657 H 0.38604 0.37833 0.53265 0.0
H1658 H 0.34282 0.3934 0.51637 0.0
H1659 H 0.33806 0.40544 0.53638 0.0
H1660 H 0.36047 0.34928 0.51576 0.0
H1661 H 0.39419 0.42792 0.49615 0.0
H1662 H 0.38946 0.42286 0.51242 0.0
H1663 H 0.36868 0.41793 0.50215 0.0
C1664 C 0.37234 0.39048 0.54494 0.0
C1665 C 0.35927 0.39875 0.54611 0.0
C1666 C 0.37529 0.38392 0.53345 0.0
C1667 C 0.36516 0.38546 0.52297 0.0
C1668 C 0.3512 0.39259 0.52427 0.0
H1669 H 0.38061 0.36647 0.44497 0.0
H1670 H 0.36613 0.36991 0.46452 0.0
C1671 C 0.34841 0.39935 0.53572 0.0
C1672 C 0.36994 0.38048 0.51062 0.0
H1673 H 0.38982 0.40154 0.48251 0.0
C1674 C 0.36682 0.36067 0.50848 0.0
C1675 C 0.3783 0.39541 0.50114 0.0
C1676 C 0.38306 0.41728 0.50307 0.0
C1677 C 0.37188 0.35543 0.4971 0.0
C1678 C 0.38038 0.37042 0.48769 0.0
C1679 C 0.38313 0.39007 0.48974 0.0
C1680 C 0.38789 0.36657 0.47595 0.0
C1681 C 0.36815 0.33392 0.49521 0.0
C1682 C 0.40491 0.36362 0.47595 0.0
C1683 C 0.41328 0.36184 0.46485 0.0
C1684 C 0.40476 0.36295 0.45354 0.0
C1685 C 0.38745 0.36551 0.45355 0.0
C1686 C 0.37917 0.36746 0.46469 0.0
H1687 H 0.35697 0.32296 0.502 0.0
H1688 H 0.36232 0.32835 0.48576 0.0
H1689 H 0.38286 0.33399 0.49635 0.0
H1690 H 0.41208 0.36328 0.48455 0.0
H1691 H 0.42663 0.35989 0.46513 0.0
H1692 H 0.62155 0.96091 0.53518 0.0
H1693 H 0.63336 0.97756 0.51517 0.0
H1694 H 0.68898 0.02518 0.53193 0.0
H1695 H 0.6773 0.00844 0.55208 0.0
H1696 H 0.64173 0.01754 0.51011 0.0
H1697 H 0.7096 0.00845 0.50095 0.0
H1698 H 0.69013 0.99304 0.51216 0.0
H1699 H 0.70926 0.01905 0.51576 0.0
C1700 C 0.63641 0.97481 0.53461 0.0
C1701 C 0.64849 0.98342 0.5452 0.0
C1702 C 0.64313 0.98427 0.52316 0.0
C1703 C 0.66211 0.00246 0.52205 0.0
C1704 C 0.67444 0.01094 0.53256 0.0
H1705 H 0.69713 0.09321 0.46473 0.0
H1706 H 0.69085 0.07456 0.48415 0.0
C1707 C 0.6677 0.00145 0.54406 0.0
C1708 C 0.66805 0.0133 0.51007 0.0
H1709 H 0.70402 0.02977 0.48713 0.0
C1710 C 0.65532 0.02017 0.50507 0.0
C1711 C 0.68568 0.01652 0.5035 0.0
C1712 C 0.69941 0.00875 0.50828 0.0
C1713 C 0.65988 0.03043 0.49373 0.0
C1714 C 0.67778 0.03412 0.4873 0.0
C1715 C 0.69038 0.02699 0.49217 0.0
C1716 C 0.68363 0.04571 0.47559 0.0
C1717 C 0.64546 0.03717 0.48867 0.0
C1718 C 0.68224 0.03574 0.46439 0.0
C1719 C 0.68582 0.04637 0.45323 0.0
C1720 C 0.69091 0.06711 0.45317 0.0
C1721 C 0.69309 0.0772 0.46446 0.0
C1722 C 0.68951 0.0666 0.47557 0.0
H1723 H 0.63028 0.02934 0.49337 0.0
H1724 H 0.65233 0.05399 0.49004 0.0
H1725 H 0.64303 0.03401 0.47862 0.0
H1726 H 0.67773 0.0196 0.46426 0.0
H1727 H 0.68409 0.03824 0.44466 0.0
H1728 H 0.00479 0.68358 0.44707 0.0
H1729 H 0.02219 0.69803 0.46676 0.0
H1730 H 0.99375 0.637 0.4823 0.0
H1731 H 0.97589 0.62266 0.46291 0.0
H1732 H 0.99227 0.66367 0.49807 0.0
H1733 H 0.07158 0.69608 0.47956 0.0
H1734 H 0.05639 0.70558 0.47243 0.0
H1735 H 0.04913 0.67899 0.47069 0.0
C1736 C 0.00229 0.67331 0.45471 0.0
C1737 C 0.98908 0.652 0.45346 0.0
C1738 C 0.0123 0.68155 0.46593 0.0
C1739 C 0.00951 0.66856 0.47595 0.0
C1740 C 0.99613 0.64733 0.4747 0.0
H1741 H 0.08302 0.67589 0.53671 0.0
H1742 H 0.0655 0.67229 0.51718 0.0
C1743 C 0.98598 0.63914 0.46359 0.0
C1744 C 0.02055 0.67669 0.48778 0.0
H1745 H 0.06835 0.70012 0.50076 0.0
C1746 C 0.00892 0.67181 0.49868 0.0
C1747 C 0.04227 0.68723 0.48853 0.0
C1748 C 0.05562 0.69216 0.47721 0.0
C1749 C 0.01835 0.67633 0.51032 0.0
C1750 C 0.04006 0.6866 0.51106 0.0
C1751 C 0.05171 0.69231 0.50016 0.0
C1752 C 0.05096 0.68958 0.52296 0.0
C1753 C 0.00491 0.669 0.52166 0.0
C1754 C 0.04875 0.70065 0.53271 0.0
C1755 C 0.05854 0.70245 0.54401 0.0
C1756 C 0.07097 0.69354 0.54562 0.0
C1757 C 0.07354 0.68293 0.53575 0.0
C1758 C 0.06358 0.68091 0.52456 0.0
H1759 H 0.98876 0.65738 0.51939 0.0
H1760 H 0.01086 0.66216 0.52843 0.0
H1761 H 0.00482 0.68226 0.5261 0.0
H1762 H 0.03948 0.70788 0.5316 0.0
H1763 H 0.05648 0.71089 0.55145 0.0
H1764 H 0.01179 0.32329 0.05492 0.0
H1765 H 0.00968 0.33066 0.03304 0.0
H1766 H 0.05007 0.30737 0.02364 0.0
H1767 H 0.05223 0.3 0.0453 0.0
H1768 H 0.05826 0.34571 0.01118 0.0
H1769 H 0.97703 0.28154 0.00825 0.0
H1770 H 0.98379 0.3007 0.02009 0.0
H1771 H 0.99366 0.28336 0.02079 0.0
C1772 C 0.0204 0.32 0.04818 0.0
C1773 C 0.03204 0.31092 0.05179 0.0
C1774 C 0.01915 0.32417 0.03572 0.0
C1775 C 0.02962 0.31941 0.02675 0.0
C1776 C 0.0419 0.31117 0.03043 0.0
H1777 H 0.02798 0.28051 0.95587 0.0
H1778 H 0.0276 0.28859 0.9776 0.0
C1779 C 0.04305 0.30689 0.04281 0.0
C1780 C 0.02689 0.32147 0.01343 0.0
H1781 H 0.99408 0.29599 0.98968 0.0
C1782 C 0.04407 0.33526 0.00647 0.0
C1783 C 0.00838 0.30768 0.00735 0.0
C1784 C 0.98961 0.29237 0.01443 0.0
C1785 C 0.04354 0.33482 0.99352 0.0
C1786 C 0.02542 0.3202 0.98747 0.0
C1787 C 0.00789 0.30724 0.99441 0.0
C1788 C 0.02543 0.31581 0.9742 0.0
C1789 C 0.06271 0.34895 0.98636 0.0
C1790 C 0.0243 0.3285 0.96511 0.0
C1791 C 0.02445 0.32387 0.9526 0.0
C1792 C 0.02582 0.30656 0.94908 0.0
C1793 C 0.02696 0.29398 0.95826 0.0
C1794 C 0.02669 0.29853 0.97069 0.0
H1795 H 0.07556 0.35957 0.99246 0.0
H1796 H 0.06771 0.3397 0.98092 0.0
H1797 H 0.05936 0.35819 0.97977 0.0
H1798 H 0.02328 0.3419 0.9677 0.0
H1799 H 0.02354 0.33382 0.94571 0.0
H1800 H 0.71836 0.72648 0.94342 0.0
H1801 H 0.70839 0.71792 0.96515 0.0
H1802 H 0.77186 0.75529 0.97602 0.0
H1803 H 0.78188 0.76373 0.95451 0.0
H1804 H 0.75007 0.71634 0.98828 0.0
H1805 H 0.70889 0.76086 0.98959 0.0
H1806 H 0.70141 0.74118 0.97804 0.0
H1807 H 0.7263 0.76386 0.97725 0.0
C1808 C 0.73016 0.7327 0.95046 0.0
C1809 C 0.75088 0.74589 0.94729 0.0
C1810 C 0.72445 0.72785 0.96285 0.0
C1811 C 0.73939 0.73613 0.97218 0.0
C1812 C 0.7601 0.74874 0.96896 0.0
H1813 H 0.76028 0.77997 0.04317 0.0
H1814 H 0.75303 0.771 0.02145 0.0
C1815 C 0.76579 0.75361 0.95665 0.0
C1816 C 0.73379 0.73278 0.9854 0.0
H1817 H 0.71489 0.74962 0.00844 0.0
C1818 C 0.74195 0.72316 0.99271 0.0
C1819 C 0.72325 0.74179 0.99109 0.0
C1820 C 0.71449 0.75262 0.98366 0.0
C1821 C 0.74099 0.72343 0.00563 0.0
C1822 C 0.73144 0.73344 0.01133 0.0
C1823 C 0.72212 0.74189 0.004 0.0
C1824 C 0.734 0.73832 0.02466 0.0
C1825 C 0.7515 0.71437 0.01308 0.0
C1826 C 0.7254 0.7229 0.0337 0.0
C1827 C 0.72956 0.72801 0.04621 0.0
C1828 C 0.7424 0.74859 0.04979 0.0
C1829 C 0.75042 0.76397 0.04071 0.0
C1830 C 0.74623 0.75888 0.02829 0.0
H1831 H 0.76016 0.70919 0.0072 0.0
H1832 H 0.76231 0.72584 0.01981 0.0
H1833 H 0.7398 0.70093 0.01836 0.0
H1834 H 0.71574 0.70695 0.03108 0.0
H1835 H 0.72313 0.71585 0.05303 0.0
H1836 H 0.27919 0.02565 0.95919 0.0
H1837 H 0.28996 0.02831 0.98062 0.0
H1838 H 0.35088 0.04363 0.9689 0.0
H1839 H 0.34011 0.04088 0.94723 0.0
H1840 H 0.33376 0.01342 0.98826 0.0
H1841 H 0.32819 0.08253 0.99885 0.0
H1842 H 0.30544 0.06279 0.99149 0.0
H1843 H 0.32949 0.07475 0.98327 0.0
C1844 C 0.2949 0.02962 0.96113 0.0
C1845 C 0.30885 0.03319 0.95152 0.0
C1846 C 0.30106 0.03122 0.97339 0.0
C1847 C 0.3213 0.03653 0.97633 0.0
C1848 C 0.33522 0.0397 0.96679 0.0
H1849 H 0.34348 0.06056 0.05534 0.0
H1850 H 0.35217 0.06424 0.03337 0.0
C1851 C 0.32907 0.03813 0.95445 0.0
C1852 C 0.32745 0.03837 0.98944 0.0
H1853 H 0.32608 0.06151 0.01617 0.0
C1854 C 0.33253 0.0242 0.99436 0.0
C1855 C 0.3263 0.05274 0.99733 0.0
C1856 C 0.32227 0.06921 0.99245 0.0
C1857 C 0.33491 0.02301 0.00714 0.0
C1858 C 0.33176 0.03609 0.01514 0.0
C1859 C 0.32828 0.0513 0.01009 0.0
C1860 C 0.32958 0.03287 0.02868 0.0
C1861 C 0.34028 0.00743 0.01193 0.0
C1862 C 0.31434 0.01391 0.03341 0.0
C1863 C 0.30944 0.01176 0.04594 0.0
C1864 C 0.31949 0.02861 0.05397 0.0
C1865 C 0.33548 0.0473 0.04937 0.0
C1866 C 0.34045 0.04942 0.03682 0.0
H1867 H 0.34965 0.00463 0.00511 0.0
H1868 H 0.3489 0.0125 0.02075 0.0
H1869 H 0.32592 0.9926 0.0135 0.0
H1870 H 0.30534 0.00107 0.02731 0.0
H1871 H 0.29699 0.99718 0.0492 0.0
H1872 H 0.05273 0.73479 0.94616 0.0
H1873 H 0.05446 0.72777 0.96811 0.0
H1874 H 0.0011 0.73365 0.97519 0.0
H1875 H 0.99925 0.74054 0.95343 0.0
H1876 H 0.06084 0.75605 0.98613 0.0
H1877 H 0.98894 0.68377 0.996 0.0
H1878 H 0.99897 0.69126 0.98056 0.0
H1879 H 0.98392 0.70124 0.98746 0.0
C1880 C 0.04108 0.73405 0.95237 0.0
C1881 C 0.0259 0.73828 0.94812 0.0
C1882 C 0.04209 0.73005 0.96489 0.0
C1883 C 0.02774 0.7299 0.97326 0.0
C1884 C 0.01204 0.73319 0.96888 0.0
H1885 H 0.02973 0.77719 0.04209 0.0
H1886 H 0.03221 0.76814 0.02083 0.0
C1887 C 0.01111 0.73732 0.95644 0.0
C1888 C 0.03058 0.72924 0.98674 0.0
H1889 H 0.00365 0.70784 0.01318 0.0
C1890 C 0.04857 0.74516 0.99204 0.0
C1891 C 0.0147 0.7149 0.99447 0.0
C1892 C 0.99564 0.6967 0.98931 0.0
C1893 C 0.05032 0.74816 0.00484 0.0
C1894 C 0.03358 0.73505 0.01247 0.0
C1895 C 0.01635 0.71806 0.00728 0.0
C1896 C 0.03261 0.74034 0.0255 0.0
C1897 C 0.06968 0.76594 0.01005 0.0
C1898 C 0.03161 0.72745 0.03516 0.0
C1899 C 0.03021 0.73262 0.04741 0.0
C1900 C 0.02949 0.75058 0.05008 0.0
C1901 C 0.0303 0.76328 0.04034 0.0
C1902 C 0.03184 0.7582 0.02818 0.0
H1903 H 0.08301 0.77045 0.00382 0.0
H1904 H 0.06748 0.77942 0.01111 0.0
H1905 H 0.07333 0.7621 0.01925 0.0
H1906 H 0.032 0.71349 0.03324 0.0
H1907 H 0.02955 0.72252 0.05474 0.0
H1908 H 0.31729 0.33834 0.0536 0.0
H1909 H 0.32105 0.34595 0.0314 0.0
H1910 H 0.30942 0.28465 0.02383 0.0
H1911 H 0.30517 0.27683 0.04583 0.0
H1912 H 0.34583 0.34353 0.01184 0.0
H1913 H 0.26273 0.28784 0.00602 0.0
H1914 H 0.27431 0.29718 0.02094 0.0
H1915 H 0.27641 0.27692 0.01345 0.0
C1916 C 0.31585 0.32663 0.04719 0.0
C1917 C 0.31062 0.3069 0.05139 0.0
C1918 C 0.31802 0.33099 0.03454 0.0
C1919 C 0.3151 0.31571 0.026 0.0
C1920 C 0.31131 0.2965 0.03027 0.0
H1921 H 0.33399 0.31301 0.94809 0.0
H1922 H 0.33916 0.3185 0.97036 0.0
C1923 C 0.30892 0.29207 0.04284 0.0
C1924 C 0.31432 0.31902 0.01261 0.0
H1925 H 0.28274 0.29917 0.98771 0.0
C1926 C 0.33201 0.33402 0.00654 0.0
C1927 C 0.29614 0.30687 0.00578 0.0
C1928 C 0.27625 0.29144 0.01189 0.0
C1929 C 0.3322 0.33658 0.99368 0.0
C1930 C 0.31434 0.32355 0.98678 0.0
C1931 C 0.29649 0.30909 0.99297 0.0
C1932 C 0.31366 0.32388 0.97311 0.0
C1933 C 0.35144 0.35323 0.98765 0.0
C1934 C 0.2977 0.32518 0.96721 0.0
C1935 C 0.29447 0.3216 0.95458 0.0
C1936 C 0.30725 0.31684 0.94756 0.0
C1937 C 0.32399 0.31678 0.95329 0.0
C1938 C 0.32705 0.32007 0.966 0.0
H1939 H 0.36086 0.36579 0.99425 0.0
H1940 H 0.36092 0.34659 0.98442 0.0
H1941 H 0.34774 0.3599 0.97958 0.0
H1942 H 0.28716 0.32808 0.9725 0.0
H1943 H 0.28151 0.32186 0.95037 0.0
H1944 H 0.72517 0.0367 0.94535 0.0
H1945 H 0.71728 0.03765 0.96729 0.0
H1946 H 0.75774 0.01466 0.97711 0.0
H1947 H 0.76566 0.01366 0.95541 0.0
H1948 H 0.71665 0.99494 0.98922 0.0
H1949 H 0.76151 0.08054 0.99228 0.0
H1950 H 0.74293 0.06855 0.9801 0.0
H1951 H 0.76592 0.06689 0.98005 0.0
C1952 C 0.73226 0.03175 0.95221 0.0
C1953 C 0.7461 0.0252 0.94869 0.0
C1954 C 0.72777 0.03233 0.9647 0.0
C1955 C 0.73701 0.02629 0.97377 0.0
C1956 C 0.75043 0.01933 0.97022 0.0
H1957 H 0.77993 0.04328 0.04494 0.0
H1958 H 0.77139 0.04268 0.02322 0.0
C1959 C 0.75498 0.01884 0.95782 0.0
C1960 C 0.73362 0.02781 0.98706 0.0
H1961 H 0.75109 0.06215 0.01085 0.0
C1962 C 0.72367 0.00961 0.99398 0.0
C1963 C 0.74294 0.04701 0.99316 0.0
C1964 C 0.75402 0.06694 0.9861 0.0
C1965 C 0.72387 0.01008 0.00692 0.0
C1966 C 0.73422 0.02927 0.01303 0.0
C1967 C 0.74309 0.04749 0.0061 0.0
C1968 C 0.7389 0.03064 0.02636 0.0
C1969 C 0.71432 0.99008 0.01396 0.0
C1970 C 0.72344 0.02426 0.03535 0.0
C1971 C 0.7283 0.02458 0.04785 0.0
C1972 C 0.74866 0.03123 0.05149 0.0
C1973 C 0.76409 0.03799 0.04245 0.0
C1974 C 0.75926 0.03774 0.03003 0.0
H1975 H 0.70851 0.97652 0.00777 0.0
H1976 H 0.72574 0.98991 0.02039 0.0
H1977 H 0.70127 0.9886 0.01955 0.0
H1978 H 0.70766 0.01888 0.03268 0.0
H1979 H 0.71612 0.01935 0.05464 0.0
H1980 H 0.7155 0.67767 0.27827 0.0
H1981 H 0.71738 0.68638 0.30029 0.0
H1982 H 0.67703 0.62238 0.30891 0.0
H1983 H 0.67513 0.6136 0.28711 0.0
H1984 H 0.6687 0.65283 0.32161 0.0
H1985 H 0.74938 0.66833 0.32498 0.0
H1986 H 0.74294 0.68091 0.31309 0.0
H1987 H 0.73279 0.65367 0.31238 0.0
C1988 C 0.70686 0.66554 0.28487 0.0
C1989 C 0.69529 0.64494 0.28101 0.0
C1990 C 0.70798 0.67052 0.29741 0.0
C1991 C 0.69742 0.65499 0.30618 0.0
C1992 C 0.68525 0.63458 0.30226 0.0
H1993 H 0.69768 0.6156 0.37672 0.0
H1994 H 0.69907 0.62494 0.35508 0.0
C1995 C 0.68426 0.62958 0.28981 0.0
C1996 C 0.69989 0.65934 0.31956 0.0
H1997 H 0.73191 0.66519 0.34347 0.0
C1998 C 0.68268 0.65611 0.32642 0.0
C1999 C 0.71814 0.66346 0.32574 0.0
C2000 C 0.73692 0.66675 0.31875 0.0
C2001 C 0.68289 0.65577 0.33936 0.0
C2002 C 0.70073 0.65868 0.34551 0.0
C2003 C 0.71832 0.66309 0.33867 0.0
C2004 C 0.70032 0.65385 0.35874 0.0
C2005 C 0.66364 0.65089 0.34639 0.0
C2006 C 0.70063 0.66712 0.36796 0.0
C2007 C 0.69989 0.66183 0.38043 0.0
C2008 C 0.69874 0.64318 0.38377 0.0
C2009 C 0.69851 0.63005 0.37446 0.0
C2010 C 0.69936 0.63538 0.36208 0.0
H2011 H 0.65088 0.64861 0.34019 0.0
H2012 H 0.65852 0.63674 0.35195 0.0
H2013 H 0.66695 0.66363 0.35286 0.0
H2014 H 0.70144 0.68149 0.36552 0.0
H2015 H 0.70012 0.67224 0.38742 0.0
H2016 H 0.38302 0.06299 0.38824 0.0
H2017 H 0.37393 0.05424 0.36643 0.0
H2018 H 0.43832 0.08538 0.35693 0.0
H2019 H 0.44745 0.09403 0.37853 0.0
H2020 H 0.38419 0.08233 0.34725 0.0
H2021 H 0.41578 0.03112 0.33822 0.0
H2022 H 0.41079 0.03673 0.35362 0.0
H2023 H 0.43426 0.05432 0.3458 0.0
C2024 C 0.39519 0.0677 0.3815 0.0
C2025 C 0.41594 0.07919 0.38507 0.0
C2026 C 0.38999 0.06269 0.36907 0.0
C2027 C 0.40546 0.06884 0.3601 0.0
C2028 C 0.42614 0.08003 0.36372 0.0
H2029 H 0.42766 0.11328 0.28887 0.0
H2030 H 0.41915 0.10484 0.31053 0.0
C2031 C 0.43133 0.08513 0.37607 0.0
C2032 C 0.40036 0.06538 0.3468 0.0
H2033 H 0.41336 0.04961 0.32051 0.0
C2034 C 0.39011 0.07473 0.34142 0.0
C2035 C 0.40772 0.05512 0.33921 0.0
C2036 C 0.41755 0.04356 0.34453 0.0
C2037 C 0.38862 0.07564 0.32857 0.0
C2038 C 0.39788 0.06724 0.32095 0.0
C2039 C 0.40651 0.05631 0.32635 0.0
C2040 C 0.40122 0.07196 0.30761 0.0
C2041 C 0.37783 0.08628 0.32325 0.0
C2042 C 0.39421 0.05623 0.29875 0.0
C2043 C 0.39915 0.06104 0.28628 0.0
C2044 C 0.4114 0.08162 0.28255 0.0
C2045 C 0.41815 0.09728 0.29144 0.0
C2046 C 0.41315 0.09249 0.30383 0.0
H2047 H 0.36579 0.08529 0.32964 0.0
H2048 H 0.38918 0.1028 0.32186 0.0
H2049 H 0.37061 0.07954 0.31423 0.0
H2050 H 0.38518 0.04027 0.30151 0.0
H2051 H 0.3938 0.04866 0.27962 0.0
H2052 H 0.95992 0.38053 0.37816 0.0
H2053 H 0.96825 0.3811 0.35639 0.0
H2054 H 0.00273 0.35077 0.36469 0.0
H2055 H 0.99432 0.35003 0.38667 0.0
H2056 H 0.00849 0.39871 0.34489 0.0
H2057 H 0.95979 0.31403 0.33794 0.0
H2058 H 0.95655 0.32678 0.35114 0.0
H2059 H 0.97841 0.3232 0.35023 0.0
C2060 C 0.96933 0.37402 0.3754 0.0
C2061 C 0.97639 0.36514 0.38411 0.0
C2062 C 0.97412 0.37441 0.36295 0.0
C2063 C 0.98596 0.36585 0.35894 0.0
C2064 C 0.99338 0.35727 0.36761 0.0
H2065 H 0.99445 0.35047 0.27867 0.0
H2066 H 0.00263 0.351 0.30069 0.0
C2067 C 0.98864 0.35692 0.38014 0.0
C2068 C 0.98989 0.36571 0.34558 0.0
H2069 H 0.97314 0.3345 0.32028 0.0
C2070 C 0.00113 0.38464 0.33951 0.0
C2071 C 0.98039 0.34732 0.33862 0.0
C2072 C 0.96801 0.32662 0.34473 0.0
C2073 C 0.00213 0.38577 0.32661 0.0
C2074 C 0.99134 0.36751 0.31963 0.0
C2075 C 0.98134 0.34846 0.32569 0.0
C2076 C 0.9878 0.3681 0.30625 0.0
C2077 C 0.0141 0.40656 0.32055 0.0
C2078 C 0.97664 0.37736 0.30216 0.0
C2079 C 0.97186 0.37696 0.28971 0.0
C2080 C 0.97814 0.36726 0.28107 0.0
C2081 C 0.98952 0.35814 0.28513 0.0
C2082 C 0.99418 0.35842 0.29767 0.0
H2083 H 0.02658 0.41774 0.32666 0.0
H2084 H 0.02095 0.40554 0.31169 0.0
H2085 H 0.0036 0.41262 0.31863 0.0
H2086 H 0.97119 0.38452 0.30866 0.0
H2087 H 0.96304 0.38408 0.28689 0.0
H2088 H 0.66626 0.07545 0.38008 0.0
H2089 H 0.66875 0.06875 0.3584 0.0
H2090 H 0.72308 0.06478 0.36594 0.0
H2091 H 0.72089 0.07198 0.38781 0.0
H2092 H 0.72958 0.09097 0.34769 0.0
H2093 H 0.65702 0.01967 0.33789 0.0
H2094 H 0.65169 0.03753 0.34569 0.0
H2095 H 0.66623 0.02767 0.35342 0.0
C2096 C 0.67852 0.07273 0.3772 0.0
C2097 C 0.69343 0.07431 0.38564 0.0
C2098 C 0.6798 0.06868 0.36479 0.0
C2099 C 0.69589 0.06588 0.36055 0.0
C2100 C 0.71042 0.06669 0.36904 0.0
H2101 H 0.69461 0.05463 0.27934 0.0
H2102 H 0.6966 0.04613 0.301 0.0
C2103 C 0.70915 0.07079 0.38151 0.0
C2104 C 0.69881 0.06491 0.34708 0.0
H2105 H 0.67192 0.04372 0.32059 0.0
C2106 C 0.71716 0.08028 0.34178 0.0
C2107 C 0.68282 0.05076 0.33932 0.0
C2108 C 0.66344 0.03285 0.34441 0.0
C2109 C 0.71922 0.08297 0.32896 0.0
C2110 C 0.70235 0.07025 0.32129 0.0
C2111 C 0.68471 0.05374 0.3265 0.0
C2112 C 0.70186 0.07529 0.30813 0.0
C2113 C 0.73922 0.0999 0.3238 0.0
C2114 C 0.70379 0.09431 0.30501 0.0
C2115 C 0.70265 0.09916 0.29275 0.0
C2116 C 0.69936 0.08501 0.28332 0.0
C2117 C 0.69723 0.06586 0.28642 0.0
C2118 C 0.69838 0.06099 0.29876 0.0
H2119 H 0.75233 0.10309 0.32994 0.0
H2120 H 0.74231 0.09594 0.31448 0.0
H2121 H 0.73842 0.11423 0.32311 0.0
H2122 H 0.70591 0.10535 0.31211 0.0
H2123 H 0.70422 0.11399 0.29067 0.0
H2124 H 0.00818 0.66151 0.38682 0.0
H2125 H 0.01633 0.6702 0.36488 0.0
H2126 H 0.95164 0.63647 0.35616 0.0
H2127 H 0.94345 0.62782 0.37783 0.0
H2128 H 0.00523 0.64138 0.345 0.0
H2129 H 0.97201 0.69188 0.33859 0.0
H2130 H 0.97862 0.68643 0.35359 0.0
H2131 H 0.95462 0.66848 0.34641 0.0
C2132 C 0.99574 0.65616 0.3802 0.0
C2133 C 0.97518 0.64402 0.38402 0.0
C2134 C 0.00041 0.66112 0.36771 0.0
C2135 C 0.98456 0.65427 0.35895 0.0
C2136 C 0.96408 0.64229 0.36281 0.0
H2137 H 0.94471 0.62279 0.28778 0.0
H2138 H 0.95291 0.63125 0.3095 0.0
C2139 C 0.95943 0.63724 0.37519 0.0
C2140 C 0.989 0.65823 0.34563 0.0
H2141 H 0.97372 0.6741 0.32033 0.0
C2142 C 0.99893 0.64908 0.33959 0.0
C2143 C 0.98085 0.66838 0.33862 0.0
C2144 C 0.97112 0.67954 0.34466 0.0
C2145 C 0.99928 0.64823 0.32665 0.0
C2146 C 0.98956 0.65686 0.31969 0.0
C2147 C 0.98105 0.66739 0.32572 0.0
C2148 C 0.98525 0.65242 0.30641 0.0
C2149 C 0.00861 0.63679 0.32051 0.0
C2150 C 0.00078 0.66164 0.29748 0.0
C2151 C 0.99612 0.65686 0.28497 0.0
C2152 C 0.97589 0.64275 0.2813 0.0
C2153 C 0.96045 0.63367 0.29031 0.0
C2154 C 0.96509 0.63851 0.30272 0.0
H2155 H 0.01488 0.63025 0.32728 0.0
H2156 H 0.99685 0.6241 0.31477 0.0
H2157 H 0.02124 0.64737 0.31429 0.0
H2158 H 0.01643 0.6725 0.30019 0.0
H2159 H 0.0083 0.66409 0.27821 0.0
H2160 H 0.40021 0.37853 0.38702 0.0
H2161 H 0.39284 0.3797 0.36502 0.0
H2162 H 0.42022 0.34258 0.35638 0.0
H2163 H 0.42771 0.34148 0.37815 0.0
H2164 H 0.42415 0.3958 0.34618 0.0
H2165 H 0.36517 0.31485 0.33703 0.0
H2166 H 0.37048 0.32592 0.35232 0.0
H2167 H 0.3867 0.31721 0.3456 0.0
C2168 C 0.40436 0.3704 0.38042 0.0
C2169 C 0.41456 0.35995 0.38426 0.0
C2170 C 0.40015 0.37107 0.36789 0.0
C2171 C 0.40572 0.36096 0.35913 0.0
C2172 C 0.41544 0.35014 0.36303 0.0
H2173 H 0.4517 0.37519 0.28849 0.0
H2174 H 0.44333 0.37606 0.31012 0.0
C2175 C 0.41985 0.34966 0.37546 0.0
C2176 C 0.40331 0.36309 0.34577 0.0
H2177 H 0.3854 0.3345 0.31951 0.0
C2178 C 0.41526 0.3825 0.34035 0.0
C2179 C 0.39152 0.34577 0.33819 0.0
C2180 C 0.37757 0.32478 0.34359 0.0
C2181 C 0.41707 0.38473 0.32749 0.0
C2182 C 0.40677 0.36709 0.31994 0.0
C2183 C 0.39346 0.34798 0.32533 0.0
C2184 C 0.41171 0.36771 0.30669 0.0
C2185 C 0.43068 0.40581 0.3221 0.0
C2186 C 0.39658 0.36243 0.2976 0.0
C2187 C 0.40135 0.36196 0.28515 0.0
C2188 C 0.42122 0.36642 0.2817 0.0
C2189 C 0.43627 0.3717 0.29086 0.0
C2190 C 0.43156 0.37235 0.30322 0.0
H2191 H 0.43227 0.41809 0.32849 0.0
H2192 H 0.44625 0.408 0.32049 0.0
H2193 H 0.42455 0.40758 0.31315 0.0
H2194 H 0.38111 0.3586 0.30014 0.0
H2195 H 0.38944 0.35777 0.27828 0.0
H2196 H 0.34532 0.94316 0.71291 0.0
H2197 H 0.34604 0.95188 0.69123 0.0
H2198 H 0.36799 0.01519 0.70097 0.0
H2199 H 0.36741 0.00654 0.72291 0.0
H2200 H 0.3258 0.97091 0.67881 0.0
H2201 H 0.41139 0.01661 0.67622 0.0
H2202 H 0.39831 0.99922 0.68883 0.0
H2203 H 0.39856 0.02318 0.68786 0.0
C2204 C 0.35024 0.95895 0.71049 0.0
C2205 C 0.35644 0.9742 0.71961 0.0
C2206 C 0.35056 0.96388 0.69808 0.0
C2207 C 0.35718 0.98418 0.6945 0.0
C2208 C 0.363 0.99946 0.70357 0.0
H2209 H 0.34934 0.996 0.61349 0.0
H2210 H 0.3481 0.00394 0.63539 0.0
C2211 C 0.36262 0.9945 0.71606 0.0
C2212 C 0.35858 0.98899 0.68118 0.0
H2213 H 0.39322 0.00815 0.65758 0.0
C2214 C 0.34048 0.97949 0.67414 0.0
C2215 C 0.3778 0.00011 0.67518 0.0
C2216 C 0.3977 0.01034 0.68234 0.0
C2217 C 0.34116 0.97973 0.66121 0.0
C2218 C 0.36045 0.98989 0.65521 0.0
C2219 C 0.37847 0.00047 0.66225 0.0
C2220 C 0.3624 0.98683 0.6419 0.0
C2221 C 0.32137 0.96788 0.65406 0.0
C2222 C 0.37121 0.97499 0.63836 0.0
C2223 C 0.3719 0.97044 0.62598 0.0
C2224 C 0.36387 0.97773 0.61685 0.0
C2225 C 0.35558 0.99013 0.62035 0.0
C2226 C 0.35481 0.99463 0.63282 0.0
H2227 H 0.30788 0.95913 0.66019 0.0
H2228 H 0.31872 0.97871 0.64848 0.0
H2229 H 0.32243 0.95694 0.64763 0.0
H2230 H 0.37711 0.96881 0.64524 0.0
H2231 H 0.37848 0.96094 0.62358 0.0
H2232 H 0.04899 0.39431 0.72057 0.0
H2233 H 0.04015 0.38588 0.69869 0.0
H2234 H 0.10449 0.42034 0.68919 0.0
H2235 H 0.11338 0.42873 0.71083 0.0
H2236 H 0.04946 0.41455 0.67956 0.0
H2237 H 0.08433 0.36621 0.67037 0.0
H2238 H 0.07856 0.37104 0.68577 0.0
H2239 H 0.10186 0.38958 0.67817 0.0
C2240 C 0.06122 0.39985 0.7138 0.0
C2241 C 0.08187 0.41217 0.71739 0.0
C2242 C 0.05616 0.39502 0.70134 0.0
C2243 C 0.0717 0.40218 0.69236 0.0
C2244 C 0.0923 0.41425 0.69599 0.0
H2245 H 0.09355 0.44736 0.62139 0.0
H2246 H 0.08495 0.4385 0.64301 0.0
C2247 C 0.09733 0.41918 0.70837 0.0
C2248 C 0.0667 0.39868 0.67906 0.0
H2249 H 0.0809 0.38416 0.65274 0.0
C2250 C 0.05587 0.40744 0.6737 0.0
C2251 C 0.07475 0.38909 0.67144 0.0
C2252 C 0.08533 0.37825 0.67675 0.0
C2253 C 0.05444 0.40844 0.66085 0.0
C2254 C 0.06432 0.40071 0.65322 0.0
C2255 C 0.07356 0.39033 0.65859 0.0
C2256 C 0.06765 0.40564 0.63991 0.0
C2257 C 0.04309 0.4185 0.65554 0.0
C2258 C 0.06102 0.39006 0.63097 0.0
C2259 C 0.06597 0.39512 0.61852 0.0
C2260 C 0.07791 0.4158 0.6149 0.0
C2261 C 0.08431 0.43129 0.62388 0.0
C2262 C 0.07925 0.42626 0.63624 0.0
H2263 H 0.03089 0.41713 0.66193 0.0
H2264 H 0.05406 0.43512 0.65413 0.0
H2265 H 0.03597 0.41161 0.64653 0.0
H2266 H 0.05225 0.37404 0.63365 0.0
H2267 H 0.06091 0.38287 0.61179 0.0
H2268 H 0.66742 0.70038 0.72098 0.0
H2269 H 0.67506 0.70183 0.6988 0.0
H2270 H 0.6149 0.69253 0.69033 0.0
H2271 H 0.60714 0.69096 0.71226 0.0
H2272 H 0.64838 0.66964 0.679 0.0
H2273 H 0.65923 0.74775 0.6725 0.0
H2274 H 0.66239 0.73849 0.68726 0.0
H2275 H 0.63708 0.73073 0.68153 0.0
C2276 C 0.65584 0.69857 0.71436 0.0
C2277 C 0.63672 0.69564 0.71834 0.0
C2278 C 0.66021 0.69939 0.70174 0.0
C2279 C 0.64559 0.6975 0.693 0.0
C2280 C 0.62643 0.69423 0.69697 0.0
H2281 H 0.60574 0.68801 0.62134 0.0
H2282 H 0.61405 0.69036 0.64321 0.0
C2283 C 0.62202 0.69329 0.7095 0.0
C2284 C 0.64994 0.69903 0.67964 0.0
H2285 H 0.65118 0.72672 0.65442 0.0
C2286 C 0.64959 0.68234 0.67359 0.0
C2287 C 0.65155 0.71567 0.67268 0.0
C2288 C 0.65278 0.73429 0.67881 0.0
C2289 C 0.6492 0.68119 0.66064 0.0
C2290 C 0.64928 0.69717 0.65372 0.0
C2291 C 0.65106 0.71447 0.65979 0.0
C2292 C 0.64459 0.69499 0.64039 0.0
C2293 C 0.64727 0.66233 0.65444 0.0
C2294 C 0.65906 0.69675 0.63157 0.0
C2295 C 0.65435 0.69545 0.61897 0.0
C2296 C 0.63513 0.69238 0.6151 0.0
C2297 C 0.62068 0.69039 0.62401 0.0
C2298 C 0.62539 0.69174 0.63652 0.0
H2299 H 0.64663 0.65089 0.66118 0.0
H2300 H 0.63315 0.65494 0.64868 0.0
H2301 H 0.6606 0.66685 0.64823 0.0
H2302 H 0.67402 0.69942 0.63441 0.0
H2303 H 0.66579 0.69708 0.61229 0.0
H2304 H 0.3819 0.44717 0.71115 0.0
H2305 H 0.38155 0.43815 0.68952 0.0
H2306 H 0.34951 0.37375 0.69899 0.0
H2307 H 0.34972 0.38271 0.72084 0.0
H2308 H 0.39717 0.41342 0.67813 0.0
H2309 H 0.31258 0.38072 0.67262 0.0
H2310 H 0.32646 0.39716 0.68545 0.0
H2311 H 0.32173 0.37128 0.68492 0.0
C2312 C 0.37486 0.43108 0.70867 0.0
C2313 C 0.36573 0.41563 0.71767 0.0
C2314 C 0.37473 0.42595 0.69631 0.0
C2315 C 0.36537 0.4053 0.69267 0.0
C2316 C 0.35663 0.38978 0.70164 0.0
H2317 H 0.34477 0.37984 0.61278 0.0
H2318 H 0.34617 0.37221 0.63471 0.0
C2319 C 0.35683 0.39492 0.71408 0.0
C2320 C 0.36437 0.4005 0.67938 0.0
H2321 H 0.33206 0.38668 0.65464 0.0
C2322 C 0.38289 0.40714 0.673 0.0
C2323 C 0.34569 0.39217 0.67274 0.0
C2324 C 0.32542 0.38495 0.6792 0.0
C2325 C 0.38337 0.40684 0.66008 0.0
C2326 C 0.3649 0.40005 0.65341 0.0
C2327 C 0.34619 0.39194 0.6598 0.0
C2328 C 0.36507 0.40408 0.64005 0.0
C2329 C 0.40375 0.41456 0.65367 0.0
C2330 C 0.37505 0.42448 0.63587 0.0
C2331 C 0.37415 0.42885 0.62348 0.0
C2332 C 0.36321 0.4129 0.61499 0.0
C2333 C 0.35338 0.39241 0.61913 0.0
C2334 C 0.35417 0.38804 0.63161 0.0
H2335 H 0.41475 0.4126 0.65956 0.0
H2336 H 0.40188 0.40643 0.64479 0.0
H2337 H 0.41056 0.43122 0.65172 0.0
H2338 H 0.38315 0.43711 0.64227 0.0
H2339 H 0.38185 0.44479 0.62059 0.0
H2340 H 0.66927 0.00075 0.72107 0.0
H2341 H 0.6783 0.00956 0.69925 0.0
H2342 H 0.61613 0.96539 0.6888 0.0
H2343 H 0.60707 0.9565 0.7104 0.0
H2344 H 0.67427 0.98084 0.68029 0.0
H2345 H 0.62852 0.01819 0.66973 0.0
H2346 H 0.63559 0.01554 0.68527 0.0
H2347 H 0.61396 0.99432 0.67783 0.0
C2348 C 0.65751 0.99311 0.71411 0.0
C2349 C 0.63747 0.97794 0.71742 0.0
C2350 C 0.66269 0.99815 0.70168 0.0
C2351 C 0.64779 0.98835 0.69246 0.0
C2352 C 0.62774 0.97342 0.6958 0.0
H2353 H 0.63329 0.9436 0.62177 0.0
H2354 H 0.64107 0.95316 0.6434 0.0
C2355 C 0.62263 0.96826 0.70814 0.0
C2356 C 0.65316 0.99233 0.67923 0.0
H2357 H 0.63666 0.00313 0.65246 0.0
C2358 C 0.66647 0.98621 0.67421 0.0
C2359 C 0.64323 -0.00036 0.67134 0.0
C2360 C 0.62968 0.0075 0.67632 0.0
C2361 C 0.66872 0.98554 0.6614 0.0
C2362 C 0.65722 0.99096 0.65349 0.0
C2363 C 0.64532 0.99878 0.65854 0.0
C2364 C 0.65496 0.98588 0.64018 0.0
C2365 C 0.6827 0.9782 0.65643 0.0
C2366 C 0.6601 0.00112 0.63118 0.0
C2367 C 0.65568 0.99567 0.61873 0.0
C2368 C 0.64571 0.97488 0.61519 0.0
C2369 C 0.64098 0.95975 0.62422 0.0
C2370 C 0.64557 0.9652 0.63658 0.0
H2371 H 0.69514 0.9812 0.66309 0.0
H2372 H 0.67362 0.96136 0.65485 0.0
H2373 H 0.68974 0.98579 0.64754 0.0
H2374 H 0.66714 0.01715 0.63381 0.0
H2375 H 0.6594 0.00762 0.61196 0.0
H2376 H 0.0594 0.70576 0.72045 0.0
H2377 H 0.05056 0.70631 0.69868 0.0
H2378 H 0.08268 0.67418 0.68877 0.0
H2379 H 0.09142 0.67352 0.71031 0.0
H2380 H 0.07883 0.72498 0.67964 0.0
H2381 H 0.02881 0.64232 0.66975 0.0
H2382 H 0.03397 0.65249 0.68526 0.0
H2383 H 0.05192 0.64709 0.67745 0.0
C2384 C 0.06427 0.69856 0.71362 0.0
C2385 C 0.0761 0.68961 0.71706 0.0
C2386 C 0.05922 0.69887 0.70122 0.0
C2387 C 0.06565 0.68995 0.69215 0.0
C2388 C 0.07712 0.6807 0.69564 0.0
H2389 H 0.11309 0.71451 0.62195 0.0
H2390 H 0.10336 0.71383 0.64343 0.0
C2391 C 0.08227 0.6805 0.70796 0.0
C2392 C 0.06231 0.69187 0.67887 0.0
H2393 H 0.04793 0.6638 0.6523 0.0
C2394 C 0.07159 0.71161 0.67367 0.0
C2395 C 0.05253 0.67445 0.67109 0.0
C2396 C 0.04105 0.6529 0.6762 0.0
C2397 C 0.07299 0.71435 0.66084 0.0
C2398 C 0.06517 0.6969 0.65307 0.0
C2399 C 0.05421 0.67718 0.65826 0.0
C2400 C 0.07065 0.69871 0.63984 0.0
C2401 C 0.0836 0.73591 0.65573 0.0
C2402 C 0.05545 0.69012 0.63067 0.0
C2403 C 0.061 0.69043 0.6183 0.0
C2404 C 0.08181 0.69906 0.61499 0.0
C2405 C 0.09693 0.70779 0.6242 0.0
C2406 C 0.09141 0.70758 0.63648 0.0
H2407 H 0.08212 0.74667 0.66211 0.0
H2408 H 0.10024 0.74135 0.65462 0.0
H2409 H 0.07723 0.73651 0.6466 0.0
H2410 H 0.03933 0.68298 0.6331 0.0
H2411 H 0.04903 0.68353 0.61138 0.0
H2412 H 0.8392 0.07118 0.09394 0.0
H2413 H 0.87196 0.10362 0.09402 0.0
H2414 H 0.83986 0.13693 0.08749 0.0
H2415 H 0.80702 0.10461 0.08761 0.0
H2416 H 0.88857 0.13181 0.07491 0.0
H2417 H 0.87713 0.16802 0.1165 0.0
H2418 H 0.86119 0.14098 0.11312 0.0
H2419 H 0.85684 0.15961 0.10534 0.0
C2420 C 0.83911 0.08544 0.09265 0.0
C2421 C 0.82056 0.08539 0.09082 0.0
C2422 C 0.85783 0.10393 0.09267 0.0
C2423 C 0.85831 0.12268 0.09092 0.0
C2424 C 0.8398 0.12267 0.08912 0.0
H2425 H 0.95592 0.2496 0.08357 0.0
H2426 H 0.92295 0.21734 0.08411 0.0
C2427 C 0.82107 0.10419 0.08913 0.0
C2428 C 0.87825 0.14215 0.09043 0.0
H2429 H 0.90609 0.18927 0.104 0.0
C2430 C 0.89247 0.14434 0.08131 0.0
C2431 C 0.88322 0.15847 0.09877 0.0
C2432 C 0.86889 0.15666 0.10906 0.0
C2433 C 0.91144 0.16257 0.08017 0.0
C2434 C 0.9164 0.17889 0.0885 0.0
C2435 C 0.90219 0.17672 0.09761 0.0
C2436 C 0.93637 0.19829 0.08799 0.0
C2437 C 0.92583 0.16437 0.06992 0.0
C2438 C 0.95478 0.19823 0.09009 0.0
C2439 C 0.9736 0.2166 0.08978 0.0
C2440 C 0.97431 0.23535 0.08742 0.0
C2441 C 0.95585 0.23538 0.08537 0.0
C2442 C 0.93702 0.21699 0.08569 0.0
H2443 H 0.91773 0.15279 0.06256 0.0
H2444 H 0.9333 0.17995 0.06573 0.0
H2445 H 0.93808 0.1618 0.07373 0.0
H2446 H 0.95457 0.184 0.0921 0.0
H2447 H 0.98757 0.21612 0.09146 0.0
H2448 H 0.9804 0.79686 0.09 0.0
H2449 H 0.94695 0.79504 0.08977 0.0
H2450 H 0.91695 0.72961 0.08354 0.0
H2451 H 0.95037 0.73127 0.08388 0.0
H2452 H 0.91822 0.78087 0.07027 0.0
H2453 H 0.88517 0.73494 0.11293 0.0
H2454 H 0.91231 0.7477 0.10947 0.0
H2455 H 0.89484 0.72402 0.10189 0.0
C2456 C 0.96667 0.78206 0.08866 0.0
C2457 C 0.96798 0.76419 0.08699 0.0
C2458 C 0.94759 0.78106 0.08852 0.0
C2459 C 0.92949 0.76217 0.08678 0.0
C2460 C 0.93072 0.74428 0.08511 0.0
H2461 H 0.80094 0.73054 0.0826 0.0
H2462 H 0.8331 0.72958 0.08236 0.0
C2463 C 0.94982 0.74527 0.08525 0.0
C2464 C 0.90941 0.7614 0.08631 0.0
H2465 H 0.86318 0.74216 0.10098 0.0
C2466 C 0.90618 0.77243 0.07699 0.0
C2467 C 0.89373 0.75027 0.09505 0.0
C2468 C 0.89665 0.73868 0.10547 0.0
C2469 C 0.88762 0.77259 0.07614 0.0
C2470 C 0.87206 0.76174 0.08499 0.0
C2471 C 0.87517 0.75047 0.09421 0.0
C2472 C 0.85266 0.76235 0.08502 0.0
C2473 C 0.88474 0.78417 0.06569 0.0
C2474 C 0.85303 0.78106 0.08674 0.0
C2475 C 0.83474 0.78166 0.08686 0.0
C2476 C 0.81574 0.76353 0.08535 0.0
C2477 C 0.81537 0.74477 0.08374 0.0
C2478 C 0.8337 0.74418 0.08362 0.0
H2479 H 0.89549 0.7868 0.05795 0.0
H2480 H 0.86874 0.77574 0.06212 0.0
H2481 H 0.88784 0.7994 0.06907 0.0
H2482 H 0.86749 0.79519 0.08809 0.0
H2483 H 0.8355 0.79632 0.08819 0.0
H2484 H 0.28578 0.08176 0.06988 0.0
H2485 H 0.28604 0.11446 0.07073 0.0
H2486 H 0.28816 0.11344 0.11045 0.0
H2487 H 0.28853 0.08106 0.10965 0.0
H2488 H 0.26003 0.12519 0.08096 0.0
H2489 H 0.33675 0.16931 0.10289 0.0
H2490 H 0.32722 0.14385 0.09666 0.0
H2491 H 0.31907 0.14722 0.11166 0.0
C2492 C 0.28628 0.0885 0.07879 0.0
C2493 C 0.28731 0.07897 0.08969 0.0
C2494 C 0.28642 0.10717 0.07926 0.0
C2495 C 0.28754 0.1166 0.09064 0.0
C2496 C 0.28786 0.10673 0.10156 0.0
H2497 H 0.26177 0.21699 0.10021 0.0
H2498 H 0.26043 0.18374 0.10062 0.0
C2499 C 0.28791 0.08816 0.10109 0.0
C2500 C 0.28838 0.13674 0.09105 0.0
H2501 H 0.31717 0.18612 0.10136 0.0
C2502 C 0.27254 0.13854 0.0854 0.0
C2503 C 0.30488 0.15422 0.09668 0.0
C2504 C 0.32306 0.15367 0.10221 0.0
C2505 C 0.27265 0.15729 0.0853 0.0
C2506 C 0.28877 0.17457 0.09132 0.0
C2507 C 0.3047 0.1728 0.09689 0.0
C2508 C 0.28982 0.19482 0.09158 0.0
C2509 C 0.25579 0.1585 0.07845 0.0
C2510 C 0.30717 0.21227 0.08685 0.0
C2511 C 0.30813 0.23133 0.08682 0.0
C2512 C 0.29173 0.23327 0.09148 0.0
C2513 C 0.27456 0.2159 0.09646 0.0
C2514 C 0.27371 0.19687 0.09661 0.0
H2515 H 0.24823 0.14596 0.07155 0.0
H2516 H 0.24388 0.15693 0.08511 0.0
H2517 H 0.26185 0.17348 0.07364 0.0
H2518 H 0.31984 0.21107 0.08299 0.0
H2519 H 0.32156 0.24446 0.08291 0.0
H2520 H 0.24904 0.95542 0.91821 0.0
H2521 H 0.2169 0.92232 0.91808 0.0
H2522 H 0.18315 0.95319 0.9092 0.0
H2523 H 0.2152 0.98629 0.90919 0.0
H2524 H 0.18175 0.91069 0.93294 0.0
H2525 H 0.16359 0.90744 0.88307 0.0
H2526 H 0.18882 0.9247 0.88923 0.0
H2527 H 0.16858 0.93073 0.89069 0.0
C2528 C 0.23478 0.95513 0.91615 0.0
C2529 C 0.23462 0.97342 0.91366 0.0
C2530 C 0.21646 0.93624 0.9161 0.0
C2531 C 0.19772 0.93531 0.91347 0.0
C2532 C 0.19751 0.95354 0.91101 0.0
H2533 H 0.07048 0.83778 0.90974 0.0
H2534 H 0.10276 0.87071 0.90998 0.0
C2535 C 0.21581 0.97244 0.91107 0.0
C2536 C 0.17829 0.91533 0.9137 0.0
H2537 H 0.13767 0.88217 0.89588 0.0
C2538 C 0.17214 0.90437 0.92483 0.0
C2539 C 0.16581 0.90722 0.90311 0.0
C2540 C 0.17206 0.91801 0.89081 0.0
C2541 C 0.15358 0.88564 0.92572 0.0
C2542 C 0.14108 0.87751 0.91512 0.0
C2543 C 0.14727 0.88847 0.90399 0.0
C2544 C 0.12154 0.85761 0.91536 0.0
C2545 C 0.14729 0.87497 0.93806 0.0
C2546 C 0.12144 0.83935 0.91823 0.0
C2547 C 0.10304 0.82054 0.91815 0.0
C2548 C 0.08443 0.81968 0.91508 0.0
C2549 C 0.08458 0.83798 0.91217 0.0
C2550 C 0.10299 0.85678 0.91229 0.0
H2551 H 0.15555 0.8857 0.94577 0.0
H2552 H 0.13048 0.86806 0.93956 0.0
H2553 H 0.15106 0.86246 0.93832 0.0
H2554 H 0.13565 0.83959 0.92037 0.0
H2555 H 0.10342 0.80667 0.92035 0.0
H2556 H 0.21543 0.25959 0.9061 0.0
H2557 H 0.18269 0.25922 0.90494 0.0
H2558 H 0.21509 0.32551 0.90623 0.0
H2559 H 0.24789 0.32601 0.90719 0.0
H2560 H 0.16724 0.27465 0.92237 0.0
H2561 H 0.17593 0.3133 0.87737 0.0
H2562 H 0.19221 0.30314 0.88199 0.0
H2563 H 0.19691 0.32754 0.88782 0.0
C2564 C 0.21559 0.27409 0.90599 0.0
C2565 C 0.23421 0.29283 0.90671 0.0
C2566 C 0.19688 0.27385 0.90534 0.0
C2567 C 0.19648 0.29234 0.90534 0.0
C2568 C 0.21507 0.31108 0.90595 0.0
H2569 H 0.10041 0.32402 0.91041 0.0
H2570 H 0.13306 0.32416 0.90916 0.0
C2571 C 0.23379 0.31133 0.90657 0.0
C2572 C 0.17655 0.29195 0.90545 0.0
H2573 H 0.14798 0.30863 0.89001 0.0
C2574 C 0.16295 0.28194 0.91525 0.0
C2575 C 0.17107 0.30157 0.89618 0.0
C2576 C 0.1847 0.31184 0.88518 0.0
C2577 C 0.14414 0.28159 0.91614 0.0
C2578 C 0.13869 0.29126 0.90689 0.0
C2579 C 0.15226 0.30126 0.89709 0.0
C2580 C 0.11893 0.29115 0.90728 0.0
C2581 C 0.13047 0.2713 0.92713 0.0
C2582 C 0.10023 0.27258 0.90643 0.0
C2583 C 0.08158 0.27244 0.90715 0.0
C2584 C 0.08135 0.29091 0.90867 0.0
C2585 C 0.10012 0.30955 0.90928 0.0
C2586 C 0.11876 0.30966 0.90855 0.0
H2587 H 0.13896 0.26898 0.93476 0.0
H2588 H 0.12369 0.28051 0.93062 0.0
H2589 H 0.11769 0.25599 0.92432 0.0
H2590 H 0.10006 0.25817 0.90525 0.0
H2591 H 0.06737 0.25786 0.90658 0.0
H2592 H 0.80014 0.84038 0.91101 0.0
H2593 H 0.7988 0.87229 0.91082 0.0
H2594 H 0.73264 0.83731 0.91332 0.0
H2595 H 0.73386 0.80533 0.91365 0.0
H2596 H 0.77845 0.88393 0.89364 0.0
H2597 H 0.74876 0.87986 0.94108 0.0
H2598 H 0.75958 0.86431 0.93612 0.0
H2599 H 0.73377 0.85732 0.93185 0.0
C2600 C 0.78532 0.83949 0.9116 0.0
C2601 C 0.76711 0.82038 0.91239 0.0
C2602 C 0.78458 0.85772 0.91148 0.0
C2603 C 0.76565 0.85715 0.91221 0.0
C2604 C 0.74744 0.83809 0.91299 0.0
H2605 H 0.73082 0.9515 0.9113 0.0
H2606 H 0.73108 0.91901 0.91123 0.0
C2607 C 0.74815 0.81984 0.91311 0.0
C2608 C 0.76496 0.87651 0.91176 0.0
H2609 H 0.75073 0.90621 0.92814 0.0
C2610 C 0.77246 0.88886 0.90119 0.0
C2611 C 0.75706 0.88281 0.92161 0.0
C2612 C 0.74949 0.87051 0.93336 0.0
C2613 C 0.77206 0.90728 0.90015 0.0
C2614 C 0.76427 0.91365 0.91003 0.0
C2615 C 0.75667 0.90125 0.92058 0.0
C2616 C 0.76415 0.93331 0.90971 0.0
C2617 C 0.77964 0.91958 0.8884 0.0
C2618 C 0.78268 0.95209 0.90895 0.0
C2619 C 0.78258 0.97065 0.90896 0.0
C2620 C 0.76395 0.97074 0.90982 0.0
C2621 C 0.74541 0.95191 0.91059 0.0
C2622 C 0.74553 0.93335 0.91057 0.0
H2623 H 0.77992 0.91008 0.88063 0.0
H2624 H 0.76982 0.92616 0.88577 0.0
H2625 H 0.79554 0.93248 0.88982 0.0
H2626 H 0.79724 0.9524 0.90852 0.0
H2627 H 0.79711 0.98492 0.90845 0.0
H2628 H 0.47436 0.43656 0.41794 0.0
H2629 H 0.50683 0.46934 0.41817 0.0
H2630 H 0.53988 0.4372 0.42544 0.0
H2631 H 0.50755 0.40437 0.42509 0.0
H2632 H 0.5361 0.48665 0.43735 0.0
H2633 H 0.56961 0.47284 0.39527 0.0
H2634 H 0.54265 0.45763 0.39906 0.0
H2635 H 0.56114 0.45288 0.40667 0.0
C2636 C 0.48856 0.43648 0.41955 0.0
C2637 C 0.48845 0.41791 0.42143 0.0
C2638 C 0.50707 0.4552 0.41969 0.0
C2639 C 0.52575 0.45564 0.42164 0.0
C2640 C 0.52566 0.43714 0.42368 0.0
H2641 H 0.65361 0.55104 0.42568 0.0
H2642 H 0.62073 0.51876 0.42611 0.0
C2643 C 0.50717 0.41842 0.42354 0.0
C2644 C 0.54533 0.47548 0.42173 0.0
H2645 H 0.59169 0.50221 0.40718 0.0
C2646 C 0.54824 0.49013 0.43073 0.0
C2647 C 0.5611 0.47992 0.41307 0.0
C2648 C 0.55848 0.46509 0.40289 0.0
C2649 C 0.56671 0.50898 0.43146 0.0
C2650 C 0.58251 0.51338 0.42283 0.0
C2651 C 0.57956 0.49875 0.41381 0.0
C2652 C 0.60226 0.53306 0.42297 0.0
C2653 C 0.56935 0.52382 0.44164 0.0
C2654 C 0.60275 0.55177 0.42099 0.0
C2655 C 0.62151 0.57023 0.42075 0.0
C2656 C 0.64008 0.57026 0.42241 0.0
C2657 C 0.63954 0.5515 0.42439 0.0
C2658 C 0.62079 0.53306 0.42463 0.0
H2659 H 0.55816 0.5161 0.44923 0.0
H2660 H 0.58516 0.53121 0.4455 0.0
H2661 H 0.56679 0.53608 0.43785 0.0
H2662 H 0.58865 0.55206 0.41944 0.0
H2663 H 0.62146 0.58445 0.41915 0.0
H2664 H 0.65682 0.13503 0.42634 0.0
H2665 H 0.62499 0.13643 0.42817 0.0
H2666 H 0.58948 0.07025 0.42619 0.0
H2667 H 0.62112 0.0687 0.42453 0.0
H2668 H 0.59303 0.12197 0.41126 0.0
H2669 H 0.56498 0.08276 0.45625 0.0
H2670 H 0.59111 0.09262 0.45107 0.0
H2671 H 0.57088 0.06832 0.44546 0.0
C2672 C 0.64222 0.12078 0.42641 0.0
C2673 C 0.64144 0.10175 0.42533 0.0
C2674 C 0.62408 0.12161 0.42745 0.0
C2675 C 0.60491 0.10343 0.42752 0.0
C2676 C 0.60412 0.08443 0.42645 0.0
H2677 H 0.47707 0.06859 0.42373 0.0
H2678 H 0.51048 0.07033 0.42494 0.0
C2679 C 0.62222 0.08359 0.42542 0.0
C2680 C 0.58565 0.10429 0.42801 0.0
H2681 H 0.54076 0.08674 0.44398 0.0
C2682 C 0.58169 0.11448 0.41849 0.0
C2683 C 0.57089 0.09445 0.43744 0.0
C2684 C 0.57472 0.08409 0.4482 0.0
C2685 C 0.56304 0.11452 0.41791 0.0
C2686 C 0.54813 0.10436 0.42722 0.0
C2687 C 0.55222 0.09445 0.43685 0.0
C2688 C 0.52798 0.10341 0.42693 0.0
C2689 C 0.55916 0.12485 0.40714 0.0
C2690 C 0.52678 0.12142 0.42787 0.0
C2691 C 0.50775 0.12048 0.42717 0.0
C2692 C 0.4896 0.1015 0.42557 0.0
C2693 C 0.49081 0.08344 0.42492 0.0
C2694 C 0.50985 0.0844 0.42563 0.0
H2695 H 0.5701 0.12788 0.39946 0.0
H2696 H 0.54323 0.11527 0.40362 0.0
H2697 H 0.56103 0.1398 0.4102 0.0
H2698 H 0.54058 0.1362 0.4291 0.0
H2699 H 0.50728 0.13464 0.42777 0.0
H2700 H 0.99234 0.43651 0.42417 0.0
H2701 H 0.99295 0.46944 0.42435 0.0
H2702 H 0.92666 0.43732 0.4236 0.0
H2703 H 0.9259 0.40435 0.42347 0.0
H2704 H 0.97531 0.48328 0.406 0.0
H2705 H 0.94194 0.47862 0.4524 0.0
H2706 H 0.95261 0.46273 0.44789 0.0
H2707 H 0.92741 0.45652 0.44276 0.0
C2708 C 0.9779 0.43647 0.42415 0.0
C2709 C 0.95907 0.41787 0.42383 0.0
C2710 C 0.97828 0.45527 0.42424 0.0
C2711 C 0.95986 0.45577 0.42412 0.0
C2712 C 0.94104 0.43723 0.4239 0.0
H2713 H 0.92673 0.55063 0.42142 0.0
H2714 H 0.92736 0.51838 0.42209 0.0
C2715 C 0.94063 0.41843 0.42377 0.0
C2716 C 0.96032 0.47569 0.42369 0.0
H2717 H 0.94579 0.50573 0.4394 0.0
C2718 C 0.96899 0.48829 0.41332 0.0
C2719 C 0.95197 0.48206 0.43325 0.0
C2720 C 0.9431 0.46939 0.44476 0.0
C2721 C 0.96912 0.50697 0.41213 0.0
C2722 C 0.96073 0.51335 0.42168 0.0
C2723 C 0.95218 0.50077 0.43208 0.0
C2724 C 0.96051 0.53294 0.42104 0.0
C2725 C 0.97771 0.5194 0.4005 0.0
C2726 C 0.97895 0.55181 0.4203 0.0
C2727 C 0.97863 0.57025 0.41985 0.0
C2728 C 0.95986 0.57012 0.42025 0.0
C2729 C 0.94142 0.55121 0.42106 0.0
C2730 C 0.94176 0.53278 0.42147 0.0
H2731 H 0.97844 0.50994 0.39285 0.0
H2732 H 0.96828 0.52621 0.39746 0.0
H2733 H 0.99357 0.53213 0.4023 0.0
H2734 H 0.99361 0.5523 0.42022 0.0
H2735 H 0.99309 0.5846 0.41932 0.0
H2736 H 0.73872 0.17573 0.24193 0.0
H2737 H 0.7716 0.20803 0.24149 0.0
H2738 H 0.80388 0.17446 0.24624 0.0
H2739 H 0.77108 0.14208 0.24653 0.0
H2740 H 0.8013 0.2238 0.26003 0.0
H2741 H 0.83338 0.21166 0.21678 0.0
H2742 H 0.80652 0.19637 0.2208 0.0
H2743 H 0.82517 0.19118 0.22779 0.0
C2744 C 0.75283 0.17522 0.24278 0.0
C2745 C 0.75235 0.15639 0.24422 0.0
C2746 C 0.77158 0.19367 0.24254 0.0
C2747 C 0.79016 0.1936 0.24367 0.0
C2748 C 0.78973 0.17482 0.2451 0.0
H2749 H 0.91841 0.28956 0.24803 0.0
H2750 H 0.88583 0.25686 0.24802 0.0
C2751 C 0.77098 0.15635 0.24533 0.0
C2752 C 0.80994 0.21326 0.24386 0.0
H2753 H 0.85597 0.24044 0.22899 0.0
C2754 C 0.81323 0.2275 0.25322 0.0
C2755 C 0.82547 0.21797 0.23498 0.0
C2756 C 0.82246 0.20359 0.22445 0.0
C2757 C 0.83177 0.24624 0.25404 0.0
C2758 C 0.84728 0.25097 0.24514 0.0
C2759 C 0.84404 0.23672 0.23581 0.0
C2760 C 0.86691 0.27076 0.24528 0.0
C2761 C 0.83477 0.26066 0.26455 0.0
C2762 C 0.86702 0.28935 0.24362 0.0
C2763 C 0.88555 0.30801 0.24363 0.0
C2764 C 0.90432 0.30839 0.24524 0.0
C2765 C 0.90418 0.28974 0.24682 0.0
C2766 C 0.88561 0.27107 0.2468 0.0
H2767 H 0.8238 0.25264 0.2722 0.0
H2768 H 0.85069 0.26785 0.26822 0.0
H2769 H 0.83214 0.2731 0.26116 0.0
H2770 H 0.85276 0.28939 0.24221 0.0
H2771 H 0.88519 0.32212 0.24232 0.0
H2772 H 0.91932 0.66124 0.24475 0.0
H2773 H 0.88701 0.66183 0.24488 0.0
H2774 H 0.85299 0.59586 0.24085 0.0
H2775 H 0.88523 0.59515 0.24058 0.0
H2776 H 0.8399 0.617 0.22503 0.0
H2777 H 0.84581 0.64269 0.27366 0.0
H2778 H 0.86778 0.65866 0.26423 0.0
H2779 H 0.86143 0.63269 0.26752 0.0
C2780 C 0.90495 0.64687 0.24388 0.0
C2781 C 0.90478 0.62814 0.24272 0.0
C2782 C 0.88652 0.64722 0.24402 0.0
C2783 C 0.86763 0.62886 0.24307 0.0
C2784 C 0.86743 0.61019 0.24167 0.0
H2785 H 0.73893 0.59489 0.24251 0.0
H2786 H 0.77175 0.59539 0.24187 0.0
C2787 C 0.88584 0.60981 0.24152 0.0
C2788 C 0.84803 0.62909 0.24345 0.0
H2789 H 0.81844 0.64085 0.26183 0.0
C2790 C 0.83515 0.62216 0.23308 0.0
C2791 C 0.84196 0.63587 0.25396 0.0
C2792 C 0.85485 0.64274 0.26553 0.0
C2793 C 0.81642 0.62207 0.23288 0.0
C2794 C 0.81028 0.62874 0.24342 0.0
C2795 C 0.82321 0.63576 0.25377 0.0
C2796 C 0.79041 0.6284 0.24394 0.0
C2797 C 0.80354 0.61519 0.22131 0.0
C2798 C 0.79003 0.64672 0.24566 0.0
C2799 C 0.7713 0.64647 0.24612 0.0
C2800 C 0.75264 0.62785 0.24492 0.0
C2801 C 0.75306 0.60948 0.24339 0.0
C2802 C 0.7718 0.60975 0.24294 0.0
H2803 H 0.81274 0.61576 0.21314 0.0
H2804 H 0.79095 0.59907 0.22248 0.0
H2805 H 0.79652 0.6249 0.21947 0.0
H2806 H 0.80424 0.66125 0.24653 0.0
H2807 H 0.77144 0.66086 0.24733 0.0
H2808 H 0.46706 0.31936 0.24079 0.0
H2809 H 0.46562 0.2861 0.23979 0.0
H2810 H 0.40009 0.25502 0.2458 0.0
H2811 H 0.40136 0.28822 0.2467 0.0
H2812 H 0.45148 0.2556 0.2582 0.0
H2813 H 0.40598 0.22619 0.21509 0.0
H2814 H 0.41849 0.25296 0.21947 0.0
H2815 H 0.3947 0.23466 0.22663 0.0
C2816 C 0.45233 0.30544 0.24185 0.0
C2817 C 0.43431 0.30637 0.24379 0.0
C2818 C 0.45154 0.28647 0.24127 0.0
C2819 C 0.43271 0.26812 0.24254 0.0
C2820 C 0.41471 0.269 0.24456 0.0
H2821 H 0.39829 0.1392 0.24474 0.0
H2822 H 0.39864 0.17201 0.24446 0.0
C2823 C 0.41548 0.28797 0.24514 0.0
C2824 C 0.43208 0.24811 0.24219 0.0
H2825 H 0.41235 0.20286 0.22633 0.0
C2826 C 0.443 0.24409 0.25121 0.0
C2827 C 0.42092 0.23313 0.23308 0.0
C2828 C 0.40948 0.23694 0.22294 0.0
C2829 C 0.44286 0.22535 0.25146 0.0
C2830 C 0.43183 0.21041 0.24231 0.0
C2831 C 0.42082 0.21438 0.23332 0.0
C2832 C 0.43156 0.19057 0.24193 0.0
C2833 C 0.45417 0.22154 0.26169 0.0
C2834 C 0.44988 0.19015 0.24032 0.0
C2835 C 0.44974 0.17148 0.24051 0.0
C2836 C 0.43123 0.15289 0.24222 0.0
C2837 C 0.4128 0.15329 0.24345 0.0
C2838 C 0.41297 0.17199 0.24328 0.0
H2839 H 0.45719 0.23201 0.26964 0.0
H2840 H 0.44533 0.20541 0.26501 0.0
H2841 H 0.46921 0.22427 0.25817 0.0
H2842 H 0.46433 0.20429 0.239 0.0
H2843 H 0.46416 0.17163 0.23946 0.0
H2844 H 0.31558 0.88298 0.75965 0.0
H2845 H 0.28291 0.85048 0.75877 0.0
H2846 H 0.25025 0.88386 0.75515 0.0
H2847 H 0.28287 0.91643 0.75589 0.0
H2848 H 0.24798 0.83613 0.7742 0.0
H2849 H 0.2299 0.84418 0.72555 0.0
H2850 H 0.25522 0.85973 0.73209 0.0
H2851 H 0.23523 0.86556 0.73536 0.0
C2852 C 0.30144 0.88339 0.75869 0.0
C2853 C 0.30177 0.90223 0.75777 0.0
C2854 C 0.28281 0.86484 0.75819 0.0
C2855 C 0.26423 0.8648 0.7567 0.0
C2856 C 0.26447 0.88358 0.75606 0.0
H2857 H 0.13683 0.76719 0.75041 0.0
H2858 H 0.16886 0.8003 0.75166 0.0
C2859 C 0.2831 0.90215 0.75656 0.0
C2860 C 0.2446 0.84507 0.75589 0.0
H2861 H 0.20421 0.81594 0.73675 0.0
C2862 C 0.23841 0.83166 0.76601 0.0
C2863 C 0.23218 0.83936 0.74519 0.0
C2864 C 0.23849 0.85285 0.73387 0.0
C2865 C 0.21996 0.81276 0.76578 0.0
C2866 C 0.2076 0.80698 0.75505 0.0
C2867 C 0.21373 0.82044 0.74495 0.0
C2868 C 0.18833 0.78694 0.75409 0.0
C2869 C 0.21367 0.79929 0.77711 0.0
C2870 C 0.18875 0.7685 0.75481 0.0
C2871 C 0.17052 0.7496 0.75411 0.0
C2872 C 0.15156 0.74882 0.75259 0.0
C2873 C 0.15121 0.76731 0.75161 0.0
C2874 C 0.16947 0.78622 0.75232 0.0
H2875 H 0.22186 0.80813 0.78547 0.0
H2876 H 0.19685 0.79193 0.77871 0.0
H2877 H 0.21752 0.78695 0.77577 0.0
H2878 H 0.20321 0.76873 0.75592 0.0
H2879 H 0.17128 0.73561 0.75483 0.0
H2880 H 0.28829 0.39908 0.75008 0.0
H2881 H 0.25537 0.39848 0.75046 0.0
H2882 H 0.28738 0.46423 0.75561 0.0
H2883 H 0.32033 0.46499 0.75515 0.0
H2884 H 0.23972 0.41215 0.76982 0.0
H2885 H 0.24873 0.45491 0.72635 0.0
H2886 H 0.26445 0.44368 0.73002 0.0
H2887 H 0.2698 0.46759 0.73695 0.0
C2888 C 0.28831 0.41342 0.7512 0.0
C2889 C 0.30687 0.4321 0.75253 0.0
C2890 C 0.26951 0.41304 0.75144 0.0
C2891 C 0.26898 0.43133 0.75291 0.0
C2892 C 0.28749 0.45 0.75424 0.0
H2893 H 0.1731 0.46294 0.75817 0.0
H2894 H 0.20559 0.46274 0.75801 0.0
C2895 C 0.30629 0.45039 0.75403 0.0
C2896 C 0.24905 0.43083 0.75344 0.0
H2897 H 0.22045 0.4485 0.73909 0.0
C2898 C 0.23542 0.41999 0.76308 0.0
C2899 C 0.24357 0.44113 0.74463 0.0
C2900 C 0.2573 0.45235 0.73383 0.0
C2901 C 0.21658 0.41952 0.76429 0.0
C2902 C 0.21112 0.42986 0.7555 0.0
C2903 C 0.22473 0.44063 0.74583 0.0
C2904 C 0.19136 0.42973 0.75612 0.0
C2905 C 0.20291 0.40837 0.77513 0.0
C2906 C 0.17261 0.41122 0.75507 0.0
C2907 C 0.15403 0.41127 0.75519 0.0
C2908 C 0.15391 0.42987 0.75627 0.0
C2909 C 0.1727 0.44837 0.75736 0.0
C2910 C 0.19127 0.44829 0.75725 0.0
H2911 H 0.21152 0.40588 0.78261 0.0
H2912 H 0.19576 0.41706 0.77893 0.0
H2913 H 0.1904 0.3931 0.77205 0.0
H2914 H 0.17237 0.39677 0.75395 0.0
H2915 H 0.13978 0.3968 0.75426 0.0
H2916 H 0.59187 0.73994 0.75902 0.0
H2917 H 0.59277 0.77296 0.75876 0.0
H2918 H 0.6581 0.80427 0.75199 0.0
H2919 H 0.6573 0.77126 0.75208 0.0
H2920 H 0.6156 0.80737 0.77394 0.0
H2921 H 0.63635 0.82607 0.72458 0.0
H2922 H 0.62697 0.80059 0.73076 0.0
H2923 H 0.65322 0.82027 0.73322 0.0
C2924 C 0.60642 0.75385 0.75744 0.0
C2925 C 0.6245 0.75302 0.75551 0.0
C2926 C 0.6069 0.77269 0.7573 0.0
C2927 C 0.62544 0.79101 0.75518 0.0
C2928 C 0.64357 0.79026 0.7534 0.0
H2929 H 0.65602 0.919 0.75117 0.0
H2930 H 0.65715 0.88696 0.75179 0.0
C2931 C 0.6431 0.77142 0.75352 0.0
C2932 C 0.62578 0.81089 0.75508 0.0
H2933 H 0.63559 0.85181 0.7368 0.0
C2934 C 0.61993 0.81709 0.76582 0.0
C2935 C 0.6315 0.82352 0.74448 0.0
C2936 C 0.63721 0.81726 0.73256 0.0
C2937 C 0.6198 0.83569 0.76627 0.0
C2938 C 0.62533 0.84823 0.75564 0.0
C2939 C 0.63137 0.84214 0.74493 0.0
C2940 C 0.62461 0.86758 0.75536 0.0
C2941 C 0.61403 0.84192 0.77818 0.0
C2942 C 0.6059 0.86721 0.75701 0.0
C2943 C 0.60521 0.88545 0.75667 0.0
C2944 C 0.62321 0.90436 0.7546 0.0
C2945 C 0.64191 0.90467 0.75282 0.0
C2946 C 0.64258 0.8864 0.75316 0.0
H2947 H 0.6155 0.83354 0.78621 0.0
H2948 H 0.62382 0.8587 0.77982 0.0
H2949 H 0.59779 0.83825 0.77765 0.0
H2950 H 0.5918 0.85279 0.75848 0.0
H2951 H 0.59056 0.88473 0.758 0.0
H2952 H 0.57939 0.61711 0.57653 0.0
H2953 H 0.54694 0.58444 0.57528 0.0
H2954 H 0.51396 0.6173 0.57049 0.0
H2955 H 0.54631 0.65003 0.57184 0.0
H2956 H 0.49748 0.58644 0.58872 0.0
H2957 H 0.51084 0.55693 0.54478 0.0
H2958 H 0.53103 0.56476 0.55598 0.0
H2959 H 0.52583 0.58359 0.54931 0.0
C2960 C 0.56524 0.61737 0.57512 0.0
C2961 C 0.56537 0.63611 0.57426 0.0
C2962 C 0.54674 0.5987 0.57434 0.0
C2963 C 0.52811 0.59848 0.57262 0.0
C2964 C 0.52821 0.61717 0.57174 0.0
H2965 H 0.3994 0.50235 0.57155 0.0
H2966 H 0.43178 0.5351 0.57053 0.0
C2967 C 0.54669 0.63583 0.57251 0.0
C2968 C 0.50839 0.57879 0.57233 0.0
H2969 H 0.48161 0.5337 0.55647 0.0
C2970 C 0.49393 0.57495 0.58163 0.0
C2971 C 0.5039 0.56383 0.56309 0.0
C2972 C 0.51862 0.56748 0.55265 0.0
C2973 C 0.47519 0.55635 0.58209 0.0
C2974 C 0.47067 0.54138 0.57284 0.0
C2975 C 0.48513 0.54523 0.56352 0.0
C2976 C 0.4511 0.52152 0.5728 0.0
C2977 C 0.46064 0.55267 0.59264 0.0
C2978 C 0.45128 0.50301 0.57399 0.0
C2979 C 0.43282 0.48428 0.57449 0.0
C2980 C 0.41388 0.48377 0.57376 0.0
C2981 C 0.41376 0.50229 0.57222 0.0
C2982 C 0.43223 0.521 0.5717 0.0
H2983 H 0.46853 0.56324 0.60049 0.0
H2984 H 0.44815 0.55534 0.58943 0.0
H2985 H 0.45355 0.53658 0.596 0.0
H2986 H 0.46571 0.5031 0.57479 0.0
H2987 H 0.43339 0.47025 0.57564 0.0
H2988 H 0.43797 0.99335 0.57916 0.0
H2989 H 0.4707 0.99355 0.57889 0.0
H2990 H 0.43793 0.92734 0.57656 0.0
H2991 H 0.40519 0.92702 0.5767 0.0
H2992 H 0.48396 0.97436 0.59588 0.0
H2993 H 0.47997 0.94469 0.54849 0.0
H2994 H 0.46375 0.95465 0.55361 0.0
H2995 H 0.45767 0.92904 0.55775 0.0
C2996 C 0.43776 0.97885 0.57848 0.0
C2997 C 0.41904 0.96017 0.5779 0.0
C2998 C 0.45644 0.979 0.57835 0.0
C2999 C 0.45671 0.96048 0.57754 0.0
C3000 C 0.43805 0.94182 0.57694 0.0
H3001 H 0.54993 0.92503 0.57922 0.0
H3002 H 0.51797 0.92629 0.5789 0.0
C3003 C 0.41937 0.94166 0.57708 0.0
C3004 C 0.47648 0.96061 0.57783 0.0
H3005 H 0.50624 0.94639 0.56151 0.0
C3006 C 0.48893 0.96839 0.58834 0.0
C3007 C 0.48284 0.95275 0.56798 0.0
C3008 C 0.47047 0.94497 0.55626 0.0
C3009 C 0.50741 0.9681 0.58939 0.0
C3010 C 0.5137 0.9601 0.57958 0.0
C3011 C 0.50131 0.95244 0.56903 0.0
C3012 C 0.53307 0.95946 0.58007 0.0
C3013 C 0.51977 0.97584 0.60111 0.0
C3014 C 0.55211 0.97771 0.58076 0.0
C3015 C 0.57037 0.97704 0.58096 0.0
C3016 C 0.56987 0.95809 0.5804 0.0
C3017 C 0.55078 0.93984 0.5797 0.0
C3018 C 0.53253 0.94053 0.57949 0.0
H3019 H 0.51046 0.97668 0.60881 0.0
H3020 H 0.52598 0.96579 0.60394 0.0
H3021 H 0.53295 0.99154 0.59953 0.0
H3022 H 0.55285 0.99249 0.58098 0.0
H3023 H 0.58487 0.99136 0.58143 0.0
H3024 H 0.13162 0.65378 0.57686 0.0
H3025 H 0.13052 0.62069 0.57593 0.0
H3026 H 0.06464 0.58902 0.58044 0.0
H3027 H 0.06564 0.6221 0.58156 0.0
H3028 H 0.08407 0.57367 0.59538 0.0
H3029 H 0.11018 0.58066 0.54686 0.0
H3030 H 0.12709 0.602 0.55644 0.0
H3031 H 0.10149 0.59712 0.55338 0.0
C3032 C 0.11689 0.63977 0.57766 0.0
C3033 C 0.0987 0.64051 0.57923 0.0
C3034 C 0.11628 0.62089 0.57703 0.0
C3035 C 0.09746 0.60242 0.57788 0.0
C3036 C 0.0793 0.60311 0.57968 0.0
H3037 H 0.0636 0.47311 0.5771 0.0
H3038 H 0.06309 0.50547 0.57723 0.0
C3039 C 0.0799 0.622 0.58032 0.0
C3040 C 0.09676 0.58239 0.57713 0.0
H3041 H 0.10865 0.55311 0.55852 0.0
C3042 C 0.0893 0.56908 0.5873 0.0
C3043 C 0.10359 0.57648 0.56655 0.0
C3044 C 0.11086 0.58971 0.55514 0.0
C3045 C 0.08895 0.55022 0.5873 0.0
C3046 C 0.09598 0.54443 0.57677 0.0
C3047 C 0.10331 0.55765 0.56657 0.0
C3048 C 0.09617 0.52482 0.57626 0.0
C3049 C 0.08157 0.53688 0.59867 0.0
C3050 C 0.11489 0.52502 0.57532 0.0
C3051 C 0.11523 0.50659 0.5752 0.0
C3052 C 0.09682 0.48764 0.57593 0.0
C3053 C 0.07804 0.48748 0.57657 0.0
C3054 C 0.07772 0.50593 0.57672 0.0
H3055 H 0.0811 0.54554 0.60685 0.0
H3056 H 0.06579 0.52389 0.59703 0.0
H3057 H 0.09164 0.53037 0.60077 0.0
H3058 H 0.12928 0.53947 0.57489 0.0
H3059 H 0.12993 0.50719 0.57466 0.0
loop_
_geom_bond_atom_site_label_1
_geom_bond_atom_site_label_2
_geom_bond_distance
_geom_bond_site_symmetry_2
_ccdc_geom_bond_type
In0 O1 2.294 . S
In0 O2 2.326 . S
In0 O6 2.266 . S
In0 O7 2.326 . S
In0 O8 2.266 . S
In0 O9 2.326 1_455 S
In0 O11 2.294 . S
In0 O12 2.326 . S
O1 In0 2.294 . S
O1 C10 1.240 . S
O2 In0 2.326 . S
O2 C10 1.252 . S
C3 O6 1.252 . S
C3 O7 1.260 . S
C4 O11 1.240 . S
C4 O12 1.252 . S
C5 O8 1.252 1_655 S
C5 O9 1.260 . S
O6 In0 2.266 . S
O6 C3 1.252 . S
O7 In0 2.326 . S
O7 C3 1.260 . S
O8 In0 2.266 . S
O8 C5 1.252 1_455 S
O9 In0 2.326 1_655 S
O9 C5 1.260 . S
C10 O1 1.240 . S
C10 O2 1.252 . S
O11 In0 2.294 . S
O11 C4 1.240 . S
O12 In0 2.326 . S
O12 C4 1.252 . S
In13 O14 2.294 . S
In13 O15 2.326 . S
In13 O19 2.266 . S
In13 O20 2.326 . S
In13 O21 2.266 . S
In13 O22 2.326 . S
In13 O24 2.294 . S
In13 O25 2.326 . S
O14 In13 2.294 . S
O14 C23 1.240 . S
O15 In13 2.326 . S
O15 C23 1.252 . S
C16 O19 1.252 . S
C16 O20 1.260 . S
C17 O24 1.240 . S
C17 O25 1.252 . S
C18 O21 1.252 . S
C18 O22 1.260 . S
O19 In13 2.266 . S
O19 C16 1.252 . S
O20 In13 2.326 . S
O20 C16 1.260 . S
O21 In13 2.266 . S
O21 C18 1.252 . S
O22 In13 2.326 . S
O22 C18 1.260 . S
C23 O14 1.240 . S
C23 O15 1.252 . S
O24 In13 2.294 . S
O24 C17 1.240 . S
O25 In13 2.326 . S
O25 C17 1.252 . S
In26 O27 2.294 . S
In26 O28 2.326 . S
In26 O32 2.266 . S
In26 O33 2.326 . S
In26 O34 2.266 . S
In26 O35 2.326 . S
In26 O37 2.294 . S
In26 O38 2.326 1_545 S
O27 In26 2.294 . S
O27 C36 1.240 . S
O28 In26 2.326 . S
O28 C36 1.252 . S
C29 O32 1.252 . S
C29 O33 1.260 . S
C30 O37 1.240 1_565 S
C30 O38 1.252 . S
C31 O34 1.252 . S
C31 O35 1.260 . S
O32 In26 2.266 . S
O32 C29 1.252 . S
O33 In26 2.326 . S
O33 C29 1.260 . S
O34 In26 2.266 . S
O34 C31 1.252 . S
O35 In26 2.326 . S
O35 C31 1.260 . S
C36 O27 1.240 . S
C36 O28 1.252 . S
O37 In26 2.294 . S
O37 C30 1.240 1_545 S
O38 In26 2.326 1_565 S
O38 C30 1.252 . S
In39 O40 2.294 . S
In39 O41 2.326 . S
In39 O45 2.266 . S
In39 O46 2.326 1_545 S
In39 O47 2.266 . S
In39 O48 2.326 . S
In39 O50 2.294 . S
In39 O51 2.326 . S
O40 In39 2.294 . S
O40 C49 1.240 . S
O41 In39 2.326 . S
O41 C49 1.252 . S
C42 O45 1.252 1_565 S
C42 O46 1.260 . S
C43 O50 1.240 . S
C43 O51 1.252 . S
C44 O47 1.252 . S
C44 O48 1.260 . S
O45 In39 2.266 . S
O45 C42 1.252 1_545 S
O46 In39 2.326 1_565 S
O46 C42 1.260 . S
O47 In39 2.266 . S
O47 C44 1.252 . S
O48 In39 2.326 . S
O48 C44 1.260 . S
C49 O40 1.240 . S
C49 O41 1.252 . S
O50 In39 2.294 . S
O50 C43 1.240 . S
O51 In39 2.326 . S
O51 C43 1.252 . S
In52 O53 2.294 . S
In52 O54 2.326 . S
In52 O58 2.266 . S
In52 O59 2.326 . S
In52 O60 2.266 . S
In52 O61 2.326 . S
In52 O63 2.294 . S
In52 O64 2.326 1_455 S
O53 In52 2.294 . S
O53 C62 1.240 . S
O54 In52 2.326 . S
O54 C62 1.252 . S
C55 O58 1.252 . S
C55 O59 1.260 . S
C56 O63 1.240 1_655 S
C56 O64 1.252 . S
C57 O60 1.252 . S
C57 O61 1.260 . S
O58 In52 2.266 . S
O58 C55 1.252 . S
O59 In52 2.326 . S
O59 C55 1.260 . S
O60 In52 2.266 . S
O60 C57 1.252 . S
O61 In52 2.326 . S
O61 C57 1.260 . S
C62 O53 1.240 . S
C62 O54 1.252 . S
O63 In52 2.294 . S
O63 C56 1.240 1_455 S
O64 In52 2.326 1_655 S
O64 C56 1.252 . S
In65 O66 2.294 . S
In65 O67 2.326 . S
In65 O71 2.266 . S
In65 O72 2.326 . S
In65 O73 2.266 . S
In65 O74 2.326 . S
In65 O76 2.294 . S
In65 O77 2.326 . S
O66 In65 2.294 . S
O66 C75 1.240 . S
O67 In65 2.326 . S
O67 C75 1.252 . S
C68 O71 1.252 . S
C68 O72 1.260 . S
C69 O76 1.240 . S
C69 O77 1.252 . S
C70 O73 1.252 . S
C70 O74 1.260 . S
O71 In65 2.266 . S
O71 C68 1.252 . S
O72 In65 2.326 . S
O72 C68 1.260 . S
O73 In65 2.266 . S
O73 C70 1.252 . S
O74 In65 2.326 . S
O74 C70 1.260 . S
C75 O66 1.240 . S
C75 O67 1.252 . S
O76 In65 2.294 . S
O76 C69 1.240 . S
O77 In65 2.326 . S
O77 C69 1.252 . S
In78 O79 2.294 . S
In78 O80 2.326 1_455 S
In78 O84 2.266 . S
In78 O85 2.326 . S
In78 O86 2.266 . S
In78 O87 2.326 . S
In78 O89 2.294 . S
In78 O90 2.326 . S
O79 In78 2.294 . S
O79 C88 1.240 1_455 S
O80 In78 2.326 1_655 S
O80 C88 1.252 . S
C81 O84 1.252 . S
C81 O85 1.260 . S
C82 O89 1.240 . S
C82 O90 1.252 . S
C83 O86 1.252 . S
C83 O87 1.260 . S
O84 In78 2.266 . S
O84 C81 1.252 . S
O85 In78 2.326 . S
O85 C81 1.260 . S
O86 In78 2.266 . S
O86 C83 1.252 . S
O87 In78 2.326 . S
O87 C83 1.260 . S
C88 O79 1.240 1_655 S
C88 O80 1.252 . S
O89 In78 2.294 . S
O89 C82 1.240 . S
O90 In78 2.326 . S
O90 C82 1.252 . S
In91 O92 2.294 . S
In91 O93 2.326 . S
In91 O97 2.266 . S
In91 O98 2.326 . S
In91 O99 2.266 . S
In91 O100 2.326 . S
In91 O102 2.294 . S
In91 O103 2.326 . S
O92 In91 2.294 . S
O92 C101 1.240 . S
O93 In91 2.326 . S
O93 C101 1.252 . S
C94 O97 1.252 . S
C94 O98 1.260 . S
C95 O102 1.240 . S
C95 O103 1.252 . S
C96 O99 1.252 . S
C96 O100 1.260 . S
O97 In91 2.266 . S
O97 C94 1.252 . S
O98 In91 2.326 . S
O98 C94 1.260 . S
O99 In91 2.266 . S
O99 C96 1.252 . S
O100 In91 2.326 . S
O100 C96 1.260 . S
C101 O92 1.240 . S
C101 O93 1.252 . S
O102 In91 2.294 . S
O102 C95 1.240 . S
O103 In91 2.326 . S
O103 C95 1.252 . S
In104 O105 2.294 . S
In104 O106 2.326 . S
In104 O110 2.266 . S
In104 O111 2.326 . S
In104 O112 2.266 . S
In104 O113 2.326 1_545 S
In104 O115 2.294 . S
In104 O116 2.326 . S
O105 In104 2.294 . S
O105 C114 1.240 . S
O106 In104 2.326 . S
O106 C114 1.252 . S
C107 O110 1.252 . S
C107 O111 1.260 . S
C108 O115 1.240 . S
C108 O116 1.252 . S
C109 O112 1.252 1_565 S
C109 O113 1.260 . S
O110 In104 2.266 . S
O110 C107 1.252 . S
O111 In104 2.326 . S
O111 C107 1.260 . S
O112 In104 2.266 . S
O112 C109 1.252 1_545 S
O113 In104 2.326 1_565 S
O113 C109 1.260 . S
C114 O105 1.240 . S
C114 O106 1.252 . S
O115 In104 2.294 . S
O115 C108 1.240 . S
O116 In104 2.326 . S
O116 C108 1.252 . S
In117 O118 2.294 . S
In117 O119 2.326 1_545 S
In117 O123 2.266 . S
In117 O124 2.326 . S
In117 O125 2.266 . S
In117 O126 2.326 . S
In117 O128 2.294 . S
In117 O129 2.326 . S
O118 In117 2.294 . S
O118 C127 1.240 1_545 S
O119 In117 2.326 1_565 S
O119 C127 1.252 . S
C120 O123 1.252 . S
C120 O124 1.260 . S
C121 O128 1.240 . S
C121 O129 1.252 . S
C122 O125 1.252 . S
C122 O126 1.260 . S
O123 In117 2.266 . S
O123 C120 1.252 . S
O124 In117 2.326 . S
O124 C120 1.260 . S
O125 In117 2.266 . S
O125 C122 1.252 . S
O126 In117 2.326 . S
O126 C122 1.260 . S
C127 O118 1.240 1_565 S
C127 O119 1.252 . S
O128 In117 2.294 . S
O128 C121 1.240 . S
O129 In117 2.326 . S
O129 C121 1.252 . S
In130 O131 2.294 . S
In130 O132 2.326 . S
In130 O136 2.266 . S
In130 O137 2.326 . S
In130 O138 2.266 . S
In130 O139 2.326 1_455 S
In130 O141 2.294 . S
In130 O142 2.326 . S
O131 In130 2.294 . S
O131 C140 1.240 . S
O132 In130 2.326 . S
O132 C140 1.252 . S
C133 O136 1.252 . S
C133 O137 1.260 . S
C134 O141 1.240 . S
C134 O142 1.252 . S
C135 O138 1.252 1_655 S
C135 O139 1.260 . S
O136 In130 2.266 . S
O136 C133 1.252 . S
O137 In130 2.326 . S
O137 C133 1.260 . S
O138 In130 2.266 . S
O138 C135 1.252 1_455 S
O139 In130 2.326 1_655 S
O139 C135 1.260 . S
C140 O131 1.240 . S
C140 O132 1.252 . S
O141 In130 2.294 . S
O141 C134 1.240 . S
O142 In130 2.326 . S
O142 C134 1.252 . S
In143 O144 2.294 . S
In143 O145 2.326 . S
In143 O149 2.266 . S
In143 O150 2.326 . S
In143 O151 2.266 . S
In143 O152 2.326 . S
In143 O154 2.294 . S
In143 O155 2.326 . S
O144 In143 2.294 . S
O144 C153 1.240 . S
O145 In143 2.326 . S
O145 C153 1.252 . S
C146 O149 1.252 . S
C146 O150 1.260 . S
C147 O154 1.240 . S
C147 O155 1.252 . S
C148 O151 1.252 . S
C148 O152 1.260 . S
O149 In143 2.266 . S
O149 C146 1.252 . S
O150 In143 2.326 . S
O150 C146 1.260 . S
O151 In143 2.266 . S
O151 C148 1.252 . S
O152 In143 2.326 . S
O152 C148 1.260 . S
C153 O144 1.240 . S
C153 O145 1.252 . S
O154 In143 2.294 . S
O154 C147 1.240 . S
O155 In143 2.326 . S
O155 C147 1.252 . S
In156 O157 2.294 . S
In156 O158 2.326 . S
In156 O162 2.266 . S
In156 O163 2.326 . S
In156 O164 2.266 . S
In156 O165 2.326 . S
In156 O167 2.294 . S
In156 O168 2.326 . S
O157 In156 2.294 . S
O157 C166 1.240 . S
O158 In156 2.326 . S
O158 C166 1.252 . S
C159 O162 1.252 . S
C159 O163 1.260 . S
C160 O167 1.240 . S
C160 O168 1.252 . S
C161 O164 1.252 . S
C161 O165 1.260 . S
O162 In156 2.266 . S
O162 C159 1.252 . S
O163 In156 2.326 . S
O163 C159 1.260 . S
O164 In156 2.266 . S
O164 C161 1.252 . S
O165 In156 2.326 . S
O165 C161 1.260 . S
C166 O157 1.240 . S
C166 O158 1.252 . S
O167 In156 2.294 . S
O167 C160 1.240 . S
O168 In156 2.326 . S
O168 C160 1.252 . S
In169 O170 2.294 . S
In169 O171 2.326 . S
In169 O175 2.266 . S
In169 O176 2.326 . S
In169 O177 2.266 . S
In169 O178 2.326 . S
In169 O180 2.294 . S
In169 O181 2.326 . S
O170 In169 2.294 . S
O170 C179 1.240 . S
O171 In169 2.326 . S
O171 C179 1.252 . S
C172 O175 1.252 . S
C172 O176 1.260 . S
C173 O180 1.240 . S
C173 O181 1.252 . S
C174 O177 1.252 . S
C174 O178 1.260 . S
O175 In169 2.266 . S
O175 C172 1.252 . S
O176 In169 2.326 . S
O176 C172 1.260 . S
O177 In169 2.266 . S
O177 C174 1.252 . S
O178 In169 2.326 . S
O178 C174 1.260 . S
C179 O170 1.240 . S
C179 O171 1.252 . S
O180 In169 2.294 . S
O180 C173 1.240 . S
O181 In169 2.326 . S
O181 C173 1.252 . S
In182 O183 2.294 . S
In182 O184 2.326 . S
In182 O188 2.266 . S
In182 O189 2.326 . S
In182 O190 2.266 . S
In182 O191 2.326 . S
In182 O193 2.294 . S
In182 O194 2.326 . S
O183 In182 2.294 . S
O183 C192 1.240 . S
O184 In182 2.326 . S
O184 C192 1.252 . S
C185 O188 1.252 . S
C185 O189 1.260 . S
C186 O193 1.240 . S
C186 O194 1.252 . S
C187 O190 1.252 . S
C187 O191 1.260 . S
O188 In182 2.266 . S
O188 C185 1.252 . S
O189 In182 2.326 . S
O189 C185 1.260 . S
O190 In182 2.266 . S
O190 C187 1.252 . S
O191 In182 2.326 . S
O191 C187 1.260 . S
C192 O183 1.240 . S
C192 O184 1.252 . S
O193 In182 2.294 . S
O193 C186 1.240 . S
O194 In182 2.326 . S
O194 C186 1.252 . S
In195 O196 2.294 . S
In195 O197 2.326 . S
In195 O201 2.266 . S
In195 O202 2.326 . S
In195 O203 2.266 . S
In195 O204 2.326 . S
In195 O206 2.294 . S
In195 O207 2.326 . S
O196 In195 2.294 . S
O196 C205 1.240 . S
O197 In195 2.326 . S
O197 C205 1.252 . S
C198 O201 1.252 . S
C198 O202 1.260 . S
C199 O206 1.240 . S
C199 O207 1.252 . S
C200 O203 1.252 . S
C200 O204 1.260 . S
O201 In195 2.266 . S
O201 C198 1.252 . S
O202 In195 2.326 . S
O202 C198 1.260 . S
O203 In195 2.266 . S
O203 C200 1.252 . S
O204 In195 2.326 . S
O204 C200 1.260 . S
C205 O196 1.240 . S
C205 O197 1.252 . S
O206 In195 2.294 . S
O206 C199 1.240 . S
O207 In195 2.326 . S
O207 C199 1.252 . S
In208 O209 2.294 . S
In208 O210 2.326 . S
In208 O214 2.266 . S
In208 O215 2.326 . S
In208 O216 2.266 . S
In208 O217 2.326 . S
In208 O219 2.294 . S
In208 O220 2.326 . S
O209 In208 2.294 . S
O209 C218 1.240 . S
O210 In208 2.326 . S
O210 C218 1.252 . S
C211 O214 1.252 . S
C211 O215 1.260 . S
C212 O219 1.240 . S
C212 O220 1.252 . S
C213 O216 1.252 . S
C213 O217 1.260 . S
O214 In208 2.266 . S
O214 C211 1.252 . S
O215 In208 2.326 . S
O215 C211 1.260 . S
O216 In208 2.266 . S
O216 C213 1.252 . S
O217 In208 2.326 . S
O217 C213 1.260 . S
C218 O209 1.240 . S
C218 O210 1.252 . S
O219 In208 2.294 . S
O219 C212 1.240 . S
O220 In208 2.326 . S
O220 C212 1.252 . S
In221 O222 2.294 . S
In221 O223 2.326 . S
In221 O227 2.266 . S
In221 O228 2.326 . S
In221 O229 2.266 . S
In221 O230 2.326 . S
In221 O232 2.294 . S
In221 O233 2.326 . S
O222 In221 2.294 . S
O222 C231 1.240 . S
O223 In221 2.326 . S
O223 C231 1.252 . S
C224 O227 1.252 . S
C224 O228 1.260 . S
C225 O232 1.240 . S
C225 O233 1.252 . S
C226 O229 1.252 . S
C226 O230 1.260 . S
O227 In221 2.266 . S
O227 C224 1.252 . S
O228 In221 2.326 . S
O228 C224 1.260 . S
O229 In221 2.266 . S
O229 C226 1.252 . S
O230 In221 2.326 . S
O230 C226 1.260 . S
C231 O222 1.240 . S
C231 O223 1.252 . S
O232 In221 2.294 . S
O232 C225 1.240 . S
O233 In221 2.326 . S
O233 C225 1.252 . S
In234 O235 2.294 . S
In234 O236 2.326 . S
In234 O240 2.266 . S
In234 O241 2.326 . S
In234 O242 2.266 . S
In234 O243 2.326 . S
In234 O245 2.294 . S
In234 O246 2.326 . S
O235 In234 2.294 . S
O235 C244 1.240 . S
O236 In234 2.326 . S
O236 C244 1.252 . S
C237 O240 1.252 . S
C237 O241 1.260 . S
C238 O245 1.240 . S
C238 O246 1.252 . S
C239 O242 1.252 . S
C239 O243 1.260 . S
O240 In234 2.266 . S
O240 C237 1.252 . S
O241 In234 2.326 . S
O241 C237 1.260 . S
O242 In234 2.266 . S
O242 C239 1.252 . S
O243 In234 2.326 . S
O243 C239 1.260 . S
C244 O235 1.240 . S
C244 O236 1.252 . S
O245 In234 2.294 . S
O245 C238 1.240 . S
O246 In234 2.326 . S
O246 C238 1.252 . S
In247 O248 2.294 . S
In247 O249 2.326 . S
In247 O253 2.266 . S
In247 O254 2.326 . S
In247 O255 2.266 . S
In247 O256 2.326 . S
In247 O258 2.294 . S
In247 O259 2.326 . S
O248 In247 2.294 . S
O248 C257 1.240 . S
O249 In247 2.326 . S
O249 C257 1.252 . S
C250 O253 1.252 . S
C250 O254 1.260 . S
C251 O258 1.240 . S
C251 O259 1.252 . S
C252 O255 1.252 . S
C252 O256 1.260 . S
O253 In247 2.266 . S
O253 C250 1.252 . S
O254 In247 2.326 . S
O254 C250 1.260 . S
O255 In247 2.266 . S
O255 C252 1.252 . S
O256 In247 2.326 . S
O256 C252 1.260 . S
C257 O248 1.240 . S
C257 O249 1.252 . S
O258 In247 2.294 . S
O258 C251 1.240 . S
O259 In247 2.326 . S
O259 C251 1.252 . S
In260 O261 2.294 . S
In260 O262 2.326 . S
In260 O266 2.266 . S
In260 O267 2.326 . S
In260 O268 2.266 . S
In260 O269 2.326 . S
In260 O271 2.294 . S
In260 O272 2.326 . S
O261 In260 2.294 . S
O261 C270 1.240 . S
O262 In260 2.326 . S
O262 C270 1.252 . S
C263 O266 1.252 . S
C263 O267 1.260 . S
C264 O271 1.240 . S
C264 O272 1.252 . S
C265 O268 1.252 . S
C265 O269 1.260 . S
O266 In260 2.266 . S
O266 C263 1.252 . S
O267 In260 2.326 . S
O267 C263 1.260 . S
O268 In260 2.266 . S
O268 C265 1.252 . S
O269 In260 2.326 . S
O269 C265 1.260 . S
C270 O261 1.240 . S
C270 O262 1.252 . S
O271 In260 2.294 . S
O271 C264 1.240 . S
O272 In260 2.326 . S
O272 C264 1.252 . S
In273 O274 2.294 . S
In273 O275 2.326 . S
In273 O279 2.266 . S
In273 O280 2.326 . S
In273 O281 2.266 . S
In273 O282 2.326 . S
In273 O284 2.294 . S
In273 O285 2.326 . S
O274 In273 2.294 . S
O274 C283 1.240 . S
O275 In273 2.326 . S
O275 C283 1.252 . S
C276 O279 1.252 . S
C276 O280 1.260 . S
C277 O284 1.240 . S
C277 O285 1.252 . S
C278 O281 1.252 . S
C278 O282 1.260 . S
O279 In273 2.266 . S
O279 C276 1.252 . S
O280 In273 2.326 . S
O280 C276 1.260 . S
O281 In273 2.266 . S
O281 C278 1.252 . S
O282 In273 2.326 . S
O282 C278 1.260 . S
C283 O274 1.240 . S
C283 O275 1.252 . S
O284 In273 2.294 . S
O284 C277 1.240 . S
O285 In273 2.326 . S
O285 C277 1.252 . S
In286 O287 2.294 . S
In286 O288 2.326 . S
In286 O292 2.266 . S
In286 O293 2.326 . S
In286 O294 2.266 . S
In286 O295 2.326 . S
In286 O297 2.294 . S
In286 O298 2.326 . S
O287 In286 2.294 . S
O287 C296 1.240 . S
O288 In286 2.326 . S
O288 C296 1.252 . S
C289 O292 1.252 . S
C289 O293 1.260 . S
C290 O297 1.240 . S
C290 O298 1.252 . S
C291 O294 1.252 . S
C291 O295 1.260 . S
O292 In286 2.266 . S
O292 C289 1.252 . S
O293 In286 2.326 . S
O293 C289 1.260 . S
O294 In286 2.266 . S
O294 C291 1.252 . S
O295 In286 2.326 . S
O295 C291 1.260 . S
C296 O287 1.240 . S
C296 O288 1.252 . S
O297 In286 2.294 . S
O297 C290 1.240 . S
O298 In286 2.326 . S
O298 C290 1.252 . S
In299 O300 2.294 . S
In299 O301 2.326 . S
In299 O305 2.266 . S
In299 O306 2.326 . S
In299 O307 2.266 . S
In299 O308 2.326 . S
In299 O310 2.294 . S
In299 O311 2.326 . S
O300 In299 2.294 . S
O300 C309 1.240 . S
O301 In299 2.326 . S
O301 C309 1.252 . S
C302 O305 1.252 . S
C302 O306 1.260 . S
C303 O310 1.240 . S
C303 O311 1.252 . S
C304 O307 1.252 . S
C304 O308 1.260 . S
O305 In299 2.266 . S
O305 C302 1.252 . S
O306 In299 2.326 . S
O306 C302 1.260 . S
O307 In299 2.266 . S
O307 C304 1.252 . S
O308 In299 2.326 . S
O308 C304 1.260 . S
C309 O300 1.240 . S
C309 O301 1.252 . S
O310 In299 2.294 . S
O310 C303 1.240 . S
O311 In299 2.326 . S
O311 C303 1.252 . S
In312 O313 2.294 . S
In312 O314 2.326 . S
In312 O318 2.266 . S
In312 O319 2.326 . S
In312 O320 2.266 . S
In312 O321 2.326 . S
In312 O323 2.294 . S
In312 O324 2.326 . S
O313 In312 2.294 . S
O313 C322 1.240 . S
O314 In312 2.326 . S
O314 C322 1.252 . S
C315 O318 1.252 . S
C315 O319 1.260 . S
C316 O323 1.240 . S
C316 O324 1.252 . S
C317 O320 1.252 . S
C317 O321 1.260 . S
O318 In312 2.266 . S
O318 C315 1.252 . S
O319 In312 2.326 . S
O319 C315 1.260 . S
O320 In312 2.266 . S
O320 C317 1.252 . S
O321 In312 2.326 . S
O321 C317 1.260 . S
C322 O313 1.240 . S
C322 O314 1.252 . S
O323 In312 2.294 . S
O323 C316 1.240 . S
O324 In312 2.326 . S
O324 C316 1.252 . S
In325 O326 2.294 . S
In325 O327 2.326 . S
In325 O331 2.266 . S
In325 O332 2.326 . S
In325 O333 2.266 . S
In325 O334 2.326 . S
In325 O336 2.294 . S
In325 O337 2.326 . S
O326 In325 2.294 . S
O326 C335 1.240 . S
O327 In325 2.326 . S
O327 C335 1.252 . S
C328 O331 1.252 . S
C328 O332 1.260 . S
C329 O336 1.240 . S
C329 O337 1.252 . S
C330 O333 1.252 . S
C330 O334 1.260 . S
O331 In325 2.266 . S
O331 C328 1.252 . S
O332 In325 2.326 . S
O332 C328 1.260 . S
O333 In325 2.266 . S
O333 C330 1.252 . S
O334 In325 2.326 . S
O334 C330 1.260 . S
C335 O326 1.240 . S
C335 O327 1.252 . S
O336 In325 2.294 . S
O336 C329 1.240 . S
O337 In325 2.326 . S
O337 C329 1.252 . S
In338 O339 2.294 . S
In338 O340 2.326 . S
In338 O344 2.266 . S
In338 O345 2.326 . S
In338 O346 2.266 . S
In338 O347 2.326 . S
In338 O349 2.294 . S
In338 O350 2.326 . S
O339 In338 2.294 . S
O339 C348 1.240 . S
O340 In338 2.326 . S
O340 C348 1.252 . S
C341 O344 1.252 . S
C341 O345 1.260 . S
C342 O349 1.240 . S
C342 O350 1.252 . S
C343 O346 1.252 . S
C343 O347 1.260 . S
O344 In338 2.266 . S
O344 C341 1.252 . S
O345 In338 2.326 . S
O345 C341 1.260 . S
O346 In338 2.266 . S
O346 C343 1.252 . S
O347 In338 2.326 . S
O347 C343 1.260 . S
C348 O339 1.240 . S
C348 O340 1.252 . S
O349 In338 2.294 . S
O349 C342 1.240 . S
O350 In338 2.326 . S
O350 C342 1.252 . S
In351 O352 2.294 . S
In351 O353 2.326 . S
In351 O357 2.266 . S
In351 O358 2.326 . S
In351 O359 2.266 . S
In351 O360 2.326 . S
In351 O362 2.294 . S
In351 O363 2.326 . S
O352 In351 2.294 . S
O352 C361 1.240 . S
O353 In351 2.326 . S
O353 C361 1.252 . S
C354 O357 1.252 . S
C354 O358 1.260 . S
C355 O362 1.240 . S
C355 O363 1.252 . S
C356 O359 1.252 . S
C356 O360 1.260 . S
O357 In351 2.266 . S
O357 C354 1.252 . S
O358 In351 2.326 . S
O358 C354 1.260 . S
O359 In351 2.266 . S
O359 C356 1.252 . S
O360 In351 2.326 . S
O360 C356 1.260 . S
C361 O352 1.240 . S
C361 O353 1.252 . S
O362 In351 2.294 . S
O362 C355 1.240 . S
O363 In351 2.326 . S
O363 C355 1.252 . S
In364 O365 2.294 . S
In364 O366 2.326 . S
In364 O370 2.266 . S
In364 O371 2.326 . S
In364 O372 2.266 . S
In364 O373 2.326 . S
In364 O375 2.294 . S
In364 O376 2.326 . S
O365 In364 2.294 . S
O365 C374 1.240 . S
O366 In364 2.326 . S
O366 C374 1.252 . S
C367 O370 1.252 . S
C367 O371 1.260 . S
C368 O375 1.240 . S
C368 O376 1.252 . S
C369 O372 1.252 . S
C369 O373 1.260 . S
O370 In364 2.266 . S
O370 C367 1.252 . S
O371 In364 2.326 . S
O371 C367 1.260 . S
O372 In364 2.266 . S
O372 C369 1.252 . S
O373 In364 2.326 . S
O373 C369 1.260 . S
C374 O365 1.240 . S
C374 O366 1.252 . S
O375 In364 2.294 . S
O375 C368 1.240 . S
O376 In364 2.326 . S
O376 C368 1.252 . S
In377 O378 2.294 . S
In377 O379 2.326 . S
In377 O383 2.266 . S
In377 O384 2.326 . S
In377 O385 2.266 . S
In377 O386 2.326 . S
In377 O388 2.294 . S
In377 O389 2.326 . S
O378 In377 2.294 . S
O378 C387 1.240 . S
O379 In377 2.326 . S
O379 C387 1.252 . S
C380 O383 1.252 . S
C380 O384 1.260 . S
C381 O388 1.240 . S
C381 O389 1.252 . S
C382 O385 1.252 . S
C382 O386 1.260 . S
O383 In377 2.266 . S
O383 C380 1.252 . S
O384 In377 2.326 . S
O384 C380 1.260 . S
O385 In377 2.266 . S
O385 C382 1.252 . S
O386 In377 2.326 . S
O386 C382 1.260 . S
C387 O378 1.240 . S
C387 O379 1.252 . S
O388 In377 2.294 . S
O388 C381 1.240 . S
O389 In377 2.326 . S
O389 C381 1.252 . S
In390 O391 2.294 . S
In390 O392 2.326 . S
In390 O396 2.266 . S
In390 O397 2.326 . S
In390 O398 2.266 . S
In390 O399 2.326 . S
In390 O401 2.294 . S
In390 O402 2.326 . S
O391 In390 2.294 . S
O391 C400 1.240 . S
O392 In390 2.326 . S
O392 C400 1.252 . S
C393 O396 1.252 . S
C393 O397 1.260 . S
C394 O401 1.240 . S
C394 O402 1.252 . S
C395 O398 1.252 . S
C395 O399 1.260 . S
O396 In390 2.266 . S
O396 C393 1.252 . S
O397 In390 2.326 . S
O397 C393 1.260 . S
O398 In390 2.266 . S
O398 C395 1.252 . S
O399 In390 2.326 . S
O399 C395 1.260 . S
C400 O391 1.240 . S
C400 O392 1.252 . S
O401 In390 2.294 . S
O401 C394 1.240 . S
O402 In390 2.326 . S
O402 C394 1.252 . S
In403 O404 2.294 . S
In403 O405 2.326 . S
In403 O409 2.266 . S
In403 O410 2.326 . S
In403 O411 2.266 . S
In403 O412 2.326 . S
In403 O414 2.294 . S
In403 O415 2.326 . S
O404 In403 2.294 . S
O404 C413 1.240 . S
O405 In403 2.326 . S
O405 C413 1.252 . S
C406 O409 1.252 . S
C406 O410 1.260 . S
C407 O414 1.240 . S
C407 O415 1.252 . S
C408 O411 1.252 . S
C408 O412 1.260 . S
O409 In403 2.266 . S
O409 C406 1.252 . S
O410 In403 2.326 . S
O410 C406 1.260 . S
O411 In403 2.266 . S
O411 C408 1.252 . S
O412 In403 2.326 . S
O412 C408 1.260 . S
C413 O404 1.240 . S
C413 O405 1.252 . S
O414 In403 2.294 . S
O414 C407 1.240 . S
O415 In403 2.326 . S
O415 C407 1.252 . S
In416 O417 2.294 . S
In416 O418 2.326 . S
In416 O422 2.266 . S
In416 O423 2.326 . S
In416 O424 2.266 . S
In416 O425 2.326 . S
In416 O427 2.294 . S
In416 O428 2.326 . S
O417 In416 2.294 . S
O417 C426 1.240 . S
O418 In416 2.326 . S
O418 C426 1.252 . S
C419 O422 1.252 . S
C419 O423 1.260 . S
C420 O427 1.240 . S
C420 O428 1.252 . S
C421 O424 1.252 . S
C421 O425 1.260 . S
O422 In416 2.266 . S
O422 C419 1.252 . S
O423 In416 2.326 . S
O423 C419 1.260 . S
O424 In416 2.266 . S
O424 C421 1.252 . S
O425 In416 2.326 . S
O425 C421 1.260 . S
C426 O417 1.240 . S
C426 O418 1.252 . S
O427 In416 2.294 . S
O427 C420 1.240 . S
O428 In416 2.326 . S
O428 C420 1.252 . S
In429 O430 2.294 . S
In429 O431 2.326 . S
In429 O435 2.266 . S
In429 O436 2.326 . S
In429 O437 2.266 . S
In429 O438 2.326 . S
In429 O440 2.294 . S
In429 O441 2.326 . S
O430 In429 2.294 . S
O430 C439 1.240 . S
O431 In429 2.326 . S
O431 C439 1.252 . S
C432 O435 1.252 . S
C432 O436 1.260 . S
C433 O440 1.240 . S
C433 O441 1.252 . S
C434 O437 1.252 . S
C434 O438 1.260 . S
O435 In429 2.266 . S
O435 C432 1.252 . S
O436 In429 2.326 . S
O436 C432 1.260 . S
O437 In429 2.266 . S
O437 C434 1.252 . S
O438 In429 2.326 . S
O438 C434 1.260 . S
C439 O430 1.240 . S
C439 O431 1.252 . S
O440 In429 2.294 . S
O440 C433 1.240 . S
O441 In429 2.326 . S
O441 C433 1.252 . S
In442 O443 2.294 . S
In442 O444 2.326 . S
In442 O448 2.266 . S
In442 O449 2.326 . S
In442 O450 2.266 . S
In442 O451 2.326 . S
In442 O453 2.294 . S
In442 O454 2.326 . S
O443 In442 2.294 . S
O443 C452 1.240 . S
O444 In442 2.326 . S
O444 C452 1.252 . S
C445 O448 1.252 . S
C445 O449 1.260 . S
C446 O453 1.240 . S
C446 O454 1.252 . S
C447 O450 1.252 . S
C447 O451 1.260 . S
O448 In442 2.266 . S
O448 C445 1.252 . S
O449 In442 2.326 . S
O449 C445 1.260 . S
O450 In442 2.266 . S
O450 C447 1.252 . S
O451 In442 2.326 . S
O451 C447 1.260 . S
C452 O443 1.240 . S
C452 O444 1.252 . S
O453 In442 2.294 . S
O453 C446 1.240 . S
O454 In442 2.326 . S
O454 C446 1.252 . S
In455 O456 2.294 . S
In455 O457 2.326 . S
In455 O461 2.266 . S
In455 O462 2.326 . S
In455 O463 2.266 . S
In455 O464 2.326 . S
In455 O466 2.294 . S
In455 O467 2.326 . S
O456 In455 2.294 . S
O456 C465 1.240 . S
O457 In455 2.326 . S
O457 C465 1.252 . S
C458 O461 1.252 . S
C458 O462 1.260 . S
C459 O466 1.240 . S
C459 O467 1.252 . S
C460 O463 1.252 . S
C460 O464 1.260 . S
O461 In455 2.266 . S
O461 C458 1.252 . S
O462 In455 2.326 . S
O462 C458 1.260 . S
O463 In455 2.266 . S
O463 C460 1.252 . S
O464 In455 2.326 . S
O464 C460 1.260 . S
C465 O456 1.240 . S
C465 O457 1.252 . S
O466 In455 2.294 . S
O466 C459 1.240 . S
O467 In455 2.326 . S
O467 C459 1.252 . S
H468 C476 0.929 . S
H469 C478 0.930 . S
H470 C480 0.930 . S
H471 C483 0.929 . S
H472 C486 0.930 . S
H473 C488 0.960 . S
H474 C488 0.960 . S
H475 C488 0.960 . S
C476 H468 0.929 . S
C476 C477 1.377 . S
C476 C478 1.384 . S
C477 C476 1.377 . S
C477 C483 1.390 . S
C478 H469 0.930 . S
C478 C476 1.384 . S
C478 C479 1.372 . S
C479 C478 1.372 . S
C479 C480 1.400 . S
C479 C484 1.490 . S
C480 H470 0.930 . S
C480 C479 1.400 . S
C480 C483 1.386 . S
H481 C497 0.930 . S
H482 C498 0.931 . S
C483 H471 0.929 . S
C483 C477 1.390 . S
C483 C480 1.386 . S
C484 C479 1.490 . S
C484 C486 1.395 . S
C484 C487 1.403 . S
H485 C491 0.930 . S
C486 H472 0.930 . S
C486 C484 1.395 . S
C486 C489 1.403 . S
C487 C484 1.403 . S
C487 C488 1.524 . S
C487 C491 1.400 . S
C488 H473 0.960 . S
C488 H474 0.960 . S
C488 H475 0.960 . S
C488 C487 1.524 . S
C489 C486 1.403 . S
C489 C490 1.392 . S
C489 C493 1.495 . S
C490 C489 1.392 . S
C490 C491 1.385 . S
C490 C492 1.478 . S
C491 H485 0.930 . S
C491 C487 1.400 . S
C491 C490 1.385 . S
C492 C490 1.478 . S
C492 C494 1.381 . S
C492 C498 1.383 . S
C493 C489 1.495 . S
C493 H499 0.959 . S
C493 H500 0.961 . S
C493 H501 0.960 . S
C494 C492 1.381 . S
C494 C495 1.394 . S
C494 H502 0.930 . S
C495 C494 1.394 . S
C495 C496 1.383 . S
C495 H503 0.929 . S
C496 C495 1.383 . S
C496 C497 1.377 . S
C497 H481 0.930 . S
C497 C496 1.377 . S
C497 C498 1.379 . S
C498 H482 0.931 . S
C498 C492 1.383 . S
C498 C497 1.379 . S
H499 C493 0.959 . S
H500 C493 0.961 . S
H501 C493 0.960 . S
H502 C494 0.930 . S
H503 C495 0.929 . S
H504 C512 0.929 . S
H505 C514 0.930 . S
H506 C516 0.930 . S
H507 C519 0.929 . S
H508 C522 0.930 . S
H509 C524 0.960 . S
H510 C524 0.960 . S
H511 C524 0.960 . S
C512 H504 0.929 . S
C512 C513 1.377 . S
C512 C514 1.384 . S
C513 C512 1.377 . S
C513 C519 1.390 . S
C514 H505 0.930 . S
C514 C512 1.384 . S
C514 C515 1.372 . S
C515 C514 1.372 . S
C515 C516 1.400 . S
C515 C520 1.490 . S
C516 H506 0.930 . S
C516 C515 1.400 . S
C516 C519 1.386 . S
H517 C533 0.930 . S
H518 C534 0.931 . S
C519 H507 0.929 . S
C519 C513 1.390 . S
C519 C516 1.386 . S
C520 C515 1.490 . S
C520 C522 1.395 . S
C520 C523 1.403 . S
H521 C527 0.930 . S
C522 H508 0.930 . S
C522 C520 1.395 . S
C522 C525 1.403 . S
C523 C520 1.403 . S
C523 C524 1.524 . S
C523 C527 1.400 . S
C524 H509 0.960 . S
C524 H510 0.960 . S
C524 H511 0.960 . S
C524 C523 1.524 . S
C525 C522 1.403 . S
C525 C526 1.392 . S
C525 C529 1.495 . S
C526 C525 1.392 . S
C526 C527 1.385 . S
C526 C528 1.478 . S
C527 H521 0.930 . S
C527 C523 1.400 . S
C527 C526 1.385 . S
C528 C526 1.478 . S
C528 C530 1.381 . S
C528 C534 1.383 . S
C529 C525 1.495 . S
C529 H535 0.959 . S
C529 H536 0.961 . S
C529 H537 0.960 . S
C530 C528 1.381 . S
C530 C531 1.394 . S
C530 H538 0.930 . S
C531 C530 1.394 . S
C531 C532 1.383 . S
C531 H539 0.929 . S
C532 C531 1.383 . S
C532 C533 1.377 . S
C533 H517 0.930 . S
C533 C532 1.377 . S
C533 C534 1.379 . S
C534 H518 0.931 . S
C534 C528 1.383 . S
C534 C533 1.379 . S
H535 C529 0.959 . S
H536 C529 0.961 . S
H537 C529 0.960 . S
H538 C530 0.930 . S
H539 C531 0.929 . S
H540 C548 0.929 . S
H541 C550 0.930 . S
H542 C552 0.930 . S
H543 C555 0.929 . S
H544 C558 0.930 . S
H545 C560 0.960 . S
H546 C560 0.960 . S
H547 C560 0.960 . S
C548 H540 0.929 . S
C548 C549 1.377 . S
C548 C550 1.384 . S
C549 C548 1.377 . S
C549 C555 1.390 . S
C550 H541 0.930 . S
C550 C548 1.384 . S
C550 C551 1.372 . S
C551 C550 1.372 . S
C551 C552 1.400 . S
C551 C556 1.490 . S
C552 H542 0.930 . S
C552 C551 1.400 . S
C552 C555 1.386 . S
H553 C569 0.930 . S
H554 C570 0.931 . S
C555 H543 0.929 . S
C555 C549 1.390 . S
C555 C552 1.386 . S
C556 C551 1.490 . S
C556 C558 1.395 . S
C556 C559 1.403 . S
H557 C563 0.930 . S
C558 H544 0.930 . S
C558 C556 1.395 . S
C558 C561 1.403 . S
C559 C556 1.403 . S
C559 C560 1.524 . S
C559 C563 1.400 . S
C560 H545 0.960 . S
C560 H546 0.960 . S
C560 H547 0.960 . S
C560 C559 1.524 . S
C561 C558 1.403 . S
C561 C562 1.392 . S
C561 C565 1.495 . S
C562 C561 1.392 . S
C562 C563 1.385 . S
C562 C564 1.478 . S
C563 H557 0.930 . S
C563 C559 1.400 . S
C563 C562 1.385 . S
C564 C562 1.478 . S
C564 C566 1.381 . S
C564 C570 1.383 . S
C565 C561 1.495 . S
C565 H571 0.959 . S
C565 H572 0.961 . S
C565 H573 0.960 . S
C566 C564 1.381 . S
C566 C567 1.394 . S
C566 H574 0.930 . S
C567 C566 1.394 . S
C567 C568 1.383 . S
C567 H575 0.929 . S
C568 C567 1.383 . S
C568 C569 1.377 . S
C569 H553 0.930 . S
C569 C568 1.377 . S
C569 C570 1.379 . S
C570 H554 0.931 . S
C570 C564 1.383 . S
C570 C569 1.379 . S
H571 C565 0.959 . S
H572 C565 0.961 . S
H573 C565 0.960 . S
H574 C566 0.930 . S
H575 C567 0.929 . S
H576 C584 0.929 . S
H577 C586 0.930 . S
H578 C588 0.930 . S
H579 C591 0.929 . S
H580 C594 0.930 . S
H581 C596 0.960 . S
H582 C596 0.960 . S
H583 C596 0.960 . S
C584 H576 0.929 . S
C584 C585 1.377 . S
C584 C586 1.384 . S
C585 C584 1.377 . S
C585 C591 1.390 . S
C586 H577 0.930 . S
C586 C584 1.384 . S
C586 C587 1.372 . S
C587 C586 1.372 . S
C587 C588 1.400 . S
C587 C592 1.490 . S
C588 H578 0.930 . S
C588 C587 1.400 . S
C588 C591 1.386 . S
H589 C605 0.930 . S
H590 C606 0.931 . S
C591 H579 0.929 . S
C591 C585 1.390 . S
C591 C588 1.386 . S
C592 C587 1.490 . S
C592 C594 1.395 . S
C592 C595 1.403 . S
H593 C599 0.930 . S
C594 H580 0.930 . S
C594 C592 1.395 . S
C594 C597 1.403 . S
C595 C592 1.403 . S
C595 C596 1.524 . S
C595 C599 1.400 . S
C596 H581 0.960 . S
C596 H582 0.960 . S
C596 H583 0.960 . S
C596 C595 1.524 . S
C597 C594 1.403 . S
C597 C598 1.392 . S
C597 C601 1.495 . S
C598 C597 1.392 . S
C598 C599 1.385 . S
C598 C600 1.478 . S
C599 H593 0.930 . S
C599 C595 1.400 . S
C599 C598 1.385 . S
C600 C598 1.478 . S
C600 C602 1.381 . S
C600 C606 1.383 . S
C601 C597 1.495 . S
C601 H607 0.959 . S
C601 H608 0.961 . S
C601 H609 0.960 . S
C602 C600 1.381 . S
C602 C603 1.394 . S
C602 H610 0.930 . S
C603 C602 1.394 . S
C603 C604 1.383 . S
C603 H611 0.929 . S
C604 C603 1.383 . S
C604 C605 1.377 . S
C605 H589 0.930 . S
C605 C604 1.377 . S
C605 C606 1.379 . S
C606 H590 0.931 . S
C606 C600 1.383 . S
C606 C605 1.379 . S
H607 C601 0.959 . S
H608 C601 0.961 . S
H609 C601 0.960 . S
H610 C602 0.930 . S
H611 C603 0.929 . S
H612 C620 0.929 . S
H613 C622 0.930 . S
H614 C624 0.930 . S
H615 C627 0.929 . S
H616 C630 0.930 . S
H617 C632 0.960 . S
H618 C632 0.960 . S
H619 C632 0.960 . S
C620 H612 0.929 . S
C620 C621 1.377 . S
C620 C622 1.384 . S
C621 C620 1.377 . S
C621 C627 1.390 . S
C622 H613 0.930 . S
C622 C620 1.384 . S
C622 C623 1.372 . S
C623 C622 1.372 . S
C623 C624 1.400 . S
C623 C628 1.490 . S
C624 H614 0.930 . S
C624 C623 1.400 . S
C624 C627 1.386 . S
H625 C641 0.930 . S
H626 C642 0.931 . S
C627 H615 0.929 . S
C627 C621 1.390 . S
C627 C624 1.386 . S
C628 C623 1.490 . S
C628 C630 1.395 . S
C628 C631 1.403 . S
H629 C635 0.930 . S
C630 H616 0.930 . S
C630 C628 1.395 . S
C630 C633 1.403 . S
C631 C628 1.403 . S
C631 C632 1.524 . S
C631 C635 1.400 . S
C632 H617 0.960 . S
C632 H618 0.960 . S
C632 H619 0.960 . S
C632 C631 1.524 . S
C633 C630 1.403 . S
C633 C634 1.392 . S
C633 C637 1.495 . S
C634 C633 1.392 . S
C634 C635 1.385 . S
C634 C636 1.478 . S
C635 H629 0.930 . S
C635 C631 1.400 . S
C635 C634 1.385 . S
C636 C634 1.478 . S
C636 C638 1.381 . S
C636 C642 1.383 . S
C637 C633 1.495 . S
C637 H643 0.959 . S
C637 H644 0.961 . S
C637 H645 0.960 . S
C638 C636 1.381 . S
C638 C639 1.394 . S
C638 H646 0.930 . S
C639 C638 1.394 . S
C639 C640 1.383 . S
C639 H647 0.929 . S
C640 C639 1.383 . S
C640 C641 1.377 . S
C641 H625 0.930 . S
C641 C640 1.377 . S
C641 C642 1.379 . S
C642 H626 0.931 . S
C642 C636 1.383 . S
C642 C641 1.379 . S
H643 C637 0.959 . S
H644 C637 0.961 . S
H645 C637 0.960 . S
H646 C638 0.930 . S
H647 C639 0.929 . S
H648 C656 0.929 . S
H649 C658 0.930 . S
H650 C660 0.930 . S
H651 C663 0.929 . S
H652 C666 0.930 . S
H653 C668 0.960 . S
H654 C668 0.960 . S
H655 C668 0.960 . S
C656 H648 0.929 . S
C656 C657 1.377 . S
C656 C658 1.384 . S
C657 C656 1.377 . S
C657 C663 1.390 . S
C658 H649 0.930 . S
C658 C656 1.384 . S
C658 C659 1.372 . S
C659 C658 1.372 . S
C659 C660 1.400 . S
C659 C664 1.490 . S
C660 H650 0.930 . S
C660 C659 1.400 . S
C660 C663 1.386 . S
H661 C677 0.930 . S
H662 C678 0.931 . S
C663 H651 0.929 . S
C663 C657 1.390 . S
C663 C660 1.386 . S
C664 C659 1.490 . S
C664 C666 1.395 . S
C664 C667 1.403 . S
H665 C671 0.930 . S
C666 H652 0.930 . S
C666 C664 1.395 . S
C666 C669 1.403 . S
C667 C664 1.403 . S
C667 C668 1.524 . S
C667 C671 1.400 . S
C668 H653 0.960 . S
C668 H654 0.960 . S
C668 H655 0.960 . S
C668 C667 1.524 . S
C669 C666 1.403 . S
C669 C670 1.392 . S
C669 C673 1.495 . S
C670 C669 1.392 . S
C670 C671 1.385 . S
C670 C672 1.478 . S
C671 H665 0.930 . S
C671 C667 1.400 . S
C671 C670 1.385 . S
C672 C670 1.478 . S
C672 C674 1.381 . S
C672 C678 1.383 . S
C673 C669 1.495 . S
C673 H679 0.959 . S
C673 H680 0.961 . S
C673 H681 0.960 . S
C674 C672 1.381 . S
C674 C675 1.394 . S
C674 H682 0.930 . S
C675 C674 1.394 . S
C675 C676 1.383 . S
C675 H683 0.929 . S
C676 C675 1.383 . S
C676 C677 1.377 . S
C677 H661 0.930 . S
C677 C676 1.377 . S
C677 C678 1.379 . S
C678 H662 0.931 . S
C678 C672 1.383 . S
C678 C677 1.379 . S
H679 C673 0.959 . S
H680 C673 0.961 . S
H681 C673 0.960 . S
H682 C674 0.930 . S
H683 C675 0.929 . S
H684 C692 0.929 . S
H685 C694 0.930 . S
H686 C696 0.930 . S
H687 C699 0.929 . S
H688 C702 0.930 . S
H689 C704 0.960 . S
H690 C704 0.960 . S
H691 C704 0.960 . S
C692 H684 0.929 . S
C692 C693 1.377 . S
C692 C694 1.384 . S
C693 C692 1.377 . S
C693 C699 1.390 . S
C694 H685 0.930 . S
C694 C692 1.384 . S
C694 C695 1.372 . S
C695 C694 1.372 . S
C695 C696 1.400 . S
C695 C700 1.490 . S
C696 H686 0.930 . S
C696 C695 1.400 . S
C696 C699 1.386 . S
H697 C713 0.930 . S
H698 C714 0.931 . S
C699 H687 0.929 . S
C699 C693 1.390 . S
C699 C696 1.386 . S
C700 C695 1.490 . S
C700 C702 1.395 . S
C700 C703 1.403 . S
H701 C707 0.930 . S
C702 H688 0.930 . S
C702 C700 1.395 . S
C702 C705 1.403 . S
C703 C700 1.403 . S
C703 C704 1.524 . S
C703 C707 1.400 . S
C704 H689 0.960 . S
C704 H690 0.960 . S
C704 H691 0.960 . S
C704 C703 1.524 . S
C705 C702 1.403 . S
C705 C706 1.392 . S
C705 C709 1.495 . S
C706 C705 1.392 . S
C706 C707 1.385 . S
C706 C708 1.478 . S
C707 H701 0.930 . S
C707 C703 1.400 . S
C707 C706 1.385 . S
C708 C706 1.478 . S
C708 C710 1.381 . S
C708 C714 1.383 . S
C709 C705 1.495 . S
C709 H715 0.959 . S
C709 H716 0.961 . S
C709 H717 0.960 . S
C710 C708 1.381 . S
C710 C711 1.394 . S
C710 H718 0.930 . S
C711 C710 1.394 . S
C711 C712 1.383 . S
C711 H719 0.929 . S
C712 C711 1.383 . S
C712 C713 1.377 . S
C713 H697 0.930 . S
C713 C712 1.377 . S
C713 C714 1.379 . S
C714 H698 0.931 . S
C714 C708 1.383 . S
C714 C713 1.379 . S
H715 C709 0.959 . S
H716 C709 0.961 . S
H717 C709 0.960 . S
H718 C710 0.930 . S
H719 C711 0.929 . S
H720 C728 0.929 . S
H721 C730 0.930 . S
H722 C732 0.930 . S
H723 C735 0.929 . S
H724 C738 0.930 . S
H725 C740 0.960 . S
H726 C740 0.960 . S
H727 C740 0.960 . S
C728 H720 0.929 . S
C728 C729 1.377 . S
C728 C730 1.384 . S
C729 C728 1.377 . S
C729 C735 1.390 . S
C730 H721 0.930 . S
C730 C728 1.384 . S
C730 C731 1.372 . S
C731 C730 1.372 . S
C731 C732 1.400 . S
C731 C736 1.490 . S
C732 H722 0.930 . S
C732 C731 1.400 . S
C732 C735 1.386 . S
H733 C749 0.930 . S
H734 C750 0.931 . S
C735 H723 0.929 . S
C735 C729 1.390 . S
C735 C732 1.386 . S
C736 C731 1.490 . S
C736 C738 1.395 . S
C736 C739 1.403 . S
H737 C743 0.930 . S
C738 H724 0.930 . S
C738 C736 1.395 . S
C738 C741 1.403 . S
C739 C736 1.403 . S
C739 C740 1.524 . S
C739 C743 1.400 . S
C740 H725 0.960 . S
C740 H726 0.960 . S
C740 H727 0.960 . S
C740 C739 1.524 . S
C741 C738 1.403 . S
C741 C742 1.392 . S
C741 C745 1.495 . S
C742 C741 1.392 . S
C742 C743 1.385 . S
C742 C744 1.478 . S
C743 H737 0.930 . S
C743 C739 1.400 . S
C743 C742 1.385 . S
C744 C742 1.478 . S
C744 C746 1.381 . S
C744 C750 1.383 . S
C745 C741 1.495 . S
C745 H751 0.959 . S
C745 H752 0.961 . S
C745 H753 0.960 . S
C746 C744 1.381 . S
C746 C747 1.394 . S
C746 H754 0.930 . S
C747 C746 1.394 . S
C747 C748 1.383 . S
C747 H755 0.929 . S
C748 C747 1.383 . S
C748 C749 1.377 . S
C749 H733 0.930 . S
C749 C748 1.377 . S
C749 C750 1.379 . S
C750 H734 0.931 . S
C750 C744 1.383 . S
C750 C749 1.379 . S
H751 C745 0.959 . S
H752 C745 0.961 . S
H753 C745 0.960 . S
H754 C746 0.930 . S
H755 C747 0.929 . S
H756 C764 0.929 . S
H757 C766 0.930 . S
H758 C768 0.930 . S
H759 C771 0.929 . S
H760 C774 0.930 . S
H761 C776 0.960 . S
H762 C776 0.960 . S
H763 C776 0.960 . S
C764 H756 0.929 . S
C764 C765 1.377 . S
C764 C766 1.384 . S
C765 C764 1.377 . S
C765 C771 1.390 . S
C766 H757 0.930 . S
C766 C764 1.384 . S
C766 C767 1.372 . S
C767 C766 1.372 . S
C767 C768 1.400 . S
C767 C772 1.490 . S
C768 H758 0.930 . S
C768 C767 1.400 . S
C768 C771 1.386 . S
H769 C785 0.930 . S
H770 C786 0.931 . S
C771 H759 0.929 . S
C771 C765 1.390 . S
C771 C768 1.386 . S
C772 C767 1.490 . S
C772 C774 1.395 . S
C772 C775 1.403 . S
H773 C779 0.930 . S
C774 H760 0.930 . S
C774 C772 1.395 . S
C774 C777 1.403 . S
C775 C772 1.403 . S
C775 C776 1.524 . S
C775 C779 1.400 . S
C776 H761 0.960 . S
C776 H762 0.960 . S
C776 H763 0.960 . S
C776 C775 1.524 . S
C777 C774 1.403 . S
C777 C778 1.392 . S
C777 C781 1.495 . S
C778 C777 1.392 . S
C778 C779 1.385 . S
C778 C780 1.478 . S
C779 H773 0.930 . S
C779 C775 1.400 . S
C779 C778 1.385 . S
C780 C778 1.478 . S
C780 C782 1.381 . S
C780 C786 1.383 . S
C781 C777 1.495 . S
C781 H787 0.959 . S
C781 H788 0.961 . S
C781 H789 0.960 . S
C782 C780 1.381 . S
C782 C783 1.394 . S
C782 H790 0.930 . S
C783 C782 1.394 . S
C783 C784 1.383 . S
C783 H791 0.929 . S
C784 C783 1.383 . S
C784 C785 1.377 . S
C785 H769 0.930 . S
C785 C784 1.377 . S
C785 C786 1.379 . S
C786 H770 0.931 . S
C786 C780 1.383 . S
C786 C785 1.379 . S
H787 C781 0.959 . S
H788 C781 0.961 . S
H789 C781 0.960 . S
H790 C782 0.930 . S
H791 C783 0.929 . S
H792 C800 0.929 . S
H793 C802 0.930 . S
H794 C804 0.930 . S
H795 C807 0.929 . S
H796 C810 0.930 . S
H797 C812 0.960 . S
H798 C812 0.960 . S
H799 C812 0.960 . S
C800 H792 0.929 . S
C800 C801 1.377 . S
C800 C802 1.384 . S
C801 C800 1.377 . S
C801 C807 1.390 . S
C802 H793 0.930 . S
C802 C800 1.384 . S
C802 C803 1.372 . S
C803 C802 1.372 . S
C803 C804 1.400 . S
C803 C808 1.490 . S
C804 H794 0.930 . S
C804 C803 1.400 . S
C804 C807 1.386 . S
H805 C821 0.930 . S
H806 C822 0.931 . S
C807 H795 0.929 . S
C807 C801 1.390 . S
C807 C804 1.386 . S
C808 C803 1.490 . S
C808 C810 1.395 . S
C808 C811 1.403 . S
H809 C815 0.930 . S
C810 H796 0.930 . S
C810 C808 1.395 . S
C810 C813 1.403 . S
C811 C808 1.403 . S
C811 C812 1.524 . S
C811 C815 1.400 . S
C812 H797 0.960 . S
C812 H798 0.960 . S
C812 H799 0.960 . S
C812 C811 1.524 . S
C813 C810 1.403 . S
C813 C814 1.392 . S
C813 C817 1.495 1_655 S
C814 C813 1.392 . S
C814 C815 1.385 . S
C814 C816 1.478 . S
C815 H809 0.930 . S
C815 C811 1.400 . S
C815 C814 1.385 . S
C816 C814 1.478 . S
C816 C818 1.381 . S
C816 C822 1.383 . S
C817 C813 1.495 1_455 S
C817 H823 0.959 . S
C817 H824 0.961 . S
C817 H825 0.960 . S
C818 C816 1.381 . S
C818 C819 1.394 . S
C818 H826 0.930 . S
C819 C818 1.394 . S
C819 C820 1.383 . S
C819 H827 0.929 . S
C820 C819 1.383 . S
C820 C821 1.377 . S
C821 H805 0.930 . S
C821 C820 1.377 . S
C821 C822 1.379 . S
C822 H806 0.931 . S
C822 C816 1.383 . S
C822 C821 1.379 . S
H823 C817 0.959 . S
H824 C817 0.961 . S
H825 C817 0.960 . S
H826 C818 0.930 . S
H827 C819 0.929 . S
H828 C836 0.929 . S
H829 C838 0.930 . S
H830 C840 0.930 . S
H831 C843 0.929 . S
H832 C846 0.930 . S
H833 C848 0.960 . S
H834 C848 0.960 . S
H835 C848 0.960 . S
C836 H828 0.929 . S
C836 C837 1.377 . S
C836 C838 1.384 . S
C837 C836 1.377 . S
C837 C843 1.390 . S
C838 H829 0.930 . S
C838 C836 1.384 . S
C838 C839 1.372 . S
C839 C838 1.372 . S
C839 C840 1.400 . S
C839 C844 1.490 . S
C840 H830 0.930 . S
C840 C839 1.400 . S
C840 C843 1.386 . S
H841 C857 0.930 . S
H842 C858 0.931 . S
C843 H831 0.929 . S
C843 C837 1.390 . S
C843 C840 1.386 . S
C844 C839 1.490 . S
C844 C846 1.395 . S
C844 C847 1.403 . S
H845 C851 0.930 . S
C846 H832 0.930 . S
C846 C844 1.395 . S
C846 C849 1.403 . S
C847 C844 1.403 . S
C847 C848 1.524 . S
C847 C851 1.400 . S
C848 H833 0.960 . S
C848 H834 0.960 . S
C848 H835 0.960 . S
C848 C847 1.524 . S
C849 C846 1.403 . S
C849 C850 1.392 . S
C849 C853 1.495 . S
C850 C849 1.392 . S
C850 C851 1.385 . S
C850 C852 1.478 . S
C851 H845 0.930 . S
C851 C847 1.400 . S
C851 C850 1.385 . S
C852 C850 1.478 . S
C852 C854 1.381 . S
C852 C858 1.383 . S
C853 C849 1.495 . S
C853 H859 0.959 . S
C853 H860 0.961 . S
C853 H861 0.960 . S
C854 C852 1.381 . S
C854 C855 1.394 . S
C854 H862 0.930 . S
C855 C854 1.394 . S
C855 C856 1.383 . S
C855 H863 0.929 . S
C856 C855 1.383 . S
C856 C857 1.377 . S
C857 H841 0.930 . S
C857 C856 1.377 . S
C857 C858 1.379 . S
C858 H842 0.931 . S
C858 C852 1.383 . S
C858 C857 1.379 . S
H859 C853 0.959 . S
H860 C853 0.961 . S
H861 C853 0.960 . S
H862 C854 0.930 . S
H863 C855 0.929 . S
H864 C872 0.929 . S
H865 C874 0.930 . S
H866 C876 0.930 . S
H867 C879 0.929 . S
H868 C882 0.930 . S
H869 C884 0.960 . S
H870 C884 0.960 . S
H871 C884 0.960 . S
C872 H864 0.929 . S
C872 C873 1.377 . S
C872 C874 1.384 . S
C873 C872 1.377 . S
C873 C879 1.390 . S
C874 H865 0.930 . S
C874 C872 1.384 . S
C874 C875 1.372 . S
C875 C874 1.372 . S
C875 C876 1.400 . S
C875 C880 1.490 . S
C876 H866 0.930 . S
C876 C875 1.400 . S
C876 C879 1.386 . S
H877 C893 0.930 . S
H878 C894 0.931 . S
C879 H867 0.929 . S
C879 C873 1.390 . S
C879 C876 1.386 . S
C880 C875 1.490 . S
C880 C882 1.395 . S
C880 C883 1.403 . S
H881 C887 0.930 . S
C882 H868 0.930 . S
C882 C880 1.395 . S
C882 C885 1.403 . S
C883 C880 1.403 . S
C883 C884 1.524 . S
C883 C887 1.400 . S
C884 H869 0.960 . S
C884 H870 0.960 . S
C884 H871 0.960 . S
C884 C883 1.524 . S
C885 C882 1.403 . S
C885 C886 1.392 . S
C885 C889 1.495 . S
C886 C885 1.392 . S
C886 C887 1.385 . S
C886 C888 1.478 . S
C887 H881 0.930 . S
C887 C883 1.400 . S
C887 C886 1.385 . S
C888 C886 1.478 . S
C888 C890 1.381 . S
C888 C894 1.383 . S
C889 C885 1.495 . S
C889 H895 0.959 . S
C889 H896 0.961 . S
C889 H897 0.960 . S
C890 C888 1.381 . S
C890 C891 1.394 . S
C890 H898 0.930 . S
C891 C890 1.394 . S
C891 C892 1.383 . S
C891 H899 0.929 . S
C892 C891 1.383 . S
C892 C893 1.377 . S
C893 H877 0.930 . S
C893 C892 1.377 . S
C893 C894 1.379 . S
C894 H878 0.931 . S
C894 C888 1.383 . S
C894 C893 1.379 . S
H895 C889 0.959 . S
H896 C889 0.961 . S
H897 C889 0.960 . S
H898 C890 0.930 . S
H899 C891 0.929 . S
H900 C908 0.929 . S
H901 C910 0.930 . S
H902 C912 0.930 . S
H903 C915 0.929 . S
H904 C918 0.930 . S
H905 C920 0.960 . S
H906 C920 0.960 . S
H907 C920 0.960 . S
C908 H900 0.929 . S
C908 C909 1.377 . S
C908 C910 1.384 . S
C909 C908 1.377 . S
C909 C915 1.390 . S
C910 H901 0.930 . S
C910 C908 1.384 . S
C910 C911 1.372 . S
C911 C910 1.372 . S
C911 C912 1.400 . S
C911 C916 1.490 . S
C912 H902 0.930 . S
C912 C911 1.400 . S
C912 C915 1.386 . S
H913 C929 0.930 . S
H914 C930 0.931 . S
C915 H903 0.929 . S
C915 C909 1.390 . S
C915 C912 1.386 . S
C916 C911 1.490 . S
C916 C918 1.395 . S
C916 C919 1.403 . S
H917 C923 0.930 . S
C918 H904 0.930 . S
C918 C916 1.395 . S
C918 C921 1.403 . S
C919 C916 1.403 . S
C919 C920 1.524 . S
C919 C923 1.400 . S
C920 H905 0.960 . S
C920 H906 0.960 . S
C920 H907 0.960 . S
C920 C919 1.524 . S
C921 C918 1.403 . S
C921 C922 1.392 . S
C921 C925 1.495 . S
C922 C921 1.392 . S
C922 C923 1.385 . S
C922 C924 1.478 . S
C923 H917 0.930 . S
C923 C919 1.400 . S
C923 C922 1.385 . S
C924 C922 1.478 . S
C924 C926 1.381 . S
C924 C930 1.383 . S
C925 C921 1.495 . S
C925 H931 0.959 . S
C925 H932 0.961 . S
C925 H933 0.960 . S
C926 C924 1.381 . S
C926 C927 1.394 . S
C926 H934 0.930 . S
C927 C926 1.394 . S
C927 C928 1.383 . S
C927 H935 0.929 . S
C928 C927 1.383 . S
C928 C929 1.377 . S
C929 H913 0.930 . S
C929 C928 1.377 . S
C929 C930 1.379 . S
C930 H914 0.931 . S
C930 C924 1.383 . S
C930 C929 1.379 . S
H931 C925 0.959 . S
H932 C925 0.961 . S
H933 C925 0.960 . S
H934 C926 0.930 . S
H935 C927 0.929 . S
H936 C944 0.929 . S
H937 C946 0.930 . S
H938 C948 0.930 . S
H939 C951 0.929 . S
H940 C954 0.930 . S
H941 C956 0.960 . S
H942 C956 0.960 . S
H943 C956 0.960 . S
C944 H936 0.929 . S
C944 C945 1.377 . S
C944 C946 1.384 . S
C945 C944 1.377 . S
C945 C951 1.390 . S
C946 H937 0.930 . S
C946 C944 1.384 . S
C946 C947 1.372 . S
C947 C946 1.372 . S
C947 C948 1.400 . S
C947 C952 1.490 . S
C948 H938 0.930 . S
C948 C947 1.400 . S
C948 C951 1.386 . S
H949 C965 0.930 . S
H950 C966 0.931 . S
C951 H939 0.929 . S
C951 C945 1.390 . S
C951 C948 1.386 . S
C952 C947 1.490 . S
C952 C954 1.395 . S
C952 C955 1.403 . S
H953 C959 0.930 . S
C954 H940 0.930 . S
C954 C952 1.395 . S
C954 C957 1.403 . S
C955 C952 1.403 . S
C955 C956 1.524 . S
C955 C959 1.400 . S
C956 H941 0.960 . S
C956 H942 0.960 . S
C956 H943 0.960 . S
C956 C955 1.524 . S
C957 C954 1.403 . S
C957 C958 1.392 . S
C957 C961 1.495 . S
C958 C957 1.392 . S
C958 C959 1.385 . S
C958 C960 1.478 . S
C959 H953 0.930 . S
C959 C955 1.400 . S
C959 C958 1.385 . S
C960 C958 1.478 . S
C960 C962 1.381 . S
C960 C966 1.383 . S
C961 C957 1.495 . S
C961 H967 0.959 . S
C961 H968 0.961 . S
C961 H969 0.960 . S
C962 C960 1.381 . S
C962 C963 1.394 . S
C962 H970 0.930 . S
C963 C962 1.394 . S
C963 C964 1.383 . S
C963 H971 0.929 . S
C964 C963 1.383 . S
C964 C965 1.377 . S
C965 H949 0.930 . S
C965 C964 1.377 . S
C965 C966 1.379 . S
C966 H950 0.931 . S
C966 C960 1.383 . S
C966 C965 1.379 . S
H967 C961 0.959 . S
H968 C961 0.961 . S
H969 C961 0.960 . S
H970 C962 0.930 . S
H971 C963 0.929 . S
H972 C980 0.929 . S
H973 C982 0.930 . S
H974 C984 0.930 . S
H975 C987 0.929 . S
H976 C990 0.930 . S
H977 C992 0.960 . S
H978 C992 0.960 . S
H979 C992 0.960 . S
C980 H972 0.929 . S
C980 C981 1.377 . S
C980 C982 1.384 . S
C981 C980 1.377 . S
C981 C987 1.390 . S
C982 H973 0.930 . S
C982 C980 1.384 . S
C982 C983 1.372 . S
C983 C982 1.372 . S
C983 C984 1.400 . S
C983 C988 1.490 . S
C984 H974 0.930 . S
C984 C983 1.400 . S
C984 C987 1.386 . S
H985 C1001 0.930 . S
H986 C1002 0.931 . S
C987 H975 0.929 . S
C987 C981 1.390 . S
C987 C984 1.386 . S
C988 C983 1.490 . S
C988 C990 1.395 . S
C988 C991 1.403 . S
H989 C995 0.930 . S
C990 H976 0.930 . S
C990 C988 1.395 . S
C990 C993 1.403 . S
C991 C988 1.403 . S
C991 C992 1.524 . S
C991 C995 1.400 . S
C992 H977 0.960 . S
C992 H978 0.960 . S
C992 H979 0.960 . S
C992 C991 1.524 . S
C993 C990 1.403 . S
C993 C994 1.392 . S
C993 C997 1.495 . S
C994 C993 1.392 . S
C994 C995 1.385 . S
C994 C996 1.478 . S
C995 H989 0.930 . S
C995 C991 1.400 . S
C995 C994 1.385 . S
C996 C994 1.478 . S
C996 C998 1.381 . S
C996 C1002 1.383 . S
C997 C993 1.495 . S
C997 H1003 0.959 . S
C997 H1004 0.961 . S
C997 H1005 0.960 . S
C998 C996 1.381 . S
C998 C999 1.394 . S
C998 H1006 0.930 . S
C999 C998 1.394 . S
C999 C1000 1.383 . S
C999 H1007 0.929 . S
C1000 C999 1.383 . S
C1000 C1001 1.377 . S
C1001 H985 0.930 . S
C1001 C1000 1.377 . S
C1001 C1002 1.379 . S
C1002 H986 0.931 . S
C1002 C996 1.383 . S
C1002 C1001 1.379 . S
H1003 C997 0.959 . S
H1004 C997 0.961 . S
H1005 C997 0.960 . S
H1006 C998 0.930 . S
H1007 C999 0.929 . S
H1008 C1016 0.929 . S
H1009 C1018 0.930 . S
H1010 C1020 0.930 . S
H1011 C1023 0.929 . S
H1012 C1026 0.930 . S
H1013 C1028 0.960 . S
H1014 C1028 0.960 . S
H1015 C1028 0.960 . S
C1016 H1008 0.929 . S
C1016 C1017 1.377 . S
C1016 C1018 1.384 . S
C1017 C1016 1.377 . S
C1017 C1023 1.390 . S
C1018 H1009 0.930 . S
C1018 C1016 1.384 . S
C1018 C1019 1.372 . S
C1019 C1018 1.372 . S
C1019 C1020 1.400 . S
C1019 C1024 1.490 . S
C1020 H1010 0.930 . S
C1020 C1019 1.400 . S
C1020 C1023 1.386 . S
H1021 C1037 0.930 . S
H1022 C1038 0.931 . S
C1023 H1011 0.929 . S
C1023 C1017 1.390 . S
C1023 C1020 1.386 . S
C1024 C1019 1.490 . S
C1024 C1026 1.395 . S
C1024 C1027 1.403 . S
H1025 C1031 0.930 . S
C1026 H1012 0.930 . S
C1026 C1024 1.395 . S
C1026 C1029 1.403 . S
C1027 C1024 1.403 . S
C1027 C1028 1.524 . S
C1027 C1031 1.400 . S
C1028 H1013 0.960 . S
C1028 H1014 0.960 . S
C1028 H1015 0.960 . S
C1028 C1027 1.524 . S
C1029 C1026 1.403 . S
C1029 C1030 1.392 . S
C1029 C1033 1.495 . S
C1030 C1029 1.392 . S
C1030 C1031 1.385 . S
C1030 C1032 1.478 . S
C1031 H1025 0.930 . S
C1031 C1027 1.400 . S
C1031 C1030 1.385 . S
C1032 C1030 1.478 . S
C1032 C1034 1.381 . S
C1032 C1038 1.383 . S
C1033 C1029 1.495 . S
C1033 H1039 0.959 . S
C1033 H1040 0.961 . S
C1033 H1041 0.960 . S
C1034 C1032 1.381 . S
C1034 C1035 1.394 . S
C1034 H1042 0.930 . S
C1035 C1034 1.394 . S
C1035 C1036 1.383 . S
C1035 H1043 0.929 . S
C1036 C1035 1.383 . S
C1036 C1037 1.377 . S
C1037 H1021 0.930 . S
C1037 C1036 1.377 . S
C1037 C1038 1.379 . S
C1038 H1022 0.931 . S
C1038 C1032 1.383 . S
C1038 C1037 1.379 . S
H1039 C1033 0.959 . S
H1040 C1033 0.961 . S
H1041 C1033 0.960 . S
H1042 C1034 0.930 . S
H1043 C1035 0.929 . S
H1044 C1052 0.929 . S
H1045 C1054 0.930 . S
H1046 C1056 0.930 . S
H1047 C1059 0.929 . S
H1048 C1062 0.930 . S
H1049 C1064 0.960 . S
H1050 C1064 0.960 . S
H1051 C1064 0.960 . S
C1052 H1044 0.929 . S
C1052 C1053 1.377 . S
C1052 C1054 1.384 . S
C1053 C1052 1.377 . S
C1053 C1059 1.390 . S
C1054 H1045 0.930 . S
C1054 C1052 1.384 . S
C1054 C1055 1.372 . S
C1055 C1054 1.372 . S
C1055 C1056 1.400 . S
C1055 C1060 1.490 . S
C1056 H1046 0.930 . S
C1056 C1055 1.400 . S
C1056 C1059 1.386 . S
H1057 C1073 0.930 . S
H1058 C1074 0.931 . S
C1059 H1047 0.929 . S
C1059 C1053 1.390 . S
C1059 C1056 1.386 . S
C1060 C1055 1.490 . S
C1060 C1062 1.395 . S
C1060 C1063 1.403 . S
H1061 C1067 0.930 . S
C1062 H1048 0.930 . S
C1062 C1060 1.395 . S
C1062 C1065 1.403 . S
C1063 C1060 1.403 . S
C1063 C1064 1.524 . S
C1063 C1067 1.400 . S
C1064 H1049 0.960 . S
C1064 H1050 0.960 . S
C1064 H1051 0.960 . S
C1064 C1063 1.524 . S
C1065 C1062 1.403 . S
C1065 C1066 1.392 . S
C1065 C1069 1.495 . S
C1066 C1065 1.392 . S
C1066 C1067 1.385 . S
C1066 C1068 1.478 . S
C1067 H1061 0.930 . S
C1067 C1063 1.400 . S
C1067 C1066 1.385 . S
C1068 C1066 1.478 . S
C1068 C1070 1.381 . S
C1068 C1074 1.383 . S
C1069 C1065 1.495 . S
C1069 H1075 0.959 . S
C1069 H1076 0.961 . S
C1069 H1077 0.960 . S
C1070 C1068 1.381 . S
C1070 C1071 1.394 . S
C1070 H1078 0.930 . S
C1071 C1070 1.394 . S
C1071 C1072 1.383 . S
C1071 H1079 0.929 . S
C1072 C1071 1.383 . S
C1072 C1073 1.377 . S
C1073 H1057 0.930 . S
C1073 C1072 1.377 . S
C1073 C1074 1.379 . S
C1074 H1058 0.931 . S
C1074 C1068 1.383 . S
C1074 C1073 1.379 . S
H1075 C1069 0.959 . S
H1076 C1069 0.961 . S
H1077 C1069 0.960 . S
H1078 C1070 0.930 . S
H1079 C1071 0.929 . S
H1080 C1088 0.929 . S
H1081 C1090 0.930 . S
H1082 C1092 0.930 . S
H1083 C1095 0.929 . S
H1084 C1098 0.930 . S
H1085 C1100 0.960 . S
H1086 C1100 0.960 . S
H1087 C1100 0.960 . S
C1088 H1080 0.929 . S
C1088 C1089 1.377 . S
C1088 C1090 1.384 . S
C1089 C1088 1.377 . S
C1089 C1095 1.390 . S
C1090 H1081 0.930 . S
C1090 C1088 1.384 . S
C1090 C1091 1.372 . S
C1091 C1090 1.372 . S
C1091 C1092 1.400 . S
C1091 C1096 1.490 . S
C1092 H1082 0.930 . S
C1092 C1091 1.400 . S
C1092 C1095 1.386 . S
H1093 C1109 0.930 . S
H1094 C1110 0.931 . S
C1095 H1083 0.929 . S
C1095 C1089 1.390 . S
C1095 C1092 1.386 . S
C1096 C1091 1.490 . S
C1096 C1098 1.395 . S
C1096 C1099 1.403 . S
H1097 C1103 0.930 . S
C1098 H1084 0.930 . S
C1098 C1096 1.395 . S
C1098 C1101 1.403 . S
C1099 C1096 1.403 . S
C1099 C1100 1.524 . S
C1099 C1103 1.400 . S
C1100 H1085 0.960 . S
C1100 H1086 0.960 . S
C1100 H1087 0.960 . S
C1100 C1099 1.524 . S
C1101 C1098 1.403 . S
C1101 C1102 1.392 . S
C1101 C1105 1.495 . S
C1102 C1101 1.392 . S
C1102 C1103 1.385 . S
C1102 C1104 1.478 . S
C1103 H1097 0.930 . S
C1103 C1099 1.400 . S
C1103 C1102 1.385 . S
C1104 C1102 1.478 . S
C1104 C1106 1.381 . S
C1104 C1110 1.383 . S
C1105 C1101 1.495 . S
C1105 H1111 0.959 . S
C1105 H1112 0.961 . S
C1105 H1113 0.960 . S
C1106 C1104 1.381 . S
C1106 C1107 1.394 . S
C1106 H1114 0.930 . S
C1107 C1106 1.394 . S
C1107 C1108 1.383 . S
C1107 H1115 0.929 . S
C1108 C1107 1.383 . S
C1108 C1109 1.377 . S
C1109 H1093 0.930 . S
C1109 C1108 1.377 . S
C1109 C1110 1.379 . S
C1110 H1094 0.931 . S
C1110 C1104 1.383 . S
C1110 C1109 1.379 . S
H1111 C1105 0.959 . S
H1112 C1105 0.961 . S
H1113 C1105 0.960 . S
H1114 C1106 0.930 . S
H1115 C1107 0.929 . S
H1116 C1124 0.929 . S
H1117 C1126 0.930 . S
H1118 C1128 0.930 . S
H1119 C1131 0.929 1_655 S
H1120 C1134 0.930 . S
H1121 C1136 0.960 . S
H1122 C1136 0.960 . S
H1123 C1136 0.960 . S
C1124 H1116 0.929 . S
C1124 C1125 1.377 . S
C1124 C1126 1.384 . S
C1125 C1124 1.377 . S
C1125 C1131 1.399 . S
C1126 H1117 0.930 . S
C1126 C1124 1.384 . S
C1126 C1127 1.372 . S
C1127 C1126 1.372 . S
C1127 C1128 1.400 1_455 S
C1127 C1132 1.490 . S
C1128 H1118 0.930 . S
C1128 C1127 1.400 1_655 S
C1128 C1131 1.378 1_655 S
H1129 C1145 0.930 . S
H1130 C1146 0.931 . S
C1131 H1119 0.929 1_455 S
C1131 C1125 1.399 . S
C1131 C1128 1.378 1_455 S
C1132 C1127 1.490 . S
C1132 C1134 1.395 1_455 S
C1132 C1135 1.403 . S
H1133 C1139 0.951 . S
C1134 H1120 0.930 . S
C1134 C1132 1.395 1_655 S
C1134 C1137 1.403 . S
C1135 C1132 1.403 . S
C1135 C1136 1.524 . S
C1135 C1139 1.422 . S
C1136 H1121 0.960 . S
C1136 H1122 0.960 . S
C1136 H1123 0.960 . S
C1136 C1135 1.524 . S
C1137 C1134 1.403 . S
C1137 C1138 1.392 . S
C1137 C1141 1.495 . S
C1138 C1137 1.392 . S
C1138 C1139 1.346 1_655 S
C1138 C1140 1.478 . S
C1139 H1133 0.951 . S
C1139 C1135 1.422 . S
C1139 C1138 1.346 1_455 S
C1140 C1138 1.478 . S
C1140 C1142 1.383 . S
C1140 C1146 1.383 . S
C1141 C1137 1.495 . S
C1141 H1147 0.959 . S
C1141 H1148 0.961 . S
C1141 H1149 0.960 . S
C1142 C1140 1.383 . S
C1142 C1143 1.399 . S
C1142 H1150 0.924 1_655 S
C1143 C1142 1.399 . S
C1143 C1144 1.383 . S
C1143 H1151 0.929 1_655 S
C1144 C1143 1.383 . S
C1144 C1145 1.377 . S
C1145 H1129 0.930 . S
C1145 C1144 1.377 . S
C1145 C1146 1.379 . S
C1146 H1130 0.931 . S
C1146 C1140 1.383 . S
C1146 C1145 1.379 . S
H1147 C1141 0.959 . S
H1148 C1141 0.961 . S
H1149 C1141 0.960 . S
H1150 C1142 0.924 1_455 S
H1151 C1143 0.929 1_455 S
H1152 C1160 0.929 . S
H1153 C1162 0.930 . S
H1154 C1164 0.930 . S
H1155 C1167 0.929 . S
H1156 C1170 0.930 . S
H1157 C1172 0.960 . S
H1158 C1172 0.960 . S
H1159 C1172 0.960 . S
C1160 H1152 0.929 . S
C1160 C1161 1.377 . S
C1160 C1162 1.384 . S
C1161 C1160 1.377 . S
C1161 C1167 1.390 . S
C1162 H1153 0.930 . S
C1162 C1160 1.384 . S
C1162 C1163 1.372 . S
C1163 C1162 1.372 . S
C1163 C1164 1.400 . S
C1163 C1168 1.490 . S
C1164 H1154 0.930 . S
C1164 C1163 1.400 . S
C1164 C1167 1.386 . S
H1165 C1181 0.930 . S
H1166 C1182 0.931 . S
C1167 H1155 0.929 . S
C1167 C1161 1.390 . S
C1167 C1164 1.386 . S
C1168 C1163 1.490 . S
C1168 C1170 1.395 . S
C1168 C1171 1.403 . S
H1169 C1175 0.930 . S
C1170 H1156 0.930 . S
C1170 C1168 1.395 . S
C1170 C1173 1.403 . S
C1171 C1168 1.403 . S
C1171 C1172 1.524 . S
C1171 C1175 1.400 . S
C1172 H1157 0.960 . S
C1172 H1158 0.960 . S
C1172 H1159 0.960 . S
C1172 C1171 1.524 . S
C1173 C1170 1.403 . S
C1173 C1174 1.392 . S
C1173 C1177 1.495 . S
C1174 C1173 1.392 . S
C1174 C1175 1.385 . S
C1174 C1176 1.478 . S
C1175 H1169 0.930 . S
C1175 C1171 1.400 . S
C1175 C1174 1.385 . S
C1176 C1174 1.478 . S
C1176 C1178 1.381 . S
C1176 C1182 1.383 . S
C1177 C1173 1.495 . S
C1177 H1183 0.959 . S
C1177 H1184 0.961 . S
C1177 H1185 0.960 . S
C1178 C1176 1.381 . S
C1178 C1179 1.394 . S
C1178 H1186 0.930 . S
C1179 C1178 1.394 . S
C1179 C1180 1.383 . S
C1179 H1187 0.929 . S
C1180 C1179 1.383 . S
C1180 C1181 1.377 . S
C1181 H1165 0.930 . S
C1181 C1180 1.377 . S
C1181 C1182 1.379 . S
C1182 H1166 0.931 . S
C1182 C1176 1.383 . S
C1182 C1181 1.379 . S
H1183 C1177 0.959 . S
H1184 C1177 0.961 . S
H1185 C1177 0.960 . S
H1186 C1178 0.930 . S
H1187 C1179 0.929 . S
H1188 C1196 0.929 . S
H1189 C1198 0.930 . S
H1190 C1200 0.930 . S
H1191 C1203 0.929 . S
H1192 C1206 0.930 . S
H1193 C1208 0.960 . S
H1194 C1208 0.960 . S
H1195 C1208 0.960 . S
C1196 H1188 0.929 . S
C1196 C1197 1.377 . S
C1196 C1198 1.384 . S
C1197 C1196 1.377 . S
C1197 C1203 1.390 . S
C1198 H1189 0.930 . S
C1198 C1196 1.384 . S
C1198 C1199 1.372 . S
C1199 C1198 1.372 . S
C1199 C1200 1.400 . S
C1199 C1204 1.490 . S
C1200 H1190 0.930 . S
C1200 C1199 1.400 . S
C1200 C1203 1.386 . S
H1201 C1217 0.930 . S
H1202 C1218 0.931 . S
C1203 H1191 0.929 . S
C1203 C1197 1.390 . S
C1203 C1200 1.386 . S
C1204 C1199 1.490 . S
C1204 C1206 1.395 . S
C1204 C1207 1.403 . S
H1205 C1211 0.930 . S
C1206 H1192 0.930 . S
C1206 C1204 1.395 . S
C1206 C1209 1.403 . S
C1207 C1204 1.403 . S
C1207 C1208 1.524 . S
C1207 C1211 1.400 . S
C1208 H1193 0.960 . S
C1208 H1194 0.960 . S
C1208 H1195 0.960 . S
C1208 C1207 1.524 . S
C1209 C1206 1.403 . S
C1209 C1210 1.392 . S
C1209 C1213 1.495 . S
C1210 C1209 1.392 . S
C1210 C1211 1.385 . S
C1210 C1212 1.478 . S
C1211 H1205 0.930 . S
C1211 C1207 1.400 . S
C1211 C1210 1.385 . S
C1212 C1210 1.478 . S
C1212 C1214 1.381 . S
C1212 C1218 1.383 . S
C1213 C1209 1.495 . S
C1213 H1219 0.959 . S
C1213 H1220 0.961 . S
C1213 H1221 0.960 . S
C1214 C1212 1.381 . S
C1214 C1215 1.394 . S
C1214 H1222 0.930 . S
C1215 C1214 1.394 . S
C1215 C1216 1.383 . S
C1215 H1223 0.929 . S
C1216 C1215 1.383 . S
C1216 C1217 1.377 . S
C1217 H1201 0.930 . S
C1217 C1216 1.377 . S
C1217 C1218 1.379 . S
C1218 H1202 0.931 . S
C1218 C1212 1.383 . S
C1218 C1217 1.379 . S
H1219 C1213 0.959 . S
H1220 C1213 0.961 . S
H1221 C1213 0.960 . S
H1222 C1214 0.930 . S
H1223 C1215 0.929 . S
H1224 C1232 0.929 . S
H1225 C1234 0.930 . S
H1226 C1236 0.930 1_565 S
H1227 C1239 0.929 . S
H1228 C1242 0.930 . S
H1229 C1244 0.960 . S
H1230 C1244 0.960 . S
H1231 C1244 0.960 . S
C1232 H1224 0.929 . S
C1232 C1233 1.377 . S
C1232 C1234 1.384 . S
C1233 C1232 1.377 . S
C1233 C1239 1.390 . S
C1234 H1225 0.930 . S
C1234 C1232 1.384 . S
C1234 C1235 1.372 . S
C1235 C1234 1.372 . S
C1235 C1236 1.400 . S
C1235 C1240 1.490 . S
C1236 H1226 0.930 1_545 S
C1236 C1235 1.400 . S
C1236 C1239 1.386 . S
H1237 C1253 0.930 . S
H1238 C1254 0.931 . S
C1239 H1227 0.929 . S
C1239 C1233 1.390 . S
C1239 C1236 1.386 . S
C1240 C1235 1.490 . S
C1240 C1242 1.395 . S
C1240 C1243 1.403 1_545 S
H1241 C1247 0.930 . S
C1242 H1228 0.930 . S
C1242 C1240 1.395 . S
C1242 C1245 1.403 . S
C1243 C1240 1.403 1_565 S
C1243 C1244 1.524 . S
C1243 C1247 1.400 . S
C1244 H1229 0.960 . S
C1244 H1230 0.960 . S
C1244 H1231 0.960 . S
C1244 C1243 1.524 . S
C1245 C1242 1.403 . S
C1245 C1246 1.392 1_545 S
C1245 C1249 1.495 . S
C1246 C1245 1.392 1_565 S
C1246 C1247 1.385 . S
C1246 C1248 1.478 . S
C1247 H1241 0.930 . S
C1247 C1243 1.400 . S
C1247 C1246 1.385 . S
C1248 C1246 1.478 . S
C1248 C1250 1.381 . S
C1248 C1254 1.383 . S
C1249 C1245 1.495 . S
C1249 H1255 0.959 . S
C1249 H1256 0.961 . S
C1249 H1257 0.960 . S
C1250 C1248 1.381 . S
C1250 C1251 1.394 . S
C1250 H1258 0.930 . S
C1251 C1250 1.394 . S
C1251 C1252 1.383 . S
C1251 H1259 0.929 . S
C1252 C1251 1.383 . S
C1252 C1253 1.377 . S
C1253 H1237 0.930 . S
C1253 C1252 1.377 . S
C1253 C1254 1.379 . S
C1254 H1238 0.931 . S
C1254 C1248 1.383 . S
C1254 C1253 1.379 . S
H1255 C1249 0.959 . S
H1256 C1249 0.961 . S
H1257 C1249 0.960 . S
H1258 C1250 0.930 . S
H1259 C1251 0.929 . S
H1260 C1268 0.929 . S
H1261 C1270 0.930 . S
H1262 C1272 0.930 . S
H1263 C1275 0.929 . S
H1264 C1278 0.930 . S
H1265 C1280 0.960 . S
H1266 C1280 0.960 . S
H1267 C1280 0.960 . S
C1268 H1260 0.929 . S
C1268 C1269 1.377 . S
C1268 C1270 1.384 . S
C1269 C1268 1.377 . S
C1269 C1275 1.390 . S
C1270 H1261 0.930 . S
C1270 C1268 1.384 . S
C1270 C1271 1.372 . S
C1271 C1270 1.372 . S
C1271 C1272 1.400 . S
C1271 C1276 1.490 . S
C1272 H1262 0.930 . S
C1272 C1271 1.400 . S
C1272 C1275 1.386 . S
H1273 C1289 0.930 . S
H1274 C1290 0.931 . S
C1275 H1263 0.929 . S
C1275 C1269 1.390 . S
C1275 C1272 1.386 . S
C1276 C1271 1.490 . S
C1276 C1278 1.395 . S
C1276 C1279 1.403 . S
H1277 C1283 0.930 . S
C1278 H1264 0.930 . S
C1278 C1276 1.395 . S
C1278 C1281 1.403 . S
C1279 C1276 1.403 . S
C1279 C1280 1.524 . S
C1279 C1283 1.400 . S
C1280 H1265 0.960 . S
C1280 H1266 0.960 . S
C1280 H1267 0.960 . S
C1280 C1279 1.524 . S
C1281 C1278 1.403 . S
C1281 C1282 1.392 . S
C1281 C1285 1.495 . S
C1282 C1281 1.392 . S
C1282 C1283 1.385 . S
C1282 C1284 1.478 . S
C1283 H1277 0.930 . S
C1283 C1279 1.400 . S
C1283 C1282 1.385 . S
C1284 C1282 1.478 . S
C1284 C1286 1.381 . S
C1284 C1290 1.383 . S
C1285 C1281 1.495 . S
C1285 H1291 0.959 . S
C1285 H1292 0.961 . S
C1285 H1293 0.960 . S
C1286 C1284 1.381 . S
C1286 C1287 1.394 . S
C1286 H1294 0.930 . S
C1287 C1286 1.394 . S
C1287 C1288 1.383 . S
C1287 H1295 0.929 . S
C1288 C1287 1.383 . S
C1288 C1289 1.377 . S
C1289 H1273 0.930 . S
C1289 C1288 1.377 . S
C1289 C1290 1.379 . S
C1290 H1274 0.931 . S
C1290 C1284 1.383 . S
C1290 C1289 1.379 . S
H1291 C1285 0.959 . S
H1292 C1285 0.961 . S
H1293 C1285 0.960 . S
H1294 C1286 0.930 . S
H1295 C1287 0.929 . S
H1296 C1304 0.929 . S
H1297 C1306 0.930 . S
H1298 C1308 0.930 . S
H1299 C1311 0.929 . S
H1300 C1314 0.930 . S
H1301 C1316 0.960 . S
H1302 C1316 0.960 . S
H1303 C1316 0.960 . S
C1304 H1296 0.929 . S
C1304 C1305 1.377 . S
C1304 C1306 1.384 . S
C1305 C1304 1.377 . S
C1305 C1311 1.390 . S
C1306 H1297 0.930 . S
C1306 C1304 1.384 . S
C1306 C1307 1.372 . S
C1307 C1306 1.372 . S
C1307 C1308 1.400 . S
C1307 C1312 1.490 . S
C1308 H1298 0.930 . S
C1308 C1307 1.400 . S
C1308 C1311 1.386 . S
H1309 C1325 0.930 . S
H1310 C1326 0.931 . S
C1311 H1299 0.929 . S
C1311 C1305 1.390 . S
C1311 C1308 1.386 . S
C1312 C1307 1.490 . S
C1312 C1314 1.395 . S
C1312 C1315 1.403 . S
H1313 C1319 0.930 . S
C1314 H1300 0.930 . S
C1314 C1312 1.395 . S
C1314 C1317 1.403 . S
C1315 C1312 1.403 . S
C1315 C1316 1.524 . S
C1315 C1319 1.400 . S
C1316 H1301 0.960 . S
C1316 H1302 0.960 . S
C1316 H1303 0.960 . S
C1316 C1315 1.524 . S
C1317 C1314 1.403 . S
C1317 C1318 1.392 . S
C1317 C1321 1.495 . S
C1318 C1317 1.392 . S
C1318 C1319 1.385 . S
C1318 C1320 1.478 . S
C1319 H1313 0.930 . S
C1319 C1315 1.400 . S
C1319 C1318 1.385 . S
C1320 C1318 1.478 . S
C1320 C1322 1.381 . S
C1320 C1326 1.383 . S
C1321 C1317 1.495 . S
C1321 H1327 0.959 . S
C1321 H1328 0.961 . S
C1321 H1329 0.960 . S
C1322 C1320 1.381 . S
C1322 C1323 1.394 . S
C1322 H1330 0.930 . S
C1323 C1322 1.394 . S
C1323 C1324 1.383 . S
C1323 H1331 0.929 . S
C1324 C1323 1.383 . S
C1324 C1325 1.377 . S
C1325 H1309 0.930 . S
C1325 C1324 1.377 . S
C1325 C1326 1.379 . S
C1326 H1310 0.931 . S
C1326 C1320 1.383 . S
C1326 C1325 1.379 . S
H1327 C1321 0.959 . S
H1328 C1321 0.961 . S
H1329 C1321 0.960 . S
H1330 C1322 0.930 . S
H1331 C1323 0.929 . S
H1332 C1340 0.929 . S
H1333 C1342 0.930 . S
H1334 C1344 0.930 . S
H1335 C1347 0.929 . S
H1336 C1350 0.930 . S
H1337 C1352 0.960 . S
H1338 C1352 0.960 . S
H1339 C1352 0.960 . S
C1340 H1332 0.929 . S
C1340 C1341 1.377 . S
C1340 C1342 1.384 . S
C1341 C1340 1.377 . S
C1341 C1347 1.390 . S
C1342 H1333 0.930 . S
C1342 C1340 1.384 . S
C1342 C1343 1.372 . S
C1343 C1342 1.372 . S
C1343 C1344 1.400 . S
C1343 C1348 1.490 . S
C1344 H1334 0.930 . S
C1344 C1343 1.400 . S
C1344 C1347 1.386 . S
H1345 C1361 0.930 . S
H1346 C1362 0.931 . S
C1347 H1335 0.929 . S
C1347 C1341 1.390 . S
C1347 C1344 1.386 . S
C1348 C1343 1.490 . S
C1348 C1350 1.395 . S
C1348 C1351 1.403 . S
H1349 C1355 0.930 . S
C1350 H1336 0.930 . S
C1350 C1348 1.395 . S
C1350 C1353 1.403 . S
C1351 C1348 1.403 . S
C1351 C1352 1.524 . S
C1351 C1355 1.400 . S
C1352 H1337 0.960 . S
C1352 H1338 0.960 . S
C1352 H1339 0.960 . S
C1352 C1351 1.524 . S
C1353 C1350 1.403 . S
C1353 C1354 1.392 . S
C1353 C1357 1.495 . S
C1354 C1353 1.392 . S
C1354 C1355 1.385 . S
C1354 C1356 1.478 . S
C1355 H1349 0.930 . S
C1355 C1351 1.400 . S
C1355 C1354 1.385 . S
C1356 C1354 1.478 . S
C1356 C1358 1.381 . S
C1356 C1362 1.383 . S
C1357 C1353 1.495 . S
C1357 H1363 0.959 . S
C1357 H1364 0.961 . S
C1357 H1365 0.960 . S
C1358 C1356 1.381 . S
C1358 C1359 1.394 . S
C1358 H1366 0.930 . S
C1359 C1358 1.394 . S
C1359 C1360 1.383 . S
C1359 H1367 0.929 . S
C1360 C1359 1.383 . S
C1360 C1361 1.377 . S
C1361 H1345 0.930 . S
C1361 C1360 1.377 . S
C1361 C1362 1.379 . S
C1362 H1346 0.931 . S
C1362 C1356 1.383 . S
C1362 C1361 1.379 . S
H1363 C1357 0.959 . S
H1364 C1357 0.961 . S
H1365 C1357 0.960 . S
H1366 C1358 0.930 . S
H1367 C1359 0.929 . S
H1368 C1376 0.929 . S
H1369 C1378 0.930 . S
H1370 C1380 0.930 . S
H1371 C1383 0.929 . S
H1372 C1386 0.930 . S
H1373 C1388 0.960 . S
H1374 C1388 0.960 . S
H1375 C1388 0.960 . S
C1376 H1368 0.929 . S
C1376 C1377 1.377 . S
C1376 C1378 1.384 . S
C1377 C1376 1.377 . S
C1377 C1383 1.390 . S
C1378 H1369 0.930 . S
C1378 C1376 1.384 . S
C1378 C1379 1.372 . S
C1379 C1378 1.372 . S
C1379 C1380 1.400 . S
C1379 C1384 1.490 . S
C1380 H1370 0.930 . S
C1380 C1379 1.400 . S
C1380 C1383 1.386 . S
H1381 C1397 0.930 . S
H1382 C1398 0.931 . S
C1383 H1371 0.929 . S
C1383 C1377 1.390 . S
C1383 C1380 1.386 . S
C1384 C1379 1.490 . S
C1384 C1386 1.395 . S
C1384 C1387 1.403 . S
H1385 C1391 0.930 . S
C1386 H1372 0.930 . S
C1386 C1384 1.395 . S
C1386 C1389 1.403 . S
C1387 C1384 1.403 . S
C1387 C1388 1.524 . S
C1387 C1391 1.400 . S
C1388 H1373 0.960 . S
C1388 H1374 0.960 . S
C1388 H1375 0.960 . S
C1388 C1387 1.524 . S
C1389 C1386 1.403 . S
C1389 C1390 1.392 . S
C1389 C1393 1.495 . S
C1390 C1389 1.392 . S
C1390 C1391 1.385 . S
C1390 C1392 1.478 . S
C1391 H1385 0.930 . S
C1391 C1387 1.400 . S
C1391 C1390 1.385 . S
C1392 C1390 1.478 . S
C1392 C1394 1.381 . S
C1392 C1398 1.383 . S
C1393 C1389 1.495 . S
C1393 H1399 0.959 . S
C1393 H1400 0.961 . S
C1393 H1401 0.960 . S
C1394 C1392 1.381 . S
C1394 C1395 1.394 . S
C1394 H1402 0.930 . S
C1395 C1394 1.394 . S
C1395 C1396 1.383 . S
C1395 H1403 0.929 . S
C1396 C1395 1.383 . S
C1396 C1397 1.377 . S
C1397 H1381 0.930 . S
C1397 C1396 1.377 . S
C1397 C1398 1.379 . S
C1398 H1382 0.931 . S
C1398 C1392 1.383 . S
C1398 C1397 1.379 . S
H1399 C1393 0.959 . S
H1400 C1393 0.961 . S
H1401 C1393 0.960 . S
H1402 C1394 0.930 . S
H1403 C1395 0.929 . S
H1404 C1412 0.929 . S
H1405 C1414 0.930 . S
H1406 C1416 0.930 . S
H1407 C1419 0.929 . S
H1408 C1422 0.930 . S
H1409 C1424 0.960 . S
H1410 C1424 0.960 . S
H1411 C1424 0.960 . S
C1412 H1404 0.929 . S
C1412 C1413 1.377 . S
C1412 C1414 1.384 . S
C1413 C1412 1.377 . S
C1413 C1419 1.390 . S
C1414 H1405 0.930 . S
C1414 C1412 1.384 . S
C1414 C1415 1.372 . S
C1415 C1414 1.372 . S
C1415 C1416 1.400 . S
C1415 C1420 1.490 . S
C1416 H1406 0.930 . S
C1416 C1415 1.400 . S
C1416 C1419 1.386 . S
H1417 C1433 0.930 . S
H1418 C1434 0.931 . S
C1419 H1407 0.929 . S
C1419 C1413 1.390 . S
C1419 C1416 1.386 . S
C1420 C1415 1.490 . S
C1420 C1422 1.395 1_545 S
C1420 C1423 1.403 . S
H1421 C1427 0.930 . S
C1422 H1408 0.930 . S
C1422 C1420 1.395 1_565 S
C1422 C1425 1.403 . S
C1423 C1420 1.403 . S
C1423 C1424 1.524 . S
C1423 C1427 1.400 . S
C1424 H1409 0.960 . S
C1424 H1410 0.960 . S
C1424 H1411 0.960 . S
C1424 C1423 1.524 . S
C1425 C1422 1.403 . S
C1425 C1426 1.392 . S
C1425 C1429 1.495 . S
C1426 C1425 1.392 . S
C1426 C1427 1.385 1_565 S
C1426 C1428 1.478 . S
C1427 H1421 0.930 . S
C1427 C1423 1.400 . S
C1427 C1426 1.385 1_545 S
C1428 C1426 1.478 . S
C1428 C1430 1.381 . S
C1428 C1434 1.383 . S
C1429 C1425 1.495 . S
C1429 H1435 0.959 . S
C1429 H1436 0.961 . S
C1429 H1437 0.960 . S
C1430 C1428 1.381 . S
C1430 C1431 1.394 . S
C1430 H1438 0.930 . S
C1431 C1430 1.394 . S
C1431 C1432 1.383 . S
C1431 H1439 0.929 . S
C1432 C1431 1.383 . S
C1432 C1433 1.377 . S
C1433 H1417 0.930 . S
C1433 C1432 1.377 . S
C1433 C1434 1.379 . S
C1434 H1418 0.931 . S
C1434 C1428 1.383 . S
C1434 C1433 1.379 . S
H1435 C1429 0.959 . S
H1436 C1429 0.961 . S
H1437 C1429 0.960 . S
H1438 C1430 0.930 . S
H1439 C1431 0.929 . S
H1440 C1448 0.929 . S
H1441 C1450 0.930 . S
H1442 C1452 0.930 . S
H1443 C1455 0.929 . S
H1444 C1458 0.930 . S
H1445 C1460 0.960 . S
H1446 C1460 0.960 . S
H1447 C1460 0.960 . S
C1448 H1440 0.929 . S
C1448 C1449 1.377 . S
C1448 C1450 1.384 . S
C1449 C1448 1.377 . S
C1449 C1455 1.390 . S
C1450 H1441 0.930 . S
C1450 C1448 1.384 . S
C1450 C1451 1.372 . S
C1451 C1450 1.372 . S
C1451 C1452 1.400 . S
C1451 C1456 1.490 . S
C1452 H1442 0.930 . S
C1452 C1451 1.400 . S
C1452 C1455 1.386 . S
H1453 C1469 0.930 . S
H1454 C1470 0.931 . S
C1455 H1443 0.929 . S
C1455 C1449 1.390 . S
C1455 C1452 1.386 . S
C1456 C1451 1.490 . S
C1456 C1458 1.395 . S
C1456 C1459 1.403 . S
H1457 C1463 0.930 . S
C1458 H1444 0.930 . S
C1458 C1456 1.395 . S
C1458 C1461 1.403 . S
C1459 C1456 1.403 . S
C1459 C1460 1.524 . S
C1459 C1463 1.400 . S
C1460 H1445 0.960 . S
C1460 H1446 0.960 . S
C1460 H1447 0.960 . S
C1460 C1459 1.524 . S
C1461 C1458 1.403 . S
C1461 C1462 1.392 . S
C1461 C1465 1.495 . S
C1462 C1461 1.392 . S
C1462 C1463 1.385 . S
C1462 C1464 1.478 . S
C1463 H1457 0.930 . S
C1463 C1459 1.400 . S
C1463 C1462 1.385 . S
C1464 C1462 1.478 . S
C1464 C1466 1.381 . S
C1464 C1470 1.383 . S
C1465 C1461 1.495 . S
C1465 H1471 0.959 . S
C1465 H1472 0.961 . S
C1465 H1473 0.960 . S
C1466 C1464 1.381 . S
C1466 C1467 1.394 . S
C1466 H1474 0.930 . S
C1467 C1466 1.394 . S
C1467 C1468 1.383 . S
C1467 H1475 0.929 . S
C1468 C1467 1.383 . S
C1468 C1469 1.377 . S
C1469 H1453 0.930 . S
C1469 C1468 1.377 . S
C1469 C1470 1.379 . S
C1470 H1454 0.931 . S
C1470 C1464 1.383 . S
C1470 C1469 1.379 . S
H1471 C1465 0.959 . S
H1472 C1465 0.961 . S
H1473 C1465 0.960 . S
H1474 C1466 0.930 . S
H1475 C1467 0.929 . S
H1476 C1484 0.929 . S
H1477 C1486 0.930 . S
H1478 C1488 0.930 . S
H1479 C1491 0.929 . S
H1480 C1494 0.930 . S
H1481 C1496 0.960 . S
H1482 C1496 0.960 . S
H1483 C1496 0.960 . S
C1484 H1476 0.929 . S
C1484 C1485 1.377 . S
C1484 C1486 1.384 . S
C1485 C1484 1.377 . S
C1485 C1491 1.390 . S
C1486 H1477 0.930 . S
C1486 C1484 1.384 . S
C1486 C1487 1.372 . S
C1487 C1486 1.372 . S
C1487 C1488 1.400 . S
C1487 C1492 1.490 . S
C1488 H1478 0.930 . S
C1488 C1487 1.400 . S
C1488 C1491 1.386 . S
H1489 C1505 0.930 . S
H1490 C1506 0.931 . S
C1491 H1479 0.929 . S
C1491 C1485 1.390 . S
C1491 C1488 1.386 . S
C1492 C1487 1.490 . S
C1492 C1494 1.395 1_455 S
C1492 C1495 1.403 . S
H1493 C1499 0.930 . S
C1494 H1480 0.930 . S
C1494 C1492 1.395 1_655 S
C1494 C1497 1.403 . S
C1495 C1492 1.403 . S
C1495 C1496 1.524 . S
C1495 C1499 1.400 . S
C1496 H1481 0.960 . S
C1496 H1482 0.960 . S
C1496 H1483 0.960 . S
C1496 C1495 1.524 . S
C1497 C1494 1.403 . S
C1497 C1498 1.392 . S
C1497 C1501 1.495 . S
C1498 C1497 1.392 . S
C1498 C1499 1.385 1_655 S
C1498 C1500 1.478 . S
C1499 H1493 0.930 . S
C1499 C1495 1.400 . S
C1499 C1498 1.385 1_455 S
C1500 C1498 1.478 . S
C1500 C1502 1.381 . S
C1500 C1506 1.383 . S
C1501 C1497 1.495 . S
C1501 H1507 0.959 . S
C1501 H1508 0.961 . S
C1501 H1509 0.960 . S
C1502 C1500 1.381 . S
C1502 C1503 1.394 . S
C1502 H1510 0.930 . S
C1503 C1502 1.394 . S
C1503 C1504 1.383 . S
C1503 H1511 0.929 . S
C1504 C1503 1.383 . S
C1504 C1505 1.377 . S
C1505 H1489 0.930 . S
C1505 C1504 1.377 . S
C1505 C1506 1.379 . S
C1506 H1490 0.931 . S
C1506 C1500 1.383 . S
C1506 C1505 1.379 . S
H1507 C1501 0.959 . S
H1508 C1501 0.961 . S
H1509 C1501 0.960 . S
H1510 C1502 0.930 . S
H1511 C1503 0.929 . S
H1512 C1520 0.929 . S
H1513 C1522 0.930 . S
H1514 C1524 0.930 . S
H1515 C1527 0.929 . S
H1516 C1530 0.930 . S
H1517 C1532 0.960 . S
H1518 C1532 0.960 . S
H1519 C1532 0.960 . S
C1520 H1512 0.929 . S
C1520 C1521 1.377 . S
C1520 C1522 1.384 . S
C1521 C1520 1.377 . S
C1521 C1527 1.390 . S
C1522 H1513 0.930 . S
C1522 C1520 1.384 . S
C1522 C1523 1.372 . S
C1523 C1522 1.372 . S
C1523 C1524 1.400 . S
C1523 C1528 1.490 . S
C1524 H1514 0.930 . S
C1524 C1523 1.400 . S
C1524 C1527 1.386 . S
H1525 C1541 0.930 . S
H1526 C1542 0.931 . S
C1527 H1515 0.929 . S
C1527 C1521 1.390 . S
C1527 C1524 1.386 . S
C1528 C1523 1.490 . S
C1528 C1530 1.395 . S
C1528 C1531 1.403 . S
H1529 C1535 0.930 . S
C1530 H1516 0.930 . S
C1530 C1528 1.395 . S
C1530 C1533 1.403 . S
C1531 C1528 1.403 . S
C1531 C1532 1.524 . S
C1531 C1535 1.400 . S
C1532 H1517 0.960 . S
C1532 H1518 0.960 . S
C1532 H1519 0.960 . S
C1532 C1531 1.524 . S
C1533 C1530 1.403 . S
C1533 C1534 1.392 . S
C1533 C1537 1.495 . S
C1534 C1533 1.392 . S
C1534 C1535 1.385 . S
C1534 C1536 1.478 . S
C1535 H1529 0.930 . S
C1535 C1531 1.400 . S
C1535 C1534 1.385 . S
C1536 C1534 1.478 . S
C1536 C1538 1.381 . S
C1536 C1542 1.383 . S
C1537 C1533 1.495 . S
C1537 H1543 0.959 . S
C1537 H1544 0.961 . S
C1537 H1545 0.960 . S
C1538 C1536 1.381 . S
C1538 C1539 1.394 . S
C1538 H1546 0.930 . S
C1539 C1538 1.394 . S
C1539 C1540 1.383 . S
C1539 H1547 0.929 . S
C1540 C1539 1.383 . S
C1540 C1541 1.377 . S
C1541 H1525 0.930 . S
C1541 C1540 1.377 . S
C1541 C1542 1.379 . S
C1542 H1526 0.931 . S
C1542 C1536 1.383 . S
C1542 C1541 1.379 . S
H1543 C1537 0.959 . S
H1544 C1537 0.961 . S
H1545 C1537 0.960 . S
H1546 C1538 0.930 . S
H1547 C1539 0.929 . S
H1548 C1556 0.929 . S
H1549 C1558 0.930 . S
H1550 C1560 0.930 . S
H1551 C1563 0.929 . S
H1552 C1566 0.930 . S
H1553 C1568 0.960 . S
H1554 C1568 0.960 . S
H1555 C1568 0.960 . S
C1556 H1548 0.929 . S
C1556 C1557 1.377 . S
C1556 C1558 1.384 . S
C1557 C1556 1.377 . S
C1557 C1563 1.390 . S
C1558 H1549 0.930 . S
C1558 C1556 1.384 . S
C1558 C1559 1.372 . S
C1559 C1558 1.372 . S
C1559 C1560 1.400 . S
C1559 C1564 1.490 . S
C1560 H1550 0.930 . S
C1560 C1559 1.400 . S
C1560 C1563 1.386 . S
H1561 C1577 0.930 . S
H1562 C1578 0.931 . S
C1563 H1551 0.929 . S
C1563 C1557 1.390 . S
C1563 C1560 1.386 . S
C1564 C1559 1.490 . S
C1564 C1566 1.395 . S
C1564 C1567 1.403 . S
H1565 C1571 0.930 . S
C1566 H1552 0.930 . S
C1566 C1564 1.395 . S
C1566 C1569 1.403 . S
C1567 C1564 1.403 . S
C1567 C1568 1.524 . S
C1567 C1571 1.400 . S
C1568 H1553 0.960 . S
C1568 H1554 0.960 . S
C1568 H1555 0.960 . S
C1568 C1567 1.524 . S
C1569 C1566 1.403 . S
C1569 C1570 1.392 . S
C1569 C1573 1.495 . S
C1570 C1569 1.392 . S
C1570 C1571 1.385 . S
C1570 C1572 1.478 . S
C1571 H1565 0.930 . S
C1571 C1567 1.400 . S
C1571 C1570 1.385 . S
C1572 C1570 1.478 . S
C1572 C1574 1.381 . S
C1572 C1578 1.383 . S
C1573 C1569 1.495 . S
C1573 H1579 0.959 . S
C1573 H1580 0.961 . S
C1573 H1581 0.960 . S
C1574 C1572 1.381 . S
C1574 C1575 1.394 . S
C1574 H1582 0.930 . S
C1575 C1574 1.394 . S
C1575 C1576 1.383 . S
C1575 H1583 0.929 . S
C1576 C1575 1.383 . S
C1576 C1577 1.377 . S
C1577 H1561 0.930 . S
C1577 C1576 1.377 . S
C1577 C1578 1.379 . S
C1578 H1562 0.931 . S
C1578 C1572 1.383 . S
C1578 C1577 1.379 . S
H1579 C1573 0.959 . S
H1580 C1573 0.961 . S
H1581 C1573 0.960 . S
H1582 C1574 0.930 . S
H1583 C1575 0.929 . S
H1584 C1592 0.929 . S
H1585 C1594 0.930 . S
H1586 C1596 0.930 . S
H1587 C1599 0.929 . S
H1588 C1602 0.930 . S
H1589 C1604 0.960 . S
H1590 C1604 0.960 . S
H1591 C1604 0.960 . S
C1592 H1584 0.929 . S
C1592 C1593 1.377 . S
C1592 C1594 1.384 . S
C1593 C1592 1.377 . S
C1593 C1599 1.390 . S
C1594 H1585 0.930 . S
C1594 C1592 1.384 . S
C1594 C1595 1.372 . S
C1595 C1594 1.372 . S
C1595 C1596 1.400 . S
C1595 C1600 1.490 . S
C1596 H1586 0.930 . S
C1596 C1595 1.400 . S
C1596 C1599 1.386 . S
H1597 C1613 0.930 . S
H1598 C1614 0.931 . S
C1599 H1587 0.929 . S
C1599 C1593 1.390 . S
C1599 C1596 1.386 . S
C1600 C1595 1.490 . S
C1600 C1602 1.395 . S
C1600 C1603 1.403 . S
H1601 C1607 0.930 . S
C1602 H1588 0.930 . S
C1602 C1600 1.395 . S
C1602 C1605 1.403 . S
C1603 C1600 1.403 . S
C1603 C1604 1.524 . S
C1603 C1607 1.400 . S
C1604 H1589 0.960 . S
C1604 H1590 0.960 . S
C1604 H1591 0.960 . S
C1604 C1603 1.524 . S
C1605 C1602 1.403 . S
C1605 C1606 1.392 . S
C1605 C1609 1.495 . S
C1606 C1605 1.392 . S
C1606 C1607 1.385 . S
C1606 C1608 1.478 . S
C1607 H1601 0.930 . S
C1607 C1603 1.400 . S
C1607 C1606 1.385 . S
C1608 C1606 1.478 . S
C1608 C1610 1.381 . S
C1608 C1614 1.383 1_545 S
C1609 C1605 1.495 . S
C1609 H1615 0.959 . S
C1609 H1616 0.961 . S
C1609 H1617 0.960 . S
C1610 C1608 1.381 . S
C1610 C1611 1.394 . S
C1610 H1618 0.930 . S
C1611 C1610 1.394 . S
C1611 C1612 1.383 1_545 S
C1611 H1619 0.929 . S
C1612 C1611 1.383 1_565 S
C1612 C1613 1.377 . S
C1613 H1597 0.930 . S
C1613 C1612 1.377 . S
C1613 C1614 1.379 . S
C1614 H1598 0.931 . S
C1614 C1608 1.383 1_565 S
C1614 C1613 1.379 . S
H1615 C1609 0.959 . S
H1616 C1609 0.961 . S
H1617 C1609 0.960 . S
H1618 C1610 0.930 . S
H1619 C1611 0.929 . S
H1620 C1628 0.929 . S
H1621 C1630 0.930 . S
H1622 C1632 0.930 . S
H1623 C1635 0.929 . S
H1624 C1638 0.930 1_655 S
H1625 C1640 0.960 . S
H1626 C1640 0.960 . S
H1627 C1640 0.960 . S
C1628 H1620 0.929 . S
C1628 C1629 1.377 . S
C1628 C1630 1.384 . S
C1629 C1628 1.377 . S
C1629 C1635 1.390 1_655 S
C1630 H1621 0.930 . S
C1630 C1628 1.384 . S
C1630 C1631 1.372 1_655 S
C1631 C1630 1.372 1_455 S
C1631 C1632 1.400 . S
C1631 C1636 1.490 . S
C1632 H1622 0.930 . S
C1632 C1631 1.400 . S
C1632 C1635 1.386 . S
H1633 C1649 0.930 . S
H1634 C1650 0.931 . S
C1635 H1623 0.929 . S
C1635 C1629 1.390 1_455 S
C1635 C1632 1.386 . S
C1636 C1631 1.490 . S
C1636 C1638 1.395 . S
C1636 C1639 1.403 . S
H1637 C1643 0.930 . S
C1638 H1624 0.930 1_455 S
C1638 C1636 1.395 . S
C1638 C1641 1.403 . S
C1639 C1636 1.403 . S
C1639 C1640 1.524 . S
C1639 C1643 1.400 . S
C1640 H1625 0.960 . S
C1640 H1626 0.960 . S
C1640 H1627 0.960 . S
C1640 C1639 1.524 . S
C1641 C1638 1.403 . S
C1641 C1642 1.392 . S
C1641 C1645 1.495 . S
C1642 C1641 1.392 . S
C1642 C1643 1.385 . S
C1642 C1644 1.478 . S
C1643 H1637 0.930 . S
C1643 C1639 1.400 . S
C1643 C1642 1.385 . S
C1644 C1642 1.478 . S
C1644 C1646 1.381 . S
C1644 C1650 1.383 . S
C1645 C1641 1.495 . S
C1645 H1651 0.959 1_455 S
C1645 H1652 0.961 . S
C1645 H1653 0.939 1_455 S
C1646 C1644 1.381 . S
C1646 C1647 1.394 . S
C1646 H1654 0.930 . S
C1647 C1646 1.394 . S
C1647 C1648 1.383 . S
C1647 H1655 0.929 . S
C1648 C1647 1.383 . S
C1648 C1649 1.377 . S
C1649 H1633 0.930 . S
C1649 C1648 1.377 . S
C1649 C1650 1.379 . S
C1650 H1634 0.931 . S
C1650 C1644 1.383 . S
C1650 C1649 1.379 . S
H1651 C1645 0.959 1_655 S
H1652 C1645 0.961 . S
H1653 C1645 0.939 1_655 S
H1654 C1646 0.930 . S
H1655 C1647 0.929 . S
H1656 C1664 0.929 . S
H1657 C1666 0.930 . S
H1658 C1668 0.930 . S
H1659 C1671 0.929 . S
H1660 C1674 0.930 . S
H1661 C1676 0.960 . S
H1662 C1676 0.960 . S
H1663 C1676 0.960 . S
C1664 H1656 0.929 . S
C1664 C1665 1.377 . S
C1664 C1666 1.384 . S
C1665 C1664 1.377 . S
C1665 C1671 1.390 . S
C1666 H1657 0.930 . S
C1666 C1664 1.384 . S
C1666 C1667 1.372 . S
C1667 C1666 1.372 . S
C1667 C1668 1.400 . S
C1667 C1672 1.490 . S
C1668 H1658 0.930 . S
C1668 C1667 1.400 . S
C1668 C1671 1.386 . S
H1669 C1685 0.930 . S
H1670 C1686 0.931 . S
C1671 H1659 0.929 . S
C1671 C1665 1.390 . S
C1671 C1668 1.386 . S
C1672 C1667 1.490 . S
C1672 C1674 1.395 . S
C1672 C1675 1.403 . S
H1673 C1679 0.930 . S
C1674 H1660 0.930 . S
C1674 C1672 1.395 . S
C1674 C1677 1.403 . S
C1675 C1672 1.403 . S
C1675 C1676 1.524 . S
C1675 C1679 1.400 . S
C1676 H1661 0.960 . S
C1676 H1662 0.960 . S
C1676 H1663 0.960 . S
C1676 C1675 1.524 . S
C1677 C1674 1.403 . S
C1677 C1678 1.392 . S
C1677 C1681 1.495 . S
C1678 C1677 1.392 . S
C1678 C1679 1.385 . S
C1678 C1680 1.478 . S
C1679 H1673 0.930 . S
C1679 C1675 1.400 . S
C1679 C1678 1.385 . S
C1680 C1678 1.478 . S
C1680 C1682 1.381 . S
C1680 C1686 1.383 . S
C1681 C1677 1.495 . S
C1681 H1687 0.959 . S
C1681 H1688 0.961 . S
C1681 H1689 0.960 . S
C1682 C1680 1.381 . S
C1682 C1683 1.394 . S
C1682 H1690 0.930 . S
C1683 C1682 1.394 . S
C1683 C1684 1.383 . S
C1683 H1691 0.929 . S
C1684 C1683 1.383 . S
C1684 C1685 1.377 . S
C1685 H1669 0.930 . S
C1685 C1684 1.377 . S
C1685 C1686 1.379 . S
C1686 H1670 0.931 . S
C1686 C1680 1.383 . S
C1686 C1685 1.379 . S
H1687 C1681 0.959 . S
H1688 C1681 0.961 . S
H1689 C1681 0.960 . S
H1690 C1682 0.930 . S
H1691 C1683 0.929 . S
H1692 C1700 0.929 . S
H1693 C1702 0.930 . S
H1694 C1704 0.930 . S
H1695 C1707 0.929 . S
H1696 C1710 0.930 . S
H1697 C1712 0.960 . S
H1698 C1712 0.960 . S
H1699 C1712 0.959 . S
C1700 H1692 0.929 . S
C1700 C1701 1.377 . S
C1700 C1702 1.384 1_565 S
C1701 C1700 1.377 . S
C1701 C1707 1.390 1_565 S
C1702 H1693 0.930 . S
C1702 C1700 1.384 1_545 S
C1702 C1703 1.372 . S
C1703 C1702 1.372 . S
C1703 C1704 1.400 . S
C1703 C1708 1.490 . S
C1704 H1694 0.930 . S
C1704 C1703 1.400 . S
C1704 C1707 1.386 . S
H1705 C1721 0.930 . S
H1706 C1722 0.931 . S
C1707 H1695 0.929 . S
C1707 C1701 1.390 1_545 S
C1707 C1704 1.386 . S
C1708 C1703 1.490 . S
C1708 C1710 1.395 . S
C1708 C1711 1.403 . S
H1709 C1715 0.930 . S
C1710 H1696 0.930 . S
C1710 C1708 1.395 . S
C1710 C1713 1.403 . S
C1711 C1708 1.403 . S
C1711 C1712 1.524 1_545 S
C1711 C1715 1.400 . S
C1712 H1697 0.960 . S
C1712 H1698 0.960 . S
C1712 H1699 0.959 . S
C1712 C1711 1.524 1_565 S
C1713 C1710 1.403 . S
C1713 C1714 1.392 . S
C1713 C1717 1.495 . S
C1714 C1713 1.392 . S
C1714 C1715 1.385 . S
C1714 C1716 1.478 . S
C1715 H1709 0.930 . S
C1715 C1711 1.400 . S
C1715 C1714 1.385 . S
C1716 C1714 1.478 . S
C1716 C1718 1.381 . S
C1716 C1722 1.383 . S
C1717 C1713 1.495 . S
C1717 H1723 0.959 . S
C1717 H1724 0.961 . S
C1717 H1725 0.960 . S
C1718 C1716 1.381 . S
C1718 C1719 1.394 . S
C1718 H1726 0.930 . S
C1719 C1718 1.394 . S
C1719 C1720 1.383 . S
C1719 H1727 0.929 . S
C1720 C1719 1.383 . S
C1720 C1721 1.377 . S
C1721 H1705 0.930 . S
C1721 C1720 1.377 . S
C1721 C1722 1.379 . S
C1722 H1706 0.931 . S
C1722 C1716 1.383 . S
C1722 C1721 1.379 . S
H1723 C1717 0.959 . S
H1724 C1717 0.961 . S
H1725 C1717 0.960 . S
H1726 C1718 0.930 . S
H1727 C1719 0.929 . S
H1728 C1736 0.929 . S
H1729 C1738 0.930 . S
H1730 C1740 0.930 . S
H1731 C1743 0.929 . S
H1732 C1746 0.879 1_655 S
H1733 C1748 0.960 . S
H1734 C1748 0.960 . S
H1735 C1748 0.960 . S
C1736 H1728 0.929 . S
C1736 C1737 1.377 1_455 S
C1736 C1738 1.384 . S
C1737 C1736 1.377 1_655 S
C1737 C1743 1.390 . S
C1738 H1729 0.930 . S
C1738 C1736 1.384 . S
C1738 C1739 1.372 . S
C1739 C1738 1.372 . S
C1739 C1740 1.400 . S
C1739 C1744 1.490 . S
C1740 H1730 0.930 . S
C1740 C1739 1.400 . S
C1740 C1743 1.386 1_455 S
H1741 C1757 0.930 . S
H1742 C1758 0.931 . S
C1743 H1731 0.929 . S
C1743 C1737 1.390 . S
C1743 C1740 1.386 1_655 S
C1744 C1739 1.490 . S
C1744 C1746 1.395 . S
C1744 C1747 1.403 . S
H1745 C1751 0.930 . S
C1746 H1732 0.879 1_455 S
C1746 C1744 1.395 . S
C1746 C1749 1.403 . S
C1747 C1744 1.403 . S
C1747 C1748 1.524 . S
C1747 C1751 1.400 . S
C1748 H1733 0.960 . S
C1748 H1734 0.960 . S
C1748 H1735 0.960 . S
C1748 C1747 1.524 . S
C1749 C1746 1.403 . S
C1749 C1750 1.392 . S
C1749 C1753 1.495 . S
C1750 C1749 1.392 . S
C1750 C1751 1.385 . S
C1750 C1752 1.478 . S
C1751 H1745 0.930 . S
C1751 C1747 1.400 . S
C1751 C1750 1.385 . S
C1752 C1750 1.478 . S
C1752 C1754 1.381 . S
C1752 C1758 1.383 . S
C1753 C1749 1.495 . S
C1753 H1759 0.959 1_455 S
C1753 H1760 0.961 . S
C1753 H1761 0.960 . S
C1754 C1752 1.381 . S
C1754 C1755 1.394 . S
C1754 H1762 0.930 . S
C1755 C1754 1.394 . S
C1755 C1756 1.383 . S
C1755 H1763 0.929 . S
C1756 C1755 1.383 . S
C1756 C1757 1.377 . S
C1757 H1741 0.930 . S
C1757 C1756 1.377 . S
C1757 C1758 1.379 . S
C1758 H1742 0.931 . S
C1758 C1752 1.383 . S
C1758 C1757 1.379 . S
H1759 C1753 0.959 1_655 S
H1760 C1753 0.961 . S
H1761 C1753 0.960 . S
H1762 C1754 0.930 . S
H1763 C1755 0.929 . S
H1764 C1772 0.929 . S
H1765 C1774 0.930 . S
H1766 C1776 0.930 . S
H1767 C1779 0.929 . S
H1768 C1782 0.930 . S
H1769 C1784 0.960 . S
H1770 C1784 0.960 . S
H1771 C1784 0.960 . S
C1772 H1764 0.929 . S
C1772 C1773 1.377 . S
C1772 C1774 1.384 . S
C1773 C1772 1.377 . S
C1773 C1779 1.390 . S
C1774 H1765 0.930 . S
C1774 C1772 1.384 . S
C1774 C1775 1.372 . S
C1775 C1774 1.372 . S
C1775 C1776 1.400 . S
C1775 C1780 1.490 . S
C1776 H1766 0.930 . S
C1776 C1775 1.400 . S
C1776 C1779 1.386 . S
H1777 C1793 0.930 . S
H1778 C1794 0.931 . S
C1779 H1767 0.929 . S
C1779 C1773 1.390 . S
C1779 C1776 1.386 . S
C1780 C1775 1.490 . S
C1780 C1782 1.395 . S
C1780 C1783 1.403 . S
H1781 C1787 0.930 . S
C1782 H1768 0.930 . S
C1782 C1780 1.395 . S
C1782 C1785 1.403 1_554 S
C1783 C1780 1.403 . S
C1783 C1784 1.524 . S
C1783 C1787 1.400 1_554 S
C1784 H1769 0.960 . S
C1784 H1770 0.960 . S
C1784 H1771 0.960 . S
C1784 C1783 1.524 . S
C1785 C1782 1.403 1_556 S
C1785 C1786 1.392 . S
C1785 C1789 1.495 . S
C1786 C1785 1.392 . S
C1786 C1787 1.385 . S
C1786 C1788 1.478 . S
C1787 H1781 0.930 . S
C1787 C1783 1.400 1_556 S
C1787 C1786 1.385 . S
C1788 C1786 1.478 . S
C1788 C1790 1.381 . S
C1788 C1794 1.383 . S
C1789 C1785 1.495 . S
C1789 H1795 0.959 . S
C1789 H1796 0.961 . S
C1789 H1797 0.960 . S
C1790 C1788 1.381 . S
C1790 C1791 1.394 . S
C1790 H1798 0.930 . S
C1791 C1790 1.394 . S
C1791 C1792 1.383 . S
C1791 H1799 0.929 . S
C1792 C1791 1.383 . S
C1792 C1793 1.377 . S
C1793 H1777 0.930 . S
C1793 C1792 1.377 . S
C1793 C1794 1.379 . S
C1794 H1778 0.931 . S
C1794 C1788 1.383 . S
C1794 C1793 1.379 . S
H1795 C1789 0.959 . S
H1796 C1789 0.961 . S
H1797 C1789 0.960 . S
H1798 C1790 0.930 . S
H1799 C1791 0.929 . S
H1800 C1808 0.929 . S
H1801 C1810 0.930 . S
H1802 C1812 0.930 . S
H1803 C1815 0.929 . S
H1804 C1818 0.930 . S
H1805 C1820 0.960 . S
H1806 C1820 0.960 . S
H1807 C1820 0.960 . S
C1808 H1800 0.929 . S
C1808 C1809 1.377 . S
C1808 C1810 1.384 . S
C1809 C1808 1.377 . S
C1809 C1815 1.390 . S
C1810 H1801 0.930 . S
C1810 C1808 1.384 . S
C1810 C1811 1.372 . S
C1811 C1810 1.372 . S
C1811 C1812 1.400 . S
C1811 C1816 1.490 . S
C1812 H1802 0.930 . S
C1812 C1811 1.400 . S
C1812 C1815 1.386 . S
H1813 C1829 0.930 . S
H1814 C1830 0.931 . S
C1815 H1803 0.929 . S
C1815 C1809 1.390 . S
C1815 C1812 1.386 . S
C1816 C1811 1.490 . S
C1816 C1818 1.395 . S
C1816 C1819 1.403 . S
H1817 C1823 0.930 . S
C1818 H1804 0.930 . S
C1818 C1816 1.395 . S
C1818 C1821 1.403 1_556 S
C1819 C1816 1.403 . S
C1819 C1820 1.524 . S
C1819 C1823 1.400 1_556 S
C1820 H1805 0.960 . S
C1820 H1806 0.960 . S
C1820 H1807 0.960 . S
C1820 C1819 1.524 . S
C1821 C1818 1.403 1_554 S
C1821 C1822 1.392 . S
C1821 C1825 1.495 . S
C1822 C1821 1.392 . S
C1822 C1823 1.385 . S
C1822 C1824 1.478 . S
C1823 H1817 0.930 . S
C1823 C1819 1.400 1_554 S
C1823 C1822 1.385 . S
C1824 C1822 1.478 . S
C1824 C1826 1.381 . S
C1824 C1830 1.383 . S
C1825 C1821 1.495 . S
C1825 H1831 0.959 . S
C1825 H1832 0.961 . S
C1825 H1833 0.960 . S
C1826 C1824 1.381 . S
C1826 C1827 1.394 . S
C1826 H1834 0.930 . S
C1827 C1826 1.394 . S
C1827 C1828 1.383 . S
C1827 H1835 0.929 . S
C1828 C1827 1.383 . S
C1828 C1829 1.377 . S
C1829 H1813 0.930 . S
C1829 C1828 1.377 . S
C1829 C1830 1.379 . S
C1830 H1814 0.931 . S
C1830 C1824 1.383 . S
C1830 C1829 1.379 . S
H1831 C1825 0.959 . S
H1832 C1825 0.961 . S
H1833 C1825 0.960 . S
H1834 C1826 0.930 . S
H1835 C1827 0.929 . S
H1836 C1844 0.951 . S
H1837 C1846 0.930 1_565 S
H1838 C1848 0.930 . S
H1839 C1851 0.929 . S
H1840 C1854 0.930 . S
H1841 C1856 0.960 . S
H1842 C1856 0.960 . S
H1843 C1856 0.960 . S
C1844 H1836 0.951 . S
C1844 C1845 1.377 . S
C1844 C1846 1.384 . S
C1845 C1844 1.377 . S
C1845 C1851 1.390 . S
C1846 H1837 0.930 1_545 S
C1846 C1844 1.384 . S
C1846 C1847 1.372 . S
C1847 C1846 1.372 . S
C1847 C1848 1.400 . S
C1847 C1852 1.490 . S
C1848 H1838 0.930 . S
C1848 C1847 1.400 . S
C1848 C1851 1.386 . S
H1849 C1865 0.930 . S
H1850 C1866 0.931 . S
C1851 H1839 0.929 . S
C1851 C1845 1.390 . S
C1851 C1848 1.386 . S
C1852 C1847 1.490 . S
C1852 C1854 1.395 . S
C1852 C1855 1.403 . S
H1853 C1859 0.930 . S
C1854 H1840 0.930 . S
C1854 C1852 1.395 . S
C1854 C1857 1.403 1_556 S
C1855 C1852 1.403 . S
C1855 C1856 1.524 . S
C1855 C1859 1.400 1_556 S
C1856 H1841 0.960 . S
C1856 H1842 0.960 . S
C1856 H1843 0.960 . S
C1856 C1855 1.524 . S
C1857 C1854 1.403 1_554 S
C1857 C1858 1.392 . S
C1857 C1861 1.495 . S
C1858 C1857 1.392 . S
C1858 C1859 1.385 . S
C1858 C1860 1.478 . S
C1859 H1853 0.930 . S
C1859 C1855 1.400 1_554 S
C1859 C1858 1.385 . S
C1860 C1858 1.478 . S
C1860 C1862 1.381 . S
C1860 C1866 1.383 . S
C1861 C1857 1.495 . S
C1861 H1867 0.959 1_545 S
C1861 H1868 0.961 . S
C1861 H1869 0.960 1_545 S
C1862 C1860 1.381 . S
C1862 C1863 1.394 . S
C1862 H1870 0.930 1_545 S
C1863 C1862 1.394 . S
C1863 C1864 1.383 . S
C1863 H1871 0.929 1_545 S
C1864 C1863 1.383 . S
C1864 C1865 1.377 . S
C1865 H1849 0.930 . S
C1865 C1864 1.377 . S
C1865 C1866 1.379 . S
C1866 H1850 0.931 . S
C1866 C1860 1.383 . S
C1866 C1865 1.379 . S
H1867 C1861 0.959 1_565 S
H1868 C1861 0.961 . S
H1869 C1861 0.960 1_565 S
H1870 C1862 0.930 1_565 S
H1871 C1863 0.929 1_565 S
H1872 C1880 0.929 . S
H1873 C1882 0.930 . S
H1874 C1884 0.930 1_655 S
H1875 C1887 0.929 1_655 S
H1876 C1890 0.930 . S
H1877 C1892 0.960 . S
H1878 C1892 0.960 . S
H1879 C1892 0.959 1_655 S
C1880 H1872 0.929 . S
C1880 C1881 1.377 . S
C1880 C1882 1.384 . S
C1881 C1880 1.377 . S
C1881 C1887 1.390 . S
C1882 H1873 0.930 . S
C1882 C1880 1.384 . S
C1882 C1883 1.372 . S
C1883 C1882 1.372 . S
C1883 C1884 1.400 . S
C1883 C1888 1.490 . S
C1884 H1874 0.930 1_455 S
C1884 C1883 1.400 . S
C1884 C1887 1.386 . S
H1885 C1901 0.930 . S
H1886 C1902 0.931 . S
C1887 H1875 0.929 1_455 S
C1887 C1881 1.390 . S
C1887 C1884 1.386 . S
C1888 C1883 1.490 . S
C1888 C1890 1.395 . S
C1888 C1891 1.403 . S
H1889 C1895 0.930 . S
C1890 H1876 0.930 . S
C1890 C1888 1.395 . S
C1890 C1893 1.403 1_556 S
C1891 C1888 1.403 . S
C1891 C1892 1.524 . S
C1891 C1895 1.400 1_556 S
C1892 H1877 0.960 . S
C1892 H1878 0.960 . S
C1892 H1879 0.959 1_455 S
C1892 C1891 1.524 . S
C1893 C1890 1.403 1_554 S
C1893 C1894 1.392 . S
C1893 C1897 1.495 . S
C1894 C1893 1.392 . S
C1894 C1895 1.385 . S
C1894 C1896 1.478 . S
C1895 H1889 0.930 . S
C1895 C1891 1.400 1_554 S
C1895 C1894 1.385 . S
C1896 C1894 1.478 . S
C1896 C1898 1.381 . S
C1896 C1902 1.383 . S
C1897 C1893 1.495 . S
C1897 H1903 0.959 . S
C1897 H1904 0.961 . S
C1897 H1905 0.960 . S
C1898 C1896 1.381 . S
C1898 C1899 1.394 . S
C1898 H1906 0.930 . S
C1899 C1898 1.394 . S
C1899 C1900 1.383 . S
C1899 H1907 0.929 . S
C1900 C1899 1.383 . S
C1900 C1901 1.377 . S
C1901 H1885 0.930 . S
C1901 C1900 1.377 . S
C1901 C1902 1.379 . S
C1902 H1886 0.931 . S
C1902 C1896 1.383 . S
C1902 C1901 1.379 . S
H1903 C1897 0.959 . S
H1904 C1897 0.961 . S
H1905 C1897 0.960 . S
H1906 C1898 0.930 . S
H1907 C1899 0.929 . S
H1908 C1916 0.929 . S
H1909 C1918 0.930 . S
H1910 C1920 0.930 . S
H1911 C1923 0.929 . S
H1912 C1926 0.930 . S
H1913 C1928 0.960 . S
H1914 C1928 0.960 . S
H1915 C1928 0.960 . S
C1916 H1908 0.929 . S
C1916 C1917 1.377 . S
C1916 C1918 1.384 . S
C1917 C1916 1.377 . S
C1917 C1923 1.390 . S
C1918 H1909 0.930 . S
C1918 C1916 1.384 . S
C1918 C1919 1.372 . S
C1919 C1918 1.372 . S
C1919 C1920 1.400 . S
C1919 C1924 1.490 . S
C1920 H1910 0.930 . S
C1920 C1919 1.400 . S
C1920 C1923 1.386 . S
H1921 C1937 0.930 . S
H1922 C1938 0.931 . S
C1923 H1911 0.929 . S
C1923 C1917 1.390 . S
C1923 C1920 1.386 . S
C1924 C1919 1.490 . S
C1924 C1926 1.395 . S
C1924 C1927 1.403 . S
H1925 C1931 0.930 . S
C1926 H1912 0.930 . S
C1926 C1924 1.395 . S
C1926 C1929 1.403 1_554 S
C1927 C1924 1.403 . S
C1927 C1928 1.524 . S
C1927 C1931 1.400 1_554 S
C1928 H1913 0.960 . S
C1928 H1914 0.960 . S
C1928 H1915 0.960 . S
C1928 C1927 1.524 . S
C1929 C1926 1.403 1_556 S
C1929 C1930 1.392 . S
C1929 C1933 1.495 . S
C1930 C1929 1.392 . S
C1930 C1931 1.385 . S
C1930 C1932 1.478 . S
C1931 H1925 0.930 . S
C1931 C1927 1.400 1_556 S
C1931 C1930 1.385 . S
C1932 C1930 1.478 . S
C1932 C1934 1.381 . S
C1932 C1938 1.383 . S
C1933 C1929 1.495 . S
C1933 H1939 0.959 . S
C1933 H1940 0.961 . S
C1933 H1941 0.960 . S
C1934 C1932 1.381 . S
C1934 C1935 1.394 . S
C1934 H1942 0.930 . S
C1935 C1934 1.394 . S
C1935 C1936 1.383 . S
C1935 H1943 0.929 . S
C1936 C1935 1.383 . S
C1936 C1937 1.377 . S
C1937 H1921 0.930 . S
C1937 C1936 1.377 . S
C1937 C1938 1.379 . S
C1938 H1922 0.931 . S
C1938 C1932 1.383 . S
C1938 C1937 1.379 . S
H1939 C1933 0.959 . S
H1940 C1933 0.961 . S
H1941 C1933 0.960 . S
H1942 C1934 0.930 . S
H1943 C1935 0.929 . S
H1944 C1952 0.929 . S
H1945 C1954 0.930 . S
H1946 C1956 0.930 . S
H1947 C1959 0.929 . S
H1948 C1962 0.930 1_565 S
H1949 C1964 0.960 . S
H1950 C1964 0.960 . S
H1951 C1964 0.960 . S
C1952 H1944 0.929 . S
C1952 C1953 1.377 . S
C1952 C1954 1.384 . S
C1953 C1952 1.377 . S
C1953 C1959 1.390 . S
C1954 H1945 0.930 . S
C1954 C1952 1.384 . S
C1954 C1955 1.372 . S
C1955 C1954 1.372 . S
C1955 C1956 1.400 . S
C1955 C1960 1.490 . S
C1956 H1946 0.930 . S
C1956 C1955 1.400 . S
C1956 C1959 1.386 . S
H1957 C1973 0.930 . S
H1958 C1974 0.931 . S
C1959 H1947 0.929 . S
C1959 C1953 1.390 . S
C1959 C1956 1.386 . S
C1960 C1955 1.490 . S
C1960 C1962 1.395 . S
C1960 C1963 1.403 . S
H1961 C1967 0.930 . S
C1962 H1948 0.930 1_545 S
C1962 C1960 1.395 . S
C1962 C1965 1.403 1_556 S
C1963 C1960 1.403 . S
C1963 C1964 1.524 . S
C1963 C1967 1.400 1_556 S
C1964 H1949 0.960 . S
C1964 H1950 0.960 . S
C1964 H1951 0.960 . S
C1964 C1963 1.524 . S
C1965 C1962 1.403 1_554 S
C1965 C1966 1.392 . S
C1965 C1969 1.495 1_545 S
C1966 C1965 1.392 . S
C1966 C1967 1.385 . S
C1966 C1968 1.478 . S
C1967 H1961 0.930 . S
C1967 C1963 1.400 1_554 S
C1967 C1966 1.385 . S
C1968 C1966 1.478 . S
C1968 C1970 1.381 . S
C1968 C1974 1.383 . S
C1969 C1965 1.495 1_565 S
C1969 H1975 0.959 . S
C1969 H1976 0.961 . S
C1969 H1977 0.960 . S
C1970 C1968 1.381 . S
C1970 C1971 1.394 . S
C1970 H1978 0.930 . S
C1971 C1970 1.394 . S
C1971 C1972 1.383 . S
C1971 H1979 0.929 . S
C1972 C1971 1.383 . S
C1972 C1973 1.377 . S
C1973 H1957 0.930 . S
C1973 C1972 1.377 . S
C1973 C1974 1.379 . S
C1974 H1958 0.931 . S
C1974 C1968 1.383 . S
C1974 C1973 1.379 . S
H1975 C1969 0.959 . S
H1976 C1969 0.961 . S
H1977 C1969 0.960 . S
H1978 C1970 0.930 . S
H1979 C1971 0.929 . S
H1980 C1988 0.929 . S
H1981 C1990 0.930 . S
H1982 C1992 0.930 . S
H1983 C1995 0.929 . S
H1984 C1998 0.930 . S
H1985 C2000 0.960 . S
H1986 C2000 0.960 . S
H1987 C2000 0.960 . S
C1988 H1980 0.929 . S
C1988 C1989 1.377 . S
C1988 C1990 1.384 . S
C1989 C1988 1.377 . S
C1989 C1995 1.390 . S
C1990 H1981 0.930 . S
C1990 C1988 1.384 . S
C1990 C1991 1.372 . S
C1991 C1990 1.372 . S
C1991 C1992 1.400 . S
C1991 C1996 1.490 . S
C1992 H1982 0.930 . S
C1992 C1991 1.400 . S
C1992 C1995 1.386 . S
H1993 C2009 0.930 . S
H1994 C2010 0.931 . S
C1995 H1983 0.929 . S
C1995 C1989 1.390 . S
C1995 C1992 1.386 . S
C1996 C1991 1.490 . S
C1996 C1998 1.395 . S
C1996 C1999 1.403 . S
H1997 C2003 0.930 . S
C1998 H1984 0.930 . S
C1998 C1996 1.395 . S
C1998 C2001 1.403 . S
C1999 C1996 1.403 . S
C1999 C2000 1.524 . S
C1999 C2003 1.400 . S
C2000 H1985 0.960 . S
C2000 H1986 0.960 . S
C2000 H1987 0.960 . S
C2000 C1999 1.524 . S
C2001 C1998 1.403 . S
C2001 C2002 1.392 . S
C2001 C2005 1.495 . S
C2002 C2001 1.392 . S
C2002 C2003 1.385 . S
C2002 C2004 1.478 . S
C2003 H1997 0.930 . S
C2003 C1999 1.400 . S
C2003 C2002 1.385 . S
C2004 C2002 1.478 . S
C2004 C2006 1.381 . S
C2004 C2010 1.383 . S
C2005 C2001 1.495 . S
C2005 H2011 0.959 . S
C2005 H2012 0.961 . S
C2005 H2013 0.960 . S
C2006 C2004 1.381 . S
C2006 C2007 1.394 . S
C2006 H2014 0.930 . S
C2007 C2006 1.394 . S
C2007 C2008 1.383 . S
C2007 H2015 0.929 . S
C2008 C2007 1.383 . S
C2008 C2009 1.377 . S
C2009 H1993 0.930 . S
C2009 C2008 1.377 . S
C2009 C2010 1.379 . S
C2010 H1994 0.931 . S
C2010 C2004 1.383 . S
C2010 C2009 1.379 . S
H2011 C2005 0.959 . S
H2012 C2005 0.961 . S
H2013 C2005 0.960 . S
H2014 C2006 0.930 . S
H2015 C2007 0.929 . S
H2016 C2024 0.929 . S
H2017 C2026 0.930 . S
H2018 C2028 0.930 . S
H2019 C2031 0.929 . S
H2020 C2034 0.930 . S
H2021 C2036 0.960 . S
H2022 C2036 0.960 . S
H2023 C2036 0.960 . S
C2024 H2016 0.929 . S
C2024 C2025 1.377 . S
C2024 C2026 1.384 . S
C2025 C2024 1.377 . S
C2025 C2031 1.390 . S
C2026 H2017 0.930 . S
C2026 C2024 1.384 . S
C2026 C2027 1.372 . S
C2027 C2026 1.372 . S
C2027 C2028 1.400 . S
C2027 C2032 1.490 . S
C2028 H2018 0.930 . S
C2028 C2027 1.400 . S
C2028 C2031 1.386 . S
H2029 C2045 0.930 . S
H2030 C2046 0.931 . S
C2031 H2019 0.929 . S
C2031 C2025 1.390 . S
C2031 C2028 1.386 . S
C2032 C2027 1.490 . S
C2032 C2034 1.395 . S
C2032 C2035 1.403 . S
H2033 C2039 0.930 . S
C2034 H2020 0.930 . S
C2034 C2032 1.395 . S
C2034 C2037 1.403 . S
C2035 C2032 1.403 . S
C2035 C2036 1.524 . S
C2035 C2039 1.400 . S
C2036 H2021 0.960 . S
C2036 H2022 0.960 . S
C2036 H2023 0.960 . S
C2036 C2035 1.524 . S
C2037 C2034 1.403 . S
C2037 C2038 1.392 . S
C2037 C2041 1.495 . S
C2038 C2037 1.392 . S
C2038 C2039 1.385 . S
C2038 C2040 1.478 . S
C2039 H2033 0.930 . S
C2039 C2035 1.400 . S
C2039 C2038 1.385 . S
C2040 C2038 1.478 . S
C2040 C2042 1.381 . S
C2040 C2046 1.383 . S
C2041 C2037 1.495 . S
C2041 H2047 0.959 . S
C2041 H2048 0.961 . S
C2041 H2049 0.960 . S
C2042 C2040 1.381 . S
C2042 C2043 1.394 . S
C2042 H2050 0.930 . S
C2043 C2042 1.394 . S
C2043 C2044 1.383 . S
C2043 H2051 0.929 . S
C2044 C2043 1.383 . S
C2044 C2045 1.377 . S
C2045 H2029 0.930 . S
C2045 C2044 1.377 . S
C2045 C2046 1.379 . S
C2046 H2030 0.931 . S
C2046 C2040 1.383 . S
C2046 C2045 1.379 . S
H2047 C2041 0.959 . S
H2048 C2041 0.961 . S
H2049 C2041 0.960 . S
H2050 C2042 0.930 . S
H2051 C2043 0.929 . S
H2052 C2060 0.929 . S
H2053 C2062 0.930 . S
H2054 C2064 0.936 1_455 S
H2055 C2067 0.910 1_455 S
H2056 C2070 0.930 . S
H2057 C2072 0.960 . S
H2058 C2072 0.960 . S
H2059 C2072 0.960 . S
C2060 H2052 0.929 . S
C2060 C2061 1.377 . S
C2060 C2062 1.384 . S
C2061 C2060 1.377 . S
C2061 C2067 1.390 . S
C2062 H2053 0.930 . S
C2062 C2060 1.384 . S
C2062 C2063 1.372 . S
C2063 C2062 1.372 . S
C2063 C2064 1.400 . S
C2063 C2068 1.490 . S
C2064 H2054 0.936 1_655 S
C2064 C2063 1.400 . S
C2064 C2067 1.386 . S
H2065 C2081 0.930 1_455 S
H2066 C2082 0.931 1_455 S
C2067 H2055 0.910 1_655 S
C2067 C2061 1.390 . S
C2067 C2064 1.386 . S
C2068 C2063 1.490 . S
C2068 C2070 1.395 . S
C2068 C2071 1.403 . S
H2069 C2075 0.930 . S
C2070 H2056 0.930 . S
C2070 C2068 1.395 . S
C2070 C2073 1.403 . S
C2071 C2068 1.403 . S
C2071 C2072 1.524 . S
C2071 C2075 1.400 . S
C2072 H2057 0.960 . S
C2072 H2058 0.960 . S
C2072 H2059 0.960 . S
C2072 C2071 1.524 . S
C2073 C2070 1.403 . S
C2073 C2074 1.392 . S
C2073 C2077 1.495 . S
C2074 C2073 1.392 . S
C2074 C2075 1.385 . S
C2074 C2076 1.478 . S
C2075 H2069 0.930 . S
C2075 C2071 1.400 . S
C2075 C2074 1.385 . S
C2076 C2074 1.478 . S
C2076 C2078 1.381 . S
C2076 C2082 1.383 . S
C2077 C2073 1.495 . S
C2077 H2083 0.959 . S
C2077 H2084 0.961 . S
C2077 H2085 0.960 . S
C2078 C2076 1.381 . S
C2078 C2079 1.394 . S
C2078 H2086 0.930 . S
C2079 C2078 1.394 . S
C2079 C2080 1.383 . S
C2079 H2087 0.929 . S
C2080 C2079 1.383 . S
C2080 C2081 1.377 . S
C2081 H2065 0.930 1_655 S
C2081 C2080 1.377 . S
C2081 C2082 1.379 . S
C2082 H2066 0.931 1_655 S
C2082 C2076 1.383 . S
C2082 C2081 1.379 . S
H2083 C2077 0.959 . S
H2084 C2077 0.961 . S
H2085 C2077 0.960 . S
H2086 C2078 0.930 . S
H2087 C2079 0.929 . S
H2088 C2096 0.929 . S
H2089 C2098 0.930 . S
H2090 C2100 0.930 . S
H2091 C2103 0.929 . S
H2092 C2106 0.930 . S
H2093 C2108 0.960 . S
H2094 C2108 0.960 . S
H2095 C2108 0.960 . S
C2096 H2088 0.929 . S
C2096 C2097 1.377 . S
C2096 C2098 1.384 . S
C2097 C2096 1.377 . S
C2097 C2103 1.390 . S
C2098 H2089 0.930 . S
C2098 C2096 1.384 . S
C2098 C2099 1.372 . S
C2099 C2098 1.372 . S
C2099 C2100 1.400 . S
C2099 C2104 1.490 . S
C2100 H2090 0.930 . S
C2100 C2099 1.400 . S
C2100 C2103 1.386 . S
H2101 C2117 0.930 . S
H2102 C2118 0.931 . S
C2103 H2091 0.929 . S
C2103 C2097 1.390 . S
C2103 C2100 1.386 . S
C2104 C2099 1.490 . S
C2104 C2106 1.395 . S
C2104 C2107 1.403 . S
H2105 C2111 0.930 . S
C2106 H2092 0.930 . S
C2106 C2104 1.395 . S
C2106 C2109 1.403 . S
C2107 C2104 1.403 . S
C2107 C2108 1.524 . S
C2107 C2111 1.400 . S
C2108 H2093 0.960 . S
C2108 H2094 0.960 . S
C2108 H2095 0.960 . S
C2108 C2107 1.524 . S
C2109 C2106 1.403 . S
C2109 C2110 1.392 . S
C2109 C2113 1.495 . S
C2110 C2109 1.392 . S
C2110 C2111 1.385 . S
C2110 C2112 1.478 . S
C2111 H2105 0.930 . S
C2111 C2107 1.400 . S
C2111 C2110 1.385 . S
C2112 C2110 1.478 . S
C2112 C2114 1.381 . S
C2112 C2118 1.383 . S
C2113 C2109 1.495 . S
C2113 H2119 0.959 . S
C2113 H2120 0.961 . S
C2113 H2121 0.960 . S
C2114 C2112 1.381 . S
C2114 C2115 1.394 . S
C2114 H2122 0.930 . S
C2115 C2114 1.394 . S
C2115 C2116 1.383 . S
C2115 H2123 0.929 . S
C2116 C2115 1.383 . S
C2116 C2117 1.377 . S
C2117 H2101 0.930 . S
C2117 C2116 1.377 . S
C2117 C2118 1.379 . S
C2118 H2102 0.931 . S
C2118 C2112 1.383 . S
C2118 C2117 1.379 . S
H2119 C2113 0.959 . S
H2120 C2113 0.961 . S
H2121 C2113 0.960 . S
H2122 C2114 0.930 . S
H2123 C2115 0.929 . S
H2124 C2132 0.929 . S
H2125 C2134 0.930 . S
H2126 C2136 0.930 . S
H2127 C2139 0.929 . S
H2128 C2142 0.930 1_455 S
H2129 C2144 0.960 . S
H2130 C2144 0.960 . S
H2131 C2144 0.960 . S
C2132 H2124 0.929 . S
C2132 C2133 1.377 . S
C2132 C2134 1.384 . S
C2133 C2132 1.377 . S
C2133 C2139 1.390 . S
C2134 H2125 0.930 . S
C2134 C2132 1.384 . S
C2134 C2135 1.372 . S
C2135 C2134 1.372 . S
C2135 C2136 1.400 . S
C2135 C2140 1.490 . S
C2136 H2126 0.930 . S
C2136 C2135 1.400 . S
C2136 C2139 1.386 . S
H2137 C2153 0.930 . S
H2138 C2154 0.931 . S
C2139 H2127 0.929 . S
C2139 C2133 1.390 . S
C2139 C2136 1.386 . S
C2140 C2135 1.490 . S
C2140 C2142 1.395 . S
C2140 C2143 1.403 . S
H2141 C2147 0.930 . S
C2142 H2128 0.930 1_655 S
C2142 C2140 1.395 . S
C2142 C2145 1.403 . S
C2143 C2140 1.403 . S
C2143 C2144 1.524 . S
C2143 C2147 1.400 . S
C2144 H2129 0.960 . S
C2144 H2130 0.960 . S
C2144 H2131 0.960 . S
C2144 C2143 1.524 . S
C2145 C2142 1.403 . S
C2145 C2146 1.392 . S
C2145 C2149 1.495 1_655 S
C2146 C2145 1.392 . S
C2146 C2147 1.385 . S
C2146 C2148 1.478 . S
C2147 H2141 0.930 . S
C2147 C2143 1.400 . S
C2147 C2146 1.385 . S
C2148 C2146 1.478 . S
C2148 C2150 1.381 . S
C2148 C2154 1.383 . S
C2149 C2145 1.495 1_455 S
C2149 H2155 0.959 . S
C2149 H2156 0.961 . S
C2149 H2157 0.960 . S
C2150 C2148 1.381 . S
C2150 C2151 1.394 . S
C2150 H2158 0.930 . S
C2151 C2150 1.394 . S
C2151 C2152 1.383 . S
C2151 H2159 0.929 . S
C2152 C2151 1.383 . S
C2152 C2153 1.377 . S
C2153 H2137 0.930 . S
C2153 C2152 1.377 . S
C2153 C2154 1.379 . S
C2154 H2138 0.931 . S
C2154 C2148 1.383 . S
C2154 C2153 1.379 . S
H2155 C2149 0.959 . S
H2156 C2149 0.961 . S
H2157 C2149 0.960 . S
H2158 C2150 0.930 . S
H2159 C2151 0.929 . S
H2160 C2168 0.929 . S
H2161 C2170 0.930 . S
H2162 C2172 0.930 . S
H2163 C2175 0.929 . S
H2164 C2178 0.930 . S
H2165 C2180 0.960 . S
H2166 C2180 0.960 . S
H2167 C2180 0.960 . S
C2168 H2160 0.929 . S
C2168 C2169 1.377 . S
C2168 C2170 1.384 . S
C2169 C2168 1.377 . S
C2169 C2175 1.390 . S
C2170 H2161 0.930 . S
C2170 C2168 1.384 . S
C2170 C2171 1.372 . S
C2171 C2170 1.372 . S
C2171 C2172 1.400 . S
C2171 C2176 1.490 . S
C2172 H2162 0.930 . S
C2172 C2171 1.400 . S
C2172 C2175 1.386 . S
H2173 C2189 0.930 . S
H2174 C2190 0.931 . S
C2175 H2163 0.929 . S
C2175 C2169 1.390 . S
C2175 C2172 1.386 . S
C2176 C2171 1.490 . S
C2176 C2178 1.395 . S
C2176 C2179 1.403 . S
H2177 C2183 0.930 . S
C2178 H2164 0.930 . S
C2178 C2176 1.395 . S
C2178 C2181 1.403 . S
C2179 C2176 1.403 . S
C2179 C2180 1.524 . S
C2179 C2183 1.400 . S
C2180 H2165 0.960 . S
C2180 H2166 0.960 . S
C2180 H2167 0.960 . S
C2180 C2179 1.524 . S
C2181 C2178 1.403 . S
C2181 C2182 1.392 . S
C2181 C2185 1.495 . S
C2182 C2181 1.392 . S
C2182 C2183 1.385 . S
C2182 C2184 1.478 . S
C2183 H2177 0.930 . S
C2183 C2179 1.400 . S
C2183 C2182 1.385 . S
C2184 C2182 1.478 . S
C2184 C2186 1.381 . S
C2184 C2190 1.383 . S
C2185 C2181 1.495 . S
C2185 H2191 0.959 . S
C2185 H2192 0.961 . S
C2185 H2193 0.960 . S
C2186 C2184 1.381 . S
C2186 C2187 1.394 . S
C2186 H2194 0.930 . S
C2187 C2186 1.394 . S
C2187 C2188 1.383 . S
C2187 H2195 0.929 . S
C2188 C2187 1.383 . S
C2188 C2189 1.377 . S
C2189 H2173 0.930 . S
C2189 C2188 1.377 . S
C2189 C2190 1.379 . S
C2190 H2174 0.931 . S
C2190 C2184 1.383 . S
C2190 C2189 1.379 . S
H2191 C2185 0.959 . S
H2192 C2185 0.961 . S
H2193 C2185 0.960 . S
H2194 C2186 0.930 . S
H2195 C2187 0.929 . S
H2196 C2204 0.929 . S
H2197 C2206 0.930 . S
H2198 C2208 0.930 . S
H2199 C2211 0.929 . S
H2200 C2214 0.930 . S
H2201 C2216 0.960 . S
H2202 C2216 0.960 . S
H2203 C2216 0.960 . S
C2204 H2196 0.929 . S
C2204 C2205 1.377 . S
C2204 C2206 1.384 . S
C2205 C2204 1.377 . S
C2205 C2211 1.390 . S
C2206 H2197 0.930 . S
C2206 C2204 1.384 . S
C2206 C2207 1.372 . S
C2207 C2206 1.372 . S
C2207 C2208 1.400 . S
C2207 C2212 1.490 . S
C2208 H2198 0.930 . S
C2208 C2207 1.400 . S
C2208 C2211 1.386 . S
H2209 C2225 0.930 . S
H2210 C2226 0.931 . S
C2211 H2199 0.929 . S
C2211 C2205 1.390 . S
C2211 C2208 1.386 . S
C2212 C2207 1.490 . S
C2212 C2214 1.395 . S
C2212 C2215 1.403 . S
H2213 C2219 0.930 . S
C2214 H2200 0.930 . S
C2214 C2212 1.395 . S
C2214 C2217 1.403 . S
C2215 C2212 1.403 . S
C2215 C2216 1.524 1_565 S
C2215 C2219 1.400 . S
C2216 H2201 0.960 . S
C2216 H2202 0.960 . S
C2216 H2203 0.960 . S
C2216 C2215 1.524 1_545 S
C2217 C2214 1.403 . S
C2217 C2218 1.392 . S
C2217 C2221 1.495 . S
C2218 C2217 1.392 . S
C2218 C2219 1.385 . S
C2218 C2220 1.478 . S
C2219 H2213 0.930 . S
C2219 C2215 1.400 . S
C2219 C2218 1.385 . S
C2220 C2218 1.478 . S
C2220 C2222 1.381 . S
C2220 C2226 1.383 . S
C2221 C2217 1.495 . S
C2221 H2227 0.959 . S
C2221 H2228 0.961 . S
C2221 H2229 0.960 . S
C2222 C2220 1.381 . S
C2222 C2223 1.394 . S
C2222 H2230 0.930 . S
C2223 C2222 1.394 . S
C2223 C2224 1.383 . S
C2223 H2231 0.929 . S
C2224 C2223 1.383 . S
C2224 C2225 1.377 . S
C2225 H2209 0.930 . S
C2225 C2224 1.377 . S
C2225 C2226 1.379 . S
C2226 H2210 0.931 . S
C2226 C2220 1.383 . S
C2226 C2225 1.379 . S
H2227 C2221 0.959 . S
H2228 C2221 0.961 . S
H2229 C2221 0.960 . S
H2230 C2222 0.930 . S
H2231 C2223 0.929 . S
H2232 C2240 0.929 . S
H2233 C2242 0.930 . S
H2234 C2244 0.930 . S
H2235 C2247 0.929 . S
H2236 C2250 0.930 . S
H2237 C2252 0.960 . S
H2238 C2252 0.960 . S
H2239 C2252 0.960 . S
C2240 H2232 0.929 . S
C2240 C2241 1.377 . S
C2240 C2242 1.384 . S
C2241 C2240 1.377 . S
C2241 C2247 1.390 . S
C2242 H2233 0.930 . S
C2242 C2240 1.384 . S
C2242 C2243 1.372 . S
C2243 C2242 1.372 . S
C2243 C2244 1.400 . S
C2243 C2248 1.490 . S
C2244 H2234 0.930 . S
C2244 C2243 1.400 . S
C2244 C2247 1.386 . S
H2245 C2261 0.930 . S
H2246 C2262 0.931 . S
C2247 H2235 0.929 . S
C2247 C2241 1.390 . S
C2247 C2244 1.386 . S
C2248 C2243 1.490 . S
C2248 C2250 1.395 . S
C2248 C2251 1.403 . S
H2249 C2255 0.930 . S
C2250 H2236 0.930 . S
C2250 C2248 1.395 . S
C2250 C2253 1.403 . S
C2251 C2248 1.403 . S
C2251 C2252 1.524 . S
C2251 C2255 1.400 . S
C2252 H2237 0.960 . S
C2252 H2238 0.960 . S
C2252 H2239 0.960 . S
C2252 C2251 1.524 . S
C2253 C2250 1.403 . S
C2253 C2254 1.392 . S
C2253 C2257 1.495 . S
C2254 C2253 1.392 . S
C2254 C2255 1.385 . S
C2254 C2256 1.478 . S
C2255 H2249 0.930 . S
C2255 C2251 1.400 . S
C2255 C2254 1.385 . S
C2256 C2254 1.478 . S
C2256 C2258 1.381 . S
C2256 C2262 1.383 . S
C2257 C2253 1.495 . S
C2257 H2263 0.959 . S
C2257 H2264 0.961 . S
C2257 H2265 0.960 . S
C2258 C2256 1.381 . S
C2258 C2259 1.394 . S
C2258 H2266 0.930 . S
C2259 C2258 1.394 . S
C2259 C2260 1.383 . S
C2259 H2267 0.929 . S
C2260 C2259 1.383 . S
C2260 C2261 1.377 . S
C2261 H2245 0.930 . S
C2261 C2260 1.377 . S
C2261 C2262 1.379 . S
C2262 H2246 0.931 . S
C2262 C2256 1.383 . S
C2262 C2261 1.379 . S
H2263 C2257 0.959 . S
H2264 C2257 0.961 . S
H2265 C2257 0.960 . S
H2266 C2258 0.930 . S
H2267 C2259 0.929 . S
H2268 C2276 0.929 . S
H2269 C2278 0.930 . S
H2270 C2280 0.930 . S
H2271 C2283 0.929 . S
H2272 C2286 0.930 . S
H2273 C2288 0.960 . S
H2274 C2288 0.960 . S
H2275 C2288 0.960 . S
C2276 H2268 0.929 . S
C2276 C2277 1.377 . S
C2276 C2278 1.384 . S
C2277 C2276 1.377 . S
C2277 C2283 1.390 . S
C2278 H2269 0.930 . S
C2278 C2276 1.384 . S
C2278 C2279 1.372 . S
C2279 C2278 1.372 . S
C2279 C2280 1.400 . S
C2279 C2284 1.490 . S
C2280 H2270 0.930 . S
C2280 C2279 1.400 . S
C2280 C2283 1.386 . S
H2281 C2297 0.930 . S
H2282 C2298 0.931 . S
C2283 H2271 0.929 . S
C2283 C2277 1.390 . S
C2283 C2280 1.386 . S
C2284 C2279 1.490 . S
C2284 C2286 1.395 . S
C2284 C2287 1.403 . S
H2285 C2291 0.930 . S
C2286 H2272 0.930 . S
C2286 C2284 1.395 . S
C2286 C2289 1.403 . S
C2287 C2284 1.403 . S
C2287 C2288 1.524 . S
C2287 C2291 1.400 . S
C2288 H2273 0.960 . S
C2288 H2274 0.960 . S
C2288 H2275 0.960 . S
C2288 C2287 1.524 . S
C2289 C2286 1.403 . S
C2289 C2290 1.392 . S
C2289 C2293 1.495 . S
C2290 C2289 1.392 . S
C2290 C2291 1.385 . S
C2290 C2292 1.478 . S
C2291 H2285 0.930 . S
C2291 C2287 1.400 . S
C2291 C2290 1.385 . S
C2292 C2290 1.478 . S
C2292 C2294 1.381 . S
C2292 C2298 1.383 . S
C2293 C2289 1.495 . S
C2293 H2299 0.959 . S
C2293 H2300 0.961 . S
C2293 H2301 0.960 . S
C2294 C2292 1.381 . S
C2294 C2295 1.394 . S
C2294 H2302 0.930 . S
C2295 C2294 1.394 . S
C2295 C2296 1.383 . S
C2295 H2303 0.929 . S
C2296 C2295 1.383 . S
C2296 C2297 1.377 . S
C2297 H2281 0.930 . S
C2297 C2296 1.377 . S
C2297 C2298 1.379 . S
C2298 H2282 0.931 . S
C2298 C2292 1.383 . S
C2298 C2297 1.379 . S
H2299 C2293 0.959 . S
H2300 C2293 0.961 . S
H2301 C2293 0.960 . S
H2302 C2294 0.930 . S
H2303 C2295 0.929 . S
H2304 C2312 0.929 . S
H2305 C2314 0.930 . S
H2306 C2316 0.930 . S
H2307 C2319 0.929 . S
H2308 C2322 0.930 . S
H2309 C2324 0.960 . S
H2310 C2324 0.960 . S
H2311 C2324 0.960 . S
C2312 H2304 0.929 . S
C2312 C2313 1.377 . S
C2312 C2314 1.384 . S
C2313 C2312 1.377 . S
C2313 C2319 1.390 . S
C2314 H2305 0.930 . S
C2314 C2312 1.384 . S
C2314 C2315 1.372 . S
C2315 C2314 1.372 . S
C2315 C2316 1.400 . S
C2315 C2320 1.490 . S
C2316 H2306 0.930 . S
C2316 C2315 1.400 . S
C2316 C2319 1.386 . S
H2317 C2333 0.930 . S
H2318 C2334 0.931 . S
C2319 H2307 0.929 . S
C2319 C2313 1.390 . S
C2319 C2316 1.386 . S
C2320 C2315 1.490 . S
C2320 C2322 1.395 . S
C2320 C2323 1.403 . S
H2321 C2327 0.930 . S
C2322 H2308 0.930 . S
C2322 C2320 1.395 . S
C2322 C2325 1.403 . S
C2323 C2320 1.403 . S
C2323 C2324 1.524 . S
C2323 C2327 1.400 . S
C2324 H2309 0.960 . S
C2324 H2310 0.960 . S
C2324 H2311 0.960 . S
C2324 C2323 1.524 . S
C2325 C2322 1.403 . S
C2325 C2326 1.392 . S
C2325 C2329 1.495 . S
C2326 C2325 1.392 . S
C2326 C2327 1.385 . S
C2326 C2328 1.478 . S
C2327 H2321 0.930 . S
C2327 C2323 1.400 . S
C2327 C2326 1.385 . S
C2328 C2326 1.478 . S
C2328 C2330 1.381 . S
C2328 C2334 1.383 . S
C2329 C2325 1.495 . S
C2329 H2335 0.959 . S
C2329 H2336 0.961 . S
C2329 H2337 0.960 . S
C2330 C2328 1.381 . S
C2330 C2331 1.394 . S
C2330 H2338 0.930 . S
C2331 C2330 1.394 . S
C2331 C2332 1.383 . S
C2331 H2339 0.929 . S
C2332 C2331 1.383 . S
C2332 C2333 1.377 . S
C2333 H2317 0.930 . S
C2333 C2332 1.377 . S
C2333 C2334 1.379 . S
C2334 H2318 0.931 . S
C2334 C2328 1.383 . S
C2334 C2333 1.379 . S
H2335 C2329 0.959 . S
H2336 C2329 0.961 . S
H2337 C2329 0.960 . S
H2338 C2330 0.930 . S
H2339 C2331 0.929 . S
H2340 C2348 0.929 1_545 S
H2341 C2350 0.930 1_545 S
H2342 C2352 0.930 . S
H2343 C2355 0.929 . S
H2344 C2358 0.930 . S
H2345 C2360 0.960 . S
H2346 C2360 0.960 . S
H2347 C2360 0.960 . S
C2348 H2340 0.929 1_565 S
C2348 C2349 1.377 . S
C2348 C2350 1.384 . S
C2349 C2348 1.377 . S
C2349 C2355 1.390 . S
C2350 H2341 0.930 1_565 S
C2350 C2348 1.384 . S
C2350 C2351 1.372 . S
C2351 C2350 1.372 . S
C2351 C2352 1.400 . S
C2351 C2356 1.490 . S
C2352 H2342 0.930 . S
C2352 C2351 1.400 . S
C2352 C2355 1.386 . S
H2353 C2369 0.930 . S
H2354 C2370 0.931 . S
C2355 H2343 0.929 . S
C2355 C2349 1.390 . S
C2355 C2352 1.386 . S
C2356 C2351 1.490 . S
C2356 C2358 1.395 . S
C2356 C2359 1.403 . S
H2357 C2363 0.930 . S
C2358 H2344 0.930 . S
C2358 C2356 1.395 . S
C2358 C2361 1.403 . S
C2359 C2356 1.403 . S
C2359 C2360 1.524 . S
C2359 C2363 1.400 . S
C2360 H2345 0.960 . S
C2360 H2346 0.960 . S
C2360 H2347 0.960 . S
C2360 C2359 1.524 . S
C2361 C2358 1.403 . S
C2361 C2362 1.392 . S
C2361 C2365 1.495 . S
C2362 C2361 1.392 . S
C2362 C2363 1.385 . S
C2362 C2364 1.478 . S
C2363 H2357 0.930 . S
C2363 C2359 1.400 . S
C2363 C2362 1.385 . S
C2364 C2362 1.478 . S
C2364 C2366 1.381 . S
C2364 C2370 1.383 . S
C2365 C2361 1.495 . S
C2365 H2371 0.959 . S
C2365 H2372 0.961 . S
C2365 H2373 0.960 . S
C2366 C2364 1.381 . S
C2366 C2367 1.394 . S
C2366 H2374 0.930 1_565 S
C2367 C2366 1.394 . S
C2367 C2368 1.383 . S
C2367 H2375 0.929 1_565 S
C2368 C2367 1.383 . S
C2368 C2369 1.377 . S
C2369 H2353 0.930 . S
C2369 C2368 1.377 . S
C2369 C2370 1.379 . S
C2370 H2354 0.931 . S
C2370 C2364 1.383 . S
C2370 C2369 1.379 . S
H2371 C2365 0.959 . S
H2372 C2365 0.961 . S
H2373 C2365 0.960 . S
H2374 C2366 0.930 1_545 S
H2375 C2367 0.929 1_545 S
H2376 C2384 0.929 . S
H2377 C2386 0.930 . S
H2378 C2388 0.930 . S
H2379 C2391 0.929 . S
H2380 C2394 0.930 . S
H2381 C2396 0.960 . S
H2382 C2396 0.960 . S
H2383 C2396 0.960 . S
C2384 H2376 0.929 . S
C2384 C2385 1.377 . S
C2384 C2386 1.384 . S
C2385 C2384 1.377 . S
C2385 C2391 1.390 . S
C2386 H2377 0.930 . S
C2386 C2384 1.384 . S
C2386 C2387 1.372 . S
C2387 C2386 1.372 . S
C2387 C2388 1.400 . S
C2387 C2392 1.490 . S
C2388 H2378 0.930 . S
C2388 C2387 1.400 . S
C2388 C2391 1.386 . S
H2389 C2405 0.930 . S
H2390 C2406 0.931 . S
C2391 H2379 0.929 . S
C2391 C2385 1.390 . S
C2391 C2388 1.386 . S
C2392 C2387 1.490 . S
C2392 C2394 1.395 . S
C2392 C2395 1.403 . S
H2393 C2399 0.930 . S
C2394 H2380 0.930 . S
C2394 C2392 1.395 . S
C2394 C2397 1.403 . S
C2395 C2392 1.403 . S
C2395 C2396 1.524 . S
C2395 C2399 1.400 . S
C2396 H2381 0.960 . S
C2396 H2382 0.960 . S
C2396 H2383 0.960 . S
C2396 C2395 1.524 . S
C2397 C2394 1.403 . S
C2397 C2398 1.392 . S
C2397 C2401 1.495 . S
C2398 C2397 1.392 . S
C2398 C2399 1.385 . S
C2398 C2400 1.478 . S
C2399 H2393 0.930 . S
C2399 C2395 1.400 . S
C2399 C2398 1.385 . S
C2400 C2398 1.478 . S
C2400 C2402 1.381 . S
C2400 C2406 1.383 . S
C2401 C2397 1.495 . S
C2401 H2407 0.959 . S
C2401 H2408 0.961 . S
C2401 H2409 0.960 . S
C2402 C2400 1.381 . S
C2402 C2403 1.394 . S
C2402 H2410 0.930 . S
C2403 C2402 1.394 . S
C2403 C2404 1.383 . S
C2403 H2411 0.929 . S
C2404 C2403 1.383 . S
C2404 C2405 1.377 . S
C2405 H2389 0.930 . S
C2405 C2404 1.377 . S
C2405 C2406 1.379 . S
C2406 H2390 0.931 . S
C2406 C2400 1.383 . S
C2406 C2405 1.379 . S
H2407 C2401 0.959 . S
H2408 C2401 0.961 . S
H2409 C2401 0.960 . S
H2410 C2402 0.930 . S
H2411 C2403 0.929 . S
H2412 C2420 0.929 . S
H2413 C2422 0.930 . S
H2414 C2424 0.930 . S
H2415 C2427 0.929 . S
H2416 C2430 0.930 . S
H2417 C2432 0.960 . S
H2418 C2432 0.960 . S
H2419 C2432 0.960 . S
C2420 H2412 0.929 . S
C2420 C2421 1.377 . S
C2420 C2422 1.384 . S
C2421 C2420 1.377 . S
C2421 C2427 1.390 . S
C2422 H2413 0.930 . S
C2422 C2420 1.384 . S
C2422 C2423 1.372 . S
C2423 C2422 1.372 . S
C2423 C2424 1.400 . S
C2423 C2428 1.490 . S
C2424 H2414 0.930 . S
C2424 C2423 1.400 . S
C2424 C2427 1.386 . S
H2425 C2441 0.930 . S
H2426 C2442 0.931 . S
C2427 H2415 0.929 . S
C2427 C2421 1.390 . S
C2427 C2424 1.386 . S
C2428 C2423 1.490 . S
C2428 C2430 1.395 . S
C2428 C2431 1.403 . S
H2429 C2435 0.930 . S
C2430 H2416 0.930 . S
C2430 C2428 1.395 . S
C2430 C2433 1.403 . S
C2431 C2428 1.403 . S
C2431 C2432 1.524 . S
C2431 C2435 1.400 . S
C2432 H2417 0.960 . S
C2432 H2418 0.960 . S
C2432 H2419 0.960 . S
C2432 C2431 1.524 . S
C2433 C2430 1.403 . S
C2433 C2434 1.392 . S
C2433 C2437 1.495 . S
C2434 C2433 1.392 . S
C2434 C2435 1.385 . S
C2434 C2436 1.478 . S
C2435 H2429 0.930 . S
C2435 C2431 1.400 . S
C2435 C2434 1.385 . S
C2436 C2434 1.478 . S
C2436 C2438 1.381 . S
C2436 C2442 1.383 . S
C2437 C2433 1.495 . S
C2437 H2443 0.959 . S
C2437 H2444 0.961 . S
C2437 H2445 0.960 . S
C2438 C2436 1.381 . S
C2438 C2439 1.394 . S
C2438 H2446 0.930 . S
C2439 C2438 1.394 . S
C2439 C2440 1.383 . S
C2439 H2447 0.929 . S
C2440 C2439 1.383 . S
C2440 C2441 1.377 . S
C2441 H2425 0.930 . S
C2441 C2440 1.377 . S
C2441 C2442 1.379 . S
C2442 H2426 0.931 . S
C2442 C2436 1.383 . S
C2442 C2441 1.379 . S
H2443 C2437 0.959 . S
H2444 C2437 0.961 . S
H2445 C2437 0.960 . S
H2446 C2438 0.930 . S
H2447 C2439 0.929 . S
H2448 C2456 0.929 . S
H2449 C2458 0.930 . S
H2450 C2460 0.930 . S
H2451 C2463 0.929 . S
H2452 C2466 0.930 . S
H2453 C2468 0.960 . S
H2454 C2468 0.960 . S
H2455 C2468 0.960 . S
C2456 H2448 0.929 . S
C2456 C2457 1.377 . S
C2456 C2458 1.384 . S
C2457 C2456 1.377 . S
C2457 C2463 1.390 . S
C2458 H2449 0.930 . S
C2458 C2456 1.384 . S
C2458 C2459 1.372 . S
C2459 C2458 1.372 . S
C2459 C2460 1.400 . S
C2459 C2464 1.490 . S
C2460 H2450 0.930 . S
C2460 C2459 1.400 . S
C2460 C2463 1.386 . S
H2461 C2477 0.930 . S
H2462 C2478 0.931 . S
C2463 H2451 0.929 . S
C2463 C2457 1.390 . S
C2463 C2460 1.386 . S
C2464 C2459 1.490 . S
C2464 C2466 1.395 . S
C2464 C2467 1.403 . S
H2465 C2471 0.930 . S
C2466 H2452 0.930 . S
C2466 C2464 1.395 . S
C2466 C2469 1.403 . S
C2467 C2464 1.403 . S
C2467 C2468 1.524 . S
C2467 C2471 1.400 . S
C2468 H2453 0.960 . S
C2468 H2454 0.960 . S
C2468 H2455 0.960 . S
C2468 C2467 1.524 . S
C2469 C2466 1.403 . S
C2469 C2470 1.392 . S
C2469 C2473 1.495 . S
C2470 C2469 1.392 . S
C2470 C2471 1.385 . S
C2470 C2472 1.478 . S
C2471 H2465 0.930 . S
C2471 C2467 1.400 . S
C2471 C2470 1.385 . S
C2472 C2470 1.478 . S
C2472 C2474 1.381 . S
C2472 C2478 1.383 . S
C2473 C2469 1.495 . S
C2473 H2479 0.959 . S
C2473 H2480 0.961 . S
C2473 H2481 0.960 . S
C2474 C2472 1.381 . S
C2474 C2475 1.394 . S
C2474 H2482 0.930 . S
C2475 C2474 1.394 . S
C2475 C2476 1.383 . S
C2475 H2483 0.929 . S
C2476 C2475 1.383 . S
C2476 C2477 1.377 . S
C2477 H2461 0.930 . S
C2477 C2476 1.377 . S
C2477 C2478 1.379 . S
C2478 H2462 0.931 . S
C2478 C2472 1.383 . S
C2478 C2477 1.379 . S
H2479 C2473 0.959 . S
H2480 C2473 0.961 . S
H2481 C2473 0.960 . S
H2482 C2474 0.930 . S
H2483 C2475 0.929 . S
H2484 C2492 0.929 . S
H2485 C2494 0.930 . S
H2486 C2496 0.930 . S
H2487 C2499 0.929 . S
H2488 C2502 0.930 . S
H2489 C2504 0.960 . S
H2490 C2504 0.960 . S
H2491 C2504 0.960 . S
C2492 H2484 0.929 . S
C2492 C2493 1.377 . S
C2492 C2494 1.384 . S
C2493 C2492 1.377 . S
C2493 C2499 1.390 . S
C2494 H2485 0.930 . S
C2494 C2492 1.384 . S
C2494 C2495 1.372 . S
C2495 C2494 1.372 . S
C2495 C2496 1.400 . S
C2495 C2500 1.490 . S
C2496 H2486 0.930 . S
C2496 C2495 1.400 . S
C2496 C2499 1.386 . S
H2497 C2513 0.930 . S
H2498 C2514 0.931 . S
C2499 H2487 0.929 . S
C2499 C2493 1.390 . S
C2499 C2496 1.386 . S
C2500 C2495 1.490 . S
C2500 C2502 1.395 . S
C2500 C2503 1.403 . S
H2501 C2507 0.930 . S
C2502 H2488 0.930 . S
C2502 C2500 1.395 . S
C2502 C2505 1.403 . S
C2503 C2500 1.403 . S
C2503 C2504 1.524 . S
C2503 C2507 1.400 . S
C2504 H2489 0.960 . S
C2504 H2490 0.960 . S
C2504 H2491 0.960 . S
C2504 C2503 1.524 . S
C2505 C2502 1.403 . S
C2505 C2506 1.392 . S
C2505 C2509 1.495 . S
C2506 C2505 1.392 . S
C2506 C2507 1.385 . S
C2506 C2508 1.478 . S
C2507 H2501 0.930 . S
C2507 C2503 1.400 . S
C2507 C2506 1.385 . S
C2508 C2506 1.478 . S
C2508 C2510 1.381 . S
C2508 C2514 1.383 . S
C2509 C2505 1.495 . S
C2509 H2515 0.959 . S
C2509 H2516 0.961 . S
C2509 H2517 0.960 . S
C2510 C2508 1.381 . S
C2510 C2511 1.394 . S
C2510 H2518 0.930 . S
C2511 C2510 1.394 . S
C2511 C2512 1.383 . S
C2511 H2519 0.929 . S
C2512 C2511 1.383 . S
C2512 C2513 1.377 . S
C2513 H2497 0.930 . S
C2513 C2512 1.377 . S
C2513 C2514 1.379 . S
C2514 H2498 0.931 . S
C2514 C2508 1.383 . S
C2514 C2513 1.379 . S
H2515 C2509 0.959 . S
H2516 C2509 0.961 . S
H2517 C2509 0.960 . S
H2518 C2510 0.930 . S
H2519 C2511 0.929 . S
H2520 C2528 0.929 . S
H2521 C2530 0.930 . S
H2522 C2532 0.930 . S
H2523 C2535 0.929 . S
H2524 C2538 0.930 . S
H2525 C2540 0.960 . S
H2526 C2540 0.960 . S
H2527 C2540 0.960 . S
C2528 H2520 0.929 . S
C2528 C2529 1.377 . S
C2528 C2530 1.384 . S
C2529 C2528 1.377 . S
C2529 C2535 1.390 . S
C2530 H2521 0.930 . S
C2530 C2528 1.384 . S
C2530 C2531 1.372 . S
C2531 C2530 1.372 . S
C2531 C2532 1.400 . S
C2531 C2536 1.490 . S
C2532 H2522 0.930 . S
C2532 C2531 1.400 . S
C2532 C2535 1.386 . S
H2533 C2549 0.930 . S
H2534 C2550 0.931 . S
C2535 H2523 0.929 . S
C2535 C2529 1.390 . S
C2535 C2532 1.386 . S
C2536 C2531 1.490 . S
C2536 C2538 1.395 . S
C2536 C2539 1.403 . S
H2537 C2543 0.930 . S
C2538 H2524 0.930 . S
C2538 C2536 1.395 . S
C2538 C2541 1.403 . S
C2539 C2536 1.403 . S
C2539 C2540 1.524 . S
C2539 C2543 1.400 . S
C2540 H2525 0.960 . S
C2540 H2526 0.960 . S
C2540 H2527 0.960 . S
C2540 C2539 1.524 . S
C2541 C2538 1.403 . S
C2541 C2542 1.392 . S
C2541 C2545 1.495 . S
C2542 C2541 1.392 . S
C2542 C2543 1.385 . S
C2542 C2544 1.478 . S
C2543 H2537 0.930 . S
C2543 C2539 1.400 . S
C2543 C2542 1.385 . S
C2544 C2542 1.478 . S
C2544 C2546 1.381 . S
C2544 C2550 1.383 . S
C2545 C2541 1.495 . S
C2545 H2551 0.959 . S
C2545 H2552 0.961 . S
C2545 H2553 0.960 . S
C2546 C2544 1.381 . S
C2546 C2547 1.394 . S
C2546 H2554 0.930 . S
C2547 C2546 1.394 . S
C2547 C2548 1.383 . S
C2547 H2555 0.929 . S
C2548 C2547 1.383 . S
C2548 C2549 1.377 . S
C2549 H2533 0.930 . S
C2549 C2548 1.377 . S
C2549 C2550 1.379 . S
C2550 H2534 0.931 . S
C2550 C2544 1.383 . S
C2550 C2549 1.379 . S
H2551 C2545 0.959 . S
H2552 C2545 0.961 . S
H2553 C2545 0.960 . S
H2554 C2546 0.930 . S
H2555 C2547 0.929 . S
H2556 C2564 0.929 . S
H2557 C2566 0.930 . S
H2558 C2568 0.930 . S
H2559 C2571 0.929 . S
H2560 C2574 0.930 . S
H2561 C2576 0.960 . S
H2562 C2576 0.960 . S
H2563 C2576 0.960 . S
C2564 H2556 0.929 . S
C2564 C2565 1.377 . S
C2564 C2566 1.384 . S
C2565 C2564 1.377 . S
C2565 C2571 1.390 . S
C2566 H2557 0.930 . S
C2566 C2564 1.384 . S
C2566 C2567 1.372 . S
C2567 C2566 1.372 . S
C2567 C2568 1.400 . S
C2567 C2572 1.490 . S
C2568 H2558 0.930 . S
C2568 C2567 1.400 . S
C2568 C2571 1.386 . S
H2569 C2585 0.930 . S
H2570 C2586 0.931 . S
C2571 H2559 0.929 . S
C2571 C2565 1.390 . S
C2571 C2568 1.386 . S
C2572 C2567 1.490 . S
C2572 C2574 1.395 . S
C2572 C2575 1.403 . S
H2573 C2579 0.930 . S
C2574 H2560 0.930 . S
C2574 C2572 1.395 . S
C2574 C2577 1.403 . S
C2575 C2572 1.403 . S
C2575 C2576 1.524 . S
C2575 C2579 1.400 . S
C2576 H2561 0.960 . S
C2576 H2562 0.960 . S
C2576 H2563 0.960 . S
C2576 C2575 1.524 . S
C2577 C2574 1.403 . S
C2577 C2578 1.392 . S
C2577 C2581 1.495 . S
C2578 C2577 1.392 . S
C2578 C2579 1.385 . S
C2578 C2580 1.478 . S
C2579 H2573 0.930 . S
C2579 C2575 1.400 . S
C2579 C2578 1.385 . S
C2580 C2578 1.478 . S
C2580 C2582 1.381 . S
C2580 C2586 1.383 . S
C2581 C2577 1.495 . S
C2581 H2587 0.959 . S
C2581 H2588 0.961 . S
C2581 H2589 0.960 . S
C2582 C2580 1.381 . S
C2582 C2583 1.394 . S
C2582 H2590 0.930 . S
C2583 C2582 1.394 . S
C2583 C2584 1.383 . S
C2583 H2591 0.929 . S
C2584 C2583 1.383 . S
C2584 C2585 1.377 . S
C2585 H2569 0.930 . S
C2585 C2584 1.377 . S
C2585 C2586 1.379 . S
C2586 H2570 0.931 . S
C2586 C2580 1.383 . S
C2586 C2585 1.379 . S
H2587 C2581 0.959 . S
H2588 C2581 0.961 . S
H2589 C2581 0.960 . S
H2590 C2582 0.930 . S
H2591 C2583 0.929 . S
H2592 C2600 0.929 . S
H2593 C2602 0.930 . S
H2594 C2604 0.930 . S
H2595 C2607 0.929 . S
H2596 C2610 0.930 . S
H2597 C2612 0.960 . S
H2598 C2612 0.960 . S
H2599 C2612 0.960 . S
C2600 H2592 0.929 . S
C2600 C2601 1.377 . S
C2600 C2602 1.384 . S
C2601 C2600 1.377 . S
C2601 C2607 1.390 . S
C2602 H2593 0.930 . S
C2602 C2600 1.384 . S
C2602 C2603 1.372 . S
C2603 C2602 1.372 . S
C2603 C2604 1.400 . S
C2603 C2608 1.490 . S
C2604 H2594 0.930 . S
C2604 C2603 1.400 . S
C2604 C2607 1.386 . S
H2605 C2621 0.930 . S
H2606 C2622 0.931 . S
C2607 H2595 0.929 . S
C2607 C2601 1.390 . S
C2607 C2604 1.386 . S
C2608 C2603 1.490 . S
C2608 C2610 1.395 . S
C2608 C2611 1.403 . S
H2609 C2615 0.930 . S
C2610 H2596 0.930 . S
C2610 C2608 1.395 . S
C2610 C2613 1.403 . S
C2611 C2608 1.403 . S
C2611 C2612 1.524 . S
C2611 C2615 1.400 . S
C2612 H2597 0.960 . S
C2612 H2598 0.960 . S
C2612 H2599 0.960 . S
C2612 C2611 1.524 . S
C2613 C2610 1.403 . S
C2613 C2614 1.392 . S
C2613 C2617 1.495 . S
C2614 C2613 1.392 . S
C2614 C2615 1.385 . S
C2614 C2616 1.478 . S
C2615 H2609 0.930 . S
C2615 C2611 1.400 . S
C2615 C2614 1.385 . S
C2616 C2614 1.478 . S
C2616 C2618 1.381 . S
C2616 C2622 1.383 . S
C2617 C2613 1.495 . S
C2617 H2623 0.959 . S
C2617 H2624 0.961 . S
C2617 H2625 0.960 . S
C2618 C2616 1.381 . S
C2618 C2619 1.394 . S
C2618 H2626 0.930 . S
C2619 C2618 1.394 . S
C2619 C2620 1.383 . S
C2619 H2627 0.929 . S
C2620 C2619 1.383 . S
C2620 C2621 1.377 . S
C2621 H2605 0.930 . S
C2621 C2620 1.377 . S
C2621 C2622 1.379 . S
C2622 H2606 0.931 . S
C2622 C2616 1.383 . S
C2622 C2621 1.379 . S
H2623 C2617 0.959 . S
H2624 C2617 0.961 . S
H2625 C2617 0.960 . S
H2626 C2618 0.930 . S
H2627 C2619 0.929 . S
H2628 C2636 0.929 . S
H2629 C2638 0.930 . S
H2630 C2640 0.930 . S
H2631 C2643 0.929 . S
H2632 C2646 0.930 . S
H2633 C2648 0.960 . S
H2634 C2648 0.960 . S
H2635 C2648 0.960 . S
C2636 H2628 0.929 . S
C2636 C2637 1.377 . S
C2636 C2638 1.384 . S
C2637 C2636 1.377 . S
C2637 C2643 1.390 . S
C2638 H2629 0.930 . S
C2638 C2636 1.384 . S
C2638 C2639 1.372 . S
C2639 C2638 1.372 . S
C2639 C2640 1.400 . S
C2639 C2644 1.490 . S
C2640 H2630 0.930 . S
C2640 C2639 1.400 . S
C2640 C2643 1.386 . S
H2641 C2657 0.930 . S
H2642 C2658 0.931 . S
C2643 H2631 0.929 . S
C2643 C2637 1.390 . S
C2643 C2640 1.386 . S
C2644 C2639 1.490 . S
C2644 C2646 1.395 . S
C2644 C2647 1.403 . S
H2645 C2651 0.930 . S
C2646 H2632 0.930 . S
C2646 C2644 1.395 . S
C2646 C2649 1.403 . S
C2647 C2644 1.403 . S
C2647 C2648 1.524 . S
C2647 C2651 1.400 . S
C2648 H2633 0.960 . S
C2648 H2634 0.960 . S
C2648 H2635 0.960 . S
C2648 C2647 1.524 . S
C2649 C2646 1.403 . S
C2649 C2650 1.392 . S
C2649 C2653 1.495 . S
C2650 C2649 1.392 . S
C2650 C2651 1.385 . S
C2650 C2652 1.478 . S
C2651 H2645 0.930 . S
C2651 C2647 1.400 . S
C2651 C2650 1.385 . S
C2652 C2650 1.478 . S
C2652 C2654 1.381 . S
C2652 C2658 1.383 . S
C2653 C2649 1.495 . S
C2653 H2659 0.959 . S
C2653 H2660 0.961 . S
C2653 H2661 0.960 . S
C2654 C2652 1.381 . S
C2654 C2655 1.394 . S
C2654 H2662 0.930 . S
C2655 C2654 1.394 . S
C2655 C2656 1.383 . S
C2655 H2663 0.929 . S
C2656 C2655 1.383 . S
C2656 C2657 1.377 . S
C2657 H2641 0.930 . S
C2657 C2656 1.377 . S
C2657 C2658 1.379 . S
C2658 H2642 0.931 . S
C2658 C2652 1.383 . S
C2658 C2657 1.379 . S
H2659 C2653 0.959 . S
H2660 C2653 0.961 . S
H2661 C2653 0.960 . S
H2662 C2654 0.930 . S
H2663 C2655 0.929 . S
H2664 C2672 0.929 . S
H2665 C2674 0.930 . S
H2666 C2676 0.930 . S
H2667 C2679 0.929 . S
H2668 C2682 0.930 . S
H2669 C2684 0.960 . S
H2670 C2684 0.960 . S
H2671 C2684 0.960 . S
C2672 H2664 0.929 . S
C2672 C2673 1.377 . S
C2672 C2674 1.384 . S
C2673 C2672 1.377 . S
C2673 C2679 1.390 . S
C2674 H2665 0.930 . S
C2674 C2672 1.384 . S
C2674 C2675 1.372 . S
C2675 C2674 1.372 . S
C2675 C2676 1.400 . S
C2675 C2680 1.490 . S
C2676 H2666 0.930 . S
C2676 C2675 1.400 . S
C2676 C2679 1.386 . S
H2677 C2693 0.930 . S
H2678 C2694 0.931 . S
C2679 H2667 0.929 . S
C2679 C2673 1.390 . S
C2679 C2676 1.386 . S
C2680 C2675 1.490 . S
C2680 C2682 1.395 . S
C2680 C2683 1.403 . S
H2681 C2687 0.930 . S
C2682 H2668 0.930 . S
C2682 C2680 1.395 . S
C2682 C2685 1.403 . S
C2683 C2680 1.403 . S
C2683 C2684 1.524 . S
C2683 C2687 1.400 . S
C2684 H2669 0.960 . S
C2684 H2670 0.960 . S
C2684 H2671 0.960 . S
C2684 C2683 1.524 . S
C2685 C2682 1.403 . S
C2685 C2686 1.392 . S
C2685 C2689 1.495 . S
C2686 C2685 1.392 . S
C2686 C2687 1.385 . S
C2686 C2688 1.478 . S
C2687 H2681 0.930 . S
C2687 C2683 1.400 . S
C2687 C2686 1.385 . S
C2688 C2686 1.478 . S
C2688 C2690 1.381 . S
C2688 C2694 1.383 . S
C2689 C2685 1.495 . S
C2689 H2695 0.959 . S
C2689 H2696 0.961 . S
C2689 H2697 0.960 . S
C2690 C2688 1.381 . S
C2690 C2691 1.394 . S
C2690 H2698 0.930 . S
C2691 C2690 1.394 . S
C2691 C2692 1.383 . S
C2691 H2699 0.929 . S
C2692 C2691 1.383 . S
C2692 C2693 1.377 . S
C2693 H2677 0.930 . S
C2693 C2692 1.377 . S
C2693 C2694 1.379 . S
C2694 H2678 0.931 . S
C2694 C2688 1.383 . S
C2694 C2693 1.379 . S
H2695 C2689 0.959 . S
H2696 C2689 0.961 . S
H2697 C2689 0.960 . S
H2698 C2690 0.930 . S
H2699 C2691 0.929 . S
H2700 C2708 0.929 . S
H2701 C2710 0.930 . S
H2702 C2712 0.930 . S
H2703 C2715 0.929 . S
H2704 C2718 0.930 1_455 S
H2705 C2720 0.960 . S
H2706 C2720 0.960 . S
H2707 C2720 0.960 . S
C2708 H2700 0.929 . S
C2708 C2709 1.377 . S
C2708 C2710 1.384 . S
C2709 C2708 1.377 . S
C2709 C2715 1.390 . S
C2710 H2701 0.930 . S
C2710 C2708 1.384 . S
C2710 C2711 1.372 . S
C2711 C2710 1.372 . S
C2711 C2712 1.400 . S
C2711 C2716 1.490 . S
C2712 H2702 0.930 . S
C2712 C2711 1.400 . S
C2712 C2715 1.386 . S
H2713 C2729 0.930 . S
H2714 C2730 0.931 . S
C2715 H2703 0.929 . S
C2715 C2709 1.390 . S
C2715 C2712 1.386 . S
C2716 C2711 1.490 . S
C2716 C2718 1.395 . S
C2716 C2719 1.403 . S
H2717 C2723 0.930 . S
C2718 H2704 0.930 1_655 S
C2718 C2716 1.395 . S
C2718 C2721 1.403 . S
C2719 C2716 1.403 . S
C2719 C2720 1.524 . S
C2719 C2723 1.400 . S
C2720 H2705 0.960 . S
C2720 H2706 0.960 . S
C2720 H2707 0.960 . S
C2720 C2719 1.524 . S
C2721 C2718 1.403 . S
C2721 C2722 1.392 . S
C2721 C2725 1.495 1_655 S
C2722 C2721 1.392 . S
C2722 C2723 1.385 . S
C2722 C2724 1.478 . S
C2723 H2717 0.930 . S
C2723 C2719 1.400 . S
C2723 C2722 1.385 . S
C2724 C2722 1.478 . S
C2724 C2726 1.381 . S
C2724 C2730 1.383 . S
C2725 C2721 1.495 1_455 S
C2725 H2731 0.959 . S
C2725 H2732 0.961 . S
C2725 H2733 0.960 . S
C2726 C2724 1.381 . S
C2726 C2727 1.394 . S
C2726 H2734 0.930 . S
C2727 C2726 1.394 . S
C2727 C2728 1.383 . S
C2727 H2735 0.929 . S
C2728 C2727 1.383 . S
C2728 C2729 1.377 . S
C2729 H2713 0.930 . S
C2729 C2728 1.377 . S
C2729 C2730 1.379 . S
C2730 H2714 0.931 . S
C2730 C2724 1.383 . S
C2730 C2729 1.379 . S
H2731 C2725 0.959 . S
H2732 C2725 0.961 . S
H2733 C2725 0.960 . S
H2734 C2726 0.930 . S
H2735 C2727 0.929 . S
H2736 C2744 0.929 . S
H2737 C2746 0.930 . S
H2738 C2748 0.930 . S
H2739 C2751 0.929 . S
H2740 C2754 0.930 . S
H2741 C2756 0.960 . S
H2742 C2756 0.960 . S
H2743 C2756 0.960 . S
C2744 H2736 0.929 . S
C2744 C2745 1.377 . S
C2744 C2746 1.384 . S
C2745 C2744 1.377 . S
C2745 C2751 1.390 . S
C2746 H2737 0.930 . S
C2746 C2744 1.384 . S
C2746 C2747 1.372 . S
C2747 C2746 1.372 . S
C2747 C2748 1.400 . S
C2747 C2752 1.490 . S
C2748 H2738 0.930 . S
C2748 C2747 1.400 . S
C2748 C2751 1.386 . S
H2749 C2765 0.930 . S
H2750 C2766 0.931 . S
C2751 H2739 0.929 . S
C2751 C2745 1.390 . S
C2751 C2748 1.386 . S
C2752 C2747 1.490 . S
C2752 C2754 1.395 . S
C2752 C2755 1.403 . S
H2753 C2759 0.930 . S
C2754 H2740 0.930 . S
C2754 C2752 1.395 . S
C2754 C2757 1.403 . S
C2755 C2752 1.403 . S
C2755 C2756 1.524 . S
C2755 C2759 1.400 . S
C2756 H2741 0.960 . S
C2756 H2742 0.960 . S
C2756 H2743 0.960 . S
C2756 C2755 1.524 . S
C2757 C2754 1.403 . S
C2757 C2758 1.392 . S
C2757 C2761 1.495 . S
C2758 C2757 1.392 . S
C2758 C2759 1.385 . S
C2758 C2760 1.478 . S
C2759 H2753 0.930 . S
C2759 C2755 1.400 . S
C2759 C2758 1.385 . S
C2760 C2758 1.478 . S
C2760 C2762 1.381 . S
C2760 C2766 1.383 . S
C2761 C2757 1.495 . S
C2761 H2767 0.959 . S
C2761 H2768 0.961 . S
C2761 H2769 0.960 . S
C2762 C2760 1.381 . S
C2762 C2763 1.394 . S
C2762 H2770 0.930 . S
C2763 C2762 1.394 . S
C2763 C2764 1.383 . S
C2763 H2771 0.929 . S
C2764 C2763 1.383 . S
C2764 C2765 1.377 . S
C2765 H2749 0.930 . S
C2765 C2764 1.377 . S
C2765 C2766 1.379 . S
C2766 H2750 0.931 . S
C2766 C2760 1.383 . S
C2766 C2765 1.379 . S
H2767 C2761 0.959 . S
H2768 C2761 0.961 . S
H2769 C2761 0.960 . S
H2770 C2762 0.930 . S
H2771 C2763 0.929 . S
H2772 C2780 0.929 . S
H2773 C2782 0.930 . S
H2774 C2784 0.930 . S
H2775 C2787 0.929 . S
H2776 C2790 0.930 . S
H2777 C2792 0.960 . S
H2778 C2792 0.960 . S
H2779 C2792 0.960 . S
C2780 H2772 0.929 . S
C2780 C2781 1.377 . S
C2780 C2782 1.384 . S
C2781 C2780 1.377 . S
C2781 C2787 1.390 . S
C2782 H2773 0.930 . S
C2782 C2780 1.384 . S
C2782 C2783 1.372 . S
C2783 C2782 1.372 . S
C2783 C2784 1.400 . S
C2783 C2788 1.490 . S
C2784 H2774 0.930 . S
C2784 C2783 1.400 . S
C2784 C2787 1.386 . S
H2785 C2801 0.930 . S
H2786 C2802 0.931 . S
C2787 H2775 0.929 . S
C2787 C2781 1.390 . S
C2787 C2784 1.386 . S
C2788 C2783 1.490 . S
C2788 C2790 1.395 . S
C2788 C2791 1.403 . S
H2789 C2795 0.930 . S
C2790 H2776 0.930 . S
C2790 C2788 1.395 . S
C2790 C2793 1.403 . S
C2791 C2788 1.403 . S
C2791 C2792 1.524 . S
C2791 C2795 1.400 . S
C2792 H2777 0.960 . S
C2792 H2778 0.960 . S
C2792 H2779 0.960 . S
C2792 C2791 1.524 . S
C2793 C2790 1.403 . S
C2793 C2794 1.392 . S
C2793 C2797 1.495 . S
C2794 C2793 1.392 . S
C2794 C2795 1.385 . S
C2794 C2796 1.478 . S
C2795 H2789 0.930 . S
C2795 C2791 1.400 . S
C2795 C2794 1.385 . S
C2796 C2794 1.478 . S
C2796 C2798 1.381 . S
C2796 C2802 1.383 . S
C2797 C2793 1.495 . S
C2797 H2803 0.959 . S
C2797 H2804 0.961 . S
C2797 H2805 0.960 . S
C2798 C2796 1.381 . S
C2798 C2799 1.394 . S
C2798 H2806 0.930 . S
C2799 C2798 1.394 . S
C2799 C2800 1.383 . S
C2799 H2807 0.929 . S
C2800 C2799 1.383 . S
C2800 C2801 1.377 . S
C2801 H2785 0.930 . S
C2801 C2800 1.377 . S
C2801 C2802 1.379 . S
C2802 H2786 0.931 . S
C2802 C2796 1.383 . S
C2802 C2801 1.379 . S
H2803 C2797 0.959 . S
H2804 C2797 0.961 . S
H2805 C2797 0.960 . S
H2806 C2798 0.930 . S
H2807 C2799 0.929 . S
H2808 C2816 0.929 . S
H2809 C2818 0.930 . S
H2810 C2820 0.930 . S
H2811 C2823 0.929 . S
H2812 C2826 0.930 . S
H2813 C2828 0.960 . S
H2814 C2828 0.960 . S
H2815 C2828 0.960 . S
C2816 H2808 0.929 . S
C2816 C2817 1.377 . S
C2816 C2818 1.384 . S
C2817 C2816 1.377 . S
C2817 C2823 1.390 . S
C2818 H2809 0.930 . S
C2818 C2816 1.384 . S
C2818 C2819 1.372 . S
C2819 C2818 1.372 . S
C2819 C2820 1.400 . S
C2819 C2824 1.490 . S
C2820 H2810 0.930 . S
C2820 C2819 1.400 . S
C2820 C2823 1.386 . S
H2821 C2837 0.930 . S
H2822 C2838 0.931 . S
C2823 H2811 0.929 . S
C2823 C2817 1.390 . S
C2823 C2820 1.386 . S
C2824 C2819 1.490 . S
C2824 C2826 1.395 . S
C2824 C2827 1.403 . S
H2825 C2831 0.930 . S
C2826 H2812 0.930 . S
C2826 C2824 1.395 . S
C2826 C2829 1.403 . S
C2827 C2824 1.403 . S
C2827 C2828 1.524 . S
C2827 C2831 1.400 . S
C2828 H2813 0.960 . S
C2828 H2814 0.960 . S
C2828 H2815 0.960 . S
C2828 C2827 1.524 . S
C2829 C2826 1.403 . S
C2829 C2830 1.392 . S
C2829 C2833 1.495 . S
C2830 C2829 1.392 . S
C2830 C2831 1.385 . S
C2830 C2832 1.478 . S
C2831 H2825 0.930 . S
C2831 C2827 1.400 . S
C2831 C2830 1.385 . S
C2832 C2830 1.478 . S
C2832 C2834 1.381 . S
C2832 C2838 1.383 . S
C2833 C2829 1.495 . S
C2833 H2839 0.959 . S
C2833 H2840 0.961 . S
C2833 H2841 0.960 . S
C2834 C2832 1.381 . S
C2834 C2835 1.394 . S
C2834 H2842 0.930 . S
C2835 C2834 1.394 . S
C2835 C2836 1.383 . S
C2835 H2843 0.929 . S
C2836 C2835 1.383 . S
C2836 C2837 1.377 . S
C2837 H2821 0.930 . S
C2837 C2836 1.377 . S
C2837 C2838 1.379 . S
C2838 H2822 0.931 . S
C2838 C2832 1.383 . S
C2838 C2837 1.379 . S
H2839 C2833 0.959 . S
H2840 C2833 0.961 . S
H2841 C2833 0.960 . S
H2842 C2834 0.930 . S
H2843 C2835 0.929 . S
H2844 C2852 0.929 . S
H2845 C2854 0.930 . S
H2846 C2856 0.930 . S
H2847 C2859 0.929 . S
H2848 C2862 0.930 . S
H2849 C2864 0.960 . S
H2850 C2864 0.960 . S
H2851 C2864 0.960 . S
C2852 H2844 0.929 . S
C2852 C2853 1.377 . S
C2852 C2854 1.384 . S
C2853 C2852 1.377 . S
C2853 C2859 1.390 . S
C2854 H2845 0.930 . S
C2854 C2852 1.384 . S
C2854 C2855 1.372 . S
C2855 C2854 1.372 . S
C2855 C2856 1.400 . S
C2855 C2860 1.490 . S
C2856 H2846 0.930 . S
C2856 C2855 1.400 . S
C2856 C2859 1.386 . S
H2857 C2873 0.930 . S
H2858 C2874 0.931 . S
C2859 H2847 0.929 . S
C2859 C2853 1.390 . S
C2859 C2856 1.386 . S
C2860 C2855 1.490 . S
C2860 C2862 1.395 . S
C2860 C2863 1.403 . S
H2861 C2867 0.930 . S
C2862 H2848 0.930 . S
C2862 C2860 1.395 . S
C2862 C2865 1.403 . S
C2863 C2860 1.403 . S
C2863 C2864 1.524 . S
C2863 C2867 1.400 . S
C2864 H2849 0.960 . S
C2864 H2850 0.960 . S
C2864 H2851 0.960 . S
C2864 C2863 1.524 . S
C2865 C2862 1.403 . S
C2865 C2866 1.392 . S
C2865 C2869 1.495 . S
C2866 C2865 1.392 . S
C2866 C2867 1.385 . S
C2866 C2868 1.478 . S
C2867 H2861 0.930 . S
C2867 C2863 1.400 . S
C2867 C2866 1.385 . S
C2868 C2866 1.478 . S
C2868 C2870 1.381 . S
C2868 C2874 1.383 . S
C2869 C2865 1.495 . S
C2869 H2875 0.959 . S
C2869 H2876 0.961 . S
C2869 H2877 0.960 . S
C2870 C2868 1.381 . S
C2870 C2871 1.394 . S
C2870 H2878 0.930 . S
C2871 C2870 1.394 . S
C2871 C2872 1.383 . S
C2871 H2879 0.929 . S
C2872 C2871 1.383 . S
C2872 C2873 1.377 . S
C2873 H2857 0.930 . S
C2873 C2872 1.377 . S
C2873 C2874 1.379 . S
C2874 H2858 0.931 . S
C2874 C2868 1.383 . S
C2874 C2873 1.379 . S
H2875 C2869 0.959 . S
H2876 C2869 0.961 . S
H2877 C2869 0.960 . S
H2878 C2870 0.930 . S
H2879 C2871 0.929 . S
H2880 C2888 0.929 . S
H2881 C2890 0.930 . S
H2882 C2892 0.930 . S
H2883 C2895 0.929 . S
H2884 C2898 0.930 . S
H2885 C2900 0.960 . S
H2886 C2900 0.960 . S
H2887 C2900 0.960 . S
C2888 H2880 0.929 . S
C2888 C2889 1.377 . S
C2888 C2890 1.384 . S
C2889 C2888 1.377 . S
C2889 C2895 1.390 . S
C2890 H2881 0.930 . S
C2890 C2888 1.384 . S
C2890 C2891 1.372 . S
C2891 C2890 1.372 . S
C2891 C2892 1.400 . S
C2891 C2896 1.490 . S
C2892 H2882 0.930 . S
C2892 C2891 1.400 . S
C2892 C2895 1.386 . S
H2893 C2909 0.930 . S
H2894 C2910 0.931 . S
C2895 H2883 0.929 . S
C2895 C2889 1.390 . S
C2895 C2892 1.386 . S
C2896 C2891 1.490 . S
C2896 C2898 1.395 . S
C2896 C2899 1.403 . S
H2897 C2903 0.930 . S
C2898 H2884 0.930 . S
C2898 C2896 1.395 . S
C2898 C2901 1.403 . S
C2899 C2896 1.403 . S
C2899 C2900 1.524 . S
C2899 C2903 1.400 . S
C2900 H2885 0.960 . S
C2900 H2886 0.960 . S
C2900 H2887 0.960 . S
C2900 C2899 1.524 . S
C2901 C2898 1.403 . S
C2901 C2902 1.392 . S
C2901 C2905 1.495 . S
C2902 C2901 1.392 . S
C2902 C2903 1.385 . S
C2902 C2904 1.478 . S
C2903 H2897 0.930 . S
C2903 C2899 1.400 . S
C2903 C2902 1.385 . S
C2904 C2902 1.478 . S
C2904 C2906 1.381 . S
C2904 C2910 1.383 . S
C2905 C2901 1.495 . S
C2905 H2911 0.959 . S
C2905 H2912 0.961 . S
C2905 H2913 0.960 . S
C2906 C2904 1.381 . S
C2906 C2907 1.394 . S
C2906 H2914 0.930 . S
C2907 C2906 1.394 . S
C2907 C2908 1.383 . S
C2907 H2915 0.929 . S
C2908 C2907 1.383 . S
C2908 C2909 1.377 . S
C2909 H2893 0.930 . S
C2909 C2908 1.377 . S
C2909 C2910 1.379 . S
C2910 H2894 0.931 . S
C2910 C2904 1.383 . S
C2910 C2909 1.379 . S
H2911 C2905 0.959 . S
H2912 C2905 0.961 . S
H2913 C2905 0.960 . S
H2914 C2906 0.930 . S
H2915 C2907 0.929 . S
H2916 C2924 0.929 . S
H2917 C2926 0.930 . S
H2918 C2928 0.930 . S
H2919 C2931 0.929 . S
H2920 C2934 0.930 . S
H2921 C2936 0.960 . S
H2922 C2936 0.960 . S
H2923 C2936 0.960 . S
C2924 H2916 0.929 . S
C2924 C2925 1.377 . S
C2924 C2926 1.384 . S
C2925 C2924 1.377 . S
C2925 C2931 1.390 . S
C2926 H2917 0.930 . S
C2926 C2924 1.384 . S
C2926 C2927 1.372 . S
C2927 C2926 1.372 . S
C2927 C2928 1.400 . S
C2927 C2932 1.490 . S
C2928 H2918 0.930 . S
C2928 C2927 1.400 . S
C2928 C2931 1.386 . S
H2929 C2945 0.930 . S
H2930 C2946 0.931 . S
C2931 H2919 0.929 . S
C2931 C2925 1.390 . S
C2931 C2928 1.386 . S
C2932 C2927 1.490 . S
C2932 C2934 1.395 . S
C2932 C2935 1.403 . S
H2933 C2939 0.930 . S
C2934 H2920 0.930 . S
C2934 C2932 1.395 . S
C2934 C2937 1.403 . S
C2935 C2932 1.403 . S
C2935 C2936 1.524 . S
C2935 C2939 1.400 . S
C2936 H2921 0.960 . S
C2936 H2922 0.960 . S
C2936 H2923 0.960 . S
C2936 C2935 1.524 . S
C2937 C2934 1.403 . S
C2937 C2938 1.392 . S
C2937 C2941 1.495 . S
C2938 C2937 1.392 . S
C2938 C2939 1.385 . S
C2938 C2940 1.478 . S
C2939 H2933 0.930 . S
C2939 C2935 1.400 . S
C2939 C2938 1.385 . S
C2940 C2938 1.478 . S
C2940 C2942 1.381 . S
C2940 C2946 1.383 . S
C2941 C2937 1.495 . S
C2941 H2947 0.959 . S
C2941 H2948 0.961 . S
C2941 H2949 0.960 . S
C2942 C2940 1.381 . S
C2942 C2943 1.394 . S
C2942 H2950 0.930 . S
C2943 C2942 1.394 . S
C2943 C2944 1.383 . S
C2943 H2951 0.929 . S
C2944 C2943 1.383 . S
C2944 C2945 1.377 . S
C2945 H2929 0.930 . S
C2945 C2944 1.377 . S
C2945 C2946 1.379 . S
C2946 H2930 0.931 . S
C2946 C2940 1.383 . S
C2946 C2945 1.379 . S
H2947 C2941 0.959 . S
H2948 C2941 0.961 . S
H2949 C2941 0.960 . S
H2950 C2942 0.930 . S
H2951 C2943 0.929 . S
H2952 C2960 0.929 . S
H2953 C2962 0.930 . S
H2954 C2964 0.930 . S
H2955 C2967 0.929 . S
H2956 C2970 0.930 . S
H2957 C2972 0.960 . S
H2958 C2972 0.960 . S
H2959 C2972 0.960 . S
C2960 H2952 0.929 . S
C2960 C2961 1.377 . S
C2960 C2962 1.384 . S
C2961 C2960 1.377 . S
C2961 C2967 1.390 . S
C2962 H2953 0.930 . S
C2962 C2960 1.384 . S
C2962 C2963 1.372 . S
C2963 C2962 1.372 . S
C2963 C2964 1.400 . S
C2963 C2968 1.490 . S
C2964 H2954 0.930 . S
C2964 C2963 1.400 . S
C2964 C2967 1.386 . S
H2965 C2981 0.930 . S
H2966 C2982 0.931 . S
C2967 H2955 0.929 . S
C2967 C2961 1.390 . S
C2967 C2964 1.386 . S
C2968 C2963 1.490 . S
C2968 C2970 1.395 . S
C2968 C2971 1.403 . S
H2969 C2975 0.930 . S
C2970 H2956 0.930 . S
C2970 C2968 1.395 . S
C2970 C2973 1.403 . S
C2971 C2968 1.403 . S
C2971 C2972 1.524 . S
C2971 C2975 1.400 . S
C2972 H2957 0.960 . S
C2972 H2958 0.960 . S
C2972 H2959 0.960 . S
C2972 C2971 1.524 . S
C2973 C2970 1.403 . S
C2973 C2974 1.392 . S
C2973 C2977 1.495 . S
C2974 C2973 1.392 . S
C2974 C2975 1.385 . S
C2974 C2976 1.478 . S
C2975 H2969 0.930 . S
C2975 C2971 1.400 . S
C2975 C2974 1.385 . S
C2976 C2974 1.478 . S
C2976 C2978 1.381 . S
C2976 C2982 1.383 . S
C2977 C2973 1.495 . S
C2977 H2983 0.959 . S
C2977 H2984 0.961 . S
C2977 H2985 0.960 . S
C2978 C2976 1.381 . S
C2978 C2979 1.394 . S
C2978 H2986 0.930 . S
C2979 C2978 1.394 . S
C2979 C2980 1.383 . S
C2979 H2987 0.929 . S
C2980 C2979 1.383 . S
C2980 C2981 1.377 . S
C2981 H2965 0.930 . S
C2981 C2980 1.377 . S
C2981 C2982 1.379 . S
C2982 H2966 0.931 . S
C2982 C2976 1.383 . S
C2982 C2981 1.379 . S
H2983 C2977 0.959 . S
H2984 C2977 0.961 . S
H2985 C2977 0.960 . S
H2986 C2978 0.930 . S
H2987 C2979 0.929 . S
H2988 C2996 0.929 1_545 S
H2989 C2998 0.930 1_545 S
H2990 C3000 0.930 . S
H2991 C3003 0.929 . S
H2992 C3006 0.930 . S
H2993 C3008 0.960 . S
H2994 C3008 0.960 . S
H2995 C3008 0.960 . S
C2996 H2988 0.929 1_565 S
C2996 C2997 1.377 . S
C2996 C2998 1.384 . S
C2997 C2996 1.377 . S
C2997 C3003 1.390 . S
C2998 H2989 0.930 1_565 S
C2998 C2996 1.384 . S
C2998 C2999 1.372 . S
C2999 C2998 1.372 . S
C2999 C3000 1.400 . S
C2999 C3004 1.490 . S
C3000 H2990 0.930 . S
C3000 C2999 1.400 . S
C3000 C3003 1.386 . S
H3001 C3017 0.930 . S
H3002 C3018 0.931 . S
C3003 H2991 0.929 . S
C3003 C2997 1.390 . S
C3003 C3000 1.386 . S
C3004 C2999 1.490 . S
C3004 C3006 1.395 . S
C3004 C3007 1.403 . S
H3005 C3011 0.930 . S
C3006 H2992 0.930 . S
C3006 C3004 1.395 . S
C3006 C3009 1.403 . S
C3007 C3004 1.403 . S
C3007 C3008 1.524 . S
C3007 C3011 1.400 . S
C3008 H2993 0.960 . S
C3008 H2994 0.960 . S
C3008 H2995 0.960 . S
C3008 C3007 1.524 . S
C3009 C3006 1.403 . S
C3009 C3010 1.392 . S
C3009 C3013 1.495 . S
C3010 C3009 1.392 . S
C3010 C3011 1.385 . S
C3010 C3012 1.478 . S
C3011 H3005 0.930 . S
C3011 C3007 1.400 . S
C3011 C3010 1.385 . S
C3012 C3010 1.478 . S
C3012 C3014 1.381 . S
C3012 C3018 1.383 . S
C3013 C3009 1.495 . S
C3013 H3019 0.959 1_565 S
C3013 H3020 0.961 . S
C3013 H3021 0.960 1_565 S
C3014 C3012 1.381 . S
C3014 C3015 1.394 . S
C3014 H3022 0.930 1_565 S
C3015 C3014 1.394 . S
C3015 C3016 1.383 . S
C3015 H3023 0.929 1_565 S
C3016 C3015 1.383 . S
C3016 C3017 1.377 . S
C3017 H3001 0.930 . S
C3017 C3016 1.377 . S
C3017 C3018 1.379 . S
C3018 H3002 0.931 . S
C3018 C3012 1.383 . S
C3018 C3017 1.379 . S
H3019 C3013 0.959 1_545 S
H3020 C3013 0.961 . S
H3021 C3013 0.960 1_545 S
H3022 C3014 0.930 1_545 S
H3023 C3015 0.929 1_545 S
H3024 C3032 0.929 . S
H3025 C3034 0.930 . S
H3026 C3036 0.930 . S
H3027 C3039 0.929 . S
H3028 C3042 0.930 . S
H3029 C3044 0.960 . S
H3030 C3044 0.960 . S
H3031 C3044 0.960 . S
C3032 H3024 0.929 . S
C3032 C3033 1.377 . S
C3032 C3034 1.384 . S
C3033 C3032 1.377 . S
C3033 C3039 1.390 . S
C3034 H3025 0.930 . S
C3034 C3032 1.384 . S
C3034 C3035 1.372 . S
C3035 C3034 1.372 . S
C3035 C3036 1.400 . S
C3035 C3040 1.490 . S
C3036 H3026 0.930 . S
C3036 C3035 1.400 . S
C3036 C3039 1.386 . S
H3037 C3053 0.930 . S
H3038 C3054 0.931 . S
C3039 H3027 0.929 . S
C3039 C3033 1.390 . S
C3039 C3036 1.386 . S
C3040 C3035 1.490 . S
C3040 C3042 1.395 . S
C3040 C3043 1.403 . S
H3041 C3047 0.930 . S
C3042 H3028 0.930 . S
C3042 C3040 1.395 . S
C3042 C3045 1.403 . S
C3043 C3040 1.403 . S
C3043 C3044 1.524 . S
C3043 C3047 1.400 . S
C3044 H3029 0.960 . S
C3044 H3030 0.960 . S
C3044 H3031 0.960 . S
C3044 C3043 1.524 . S
C3045 C3042 1.403 . S
C3045 C3046 1.392 . S
C3045 C3049 1.495 . S
C3046 C3045 1.392 . S
C3046 C3047 1.385 . S
C3046 C3048 1.478 . S
C3047 H3041 0.930 . S
C3047 C3043 1.400 . S
C3047 C3046 1.385 . S
C3048 C3046 1.478 . S
C3048 C3050 1.381 . S
C3048 C3054 1.383 . S
C3049 C3045 1.495 . S
C3049 H3055 0.959 . S
C3049 H3056 0.961 . S
C3049 H3057 0.960 . S
C3050 C3048 1.381 . S
C3050 C3051 1.394 . S
C3050 H3058 0.930 . S
C3051 C3050 1.394 . S
C3051 C3052 1.383 . S
C3051 H3059 0.929 . S
C3052 C3051 1.383 . S
C3052 C3053 1.377 . S
C3053 H3037 0.930 . S
C3053 C3052 1.377 . S
C3053 C3054 1.379 . S
C3054 H3038 0.931 . S
C3054 C3048 1.383 . S
C3054 C3053 1.379 . S
H3055 C3049 0.959 . S
H3056 C3049 0.961 . S
H3057 C3049 0.960 . S
H3058 C3050 0.930 . S
H3059 C3051 0.929 . S
C477 C4 2.010 . S
C496 C153 2.006 . S
C513 C127 2.011 . S
C532 C17 2.013 . S
C549 C134 2.010 . S
C568 C30 2.013 . S
C585 C49 2.010 . S
C604 C95 2.006 . S
C621 C56 2.010 . S
C640 C108 2.013 . S
C657 C69 2.010 . S
C676 C88 2.009 . S
C693 C160 2.010 . S
C712 C303 2.005 . S
C729 C277 2.011 . S
C748 C173 2.001 . S
C765 C186 2.012 . S
C784 C290 2.003 . S
C801 C205 2.010 . S
C820 C257 2.011 . S
C837 C218 2.010 . S
C856 C264 2.009 . S
C873 C225 2.012 . S
C892 C244 2.009 . S
C909 C316 2.012 . S
C928 C465 2.010 . S
C945 C329 2.010 . S
C964 C433 2.013 . S
C981 C452 2.010 . S
C1000 C342 2.010 . S
C1017 C361 2.012 . S
C1036 C413 2.004 . S
C1053 C420 2.011 . S
C1072 C368 2.002 . S
C1089 C400 2.010 . S
C1108 C381 2.011 . S
C1125 C3 1.189 . S
C1144 C200 1.174 . S
C1161 C16 1.188 . S
C1180 C213 1.177 . S
C1197 C29 1.187 . S
C1216 C224 1.200 . S
C1233 C44 1.186 . S
C1252 C315 1.202 . S
C1269 C328 1.185 . S
C1288 C55 1.199 . S
C1305 C341 1.189 . S
C1324 C68 1.174 . S
C1341 C83 1.192 . S
C1360 C432 1.200 . S
C1377 C447 1.185 . S
C1396 C94 1.171 . S
C1413 C107 1.188 . S
C1432 C460 1.179 . S
C1449 C122 1.188 . S
C1468 C239 1.185 . S
C1485 C133 1.187 . S
C1504 C252 1.174 . S
C1521 C148 1.191 . S
C1540 C263 1.192 . S
C1557 C356 1.189 . S
C1576 C159 1.172 . S
C1593 C172 1.185 . S
C1612 C367 1.198 . S
C1629 C185 1.186 . S
C1648 C380 1.202 . S
C1665 C395 1.186 . S
C1684 C276 1.176 . S
C1701 C408 1.185 . S
C1720 C289 1.170 . S
C1737 C302 1.192 . S
C1756 C419 1.202 . S
C1773 C10 1.316 . S
C1792 C62 1.326 . S
C1809 C75 1.317 . S
C1828 C23 1.322 . S
C1845 C43 1.315 . S
C1864 C36 1.330 . S
C1881 C82 1.319 . S
C1900 C140 1.305 . S
C1917 C147 1.316 . S
C1936 C101 1.325 . S
C1953 C114 1.321 . S
C1972 C121 1.323 . S
C1989 C212 1.315 . S
C2008 C166 1.329 . S
C2025 C179 1.321 . S
C2044 C231 1.300 . S
C2061 C192 1.317 . S
C2080 C199 1.313 . S
C2097 C296 1.318 . S
C2116 C238 1.301 . S
C2133 C309 1.320 . S
C2152 C251 1.328 . S
C2169 C283 1.319 . S
C2188 C270 1.306 . S
C2205 C322 1.319 . S
C2224 C374 1.303 . S
C2241 C335 1.320 . S
C2260 C387 1.306 . S
C2277 C348 1.316 . S
C2296 C355 1.324 . S
C2313 C446 1.315 . S
C2332 C394 1.317 . S
C2349 C459 1.321 . S
C2368 C407 1.328 . S
C2385 C439 1.321 . S
C2404 C426 1.316 . S
C2421 C120 1.500 . S
C2440 C5 1.493 . S
C2457 C135 1.499 . S
C2476 C18 1.490 . S
C2493 C31 1.499 . S
C2512 C146 1.490 . S
C2529 C42 1.500 . S
C2548 C81 1.497 . S
C2565 C96 1.499 . S
C2584 C57 1.489 . S
C2601 C70 1.498 . S
C2620 C109 1.492 . S
C2637 C278 1.498 . S
C2656 C161 1.502 . S
C2673 C291 1.500 . S
C2692 C174 1.494 . S
C2709 C187 1.499 . S
C2728 C304 1.499 . S
C2745 C237 1.500 . S
C2764 C198 1.492 . S
C2781 C250 1.500 . S
C2800 C211 1.497 . S
C2817 C265 1.500 . S
C2836 C226 1.491 . S
C2853 C317 1.498 . S
C2872 C434 1.498 . S
C2889 C445 1.499 . S
C2908 C330 1.501 . S
C2925 C343 1.498 . S
C2944 C458 1.500 . S
C2961 C354 1.500 . S
C2980 C393 1.489 . S
C2997 C369 1.500 . S
C3016 C406 1.494 . S
C3033 C421 1.498 . S
C3052 C382 1.493 . S
