# Generated by pormake.
# Topology ofo, (3)-cn, num edge types: 1
# Building blocks:
#     Node 0, Type 0, BuildingBlock: WUSLED_clean_sbu_0, # of connection points: 3
#     Node 1, Type 0, BuildingBlock: WUSLED_clean_sbu_0, # of connection points: 3
#     Node 2, Type 0, BuildingBlock: WUSLED_clean_sbu_0, # of connection points: 3
#     Node 3, Type 0, BuildingBlock: WUSLED_clean_sbu_0, # of connection points: 3
#     Node 4, Type 0, BuildingBlock: WUSLED_clean_sbu_0, # of connection points: 3
#     Node 5, Type 0, BuildingBlock: WUSLED_clean_sbu_0, # of connection points: 3
#     Node 6, Type 0, BuildingBlock: WUSLED_clean_sbu_0, # of connection points: 3
#     Node 7, Type 0, BuildingBlock: WUSLED_clean_sbu_0, # of connection points: 3
#     Node 8, Type 0, BuildingBlock: WUSLED_clean_sbu_0, # of connection points: 3
#     Node 9, Type 0, BuildingBlock: WUSLED_clean_sbu_0, # of connection points: 3
#     Node 10, Type 0, BuildingBlock: WUSLED_clean_sbu_0, # of connection points: 3
#     Node 11, Type 0, BuildingBlock: WUSLED_clean_sbu_0, # of connection points: 3
#     Edge 12, Type (0, 0), BuildingBlock: KIFKEQ_clean_linker_1, # of connection points: 2
#     Edge 13, Type (0, 0), BuildingBlock: KIFKEQ_clean_linker_1, # of connection points: 2
#     Edge 14, Type (0, 0), BuildingBlock: KIFKEQ_clean_linker_1, # of connection points: 2
#     Edge 15, Type (0, 0), BuildingBlock: KIFKEQ_clean_linker_1, # of connection points: 2
#     Edge 16, Type (0, 0), BuildingBlock: KIFKEQ_clean_linker_1, # of connection points: 2
#     Edge 17, Type (0, 0), BuildingBlock: KIFKEQ_clean_linker_1, # of connection points: 2
#     Edge 18, Type (0, 0), BuildingBlock: KIFKEQ_clean_linker_1, # of connection points: 2
#     Edge 19, Type (0, 0), BuildingBlock: KIFKEQ_clean_linker_1, # of connection points: 2
#     Edge 20, Type (0, 0), BuildingBlock: KIFKEQ_clean_linker_1, # of connection points: 2
#     Edge 21, Type (0, 0), BuildingBlock: KIFKEQ_clean_linker_1, # of connection points: 2
#     Edge 22, Type (0, 0), BuildingBlock: KIFKEQ_clean_linker_1, # of connection points: 2
#     Edge 23, Type (0, 0), BuildingBlock: KIFKEQ_clean_linker_1, # of connection points: 2
#     Edge 24, Type (0, 0), BuildingBlock: KIFKEQ_clean_linker_1, # of connection points: 2
#     Edge 25, Type (0, 0), BuildingBlock: KIFKEQ_clean_linker_1, # of connection points: 2
#     Edge 26, Type (0, 0), BuildingBlock: KIFKEQ_clean_linker_1, # of connection points: 2
#     Edge 27, Type (0, 0), BuildingBlock: KIFKEQ_clean_linker_1, # of connection points: 2
#     Edge 28, Type (0, 0), BuildingBlock: KIFKEQ_clean_linker_1, # of connection points: 2
#     Edge 29, Type (0, 0), BuildingBlock: KIFKEQ_clean_linker_1, # of connection points: 2
# Relax obj value: 0.053
# Max RMSD: 0.062
# Mean RMSD: 0.062
data_MOF--net-ofo--node1-WUSLED_clean_sbu_0--edge1-KIFKEQ_clean_linker_1
_symmetry_space_group_name_H-M    P1
_symmetry_Int_Tables_number       1
_symmetry_cell_setting            triclinic
loop_
_symmetry_equiv_pos_as_xyz
'x, y, z'
_cell_length_a     36.454111
_cell_length_b     36.447454
_cell_length_c     91.560475
_cell_angle_alpha  90.014536
_cell_angle_beta   89.995813
_cell_angle_gamma 119.99605
loop_
_atom_site_label
_atom_site_type_symbol
_atom_site_fract_x
_atom_site_fract_y
_atom_site_fract_z
_atom_type_partial_charge
C0 C 0.41726 0.33622 0.11257 0.0
C1 C 0.44397 0.32585 0.12034 0.0
C2 C 0.4631 0.38498 0.137 0.0
C3 C 0.46663 0.34994 0.13245 0.0
C4 C 0.4361 0.39509 0.12916 0.0
C5 C 0.41341 0.37091 0.11705 0.0
U6 U 0.39335 0.24921 0.085 0.0
O7 O 0.33313 0.20019 0.07559 0.0
O8 O 0.38277 0.24687 0.06122 0.0
C9 C 0.34347 0.21562 0.06229 0.0
C10 C 0.39372 0.31128 0.09972 0.0
C11 C 0.31144 0.22099 0.05418 0.0
C12 C 0.25211 0.23395 0.05337 0.0
C13 C 0.28374 0.23148 0.06127 0.0
C14 C 0.27631 0.21675 0.03115 0.0
C15 C 0.24766 0.22613 0.03822 0.0
C16 C 0.30774 0.21413 0.03906 0.0
C17 C 0.45539 0.18924 0.08935 0.0
C18 C 0.43675 0.11923 0.08032 0.0
C19 C 0.50721 0.16584 0.08976 0.0
C20 C 0.49621 0.19684 0.09252 0.0
C21 C 0.4775 0.12643 0.08378 0.0
C22 C 0.42582 0.15041 0.08304 0.0
C23 C 0.44414 0.22153 0.09343 0.0
O24 O 0.41671 0.31732 0.08795 0.0
O25 O 0.36673 0.27107 0.10225 0.0
O26 O 0.40594 0.2074 0.09879 0.0
O27 O 0.45572 0.25318 0.08426 0.0
H28 H 0.44729 0.2991 0.11704 0.0
H29 H 0.48661 0.34084 0.13834 0.0
H30 H 0.43302 0.42212 0.13223 0.0
H31 H 0.39304 0.37946 0.11112 0.0
H32 H 0.23045 0.24089 0.05921 0.0
H33 H 0.28608 0.23707 0.07294 0.0
H34 H 0.27445 0.21136 0.01947 0.0
H35 H 0.32895 0.20625 0.03336 0.0
H36 H 0.41328 0.08943 0.07555 0.0
H37 H 0.53864 0.17231 0.09274 0.0
H38 H 0.51942 0.22654 0.09744 0.0
H39 H 0.39415 0.14396 0.08044 0.0
C40 C 0.09057 0.4166 0.77867 0.0
C41 C 0.12381 0.43635 0.78878 0.0
C42 C 0.08396 0.46221 0.80251 0.0
C43 C 0.12046 0.45879 0.80062 0.0
C44 C 0.05096 0.44279 0.79224 0.0
C45 C 0.05424 0.4201 0.78045 0.0
U46 U 0.15559 0.38953 0.75278 0.0
O47 O 0.14386 0.32768 0.74466 0.0
O48 O 0.14855 0.37587 0.72922 0.0
C49 C 0.13995 0.33656 0.73104 0.0
C50 C 0.09339 0.39221 0.76631 0.0
C51 C 0.10258 0.30384 0.72316 0.0
C52 C 0.02821 0.27038 0.71631 0.0
C53 C 0.06306 0.30159 0.72407 0.0
C54 C 0.07197 0.24317 0.70682 0.0
C55 C 0.03227 0.24083 0.70752 0.0
C56 C 0.1067 0.27435 0.71454 0.0
C57 C 0.27738 0.45101 0.75796 0.0
C58 C 0.3282 0.43251 0.74826 0.0
C59 C 0.35296 0.50034 0.76007 0.0
C60 C 0.31105 0.49013 0.7625 0.0
C61 C 0.36217 0.47156 0.75303 0.0
C62 C 0.28614 0.42235 0.75068 0.0
C63 C 0.23376 0.4406 0.76148 0.0
O64 O 0.11147 0.41417 0.75445 0.0
O65 O 0.10597 0.36513 0.76962 0.0
O66 O 0.20909 0.40303 0.76722 0.0
O67 O 0.21449 0.45135 0.75169 0.0
H68 H 0.1523 0.43432 0.78753 0.0
H69 H 0.14668 0.4739 0.80821 0.0
H70 H 0.02233 0.44456 0.79345 0.0
H71 H 0.02828 0.40509 0.77275 0.0
H72 H 0.99829 0.26981 0.71702 0.0
H73 H 0.05924 0.32407 0.73071 0.0
H74 H 0.07617 0.22055 0.70041 0.0
H75 H 0.13688 0.27542 0.71378 0.0
H76 H 0.3341 0.40979 0.74266 0.0
H77 H 0.37815 0.53037 0.76411 0.0
H78 H 0.30492 0.51261 0.76818 0.0
H79 H 0.26054 0.392 0.74703 0.0
C80 C 0.68575 0.08948 0.44338 0.0
C81 C 0.70049 0.12321 0.45333 0.0
C82 C 0.63517 0.08544 0.46739 0.0
C83 C 0.67552 0.12113 0.46525 0.0
C84 C 0.62028 0.05196 0.45726 0.0
C85 C 0.64545 0.05395 0.44538 0.0
U86 U 0.777 0.15283 0.41721 0.0
O87 O 0.82673 0.14092 0.40895 0.0
O88 O 0.78289 0.14533 0.39359 0.0
C89 C 0.81363 0.13678 0.39535 0.0
C90 C 0.71213 0.09118 0.43091 0.0
C91 C 0.80875 0.09924 0.38754 0.0
C92 C 0.78018 0.02312 0.38562 0.0
C93 C 0.78293 0.05814 0.393 0.0
C94 C 0.82845 0.06993 0.36715 0.0
C95 C 0.80324 0.02861 0.37266 0.0
C96 C 0.83118 0.10481 0.37453 0.0
C97 C 0.8379 0.27469 0.42258 0.0
C98 C 0.90626 0.32548 0.41223 0.0
C99 C 0.86548 0.35026 0.42561 0.0
C100 C 0.83365 0.30836 0.42795 0.0
C101 C 0.90239 0.35945 0.41782 0.0
C102 C 0.87423 0.28343 0.41458 0.0
C103 C 0.80463 0.23105 0.426 0.0
O104 O 0.70819 0.10918 0.41904 0.0
O105 O 0.75176 0.10321 0.43405 0.0
O106 O 0.81745 0.20621 0.43163 0.0
O107 O 0.77459 0.21201 0.41619 0.0
H108 H 0.73136 0.15113 0.4519 0.0
H109 H 0.68764 0.14771 0.47272 0.0
H110 H 0.58949 0.02394 0.45866 0.0
H111 H 0.63351 0.02766 0.43779 0.0
H112 H 0.76077 0.99186 0.39026 0.0
H113 H 0.76535 0.05323 0.40304 0.0
H114 H 0.84604 0.07537 0.35709 0.0
H115 H 0.85112 0.13629 0.37011 0.0
H116 H 0.93402 0.33139 0.40606 0.0
H117 H 0.86162 0.37542 0.43028 0.0
H118 H 0.80591 0.30223 0.43421 0.0
H119 H 0.87802 0.2578 0.4103 0.0
C120 C 0.61888 0.68866 0.11259 0.0
C121 C 0.59188 0.69877 0.12031 0.0
C122 C 0.5722 0.63913 0.13677 0.0
C123 C 0.56881 0.6743 0.1323 0.0
C124 C 0.59943 0.62924 0.12897 0.0
C125 C 0.62254 0.6538 0.11699 0.0
U126 U 0.6442 0.777 0.08549 0.0
O127 O 0.70522 0.8266 0.07668 0.0
O128 O 0.65646 0.78099 0.06185 0.0
C129 C 0.69567 0.81222 0.06324 0.0
C130 C 0.64311 0.71423 0.09995 0.0
C131 C 0.72807 0.80686 0.05548 0.0
C132 C 0.76693 0.76955 0.05144 0.0
C133 C 0.73587 0.77391 0.05901 0.0
C134 C 0.78263 0.83107 0.03681 0.0
C135 C 0.79069 0.79809 0.04022 0.0
C136 C 0.75163 0.83535 0.04436 0.0
C137 C 0.58162 0.83643 0.08971 0.0
C138 C 0.60033 0.90637 0.08059 0.0
C139 C 0.52994 0.86 0.09012 0.0
C140 C 0.54087 0.82898 0.09292 0.0
C141 C 0.55964 0.89929 0.08407 0.0
C142 C 0.6112 0.87515 0.08335 0.0
C143 C 0.59272 0.80402 0.09374 0.0
O144 O 0.62081 0.70876 0.08804 0.0
O145 O 0.66987 0.75431 0.10277 0.0
O146 O 0.6306 0.81797 0.09936 0.0
O147 O 0.58182 0.7729 0.08439 0.0
H148 H 0.58872 0.72566 0.11708 0.0
H149 H 0.54866 0.68324 0.13815 0.0
H150 H 0.60242 0.60211 0.13198 0.0
H151 H 0.64315 0.64547 0.11111 0.0
H152 H 0.77196 0.74355 0.05427 0.0
H153 H 0.7179 0.75156 0.06757 0.0
H154 H 0.80072 0.85406 0.02844 0.0
H155 H 0.74615 0.86109 0.04154 0.0
H156 H 0.6238 0.93607 0.07577 0.0
H157 H 0.49856 0.85364 0.09313 0.0
H158 H 0.51765 0.79936 0.09787 0.0
H159 H 0.64281 0.88148 0.08072 0.0
C160 C 0.94386 0.60433 0.77747 0.0
C161 C 0.9187 0.59653 0.78999 0.0
C162 C 0.95117 0.55922 0.80134 0.0
C163 C 0.92252 0.57443 0.80183 0.0
C164 C 0.97589 0.56655 0.78872 0.0
C165 C 0.97237 0.58908 0.77693 0.0
U166 U 0.87935 0.63377 0.75208 0.0
O167 O 0.893 0.69562 0.7435 0.0
O168 O 0.88473 0.64542 0.72832 0.0
C169 C 0.89553 0.68544 0.72991 0.0
C170 C 0.9408 0.62826 0.76496 0.0
C171 C 0.93307 0.71648 0.72161 0.0
C172 C 1.00727 0.77157 0.7204 0.0
C173 C 0.97281 0.74049 0.72832 0.0
C174 C 0.96307 0.75415 0.69887 0.0
C175 C 1.00276 0.77915 0.7056 0.0
C176 C 0.92864 0.72327 0.70681 0.0
C177 C 0.75812 0.57867 0.75941 0.0
C178 C 0.69819 0.56138 0.74341 0.0
C179 C 0.69002 0.56232 0.76963 0.0
C180 C 0.73245 0.57374 0.7715 0.0
C181 C 0.67207 0.55533 0.75558 0.0
C182 C 0.74083 0.5729 0.74531 0.0
C183 C 0.80174 0.58728 0.76204 0.0
O184 O 0.9205 0.60555 0.75347 0.0
O185 O 0.93107 0.65756 0.76813 0.0
O186 O 0.82866 0.62485 0.76731 0.0
O187 O 0.81846 0.57401 0.75209 0.0
H188 H 0.8961 0.60754 0.79063 0.0
H189 H 0.90262 0.56873 0.81132 0.0
H190 H 0.99837 0.55541 0.78806 0.0
H191 H 0.99203 0.5947 0.76737 0.0
H192 H 0.03714 0.79038 0.726 0.0
H193 H 0.97704 0.73573 0.73974 0.0
H194 H 0.95852 0.75842 0.68745 0.0
H195 H 0.89832 0.70495 0.70141 0.0
H196 H 0.6854 0.55606 0.73245 0.0
H197 H 0.6712 0.55885 0.77923 0.0
H198 H 0.74512 0.57809 0.78248 0.0
H199 H 0.75997 0.57652 0.73578 0.0
C200 C 0.35247 0.93812 0.44409 0.0
C201 C 0.33754 0.90415 0.45394 0.0
C202 C 0.40234 0.94184 0.46829 0.0
C203 C 0.36216 0.90605 0.46595 0.0
C204 C 0.41737 0.9756 0.45827 0.0
C205 C 0.39257 0.97376 0.4463 0.0
U206 U 0.25975 0.87541 0.4184 0.0
O207 O 0.21172 0.88927 0.4098 0.0
O208 O 0.25382 0.8812 0.39464 0.0
C209 C 0.22445 0.89178 0.39621 0.0
C210 C 0.32645 0.93654 0.43154 0.0
C211 C 0.23065 0.92914 0.38789 0.0
C212 C 0.25171 1.00383 0.38642 0.0
C213 C 0.24882 0.9695 0.3943 0.0
C214 C 0.21949 0.95812 0.36551 0.0
C215 C 0.23656 0.99846 0.37196 0.0
C216 C 0.21652 0.92388 0.3734 0.0
C217 C 0.19376 0.75407 0.42545 0.0
C218 C 0.14933 0.69556 0.40918 0.0
C219 C 0.14356 0.68497 0.43537 0.0
C220 C 0.17468 0.72728 0.43744 0.0
C221 C 0.13084 0.66832 0.42122 0.0
C222 C 0.18055 0.73808 0.41127 0.0
C223 C 0.22863 0.79763 0.42819 0.0
O224 O 0.32901 0.91665 0.41995 0.0
O225 O 0.28735 0.92661 0.43467 0.0
O226 O 0.21778 0.82439 0.43348 0.0
O227 O 0.25871 0.81456 0.41829 0.0
H228 H 0.30679 0.87617 0.45235 0.0
H229 H 0.34993 0.87925 0.47332 0.0
H230 H 0.44801 1.00372 0.45983 0.0
H231 H 0.40462 1.00025 0.4388 0.0
H232 H 0.2647 0.03427 0.3918 0.0
H233 H 0.26004 0.97431 0.40548 0.0
H234 H 0.20826 0.95291 0.35433 0.0
H235 H 0.2026 0.89304 0.36823 0.0
H236 H 0.14048 0.68377 0.39814 0.0
H237 H 0.12945 0.66527 0.4449 0.0
H238 H 0.1843 0.73899 0.44847 0.0
H239 H 0.19481 0.75817 0.40184 0.0
C240 C 0.68427 0.60424 0.2482 0.0
C241 C 0.69927 0.58524 0.23836 0.0
C242 C 0.63433 0.55772 0.22407 0.0
C243 C 0.67461 0.56235 0.22638 0.0
C244 C 0.61921 0.57637 0.23409 0.0
C245 C 0.64406 0.59953 0.24603 0.0
U246 U 0.77502 0.63239 0.27466 0.0
O247 O 0.82405 0.69394 0.2832 0.0
O248 O 0.77992 0.64505 0.29834 0.0
C249 C 0.81037 0.68454 0.29673 0.0
C250 C 0.71026 0.62881 0.26076 0.0
C251 C 0.80497 0.71677 0.30467 0.0
C252 C 0.78562 0.77174 0.30546 0.0
C253 C 0.78818 0.73969 0.29786 0.0
C254 C 0.81549 0.75753 0.32687 0.0
C255 C 0.79971 0.78142 0.32003 0.0
C256 C 0.81814 0.72565 0.31926 0.0
C257 C 0.83701 0.57234 0.26944 0.0
C258 C 0.90787 0.59217 0.27788 0.0
C259 C 0.86227 0.52208 0.26798 0.0
C260 C 0.83039 0.53216 0.26577 0.0
C261 C 0.90162 0.55205 0.27392 0.0
C262 C 0.8758 0.60221 0.27568 0.0
C263 C 0.80363 0.58256 0.26594 0.0
O264 O 0.70619 0.60669 0.27259 0.0
O265 O 0.74989 0.65671 0.25775 0.0
O266 O 0.81627 0.62027 0.26036 0.0
O267 O 0.77315 0.57101 0.2756 0.0
H268 H 0.73008 0.58815 0.23993 0.0
H269 H 0.68691 0.54785 0.219 0.0
H270 H 0.58847 0.57363 0.23256 0.0
H271 H 0.63193 0.6139 0.25354 0.0
H272 H 0.77364 0.78966 0.29978 0.0
H273 H 0.77769 0.73327 0.2866 0.0
H274 H 0.82587 0.76345 0.33814 0.0
H275 H 0.83096 0.70817 0.32474 0.0
H276 H 0.93758 0.61585 0.28263 0.0
H277 H 0.85646 0.49116 0.26459 0.0
H278 H 0.80074 0.50874 0.26088 0.0
H279 H 0.88151 0.63341 0.27865 0.0
C280 C 0.08856 0.68598 0.91293 0.0
C281 C 0.1208 0.70064 0.9024 0.0
C282 C 0.08123 0.63497 0.88862 0.0
C283 C 0.1171 0.67546 0.89033 0.0
C284 C 0.04921 0.62027 0.8993 0.0
C285 C 0.05283 0.64563 0.91133 0.0
U286 U 0.15476 0.77783 0.93867 0.0
O287 O 0.14273 0.82694 0.94758 0.0
O288 O 0.15013 0.78385 0.96243 0.0
C289 C 0.14043 0.81393 0.96111 0.0
C290 C 0.09192 0.71243 0.9256 0.0
C291 C 0.10329 0.80796 0.96945 0.0
C292 C 0.02855 0.76675 0.97575 0.0
C293 C 0.06352 0.77136 0.96782 0.0
C294 C 0.07278 0.83532 0.98694 0.0
C295 C 0.03273 0.79873 0.98542 0.0
C296 C 0.10764 0.83982 0.97905 0.0
C297 C 0.2759 0.84108 0.93143 0.0
C298 C 0.33451 0.88444 0.94781 0.0
C299 C 0.34554 0.89011 0.92164 0.0
C300 C 0.30303 0.85972 0.91949 0.0
C301 C 0.36206 0.9025 0.93582 0.0
C302 C 0.29178 0.85396 0.94564 0.0
C303 C 0.232 0.80708 0.92862 0.0
O304 O 0.11174 0.70886 0.93702 0.0
O305 O 0.10309 0.75193 0.92258 0.0
O306 O 0.20595 0.8191 0.92354 0.0
O307 O 0.21453 0.77675 0.93842 0.0
H308 H 0.14885 0.73158 0.90351 0.0
H309 H 0.14264 0.68745 0.88244 0.0
H310 H 0.02109 0.58939 0.89826 0.0
H311 H 0.02766 0.63376 0.91937 0.0
H312 H 0.99835 0.73798 0.97439 0.0
H313 H 0.05954 0.74642 0.96042 0.0
H314 H 0.07712 0.86093 0.99405 0.0
H315 H 0.13804 0.86843 0.98037 0.0
H316 H 0.34617 0.89305 0.95888 0.0
H317 H 0.36551 0.90393 0.91215 0.0
H318 H 0.29139 0.85036 0.90845 0.0
H319 H 0.27141 0.84004 0.95504 0.0
C320 C 0.4155 0.08691 0.57854 0.0
C321 C 0.44265 0.12423 0.57095 0.0
C322 C 0.46201 0.08457 0.55422 0.0
C323 C 0.46564 0.12307 0.5589 0.0
C324 C 0.43458 0.04723 0.56188 0.0
C325 C 0.41156 0.04844 0.57393 0.0
U326 U 0.39086 0.1494 0.60613 0.0
O327 O 0.33027 0.13798 0.61528 0.0
O328 O 0.37924 0.14038 0.62984 0.0
C329 C 0.33997 0.1323 0.6286 0.0
C330 C 0.39154 0.08802 0.59131 0.0
C331 C 0.3077 0.09402 0.63621 0.0
C332 C 0.25573 0.01872 0.63658 0.0
C333 C 0.28722 0.05437 0.62925 0.0
C334 C 0.26552 0.06175 0.65798 0.0
C335 C 0.24436 0.02201 0.65102 0.0
C336 C 0.29681 0.09736 0.65063 0.0
C337 C 0.45413 0.27167 0.6018 0.0
C338 C 0.43885 0.32319 0.61293 0.0
C339 C 0.50341 0.34703 0.59904 0.0
C340 C 0.49218 0.30496 0.59636 0.0
C341 C 0.47676 0.35679 0.60725 0.0
C342 C 0.42765 0.28095 0.61024 0.0
C343 C 0.4423 0.22793 0.59788 0.0
O344 O 0.41411 0.10455 0.60319 0.0
O345 O 0.36475 0.10144 0.58871 0.0
O346 O 0.40408 0.20426 0.59248 0.0
O347 O 0.45327 0.20763 0.60717 0.0
H348 H 0.44604 0.15425 0.57435 0.0
H349 H 0.48595 0.15233 0.55315 0.0
H350 H 0.4314 0.01714 0.5587 0.0
H351 H 0.39084 0.01934 0.57971 0.0
H352 H 0.24044 0.98853 0.63096 0.0
H353 H 0.2954 0.05106 0.61815 0.0
H354 H 0.25726 0.06557 0.66901 0.0
H355 H 0.31224 0.12768 0.65618 0.0
H356 H 0.4178 0.32953 0.61942 0.0
H357 H 0.53243 0.37191 0.59428 0.0
H358 H 0.51292 0.2984 0.58976 0.0
H359 H 0.39814 0.25561 0.61457 0.0
C360 C 0.34887 0.41898 0.24743 0.0
C361 C 0.33402 0.43794 0.23752 0.0
C362 C 0.39933 0.46575 0.22344 0.0
C363 C 0.35894 0.46097 0.22561 0.0
C364 C 0.41431 0.44715 0.23353 0.0
C365 C 0.3892 0.42387 0.2454 0.0
U366 U 0.25546 0.38803 0.27289 0.0
O367 O 0.20721 0.32571 0.28114 0.0
O368 O 0.2488 0.37524 0.29657 0.0
C369 C 0.21941 0.33538 0.29479 0.0
C370 C 0.32249 0.39409 0.25986 0.0
C371 C 0.22546 0.30391 0.30293 0.0
C372 C 0.254 0.25636 0.305 0.0
C373 C 0.25066 0.28797 0.2974 0.0
C374 C 0.20778 0.25707 0.32386 0.0
C375 C 0.23219 0.24015 0.31827 0.0
C376 C 0.20444 0.28854 0.31626 0.0
C377 C 0.18941 0.44351 0.26608 0.0
C378 C 0.149 0.46374 0.28206 0.0
C379 C 0.1355 0.45702 0.25604 0.0
C380 C 0.16651 0.44559 0.25412 0.0
C381 C 0.12675 0.46691 0.27 0.0
C382 C 0.18007 0.45218 0.28012 0.0
C383 C 0.22447 0.43501 0.26332 0.0
O384 O 0.32476 0.41611 0.27154 0.0
O385 O 0.28348 0.36507 0.25656 0.0
O386 O 0.21389 0.3977 0.25782 0.0
O387 O 0.25444 0.44786 0.27326 0.0
H388 H 0.30309 0.43484 0.23898 0.0
H389 H 0.34674 0.47543 0.21818 0.0
H390 H 0.44512 0.44998 0.2321 0.0
H391 H 0.40121 0.4095 0.25296 0.0
H392 H 0.27278 0.24388 0.3003 0.0
H393 H 0.26717 0.29947 0.28711 0.0
H394 H 0.19119 0.24598 0.33415 0.0
H395 H 0.185 0.30059 0.32073 0.0
H396 H 0.14329 0.47136 0.29295 0.0
H397 H 0.11847 0.45826 0.24653 0.0
H398 H 0.17313 0.43904 0.24318 0.0
H399 H 0.19728 0.45086 0.28956 0.0
C400 C 0.94479 0.33436 0.91172 0.0
C401 C 0.90839 0.33378 0.90643 0.0
C402 C 0.95024 0.3853 0.88765 0.0
C403 C 0.91111 0.35911 0.89453 0.0
C404 C 0.98657 0.38547 0.89294 0.0
C405 C 0.98384 0.36026 0.9049 0.0
U406 U 0.87937 0.24565 0.93853 0.0
O407 O 0.88908 0.19479 0.94716 0.0
O408 O 0.88717 0.24075 0.96216 0.0
C409 C 0.89414 0.20888 0.96065 0.0
C410 C 0.94219 0.30784 0.92425 0.0
C411 C 0.93142 0.213 0.96839 0.0
C412 C 1.00769 0.24605 0.97163 0.0
C413 C 0.97273 0.2432 0.96419 0.0
C414 C 0.96029 0.18875 0.98756 0.0
C415 C 1.0019 0.21866 0.98337 0.0
C416 C 0.92548 0.18597 0.98013 0.0
C417 C 0.75755 0.18875 0.93398 0.0
C418 C 0.70592 0.12146 0.94477 0.0
C419 C 0.68223 0.16304 0.93133 0.0
C420 C 0.72434 0.19394 0.92873 0.0
C421 C 0.67239 0.12615 0.93926 0.0
C422 C 0.74817 0.15254 0.94217 0.0
C423 C 0.80137 0.22066 0.93014 0.0
O424 O 0.92568 0.31353 0.93621 0.0
O425 O 0.92777 0.26766 0.92123 0.0
O426 O 0.8247 0.20602 0.9245 0.0
O427 O 0.82192 0.25122 0.93966 0.0
H428 H 0.87787 0.3137 0.91149 0.0
H429 H 0.88245 0.3578 0.8906 0.0
H430 H 1.01721 0.40556 0.88797 0.0
H431 H 1.01226 0.36107 0.90884 0.0
H432 H 0.03923 0.26917 0.96802 0.0
H433 H 0.9779 0.26433 0.95512 0.0
H434 H 0.95456 0.16763 0.99668 0.0
H435 H 0.8938 0.16259 0.98356 0.0
H436 H 0.69953 0.09371 0.95106 0.0
H437 H 0.65739 0.16751 0.92672 0.0
H438 H 0.73097 0.22161 0.92234 0.0
H439 H 0.77345 0.14804 0.94635 0.0
C440 C 0.62058 0.9383 0.57954 0.0
C441 C 0.59427 0.90137 0.57161 0.0
C442 C 0.57399 0.94125 0.55535 0.0
C443 C 0.57123 0.90283 0.55962 0.0
C444 C 0.60055 0.9782 0.56335 0.0
C445 C 0.62361 0.97669 0.57534 0.0
U446 U 0.64816 0.87514 0.60576 0.0
O447 O 0.70956 0.88803 0.61464 0.0
O448 O 0.65929 0.88114 0.6295 0.0
C449 C 0.69907 0.8909 0.62815 0.0
C450 C 0.6448 0.93686 0.59217 0.0
C451 C 0.73021 0.92847 0.63633 0.0
C452 C 0.76995 1.00474 0.64013 0.0
C453 C 0.73953 0.96943 0.63235 0.0
C454 C 0.78176 0.95842 0.65597 0.0
C455 C 0.79155 0.99969 0.65204 0.0
C456 C 0.75141 0.92324 0.64819 0.0
C457 C 0.58978 0.75345 0.59913 0.0
C458 C 0.57494 0.69531 0.61567 0.0
C459 C 0.56772 0.68324 0.58956 0.0
C460 C 0.5802 0.72579 0.58728 0.0
C461 C 0.56435 0.66723 0.60378 0.0
C462 C 0.58752 0.73808 0.61337 0.0
C463 C 0.59994 0.79736 0.59619 0.0
O464 O 0.62217 0.91799 0.60383 0.0
O465 O 0.67307 0.9256 0.58919 0.0
O466 O 0.63796 0.82308 0.59099 0.0
O467 O 0.58737 0.81529 0.60591 0.0
H468 H 0.59163 0.87143 0.57468 0.0
H469 H 0.55162 0.87389 0.5536 0.0
H470 H 0.60304 1.00819 0.56049 0.0
H471 H 0.6437 1.00548 0.58137 0.0
H472 H 0.77631 0.03595 0.63689 0.0
H473 H 0.72338 0.97405 0.62321 0.0
H474 H 0.79815 0.95327 0.66489 0.0
H475 H 0.74475 0.89186 0.65138 0.0
H476 H 0.5725 0.68404 0.62677 0.0
H477 H 0.56072 0.66285 0.58013 0.0
H478 H 0.58186 0.73703 0.57621 0.0
H479 H 0.59481 0.75889 0.6227 0.0
H480 H 0.43725 0.41937 0.15861 0.0
H481 H 0.54505 0.40967 0.14435 0.0
H482 H 0.47797 0.46191 0.17944 0.0
H483 H 0.58515 0.45083 0.1654 0.0
H484 H 0.66063 0.56146 0.1959 0.0
H485 H 0.61902 0.52085 0.17494 0.0
H486 H 0.50768 0.4583 0.20227 0.0
H487 H 0.54932 0.49968 0.22318 0.0
C488 C 0.46967 0.42643 0.15988 0.0
C489 C 0.48782 0.41102 0.14977 0.0
C490 C 0.49292 0.45054 0.17191 0.0
C491 C 0.53499 0.46009 0.17411 0.0
C492 C 0.55308 0.4447 0.16398 0.0
C493 C 0.52985 0.42055 0.15198 0.0
C494 C 0.62731 0.53886 0.19744 0.0
C495 C 0.60839 0.53358 0.21124 0.0
C496 C 0.60344 0.51543 0.18543 0.0
C497 C 0.56 0.48586 0.1869 0.0
C498 C 0.54093 0.481 0.20067 0.0
C499 C 0.56481 0.5047 0.21268 0.0
H500 H 0.05463 0.51837 0.80265 0.0
H501 H 0.1052 0.45971 0.831 0.0
H502 H 0.05052 0.55849 0.82333 0.0
H503 H 0.10177 0.50029 0.85161 0.0
H504 H 0.05439 0.55003 0.88823 0.0
H505 H 0.05173 0.50693 0.86743 0.0
H506 H 0.09793 0.61631 0.83929 0.0
H507 H 0.09983 0.65919 0.86004 0.0
C508 C 0.0647 0.5139 0.81331 0.0
C509 C 0.08044 0.48597 0.81516 0.0
C510 C 0.06271 0.53718 0.82514 0.0
C511 C 0.07582 0.53265 0.83914 0.0
C512 C 0.09099 0.50426 0.84101 0.0
C513 C 0.09337 0.4813 0.82917 0.0
C514 C 0.06347 0.56475 0.87757 0.0
C515 C 0.07762 0.60814 0.87582 0.0
C516 C 0.06227 0.54011 0.86566 0.0
C517 C 0.07479 0.55817 0.85168 0.0
C518 C 0.08778 0.60129 0.84987 0.0
C519 C 0.08932 0.62599 0.8618 0.0
H520 H 0.55022 0.05876 0.46807 0.0
H521 H 0.66077 0.1069 0.49568 0.0
H522 H 0.50811 0.05791 0.48893 0.0
H523 H 0.61871 0.10528 0.51658 0.0
H524 H 0.54429 0.14172 0.54724 0.0
H525 H 0.58486 0.14124 0.52624 0.0
H526 H 0.47767 0.02385 0.51157 0.0
H527 H 0.4365 0.0251 0.53235 0.0
C528 C 0.56544 0.0688 0.47863 0.0
C529 C 0.60895 0.08328 0.48018 0.0
C530 C 0.5413 0.06827 0.49061 0.0
C531 C 0.56002 0.08191 0.50446 0.0
C532 C 0.60339 0.09557 0.50603 0.0
C533 C 0.62752 0.09635 0.49405 0.0
C534 C 0.5292 0.11595 0.53948 0.0
C535 C 0.48703 0.08354 0.5415 0.0
C536 C 0.55269 0.11536 0.52751 0.0
C537 C 0.53473 0.08229 0.51722 0.0
C538 C 0.49254 0.04985 0.51923 0.0
C539 C 0.46902 0.05039 0.53123 0.0
H540 H 0.37353 0.4621 0.1952 0.0
H541 H 0.48437 0.52378 0.22271 0.0
H542 H 0.4155 0.50277 0.17432 0.0
H543 H 0.52639 0.56516 0.20186 0.0
H544 H 0.59751 0.60419 0.15835 0.0
H545 H 0.55636 0.56138 0.17906 0.0
H546 H 0.4496 0.57298 0.16488 0.0
H547 H 0.49011 0.61436 0.14392 0.0
C548 C 0.40682 0.48468 0.19681 0.0
C549 C 0.4255 0.48992 0.21065 0.0
C550 C 0.4309 0.50815 0.18484 0.0
C551 C 0.47431 0.53768 0.18639 0.0
C552 C 0.49315 0.54249 0.20021 0.0
C553 C 0.46906 0.51878 0.21218 0.0
C554 C 0.56509 0.59718 0.15955 0.0
C555 C 0.54718 0.61281 0.14944 0.0
C556 C 0.5416 0.57293 0.17153 0.0
C557 C 0.49954 0.56349 0.17366 0.0
C558 C 0.48167 0.57905 0.16351 0.0
C559 C 0.50513 0.60332 0.15157 0.0
H560 H 0.95284 0.48496 0.80088 0.0
H561 H 0.9582 0.58018 0.83024 0.0
H562 H 0.95467 0.44404 0.82169 0.0
H563 H 0.96137 0.54009 0.85105 0.0
H564 H 0.91263 0.4336 0.88475 0.0
H565 H 0.91514 0.47624 0.8639 0.0
H566 H 0.99738 0.44163 0.84122 0.0
H567 H 0.99413 0.39821 0.86204 0.0
C568 C 0.95489 0.49735 0.81178 0.0
C569 C 0.95487 0.53553 0.81394 0.0
C570 C 0.95602 0.47396 0.82373 0.0
C571 C 0.95766 0.48847 0.8381 0.0
C572 C 0.95903 0.5274 0.84018 0.0
C573 C 0.95738 0.55048 0.82826 0.0
C574 C 0.93114 0.43498 0.87529 0.0
C575 C 0.95304 0.41237 0.87504 0.0
C576 C 0.933 0.45984 0.86339 0.0
C577 C 0.95668 0.46265 0.85088 0.0
C578 C 0.97864 0.44005 0.85063 0.0
C579 C 0.97708 0.41543 0.86261 0.0
H580 H 0.49238 0.88328 0.54786 0.0
H581 H 0.59903 1.00226 0.53405 0.0
H582 H 0.45209 0.88423 0.52684 0.0
H583 H 0.55809 1.00393 0.51327 0.0
H584 H 0.48755 0.96976 0.46931 0.0
H585 H 0.52921 0.97048 0.49028 0.0
H586 H 0.41738 0.91993 0.51742 0.0
H587 H 0.37578 0.91867 0.49642 0.0
C588 C 0.50728 0.90968 0.54034 0.0
C589 C 0.54906 0.94261 0.54265 0.0
C590 C 0.48394 0.91051 0.52836 0.0
C591 C 0.50168 0.94432 0.51835 0.0
C592 C 0.54345 0.97732 0.52068 0.0
C593 C 0.56681 0.97655 0.5327 0.0
C594 C 0.47194 0.95903 0.47978 0.0
C595 C 0.42824 0.9438 0.48116 0.0
C596 C 0.49584 0.95945 0.49182 0.0
C597 C 0.47664 0.94487 0.50555 0.0
C598 C 0.43307 0.93041 0.50696 0.0
C599 C 0.4092 0.9298 0.49492 0.0
H600 H 0.42864 0.04178 0.08982 0.0
H601 H 0.5518 0.13444 0.07344 0.0
H602 H 0.44871 0.98738 0.08841 0.0
H603 H 0.57187 0.07994 0.07196 0.0
H604 H 0.60859 0.98407 0.08991 0.0
H605 H 0.58854 0.03848 0.08836 0.0
H606 H 0.46523 0.94559 0.07211 0.0
H607 H 0.48527 0.89111 0.07373 0.0
C608 C 0.45976 0.05041 0.08567 0.0
C609 C 0.48865 0.09257 0.0818 0.0
C610 C 0.4713 0.01917 0.08486 0.0
C611 C 0.51203 0.02923 0.08013 0.0
C612 C 0.54053 0.07118 0.0759 0.0
C613 C 0.529 0.10243 0.07673 0.0
C614 C 0.57745 0.97537 0.08577 0.0
C615 C 0.5485 0.93314 0.08201 0.0
C616 C 0.56591 1.00661 0.08488 0.0
C617 C 0.52515 0.99646 0.08017 0.0
C618 C 0.4966 0.95443 0.07604 0.0
C619 C 0.50812 0.92318 0.07695 0.0
H620 H 0.39488 0.41874 0.75657 0.0
H621 H 0.43135 0.54783 0.74562 0.0
H622 H 0.46889 0.43687 0.75554 0.0
H623 H 0.50549 0.56638 0.7452 0.0
H624 H 0.63409 0.58024 0.73492 0.0
H625 H 0.55895 0.55769 0.73257 0.0
H626 H 0.53129 0.47645 0.77018 0.0
H627 H 0.60577 0.49756 0.77215 0.0
C628 C 0.4186 0.4509 0.75379 0.0
C629 C 0.40705 0.48185 0.75127 0.0
C630 C 0.46116 0.46145 0.75338 0.0
C631 C 0.49334 0.50323 0.75043 0.0
C632 C 0.48165 0.53384 0.74742 0.0
C633 C 0.43909 0.5233 0.74783 0.0
C634 C 0.61187 0.55714 0.74256 0.0
C635 C 0.62614 0.54098 0.75379 0.0
C636 C 0.56882 0.54451 0.74131 0.0
C637 C 0.53894 0.51528 0.75121 0.0
C638 C 0.55319 0.49862 0.76225 0.0
C639 C 0.59612 0.51123 0.76351 0.0
H640 H 0.06539 0.63231 0.40141 0.0
H641 H 0.12412 0.60049 0.43636 0.0
H642 H 1.01213 0.5575 0.39875 0.0
H643 H 0.07009 0.5263 0.43414 0.0
H644 H 0.98814 0.39102 0.41978 0.0
H645 H 0.0445 0.46486 0.41884 0.0
H646 H 0.95156 0.50355 0.41177 0.0
H647 H 0.89544 0.42964 0.41206 0.0
C648 C 0.0671 0.60939 0.40848 0.0
C649 C 0.09894 0.62257 0.41917 0.0
C650 C 0.03629 0.56652 0.40705 0.0
C651 C 0.03664 0.53574 0.41626 0.0
C652 C 0.069 0.54891 0.42674 0.0
C653 C 0.09971 0.59166 0.42816 0.0
C654 C 0.97976 0.41518 0.41773 0.0
C655 C 0.93713 0.40427 0.41609 0.0
C656 C 1.01208 0.45764 0.41738 0.0
C657 C 1.00265 0.49034 0.41538 0.0
C658 C 0.96014 0.47931 0.41324 0.0
C659 C 0.92784 0.43687 0.41359 0.0
H660 H 0.89571 0.47733 0.28279 0.0
H661 H 0.9862 0.60343 0.26811 0.0
H662 H 0.95105 0.4584 0.28272 0.0
H663 H 0.04194 0.58505 0.26863 0.0
H664 H 0.11469 0.52052 0.25232 0.0
H665 H 0.06166 0.54205 0.25449 0.0
H666 H 1.01547 0.46954 0.2943 0.0
H667 H 0.06761 0.44647 0.29178 0.0
C668 C 0.92749 0.50115 0.27965 0.0
C669 C 0.93633 0.54183 0.27533 0.0
C670 C 0.95938 0.49042 0.27978 0.0
C671 C 1.00101 0.52008 0.27558 0.0
C672 C 1.01013 0.56118 0.27172 0.0
C673 C 0.97823 0.57191 0.2716 0.0
C674 C 0.09303 0.50882 0.26148 0.0
C675 C 0.09526 0.48138 0.2718 0.0
C676 C 0.06294 0.5217 0.26284 0.0
C677 C 0.03422 0.50764 0.27458 0.0
C678 C 0.03679 0.48067 0.28503 0.0
C679 C 0.06698 0.46777 0.28367 0.0
H680 H 0.60329 0.13497 0.94506 0.0
H681 H 0.6392 0.04013 0.93753 0.0
H682 H 0.52895 0.07991 0.94543 0.0
H683 H 0.56497 0.98488 0.93855 0.0
H684 H 0.4294 0.90762 0.92083 0.0
H685 H 0.50392 0.96049 0.92316 0.0
H686 H 0.47404 0.01989 0.95845 0.0
H687 H 0.39891 0.9678 0.95568 0.0
C688 C 0.59537 0.10233 0.94361 0.0
C689 C 0.62733 0.09212 0.94112 0.0
C690 C 0.55269 0.07065 0.944 0.0
C691 C 0.5408 0.02788 0.94192 0.0
C692 C 0.57287 0.01753 0.93997 0.0
C693 C 0.61555 0.04922 0.93957 0.0
C694 C 0.43859 0.93209 0.92903 0.0
C695 C 0.40797 0.93363 0.93796 0.0
C696 C 0.48152 0.96214 0.93051 0.0
C697 C 0.49517 0.99456 0.941 0.0
C698 C 0.46467 0.99566 0.95014 0.0
C699 C 0.4216 0.96551 0.94866 0.0
H700 H 0.50062 0.59969 0.58935 0.0
H701 H 0.59365 0.6306 0.62338 0.0
H702 H 0.47866 0.5251 0.59178 0.0
H703 H 0.57033 0.55543 0.62627 0.0
H704 H 0.55497 0.42587 0.61266 0.0
H705 H 0.57436 0.50023 0.61311 0.0
H706 H 0.44297 0.46429 0.6073 0.0
H707 H 0.42385 0.39 0.60618 0.0
C708 C 0.51634 0.59056 0.5974 0.0
C709 C 0.54927 0.62132 0.60605 0.0
C710 C 0.50328 0.54761 0.59894 0.0
C711 C 0.52267 0.53407 0.60923 0.0
C712 C 0.55499 0.56471 0.61812 0.0
C713 C 0.56809 0.6078 0.61657 0.0
C714 C 0.53018 0.4338 0.61146 0.0
C715 C 0.48787 0.40185 0.60922 0.0
C716 C 0.54126 0.4765 0.6119 0.0
C717 C 0.51031 0.48842 0.61014 0.0
C718 C 0.46776 0.45636 0.60847 0.0
C719 C 0.45669 0.41365 0.60801 0.0
H720 H 0.07655 0.28932 0.99136 0.0
H721 H 1.01109 0.1526 0.99301 0.0
H722 H 0.13674 0.29218 1.00415 0.0
H723 H 0.07028 0.15548 1.00627 0.0
H724 H 0.19943 0.17232 0.01632 0.0
H725 H 0.14216 0.17223 1.00269 0.0
H726 H 0.15735 0.27908 0.02795 0.0
H727 H 0.21615 0.28041 0.04118 0.0
C728 C 0.075 0.25987 0.99442 0.0
C729 C 0.03887 0.22073 0.99115 0.0
C730 C 0.10933 0.26152 1.00191 0.0
C731 C 0.10846 0.22406 1.00627 0.0
C732 C 0.07236 0.18497 1.00295 0.0
C733 C 0.03811 0.18333 0.99549 0.0
C734 C 0.19106 0.19624 0.01885 0.0
C735 C 0.21263 0.22645 0.02986 0.0
C736 C 0.15775 0.19582 1.01115 0.0
C737 C 0.14487 0.2255 0.01425 0.0
C738 C 0.16661 0.25596 0.02517 0.0
C739 C 0.20003 0.25641 0.03289 0.0
H740 H 0.85204 0.07644 0.641 0.0
H741 H 0.80642 1.00785 0.68157 0.0
H742 H 0.9079 0.13645 0.65423 0.0
H743 H 0.86335 0.06705 0.6947 0.0
H744 H 0.94903 0.1944 0.71615 0.0
H745 H 0.88945 0.13883 0.70263 0.0
H746 H 0.97291 0.15507 0.66665 0.0
H747 H 0.03193 0.2118 0.67986 0.0
C748 C 0.85371 0.07421 0.65275 0.0
C749 C 0.82472 0.03713 0.66018 0.0
C750 C 0.88612 0.10849 0.66033 0.0
C751 C 0.89042 0.10663 0.67555 0.0
C752 C 0.86088 0.06986 0.68301 0.0
C753 C 0.82849 0.03562 0.67544 0.0
C754 C 0.95457 0.18656 0.70527 0.0
C755 C 0.99544 0.20758 0.69915 0.0
C756 C 0.92045 0.1543 0.69757 0.0
C757 C 0.92628 0.14222 0.68354 0.0
C758 C 0.96703 0.16373 0.67735 0.0
C759 C 1.00108 0.19596 0.68503 0.0
H760 H 0.7346 0.94908 0.36825 0.0
H761 H 0.86888 0.02441 0.3598 0.0
H762 H 0.73302 0.88887 0.35592 0.0
H763 H 0.86696 0.96503 0.34699 0.0
H764 H 0.8597 0.83898 0.33867 0.0
H765 H 0.85919 0.89686 0.35169 0.0
H766 H 0.73903 0.86406 0.33191 0.0
H767 H 0.73862 0.80475 0.31935 0.0
C768 C 0.76379 0.95283 0.36378 0.0
C769 C 0.80186 0.99172 0.36503 0.0
C770 C 0.76279 0.91843 0.35655 0.0
C771 C 0.79986 0.92198 0.35044 0.0
C772 C 0.83787 0.96087 0.3517 0.0
C773 C 0.83887 0.99519 0.35891 0.0
C774 C 0.83283 0.84364 0.33722 0.0
C775 C 0.79913 0.81696 0.32796 0.0
C776 C 0.83282 0.87729 0.34456 0.0
C777 C 0.79917 0.88539 0.34282 0.0
C778 C 0.7653 0.85859 0.33363 0.0
C779 C 0.76531 0.82485 0.32627 0.0
H780 H 0.80912 0.8097 1.01097 0.0
H781 H 0.84803 0.7772 0.05119 0.0
H782 H 0.86628 0.80741 0.99804 0.0
H783 H 0.90411 0.773 0.03811 0.0
H784 H 0.03047 0.8222 0.01373 0.0
H785 H 0.97107 0.81954 0.02681 0.0
H786 H 0.89063 0.76118 0.98932 0.0
H787 H 0.95063 0.76569 0.97598 0.0
C788 C 0.82978 0.80192 0.01706 0.0
C789 C 0.82407 0.79398 0.03217 0.0
C790 C 0.86229 0.80004 1.00959 0.0
C791 C 0.88998 0.79008 0.01701 0.0
C792 C 0.88376 0.78131 0.03207 0.0
C793 C 0.85124 0.78322 0.03955 0.0
C794 C 1.0002 0.80904 1.00822 0.0
C795 C 0.99555 0.79447 0.99373 0.0
C796 C 0.96591 0.80699 0.01581 0.0
C797 C 0.92594 0.79021 1.00914 0.0
C798 C 0.92104 0.77482 0.99476 0.0
C799 C 0.95538 0.77693 0.98715 0.0
H800 H 0.24286 0.99783 0.67948 0.0
H801 H 0.16786 0.96137 0.64004 0.0
H802 H 0.18506 0.93854 0.69242 0.0
H803 H 0.11052 0.90145 0.65287 0.0
H804 H 1.00018 0.83343 0.68541 0.0
H805 H 0.05879 0.89005 0.67201 0.0
H806 H 0.14615 0.86063 0.69366 0.0
H807 H 0.08736 0.80342 0.70698 0.0
C808 C 0.21408 0.9771 0.67356 0.0
C809 C 0.20998 0.9845 0.65873 0.0
C810 C 0.1811 0.94285 0.68094 0.0
C811 C 0.14307 0.91526 0.6737 0.0
C812 C 0.13919 0.92234 0.65882 0.0
C813 C 0.17226 0.95644 0.65142 0.0
C814 C 0.03175 0.83851 0.68719 0.0
C815 C 0.03884 0.81359 0.69729 0.0
C816 C 0.06543 0.8711 0.67949 0.0
C817 C 0.10721 0.87989 0.68172 0.0
C818 C 0.11442 0.85505 0.69181 0.0
C819 C 0.08067 0.82227 0.69947 0.0
H820 H 0.29874 0.08254 0.37169 0.0
H821 H 0.17558 0.99567 0.35375 0.0
H822 H 0.29824 0.14102 0.35887 0.0
H823 H 0.17595 0.05359 0.34047 0.0
H824 H 0.16733 0.17183 0.33205 0.0
H825 H 0.1696 0.11488 0.34507 0.0
H826 H 0.30248 0.17038 0.33469 0.0
H827 H 0.30062 0.22858 0.32215 0.0
C828 C 0.27159 0.07585 0.36501 0.0
C829 C 0.23719 0.03426 0.3638 0.0
C830 C 0.27152 0.10935 0.35751 0.0
C831 C 0.23702 0.10214 0.34863 0.0
C832 C 0.20283 0.06051 0.34734 0.0
C833 C 0.20289 0.0271 0.35483 0.0
C834 C 0.19721 0.17227 0.33268 0.0
C835 C 0.23384 0.20503 0.32608 0.0
C836 C 0.19839 0.13921 0.34 0.0
C837 C 0.23619 0.13781 0.34091 0.0
C838 C 0.27289 0.17059 0.33433 0.0
C839 C 0.27171 0.20373 0.32699 0.0
loop_
_geom_bond_atom_site_label_1
_geom_bond_atom_site_label_2
_geom_bond_distance
_geom_bond_site_symmetry_2
_ccdc_geom_bond_type
C0 C1 1.264 . S
C0 C5 1.479 . S
C0 C10 1.465 . S
C1 C0 1.264 . S
C1 C3 1.339 . S
C1 H28 0.931 . S
C2 C3 1.395 . S
C2 C4 1.320 . S
C3 C1 1.339 . S
C3 C2 1.395 . S
C3 H29 0.929 . S
C4 C2 1.320 . S
C4 C5 1.405 . S
C4 H30 0.930 . S
C5 C0 1.479 . S
C5 C4 1.405 . S
C5 H31 0.931 . S
U6 O7 2.454 . S
U6 O8 2.458 . S
U6 C9 2.984 . S
U6 C10 2.847 . S
U6 C23 2.882 . S
U6 O24 2.441 . S
U6 O25 2.420 . S
U6 O26 2.455 . S
U6 O27 2.449 . S
O7 U6 2.454 . S
O7 C9 1.353 . S
O8 U6 2.458 . S
O8 C9 1.286 . S
C9 U6 2.984 . S
C9 O7 1.353 . S
C9 O8 1.286 . S
C9 C11 1.363 . S
C10 C0 1.465 . S
C10 U6 2.847 . S
C10 O24 1.249 . S
C10 O25 1.202 . S
C11 C9 1.363 . S
C11 C13 1.408 . S
C11 C16 1.342 . S
C12 C13 1.310 . S
C12 C15 1.461 . S
C12 H32 0.932 . S
C13 C11 1.408 . S
C13 C12 1.310 . S
C13 H33 0.930 . S
C14 C15 1.474 . S
C14 C16 1.285 . S
C14 H34 0.929 1_554 S
C15 C12 1.461 . S
C15 C14 1.474 . S
C16 C11 1.342 . S
C16 C14 1.285 . S
C16 H35 0.930 . S
C17 C20 1.424 . S
C17 C22 1.245 . S
C17 C23 1.428 . S
C18 C21 1.260 . S
C18 C22 1.477 . S
C18 H36 0.932 . S
C19 C20 1.384 . S
C19 C21 1.479 . S
C19 H37 0.929 . S
C20 C17 1.424 . S
C20 C19 1.384 . S
C20 H38 0.928 . S
C21 C18 1.260 . S
C21 C19 1.479 . S
C22 C17 1.245 . S
C22 C18 1.477 . S
C22 H39 0.932 . S
C23 U6 2.882 . S
C23 C17 1.428 . S
C23 O26 1.301 . S
C23 O27 1.282 . S
O24 U6 2.441 . S
O24 C10 1.249 . S
O25 U6 2.420 . S
O25 C10 1.202 . S
O26 U6 2.455 . S
O26 C23 1.301 . S
O27 U6 2.449 . S
O27 C23 1.282 . S
H28 C1 0.931 . S
H29 C3 0.929 . S
H30 C4 0.930 . S
H31 C5 0.931 . S
H32 C12 0.932 . S
H33 C13 0.930 . S
H34 C14 0.929 1_556 S
H35 C16 0.930 . S
H36 C18 0.932 . S
H37 C19 0.929 . S
H38 C20 0.928 . S
H39 C22 0.932 . S
C40 C41 1.264 . S
C40 C45 1.479 . S
C40 C50 1.465 . S
C41 C40 1.264 . S
C41 C43 1.339 . S
C41 H68 0.931 . S
C42 C43 1.395 . S
C42 C44 1.320 . S
C43 C41 1.339 . S
C43 C42 1.395 . S
C43 H69 0.929 . S
C44 C42 1.320 . S
C44 C45 1.405 . S
C44 H70 0.930 . S
C45 C40 1.479 . S
C45 C44 1.405 . S
C45 H71 0.931 . S
U46 O47 2.454 . S
U46 O48 2.458 . S
U46 C49 2.984 . S
U46 C50 2.847 . S
U46 C63 2.882 . S
U46 O64 2.441 . S
U46 O65 2.420 . S
U46 O66 2.455 . S
U46 O67 2.449 . S
O47 U46 2.454 . S
O47 C49 1.353 . S
O48 U46 2.458 . S
O48 C49 1.286 . S
C49 U46 2.984 . S
C49 O47 1.353 . S
C49 O48 1.286 . S
C49 C51 1.363 . S
C50 C40 1.465 . S
C50 U46 2.847 . S
C50 O64 1.249 . S
C50 O65 1.202 . S
C51 C49 1.363 . S
C51 C53 1.408 . S
C51 C56 1.342 . S
C52 C53 1.310 1_655 S
C52 C55 1.461 . S
C52 H72 0.932 . S
C53 C51 1.408 . S
C53 C52 1.310 1_455 S
C53 H73 0.930 . S
C54 C55 1.474 1_455 S
C54 C56 1.285 . S
C54 H74 0.929 . S
C55 C52 1.461 . S
C55 C54 1.474 1_655 S
C56 C51 1.342 . S
C56 C54 1.285 . S
C56 H75 0.930 . S
C57 C60 1.424 . S
C57 C62 1.245 . S
C57 C63 1.428 . S
C58 C61 1.260 . S
C58 C62 1.477 . S
C58 H76 0.932 . S
C59 C60 1.384 . S
C59 C61 1.479 . S
C59 H77 0.929 . S
C60 C57 1.424 . S
C60 C59 1.384 . S
C60 H78 0.928 . S
C61 C58 1.260 . S
C61 C59 1.479 . S
C62 C57 1.245 . S
C62 C58 1.477 . S
C62 H79 0.932 . S
C63 U46 2.882 . S
C63 C57 1.428 . S
C63 O66 1.301 . S
C63 O67 1.282 . S
O64 U46 2.441 . S
O64 C50 1.249 . S
O65 U46 2.420 . S
O65 C50 1.202 . S
O66 U46 2.455 . S
O66 C63 1.301 . S
O67 U46 2.449 . S
O67 C63 1.282 . S
H68 C41 0.931 . S
H69 C43 0.929 . S
H70 C44 0.930 . S
H71 C45 0.931 . S
H72 C52 0.932 . S
H73 C53 0.930 . S
H74 C54 0.929 . S
H75 C56 0.930 . S
H76 C58 0.932 . S
H77 C59 0.929 . S
H78 C60 0.928 . S
H79 C62 0.932 . S
C80 C81 1.264 . S
C80 C85 1.479 . S
C80 C90 1.465 . S
C81 C80 1.264 . S
C81 C83 1.339 . S
C81 H108 0.931 . S
C82 C83 1.395 . S
C82 C84 1.320 . S
C83 C81 1.339 . S
C83 C82 1.395 . S
C83 H109 0.929 . S
C84 C82 1.320 . S
C84 C85 1.405 . S
C84 H110 0.930 . S
C85 C80 1.479 . S
C85 C84 1.405 . S
C85 H111 0.931 . S
U86 O87 2.454 . S
U86 O88 2.458 . S
U86 C89 2.984 . S
U86 C90 2.847 . S
U86 C103 2.882 . S
U86 O104 2.441 . S
U86 O105 2.420 . S
U86 O106 2.455 . S
U86 O107 2.449 . S
O87 U86 2.454 . S
O87 C89 1.353 . S
O88 U86 2.458 . S
O88 C89 1.286 . S
C89 U86 2.984 . S
C89 O87 1.353 . S
C89 O88 1.286 . S
C89 C91 1.363 . S
C90 C80 1.465 . S
C90 U86 2.847 . S
C90 O104 1.249 . S
C90 O105 1.202 . S
C91 C89 1.363 . S
C91 C93 1.408 . S
C91 C96 1.342 . S
C92 C93 1.310 1_565 S
C92 C95 1.461 . S
C92 H112 0.932 . S
C93 C91 1.408 . S
C93 C92 1.310 1_545 S
C93 H113 0.930 . S
C94 C95 1.474 1_545 S
C94 C96 1.285 . S
C94 H114 0.929 . S
C95 C92 1.461 . S
C95 C94 1.474 1_565 S
C96 C91 1.342 . S
C96 C94 1.285 . S
C96 H115 0.930 . S
C97 C100 1.424 . S
C97 C102 1.245 . S
C97 C103 1.428 . S
C98 C101 1.260 . S
C98 C102 1.477 . S
C98 H116 0.932 . S
C99 C100 1.384 . S
C99 C101 1.479 . S
C99 H117 0.929 . S
C100 C97 1.424 . S
C100 C99 1.384 . S
C100 H118 0.928 . S
C101 C98 1.260 . S
C101 C99 1.479 . S
C102 C97 1.245 . S
C102 C98 1.477 . S
C102 H119 0.932 . S
C103 U86 2.882 . S
C103 C97 1.428 . S
C103 O106 1.301 . S
C103 O107 1.282 . S
O104 U86 2.441 . S
O104 C90 1.249 . S
O105 U86 2.420 . S
O105 C90 1.202 . S
O106 U86 2.455 . S
O106 C103 1.301 . S
O107 U86 2.449 . S
O107 C103 1.282 . S
H108 C81 0.931 . S
H109 C83 0.929 . S
H110 C84 0.930 . S
H111 C85 0.931 . S
H112 C92 0.932 . S
H113 C93 0.930 . S
H114 C94 0.929 . S
H115 C96 0.930 . S
H116 C98 0.932 . S
H117 C99 0.929 . S
H118 C100 0.928 . S
H119 C102 0.932 . S
C120 C121 1.264 . S
C120 C125 1.479 . S
C120 C130 1.465 . S
C121 C120 1.264 . S
C121 C123 1.339 . S
C121 H148 0.931 . S
C122 C123 1.395 . S
C122 C124 1.320 . S
C123 C121 1.339 . S
C123 C122 1.395 . S
C123 H149 0.929 . S
C124 C122 1.320 . S
C124 C125 1.405 . S
C124 H150 0.930 . S
C125 C120 1.479 . S
C125 C124 1.405 . S
C125 H151 0.931 . S
U126 O127 2.454 . S
U126 O128 2.458 . S
U126 C129 2.984 . S
U126 C130 2.847 . S
U126 C143 2.882 . S
U126 O144 2.441 . S
U126 O145 2.420 . S
U126 O146 2.455 . S
U126 O147 2.449 . S
O127 U126 2.454 . S
O127 C129 1.353 . S
O128 U126 2.458 . S
O128 C129 1.286 . S
C129 U126 2.984 . S
C129 O127 1.353 . S
C129 O128 1.286 . S
C129 C131 1.363 . S
C130 C120 1.465 . S
C130 U126 2.847 . S
C130 O144 1.249 . S
C130 O145 1.202 . S
C131 C129 1.363 . S
C131 C133 1.408 . S
C131 C136 1.342 . S
C132 C133 1.310 . S
C132 C135 1.461 . S
C132 H152 0.932 . S
C133 C131 1.408 . S
C133 C132 1.310 . S
C133 H153 0.930 . S
C134 C135 1.474 . S
C134 C136 1.285 . S
C134 H154 0.929 1_554 S
C135 C132 1.461 . S
C135 C134 1.474 . S
C136 C131 1.342 . S
C136 C134 1.285 . S
C136 H155 0.930 . S
C137 C140 1.424 . S
C137 C142 1.245 . S
C137 C143 1.428 . S
C138 C141 1.260 . S
C138 C142 1.477 . S
C138 H156 0.932 . S
C139 C140 1.384 . S
C139 C141 1.479 . S
C139 H157 0.929 . S
C140 C137 1.424 . S
C140 C139 1.384 . S
C140 H158 0.928 . S
C141 C138 1.260 . S
C141 C139 1.479 . S
C142 C137 1.245 . S
C142 C138 1.477 . S
C142 H159 0.932 . S
C143 U126 2.882 . S
C143 C137 1.428 . S
C143 O146 1.301 . S
C143 O147 1.282 . S
O144 U126 2.441 . S
O144 C130 1.249 . S
O145 U126 2.420 . S
O145 C130 1.202 . S
O146 U126 2.455 . S
O146 C143 1.301 . S
O147 U126 2.449 . S
O147 C143 1.282 . S
H148 C121 0.931 . S
H149 C123 0.929 . S
H150 C124 0.930 . S
H151 C125 0.931 . S
H152 C132 0.932 . S
H153 C133 0.930 . S
H154 C134 0.929 1_556 S
H155 C136 0.930 . S
H156 C138 0.932 . S
H157 C139 0.929 . S
H158 C140 0.928 . S
H159 C142 0.932 . S
C160 C161 1.264 . S
C160 C165 1.479 . S
C160 C170 1.465 . S
C161 C160 1.264 . S
C161 C163 1.339 . S
C161 H188 0.931 . S
C162 C163 1.395 . S
C162 C164 1.320 . S
C163 C161 1.339 . S
C163 C162 1.395 . S
C163 H189 0.929 . S
C164 C162 1.320 . S
C164 C165 1.405 . S
C164 H190 0.930 . S
C165 C160 1.479 . S
C165 C164 1.405 . S
C165 H191 0.931 . S
U166 O167 2.454 . S
U166 O168 2.458 . S
U166 C169 2.984 . S
U166 C170 2.847 . S
U166 C183 2.882 . S
U166 O184 2.441 . S
U166 O185 2.420 . S
U166 O186 2.455 . S
U166 O187 2.449 . S
O167 U166 2.454 . S
O167 C169 1.353 . S
O168 U166 2.458 . S
O168 C169 1.286 . S
C169 U166 2.984 . S
C169 O167 1.353 . S
C169 O168 1.286 . S
C169 C171 1.363 . S
C170 C160 1.465 . S
C170 U166 2.847 . S
C170 O184 1.249 . S
C170 O185 1.202 . S
C171 C169 1.363 . S
C171 C173 1.408 . S
C171 C176 1.342 . S
C172 C173 1.310 1_455 S
C172 C175 1.461 . S
C172 H192 0.932 . S
C173 C171 1.408 . S
C173 C172 1.310 1_655 S
C173 H193 0.930 . S
C174 C175 1.474 1_655 S
C174 C176 1.285 . S
C174 H194 0.929 . S
C175 C172 1.461 . S
C175 C174 1.474 1_455 S
C176 C171 1.342 . S
C176 C174 1.285 . S
C176 H195 0.930 . S
C177 C180 1.424 . S
C177 C182 1.245 . S
C177 C183 1.428 . S
C178 C181 1.260 . S
C178 C182 1.477 . S
C178 H196 0.932 . S
C179 C180 1.384 . S
C179 C181 1.479 . S
C179 H197 0.929 . S
C180 C177 1.424 . S
C180 C179 1.384 . S
C180 H198 0.928 . S
C181 C178 1.260 . S
C181 C179 1.479 . S
C182 C177 1.245 . S
C182 C178 1.477 . S
C182 H199 0.932 . S
C183 U166 2.882 . S
C183 C177 1.428 . S
C183 O186 1.301 . S
C183 O187 1.282 . S
O184 U166 2.441 . S
O184 C170 1.249 . S
O185 U166 2.420 . S
O185 C170 1.202 . S
O186 U166 2.455 . S
O186 C183 1.301 . S
O187 U166 2.449 . S
O187 C183 1.282 . S
H188 C161 0.931 . S
H189 C163 0.929 . S
H190 C164 0.930 . S
H191 C165 0.931 . S
H192 C172 0.932 . S
H193 C173 0.930 . S
H194 C174 0.929 . S
H195 C176 0.930 . S
H196 C178 0.932 . S
H197 C179 0.929 . S
H198 C180 0.928 . S
H199 C182 0.932 . S
C200 C201 1.264 . S
C200 C205 1.479 . S
C200 C210 1.465 . S
C201 C200 1.264 . S
C201 C203 1.339 . S
C201 H228 0.931 . S
C202 C203 1.395 . S
C202 C204 1.320 . S
C203 C201 1.339 . S
C203 C202 1.395 . S
C203 H229 0.929 . S
C204 C202 1.320 . S
C204 C205 1.405 . S
C204 H230 0.930 . S
C205 C200 1.479 . S
C205 C204 1.405 . S
C205 H231 0.931 . S
U206 O207 2.454 . S
U206 O208 2.458 . S
U206 C209 2.984 . S
U206 C210 2.847 . S
U206 C223 2.882 . S
U206 O224 2.441 . S
U206 O225 2.420 . S
U206 O226 2.455 . S
U206 O227 2.449 . S
O207 U206 2.454 . S
O207 C209 1.353 . S
O208 U206 2.458 . S
O208 C209 1.286 . S
C209 U206 2.984 . S
C209 O207 1.353 . S
C209 O208 1.286 . S
C209 C211 1.363 . S
C210 C200 1.465 . S
C210 U206 2.847 . S
C210 O224 1.249 . S
C210 O225 1.202 . S
C211 C209 1.363 . S
C211 C213 1.408 . S
C211 C216 1.342 . S
C212 C213 1.310 1_545 S
C212 C215 1.461 . S
C212 H232 0.932 . S
C213 C211 1.408 . S
C213 C212 1.310 1_565 S
C213 H233 0.930 . S
C214 C215 1.474 1_565 S
C214 C216 1.285 . S
C214 H234 0.929 . S
C215 C212 1.461 . S
C215 C214 1.474 1_545 S
C216 C211 1.342 . S
C216 C214 1.285 . S
C216 H235 0.930 . S
C217 C220 1.424 . S
C217 C222 1.245 . S
C217 C223 1.428 . S
C218 C221 1.260 . S
C218 C222 1.477 . S
C218 H236 0.932 . S
C219 C220 1.384 . S
C219 C221 1.479 . S
C219 H237 0.929 . S
C220 C217 1.424 . S
C220 C219 1.384 . S
C220 H238 0.928 . S
C221 C218 1.260 . S
C221 C219 1.479 . S
C222 C217 1.245 . S
C222 C218 1.477 . S
C222 H239 0.932 . S
C223 U206 2.882 . S
C223 C217 1.428 . S
C223 O226 1.301 . S
C223 O227 1.282 . S
O224 U206 2.441 . S
O224 C210 1.249 . S
O225 U206 2.420 . S
O225 C210 1.202 . S
O226 U206 2.455 . S
O226 C223 1.301 . S
O227 U206 2.449 . S
O227 C223 1.282 . S
H228 C201 0.931 . S
H229 C203 0.929 . S
H230 C204 0.930 . S
H231 C205 0.931 . S
H232 C212 0.932 . S
H233 C213 0.930 . S
H234 C214 0.929 . S
H235 C216 0.930 . S
H236 C218 0.932 . S
H237 C219 0.929 . S
H238 C220 0.928 . S
H239 C222 0.932 . S
C240 C241 1.264 . S
C240 C245 1.479 . S
C240 C250 1.465 . S
C241 C240 1.264 . S
C241 C243 1.339 . S
C241 H268 0.931 . S
C242 C243 1.395 . S
C242 C244 1.320 . S
C243 C241 1.339 . S
C243 C242 1.395 . S
C243 H269 0.929 . S
C244 C242 1.320 . S
C244 C245 1.405 . S
C244 H270 0.930 . S
C245 C240 1.479 . S
C245 C244 1.405 . S
C245 H271 0.931 . S
U246 O247 2.454 . S
U246 O248 2.458 . S
U246 C249 2.984 . S
U246 C250 2.847 . S
U246 C263 2.882 . S
U246 O264 2.441 . S
U246 O265 2.420 . S
U246 O266 2.455 . S
U246 O267 2.449 . S
O247 U246 2.454 . S
O247 C249 1.353 . S
O248 U246 2.458 . S
O248 C249 1.286 . S
C249 U246 2.984 . S
C249 O247 1.353 . S
C249 O248 1.286 . S
C249 C251 1.363 . S
C250 C240 1.465 . S
C250 U246 2.847 . S
C250 O264 1.249 . S
C250 O265 1.202 . S
C251 C249 1.363 . S
C251 C253 1.408 . S
C251 C256 1.342 . S
C252 C253 1.310 . S
C252 C255 1.461 . S
C252 H272 0.932 . S
C253 C251 1.408 . S
C253 C252 1.310 . S
C253 H273 0.930 . S
C254 C255 1.474 . S
C254 C256 1.285 . S
C254 H274 0.929 . S
C255 C252 1.461 . S
C255 C254 1.474 . S
C256 C251 1.342 . S
C256 C254 1.285 . S
C256 H275 0.930 . S
C257 C260 1.424 . S
C257 C262 1.245 . S
C257 C263 1.428 . S
C258 C261 1.260 . S
C258 C262 1.477 . S
C258 H276 0.932 . S
C259 C260 1.384 . S
C259 C261 1.479 . S
C259 H277 0.929 . S
C260 C257 1.424 . S
C260 C259 1.384 . S
C260 H278 0.928 . S
C261 C258 1.260 . S
C261 C259 1.479 . S
C262 C257 1.245 . S
C262 C258 1.477 . S
C262 H279 0.932 . S
C263 U246 2.882 . S
C263 C257 1.428 . S
C263 O266 1.301 . S
C263 O267 1.282 . S
O264 U246 2.441 . S
O264 C250 1.249 . S
O265 U246 2.420 . S
O265 C250 1.202 . S
O266 U246 2.455 . S
O266 C263 1.301 . S
O267 U246 2.449 . S
O267 C263 1.282 . S
H268 C241 0.931 . S
H269 C243 0.929 . S
H270 C244 0.930 . S
H271 C245 0.931 . S
H272 C252 0.932 . S
H273 C253 0.930 . S
H274 C254 0.929 . S
H275 C256 0.930 . S
H276 C258 0.932 . S
H277 C259 0.929 . S
H278 C260 0.928 . S
H279 C262 0.932 . S
C280 C281 1.264 . S
C280 C285 1.479 . S
C280 C290 1.465 . S
C281 C280 1.264 . S
C281 C283 1.339 . S
C281 H308 0.931 . S
C282 C283 1.395 . S
C282 C284 1.320 . S
C283 C281 1.339 . S
C283 C282 1.395 . S
C283 H309 0.929 . S
C284 C282 1.320 . S
C284 C285 1.405 . S
C284 H310 0.930 . S
C285 C280 1.479 . S
C285 C284 1.405 . S
C285 H311 0.931 . S
U286 O287 2.454 . S
U286 O288 2.458 . S
U286 C289 2.984 . S
U286 C290 2.847 . S
U286 C303 2.882 . S
U286 O304 2.441 . S
U286 O305 2.420 . S
U286 O306 2.455 . S
U286 O307 2.449 . S
O287 U286 2.454 . S
O287 C289 1.353 . S
O288 U286 2.458 . S
O288 C289 1.286 . S
C289 U286 2.984 . S
C289 O287 1.353 . S
C289 O288 1.286 . S
C289 C291 1.363 . S
C290 C280 1.465 . S
C290 U286 2.847 . S
C290 O304 1.249 . S
C290 O305 1.202 . S
C291 C289 1.363 . S
C291 C293 1.408 . S
C291 C296 1.342 . S
C292 C293 1.310 1_655 S
C292 C295 1.461 . S
C292 H312 0.932 . S
C293 C291 1.408 . S
C293 C292 1.310 1_455 S
C293 H313 0.930 . S
C294 C295 1.474 1_455 S
C294 C296 1.285 . S
C294 H314 0.929 1_556 S
C295 C292 1.461 . S
C295 C294 1.474 1_655 S
C296 C291 1.342 . S
C296 C294 1.285 . S
C296 H315 0.930 . S
C297 C300 1.424 . S
C297 C302 1.245 . S
C297 C303 1.428 . S
C298 C301 1.260 . S
C298 C302 1.477 . S
C298 H316 0.932 . S
C299 C300 1.384 . S
C299 C301 1.479 . S
C299 H317 0.929 . S
C300 C297 1.424 . S
C300 C299 1.384 . S
C300 H318 0.928 . S
C301 C298 1.260 . S
C301 C299 1.479 . S
C302 C297 1.245 . S
C302 C298 1.477 . S
C302 H319 0.932 . S
C303 U286 2.882 . S
C303 C297 1.428 . S
C303 O306 1.301 . S
C303 O307 1.282 . S
O304 U286 2.441 . S
O304 C290 1.249 . S
O305 U286 2.420 . S
O305 C290 1.202 . S
O306 U286 2.455 . S
O306 C303 1.301 . S
O307 U286 2.449 . S
O307 C303 1.282 . S
H308 C281 0.931 . S
H309 C283 0.929 . S
H310 C284 0.930 . S
H311 C285 0.931 . S
H312 C292 0.932 . S
H313 C293 0.930 . S
H314 C294 0.929 1_554 S
H315 C296 0.930 . S
H316 C298 0.932 . S
H317 C299 0.929 . S
H318 C300 0.928 . S
H319 C302 0.932 . S
C320 C321 1.264 . S
C320 C325 1.479 . S
C320 C330 1.465 . S
C321 C320 1.264 . S
C321 C323 1.339 . S
C321 H348 0.931 . S
C322 C323 1.395 . S
C322 C324 1.320 . S
C323 C321 1.339 . S
C323 C322 1.395 . S
C323 H349 0.929 . S
C324 C322 1.320 . S
C324 C325 1.405 . S
C324 H350 0.930 . S
C325 C320 1.479 . S
C325 C324 1.405 . S
C325 H351 0.931 . S
U326 O327 2.454 . S
U326 O328 2.458 . S
U326 C329 2.984 . S
U326 C330 2.847 . S
U326 C343 2.882 . S
U326 O344 2.441 . S
U326 O345 2.420 . S
U326 O346 2.455 . S
U326 O347 2.449 . S
O327 U326 2.454 . S
O327 C329 1.353 . S
O328 U326 2.458 . S
O328 C329 1.286 . S
C329 U326 2.984 . S
C329 O327 1.353 . S
C329 O328 1.286 . S
C329 C331 1.363 . S
C330 C320 1.465 . S
C330 U326 2.847 . S
C330 O344 1.249 . S
C330 O345 1.202 . S
C331 C329 1.363 . S
C331 C333 1.408 . S
C331 C336 1.342 . S
C332 C333 1.310 1_565 S
C332 C335 1.461 . S
C332 H352 0.932 . S
C333 C331 1.408 . S
C333 C332 1.310 1_545 S
C333 H353 0.930 . S
C334 C335 1.474 1_545 S
C334 C336 1.285 . S
C334 H354 0.929 . S
C335 C332 1.461 . S
C335 C334 1.474 1_565 S
C336 C331 1.342 . S
C336 C334 1.285 . S
C336 H355 0.930 . S
C337 C340 1.424 . S
C337 C342 1.245 . S
C337 C343 1.428 . S
C338 C341 1.260 . S
C338 C342 1.477 . S
C338 H356 0.932 . S
C339 C340 1.384 . S
C339 C341 1.479 . S
C339 H357 0.929 . S
C340 C337 1.424 . S
C340 C339 1.384 . S
C340 H358 0.928 . S
C341 C338 1.260 . S
C341 C339 1.479 . S
C342 C337 1.245 . S
C342 C338 1.477 . S
C342 H359 0.932 . S
C343 U326 2.882 . S
C343 C337 1.428 . S
C343 O346 1.301 . S
C343 O347 1.282 . S
O344 U326 2.441 . S
O344 C330 1.249 . S
O345 U326 2.420 . S
O345 C330 1.202 . S
O346 U326 2.455 . S
O346 C343 1.301 . S
O347 U326 2.449 . S
O347 C343 1.282 . S
H348 C321 0.931 . S
H349 C323 0.929 . S
H350 C324 0.930 . S
H351 C325 0.931 . S
H352 C332 0.932 . S
H353 C333 0.930 . S
H354 C334 0.929 . S
H355 C336 0.930 . S
H356 C338 0.932 . S
H357 C339 0.929 . S
H358 C340 0.928 . S
H359 C342 0.932 . S
C360 C361 1.264 . S
C360 C365 1.479 . S
C360 C370 1.465 . S
C361 C360 1.264 . S
C361 C363 1.339 . S
C361 H388 0.931 . S
C362 C363 1.395 . S
C362 C364 1.320 . S
C363 C361 1.339 . S
C363 C362 1.395 . S
C363 H389 0.929 . S
C364 C362 1.320 . S
C364 C365 1.405 . S
C364 H390 0.930 . S
C365 C360 1.479 . S
C365 C364 1.405 . S
C365 H391 0.931 . S
U366 O367 2.454 . S
U366 O368 2.458 . S
U366 C369 2.984 . S
U366 C370 2.847 . S
U366 C383 2.882 . S
U366 O384 2.441 . S
U366 O385 2.420 . S
U366 O386 2.455 . S
U366 O387 2.449 . S
O367 U366 2.454 . S
O367 C369 1.353 . S
O368 U366 2.458 . S
O368 C369 1.286 . S
C369 U366 2.984 . S
C369 O367 1.353 . S
C369 O368 1.286 . S
C369 C371 1.363 . S
C370 C360 1.465 . S
C370 U366 2.847 . S
C370 O384 1.249 . S
C370 O385 1.202 . S
C371 C369 1.363 . S
C371 C373 1.408 . S
C371 C376 1.342 . S
C372 C373 1.310 . S
C372 C375 1.461 . S
C372 H392 0.932 . S
C373 C371 1.408 . S
C373 C372 1.310 . S
C373 H393 0.930 . S
C374 C375 1.474 . S
C374 C376 1.285 . S
C374 H394 0.929 . S
C375 C372 1.461 . S
C375 C374 1.474 . S
C376 C371 1.342 . S
C376 C374 1.285 . S
C376 H395 0.930 . S
C377 C380 1.424 . S
C377 C382 1.245 . S
C377 C383 1.428 . S
C378 C381 1.260 . S
C378 C382 1.477 . S
C378 H396 0.932 . S
C379 C380 1.384 . S
C379 C381 1.479 . S
C379 H397 0.929 . S
C380 C377 1.424 . S
C380 C379 1.384 . S
C380 H398 0.928 . S
C381 C378 1.260 . S
C381 C379 1.479 . S
C382 C377 1.245 . S
C382 C378 1.477 . S
C382 H399 0.932 . S
C383 U366 2.882 . S
C383 C377 1.428 . S
C383 O386 1.301 . S
C383 O387 1.282 . S
O384 U366 2.441 . S
O384 C370 1.249 . S
O385 U366 2.420 . S
O385 C370 1.202 . S
O386 U366 2.455 . S
O386 C383 1.301 . S
O387 U366 2.449 . S
O387 C383 1.282 . S
H388 C361 0.931 . S
H389 C363 0.929 . S
H390 C364 0.930 . S
H391 C365 0.931 . S
H392 C372 0.932 . S
H393 C373 0.930 . S
H394 C374 0.929 . S
H395 C376 0.930 . S
H396 C378 0.932 . S
H397 C379 0.929 . S
H398 C380 0.928 . S
H399 C382 0.932 . S
C400 C401 1.264 . S
C400 C405 1.479 . S
C400 C410 1.465 . S
C401 C400 1.264 . S
C401 C403 1.339 . S
C401 H428 0.931 . S
C402 C403 1.395 . S
C402 C404 1.320 . S
C403 C401 1.339 . S
C403 C402 1.395 . S
C403 H429 0.929 . S
C404 C402 1.320 . S
C404 C405 1.405 . S
C404 H430 0.930 . S
C405 C400 1.479 . S
C405 C404 1.405 . S
C405 H431 0.931 . S
U406 O407 2.454 . S
U406 O408 2.458 . S
U406 C409 2.984 . S
U406 C410 2.847 . S
U406 C423 2.882 . S
U406 O424 2.441 . S
U406 O425 2.420 . S
U406 O426 2.455 . S
U406 O427 2.449 . S
O407 U406 2.454 . S
O407 C409 1.353 . S
O408 U406 2.458 . S
O408 C409 1.286 . S
C409 U406 2.984 . S
C409 O407 1.353 . S
C409 O408 1.286 . S
C409 C411 1.363 . S
C410 C400 1.465 . S
C410 U406 2.847 . S
C410 O424 1.249 . S
C410 O425 1.202 . S
C411 C409 1.363 . S
C411 C413 1.408 . S
C411 C416 1.342 . S
C412 C413 1.310 1_455 S
C412 C415 1.461 . S
C412 H432 0.932 . S
C413 C411 1.408 . S
C413 C412 1.310 1_655 S
C413 H433 0.930 . S
C414 C415 1.474 1_655 S
C414 C416 1.285 . S
C414 H434 0.929 1_556 S
C415 C412 1.461 . S
C415 C414 1.474 1_455 S
C416 C411 1.342 . S
C416 C414 1.285 . S
C416 H435 0.930 . S
C417 C420 1.424 . S
C417 C422 1.245 . S
C417 C423 1.428 . S
C418 C421 1.260 . S
C418 C422 1.477 . S
C418 H436 0.932 . S
C419 C420 1.384 . S
C419 C421 1.479 . S
C419 H437 0.929 . S
C420 C417 1.424 . S
C420 C419 1.384 . S
C420 H438 0.928 . S
C421 C418 1.260 . S
C421 C419 1.479 . S
C422 C417 1.245 . S
C422 C418 1.477 . S
C422 H439 0.932 . S
C423 U406 2.882 . S
C423 C417 1.428 . S
C423 O426 1.301 . S
C423 O427 1.282 . S
O424 U406 2.441 . S
O424 C410 1.249 . S
O425 U406 2.420 . S
O425 C410 1.202 . S
O426 U406 2.455 . S
O426 C423 1.301 . S
O427 U406 2.449 . S
O427 C423 1.282 . S
H428 C401 0.931 . S
H429 C403 0.929 . S
H430 C404 0.930 . S
H431 C405 0.931 . S
H432 C412 0.932 . S
H433 C413 0.930 . S
H434 C414 0.929 1_554 S
H435 C416 0.930 . S
H436 C418 0.932 . S
H437 C419 0.929 . S
H438 C420 0.928 . S
H439 C422 0.932 . S
C440 C441 1.264 . S
C440 C445 1.479 . S
C440 C450 1.465 . S
C441 C440 1.264 . S
C441 C443 1.339 . S
C441 H468 0.931 . S
C442 C443 1.395 . S
C442 C444 1.320 . S
C443 C441 1.339 . S
C443 C442 1.395 . S
C443 H469 0.929 . S
C444 C442 1.320 . S
C444 C445 1.405 . S
C444 H470 0.930 . S
C445 C440 1.479 . S
C445 C444 1.405 . S
C445 H471 0.931 . S
U446 O447 2.454 . S
U446 O448 2.458 . S
U446 C449 2.984 . S
U446 C450 2.847 . S
U446 C463 2.882 . S
U446 O464 2.441 . S
U446 O465 2.420 . S
U446 O466 2.455 . S
U446 O467 2.449 . S
O447 U446 2.454 . S
O447 C449 1.353 . S
O448 U446 2.458 . S
O448 C449 1.286 . S
C449 U446 2.984 . S
C449 O447 1.353 . S
C449 O448 1.286 . S
C449 C451 1.363 . S
C450 C440 1.465 . S
C450 U446 2.847 . S
C450 O464 1.249 . S
C450 O465 1.202 . S
C451 C449 1.363 . S
C451 C453 1.408 . S
C451 C456 1.342 . S
C452 C453 1.310 1_545 S
C452 C455 1.461 . S
C452 H472 0.932 . S
C453 C451 1.408 . S
C453 C452 1.310 1_565 S
C453 H473 0.930 . S
C454 C455 1.474 1_565 S
C454 C456 1.285 . S
C454 H474 0.929 . S
C455 C452 1.461 . S
C455 C454 1.474 1_545 S
C456 C451 1.342 . S
C456 C454 1.285 . S
C456 H475 0.930 . S
C457 C460 1.424 . S
C457 C462 1.245 . S
C457 C463 1.428 . S
C458 C461 1.260 . S
C458 C462 1.477 . S
C458 H476 0.932 . S
C459 C460 1.384 . S
C459 C461 1.479 . S
C459 H477 0.929 . S
C460 C457 1.424 . S
C460 C459 1.384 . S
C460 H478 0.928 . S
C461 C458 1.260 . S
C461 C459 1.479 . S
C462 C457 1.245 . S
C462 C458 1.477 . S
C462 H479 0.932 . S
C463 U446 2.882 . S
C463 C457 1.428 . S
C463 O466 1.301 . S
C463 O467 1.282 . S
O464 U446 2.441 . S
O464 C450 1.249 . S
O465 U446 2.420 . S
O465 C450 1.202 . S
O466 U446 2.455 . S
O466 C463 1.301 . S
O467 U446 2.449 . S
O467 C463 1.282 . S
H468 C441 0.931 . S
H469 C443 0.929 . S
H470 C444 0.930 . S
H471 C445 0.931 . S
H472 C452 0.932 . S
H473 C453 0.930 . S
H474 C454 0.929 . S
H475 C456 0.930 . S
H476 C458 0.932 . S
H477 C459 0.929 . S
H478 C460 0.928 . S
H479 C462 0.932 . S
H480 C488 0.950 . S
H481 C493 0.950 . S
H482 C490 0.950 . S
H483 C492 0.950 . S
H484 C494 0.950 . S
H485 C496 0.950 . S
H486 C498 0.950 . S
H487 C499 0.950 . S
C488 H480 0.950 . S
C488 C489 1.386 . S
C488 C490 1.391 . S
C489 C488 1.386 . S
C489 C493 1.393 . S
C490 H482 0.950 . S
C490 C488 1.391 . S
C490 C491 1.400 . S
C491 C490 1.400 . S
C491 C492 1.398 . S
C491 C497 1.491 . S
C492 H483 0.950 . S
C492 C491 1.398 . S
C492 C493 1.391 . S
C493 H481 0.950 . S
C493 C489 1.393 . S
C493 C492 1.391 . S
C494 H484 0.950 . S
C494 C495 1.386 . S
C494 C496 1.391 . S
C495 C494 1.386 . S
C495 C499 1.393 . S
C496 H485 0.950 . S
C496 C494 1.391 . S
C496 C497 1.400 . S
C497 C491 1.491 . S
C497 C496 1.400 . S
C497 C498 1.398 . S
C498 H486 0.950 . S
C498 C497 1.398 . S
C498 C499 1.391 . S
C499 H487 0.950 . S
C499 C495 1.393 . S
C499 C498 1.391 . S
H500 C508 0.950 . S
H501 C513 0.950 . S
H502 C510 0.950 . S
H503 C512 0.950 . S
H504 C514 0.950 . S
H505 C516 0.950 . S
H506 C518 0.950 . S
H507 C519 0.950 . S
C508 H500 0.950 . S
C508 C509 1.386 . S
C508 C510 1.391 . S
C509 C508 1.386 . S
C509 C513 1.393 . S
C510 H502 0.950 . S
C510 C508 1.391 . S
C510 C511 1.400 . S
C511 C510 1.400 . S
C511 C512 1.398 . S
C511 C517 1.491 . S
C512 H503 0.950 . S
C512 C511 1.398 . S
C512 C513 1.391 . S
C513 H501 0.950 . S
C513 C509 1.393 . S
C513 C512 1.391 . S
C514 H504 0.950 . S
C514 C515 1.386 . S
C514 C516 1.391 . S
C515 C514 1.386 . S
C515 C519 1.393 . S
C516 H505 0.950 . S
C516 C514 1.391 . S
C516 C517 1.400 . S
C517 C511 1.491 . S
C517 C516 1.400 . S
C517 C518 1.398 . S
C518 H506 0.950 . S
C518 C517 1.398 . S
C518 C519 1.391 . S
C519 H507 0.950 . S
C519 C515 1.393 . S
C519 C518 1.391 . S
H520 C528 0.950 . S
H521 C533 0.950 . S
H522 C530 0.950 . S
H523 C532 0.950 . S
H524 C534 0.950 . S
H525 C536 0.950 . S
H526 C538 0.950 . S
H527 C539 0.950 . S
C528 H520 0.950 . S
C528 C529 1.386 . S
C528 C530 1.391 . S
C529 C528 1.386 . S
C529 C533 1.393 . S
C530 H522 0.950 . S
C530 C528 1.391 . S
C530 C531 1.400 . S
C531 C530 1.400 . S
C531 C532 1.398 . S
C531 C537 1.491 . S
C532 H523 0.950 . S
C532 C531 1.398 . S
C532 C533 1.391 . S
C533 H521 0.950 . S
C533 C529 1.393 . S
C533 C532 1.391 . S
C534 H524 0.950 . S
C534 C535 1.386 . S
C534 C536 1.391 . S
C535 C534 1.386 . S
C535 C539 1.393 . S
C536 H525 0.950 . S
C536 C534 1.391 . S
C536 C537 1.400 . S
C537 C531 1.491 . S
C537 C536 1.400 . S
C537 C538 1.398 . S
C538 H526 0.950 . S
C538 C537 1.398 . S
C538 C539 1.391 . S
C539 H527 0.950 . S
C539 C535 1.393 . S
C539 C538 1.391 . S
H540 C548 0.950 . S
H541 C553 0.950 . S
H542 C550 0.950 . S
H543 C552 0.950 . S
H544 C554 0.950 . S
H545 C556 0.950 . S
H546 C558 0.950 . S
H547 C559 0.950 . S
C548 H540 0.950 . S
C548 C549 1.386 . S
C548 C550 1.391 . S
C549 C548 1.386 . S
C549 C553 1.393 . S
C550 H542 0.950 . S
C550 C548 1.391 . S
C550 C551 1.400 . S
C551 C550 1.400 . S
C551 C552 1.398 . S
C551 C557 1.491 . S
C552 H543 0.950 . S
C552 C551 1.398 . S
C552 C553 1.391 . S
C553 H541 0.950 . S
C553 C549 1.393 . S
C553 C552 1.391 . S
C554 H544 0.950 . S
C554 C555 1.386 . S
C554 C556 1.391 . S
C555 C554 1.386 . S
C555 C559 1.393 . S
C556 H545 0.950 . S
C556 C554 1.391 . S
C556 C557 1.400 . S
C557 C551 1.491 . S
C557 C556 1.400 . S
C557 C558 1.398 . S
C558 H546 0.950 . S
C558 C557 1.398 . S
C558 C559 1.391 . S
C559 H547 0.950 . S
C559 C555 1.393 . S
C559 C558 1.391 . S
H560 C568 0.950 . S
H561 C573 0.950 . S
H562 C570 0.950 . S
H563 C572 0.950 . S
H564 C574 0.950 . S
H565 C576 0.950 . S
H566 C578 0.950 . S
H567 C579 0.950 . S
C568 H560 0.950 . S
C568 C569 1.386 . S
C568 C570 1.391 . S
C569 C568 1.386 . S
C569 C573 1.393 . S
C570 H562 0.950 . S
C570 C568 1.391 . S
C570 C571 1.400 . S
C571 C570 1.400 . S
C571 C572 1.398 . S
C571 C577 1.491 . S
C572 H563 0.950 . S
C572 C571 1.398 . S
C572 C573 1.391 . S
C573 H561 0.950 . S
C573 C569 1.393 . S
C573 C572 1.391 . S
C574 H564 0.950 . S
C574 C575 1.386 . S
C574 C576 1.391 . S
C575 C574 1.386 . S
C575 C579 1.393 . S
C576 H565 0.950 . S
C576 C574 1.391 . S
C576 C577 1.400 . S
C577 C571 1.491 . S
C577 C576 1.400 . S
C577 C578 1.398 . S
C578 H566 0.950 . S
C578 C577 1.398 . S
C578 C579 1.391 . S
C579 H567 0.950 . S
C579 C575 1.393 . S
C579 C578 1.391 . S
H580 C588 0.950 . S
H581 C593 0.950 . S
H582 C590 0.950 . S
H583 C592 0.950 . S
H584 C594 0.950 . S
H585 C596 0.950 . S
H586 C598 0.950 . S
H587 C599 0.950 . S
C588 H580 0.950 . S
C588 C589 1.386 . S
C588 C590 1.391 . S
C589 C588 1.386 . S
C589 C593 1.393 . S
C590 H582 0.950 . S
C590 C588 1.391 . S
C590 C591 1.400 . S
C591 C590 1.400 . S
C591 C592 1.398 . S
C591 C597 1.491 . S
C592 H583 0.950 . S
C592 C591 1.398 . S
C592 C593 1.391 . S
C593 H581 0.950 . S
C593 C589 1.393 . S
C593 C592 1.391 . S
C594 H584 0.950 . S
C594 C595 1.386 . S
C594 C596 1.391 . S
C595 C594 1.386 . S
C595 C599 1.393 . S
C596 H585 0.950 . S
C596 C594 1.391 . S
C596 C597 1.400 . S
C597 C591 1.491 . S
C597 C596 1.400 . S
C597 C598 1.398 . S
C598 H586 0.950 . S
C598 C597 1.398 . S
C598 C599 1.391 . S
C599 H587 0.950 . S
C599 C595 1.393 . S
C599 C598 1.391 . S
H600 C608 0.950 . S
H601 C613 0.950 . S
H602 C610 0.950 . S
H603 C612 0.950 . S
H604 C614 0.950 . S
H605 C616 0.950 . S
H606 C618 0.950 . S
H607 C619 0.950 . S
C608 H600 0.950 . S
C608 C609 1.386 . S
C608 C610 1.391 . S
C609 C608 1.386 . S
C609 C613 1.393 . S
C610 H602 0.950 . S
C610 C608 1.391 . S
C610 C611 1.400 . S
C611 C610 1.400 . S
C611 C612 1.398 . S
C611 C617 1.491 1_545 S
C612 H603 0.950 . S
C612 C611 1.398 . S
C612 C613 1.391 . S
C613 H601 0.950 . S
C613 C609 1.393 . S
C613 C612 1.391 . S
C614 H604 0.950 . S
C614 C615 1.386 . S
C614 C616 1.391 . S
C615 C614 1.386 . S
C615 C619 1.393 . S
C616 H605 0.950 . S
C616 C614 1.391 . S
C616 C617 1.400 . S
C617 C611 1.491 1_565 S
C617 C616 1.400 . S
C617 C618 1.398 . S
C618 H606 0.950 . S
C618 C617 1.398 . S
C618 C619 1.391 . S
C619 H607 0.950 . S
C619 C615 1.393 . S
C619 C618 1.391 . S
H620 C628 0.950 . S
H621 C633 0.950 . S
H622 C630 0.950 . S
H623 C632 0.950 . S
H624 C634 0.950 . S
H625 C636 0.950 . S
H626 C638 0.950 . S
H627 C639 0.950 . S
C628 H620 0.950 . S
C628 C629 1.386 . S
C628 C630 1.391 . S
C629 C628 1.386 . S
C629 C633 1.393 . S
C630 H622 0.950 . S
C630 C628 1.391 . S
C630 C631 1.400 . S
C631 C630 1.400 . S
C631 C632 1.398 . S
C631 C637 1.491 . S
C632 H623 0.950 . S
C632 C631 1.398 . S
C632 C633 1.391 . S
C633 H621 0.950 . S
C633 C629 1.393 . S
C633 C632 1.391 . S
C634 H624 0.950 . S
C634 C635 1.386 . S
C634 C636 1.391 . S
C635 C634 1.386 . S
C635 C639 1.393 . S
C636 H625 0.950 . S
C636 C634 1.391 . S
C636 C637 1.400 . S
C637 C631 1.491 . S
C637 C636 1.400 . S
C637 C638 1.398 . S
C638 H626 0.950 . S
C638 C637 1.398 . S
C638 C639 1.391 . S
C639 H627 0.950 . S
C639 C635 1.393 . S
C639 C638 1.391 . S
H640 C648 0.950 . S
H641 C653 0.950 . S
H642 C650 0.950 1_655 S
H643 C652 0.950 . S
H644 C654 0.950 . S
H645 C656 0.950 1_455 S
H646 C658 0.950 . S
H647 C659 0.950 . S
C648 H640 0.950 . S
C648 C649 1.386 . S
C648 C650 1.391 . S
C649 C648 1.386 . S
C649 C653 1.393 . S
C650 H642 0.950 1_455 S
C650 C648 1.391 . S
C650 C651 1.400 . S
C651 C650 1.400 . S
C651 C652 1.398 . S
C651 C657 1.491 1_455 S
C652 H643 0.950 . S
C652 C651 1.398 . S
C652 C653 1.391 . S
C653 H641 0.950 . S
C653 C649 1.393 . S
C653 C652 1.391 . S
C654 H644 0.950 . S
C654 C655 1.386 . S
C654 C656 1.391 . S
C655 C654 1.386 . S
C655 C659 1.393 . S
C656 H645 0.950 1_655 S
C656 C654 1.391 . S
C656 C657 1.400 . S
C657 C651 1.491 1_655 S
C657 C656 1.400 . S
C657 C658 1.398 . S
C658 H646 0.950 . S
C658 C657 1.398 . S
C658 C659 1.391 . S
C659 H647 0.950 . S
C659 C655 1.393 . S
C659 C658 1.391 . S
H660 C668 0.950 . S
H661 C673 0.950 . S
H662 C670 0.950 . S
H663 C672 0.950 . S
H664 C674 0.950 . S
H665 C676 0.950 . S
H666 C678 0.950 . S
H667 C679 0.950 . S
C668 H660 0.950 . S
C668 C669 1.386 . S
C668 C670 1.391 . S
C669 C668 1.386 . S
C669 C673 1.393 . S
C670 H662 0.950 . S
C670 C668 1.391 . S
C670 C671 1.400 . S
C671 C670 1.400 . S
C671 C672 1.398 . S
C671 C677 1.491 1_655 S
C672 H663 0.950 . S
C672 C671 1.398 . S
C672 C673 1.391 . S
C673 H661 0.950 . S
C673 C669 1.393 . S
C673 C672 1.391 . S
C674 H664 0.950 . S
C674 C675 1.386 . S
C674 C676 1.391 . S
C675 C674 1.386 . S
C675 C679 1.393 . S
C676 H665 0.950 . S
C676 C674 1.391 . S
C676 C677 1.400 . S
C677 C671 1.491 1_455 S
C677 C676 1.400 . S
C677 C678 1.398 . S
C678 H666 0.950 . S
C678 C677 1.398 . S
C678 C679 1.391 . S
C679 H667 0.950 . S
C679 C675 1.393 . S
C679 C678 1.391 . S
H680 C688 0.950 . S
H681 C693 0.950 . S
H682 C690 0.950 . S
H683 C692 0.950 1_565 S
H684 C694 0.950 . S
H685 C696 0.950 . S
H686 C698 0.950 1_545 S
H687 C699 0.950 . S
C688 H680 0.950 . S
C688 C689 1.386 . S
C688 C690 1.391 . S
C689 C688 1.386 . S
C689 C693 1.393 . S
C690 H682 0.950 . S
C690 C688 1.391 . S
C690 C691 1.400 . S
C691 C690 1.400 . S
C691 C692 1.398 . S
C691 C697 1.491 1_545 S
C692 H683 0.950 1_545 S
C692 C691 1.398 . S
C692 C693 1.391 . S
C693 H681 0.950 . S
C693 C689 1.393 . S
C693 C692 1.391 . S
C694 H684 0.950 . S
C694 C695 1.386 . S
C694 C696 1.391 . S
C695 C694 1.386 . S
C695 C699 1.393 . S
C696 H685 0.950 . S
C696 C694 1.391 . S
C696 C697 1.400 . S
C697 C691 1.491 1_565 S
C697 C696 1.400 . S
C697 C698 1.398 . S
C698 H686 0.950 1_565 S
C698 C697 1.398 . S
C698 C699 1.391 . S
C699 H687 0.950 . S
C699 C695 1.393 . S
C699 C698 1.391 . S
H700 C708 0.950 . S
H701 C713 0.950 . S
H702 C710 0.950 . S
H703 C712 0.950 . S
H704 C714 0.950 . S
H705 C716 0.950 . S
H706 C718 0.950 . S
H707 C719 0.950 . S
C708 H700 0.950 . S
C708 C709 1.386 . S
C708 C710 1.391 . S
C709 C708 1.386 . S
C709 C713 1.393 . S
C710 H702 0.950 . S
C710 C708 1.391 . S
C710 C711 1.400 . S
C711 C710 1.400 . S
C711 C712 1.398 . S
C711 C717 1.491 . S
C712 H703 0.950 . S
C712 C711 1.398 . S
C712 C713 1.391 . S
C713 H701 0.950 . S
C713 C709 1.393 . S
C713 C712 1.391 . S
C714 H704 0.950 . S
C714 C715 1.386 . S
C714 C716 1.391 . S
C715 C714 1.386 . S
C715 C719 1.393 . S
C716 H705 0.950 . S
C716 C714 1.391 . S
C716 C717 1.400 . S
C717 C711 1.491 . S
C717 C716 1.400 . S
C717 C718 1.398 . S
C718 H706 0.950 . S
C718 C717 1.398 . S
C718 C719 1.391 . S
C719 H707 0.950 . S
C719 C715 1.393 . S
C719 C718 1.391 . S
H720 C728 0.950 . S
H721 C733 0.950 . S
H722 C730 0.950 . S
H723 C732 0.950 . S
H724 C734 0.950 . S
H725 C736 0.950 . S
H726 C738 0.950 . S
H727 C739 0.950 . S
C728 H720 0.950 . S
C728 C729 1.386 1_554 S
C728 C730 1.391 . S
C729 C728 1.386 1_556 S
C729 C733 1.393 . S
C730 H722 0.950 . S
C730 C728 1.391 . S
C730 C731 1.394 1_554 S
C731 C730 1.394 1_556 S
C731 C732 1.405 . S
C731 C737 1.490 1_556 S
C732 H723 0.950 . S
C732 C731 1.405 . S
C732 C733 1.391 . S
C733 H721 0.950 . S
C733 C729 1.393 . S
C733 C732 1.391 . S
C734 H724 0.950 . S
C734 C735 1.386 1_556 S
C734 C736 1.391 . S
C735 C734 1.386 1_554 S
C735 C739 1.393 . S
C736 H725 0.950 . S
C736 C734 1.391 . S
C736 C737 1.394 1_556 S
C737 C731 1.490 1_554 S
C737 C736 1.394 1_554 S
C737 C738 1.404 . S
C738 H726 0.950 . S
C738 C737 1.404 . S
C738 C739 1.391 . S
C739 H727 0.950 . S
C739 C735 1.393 . S
C739 C738 1.391 . S
H740 C748 0.950 . S
H741 C753 0.950 . S
H742 C750 0.950 . S
H743 C752 0.950 . S
H744 C754 0.950 . S
H745 C756 0.950 . S
H746 C758 0.950 . S
H747 C759 0.950 . S
C748 H740 0.950 . S
C748 C749 1.386 . S
C748 C750 1.391 . S
C749 C748 1.386 . S
C749 C753 1.393 . S
C750 H742 0.950 . S
C750 C748 1.391 . S
C750 C751 1.400 . S
C751 C750 1.400 . S
C751 C752 1.398 . S
C751 C757 1.491 . S
C752 H743 0.950 . S
C752 C751 1.398 . S
C752 C753 1.391 . S
C753 H741 0.950 . S
C753 C749 1.393 . S
C753 C752 1.391 . S
C754 H744 0.950 . S
C754 C755 1.386 . S
C754 C756 1.391 . S
C755 C754 1.386 . S
C755 C759 1.393 . S
C756 H745 0.950 . S
C756 C754 1.391 . S
C756 C757 1.400 . S
C757 C751 1.491 . S
C757 C756 1.400 . S
C757 C758 1.398 . S
C758 H746 0.950 . S
C758 C757 1.398 . S
C758 C759 1.391 . S
C759 H747 0.950 . S
C759 C755 1.393 . S
C759 C758 1.391 . S
H760 C768 0.950 . S
H761 C773 0.950 . S
H762 C770 0.950 . S
H763 C772 0.950 . S
H764 C774 0.950 . S
H765 C776 0.950 . S
H766 C778 0.950 . S
H767 C779 0.950 . S
C768 H760 0.950 . S
C768 C769 1.386 . S
C768 C770 1.391 . S
C769 C768 1.386 . S
C769 C773 1.393 . S
C770 H762 0.950 . S
C770 C768 1.391 . S
C770 C771 1.400 . S
C771 C770 1.400 . S
C771 C772 1.398 . S
C771 C777 1.491 . S
C772 H763 0.950 . S
C772 C771 1.398 . S
C772 C773 1.391 . S
C773 H761 0.950 . S
C773 C769 1.393 . S
C773 C772 1.391 . S
C774 H764 0.950 . S
C774 C775 1.386 . S
C774 C776 1.391 . S
C775 C774 1.386 . S
C775 C779 1.393 . S
C776 H765 0.950 . S
C776 C774 1.391 . S
C776 C777 1.400 . S
C777 C771 1.491 . S
C777 C776 1.400 . S
C777 C778 1.398 . S
C778 H766 0.950 . S
C778 C777 1.398 . S
C778 C779 1.391 . S
C779 H767 0.950 . S
C779 C775 1.393 . S
C779 C778 1.391 . S
H780 C788 0.950 . S
H781 C793 0.950 . S
H782 C790 0.950 . S
H783 C792 0.950 . S
H784 C794 0.950 . S
H785 C796 0.950 . S
H786 C798 0.950 . S
H787 C799 0.950 . S
C788 H780 0.950 . S
C788 C789 1.386 1_556 S
C788 C790 1.391 . S
C789 C788 1.386 1_554 S
C789 C793 1.393 . S
C790 H782 0.950 . S
C790 C788 1.391 . S
C790 C791 1.377 1_556 S
C791 C790 1.377 1_554 S
C791 C792 1.423 . S
C791 C797 1.489 1_554 S
C792 H783 0.950 . S
C792 C791 1.423 . S
C792 C793 1.391 . S
C793 H781 0.950 . S
C793 C789 1.393 . S
C793 C792 1.391 . S
C794 H784 0.950 . S
C794 C795 1.386 1_554 S
C794 C796 1.391 . S
C795 C794 1.386 1_556 S
C795 C799 1.393 . S
C796 H785 0.950 . S
C796 C794 1.391 . S
C796 C797 1.377 1_554 S
C797 C791 1.489 1_556 S
C797 C796 1.377 1_556 S
C797 C798 1.423 . S
C798 H786 0.950 . S
C798 C797 1.423 . S
C798 C799 1.391 . S
C799 H787 0.950 . S
C799 C795 1.393 . S
C799 C798 1.391 . S
H800 C808 0.950 . S
H801 C813 0.950 . S
H802 C810 0.950 . S
H803 C812 0.950 . S
H804 C814 0.950 . S
H805 C816 0.950 . S
H806 C818 0.950 . S
H807 C819 0.950 . S
C808 H800 0.950 . S
C808 C809 1.386 . S
C808 C810 1.391 . S
C809 C808 1.386 . S
C809 C813 1.393 . S
C810 H802 0.950 . S
C810 C808 1.391 . S
C810 C811 1.400 . S
C811 C810 1.400 . S
C811 C812 1.398 . S
C811 C817 1.491 . S
C812 H803 0.950 . S
C812 C811 1.398 . S
C812 C813 1.391 . S
C813 H801 0.950 . S
C813 C809 1.393 . S
C813 C812 1.391 . S
C814 H804 0.950 . S
C814 C815 1.386 . S
C814 C816 1.391 . S
C815 C814 1.386 . S
C815 C819 1.393 . S
C816 H805 0.950 . S
C816 C814 1.391 . S
C816 C817 1.400 . S
C817 C811 1.491 . S
C817 C816 1.400 . S
C817 C818 1.398 . S
C818 H806 0.950 . S
C818 C817 1.398 . S
C818 C819 1.391 . S
C819 H807 0.950 . S
C819 C815 1.393 . S
C819 C818 1.391 . S
H820 C828 0.950 . S
H821 C833 0.950 . S
H822 C830 0.950 . S
H823 C832 0.950 . S
H824 C834 0.950 . S
H825 C836 0.950 . S
H826 C838 0.950 . S
H827 C839 0.950 . S
C828 H820 0.950 . S
C828 C829 1.386 . S
C828 C830 1.391 . S
C829 C828 1.386 . S
C829 C833 1.393 . S
C830 H822 0.950 . S
C830 C828 1.391 . S
C830 C831 1.400 . S
C831 C830 1.400 . S
C831 C832 1.398 . S
C831 C837 1.491 . S
C832 H823 0.950 . S
C832 C831 1.398 . S
C832 C833 1.391 . S
C833 H821 0.950 . S
C833 C829 1.393 . S
C833 C832 1.391 . S
C834 H824 0.950 . S
C834 C835 1.386 . S
C834 C836 1.391 . S
C835 C834 1.386 . S
C835 C839 1.393 . S
C836 H825 0.950 . S
C836 C834 1.391 . S
C836 C837 1.400 . S
C837 C831 1.491 . S
C837 C836 1.400 . S
C837 C838 1.398 . S
C838 H826 0.950 . S
C838 C837 1.398 . S
C838 C839 1.391 . S
C839 H827 0.950 . S
C839 C835 1.393 . S
C839 C838 1.391 . S
C489 C2 1.960 . S
C495 C242 1.958 . S
C509 C42 1.966 . S
C515 C282 1.968 . S
C529 C82 1.960 . S
C535 C322 1.962 . S
C549 C362 1.976 . S
C555 C122 1.974 . S
C569 C162 1.954 . S
C575 C402 1.954 . S
C589 C442 1.971 . S
C595 C202 1.973 . S
C609 C21 1.778 . S
C615 C141 1.767 . S
C629 C61 1.775 . S
C635 C181 1.757 . S
C649 C221 1.777 . S
C655 C101 1.759 . S
C669 C261 1.761 . S
C675 C381 1.777 . S
C689 C421 1.757 . S
C695 C301 1.775 . S
C709 C461 1.755 . S
C715 C341 1.773 . S
C729 C415 1.963 . S
C735 C15 1.966 . S
C749 C455 1.956 . S
C755 C55 1.951 . S
C769 C95 1.965 . S
C775 C255 1.967 . S
C789 C135 1.956 . S
C795 C295 1.961 . S
C809 C335 1.962 . S
C815 C175 1.966 . S
C829 C215 1.968 . S
C835 C375 1.966 . S
