# Generated by pormake.
# Topology lcs, (4)-cn, num edge types: 1
# Building blocks:
#     Node 0, Type 0, BuildingBlock: CEKHIL_clean_sbu_0, # of connection points: 4
#     Node 1, Type 0, BuildingBlock: CEKHIL_clean_sbu_0, # of connection points: 4
#     Node 2, Type 0, BuildingBlock: CEKHIL_clean_sbu_0, # of connection points: 4
#     Node 3, Type 0, BuildingBlock: CEKHIL_clean_sbu_0, # of connection points: 4
#     Node 4, Type 0, BuildingBlock: CEKHIL_clean_sbu_0, # of connection points: 4
#     Node 5, Type 0, BuildingBlock: CEKHIL_clean_sbu_0, # of connection points: 4
#     Node 6, Type 0, BuildingBlock: CEKHIL_clean_sbu_0, # of connection points: 4
#     Node 7, Type 0, BuildingBlock: CEKHIL_clean_sbu_0, # of connection points: 4
#     Node 8, Type 0, BuildingBlock: CEKHIL_clean_sbu_0, # of connection points: 4
#     Node 9, Type 0, BuildingBlock: CEKHIL_clean_sbu_0, # of connection points: 4
#     Node 10, Type 0, BuildingBlock: CEKHIL_clean_sbu_0, # of connection points: 4
#     Node 11, Type 0, BuildingBlock: CEKHIL_clean_sbu_0, # of connection points: 4
#     Node 12, Type 0, BuildingBlock: CEKHIL_clean_sbu_0, # of connection points: 4
#     Node 13, Type 0, BuildingBlock: CEKHIL_clean_sbu_0, # of connection points: 4
#     Node 14, Type 0, BuildingBlock: CEKHIL_clean_sbu_0, # of connection points: 4
#     Node 15, Type 0, BuildingBlock: CEKHIL_clean_sbu_0, # of connection points: 4
#     Node 16, Type 0, BuildingBlock: CEKHIL_clean_sbu_0, # of connection points: 4
#     Node 17, Type 0, BuildingBlock: CEKHIL_clean_sbu_0, # of connection points: 4
#     Node 18, Type 0, BuildingBlock: CEKHIL_clean_sbu_0, # of connection points: 4
#     Node 19, Type 0, BuildingBlock: CEKHIL_clean_sbu_0, # of connection points: 4
#     Node 20, Type 0, BuildingBlock: CEKHIL_clean_sbu_0, # of connection points: 4
#     Node 21, Type 0, BuildingBlock: CEKHIL_clean_sbu_0, # of connection points: 4
#     Node 22, Type 0, BuildingBlock: CEKHIL_clean_sbu_0, # of connection points: 4
#     Node 23, Type 0, BuildingBlock: CEKHIL_clean_sbu_0, # of connection points: 4
#     Edge 24, Type (0, 0), BuildingBlock: CIFDUS_clean_linker_0, # of connection points: 2
#     Edge 25, Type (0, 0), BuildingBlock: CIFDUS_clean_linker_0, # of connection points: 2
#     Edge 26, Type (0, 0), BuildingBlock: CIFDUS_clean_linker_0, # of connection points: 2
#     Edge 27, Type (0, 0), BuildingBlock: CIFDUS_clean_linker_0, # of connection points: 2
#     Edge 28, Type (0, 0), BuildingBlock: CIFDUS_clean_linker_0, # of connection points: 2
#     Edge 29, Type (0, 0), BuildingBlock: CIFDUS_clean_linker_0, # of connection points: 2
#     Edge 30, Type (0, 0), BuildingBlock: CIFDUS_clean_linker_0, # of connection points: 2
#     Edge 31, Type (0, 0), BuildingBlock: CIFDUS_clean_linker_0, # of connection points: 2
#     Edge 32, Type (0, 0), BuildingBlock: CIFDUS_clean_linker_0, # of connection points: 2
#     Edge 33, Type (0, 0), BuildingBlock: CIFDUS_clean_linker_0, # of connection points: 2
#     Edge 34, Type (0, 0), BuildingBlock: CIFDUS_clean_linker_0, # of connection points: 2
#     Edge 35, Type (0, 0), BuildingBlock: CIFDUS_clean_linker_0, # of connection points: 2
#     Edge 36, Type (0, 0), BuildingBlock: CIFDUS_clean_linker_0, # of connection points: 2
#     Edge 37, Type (0, 0), BuildingBlock: CIFDUS_clean_linker_0, # of connection points: 2
#     Edge 38, Type (0, 0), BuildingBlock: CIFDUS_clean_linker_0, # of connection points: 2
#     Edge 39, Type (0, 0), BuildingBlock: CIFDUS_clean_linker_0, # of connection points: 2
#     Edge 40, Type (0, 0), BuildingBlock: CIFDUS_clean_linker_0, # of connection points: 2
#     Edge 41, Type (0, 0), BuildingBlock: CIFDUS_clean_linker_0, # of connection points: 2
#     Edge 42, Type (0, 0), BuildingBlock: CIFDUS_clean_linker_0, # of connection points: 2
#     Edge 43, Type (0, 0), BuildingBlock: CIFDUS_clean_linker_0, # of connection points: 2
#     Edge 44, Type (0, 0), BuildingBlock: CIFDUS_clean_linker_0, # of connection points: 2
#     Edge 45, Type (0, 0), BuildingBlock: CIFDUS_clean_linker_0, # of connection points: 2
#     Edge 46, Type (0, 0), BuildingBlock: CIFDUS_clean_linker_0, # of connection points: 2
#     Edge 47, Type (0, 0), BuildingBlock: CIFDUS_clean_linker_0, # of connection points: 2
#     Edge 48, Type (0, 0), BuildingBlock: CIFDUS_clean_linker_0, # of connection points: 2
#     Edge 49, Type (0, 0), BuildingBlock: CIFDUS_clean_linker_0, # of connection points: 2
#     Edge 50, Type (0, 0), BuildingBlock: CIFDUS_clean_linker_0, # of connection points: 2
#     Edge 51, Type (0, 0), BuildingBlock: CIFDUS_clean_linker_0, # of connection points: 2
#     Edge 52, Type (0, 0), BuildingBlock: CIFDUS_clean_linker_0, # of connection points: 2
#     Edge 53, Type (0, 0), BuildingBlock: CIFDUS_clean_linker_0, # of connection points: 2
#     Edge 54, Type (0, 0), BuildingBlock: CIFDUS_clean_linker_0, # of connection points: 2
#     Edge 55, Type (0, 0), BuildingBlock: CIFDUS_clean_linker_0, # of connection points: 2
#     Edge 56, Type (0, 0), BuildingBlock: CIFDUS_clean_linker_0, # of connection points: 2
#     Edge 57, Type (0, 0), BuildingBlock: CIFDUS_clean_linker_0, # of connection points: 2
#     Edge 58, Type (0, 0), BuildingBlock: CIFDUS_clean_linker_0, # of connection points: 2
#     Edge 59, Type (0, 0), BuildingBlock: CIFDUS_clean_linker_0, # of connection points: 2
#     Edge 60, Type (0, 0), BuildingBlock: CIFDUS_clean_linker_0, # of connection points: 2
#     Edge 61, Type (0, 0), BuildingBlock: CIFDUS_clean_linker_0, # of connection points: 2
#     Edge 62, Type (0, 0), BuildingBlock: CIFDUS_clean_linker_0, # of connection points: 2
#     Edge 63, Type (0, 0), BuildingBlock: CIFDUS_clean_linker_0, # of connection points: 2
#     Edge 64, Type (0, 0), BuildingBlock: CIFDUS_clean_linker_0, # of connection points: 2
#     Edge 65, Type (0, 0), BuildingBlock: CIFDUS_clean_linker_0, # of connection points: 2
#     Edge 66, Type (0, 0), BuildingBlock: CIFDUS_clean_linker_0, # of connection points: 2
#     Edge 67, Type (0, 0), BuildingBlock: CIFDUS_clean_linker_0, # of connection points: 2
#     Edge 68, Type (0, 0), BuildingBlock: CIFDUS_clean_linker_0, # of connection points: 2
#     Edge 69, Type (0, 0), BuildingBlock: CIFDUS_clean_linker_0, # of connection points: 2
#     Edge 70, Type (0, 0), BuildingBlock: CIFDUS_clean_linker_0, # of connection points: 2
#     Edge 71, Type (0, 0), BuildingBlock: CIFDUS_clean_linker_0, # of connection points: 2
# Relax obj value: 0.003
# Max RMSD: 0.026
# Mean RMSD: 0.021
data_MOF--net-lcs--node1-CEKHIL_clean_sbu_0--edge1-CIFDUS_clean_linker_0
_symmetry_space_group_name_H-M    P1
_symmetry_Int_Tables_number       1
_symmetry_cell_setting            triclinic
loop_
_symmetry_equiv_pos_as_xyz
'x, y, z'
_cell_length_a     43.216008
_cell_length_b     42.222615
_cell_length_c     42.234496
_cell_angle_alpha  90.924885
_cell_angle_beta   90.323239
_cell_angle_gamma 90.745594
loop_
_atom_site_label
_atom_site_type_symbol
_atom_site_fract_x
_atom_site_fract_y
_atom_site_fract_z
_atom_type_partial_charge
Co0 Co 1.00817 0.27908 0.38662 0.0
O1 O 0.97147 0.3029 0.3786 0.0
O2 O 0.97946 0.27564 0.42199 0.0
C3 C 0.04105 0.31876 0.3722 0.0
O4 O 0.04399 0.25275 0.40377 0.0
Co5 Co 0.05322 0.26353 0.33218 0.0
O6 O 0.08005 0.24678 0.3659 0.0
C7 C 0.99747 0.22291 0.34102 0.0
C8 C 0.96183 0.29471 0.4063 0.0
C9 C 0.07044 0.24287 0.39401 0.0
O10 O 0.98931 0.23973 0.36526 0.0
O11 O 0.02105 0.22968 0.32406 0.0
O12 O 0.02988 0.3178 0.4006 0.0
O13 O 0.03063 0.29718 0.35273 0.0
Co14 Co 0.01972 0.75839 0.64321 0.0
O15 O 0.06002 0.73964 0.6493 0.0
O16 O 0.03166 0.73379 0.60594 0.0
C17 C 0.03399 0.80689 0.66205 0.0
O18 O 0.97792 0.77545 0.62735 0.0
Co19 Co 0.98205 0.78552 0.69969 0.0
O20 O 0.95552 0.80371 0.66637 0.0
C21 C 0.98388 0.71609 0.68847 0.0
C22 C 0.05742 0.72806 0.62078 0.0
C23 C 0.95644 0.79395 0.63769 0.0
O24 O 0.99821 0.72006 0.66206 0.0
O25 O 0.9779 0.73898 0.70767 0.0
O26 O 0.03995 0.7988 0.63295 0.0
O27 O 0.02183 0.78513 0.67921 0.0
Co28 Co 0.51632 0.7709 0.89691 0.0
O29 O 0.47918 0.79324 0.8869 0.0
O30 O 0.48654 0.76724 0.93121 0.0
C31 C 0.54807 0.81153 0.88262 0.0
O32 O 0.55212 0.74624 0.91653 0.0
Co33 Co 0.56511 0.75487 0.84718 0.0
O34 O 0.59295 0.74945 0.88411 0.0
C35 C 0.50912 0.7137 0.8522 0.0
C36 C 0.46886 0.78531 0.91445 0.0
C37 C 0.58115 0.74277 0.91073 0.0
O38 O 0.49932 0.73085 0.8755 0.0
O39 O 0.5341 0.72009 0.83724 0.0
O40 O 0.53611 0.81061 0.91069 0.0
O41 O 0.53963 0.78881 0.8634 0.0
Co42 Co 0.5288 0.25834 0.15024 0.0
O43 O 0.56949 0.24299 0.16071 0.0
O44 O 0.54554 0.23285 0.11539 0.0
C45 C 0.53908 0.30864 0.16704 0.0
O46 O 0.48727 0.27191 0.13035 0.0
Co47 Co 0.48626 0.2864 0.20284 0.0
O48 O 0.46109 0.30048 0.16657 0.0
C49 C 0.49312 0.21678 0.1963 0.0
C50 C 0.5705 0.23043 0.13256 0.0
C51 C 0.46421 0.28952 0.1385 0.0
O52 O 0.50813 0.21984 0.17009 0.0
O53 O 0.4853 0.24046 0.2137 0.0
O54 O 0.54766 0.29924 0.13907 0.0
O55 O 0.52684 0.28717 0.18446 0.0
Co56 Co 0.01917 0.76923 0.1414 0.0
O57 O 0.06052 0.78566 0.14912 0.0
O58 O 0.04502 0.7619 0.10465 0.0
C59 C 0.99457 0.81315 0.15922 0.0
O60 O 0.97852 0.75016 0.12386 0.0
Co61 Co 0.9722 0.75902 0.19511 0.0
O62 O 0.94135 0.75619 0.16033 0.0
C63 C 0.02129 0.71166 0.18432 0.0
C64 C 0.06695 0.77658 0.12043 0.0
C65 C 0.94991 0.74904 0.13236 0.0
O66 O 0.03096 0.7271 0.16013 0.0
O67 O 0.99913 0.72119 0.20195 0.0
O68 O 1.0054 0.81155 0.13067 0.0
O69 O 1.00077 0.78932 0.17697 0.0
Co70 Co 0.49593 0.76237 0.38998 0.0
O71 O 0.45761 0.74028 0.38008 0.0
O72 O 0.48233 0.73695 0.42576 0.0
C73 C 0.47914 0.80981 0.37222 0.0
O74 O 0.53569 0.78262 0.40938 0.0
Co75 Co 0.53529 0.79106 0.3374 0.0
O76 O 0.56374 0.80599 0.37132 0.0
C77 C 0.53696 0.72227 0.34667 0.0
C78 C 0.45848 0.72889 0.40834 0.0
C79 C 0.55965 0.79852 0.40004 0.0
O80 O 0.51986 0.72559 0.37136 0.0
O81 O 0.54438 0.74529 0.32879 0.0
O82 O 0.47338 0.80042 0.40071 0.0
O83 O 0.49359 0.78961 0.35443 0.0
Co84 Co 0.51764 0.26243 0.64597 0.0
O85 O 0.55618 0.28335 0.65732 0.0
O86 O 0.54613 0.2614 0.61052 0.0
C87 C 0.48722 0.30161 0.66593 0.0
O88 O 0.48061 0.24033 0.62433 0.0
Co89 Co 0.46836 0.24274 0.6949 0.0
O90 O 0.44037 0.23954 0.65767 0.0
C91 C 0.52237 0.20113 0.68321 0.0
C92 C 0.56503 0.278 0.62842 0.0
C93 C 0.45172 0.2355 0.63019 0.0
O94 O 0.53296 0.2201 0.66202 0.0
O95 O 0.49801 0.20682 0.6994 0.0
O96 O 0.49938 0.30383 0.63802 0.0
O97 O 0.49517 0.27696 0.68166 0.0
Co98 Co 1.00722 0.26143 0.89249 0.0
O99 O 0.96715 0.24065 0.89265 0.0
O100 O 1.00122 0.23778 0.93154 0.0
C101 C 0.98834 0.30839 0.87621 0.0
O102 O 0.05028 0.28199 0.90093 0.0
Co103 Co 0.03281 0.28563 0.82873 0.0
O104 O 0.06253 0.3087 0.85688 0.0
C105 C 0.03424 0.2176 0.84176 0.0
C106 C 0.97369 0.23063 0.92063 0.0
C107 C 0.06763 0.30171 0.8857 0.0
O108 O 0.02654 0.22331 0.87073 0.0
O109 O 0.03509 0.23878 0.82046 0.0
O110 O 0.9878 0.3009 0.9059 0.0
O111 O 0.99802 0.28645 0.8572 0.0
Co112 Co 0.38213 1.00423 0.2782 0.0
O113 O 0.3752 0.96149 0.29235 0.0
O114 O 0.41766 0.97824 0.26853 0.0
C115 C 0.36568 0.02732 0.32418 0.0
O116 O 0.39949 0.04653 0.26233 0.0
Co117 Co 0.3301 0.05365 0.27289 0.0
O118 O 0.36514 0.08436 0.27403 0.0
C119 C 0.3374 1.00482 0.22186 0.0
C120 C 0.40313 0.95558 0.28296 0.0
C121 C 0.39203 0.07584 0.26555 0.0
O122 O 0.36204 0.99405 0.23522 0.0
O123 O 0.32107 0.02685 0.23427 0.0
O124 O 0.3936 0.01662 0.3218 0.0
O125 O 0.34816 0.0222 0.29972 0.0
Co126 Co 0.2505 0.14035 0.50435 0.0
O127 O 0.21057 0.13537 0.48364 0.0
O128 O 0.22653 0.17835 0.50978 0.0
C129 C 0.27848 0.12086 0.46324 0.0
O130 O 0.28941 0.15636 0.52729 0.0
Co131 Co 0.29315 0.086 0.52099 0.0
O132 O 0.32562 0.11898 0.52845 0.0
C133 C 0.23948 0.09856 0.56205 0.0
C134 C 0.20513 0.16431 0.49279 0.0
C135 C 0.31717 0.1474 0.5331 0.0
O136 O 0.23327 0.12271 0.54498 0.0
O137 O 0.26175 0.0798 0.55567 0.0
O138 O 0.26928 0.15001 0.46387 0.0
O139 O 0.26902 0.10349 0.48641 0.0
Co140 Co 0.14042 0.00986 0.78315 0.0
O141 O 0.13163 0.99135 0.8236 0.0
O142 O 0.17543 0.98507 0.79772 0.0
C143 C 0.12306 0.05851 0.79759 0.0
O144 O 0.1584 0.02676 0.74158 0.0
Co145 Co 0.08791 0.0364 0.74181 0.0
O146 O 0.12199 0.05442 0.71629 0.0
C147 C 0.09721 0.96727 0.74325 0.0
C148 C 0.15925 0.97984 0.82306 0.0
C149 C 0.1497 0.0448 0.71883 0.0
O150 O 0.12204 0.97168 0.7599 0.0
O151 O 0.07913 0.98981 0.73581 0.0
O152 O 0.15097 0.0499 0.80463 0.0
O153 O 0.10598 0.03697 0.78382 0.0
Co154 Co 0.26932 0.87147 1.00702 0.0
O155 O 0.31002 0.87803 0.98987 0.0
O156 O 0.295 0.83492 0.01486 0.0
C157 C 0.2444 0.88805 0.96277 0.0
O158 O 0.22881 0.85499 0.02627 0.0
Co159 Co 0.22352 0.92605 0.01668 0.0
O160 O 0.19216 0.89144 0.01885 0.0
C161 C 0.27568 0.91898 0.06202 0.0
C162 C 0.31643 0.84973 0.9992 0.0
C163 C 0.20032 0.86365 0.0262 0.0
O164 O 0.28259 0.89221 0.04885 0.0
O165 O 0.25435 0.93675 0.05126 0.0
O166 O 0.25432 0.85925 0.96464 0.0
O167 O 0.25126 0.90635 0.9867 0.0
Co168 Co 0.28531 0.37615 1.0056 0.0
O169 O 0.32442 0.38224 0.02719 0.0
O170 O 0.29591 0.33855 0.02965 0.0
C171 C 0.30278 0.39479 0.95864 0.0
O172 O 0.24368 0.36118 0.98552 0.0
Co173 Co 0.25091 0.43402 0.98089 0.0
O174 O 0.22336 0.40232 0.95992 0.0
C175 C 0.24967 0.42142 0.04912 0.0
C176 C 0.32104 0.35393 0.038 0.0
C177 C 0.22279 0.3732 0.96737 0.0
O178 O 0.26344 0.39503 0.04359 0.0
O179 O 0.24415 0.44148 0.02747 0.0
O180 O 0.30662 0.36547 0.96642 0.0
O181 O 0.29025 0.41248 0.98021 0.0
Co182 Co 0.75711 0.13269 0.01658 0.0
O183 O 0.71659 0.12237 0.03286 0.0
O184 O 0.7402 0.16843 0.04078 0.0
C185 C 0.74636 0.11318 0.96738 0.0
O186 O 0.79853 0.15228 1.0014 0.0
Co187 Co 0.79974 0.07922 0.99162 0.0
O188 O 0.82832 0.11402 0.98011 0.0
C189 C 0.79068 0.08815 0.06036 0.0
C190 C 0.71548 0.15089 0.04443 0.0
C191 C 0.82358 0.14289 0.98756 0.0
O192 O 0.77766 0.11505 0.05581 0.0
O193 O 0.79778 0.06916 0.03769 0.0
O194 O 0.73814 0.14162 0.97554 0.0
O195 O 0.75889 0.09697 0.98951 0.0
Co196 Co 0.1463 0.52492 0.26074 0.0
O197 O 0.15297 0.56543 0.24094 0.0
O198 O 0.10903 0.53807 0.23916 0.0
C199 C 0.16768 0.53975 0.30778 0.0
O200 O 0.1296 0.48325 0.27896 0.0
Co201 Co 0.1995 0.48346 0.28466 0.0
O202 O 0.16673 0.45947 0.30696 0.0
C203 C 0.18632 0.48601 0.21583 0.0
C204 C 0.12422 0.56372 0.23196 0.0
C205 C 0.13868 0.46159 0.29801 0.0
O206 O 0.16186 0.50231 0.22142 0.0
O207 O 0.20518 0.47784 0.23765 0.0
O208 O 0.13918 0.54653 0.30115 0.0
O209 O 0.18294 0.52593 0.28535 0.0
Co210 Co 0.77461 0.88499 0.51257 0.0
O211 O 0.8126 0.8946 0.53534 0.0
O212 O 0.78658 0.84942 0.53877 0.0
C213 C 0.793 0.90191 0.46536 0.0
O214 O 0.73501 0.86582 0.49187 0.0
Co215 Co 0.73713 0.93757 0.48127 0.0
O216 O 0.70824 0.90358 0.46699 0.0
C217 C 0.73503 0.93106 0.55058 0.0
C218 C 0.8107 0.86647 0.54698 0.0
C219 C 0.71161 0.87502 0.47532 0.0
O220 O 0.75005 0.90492 0.54832 0.0
O221 O 0.72974 0.94868 0.52685 0.0
O222 O 0.79813 0.87344 0.47508 0.0
O223 O 0.77819 0.91992 0.48499 0.0
Co224 Co 0.89304 0.99957 0.2736 0.0
O225 O 0.89951 0.98328 0.31548 0.0
O226 O 0.85814 0.00956 0.30042 0.0
C227 C 0.90727 0.95402 0.24853 0.0
O228 O 0.87636 0.01791 0.23243 0.0
Co229 Co 0.94513 1.00479 0.22371 0.0
O230 O 0.91001 1.00681 0.19354 0.0
C231 C 0.94188 0.05207 0.27664 0.0
C232 C 0.87207 0.9935 0.32215 0.0
C233 C 0.88358 0.01581 0.20297 0.0
O234 O 0.91525 0.04109 0.28534 0.0
O235 O 0.95778 0.0393 0.25443 0.0
O236 O 0.87948 0.95703 0.25957 0.0
O237 O 0.92587 0.97758 0.25436 0.0
Co238 Co 0.24898 0.63185 0.51779 0.0
O239 O 0.20891 0.62593 0.53725 0.0
O240 O 0.24006 0.66675 0.54706 0.0
C241 C 0.23119 0.61999 0.46824 0.0
O242 O 0.29121 0.64719 0.50078 0.0
Co243 Co 0.28134 0.57712 0.48162 0.0
O244 O 0.30909 0.61103 0.46598 0.0
C245 C 0.28155 0.57864 0.55186 0.0
C246 C 0.21331 0.65302 0.55151 0.0
C247 C 0.31089 0.63814 0.47961 0.0
O248 O 0.27014 0.60677 0.55232 0.0
O249 O 0.28492 0.56227 0.52633 0.0
O250 O 0.22824 0.64831 0.48021 0.0
O251 O 0.24315 0.59959 0.48694 0.0
Co252 Co 0.39604 0.50058 0.76558 0.0
O253 O 0.40356 0.47954 0.80525 0.0
O254 O 0.36203 0.50751 0.79442 0.0
C255 C 0.41007 0.45842 0.73485 0.0
O256 O 0.37786 0.52381 0.72766 0.0
Co257 Co 0.44587 0.51239 0.71434 0.0
O258 O 0.41039 0.52196 0.68633 0.0
C259 C 0.44555 0.5518 0.77344 0.0
C260 C 0.37651 0.48942 0.814 0.0
C261 C 0.38421 0.52831 0.69832 0.0
O262 O 0.41876 0.54057 0.78134 0.0
O263 O 0.46058 0.54151 0.74939 0.0
O264 O 0.38254 0.45951 0.747 0.0
O265 O 0.42837 0.4816 0.74269 0.0
Co266 Co 0.64734 0.01918 0.76631 0.0
O267 O 0.65447 0.0585 0.74449 0.0
O268 O 0.61199 0.02922 0.73971 0.0
C269 C 0.66274 0.03918 0.81397 0.0
O270 O 0.63084 0.97794 0.78594 0.0
Co271 Co 0.69983 0.98362 0.79933 0.0
O272 O 0.66621 0.95933 0.81981 0.0
C273 C 0.69329 0.97881 0.72956 0.0
C274 C 0.62684 0.0552 0.73273 0.0
C275 C 0.63918 0.95857 0.80769 0.0
O276 O 0.66801 0.99467 0.73091 0.0
O277 O 0.71011 0.97353 0.75393 0.0
O278 O 0.63469 0.04296 0.80375 0.0
O279 O 0.68112 0.02472 0.79465 0.0
Co280 Co 0.76613 0.63725 0.00883 0.0
O281 O 0.7249 0.63619 0.99044 0.0
O282 O 0.74553 0.67696 0.01682 0.0
C283 C 0.79038 0.61763 0.96543 0.0
O284 O 0.8076 0.64902 0.02971 0.0
Co285 Co 0.80608 0.5783 0.01833 0.0
O286 O 0.84085 0.60909 0.02399 0.0
C287 C 0.75559 0.59209 0.06375 0.0
C288 C 0.72239 0.66529 1.00046 0.0
C289 C 0.8351 0.63775 0.03141 0.0
O290 O 0.74992 0.61841 0.04973 0.0
O291 O 0.77574 0.57244 0.05366 0.0
O292 O 0.78392 0.64751 0.96769 0.0
O293 O 0.78043 0.60016 0.98816 0.0
Co294 Co 0.88703 0.49956 0.77689 0.0
O295 O 0.88448 0.4586 0.79624 0.0
O296 O 0.92623 0.47798 0.77293 0.0
C297 C 0.86388 0.52521 0.81791 0.0
O298 O 0.89973 0.54124 0.75641 0.0
Co299 Co 0.82934 0.53851 0.7608 0.0
O300 O 0.85946 0.5743 0.75854 0.0
C301 C 0.84539 0.48297 0.72071 0.0
C302 C 0.91333 0.45522 0.78874 0.0
C303 C 0.888 0.56893 0.75392 0.0
O304 O 0.87186 0.48095 0.73478 0.0
O305 O 0.82455 0.5025 0.72948 0.0
O306 O 0.89333 0.51951 0.81884 0.0
O307 O 0.84926 0.51413 0.79333 0.0
Co308 Co 0.76145 0.37757 0.50194 0.0
O309 O 0.8024 0.38537 0.48546 0.0
O310 O 0.78631 0.33982 0.50503 0.0
C311 C 0.7361 0.4005 0.4609 0.0
O312 O 0.72106 0.35921 0.51978 0.0
Co313 Co 0.71629 0.43197 0.51891 0.0
O314 O 0.6868 0.39772 0.53001 0.0
C315 C 0.76679 0.41612 0.5636 0.0
C316 C 0.80824 0.35598 0.49156 0.0
C317 C 0.6945 0.36872 0.52958 0.0
O318 O 0.775 0.39234 0.54613 0.0
O319 O 0.74561 0.43543 0.55569 0.0
O320 O 0.74581 0.3716 0.45831 0.0
O321 O 0.74359 0.41509 0.48695 0.0
Co322 Co 0.64363 0.51905 0.2736 0.0
O323 O 0.64024 0.49799 0.31372 0.0
O324 O 0.68111 0.49557 0.28267 0.0
C325 C 0.62536 0.56608 0.29116 0.0
O326 O 0.65601 0.5389 0.23136 0.0
Co327 Co 0.58526 0.54328 0.23945 0.0
O328 O 0.61555 0.56572 0.21225 0.0
C329 C 0.5989 0.47515 0.237 0.0
C330 C 0.66791 0.48749 0.30904 0.0
C331 C 0.64393 0.55795 0.21122 0.0
O332 O 0.62519 0.48086 0.25058 0.0
O333 O 0.57844 0.49639 0.2329 0.0
O334 O 0.65425 0.55899 0.2953 0.0
O335 O 0.60803 0.54379 0.27908 0.0
H336 H 0.14004 0.428 0.35242 0.0
H337 H 0.08771 0.43866 0.26609 0.0
H338 H 0.05402 0.39415 0.28044 0.0
H339 H 0.03988 0.35142 0.31734 0.0
H340 H 0.08925 0.34416 0.40578 0.0
H341 H 0.12387 0.38775 0.39076 0.0
C342 C 0.12117 0.42067 0.33682 0.0
C343 C 0.11651 0.43657 0.30813 0.0
C344 C 0.10156 0.39541 0.3455 0.0
C345 C 0.09172 0.42699 0.28836 0.0
C346 C 0.07257 0.40138 0.29647 0.0
C347 C 0.0584 0.35932 0.33314 0.0
C348 C 0.06242 0.34437 0.36239 0.0
C349 C 0.07741 0.38523 0.32486 0.0
C350 C 0.08593 0.35523 0.38306 0.0
C351 C 0.10564 0.38017 0.37451 0.0
H352 H 0.91823 0.84409 0.64525 0.0
H353 H 0.93614 0.76509 0.58225 0.0
H354 H 0.89113 0.77891 0.5499 0.0
H355 H 0.84624 0.81382 0.53953 0.0
H356 H 0.83148 0.89466 0.60088 0.0
H357 H 0.8752 0.87947 0.63418 0.0
C358 C 0.91238 0.82982 0.62443 0.0
C359 C 0.93061 0.80344 0.61636 0.0
C360 C 0.88668 0.83807 0.60584 0.0
C361 C 0.92273 0.78558 0.58901 0.0
C362 C 0.89682 0.79337 0.5706 0.0
C363 C 0.85244 0.82774 0.56047 0.0
C364 C 0.83535 0.85496 0.56821 0.0
C365 C 0.87847 0.81948 0.57887 0.0
C366 C 0.84408 0.8734 0.59479 0.0
C367 C 0.86917 0.86481 0.6137 0.0
H368 H 0.41897 0.60055 0.80842 0.0
H369 H 0.50691 0.56222 0.7799 0.0
H370 H 0.5338 0.60811 0.80234 0.0
H371 H 0.53285 0.66064 0.82639 0.0
H372 H 0.44651 0.70052 0.85688 0.0
H373 H 0.41866 0.65276 0.83757 0.0
C374 C 0.44401 0.60208 0.80764 0.0
C375 C 0.46077 0.57802 0.79201 0.0
C376 C 0.45969 0.62905 0.82057 0.0
C377 C 0.49328 0.58047 0.79126 0.0
C378 C 0.5088 0.60679 0.8041 0.0
C379 C 0.50791 0.65898 0.82886 0.0
C380 C 0.49176 0.68437 0.84256 0.0
C381 C 0.49226 0.63152 0.81806 0.0
C382 C 0.45951 0.68139 0.84623 0.0
C383 C 0.44359 0.65408 0.83515 0.0
H384 H 0.57885 0.18781 0.08352 0.0
H385 H 0.62876 0.24423 0.15334 0.0
H386 H 0.67793 0.22615 0.13195 0.0
H387 H 0.7074 0.19439 0.09283 0.0
H388 H 0.65735 0.13434 0.02624 0.0
H389 H 0.60819 0.1536 0.04664 0.0
C390 C 0.60049 0.19601 0.0941 0.0
C391 C 0.59998 0.21739 0.12 0.0
C392 C 0.62892 0.18489 0.08212 0.0
C393 C 0.62834 0.2276 0.13353 0.0
C394 C 0.65659 0.21738 0.12121 0.0
C395 C 0.6857 0.1856 0.08285 0.0
C396 C 0.68611 0.16306 0.05795 0.0
C397 C 0.65726 0.19608 0.09542 0.0
C398 C 0.65775 0.1516 0.04551 0.0
C399 C 0.62954 0.16265 0.05712 0.0
H400 H 0.06322 0.57804 0.23314 0.0
H401 H 0.15124 0.61133 0.19847 0.0
H402 H 0.12691 0.65919 0.17853 0.0
H403 H 0.08095 0.69321 0.1738 0.0
H404 H 0.99411 0.6613 0.21276 0.0
H405 H 0.0175 0.61153 0.22807 0.0
C406 C 0.07697 0.59555 0.22079 0.0
C407 C 0.10893 0.59103 0.21708 0.0
C408 C 0.06304 0.62352 0.21041 0.0
C409 C 0.12656 0.61423 0.20156 0.0
C410 C 0.11267 0.64165 0.19023 0.0
C411 C 0.06714 0.67522 0.18541 0.0
C412 C 0.03583 0.68105 0.19217 0.0
C413 C 0.08099 0.64682 0.19496 0.0
C414 C 0.01831 0.6576 0.2075 0.0
C415 C 0.03165 0.62904 0.21621 0.0
H416 H 0.62065 0.7852 0.39813 0.0
H417 H 0.55313 0.83691 0.45206 0.0
H418 H 0.59474 0.86365 0.48245 0.0
H419 H 0.65053 0.87682 0.48893 0.0
H420 H 0.718 0.82297 0.43709 0.0
H421 H 0.67638 0.79216 0.41083 0.0
C422 C 0.61511 0.80176 0.41711 0.0
C423 C 0.58392 0.80917 0.42291 0.0
C424 C 0.63918 0.81677 0.43459 0.0
C425 C 0.57693 0.83065 0.44744 0.0
C426 C 0.60075 0.84611 0.46459 0.0
C427 C 0.65604 0.85777 0.47246 0.0
C428 C 0.68723 0.8521 0.46487 0.0
C429 C 0.63196 0.84001 0.45774 0.0
C430 C 0.69419 0.82749 0.44347 0.0
C431 C 0.67038 0.8101 0.4283 0.0
H432 H 0.48211 0.36266 0.64725 0.0
H433 H 0.44771 0.2967 0.71595 0.0
H434 H 0.41747 0.33869 0.74107 0.0
H435 H 0.4038 0.39537 0.74598 0.0
H436 H 0.44279 0.46191 0.68053 0.0
H437 H 0.46773 0.41875 0.65145 0.0
C438 C 0.46769 0.3574 0.66749 0.0
C439 C 0.46714 0.32656 0.67966 0.0
C440 C 0.45112 0.38191 0.68242 0.0
C441 C 0.44863 0.32024 0.70614 0.0
C442 C 0.4313 0.34427 0.72053 0.0
C443 C 0.41724 0.4002 0.72496 0.0
C444 C 0.42116 0.43167 0.7151 0.0
C445 C 0.43272 0.37534 0.7092 0.0
C446 C 0.4393 0.43783 0.68837 0.0
C447 C 0.45367 0.41317 0.67183 0.0
H448 H 0.91236 0.24248 0.92313 0.0
H449 H 0.98165 0.17995 0.95941 0.0
H450 H 0.94118 0.14819 0.98502 0.0
H451 H 0.88566 0.13615 0.99361 0.0
H452 H 0.81675 0.20095 0.96069 0.0
H453 H 0.85746 0.23428 0.93763 0.0
C454 C 0.91859 0.22203 0.9369 0.0
C455 C 0.94992 0.21325 0.93905 0.0
C456 C 0.89525 0.20441 0.95214 0.0
C457 C 0.95775 0.1871 0.95738 0.0
C458 C 0.93458 0.16892 0.97191 0.0
C459 C 0.87963 0.15787 0.98182 0.0
C460 C 0.84817 0.16601 0.97869 0.0
C461 C 0.90322 0.17706 0.96899 0.0
C462 C 0.84071 0.1943 0.9636 0.0
C463 C 0.86399 0.21318 0.95019 0.0
H464 H 0.32256 0.07484 0.45998 0.0
H465 H 0.26801 0.13666 0.4024 0.0
H466 H 0.28981 0.11323 0.35437 0.0
H467 H 0.32333 0.0741 0.32841 0.0
H468 H 0.38213 0.0159 0.38531 0.0
H469 H 0.36009 0.03892 0.43373 0.0
C470 C 0.31561 0.08316 0.43688 0.0
C471 C 0.29351 0.10724 0.43472 0.0
C472 C 0.32904 0.07021 0.4092 0.0
C473 C 0.285 0.11818 0.40469 0.0
C474 C 0.2974 0.10474 0.37718 0.0
C475 C 0.33142 0.06661 0.35142 0.0
C476 C 0.35412 0.04316 0.35331 0.0
C477 C 0.31927 0.0806 0.3791 0.0
C478 C 0.3647 0.03397 0.38327 0.0
C479 C 0.352 0.04704 0.41096 0.0
H480 H 0.14126 0.08735 0.67189 0.0
H481 H 0.20768 0.02092 0.70726 0.0
H482 H 0.2413 0.03159 0.66208 0.0
H483 H 0.25094 0.0585 0.61132 0.0
H484 H 0.18407 0.12512 0.57701 0.0
H485 H 0.1516 0.11542 0.62287 0.0
C486 C 0.16314 0.07522 0.66994 0.0
C487 C 0.17172 0.05318 0.69307 0.0
C488 C 0.18226 0.08133 0.64385 0.0
C489 C 0.20038 0.03802 0.68999 0.0
C490 C 0.21958 0.04401 0.66402 0.0
C491 C 0.22925 0.07087 0.61382 0.0
C492 C 0.22001 0.09242 0.59043 0.0
C493 C 0.2106 0.06536 0.64057 0.0
C494 C 0.19191 0.10842 0.59443 0.0
C495 C 0.17324 0.10289 0.62073 0.0
H496 H 0.1997 0.93026 0.82664 0.0
H497 H 0.14763 0.99593 0.8838 0.0
H498 H 0.16923 0.97375 0.93198 0.0
H499 H 0.20372 0.9363 0.95822 0.0
H500 H 0.25215 0.86703 0.902 0.0
H501 H 0.23116 0.88957 0.85343 0.0
C502 C 0.19313 0.93958 0.84968 0.0
C503 C 0.17226 0.96484 0.85164 0.0
C504 C 0.20495 0.92597 0.87754 0.0
C505 C 0.16359 0.97644 0.88165 0.0
C506 C 0.17598 0.96382 0.90926 0.0
C507 C 0.20951 0.92607 0.93532 0.0
C508 C 0.22958 0.90018 0.93369 0.0
C509 C 0.19676 0.93866 0.90754 0.0
C510 C 0.23663 0.88691 0.90389 0.0
C511 C 0.22476 0.89989 0.87607 0.0
H512 H 0.2737 0.97724 0.08965 0.0
H513 H 0.3155 0.88584 0.10063 0.0
H514 H 0.34 0.9043 0.15031 0.0
H515 H 0.34743 0.9464 0.19237 0.0
H516 H 0.30404 0.03691 0.17911 0.0
H517 H 0.28261 0.01874 0.12887 0.0
C518 C 0.28818 0.96118 0.10274 0.0
C519 C 0.2924 0.93004 0.09134 0.0
C520 C 0.30199 0.97185 0.13119 0.0
C521 C 0.31167 0.90993 0.10873 0.0
C522 C 0.32567 0.92048 0.13724 0.0
C523 C 0.33352 0.96215 0.1783 0.0
C524 C 0.32714 0.99293 0.18996 0.0
C525 C 0.32074 0.95139 0.14898 0.0
C526 C 0.30904 0.01297 0.17125 0.0
C527 C 0.29674 1.00265 0.14232 0.0
H528 H 0.36264 0.30593 0.02987 0.0
H529 H 0.33159 0.37675 0.09663 0.0
H530 H 0.37309 0.36314 0.1333 0.0
H531 H 0.41895 0.33293 0.14565 0.0
H532 H 0.45265 0.26301 0.0791 0.0
H533 H 0.40972 0.27467 0.04293 0.0
C534 C 0.36475 0.31782 0.05274 0.0
C535 C 0.34377 0.34185 0.06097 0.0
C536 C 0.3894 0.31042 0.07345 0.0
C537 C 0.34718 0.35785 0.09015 0.0
C538 C 0.37103 0.35023 0.11098 0.0
C539 C 0.41706 0.32004 0.12328 0.0
C540 C 0.4392 0.29702 0.11527 0.0
C541 C 0.39245 0.32686 0.10274 0.0
C542 C 0.43618 0.28095 0.08594 0.0
C543 C 0.41148 0.2875 0.0653 0.0
H544 H 0.94803 0.81749 0.20255 0.0
H545 H 1.0072 0.87364 0.14304 0.0
H546 H 0.98523 0.92225 0.16497 0.0
H547 H 0.95068 0.94899 0.20269 0.0
H548 H 0.88782 0.8934 0.25868 0.0
H549 H 0.90935 0.84449 0.23641 0.0
C550 C 0.95594 0.84041 0.19438 0.0
C551 C 0.97942 0.84205 0.1715 0.0
C552 C 0.9425 0.86835 0.20644 0.0
C553 C 0.98916 0.87181 0.16065 0.0
C554 C 0.97667 0.89963 0.17323 0.0
C555 C 0.94155 0.92615 0.20979 0.0
C556 C 0.91792 0.92474 0.23246 0.0
C557 C 0.95354 0.89821 0.19635 0.0
C558 C 0.90598 0.89504 0.24118 0.0
C559 C 0.9184 0.86709 0.22858 0.0
H560 H 0.15161 0.64462 0.54206 0.0
H561 H 0.21761 0.69712 0.59981 0.0
H562 H 0.17517 0.72374 0.62742 0.0
H563 H 0.11909 0.73292 0.63428 0.0
H564 H 0.05365 0.68395 0.57286 0.0
H565 H 0.09593 0.65516 0.54754 0.0
C566 C 0.15671 0.6617 0.5609 0.0
C567 C 0.18778 0.66858 0.56916 0.0
C568 C 0.13221 0.67763 0.57589 0.0
C569 C 0.19397 0.69128 0.59312 0.0
C570 C 0.16967 0.7065 0.60887 0.0
C571 C 0.11409 0.7158 0.61547 0.0
C572 C 0.08316 0.71038 0.60566 0.0
C573 C 0.13868 0.69999 0.60037 0.0
C574 C 0.07716 0.68854 0.58088 0.0
C575 C 0.10136 0.67204 0.56643 0.0
H576 H 0.96039 0.69806 0.74485 0.0
H577 H 0.97894 0.66236 0.6506 0.0
H578 H 0.95272 0.61232 0.66317 0.0
H579 H 0.921 0.5801 0.7002 0.0
H580 H 0.90024 0.61854 0.79269 0.0
H581 H 0.93103 0.66604 0.78169 0.0
C582 C 0.95898 0.67934 0.72699 0.0
C583 C 0.97152 0.6842 0.6967 0.0
C584 C 0.94332 0.65108 0.73413 0.0
C585 C 0.96959 0.65937 0.67411 0.0
C586 C 0.95443 0.63078 0.68125 0.0
C587 C 0.9236 0.59885 0.71791 0.0
C588 C 0.9085 0.59609 0.74719 0.0
C589 C 0.9407 0.62657 0.71103 0.0
C590 C 0.91164 0.62043 0.76998 0.0
C591 C 0.92921 0.6475 0.7637 0.0
H592 H 0.16103 0.1436 0.45092 0.0
H593 H 0.18715 0.22405 0.50986 0.0
H594 H 0.1452 0.25482 0.48711 0.0
H595 H 0.10402 0.26052 0.44646 0.0
H596 H 0.0804 0.18072 0.38586 0.0
H597 H 0.11797 0.148 0.41333 0.0
C598 C 0.15729 0.1677 0.45915 0.0
C599 C 0.17735 0.1815 0.48194 0.0
C600 C 0.1335 0.18547 0.4455 0.0
C601 C 0.17215 0.21283 0.49225 0.0
C602 C 0.14817 0.23051 0.47919 0.0
C603 C 0.10674 0.23578 0.4399 0.0
C604 C 0.08944 0.22282 0.41447 0.0
C605 C 0.12911 0.21733 0.45527 0.0
C606 C 0.09343 0.19097 0.40558 0.0
C607 C 0.11499 0.17234 0.42116 0.0
H608 H 0.54329 0.4447 0.23082 0.0
H609 H 0.64075 0.43374 0.21285 0.0
H610 H 0.63052 0.38228 0.18725 0.0
H611 H 0.59373 0.34018 0.16988 0.0
H612 H 0.49723 0.34855 0.19299 0.0
H613 H 0.50697 0.40131 0.21627 0.0
C614 C 0.56226 0.43097 0.22136 0.0
C615 C 0.59271 0.44304 0.22363 0.0
C616 C 0.55629 0.40108 0.20731 0.0
C617 C 0.61713 0.42487 0.21159 0.0
C618 C 0.61128 0.39553 0.19676 0.0
C619 C 0.57489 0.35383 0.17975 0.0
C620 C 0.54475 0.34103 0.17926 0.0
C621 C 0.58095 0.38345 0.19436 0.0
C622 C 0.52054 0.35828 0.19285 0.0
C623 C 0.52614 0.38832 0.20624 0.0
H624 H 0.35106 0.8647 0.94888 0.0
H625 H 0.34599 0.79924 0.02597 0.0
H626 H 0.39298 0.77307 1.00684 0.0
H627 H 0.43564 0.769 0.96749 0.0
H628 H 0.43682 0.8332 0.88888 0.0
H629 H 0.3912 0.85936 0.90917 0.0
C630 C 0.36035 0.84487 0.96172 0.0
C631 C 0.34536 0.83421 0.98905 0.0
C632 C 0.38661 0.8295 0.95009 0.0
C633 C 0.35729 0.80802 1.00497 0.0
C634 C 0.38409 0.79303 0.99398 0.0
C635 C 0.42576 0.7886 0.95479 0.0
C636 C 0.43977 0.79908 0.92669 0.0
C637 C 0.39895 0.80352 0.96643 0.0
C638 C 0.42658 0.82446 0.91045 0.0
C639 C 0.40049 0.83962 0.9221 0.0
H640 H 0.9064 0.42613 0.8444 0.0
H641 H 0.96034 0.42388 0.75895 0.0
H642 H 0.98879 0.378 0.77839 0.0
H643 H 0.99741 0.33782 0.81975 0.0
H644 H 0.94601 0.34408 0.90688 0.0
H645 H 0.91772 0.38925 0.88695 0.0
C646 C 0.92433 0.41549 0.83001 0.0
C647 C 0.931 0.4279 0.80012 0.0
C648 C 0.94115 0.38998 0.84177 0.0
C649 C 0.95475 0.4145 0.78197 0.0
C650 C 0.97098 0.38833 0.7931 0.0
C651 C 0.98015 0.34928 0.83437 0.0
C652 C 0.97368 0.33752 0.86467 0.0
C653 C 0.96429 0.37577 0.82296 0.0
C654 C 0.95151 0.35272 0.88354 0.0
C655 C 0.93518 0.37847 0.8721 0.0
H656 H 0.38033 0.14761 0.53168 0.0
H657 H 0.30264 0.1979 0.57065 0.0
H658 H 0.33765 0.23132 0.60249 0.0
H659 H 0.38995 0.24312 0.62283 0.0
H660 H 0.46808 0.19488 0.58241 0.0
H661 H 0.4334 0.16417 0.54728 0.0
C662 C 0.37114 0.16612 0.5469 0.0
C663 C 0.33891 0.16998 0.54907 0.0
C664 C 0.39146 0.18558 0.56494 0.0
C665 C 0.32733 0.19438 0.56853 0.0
C666 C 0.34733 0.21344 0.58687 0.0
C667 C 0.39939 0.22619 0.606 0.0
C668 C 0.43146 0.22102 0.60543 0.0
C669 C 0.37937 0.20879 0.58579 0.0
C670 C 0.44346 0.19934 0.58325 0.0
C671 C 0.42363 0.1816 0.56332 0.0
H672 H 0.59293 0.70862 0.32178 0.0
H673 H 0.50816 0.66484 0.35349 0.0
H674 H 0.52746 0.6126 0.3377 0.0
H675 H 0.56854 0.57942 0.31445 0.0
H676 H 0.65508 0.62296 0.2877 0.0
H677 H 0.63506 0.67529 0.30179 0.0
C678 C 0.57869 0.68761 0.3252 0.0
C679 C 0.54906 0.69054 0.33849 0.0
C680 C 0.59027 0.65767 0.31686 0.0
C681 C 0.53106 0.66313 0.34333 0.0
C682 C 0.54204 0.63331 0.3342 0.0
C683 C 0.5829 0.60044 0.31165 0.0
C684 C 0.6131 0.59752 0.29979 0.0
C685 C 0.57158 0.6303 0.32083 0.0
C686 C 0.63175 0.62474 0.29677 0.0
C687 C 0.62031 0.65461 0.30479 0.0
H688 H 0.07694 0.79077 0.05891 0.0
H689 H 0.12308 0.78464 0.14928 0.0
H690 H 0.1704 0.80716 0.1267 0.0
H691 H 0.19692 0.83383 0.08255 0.0
H692 H 0.14828 0.84587 0.99438 0.0
H693 H 0.10395 0.81569 0.0144 0.0
C694 C 0.09759 0.79376 0.07343 0.0
C695 C 0.09664 0.78586 0.10563 0.0
C696 C 0.12424 0.80808 0.06063 0.0
C697 C 0.12331 0.7905 0.1244 0.0
C698 C 0.15034 0.80346 0.11151 0.0
C699 C 0.17683 0.82917 0.0676 0.0
C700 C 0.17586 0.84163 0.03696 0.0
C701 C 0.15085 0.81308 0.07986 0.0
C702 C 0.14949 0.83624 0.01798 0.0
C703 C 0.12414 0.81911 0.02946 0.0
H704 H 0.75352 0.91272 0.60954 0.0
H705 H 0.68928 0.9735 0.56182 0.0
H706 H 0.67017 0.99288 0.61257 0.0
H707 H 0.67235 0.99379 0.6706 0.0
H708 H 0.73766 0.9344 0.71858 0.0
H709 H 0.7555 0.91344 0.66786 0.0
C710 C 0.7352 0.93004 0.61025 0.0
C711 C 0.72295 0.9416 0.58182 0.0
C712 C 0.7245 0.94152 0.63966 0.0
C713 C 0.69935 0.96427 0.58326 0.0
C714 C 0.68832 0.97538 0.61233 0.0
C715 C 0.69039 0.97615 0.67002 0.0
C716 C 0.70359 0.9658 0.69849 0.0
C717 C 0.70085 0.96438 0.64069 0.0
C718 C 0.72711 0.94302 0.69712 0.0
C719 C 0.73734 0.93092 0.66807 0.0
H720 H 0.88018 0.93848 0.35209 0.0
H721 H 0.82586 0.02332 0.35489 0.0
H722 H 0.79606 1.00248 0.39951 0.0
H723 H 0.78519 0.95938 0.43733 0.0
H724 H 0.83749 0.87312 0.43057 0.0
H725 H 0.86794 0.89503 0.38763 0.0
C726 C 0.86209 0.95261 0.36276 0.0
C727 C 0.85559 0.98265 0.35069 0.0
C728 C 0.84438 0.93996 0.3874 0.0
C729 C 0.8315 1.00029 0.36409 0.0
C730 C 0.81438 0.98829 0.38945 0.0
C731 C 0.80312 0.94535 0.42628 0.0
C732 C 0.80906 0.91466 0.43726 0.0
C733 C 0.82047 0.95801 0.40118 0.0
C734 C 0.83229 0.89673 0.42259 0.0
C735 C 0.8499 0.90931 0.39812 0.0
H736 H 0.8047 0.02948 0.07975 0.0
H737 H 0.79961 0.12627 0.11343 0.0
H738 H 0.82495 0.11154 0.16312 0.0
H739 H 0.85433 0.07195 0.19411 0.0
H740 H 0.86233 0.97678 0.15688 0.0
H741 H 0.82993 0.98993 0.11152 0.0
C742 C 0.80879 0.04741 0.09803 0.0
C743 C 0.80064 0.07904 0.09264 0.0
C744 C 0.82412 0.03899 0.12588 0.0
C745 C 0.80567 0.10175 0.1169 0.0
C746 C 0.82038 0.09336 0.14523 0.0
C747 C 0.84836 0.0541 0.17628 0.0
C748 C 0.86052 0.02345 0.1786 0.0
C749 C 0.83055 0.06221 0.14959 0.0
C750 C 0.85316 1.00048 0.15535 0.0
C751 C 0.83472 0.00802 0.12946 0.0
H752 H 0.71701 0.02948 0.84539 0.0
H753 H 0.63399 0.08513 0.84809 0.0
H754 H 0.65377 0.11471 0.89412 0.0
H755 H 0.6945 0.12481 0.93387 0.0
H756 H 0.77568 0.06664 0.93435 0.0
H757 H 0.75713 0.03832 0.88664 0.0
C758 C 0.70325 0.04799 0.85618 0.0
C759 C 0.67411 0.05511 0.84331 0.0
C760 C 0.71461 0.06471 0.88299 0.0
C761 C 0.65642 0.07904 0.85762 0.0
C762 C 0.66779 0.09614 0.88385 0.0
C763 C 0.70829 0.10622 0.92322 0.0
C764 C 0.7366 0.09809 0.93716 0.0
C765 C 0.69689 0.08929 0.89664 0.0
C766 C 0.75391 0.07342 0.92374 0.0
C767 C 0.74325 0.05717 0.8966 0.0
H768 H 0.63547 0.76412 0.93577 0.0
H769 H 0.57194 0.68471 0.93596 0.0
H770 H 0.60955 0.6535 0.96548 0.0
H771 H 0.6628 0.64735 0.98652 0.0
H772 H 0.72447 0.72846 0.98997 0.0
H773 H 0.68535 0.76058 0.96422 0.0
C774 C 0.6297 0.74021 0.94295 0.0
C775 C 0.60113 0.72661 0.93374 0.0
C776 C 0.65123 0.72267 0.96034 0.0
C777 C 0.59375 0.69568 0.94309 0.0
C778 C 0.61534 0.67778 0.95973 0.0
C779 C 0.6674 0.6722 0.9821 0.0
C780 C 0.69659 0.68543 0.98985 0.0
C781 C 0.64449 0.69077 0.96779 0.0
C782 C 0.70217 0.71772 0.9843 0.0
C783 C 0.67986 0.73608 0.96939 0.0
H784 H 0.0693 0.0862 0.77939 0.0
H785 H 0.1483 0.09939 0.84133 0.0
H786 H 0.12637 0.14827 0.86257 0.0
H787 H 0.08493 0.1879 0.86321 0.0
H788 H 1.00816 0.1773 0.79833 0.0
H789 H 0.02858 0.12668 0.7789 0.0
C790 C 0.08172 0.09985 0.79747 0.0
C791 C 0.11038 0.08914 0.80875 0.0
C792 C 0.06914 0.12824 0.80932 0.0
C793 C 0.12629 0.10717 0.83208 0.0
C794 C 0.11368 0.13506 0.8444 0.0
C795 C 0.07253 0.17414 0.84518 0.0
C796 C 0.04483 0.18573 0.83261 0.0
C797 C 0.08509 0.14579 0.83327 0.0
C798 C 0.02931 0.1684 0.8086 0.0
C799 C 0.04108 0.13963 0.79739 0.0
H800 H 0.9263 0.27481 0.45647 0.0
H801 H 0.93392 0.34761 0.3862 0.0
H802 H 0.88866 0.3737 0.40757 0.0
H803 H 0.84635 0.37598 0.44543 0.0
H804 H 0.83506 0.30197 0.51363 0.0
H805 H 0.88213 0.27644 0.49413 0.0
C806 C 0.91796 0.29635 0.4459 0.0
C807 C 0.93353 0.30915 0.41971 0.0
C808 C 0.89127 0.31116 0.45802 0.0
C809 C 0.92234 0.33702 0.40618 0.0
C810 C 0.89646 0.35213 0.41847 0.0
C811 C 0.85432 0.35441 0.45625 0.0
C812 C 0.83743 0.34108 0.48114 0.0
C813 C 0.88074 0.33944 0.44431 0.0
C814 C 0.84776 0.31278 0.4945 0.0
C815 C 0.87464 0.29815 0.48331 0.0
H816 H 0.6387 0.92823 0.86394 0.0
H817 H 0.59212 0.93007 0.77342 0.0
H818 H 0.56105 0.88356 0.78778 0.0
H819 H 0.54788 0.84142 0.82592 0.0
H820 H 0.5918 0.84263 0.91779 0.0
H821 H 0.62344 0.88851 0.90298 0.0
C822 C 0.62162 0.91858 0.84739 0.0
C823 C 0.61787 0.9326 0.81756 0.0
C824 C 0.60362 0.89208 0.85596 0.0
C825 C 0.59538 0.91994 0.79658 0.0
C826 C 0.57777 0.89316 0.8047 0.0
C827 C 0.56458 0.85165 0.84252 0.0
C828 C 0.56791 0.83842 0.87274 0.0
C829 C 0.5819 0.87882 0.83421 0.0
C830 C 0.58904 0.8523 0.89436 0.0
C831 C 0.60704 0.87857 0.88592 0.0
H832 H 0.02324 0.17011 0.31799 0.0
H833 H 0.93547 0.20683 0.34815 0.0
H834 H 0.91001 0.15624 0.33291 0.0
H835 H 0.91293 0.102 0.30782 0.0
H836 H 1.00259 0.06731 0.27997 0.0
H837 H 0.02691 0.11642 0.29778 0.0
C838 C 0.99847 0.1672 0.32117 0.0
C839 C 0.98118 0.19244 0.33353 0.0
C840 C 0.98429 0.13822 0.31281 0.0
C841 C 0.94927 0.18785 0.33837 0.0
C842 C 0.93475 0.15892 0.32964 0.0
C843 C 0.9378 0.1051 0.3061 0.0
C844 C 0.95574 0.08097 0.29202 0.0
C845 C 0.95202 0.13394 0.31644 0.0
C846 C 0.98801 0.08548 0.29011 0.0
C847 C 1.00207 0.11365 0.30032 0.0
H848 H 0.56529 0.06543 0.72485 0.0
H849 H 0.65506 0.1056 0.70458 0.0
H850 H 0.63089 0.15357 0.68484 0.0
H851 H 0.58409 0.18626 0.67767 0.0
H852 H 0.49494 0.14654 0.70175 0.0
H853 H 0.51883 0.09668 0.71539 0.0
C854 C 0.57954 0.08441 0.71552 0.0
C855 C 0.61193 0.08183 0.71612 0.0
C856 C 0.56553 0.1124 0.70521 0.0
C857 C 0.63005 0.10692 0.70437 0.0
C858 C 0.61623 0.13447 0.69319 0.0
C859 C 0.56993 0.16656 0.68557 0.0
C860 C 0.53777 0.17037 0.68894 0.0
C861 C 0.58398 0.13785 0.69418 0.0
C862 C 0.51979 0.14454 0.69934 0.0
C863 C 0.53341 0.11587 0.70709 0.0
H864 H 0.17935 0.39096 0.9251 0.0
H865 H 0.20442 0.31192 0.98294 0.0
H866 H 0.15771 0.28293 0.96465 0.0
H867 H 0.10915 0.28031 0.93128 0.0
H868 H 0.08674 0.36116 0.87454 0.0
H869 H 0.13259 0.38909 0.8938 0.0
C870 C 0.17487 0.36736 0.93391 0.0
C871 C 0.19568 0.35381 0.95547 0.0
C872 C 0.14804 0.35112 0.92359 0.0
C873 C 0.18908 0.32305 0.96622 0.0
C874 C 0.16219 0.3065 0.95587 0.0
C875 C 0.11418 0.30417 0.92355 0.0
C876 C 0.09434 0.31851 0.90136 0.0
C877 C 0.14132 0.32036 0.93455 0.0
C878 C 0.10151 0.34936 0.89136 0.0
C879 C 0.12784 0.36544 0.90233 0.0
H880 H 0.42647 0.73187 0.46425 0.0
H881 H 0.43271 0.67979 0.37595 0.0
H882 H 0.38785 0.64735 0.39018 0.0
H883 H 0.34609 0.63461 0.42669 0.0
H884 H 0.33654 0.68831 0.51375 0.0
H885 H 0.38292 0.7196 0.50089 0.0
C886 C 0.41817 0.71309 0.44845 0.0
C887 C 0.43314 0.70783 0.41929 0.0
C888 C 0.39147 0.69519 0.45633 0.0
C889 C 0.42172 0.68404 0.3986 0.0
C890 C 0.39598 0.6656 0.40667 0.0
C891 C 0.35406 0.65315 0.44296 0.0
C892 C 0.33776 0.65894 0.47126 0.0
C893 C 0.3805 0.67114 0.43528 0.0
C894 C 0.34842 0.68338 0.49174 0.0
C895 C 0.37511 0.70116 0.48447 0.0
H896 H 0.88116 0.57595 0.85546 0.0
H897 H 0.80856 0.50625 0.84045 0.0
H898 H 0.7802 0.52756 0.88572 0.0
H899 H 0.77583 0.56603 0.92975 0.0
H900 H 0.84467 0.63997 0.94138 0.0
H901 H 0.87475 0.61725 0.89755 0.0
C902 C 0.85915 0.56553 0.86224 0.0
C903 C 0.84704 0.53942 0.8449 0.0
C904 C 0.84234 0.57869 0.88771 0.0
C905 C 0.81828 0.52639 0.85347 0.0
C906 C 0.80209 0.53849 0.87939 0.0
C907 C 0.79746 0.57706 0.92263 0.0
C908 C 0.80828 0.60436 0.93878 0.0
C909 C 0.81388 0.5646 0.89671 0.0
C910 C 0.836 0.61888 0.92915 0.0
C911 C 0.85317 0.60587 0.90417 0.0
H912 H 0.69915 0.53565 0.18937 0.0
H913 H 0.63114 0.60748 0.17248 0.0
H914 H 0.65978 0.62524 0.12627 0.0
H915 H 0.70327 0.61911 0.08899 0.0
H916 H 0.77016 0.54598 0.10552 0.0
H917 H 0.74297 0.5303 0.15306 0.0
C918 C 0.69071 0.55542 0.17579 0.0
C919 C 0.66293 0.57009 0.18454 0.0
C920 C 0.70707 0.56525 0.14881 0.0
C921 C 0.65235 0.59554 0.16636 0.0
C922 C 0.66874 0.60574 0.13983 0.0
C923 C 0.71199 0.59984 0.10307 0.0
C924 C 0.73875 0.58374 0.09331 0.0
C925 C 0.69597 0.59057 0.13054 0.0
C926 C 0.74955 0.55875 0.11202 0.0
C927 C 0.73401 0.54974 0.13941 0.0
H928 H 0.74563 0.39691 0.3971 0.0
H929 H 0.68853 0.44102 0.46811 0.0
H930 H 0.66164 0.47069 0.42729 0.0
H931 H 0.65539 0.48549 0.37171 0.0
H932 H 0.7155 0.44576 0.30076 0.0
H933 H 0.74031 0.4132 0.34103 0.0
C934 C 0.72704 0.41277 0.40346 0.0
C935 C 0.71877 0.41652 0.43552 0.0
C936 C 0.71246 0.43075 0.37988 0.0
C937 C 0.69518 0.43766 0.44361 0.0
C938 C 0.67985 0.45467 0.42027 0.0
C939 C 0.67385 0.46961 0.365 0.0
C940 C 0.68346 0.46792 0.33322 0.0
C941 C 0.68847 0.45164 0.38839 0.0
C942 C 0.70771 0.44756 0.32505 0.0
C943 C 0.72183 0.42887 0.34807 0.0
H944 H 0.78974 0.45897 0.70399 0.0
H945 H 0.88463 0.46266 0.67347 0.0
H946 H 0.86954 0.43821 0.62233 0.0
H947 H 0.82758 0.42201 0.58387 0.0
H948 H 0.73307 0.42046 0.61617 0.0
H949 H 0.74974 0.43736 0.66898 0.0
C950 C 0.80724 0.45402 0.68632 0.0
C951 C 0.83815 0.463 0.69231 0.0
C952 C 0.79834 0.44044 0.65712 0.0
C953 C 0.86064 0.45597 0.66941 0.0
C954 C 0.85195 0.4422 0.64008 0.0
C955 C 0.81089 0.42468 0.60277 0.0
C956 C 0.7791 0.42024 0.59616 0.0
C957 C 0.82065 0.43518 0.63327 0.0
C958 C 0.7576 0.42398 0.62071 0.0
C959 C 0.76709 0.43372 0.65089 0.0
H960 H 0.43097 0.08138 0.21472 0.0
H961 H 0.40368 0.12748 0.30186 0.0
H962 H 0.43604 0.17336 0.28972 0.0
H963 H 0.46758 0.20233 0.25266 0.0
H964 H 0.49233 0.15975 0.16288 0.0
H965 H 0.46603 0.11037 0.17791 0.0
C966 C 0.43266 0.1013 0.23118 0.0
C967 C 0.41498 0.10116 0.25915 0.0
C968 C 0.45062 0.12828 0.22348 0.0
C969 C 0.41697 0.12719 0.28017 0.0
C970 C 0.43544 0.15342 0.27323 0.0
C971 C 0.46756 0.18227 0.23628 0.0
C972 C 0.48168 0.18506 0.20644 0.0
C973 C 0.45166 0.15455 0.24463 0.0
C974 C 0.48164 0.15844 0.18596 0.0
C975 C 0.46642 0.13023 0.1945 0.0
H976 H 0.08887 0.82806 0.68514 0.0
H977 H 0.99459 0.8558 0.66935 0.0
H978 H 1.00552 0.90773 0.69403 0.0
H979 H 0.04202 0.94516 0.71985 0.0
H980 H 0.13619 0.91693 0.7372 0.0
H981 H 0.12523 0.86527 0.71241 0.0
C982 C 0.07091 0.84571 0.68696 0.0
C983 C 0.04113 0.83859 0.6752 0.0
C984 C 0.07731 0.87525 0.70161 0.0
C985 C 0.01773 0.8611 0.67804 0.0
C986 C 0.02398 0.89068 0.69222 0.0
C987 C 0.06016 0.9277 0.71832 0.0
C988 C 0.08992 0.93504 0.73038 0.0
C989 C 0.05368 0.898 0.7041 0.0
C990 C 0.11303 0.91194 0.72835 0.0
C991 C 0.10684 0.88242 0.71399 0.0
H992 H 0.48889 0.83947 0.31548 0.0
H993 H 0.43314 0.84296 0.39997 0.0
H994 H 0.40339 0.88613 0.37849 0.0
H995 H 0.39287 0.92318 0.33619 0.0
H996 H 0.45068 0.9244 0.25346 0.0
H997 H 0.47963 0.87906 0.27342 0.0
C998 C 0.47034 0.84985 0.32918 0.0
C999 C 0.46329 0.83784 0.3593 0.0
C1000 C 0.45342 0.87532 0.31684 0.0
C1001 C 0.43926 0.85169 0.37683 0.0
C1002 C 0.42203 0.87634 0.36449 0.0
C1003 C 0.41153 0.91324 0.32229 0.0
C1004 C 0.41925 0.92667 0.29311 0.0
C1005 C 0.42876 0.88823 0.33452 0.0
C1006 C 0.44409 0.91418 0.27583 0.0
C1007 C 0.46072 0.88838 0.28733 0.0
H1008 H 0.83045 0.69317 0.06502 0.0
H1009 H 0.89741 0.62797 0.02714 0.0
H1010 H 0.93934 0.65899 0.05185 0.0
H1011 H 0.95676 0.70221 0.08796 0.0
H1012 H 0.8893 0.765 0.12867 0.0
H1013 H 0.84802 0.73776 0.09881 0.0
C1014 C 0.85423 0.68591 0.06184 0.0
C1015 C 0.86065 0.6581 0.04437 0.0
C1016 C 0.87824 0.70349 0.0767 0.0
C1017 C 0.89168 0.64907 0.04068 0.0
C1018 C 0.91574 0.66685 0.05478 0.0
C1019 C 0.9331 0.71031 0.08973 0.0
C1020 C 0.9261 0.73564 0.11042 0.0
C1021 C 0.90928 0.69378 0.07333 0.0
C1022 C 0.89526 0.74553 0.11292 0.0
C1023 C 0.87163 0.72989 0.09594 0.0
H1024 H 0.59393 0.26753 0.57136 0.0
H1025 H 0.59852 0.3255 0.65647 0.0
H1026 H 0.63919 0.35802 0.63348 0.0
H1027 H 0.67097 0.37263 0.58801 0.0
H1028 H 0.67 0.3137 0.50388 0.0
H1029 H 0.63058 0.27888 0.52752 0.0
C1030 C 0.60417 0.287 0.585 0.0
C1031 C 0.59292 0.29414 0.61556 0.0
C1032 C 0.628 0.30563 0.57167 0.0
C1033 C 0.60662 0.31935 0.63297 0.0
C1034 C 0.62983 0.33815 0.61977 0.0
C1035 C 0.66221 0.35201 0.57498 0.0
C1036 C 0.67289 0.34586 0.54417 0.0
C1037 C 0.64023 0.33193 0.58897 0.0
C1038 C 0.66192 0.31886 0.52762 0.0
C1039 C 0.63938 0.29906 0.54113 0.0
H1040 H 0.20743 0.46506 0.06873 0.0
H1041 H 0.27016 0.39482 0.10382 0.0
H1042 H 0.25576 0.40827 0.15814 0.0
H1043 H 0.22633 0.44066 0.1958 0.0
H1044 H 0.16243 0.50991 0.161 0.0
H1045 H 0.17622 0.49599 0.10652 0.0
C1046 C 0.21798 0.45268 0.08825 0.0
C1047 C 0.24002 0.42906 0.08209 0.0
C1048 C 0.20936 0.46033 0.11952 0.0
C1049 C 0.25312 0.41304 0.10774 0.0
C1050 C 0.24495 0.42078 0.13887 0.0
C1051 C 0.21535 0.45275 0.17634 0.0
C1052 C 0.19349 0.47649 0.18262 0.0
C1053 C 0.22324 0.44449 0.14505 0.0
C1054 C 0.17929 0.49155 0.15698 0.0
C1055 C 0.18725 0.48365 0.12577 0.0
H1056 H 0.38448 0.43257 0.84118 0.0
H1057 H 0.33325 0.51905 0.85061 0.0
H1058 H 0.30556 0.4976 0.89624 0.0
H1059 H 0.29557 0.45362 0.93324 0.0
H1060 H 0.34438 0.36587 0.92026 0.0
H1061 H 0.37292 0.3882 0.87616 0.0
C1062 C 0.36752 0.44686 0.85348 0.0
C1063 C 0.36129 0.47755 0.84292 0.0
C1064 C 0.35092 0.43393 0.87886 0.0
C1065 C 0.33865 0.49546 0.85853 0.0
C1066 C 0.32273 0.48315 0.88452 0.0
C1067 C 0.31233 0.43938 0.92061 0.0
C1068 C 0.31783 0.40812 0.93017 0.0
C1069 C 0.32853 0.45229 0.89481 0.0
C1070 C 0.33953 0.38993 0.91343 0.0
C1071 C 0.35605 0.40274 0.88825 0.0
H1072 H 0.30284 0.60897 0.60607 0.0
H1073 H 0.28821 0.51618 0.56374 0.0
H1074 H 0.31673 0.49218 0.60673 0.0
H1075 H 0.3509 0.49779 0.65313 0.0
H1076 H 0.3659 0.58965 0.69649 0.0
H1077 H 0.33234 0.61377 0.65662 0.0
C1078 C 0.30532 0.58347 0.60666 0.0
C1079 C 0.29371 0.56452 0.58139 0.0
C1080 C 0.32224 0.56965 0.63147 0.0
C1081 C 0.29724 0.53145 0.58257 0.0
C1082 C 0.31362 0.51762 0.60716 0.0
C1083 C 0.34627 0.52299 0.65407 0.0
C1084 C 0.36065 0.54202 0.67747 0.0
C1085 C 0.32704 0.53653 0.63117 0.0
C1086 C 0.35478 0.57464 0.67864 0.0
C1087 C 0.33573 0.58838 0.6558 0.0
H1088 H 0.1552 0.5924 0.34248 0.0
H1089 H 0.21435 0.51101 0.3395 0.0
H1090 H 0.23978 0.52891 0.38877 0.0
H1091 H 0.24465 0.56755 0.43303 0.0
H1092 H 0.18805 0.65095 0.43361 0.0
H1093 H 0.16246 0.63274 0.38472 0.0
C1094 C 0.17355 0.57853 0.35277 0.0
C1095 C 0.18265 0.55022 0.33775 0.0
C1096 C 0.18869 0.58952 0.38046 0.0
C1097 C 0.20689 0.5328 0.35082 0.0
C1098 C 0.22144 0.54305 0.37892 0.0
C1099 C 0.22687 0.58182 0.4223 0.0
C1100 C 0.21815 0.61049 0.43698 0.0
C1101 C 0.21252 0.57138 0.39396 0.0
C1102 C 0.19526 0.62888 0.4227 0.0
C1103 C 0.18048 0.61838 0.39485 0.0
loop_
_geom_bond_atom_site_label_1
_geom_bond_atom_site_label_2
_geom_bond_distance
_geom_bond_site_symmetry_2
_ccdc_geom_bond_type
Co0 O1 2.216 1_455 S
Co0 O2 2.091 1_455 S
Co0 O4 2.004 . S
Co0 O10 2.021 1_455 S
Co0 O12 2.137 . S
Co0 O13 2.244 . S
O1 Co0 2.216 1_655 S
O1 C8 1.247 . S
O2 Co0 2.091 1_655 S
O2 C8 1.261 . S
C3 O12 1.247 . S
C3 O13 1.272 . S
O4 Co0 2.004 . S
O4 C9 1.259 . S
Co5 O6 2.061 . S
Co5 O11 2.052 . S
Co5 O13 2.135 . S
O6 Co5 2.061 . S
O6 C9 1.235 . S
C7 O10 1.238 . S
C7 O11 1.241 1_655 S
C8 O1 1.247 . S
C8 O2 1.261 . S
C9 O4 1.259 . S
C9 O6 1.235 . S
O10 Co0 2.021 1_655 S
O10 C7 1.238 . S
O11 Co5 2.052 . S
O11 C7 1.241 1_455 S
O12 Co0 2.137 . S
O12 C3 1.247 . S
O13 Co0 2.244 . S
O13 C3 1.272 . S
O13 Co5 2.135 . S
Co14 O15 2.216 . S
Co14 O16 2.091 . S
Co14 O18 2.004 1_455 S
Co14 O24 2.021 1_455 S
Co14 O26 2.137 . S
Co14 O27 2.244 . S
O15 Co14 2.216 . S
O15 C22 1.247 . S
O16 Co14 2.091 . S
O16 C22 1.261 . S
C17 O26 1.247 . S
C17 O27 1.272 . S
O18 Co14 2.004 1_655 S
O18 C23 1.259 . S
Co19 O20 2.061 . S
Co19 O25 2.052 . S
Co19 O27 2.135 1_655 S
O20 Co19 2.061 . S
O20 C23 1.235 . S
C21 O24 1.238 . S
C21 O25 1.241 . S
C22 O15 1.247 . S
C22 O16 1.261 . S
C23 O18 1.259 . S
C23 O20 1.235 . S
O24 Co14 2.021 1_655 S
O24 C21 1.238 . S
O25 Co19 2.052 . S
O25 C21 1.241 . S
O26 Co14 2.137 . S
O26 C17 1.247 . S
O27 Co14 2.244 . S
O27 C17 1.272 . S
O27 Co19 2.135 1_455 S
Co28 O29 2.216 . S
Co28 O30 2.091 . S
Co28 O32 2.004 . S
Co28 O38 2.021 . S
Co28 O40 2.137 . S
Co28 O41 2.244 . S
O29 Co28 2.216 . S
O29 C36 1.247 . S
O30 Co28 2.091 . S
O30 C36 1.261 . S
C31 O40 1.247 . S
C31 O41 1.272 . S
O32 Co28 2.004 . S
O32 C37 1.259 . S
Co33 O34 2.061 . S
Co33 O39 2.052 . S
Co33 O41 2.135 . S
O34 Co33 2.061 . S
O34 C37 1.235 . S
C35 O38 1.238 . S
C35 O39 1.241 . S
C36 O29 1.247 . S
C36 O30 1.261 . S
C37 O32 1.259 . S
C37 O34 1.235 . S
O38 Co28 2.021 . S
O38 C35 1.238 . S
O39 Co33 2.052 . S
O39 C35 1.241 . S
O40 Co28 2.137 . S
O40 C31 1.247 . S
O41 Co28 2.244 . S
O41 C31 1.272 . S
O41 Co33 2.135 . S
Co42 O43 2.216 . S
Co42 O44 2.091 . S
Co42 O46 2.004 . S
Co42 O52 2.021 . S
Co42 O54 2.137 . S
Co42 O55 2.244 . S
O43 Co42 2.216 . S
O43 C50 1.247 . S
O44 Co42 2.091 . S
O44 C50 1.261 . S
C45 O54 1.247 . S
C45 O55 1.272 . S
O46 Co42 2.004 . S
O46 C51 1.259 . S
Co47 O48 2.061 . S
Co47 O53 2.052 . S
Co47 O55 2.135 . S
O48 Co47 2.061 . S
O48 C51 1.235 . S
C49 O52 1.238 . S
C49 O53 1.241 . S
C50 O43 1.247 . S
C50 O44 1.261 . S
C51 O46 1.259 . S
C51 O48 1.235 . S
O52 Co42 2.021 . S
O52 C49 1.238 . S
O53 Co47 2.052 . S
O53 C49 1.241 . S
O54 Co42 2.137 . S
O54 C45 1.247 . S
O55 Co42 2.244 . S
O55 C45 1.272 . S
O55 Co47 2.135 . S
Co56 O57 2.216 . S
Co56 O58 2.091 . S
Co56 O60 2.004 1_455 S
Co56 O66 2.021 . S
Co56 O68 2.137 1_455 S
Co56 O69 2.244 1_455 S
O57 Co56 2.216 . S
O57 C64 1.247 . S
O58 Co56 2.091 . S
O58 C64 1.261 . S
C59 O68 1.247 . S
C59 O69 1.272 . S
O60 Co56 2.004 1_655 S
O60 C65 1.259 . S
Co61 O62 2.061 . S
Co61 O67 2.052 1_655 S
Co61 O69 2.135 . S
O62 Co61 2.061 . S
O62 C65 1.235 . S
C63 O66 1.238 . S
C63 O67 1.241 . S
C64 O57 1.247 . S
C64 O58 1.261 . S
C65 O60 1.259 . S
C65 O62 1.235 . S
O66 Co56 2.021 . S
O66 C63 1.238 . S
O67 Co61 2.052 1_455 S
O67 C63 1.241 . S
O68 Co56 2.137 1_655 S
O68 C59 1.247 . S
O69 Co56 2.244 1_655 S
O69 C59 1.272 . S
O69 Co61 2.135 . S
Co70 O71 2.216 . S
Co70 O72 2.091 . S
Co70 O74 2.004 . S
Co70 O80 2.021 . S
Co70 O82 2.137 . S
Co70 O83 2.244 . S
O71 Co70 2.216 . S
O71 C78 1.247 . S
O72 Co70 2.091 . S
O72 C78 1.261 . S
C73 O82 1.247 . S
C73 O83 1.272 . S
O74 Co70 2.004 . S
O74 C79 1.259 . S
Co75 O76 2.061 . S
Co75 O81 2.052 . S
Co75 O83 2.135 . S
O76 Co75 2.061 . S
O76 C79 1.235 . S
C77 O80 1.238 . S
C77 O81 1.241 . S
C78 O71 1.247 . S
C78 O72 1.261 . S
C79 O74 1.259 . S
C79 O76 1.235 . S
O80 Co70 2.021 . S
O80 C77 1.238 . S
O81 Co75 2.052 . S
O81 C77 1.241 . S
O82 Co70 2.137 . S
O82 C73 1.247 . S
O83 Co70 2.244 . S
O83 C73 1.272 . S
O83 Co75 2.135 . S
Co84 O85 2.216 . S
Co84 O86 2.091 . S
Co84 O88 2.004 . S
Co84 O94 2.021 . S
Co84 O96 2.137 . S
Co84 O97 2.244 . S
O85 Co84 2.216 . S
O85 C92 1.247 . S
O86 Co84 2.091 . S
O86 C92 1.261 . S
C87 O96 1.247 . S
C87 O97 1.272 . S
O88 Co84 2.004 . S
O88 C93 1.259 . S
Co89 O90 2.061 . S
Co89 O95 2.052 . S
Co89 O97 2.135 . S
O90 Co89 2.061 . S
O90 C93 1.235 . S
C91 O94 1.238 . S
C91 O95 1.241 . S
C92 O85 1.247 . S
C92 O86 1.261 . S
C93 O88 1.259 . S
C93 O90 1.235 . S
O94 Co84 2.021 . S
O94 C91 1.238 . S
O95 Co89 2.052 . S
O95 C91 1.241 . S
O96 Co84 2.137 . S
O96 C87 1.247 . S
O97 Co84 2.244 . S
O97 C87 1.272 . S
O97 Co89 2.135 . S
Co98 O99 2.216 . S
Co98 O100 2.091 . S
Co98 O102 2.004 1_655 S
Co98 O108 2.021 1_655 S
Co98 O110 2.137 . S
Co98 O111 2.242 1_655 S
O99 Co98 2.216 . S
O99 C106 1.247 . S
O100 Co98 2.091 . S
O100 C106 1.261 . S
C101 O110 1.247 . S
C101 O111 1.251 1_655 S
O102 Co98 2.004 1_455 S
O102 C107 1.259 . S
Co103 O104 2.061 . S
Co103 O109 2.052 . S
Co103 O111 2.165 . S
O104 Co103 2.061 . S
O104 C107 1.235 . S
C105 O108 1.238 . S
C105 O109 1.241 . S
C106 O99 1.247 . S
C106 O100 1.261 . S
C107 O102 1.259 . S
C107 O104 1.235 . S
O108 Co98 2.021 1_455 S
O108 C105 1.238 . S
O109 Co103 2.052 . S
O109 C105 1.241 . S
O110 Co98 2.137 . S
O110 C101 1.247 . S
O111 Co98 2.242 1_455 S
O111 C101 1.251 1_455 S
O111 Co103 2.165 . S
Co112 O113 2.250 . S
Co112 O114 2.115 . S
Co112 O116 1.975 1_565 S
Co112 O122 2.034 . S
Co112 O124 2.124 1_565 S
Co112 O125 2.227 1_565 S
O113 Co112 2.250 . S
O113 C120 1.247 . S
O114 Co112 2.115 . S
O114 C120 1.261 . S
C115 O124 1.247 . S
C115 O125 1.272 . S
O116 Co112 1.975 1_545 S
O116 C121 1.259 . S
Co117 O118 2.061 . S
Co117 O123 2.052 . S
Co117 O125 2.135 . S
O118 Co117 2.061 . S
O118 C121 1.235 . S
C119 O122 1.238 . S
C119 O123 1.241 1_565 S
C120 O113 1.247 . S
C120 O114 1.261 . S
C121 O116 1.259 . S
C121 O118 1.235 . S
O122 Co112 2.034 . S
O122 C119 1.238 . S
O123 Co117 2.052 . S
O123 C119 1.241 1_545 S
O124 Co112 2.124 1_545 S
O124 C115 1.247 . S
O125 Co112 2.227 1_545 S
O125 C115 1.272 . S
O125 Co117 2.135 . S
Co126 O127 2.216 . S
Co126 O128 2.091 . S
Co126 O130 2.004 . S
Co126 O136 2.021 . S
Co126 O138 2.137 . S
Co126 O139 2.244 . S
O127 Co126 2.216 . S
O127 C134 1.247 . S
O128 Co126 2.091 . S
O128 C134 1.261 . S
C129 O138 1.247 . S
C129 O139 1.272 . S
O130 Co126 2.004 . S
O130 C135 1.259 . S
Co131 O132 2.061 . S
Co131 O137 2.052 . S
Co131 O139 2.135 . S
O132 Co131 2.061 . S
O132 C135 1.235 . S
C133 O136 1.238 . S
C133 O137 1.241 . S
C134 O127 1.247 . S
C134 O128 1.261 . S
C135 O130 1.259 . S
C135 O132 1.235 . S
O136 Co126 2.021 . S
O136 C133 1.238 . S
O137 Co131 2.052 . S
O137 C133 1.241 . S
O138 Co126 2.137 . S
O138 C129 1.247 . S
O139 Co126 2.244 . S
O139 C129 1.272 . S
O139 Co131 2.135 . S
Co140 O141 2.216 1_545 S
Co140 O142 2.091 1_545 S
Co140 O144 2.004 . S
Co140 O150 2.021 1_545 S
Co140 O152 2.137 . S
Co140 O153 2.244 . S
O141 Co140 2.216 1_565 S
O141 C148 1.247 . S
O142 Co140 2.091 1_565 S
O142 C148 1.261 . S
C143 O152 1.247 . S
C143 O153 1.272 . S
O144 Co140 2.004 . S
O144 C149 1.259 . S
Co145 O146 2.061 . S
Co145 O151 2.052 1_545 S
Co145 O153 2.135 . S
O146 Co145 2.061 . S
O146 C149 1.235 . S
C147 O150 1.238 . S
C147 O151 1.241 . S
C148 O141 1.247 . S
C148 O142 1.261 . S
C149 O144 1.259 . S
C149 O146 1.235 . S
O150 Co140 2.021 1_565 S
O150 C147 1.238 . S
O151 Co145 2.052 1_565 S
O151 C147 1.241 . S
O152 Co140 2.137 . S
O152 C143 1.247 . S
O153 Co140 2.244 . S
O153 C143 1.272 . S
O153 Co145 2.135 . S
Co154 O155 2.216 1_554 S
Co154 O156 2.091 1_554 S
Co154 O158 2.004 . S
Co154 O164 2.021 . S
Co154 O166 2.137 1_554 S
Co154 O167 2.244 1_554 S
O155 Co154 2.216 1_556 S
O155 C162 1.247 . S
O156 Co154 2.091 1_556 S
O156 C162 1.261 . S
C157 O166 1.247 . S
C157 O167 1.272 . S
O158 Co154 2.004 . S
O158 C163 1.259 . S
Co159 O160 2.061 . S
Co159 O165 2.052 . S
Co159 O167 2.135 1_554 S
O160 Co159 2.061 . S
O160 C163 1.235 . S
C161 O164 1.238 . S
C161 O165 1.241 . S
C162 O155 1.247 . S
C162 O156 1.261 . S
C163 O158 1.259 . S
C163 O160 1.235 . S
O164 Co154 2.021 . S
O164 C161 1.238 . S
O165 Co159 2.052 . S
O165 C161 1.241 . S
O166 Co154 2.137 1_556 S
O166 C157 1.247 . S
O167 Co154 2.244 1_556 S
O167 C157 1.272 . S
O167 Co159 2.135 1_556 S
Co168 O169 2.216 . S
Co168 O170 2.091 . S
Co168 O172 2.004 1_554 S
Co168 O178 2.021 . S
Co168 O180 2.137 1_554 S
Co168 O181 2.244 1_554 S
O169 Co168 2.216 . S
O169 C176 1.247 . S
O170 Co168 2.091 . S
O170 C176 1.261 . S
C171 O180 1.247 . S
C171 O181 1.272 . S
O172 Co168 2.004 1_556 S
O172 C177 1.259 . S
Co173 O174 2.061 . S
Co173 O179 2.052 1_556 S
Co173 O181 2.135 . S
O174 Co173 2.061 . S
O174 C177 1.235 . S
C175 O178 1.238 . S
C175 O179 1.241 . S
C176 O169 1.247 . S
C176 O170 1.261 . S
C177 O172 1.259 . S
C177 O174 1.235 . S
O178 Co168 2.021 . S
O178 C175 1.238 . S
O179 Co173 2.052 1_554 S
O179 C175 1.241 . S
O180 Co168 2.137 1_556 S
O180 C171 1.247 . S
O181 Co168 2.244 1_556 S
O181 C171 1.272 . S
O181 Co173 2.135 . S
Co182 O183 2.216 . S
Co182 O184 2.091 . S
Co182 O186 2.004 1_554 S
Co182 O192 2.021 . S
Co182 O194 2.137 1_554 S
Co182 O195 2.244 1_554 S
O183 Co182 2.216 . S
O183 C190 1.247 . S
O184 Co182 2.091 . S
O184 C190 1.261 . S
C185 O194 1.247 . S
C185 O195 1.272 . S
O186 Co182 2.004 1_556 S
O186 C191 1.259 . S
Co187 O188 2.061 . S
Co187 O193 2.052 1_556 S
Co187 O195 2.135 . S
O188 Co187 2.061 . S
O188 C191 1.235 . S
C189 O192 1.238 . S
C189 O193 1.241 . S
C190 O183 1.247 . S
C190 O184 1.261 . S
C191 O186 1.259 . S
C191 O188 1.235 . S
O192 Co182 2.021 . S
O192 C189 1.238 . S
O193 Co187 2.052 1_554 S
O193 C189 1.241 . S
O194 Co182 2.137 1_556 S
O194 C185 1.247 . S
O195 Co182 2.244 1_556 S
O195 C185 1.272 . S
O195 Co187 2.135 . S
Co196 O197 2.216 . S
Co196 O198 2.091 . S
Co196 O200 2.004 . S
Co196 O206 2.021 . S
Co196 O208 2.137 . S
Co196 O209 2.244 . S
O197 Co196 2.216 . S
O197 C204 1.247 . S
O198 Co196 2.091 . S
O198 C204 1.261 . S
C199 O208 1.247 . S
C199 O209 1.272 . S
O200 Co196 2.004 . S
O200 C205 1.259 . S
Co201 O202 2.061 . S
Co201 O207 2.052 . S
Co201 O209 2.135 . S
O202 Co201 2.061 . S
O202 C205 1.235 . S
C203 O206 1.238 . S
C203 O207 1.241 . S
C204 O197 1.247 . S
C204 O198 1.261 . S
C205 O200 1.259 . S
C205 O202 1.235 . S
O206 Co196 2.021 . S
O206 C203 1.238 . S
O207 Co201 2.052 . S
O207 C203 1.241 . S
O208 Co196 2.137 . S
O208 C199 1.247 . S
O209 Co196 2.244 . S
O209 C199 1.272 . S
O209 Co201 2.135 . S
Co210 O211 2.216 . S
Co210 O212 2.091 . S
Co210 O214 2.004 . S
Co210 O220 2.021 . S
Co210 O222 2.137 . S
Co210 O223 2.244 . S
O211 Co210 2.216 . S
O211 C218 1.247 . S
O212 Co210 2.091 . S
O212 C218 1.261 . S
C213 O222 1.247 . S
C213 O223 1.272 . S
O214 Co210 2.004 . S
O214 C219 1.259 . S
Co215 O216 2.061 . S
Co215 O221 2.052 . S
Co215 O223 2.135 . S
O216 Co215 2.061 . S
O216 C219 1.235 . S
C217 O220 1.238 . S
C217 O221 1.241 . S
C218 O211 1.247 . S
C218 O212 1.261 . S
C219 O214 1.259 . S
C219 O216 1.235 . S
O220 Co210 2.021 . S
O220 C217 1.238 . S
O221 Co215 2.052 . S
O221 C217 1.241 . S
O222 Co210 2.137 . S
O222 C213 1.247 . S
O223 Co210 2.244 . S
O223 C213 1.272 . S
O223 Co215 2.135 . S
Co224 O225 2.216 . S
Co224 O226 2.091 . S
Co224 O228 2.004 1_565 S
Co224 O234 2.021 1_565 S
Co224 O236 2.137 . S
Co224 O237 2.244 . S
O225 Co224 2.216 . S
O225 C232 1.247 . S
O226 Co224 2.091 . S
O226 C232 1.261 . S
C227 O236 1.247 . S
C227 O237 1.272 . S
O228 Co224 2.004 1_545 S
O228 C233 1.259 . S
Co229 O230 2.061 . S
Co229 O235 2.052 . S
Co229 O237 2.135 1_545 S
O230 Co229 2.061 . S
O230 C233 1.235 . S
C231 O234 1.238 . S
C231 O235 1.241 . S
C232 O225 1.247 . S
C232 O226 1.261 . S
C233 O228 1.259 . S
C233 O230 1.235 . S
O234 Co224 2.021 1_545 S
O234 C231 1.238 . S
O235 Co229 2.052 . S
O235 C231 1.241 . S
O236 Co224 2.137 . S
O236 C227 1.247 . S
O237 Co224 2.244 . S
O237 C227 1.272 . S
O237 Co229 2.135 1_565 S
Co238 O239 2.216 . S
Co238 O240 2.091 . S
Co238 O242 2.004 . S
Co238 O248 2.021 . S
Co238 O250 2.137 . S
Co238 O251 2.244 . S
O239 Co238 2.216 . S
O239 C246 1.247 . S
O240 Co238 2.091 . S
O240 C246 1.261 . S
C241 O250 1.247 . S
C241 O251 1.272 . S
O242 Co238 2.004 . S
O242 C247 1.259 . S
Co243 O244 2.061 . S
Co243 O249 2.052 . S
Co243 O251 2.135 . S
O244 Co243 2.061 . S
O244 C247 1.235 . S
C245 O248 1.238 . S
C245 O249 1.241 . S
C246 O239 1.247 . S
C246 O240 1.261 . S
C247 O242 1.259 . S
C247 O244 1.235 . S
O248 Co238 2.021 . S
O248 C245 1.238 . S
O249 Co243 2.052 . S
O249 C245 1.241 . S
O250 Co238 2.137 . S
O250 C241 1.247 . S
O251 Co238 2.244 . S
O251 C241 1.272 . S
O251 Co243 2.135 . S
Co252 O253 2.216 . S
Co252 O254 2.091 . S
Co252 O256 2.004 . S
Co252 O262 2.021 . S
Co252 O264 2.137 . S
Co252 O265 2.244 . S
O253 Co252 2.216 . S
O253 C260 1.247 . S
O254 Co252 2.091 . S
O254 C260 1.261 . S
C255 O264 1.247 . S
C255 O265 1.272 . S
O256 Co252 2.004 . S
O256 C261 1.259 . S
Co257 O258 2.061 . S
Co257 O263 2.052 . S
Co257 O265 2.135 . S
O258 Co257 2.061 . S
O258 C261 1.235 . S
C259 O262 1.238 . S
C259 O263 1.241 . S
C260 O253 1.247 . S
C260 O254 1.261 . S
C261 O256 1.259 . S
C261 O258 1.235 . S
O262 Co252 2.021 . S
O262 C259 1.238 . S
O263 Co257 2.052 . S
O263 C259 1.241 . S
O264 Co252 2.137 . S
O264 C255 1.247 . S
O265 Co252 2.244 . S
O265 C255 1.272 . S
O265 Co257 2.135 . S
Co266 O267 2.216 . S
Co266 O268 2.091 . S
Co266 O270 2.004 1_545 S
Co266 O276 2.021 1_545 S
Co266 O278 2.137 . S
Co266 O279 2.244 . S
O267 Co266 2.216 . S
O267 C274 1.247 . S
O268 Co266 2.091 . S
O268 C274 1.261 . S
C269 O278 1.247 . S
C269 O279 1.272 . S
O270 Co266 2.004 1_565 S
O270 C275 1.259 . S
Co271 O272 2.061 . S
Co271 O277 2.052 . S
Co271 O279 2.135 1_565 S
O272 Co271 2.061 . S
O272 C275 1.235 . S
C273 O276 1.238 . S
C273 O277 1.241 . S
C274 O267 1.247 . S
C274 O268 1.261 . S
C275 O270 1.259 . S
C275 O272 1.235 . S
O276 Co266 2.021 1_565 S
O276 C273 1.238 . S
O277 Co271 2.052 . S
O277 C273 1.241 . S
O278 Co266 2.137 . S
O278 C269 1.247 . S
O279 Co266 2.244 . S
O279 C269 1.272 . S
O279 Co271 2.135 1_545 S
Co280 O281 2.216 . S
Co280 O282 2.091 . S
Co280 O284 2.004 1_556 S
Co280 O290 2.021 1_556 S
Co280 O292 2.137 . S
Co280 O293 2.244 . S
O281 Co280 2.216 . S
O281 C288 1.247 . S
O282 Co280 2.091 . S
O282 C288 1.261 . S
C283 O292 1.247 . S
C283 O293 1.272 . S
O284 Co280 2.004 1_554 S
O284 C289 1.259 . S
Co285 O286 2.061 . S
Co285 O291 2.052 . S
Co285 O293 2.135 1_554 S
O286 Co285 2.061 . S
O286 C289 1.235 . S
C287 O290 1.238 . S
C287 O291 1.241 . S
C288 O281 1.247 . S
C288 O282 1.261 . S
C289 O284 1.259 . S
C289 O286 1.235 . S
O290 Co280 2.021 1_554 S
O290 C287 1.238 . S
O291 Co285 2.052 . S
O291 C287 1.241 . S
O292 Co280 2.137 . S
O292 C283 1.247 . S
O293 Co280 2.244 . S
O293 C283 1.272 . S
O293 Co285 2.135 1_556 S
Co294 O295 2.216 . S
Co294 O296 2.091 . S
Co294 O298 2.004 . S
Co294 O304 2.021 . S
Co294 O306 2.137 . S
Co294 O307 2.244 . S
O295 Co294 2.216 . S
O295 C302 1.247 . S
O296 Co294 2.091 . S
O296 C302 1.261 . S
C297 O306 1.247 . S
C297 O307 1.272 . S
O298 Co294 2.004 . S
O298 C303 1.259 . S
Co299 O300 2.061 . S
Co299 O305 2.052 . S
Co299 O307 2.135 . S
O300 Co299 2.061 . S
O300 C303 1.235 . S
C301 O304 1.238 . S
C301 O305 1.241 . S
C302 O295 1.247 . S
C302 O296 1.261 . S
C303 O298 1.259 . S
C303 O300 1.235 . S
O304 Co294 2.021 . S
O304 C301 1.238 . S
O305 Co299 2.052 . S
O305 C301 1.241 . S
O306 Co294 2.137 . S
O306 C297 1.247 . S
O307 Co294 2.244 . S
O307 C297 1.272 . S
O307 Co299 2.135 . S
Co308 O309 2.216 . S
Co308 O310 2.091 . S
Co308 O312 2.004 . S
Co308 O318 2.021 . S
Co308 O320 2.137 . S
Co308 O321 2.244 . S
O309 Co308 2.216 . S
O309 C316 1.247 . S
O310 Co308 2.091 . S
O310 C316 1.261 . S
C311 O320 1.247 . S
C311 O321 1.272 . S
O312 Co308 2.004 . S
O312 C317 1.259 . S
Co313 O314 2.061 . S
Co313 O319 2.052 . S
Co313 O321 2.135 . S
O314 Co313 2.061 . S
O314 C317 1.235 . S
C315 O318 1.238 . S
C315 O319 1.241 . S
C316 O309 1.247 . S
C316 O310 1.261 . S
C317 O312 1.259 . S
C317 O314 1.235 . S
O318 Co308 2.021 . S
O318 C315 1.238 . S
O319 Co313 2.052 . S
O319 C315 1.241 . S
O320 Co308 2.137 . S
O320 C311 1.247 . S
O321 Co308 2.244 . S
O321 C311 1.272 . S
O321 Co313 2.135 . S
Co322 O323 2.216 . S
Co322 O324 2.091 . S
Co322 O326 2.004 . S
Co322 O332 2.021 . S
Co322 O334 2.137 . S
Co322 O335 2.244 . S
O323 Co322 2.216 . S
O323 C330 1.247 . S
O324 Co322 2.091 . S
O324 C330 1.261 . S
C325 O334 1.247 . S
C325 O335 1.272 . S
O326 Co322 2.004 . S
O326 C331 1.259 . S
Co327 O328 2.061 . S
Co327 O333 2.052 . S
Co327 O335 2.135 . S
O328 Co327 2.061 . S
O328 C331 1.235 . S
C329 O332 1.238 . S
C329 O333 1.241 . S
C330 O323 1.247 . S
C330 O324 1.261 . S
C331 O326 1.259 . S
C331 O328 1.235 . S
O332 Co322 2.021 . S
O332 C329 1.238 . S
O333 Co327 2.052 . S
O333 C329 1.241 . S
O334 Co322 2.137 . S
O334 C325 1.247 . S
O335 Co322 2.244 . S
O335 C325 1.272 . S
O335 Co327 2.135 . S
H336 C342 0.930 . S
H337 C345 0.930 . S
H338 C346 0.930 . S
H339 C347 0.930 . S
H340 C350 0.930 . S
H341 C351 0.930 . S
C342 H336 0.930 . S
C342 C343 1.355 . S
C342 C344 1.415 . S
C343 C342 1.355 . S
C343 C345 1.419 . S
C344 C342 1.415 . S
C344 C349 1.425 . S
C344 C351 1.409 . S
C345 H337 0.930 . S
C345 C343 1.419 . S
C345 C346 1.362 . S
C346 H338 0.930 . S
C346 C345 1.362 . S
C346 C349 1.409 . S
C347 H339 0.930 . S
C347 C348 1.355 . S
C347 C349 1.415 . S
C348 C347 1.355 . S
C348 C350 1.419 . S
C349 C344 1.425 . S
C349 C346 1.409 . S
C349 C347 1.415 . S
C350 H340 0.930 . S
C350 C348 1.419 . S
C350 C351 1.362 . S
C351 H341 0.930 . S
C351 C344 1.409 . S
C351 C350 1.362 . S
H352 C358 0.930 . S
H353 C361 0.930 . S
H354 C362 0.930 . S
H355 C363 0.930 . S
H356 C366 0.930 . S
H357 C367 0.930 . S
C358 H352 0.930 . S
C358 C359 1.355 . S
C358 C360 1.415 . S
C359 C358 1.355 . S
C359 C361 1.419 . S
C360 C358 1.415 . S
C360 C365 1.425 . S
C360 C367 1.409 . S
C361 H353 0.930 . S
C361 C359 1.419 . S
C361 C362 1.362 . S
C362 H354 0.930 . S
C362 C361 1.362 . S
C362 C365 1.409 . S
C363 H355 0.930 . S
C363 C364 1.355 . S
C363 C365 1.415 . S
C364 C363 1.355 . S
C364 C366 1.419 . S
C365 C360 1.425 . S
C365 C362 1.409 . S
C365 C363 1.415 . S
C366 H356 0.930 . S
C366 C364 1.419 . S
C366 C367 1.362 . S
C367 H357 0.930 . S
C367 C360 1.409 . S
C367 C366 1.362 . S
H368 C374 0.930 . S
H369 C377 0.930 . S
H370 C378 0.930 . S
H371 C379 0.930 . S
H372 C382 0.930 . S
H373 C383 0.930 . S
C374 H368 0.930 . S
C374 C375 1.355 . S
C374 C376 1.415 . S
C375 C374 1.355 . S
C375 C377 1.419 . S
C376 C374 1.415 . S
C376 C381 1.425 . S
C376 C383 1.409 . S
C377 H369 0.930 . S
C377 C375 1.419 . S
C377 C378 1.362 . S
C378 H370 0.930 . S
C378 C377 1.362 . S
C378 C381 1.409 . S
C379 H371 0.930 . S
C379 C380 1.355 . S
C379 C381 1.415 . S
C380 C379 1.355 . S
C380 C382 1.419 . S
C381 C376 1.425 . S
C381 C378 1.409 . S
C381 C379 1.415 . S
C382 H372 0.930 . S
C382 C380 1.419 . S
C382 C383 1.362 . S
C383 H373 0.930 . S
C383 C376 1.409 . S
C383 C382 1.362 . S
H384 C390 0.930 . S
H385 C393 0.930 . S
H386 C394 0.930 . S
H387 C395 0.930 . S
H388 C398 0.930 . S
H389 C399 0.930 . S
C390 H384 0.930 . S
C390 C391 1.355 . S
C390 C392 1.415 . S
C391 C390 1.355 . S
C391 C393 1.419 . S
C392 C390 1.415 . S
C392 C397 1.425 . S
C392 C399 1.409 . S
C393 H385 0.930 . S
C393 C391 1.419 . S
C393 C394 1.362 . S
C394 H386 0.930 . S
C394 C393 1.362 . S
C394 C397 1.409 . S
C395 H387 0.930 . S
C395 C396 1.355 . S
C395 C397 1.415 . S
C396 C395 1.355 . S
C396 C398 1.419 . S
C397 C392 1.425 . S
C397 C394 1.409 . S
C397 C395 1.415 . S
C398 H388 0.930 . S
C398 C396 1.419 . S
C398 C399 1.362 . S
C399 H389 0.930 . S
C399 C392 1.409 . S
C399 C398 1.362 . S
H400 C406 0.930 . S
H401 C409 0.930 . S
H402 C410 0.930 . S
H403 C411 0.930 . S
H404 C414 0.930 1_655 S
H405 C415 0.930 . S
C406 H400 0.930 . S
C406 C407 1.355 . S
C406 C408 1.415 . S
C407 C406 1.355 . S
C407 C409 1.419 . S
C408 C406 1.415 . S
C408 C413 1.425 . S
C408 C415 1.409 . S
C409 H401 0.930 . S
C409 C407 1.419 . S
C409 C410 1.362 . S
C410 H402 0.930 . S
C410 C409 1.362 . S
C410 C413 1.409 . S
C411 H403 0.930 . S
C411 C412 1.355 . S
C411 C413 1.415 . S
C412 C411 1.355 . S
C412 C414 1.419 . S
C413 C408 1.425 . S
C413 C410 1.409 . S
C413 C411 1.415 . S
C414 H404 0.930 1_455 S
C414 C412 1.419 . S
C414 C415 1.362 . S
C415 H405 0.930 . S
C415 C408 1.409 . S
C415 C414 1.362 . S
H416 C422 0.930 . S
H417 C425 0.930 . S
H418 C426 0.930 . S
H419 C427 0.930 . S
H420 C430 0.930 . S
H421 C431 0.930 . S
C422 H416 0.930 . S
C422 C423 1.355 . S
C422 C424 1.415 . S
C423 C422 1.355 . S
C423 C425 1.419 . S
C424 C422 1.415 . S
C424 C429 1.425 . S
C424 C431 1.409 . S
C425 H417 0.930 . S
C425 C423 1.419 . S
C425 C426 1.362 . S
C426 H418 0.930 . S
C426 C425 1.362 . S
C426 C429 1.409 . S
C427 H419 0.930 . S
C427 C428 1.355 . S
C427 C429 1.415 . S
C428 C427 1.355 . S
C428 C430 1.419 . S
C429 C424 1.425 . S
C429 C426 1.409 . S
C429 C427 1.415 . S
C430 H420 0.930 . S
C430 C428 1.419 . S
C430 C431 1.362 . S
C431 H421 0.930 . S
C431 C424 1.409 . S
C431 C430 1.362 . S
H432 C438 0.930 . S
H433 C441 0.930 . S
H434 C442 0.930 . S
H435 C443 0.930 . S
H436 C446 0.930 . S
H437 C447 0.930 . S
C438 H432 0.930 . S
C438 C439 1.355 . S
C438 C440 1.415 . S
C439 C438 1.355 . S
C439 C441 1.419 . S
C440 C438 1.415 . S
C440 C445 1.425 . S
C440 C447 1.409 . S
C441 H433 0.930 . S
C441 C439 1.419 . S
C441 C442 1.362 . S
C442 H434 0.930 . S
C442 C441 1.362 . S
C442 C445 1.409 . S
C443 H435 0.930 . S
C443 C444 1.355 . S
C443 C445 1.415 . S
C444 C443 1.355 . S
C444 C446 1.419 . S
C445 C440 1.425 . S
C445 C442 1.409 . S
C445 C443 1.415 . S
C446 H436 0.930 . S
C446 C444 1.419 . S
C446 C447 1.362 . S
C447 H437 0.930 . S
C447 C440 1.409 . S
C447 C446 1.362 . S
H448 C454 0.930 . S
H449 C457 0.930 . S
H450 C458 0.930 . S
H451 C459 0.930 . S
H452 C462 0.930 . S
H453 C463 0.930 . S
C454 H448 0.930 . S
C454 C455 1.355 . S
C454 C456 1.415 . S
C455 C454 1.355 . S
C455 C457 1.419 . S
C456 C454 1.415 . S
C456 C461 1.425 . S
C456 C463 1.409 . S
C457 H449 0.930 . S
C457 C455 1.419 . S
C457 C458 1.362 . S
C458 H450 0.930 . S
C458 C457 1.362 . S
C458 C461 1.409 . S
C459 H451 0.930 . S
C459 C460 1.355 . S
C459 C461 1.415 . S
C460 C459 1.355 . S
C460 C462 1.419 . S
C461 C456 1.425 . S
C461 C458 1.409 . S
C461 C459 1.415 . S
C462 H452 0.930 . S
C462 C460 1.419 . S
C462 C463 1.362 . S
C463 H453 0.930 . S
C463 C456 1.409 . S
C463 C462 1.362 . S
H464 C470 0.930 . S
H465 C473 0.930 . S
H466 C474 0.930 . S
H467 C475 0.930 . S
H468 C478 0.930 1_565 S
H469 C479 0.930 . S
C470 H464 0.930 . S
C470 C471 1.355 . S
C470 C472 1.415 . S
C471 C470 1.355 . S
C471 C473 1.419 . S
C472 C470 1.415 . S
C472 C477 1.425 . S
C472 C479 1.409 . S
C473 H465 0.930 . S
C473 C471 1.419 . S
C473 C474 1.362 . S
C474 H466 0.930 . S
C474 C473 1.362 . S
C474 C477 1.409 . S
C475 H467 0.930 . S
C475 C476 1.355 . S
C475 C477 1.415 . S
C476 C475 1.355 . S
C476 C478 1.419 . S
C477 C472 1.425 . S
C477 C474 1.409 . S
C477 C475 1.415 . S
C478 H468 0.930 1_545 S
C478 C476 1.419 . S
C478 C479 1.362 . S
C479 H469 0.930 . S
C479 C472 1.409 . S
C479 C478 1.362 . S
H480 C486 0.930 . S
H481 C489 0.930 1_565 S
H482 C490 0.930 . S
H483 C491 0.930 . S
H484 C494 0.930 . S
H485 C495 0.930 . S
C486 H480 0.930 . S
C486 C487 1.355 . S
C486 C488 1.415 . S
C487 C486 1.355 . S
C487 C489 1.419 . S
C488 C486 1.415 . S
C488 C493 1.425 . S
C488 C495 1.409 . S
C489 H481 0.930 1_545 S
C489 C487 1.419 . S
C489 C490 1.362 . S
C490 H482 0.930 . S
C490 C489 1.362 . S
C490 C493 1.409 . S
C491 H483 0.930 . S
C491 C492 1.355 . S
C491 C493 1.415 . S
C492 C491 1.355 . S
C492 C494 1.419 . S
C493 C488 1.425 . S
C493 C490 1.409 . S
C493 C491 1.415 . S
C494 H484 0.930 . S
C494 C492 1.419 . S
C494 C495 1.362 . S
C495 H485 0.930 . S
C495 C488 1.409 . S
C495 C494 1.362 . S
H496 C502 0.930 . S
H497 C505 0.930 1_545 S
H498 C506 0.930 . S
H499 C507 0.930 . S
H500 C510 0.930 . S
H501 C511 0.930 . S
C502 H496 0.930 . S
C502 C503 1.355 . S
C502 C504 1.415 . S
C503 C502 1.355 . S
C503 C505 1.419 . S
C504 C502 1.415 . S
C504 C509 1.425 . S
C504 C511 1.409 . S
C505 H497 0.930 1_565 S
C505 C503 1.419 . S
C505 C506 1.362 . S
C506 H498 0.930 . S
C506 C505 1.362 . S
C506 C509 1.409 . S
C507 H499 0.930 . S
C507 C508 1.355 . S
C507 C509 1.415 . S
C508 C507 1.355 . S
C508 C510 1.419 . S
C509 C504 1.425 . S
C509 C506 1.409 . S
C509 C507 1.415 . S
C510 H500 0.930 . S
C510 C508 1.419 . S
C510 C511 1.362 . S
C511 H501 0.930 . S
C511 C504 1.409 . S
C511 C510 1.362 . S
H512 C518 0.930 . S
H513 C521 0.930 . S
H514 C522 0.930 . S
H515 C523 0.930 . S
H516 C526 0.930 1_545 S
H517 C527 0.922 1_545 S
C518 H512 0.930 . S
C518 C519 1.355 . S
C518 C520 1.415 . S
C519 C518 1.355 . S
C519 C521 1.419 . S
C520 C518 1.415 . S
C520 C525 1.425 . S
C520 C527 1.409 . S
C521 H513 0.930 . S
C521 C519 1.419 . S
C521 C522 1.362 . S
C522 H514 0.930 . S
C522 C521 1.362 . S
C522 C525 1.409 . S
C523 H515 0.930 . S
C523 C524 1.355 . S
C523 C525 1.415 . S
C524 C523 1.355 . S
C524 C526 1.419 . S
C525 C520 1.425 . S
C525 C522 1.409 . S
C525 C523 1.415 . S
C526 H516 0.930 1_565 S
C526 C524 1.419 . S
C526 C527 1.362 . S
C527 H517 0.922 1_565 S
C527 C520 1.409 . S
C527 C526 1.362 . S
H528 C534 0.930 . S
H529 C537 0.930 . S
H530 C538 0.930 . S
H531 C539 0.930 . S
H532 C542 0.930 . S
H533 C543 0.930 . S
C534 H528 0.930 . S
C534 C535 1.355 . S
C534 C536 1.415 . S
C535 C534 1.355 . S
C535 C537 1.419 . S
C536 C534 1.415 . S
C536 C541 1.425 . S
C536 C543 1.409 . S
C537 H529 0.930 . S
C537 C535 1.419 . S
C537 C538 1.362 . S
C538 H530 0.930 . S
C538 C537 1.362 . S
C538 C541 1.409 . S
C539 H531 0.930 . S
C539 C540 1.355 . S
C539 C541 1.415 . S
C540 C539 1.355 . S
C540 C542 1.419 . S
C541 C536 1.425 . S
C541 C538 1.409 . S
C541 C539 1.415 . S
C542 H532 0.930 . S
C542 C540 1.419 . S
C542 C543 1.362 . S
C543 H533 0.930 . S
C543 C536 1.409 . S
C543 C542 1.362 . S
H544 C550 0.930 . S
H545 C553 0.929 1_455 S
H546 C554 0.930 . S
H547 C555 0.930 . S
H548 C558 0.930 . S
H549 C559 0.930 . S
C550 H544 0.930 . S
C550 C551 1.355 . S
C550 C552 1.415 . S
C551 C550 1.355 . S
C551 C553 1.419 . S
C552 C550 1.415 . S
C552 C557 1.425 . S
C552 C559 1.409 . S
C553 H545 0.929 1_655 S
C553 C551 1.419 . S
C553 C554 1.362 . S
C554 H546 0.930 . S
C554 C553 1.362 . S
C554 C557 1.409 . S
C555 H547 0.930 . S
C555 C556 1.355 . S
C555 C557 1.415 . S
C556 C555 1.355 . S
C556 C558 1.419 . S
C557 C552 1.425 . S
C557 C554 1.409 . S
C557 C555 1.415 . S
C558 H548 0.930 . S
C558 C556 1.419 . S
C558 C559 1.362 . S
C559 H549 0.930 . S
C559 C552 1.409 . S
C559 C558 1.362 . S
H560 C566 0.930 . S
H561 C569 0.930 . S
H562 C570 0.930 . S
H563 C571 0.930 . S
H564 C574 0.930 . S
H565 C575 0.930 . S
C566 H560 0.930 . S
C566 C567 1.355 . S
C566 C568 1.415 . S
C567 C566 1.355 . S
C567 C569 1.419 . S
C568 C566 1.415 . S
C568 C573 1.425 . S
C568 C575 1.409 . S
C569 H561 0.930 . S
C569 C567 1.419 . S
C569 C570 1.362 . S
C570 H562 0.930 . S
C570 C569 1.362 . S
C570 C573 1.409 . S
C571 H563 0.930 . S
C571 C572 1.355 . S
C571 C573 1.415 . S
C572 C571 1.355 . S
C572 C574 1.419 . S
C573 C568 1.425 . S
C573 C570 1.409 . S
C573 C571 1.415 . S
C574 H564 0.930 . S
C574 C572 1.419 . S
C574 C575 1.362 . S
C575 H565 0.930 . S
C575 C568 1.409 . S
C575 C574 1.362 . S
H576 C582 0.930 . S
H577 C585 0.930 . S
H578 C586 0.930 . S
H579 C587 0.930 . S
H580 C590 0.930 . S
H581 C591 0.930 . S
C582 H576 0.930 . S
C582 C583 1.355 . S
C582 C584 1.415 . S
C583 C582 1.355 . S
C583 C585 1.419 . S
C584 C582 1.415 . S
C584 C589 1.425 . S
C584 C591 1.409 . S
C585 H577 0.930 . S
C585 C583 1.419 . S
C585 C586 1.362 . S
C586 H578 0.930 . S
C586 C585 1.362 . S
C586 C589 1.409 . S
C587 H579 0.930 . S
C587 C588 1.355 . S
C587 C589 1.415 . S
C588 C587 1.355 . S
C588 C590 1.419 . S
C589 C584 1.425 . S
C589 C586 1.409 . S
C589 C587 1.415 . S
C590 H580 0.930 . S
C590 C588 1.419 . S
C590 C591 1.362 . S
C591 H581 0.930 . S
C591 C584 1.409 . S
C591 C590 1.362 . S
H592 C598 0.930 . S
H593 C601 0.930 . S
H594 C602 0.930 . S
H595 C603 0.930 . S
H596 C606 0.930 . S
H597 C607 0.930 . S
C598 H592 0.930 . S
C598 C599 1.355 . S
C598 C600 1.415 . S
C599 C598 1.355 . S
C599 C601 1.419 . S
C600 C598 1.415 . S
C600 C605 1.425 . S
C600 C607 1.409 . S
C601 H593 0.930 . S
C601 C599 1.419 . S
C601 C602 1.362 . S
C602 H594 0.930 . S
C602 C601 1.362 . S
C602 C605 1.409 . S
C603 H595 0.930 . S
C603 C604 1.355 . S
C603 C605 1.415 . S
C604 C603 1.355 . S
C604 C606 1.419 . S
C605 C600 1.425 . S
C605 C602 1.409 . S
C605 C603 1.415 . S
C606 H596 0.930 . S
C606 C604 1.419 . S
C606 C607 1.362 . S
C607 H597 0.930 . S
C607 C600 1.409 . S
C607 C606 1.362 . S
H608 C614 0.930 . S
H609 C617 0.930 . S
H610 C618 0.930 . S
H611 C619 0.930 . S
H612 C622 0.930 . S
H613 C623 0.930 . S
C614 H608 0.930 . S
C614 C615 1.355 . S
C614 C616 1.415 . S
C615 C614 1.355 . S
C615 C617 1.419 . S
C616 C614 1.415 . S
C616 C621 1.425 . S
C616 C623 1.409 . S
C617 H609 0.930 . S
C617 C615 1.419 . S
C617 C618 1.362 . S
C618 H610 0.930 . S
C618 C617 1.362 . S
C618 C621 1.409 . S
C619 H611 0.930 . S
C619 C620 1.355 . S
C619 C621 1.415 . S
C620 C619 1.355 . S
C620 C622 1.419 . S
C621 C616 1.425 . S
C621 C618 1.409 . S
C621 C619 1.415 . S
C622 H612 0.930 . S
C622 C620 1.419 . S
C622 C623 1.362 . S
C623 H613 0.930 . S
C623 C616 1.409 . S
C623 C622 1.362 . S
H624 C630 0.930 . S
H625 C633 0.930 1_554 S
H626 C634 0.930 1_554 S
H627 C635 0.930 . S
H628 C638 0.930 . S
H629 C639 0.930 . S
C630 H624 0.930 . S
C630 C631 1.355 . S
C630 C632 1.415 . S
C631 C630 1.355 . S
C631 C633 1.419 . S
C632 C630 1.415 . S
C632 C637 1.425 . S
C632 C639 1.409 . S
C633 H625 0.930 1_556 S
C633 C631 1.419 . S
C633 C634 1.362 . S
C634 H626 0.930 1_556 S
C634 C633 1.362 . S
C634 C637 1.409 . S
C635 H627 0.930 . S
C635 C636 1.355 . S
C635 C637 1.415 . S
C636 C635 1.355 . S
C636 C638 1.419 . S
C637 C632 1.425 . S
C637 C634 1.409 . S
C637 C635 1.415 . S
C638 H628 0.930 . S
C638 C636 1.419 . S
C638 C639 1.362 . S
C639 H629 0.930 . S
C639 C632 1.409 . S
C639 C638 1.362 . S
H640 C646 0.930 . S
H641 C649 0.930 . S
H642 C650 0.930 . S
H643 C651 0.930 . S
H644 C654 0.930 . S
H645 C655 0.930 . S
C646 H640 0.930 . S
C646 C647 1.355 . S
C646 C648 1.415 . S
C647 C646 1.355 . S
C647 C649 1.419 . S
C648 C646 1.415 . S
C648 C653 1.425 . S
C648 C655 1.409 . S
C649 H641 0.930 . S
C649 C647 1.419 . S
C649 C650 1.362 . S
C650 H642 0.930 . S
C650 C649 1.362 . S
C650 C653 1.409 . S
C651 H643 0.930 . S
C651 C652 1.355 . S
C651 C653 1.415 . S
C652 C651 1.355 . S
C652 C654 1.419 . S
C653 C648 1.425 . S
C653 C650 1.409 . S
C653 C651 1.415 . S
C654 H644 0.930 . S
C654 C652 1.419 . S
C654 C655 1.362 . S
C655 H645 0.930 . S
C655 C648 1.409 . S
C655 C654 1.362 . S
H656 C662 0.930 . S
H657 C665 0.930 . S
H658 C666 0.930 . S
H659 C667 0.930 . S
H660 C670 0.930 . S
H661 C671 0.930 . S
C662 H656 0.930 . S
C662 C663 1.355 . S
C662 C664 1.415 . S
C663 C662 1.355 . S
C663 C665 1.419 . S
C664 C662 1.415 . S
C664 C669 1.425 . S
C664 C671 1.409 . S
C665 H657 0.930 . S
C665 C663 1.419 . S
C665 C666 1.362 . S
C666 H658 0.930 . S
C666 C665 1.362 . S
C666 C669 1.409 . S
C667 H659 0.930 . S
C667 C668 1.355 . S
C667 C669 1.415 . S
C668 C667 1.355 . S
C668 C670 1.419 . S
C669 C664 1.425 . S
C669 C666 1.409 . S
C669 C667 1.415 . S
C670 H660 0.930 . S
C670 C668 1.419 . S
C670 C671 1.362 . S
C671 H661 0.930 . S
C671 C664 1.409 . S
C671 C670 1.362 . S
H672 C678 0.930 . S
H673 C681 0.930 . S
H674 C682 0.930 . S
H675 C683 0.930 . S
H676 C686 0.930 . S
H677 C687 0.930 . S
C678 H672 0.930 . S
C678 C679 1.355 . S
C678 C680 1.415 . S
C679 C678 1.355 . S
C679 C681 1.419 . S
C680 C678 1.415 . S
C680 C685 1.425 . S
C680 C687 1.409 . S
C681 H673 0.930 . S
C681 C679 1.419 . S
C681 C682 1.362 . S
C682 H674 0.930 . S
C682 C681 1.362 . S
C682 C685 1.409 . S
C683 H675 0.930 . S
C683 C684 1.355 . S
C683 C685 1.415 . S
C684 C683 1.355 . S
C684 C686 1.419 . S
C685 C680 1.425 . S
C685 C682 1.409 . S
C685 C683 1.415 . S
C686 H676 0.930 . S
C686 C684 1.419 . S
C686 C687 1.362 . S
C687 H677 0.930 . S
C687 C680 1.409 . S
C687 C686 1.362 . S
H688 C694 0.930 . S
H689 C697 0.930 . S
H690 C698 0.930 . S
H691 C699 0.930 . S
H692 C702 0.930 . S
H693 C703 0.930 . S
C694 H688 0.930 . S
C694 C695 1.355 . S
C694 C696 1.415 . S
C695 C694 1.355 . S
C695 C697 1.419 . S
C696 C694 1.415 . S
C696 C701 1.425 . S
C696 C703 1.409 . S
C697 H689 0.930 . S
C697 C695 1.419 . S
C697 C698 1.362 . S
C698 H690 0.930 . S
C698 C697 1.362 . S
C698 C701 1.409 . S
C699 H691 0.930 . S
C699 C700 1.355 . S
C699 C701 1.415 . S
C700 C699 1.355 . S
C700 C702 1.419 . S
C701 C696 1.425 . S
C701 C698 1.409 . S
C701 C699 1.415 . S
C702 H692 0.930 . S
C702 C700 1.419 . S
C702 C703 1.362 . S
C703 H693 0.930 . S
C703 C696 1.409 . S
C703 C702 1.362 . S
H704 C710 0.930 . S
H705 C713 0.930 . S
H706 C714 0.930 . S
H707 C715 0.930 . S
H708 C718 0.930 . S
H709 C719 0.930 . S
C710 H704 0.930 . S
C710 C711 1.355 . S
C710 C712 1.415 . S
C711 C710 1.355 . S
C711 C713 1.419 . S
C712 C710 1.415 . S
C712 C717 1.425 . S
C712 C719 1.409 . S
C713 H705 0.930 . S
C713 C711 1.419 . S
C713 C714 1.362 . S
C714 H706 0.930 . S
C714 C713 1.362 . S
C714 C717 1.409 . S
C715 H707 0.930 . S
C715 C716 1.355 . S
C715 C717 1.415 . S
C716 C715 1.355 . S
C716 C718 1.419 . S
C717 C712 1.425 . S
C717 C714 1.409 . S
C717 C715 1.415 . S
C718 H708 0.930 . S
C718 C716 1.419 . S
C718 C719 1.362 . S
C719 H709 0.930 . S
C719 C712 1.409 . S
C719 C718 1.362 . S
H720 C726 0.930 . S
H721 C729 0.930 1_545 S
H722 C730 0.930 . S
H723 C731 0.930 . S
H724 C734 0.930 . S
H725 C735 0.930 . S
C726 H720 0.930 . S
C726 C727 1.355 . S
C726 C728 1.415 . S
C727 C726 1.355 . S
C727 C729 1.419 . S
C728 C726 1.415 . S
C728 C733 1.425 . S
C728 C735 1.409 . S
C729 H721 0.930 1_565 S
C729 C727 1.419 . S
C729 C730 1.362 . S
C730 H722 0.930 . S
C730 C729 1.362 . S
C730 C733 1.409 . S
C731 H723 0.930 . S
C731 C732 1.355 . S
C731 C733 1.415 . S
C732 C731 1.355 . S
C732 C734 1.419 . S
C733 C728 1.425 . S
C733 C730 1.409 . S
C733 C731 1.415 . S
C734 H724 0.930 . S
C734 C732 1.419 . S
C734 C735 1.362 . S
C735 H725 0.930 . S
C735 C728 1.409 . S
C735 C734 1.362 . S
H736 C742 0.930 . S
H737 C745 0.930 . S
H738 C746 0.930 . S
H739 C747 0.930 . S
H740 C750 0.930 . S
H741 C751 0.930 . S
C742 H736 0.930 . S
C742 C743 1.355 . S
C742 C744 1.415 . S
C743 C742 1.355 . S
C743 C745 1.419 . S
C744 C742 1.415 . S
C744 C749 1.425 . S
C744 C751 1.409 . S
C745 H737 0.930 . S
C745 C743 1.419 . S
C745 C746 1.362 . S
C746 H738 0.930 . S
C746 C745 1.362 . S
C746 C749 1.409 . S
C747 H739 0.930 . S
C747 C748 1.355 . S
C747 C749 1.415 . S
C748 C747 1.355 . S
C748 C750 1.419 . S
C749 C744 1.425 . S
C749 C746 1.409 . S
C749 C747 1.415 . S
C750 H740 0.930 . S
C750 C748 1.419 . S
C750 C751 1.362 . S
C751 H741 0.930 . S
C751 C744 1.409 . S
C751 C750 1.362 . S
H752 C758 0.930 . S
H753 C761 0.930 . S
H754 C762 0.930 . S
H755 C763 0.930 . S
H756 C766 0.930 . S
H757 C767 0.930 . S
C758 H752 0.930 . S
C758 C759 1.355 . S
C758 C760 1.415 . S
C759 C758 1.355 . S
C759 C761 1.419 . S
C760 C758 1.415 . S
C760 C765 1.425 . S
C760 C767 1.409 . S
C761 H753 0.930 . S
C761 C759 1.419 . S
C761 C762 1.362 . S
C762 H754 0.930 . S
C762 C761 1.362 . S
C762 C765 1.409 . S
C763 H755 0.930 . S
C763 C764 1.355 . S
C763 C765 1.415 . S
C764 C763 1.355 . S
C764 C766 1.419 . S
C765 C760 1.425 . S
C765 C762 1.409 . S
C765 C763 1.415 . S
C766 H756 0.930 . S
C766 C764 1.419 . S
C766 C767 1.362 . S
C767 H757 0.930 . S
C767 C760 1.409 . S
C767 C766 1.362 . S
H768 C774 0.930 . S
H769 C777 0.930 . S
H770 C778 0.930 . S
H771 C779 0.930 . S
H772 C782 0.930 . S
H773 C783 0.930 . S
C774 H768 0.930 . S
C774 C775 1.355 . S
C774 C776 1.415 . S
C775 C774 1.355 . S
C775 C777 1.419 . S
C776 C774 1.415 . S
C776 C781 1.425 . S
C776 C783 1.409 . S
C777 H769 0.930 . S
C777 C775 1.419 . S
C777 C778 1.362 . S
C778 H770 0.930 . S
C778 C777 1.362 . S
C778 C781 1.409 . S
C779 H771 0.930 . S
C779 C780 1.355 . S
C779 C781 1.415 . S
C780 C779 1.355 . S
C780 C782 1.419 . S
C781 C776 1.425 . S
C781 C778 1.409 . S
C781 C779 1.415 . S
C782 H772 0.930 . S
C782 C780 1.419 . S
C782 C783 1.362 . S
C783 H773 0.930 . S
C783 C776 1.409 . S
C783 C782 1.362 . S
H784 C790 0.930 . S
H785 C793 0.930 . S
H786 C794 0.930 . S
H787 C795 0.930 . S
H788 C798 0.930 . S
H789 C799 0.930 . S
C790 H784 0.930 . S
C790 C791 1.355 . S
C790 C792 1.415 . S
C791 C790 1.355 . S
C791 C793 1.419 . S
C792 C790 1.415 . S
C792 C797 1.425 . S
C792 C799 1.409 . S
C793 H785 0.930 . S
C793 C791 1.419 . S
C793 C794 1.362 . S
C794 H786 0.930 . S
C794 C793 1.362 . S
C794 C797 1.409 . S
C795 H787 0.930 . S
C795 C796 1.355 . S
C795 C797 1.415 . S
C796 C795 1.355 . S
C796 C798 1.419 . S
C797 C792 1.425 . S
C797 C794 1.409 . S
C797 C795 1.415 . S
C798 H788 0.930 . S
C798 C796 1.419 . S
C798 C799 1.362 . S
C799 H789 0.930 . S
C799 C792 1.409 . S
C799 C798 1.362 . S
H800 C806 0.930 . S
H801 C809 0.930 . S
H802 C810 0.930 . S
H803 C811 0.930 . S
H804 C814 0.930 . S
H805 C815 0.930 . S
C806 H800 0.930 . S
C806 C807 1.355 . S
C806 C808 1.415 . S
C807 C806 1.355 . S
C807 C809 1.419 . S
C808 C806 1.415 . S
C808 C813 1.425 . S
C808 C815 1.409 . S
C809 H801 0.930 . S
C809 C807 1.419 . S
C809 C810 1.362 . S
C810 H802 0.930 . S
C810 C809 1.362 . S
C810 C813 1.409 . S
C811 H803 0.930 . S
C811 C812 1.355 . S
C811 C813 1.415 . S
C812 C811 1.355 . S
C812 C814 1.419 . S
C813 C808 1.425 . S
C813 C810 1.409 . S
C813 C811 1.415 . S
C814 H804 0.930 . S
C814 C812 1.419 . S
C814 C815 1.362 . S
C815 H805 0.930 . S
C815 C808 1.409 . S
C815 C814 1.362 . S
H816 C822 0.930 . S
H817 C825 0.930 . S
H818 C826 0.930 . S
H819 C827 0.930 . S
H820 C830 0.930 . S
H821 C831 0.930 . S
C822 H816 0.930 . S
C822 C823 1.355 . S
C822 C824 1.415 . S
C823 C822 1.355 . S
C823 C825 1.419 . S
C824 C822 1.415 . S
C824 C829 1.425 . S
C824 C831 1.409 . S
C825 H817 0.930 . S
C825 C823 1.419 . S
C825 C826 1.362 . S
C826 H818 0.930 . S
C826 C825 1.362 . S
C826 C829 1.409 . S
C827 H819 0.930 . S
C827 C828 1.355 . S
C827 C829 1.415 . S
C828 C827 1.355 . S
C828 C830 1.419 . S
C829 C824 1.425 . S
C829 C826 1.409 . S
C829 C827 1.415 . S
C830 H820 0.930 . S
C830 C828 1.419 . S
C830 C831 1.362 . S
C831 H821 0.930 . S
C831 C824 1.409 . S
C831 C830 1.362 . S
H832 C838 0.930 . S
H833 C841 0.930 . S
H834 C842 0.930 . S
H835 C843 0.930 . S
H836 C846 0.930 . S
H837 C847 0.930 . S
C838 H832 0.930 . S
C838 C839 1.355 . S
C838 C840 1.415 . S
C839 C838 1.355 . S
C839 C841 1.419 . S
C840 C838 1.415 . S
C840 C845 1.425 . S
C840 C847 1.409 . S
C841 H833 0.930 . S
C841 C839 1.419 . S
C841 C842 1.362 . S
C842 H834 0.930 . S
C842 C841 1.362 . S
C842 C845 1.409 . S
C843 H835 0.930 . S
C843 C844 1.355 . S
C843 C845 1.415 . S
C844 C843 1.355 . S
C844 C846 1.419 . S
C845 C840 1.425 . S
C845 C842 1.409 . S
C845 C843 1.415 . S
C846 H836 0.930 . S
C846 C844 1.419 . S
C846 C847 1.362 . S
C847 H837 0.930 . S
C847 C840 1.409 . S
C847 C846 1.362 . S
H848 C854 0.930 . S
H849 C857 0.930 . S
H850 C858 0.930 . S
H851 C859 0.930 . S
H852 C862 0.930 . S
H853 C863 0.930 . S
C854 H848 0.930 . S
C854 C855 1.355 . S
C854 C856 1.415 . S
C855 C854 1.355 . S
C855 C857 1.419 . S
C856 C854 1.415 . S
C856 C861 1.425 . S
C856 C863 1.409 . S
C857 H849 0.930 . S
C857 C855 1.419 . S
C857 C858 1.362 . S
C858 H850 0.930 . S
C858 C857 1.362 . S
C858 C861 1.409 . S
C859 H851 0.930 . S
C859 C860 1.355 . S
C859 C861 1.415 . S
C860 C859 1.355 . S
C860 C862 1.419 . S
C861 C856 1.425 . S
C861 C858 1.409 . S
C861 C859 1.415 . S
C862 H852 0.930 . S
C862 C860 1.419 . S
C862 C863 1.362 . S
C863 H853 0.930 . S
C863 C856 1.409 . S
C863 C862 1.362 . S
H864 C870 0.930 . S
H865 C873 0.930 1_554 S
H866 C874 0.930 . S
H867 C875 0.930 . S
H868 C878 0.930 . S
H869 C879 0.930 . S
C870 H864 0.930 . S
C870 C871 1.355 . S
C870 C872 1.415 . S
C871 C870 1.355 . S
C871 C873 1.419 . S
C872 C870 1.415 . S
C872 C877 1.425 . S
C872 C879 1.409 . S
C873 H865 0.930 1_556 S
C873 C871 1.419 . S
C873 C874 1.362 . S
C874 H866 0.930 . S
C874 C873 1.362 . S
C874 C877 1.409 . S
C875 H867 0.930 . S
C875 C876 1.355 . S
C875 C877 1.415 . S
C876 C875 1.355 . S
C876 C878 1.419 . S
C877 C872 1.425 . S
C877 C874 1.409 . S
C877 C875 1.415 . S
C878 H868 0.930 . S
C878 C876 1.419 . S
C878 C879 1.362 . S
C879 H869 0.930 . S
C879 C872 1.409 . S
C879 C878 1.362 . S
H880 C886 0.930 . S
H881 C889 0.930 . S
H882 C890 0.930 . S
H883 C891 0.930 . S
H884 C894 0.930 . S
H885 C895 0.930 . S
C886 H880 0.930 . S
C886 C887 1.355 . S
C886 C888 1.415 . S
C887 C886 1.355 . S
C887 C889 1.419 . S
C888 C886 1.415 . S
C888 C893 1.425 . S
C888 C895 1.409 . S
C889 H881 0.930 . S
C889 C887 1.419 . S
C889 C890 1.362 . S
C890 H882 0.930 . S
C890 C889 1.362 . S
C890 C893 1.409 . S
C891 H883 0.930 . S
C891 C892 1.355 . S
C891 C893 1.415 . S
C892 C891 1.355 . S
C892 C894 1.419 . S
C893 C888 1.425 . S
C893 C890 1.409 . S
C893 C891 1.415 . S
C894 H884 0.930 . S
C894 C892 1.419 . S
C894 C895 1.362 . S
C895 H885 0.930 . S
C895 C888 1.409 . S
C895 C894 1.362 . S
H896 C902 0.930 . S
H897 C905 0.930 . S
H898 C906 0.930 . S
H899 C907 0.930 . S
H900 C910 0.930 . S
H901 C911 0.930 . S
C902 H896 0.930 . S
C902 C903 1.355 . S
C902 C904 1.415 . S
C903 C902 1.355 . S
C903 C905 1.419 . S
C904 C902 1.415 . S
C904 C909 1.425 . S
C904 C911 1.409 . S
C905 H897 0.930 . S
C905 C903 1.419 . S
C905 C906 1.362 . S
C906 H898 0.930 . S
C906 C905 1.362 . S
C906 C909 1.409 . S
C907 H899 0.930 . S
C907 C908 1.355 . S
C907 C909 1.415 . S
C908 C907 1.355 . S
C908 C910 1.419 . S
C909 C904 1.425 . S
C909 C906 1.409 . S
C909 C907 1.415 . S
C910 H900 0.930 . S
C910 C908 1.419 . S
C910 C911 1.362 . S
C911 H901 0.930 . S
C911 C904 1.409 . S
C911 C910 1.362 . S
H912 C918 0.930 . S
H913 C921 0.930 . S
H914 C922 0.930 . S
H915 C923 0.930 . S
H916 C926 0.930 . S
H917 C927 0.930 . S
C918 H912 0.930 . S
C918 C919 1.355 . S
C918 C920 1.415 . S
C919 C918 1.355 . S
C919 C921 1.419 . S
C920 C918 1.415 . S
C920 C925 1.425 . S
C920 C927 1.409 . S
C921 H913 0.930 . S
C921 C919 1.419 . S
C921 C922 1.362 . S
C922 H914 0.930 . S
C922 C921 1.362 . S
C922 C925 1.409 . S
C923 H915 0.930 . S
C923 C924 1.355 . S
C923 C925 1.415 . S
C924 C923 1.355 . S
C924 C926 1.419 . S
C925 C920 1.425 . S
C925 C922 1.409 . S
C925 C923 1.415 . S
C926 H916 0.930 . S
C926 C924 1.419 . S
C926 C927 1.362 . S
C927 H917 0.930 . S
C927 C920 1.409 . S
C927 C926 1.362 . S
H928 C934 0.930 . S
H929 C937 0.930 . S
H930 C938 0.930 . S
H931 C939 0.930 . S
H932 C942 0.930 . S
H933 C943 0.930 . S
C934 H928 0.930 . S
C934 C935 1.355 . S
C934 C936 1.415 . S
C935 C934 1.355 . S
C935 C937 1.419 . S
C936 C934 1.415 . S
C936 C941 1.425 . S
C936 C943 1.409 . S
C937 H929 0.930 . S
C937 C935 1.419 . S
C937 C938 1.362 . S
C938 H930 0.930 . S
C938 C937 1.362 . S
C938 C941 1.409 . S
C939 H931 0.930 . S
C939 C940 1.355 . S
C939 C941 1.415 . S
C940 C939 1.355 . S
C940 C942 1.419 . S
C941 C936 1.425 . S
C941 C938 1.409 . S
C941 C939 1.415 . S
C942 H932 0.930 . S
C942 C940 1.419 . S
C942 C943 1.362 . S
C943 H933 0.930 . S
C943 C936 1.409 . S
C943 C942 1.362 . S
H944 C950 0.930 . S
H945 C953 0.930 . S
H946 C954 0.930 . S
H947 C955 0.930 . S
H948 C958 0.930 . S
H949 C959 0.930 . S
C950 H944 0.930 . S
C950 C951 1.355 . S
C950 C952 1.415 . S
C951 C950 1.355 . S
C951 C953 1.419 . S
C952 C950 1.415 . S
C952 C957 1.425 . S
C952 C959 1.409 . S
C953 H945 0.930 . S
C953 C951 1.419 . S
C953 C954 1.362 . S
C954 H946 0.930 . S
C954 C953 1.362 . S
C954 C957 1.409 . S
C955 H947 0.930 . S
C955 C956 1.355 . S
C955 C957 1.415 . S
C956 C955 1.355 . S
C956 C958 1.419 . S
C957 C952 1.425 . S
C957 C954 1.409 . S
C957 C955 1.415 . S
C958 H948 0.930 . S
C958 C956 1.419 . S
C958 C959 1.362 . S
C959 H949 0.930 . S
C959 C952 1.409 . S
C959 C958 1.362 . S
H960 C966 0.930 . S
H961 C969 0.930 . S
H962 C970 0.930 . S
H963 C971 0.930 . S
H964 C974 0.930 . S
H965 C975 0.930 . S
C966 H960 0.930 . S
C966 C967 1.355 . S
C966 C968 1.415 . S
C967 C966 1.355 . S
C967 C969 1.419 . S
C968 C966 1.415 . S
C968 C973 1.425 . S
C968 C975 1.409 . S
C969 H961 0.930 . S
C969 C967 1.419 . S
C969 C970 1.362 . S
C970 H962 0.930 . S
C970 C969 1.362 . S
C970 C973 1.409 . S
C971 H963 0.930 . S
C971 C972 1.355 . S
C971 C973 1.415 . S
C972 C971 1.355 . S
C972 C974 1.419 . S
C973 C968 1.425 . S
C973 C970 1.409 . S
C973 C971 1.415 . S
C974 H964 0.930 . S
C974 C972 1.419 . S
C974 C975 1.362 . S
C975 H965 0.930 . S
C975 C968 1.409 . S
C975 C974 1.362 . S
H976 C982 0.930 . S
H977 C985 0.930 . S
H978 C986 0.930 . S
H979 C987 0.930 . S
H980 C990 0.930 . S
H981 C991 0.930 . S
C982 H976 0.930 . S
C982 C983 1.355 . S
C982 C984 1.415 . S
C983 C982 1.355 . S
C983 C985 1.419 . S
C984 C982 1.415 . S
C984 C989 1.425 . S
C984 C991 1.409 . S
C985 H977 0.930 . S
C985 C983 1.419 . S
C985 C986 1.362 . S
C986 H978 0.930 . S
C986 C985 1.362 . S
C986 C989 1.409 . S
C987 H979 0.930 . S
C987 C988 1.355 . S
C987 C989 1.415 . S
C988 C987 1.355 . S
C988 C990 1.419 . S
C989 C984 1.425 . S
C989 C986 1.409 . S
C989 C987 1.415 . S
C990 H980 0.930 . S
C990 C988 1.419 . S
C990 C991 1.362 . S
C991 H981 0.930 . S
C991 C984 1.409 . S
C991 C990 1.362 . S
H992 C998 0.930 . S
H993 C1001 0.930 . S
H994 C1002 0.930 . S
H995 C1003 0.930 . S
H996 C1006 0.930 . S
H997 C1007 0.930 . S
C998 H992 0.930 . S
C998 C999 1.355 . S
C998 C1000 1.415 . S
C999 C998 1.355 . S
C999 C1001 1.419 . S
C1000 C998 1.415 . S
C1000 C1005 1.425 . S
C1000 C1007 1.409 . S
C1001 H993 0.930 . S
C1001 C999 1.419 . S
C1001 C1002 1.362 . S
C1002 H994 0.930 . S
C1002 C1001 1.362 . S
C1002 C1005 1.409 . S
C1003 H995 0.930 . S
C1003 C1004 1.355 . S
C1003 C1005 1.415 . S
C1004 C1003 1.355 . S
C1004 C1006 1.419 . S
C1005 C1000 1.425 . S
C1005 C1002 1.409 . S
C1005 C1003 1.415 . S
C1006 H996 0.930 . S
C1006 C1004 1.419 . S
C1006 C1007 1.362 . S
C1007 H997 0.930 . S
C1007 C1000 1.409 . S
C1007 C1006 1.362 . S
H1008 C1014 0.930 . S
H1009 C1017 0.930 . S
H1010 C1018 0.930 . S
H1011 C1019 0.930 . S
H1012 C1022 0.930 . S
H1013 C1023 0.930 . S
C1014 H1008 0.930 . S
C1014 C1015 1.355 . S
C1014 C1016 1.415 . S
C1015 C1014 1.355 . S
C1015 C1017 1.419 . S
C1016 C1014 1.415 . S
C1016 C1021 1.425 . S
C1016 C1023 1.409 . S
C1017 H1009 0.930 . S
C1017 C1015 1.419 . S
C1017 C1018 1.362 . S
C1018 H1010 0.930 . S
C1018 C1017 1.362 . S
C1018 C1021 1.409 . S
C1019 H1011 0.930 . S
C1019 C1020 1.355 . S
C1019 C1021 1.415 . S
C1020 C1019 1.355 . S
C1020 C1022 1.419 . S
C1021 C1016 1.425 . S
C1021 C1018 1.409 . S
C1021 C1019 1.415 . S
C1022 H1012 0.930 . S
C1022 C1020 1.419 . S
C1022 C1023 1.362 . S
C1023 H1013 0.930 . S
C1023 C1016 1.409 . S
C1023 C1022 1.362 . S
H1024 C1030 0.930 . S
H1025 C1033 0.930 . S
H1026 C1034 0.930 . S
H1027 C1035 0.930 . S
H1028 C1038 0.930 . S
H1029 C1039 0.930 . S
C1030 H1024 0.930 . S
C1030 C1031 1.355 . S
C1030 C1032 1.415 . S
C1031 C1030 1.355 . S
C1031 C1033 1.419 . S
C1032 C1030 1.415 . S
C1032 C1037 1.425 . S
C1032 C1039 1.409 . S
C1033 H1025 0.930 . S
C1033 C1031 1.419 . S
C1033 C1034 1.362 . S
C1034 H1026 0.930 . S
C1034 C1033 1.362 . S
C1034 C1037 1.409 . S
C1035 H1027 0.930 . S
C1035 C1036 1.355 . S
C1035 C1037 1.415 . S
C1036 C1035 1.355 . S
C1036 C1038 1.419 . S
C1037 C1032 1.425 . S
C1037 C1034 1.409 . S
C1037 C1035 1.415 . S
C1038 H1028 0.930 . S
C1038 C1036 1.419 . S
C1038 C1039 1.362 . S
C1039 H1029 0.930 . S
C1039 C1032 1.409 . S
C1039 C1038 1.362 . S
H1040 C1046 0.930 . S
H1041 C1049 0.930 . S
H1042 C1050 0.930 . S
H1043 C1051 0.930 . S
H1044 C1054 0.930 . S
H1045 C1055 0.930 . S
C1046 H1040 0.930 . S
C1046 C1047 1.355 . S
C1046 C1048 1.415 . S
C1047 C1046 1.355 . S
C1047 C1049 1.419 . S
C1048 C1046 1.415 . S
C1048 C1053 1.425 . S
C1048 C1055 1.409 . S
C1049 H1041 0.930 . S
C1049 C1047 1.419 . S
C1049 C1050 1.362 . S
C1050 H1042 0.930 . S
C1050 C1049 1.362 . S
C1050 C1053 1.409 . S
C1051 H1043 0.930 . S
C1051 C1052 1.355 . S
C1051 C1053 1.415 . S
C1052 C1051 1.355 . S
C1052 C1054 1.419 . S
C1053 C1048 1.425 . S
C1053 C1050 1.409 . S
C1053 C1051 1.415 . S
C1054 H1044 0.930 . S
C1054 C1052 1.419 . S
C1054 C1055 1.362 . S
C1055 H1045 0.930 . S
C1055 C1048 1.409 . S
C1055 C1054 1.362 . S
H1056 C1062 0.930 . S
H1057 C1065 0.930 . S
H1058 C1066 0.930 . S
H1059 C1067 0.930 . S
H1060 C1070 0.930 . S
H1061 C1071 0.930 . S
C1062 H1056 0.930 . S
C1062 C1063 1.355 . S
C1062 C1064 1.415 . S
C1063 C1062 1.355 . S
C1063 C1065 1.419 . S
C1064 C1062 1.415 . S
C1064 C1069 1.425 . S
C1064 C1071 1.409 . S
C1065 H1057 0.930 . S
C1065 C1063 1.419 . S
C1065 C1066 1.362 . S
C1066 H1058 0.930 . S
C1066 C1065 1.362 . S
C1066 C1069 1.409 . S
C1067 H1059 0.930 . S
C1067 C1068 1.355 . S
C1067 C1069 1.415 . S
C1068 C1067 1.355 . S
C1068 C1070 1.419 . S
C1069 C1064 1.425 . S
C1069 C1066 1.409 . S
C1069 C1067 1.415 . S
C1070 H1060 0.930 . S
C1070 C1068 1.419 . S
C1070 C1071 1.362 . S
C1071 H1061 0.930 . S
C1071 C1064 1.409 . S
C1071 C1070 1.362 . S
H1072 C1078 0.930 . S
H1073 C1081 0.930 . S
H1074 C1082 0.930 . S
H1075 C1083 0.930 . S
H1076 C1086 0.930 . S
H1077 C1087 0.930 . S
C1078 H1072 0.930 . S
C1078 C1079 1.355 . S
C1078 C1080 1.415 . S
C1079 C1078 1.355 . S
C1079 C1081 1.419 . S
C1080 C1078 1.415 . S
C1080 C1085 1.425 . S
C1080 C1087 1.409 . S
C1081 H1073 0.930 . S
C1081 C1079 1.419 . S
C1081 C1082 1.362 . S
C1082 H1074 0.930 . S
C1082 C1081 1.362 . S
C1082 C1085 1.409 . S
C1083 H1075 0.930 . S
C1083 C1084 1.355 . S
C1083 C1085 1.415 . S
C1084 C1083 1.355 . S
C1084 C1086 1.419 . S
C1085 C1080 1.425 . S
C1085 C1082 1.409 . S
C1085 C1083 1.415 . S
C1086 H1076 0.930 . S
C1086 C1084 1.419 . S
C1086 C1087 1.362 . S
C1087 H1077 0.930 . S
C1087 C1080 1.409 . S
C1087 C1086 1.362 . S
H1088 C1094 0.930 . S
H1089 C1097 0.930 . S
H1090 C1098 0.930 . S
H1091 C1099 0.930 . S
H1092 C1102 0.930 . S
H1093 C1103 0.930 . S
C1094 H1088 0.930 . S
C1094 C1095 1.355 . S
C1094 C1096 1.415 . S
C1095 C1094 1.355 . S
C1095 C1097 1.419 . S
C1096 C1094 1.415 . S
C1096 C1101 1.425 . S
C1096 C1103 1.409 . S
C1097 H1089 0.930 . S
C1097 C1095 1.419 . S
C1097 C1098 1.362 . S
C1098 H1090 0.930 . S
C1098 C1097 1.362 . S
C1098 C1101 1.409 . S
C1099 H1091 0.930 . S
C1099 C1100 1.355 . S
C1099 C1101 1.415 . S
C1100 C1099 1.355 . S
C1100 C1102 1.419 . S
C1101 C1096 1.425 . S
C1101 C1098 1.409 . S
C1101 C1099 1.415 . S
C1102 H1092 0.930 . S
C1102 C1100 1.419 . S
C1102 C1103 1.362 . S
C1103 H1093 0.930 . S
C1103 C1096 1.409 . S
C1103 C1102 1.362 . S
C343 C205 1.501 . S
C348 C3 1.521 . S
C359 C23 1.479 . S
C364 C218 1.501 . S
C375 C259 1.486 . S
C380 C35 1.527 . S
C391 C50 1.512 . S
C396 C190 1.502 . S
C407 C204 1.563 . S
C412 C63 1.516 . S
C423 C79 1.526 . S
C428 C219 1.494 . S
C439 C87 1.526 . S
C444 C255 1.520 . S
C455 C106 1.497 . S
C460 C191 1.477 . S
C471 C129 1.515 . S
C476 C115 1.527 . S
C487 C149 1.572 . S
C492 C133 1.567 . S
C503 C148 1.507 . S
C508 C157 1.495 . S
C519 C161 1.517 . S
C524 C119 1.470 . S
C535 C176 1.512 . S
C540 C51 1.509 . S
C551 C59 1.512 . S
C556 C227 1.516 . S
C567 C246 1.514 . S
C572 C22 1.502 . S
C583 C21 1.461 . S
C588 C303 1.456 . S
C599 C134 1.433 . S
C604 C9 1.409 . S
C615 C329 1.455 . S
C620 C45 1.449 . S
C631 C162 1.423 . S
C636 C36 1.422 . S
C647 C302 1.460 . S
C652 C101 1.466 . S
C663 C135 1.456 . S
C668 C93 1.450 . S
C679 C77 1.439 . S
C684 C325 1.438 . S
C695 C64 1.430 . S
C700 C163 1.398 . S
C711 C217 1.412 . S
C716 C273 1.415 . S
C727 C232 1.468 . S
C732 C213 1.449 . S
C743 C189 1.431 . S
C748 C233 1.475 . S
C759 C269 1.444 . S
C764 C185 1.433 . S
C775 C37 1.437 . S
C780 C288 1.426 . S
C791 C143 1.443 . S
C796 C105 1.409 . S
C807 C8 1.415 . S
C812 C316 1.415 . S
C823 C275 1.501 . S
C828 C31 1.520 . S
C839 C7 1.528 . S
C844 C231 1.483 . S
C855 C274 1.560 . S
C860 C91 1.518 . S
C871 C177 1.501 . S
C876 C107 1.501 . S
C887 C78 1.507 . S
C892 C247 1.495 . S
C903 C297 1.524 . S
C908 C283 1.514 . S
C919 C331 1.554 . S
C924 C287 1.539 . S
C935 C311 1.513 . S
C940 C330 1.508 . S
C951 C301 1.498 . S
C956 C315 1.488 . S
C967 C121 1.470 . S
C972 C49 1.441 . S
C983 C17 1.461 . S
C988 C147 1.416 . S
C999 C73 1.454 . S
C1004 C120 1.460 . S
C1015 C289 1.434 . S
C1020 C65 1.420 . S
C1031 C92 1.419 . S
C1036 C317 1.431 . S
C1047 C175 1.446 . S
C1052 C203 1.449 . S
C1063 C260 1.458 . S
C1068 C171 1.461 . S
C1079 C245 1.432 . S
C1084 C261 1.463 . S
C1095 C199 1.453 . S
C1100 C241 1.439 . S
