# Generated by pormake.
# Topology smu, (6)-cn, num edge types: 1
# Building blocks:
#     Node 0, Type 0, BuildingBlock: BETFAJ_clean_sbu_0, # of connection points: 6
#     Node 1, Type 0, BuildingBlock: BETFAJ_clean_sbu_0, # of connection points: 6
#     Node 2, Type 0, BuildingBlock: BETFAJ_clean_sbu_0, # of connection points: 6
#     Node 3, Type 0, BuildingBlock: BETFAJ_clean_sbu_0, # of connection points: 6
#     Node 4, Type 0, BuildingBlock: BETFAJ_clean_sbu_0, # of connection points: 6
#     Node 5, Type 0, BuildingBlock: BETFAJ_clean_sbu_0, # of connection points: 6
#     Edge 6, Type (0, 0), BuildingBlock: UVAHIK_clean_linker_0, # of connection points: 2
#     Edge 7, Type (0, 0), BuildingBlock: UVAHIK_clean_linker_0, # of connection points: 2
#     Edge 8, Type (0, 0), BuildingBlock: UVAHIK_clean_linker_0, # of connection points: 2
#     Edge 9, Type (0, 0), BuildingBlock: UVAHIK_clean_linker_0, # of connection points: 2
#     Edge 10, Type (0, 0), BuildingBlock: UVAHIK_clean_linker_0, # of connection points: 2
#     Edge 11, Type (0, 0), BuildingBlock: UVAHIK_clean_linker_0, # of connection points: 2
#     Edge 12, Type (0, 0), BuildingBlock: UVAHIK_clean_linker_0, # of connection points: 2
#     Edge 13, Type (0, 0), BuildingBlock: UVAHIK_clean_linker_0, # of connection points: 2
#     Edge 14, Type (0, 0), BuildingBlock: UVAHIK_clean_linker_0, # of connection points: 2
#     Edge 15, Type (0, 0), BuildingBlock: UVAHIK_clean_linker_0, # of connection points: 2
#     Edge 16, Type (0, 0), BuildingBlock: UVAHIK_clean_linker_0, # of connection points: 2
#     Edge 17, Type (0, 0), BuildingBlock: UVAHIK_clean_linker_0, # of connection points: 2
#     Edge 18, Type (0, 0), BuildingBlock: UVAHIK_clean_linker_0, # of connection points: 2
#     Edge 19, Type (0, 0), BuildingBlock: UVAHIK_clean_linker_0, # of connection points: 2
#     Edge 20, Type (0, 0), BuildingBlock: UVAHIK_clean_linker_0, # of connection points: 2
#     Edge 21, Type (0, 0), BuildingBlock: UVAHIK_clean_linker_0, # of connection points: 2
#     Edge 22, Type (0, 0), BuildingBlock: UVAHIK_clean_linker_0, # of connection points: 2
#     Edge 23, Type (0, 0), BuildingBlock: UVAHIK_clean_linker_0, # of connection points: 2
# Relax obj value: 0.210
# Max RMSD: 0.298
# Mean RMSD: 0.298
data_MOF--net-smu--node1-BETFAJ_clean_sbu_0--edge1-UVAHIK_clean_linker_0
_symmetry_space_group_name_H-M    P1
_symmetry_Int_Tables_number       1
_symmetry_cell_setting            triclinic
loop_
_symmetry_equiv_pos_as_xyz
'x, y, z'
_cell_length_a     48.695288
_cell_length_b     48.554611
_cell_length_c     34.705984
_cell_angle_alpha  89.894174
_cell_angle_beta   90.255293
_cell_angle_gamma 120.06818
loop_
_atom_site_label
_atom_site_type_symbol
_atom_site_fract_x
_atom_site_fract_y
_atom_site_fract_z
_atom_type_partial_charge
Sm0 Sm 0.36212 0.08541 0.27956 0.0
Sm1 Sm 0.31657 0.11003 0.29103 0.0
C2 C 0.40268 0.06613 0.26012 0.0
C3 C 0.43791 0.07998 0.26318 0.0
C4 C 0.4574 0.09388 0.23081 0.0
C5 C 0.49051 0.10743 0.23341 0.0
C6 C 0.50524 0.10734 0.26843 0.0
C7 C 0.48567 0.09313 0.30073 0.0
C8 C 0.45255 0.07968 0.29816 0.0
C9 C 0.35389 0.09572 0.35687 0.0
C10 C 0.39229 0.16094 0.28878 0.0
C11 C 0.28519 0.13997 0.30921 0.0
C12 C 0.25901 0.14612 0.2991 0.0
C13 C 0.23044 0.13132 0.31985 0.0
C14 C 0.20762 0.14055 0.31454 0.0
C15 C 0.21289 0.16504 0.28857 0.0
C16 C 0.24103 0.17908 0.26689 0.0
C17 C 0.2638 0.16981 0.27214 0.0
C18 C 0.31549 0.08923 0.21681 0.0
C19 C 0.28583 0.03445 0.28983 0.0
O20 O 0.39253 0.07982 0.23602 0.0
O21 O 0.38613 0.0574 0.29193 0.0
O22 O 0.33281 0.08444 0.33117 0.0
O23 O 0.38092 0.10272 0.34165 0.0
O24 O 0.39583 0.13911 0.27079 0.0
O25 O 0.3654 0.15318 0.30614 0.0
O26 O 0.2783 0.11233 0.3237 0.0
O27 O 0.31008 0.15195 0.28684 0.0
O28 O 0.34047 0.10472 0.23703 0.0
O29 O 0.29137 0.08789 0.23411 0.0
O30 O 0.28382 0.05791 0.3062 0.0
O31 O 0.31222 0.03946 0.27234 0.0
H32 H 0.44704 0.09432 0.2033 0.0
H33 H 0.50453 0.11761 0.2077 0.0
H34 H 0.49597 0.09282 0.32833 0.0
H35 H 0.43847 0.0692 0.32377 0.0
H36 H 0.2261 0.11325 0.34114 0.0
H37 H 0.18604 0.1288 0.33133 0.0
H38 H 0.24621 0.19827 0.24699 0.0
H39 H 0.28569 0.18212 0.25601 0.0
Sm40 Sm 0.73325 0.64749 0.2789 0.0
Sm41 Sm 0.8039 0.70137 0.30143 0.0
C42 C 0.68234 0.59984 0.24577 0.0
C43 C 0.66156 0.565 0.25119 0.0
C44 C 0.65264 0.54465 0.21916 0.0
C45 C 0.63261 0.51172 0.22345 0.0
C46 C 0.62086 0.49833 0.25993 0.0
C47 C 0.63003 0.5188 0.29205 0.0
C48 C 0.65022 0.55172 0.28776 0.0
C49 C 0.74021 0.66367 0.35556 0.0
C50 C 0.78976 0.62818 0.28897 0.0
C51 C 0.85796 0.74124 0.33669 0.0
C52 C 0.89205 0.76173 0.32774 0.0
C53 C 0.90975 0.79069 0.34731 0.0
C54 C 0.94236 0.80985 0.34079 0.0
C55 C 0.95813 0.80044 0.31458 0.0
C56 C 0.94012 0.77164 0.29436 0.0
C57 C 0.90742 0.75251 0.30084 0.0
C58 C 0.79221 0.70286 0.22229 0.0
C59 C 0.75066 0.72051 0.2888 0.0
O60 O 0.71129 0.60974 0.23386 0.0
O61 O 0.68094 0.61855 0.27187 0.0
O62 O 0.76172 0.66284 0.33552 0.0
O63 O 0.71377 0.65201 0.33642 0.0
O64 O 0.75903 0.61834 0.28589 0.0
O65 O 0.81137 0.65859 0.29308 0.0
O66 O 0.83845 0.75 0.32286 0.0
O67 O 0.84641 0.71042 0.33517 0.0
O68 O 0.77529 0.68364 0.24779 0.0
O69 O 0.81908 0.72242 0.23866 0.0
O70 O 0.7721 0.72249 0.31383 0.0
O71 O 0.73567 0.69562 0.26536 0.0
H72 H 0.66102 0.55427 0.19066 0.0
H73 H 0.62583 0.49682 0.19801 0.0
H74 H 0.62183 0.50935 0.32064 0.0
H75 H 0.65689 0.56675 0.31309 0.0
H76 H 0.89837 0.79837 0.36801 0.0
H77 H 0.9552 0.83211 0.35635 0.0
H78 H 0.95139 0.76345 0.2742 0.0
H79 H 0.89426 0.73029 0.28524 0.0
Sm80 Sm 0.92216 0.27875 0.27773 0.0
Sm81 Sm 0.89894 0.20899 0.28771 0.0
C82 C 0.94258 0.33924 0.2587 0.0
C83 C 0.93027 0.36153 0.26309 0.0
C84 C 0.94617 0.39167 0.24579 0.0
C85 C 0.9343 0.41265 0.24879 0.0
C86 C 0.90611 0.404 0.26919 0.0
C87 C 0.89027 0.37364 0.28655 0.0
C88 C 0.90219 0.35269 0.28351 0.0
C89 C 0.91422 0.26003 0.35514 0.0
C90 C 0.84681 0.23236 0.28802 0.0
C91 C 0.87005 0.14736 0.30506 0.0
C92 C 0.86448 0.11521 0.29505 0.0
C93 C 0.87547 0.09988 0.31984 0.0
C94 C 0.86613 0.06777 0.31447 0.0
C95 C 0.84531 0.05004 0.2843 0.0
C96 C 0.83538 0.06578 0.25855 0.0
C97 C 0.84479 0.09793 0.26388 0.0
C98 C 0.91898 0.2296 0.2134 0.0
C99 C 0.97387 0.25399 0.28556 0.0
O100 O 0.92675 0.3153 0.23532 0.0
O101 O 0.95125 0.33076 0.29015 0.0
O102 O 0.92495 0.2504 0.32869 0.0
O103 O 0.90616 0.27962 0.34054 0.0
O104 O 0.8681 0.25848 0.27055 0.0
O105 O 0.85546 0.21338 0.30429 0.0
O106 O 0.89739 0.16832 0.31998 0.0
O107 O 0.85787 0.16014 0.28254 0.0
O108 O 0.9034 0.23868 0.23398 0.0
O109 O 0.92078 0.20681 0.23036 0.0
O110 O 0.95099 0.22834 0.30221 0.0
O111 O 0.96814 0.27525 0.26867 0.0
H112 H 0.96772 0.39894 0.22962 0.0
H113 H 0.94698 0.43548 0.23447 0.0
H114 H 0.86877 0.36613 0.30288 0.0
H115 H 0.88942 0.32949 0.29704 0.0
H116 H 0.89043 0.11243 0.3443 0.0
H117 H 0.87474 0.05666 0.33449 0.0
H118 H 0.81912 0.05293 0.23522 0.0
H119 H 0.83557 0.10882 0.24439 0.0
Sm120 Sm 0.10913 0.31356 0.79011 0.0
Sm121 Sm 0.0874 0.3644 0.77304 0.0
C122 C 0.13563 0.28025 0.81419 0.0
C123 C 0.14099 0.25313 0.80862 0.0
C124 C 0.15249 0.24342 0.83976 0.0
C125 C 0.16237 0.22113 0.83463 0.0
C126 C 0.16082 0.20775 0.79812 0.0
C127 C 0.14829 0.21687 0.76707 0.0
C128 C 0.13858 0.23943 0.77225 0.0
C129 C 0.08678 0.31144 0.71596 0.0
C130 C 0.03497 0.28961 0.78922 0.0
C131 C 0.07701 0.4079 0.74045 0.0
C132 C 0.08931 0.44218 0.7478 0.0
C133 C 0.07609 0.45835 0.72879 0.0
C134 C 0.08902 0.49125 0.73388 0.0
C135 C 0.11564 0.50877 0.75795 0.0
C136 C 0.12856 0.49229 0.77728 0.0
C137 C 0.1155 0.4594 0.77233 0.0
C138 C 0.08747 0.35576 0.85259 0.0
C139 C 0.1635 0.39052 0.78713 0.0
O140 O 0.10812 0.27507 0.82691 0.0
O141 O 0.14856 0.30341 0.7891 0.0
O142 O 0.10302 0.33645 0.73582 0.0
O143 O 0.08549 0.28722 0.73354 0.0
O144 O 0.05734 0.2876 0.80858 0.0
O145 O 0.04135 0.31469 0.76728 0.0
O146 O 0.098 0.40078 0.72799 0.0
O147 O 0.05813 0.38779 0.76644 0.0
O148 O 0.09561 0.34288 0.82683 0.0
O149 O 0.08143 0.37611 0.83606 0.0
O150 O 0.14176 0.39769 0.77652 0.0
O151 O 0.1561 0.36117 0.79612 0.0
H152 H 0.15503 0.25403 0.86794 0.0
H153 H 0.17237 0.21538 0.85916 0.0
H154 H 0.14626 0.20685 0.73866 0.0
H155 H 0.12996 0.24675 0.7477 0.0
H156 H 0.05603 0.44561 0.70953 0.0
H157 H 0.07861 0.5031 0.71821 0.0
H158 H 0.14871 0.50479 0.79645 0.0
H159 H 0.12613 0.44744 0.78734 0.0
Sm160 Sm 0.21468 0.90307 0.79029 0.0
Sm161 Sm 0.28345 0.92502 0.77507 0.0
C162 C 0.15462 0.87588 0.81293 0.0
C163 C 0.12295 0.8724 0.80717 0.0
C164 C 0.10179 0.86212 0.83819 0.0
C165 C 0.07005 0.85367 0.83264 0.0
C166 C 0.05867 0.85534 0.79583 0.0
C167 C 0.08027 0.86666 0.76493 0.0
C168 C 0.1121 0.87507 0.77053 0.0
C169 C 0.23288 0.9254 0.71585 0.0
C170 C 0.26194 0.97778 0.78587 0.0
C171 C 0.33855 0.93255 0.75012 0.0
C172 C 0.35808 0.91696 0.75574 0.0
C173 C 0.35712 0.89495 0.72864 0.0
C174 C 0.37618 0.88101 0.73323 0.0
C175 C 0.39695 0.88883 0.76495 0.0
C176 C 0.39777 0.91075 0.79211 0.0
C177 C 0.37871 0.92465 0.78755 0.0
C178 C 0.27313 0.93276 0.85088 0.0
C179 C 0.23521 0.84831 0.78703 0.0
O180 O 0.17727 0.90183 0.82895 0.0
O181 O 0.16476 0.86464 0.78579 0.0
O182 O 0.24183 0.90887 0.73458 0.0
O183 O 0.2117 0.92817 0.73517 0.0
O184 O 0.23864 0.95553 0.80643 0.0
O185 O 0.28022 0.97094 0.76416 0.0
O186 O 0.31193 0.91686 0.73098 0.0
O187 O 0.33605 0.94812 0.77924 0.0
O188 O 0.25415 0.90838 0.83097 0.0
O189 O 0.29824 0.9519 0.83156 0.0
O190 O 0.26515 0.87123 0.78519 0.0
O191 O 0.21214 0.85486 0.78794 0.0
H192 H 0.10952 0.85941 0.86656 0.0
H193 H 0.05418 0.84464 0.85705 0.0
H194 H 0.07253 0.86873 0.73632 0.0
H195 H 0.12799 0.88278 0.74607 0.0
H196 H 0.34181 0.8887 0.70356 0.0
H197 H 0.37512 0.8646 0.7114 0.0
H198 H 0.41306 0.91711 0.8172 0.0
H199 H 0.3803 0.94158 0.80898 0.0
Sm200 Sm 0.69788 0.80029 0.79622 0.0
Sm201 Sm 0.65266 0.73065 0.78017 0.0
C202 C 0.73068 0.86059 0.81926 0.0
C203 C 0.75745 0.89289 0.81015 0.0
C204 C 0.78321 0.90818 0.83573 0.0
C205 C 0.80608 0.94035 0.83071 0.0
C206 C 0.80358 0.95817 0.80017 0.0
C207 C 0.77835 0.94243 0.7738 0.0
C208 C 0.75566 0.91027 0.77868 0.0
C209 C 0.70067 0.78374 0.72053 0.0
C210 C 0.72784 0.75536 0.78634 0.0
C211 C 0.60575 0.67371 0.75769 0.0
C212 C 0.57035 0.65421 0.76034 0.0
C213 C 0.55036 0.65654 0.73265 0.0
C214 C 0.51717 0.63702 0.73488 0.0
C215 C 0.50301 0.6145 0.76472 0.0
C216 C 0.52311 0.61249 0.7925 0.0
C217 C 0.55616 0.63188 0.79024 0.0
C218 C 0.67543 0.74153 0.85456 0.0
C219 C 0.6219 0.77662 0.79528 0.0
O220 O 0.73666 0.83868 0.83199 0.0
O221 O 0.70583 0.84917 0.79668 0.0
O222 O 0.67549 0.77314 0.74024 0.0
O223 O 0.72444 0.80575 0.73952 0.0
O224 O 0.7288 0.77822 0.80787 0.0
O225 O 0.70208 0.7361 0.76581 0.0
O226 O 0.61843 0.69864 0.73512 0.0
O227 O 0.62166 0.67872 0.78974 0.0
O228 O 0.6671 0.75935 0.83695 0.0
O229 O 0.67065 0.71755 0.83346 0.0
O230 O 0.61603 0.74722 0.79031 0.0
O231 O 0.65109 0.80052 0.79812 0.0
H232 H 0.78513 0.89553 0.86039 0.0
H233 H 0.82544 0.95137 0.85123 0.0
H234 H 0.77524 0.95524 0.75021 0.0
H235 H 0.73603 0.89943 0.7585 0.0
H236 H 0.56035 0.67319 0.70898 0.0
H237 H 0.50266 0.63913 0.71265 0.0
H238 H 0.51333 0.59596 0.81631 0.0
H239 H 0.57065 0.62917 0.81199 0.0
C240 C 0.24567 0.93692 0.91035 0.0
C241 C 0.27195 0.93755 0.89294 0.0
C242 C 0.24846 0.94989 0.94747 0.0
C243 C 0.30219 0.98031 0.03455 0.0
H244 H 0.26491 0.03385 0.04762 0.0
C245 C 0.33711 0.07101 0.16183 0.0
C246 C 0.31205 0.07272 0.17938 0.0
C247 C 0.33193 0.05342 0.12759 0.0
C248 C 0.27531 0.01879 0.04471 0.0
H249 H 0.32117 0.95089 0.90128 0.0
H250 H 0.32593 0.97278 0.96533 0.0
H251 H 0.25401 1.00232 0.98912 0.0
H252 H 0.26196 0.05739 0.17433 0.0
H253 H 0.25314 0.02731 0.11544 0.0
H254 H 0.32385 0.99723 0.09001 0.0
C255 C 0.30307 0.96229 0.95105 0.0
C256 C 0.26886 1.00048 1.0111 0.0
C257 C 0.30035 0.94969 0.91413 0.0
C258 C 0.28196 0.05684 0.16162 0.0
C259 C 0.27686 0.03958 0.12756 0.0
C260 C 0.30873 0.99873 0.06813 0.0
C261 C 0.27753 0.96353 0.96796 0.0
C262 C 0.28231 0.98104 1.00534 0.0
C263 C 0.30165 0.03743 0.10998 0.0
C264 C 0.29544 0.01832 0.07371 0.0
H265 H 0.22369 0.92834 0.89441 0.0
H266 H 0.22811 0.95004 0.95965 0.0
H267 H 0.31272 0.96538 1.03157 0.0
H268 H 0.36056 0.083 0.17463 0.0
H269 H 0.35171 0.05256 0.11472 0.0
C270 C 0.6794 0.74504 0.66431 0.0
C271 C 0.70464 0.77112 0.68303 0.0
C272 C 0.68455 0.7329 0.62995 0.0
C273 C 0.74959 0.73403 0.5702 0.0
H274 H 0.68496 0.70151 0.49062 0.0
C275 C 0.76804 0.69923 0.41331 0.0
C276 C 0.74159 0.67275 0.39678 0.0
C277 C 0.76548 0.7109 0.44963 0.0
C278 C 0.70323 0.71019 0.51264 0.0
H279 H 0.75508 0.805 0.67996 0.0
H280 H 0.76383 0.78462 0.62023 0.0
H281 H 0.6758 0.72195 0.55012 0.0
H282 H 0.69255 0.63669 0.40641 0.0
H283 H 0.68843 0.65618 0.46913 0.0
H284 H 0.77712 0.72248 0.53212 0.0
C285 C 0.74013 0.77289 0.63215 0.0
C286 C 0.69788 0.72189 0.54702 0.0
C287 C 0.735 0.78487 0.66638 0.0
C288 C 0.71336 0.65727 0.41816 0.0
C289 C 0.71086 0.66869 0.4541 0.0
C290 C 0.755 0.72242 0.53561 0.0
C291 C 0.71508 0.74659 0.61334 0.0
C292 C 0.72087 0.73389 0.57654 0.0
C293 C 0.73644 0.69629 0.46992 0.0
C294 C 0.73175 0.71003 0.50643 0.0
H295 H 0.65577 0.73383 0.67635 0.0
H296 H 0.66461 0.7124 0.61677 0.0
H297 H 0.76781 0.74263 0.59225 0.0
H298 H 0.78998 0.71194 0.39732 0.0
H299 H 0.78574 0.73221 0.4609 0.0
C300 C 0.94775 0.22684 0.15535 0.0
C301 C 0.93458 0.24266 0.17538 0.0
C302 C 0.96476 0.23918 0.12115 0.0
C303 C 0.98203 0.29912 0.04274 0.0
H304 H 0.05181 0.2844 1.02149 0.0
C305 C 0.06828 0.36234 0.91655 0.0
C306 C 0.07654 0.34423 0.89267 0.0
C307 C 0.05249 0.35024 0.95151 0.0
C308 C 0.03224 0.2885 1.02671 0.0
H309 H 0.9288 0.28397 0.17427 0.0
H310 H 0.95925 0.30624 0.11492 0.0
H311 H 0.02151 0.26401 0.08075 0.0
H312 H 0.07558 0.29931 0.88796 0.0
H313 H 0.04826 0.27813 0.94969 0.0
H314 H 0.9933 0.32418 0.98894 0.0
C315 C 0.95596 0.28378 0.12541 0.0
C316 C 0.01463 0.27668 0.06084 0.0
C317 C 0.93854 0.27113 0.1597 0.0
C318 C 0.06987 0.31405 0.90573 0.0
C319 C 0.05407 0.30188 0.9411 0.0
C320 C 0.99983 0.31119 1.00882 0.0
C321 C 0.96969 0.26814 0.10571 0.0
C322 C 0.98906 0.28162 0.06947 0.0
C323 C 0.0444 0.31954 0.96403 0.0
C324 C 0.02523 0.30609 1.0002 0.0
H325 H 0.94513 0.20474 0.16628 0.0
H326 H 0.97393 0.22572 0.10677 0.0
H327 H 0.96234 0.30309 0.04757 0.0
H328 H 0.07307 0.38571 0.90756 0.0
H329 H 0.04621 0.36491 0.96857 0.0
C330 C 0.31566 0.07665 0.41205 0.0
C331 C 0.34588 0.08523 0.39767 0.0
C332 C 0.30575 0.06188 0.44811 0.0
C333 C 0.31817 0.01055 0.51546 0.0
H334 H 0.27257 0.03331 0.58795 0.0
C335 C 0.27446 0.94558 0.66335 0.0
C336 C 0.24649 0.94251 0.67893 0.0
C337 C 0.28806 0.96394 0.63003 0.0
C338 C 0.28476 0.02612 0.56789 0.0
H339 H 0.38965 0.08558 0.41053 0.0
H340 H 0.3722 0.05949 0.47335 0.0
H341 H 0.29355 0.06418 0.52916 0.0
H342 H 0.2104 0.95566 0.67101 0.0
H343 H 0.2329 0.9861 0.61251 0.0
H344 H 0.30849 0.9718 0.55322 0.0
C345 C 0.3562 0.06428 0.45667 0.0
C346 C 0.29703 0.04411 0.53417 0.0
C347 C 0.36633 0.07955 0.42083 0.0
C348 C 0.23206 0.9576 0.65992 0.0
C349 C 0.2453 0.9755 0.62643 0.0
C350 C 0.30547 0.99221 0.54893 0.0
C351 C 0.32559 0.05481 0.47054 0.0
C352 C 0.3138 0.03652 0.50739 0.0
C353 C 0.2738 0.97941 0.61108 0.0
C354 C 0.28833 0.99953 0.57568 0.0
H355 H 0.29924 0.08043 0.3948 0.0
H356 H 0.28197 0.05478 0.45772 0.0
H357 H 0.33063 1.00377 0.49525 0.0
H358 H 0.28625 0.93441 0.67733 0.0
H359 H 0.31016 0.96649 0.6197 0.0
C360 C 0.68419 0.76006 0.92467 0.0
C361 C 0.69111 0.74664 0.89293 0.0
C362 C 0.69619 0.75945 0.96167 0.0
C363 C 0.75859 0.74826 1.01083 0.0
H364 H 0.70157 0.71835 0.09809 0.0
C365 C 0.80168 0.735 0.16207 0.0
C366 C 0.78106 0.70866 0.18467 0.0
C367 C 0.79109 0.74221 0.12791 0.0
C368 C 0.7178 0.72658 0.07399 0.0
H369 H 0.7169 0.72321 0.875 0.0
H370 H 0.73795 0.72277 0.93804 0.0
H371 H 0.68348 0.72838 0.0364 0.0
H372 H 0.73295 0.66919 0.18895 0.0
H373 H 0.71448 0.68134 0.12891 0.0
H374 H 0.79255 0.74552 0.04753 0.0
C375 C 0.72341 0.73374 0.93506 0.0
C376 C 0.70754 0.73279 0.03871 0.0
C377 C 0.71116 0.73391 0.89871 0.0
C378 C 0.74951 0.68956 0.17211 0.0
C379 C 0.73885 0.69678 0.13784 0.0
C380 C 0.76884 0.74215 0.04595 0.0
C381 C 0.7158 0.74599 0.96733 0.0
C382 C 0.72763 0.7432 1.00639 0.0
C383 C 0.75949 0.72326 0.11516 0.0
C384 C 0.74854 0.73082 0.07804 0.0
H385 H 0.66853 0.76972 0.92124 0.0
H386 H 0.68994 0.76924 0.98586 0.0
H387 H 0.77492 0.75653 0.9868 0.0
H388 H 0.82604 0.75044 0.17108 0.0
H389 H 0.80768 0.76305 0.11179 0.0
C390 C 0.93694 0.24275 0.40907 0.0
C391 C 0.92608 0.26301 0.39564 0.0
C392 C 0.95225 0.24799 0.44497 0.0
C393 C 0.99959 0.31171 0.51559 0.0
H394 H 0.98268 0.24175 0.58374 0.0
C395 C 0.06383 0.33221 0.66505 0.0
C396 C 0.06958 0.30833 0.67892 0.0
C397 C 0.04557 0.32737 0.63141 0.0
C398 C 0.98828 0.26167 0.56494 0.0
H399 H 0.92256 0.30453 0.41011 0.0
H400 H 0.94948 0.3138 0.47259 0.0
H401 H 0.95212 0.23155 0.52456 0.0
H402 H 0.06114 0.26086 0.66746 0.0
H403 H 0.0309 0.25293 0.60873 0.0
H404 H 0.0364 0.34177 0.55525 0.0
C405 C 0.94611 0.29379 0.45528 0.0
C406 C 0.97045 0.25574 0.53089 0.0
C407 C 0.93034 0.28826 0.41958 0.0
C408 C 0.05713 0.27981 0.65785 0.0
C409 C 0.03933 0.2751 0.62414 0.0
C410 C 0.01777 0.31763 0.54946 0.0
C411 C 0.95763 0.27394 0.46834 0.0
C412 C 0.9759 0.28061 0.50555 0.0
C413 C 0.03276 0.29856 0.61043 0.0
C414 C 0.01264 0.29267 0.57467 0.0
H415 H 0.93434 0.22326 0.3913 0.0
H416 H 0.96093 0.2323 0.45378 0.0
H417 H 1.00476 0.33147 0.49666 0.0
H418 H 0.07276 0.3543 0.68063 0.0
H419 H 0.04096 0.34602 0.62242 0.0
C420 C 0.56134 0.15007 0.25119 0.0
C421 C 0.54073 0.1219 0.27119 0.0
C422 C 0.59446 0.16361 0.25372 0.0
C423 C 0.65827 0.16263 0.31364 0.0
H424 H 0.71049 0.20169 0.22369 0.0
C425 C 0.7903 0.19538 0.30827 0.0
C426 C 0.81243 0.223 0.28851 0.0
C427 C 0.75774 0.18496 0.30704 0.0
C428 C 0.69641 0.19129 0.2493 0.0
H429 H 0.53953 0.08579 0.30916 0.0
H430 H 0.59689 0.10913 0.31342 0.0
H431 H 0.65321 0.17968 0.21956 0.0
H432 H 0.81714 0.2615 0.25224 0.0
H433 H 0.76028 0.24346 0.25029 0.0
H434 H 0.70138 0.17399 0.34328 0.0
C435 C 0.58752 0.12123 0.29628 0.0
C436 C 0.66337 0.17858 0.24693 0.0
C437 C 0.55442 0.10774 0.29381 0.0
C438 C 0.80092 0.24016 0.26787 0.0
C439 C 0.7682 0.22963 0.26651 0.0
C440 C 0.69125 0.17528 0.31598 0.0
C441 C 0.60816 0.14943 0.27631 0.0
C442 C 0.64367 0.16381 0.279 0.0
C443 C 0.74603 0.20172 0.28593 0.0
C444 C 0.71089 0.18961 0.28378 0.0
H445 H 0.55191 0.16207 0.23396 0.0
H446 H 0.60934 0.18555 0.23837 0.0
H447 H 0.64424 0.15215 0.33926 0.0
H448 H 0.79802 0.18133 0.32438 0.0
H449 H 0.74163 0.16316 0.32194 0.0
C450 C 0.57255 0.45146 0.28906 0.0
C451 C 0.59889 0.46325 0.26435 0.0
C452 C 0.55163 0.41864 0.2927 0.0
C453 C 0.5259 0.34123 0.24323 0.0
H454 H 0.48766 0.30571 0.34206 0.0
C455 C 0.44601 0.20489 0.26704 0.0
C456 C 0.4182 0.1949 0.28864 0.0
C457 C 0.46932 0.23723 0.26511 0.0
C458 C 0.49791 0.31523 0.31415 0.0
H459 H 0.62411 0.44937 0.22476 0.0
H460 H 0.58795 0.39227 0.23135 0.0
H461 H 0.52557 0.36246 0.33668 0.0
H462 H 0.39356 0.21136 0.32569 0.0
H463 H 0.43396 0.26738 0.32229 0.0
H464 H 0.49819 0.29392 0.22076 0.0
C465 C 0.583 0.4084 0.24737 0.0
C466 C 0.51967 0.34789 0.31102 0.0
C467 C 0.60383 0.44124 0.24361 0.0
C468 C 0.41465 0.21804 0.30883 0.0
C469 C 0.43797 0.25028 0.30704 0.0
C470 C 0.50422 0.30853 0.2464 0.0
C471 C 0.55649 0.39657 0.27188 0.0
C472 C 0.53386 0.36147 0.27545 0.0
C473 C 0.46553 0.26042 0.28489 0.0
C474 C 0.48972 0.29508 0.28185 0.0
H475 H 0.56766 0.46765 0.30505 0.0
H476 H 0.53125 0.41063 0.31134 0.0
H477 H 0.53586 0.35073 0.21521 0.0
H478 H 0.44961 0.1878 0.25112 0.0
H479 H 0.49038 0.24406 0.24814 0.0
C480 C 0.86046 0.41522 0.27081 0.0
C481 C 0.89334 0.42647 0.27208 0.0
C482 C 0.84865 0.43633 0.27285 0.0
C483 C 0.87315 0.52208 0.25956 0.0
H484 H 0.79589 0.4992 0.31549 0.0
C485 C 0.83325 0.61424 0.28978 0.0
C486 C 0.80069 0.6043 0.28764 0.0
C487 C 0.84382 0.59218 0.28791 0.0
C488 C 0.8173 0.5059 0.29933 0.0
H489 H 0.93938 0.46921 0.27766 0.0
H490 H 0.91894 0.50576 0.28118 0.0
H491 H 0.81554 0.46184 0.31243 0.0
H492 H 0.75376 0.5628 0.282 0.0
H493 H 0.77218 0.52439 0.27856 0.0
H494 H 0.87498 0.56611 0.24649 0.0
C495 C 0.90218 0.4806 0.27782 0.0
C496 C 0.82863 0.48438 0.29757 0.0
C497 C 0.91397 0.45952 0.2758 0.0
C498 C 0.779 0.57148 0.28383 0.0
C499 C 0.7896 0.54935 0.28205 0.0
C500 C 0.86185 0.54357 0.26136 0.0
C501 C 0.86933 0.46941 0.27621 0.0
C502 C 0.85684 0.49217 0.27779 0.0
C503 C 0.82222 0.55937 0.28387 0.0
C504 C 0.83383 0.53594 0.28142 0.0
H505 H 0.84373 0.39006 0.26741 0.0
H506 H 0.82325 0.42668 0.27097 0.0
H507 H 0.89455 0.52883 0.24336 0.0
H508 H 0.8508 0.63921 0.29285 0.0
H509 H 0.86905 0.60092 0.29007 0.0
C510 C 0.11064 0.55783 0.76582 0.0
C511 C 0.12998 0.54404 0.76266 0.0
C512 C 0.12402 0.5908 0.77035 0.0
C513 C 0.19811 0.66811 0.7555 0.0
H514 H 0.15846 0.69941 0.82595 0.0
C515 C 0.24885 0.80413 0.78428 0.0
C516 C 0.22625 0.814 0.78739 0.0
C517 C 0.23926 0.77151 0.78324 0.0
C518 C 0.16974 0.6912 0.80582 0.0
H519 H 0.17885 0.55464 0.7612 0.0
H520 H 0.20215 0.61207 0.76936 0.0
H521 H 0.13739 0.6424 0.81962 0.0
H522 H 0.17569 0.79681 0.79181 0.0
H523 H 0.15933 0.74097 0.78946 0.0
H524 H 0.23018 0.71703 0.74126 0.0
C525 C 0.17656 0.59732 0.76823 0.0
C526 C 0.15758 0.65837 0.8022 0.0
C527 C 0.16315 0.56429 0.76395 0.0
C528 C 0.19398 0.79041 0.78964 0.0
C529 C 0.18448 0.75809 0.78857 0.0
C530 C 0.21022 0.70106 0.75898 0.0
C531 C 0.15718 0.61106 0.77165 0.0
C532 C 0.17129 0.64627 0.77663 0.0
C533 C 0.20687 0.748 0.7854 0.0
C534 C 0.1959 0.71309 0.78378 0.0
H535 H 0.08503 0.54308 0.76528 0.0
H536 H 0.1083 0.60047 0.77243 0.0
H537 H 0.2092 0.65971 0.73533 0.0
H538 H 0.27388 0.82155 0.78238 0.0
H539 H 0.25726 0.76472 0.78103 0.0
C540 C 0.40734 0.8427 0.75972 0.0
C541 C 0.41806 0.87469 0.76942 0.0
C542 C 0.4272 0.82963 0.76411 0.0
C543 C 0.5007 0.84316 0.81495 0.0
H544 H 0.50156 0.78588 0.73792 0.0
C545 C 0.60218 0.81477 0.80676 0.0
C546 C 0.59556 0.78399 0.79649 0.0
C547 C 0.57858 0.82315 0.80546 0.0
C548 C 0.50132 0.80146 0.76004 0.0
H549 H 0.45873 0.91806 0.79048 0.0
H550 H 0.49311 0.89543 0.79809 0.0
H551 H 0.46458 0.80581 0.73125 0.0
H552 H 0.55833 0.73771 0.77716 0.0
H553 H 0.51686 0.75236 0.77505 0.0
H554 H 0.53758 0.83915 0.84355 0.0
C555 C 0.4691 0.88015 0.78782 0.0
C556 C 0.48008 0.81296 0.75619 0.0
C557 C 0.44929 0.8932 0.78343 0.0
C558 C 0.56432 0.76159 0.78542 0.0
C559 C 0.54059 0.77009 0.7839 0.0
C560 C 0.52187 0.8317 0.81878 0.0
C561 C 0.45838 0.84813 0.77836 0.0
C562 C 0.47977 0.83438 0.78331 0.0
C563 C 0.54747 0.8011 0.79375 0.0
C564 C 0.52288 0.81105 0.79111 0.0
H565 H 0.38336 0.82752 0.74932 0.0
H566 H 0.41789 0.80481 0.75693 0.0
H567 H 0.50074 0.85896 0.83696 0.0
H568 H 0.62588 0.83279 0.81539 0.0
H569 H 0.58506 0.84736 0.8127 0.0
C570 C 0.22118 0.40834 0.79882 0.0
C571 C 0.19783 0.41582 0.78764 0.0
C572 C 0.25353 0.43122 0.79741 0.0
C573 C 0.31109 0.50849 0.75191 0.0
H574 H 0.36818 0.50794 0.82969 0.0
C575 C 0.44641 0.60345 0.75669 0.0
C576 C 0.46761 0.5928 0.7668 0.0
C577 C 0.41338 0.58315 0.75953 0.0
C578 C 0.35271 0.50829 0.80743 0.0
H579 H 0.19076 0.4539 0.76657 0.0
H580 H 0.24724 0.49395 0.7645 0.0
H581 H 0.31142 0.47111 0.8349 0.0
H582 H 0.46996 0.5516 0.78656 0.0
H583 H 0.41291 0.51659 0.79164 0.0
H584 H 0.35258 0.54572 0.72443 0.0
C585 C 0.24043 0.47011 0.77396 0.0
C586 C 0.31998 0.48706 0.81043 0.0
C587 C 0.20793 0.44715 0.77543 0.0
C588 C 0.45465 0.56109 0.77935 0.0
C589 C 0.42174 0.54087 0.78226 0.0
C590 C 0.34391 0.52981 0.74893 0.0
C591 C 0.26377 0.46246 0.78479 0.0
C592 C 0.29862 0.48652 0.78251 0.0
C593 C 0.40053 0.55158 0.77264 0.0
C594 C 0.36529 0.5298 0.77642 0.0
H595 H 0.21456 0.38453 0.80823 0.0
H596 H 0.27057 0.42408 0.80543 0.0
H597 H 0.2956 0.50866 0.72956 0.0
H598 H 0.45531 0.62774 0.74731 0.0
H599 H 0.39794 0.59245 0.75219 0.0
C600 C 0.18388 0.1871 0.25017 0.0
C601 C 0.1901 0.17717 0.28569 0.0
C602 C 0.16367 0.19987 0.24803 0.0
C603 C 0.12794 0.23666 0.30938 0.0
H604 H 0.06831 0.21481 0.22475 0.0
C605 C 0.01597 0.24771 0.31779 0.0
C606 C 1.00563 0.25705 0.28506 0.0
C607 C 0.04245 0.24379 0.31609 0.0
C608 C 0.08522 0.22163 0.24823 0.0
H609 H 0.1797 0.17314 0.34684 0.0
H610 H 0.14392 0.19432 0.34295 0.0
H611 H 0.10554 0.19497 0.22513 0.0
H612 H 0.01524 0.27035 0.225 0.0
H613 H 0.06183 0.26327 0.22178 0.0
H614 H 0.10691 0.26247 0.33305 0.0
C615 C 0.15505 0.19277 0.31673 0.0
C616 C 0.10657 0.21019 0.24852 0.0
C617 C 0.17525 0.18008 0.31888 0.0
C618 C 0.02309 0.26368 0.25081 0.0
C619 C 0.04945 0.25921 0.2489 0.0
C620 C 0.10652 0.24793 0.30918 0.0
C621 C 0.14915 0.20311 0.28135 0.0
C622 C 0.12784 0.21705 0.27948 0.0
C623 C 0.05902 0.24859 0.28138 0.0
C624 C 0.0845 0.2401 0.27897 0.0
H625 H 0.19459 0.18497 0.2239 0.0
H626 H 0.15988 0.20769 0.22029 0.0
H627 H 0.14445 0.24316 0.33324 0.0
H628 H 1.00273 0.24217 0.34445 0.0
H629 H 0.04887 0.23529 0.34152 0.0
C630 C 0.01329 0.83556 0.34091 0.0
C631 C 0.99327 0.82026 0.30922 0.0
C632 C 0.04615 0.85432 0.33622 0.0
C633 C 0.10814 0.89924 0.26295 0.0
H634 H 0.1641 0.90174 0.34442 0.0
C635 C 0.24504 0.98397 0.25752 0.0
C636 C 0.25704 1.00262 0.29093 0.0
C637 C 0.21429 0.95726 0.25731 0.0
C638 C 0.14881 0.90128 0.32136 0.0
H639 H 0.99257 0.81292 0.2475 0.0
H640 H 0.05001 0.84515 0.23944 0.0
H641 H 0.10736 0.864 0.34831 0.0
H642 H 0.24723 0.00729 0.35059 0.0
H643 H 0.19437 0.96052 0.35063 0.0
H644 H 0.14979 0.93694 0.23635 0.0
C645 C 0.04016 0.84288 0.26796 0.0
C646 C 0.1162 0.87975 0.32367 0.0
C647 C 1.00719 0.82409 0.27266 0.0
C648 C 0.23861 0.99315 0.32453 0.0
C649 C 0.20832 0.96631 0.32454 0.0
C650 C 0.14086 0.92069 0.26054 0.0
C651 C 0.06012 0.85828 0.29971 0.0
C652 C 0.09525 0.87896 0.29503 0.0
C653 C 0.19537 0.94848 0.29071 0.0
C654 C 0.16149 0.92251 0.2902 0.0
H655 H 1.00363 0.83288 0.3696 0.0
H656 H 0.06055 0.86613 0.36131 0.0
H657 H 0.09282 0.89955 0.24046 0.0
H658 H 0.25859 0.99111 0.23106 0.0
H659 H 0.20502 0.94392 0.23083 0.0
C660 C 0.82418 0.99597 0.31454 0.0
C661 C 0.83247 0.01495 0.28118 0.0
C662 C 0.81091 0.96296 0.31192 0.0
C663 C 0.80181 0.89848 0.24655 0.0
H664 H 0.73681 0.84497 0.31979 0.0
C665 C 0.74687 0.76119 0.24792 0.0
C666 C 0.74754 0.74912 0.28452 0.0
C667 C 0.75191 0.79221 0.24407 0.0
C668 C 0.75494 0.85956 0.29911 0.0
H669 H 0.8336 0.01372 0.21875 0.0
H670 H 0.80996 0.95602 0.21418 0.0
H671 H 0.75728 0.9022 0.31968 0.0
H672 H 0.75215 0.7591 0.34573 0.0
H673 H 0.7601 0.81251 0.33921 0.0
H674 H 0.79971 0.85572 0.22643 0.0
C675 C 0.81398 0.96679 0.24245 0.0
C676 C 0.76683 0.89244 0.29916 0.0
C677 C 0.82729 0.9999 0.24507 0.0
C678 C 0.75127 0.76773 0.31718 0.0
C679 C 0.75581 0.79837 0.31341 0.0
C680 C 0.78981 0.86551 0.24642 0.0
C681 C 0.80539 0.94783 0.27587 0.0
C682 C 0.79094 0.91248 0.27348 0.0
C683 C 0.7572 0.81143 0.27679 0.0
C684 C 0.7667 0.84572 0.27326 0.0
H685 H 0.82734 0.00651 0.34284 0.0
H686 H 0.80514 0.9493 0.33834 0.0
H687 H 0.82052 0.91311 0.22653 0.0
H688 H 0.74458 0.74754 0.22222 0.0
H689 H 0.75261 0.80149 0.21546 0.0
C690 C 0.18958 0.18608 0.75867 0.0
C691 C 0.17344 0.18547 0.7926 0.0
C692 C 0.20331 0.16677 0.75491 0.0
C693 C 0.23532 0.12604 0.81369 0.0
H694 H 0.22244 0.07363 0.72374 0.0
C695 C 0.25519 0.0194 0.81847 0.0
C696 C 0.26423 0.00939 0.78535 0.0
C697 C 0.24987 0.04506 0.8171 0.0
C698 C 0.22691 0.08861 0.74876 0.0
H699 H 0.15794 0.16246 0.84831 0.0
H700 H 0.18249 0.12968 0.84207 0.0
H701 H 0.20048 0.10925 0.725 0.0
H702 H 0.27605 0.0193 0.72497 0.0
H703 H 0.26735 0.065 0.72256 0.0
H704 H 0.26174 0.10577 0.83759 0.0
C705 C 0.18485 0.14543 0.81857 0.0
C706 C 0.21413 0.1089 0.74953 0.0
C707 C 0.17081 0.16436 0.82216 0.0
C708 C 0.26955 0.0268 0.75109 0.0
C709 C 0.26406 0.05263 0.74964 0.0
C710 C 0.24838 0.10612 0.81276 0.0
C711 C 0.20159 0.14664 0.78513 0.0
C712 C 0.21749 0.12722 0.78245 0.0
C713 C 0.25338 0.06162 0.78249 0.0
C714 C 0.24363 0.08639 0.78076 0.0
H715 H 0.19252 0.20221 0.73541 0.0
H716 H 0.21613 0.16832 0.72881 0.0
H717 H 0.23895 0.14037 0.83915 0.0
H718 H 0.25071 0.00633 0.84525 0.0
H719 H 0.24126 0.05072 0.8429 0.0
C720 C 1.007 0.84991 0.81812 0.0
C721 C 0.02424 0.84435 0.78983 0.0
C722 C 0.97445 0.83822 0.81373 0.0
C723 C 0.90269 0.778 0.76064 0.0
H724 H 0.86751 0.8279 0.8016 0.0
C725 C 0.7693 0.7498 0.74933 0.0
C726 C 0.75757 0.75414 0.78437 0.0
C727 C 0.80119 0.75735 0.74654 0.0
C728 C 0.87696 0.81363 0.79007 0.0
H729 H 0.0203 0.82201 0.7344 0.0
H730 H 0.96363 0.80247 0.72619 0.0
H731 H 0.92463 0.84983 0.80202 0.0
H732 H 0.76904 0.76721 0.84444 0.0
H733 H 0.82387 0.77981 0.83967 0.0
H734 H 0.85442 0.74191 0.74842 0.0
C735 C 0.97531 0.8155 0.75215 0.0
C736 C 0.90976 0.82613 0.7905 0.0
C737 C 0.00797 0.82712 0.75663 0.0
C738 C 0.7774 0.7637 0.81701 0.0
C739 C 0.80891 0.77118 0.81424 0.0
C740 C 0.86967 0.76557 0.75985 0.0
C741 C 0.95805 0.82081 0.78073 0.0
C742 C 0.92314 0.80825 0.77671 0.0
C743 C 0.82157 0.76939 0.77873 0.0
C744 C 0.85648 0.78301 0.77546 0.0
H745 H 0.01865 0.86335 0.84386 0.0
H746 H 0.96205 0.84244 0.83672 0.0
H747 H 0.91205 0.76344 0.74989 0.0
H748 H 0.75465 0.74288 0.72361 0.0
H749 H 0.81038 0.75571 0.71881 0.0
C750 C 0.98735 0.24748 0.75408 0.0
C751 C 1.00328 0.26066 0.78895 0.0
C752 C 0.96181 0.21606 0.75295 0.0
C753 C 0.90378 0.14909 0.81375 0.0
H754 H 0.91268 0.09532 0.73831 0.0
C755 C 0.83725 0.01242 0.83015 0.0
C756 C 0.82598 0.99328 0.79693 0.0
C757 C 0.85687 0.04546 0.82727 0.0
C758 C 0.90939 0.10994 0.75921 0.0
H759 H 1.00406 0.25225 0.85012 0.0
H760 H 0.95909 0.1981 0.84842 0.0
H761 H 0.94789 0.15283 0.73592 0.0
H762 H 0.82746 0.99438 0.73443 0.0
H763 H 0.86072 0.05192 0.72941 0.0
H764 H 0.86539 0.10641 0.83717 0.0
C765 C 0.9662 0.21169 0.82192 0.0
C766 C 0.92963 0.143 0.75777 0.0
C767 C 0.99196 0.24274 0.82293 0.0
C768 C 0.83525 0.00824 0.76071 0.0
C769 C 0.85472 0.04134 0.75782 0.0
C770 C 0.88337 0.11609 0.815 0.0
C771 C 0.95147 0.19755 0.78676 0.0
C772 C 0.92743 0.16294 0.78543 0.0
C773 C 0.86567 0.0605 0.79107 0.0
C774 C 0.88624 0.09593 0.78819 0.0
H775 H 0.996 0.26059 0.72737 0.0
H776 H 0.95081 0.2059 0.72546 0.0
H777 H 0.90123 0.1638 0.83524 0.0
H778 H 0.83039 1.00202 0.85858 0.0
H779 H 0.86522 0.05919 0.8536 0.0
loop_
_geom_bond_atom_site_label_1
_geom_bond_atom_site_label_2
_geom_bond_distance
_geom_bond_site_symmetry_2
_ccdc_geom_bond_type
Sm0 C2 2.846 . S
Sm0 O20 2.543 . S
Sm0 O21 2.450 . S
Sm0 O22 2.681 . S
Sm0 O23 2.464 . S
Sm0 O24 2.396 . S
Sm0 O28 2.386 . S
Sm0 O31 2.408 . S
Sm1 C11 2.846 . S
Sm1 O22 2.386 . S
Sm1 O25 2.408 . S
Sm1 O26 2.543 . S
Sm1 O27 2.450 . S
Sm1 O28 2.681 . S
Sm1 O29 2.464 . S
Sm1 O30 2.396 . S
C2 Sm0 2.846 . S
C2 C3 1.506 . S
C2 O20 1.261 . S
C2 O21 1.242 . S
C3 C2 1.506 . S
C3 C4 1.358 . S
C3 C8 1.382 . S
C4 C3 1.358 . S
C4 C5 1.385 . S
C4 H32 0.930 . S
C5 C4 1.385 . S
C5 C6 1.395 . S
C5 H33 0.929 . S
C6 C5 1.395 . S
C6 C7 1.335 . S
C7 C6 1.335 . S
C7 C8 1.398 . S
C7 H34 0.930 . S
C8 C3 1.382 . S
C8 C7 1.398 . S
C8 H35 0.929 . S
C9 O22 1.271 . S
C9 O23 1.251 . S
C10 O24 1.252 . S
C10 O25 1.272 . S
C11 Sm1 2.846 . S
C11 C12 1.506 . S
C11 O26 1.261 . S
C11 O27 1.242 . S
C12 C11 1.506 . S
C12 C13 1.358 . S
C12 C17 1.382 . S
C13 C12 1.358 . S
C13 C14 1.385 . S
C13 H36 0.930 . S
C14 C13 1.385 . S
C14 C15 1.395 . S
C14 H37 0.929 . S
C15 C14 1.395 . S
C15 C16 1.335 . S
C16 C15 1.335 . S
C16 C17 1.398 . S
C16 H38 0.930 . S
C17 C12 1.382 . S
C17 C16 1.398 . S
C17 H39 0.929 . S
C18 O28 1.271 . S
C18 O29 1.251 . S
C19 O30 1.252 . S
C19 O31 1.272 . S
O20 Sm0 2.543 . S
O20 C2 1.261 . S
O21 Sm0 2.450 . S
O21 C2 1.242 . S
O22 Sm0 2.681 . S
O22 Sm1 2.386 . S
O22 C9 1.271 . S
O23 Sm0 2.464 . S
O23 C9 1.251 . S
O24 Sm0 2.396 . S
O24 C10 1.252 . S
O25 Sm1 2.408 . S
O25 C10 1.272 . S
O26 Sm1 2.543 . S
O26 C11 1.261 . S
O27 Sm1 2.450 . S
O27 C11 1.242 . S
O28 Sm0 2.386 . S
O28 Sm1 2.681 . S
O28 C18 1.271 . S
O29 Sm1 2.464 . S
O29 C18 1.251 . S
O30 Sm1 2.396 . S
O30 C19 1.252 . S
O31 Sm0 2.408 . S
O31 C19 1.272 . S
H32 C4 0.930 . S
H33 C5 0.929 . S
H34 C7 0.930 . S
H35 C8 0.929 . S
H36 C13 0.930 . S
H37 C14 0.929 . S
H38 C16 0.930 . S
H39 C17 0.929 . S
Sm40 C42 2.846 . S
Sm40 O60 2.543 . S
Sm40 O61 2.450 . S
Sm40 O62 2.681 . S
Sm40 O63 2.464 . S
Sm40 O64 2.396 . S
Sm40 O68 2.386 . S
Sm40 O71 2.408 . S
Sm41 C51 2.846 . S
Sm41 O62 2.386 . S
Sm41 O65 2.408 . S
Sm41 O66 2.543 . S
Sm41 O67 2.450 . S
Sm41 O68 2.681 . S
Sm41 O69 2.464 . S
Sm41 O70 2.396 . S
C42 Sm40 2.846 . S
C42 C43 1.506 . S
C42 O60 1.261 . S
C42 O61 1.242 . S
C43 C42 1.506 . S
C43 C44 1.358 . S
C43 C48 1.382 . S
C44 C43 1.358 . S
C44 C45 1.385 . S
C44 H72 0.930 . S
C45 C44 1.385 . S
C45 C46 1.395 . S
C45 H73 0.929 . S
C46 C45 1.395 . S
C46 C47 1.335 . S
C47 C46 1.335 . S
C47 C48 1.398 . S
C47 H74 0.930 . S
C48 C43 1.382 . S
C48 C47 1.398 . S
C48 H75 0.929 . S
C49 O62 1.271 . S
C49 O63 1.251 . S
C50 O64 1.252 . S
C50 O65 1.272 . S
C51 Sm41 2.846 . S
C51 C52 1.506 . S
C51 O66 1.261 . S
C51 O67 1.242 . S
C52 C51 1.506 . S
C52 C53 1.358 . S
C52 C57 1.382 . S
C53 C52 1.358 . S
C53 C54 1.385 . S
C53 H76 0.930 . S
C54 C53 1.385 . S
C54 C55 1.395 . S
C54 H77 0.929 . S
C55 C54 1.395 . S
C55 C56 1.335 . S
C56 C55 1.335 . S
C56 C57 1.398 . S
C56 H78 0.930 . S
C57 C52 1.382 . S
C57 C56 1.398 . S
C57 H79 0.929 . S
C58 O68 1.271 . S
C58 O69 1.251 . S
C59 O70 1.252 . S
C59 O71 1.272 . S
O60 Sm40 2.543 . S
O60 C42 1.261 . S
O61 Sm40 2.450 . S
O61 C42 1.242 . S
O62 Sm40 2.681 . S
O62 Sm41 2.386 . S
O62 C49 1.271 . S
O63 Sm40 2.464 . S
O63 C49 1.251 . S
O64 Sm40 2.396 . S
O64 C50 1.252 . S
O65 Sm41 2.408 . S
O65 C50 1.272 . S
O66 Sm41 2.543 . S
O66 C51 1.261 . S
O67 Sm41 2.450 . S
O67 C51 1.242 . S
O68 Sm40 2.386 . S
O68 Sm41 2.681 . S
O68 C58 1.271 . S
O69 Sm41 2.464 . S
O69 C58 1.251 . S
O70 Sm41 2.396 . S
O70 C59 1.252 . S
O71 Sm40 2.408 . S
O71 C59 1.272 . S
H72 C44 0.930 . S
H73 C45 0.929 . S
H74 C47 0.930 . S
H75 C48 0.929 . S
H76 C53 0.930 . S
H77 C54 0.929 . S
H78 C56 0.930 . S
H79 C57 0.929 . S
Sm80 C82 2.846 . S
Sm80 O100 2.543 . S
Sm80 O101 2.450 . S
Sm80 O102 2.681 . S
Sm80 O103 2.464 . S
Sm80 O104 2.396 . S
Sm80 O108 2.386 . S
Sm80 O111 2.408 . S
Sm81 C91 2.846 . S
Sm81 O102 2.386 . S
Sm81 O105 2.408 . S
Sm81 O106 2.543 . S
Sm81 O107 2.450 . S
Sm81 O108 2.681 . S
Sm81 O109 2.464 . S
Sm81 O110 2.396 . S
C82 Sm80 2.846 . S
C82 C83 1.506 . S
C82 O100 1.261 . S
C82 O101 1.242 . S
C83 C82 1.506 . S
C83 C84 1.358 . S
C83 C88 1.382 . S
C84 C83 1.358 . S
C84 C85 1.385 . S
C84 H112 0.930 . S
C85 C84 1.385 . S
C85 C86 1.395 . S
C85 H113 0.929 . S
C86 C85 1.395 . S
C86 C87 1.335 . S
C87 C86 1.335 . S
C87 C88 1.398 . S
C87 H114 0.930 . S
C88 C83 1.382 . S
C88 C87 1.398 . S
C88 H115 0.929 . S
C89 O102 1.271 . S
C89 O103 1.251 . S
C90 O104 1.252 . S
C90 O105 1.272 . S
C91 Sm81 2.846 . S
C91 C92 1.506 . S
C91 O106 1.261 . S
C91 O107 1.242 . S
C92 C91 1.506 . S
C92 C93 1.358 . S
C92 C97 1.382 . S
C93 C92 1.358 . S
C93 C94 1.385 . S
C93 H116 0.930 . S
C94 C93 1.385 . S
C94 C95 1.395 . S
C94 H117 0.929 . S
C95 C94 1.395 . S
C95 C96 1.335 . S
C96 C95 1.335 . S
C96 C97 1.398 . S
C96 H118 0.930 . S
C97 C92 1.382 . S
C97 C96 1.398 . S
C97 H119 0.929 . S
C98 O108 1.271 . S
C98 O109 1.251 . S
C99 O110 1.252 . S
C99 O111 1.272 . S
O100 Sm80 2.543 . S
O100 C82 1.261 . S
O101 Sm80 2.450 . S
O101 C82 1.242 . S
O102 Sm80 2.681 . S
O102 Sm81 2.386 . S
O102 C89 1.271 . S
O103 Sm80 2.464 . S
O103 C89 1.251 . S
O104 Sm80 2.396 . S
O104 C90 1.252 . S
O105 Sm81 2.408 . S
O105 C90 1.272 . S
O106 Sm81 2.543 . S
O106 C91 1.261 . S
O107 Sm81 2.450 . S
O107 C91 1.242 . S
O108 Sm80 2.386 . S
O108 Sm81 2.681 . S
O108 C98 1.271 . S
O109 Sm81 2.464 . S
O109 C98 1.251 . S
O110 Sm81 2.396 . S
O110 C99 1.252 . S
O111 Sm80 2.408 . S
O111 C99 1.272 . S
H112 C84 0.930 . S
H113 C85 0.929 . S
H114 C87 0.930 . S
H115 C88 0.929 . S
H116 C93 0.930 . S
H117 C94 0.929 . S
H118 C96 0.930 . S
H119 C97 0.929 . S
Sm120 C122 2.846 . S
Sm120 O140 2.543 . S
Sm120 O141 2.450 . S
Sm120 O142 2.681 . S
Sm120 O143 2.464 . S
Sm120 O144 2.396 . S
Sm120 O148 2.386 . S
Sm120 O151 2.408 . S
Sm121 C131 2.846 . S
Sm121 O142 2.386 . S
Sm121 O145 2.408 . S
Sm121 O146 2.543 . S
Sm121 O147 2.450 . S
Sm121 O148 2.681 . S
Sm121 O149 2.464 . S
Sm121 O150 2.396 . S
C122 Sm120 2.846 . S
C122 C123 1.506 . S
C122 O140 1.261 . S
C122 O141 1.242 . S
C123 C122 1.506 . S
C123 C124 1.358 . S
C123 C128 1.382 . S
C124 C123 1.358 . S
C124 C125 1.385 . S
C124 H152 0.930 . S
C125 C124 1.385 . S
C125 C126 1.395 . S
C125 H153 0.929 . S
C126 C125 1.395 . S
C126 C127 1.335 . S
C127 C126 1.335 . S
C127 C128 1.398 . S
C127 H154 0.930 . S
C128 C123 1.382 . S
C128 C127 1.398 . S
C128 H155 0.929 . S
C129 O142 1.271 . S
C129 O143 1.251 . S
C130 O144 1.252 . S
C130 O145 1.272 . S
C131 Sm121 2.846 . S
C131 C132 1.506 . S
C131 O146 1.261 . S
C131 O147 1.242 . S
C132 C131 1.506 . S
C132 C133 1.358 . S
C132 C137 1.382 . S
C133 C132 1.358 . S
C133 C134 1.385 . S
C133 H156 0.930 . S
C134 C133 1.385 . S
C134 C135 1.395 . S
C134 H157 0.929 . S
C135 C134 1.395 . S
C135 C136 1.335 . S
C136 C135 1.335 . S
C136 C137 1.398 . S
C136 H158 0.930 . S
C137 C132 1.382 . S
C137 C136 1.398 . S
C137 H159 0.929 . S
C138 O148 1.271 . S
C138 O149 1.251 . S
C139 O150 1.252 . S
C139 O151 1.272 . S
O140 Sm120 2.543 . S
O140 C122 1.261 . S
O141 Sm120 2.450 . S
O141 C122 1.242 . S
O142 Sm120 2.681 . S
O142 Sm121 2.386 . S
O142 C129 1.271 . S
O143 Sm120 2.464 . S
O143 C129 1.251 . S
O144 Sm120 2.396 . S
O144 C130 1.252 . S
O145 Sm121 2.408 . S
O145 C130 1.272 . S
O146 Sm121 2.543 . S
O146 C131 1.261 . S
O147 Sm121 2.450 . S
O147 C131 1.242 . S
O148 Sm120 2.386 . S
O148 Sm121 2.681 . S
O148 C138 1.271 . S
O149 Sm121 2.464 . S
O149 C138 1.251 . S
O150 Sm121 2.396 . S
O150 C139 1.252 . S
O151 Sm120 2.408 . S
O151 C139 1.272 . S
H152 C124 0.930 . S
H153 C125 0.929 . S
H154 C127 0.930 . S
H155 C128 0.929 . S
H156 C133 0.930 . S
H157 C134 0.929 . S
H158 C136 0.930 . S
H159 C137 0.929 . S
Sm160 C162 2.846 . S
Sm160 O180 2.543 . S
Sm160 O181 2.450 . S
Sm160 O182 2.681 . S
Sm160 O183 2.464 . S
Sm160 O184 2.396 . S
Sm160 O188 2.386 . S
Sm160 O191 2.408 . S
Sm161 C171 2.846 . S
Sm161 O182 2.386 . S
Sm161 O185 2.408 . S
Sm161 O186 2.543 . S
Sm161 O187 2.450 . S
Sm161 O188 2.681 . S
Sm161 O189 2.464 . S
Sm161 O190 2.396 . S
C162 Sm160 2.846 . S
C162 C163 1.506 . S
C162 O180 1.261 . S
C162 O181 1.242 . S
C163 C162 1.506 . S
C163 C164 1.358 . S
C163 C168 1.382 . S
C164 C163 1.358 . S
C164 C165 1.385 . S
C164 H192 0.930 . S
C165 C164 1.385 . S
C165 C166 1.395 . S
C165 H193 0.929 . S
C166 C165 1.395 . S
C166 C167 1.335 . S
C167 C166 1.335 . S
C167 C168 1.398 . S
C167 H194 0.930 . S
C168 C163 1.382 . S
C168 C167 1.398 . S
C168 H195 0.929 . S
C169 O182 1.271 . S
C169 O183 1.251 . S
C170 O184 1.252 . S
C170 O185 1.272 . S
C171 Sm161 2.846 . S
C171 C172 1.506 . S
C171 O186 1.261 . S
C171 O187 1.242 . S
C172 C171 1.506 . S
C172 C173 1.358 . S
C172 C177 1.382 . S
C173 C172 1.358 . S
C173 C174 1.385 . S
C173 H196 0.930 . S
C174 C173 1.385 . S
C174 C175 1.395 . S
C174 H197 0.929 . S
C175 C174 1.395 . S
C175 C176 1.335 . S
C176 C175 1.335 . S
C176 C177 1.398 . S
C176 H198 0.930 . S
C177 C172 1.382 . S
C177 C176 1.398 . S
C177 H199 0.929 . S
C178 O188 1.271 . S
C178 O189 1.251 . S
C179 O190 1.252 . S
C179 O191 1.272 . S
O180 Sm160 2.543 . S
O180 C162 1.261 . S
O181 Sm160 2.450 . S
O181 C162 1.242 . S
O182 Sm160 2.681 . S
O182 Sm161 2.386 . S
O182 C169 1.271 . S
O183 Sm160 2.464 . S
O183 C169 1.251 . S
O184 Sm160 2.396 . S
O184 C170 1.252 . S
O185 Sm161 2.408 . S
O185 C170 1.272 . S
O186 Sm161 2.543 . S
O186 C171 1.261 . S
O187 Sm161 2.450 . S
O187 C171 1.242 . S
O188 Sm160 2.386 . S
O188 Sm161 2.681 . S
O188 C178 1.271 . S
O189 Sm161 2.464 . S
O189 C178 1.251 . S
O190 Sm161 2.396 . S
O190 C179 1.252 . S
O191 Sm160 2.408 . S
O191 C179 1.272 . S
H192 C164 0.930 . S
H193 C165 0.929 . S
H194 C167 0.930 . S
H195 C168 0.929 . S
H196 C173 0.930 . S
H197 C174 0.929 . S
H198 C176 0.930 . S
H199 C177 0.929 . S
Sm200 C202 2.846 . S
Sm200 O220 2.543 . S
Sm200 O221 2.450 . S
Sm200 O222 2.681 . S
Sm200 O223 2.464 . S
Sm200 O224 2.396 . S
Sm200 O228 2.386 . S
Sm200 O231 2.408 . S
Sm201 C211 2.846 . S
Sm201 O222 2.386 . S
Sm201 O225 2.408 . S
Sm201 O226 2.543 . S
Sm201 O227 2.450 . S
Sm201 O228 2.681 . S
Sm201 O229 2.464 . S
Sm201 O230 2.396 . S
C202 Sm200 2.846 . S
C202 C203 1.506 . S
C202 O220 1.261 . S
C202 O221 1.242 . S
C203 C202 1.506 . S
C203 C204 1.358 . S
C203 C208 1.382 . S
C204 C203 1.358 . S
C204 C205 1.385 . S
C204 H232 0.930 . S
C205 C204 1.385 . S
C205 C206 1.395 . S
C205 H233 0.929 . S
C206 C205 1.395 . S
C206 C207 1.335 . S
C207 C206 1.335 . S
C207 C208 1.398 . S
C207 H234 0.930 . S
C208 C203 1.382 . S
C208 C207 1.398 . S
C208 H235 0.929 . S
C209 O222 1.271 . S
C209 O223 1.251 . S
C210 O224 1.252 . S
C210 O225 1.272 . S
C211 Sm201 2.846 . S
C211 C212 1.506 . S
C211 O226 1.261 . S
C211 O227 1.242 . S
C212 C211 1.506 . S
C212 C213 1.358 . S
C212 C217 1.382 . S
C213 C212 1.358 . S
C213 C214 1.385 . S
C213 H236 0.930 . S
C214 C213 1.385 . S
C214 C215 1.395 . S
C214 H237 0.929 . S
C215 C214 1.395 . S
C215 C216 1.335 . S
C216 C215 1.335 . S
C216 C217 1.398 . S
C216 H238 0.930 . S
C217 C212 1.382 . S
C217 C216 1.398 . S
C217 H239 0.929 . S
C218 O228 1.271 . S
C218 O229 1.251 . S
C219 O230 1.252 . S
C219 O231 1.272 . S
O220 Sm200 2.543 . S
O220 C202 1.261 . S
O221 Sm200 2.450 . S
O221 C202 1.242 . S
O222 Sm200 2.681 . S
O222 Sm201 2.386 . S
O222 C209 1.271 . S
O223 Sm200 2.464 . S
O223 C209 1.251 . S
O224 Sm200 2.396 . S
O224 C210 1.252 . S
O225 Sm201 2.408 . S
O225 C210 1.272 . S
O226 Sm201 2.543 . S
O226 C211 1.261 . S
O227 Sm201 2.450 . S
O227 C211 1.242 . S
O228 Sm200 2.386 . S
O228 Sm201 2.681 . S
O228 C218 1.271 . S
O229 Sm201 2.464 . S
O229 C218 1.251 . S
O230 Sm201 2.396 . S
O230 C219 1.252 . S
O231 Sm200 2.408 . S
O231 C219 1.272 . S
H232 C204 0.930 . S
H233 C205 0.929 . S
H234 C207 0.930 . S
H235 C208 0.929 . S
H236 C213 0.930 . S
H237 C214 0.929 . S
H238 C216 0.930 . S
H239 C217 0.929 . S
C240 C241 1.349 . S
C240 C242 1.327 . S
C240 H265 0.950 . S
C241 C240 1.349 . S
C241 C257 1.349 . S
C242 C240 1.327 . S
C242 C261 1.429 . S
C242 H266 0.950 . S
C243 C260 1.574 . S
C243 C262 1.368 1_554 S
C243 H267 0.949 . S
H244 C248 0.949 . S
C245 C246 1.349 . S
C245 C247 1.327 . S
C245 H268 0.950 . S
C246 C245 1.349 . S
C246 C258 1.349 . S
C247 C245 1.327 . S
C247 C263 1.429 . S
C247 H269 0.950 . S
C248 H244 0.949 . S
C248 C256 1.574 . S
C248 C264 1.368 1_556 S
H249 C257 0.950 . S
H250 C255 0.950 . S
H251 C256 0.949 . S
H252 C258 0.950 . S
H253 C259 0.950 . S
H254 C260 0.949 . S
C255 H250 0.950 . S
C255 C257 1.327 . S
C255 C261 1.429 . S
C256 C248 1.574 . S
C256 H251 0.949 . S
C256 C262 1.368 1_545 S
C257 C241 1.349 . S
C257 H249 0.950 . S
C257 C255 1.327 . S
C258 C246 1.349 . S
C258 H252 0.950 . S
C258 C259 1.327 . S
C259 H253 0.950 . S
C259 C258 1.327 . S
C259 C263 1.429 . S
C260 C243 1.574 . S
C260 H254 0.949 . S
C260 C264 1.368 1_565 S
C261 C242 1.429 . S
C261 C255 1.429 . S
C261 C262 1.523 . S
C262 C243 1.368 1_556 S
C262 C256 1.368 1_565 S
C262 C261 1.523 . S
C263 C247 1.429 . S
C263 C259 1.429 . S
C263 C264 1.523 . S
C264 C248 1.368 1_554 S
C264 C260 1.368 1_545 S
C264 C263 1.523 . S
H265 C240 0.950 . S
H266 C242 0.950 . S
H267 C243 0.949 . S
H268 C245 0.950 . S
H269 C247 0.950 . S
C270 C271 1.349 . S
C270 C272 1.327 . S
C270 H295 0.950 . S
C271 C270 1.349 . S
C271 C287 1.349 . S
C272 C270 1.327 . S
C272 C291 1.429 . S
C272 H296 0.950 . S
C273 C290 1.574 . S
C273 C292 1.368 . S
C273 H297 0.949 . S
H274 C278 0.949 . S
C275 C276 1.349 . S
C275 C277 1.327 . S
C275 H298 0.950 . S
C276 C275 1.349 . S
C276 C288 1.349 . S
C277 C275 1.327 . S
C277 C293 1.429 . S
C277 H299 0.950 . S
C278 H274 0.949 . S
C278 C286 1.574 . S
C278 C294 1.368 . S
H279 C287 0.950 . S
H280 C285 0.950 . S
H281 C286 0.949 . S
H282 C288 0.950 . S
H283 C289 0.950 . S
H284 C290 0.949 . S
C285 H280 0.950 . S
C285 C287 1.327 . S
C285 C291 1.429 . S
C286 C278 1.574 . S
C286 H281 0.949 . S
C286 C292 1.368 . S
C287 C271 1.349 . S
C287 H279 0.950 . S
C287 C285 1.327 . S
C288 C276 1.349 . S
C288 H282 0.950 . S
C288 C289 1.327 . S
C289 H283 0.950 . S
C289 C288 1.327 . S
C289 C293 1.429 . S
C290 C273 1.574 . S
C290 H284 0.949 . S
C290 C294 1.368 . S
C291 C272 1.429 . S
C291 C285 1.429 . S
C291 C292 1.523 . S
C292 C273 1.368 . S
C292 C286 1.368 . S
C292 C291 1.523 . S
C293 C277 1.429 . S
C293 C289 1.429 . S
C293 C294 1.523 . S
C294 C278 1.368 . S
C294 C290 1.368 . S
C294 C293 1.523 . S
H295 C270 0.950 . S
H296 C272 0.950 . S
H297 C273 0.949 . S
H298 C275 0.950 . S
H299 C277 0.950 . S
C300 C301 1.349 . S
C300 C302 1.327 . S
C300 H325 0.950 . S
C301 C300 1.349 . S
C301 C317 1.349 . S
C302 C300 1.327 . S
C302 C321 1.429 . S
C302 H326 0.950 . S
C303 C320 1.574 1_654 S
C303 C322 1.368 . S
C303 H327 0.949 . S
H304 C308 0.949 . S
C305 C306 1.349 . S
C305 C307 1.327 . S
C305 H328 0.950 . S
C306 C305 1.349 . S
C306 C318 1.349 . S
C307 C305 1.327 . S
C307 C323 1.429 . S
C307 H329 0.950 . S
C308 H304 0.949 . S
C308 C316 1.574 1_456 S
C308 C324 1.368 . S
H309 C317 0.950 . S
H310 C315 0.950 . S
H311 C316 0.949 . S
H312 C318 0.950 . S
H313 C319 0.950 . S
H314 C320 0.949 . S
C315 H310 0.950 . S
C315 C317 1.327 . S
C315 C321 1.429 . S
C316 C308 1.574 1_654 S
C316 H311 0.949 . S
C316 C322 1.368 . S
C317 C301 1.349 . S
C317 H309 0.950 . S
C317 C315 1.327 . S
C318 C306 1.349 . S
C318 H312 0.950 . S
C318 C319 1.327 . S
C319 H313 0.950 . S
C319 C318 1.327 . S
C319 C323 1.429 . S
C320 C303 1.574 1_456 S
C320 H314 0.949 . S
C320 C324 1.368 . S
C321 C302 1.429 . S
C321 C315 1.429 . S
C321 C322 1.523 . S
C322 C303 1.368 . S
C322 C316 1.368 . S
C322 C321 1.523 . S
C323 C307 1.429 . S
C323 C319 1.429 . S
C323 C324 1.523 . S
C324 C308 1.368 . S
C324 C320 1.368 . S
C324 C323 1.523 . S
H325 C300 0.950 . S
H326 C302 0.950 . S
H327 C303 0.949 . S
H328 C305 0.950 . S
H329 C307 0.950 . S
C330 C331 1.349 . S
C330 C332 1.327 . S
C330 H355 0.950 . S
C331 C330 1.349 . S
C331 C347 1.349 . S
C332 C330 1.327 . S
C332 C351 1.429 . S
C332 H356 0.950 . S
C333 C350 1.594 . S
C333 C352 1.334 1_565 S
C333 H357 0.961 . S
H334 C338 0.949 . S
C335 C336 1.349 . S
C335 C337 1.327 . S
C335 H358 0.950 . S
C336 C335 1.349 . S
C336 C348 1.349 . S
C337 C335 1.327 . S
C337 C353 1.429 . S
C337 H359 0.950 . S
C338 H334 0.949 . S
C338 C346 1.574 1_565 S
C338 C354 1.368 . S
H339 C347 0.950 . S
H340 C345 0.950 . S
H341 C346 0.949 . S
H342 C348 0.950 . S
H343 C349 0.950 . S
H344 C350 0.949 . S
C345 H340 0.950 . S
C345 C347 1.327 . S
C345 C351 1.429 . S
C346 C338 1.574 1_545 S
C346 H341 0.949 . S
C346 C352 1.368 . S
C347 C331 1.349 . S
C347 H339 0.950 . S
C347 C345 1.327 . S
C348 C336 1.349 . S
C348 H342 0.950 . S
C348 C349 1.327 . S
C349 H343 0.950 . S
C349 C348 1.327 . S
C349 C353 1.429 . S
C350 C333 1.594 . S
C350 H344 0.949 . S
C350 C354 1.368 . S
C351 C332 1.429 . S
C351 C345 1.429 . S
C351 C352 1.523 . S
C352 C333 1.334 1_545 S
C352 C346 1.368 . S
C352 C351 1.523 . S
C353 C337 1.429 . S
C353 C349 1.429 . S
C353 C354 1.523 . S
C354 C338 1.368 . S
C354 C350 1.368 . S
C354 C353 1.523 . S
H355 C330 0.950 . S
H356 C332 0.950 . S
H357 C333 0.961 . S
H358 C335 0.950 . S
H359 C337 0.950 . S
C360 C361 1.349 . S
C360 C362 1.327 . S
C360 H385 0.950 . S
C361 C360 1.349 . S
C361 C377 1.349 . S
C362 C360 1.327 . S
C362 C381 1.429 . S
C362 H386 0.950 . S
C363 C380 1.596 . S
C363 C382 1.368 . S
C363 H387 0.949 . S
H364 C368 0.949 . S
C365 C366 1.349 . S
C365 C367 1.327 . S
C365 H388 0.950 . S
C366 C365 1.349 . S
C366 C378 1.349 . S
C367 C365 1.327 . S
C367 C383 1.429 . S
C367 H389 0.950 . S
C368 H364 0.949 . S
C368 C376 1.596 . S
C368 C384 1.368 . S
H369 C377 0.950 . S
H370 C375 0.950 . S
H371 C376 0.949 . S
H372 C378 0.950 . S
H373 C379 0.950 . S
H374 C380 0.949 . S
C375 H370 0.950 . S
C375 C377 1.327 . S
C375 C381 1.429 . S
C376 C368 1.596 . S
C376 H371 0.949 . S
C376 C382 1.347 1_554 S
C377 C361 1.349 . S
C377 H369 0.950 . S
C377 C375 1.327 . S
C378 C366 1.349 . S
C378 H372 0.950 . S
C378 C379 1.327 . S
C379 H373 0.950 . S
C379 C378 1.327 . S
C379 C383 1.429 . S
C380 C363 1.596 . S
C380 H374 0.949 . S
C380 C384 1.347 1_556 S
C381 C362 1.429 . S
C381 C375 1.429 . S
C381 C382 1.523 . S
C382 C363 1.368 . S
C382 C376 1.347 1_556 S
C382 C381 1.523 . S
C383 C367 1.429 . S
C383 C379 1.429 . S
C383 C384 1.523 . S
C384 C368 1.368 . S
C384 C380 1.347 1_554 S
C384 C383 1.523 . S
H385 C360 0.950 . S
H386 C362 0.950 . S
H387 C363 0.949 . S
H388 C365 0.950 . S
H389 C367 0.950 . S
C390 C391 1.349 . S
C390 C392 1.327 . S
C390 H415 0.950 . S
C391 C390 1.349 . S
C391 C407 1.349 . S
C392 C390 1.327 . S
C392 C411 1.429 . S
C392 H416 0.950 . S
C393 C410 1.574 1_655 S
C393 C412 1.368 . S
C393 H417 0.949 . S
H394 C398 0.949 . S
C395 C396 1.349 . S
C395 C397 1.327 . S
C395 H418 0.950 . S
C396 C395 1.349 . S
C396 C408 1.349 . S
C397 C395 1.327 . S
C397 C413 1.429 . S
C397 H419 0.950 . S
C398 H394 0.949 . S
C398 C406 1.574 1_455 S
C398 C414 1.368 . S
H399 C407 0.950 . S
H400 C405 0.950 . S
H401 C406 0.949 . S
H402 C408 0.950 . S
H403 C409 0.950 . S
H404 C410 0.949 . S
C405 H400 0.950 . S
C405 C407 1.327 . S
C405 C411 1.429 . S
C406 C398 1.574 1_655 S
C406 H401 0.949 . S
C406 C412 1.368 . S
C407 C391 1.349 . S
C407 H399 0.950 . S
C407 C405 1.327 . S
C408 C396 1.349 . S
C408 H402 0.950 . S
C408 C409 1.327 . S
C409 H403 0.950 . S
C409 C408 1.327 . S
C409 C413 1.429 . S
C410 C393 1.574 1_455 S
C410 H404 0.949 . S
C410 C414 1.368 . S
C411 C392 1.429 . S
C411 C405 1.429 . S
C411 C412 1.523 . S
C412 C393 1.368 . S
C412 C406 1.368 . S
C412 C411 1.523 . S
C413 C397 1.429 . S
C413 C409 1.429 . S
C413 C414 1.523 . S
C414 C398 1.368 . S
C414 C410 1.368 . S
C414 C413 1.523 . S
H415 C390 0.950 . S
H416 C392 0.950 . S
H417 C393 0.949 . S
H418 C395 0.950 . S
H419 C397 0.950 . S
C420 C421 1.349 . S
C420 C422 1.327 . S
C420 H445 0.950 . S
C421 C420 1.349 . S
C421 C437 1.349 . S
C422 C420 1.327 . S
C422 C441 1.429 . S
C422 H446 0.950 . S
C423 C440 1.574 . S
C423 C442 1.368 . S
C423 H447 0.949 . S
H424 C428 0.949 . S
C425 C426 1.349 . S
C425 C427 1.327 . S
C425 H448 0.950 . S
C426 C425 1.349 . S
C426 C438 1.349 . S
C427 C425 1.327 . S
C427 C443 1.429 . S
C427 H449 0.950 . S
C428 H424 0.949 . S
C428 C436 1.574 . S
C428 C444 1.368 . S
H429 C437 0.950 . S
H430 C435 0.950 . S
H431 C436 0.949 . S
H432 C438 0.950 . S
H433 C439 0.950 . S
H434 C440 0.949 . S
C435 H430 0.950 . S
C435 C437 1.327 . S
C435 C441 1.429 . S
C436 C428 1.574 . S
C436 H431 0.949 . S
C436 C442 1.368 . S
C437 C421 1.349 . S
C437 H429 0.950 . S
C437 C435 1.327 . S
C438 C426 1.349 . S
C438 H432 0.950 . S
C438 C439 1.327 . S
C439 H433 0.950 . S
C439 C438 1.327 . S
C439 C443 1.429 . S
C440 C423 1.574 . S
C440 H434 0.949 . S
C440 C444 1.368 . S
C441 C422 1.429 . S
C441 C435 1.429 . S
C441 C442 1.523 . S
C442 C423 1.368 . S
C442 C436 1.368 . S
C442 C441 1.523 . S
C443 C427 1.429 . S
C443 C439 1.429 . S
C443 C444 1.523 . S
C444 C428 1.368 . S
C444 C440 1.368 . S
C444 C443 1.523 . S
H445 C420 0.950 . S
H446 C422 0.950 . S
H447 C423 0.949 . S
H448 C425 0.950 . S
H449 C427 0.950 . S
C450 C451 1.349 . S
C450 C452 1.327 . S
C450 H475 0.950 . S
C451 C450 1.349 . S
C451 C467 1.349 . S
C452 C450 1.327 . S
C452 C471 1.429 . S
C452 H476 0.950 . S
C453 C470 1.574 . S
C453 C472 1.368 . S
C453 H477 0.949 . S
H454 C458 0.949 . S
C455 C456 1.349 . S
C455 C457 1.327 . S
C455 H478 0.950 . S
C456 C455 1.349 . S
C456 C468 1.349 . S
C457 C455 1.327 . S
C457 C473 1.429 . S
C457 H479 0.950 . S
C458 H454 0.949 . S
C458 C466 1.574 . S
C458 C474 1.368 . S
H459 C467 0.950 . S
H460 C465 0.950 . S
H461 C466 0.949 . S
H462 C468 0.950 . S
H463 C469 0.950 . S
H464 C470 0.949 . S
C465 H460 0.950 . S
C465 C467 1.327 . S
C465 C471 1.429 . S
C466 C458 1.574 . S
C466 H461 0.949 . S
C466 C472 1.368 . S
C467 C451 1.349 . S
C467 H459 0.950 . S
C467 C465 1.327 . S
C468 C456 1.349 . S
C468 H462 0.950 . S
C468 C469 1.327 . S
C469 H463 0.950 . S
C469 C468 1.327 . S
C469 C473 1.429 . S
C470 C453 1.574 . S
C470 H464 0.949 . S
C470 C474 1.368 . S
C471 C452 1.429 . S
C471 C465 1.429 . S
C471 C472 1.523 . S
C472 C453 1.368 . S
C472 C466 1.368 . S
C472 C471 1.523 . S
C473 C457 1.429 . S
C473 C469 1.429 . S
C473 C474 1.523 . S
C474 C458 1.368 . S
C474 C470 1.368 . S
C474 C473 1.523 . S
H475 C450 0.950 . S
H476 C452 0.950 . S
H477 C453 0.949 . S
H478 C455 0.950 . S
H479 C457 0.950 . S
C480 C481 1.349 . S
C480 C482 1.327 . S
C480 H505 0.950 . S
C481 C480 1.349 . S
C481 C497 1.349 . S
C482 C480 1.327 . S
C482 C501 1.429 . S
C482 H506 0.950 . S
C483 C500 1.574 . S
C483 C502 1.368 . S
C483 H507 0.949 . S
H484 C488 0.949 . S
C485 C486 1.349 . S
C485 C487 1.327 . S
C485 H508 0.950 . S
C486 C485 1.349 . S
C486 C498 1.349 . S
C487 C485 1.327 . S
C487 C503 1.429 . S
C487 H509 0.950 . S
C488 H484 0.949 . S
C488 C496 1.574 . S
C488 C504 1.368 . S
H489 C497 0.950 . S
H490 C495 0.950 . S
H491 C496 0.949 . S
H492 C498 0.950 . S
H493 C499 0.950 . S
H494 C500 0.949 . S
C495 H490 0.950 . S
C495 C497 1.327 . S
C495 C501 1.429 . S
C496 C488 1.574 . S
C496 H491 0.949 . S
C496 C502 1.368 . S
C497 C481 1.349 . S
C497 H489 0.950 . S
C497 C495 1.327 . S
C498 C486 1.349 . S
C498 H492 0.950 . S
C498 C499 1.327 . S
C499 H493 0.950 . S
C499 C498 1.327 . S
C499 C503 1.429 . S
C500 C483 1.574 . S
C500 H494 0.949 . S
C500 C504 1.368 . S
C501 C482 1.429 . S
C501 C495 1.429 . S
C501 C502 1.523 . S
C502 C483 1.368 . S
C502 C496 1.368 . S
C502 C501 1.523 . S
C503 C487 1.429 . S
C503 C499 1.429 . S
C503 C504 1.523 . S
C504 C488 1.368 . S
C504 C500 1.368 . S
C504 C503 1.523 . S
H505 C480 0.950 . S
H506 C482 0.950 . S
H507 C483 0.949 . S
H508 C485 0.950 . S
H509 C487 0.950 . S
C510 C511 1.349 . S
C510 C512 1.327 . S
C510 H535 0.950 . S
C511 C510 1.349 . S
C511 C527 1.349 . S
C512 C510 1.327 . S
C512 C531 1.429 . S
C512 H536 0.950 . S
C513 C530 1.574 . S
C513 C532 1.368 . S
C513 H537 0.949 . S
H514 C518 0.949 . S
C515 C516 1.349 . S
C515 C517 1.327 . S
C515 H538 0.950 . S
C516 C515 1.349 . S
C516 C528 1.349 . S
C517 C515 1.327 . S
C517 C533 1.429 . S
C517 H539 0.950 . S
C518 H514 0.949 . S
C518 C526 1.574 . S
C518 C534 1.368 . S
H519 C527 0.950 . S
H520 C525 0.950 . S
H521 C526 0.949 . S
H522 C528 0.950 . S
H523 C529 0.950 . S
H524 C530 0.949 . S
C525 H520 0.950 . S
C525 C527 1.327 . S
C525 C531 1.429 . S
C526 C518 1.574 . S
C526 H521 0.949 . S
C526 C532 1.368 . S
C527 C511 1.349 . S
C527 H519 0.950 . S
C527 C525 1.327 . S
C528 C516 1.349 . S
C528 H522 0.950 . S
C528 C529 1.327 . S
C529 H523 0.950 . S
C529 C528 1.327 . S
C529 C533 1.429 . S
C530 C513 1.574 . S
C530 H524 0.949 . S
C530 C534 1.368 . S
C531 C512 1.429 . S
C531 C525 1.429 . S
C531 C532 1.523 . S
C532 C513 1.368 . S
C532 C526 1.368 . S
C532 C531 1.523 . S
C533 C517 1.429 . S
C533 C529 1.429 . S
C533 C534 1.523 . S
C534 C518 1.368 . S
C534 C530 1.368 . S
C534 C533 1.523 . S
H535 C510 0.950 . S
H536 C512 0.950 . S
H537 C513 0.949 . S
H538 C515 0.950 . S
H539 C517 0.950 . S
C540 C541 1.349 . S
C540 C542 1.327 . S
C540 H565 0.950 . S
C541 C540 1.349 . S
C541 C557 1.349 . S
C542 C540 1.327 . S
C542 C561 1.429 . S
C542 H566 0.950 . S
C543 C560 1.574 . S
C543 C562 1.368 . S
C543 H567 0.949 . S
H544 C548 0.949 . S
C545 C546 1.349 . S
C545 C547 1.327 . S
C545 H568 0.950 . S
C546 C545 1.349 . S
C546 C558 1.349 . S
C547 C545 1.327 . S
C547 C563 1.429 . S
C547 H569 0.950 . S
C548 H544 0.949 . S
C548 C556 1.574 . S
C548 C564 1.368 . S
H549 C557 0.950 . S
H550 C555 0.950 . S
H551 C556 0.949 . S
H552 C558 0.950 . S
H553 C559 0.950 . S
H554 C560 0.949 . S
C555 H550 0.950 . S
C555 C557 1.327 . S
C555 C561 1.429 . S
C556 C548 1.574 . S
C556 H551 0.949 . S
C556 C562 1.368 . S
C557 C541 1.349 . S
C557 H549 0.950 . S
C557 C555 1.327 . S
C558 C546 1.349 . S
C558 H552 0.950 . S
C558 C559 1.327 . S
C559 H553 0.950 . S
C559 C558 1.327 . S
C559 C563 1.429 . S
C560 C543 1.574 . S
C560 H554 0.949 . S
C560 C564 1.368 . S
C561 C542 1.429 . S
C561 C555 1.429 . S
C561 C562 1.523 . S
C562 C543 1.368 . S
C562 C556 1.368 . S
C562 C561 1.523 . S
C563 C547 1.429 . S
C563 C559 1.429 . S
C563 C564 1.523 . S
C564 C548 1.368 . S
C564 C560 1.368 . S
C564 C563 1.523 . S
H565 C540 0.950 . S
H566 C542 0.950 . S
H567 C543 0.949 . S
H568 C545 0.950 . S
H569 C547 0.950 . S
C570 C571 1.349 . S
C570 C572 1.327 . S
C570 H595 0.950 . S
C571 C570 1.349 . S
C571 C587 1.349 . S
C572 C570 1.327 . S
C572 C591 1.429 . S
C572 H596 0.950 . S
C573 C590 1.574 . S
C573 C592 1.368 . S
C573 H597 0.949 . S
H574 C578 0.949 . S
C575 C576 1.349 . S
C575 C577 1.327 . S
C575 H598 0.950 . S
C576 C575 1.349 . S
C576 C588 1.349 . S
C577 C575 1.327 . S
C577 C593 1.429 . S
C577 H599 0.950 . S
C578 H574 0.949 . S
C578 C586 1.574 . S
C578 C594 1.368 . S
H579 C587 0.950 . S
H580 C585 0.950 . S
H581 C586 0.949 . S
H582 C588 0.950 . S
H583 C589 0.950 . S
H584 C590 0.949 . S
C585 H580 0.950 . S
C585 C587 1.327 . S
C585 C591 1.429 . S
C586 C578 1.574 . S
C586 H581 0.949 . S
C586 C592 1.368 . S
C587 C571 1.349 . S
C587 H579 0.950 . S
C587 C585 1.327 . S
C588 C576 1.349 . S
C588 H582 0.950 . S
C588 C589 1.327 . S
C589 H583 0.950 . S
C589 C588 1.327 . S
C589 C593 1.429 . S
C590 C573 1.574 . S
C590 H584 0.949 . S
C590 C594 1.368 . S
C591 C572 1.429 . S
C591 C585 1.429 . S
C591 C592 1.523 . S
C592 C573 1.368 . S
C592 C586 1.368 . S
C592 C591 1.523 . S
C593 C577 1.429 . S
C593 C589 1.429 . S
C593 C594 1.523 . S
C594 C578 1.368 . S
C594 C590 1.368 . S
C594 C593 1.523 . S
H595 C570 0.950 . S
H596 C572 0.950 . S
H597 C573 0.949 . S
H598 C575 0.950 . S
H599 C577 0.950 . S
C600 C601 1.349 . S
C600 C602 1.327 . S
C600 H625 0.950 . S
C601 C600 1.349 . S
C601 C617 1.349 . S
C602 C600 1.327 . S
C602 C621 1.429 . S
C602 H626 0.950 . S
C603 C620 1.574 . S
C603 C622 1.368 . S
C603 H627 0.949 . S
H604 C608 0.949 . S
C605 C606 1.349 . S
C605 C607 1.327 1_655 S
C605 H628 0.950 . S
C606 C605 1.349 . S
C606 C618 1.349 . S
C607 C605 1.327 1_455 S
C607 C623 1.429 . S
C607 H629 0.950 . S
C608 H604 0.949 . S
C608 C616 1.574 . S
C608 C624 1.368 . S
H609 C617 0.950 . S
H610 C615 0.950 . S
H611 C616 0.949 . S
H612 C618 0.950 . S
H613 C619 0.950 . S
H614 C620 0.949 . S
C615 H610 0.950 . S
C615 C617 1.327 . S
C615 C621 1.429 . S
C616 C608 1.574 . S
C616 H611 0.949 . S
C616 C622 1.368 . S
C617 C601 1.349 . S
C617 H609 0.950 . S
C617 C615 1.327 . S
C618 C606 1.349 . S
C618 H612 0.950 . S
C618 C619 1.327 . S
C619 H613 0.950 . S
C619 C618 1.327 . S
C619 C623 1.429 1_655 S
C620 C603 1.574 . S
C620 H614 0.949 . S
C620 C624 1.368 . S
C621 C602 1.429 . S
C621 C615 1.429 . S
C621 C622 1.523 . S
C622 C603 1.368 . S
C622 C616 1.368 . S
C622 C621 1.523 . S
C623 C607 1.429 . S
C623 C619 1.429 1_455 S
C623 C624 1.523 . S
C624 C608 1.368 . S
C624 C620 1.368 . S
C624 C623 1.523 . S
H625 C600 0.950 . S
H626 C602 0.950 . S
H627 C603 0.949 . S
H628 C605 0.950 . S
H629 C607 0.950 . S
C630 C631 1.349 . S
C630 C632 1.327 1_655 S
C630 H655 0.950 . S
C631 C630 1.349 . S
C631 C647 1.349 . S
C632 C630 1.327 1_455 S
C632 C651 1.429 . S
C632 H656 0.950 . S
C633 C650 1.574 . S
C633 C652 1.368 . S
C633 H657 0.949 . S
H634 C638 0.949 . S
C635 C636 1.349 . S
C635 C637 1.327 . S
C635 H658 0.950 . S
C636 C635 1.349 . S
C636 C648 1.349 . S
C637 C635 1.327 . S
C637 C653 1.429 1_545 S
C637 H659 0.950 . S
C638 H634 0.949 . S
C638 C646 1.574 . S
C638 C654 1.368 . S
H639 C647 0.950 . S
H640 C645 0.950 . S
H641 C646 0.949 . S
H642 C648 0.950 . S
H643 C649 0.950 . S
H644 C650 0.949 . S
C645 H640 0.950 . S
C645 C647 1.327 1_455 S
C645 C651 1.429 . S
C646 C638 1.574 . S
C646 H641 0.949 . S
C646 C652 1.368 . S
C647 C631 1.349 . S
C647 H639 0.950 . S
C647 C645 1.327 1_655 S
C648 C636 1.349 . S
C648 H642 0.950 . S
C648 C649 1.327 1_545 S
C649 H643 0.950 . S
C649 C648 1.327 1_565 S
C649 C653 1.429 . S
C650 C633 1.574 . S
C650 H644 0.949 . S
C650 C654 1.368 . S
C651 C632 1.429 . S
C651 C645 1.429 . S
C651 C652 1.523 . S
C652 C633 1.368 . S
C652 C646 1.368 . S
C652 C651 1.523 . S
C653 C637 1.429 1_565 S
C653 C649 1.429 . S
C653 C654 1.523 . S
C654 C638 1.368 . S
C654 C650 1.368 . S
C654 C653 1.523 . S
H655 C630 0.950 . S
H656 C632 0.950 . S
H657 C633 0.949 . S
H658 C635 0.950 . S
H659 C637 0.950 . S
C660 C661 1.349 . S
C660 C662 1.327 1_545 S
C660 H685 0.950 . S
C661 C660 1.349 . S
C661 C677 1.349 . S
C662 C660 1.327 1_565 S
C662 C681 1.429 . S
C662 H686 0.950 . S
C663 C680 1.574 . S
C663 C682 1.368 . S
C663 H687 0.949 . S
H664 C668 0.949 . S
C665 C666 1.349 . S
C665 C667 1.327 . S
C665 H688 0.950 . S
C666 C665 1.349 . S
C666 C678 1.349 . S
C667 C665 1.327 . S
C667 C683 1.429 . S
C667 H689 0.950 . S
C668 H664 0.949 . S
C668 C676 1.574 . S
C668 C684 1.368 . S
H669 C677 0.950 . S
H670 C675 0.950 . S
H671 C676 0.949 . S
H672 C678 0.950 . S
H673 C679 0.950 . S
H674 C680 0.949 . S
C675 H670 0.950 . S
C675 C677 1.327 1_565 S
C675 C681 1.429 . S
C676 C668 1.574 . S
C676 H671 0.949 . S
C676 C682 1.368 . S
C677 C661 1.349 . S
C677 H669 0.950 . S
C677 C675 1.327 1_545 S
C678 C666 1.349 . S
C678 H672 0.950 . S
C678 C679 1.327 . S
C679 H673 0.950 . S
C679 C678 1.327 . S
C679 C683 1.429 . S
C680 C663 1.574 . S
C680 H674 0.949 . S
C680 C684 1.368 . S
C681 C662 1.429 . S
C681 C675 1.429 . S
C681 C682 1.523 . S
C682 C663 1.368 . S
C682 C676 1.368 . S
C682 C681 1.523 . S
C683 C667 1.429 . S
C683 C679 1.429 . S
C683 C684 1.523 . S
C684 C668 1.368 . S
C684 C680 1.368 . S
C684 C683 1.523 . S
H685 C660 0.950 . S
H686 C662 0.950 . S
H687 C663 0.949 . S
H688 C665 0.950 . S
H689 C667 0.950 . S
C690 C691 1.349 . S
C690 C692 1.327 . S
C690 H715 0.950 . S
C691 C690 1.349 . S
C691 C707 1.349 . S
C692 C690 1.327 . S
C692 C711 1.429 . S
C692 H716 0.950 . S
C693 C710 1.574 . S
C693 C712 1.368 . S
C693 H717 0.949 . S
H694 C698 0.949 . S
C695 C696 1.349 . S
C695 C697 1.327 . S
C695 H718 0.950 . S
C696 C695 1.349 . S
C696 C708 1.349 . S
C697 C695 1.327 . S
C697 C713 1.429 1_565 S
C697 H719 0.950 . S
C698 H694 0.949 . S
C698 C706 1.574 . S
C698 C714 1.368 . S
H699 C707 0.950 . S
H700 C705 0.950 . S
H701 C706 0.949 . S
H702 C708 0.950 . S
H703 C709 0.950 . S
H704 C710 0.949 . S
C705 H700 0.950 . S
C705 C707 1.327 . S
C705 C711 1.429 . S
C706 C698 1.574 . S
C706 H701 0.949 . S
C706 C712 1.368 . S
C707 C691 1.349 . S
C707 H699 0.950 . S
C707 C705 1.327 . S
C708 C696 1.349 . S
C708 H702 0.950 . S
C708 C709 1.327 1_565 S
C709 H703 0.950 . S
C709 C708 1.327 1_545 S
C709 C713 1.429 . S
C710 C693 1.574 . S
C710 H704 0.949 . S
C710 C714 1.368 . S
C711 C692 1.429 . S
C711 C705 1.429 . S
C711 C712 1.523 . S
C712 C693 1.368 . S
C712 C706 1.368 . S
C712 C711 1.523 . S
C713 C697 1.429 1_545 S
C713 C709 1.429 . S
C713 C714 1.523 . S
C714 C698 1.368 . S
C714 C710 1.368 . S
C714 C713 1.523 . S
H715 C690 0.950 . S
H716 C692 0.950 . S
H717 C693 0.949 . S
H718 C695 0.950 . S
H719 C697 0.950 . S
C720 C721 1.349 . S
C720 C722 1.327 1_455 S
C720 H745 0.950 . S
C721 C720 1.349 . S
C721 C737 1.349 . S
C722 C720 1.327 1_655 S
C722 C741 1.429 . S
C722 H746 0.950 . S
C723 C740 1.574 . S
C723 C742 1.368 . S
C723 H747 0.949 . S
H724 C728 0.949 . S
C725 C726 1.349 . S
C725 C727 1.327 . S
C725 H748 0.950 . S
C726 C725 1.349 . S
C726 C738 1.349 . S
C727 C725 1.327 . S
C727 C743 1.429 . S
C727 H749 0.950 . S
C728 H724 0.949 . S
C728 C736 1.574 . S
C728 C744 1.368 . S
H729 C737 0.950 . S
H730 C735 0.950 . S
H731 C736 0.949 . S
H732 C738 0.950 . S
H733 C739 0.950 . S
H734 C740 0.949 . S
C735 H730 0.950 . S
C735 C737 1.327 1_655 S
C735 C741 1.429 . S
C736 C728 1.574 . S
C736 H731 0.949 . S
C736 C742 1.368 . S
C737 C721 1.349 . S
C737 H729 0.950 . S
C737 C735 1.327 1_455 S
C738 C726 1.349 . S
C738 H732 0.950 . S
C738 C739 1.327 . S
C739 H733 0.950 . S
C739 C738 1.327 . S
C739 C743 1.429 . S
C740 C723 1.574 . S
C740 H734 0.949 . S
C740 C744 1.368 . S
C741 C722 1.429 . S
C741 C735 1.429 . S
C741 C742 1.523 . S
C742 C723 1.368 . S
C742 C736 1.368 . S
C742 C741 1.523 . S
C743 C727 1.429 . S
C743 C739 1.429 . S
C743 C744 1.523 . S
C744 C728 1.368 . S
C744 C740 1.368 . S
C744 C743 1.523 . S
H745 C720 0.950 . S
H746 C722 0.950 . S
H747 C723 0.949 . S
H748 C725 0.950 . S
H749 C727 0.950 . S
C750 C751 1.349 . S
C750 C752 1.327 . S
C750 H775 0.950 . S
C751 C750 1.349 . S
C751 C767 1.349 . S
C752 C750 1.327 . S
C752 C771 1.429 1_455 S
C752 H776 0.950 . S
C753 C770 1.574 . S
C753 C772 1.368 . S
C753 H777 0.949 . S
H754 C758 0.949 . S
C755 C756 1.349 . S
C755 C757 1.327 1_565 S
C755 H778 0.950 . S
C756 C755 1.349 . S
C756 C768 1.349 . S
C757 C755 1.327 1_545 S
C757 C773 1.429 . S
C757 H779 0.950 . S
C758 H754 0.949 . S
C758 C766 1.574 . S
C758 C774 1.368 . S
H759 C767 0.950 . S
H760 C765 0.950 . S
H761 C766 0.949 . S
H762 C768 0.950 . S
H763 C769 0.950 . S
H764 C770 0.949 . S
C765 H760 0.950 . S
C765 C767 1.327 1_655 S
C765 C771 1.429 . S
C766 C758 1.574 . S
C766 H761 0.949 . S
C766 C772 1.368 . S
C767 C751 1.349 . S
C767 H759 0.950 . S
C767 C765 1.327 1_455 S
C768 C756 1.349 . S
C768 H762 0.950 . S
C768 C769 1.327 1_565 S
C769 H763 0.950 . S
C769 C768 1.327 1_545 S
C769 C773 1.429 . S
C770 C753 1.574 . S
C770 H764 0.949 . S
C770 C774 1.368 . S
C771 C752 1.429 1_655 S
C771 C765 1.429 . S
C771 C772 1.523 . S
C772 C753 1.368 . S
C772 C766 1.368 . S
C772 C771 1.523 . S
C773 C757 1.429 . S
C773 C769 1.429 . S
C773 C774 1.523 . S
C774 C758 1.368 . S
C774 C770 1.368 . S
C774 C773 1.523 . S
H775 C750 0.950 . S
H776 C752 0.950 . S
H777 C753 0.949 . S
H778 C755 0.950 . S
H779 C757 0.950 . S
C241 C178 2.323 . S
C246 C18 2.483 . S
C271 C209 2.483 . S
C276 C49 2.323 . S
C301 C98 2.483 . S
C306 C138 2.323 . S
C331 C9 2.323 . S
C336 C169 2.483 . S
C361 C218 2.323 . S
C366 C58 2.483 . S
C391 C89 2.323 . S
C396 C129 2.483 . S
C421 C6 1.902 . S
C426 C90 1.849 . S
C451 C46 1.902 . S
C456 C10 1.849 . S
C481 C86 1.902 . S
C486 C50 1.849 . S
C511 C135 1.902 . S
C516 C179 1.849 . S
C541 C175 1.902 . S
C546 C219 1.849 . S
C571 C139 1.849 . S
C576 C215 1.902 . S
C601 C15 1.027 . S
C606 C99 1.047 . S
C631 C55 1.027 . S
C636 C19 1.047 . S
C661 C95 1.027 . S
C666 C59 1.047 . S
C691 C126 1.027 . S
C696 C170 1.047 . S
C721 C166 1.027 . S
C726 C210 1.047 . S
C751 C130 1.047 . S
C756 C206 1.027 . S
