# Generated by pormake.
# Topology zfu, (5)-cn, num edge types: 1
# Building blocks:
#     Node 0, Type 0, BuildingBlock: XOMCOT_clean_sbu_1, # of connection points: 5
#     Node 1, Type 0, BuildingBlock: XOMCOT_clean_sbu_1, # of connection points: 5
#     Node 2, Type 0, BuildingBlock: XOMCOT_clean_sbu_1, # of connection points: 5
#     Node 3, Type 0, BuildingBlock: XOMCOT_clean_sbu_1, # of connection points: 5
#     Node 4, Type 0, BuildingBlock: XOMCOT_clean_sbu_1, # of connection points: 5
#     Node 5, Type 0, BuildingBlock: XOMCOT_clean_sbu_1, # of connection points: 5
#     Node 6, Type 0, BuildingBlock: XOMCOT_clean_sbu_1, # of connection points: 5
#     Node 7, Type 0, BuildingBlock: XOMCOT_clean_sbu_1, # of connection points: 5
#     Edge 8, Type (0, 0), BuildingBlock: KIFKEQ_clean_linker_1, # of connection points: 2
#     Edge 9, Type (0, 0), BuildingBlock: KIFKEQ_clean_linker_1, # of connection points: 2
#     Edge 10, Type (0, 0), BuildingBlock: KIFKEQ_clean_linker_1, # of connection points: 2
#     Edge 11, Type (0, 0), BuildingBlock: KIFKEQ_clean_linker_1, # of connection points: 2
#     Edge 12, Type (0, 0), BuildingBlock: KIFKEQ_clean_linker_1, # of connection points: 2
#     Edge 13, Type (0, 0), BuildingBlock: KIFKEQ_clean_linker_1, # of connection points: 2
#     Edge 14, Type (0, 0), BuildingBlock: KIFKEQ_clean_linker_1, # of connection points: 2
#     Edge 15, Type (0, 0), BuildingBlock: KIFKEQ_clean_linker_1, # of connection points: 2
#     Edge 16, Type (0, 0), BuildingBlock: KIFKEQ_clean_linker_1, # of connection points: 2
#     Edge 17, Type (0, 0), BuildingBlock: KIFKEQ_clean_linker_1, # of connection points: 2
#     Edge 18, Type (0, 0), BuildingBlock: KIFKEQ_clean_linker_1, # of connection points: 2
#     Edge 19, Type (0, 0), BuildingBlock: KIFKEQ_clean_linker_1, # of connection points: 2
#     Edge 20, Type (0, 0), BuildingBlock: KIFKEQ_clean_linker_1, # of connection points: 2
#     Edge 21, Type (0, 0), BuildingBlock: KIFKEQ_clean_linker_1, # of connection points: 2
#     Edge 22, Type (0, 0), BuildingBlock: KIFKEQ_clean_linker_1, # of connection points: 2
#     Edge 23, Type (0, 0), BuildingBlock: KIFKEQ_clean_linker_1, # of connection points: 2
#     Edge 24, Type (0, 0), BuildingBlock: KIFKEQ_clean_linker_1, # of connection points: 2
#     Edge 25, Type (0, 0), BuildingBlock: KIFKEQ_clean_linker_1, # of connection points: 2
#     Edge 26, Type (0, 0), BuildingBlock: KIFKEQ_clean_linker_1, # of connection points: 2
#     Edge 27, Type (0, 0), BuildingBlock: KIFKEQ_clean_linker_1, # of connection points: 2
# Relax obj value: 0.127
# Max RMSD: 0.160
# Mean RMSD: 0.160
data_MOF--net-zfu--node1-XOMCOT_clean_sbu_1--edge1-KIFKEQ_clean_linker_1
_symmetry_space_group_name_H-M    P1
_symmetry_Int_Tables_number       1
_symmetry_cell_setting            triclinic
loop_
_symmetry_equiv_pos_as_xyz
'x, y, z'
_cell_length_a     38.664865
_cell_length_b     38.477865
_cell_length_c     28.120867
_cell_angle_alpha  89.662201
_cell_angle_beta   90.123408
_cell_angle_gamma 90.104205
loop_
_atom_site_label
_atom_site_type_symbol
_atom_site_fract_x
_atom_site_fract_y
_atom_site_fract_z
_atom_type_partial_charge
C0 C 0.45438 0.70717 -0.00535 0.0
C1 C 0.47188 0.67678 0.00383 0.0
N2 N 0.50498 0.68074 -0.01034 0.0
N3 N 0.47626 0.73037 0.97487 0.0
C4 C 0.50683 0.71349 0.972 0.0
H5 H 0.42738 0.71213 0.00192 0.0
Co6 Co 0.4648 0.7757 0.95578 0.0
C7 C 0.53462 0.80841 0.94691 0.0
O8 O 0.52824 0.81887 0.9032 0.0
N9 N 0.45329 0.82133 0.93662 0.0
C10 C 0.44849 0.87888 0.93724 0.0
C11 C 0.46303 0.85055 0.95937 0.0
C12 C 0.43266 0.83266 0.90069 0.0
N13 N 0.42922 0.86771 0.90036 0.0
O14 O 0.47431 0.76308 0.89124 0.0
H15 H 0.47934 0.8512 -0.00934 0.0
H16 H 0.41957 0.81553 0.87614 0.0
O17 O 0.51195 0.79065 0.96929 0.0
C18 C 0.44686 0.74639 0.88006 0.0
O19 O 0.42117 0.74543 0.91058 0.0
N20 N 0.45163 0.78553 0.01795 0.0
C21 C 0.42045 0.77759 0.10617 0.0
C22 C 0.45635 0.77367 0.10139 0.0
C23 C 0.4716 0.778 0.05674 0.0
C24 C 0.41718 0.79193 0.0227 0.0
C25 C 0.40109 0.78857 0.06675 0.0
H26 H 0.49862 0.77168 0.05259 0.0
H27 H 0.40151 0.79667 -0.00857 0.0
H28 H 0.53005 0.7252 0.95766 0.0
H29 H 0.46081 0.65343 0.01913 0.0
H30 H 0.4519 0.9057 0.94765 0.0
H31 H 0.47204 0.76505 0.13115 0.0
H32 H 0.37326 0.79133 0.06894 0.0
C33 C 0.86558 0.95775 0.24465 0.0
C34 C 0.89684 0.9741 0.25136 0.0
N35 N 0.89359 1.00755 0.23767 0.0
N36 N 0.84268 0.9807 0.22659 0.0
C37 C 0.86048 1.01091 0.22283 0.0
H38 H 0.85989 0.93072 0.25203 0.0
Co39 Co 0.79723 0.96988 0.20852 0.0
C40 C 0.76573 1.04043 0.19652 0.0
O41 O 0.75366 1.033 0.15407 0.0
N42 N 0.75156 0.9587 0.19024 0.0
C43 C 0.69424 0.95403 0.19104 0.0
C44 C 0.7225 0.96885 0.21269 0.0
C45 C 0.74021 0.93761 0.15501 0.0
N46 N 0.70533 0.93426 0.15475 0.0
O47 O 0.81016 0.97758 0.14354 0.0
H48 H 0.72192 0.98562 0.2434 0.0
H49 H 0.7572 0.9241 0.13088 0.0
O50 O 0.78366 1.01795 0.21915 0.0
C51 C 0.82558 0.94922 0.13332 0.0
O52 O 0.82471 0.92355 0.16435 0.0
N53 N 0.78722 0.95865 0.27152 0.0
C54 C 0.79807 0.93022 0.36112 0.0
C55 C 0.8009 0.96619 0.35383 0.0
C56 C 0.79518 0.98004 0.30853 0.0
C57 C 0.78116 0.92415 0.27901 0.0
C58 C 0.78608 0.90938 0.32391 0.0
H59 H 0.80118 1.00708 0.30229 0.0
H60 H 0.77595 0.90739 0.24909 0.0
H61 H 0.84967 1.03465 0.20835 0.0
H62 H 0.92014 0.96234 0.26548 0.0
H63 H 0.66753 0.95761 0.20131 0.0
H64 H 0.81029 0.98297 0.38187 0.0
H65 H 0.78406 0.88145 0.32814 0.0
C66 C 0.62082 0.3769 0.49587 0.0
C67 C 0.60331 0.40756 0.50243 0.0
N68 N 0.57111 0.404 0.48462 0.0
N69 N 0.59983 0.35396 0.47404 0.0
C70 C 0.56969 0.37119 0.4676 0.0
H71 H 0.64719 0.37156 0.50649 0.0
Co72 Co 0.61239 0.30867 0.45664 0.0
C73 C 0.54468 0.27499 0.4383 0.0
O74 O 0.55528 0.26438 0.39646 0.0
N75 N 0.62511 0.26304 0.43915 0.0
C76 C 0.63039 0.2055 0.44091 0.0
C77 C 0.61549 0.23375 0.46227 0.0
C78 C 0.64591 0.25179 0.40363 0.0
N79 N 0.64961 0.21678 0.404 0.0
O80 O 0.60732 0.32179 0.3911 0.0
H81 H 0.59873 0.23299 0.49302 0.0
H82 H 0.65871 0.26892 0.3786 0.0
O83 O 0.56459 0.29369 0.46377 0.0
C84 C 0.63552 0.33835 0.3836 0.0
O85 O 0.65907 0.33866 0.4174 0.0
N86 N 0.62128 0.29845 0.52029 0.0
C87 C 0.64689 0.30825 0.61145 0.0
C88 C 0.6113 0.31116 0.60234 0.0
C89 C 0.59885 0.30586 0.55624 0.0
C90 C 0.65538 0.29256 0.52943 0.0
C91 C 0.66869 0.29686 0.57505 0.0
H92 H 0.57205 0.31158 0.54859 0.0
H93 H 0.67297 0.28784 0.50034 0.0
H94 H 0.54735 0.36008 0.45007 0.0
H95 H 0.61342 0.43054 0.51962 0.0
H96 H 0.62705 0.17863 0.45158 0.0
H97 H 0.59377 0.32005 0.62967 0.0
H98 H 0.69636 0.29483 0.58055 0.0
C99 C 0.21911 0.12741 0.75655 0.0
C100 C 0.1887 0.11033 0.76714 0.0
N101 N 0.18931 0.07897 0.74606 0.0
N102 N 0.23902 0.10668 0.72949 0.0
C103 C 0.21999 0.07754 0.72327 0.0
H104 H 0.22641 0.15317 0.76809 0.0
Co105 Co 0.28334 0.11626 0.70535 0.0
C106 C 0.31006 0.04373 0.69242 0.0
O107 O 0.31871 0.04925 0.64785 0.0
N108 N 0.32782 0.12552 0.68076 0.0
C109 C 0.38481 0.12443 0.67027 0.0
C110 C 0.35779 0.11195 0.69709 0.0
C111 C 0.33745 0.14688 0.6446 0.0
N112 N 0.37204 0.14644 0.63729 0.0
O113 O 0.26564 0.10866 0.64247 0.0
H114 H 0.35993 0.0942 0.72691 0.0
H115 H 0.3195 0.16226 0.62377 0.0
O116 O 0.29581 0.06791 0.71616 0.0
C117 C 0.24978 0.13725 0.63437 0.0
O118 O 0.25279 0.16241 0.66556 0.0
N119 N 0.29843 0.12772 0.7664 0.0
C120 C 0.29593 0.15931 0.85513 0.0
C121 C 0.28929 0.1235 0.85043 0.0
C122 C 0.29108 0.10804 0.80563 0.0
C123 C 0.30848 0.16147 0.77095 0.0
C124 C 0.30822 0.17754 0.81518 0.0
H125 H 0.28232 0.08153 0.8018 0.0
H126 H 0.31366 0.17701 0.73959 0.0
H127 H 0.22869 0.05548 0.70285 0.0
H128 H 0.1676 0.1204 0.78817 0.0
H129 H 0.41191 0.11833 0.67525 0.0
H130 H 0.27955 0.10816 0.87988 0.0
H131 H 0.31493 0.20482 0.81713 0.0
C132 C 0.94869 0.87525 0.74336 0.0
C133 C 0.96735 0.90517 0.73502 0.0
N134 N 0.99893 0.90138 0.75475 0.0
N135 N 0.96855 0.85249 0.76771 0.0
C136 C 0.99888 0.86931 0.77461 0.0
H137 H 0.92248 0.87014 0.73178 0.0
Co138 Co 0.95631 0.80711 0.78597 0.0
C139 C 1.02563 0.77366 0.7985 0.0
O140 O 1.01766 0.76102 0.84058 0.0
N141 N 0.94425 0.76136 0.80423 0.0
C142 C 0.93912 0.70383 0.80205 0.0
C143 C 0.95335 0.73247 0.78031 0.0
C144 C 0.92449 0.74947 0.84068 0.0
N145 N 0.92088 0.71444 0.84001 0.0
O146 O 0.96339 0.82003 0.851 0.0
H147 H 0.96922 0.73227 0.74868 0.0
H148 H 0.9123 0.76613 0.86653 0.0
O149 O 1.00384 0.79249 0.7761 0.0
C150 C 0.93533 0.83635 0.85969 0.0
O151 O 0.91059 0.83584 0.82754 0.0
N152 N 0.94554 0.7972 0.72282 0.0
C153 C 0.91825 0.80777 0.63266 0.0
C154 C 0.95405 0.80991 0.64029 0.0
C155 C 0.96732 0.80431 0.68588 0.0
C156 C 0.91115 0.79182 0.71509 0.0
C157 C 0.89695 0.79659 0.66993 0.0
H158 H 0.9943 0.80978 0.6923 0.0
H159 H 0.89412 0.78721 0.74494 0.0
H160 H 1.02079 0.85795 0.79293 0.0
H161 H 0.95833 0.928 0.7161 0.0
H162 H 0.94216 0.67714 0.79087 0.0
H163 H 0.97118 0.81866 0.61222 0.0
H164 H 0.86915 0.79513 0.66545 0.0
C165 C 0.716 0.44635 -0.00344 0.0
C166 C 0.68493 0.46319 -0.0098 0.0
N167 N 0.68861 0.49635 0.00468 0.0
N168 N 0.73921 0.46876 0.01492 0.0
C169 C 0.72174 0.49893 0.01971 0.0
H170 H 0.72153 0.4196 -0.01221 0.0
Co171 Co 0.78542 0.45886 0.02929 0.0
C172 C 0.81508 0.5296 0.04538 0.0
O173 O 0.82905 0.52032 0.08614 0.0
N174 N 0.83221 0.44889 0.0439 0.0
C175 C 0.88964 0.44751 0.03925 0.0
C176 C 0.85986 0.46058 0.01929 0.0
C177 C 0.84599 0.42867 0.07875 0.0
N178 N 0.88094 0.42736 0.07672 0.0
O179 O 0.7741 0.46248 0.09528 0.0
H180 H 0.85847 0.47761 -0.0114 0.0
H181 H 0.83079 0.41458 0.10468 0.0
O182 O 0.79704 0.50776 0.02204 0.0
C183 C 0.76269 0.43188 0.10409 0.0
O184 O 0.76601 0.40817 0.0709 0.0
N185 N 0.79363 0.45133 0.96497 0.0
C186 C 0.77776 0.42631 0.87529 0.0
C187 C 0.77502 0.46191 0.885 0.0
C188 C 0.78334 0.47406 0.93029 0.0
C189 C 0.79989 0.41738 0.95465 0.0
C190 C 0.79245 0.40432 0.90964 0.0
H191 H 0.77734 0.50068 0.93887 0.0
H192 H 0.80703 0.39952 -0.01716 0.0
H193 H 0.73301 0.52231 0.03433 0.0
H194 H 0.66167 0.45204 0.97513 0.0
H195 H 0.91572 0.4528 0.0273 0.0
H196 H 0.76374 0.47959 0.85919 0.0
H197 H 0.79459 0.37663 0.90358 0.0
C198 C 0.13843 0.20633 0.25298 0.0
C199 C 0.11986 0.17609 0.24707 0.0
N200 N 0.08626 0.18288 0.25557 0.0
N201 N 0.11667 0.23205 0.26536 0.0
C202 C 0.08505 0.21697 0.26663 0.0
H203 H 0.16608 0.2094 0.24889 0.0
Co204 Co 0.12929 0.27775 0.28021 0.0
C205 C 0.06069 0.31224 0.28404 0.0
O206 O 0.06681 0.32338 0.32733 0.0
N207 N 0.14179 0.32394 0.29535 0.0
C208 C 0.14795 0.38126 0.28922 0.0
C209 C 0.1345 0.35206 0.26825 0.0
C210 C 0.15977 0.33685 0.33281 0.0
N211 N 0.16395 0.37178 0.32988 0.0
O212 O 0.11754 0.26816 0.345 0.0
H213 H 0.12027 0.35136 0.23511 0.0
H214 H 0.17013 0.32095 0.36127 0.0
O215 O 0.08312 0.29353 0.26313 0.0
C216 C 0.14459 0.25243 0.35992 0.0
O217 O 0.17186 0.25143 0.33214 0.0
N218 N 0.14439 0.28417 0.21788 0.0
C219 C 0.17713 0.27176 0.13185 0.0
C220 C 0.14106 0.26885 0.13559 0.0
C221 C 0.12504 0.2754 0.1791 0.0
C222 C 0.17914 0.28933 0.21402 0.0
C223 C 0.19603 0.28372 0.17101 0.0
H224 H 0.09774 0.27004 0.18269 0.0
H225 H 0.19427 0.29504 0.24542 0.0
H226 H 0.06167 0.23047 0.27663 0.0
H227 H 0.13023 0.15109 0.23697 0.0
H228 H 0.1457 0.40755 0.27571 0.0
H229 H 0.12571 0.25954 0.106 0.0
H230 H 0.22396 0.28579 0.16962 0.0
C231 C 0.36203 0.64039 0.49653 0.0
C232 C 0.39255 0.62327 0.4875 0.0
N233 N 0.38883 0.58963 0.50042 0.0
N234 N 0.33903 0.6177 0.51487 0.0
C235 C 0.35615 0.58711 0.51719 0.0
H236 H 0.35678 0.6676 0.48986 0.0
Co237 Co 0.29339 0.62739 0.53263 0.0
C238 C 0.2633 0.55593 0.54296 0.0
O239 O 0.25009 0.56269 0.5849 0.0
N240 N 0.24716 0.63698 0.55091 0.0
C241 C 0.18966 0.63986 0.54918 0.0
C242 C 0.21853 0.62679 0.52716 0.0
C243 C 0.23485 0.65619 0.58747 0.0
N244 N 0.19993 0.65841 0.58716 0.0
O245 O 0.30685 0.62016 0.59757 0.0
H246 H 0.21864 0.61113 0.49534 0.0
H247 H 0.25106 0.6692 0.61318 0.0
O248 O 0.28096 0.57912 0.52133 0.0
C249 C 0.31828 0.65052 0.60755 0.0
O250 O 0.31419 0.67541 0.57576 0.0
N251 N 0.28306 0.63875 0.46962 0.0
C252 C 0.29241 0.66981 0.38091 0.0
C253 C 0.29813 0.63397 0.38738 0.0
C254 C 0.29299 0.61881 0.4321 0.0
C255 C 0.27418 0.67267 0.46299 0.0
C256 C 0.27792 0.68851 0.41865 0.0
H257 H 0.30092 0.5922 0.43772 0.0
H258 H 0.26706 0.6884 0.49315 0.0
H259 H 0.34461 0.56331 0.53028 0.0
H260 H 0.41574 0.63492 0.47295 0.0
H261 H 0.16313 0.63591 0.53809 0.0
H262 H 0.30953 0.61834 0.35967 0.0
H263 H 0.27198 0.71589 0.41514 0.0
H264 H 0.69928 0.56591 -0.00384 0.0
H265 H 0.61909 0.48829 0.01005 0.0
H266 H 0.65539 0.61147 -0.00638 0.0
H267 H 0.57527 0.53364 0.00622 0.0
H268 H 0.50871 0.62563 0.05025 0.0
H269 H 0.55362 0.58159 0.0543 0.0
H270 H 0.60899 0.6335 0.94113 0.0
H271 H 0.56379 0.67758 0.93668 0.0
C272 C 0.67233 0.55855 -0.00112 0.0
C273 C 0.66274 0.52339 0.00342 0.0
C274 C 0.64714 0.58465 -0.00311 0.0
C275 C 0.61179 0.57624 -0.00026 0.0
C276 C 0.60226 0.54109 0.00443 0.0
C277 C 0.62739 0.51502 0.00614 0.0
C278 C 0.53022 0.62761 0.02585 0.0
C279 C 0.53233 0.65519 -0.00713 0.0
C280 C 0.55606 0.6023 0.02825 0.0
C281 C 0.58484 0.60387 -0.00212 0.0
C282 C 0.58734 0.6317 0.9654 0.0
C283 C 0.56138 0.65702 0.96287 0.0
H284 H 0.08767 0.11493 0.27986 0.0
H285 H 1.02048 0.19585 0.22736 0.0
H286 H 0.04029 0.07338 0.2758 0.0
H287 H 0.97304 0.15405 0.22122 0.0
H288 H 0.88646 0.07612 0.2567 0.0
H289 H 0.9326 0.11949 0.26211 0.0
H290 H 1.0073 1.04125 0.22283 0.0
H291 H 0.96137 0.99808 0.21957 0.0
C292 C 0.06276 0.1237 0.26691 0.0
C293 C 0.05783 0.15858 0.25374 0.0
C294 C 1.03552 0.09984 0.2643 0.0
C295 C 1.00265 0.11004 0.24763 0.0
C296 C 0.99771 0.14516 0.23481 0.0
C297 C 1.02492 0.16917 0.23815 0.0
C298 C 0.91278 0.06842 0.24905 0.0
C299 C 0.92038 1.03368 0.23814 0.0
C300 C 0.93929 0.09326 0.25199 0.0
C301 C 0.97398 0.08401 0.24338 0.0
C302 C 0.98121 0.04934 0.23109 0.0
C303 C 0.95483 1.02452 0.22892 0.0
H304 H 0.57946 0.47384 0.48177 0.0
H305 H 0.50161 0.39336 0.48677 0.0
H306 H 0.53457 0.51803 0.48478 0.0
H307 H 0.45638 0.43777 0.48863 0.0
H308 H 0.39088 0.5284 0.54962 0.0
H309 H 0.43405 0.48261 0.54336 0.0
H310 H 0.48793 0.54229 0.43612 0.0
H311 H 0.4447 0.58788 0.44187 0.0
C312 C 0.55273 0.46555 0.4835 0.0
C313 C 0.54419 0.43001 0.48425 0.0
C314 C 0.52693 0.49093 0.48471 0.0
C315 C 0.49183 0.48149 0.48692 0.0
C316 C 0.48318 0.44594 0.48735 0.0
C317 C 0.50907 0.42048 0.48579 0.0
C318 C 0.41164 0.5317 0.52429 0.0
C319 C 0.4142 0.56215 0.49645 0.0
C320 C 0.43645 0.50534 0.5207 0.0
C321 C 0.46455 0.50879 0.48936 0.0
C322 C 0.46694 0.53901 0.4612 0.0
C323 C 0.4421 0.56527 0.46462 0.0
H324 H 0.04758 0.91191 0.82266 0.0
H325 H 1.01403 0.94682 0.684 0.0
H326 H 0.09484 0.95443 0.82081 0.0
H327 H 0.06112 0.98928 0.68211 0.0
H328 H 0.17244 1.03348 0.6766 0.0
H329 H 0.12684 0.98929 0.67888 0.0
H330 H 0.10033 1.02052 0.82138 0.0
H331 H 0.14597 0.06463 0.81907 0.0
C332 C 0.05044 0.92853 0.79172 0.0
C333 C 1.02704 0.92609 0.75354 0.0
C334 C 0.0773 0.95302 0.79079 0.0
C335 C 0.08168 0.97519 0.7513 0.0
C336 C 0.05855 0.97241 0.71288 0.0
C337 C 1.03142 0.94832 0.71414 0.0
C338 C 0.15703 1.03072 0.70849 0.0
C339 C 0.16275 0.05258 0.74762 0.0
C340 C 0.13076 1.00562 0.70968 0.0
C341 C 0.10999 1.00145 0.75031 0.0
C342 C 0.11605 1.02296 0.7897 0.0
C343 C 0.14196 0.04841 0.78823 0.0
H344 H 0.29671 0.6466 0.28838 0.0
H345 H 0.32093 0.73511 0.37686 0.0
H346 H 0.32751 0.6742 0.2224 0.0
H347 H 0.34981 0.76297 0.31028 0.0
H348 H 0.37084 0.8107 0.15832 0.0
H349 H 0.3364 0.78597 0.22358 0.0
H350 H 0.39361 0.69008 0.21348 0.0
H351 H 0.42817 0.7148 0.14894 0.0
C352 C 0.30813 0.67198 0.29379 0.0
C353 C 0.30623 0.68841 0.33828 0.0
C354 C 0.32566 0.68778 0.25593 0.0
C355 C 0.34109 0.72059 0.26151 0.0
C356 C 0.33785 0.73779 0.30501 0.0
C357 C 0.32092 0.7218 0.34307 0.0
C358 C 0.37626 0.78453 0.17062 0.0
C359 C 0.40236 0.76477 0.14911 0.0
C360 C 0.35657 0.7704 0.20768 0.0
C361 C 0.36218 0.73603 0.22299 0.0
C362 C 0.38854 0.71648 0.20186 0.0
C363 C 0.4086 0.73079 0.16549 0.0
H364 H 0.76979 0.8823 0.42235 0.0
H365 H 0.86328 0.93966 0.39254 0.0
H366 H 0.79914 0.85192 0.48767 0.0
H367 H 0.89323 0.9083 0.45523 0.0
H368 H 0.92952 0.87262 0.59938 0.0
H369 H 0.899 0.90288 0.53622 0.0
H370 H 0.84055 0.80945 0.50631 0.0
H371 H 0.87013 0.77984 0.57206 0.0
C372 C 0.79657 0.88845 0.43008 0.0
C373 C 0.81412 0.91376 0.40328 0.0
C374 C 0.81357 0.87079 0.46699 0.0
C375 C 0.84867 0.87759 0.47699 0.0
C376 C 0.86604 0.90289 0.44968 0.0
C377 C 0.84889 0.92095 0.41364 0.0
C378 C 0.91057 0.85841 0.57869 0.0
C379 C 0.90253 0.82378 0.58994 0.0
C380 C 0.89298 0.87574 0.54239 0.0
C381 C 0.86729 0.85868 0.51571 0.0
C382 C 0.85972 0.82367 0.5265 0.0
C383 C 0.87693 0.8065 0.56366 0.0
H384 H 0.71112 0.43707 0.85016 0.0
H385 H 0.8022 0.3797 0.81021 0.0
H386 H 0.67757 0.40673 0.79025 0.0
H387 H 0.7691 0.35027 0.74808 0.0
H388 H 0.69489 0.27905 0.67119 0.0
H389 H 0.72634 0.30784 0.73541 0.0
H390 H 0.66741 0.40159 0.70948 0.0
H391 H 0.6352 0.37219 0.64739 0.0
C392 C 0.72417 0.41862 0.82745 0.0
C393 C 0.75934 0.41106 0.83425 0.0
C394 C 0.70493 0.40111 0.79309 0.0
C395 C 0.72049 0.37592 0.76411 0.0
C396 C 0.75601 0.36896 0.7703 0.0
C397 C 0.77514 0.38611 0.80537 0.0
C398 C 0.68831 0.30557 0.68016 0.0
C399 C 0.66235 0.32326 0.65489 0.0
C400 C 0.7066 0.32228 0.71644 0.0
C401 C 0.69973 0.35725 0.72753 0.0
C402 C 0.67312 0.37453 0.70274 0.0
C403 C 0.65451 0.35765 0.66714 0.0
H404 H 0.26941 0.22531 0.86019 0.0
H405 H 0.29575 0.13671 0.94869 0.0
H406 H 0.24422 0.25392 0.9283 0.0
H407 H 0.26842 0.16511 0.0164 0.0
H408 H 0.16906 0.20795 0.09303 0.0
H409 H 0.20263 0.18191 0.02891 0.0
H410 H 0.26107 0.277 0.01364 0.0
H411 H 0.22768 0.303 0.07855 0.0
C412 C 0.27076 0.21213 0.89424 0.0
C413 C 0.28487 0.17846 0.89855 0.0
C414 C 0.25593 0.22859 0.93325 0.0
C415 C 0.25418 0.2116 0.97734 0.0
C416 C 0.26917 0.17856 -0.01754 0.0
C417 C 0.28468 0.16229 0.94359 0.0
C418 C 0.18882 0.2234 0.0756 0.0
C419 C 0.19557 0.2576 0.09023 0.0
C420 C 0.20831 0.20836 0.03947 0.0
C421 C 0.23458 0.22739 0.01679 0.0
C422 C 0.24097 0.26182 0.03076 0.0
C423 C 0.22188 0.27668 0.06762 0.0
H424 H 0.36123 0.60828 0.66127 0.0
H425 H 0.32138 0.71274 0.64998 0.0
H426 H 0.40203 0.62779 0.72313 0.0
H427 H 0.36145 0.73198 0.7107 0.0
H428 H 0.45134 0.76995 0.78839 0.0
H429 H 0.42399 0.74199 0.71971 0.0
H430 H 0.40208 0.65121 0.80569 0.0
H431 H 0.42976 0.67901 0.87357 0.0
C432 C 0.3607 0.63511 0.67268 0.0
C433 C 0.33817 0.65898 0.65088 0.0
C434 C 0.38429 0.6464 0.70754 0.0
C435 C 0.38572 0.68171 0.72073 0.0
C436 C 0.362 0.70494 0.70022 0.0
C437 C 0.33861 0.69374 0.66588 0.0
C438 C 0.44216 0.74343 0.79174 0.0
C439 C 0.44266 0.72653 0.83594 0.0
C440 C 0.42601 0.72757 0.75279 0.0
C441 C 0.41016 0.69464 0.75762 0.0
C442 C 0.41398 0.67647 0.80069 0.0
C443 C 0.4299 0.69238 0.83952 0.0
H444 H 0.89212 0.92994 0.13502 0.0
H445 H 0.80923 0.95679 0.03898 0.0
H446 H 0.92631 0.90818 0.06887 0.0
H447 H 0.8429 0.93407 0.97237 0.0
H448 H 0.91328 0.90229 0.8561 0.0
H449 H 0.89231 0.93753 0.92159 0.0
H450 H 0.92324 0.85706 0.02078 0.0
H451 H 0.94521 0.82226 0.95465 0.0
C452 C 0.88163 0.93191 0.09933 0.0
C453 C 0.84821 0.94515 0.09179 0.0
C454 C 0.90103 0.91906 0.06154 0.0
C455 C 0.88725 0.91876 0.01533 0.0
C456 C 0.85454 0.93414 0.00742 0.0
C457 C 0.8352 0.94732 0.0454 0.0
C458 C 0.91638 0.89259 0.89213 0.0
C459 C 0.9308 0.85962 0.90055 0.0
C460 C 0.90405 0.91263 0.92959 0.0
C461 C 0.90544 0.89999 0.97645 0.0
C462 C 0.92195 0.86781 -0.01484 0.0
C463 C 0.93466 0.84782 0.94744 0.0
H464 H 0.72873 0.47488 0.16705 0.0
H465 H 0.75068 0.36715 0.13731 0.0
H466 H 0.68953 0.4565 0.23128 0.0
H467 H 0.71218 0.34907 0.20054 0.0
H468 H 0.62371 0.31973 0.29073 0.0
H469 H 0.65058 0.34689 0.22065 0.0
H470 H 0.69279 0.42785 0.30956 0.0
H471 H 0.66567 0.40111 0.37864 0.0
C472 C 0.72558 0.44743 0.17463 0.0
C473 C 0.74279 0.4225 0.14717 0.0
C474 C 0.70292 0.43686 0.21099 0.0
C475 C 0.69707 0.40125 0.22023 0.0
C476 C 0.71512 0.37661 0.19344 0.0
C477 C 0.73763 0.38708 0.15755 0.0
C478 C 0.63768 0.34397 0.29473 0.0
C479 C 0.64293 0.35821 0.33988 0.0
C480 C 0.65341 0.35934 0.25489 0.0
C481 C 0.67438 0.38922 0.25974 0.0
C482 C 0.67684 0.40499 0.30443 0.0
C483 C 0.66141 0.38955 0.34405 0.0
H484 H 0.15227 0.18325 0.36116 0.0
H485 H 0.1412 0.27175 0.45303 0.0
H486 H 0.17095 0.14759 0.42852 0.0
H487 H 0.16055 0.23647 0.5207 0.0
H488 H 0.18668 0.16571 0.63962 0.0
H489 H 0.15161 0.1883 0.57448 0.0
H490 H 0.22441 0.14611 0.47376 0.0
H491 H 0.25912 0.12269 0.53964 0.0
C492 C 0.15275 0.19468 0.39631 0.0
C493 C 0.14493 0.23002 0.40232 0.0
C494 C 0.1639 0.17441 0.4347 0.0
C495 C 0.16777 0.1892 0.47992 0.0
C496 C 0.15755 0.22407 0.48647 0.0
C497 C 0.14625 0.24434 0.4479 0.0
C498 C 0.19467 0.16051 0.60343 0.0
C499 C 0.22563 0.14265 0.59445 0.0
C500 C 0.17472 0.1737 0.56616 0.0
C501 C 0.18545 0.16966 0.5189 0.0
C502 C 0.21523 0.14955 0.50977 0.0
C503 C 0.23514 0.13602 0.54735 0.0
H504 H 0.39927 0.92915 0.92145 0.0
H505 H 0.41209 0.85537 0.80787 0.0
H506 H 0.36775 0.9676 0.86835 0.0
H507 H 0.37931 0.8938 0.75435 0.0
H508 H 0.35961 0.99666 0.66513 0.0
H509 H 0.38553 0.95061 0.71377 0.0
H510 H 0.31368 0.97325 0.82675 0.0
H511 H 0.28826 1.01939 0.77863 0.0
C512 C 0.3953 0.92105 0.88506 0.0
C513 C 0.40855 0.88923 0.86893 0.0
C514 C 0.37674 0.94298 0.85463 0.0
C515 C 0.37075 0.93385 0.80696 0.0
C516 C 0.3836 0.90178 0.79076 0.0
C517 C 0.40212 0.87961 0.8215 0.0
C518 C 0.34897 0.99139 0.70003 0.0
C519 C 0.32219 1.01213 0.71823 0.0
C520 C 0.36381 0.96491 0.72793 0.0
C521 C 0.35214 0.95854 0.77459 0.0
C522 C 0.32395 0.97795 0.79148 0.0
C523 C 0.30925 1.00438 0.76377 0.0
H524 H 0.55813 0.78821 0.03459 0.0
H525 H 0.57988 0.86012 0.91998 0.0
H526 H 0.60233 0.81591 0.08317 0.0
H527 H 0.62413 0.88809 0.96894 0.0
H528 H 0.71825 0.91639 0.0629 0.0
H529 H 0.6807 0.88254 0.01006 0.0
H530 H 0.6063 0.8714 0.12346 0.0
H531 H 0.64387 0.90426 0.17602 0.0
C532 C 0.57247 0.8098 0.01957 0.0
C533 C 0.565 0.82219 0.97352 0.0
C534 C 0.5978 0.8258 0.04756 0.0
C535 C 0.61649 0.85464 0.03034 0.0
C536 C 0.61036 0.86588 -0.01666 0.0
C537 C 0.5849 0.84986 0.95527 0.0
C538 C 0.69405 0.90635 0.07659 0.0
C539 C 0.68404 0.91325 0.12369 0.0
C540 C 0.67239 0.8872 0.04621 0.0
C541 C 0.64044 0.87413 0.06244 0.0
C542 C 0.63084 0.88062 0.10978 0.0
C543 C 0.65226 0.8999 0.13987 0.0
H544 H 0.71334 0.08528 0.17146 0.0
H545 H 0.79055 0.06706 0.2799 0.0
H546 H 0.68822 0.1314 0.21985 0.0
H547 H 0.76559 0.11303 0.32797 0.0
H548 H 0.68134 0.1563 0.42626 0.0
H549 H 0.7122 0.11768 0.37315 0.0
H550 H 0.69583 0.18962 0.25686 0.0
H551 H 0.66409 0.22829 0.31046 0.0
C552 C 0.72536 0.09148 0.20519 0.0
C553 C 0.75366 0.07198 0.22207 0.0
C554 C 0.71097 0.11801 0.23293 0.0
C555 C 0.72451 0.12562 0.27821 0.0
C556 C 0.75398 0.10738 0.29378 0.0
C557 C 0.76837 0.081 0.26611 0.0
C558 C 0.68424 0.16396 0.38939 0.0
C559 C 0.66998 0.19532 0.37261 0.0
C560 C 0.70233 0.14194 0.35894 0.0
C561 C 0.70666 0.15049 0.31062 0.0
C562 C 0.69282 0.18212 0.29379 0.0
C563 C 0.67489 0.20442 0.32455 0.0
H564 H 0.50926 0.29803 0.51622 0.0
H565 H 0.50923 0.21675 0.41094 0.0
H566 H 0.46304 0.26797 0.55932 0.0
H567 H 0.46324 0.18667 0.45429 0.0
H568 H 0.42738 0.12327 0.58893 0.0
H569 H 0.46455 0.15649 0.53519 0.0
H570 H 0.3997 0.24658 0.55363 0.0
H571 H 0.36214 0.2129 0.60738 0.0
C572 C 0.49902 0.27405 0.50185 0.0
C573 C 0.51312 0.25972 0.46024 0.0
C574 C 0.47243 0.25692 0.52645 0.0
C575 C 0.45966 0.22481 0.5104 0.0
C576 C 0.47275 0.21122 0.46775 0.0
C577 C 0.49896 0.2286 0.44276 0.0
C578 C 0.42091 0.15007 0.58116 0.0
C579 C 0.39195 0.16553 0.60246 0.0
C580 C 0.44203 0.16904 0.55012 0.0
C581 C 0.43508 0.20418 0.54012 0.0
C582 C 0.40576 0.21958 0.56077 0.0
C583 C 0.38417 0.2003 0.59123 0.0
H584 H 0.91036 0.72315 0.93489 0.0
H585 H 0.88722 0.65532 0.81742 0.0
H586 H 0.88069 0.68273 -0.01075 0.0
H587 H 0.85832 0.61504 0.8711 0.0
H588 H 0.86813 0.57402 0.069 0.0
H589 H 0.89026 0.62282 0.02186 0.0
H590 H 0.80711 0.60898 0.92098 0.0
H591 H 0.78514 0.56031 0.96777 0.0
C592 C 0.89864 0.69985 0.92064 0.0
C593 C 0.90134 0.69233 0.8719 0.0
C594 C 0.8819 0.67657 0.95176 0.0
C595 C 0.86705 0.6456 0.93458 0.0
C596 C 0.86903 0.63876 0.8856 0.0
C597 C 0.88597 0.6617 0.8548 0.0
C598 C 0.85418 0.58182 0.03726 0.0
C599 C 0.82519 0.5628 0.02176 0.0
C600 C 0.86685 0.60987 0.01025 0.0
C601 C 0.85081 0.61949 0.96717 0.0
C602 C 0.82057 0.6018 0.95339 0.0
C603 C 0.80792 0.57388 0.98032 0.0
H604 H 1.01367 0.36214 0.30994 0.0
H605 H 1.03885 0.292 0.19581 0.0
H606 H 0.96808 0.38791 0.26088 0.0
H607 H 0.99324 0.31747 0.14716 0.0
H608 H 0.87118 0.40925 0.16948 0.0
H609 H 0.91179 0.37843 0.22159 0.0
H610 H 0.98483 0.3724 0.10599 0.0
H611 H 0.94412 0.40217 0.05396 0.0
C612 C 1.00921 0.35186 0.27469 0.0
C613 C 1.03029 0.32524 0.2567 0.0
C614 C 0.98296 0.36659 0.24657 0.0
C615 C 0.97721 0.35509 0.19978 0.0
C616 C 0.99739 0.32749 0.18263 0.0
C617 C 1.02351 0.31276 0.21068 0.0
C618 C 0.89574 0.40097 0.1551 0.0
C619 C 0.90436 0.40833 0.10748 0.0
C620 C 0.91916 0.38359 0.18509 0.0
C621 C 0.95162 0.37284 0.16805 0.0
C622 C 0.95995 0.37986 0.12027 0.0
C623 C 0.93671 0.39736 0.09049 0.0
H624 H 0.29223 0.52999 0.46206 0.0
H625 H 0.21144 0.50937 0.56424 0.0
H626 H 0.27138 0.48233 0.41318 0.0
H627 H 0.19013 0.46184 0.51476 0.0
H628 H 0.17265 0.36337 0.4255 0.0
H629 H 0.20017 0.40423 0.48055 0.0
H630 H 0.22197 0.47356 0.36298 0.0
H631 H 0.19568 0.43261 0.30845 0.0
C632 C 0.2701 0.51517 0.47429 0.0
C633 C 0.25328 0.52388 0.51687 0.0
C634 C 0.25802 0.48786 0.44608 0.0
C635 C 0.22867 0.46847 0.45951 0.0
C636 C 0.21288 0.47603 0.50334 0.0
C637 C 0.22507 0.50338 0.53171 0.0
C638 C 0.18377 0.38712 0.41145 0.0
C639 C 0.18172 0.39473 0.3625 0.0
C640 C 0.19926 0.41072 0.44304 0.0
C641 C 0.21338 0.44229 0.42634 0.0
C642 C 0.21186 0.4494 0.37725 0.0
C643 C 0.19631 0.42603 0.3459 0.0
H644 H 0.21106 0.67107 0.68105 0.0
H645 H 0.13876 0.68899 0.56645 0.0
H646 H 0.17256 0.70194 0.73568 0.0
H647 H 0.10034 0.71925 0.62068 0.0
H648 H 0.06869 0.71934 0.82215 0.0
H649 H 0.11386 0.69357 0.77282 0.0
H650 H 0.09784 0.77354 0.6668 0.0
H651 H 0.05306 0.79934 0.71594 0.0
C652 C 0.1871 0.68178 0.66746 0.0
C653 C 0.17794 0.67744 0.61939 0.0
C654 C 0.16494 0.69922 0.69881 0.0
C655 C 0.13339 0.71318 0.68256 0.0
C656 C 0.12459 0.70921 0.63434 0.0
C657 C 0.14646 0.6915 0.60329 0.0
C658 C 0.07524 0.7318 0.78873 0.0
C659 C 0.05674 0.7611 0.7727 0.0
C660 C 0.10117 0.71702 0.76044 0.0
C661 C 0.10909 0.73114 0.71547 0.0
C662 C 0.09188 0.76153 0.70075 0.0
C663 C 0.06618 0.77636 0.72903 0.0
loop_
_geom_bond_atom_site_label_1
_geom_bond_atom_site_label_2
_geom_bond_distance
_geom_bond_site_symmetry_2
_ccdc_geom_bond_type
C0 C1 1.351 . S
C0 N3 1.368 . S
C0 H5 0.931 . S
C1 C0 1.351 . S
C1 N2 1.383 . S
C1 H29 0.930 . S
N2 C1 1.383 . S
N2 C4 1.340 . S
N3 C0 1.368 . S
N3 C4 1.321 . S
N3 Co6 2.135 . S
C4 N2 1.340 . S
C4 N3 1.321 . S
C4 H28 0.930 1_556 S
H5 C0 0.931 . S
Co6 N3 2.135 . S
Co6 N9 2.121 . S
Co6 O14 2.055 . S
Co6 O17 2.039 . S
Co6 N20 2.140 1_556 S
C7 O8 1.227 . S
C7 O17 1.265 1_554 S
O8 C7 1.227 . S
N9 Co6 2.121 . S
N9 C11 1.375 1_556 S
N9 C12 1.313 . S
C10 C11 1.338 . S
C10 N13 1.377 1_554 S
C10 H30 0.930 . S
C11 N9 1.375 1_554 S
C11 C10 1.338 . S
C11 H15 0.931 . S
C12 N9 1.313 . S
C12 N13 1.344 . S
C12 H16 0.930 . S
N13 C10 1.377 1_556 S
N13 C12 1.344 . S
O14 Co6 2.055 . S
O14 C18 1.253 . S
H15 C11 0.931 . S
H16 C12 0.930 . S
O17 Co6 2.039 . S
O17 C7 1.265 1_556 S
C18 O14 1.253 . S
C18 O19 1.227 . S
O19 C18 1.227 . S
N20 Co6 2.140 1_554 S
N20 C23 1.346 . S
N20 C24 1.345 . S
C21 C22 1.387 . S
C21 C25 1.391 . S
C22 C21 1.387 . S
C22 C23 1.369 . S
C22 H31 0.929 . S
C23 N20 1.346 . S
C23 C22 1.369 . S
C23 H26 0.928 . S
C24 N20 1.345 . S
C24 C25 1.371 . S
C24 H27 0.931 . S
C25 C21 1.391 . S
C25 C24 1.371 . S
C25 H32 0.930 . S
H26 C23 0.928 . S
H27 C24 0.931 . S
H28 C4 0.930 1_554 S
H29 C1 0.930 . S
H30 C10 0.930 . S
H31 C22 0.929 . S
H32 C25 0.930 . S
C33 C34 1.351 . S
C33 N36 1.368 . S
C33 H38 0.931 . S
C34 C33 1.351 . S
C34 N35 1.373 . S
C34 H62 0.930 . S
N35 C34 1.373 . S
N35 C37 1.340 . S
N36 C33 1.368 . S
N36 C37 1.321 . S
N36 Co39 2.135 . S
C37 N35 1.340 . S
C37 N36 1.321 . S
C37 H61 0.930 1_565 S
H38 C33 0.931 . S
Co39 N36 2.135 . S
Co39 N42 2.121 . S
Co39 O47 2.055 . S
Co39 O50 2.039 . S
Co39 N53 2.140 . S
C40 O41 1.227 . S
C40 O50 1.265 . S
O41 C40 1.227 . S
N42 Co39 2.121 . S
N42 C44 1.375 . S
N42 C45 1.313 . S
C43 C44 1.338 . S
C43 N46 1.377 . S
C43 H63 0.930 . S
C44 N42 1.375 . S
C44 C43 1.338 . S
C44 H48 0.931 . S
C45 N42 1.313 . S
C45 N46 1.344 . S
C45 H49 0.930 . S
N46 C43 1.377 . S
N46 C45 1.344 . S
O47 Co39 2.055 . S
O47 C51 1.253 . S
H48 C44 0.931 . S
H49 C45 0.930 . S
O50 Co39 2.039 . S
O50 C40 1.265 . S
C51 O47 1.253 . S
C51 O52 1.227 . S
O52 C51 1.227 . S
N53 Co39 2.140 . S
N53 C56 1.346 . S
N53 C57 1.345 . S
C54 C55 1.387 . S
C54 C58 1.391 . S
C55 C54 1.387 . S
C55 C56 1.369 . S
C55 H64 0.929 . S
C56 N53 1.346 . S
C56 C55 1.369 . S
C56 H59 0.928 . S
C57 N53 1.345 . S
C57 C58 1.371 . S
C57 H60 0.931 . S
C58 C54 1.391 . S
C58 C57 1.371 . S
C58 H65 0.930 . S
H59 C56 0.928 . S
H60 C57 0.931 . S
H61 C37 0.930 1_545 S
H62 C34 0.930 . S
H63 C43 0.930 . S
H64 C55 0.929 . S
H65 C58 0.930 . S
C66 C67 1.351 . S
C66 N69 1.368 . S
C66 H71 0.931 . S
C67 C66 1.351 . S
C67 N68 1.373 . S
C67 H95 0.930 . S
N68 C67 1.373 . S
N68 C70 1.340 . S
N69 C66 1.368 . S
N69 C70 1.321 . S
N69 Co72 2.135 . S
C70 N68 1.340 . S
C70 N69 1.321 . S
C70 H94 0.930 . S
H71 C66 0.931 . S
Co72 N69 2.135 . S
Co72 N75 2.121 . S
Co72 O80 2.055 . S
Co72 O83 2.039 . S
Co72 N86 2.140 . S
C73 O74 1.227 . S
C73 O83 1.265 . S
O74 C73 1.227 . S
N75 Co72 2.121 . S
N75 C77 1.375 . S
N75 C78 1.313 . S
C76 C77 1.338 . S
C76 N79 1.377 . S
C76 H96 0.930 . S
C77 N75 1.375 . S
C77 C76 1.338 . S
C77 H81 0.931 . S
C78 N75 1.313 . S
C78 N79 1.344 . S
C78 H82 0.930 . S
N79 C76 1.377 . S
N79 C78 1.344 . S
O80 Co72 2.055 . S
O80 C84 1.253 . S
H81 C77 0.931 . S
H82 C78 0.930 . S
O83 Co72 2.039 . S
O83 C73 1.265 . S
C84 O80 1.253 . S
C84 O85 1.227 . S
O85 C84 1.227 . S
N86 Co72 2.140 . S
N86 C89 1.346 . S
N86 C90 1.345 . S
C87 C88 1.387 . S
C87 C91 1.391 . S
C88 C87 1.387 . S
C88 C89 1.369 . S
C88 H97 0.929 . S
C89 N86 1.346 . S
C89 C88 1.369 . S
C89 H92 0.928 . S
C90 N86 1.345 . S
C90 C91 1.371 . S
C90 H93 0.931 . S
C91 C87 1.391 . S
C91 C90 1.371 . S
C91 H98 0.930 . S
H92 C89 0.928 . S
H93 C90 0.931 . S
H94 C70 0.930 . S
H95 C67 0.930 . S
H96 C76 0.930 . S
H97 C88 0.929 . S
H98 C91 0.930 . S
C99 C100 1.351 . S
C99 N102 1.368 . S
C99 H104 0.931 . S
C100 C99 1.351 . S
C100 N101 1.373 . S
C100 H128 0.930 . S
N101 C100 1.373 . S
N101 C103 1.340 . S
N102 C99 1.368 . S
N102 C103 1.321 . S
N102 Co105 2.135 . S
C103 N101 1.340 . S
C103 N102 1.321 . S
C103 H127 0.930 1_545 S
H104 C99 0.931 . S
Co105 N102 2.135 . S
Co105 N108 2.121 . S
Co105 O113 2.055 . S
Co105 O116 2.039 . S
Co105 N119 2.140 . S
C106 O107 1.227 . S
C106 O116 1.265 . S
O107 C106 1.227 . S
N108 Co105 2.121 . S
N108 C110 1.375 . S
N108 C111 1.313 . S
C109 C110 1.338 . S
C109 N112 1.377 . S
C109 H129 0.930 . S
C110 N108 1.375 . S
C110 C109 1.338 . S
C110 H114 0.931 . S
C111 N108 1.313 . S
C111 N112 1.344 . S
C111 H115 0.930 . S
N112 C109 1.377 . S
N112 C111 1.344 . S
O113 Co105 2.055 . S
O113 C117 1.253 . S
H114 C110 0.931 . S
H115 C111 0.930 . S
O116 Co105 2.039 . S
O116 C106 1.265 . S
C117 O113 1.253 . S
C117 O118 1.227 . S
O118 C117 1.227 . S
N119 Co105 2.140 . S
N119 C122 1.346 . S
N119 C123 1.345 . S
C120 C121 1.387 . S
C120 C124 1.391 . S
C121 C120 1.387 . S
C121 C122 1.369 . S
C121 H130 0.929 . S
C122 N119 1.346 . S
C122 C121 1.369 . S
C122 H125 0.928 . S
C123 N119 1.345 . S
C123 C124 1.371 . S
C123 H126 0.931 . S
C124 C120 1.391 . S
C124 C123 1.371 . S
C124 H131 0.930 . S
H125 C122 0.928 . S
H126 C123 0.931 . S
H127 C103 0.930 1_565 S
H128 C100 0.930 . S
H129 C109 0.930 . S
H130 C121 0.929 . S
H131 C124 0.930 . S
C132 C133 1.351 . S
C132 N135 1.368 . S
C132 H137 0.931 . S
C133 C132 1.351 . S
C133 N134 1.373 . S
C133 H161 0.930 . S
N134 C133 1.373 . S
N134 C136 1.340 . S
N135 C132 1.368 . S
N135 C136 1.321 . S
N135 Co138 2.135 . S
C136 N134 1.340 . S
C136 N135 1.321 . S
C136 H160 0.930 1_655 S
H137 C132 0.931 . S
Co138 N135 2.135 . S
Co138 N141 2.121 . S
Co138 O146 2.055 . S
Co138 O149 2.039 . S
Co138 N152 2.140 . S
C139 O140 1.227 . S
C139 O149 1.265 . S
O140 C139 1.227 . S
N141 Co138 2.121 . S
N141 C143 1.375 . S
N141 C144 1.313 . S
C142 C143 1.338 . S
C142 N145 1.377 . S
C142 H162 0.930 . S
C143 N141 1.375 . S
C143 C142 1.338 . S
C143 H147 0.931 . S
C144 N141 1.313 . S
C144 N145 1.344 . S
C144 H148 0.930 . S
N145 C142 1.377 . S
N145 C144 1.344 . S
O146 Co138 2.055 . S
O146 C150 1.253 . S
H147 C143 0.931 . S
H148 C144 0.930 . S
O149 Co138 2.039 . S
O149 C139 1.265 . S
C150 O146 1.253 . S
C150 O151 1.227 . S
O151 C150 1.227 . S
N152 Co138 2.140 . S
N152 C155 1.346 . S
N152 C156 1.345 . S
C153 C154 1.387 . S
C153 C157 1.391 . S
C154 C153 1.387 . S
C154 C155 1.369 . S
C154 H163 0.929 . S
C155 N152 1.346 . S
C155 C154 1.369 . S
C155 H158 0.928 . S
C156 N152 1.345 . S
C156 C157 1.371 . S
C156 H159 0.931 . S
C157 C153 1.391 . S
C157 C156 1.371 . S
C157 H164 0.930 . S
H158 C155 0.928 . S
H159 C156 0.931 . S
H160 C136 0.930 1_455 S
H161 C133 0.930 . S
H162 C142 0.930 . S
H163 C154 0.929 . S
H164 C157 0.930 . S
C165 C166 1.351 . S
C165 N168 1.368 . S
C165 H170 0.931 . S
C166 C165 1.351 . S
C166 N167 1.373 . S
C166 H194 0.930 . S
N167 C166 1.373 . S
N167 C169 1.340 . S
N168 C165 1.368 . S
N168 C169 1.321 . S
N168 Co171 2.135 . S
C169 N167 1.340 . S
C169 N168 1.321 . S
C169 H193 0.930 . S
H170 C165 0.931 . S
Co171 N168 2.135 . S
Co171 N174 2.121 . S
Co171 O179 2.055 . S
Co171 O182 2.039 . S
Co171 N185 2.140 1_554 S
C172 O173 1.227 1_554 S
C172 O182 1.265 . S
O173 C172 1.227 1_556 S
N174 Co171 2.121 . S
N174 C176 1.375 . S
N174 C177 1.313 . S
C175 C176 1.338 . S
C175 N178 1.377 . S
C175 H195 0.930 . S
C176 N174 1.375 . S
C176 C175 1.338 . S
C176 H180 0.931 1_554 S
C177 N174 1.313 . S
C177 N178 1.344 . S
C177 H181 0.930 . S
N178 C175 1.377 . S
N178 C177 1.344 . S
O179 Co171 2.055 . S
O179 C183 1.253 . S
H180 C176 0.931 1_556 S
H181 C177 0.930 . S
O182 Co171 2.039 . S
O182 C172 1.265 . S
C183 O179 1.253 . S
C183 O184 1.227 . S
O184 C183 1.227 . S
N185 Co171 2.140 1_556 S
N185 C188 1.346 . S
N185 C189 1.345 . S
C186 C187 1.387 . S
C186 C190 1.391 . S
C187 C186 1.387 . S
C187 C188 1.369 . S
C187 H196 0.929 . S
C188 N185 1.346 . S
C188 C187 1.369 . S
C188 H191 0.928 . S
C189 N185 1.345 . S
C189 C190 1.371 . S
C189 H192 0.931 1_556 S
C190 C186 1.391 . S
C190 C189 1.371 . S
C190 H197 0.930 . S
H191 C188 0.928 . S
H192 C189 0.931 1_554 S
H193 C169 0.930 . S
H194 C166 0.930 . S
H195 C175 0.930 . S
H196 C187 0.929 . S
H197 C190 0.930 . S
C198 C199 1.351 . S
C198 N201 1.368 . S
C198 H203 0.931 . S
C199 C198 1.351 . S
C199 N200 1.373 . S
C199 H227 0.930 . S
N200 C199 1.373 . S
N200 C202 1.340 . S
N201 C198 1.368 . S
N201 C202 1.321 . S
N201 Co204 2.135 . S
C202 N200 1.340 . S
C202 N201 1.321 . S
C202 H226 0.930 1_455 S
H203 C198 0.931 . S
Co204 N201 2.135 . S
Co204 N207 2.121 . S
Co204 O212 2.055 . S
Co204 O215 2.039 . S
Co204 N218 2.140 . S
C205 O206 1.227 . S
C205 O215 1.265 . S
O206 C205 1.227 . S
N207 Co204 2.121 . S
N207 C209 1.375 . S
N207 C210 1.313 . S
C208 C209 1.338 . S
C208 N211 1.377 . S
C208 H228 0.930 . S
C209 N207 1.375 . S
C209 C208 1.338 . S
C209 H213 0.931 . S
C210 N207 1.313 . S
C210 N211 1.344 . S
C210 H214 0.930 . S
N211 C208 1.377 . S
N211 C210 1.344 . S
O212 Co204 2.055 . S
O212 C216 1.253 . S
H213 C209 0.931 . S
H214 C210 0.930 . S
O215 Co204 2.039 . S
O215 C205 1.265 . S
C216 O212 1.253 . S
C216 O217 1.227 . S
O217 C216 1.227 . S
N218 Co204 2.140 . S
N218 C221 1.346 . S
N218 C222 1.345 . S
C219 C220 1.387 . S
C219 C223 1.391 . S
C220 C219 1.387 . S
C220 C221 1.369 . S
C220 H229 0.929 . S
C221 N218 1.346 . S
C221 C220 1.369 . S
C221 H224 0.928 . S
C222 N218 1.345 . S
C222 C223 1.371 . S
C222 H225 0.931 . S
C223 C219 1.391 . S
C223 C222 1.371 . S
C223 H230 0.930 . S
H224 C221 0.928 . S
H225 C222 0.931 . S
H226 C202 0.930 1_655 S
H227 C199 0.930 . S
H228 C208 0.930 . S
H229 C220 0.929 . S
H230 C223 0.930 . S
C231 C232 1.351 . S
C231 N234 1.368 . S
C231 H236 0.931 . S
C232 C231 1.351 . S
C232 N233 1.373 . S
C232 H260 0.930 . S
N233 C232 1.373 . S
N233 C235 1.340 . S
N234 C231 1.368 . S
N234 C235 1.321 . S
N234 Co237 2.135 . S
C235 N233 1.340 . S
C235 N234 1.321 . S
C235 H259 0.930 . S
H236 C231 0.931 . S
Co237 N234 2.135 . S
Co237 N240 2.121 . S
Co237 O245 2.055 . S
Co237 O248 2.039 . S
Co237 N251 2.140 . S
C238 O239 1.227 . S
C238 O248 1.265 . S
O239 C238 1.227 . S
N240 Co237 2.121 . S
N240 C242 1.375 . S
N240 C243 1.313 . S
C241 C242 1.338 . S
C241 N244 1.377 . S
C241 H261 0.930 . S
C242 N240 1.375 . S
C242 C241 1.338 . S
C242 H246 0.931 . S
C243 N240 1.313 . S
C243 N244 1.344 . S
C243 H247 0.930 . S
N244 C241 1.377 . S
N244 C243 1.344 . S
O245 Co237 2.055 . S
O245 C249 1.253 . S
H246 C242 0.931 . S
H247 C243 0.930 . S
O248 Co237 2.039 . S
O248 C238 1.265 . S
C249 O245 1.253 . S
C249 O250 1.227 . S
O250 C249 1.227 . S
N251 Co237 2.140 . S
N251 C254 1.346 . S
N251 C255 1.345 . S
C252 C253 1.387 . S
C252 C256 1.391 . S
C253 C252 1.387 . S
C253 C254 1.369 . S
C253 H262 0.929 . S
C254 N251 1.346 . S
C254 C253 1.369 . S
C254 H257 0.928 . S
C255 N251 1.345 . S
C255 C256 1.371 . S
C255 H258 0.931 . S
C256 C252 1.391 . S
C256 C255 1.371 . S
C256 H263 0.930 . S
H257 C254 0.928 . S
H258 C255 0.931 . S
H259 C235 0.930 . S
H260 C232 0.930 . S
H261 C241 0.930 . S
H262 C253 0.929 . S
H263 C256 0.930 . S
H264 C272 0.950 . S
H265 C277 0.950 . S
H266 C274 0.950 . S
H267 C276 0.950 . S
H268 C278 0.950 . S
H269 C280 0.950 . S
H270 C282 0.950 . S
H271 C283 0.950 . S
C272 H264 0.950 . S
C272 C273 1.386 1_556 S
C272 C274 1.391 . S
C273 C272 1.386 1_554 S
C273 C277 1.393 . S
C274 H266 0.950 . S
C274 C272 1.391 . S
C274 C275 1.400 1_556 S
C275 C274 1.400 1_554 S
C275 C276 1.398 . S
C275 C281 1.491 . S
C276 H267 0.950 . S
C276 C275 1.398 . S
C276 C277 1.391 . S
C277 H265 0.950 . S
C277 C273 1.393 . S
C277 C276 1.391 . S
C278 H268 0.950 . S
C278 C279 1.386 . S
C278 C280 1.391 . S
C279 C278 1.386 . S
C279 C283 1.393 1_554 S
C280 H269 0.950 . S
C280 C278 1.391 . S
C280 C281 1.400 . S
C281 C275 1.491 . S
C281 C280 1.400 . S
C281 C282 1.398 1_554 S
C282 H270 0.950 . S
C282 C281 1.398 1_556 S
C282 C283 1.391 . S
C283 H271 0.950 . S
C283 C279 1.393 1_556 S
C283 C282 1.391 . S
H284 C292 0.950 1_455 S
H285 C297 0.950 . S
H286 C294 0.950 . S
H287 C296 0.950 . S
H288 C298 0.950 . S
H289 C300 0.950 . S
H290 C302 0.950 . S
H291 C303 0.950 1_565 S
C292 H284 0.950 1_655 S
C292 C293 1.386 . S
C292 C294 1.391 . S
C293 C292 1.386 . S
C293 C297 1.393 . S
C294 H286 0.950 . S
C294 C292 1.391 . S
C294 C295 1.400 . S
C295 C294 1.400 . S
C295 C296 1.398 . S
C295 C301 1.491 . S
C296 H287 0.950 . S
C296 C295 1.398 . S
C296 C297 1.391 . S
C297 H285 0.950 . S
C297 C293 1.393 . S
C297 C296 1.391 . S
C298 H288 0.950 . S
C298 C299 1.386 . S
C298 C300 1.391 . S
C299 C298 1.386 . S
C299 C303 1.393 . S
C300 H289 0.950 . S
C300 C298 1.391 . S
C300 C301 1.400 . S
C301 C295 1.491 . S
C301 C300 1.400 . S
C301 C302 1.398 . S
C302 H290 0.950 . S
C302 C301 1.398 . S
C302 C303 1.391 . S
C303 H291 0.950 1_545 S
C303 C299 1.393 . S
C303 C302 1.391 . S
H304 C312 0.950 . S
H305 C317 0.950 . S
H306 C314 0.950 . S
H307 C316 0.950 . S
H308 C318 0.950 . S
H309 C320 0.950 . S
H310 C322 0.950 . S
H311 C323 0.950 . S
C312 H304 0.950 . S
C312 C313 1.386 . S
C312 C314 1.391 . S
C313 C312 1.386 . S
C313 C317 1.393 . S
C314 H306 0.950 . S
C314 C312 1.391 . S
C314 C315 1.400 . S
C315 C314 1.400 . S
C315 C316 1.398 . S
C315 C321 1.491 . S
C316 H307 0.950 . S
C316 C315 1.398 . S
C316 C317 1.391 . S
C317 H305 0.950 . S
C317 C313 1.393 . S
C317 C316 1.391 . S
C318 H308 0.950 . S
C318 C319 1.386 . S
C318 C320 1.391 . S
C319 C318 1.386 . S
C319 C323 1.393 . S
C320 H309 0.950 . S
C320 C318 1.391 . S
C320 C321 1.400 . S
C321 C315 1.491 . S
C321 C320 1.400 . S
C321 C322 1.398 . S
C322 H310 0.950 . S
C322 C321 1.398 . S
C322 C323 1.391 . S
C323 H311 0.950 . S
C323 C319 1.393 . S
C323 C322 1.391 . S
H324 C332 0.950 . S
H325 C337 0.950 . S
H326 C334 0.950 . S
H327 C336 0.950 . S
H328 C338 0.950 . S
H329 C340 0.950 . S
H330 C342 0.950 . S
H331 C343 0.950 . S
C332 H324 0.950 . S
C332 C333 1.386 . S
C332 C334 1.391 . S
C333 C332 1.386 . S
C333 C337 1.393 . S
C334 H326 0.950 . S
C334 C332 1.391 . S
C334 C335 1.400 . S
C335 C334 1.400 . S
C335 C336 1.398 . S
C335 C341 1.491 . S
C336 H327 0.950 . S
C336 C335 1.398 . S
C336 C337 1.391 . S
C337 H325 0.950 . S
C337 C333 1.393 . S
C337 C336 1.391 . S
C338 H328 0.950 . S
C338 C339 1.386 . S
C338 C340 1.391 . S
C339 C338 1.386 . S
C339 C343 1.393 . S
C340 H329 0.950 . S
C340 C338 1.391 . S
C340 C341 1.400 . S
C341 C335 1.491 . S
C341 C340 1.400 . S
C341 C342 1.398 . S
C342 H330 0.950 . S
C342 C341 1.398 . S
C342 C343 1.391 . S
C343 H331 0.950 . S
C343 C339 1.393 . S
C343 C342 1.391 . S
H344 C352 0.950 . S
H345 C357 0.950 . S
H346 C354 0.950 . S
H347 C356 0.950 . S
H348 C358 0.950 . S
H349 C360 0.950 . S
H350 C362 0.950 . S
H351 C363 0.950 . S
C352 H344 0.950 . S
C352 C353 1.386 . S
C352 C354 1.391 . S
C353 C352 1.386 . S
C353 C357 1.393 . S
C354 H346 0.950 . S
C354 C352 1.391 . S
C354 C355 1.400 . S
C355 C354 1.400 . S
C355 C356 1.398 . S
C355 C361 1.491 . S
C356 H347 0.950 . S
C356 C355 1.398 . S
C356 C357 1.391 . S
C357 H345 0.950 . S
C357 C353 1.393 . S
C357 C356 1.391 . S
C358 H348 0.950 . S
C358 C359 1.386 . S
C358 C360 1.391 . S
C359 C358 1.386 . S
C359 C363 1.393 . S
C360 H349 0.950 . S
C360 C358 1.391 . S
C360 C361 1.400 . S
C361 C355 1.491 . S
C361 C360 1.400 . S
C361 C362 1.398 . S
C362 H350 0.950 . S
C362 C361 1.398 . S
C362 C363 1.391 . S
C363 H351 0.950 . S
C363 C359 1.393 . S
C363 C362 1.391 . S
H364 C372 0.950 . S
H365 C377 0.950 . S
H366 C374 0.950 . S
H367 C376 0.950 . S
H368 C378 0.950 . S
H369 C380 0.950 . S
H370 C382 0.950 . S
H371 C383 0.950 . S
C372 H364 0.950 . S
C372 C373 1.386 . S
C372 C374 1.391 . S
C373 C372 1.386 . S
C373 C377 1.393 . S
C374 H366 0.950 . S
C374 C372 1.391 . S
C374 C375 1.400 . S
C375 C374 1.400 . S
C375 C376 1.398 . S
C375 C381 1.491 . S
C376 H367 0.950 . S
C376 C375 1.398 . S
C376 C377 1.391 . S
C377 H365 0.950 . S
C377 C373 1.393 . S
C377 C376 1.391 . S
C378 H368 0.950 . S
C378 C379 1.386 . S
C378 C380 1.391 . S
C379 C378 1.386 . S
C379 C383 1.393 . S
C380 H369 0.950 . S
C380 C378 1.391 . S
C380 C381 1.400 . S
C381 C375 1.491 . S
C381 C380 1.400 . S
C381 C382 1.398 . S
C382 H370 0.950 . S
C382 C381 1.398 . S
C382 C383 1.391 . S
C383 H371 0.950 . S
C383 C379 1.393 . S
C383 C382 1.391 . S
H384 C392 0.950 . S
H385 C397 0.950 . S
H386 C394 0.950 . S
H387 C396 0.950 . S
H388 C398 0.950 . S
H389 C400 0.950 . S
H390 C402 0.950 . S
H391 C403 0.950 . S
C392 H384 0.950 . S
C392 C393 1.386 . S
C392 C394 1.391 . S
C393 C392 1.386 . S
C393 C397 1.393 . S
C394 H386 0.950 . S
C394 C392 1.391 . S
C394 C395 1.400 . S
C395 C394 1.400 . S
C395 C396 1.398 . S
C395 C401 1.491 . S
C396 H387 0.950 . S
C396 C395 1.398 . S
C396 C397 1.391 . S
C397 H385 0.950 . S
C397 C393 1.393 . S
C397 C396 1.391 . S
C398 H388 0.950 . S
C398 C399 1.386 . S
C398 C400 1.391 . S
C399 C398 1.386 . S
C399 C403 1.393 . S
C400 H389 0.950 . S
C400 C398 1.391 . S
C400 C401 1.400 . S
C401 C395 1.491 . S
C401 C400 1.400 . S
C401 C402 1.398 . S
C402 H390 0.950 . S
C402 C401 1.398 . S
C402 C403 1.391 . S
C403 H391 0.950 . S
C403 C399 1.393 . S
C403 C402 1.391 . S
H404 C412 0.950 . S
H405 C417 0.950 . S
H406 C414 0.950 . S
H407 C416 0.950 1_554 S
H408 C418 0.950 . S
H409 C420 0.950 . S
H410 C422 0.950 . S
H411 C423 0.950 . S
C412 H404 0.950 . S
C412 C413 1.386 . S
C412 C414 1.391 . S
C413 C412 1.386 . S
C413 C417 1.393 . S
C414 H406 0.950 . S
C414 C412 1.391 . S
C414 C415 1.400 . S
C415 C414 1.400 . S
C415 C416 1.398 . S
C415 C421 1.491 1_556 S
C416 H407 0.950 1_556 S
C416 C415 1.398 . S
C416 C417 1.391 . S
C417 H405 0.950 . S
C417 C413 1.393 . S
C417 C416 1.391 . S
C418 H408 0.950 . S
C418 C419 1.386 . S
C418 C420 1.391 . S
C419 C418 1.386 . S
C419 C423 1.393 . S
C420 H409 0.950 . S
C420 C418 1.391 . S
C420 C421 1.400 . S
C421 C415 1.491 1_554 S
C421 C420 1.400 . S
C421 C422 1.398 . S
C422 H410 0.950 . S
C422 C421 1.398 . S
C422 C423 1.391 . S
C423 H411 0.950 . S
C423 C419 1.393 . S
C423 C422 1.391 . S
H424 C432 0.950 . S
H425 C437 0.950 . S
H426 C434 0.950 . S
H427 C436 0.950 . S
H428 C438 0.950 . S
H429 C440 0.950 . S
H430 C442 0.950 . S
H431 C443 0.950 . S
C432 H424 0.950 . S
C432 C433 1.386 . S
C432 C434 1.391 . S
C433 C432 1.386 . S
C433 C437 1.393 . S
C434 H426 0.950 . S
C434 C432 1.391 . S
C434 C435 1.400 . S
C435 C434 1.400 . S
C435 C436 1.398 . S
C435 C441 1.491 . S
C436 H427 0.950 . S
C436 C435 1.398 . S
C436 C437 1.391 . S
C437 H425 0.950 . S
C437 C433 1.393 . S
C437 C436 1.391 . S
C438 H428 0.950 . S
C438 C439 1.386 . S
C438 C440 1.391 . S
C439 C438 1.386 . S
C439 C443 1.393 . S
C440 H429 0.950 . S
C440 C438 1.391 . S
C440 C441 1.400 . S
C441 C435 1.491 . S
C441 C440 1.400 . S
C441 C442 1.398 . S
C442 H430 0.950 . S
C442 C441 1.398 . S
C442 C443 1.391 . S
C443 H431 0.950 . S
C443 C439 1.393 . S
C443 C442 1.391 . S
H444 C452 0.950 . S
H445 C457 0.950 . S
H446 C454 0.950 . S
H447 C456 0.950 1_556 S
H448 C458 0.950 . S
H449 C460 0.950 . S
H450 C462 0.950 . S
H451 C463 0.950 . S
C452 H444 0.950 . S
C452 C453 1.386 . S
C452 C454 1.391 . S
C453 C452 1.386 . S
C453 C457 1.393 . S
C454 H446 0.950 . S
C454 C452 1.391 . S
C454 C455 1.400 . S
C455 C454 1.400 . S
C455 C456 1.398 . S
C455 C461 1.491 1_554 S
C456 H447 0.950 1_554 S
C456 C455 1.398 . S
C456 C457 1.391 . S
C457 H445 0.950 . S
C457 C453 1.393 . S
C457 C456 1.391 . S
C458 H448 0.950 . S
C458 C459 1.386 . S
C458 C460 1.391 . S
C459 C458 1.386 . S
C459 C463 1.393 . S
C460 H449 0.950 . S
C460 C458 1.391 . S
C460 C461 1.400 . S
C461 C455 1.491 1_556 S
C461 C460 1.400 . S
C461 C462 1.398 1_556 S
C462 H450 0.950 . S
C462 C461 1.398 1_554 S
C462 C463 1.391 1_554 S
C463 H451 0.950 . S
C463 C459 1.393 . S
C463 C462 1.391 1_556 S
H464 C472 0.950 . S
H465 C477 0.950 . S
H466 C474 0.950 . S
H467 C476 0.950 . S
H468 C478 0.950 . S
H469 C480 0.950 . S
H470 C482 0.950 . S
H471 C483 0.950 . S
C472 H464 0.950 . S
C472 C473 1.386 . S
C472 C474 1.391 . S
C473 C472 1.386 . S
C473 C477 1.393 . S
C474 H466 0.950 . S
C474 C472 1.391 . S
C474 C475 1.400 . S
C475 C474 1.400 . S
C475 C476 1.398 . S
C475 C481 1.491 . S
C476 H467 0.950 . S
C476 C475 1.398 . S
C476 C477 1.391 . S
C477 H465 0.950 . S
C477 C473 1.393 . S
C477 C476 1.391 . S
C478 H468 0.950 . S
C478 C479 1.386 . S
C478 C480 1.391 . S
C479 C478 1.386 . S
C479 C483 1.393 . S
C480 H469 0.950 . S
C480 C478 1.391 . S
C480 C481 1.400 . S
C481 C475 1.491 . S
C481 C480 1.400 . S
C481 C482 1.398 . S
C482 H470 0.950 . S
C482 C481 1.398 . S
C482 C483 1.391 . S
C483 H471 0.950 . S
C483 C479 1.393 . S
C483 C482 1.391 . S
H484 C492 0.950 . S
H485 C497 0.950 . S
H486 C494 0.950 . S
H487 C496 0.950 . S
H488 C498 0.950 . S
H489 C500 0.950 . S
H490 C502 0.950 . S
H491 C503 0.950 . S
C492 H484 0.950 . S
C492 C493 1.386 . S
C492 C494 1.391 . S
C493 C492 1.386 . S
C493 C497 1.393 . S
C494 H486 0.950 . S
C494 C492 1.391 . S
C494 C495 1.400 . S
C495 C494 1.400 . S
C495 C496 1.398 . S
C495 C501 1.491 . S
C496 H487 0.950 . S
C496 C495 1.398 . S
C496 C497 1.391 . S
C497 H485 0.950 . S
C497 C493 1.393 . S
C497 C496 1.391 . S
C498 H488 0.950 . S
C498 C499 1.386 . S
C498 C500 1.391 . S
C499 C498 1.386 . S
C499 C503 1.393 . S
C500 H489 0.950 . S
C500 C498 1.391 . S
C500 C501 1.400 . S
C501 C495 1.491 . S
C501 C500 1.400 . S
C501 C502 1.398 . S
C502 H490 0.950 . S
C502 C501 1.398 . S
C502 C503 1.391 . S
C503 H491 0.950 . S
C503 C499 1.393 . S
C503 C502 1.391 . S
H504 C512 0.950 . S
H505 C517 0.950 . S
H506 C514 0.950 . S
H507 C516 0.950 . S
H508 C518 0.950 . S
H509 C520 0.950 . S
H510 C522 0.950 . S
H511 C523 0.950 . S
C512 H504 0.950 . S
C512 C513 1.386 . S
C512 C514 1.391 . S
C513 C512 1.386 . S
C513 C517 1.393 . S
C514 H506 0.950 . S
C514 C512 1.391 . S
C514 C515 1.400 . S
C515 C514 1.400 . S
C515 C516 1.398 . S
C515 C521 1.491 . S
C516 H507 0.950 . S
C516 C515 1.398 . S
C516 C517 1.391 . S
C517 H505 0.950 . S
C517 C513 1.393 . S
C517 C516 1.391 . S
C518 H508 0.950 . S
C518 C519 1.386 . S
C518 C520 1.391 . S
C519 C518 1.386 . S
C519 C523 1.393 . S
C520 H509 0.950 . S
C520 C518 1.391 . S
C520 C521 1.400 . S
C521 C515 1.491 . S
C521 C520 1.400 . S
C521 C522 1.398 . S
C522 H510 0.950 . S
C522 C521 1.398 . S
C522 C523 1.391 . S
C523 H511 0.950 . S
C523 C519 1.393 . S
C523 C522 1.391 . S
H524 C532 0.950 . S
H525 C537 0.950 1_556 S
H526 C534 0.950 . S
H527 C536 0.950 . S
H528 C538 0.950 . S
H529 C540 0.950 . S
H530 C542 0.950 . S
H531 C543 0.950 . S
C532 H524 0.950 . S
C532 C533 1.386 . S
C532 C534 1.391 . S
C533 C532 1.386 . S
C533 C537 1.393 . S
C534 H526 0.950 . S
C534 C532 1.391 . S
C534 C535 1.400 . S
C535 C534 1.400 . S
C535 C536 1.398 . S
C535 C541 1.491 . S
C536 H527 0.950 . S
C536 C535 1.398 . S
C536 C537 1.391 . S
C537 H525 0.950 1_554 S
C537 C533 1.393 . S
C537 C536 1.391 . S
C538 H528 0.950 . S
C538 C539 1.386 . S
C538 C540 1.391 . S
C539 C538 1.386 . S
C539 C543 1.393 . S
C540 H529 0.950 . S
C540 C538 1.391 . S
C540 C541 1.400 . S
C541 C535 1.491 . S
C541 C540 1.400 . S
C541 C542 1.398 . S
C542 H530 0.950 . S
C542 C541 1.398 . S
C542 C543 1.391 . S
C543 H531 0.950 . S
C543 C539 1.393 . S
C543 C542 1.391 . S
H544 C552 0.950 . S
H545 C557 0.950 . S
H546 C554 0.950 . S
H547 C556 0.950 . S
H548 C558 0.950 . S
H549 C560 0.950 . S
H550 C562 0.950 . S
H551 C563 0.950 . S
C552 H544 0.950 . S
C552 C553 1.386 . S
C552 C554 1.391 . S
C553 C552 1.386 . S
C553 C557 1.393 . S
C554 H546 0.950 . S
C554 C552 1.391 . S
C554 C555 1.400 . S
C555 C554 1.400 . S
C555 C556 1.398 . S
C555 C561 1.491 . S
C556 H547 0.950 . S
C556 C555 1.398 . S
C556 C557 1.391 . S
C557 H545 0.950 . S
C557 C553 1.393 . S
C557 C556 1.391 . S
C558 H548 0.950 . S
C558 C559 1.386 . S
C558 C560 1.391 . S
C559 C558 1.386 . S
C559 C563 1.393 . S
C560 H549 0.950 . S
C560 C558 1.391 . S
C560 C561 1.400 . S
C561 C555 1.491 . S
C561 C560 1.400 . S
C561 C562 1.398 . S
C562 H550 0.950 . S
C562 C561 1.398 . S
C562 C563 1.391 . S
C563 H551 0.950 . S
C563 C559 1.393 . S
C563 C562 1.391 . S
H564 C572 0.950 . S
H565 C577 0.950 . S
H566 C574 0.950 . S
H567 C576 0.950 . S
H568 C578 0.950 . S
H569 C580 0.950 . S
H570 C582 0.950 . S
H571 C583 0.950 . S
C572 H564 0.950 . S
C572 C573 1.386 . S
C572 C574 1.391 . S
C573 C572 1.386 . S
C573 C577 1.393 . S
C574 H566 0.950 . S
C574 C572 1.391 . S
C574 C575 1.400 . S
C575 C574 1.400 . S
C575 C576 1.398 . S
C575 C581 1.491 . S
C576 H567 0.950 . S
C576 C575 1.398 . S
C576 C577 1.391 . S
C577 H565 0.950 . S
C577 C573 1.393 . S
C577 C576 1.391 . S
C578 H568 0.950 . S
C578 C579 1.386 . S
C578 C580 1.391 . S
C579 C578 1.386 . S
C579 C583 1.393 . S
C580 H569 0.950 . S
C580 C578 1.391 . S
C580 C581 1.400 . S
C581 C575 1.491 . S
C581 C580 1.400 . S
C581 C582 1.398 . S
C582 H570 0.950 . S
C582 C581 1.398 . S
C582 C583 1.391 . S
C583 H571 0.950 . S
C583 C579 1.393 . S
C583 C582 1.391 . S
H584 C592 0.950 . S
H585 C597 0.950 . S
H586 C594 0.950 . S
H587 C596 0.950 . S
H588 C598 0.950 . S
H589 C600 0.950 . S
H590 C602 0.950 . S
H591 C603 0.950 . S
C592 H584 0.950 . S
C592 C593 1.386 . S
C592 C594 1.391 . S
C593 C592 1.386 . S
C593 C597 1.393 . S
C594 H586 0.950 . S
C594 C592 1.391 . S
C594 C595 1.400 . S
C595 C594 1.400 . S
C595 C596 1.398 . S
C595 C601 1.491 . S
C596 H587 0.950 . S
C596 C595 1.398 . S
C596 C597 1.391 . S
C597 H585 0.950 . S
C597 C593 1.393 . S
C597 C596 1.391 . S
C598 H588 0.950 . S
C598 C599 1.386 . S
C598 C600 1.391 . S
C599 C598 1.386 . S
C599 C603 1.393 1_556 S
C600 H589 0.950 . S
C600 C598 1.391 . S
C600 C601 1.400 . S
C601 C595 1.491 . S
C601 C600 1.400 . S
C601 C602 1.398 . S
C602 H590 0.950 . S
C602 C601 1.398 . S
C602 C603 1.391 1_556 S
C603 H591 0.950 . S
C603 C599 1.393 1_554 S
C603 C602 1.391 1_554 S
H604 C612 0.950 . S
H605 C617 0.950 . S
H606 C614 0.950 . S
H607 C616 0.950 . S
H608 C618 0.950 . S
H609 C620 0.950 . S
H610 C622 0.950 . S
H611 C623 0.950 . S
C612 H604 0.950 . S
C612 C613 1.386 . S
C612 C614 1.391 . S
C613 C612 1.386 . S
C613 C617 1.393 . S
C614 H606 0.950 . S
C614 C612 1.391 . S
C614 C615 1.400 . S
C615 C614 1.400 . S
C615 C616 1.398 . S
C615 C621 1.491 . S
C616 H607 0.950 . S
C616 C615 1.398 . S
C616 C617 1.391 . S
C617 H605 0.950 . S
C617 C613 1.393 . S
C617 C616 1.391 . S
C618 H608 0.950 . S
C618 C619 1.386 . S
C618 C620 1.391 . S
C619 C618 1.386 . S
C619 C623 1.393 . S
C620 H609 0.950 . S
C620 C618 1.391 . S
C620 C621 1.400 . S
C621 C615 1.491 . S
C621 C620 1.400 . S
C621 C622 1.398 . S
C622 H610 0.950 . S
C622 C621 1.398 . S
C622 C623 1.391 . S
C623 H611 0.950 . S
C623 C619 1.393 . S
C623 C622 1.391 . S
H624 C632 0.950 . S
H625 C637 0.950 . S
H626 C634 0.950 . S
H627 C636 0.950 . S
H628 C638 0.950 . S
H629 C640 0.950 . S
H630 C642 0.950 . S
H631 C643 0.950 . S
C632 H624 0.950 . S
C632 C633 1.386 . S
C632 C634 1.391 . S
C633 C632 1.386 . S
C633 C637 1.393 . S
C634 H626 0.950 . S
C634 C632 1.391 . S
C634 C635 1.400 . S
C635 C634 1.400 . S
C635 C636 1.398 . S
C635 C641 1.491 . S
C636 H627 0.950 . S
C636 C635 1.398 . S
C636 C637 1.391 . S
C637 H625 0.950 . S
C637 C633 1.393 . S
C637 C636 1.391 . S
C638 H628 0.950 . S
C638 C639 1.386 . S
C638 C640 1.391 . S
C639 C638 1.386 . S
C639 C643 1.393 . S
C640 H629 0.950 . S
C640 C638 1.391 . S
C640 C641 1.400 . S
C641 C635 1.491 . S
C641 C640 1.400 . S
C641 C642 1.398 . S
C642 H630 0.950 . S
C642 C641 1.398 . S
C642 C643 1.391 . S
C643 H631 0.950 . S
C643 C639 1.393 . S
C643 C642 1.391 . S
H644 C652 0.950 . S
H645 C657 0.950 . S
H646 C654 0.950 . S
H647 C656 0.950 . S
H648 C658 0.950 1_655 S
H649 C660 0.950 . S
H650 C662 0.950 . S
H651 C663 0.950 . S
C652 H644 0.950 . S
C652 C653 1.386 . S
C652 C654 1.391 . S
C653 C652 1.386 . S
C653 C657 1.393 . S
C654 H646 0.950 . S
C654 C652 1.391 . S
C654 C655 1.400 . S
C655 C654 1.400 . S
C655 C656 1.398 . S
C655 C661 1.491 . S
C656 H647 0.950 . S
C656 C655 1.398 . S
C656 C657 1.391 . S
C657 H645 0.950 . S
C657 C653 1.393 . S
C657 C656 1.391 . S
C658 H648 0.950 1_455 S
C658 C659 1.386 . S
C658 C660 1.391 . S
C659 C658 1.386 . S
C659 C663 1.393 . S
C660 H649 0.950 . S
C660 C658 1.391 . S
C660 C661 1.400 . S
C661 C655 1.491 . S
C661 C660 1.400 . S
C661 C662 1.398 . S
C662 H650 0.950 . S
C662 C661 1.398 . S
C662 C663 1.391 . S
C663 H651 0.950 . S
C663 C659 1.393 . S
C663 C662 1.391 . S
C273 N167 1.268 . S
C279 N2 1.268 1_554 S
C293 N200 1.256 1_655 S
C299 N35 1.248 1_545 S
C313 N68 1.254 . S
C319 N233 1.247 . S
C333 N134 1.260 1_455 S
C339 N101 1.249 1_565 S
C353 C252 0.894 . S
C359 C21 0.885 . S
C373 C54 0.887 . S
C379 C153 0.894 . S
C393 C186 0.889 . S
C399 C87 0.891 . S
C413 C120 0.883 . S
C419 C219 0.897 . S
C433 C249 1.580 . S
C439 C18 1.580 . S
C453 C51 1.591 . S
C459 C150 1.591 . S
C473 C183 1.582 . S
C479 C84 1.582 . S
C493 C216 1.589 . S
C499 C117 1.589 . S
C513 N13 1.668 . S
C519 C106 1.672 1_565 S
C533 C7 1.669 . S
C539 N46 1.667 . S
C553 C40 1.668 1_545 S
C559 N79 1.683 . S
C573 C73 1.682 . S
C579 N112 1.687 . S
C593 N145 1.687 . S
C599 C172 1.682 1_556 S
C613 C205 1.666 1_655 S
C619 N178 1.666 . S
C633 C238 1.681 . S
C639 N211 1.676 . S
C653 N244 1.686 . S
C659 C139 1.682 1_455 S
