# Generated by pormake.
# Topology yfs, (5)-cn, num edge types: 1
# Building blocks:
#     Node 0, Type 0, BuildingBlock: BEQFEK_clean_sbu_0, # of connection points: 5
#     Node 1, Type 0, BuildingBlock: BEQFEK_clean_sbu_0, # of connection points: 5
#     Node 2, Type 0, BuildingBlock: BEQFEK_clean_sbu_0, # of connection points: 5
#     Node 3, Type 0, BuildingBlock: BEQFEK_clean_sbu_0, # of connection points: 5
#     Node 4, Type 0, BuildingBlock: BEQFEK_clean_sbu_0, # of connection points: 5
#     Node 5, Type 0, BuildingBlock: BEQFEK_clean_sbu_0, # of connection points: 5
#     Node 6, Type 0, BuildingBlock: BEQFEK_clean_sbu_0, # of connection points: 5
#     Node 7, Type 0, BuildingBlock: BEQFEK_clean_sbu_0, # of connection points: 5
#     Node 8, Type 0, BuildingBlock: BEQFEK_clean_sbu_0, # of connection points: 5
#     Node 9, Type 0, BuildingBlock: BEQFEK_clean_sbu_0, # of connection points: 5
#     Node 10, Type 0, BuildingBlock: BEQFEK_clean_sbu_0, # of connection points: 5
#     Node 11, Type 0, BuildingBlock: BEQFEK_clean_sbu_0, # of connection points: 5
#     Node 12, Type 0, BuildingBlock: BEQFEK_clean_sbu_0, # of connection points: 5
#     Node 13, Type 0, BuildingBlock: BEQFEK_clean_sbu_0, # of connection points: 5
#     Node 14, Type 0, BuildingBlock: BEQFEK_clean_sbu_0, # of connection points: 5
#     Node 15, Type 0, BuildingBlock: BEQFEK_clean_sbu_0, # of connection points: 5
#     Node 16, Type 0, BuildingBlock: BEQFEK_clean_sbu_0, # of connection points: 5
#     Node 17, Type 0, BuildingBlock: BEQFEK_clean_sbu_0, # of connection points: 5
#     Node 18, Type 0, BuildingBlock: BEQFEK_clean_sbu_0, # of connection points: 5
#     Node 19, Type 0, BuildingBlock: BEQFEK_clean_sbu_0, # of connection points: 5
#     Node 20, Type 0, BuildingBlock: BEQFEK_clean_sbu_0, # of connection points: 5
#     Node 21, Type 0, BuildingBlock: BEQFEK_clean_sbu_0, # of connection points: 5
#     Node 22, Type 0, BuildingBlock: BEQFEK_clean_sbu_0, # of connection points: 5
#     Node 23, Type 0, BuildingBlock: BEQFEK_clean_sbu_0, # of connection points: 5
#     Node 24, Type 0, BuildingBlock: BEQFEK_clean_sbu_0, # of connection points: 5
#     Node 25, Type 0, BuildingBlock: BEQFEK_clean_sbu_0, # of connection points: 5
#     Node 26, Type 0, BuildingBlock: BEQFEK_clean_sbu_0, # of connection points: 5
#     Node 27, Type 0, BuildingBlock: BEQFEK_clean_sbu_0, # of connection points: 5
#     Node 28, Type 0, BuildingBlock: BEQFEK_clean_sbu_0, # of connection points: 5
#     Node 29, Type 0, BuildingBlock: BEQFEK_clean_sbu_0, # of connection points: 5
#     Node 30, Type 0, BuildingBlock: BEQFEK_clean_sbu_0, # of connection points: 5
#     Node 31, Type 0, BuildingBlock: BEQFEK_clean_sbu_0, # of connection points: 5
#     Edge 32, Type (0, 0), BuildingBlock: CIFDUS_clean_linker_0, # of connection points: 2
#     Edge 33, Type (0, 0), BuildingBlock: CIFDUS_clean_linker_0, # of connection points: 2
#     Edge 34, Type (0, 0), BuildingBlock: CIFDUS_clean_linker_0, # of connection points: 2
#     Edge 35, Type (0, 0), BuildingBlock: CIFDUS_clean_linker_0, # of connection points: 2
#     Edge 36, Type (0, 0), BuildingBlock: CIFDUS_clean_linker_0, # of connection points: 2
#     Edge 37, Type (0, 0), BuildingBlock: CIFDUS_clean_linker_0, # of connection points: 2
#     Edge 38, Type (0, 0), BuildingBlock: CIFDUS_clean_linker_0, # of connection points: 2
#     Edge 39, Type (0, 0), BuildingBlock: CIFDUS_clean_linker_0, # of connection points: 2
#     Edge 40, Type (0, 0), BuildingBlock: CIFDUS_clean_linker_0, # of connection points: 2
#     Edge 41, Type (0, 0), BuildingBlock: CIFDUS_clean_linker_0, # of connection points: 2
#     Edge 42, Type (0, 0), BuildingBlock: CIFDUS_clean_linker_0, # of connection points: 2
#     Edge 43, Type (0, 0), BuildingBlock: CIFDUS_clean_linker_0, # of connection points: 2
#     Edge 44, Type (0, 0), BuildingBlock: CIFDUS_clean_linker_0, # of connection points: 2
#     Edge 45, Type (0, 0), BuildingBlock: CIFDUS_clean_linker_0, # of connection points: 2
#     Edge 46, Type (0, 0), BuildingBlock: CIFDUS_clean_linker_0, # of connection points: 2
#     Edge 47, Type (0, 0), BuildingBlock: CIFDUS_clean_linker_0, # of connection points: 2
#     Edge 48, Type (0, 0), BuildingBlock: CIFDUS_clean_linker_0, # of connection points: 2
#     Edge 49, Type (0, 0), BuildingBlock: CIFDUS_clean_linker_0, # of connection points: 2
#     Edge 50, Type (0, 0), BuildingBlock: CIFDUS_clean_linker_0, # of connection points: 2
#     Edge 51, Type (0, 0), BuildingBlock: CIFDUS_clean_linker_0, # of connection points: 2
#     Edge 52, Type (0, 0), BuildingBlock: CIFDUS_clean_linker_0, # of connection points: 2
#     Edge 53, Type (0, 0), BuildingBlock: CIFDUS_clean_linker_0, # of connection points: 2
#     Edge 54, Type (0, 0), BuildingBlock: CIFDUS_clean_linker_0, # of connection points: 2
#     Edge 55, Type (0, 0), BuildingBlock: CIFDUS_clean_linker_0, # of connection points: 2
#     Edge 56, Type (0, 0), BuildingBlock: CIFDUS_clean_linker_0, # of connection points: 2
#     Edge 57, Type (0, 0), BuildingBlock: CIFDUS_clean_linker_0, # of connection points: 2
#     Edge 58, Type (0, 0), BuildingBlock: CIFDUS_clean_linker_0, # of connection points: 2
#     Edge 59, Type (0, 0), BuildingBlock: CIFDUS_clean_linker_0, # of connection points: 2
#     Edge 60, Type (0, 0), BuildingBlock: CIFDUS_clean_linker_0, # of connection points: 2
#     Edge 61, Type (0, 0), BuildingBlock: CIFDUS_clean_linker_0, # of connection points: 2
#     Edge 62, Type (0, 0), BuildingBlock: CIFDUS_clean_linker_0, # of connection points: 2
#     Edge 63, Type (0, 0), BuildingBlock: CIFDUS_clean_linker_0, # of connection points: 2
#     Edge 64, Type (0, 0), BuildingBlock: CIFDUS_clean_linker_0, # of connection points: 2
#     Edge 65, Type (0, 0), BuildingBlock: CIFDUS_clean_linker_0, # of connection points: 2
#     Edge 66, Type (0, 0), BuildingBlock: CIFDUS_clean_linker_0, # of connection points: 2
#     Edge 67, Type (0, 0), BuildingBlock: CIFDUS_clean_linker_0, # of connection points: 2
#     Edge 68, Type (0, 0), BuildingBlock: CIFDUS_clean_linker_0, # of connection points: 2
#     Edge 69, Type (0, 0), BuildingBlock: CIFDUS_clean_linker_0, # of connection points: 2
#     Edge 70, Type (0, 0), BuildingBlock: CIFDUS_clean_linker_0, # of connection points: 2
#     Edge 71, Type (0, 0), BuildingBlock: CIFDUS_clean_linker_0, # of connection points: 2
#     Edge 72, Type (0, 0), BuildingBlock: CIFDUS_clean_linker_0, # of connection points: 2
#     Edge 73, Type (0, 0), BuildingBlock: CIFDUS_clean_linker_0, # of connection points: 2
#     Edge 74, Type (0, 0), BuildingBlock: CIFDUS_clean_linker_0, # of connection points: 2
#     Edge 75, Type (0, 0), BuildingBlock: CIFDUS_clean_linker_0, # of connection points: 2
#     Edge 76, Type (0, 0), BuildingBlock: CIFDUS_clean_linker_0, # of connection points: 2
#     Edge 77, Type (0, 0), BuildingBlock: CIFDUS_clean_linker_0, # of connection points: 2
#     Edge 78, Type (0, 0), BuildingBlock: CIFDUS_clean_linker_0, # of connection points: 2
#     Edge 79, Type (0, 0), BuildingBlock: CIFDUS_clean_linker_0, # of connection points: 2
#     Edge 80, Type (0, 0), BuildingBlock: CIFDUS_clean_linker_0, # of connection points: 2
#     Edge 81, Type (0, 0), BuildingBlock: CIFDUS_clean_linker_0, # of connection points: 2
#     Edge 82, Type (0, 0), BuildingBlock: CIFDUS_clean_linker_0, # of connection points: 2
#     Edge 83, Type (0, 0), BuildingBlock: CIFDUS_clean_linker_0, # of connection points: 2
#     Edge 84, Type (0, 0), BuildingBlock: CIFDUS_clean_linker_0, # of connection points: 2
#     Edge 85, Type (0, 0), BuildingBlock: CIFDUS_clean_linker_0, # of connection points: 2
#     Edge 86, Type (0, 0), BuildingBlock: CIFDUS_clean_linker_0, # of connection points: 2
#     Edge 87, Type (0, 0), BuildingBlock: CIFDUS_clean_linker_0, # of connection points: 2
#     Edge 88, Type (0, 0), BuildingBlock: CIFDUS_clean_linker_0, # of connection points: 2
#     Edge 89, Type (0, 0), BuildingBlock: CIFDUS_clean_linker_0, # of connection points: 2
#     Edge 90, Type (0, 0), BuildingBlock: CIFDUS_clean_linker_0, # of connection points: 2
#     Edge 91, Type (0, 0), BuildingBlock: CIFDUS_clean_linker_0, # of connection points: 2
#     Edge 92, Type (0, 0), BuildingBlock: CIFDUS_clean_linker_0, # of connection points: 2
#     Edge 93, Type (0, 0), BuildingBlock: CIFDUS_clean_linker_0, # of connection points: 2
#     Edge 94, Type (0, 0), BuildingBlock: CIFDUS_clean_linker_0, # of connection points: 2
#     Edge 95, Type (0, 0), BuildingBlock: CIFDUS_clean_linker_0, # of connection points: 2
#     Edge 96, Type (0, 0), BuildingBlock: CIFDUS_clean_linker_0, # of connection points: 2
#     Edge 97, Type (0, 0), BuildingBlock: CIFDUS_clean_linker_0, # of connection points: 2
#     Edge 98, Type (0, 0), BuildingBlock: CIFDUS_clean_linker_0, # of connection points: 2
#     Edge 99, Type (0, 0), BuildingBlock: CIFDUS_clean_linker_0, # of connection points: 2
#     Edge 100, Type (0, 0), BuildingBlock: CIFDUS_clean_linker_0, # of connection points: 2
#     Edge 101, Type (0, 0), BuildingBlock: CIFDUS_clean_linker_0, # of connection points: 2
#     Edge 102, Type (0, 0), BuildingBlock: CIFDUS_clean_linker_0, # of connection points: 2
#     Edge 103, Type (0, 0), BuildingBlock: CIFDUS_clean_linker_0, # of connection points: 2
#     Edge 104, Type (0, 0), BuildingBlock: CIFDUS_clean_linker_0, # of connection points: 2
#     Edge 105, Type (0, 0), BuildingBlock: CIFDUS_clean_linker_0, # of connection points: 2
#     Edge 106, Type (0, 0), BuildingBlock: CIFDUS_clean_linker_0, # of connection points: 2
#     Edge 107, Type (0, 0), BuildingBlock: CIFDUS_clean_linker_0, # of connection points: 2
#     Edge 108, Type (0, 0), BuildingBlock: CIFDUS_clean_linker_0, # of connection points: 2
#     Edge 109, Type (0, 0), BuildingBlock: CIFDUS_clean_linker_0, # of connection points: 2
#     Edge 110, Type (0, 0), BuildingBlock: CIFDUS_clean_linker_0, # of connection points: 2
#     Edge 111, Type (0, 0), BuildingBlock: CIFDUS_clean_linker_0, # of connection points: 2
# Relax obj value: 0.323
# Max RMSD: 0.169
# Mean RMSD: 0.169
data_MOF--net-yfs--node1-BEQFEK_clean_sbu_0--edge1-CIFDUS_clean_linker_0
_symmetry_space_group_name_H-M    P1
_symmetry_Int_Tables_number       1
_symmetry_cell_setting            triclinic
loop_
_symmetry_equiv_pos_as_xyz
'x, y, z'
_cell_length_a     44.310533
_cell_length_b     44.178928
_cell_length_c     75.800114
_cell_angle_alpha  89.981514
_cell_angle_beta   89.941001
_cell_angle_gamma 89.918248
loop_
_atom_site_label
_atom_site_type_symbol
_atom_site_fract_x
_atom_site_fract_y
_atom_site_fract_z
_atom_type_partial_charge
Co0 Co 0.41613 0.12298 0.1831 0.0
Co1 Co 0.36884 0.14941 0.21003 0.0
C2 C 0.36411 0.16202 0.17135 0.0
O3 O 0.38746 0.14614 0.16792 0.0
O4 O 0.35426 0.16465 0.18705 0.0
C5 C 0.44308 0.09568 0.15207 0.0
O6 O 0.41538 0.09485 0.14593 0.0
C7 C 0.31215 0.16874 0.22668 0.0
C8 C 0.32823 0.18115 0.25332 0.0
C9 C 0.30315 0.18195 0.24245 0.0
N10 N 0.34129 0.16067 0.22818 0.0
N11 N 0.35058 0.16763 0.24424 0.0
C12 C 0.29506 0.16795 0.20968 0.0
H13 H 0.29826 0.18979 0.2027 0.0
H14 H 0.30358 0.14935 0.2012 0.0
H15 H 0.27059 0.16477 0.21194 0.0
C16 C 0.39951 0.06605 0.20169 0.0
N17 N 0.39588 0.09579 0.19842 0.0
N18 N 0.37621 0.107 0.20972 0.0
C19 C 0.36666 0.08478 0.22051 0.0
C20 C 0.38113 0.05801 0.21582 0.0
C21 C 0.42112 0.04621 0.19187 0.0
H22 H 0.41929 0.05074 0.17752 0.0
H23 H 0.41666 0.02189 0.19444 0.0
H24 H 0.44449 0.05173 0.196 0.0
O25 O 0.43939 0.15243 0.19704 0.0
O26 O 0.40571 0.1723 0.21533 0.0
H27 H 0.3586 0.10659 0.24519 0.0
H28 H 0.34262 0.06936 0.24395 0.0
C29 C 0.34717 0.09026 0.23635 0.0
H30 H 0.32546 0.10045 0.23209 0.0
H31 H 0.37272 0.16481 0.24863 0.0
O32 O 0.44749 0.10419 0.16786 0.0
C33 C 0.43232 0.17091 0.20919 0.0
Co34 Co 0.11329 0.17921 0.43021 0.0
Co35 Co 0.08739 0.13312 0.45785 0.0
C36 C 0.07012 0.1284 0.42026 0.0
O37 O 0.08666 0.15106 0.41631 0.0
O38 O 0.06876 0.11848 0.43599 0.0
C39 C 0.14137 0.19968 0.39781 0.0
O40 O 0.14177 0.17083 0.39362 0.0
C41 C 0.06456 0.07999 0.4765 0.0
C42 C 0.06416 0.096 0.50413 0.0
C43 C 0.05602 0.07195 0.49346 0.0
N44 N 0.07676 0.10772 0.47706 0.0
N45 N 0.07667 0.11711 0.49362 0.0
C46 C 0.06172 0.06158 0.46002 0.0
H47 H 0.04077 0.0682 0.45301 0.0
H48 H 0.08117 0.06605 0.45117 0.0
H49 H 0.06069 0.03704 0.46311 0.0
C50 C 0.1701 0.16289 0.4492 0.0
N51 N 0.1408 0.15836 0.44518 0.0
N52 N 0.12972 0.13766 0.45587 0.0
C53 C 0.15178 0.12746 0.46647 0.0
C54 C 0.17797 0.14359 0.46301 0.0
C55 C 0.18869 0.18798 0.44162 0.0
H56 H 0.17408 0.20753 0.43822 0.0
H57 H 0.19966 0.17986 0.42933 0.0
H58 H 0.20648 0.19534 0.45097 0.0
O59 O 0.08718 0.20521 0.44485 0.0
O60 O 0.06793 0.17185 0.46358 0.0
H61 H 0.13785 0.11279 0.49211 0.0
H62 H 0.16966 0.0923 0.4833 0.0
C63 C 0.14772 0.10299 0.47994 0.0
H64 H 0.1322 0.08541 0.47482 0.0
H65 H 0.0843 0.13835 0.49766 0.0
O66 O 0.13253 0.2074 0.41313 0.0
C67 C 0.06991 0.19866 0.45769 0.0
Co68 Co 0.07159 0.87472 0.67662 0.0
Co69 Co 0.10893 0.83777 0.70405 0.0
C70 C 0.11636 0.8294 0.66447 0.0
O71 O 0.0987 0.85128 0.66079 0.0
O72 O 0.12152 0.82199 0.68043 0.0
C73 C 0.05054 0.90752 0.64629 0.0
O74 O 0.0786 0.90543 0.64081 0.0
C75 C 0.15956 0.80479 0.71902 0.0
C76 C 0.14212 0.79291 0.74546 0.0
C77 C 0.16586 0.7878 0.73394 0.0
N78 N 0.13303 0.81883 0.72147 0.0
N79 N 0.12281 0.81184 0.73734 0.0
C80 C 0.17826 0.80777 0.70267 0.0
H81 H 0.17476 0.8304 0.69664 0.0
H82 H 0.20256 0.80448 0.70568 0.0
H83 H 0.17121 0.79034 0.693 0.0
C84 C 0.09189 0.92538 0.69976 0.0
N85 N 0.09283 0.89631 0.69444 0.0
N86 N 0.10911 0.8806 0.70573 0.0
C87 C 0.119 0.89908 0.71861 0.0
C88 C 0.10833 0.92818 0.71532 0.0
C89 C 0.07411 0.94948 0.69058 0.0
H90 H 0.07634 0.9468 0.67609 0.0
H91 H 0.0818 0.9724 0.69452 0.0
H92 H 0.04991 0.94693 0.69403 0.0
O93 O 0.04349 0.84522 0.68723 0.0
O94 O 0.06846 0.82267 0.70885 0.0
H95 H 0.14087 0.90629 0.74402 0.0
H96 H 0.15412 0.87414 0.73146 0.0
C97 C 0.13401 0.88781 0.73505 0.0
H98 H 0.11808 0.87296 0.74225 0.0
H99 H 0.10191 0.81876 0.74228 0.0
O100 O 0.04417 0.89952 0.66194 0.0
C101 C 0.04445 0.82692 0.70015 0.0
Co102 Co 0.37931 0.82041 0.93422 0.0
Co103 Co 0.41167 0.86645 0.95936 0.0
C104 C 0.41866 0.87142 0.92052 0.0
O105 O 0.40158 0.84861 0.91794 0.0
O106 O 0.42395 0.88105 0.93602 0.0
C107 C 0.3534 0.79225 0.90345 0.0
O108 O 0.35755 0.81871 0.89593 0.0
C109 C 0.44031 0.91924 0.97516 0.0
C110 C 0.45021 0.90235 0.00199 0.0
C111 C 0.45543 0.92631 0.99061 0.0
N112 N 0.42742 0.89201 0.97715 0.0
N113 N 0.43305 0.88219 0.99329 0.0
C114 C 0.43775 0.93807 0.95884 0.0
H115 H 0.41597 0.93354 0.95213 0.0
H116 H 0.43944 0.96252 0.96205 0.0
H117 H 0.45635 0.93208 0.94972 0.0
C118 C 0.32748 0.83716 0.95755 0.0
N119 N 0.35572 0.84121 0.95137 0.0
N120 N 0.36943 0.86151 0.96124 0.0
C121 C 0.35017 0.87177 0.97356 0.0
C122 C 0.32311 0.85629 0.97194 0.0
C123 C 0.30674 0.81278 0.95122 0.0
H124 H 0.31994 0.79326 0.9462 0.0
H125 H 0.29284 0.8218 0.94024 0.0
H126 H 0.29146 0.80505 0.96191 0.0
O127 O 0.40894 0.79519 0.94656 0.0
O128 O 0.43272 0.82809 0.96359 0.0
H129 H 0.37064 0.88548 0.99779 0.0
H130 H 0.33705 0.90648 0.99216 0.0
C131 C 0.35777 0.89576 0.98677 0.0
H132 H 0.37195 0.91343 0.98052 0.0
H133 H 0.42646 0.86105 0.99805 0.0
O134 O 0.35756 0.7897 0.91996 0.0
C135 C 0.42909 0.80139 0.95786 0.0
Co136 Co 0.44119 0.85688 0.31468 0.0
Co137 Co 0.39451 0.82451 0.29025 0.0
C138 C 0.39053 0.82048 0.32987 0.0
O139 O 0.4134 0.83756 0.33203 0.0
O140 O 0.38094 0.8141 0.31448 0.0
C141 C 0.47066 0.89045 0.34262 0.0
O142 O 0.44367 0.89278 0.34969 0.0
C143 C 0.33626 0.80433 0.27697 0.0
C144 C 0.34878 0.78518 0.25104 0.0
C145 C 0.32481 0.78857 0.26263 0.0
N146 N 0.36567 0.80953 0.27406 0.0
N147 N 0.37301 0.79822 0.2585 0.0
C148 C 0.3198 0.81487 0.29308 0.0
H149 H 0.33019 0.83599 0.29815 0.0
H150 H 0.29559 0.81889 0.29014 0.0
H151 H 0.32159 0.79732 0.30351 0.0
C152 C 0.42415 0.90924 0.29242 0.0
N153 N 0.42047 0.88046 0.29778 0.0
N154 N 0.40154 0.8667 0.28711 0.0
C155 C 0.39286 0.88619 0.2744 0.0
C156 C 0.40697 0.9139 0.27731 0.0
C157 C 0.44445 0.93139 0.30144 0.0
H158 H 0.4682 0.92652 0.29772 0.0
H159 H 0.44241 0.9288 0.31594 0.0
H160 H 0.43882 0.95503 0.29773 0.0
O161 O 0.46422 0.82479 0.3026 0.0
O162 O 0.43123 0.80099 0.28561 0.0
H163 H 0.38579 0.85707 0.25233 0.0
H164 H 0.37306 0.89512 0.24862 0.0
C165 C 0.37485 0.87691 0.2586 0.0
H166 H 0.35192 0.86999 0.26289 0.0
H167 H 0.39478 0.79851 0.25325 0.0
O168 O 0.47337 0.8788 0.3274 0.0
C169 C 0.45778 0.80415 0.29157 0.0
Co170 Co 0.36757 0.17072 0.57236 0.0
Co171 Co 0.39365 0.12111 0.54692 0.0
C172 C 0.4046 0.11733 0.58553 0.0
O173 O 0.38992 0.14181 0.58806 0.0
O174 O 0.40705 0.106 0.57016 0.0
C175 C 0.33531 0.1958 0.60231 0.0
O176 O 0.33101 0.16751 0.60703 0.0
C177 C 0.42151 0.06864 0.52962 0.0
C178 C 0.41952 0.08262 0.50163 0.0
C179 C 0.43074 0.06051 0.51277 0.0
N180 N 0.40533 0.0943 0.52843 0.0
N181 N 0.40401 0.10237 0.51165 0.0
C182 C 0.43255 0.05598 0.54674 0.0
H183 H 0.41318 0.05268 0.55581 0.0
H184 H 0.44479 0.03431 0.54517 0.0
H185 H 0.44819 0.0726 0.55276 0.0
C186 C 0.31251 0.15806 0.55145 0.0
N187 N 0.34087 0.15132 0.55651 0.0
N188 N 0.35152 0.12955 0.54639 0.0
C189 C 0.32981 0.12091 0.53504 0.0
C190 C 0.30459 0.13909 0.53756 0.0
C191 C 0.29524 0.18477 0.55825 0.0
H192 H 0.31089 0.20375 0.561 0.0
H193 H 0.28404 0.17843 0.57082 0.0
H194 H 0.27784 0.19239 0.54872 0.0
O195 O 0.3971 0.19382 0.55861 0.0
O196 O 0.41722 0.15798 0.54182 0.0
H197 H 0.34248 0.10421 0.5096 0.0
H198 H 0.31055 0.08536 0.5192 0.0
C199 C 0.33291 0.09548 0.52212 0.0
H200 H 0.3481 0.07773 0.52744 0.0
H201 H 0.3942 0.12245 0.50718 0.0
O202 O 0.34809 0.20136 0.58767 0.0
C203 C 0.41592 0.18529 0.54699 0.0
Co204 Co 0.05832 0.13082 0.81706 0.0
Co205 Co 0.1087 0.15668 0.79187 0.0
C206 C 0.11463 0.16253 0.83065 0.0
O207 O 0.0895 0.14895 0.8328 0.0
O208 O 0.12569 0.1667 0.81532 0.0
C209 C 0.03294 0.1007 0.84748 0.0
O210 O 0.06132 0.09628 0.85178 0.0
C211 C 0.16269 0.18112 0.77419 0.0
C212 C 0.14655 0.18432 0.74666 0.0
C213 C 0.17074 0.19108 0.75747 0.0
N214 N 0.13492 0.16905 0.77329 0.0
N215 N 0.12543 0.17109 0.7568 0.0
C216 C 0.18074 0.18341 0.7908 0.0
H217 H 0.17248 0.20297 0.79862 0.0
H218 H 0.17769 0.16262 0.79881 0.0
H219 H 0.20508 0.18661 0.78788 0.0
C220 C 0.06981 0.07562 0.79532 0.0
N221 N 0.07606 0.10427 0.80018 0.0
N222 N 0.09754 0.115 0.7899 0.0
C223 C 0.10592 0.09337 0.77834 0.0
C224 C 0.08845 0.06768 0.78125 0.0
C225 C 0.04594 0.05664 0.8038 0.0
H226 H 0.02342 0.06501 0.79963 0.0
H227 H 0.04736 0.05888 0.81834 0.0
H228 H 0.04828 0.03245 0.80009 0.0
O229 O 0.03714 0.16445 0.80507 0.0
O230 O 0.07391 0.18344 0.78868 0.0
H231 H 0.11609 0.11128 0.75289 0.0
H232 H 0.13646 0.07749 0.75772 0.0
C233 C 0.12774 0.09868 0.76353 0.0
H234 H 0.14711 0.11224 0.76828 0.0
H235 H 0.10398 0.16453 0.7526 0.0
O236 O 0.02687 0.11235 0.83255 0.0
C237 C 0.04699 0.18423 0.79434 0.0
Co238 Co 0.11696 0.82202 0.06678 0.0
Co239 Co 0.08285 0.86802 0.04201 0.0
C240 C 0.07735 0.87316 0.08076 0.0
O241 O 0.09444 0.85015 0.0827 0.0
O242 O 0.07123 0.8835 0.06549 0.0
C243 C 0.14913 0.80043 0.09737 0.0
O244 O 0.14845 0.82891 0.10234 0.0
C245 C 0.04879 0.91698 0.02452 0.0
C246 C 0.05332 0.90387 0.99648 0.0
C247 C 0.04018 0.92508 0.00752 0.0
N248 N 0.06677 0.89251 0.02347 0.0
N249 N 0.06914 0.88467 0.00669 0.0
C250 C 0.03645 0.92882 0.04157 0.0
H251 H 0.02732 0.90962 0.04931 0.0
H252 H 0.05496 0.93929 0.04929 0.0
H253 H 0.01801 0.94543 0.03962 0.0
C254 C 0.16761 0.83893 0.04314 0.0
N255 N 0.13948 0.84294 0.04946 0.0
N256 N 0.12557 0.8636 0.0399 0.0
C257 C 0.14495 0.87448 0.02778 0.0
C258 C 0.17197 0.85869 0.02906 0.0
C259 C 0.18821 0.81405 0.04905 0.0
H260 H 0.17497 0.79499 0.05458 0.0
H261 H 0.20332 0.82285 0.05952 0.0
H262 H 0.20231 0.80569 0.03797 0.0
O263 O 0.0881 0.79584 0.05483 0.0
O264 O 0.06252 0.82872 0.03855 0.0
H265 H 0.12891 0.89167 0.00309 0.0
H266 H 0.15928 0.91298 0.01252 0.0
C267 C 0.13829 0.90036 0.01564 0.0
H268 H 0.12172 0.916 0.02176 0.0
H269 H 0.08081 0.8656 0.00226 0.0
O270 O 0.14006 0.79359 0.08199 0.0
C271 C 0.06716 0.80191 0.04399 0.0
Co272 Co 0.55176 0.85555 0.80908 0.0
Co273 Co 0.6034 0.82582 0.78698 0.0
C274 C 0.60013 0.81632 0.82587 0.0
O275 O 0.57658 0.83289 0.82683 0.0
O276 O 0.61336 0.81182 0.81118 0.0
C277 C 0.52266 0.8885 0.83698 0.0
O278 O 0.55015 0.89167 0.8432 0.0
C279 C 0.65898 0.79804 0.77338 0.0
C280 C 0.64855 0.79635 0.74484 0.0
C281 C 0.66966 0.78759 0.75728 0.0
N282 N 0.63274 0.81246 0.7705 0.0
N283 N 0.62677 0.81156 0.75343 0.0
C284 C 0.67053 0.79038 0.79138 0.0
H285 H 0.65516 0.77354 0.79745 0.0
H286 H 0.67037 0.81097 0.79976 0.0
H287 H 0.69352 0.7806 0.79109 0.0
C288 C 0.57131 0.9096 0.78909 0.0
N289 N 0.57542 0.8809 0.79458 0.0
N290 N 0.59774 0.86856 0.78561 0.0
C291 C 0.60904 0.88936 0.77442 0.0
C292 C 0.5924 0.91584 0.77601 0.0
C293 C 0.54499 0.92871 0.79452 0.0
H294 H 0.52399 0.91512 0.7938 0.0
H295 H 0.54802 0.93576 0.80846 0.0
H296 H 0.54261 0.94914 0.78612 0.0
O297 O 0.52993 0.82693 0.79406 0.0
O298 O 0.56674 0.80454 0.77922 0.0
H299 H 0.62569 0.87309 0.74972 0.0
H300 H 0.64554 0.90546 0.75811 0.0
C301 C 0.63453 0.88383 0.76187 0.0
H302 H 0.65151 0.86864 0.76795 0.0
H303 H 0.60701 0.82002 0.74777 0.0
O304 O 0.5191 0.87654 0.82192 0.0
C305 C 0.53893 0.80773 0.78277 0.0
Co306 Co 0.88879 0.81123 0.5626 0.0
Co307 Co 0.915 0.86457 0.53987 0.0
C308 C 0.92326 0.86401 0.57862 0.0
O309 O 0.90874 0.83914 0.58002 0.0
O310 O 0.92698 0.87681 0.56374 0.0
C311 C 0.85245 0.77735 0.58888 0.0
O312 O 0.84313 0.80344 0.59518 0.0
C313 C 0.93659 0.92216 0.52511 0.0
C314 C 0.93867 0.91072 0.49673 0.0
C315 C 0.94497 0.93342 0.50874 0.0
N316 N 0.92602 0.89397 0.52286 0.0
N317 N 0.92728 0.8873 0.50588 0.0
C318 C 0.93806 0.93787 0.54257 0.0
H319 H 0.91837 0.93137 0.55078 0.0
H320 H 0.9384 0.96283 0.54089 0.0
H321 H 0.95887 0.93071 0.54955 0.0
C322 C 0.83436 0.82606 0.5414 0.0
N323 N 0.86245 0.83209 0.5472 0.0
N324 N 0.87326 0.85543 0.53843 0.0
C325 C 0.85197 0.86574 0.52731 0.0
C326 C 0.82692 0.84712 0.52847 0.0
C327 C 0.81688 0.7985 0.54658 0.0
H328 H 0.8324 0.77897 0.54817 0.0
H329 H 0.80577 0.80269 0.55948 0.0
H330 H 0.79937 0.79284 0.53667 0.0
O331 O 0.92011 0.79134 0.54838 0.0
O332 O 0.93991 0.82949 0.53332 0.0
H333 H 0.86672 0.8865 0.50332 0.0
H334 H 0.833 0.90285 0.51248 0.0
C335 C 0.85538 0.89305 0.51578 0.0
H336 H 0.86914 0.91047 0.52254 0.0
H337 H 0.92101 0.86642 0.50059 0.0
O338 O 0.86965 0.77698 0.57545 0.0
C339 C 0.93909 0.80166 0.53736 0.0
Co340 Co 0.92294 0.13521 0.31195 0.0
Co341 Co 0.87439 0.16214 0.28613 0.0
C342 C 0.87328 0.17679 0.3247 0.0
O343 O 0.89613 0.15998 0.32775 0.0
O344 O 0.86235 0.17912 0.30923 0.0
C345 C 0.95222 0.10923 0.34273 0.0
O346 O 0.92535 0.11 0.35006 0.0
C347 C 0.81857 0.1858 0.27038 0.0
C348 C 0.83274 0.19118 0.24257 0.0
C349 C 0.80939 0.19724 0.25419 0.0
N350 N 0.84619 0.17367 0.26839 0.0
N351 N 0.85427 0.17645 0.25168 0.0
C352 C 0.80358 0.19028 0.28788 0.0
H353 H 0.81256 0.21118 0.29402 0.0
H354 H 0.8086 0.17084 0.29667 0.0
H355 H 0.77882 0.1928 0.28656 0.0
C356 C 0.90514 0.07853 0.2934 0.0
N357 N 0.90125 0.10808 0.29723 0.0
N358 N 0.88034 0.1194 0.28679 0.0
C359 C 0.8697 0.09725 0.27632 0.0
C360 C 0.8853 0.07062 0.27992 0.0
C361 C 0.92995 0.05957 0.301 0.0
H362 H 0.95043 0.07355 0.30296 0.0
H363 H 0.92271 0.0509 0.31407 0.0
H364 H 0.93557 0.04013 0.29234 0.0
O365 O 0.94606 0.16316 0.29705 0.0
O366 O 0.91177 0.18331 0.27931 0.0
H367 H 0.85482 0.11239 0.25101 0.0
H368 H 0.83476 0.07976 0.25924 0.0
C369 C 0.84519 0.10165 0.26298 0.0
H370 H 0.8275 0.11679 0.26841 0.0
H371 H 0.87527 0.1699 0.24673 0.0
O372 O 0.95493 0.1162 0.32655 0.0
C373 C 0.9388 0.18117 0.28471 0.0
Co374 Co 0.61638 0.18492 0.07393 0.0
Co375 Co 0.59292 0.13151 0.05081 0.0
C376 C 0.58054 0.13289 0.08931 0.0
O377 O 0.59496 0.15768 0.09095 0.0
O378 O 0.57857 0.11972 0.07445 0.0
C379 C 0.6491 0.21212 0.10233 0.0
O380 O 0.65564 0.18395 0.10639 0.0
C381 C 0.57242 0.0731 0.03783 0.0
C382 C 0.56443 0.08341 0.0097 0.0
C383 C 0.56021 0.06132 0.02245 0.0
N384 N 0.58259 0.10108 0.03438 0.0
N385 N 0.5782 0.10696 0.0175 0.0
C386 C 0.57487 0.05819 0.0555 0.0
H387 H 0.59564 0.0659 0.06231 0.0
H388 H 0.57538 0.03318 0.05414 0.0
H389 H 0.55517 0.06469 0.0637 0.0
C390 C 0.67322 0.16996 0.05478 0.0
N391 N 0.64446 0.16402 0.05943 0.0
N392 N 0.63458 0.14097 0.05009 0.0
C393 C 0.65684 0.13116 0.03943 0.0
C394 C 0.682 0.14937 0.04186 0.0
C395 C 0.69038 0.19704 0.06105 0.0
H396 H 0.67497 0.21675 0.06222 0.0
H397 H 0.69973 0.19219 0.07433 0.0
H398 H 0.7092 0.20277 0.05199 0.0
O399 O 0.58544 0.20499 0.05922 0.0
O400 O 0.56826 0.16633 0.04358 0.0
H401 H 0.64149 0.11318 0.01488 0.0
H402 H 0.67621 0.09657 0.02271 0.0
C403 C 0.65378 0.10534 0.02678 0.0
H404 H 0.6407 0.08678 0.03298 0.0
H405 H 0.5831 0.12766 0.01153 0.0
O406 O 0.63473 0.21746 0.08818 0.0
C407 C 0.56744 0.19413 0.0478 0.0
Co408 Co 0.55927 0.13369 0.68899 0.0
Co409 Co 0.61664 0.15797 0.70863 0.0
C410 C 0.61184 0.16422 0.66996 0.0
O411 O 0.58601 0.15144 0.67033 0.0
O412 O 0.62739 0.16768 0.68395 0.0
C413 C 0.52266 0.10242 0.66278 0.0
O414 O 0.54833 0.09465 0.65535 0.0
C415 C 0.66844 0.19085 0.72277 0.0
C416 C 0.66445 0.18015 0.75118 0.0
C417 C 0.68023 0.1978 0.73926 0.0
N418 N 0.64711 0.16955 0.72491 0.0
N419 N 0.64476 0.16342 0.74192 0.0
C420 C 0.67258 0.20817 0.70596 0.0
H421 H 0.65016 0.21402 0.70042 0.0
H422 H 0.68447 0.19364 0.69623 0.0
H423 H 0.68549 0.22936 0.70791 0.0
C424 C 0.57385 0.07894 0.70998 0.0
N425 N 0.58038 0.10685 0.70395 0.0
N426 N 0.60553 0.11637 0.71135 0.0
C427 C 0.61654 0.09408 0.72166 0.0
C428 C 0.59649 0.07002 0.72153 0.0
C429 C 0.54503 0.0627 0.70602 0.0
H430 H 0.52615 0.07915 0.70519 0.0
H431 H 0.54715 0.05136 0.69301 0.0
H432 H 0.53986 0.04541 0.71619 0.0
O433 O 0.54254 0.16672 0.70304 0.0
O434 O 0.58359 0.18554 0.71541 0.0
H435 H 0.644 0.1001 0.74467 0.0
H436 H 0.65721 0.07167 0.72982 0.0
C437 C 0.64672 0.09449 0.73052 0.0
H438 H 0.66189 0.11117 0.72414 0.0
H439 H 0.62797 0.1498 0.74739 0.0
O440 O 0.52308 0.11634 0.67743 0.0
C441 C 0.55536 0.18622 0.71273 0.0
Co442 Co 0.61628 0.82141 0.43583 0.0
Co443 Co 0.58445 0.86611 0.46235 0.0
C444 C 0.57901 0.87516 0.42361 0.0
O445 O 0.5951 0.85174 0.42057 0.0
O446 O 0.57374 0.8839 0.43932 0.0
C447 C 0.64945 0.79942 0.40531 0.0
O448 O 0.6491 0.82772 0.39999 0.0
C449 C 0.55203 0.91488 0.48058 0.0
C450 C 0.55263 0.89853 0.50815 0.0
C451 C 0.54137 0.9212 0.4974 0.0
N452 N 0.5692 0.88986 0.48141 0.0
N453 N 0.5695 0.88024 0.49793 0.0
C454 C 0.54161 0.9285 0.46357 0.0
H455 H 0.52921 0.91093 0.45609 0.0
H456 H 0.56149 0.93555 0.45567 0.0
H457 H 0.52632 0.94805 0.46542 0.0
C458 C 0.66774 0.83373 0.4596 0.0
N459 N 0.63967 0.83961 0.45375 0.0
N460 N 0.62669 0.85936 0.46435 0.0
C461 C 0.64659 0.86764 0.47685 0.0
C462 C 0.67299 0.85122 0.47453 0.0
C463 C 0.68731 0.80909 0.45228 0.0
H464 H 0.6732 0.78951 0.44836 0.0
H465 H 0.69899 0.81762 0.44032 0.0
H466 H 0.70442 0.80146 0.46199 0.0
O467 O 0.58601 0.7956 0.44704 0.0
O468 O 0.56212 0.82781 0.46464 0.0
H469 H 0.63067 0.88068 0.50239 0.0
H470 H 0.66223 0.90233 0.49459 0.0
C471 C 0.6408 0.89134 0.49056 0.0
H472 H 0.62512 0.9088 0.4854 0.0
H473 H 0.57989 0.86023 0.50206 0.0
O474 O 0.63898 0.79297 0.42046 0.0
C475 C 0.56545 0.80151 0.45818 0.0
Co476 Co 0.92336 0.8706 0.17798 0.0
Co477 Co 0.87375 0.84241 0.20234 0.0
C478 C 0.87227 0.83165 0.16371 0.0
O479 O 0.89601 0.84764 0.16183 0.0
O480 O 0.8601 0.82812 0.17881 0.0
C481 C 0.94765 0.90522 0.14886 0.0
O482 O 0.91929 0.90956 0.14447 0.0
C483 C 0.81963 0.81676 0.2192 0.0
C484 C 0.83365 0.8171 0.24721 0.0
C485 C 0.8107 0.80812 0.23602 0.0
N486 N 0.84661 0.83042 0.22047 0.0
N487 N 0.85472 0.83075 0.23724 0.0
C488 C 0.80524 0.80855 0.202 0.0
H489 H 0.8197 0.79171 0.19518 0.0
H490 H 0.80384 0.82894 0.19349 0.0
H491 H 0.78247 0.79869 0.20372 0.0
C492 C 0.90652 0.92587 0.19789 0.0
N493 N 0.90221 0.89671 0.19337 0.0
N494 N 0.88062 0.88516 0.20321 0.0
C495 C 0.86987 0.90697 0.21399 0.0
C496 C 0.88617 0.93342 0.21118 0.0
C497 C 0.93196 0.94476 0.19101 0.0
H498 H 0.95208 0.93038 0.18863 0.0
H499 H 0.92512 0.95505 0.17827 0.0
H500 H 0.93801 0.96307 0.20037 0.0
O501 O 0.94672 0.8413 0.19184 0.0
O502 O 0.91092 0.81938 0.20779 0.0
H503 H 0.85287 0.89308 0.2391 0.0
H504 H 0.83306 0.92468 0.22955 0.0
C505 C 0.8442 0.90274 0.22659 0.0
H506 H 0.82734 0.88697 0.22094 0.0
H507 H 0.87529 0.8392 0.24178 0.0
O508 O 0.95365 0.8913 0.16309 0.0
C509 C 0.93831 0.82161 0.20301 0.0
Co510 Co 0.87572 0.1909 0.937 0.0
Co511 Co 0.90243 0.13656 0.95857 0.0
C512 C 0.90931 0.13875 0.91954 0.0
O513 O 0.89506 0.16389 0.91904 0.0
O514 O 0.91335 0.1247 0.93406 0.0
C515 C 0.84241 0.22569 0.91042 0.0
O516 O 0.83504 0.19971 0.90319 0.0
C517 C 0.93196 0.08244 0.97348 0.0
C518 C 0.9256 0.09093 0.00201 0.0
C519 C 0.93927 0.07147 0.99013 0.0
N520 N 0.91438 0.10703 0.97552 0.0
N521 N 0.91073 0.11194 0.99258 0.0
C522 C 0.94539 0.07326 0.95616 0.0
H523 H 0.95623 0.09325 0.94998 0.0
H524 H 0.92713 0.06552 0.94722 0.0
H525 H 0.96254 0.05516 0.95756 0.0
C526 C 0.82092 0.1748 0.95725 0.0
N527 N 0.84957 0.16956 0.95216 0.0
N528 N 0.86032 0.14605 0.96081 0.0
C529 C 0.83831 0.13499 0.9713 0.0
C530 C 0.81285 0.15311 0.96964 0.0
C531 C 0.80296 0.20181 0.95157 0.0
H532 H 0.81774 0.22202 0.95101 0.0
H533 H 0.79403 0.19773 0.9381 0.0
H534 H 0.78382 0.20632 0.96064 0.0
O535 O 0.90737 0.21023 0.95092 0.0
O536 O 0.92819 0.17146 0.96484 0.0
H537 H 0.84856 0.11286 0.99567 0.0
H538 H 0.81853 0.09569 0.98345 0.0
C539 C 0.84086 0.10687 0.98221 0.0
H540 H 0.85714 0.09084 0.97618 0.0
H541 H 0.89949 0.13068 0.99781 0.0
O542 O 0.85695 0.22576 0.92484 0.0
C543 C 0.92718 0.19949 0.96123 0.0
Co544 Co 0.9178 0.62826 0.67616 0.0
Co545 Co 0.8779 0.66022 0.70482 0.0
C546 C 0.86167 0.66063 0.66588 0.0
O547 O 0.88341 0.64299 0.66181 0.0
O548 O 0.85704 0.66849 0.68187 0.0
C549 C 0.94579 0.60266 0.64528 0.0
O550 O 0.91977 0.60791 0.63756 0.0
C551 C 0.82882 0.68904 0.72454 0.0
C552 C 0.8473 0.68957 0.75165 0.0
C553 C 0.82272 0.69839 0.74164 0.0
N554 N 0.85554 0.67476 0.7245 0.0
N555 N 0.86654 0.67525 0.74071 0.0
C556 C 0.81241 0.69767 0.70804 0.0
H557 H 0.82823 0.71005 0.6993 0.0
H558 H 0.805 0.67689 0.70107 0.0
H559 H 0.79273 0.71252 0.71055 0.0
C560 C 0.91206 0.57738 0.70127 0.0
N561 N 0.90575 0.60584 0.69611 0.0
N562 N 0.88766 0.61859 0.70771 0.0
C563 C 0.88105 0.5982 0.72038 0.0
C564 C 0.89663 0.57157 0.71688 0.0
C565 C 0.93392 0.55713 0.6919 0.0
H566 H 0.95424 0.57023 0.6881 0.0
H567 H 0.92329 0.54852 0.67964 0.0
H568 H 0.94096 0.53775 0.70025 0.0
O569 O 0.93954 0.66482 0.68275 0.0
O570 O 0.91415 0.68591 0.7047 0.0
H571 H 0.86987 0.6134 0.74634 0.0
H572 H 0.84822 0.58143 0.73902 0.0
C573 C 0.85845 0.60317 0.73479 0.0
H574 H 0.84027 0.61856 0.73024 0.0
H575 H 0.88766 0.66661 0.7442 0.0
O576 O 0.94817 0.60687 0.66177 0.0
C577 C 0.93634 0.68562 0.69412 0.0
Co578 Co 0.61632 0.67425 0.93152 0.0
Co579 Co 0.58756 0.62914 0.95899 0.0
C580 C 0.57613 0.62083 0.92107 0.0
O581 O 0.59176 0.64434 0.91757 0.0
O582 O 0.57334 0.61134 0.93682 0.0
C583 C 0.64258 0.69394 0.89859 0.0
O584 O 0.64228 0.66499 0.89464 0.0
C585 C 0.55598 0.58215 0.97917 0.0
C586 C 0.56535 0.59589 0.00667 0.0
C587 C 0.55004 0.57475 0.99663 0.0
N588 N 0.57472 0.606 0.97891 0.0
N589 N 0.57993 0.61432 0.99538 0.0
C590 C 0.54007 0.57067 0.9631 0.0
H591 H 0.531 0.59022 0.95561 0.0
H592 H 0.55645 0.55849 0.95458 0.0
H593 H 0.52091 0.55559 0.96632 0.0
C594 C 0.6707 0.66053 0.95367 0.0
N595 N 0.64217 0.65517 0.94828 0.0
N596 N 0.63011 0.63449 0.95865 0.0
C597 C 0.65105 0.62479 0.97016 0.0
C598 C 0.67708 0.64163 0.96789 0.0
C599 C 0.6899 0.68574 0.94681 0.0
H600 H 0.67573 0.70333 0.94044 0.0
H601 H 0.70578 0.6765 0.93684 0.0
H602 H 0.70336 0.69598 0.9576 0.0
O603 O 0.58862 0.70071 0.94437 0.0
O604 O 0.5665 0.66798 0.96236 0.0
H605 H 0.63965 0.60765 0.9958 0.0
H606 H 0.66851 0.58677 0.98465 0.0
C607 C 0.64684 0.59899 0.98275 0.0
H608 H 0.62964 0.58299 0.9777 0.0
H609 H 0.59255 0.63331 0.99891 0.0
O610 O 0.6358 0.70207 0.91419 0.0
C611 C 0.56941 0.69457 0.95625 0.0
Co612 Co 0.55099 0.37057 0.18718 0.0
Co613 Co 0.59655 0.33579 0.21185 0.0
C614 C 0.60284 0.33406 0.17259 0.0
O615 O 0.57971 0.35089 0.1706 0.0
O616 O 0.61219 0.32675 0.18789 0.0
C617 C 0.52835 0.40594 0.15802 0.0
O618 O 0.55687 0.40764 0.15336 0.0
C619 C 0.64992 0.30645 0.22759 0.0
C620 C 0.63204 0.29408 0.25388 0.0
C621 C 0.65693 0.29083 0.243 0.0
N622 N 0.62217 0.31842 0.22942 0.0
N623 N 0.61176 0.31112 0.2452 0.0
C624 C 0.66643 0.30556 0.21037 0.0
H625 H 0.65584 0.28808 0.20193 0.0
H626 H 0.66442 0.32776 0.20363 0.0
H627 H 0.69054 0.29969 0.21186 0.0
C628 C 0.56954 0.42169 0.21032 0.0
N629 N 0.57177 0.39281 0.20482 0.0
N630 N 0.59036 0.37806 0.21532 0.0
C631 C 0.60026 0.39695 0.22798 0.0
C632 C 0.58742 0.42536 0.22526 0.0
C633 C 0.55022 0.44499 0.2015 0.0
H634 H 0.52633 0.44131 0.20534 0.0
H635 H 0.55188 0.4425 0.18698 0.0
H636 H 0.55706 0.46825 0.20529 0.0
O637 O 0.52575 0.33891 0.19827 0.0
O638 O 0.55866 0.3137 0.21465 0.0
H639 H 0.60479 0.36967 0.251 0.0
H640 H 0.6239 0.405 0.25284 0.0
C641 C 0.61822 0.38654 0.24359 0.0
H642 H 0.63927 0.37543 0.239 0.0
H643 H 0.59009 0.31636 0.24967 0.0
O644 O 0.52166 0.39412 0.17281 0.0
C645 C 0.53213 0.31738 0.20876 0.0
Co646 Co 0.88192 0.31818 0.4369 0.0
Co647 Co 0.90783 0.36483 0.4645 0.0
C648 C 0.92255 0.36903 0.42587 0.0
O649 O 0.90588 0.34656 0.42183 0.0
O650 O 0.92492 0.378 0.44175 0.0
C651 C 0.85733 0.29018 0.40534 0.0
O652 O 0.85821 0.31756 0.3986 0.0
C653 C 0.93128 0.42041 0.48045 0.0
C654 C 0.93981 0.40481 0.50769 0.0
C655 C 0.94486 0.42868 0.49623 0.0
N656 N 0.91914 0.39275 0.48249 0.0
N657 N 0.92368 0.38391 0.49893 0.0
C658 C 0.93414 0.43599 0.46299 0.0
H659 H 0.9555 0.4288 0.45662 0.0
H660 H 0.91489 0.42989 0.45436 0.0
H661 H 0.93469 0.46089 0.46447 0.0
C662 C 0.82459 0.33618 0.45468 0.0
N663 N 0.85445 0.3391 0.45186 0.0
N664 N 0.86545 0.35879 0.46321 0.0
C665 C 0.84294 0.36925 0.47347 0.0
C666 C 0.81624 0.35523 0.46847 0.0
C667 C 0.80489 0.31452 0.44487 0.0
H668 H 0.81014 0.31561 0.43057 0.0
H669 H 0.78062 0.31959 0.44702 0.0
H670 H 0.80976 0.29116 0.44945 0.0
O671 O 0.91041 0.29461 0.45142 0.0
O672 O 0.929 0.32735 0.47071 0.0
H673 H 0.86203 0.37725 0.49887 0.0
H674 H 0.82648 0.39601 0.49562 0.0
C675 C 0.84786 0.38937 0.4891 0.0
H676 H 0.86017 0.41 0.4849 0.0
H677 H 0.91789 0.36255 0.50376 0.0
O678 O 0.86361 0.28651 0.42157 0.0
C679 C 0.92768 0.30089 0.46427 0.0
Co680 Co 0.92048 0.36894 0.82022 0.0
Co681 Co 0.86861 0.34925 0.79444 0.0
C682 C 0.86113 0.34041 0.8326 0.0
O683 O 0.88757 0.35104 0.83517 0.0
O684 O 0.84961 0.33957 0.81722 0.0
C685 C 0.94757 0.39764 0.85083 0.0
O686 O 0.91966 0.40384 0.85546 0.0
C687 C 0.81949 0.32133 0.77473 0.0
C688 C 0.82999 0.33473 0.7473 0.0
C689 C 0.81037 0.3175 0.75735 0.0
N690 N 0.84279 0.34072 0.77496 0.0
N691 N 0.84914 0.34839 0.75851 0.0
C692 C 0.81049 0.30267 0.79037 0.0
H693 H 0.83085 0.29648 0.79807 0.0
H694 H 0.79532 0.31622 0.79894 0.0
H695 H 0.7989 0.2815 0.78647 0.0
C696 C 0.91392 0.42624 0.79991 0.0
N697 N 0.90544 0.39781 0.80401 0.0
N698 N 0.88233 0.39006 0.79408 0.0
C699 C 0.87433 0.41392 0.78407 0.0
C700 C 0.89455 0.43733 0.78701 0.0
C701 C 0.94132 0.44135 0.80729 0.0
H702 H 0.95898 0.42427 0.81023 0.0
H703 H 0.93513 0.45285 0.8198 0.0
H704 H 0.95044 0.45844 0.79799 0.0
O705 O 0.93986 0.33561 0.80744 0.0
O706 O 0.90157 0.31968 0.79115 0.0
H707 H 0.85111 0.41084 0.75931 0.0
H708 H 0.83637 0.43887 0.77399 0.0
C709 C 0.84601 0.41568 0.77333 0.0
H710 H 0.82907 0.39924 0.77822 0.0
H711 H 0.86779 0.36137 0.75483 0.0
O712 O 0.95244 0.38488 0.83607 0.0
C713 C 0.92853 0.31699 0.79656 0.0
Co714 Co 0.87803 0.67285 0.06746 0.0
Co715 Co 0.91219 0.62588 0.04303 0.0
C716 C 0.91573 0.62068 0.08192 0.0
O717 O 0.89899 0.644 0.08369 0.0
O718 O 0.92236 0.61035 0.06672 0.0
C719 C 0.8451 0.69618 0.09767 0.0
O720 O 0.84549 0.66795 0.10314 0.0
C721 C 0.94577 0.57567 0.0261 0.0
C722 C 0.94466 0.59011 0.99817 0.0
C723 C 0.95599 0.56803 0.00931 0.0
N724 N 0.92874 0.60082 0.0248 0.0
N725 N 0.92834 0.60935 0.00809 0.0
C726 C 0.95586 0.56271 0.04336 0.0
H727 H 0.96637 0.58098 0.05125 0.0
H728 H 0.93596 0.55425 0.05075 0.0
H729 H 0.97264 0.54432 0.04178 0.0
C730 C 0.82871 0.65844 0.04237 0.0
N731 N 0.85596 0.6528 0.04952 0.0
N732 N 0.86974 0.63178 0.04014 0.0
C733 C 0.85104 0.62234 0.02729 0.0
C734 C 0.82475 0.63944 0.0279 0.0
C735 C 0.80893 0.68425 0.04788 0.0
H736 H 0.82265 0.70253 0.05384 0.0
H737 H 0.79259 0.6761 0.05791 0.0
H738 H 0.79615 0.69348 0.0365 0.0
O739 O 0.90827 0.69806 0.05591 0.0
O740 O 0.93357 0.6647 0.03976 0.0
H741 H 0.86855 0.60542 0.00286 0.0
H742 H 0.83648 0.5851 0.01109 0.0
C743 C 0.85768 0.59666 0.01499 0.0
H744 H 0.87299 0.58007 0.02136 0.0
H745 H 0.91786 0.62903 0.00355 0.0
O746 O 0.85492 0.70223 0.0823 0.0
C747 C 0.92936 0.69157 0.04523 0.0
Co748 Co 0.58192 0.6174 0.32722 0.0
Co749 Co 0.62911 0.64851 0.30231 0.0
C750 C 0.62911 0.66066 0.34099 0.0
O751 O 0.60695 0.64271 0.3433 0.0
O752 O 0.64052 0.66477 0.32575 0.0
C753 C 0.55721 0.58557 0.35722 0.0
O754 O 0.5849 0.58637 0.3634 0.0
C755 C 0.68299 0.67613 0.28627 0.0
C756 C 0.66839 0.67946 0.25843 0.0
C757 C 0.6916 0.68694 0.26981 0.0
N758 N 0.65594 0.66272 0.28458 0.0
N759 N 0.64746 0.66464 0.2679 0.0
C760 C 0.69753 0.6822 0.30373 0.0
H761 H 0.68419 0.6997 0.31077 0.0
H762 H 0.69722 0.66129 0.31185 0.0
H763 H 0.72097 0.6905 0.3024 0.0
C764 C 0.60294 0.56326 0.30796 0.0
N765 N 0.60571 0.59258 0.31241 0.0
N766 N 0.62582 0.60545 0.30206 0.0
C767 C 0.63679 0.58454 0.29079 0.0
C768 C 0.62232 0.55714 0.29396 0.0
C769 C 0.58019 0.54238 0.31598 0.0
H770 H 0.58161 0.54373 0.33056 0.0
H771 H 0.5839 0.51861 0.31176 0.0
H772 H 0.5572 0.54974 0.31205 0.0
O773 O 0.55664 0.64437 0.31272 0.0
O774 O 0.59048 0.66733 0.29591 0.0
H775 H 0.66757 0.57148 0.26978 0.0
H776 H 0.67511 0.60751 0.27988 0.0
C777 C 0.65701 0.59191 0.27555 0.0
H778 H 0.64354 0.60313 0.26511 0.0
H779 H 0.62674 0.65697 0.26315 0.0
O780 O 0.55218 0.59505 0.34168 0.0
C781 C 0.56339 0.66348 0.30084 0.0
Co782 Co 0.60871 0.30816 0.56545 0.0
Co783 Co 0.57927 0.35025 0.53679 0.0
C784 C 0.56903 0.36041 0.57557 0.0
O785 O 0.58606 0.33834 0.57988 0.0
O786 O 0.56498 0.3674 0.55946 0.0
C787 C 0.64025 0.2875 0.59667 0.0
O788 O 0.64185 0.31637 0.60072 0.0
C789 C 0.56276 0.40652 0.51897 0.0
C790 C 0.54125 0.38934 0.49466 0.0
C791 C 0.54686 0.41555 0.50411 0.0
N792 N 0.56624 0.37634 0.51833 0.0
N793 N 0.5538 0.36626 0.50363 0.0
C794 C 0.57064 0.42529 0.53474 0.0
H795 H 0.55008 0.42875 0.54287 0.0
H796 H 0.58804 0.41369 0.54281 0.0
H797 H 0.57919 0.4478 0.53073 0.0
C798 C 0.66345 0.32222 0.54428 0.0
N799 N 0.6342 0.32655 0.5484 0.0
N800 N 0.62162 0.34361 0.5362 0.0
C801 C 0.64231 0.35036 0.52379 0.0
C802 C 0.66963 0.33704 0.52847 0.0
C803 C 0.68455 0.30323 0.555 0.0
H804 H 0.6809 0.30776 0.56923 0.0
H805 H 0.70845 0.30793 0.55161 0.0
H806 H 0.67964 0.27896 0.55256 0.0
O807 O 0.57901 0.28214 0.55329 0.0
O808 O 0.55757 0.31208 0.53339 0.0
H809 H 0.61471 0.35408 0.50078 0.0
H810 H 0.65337 0.36437 0.497 0.0
C811 C 0.63462 0.36539 0.50665 0.0
H812 H 0.62856 0.38938 0.50917 0.0
H813 H 0.55245 0.34342 0.50019 0.0
O814 O 0.62947 0.27984 0.5818 0.0
C815 C 0.56005 0.28656 0.54097 0.0
Co816 Co 0.05917 0.36996 0.31491 0.0
Co817 Co 0.10726 0.34051 0.28987 0.0
C818 C 0.10848 0.32999 0.32899 0.0
O819 O 0.08566 0.3471 0.33129 0.0
O820 O 0.11937 0.32553 0.31366 0.0
C821 C 0.03169 0.39754 0.34516 0.0
O822 O 0.05915 0.39672 0.35166 0.0
C823 C 0.16459 0.31801 0.27559 0.0
C824 C 0.15081 0.30516 0.24858 0.0
C825 C 0.17464 0.30381 0.26034 0.0
N826 N 0.13605 0.32725 0.27291 0.0
N827 N 0.12814 0.31992 0.25666 0.0
C828 C 0.1798 0.31868 0.2932 0.0
H829 H 0.17276 0.2985 0.30088 0.0
H830 H 0.17287 0.33926 0.30056 0.0
H831 H 0.20469 0.31823 0.29191 0.0
C832 C 0.07713 0.42478 0.29536 0.0
N833 N 0.08137 0.39564 0.29982 0.0
N834 N 0.10115 0.38335 0.28899 0.0
C835 C 0.10992 0.40433 0.27712 0.0
C836 C 0.09481 0.43135 0.28067 0.0
C837 C 0.05486 0.44512 0.30431 0.0
H838 H 0.05634 0.44202 0.31881 0.0
H839 H 0.059 0.46924 0.30101 0.0
H840 H 0.03171 0.4388 0.30015 0.0
O841 O 0.03581 0.34109 0.30058 0.0
O842 O 0.06994 0.31928 0.28337 0.0
H843 H 0.11569 0.38045 0.2529 0.0
H844 H 0.13328 0.41702 0.25292 0.0
C845 C 0.1283 0.39689 0.2611 0.0
H846 H 0.14979 0.3861 0.2652 0.0
H847 H 0.10662 0.32339 0.25144 0.0
O848 O 0.02765 0.39041 0.32911 0.0
C849 C 0.04289 0.3222 0.28864 0.0
Co850 Co 0.38109 0.31475 0.06724 0.0
Co851 Co 0.40343 0.37182 0.04657 0.0
C852 C 0.40736 0.37045 0.08543 0.0
O853 O 0.39619 0.34381 0.0855 0.0
O854 O 0.41069 0.38523 0.07111 0.0
C855 C 0.34934 0.2794 0.09371 0.0
O856 O 0.34145 0.30561 0.1005 0.0
C857 C 0.43313 0.42507 0.03172 0.0
C858 C 0.4246 0.41836 0.00325 0.0
C859 C 0.44006 0.43637 0.01511 0.0
N860 N 0.41397 0.40179 0.0297 0.0
N861 N 0.40904 0.39788 0.01266 0.0
C862 C 0.44865 0.43205 0.04878 0.0
H863 H 0.4565 0.41065 0.05492 0.0
H864 H 0.43229 0.4428 0.05794 0.0
H865 H 0.46834 0.44718 0.04698 0.0
C866 C 0.32612 0.326 0.04592 0.0
N867 N 0.35409 0.33339 0.05135 0.0
N868 N 0.36281 0.35828 0.04327 0.0
C869 C 0.34005 0.36817 0.03295 0.0
C870 C 0.31635 0.34776 0.03399 0.0
C871 C 0.31018 0.29759 0.05123 0.0
H872 H 0.32661 0.27873 0.05235 0.0
H873 H 0.29962 0.30103 0.06435 0.0
H874 H 0.29239 0.29142 0.04159 0.0
O875 O 0.41602 0.29854 0.05447 0.0
O876 O 0.43354 0.33991 0.04163 0.0
H877 H 0.34602 0.39449 0.00948 0.0
H878 H 0.31647 0.40762 0.02364 0.0
C879 C 0.33959 0.3979 0.02347 0.0
H880 H 0.35539 0.41411 0.02971 0.0
H881 H 0.39694 0.37979 0.00738 0.0
O882 O 0.36407 0.27891 0.07934 0.0
C883 C 0.43568 0.31192 0.04513 0.0
Co884 Co 0.42453 0.62865 0.81514 0.0
Co885 Co 0.3739 0.65043 0.78945 0.0
C886 C 0.37658 0.67186 0.827 0.0
O887 O 0.39928 0.65529 0.83077 0.0
O888 O 0.36524 0.67175 0.81162 0.0
C889 C 0.45814 0.60079 0.84428 0.0
O890 O 0.43203 0.59472 0.8517 0.0
C891 C 0.31448 0.66885 0.77777 0.0
C892 C 0.32203 0.67634 0.7493 0.0
C893 C 0.30105 0.68051 0.76268 0.0
N894 N 0.34225 0.65915 0.77354 0.0
N895 N 0.34649 0.66317 0.75646 0.0
C896 C 0.30141 0.66641 0.79593 0.0
H897 H 0.3109 0.64632 0.80277 0.0
H898 H 0.27645 0.66458 0.79538 0.0
H899 H 0.30755 0.68679 0.80367 0.0
C900 C 0.40681 0.56936 0.80005 0.0
N901 N 0.40174 0.59898 0.80304 0.0
N902 N 0.37982 0.60836 0.79267 0.0
C903 C 0.3697 0.58491 0.78309 0.0
C904 C 0.38676 0.5595 0.78716 0.0
C905 C 0.43356 0.55265 0.80718 0.0
H906 H 0.45416 0.56658 0.80539 0.0
H907 H 0.4304 0.54906 0.82155 0.0
H908 H 0.43682 0.53044 0.80064 0.0
O909 O 0.44524 0.65387 0.79757 0.0
O910 O 0.40983 0.66929 0.779 0.0
H911 H 0.3552 0.59913 0.75751 0.0
H912 H 0.33732 0.56484 0.76524 0.0
C913 C 0.34577 0.58745 0.76924 0.0
H914 H 0.32663 0.60108 0.77434 0.0
H915 H 0.3667 0.65854 0.7499 0.0
O916 O 0.45868 0.61257 0.82902 0.0
C917 C 0.43719 0.66839 0.7839 0.0
Co918 Co 0.11885 0.67311 0.56509 0.0
Co919 Co 0.09144 0.63281 0.5347 0.0
C920 C 0.0701 0.62774 0.57209 0.0
O921 O 0.08912 0.64693 0.57792 0.0
O922 O 0.069 0.62101 0.55583 0.0
C923 C 0.14269 0.69231 0.5988 0.0
O924 O 0.13754 0.66414 0.60346 0.0
C925 C 0.06671 0.57944 0.51742 0.0
C926 C 0.05749 0.59703 0.49066 0.0
C927 C 0.0526 0.57239 0.5016 0.0
N928 N 0.07898 0.60712 0.51591 0.0
N929 N 0.07404 0.6172 0.49976 0.0
C930 C 0.06455 0.56262 0.53452 0.0
H931 H 0.04238 0.56743 0.54074 0.0
H932 H 0.08287 0.56975 0.54356 0.0
H933 H 0.06632 0.53789 0.5325 0.0
C934 C 0.17569 0.64931 0.54885 0.0
N935 N 0.14545 0.64971 0.55072 0.0
N936 N 0.13348 0.63225 0.5385 0.0
C937 C 0.15554 0.61984 0.52871 0.0
C938 C 0.18309 0.63023 0.53489 0.0
C939 C 0.19669 0.66882 0.55925 0.0
H940 H 0.19344 0.69278 0.55527 0.0
H941 H 0.19115 0.66703 0.57349 0.0
H942 H 0.22058 0.66225 0.55703 0.0
O943 O 0.09568 0.70159 0.55014 0.0
O944 O 0.07749 0.67334 0.52844 0.0
H945 H 0.13729 0.61672 0.50271 0.0
H946 H 0.17089 0.59442 0.50576 0.0
C947 C 0.14981 0.60225 0.51216 0.0
H948 H 0.13553 0.58234 0.51529 0.0
H949 H 0.08 0.63879 0.49537 0.0
O950 O 0.13894 0.6999 0.58276 0.0
C951 C 0.08043 0.69878 0.53603 0.0
Co952 Co 0.06478 0.62863 0.1798 0.0
Co953 Co 0.10843 0.66427 0.20459 0.0
C954 C 0.11248 0.67022 0.16532 0.0
O955 O 0.09102 0.65145 0.16301 0.0
O956 O 0.12161 0.67687 0.18074 0.0
C957 C 0.0438 0.5921 0.15089 0.0
O958 O 0.07222 0.59242 0.14592 0.0
C959 C 0.16391 0.68968 0.21857 0.0
C960 C 0.14896 0.70769 0.24435 0.0
C961 C 0.17345 0.70654 0.23297 0.0
N962 N 0.13505 0.68178 0.22121 0.0
N963 N 0.12626 0.69241 0.23668 0.0
C964 C 0.18179 0.68036 0.20272 0.0
H965 H 0.17323 0.6585 0.19753 0.0
H966 H 0.20609 0.67815 0.20602 0.0
H967 H 0.17916 0.6977 0.19224 0.0
C968 C 0.0873 0.57722 0.20159 0.0
N969 N 0.08773 0.60645 0.19656 0.0
N970 N 0.10595 0.62158 0.20704 0.0
C971 C 0.1176 0.60254 0.21914 0.0
C972 C 0.10617 0.57369 0.21613 0.0
C973 C 0.06839 0.5535 0.1929 0.0
H974 H 0.07057 0.55546 0.17838 0.0
H975 H 0.0752 0.53039 0.19704 0.0
H976 H 0.04435 0.55732 0.19637 0.0
O977 O 0.03793 0.65793 0.19194 0.0
O978 O 0.06931 0.68345 0.20911 0.0
H979 H 0.12363 0.63078 0.24172 0.0
H980 H 0.14121 0.59428 0.24387 0.0
C981 C 0.13611 0.61286 0.23452 0.0
H982 H 0.15752 0.62281 0.22963 0.0
H983 H 0.10446 0.69006 0.24173 0.0
O984 O 0.0367 0.60363 0.16567 0.0
C985 C 0.04297 0.67871 0.20316 0.0
Co986 Co 0.12172 0.31116 0.93017 0.0
Co987 Co 0.09266 0.35993 0.95531 0.0
C988 C 0.08132 0.3617 0.91666 0.0
O989 O 0.09777 0.33829 0.9145 0.0
O990 O 0.07765 0.37337 0.93189 0.0
C991 C 0.15404 0.28842 0.89982 0.0
O992 O 0.1562 0.3171 0.89541 0.0
C993 C 0.06282 0.41201 0.97253 0.0
C994 C 0.06753 0.39946 0.00065 0.0
C995 C 0.05492 0.42087 0.98953 0.0
N996 N 0.07965 0.38672 0.97365 0.0
N997 N 0.08238 0.37942 0.99048 0.0
C998 C 0.05076 0.42413 0.9555 0.0
H999 H 0.03712 0.40625 0.94907 0.0
H1000 H 0.06984 0.42971 0.94658 0.0
H1001 H 0.03627 0.44431 0.95733 0.0
C1002 C 0.17669 0.32962 0.94954 0.0
N1003 N 0.14737 0.33321 0.94537 0.0
N1004 N 0.13547 0.3543 0.95553 0.0
C1005 C 0.15716 0.3653 0.96619 0.0
C1006 C 0.18386 0.34976 0.96297 0.0
C1007 C 0.19617 0.30496 0.94218 0.0
H1008 H 0.18281 0.28388 0.94079 0.0
H1009 H 0.20404 0.31171 0.92885 0.0
H1010 H 0.21607 0.30051 0.95067 0.0
O1011 O 0.09364 0.28666 0.94428 0.0
O1012 O 0.07196 0.32163 0.961 0.0
H1013 H 0.14453 0.38043 0.99193 0.0
H1014 H 0.17419 0.40214 0.98191 0.0
C1015 C 0.15262 0.39019 0.97932 0.0
H1016 H 0.1357 0.40663 0.97439 0.0
H1017 H 0.09326 0.35993 0.99499 0.0
O1018 O 0.14267 0.28158 0.91469 0.0
C1019 C 0.0746 0.29429 0.95601 0.0
Co1020 Co 0.42534 0.36014 0.68471 0.0
Co1021 Co 0.37082 0.33798 0.70798 0.0
C1022 C 0.37158 0.32646 0.66949 0.0
O1023 O 0.3969 0.33996 0.66806 0.0
O1024 O 0.3582 0.32418 0.68431 0.0
C1025 C 0.45739 0.38708 0.65522 0.0
O1026 O 0.43044 0.39143 0.64847 0.0
C1027 C 0.31391 0.31639 0.7236 0.0
C1028 C 0.32504 0.31861 0.75199 0.0
C1029 C 0.30303 0.30917 0.74028 0.0
N1030 N 0.34123 0.32915 0.72543 0.0
N1031 N 0.34765 0.33053 0.74243 0.0
C1032 C 0.2988 0.31148 0.7062 0.0
H1033 H 0.30782 0.2905 0.7001 0.0
H1034 H 0.3038 0.33068 0.69723 0.0
H1035 H 0.274 0.30932 0.70779 0.0
C1036 C 0.41226 0.41731 0.70367 0.0
N1037 N 0.40544 0.38866 0.69915 0.0
N1038 N 0.38176 0.37966 0.70825 0.0
C1039 C 0.37214 0.40269 0.71843 0.0
C1040 C 0.39144 0.4271 0.71616 0.0
C1041 C 0.44011 0.43338 0.69761 0.0
H1042 H 0.45904 0.41707 0.69637 0.0
H1043 H 0.43587 0.44332 0.6844 0.0
H1044 H 0.44659 0.45173 0.70685 0.0
O1045 O 0.44389 0.32912 0.69969 0.0
O1046 O 0.40498 0.31229 0.71519 0.0
H1047 H 0.35099 0.39215 0.74303 0.0
H1048 H 0.33539 0.42465 0.73205 0.0
C1049 C 0.34476 0.4016 0.72999 0.0
H1050 H 0.32721 0.38704 0.72396 0.0
H1051 H 0.36807 0.33851 0.74746 0.0
O1052 O 0.45961 0.37659 0.67078 0.0
C1053 C 0.43277 0.31138 0.71116 0.0
Co1054 Co 0.37802 0.67123 0.42974 0.0
Co1055 Co 0.40965 0.62783 0.45698 0.0
C1056 C 0.41832 0.6205 0.41799 0.0
O1057 O 0.4007 0.64247 0.41446 0.0
O1058 O 0.42334 0.61256 0.43384 0.0
C1059 C 0.34789 0.69364 0.39864 0.0
O1060 O 0.34787 0.6651 0.39377 0.0
C1061 C 0.42797 0.5707 0.47318 0.0
C1062 C 0.4506 0.58663 0.49744 0.0
C1063 C 0.4448 0.56096 0.48754 0.0
N1064 N 0.42412 0.60077 0.47456 0.0
N1065 N 0.4373 0.61009 0.48921 0.0
C1066 C 0.41952 0.55288 0.45715 0.0
H1067 H 0.43959 0.55063 0.44847 0.0
H1068 H 0.40131 0.56459 0.44977 0.0
H1069 H 0.41185 0.52985 0.46074 0.0
C1070 C 0.32513 0.65611 0.45199 0.0
N1071 N 0.35375 0.65126 0.44674 0.0
N1072 N 0.36728 0.63367 0.45833 0.0
C1073 C 0.34793 0.62714 0.47147 0.0
C1074 C 0.32046 0.64117 0.46794 0.0
C1075 C 0.30363 0.67651 0.44248 0.0
H1076 H 0.30613 0.67339 0.42804 0.0
H1077 H 0.27995 0.67187 0.44641 0.0
H1078 H 0.30918 0.7004 0.44561 0.0
O1079 O 0.40729 0.69707 0.44228 0.0
O1080 O 0.43024 0.66626 0.46114 0.0
H1081 H 0.33992 0.61336 0.49873 0.0
H1082 H 0.364 0.58873 0.48586 0.0
C1083 C 0.35761 0.61262 0.48843 0.0
H1084 H 0.37776 0.62455 0.49355 0.0
H1085 H 0.43856 0.6327 0.49312 0.0
O1086 O 0.35657 0.70036 0.41412 0.0
C1087 C 0.42666 0.69227 0.45433 0.0
H1088 H 0.30116 0.23958 0.25378 0.0
H1089 H 0.24432 0.1648 0.2388 0.0
H1090 H 0.19937 0.19646 0.24268 0.0
H1091 H 0.1765 0.24561 0.25007 0.0
H1092 H 0.23331 0.32031 0.2652 0.0
H1093 H 0.27824 0.28846 0.26169 0.0
C1094 C 0.27887 0.23024 0.25149 0.0
C1095 C 0.27588 0.2002 0.24571 0.0
C1096 C 0.2533 0.24852 0.2538 0.0
C1097 C 0.24705 0.18817 0.24279 0.0
C1098 C 0.22142 0.20617 0.24512 0.0
C1099 C 0.19878 0.25484 0.25255 0.0
C1100 C 0.2018 0.28501 0.25808 0.0
C1101 C 0.22433 0.23644 0.25047 0.0
C1102 C 0.23059 0.29689 0.26129 0.0
C1103 C 0.2562 0.27877 0.25918 0.0
H1104 H 0.99119 0.95898 0.52687 0.0
H1105 H 0.93592 0.96967 0.48047 0.0
H1106 H 0.96546 0.01387 0.47163 0.0
H1107 H 0.00728 0.04872 0.47693 0.0
H1108 H 0.06309 0.03798 0.52306 0.0
H1109 H 0.0324 0.99481 0.53257 0.0
C1110 C 0.98512 0.97147 0.51509 0.0
C1111 C 0.96107 0.9616 0.5045 0.0
C1112 C 0.00239 0.99656 0.51002 0.0
C1113 C 0.95423 0.97716 0.48887 0.0
C1114 C 0.97111 0.00231 0.48381 0.0
C1115 C 0.0131 0.03654 0.48887 0.0
C1116 C 0.03788 0.04576 0.49904 0.0
C1117 C -0.00458 0.01197 0.49418 0.0
C1118 C 0.0443 0.03084 0.51493 0.0
C1119 C 0.02679 0.00627 0.52035 0.0
H1120 H 0.26575 0.68635 0.73396 0.0
H1121 H 0.2763 0.71923 0.78722 0.0
H1122 H 0.23438 0.7538 0.78318 0.0
H1123 H 0.19669 0.77745 0.7639 0.0
H1124 H 0.18773 0.74676 0.71018 0.0
H1125 H 0.2275 0.70939 0.71481 0.0
C1126 C 0.25862 0.70085 0.74474 0.0
C1127 C 0.27359 0.69932 0.76103 0.0
C1128 C 0.23525 0.72174 0.74209 0.0
C1129 C 0.26441 0.7186 0.77481 0.0
C1130 C 0.24071 0.73897 0.7724 0.0
C1131 C 0.20354 0.76256 0.75324 0.0
C1132 C 0.19007 0.76544 0.7366 0.0
C1133 C 0.22628 0.74103 0.75603 0.0
C1134 C 0.1987 0.74582 0.72291 0.0
C1135 C 0.22113 0.72415 0.72562 0.0
H1136 H 0.46343 0.95705 0.02094 0.0
H1137 H 0.49715 0.94941 0.96773 0.0
H1138 H 0.53348 0.98957 0.97328 0.0
H1139 H 0.55529 0.02739 0.99314 0.0
H1140 H 0.52047 0.0361 0.04608 0.0
H1141 H 0.48588 0.9944 0.04099 0.0
C1142 C 0.4787 0.96432 0.01058 0.0
C1143 C 0.47692 0.95109 0.9938 0.0
C1144 C 0.49983 0.98717 0.01393 0.0
C1145 C 0.4971 0.96023 0.98053 0.0
C1146 C 0.51824 0.98287 0.98377 0.0
C1147 C 0.54033 0.01991 0.00361 0.0
C1148 C 0.54122 0.03422 0.02012 0.0
C1149 C 0.51968 0.9966 0.00039 0.0
C1150 C 0.5214 0.02465 0.0335 0.0
C1151 C 0.50112 0.00111 0.0305 0.0
H1152 H 0.20257 0.71585 0.2637 0.0
H1153 H 0.2075 0.73581 0.20806 0.0
H1154 H 0.25441 0.76337 0.21252 0.0
H1155 H 0.29423 0.78172 0.23223 0.0
H1156 H 0.28942 0.76169 0.28787 0.0
H1157 H 0.24187 0.73517 0.28352 0.0
C1158 C 0.214 0.72619 0.25257 0.0
C1159 C 0.20214 0.72287 0.23551 0.0
C1160 C 0.24069 0.74252 0.25528 0.0
C1161 C 0.21685 0.73676 0.22121 0.0
C1162 C 0.24346 0.75297 0.22379 0.0
C1163 C 0.28261 0.77173 0.24341 0.0
C1164 C 0.29492 0.7744 0.26039 0.0
C1165 C 0.25563 0.75588 0.24075 0.0
C1166 C 0.27987 0.76109 0.27476 0.0
C1167 C 0.25288 0.74546 0.27225 0.0
H1168 H 0.5413 0.98073 0.48914 0.0
H1169 H 0.49137 0.91262 0.51748 0.0
H1170 H 0.45191 0.94962 0.52443 0.0
H1171 H 0.43097 0.00104 0.52153 0.0
H1172 H 0.48088 0.06891 0.49296 0.0
H1173 H 0.52045 0.032 0.48624 0.0
C1174 C 0.52161 0.97404 0.4967 0.0
C1175 C 0.5188 0.94405 0.50253 0.0
C1176 C 0.49891 0.99522 0.50034 0.0
C1177 C 0.49381 0.93567 0.51281 0.0
C1178 C 0.4712 0.95671 0.51666 0.0
C1179 C 0.45066 0.00767 0.51395 0.0
C1180 C 0.45338 0.03756 0.50793 0.0
C1181 C 0.4734 0.98646 0.51035 0.0
C1182 C 0.47846 0.04591 0.49772 0.0
C1183 C 0.50113 0.02493 0.494 0.0
H1184 H 0.19311 0.24019 0.77428 0.0
H1185 H 0.20542 0.18416 0.72829 0.0
H1186 H 0.24714 0.21638 0.71846 0.0
H1187 H 0.28052 0.25975 0.7234 0.0
H1188 H 0.2673 0.31666 0.76899 0.0
H1189 H 0.22573 0.28439 0.77881 0.0
C1190 C 0.20534 0.23476 0.76229 0.0
C1191 C 0.19688 0.20952 0.75221 0.0
C1192 C 0.22886 0.2536 0.75664 0.0
C1193 C 0.21197 0.20333 0.73633 0.0
C1194 C 0.23569 0.22175 0.73071 0.0
C1195 C 0.268 0.26565 0.73519 0.0
C1196 C 0.27639 0.29102 0.74521 0.0
C1197 C 0.24424 0.247 0.74074 0.0
C1198 C 0.26093 0.29742 0.76096 0.0
C1199 C 0.23727 0.27896 0.7666 0.0
H1200 H 0.03801 0.98261 0.01996 0.0
H1201 H -0.00251 0.92279 0.98184 0.0
H1202 H 0.96283 0.963 0.97269 0.0
H1203 H 0.94287 0.01475 0.97637 0.0
H1204 H 0.98275 0.07383 0.01511 0.0
H1205 H 0.01813 0.034 0.02368 0.0
C1206 C 0.02121 0.97824 0.00988 0.0
C1207 C 0.0197 0.94964 0.0019 0.0
C1208 C 0.00117 0.00127 0.00489 0.0
C1209 C -0.00119 0.94463 0.98829 0.0
C1210 C 0.97895 0.96754 0.9831 0.0
C1211 C 0.95961 0.01893 0.98651 0.0
C1212 C 0.96061 0.0472 0.99493 0.0
C1213 C 0.9798 0.9959 0.9914 0.0
C1214 C 0.98171 0.05219 0.00842 0.0
C1215 C 0.00197 0.0295 0.01329 0.0
H1216 H 0.72762 0.79397 0.76809 0.0
H1217 H 0.66839 0.73581 0.73841 0.0
H1218 H 0.71038 0.7016 0.73199 0.0
H1219 H 0.76401 0.68895 0.7343 0.0
H1220 H 0.82385 0.7475 0.76323 0.0
H1221 H 0.7813 0.78023 0.77127 0.0
C1222 C 0.72394 0.7735 0.7605 0.0
C1223 C 0.69509 0.76704 0.7539 0.0
C1224 C 0.74815 0.75402 0.75687 0.0
C1225 C 0.69054 0.74106 0.74361 0.0
C1226 C 0.71444 0.72149 0.74001 0.0
C1227 C 0.76765 0.709 0.74228 0.0
C1228 C 0.79687 0.71639 0.74783 0.0
C1229 C 0.74333 0.72788 0.74647 0.0
C1230 C 0.80142 0.74168 0.7587 0.0
C1231 C 0.7772 0.76043 0.76319 0.0
H1232 H 0.74999 0.18677 0.26011 0.0
H1233 H 0.81219 0.25342 0.24015 0.0
H1234 H 0.7706 0.28897 0.23534 0.0
H1235 H 0.7167 0.30152 0.23774 0.0
H1236 H 0.65417 0.23419 0.2566 0.0
H1237 H 0.6958 0.19891 0.26174 0.0
C1238 C 0.75432 0.20919 0.25484 0.0
C1239 C 0.78393 0.21778 0.2507 0.0
C1240 C 0.73033 0.22941 0.25211 0.0
C1241 C 0.78942 0.24648 0.24344 0.0
C1242 C 0.76573 0.26681 0.24078 0.0
C1243 C 0.71217 0.27886 0.24255 0.0
C1244 C 0.68244 0.27012 0.24633 0.0
C1245 C 0.73611 0.25855 0.24513 0.0
C1246 C 0.67695 0.24129 0.25347 0.0
C1247 C 0.70068 0.22108 0.25633 0.0
H1248 H 0.75542 0.30526 0.77119 0.0
H1249 H 0.81422 0.28268 0.7278 0.0
H1250 H 0.77858 0.24401 0.71785 0.0
H1251 H 0.73232 0.21423 0.72284 0.0
H1252 H 0.67461 0.23618 0.76689 0.0
H1253 H 0.70877 0.27672 0.77568 0.0
C1254 C 0.7605 0.29167 0.75965 0.0
C1255 C 0.78764 0.29618 0.75049 0.0
C1256 C 0.74033 0.26914 0.75429 0.0
C1257 C 0.7935 0.27935 0.73514 0.0
C1258 C 0.77326 0.25715 0.72952 0.0
C1259 C 0.72708 0.22824 0.73419 0.0
C1260 C 0.70093 0.22252 0.74411 0.0
C1261 C 0.74685 0.25149 0.73918 0.0
C1262 C 0.69469 0.24021 0.75908 0.0
C1263 C 0.7141 0.26345 0.76406 0.0
H1264 H 0.81277 0.75733 0.25552 0.0
H1265 H 0.75133 0.81671 0.22819 0.0
H1266 H 0.70886 0.78405 0.23628 0.0
H1267 H 0.68951 0.73851 0.25103 0.0
H1268 H 0.75111 0.67845 0.27776 0.0
H1269 H 0.79342 0.7116 0.27017 0.0
C1270 C 0.79002 0.76307 0.25142 0.0
C1271 C 0.78501 0.78898 0.24111 0.0
C1272 C 0.76591 0.7442 0.25608 0.0
C1273 C 0.75559 0.79644 0.23584 0.0
C1274 C 0.73139 0.7779 0.24053 0.0
C1275 C 0.71224 0.73275 0.25516 0.0
C1276 C 0.71727 0.70658 0.26526 0.0
C1277 C 0.73634 0.75166 0.25056 0.0
C1278 C 0.74671 0.69906 0.27046 0.0
C1279 C 0.77087 0.71783 0.26599 0.0
H1280 H 0.54425 0.51747 0.98463 0.0
H1281 H 0.5109 0.579 0.02425 0.0
H1282 H 0.47422 0.54109 0.03403 0.0
H1283 H 0.44957 0.49153 0.02991 0.0
H1284 H 0.48183 0.43135 0.98925 0.0
H1285 H 0.52027 0.46812 0.98074 0.0
C1286 C 0.52867 0.52267 0.99526 0.0
C1287 C 0.52957 0.55115 0.00339 0.0
C1288 C 0.50727 0.50118 0.00044 0.0
C1289 C 0.5103 0.55724 0.01767 0.0
C1290 C 0.48925 0.53569 0.02319 0.0
C1291 C 0.46529 0.48645 0.01934 0.0
C1292 C 0.46319 0.4588 0.01031 0.0
C1293 C 0.48722 0.50776 0.01447 0.0
C1294 C 0.48311 0.45259 0.99635 0.0
C1295 C 0.50514 0.47349 0.99155 0.0
H1296 H 0.05851 0.51187 0.50716 0.0
H1297 H -0.00402 0.57977 0.48888 0.0
H1298 H 0.95647 0.5415 0.48602 0.0
H1299 H 0.93917 0.48902 0.48995 0.0
H1300 H 0.00163 0.42133 0.50858 0.0
H1301 H 0.04124 0.45952 0.51116 0.0
C1302 C 0.03608 0.51832 0.50287 0.0
C1303 C 0.02989 0.54858 0.49861 0.0
C1304 C 0.01338 0.49635 0.5016 0.0
C1305 C 0.00118 0.55651 0.49225 0.0
C1306 C 0.97854 0.53473 0.49075 0.0
C1307 C 0.96158 0.48265 0.49433 0.0
C1308 C 0.96772 0.45247 0.4988 0.0
C1309 C 0.98431 0.50463 0.49555 0.0
C1310 C -0.00353 0.44455 0.50509 0.0
C1311 C 0.01915 0.46628 0.50643 0.0
H1312 H 0.05503 0.47954 0.97879 0.0
H1313 H 0.0093 0.41696 0.01325 0.0
H1314 H 0.97439 0.45687 0.0225 0.0
H1315 H 0.95605 0.50928 0.02012 0.0
H1316 H 0.00212 0.57203 0.98589 0.0
H1317 H 0.03702 0.53214 0.97667 0.0
C1318 C 0.03713 0.47463 0.98813 0.0
C1319 C 0.03426 0.44532 0.99508 0.0
C1320 C 0.01716 0.49765 0.99334 0.0
C1321 C 0.01174 0.43939 0.00766 0.0
C1322 C 0.99175 0.46214 0.0129 0.0
C1323 C 0.97411 0.51431 0.01092 0.0
C1324 C 0.97699 0.54365 0.004 0.0
C1325 C 0.99419 0.49133 0.00579 0.0
C1326 C -0.00035 0.54961 0.9915 0.0
C1327 C 0.01964 0.52686 0.98626 0.0
H1328 H 0.4883 0.42606 0.49704 0.0
H1329 H 0.57388 0.47102 0.50328 0.0
H1330 H 0.54944 0.52024 0.49912 0.0
H1331 H 0.5036 0.55033 0.49381 0.0
H1332 H 0.41798 0.50537 0.4877 0.0
H1333 H 0.44251 0.45612 0.49149 0.0
C1334 C 0.50154 0.44669 0.49738 0.0
C1335 C 0.53266 0.44516 0.50078 0.0
C1336 C 0.48735 0.47475 0.49493 0.0
C1337 C 0.54973 0.47186 0.50119 0.0
C1338 C 0.53581 0.49991 0.49868 0.0
C1339 C 0.49038 0.52968 0.49336 0.0
C1340 C 0.4592 0.53124 0.49017 0.0
C1341 C 0.50461 0.50161 0.49567 0.0
C1342 C 0.44217 0.50453 0.48962 0.0
C1343 C 0.45614 0.47645 0.49194 0.0
H1344 H 0.37562 0.16042 0.13599 0.0
H1345 H 0.32364 0.20825 0.17534 0.0
H1346 H 0.31098 0.24724 0.1539 0.0
H1347 H 0.32099 0.27162 0.12534 0.0
H1348 H 0.37317 0.22388 0.08604 0.0
H1349 H 0.37897 0.18105 0.10598 0.0
C1350 C 0.36102 0.17904 0.1398 0.0
C1351 C 0.35109 0.18158 0.15737 0.0
C1352 C 0.35411 0.20173 0.12744 0.0
C1353 C 0.33182 0.20569 0.16197 0.0
C1354 C 0.32468 0.2282 0.14972 0.0
C1355 C 0.33314 0.25162 0.12101 0.0
C1356 C 0.34715 0.25132 0.10435 0.0
C1357 C 0.33669 0.22706 0.13262 0.0
C1358 C 0.36242 0.22498 0.09886 0.0
C1359 C 0.36588 0.20044 0.11029 0.0
H1360 H 0.95662 0.08851 0.37648 0.0
H1361 H 0.00945 0.12678 0.33415 0.0
H1362 H 0.05201 0.13364 0.35408 0.0
H1363 H 0.07204 0.13459 0.38439 0.0
H1364 H 0.01956 0.09502 0.42649 0.0
H1365 H 0.97951 0.08255 0.4058 0.0
C1366 C 0.97763 0.09784 0.37155 0.0
C1367 C 0.9796 0.10753 0.35392 0.0
C1368 C 0.00213 0.10177 0.38309 0.0
C1369 C 0.00716 0.11922 0.34768 0.0
C1370 C 0.03154 0.12334 0.3591 0.0
C1371 C 0.05207 0.12278 0.38897 0.0
C1372 C 0.04875 0.11614 0.40702 0.0
C1373 C 0.02894 0.11561 0.37697 0.0
C1374 C 0.02283 0.10047 0.41269 0.0
C1375 C -0.00027 0.09346 0.40087 0.0
H1376 H 0.14012 0.77266 0.66723 0.0
H1377 H 0.11685 0.84122 0.62899 0.0
H1378 H 0.12697 0.80563 0.60504 0.0
H1379 H 0.13646 0.75347 0.59514 0.0
H1380 H 0.15667 0.68427 0.63357 0.0
H1381 H 0.1542 0.72179 0.65719 0.0
C1382 C 0.13791 0.78011 0.65367 0.0
C1383 C 0.12759 0.80965 0.64998 0.0
C1384 C 0.14296 0.75926 0.63995 0.0
C1385 C 0.12461 0.81865 0.63226 0.0
C1386 C 0.13031 0.79825 0.61853 0.0
C1387 C 0.14093 0.74666 0.60863 0.0
C1388 C 0.14653 0.71597 0.61256 0.0
C1389 C 0.13861 0.76823 0.62224 0.0
C1390 C 0.15214 0.70764 0.63016 0.0
C1391 C 0.15063 0.7291 0.6437 0.0
H1392 H 0.52063 0.91513 0.86927 0.0
H1393 H 0.46552 0.86703 0.83168 0.0
H1394 H 0.42623 0.86047 0.85388 0.0
H1395 H 0.41099 0.86174 0.88514 0.0
H1396 H 0.46662 0.9098 0.92251 0.0
H1397 H 0.50167 0.92337 0.89923 0.0
C1398 C 0.49977 0.90378 0.86582 0.0
C1399 C 0.49637 0.89108 0.84896 0.0
C1400 C 0.47733 0.89976 0.8787 0.0
C1401 C 0.46894 0.87683 0.84462 0.0
C1402 C 0.44646 0.87288 0.85735 0.0
C1403 C 0.43046 0.87566 0.88813 0.0
C1404 C 0.43623 0.88434 0.90566 0.0
C1405 C 0.45094 0.88318 0.87463 0.0
C1406 C 0.46145 0.90272 0.90921 0.0
C1407 C 0.48175 0.91037 0.89588 0.0
H1408 H 0.35313 0.77163 0.32959 0.0
H1409 H 0.39933 0.83258 0.36492 0.0
H1410 H 0.38568 0.80062 0.38997 0.0
H1411 H 0.36689 0.75206 0.40117 0.0
H1412 H 0.32433 0.68921 0.36544 0.0
H1413 H 0.32982 0.72549 0.3413 0.0
C1414 C 0.3597 0.77833 0.3428 0.0
C1415 C 0.37752 0.80439 0.34531 0.0
C1416 C 0.35263 0.75931 0.35709 0.0
C1417 C 0.38584 0.81257 0.36256 0.0
C1418 C 0.3781 0.79423 0.3769 0.0
C1419 C 0.35817 0.74651 0.3882 0.0
C1420 C 0.34543 0.71779 0.3851 0.0
C1421 C 0.36243 0.76703 0.37424 0.0
C1422 C 0.33439 0.71104 0.36818 0.0
C1423 C 0.33765 0.73174 0.35434 0.0
H1424 H 0.40581 0.13472 0.62014 0.0
H1425 H 0.44561 0.07099 0.58375 0.0
H1426 H 0.4842 0.05822 0.60526 0.0
H1427 H 0.51094 0.07049 0.63277 0.0
H1428 H 0.47038 0.13309 0.66956 0.0
H1429 H 0.42779 0.14043 0.64971 0.0
C1430 C 0.42254 0.11759 0.61702 0.0
C1431 C 0.42318 0.10454 0.60007 0.0
C1432 C 0.44486 0.11029 0.62951 0.0
C1433 C 0.44477 0.08195 0.59647 0.0
C1434 C 0.467 0.07461 0.6088 0.0
C1435 C 0.49251 0.08529 0.63659 0.0
C1436 C 0.49423 0.10163 0.65247 0.0
C1437 C 0.46798 0.08952 0.62509 0.0
C1438 C 0.46987 0.12036 0.65735 0.0
C1439 C 0.44549 0.12473 0.64596 0.0
H1440 H 0.13741 0.22929 0.9021 0.0
H1441 H 0.17824 0.29401 0.86674 0.0
H1442 H 0.1743 0.25787 0.84246 0.0
H1443 H 0.15195 0.21136 0.83044 0.0
H1444 H 0.1073 0.14874 0.86548 0.0
H1445 H 0.12043 0.18037 0.89073 0.0
C1446 C 0.14607 0.23533 0.88918 0.0
C1447 C 0.15772 0.26455 0.88621 0.0
C1448 C 0.14273 0.21486 0.87515 0.0
C1449 C 0.1689 0.27182 0.86937 0.0
C1450 C 0.16654 0.25118 0.85545 0.0
C1451 C 0.1458 0.2042 0.84364 0.0
C1452 C 0.12844 0.17783 0.84604 0.0
C1453 C 0.1524 0.22312 0.85804 0.0
C1454 C 0.12046 0.16903 0.86325 0.0
C1455 C 0.12786 0.18718 0.87769 0.0
H1456 H 0.00651 0.88848 0.15161 0.0
H1457 H 0.94354 0.93251 0.11651 0.0
H1458 H 0.9809 0.93097 0.0928 0.0
H1459 H 0.02805 0.9101 0.08099 0.0
H1460 H 0.08917 0.86247 0.1156 0.0
H1461 H 0.05607 0.87289 0.14062 0.0
C1462 C 0.00108 0.89829 0.13889 0.0
C1463 C 0.97203 0.91014 0.13577 0.0
C1464 C 0.02226 0.89639 0.12516 0.0
C1465 C 0.96558 0.92296 0.11923 0.0
C1466 C 0.98691 0.92198 0.10563 0.0
C1467 C 0.03452 0.90252 0.09404 0.0
C1468 C 0.06087 0.88509 0.09631 0.0
C1469 C 0.01484 0.90766 0.10826 0.0
C1470 C 0.06886 0.87562 0.1134 0.0
C1471 C 0.04988 0.88149 0.12772 0.0
H1472 H 0.61957 0.75111 0.89906 0.0
H1473 H 0.66634 0.68751 0.86556 0.0
H1474 H 0.66012 0.72159 0.84038 0.0
H1475 H 0.63665 0.76669 0.8273 0.0
H1476 H 0.58654 0.82838 0.86038 0.0
H1477 H 0.59886 0.79786 0.88629 0.0
C1478 C 0.62899 0.74497 0.88634 0.0
C1479 C 0.64345 0.71676 0.88422 0.0
C1480 C 0.62435 0.76418 0.87178 0.0
C1481 C 0.65512 0.70904 0.86757 0.0
C1482 C 0.65144 0.72847 0.85314 0.0
C1483 C 0.62887 0.77381 0.8402 0.0
C1484 C 0.61064 0.79984 0.84183 0.0
C1485 C 0.63537 0.7557 0.85499 0.0
C1486 C 0.60048 0.80842 0.85869 0.0
C1487 C 0.60751 0.79095 0.87353 0.0
H1488 H 0.99345 0.88602 0.64934 0.0
H1489 H 0.05274 0.93343 0.61359 0.0
H1490 H 0.01569 0.92791 0.5899 0.0
H1491 H 0.97021 0.90338 0.57849 0.0
H1492 H 0.91357 0.85139 0.61356 0.0
H1493 H 0.9458 0.86513 0.63845 0.0
C1494 C -0.002 0.89584 0.63649 0.0
C1495 C 0.02589 0.91008 0.63321 0.0
C1496 C 0.97725 0.89133 0.62276 0.0
C1497 C 0.0315 0.92233 0.61643 0.0
C1498 C 0.01039 0.91903 0.60287 0.0
C1499 C 0.96447 0.89556 0.59163 0.0
C1500 C 0.93955 0.87623 0.59413 0.0
C1501 C 0.98372 0.9026 0.60573 0.0
C1502 C 0.93269 0.86612 0.61124 0.0
C1503 C 0.95115 0.87393 0.62548 0.0
H1504 H 0.88214 0.17295 0.36039 0.0
H1505 H 0.83945 0.2278 0.32039 0.0
H1506 H 0.82802 0.26656 0.34218 0.0
H1507 H 0.83531 0.28769 0.37186 0.0
H1508 H 0.87668 0.23261 0.41217 0.0
H1509 H 0.88306 0.1913 0.39114 0.0
C1510 C 0.86988 0.19315 0.35651 0.0
C1511 C 0.86194 0.19744 0.3387 0.0
C1512 C 0.86333 0.21558 0.36916 0.0
C1513 C 0.8458 0.22369 0.33397 0.0
C1514 C 0.83941 0.24609 0.34642 0.0
C1515 C 0.84524 0.26646 0.37611 0.0
C1516 C 0.85582 0.26347 0.39351 0.0
C1517 C 0.84883 0.24268 0.36394 0.0
C1518 C 0.86834 0.23564 0.39886 0.0
C1519 C 0.87219 0.21199 0.3868 0.0
H1520 H 0.53201 0.09558 0.08756 0.0
H1521 H 0.58622 0.14627 0.12443 0.0
H1522 H 0.55003 0.13524 0.14794 0.0
H1523 H 0.50013 0.1167 0.15698 0.0
H1524 H 0.44408 0.06986 0.11934 0.0
H1525 H 0.48413 0.07344 0.09723 0.0
C1526 C 0.53637 0.1036 0.10083 0.0
C1527 C 0.56184 0.12176 0.1042 0.0
C1528 C 0.51494 0.0981 0.11411 0.0
C1529 C 0.56679 0.13233 0.12145 0.0
C1530 C 0.54604 0.1261 0.13488 0.0
C1531 C 0.49687 0.1067 0.14406 0.0
C1532 C 0.46904 0.09314 0.13979 0.0
C1533 C 0.51957 0.10983 0.13122 0.0
C1534 C 0.46519 0.08054 0.12293 0.0
C1535 C 0.48806 0.08267 0.11027 0.0
H1536 H 0.61975 0.22957 0.59667 0.0
H1537 H 0.67025 0.2934 0.62798 0.0
H1538 H 0.67004 0.25806 0.65281 0.0
H1539 H 0.64963 0.21228 0.66675 0.0
H1540 H 0.59494 0.1509 0.63621 0.0
H1541 H 0.60304 0.1818 0.60988 0.0
C1542 C 0.63127 0.23554 0.60879 0.0
C1543 C 0.64484 0.2642 0.61049 0.0
C1544 C 0.63006 0.2156 0.62322 0.0
C1545 C 0.65949 0.27158 0.62635 0.0
C1546 C 0.6593 0.2514 0.64058 0.0
C1547 C 0.64008 0.20524 0.65425 0.0
C1548 C 0.62161 0.17935 0.65347 0.0
C1549 C 0.64379 0.2238 0.63934 0.0
C1550 C 0.60914 0.17078 0.63718 0.0
C1551 C 0.61366 0.18851 0.62214 0.0
H1552 H 0.47562 0.91982 0.37406 0.0
H1553 H 0.52696 0.86775 0.3363 0.0
H1554 H 0.5678 0.86204 0.35751 0.0
H1555 H 0.58496 0.86453 0.38828 0.0
H1556 H 0.53432 0.91787 0.42574 0.0
H1557 H 0.49774 0.93076 0.40311 0.0
C1558 C 0.49603 0.90781 0.37034 0.0
C1559 C 0.49786 0.89366 0.35379 0.0
C1560 C 0.51951 0.90446 0.38264 0.0
C1561 C 0.52472 0.87865 0.34904 0.0
C1562 C 0.54811 0.87519 0.3612 0.0
C1563 C 0.56631 0.87952 0.39143 0.0
C1564 C 0.56195 0.88931 0.4089 0.0
C1565 C 0.54516 0.88687 0.3783 0.0
C1566 C 0.53799 0.90932 0.41257 0.0
C1567 C 0.5169 0.91671 0.3996 0.0
H1568 H 0.83888 0.7799 0.16461 0.0
H1569 H 0.88277 0.84153 0.12866 0.0
H1570 H 0.87401 0.80647 0.10429 0.0
H1571 H 0.86014 0.75567 0.09407 0.0
H1572 H 0.81977 0.69247 0.13051 0.0
H1573 H 0.82046 0.73091 0.15369 0.0
C1574 C 0.84587 0.78604 0.15138 0.0
C1575 C 0.8616 0.81332 0.14852 0.0
C1576 C 0.84169 0.76527 0.13751 0.0
C1577 C 0.87075 0.82066 0.13127 0.0
C1578 C 0.86585 0.80055 0.11733 0.0
C1579 C 0.85088 0.75045 0.10697 0.0
C1580 C 0.84013 0.72107 0.11055 0.0
C1581 C 0.85228 0.77236 0.12041 0.0
C1582 C 0.82835 0.71479 0.12739 0.0
C1583 C 0.82884 0.73675 0.14069 0.0
H1584 H 0.95586 0.09849 0.91714 0.0
H1585 H 0.89833 0.15557 0.88542 0.0
H1586 H 0.92949 0.14519 0.85953 0.0
H1587 H 0.97649 0.12526 0.84684 0.0
H1588 H 0.036 0.07127 0.87914 0.0
H1589 H 0.00048 0.07476 0.90373 0.0
C1590 C 0.94972 0.10818 0.9045 0.0
C1591 C 0.92485 0.12799 0.90331 0.0
C1592 C 0.96833 0.1029 0.88976 0.0
C1593 C 0.91743 0.14042 0.88679 0.0
C1594 C 0.93531 0.13456 0.87196 0.0
C1595 C 0.98145 0.11371 0.85913 0.0
C1596 C 0.00904 0.09819 0.86115 0.0
C1597 C 0.96136 0.11663 0.87342 0.0
C1598 C 0.01506 0.08352 0.87723 0.0
C1599 C 0.99478 0.08559 0.89134 0.0
H1600 H 0.82048 0.7692 0.61945 0.0
H1601 H 0.87493 0.72129 0.58127 0.0
H1602 H 0.87742 0.67759 0.60074 0.0
H1603 H 0.87182 0.65672 0.63045 0.0
H1604 H 0.81786 0.70445 0.66888 0.0
H1605 H 0.80681 0.74378 0.64731 0.0
C1606 C 0.83237 0.74899 0.61522 0.0
C1607 C 0.84815 0.74896 0.59909 0.0
C1608 C 0.83403 0.72384 0.6266 0.0
C1609 C 0.86298 0.72229 0.59373 0.0
C1610 C 0.86448 0.69719 0.60488 0.0
C1611 C 0.85695 0.67525 0.63404 0.0
C1612 C 0.84661 0.67803 0.65154 0.0
C1613 C 0.85122 0.69823 0.62166 0.0
C1614 C 0.82685 0.70197 0.6557 0.0
C1615 C 0.82061 0.72467 0.64336 0.0
H1616 H 0.46824 0.57258 0.87574 0.0
H1617 H 0.51142 0.62861 0.83648 0.0
H1618 H 0.55407 0.63679 0.8561 0.0
H1619 H 0.57568 0.63393 0.88586 0.0
H1620 H 0.53335 0.57664 0.92481 0.0
H1621 H 0.49437 0.56277 0.9038 0.0
C1622 C 0.48723 0.58613 0.87137 0.0
C1623 C 0.48626 0.60043 0.85483 0.0
C1624 C 0.51184 0.59081 0.88273 0.0
C1625 C 0.51133 0.6175 0.84923 0.0
C1626 C 0.53578 0.62234 0.86047 0.0
C1627 C 0.55828 0.61795 0.88967 0.0
C1628 C 0.55707 0.60711 0.90711 0.0
C1629 C 0.53576 0.61001 0.87749 0.0
C1630 C 0.53464 0.58593 0.91164 0.0
C1631 C 0.51218 0.57797 0.89962 0.0
H1632 H 0.62732 0.26961 0.10044 0.0
H1633 H 0.6759 0.20866 0.13477 0.0
H1634 H 0.66979 0.24407 0.15924 0.0
H1635 H 0.6437 0.28798 0.17179 0.0
H1636 H 0.59231 0.34717 0.13785 0.0
H1637 H 0.60675 0.31689 0.11228 0.0
C1638 C 0.63714 0.26428 0.11317 0.0
C1639 C 0.65157 0.23622 0.11583 0.0
C1640 C 0.63267 0.28426 0.12732 0.0
C1641 C 0.66438 0.22991 0.13239 0.0
C1642 C 0.66077 0.2501 0.14642 0.0
C1643 C 0.63618 0.29472 0.15879 0.0
C1644 C 0.61654 0.31958 0.15684 0.0
C1645 C 0.64386 0.27671 0.14421 0.0
C1646 C 0.60713 0.32794 0.1398 0.0
C1647 C 0.61532 0.31058 0.12516 0.0
H1648 H 0.91644 0.36775 0.39 0.0
H1649 H 0.97447 0.40021 0.43158 0.0
H1650 H 0.01192 0.41583 0.40998 0.0
H1651 H 0.03104 0.41441 0.37964 0.0
H1652 H 0.97318 0.38245 0.33785 0.0
H1653 H 0.93285 0.37314 0.35906 0.0
C1654 C 0.93707 0.37868 0.39429 0.0
C1655 C 0.94266 0.38256 0.4124 0.0
C1656 C 0.95874 0.38759 0.38175 0.0
C1657 C 0.96941 0.39706 0.41774 0.0
C1658 C 0.99102 0.40585 0.40538 0.0
C1659 C 0.0094 0.40598 0.37512 0.0
C1660 C 0.0054 0.39867 0.35724 0.0
C1661 C 0.98633 0.40041 0.3874 0.0
C1662 C 0.97704 0.38813 0.35156 0.0
C1663 C 0.95396 0.38257 0.36371 0.0
H1664 H 0.81157 0.23601 0.87982 0.0
H1665 H 0.8698 0.2795 0.91775 0.0
H1666 H 0.87711 0.32193 0.89777 0.0
H1667 H 0.87391 0.34238 0.86773 0.0
H1668 H 0.81494 0.29966 0.82994 0.0
H1669 H 0.80055 0.2619 0.85175 0.0
C1670 C 0.82533 0.25507 0.88386 0.0
C1671 C 0.8407 0.25411 0.90007 0.0
C1672 C 0.8296 0.27954 0.87225 0.0
C1673 C 0.85798 0.27932 0.90525 0.0
C1674 C 0.86232 0.30365 0.89379 0.0
C1675 C 0.85735 0.32526 0.86438 0.0
C1676 C 0.8462 0.32345 0.84706 0.0
C1677 C 0.8493 0.30336 0.87697 0.0
C1678 C 0.82428 0.30145 0.84308 0.0
C1679 C 0.81613 0.27963 0.85554 0.0
H1680 H 0.96554 0.58458 0.08257 0.0
H1681 H 0.90202 0.63016 0.11668 0.0
H1682 H 0.93439 0.62002 0.14205 0.0
H1683 H 0.98416 0.60596 0.15345 0.0
H1684 H 0.0496 0.56465 0.11874 0.0
H1685 H 0.0128 0.56487 0.09476 0.0
C1686 C 0.95836 0.59169 0.09559 0.0
C1687 C 0.93156 0.60852 0.09763 0.0
C1688 C 0.97765 0.58685 0.11 0.0
C1689 C 0.92268 0.61747 0.11467 0.0
C1690 C 0.94125 0.61177 0.12919 0.0
C1691 C 0.99021 0.59634 0.14077 0.0
C1692 C 0.01979 0.58572 0.13782 0.0
C1693 C 0.96936 0.59767 0.12686 0.0
C1694 C 0.02712 0.57326 0.12131 0.0
C1695 C 0.00611 0.5735 0.10757 0.0
H1696 H 0.63842 0.73931 0.40962 0.0
H1697 H 0.67336 0.80395 0.3721 0.0
H1698 H 0.67438 0.76483 0.34932 0.0
H1699 H 0.65876 0.71446 0.33914 0.0
H1700 H 0.6202 0.6512 0.37623 0.0
H1701 H 0.62747 0.68752 0.40012 0.0
C1702 C 0.64682 0.74478 0.39656 0.0
C1703 C 0.6555 0.77467 0.39255 0.0
C1704 C 0.6464 0.72245 0.38338 0.0
C1705 C 0.66634 0.78122 0.37554 0.0
C1706 C 0.66682 0.75887 0.36248 0.0
C1707 C 0.65262 0.70829 0.35252 0.0
C1708 C 0.6388 0.68017 0.35585 0.0
C1709 C 0.65593 0.72969 0.3661 0.0
C1710 C 0.63071 0.67274 0.37326 0.0
C1711 C 0.63478 0.69355 0.38693 0.0
H1712 H 0.57317 0.35483 0.61138 0.0
H1713 H 0.52159 0.39902 0.57047 0.0
H1714 H 0.4839 0.41452 0.59208 0.0
H1715 H 0.46202 0.40933 0.62176 0.0
H1716 H 0.51379 0.36549 0.66269 0.0
H1717 H 0.55494 0.35657 0.64199 0.0
C1718 C 0.554 0.36834 0.60723 0.0
C1719 C 0.55003 0.37518 0.58924 0.0
C1720 C 0.53215 0.37704 0.61972 0.0
C1721 C 0.5252 0.39313 0.58418 0.0
C1722 C 0.50347 0.40192 0.59653 0.0
C1723 C 0.48252 0.39833 0.62624 0.0
C1724 C 0.48447 0.3876 0.64368 0.0
C1725 C 0.50614 0.39303 0.61421 0.0
C1726 C 0.51144 0.37378 0.64931 0.0
C1727 C 0.53502 0.36851 0.63745 0.0
H1728 H 0.12737 0.25954 0.40006 0.0
H1729 H 0.16216 0.1923 0.36406 0.0
H1730 H 0.159 0.2286 0.33978 0.0
H1731 H 0.14017 0.27711 0.32817 0.0
H1732 H 0.10186 0.34267 0.364 0.0
H1733 H 0.11289 0.3095 0.38893 0.0
C1734 C 0.13482 0.25292 0.38698 0.0
C1735 C 0.14472 0.22308 0.38388 0.0
C1736 C 0.13202 0.27358 0.37298 0.0
C1737 C 0.15425 0.21502 0.36682 0.0
C1738 C 0.15235 0.23576 0.3529 0.0
C1739 C 0.13483 0.28443 0.34147 0.0
C1740 C 0.12002 0.31228 0.34418 0.0
C1741 C 0.14034 0.26478 0.35572 0.0
C1742 C 0.11306 0.32128 0.36151 0.0
C1743 C 0.1193 0.30228 0.37578 0.0
H1744 H 0.47108 0.38394 0.15865 0.0
H1745 H 0.53223 0.43698 0.12691 0.0
H1746 H 0.49682 0.43506 0.10222 0.0
H1747 H 0.45254 0.4117 0.0884 0.0
H1748 H 0.39412 0.35443 0.11938 0.0
H1749 H 0.42413 0.36501 0.14568 0.0
C1750 C 0.47639 0.39572 0.14649 0.0
C1751 C 0.50443 0.41038 0.14459 0.0
C1752 C 0.4565 0.39345 0.13212 0.0
C1753 C 0.51092 0.42537 0.12868 0.0
C1754 C 0.49072 0.42417 0.11453 0.0
C1755 C 0.44588 0.40215 0.10098 0.0
C1756 C 0.4212 0.38213 0.10187 0.0
C1757 C 0.46401 0.40728 0.11589 0.0
C1758 C 0.41309 0.36976 0.1183 0.0
C1759 C 0.43033 0.37571 0.13333 0.0
H1760 H 0.33597 0.78763 0.86919 0.0
H1761 H 0.36955 0.73476 0.91285 0.0
H1762 H 0.37827 0.69183 0.89326 0.0
H1763 H 0.38167 0.67121 0.86302 0.0
H1764 H 0.34596 0.72365 0.81972 0.0
H1765 H 0.33269 0.76447 0.83982 0.0
C1766 C 0.34464 0.76651 0.87447 0.0
C1767 C 0.3524 0.7646 0.8924 0.0
C1768 C 0.34961 0.74183 0.86313 0.0
C1769 C 0.36335 0.73695 0.89909 0.0
C1770 C 0.3686 0.71239 0.88786 0.0
C1771 C 0.37064 0.69141 0.85805 0.0
C1772 C 0.36519 0.69444 0.83986 0.0
C1773 C 0.36269 0.71488 0.86975 0.0
C1774 C 0.35049 0.72063 0.83365 0.0
C1775 C 0.34296 0.74414 0.84513 0.0
H1776 H 0.07029 0.62444 0.60809 0.0
H1777 H 0.01624 0.6038 0.56228 0.0
H1778 H 0.97386 0.59032 0.58107 0.0
H1779 H 0.95011 0.59033 0.61026 0.0
H1780 H 0.00408 0.60984 0.65624 0.0
H1781 H 0.04842 0.61713 0.63769 0.0
C1782 C 0.04937 0.61659 0.60226 0.0
C1783 C 0.04638 0.61554 0.58382 0.0
C1784 C 0.02491 0.60873 0.61316 0.0
C1785 C 0.01924 0.60489 0.57645 0.0
C1786 C 0.99485 0.59727 0.58717 0.0
C1787 C 0.9717 0.59558 0.61625 0.0
C1788 C 0.97358 0.60006 0.63455 0.0
C1789 C -0.00286 0.59995 0.60552 0.0
C1790 C 0.00186 0.60645 0.64215 0.0
C1791 C 0.02727 0.61084 0.63155 0.0
H1792 H 0.14707 0.7211 0.16598 0.0
H1793 H 0.10403 0.65863 0.13018 0.0
H1794 H 0.11613 0.69175 0.10537 0.0
H1795 H 0.13278 0.74126 0.0945 0.0
H1796 H 0.17228 0.80539 0.13066 0.0
H1797 H 0.16823 0.76853 0.15459 0.0
C1798 C 0.14084 0.71437 0.15272 0.0
C1799 C 0.12438 0.68749 0.15001 0.0
C1800 C 0.14706 0.73397 0.13857 0.0
C1801 C 0.11648 0.67927 0.1327 0.0
C1802 C 0.12334 0.69825 0.11849 0.0
C1803 C 0.14114 0.747 0.10752 0.0
C1804 C 0.15259 0.77621 0.1108 0.0
C1805 C 0.13772 0.7261 0.12135 0.0
C1806 C 0.16321 0.78318 0.12778 0.0
C1807 C 0.16076 0.76214 0.1415 0.0
H1808 H 0.00535 0.37746 0.84737 0.0
H1809 H 0.94562 0.42306 0.88375 0.0
H1810 H 0.98389 0.41964 0.90685 0.0
H1811 H 0.03153 0.39806 0.91765 0.0
H1812 H 0.08978 0.34977 0.88165 0.0
H1813 H 0.055 0.36023 0.85745 0.0
C1814 C 0.00082 0.38712 0.86026 0.0
C1815 C 0.97245 0.40018 0.86385 0.0
C1816 C 0.02261 0.38437 0.87362 0.0
C1817 C 0.96713 0.41267 0.88063 0.0
C1818 C 0.98899 0.41064 0.89388 0.0
C1819 C 0.03699 0.39036 0.90446 0.0
C1820 C 0.06316 0.3729 0.90155 0.0
C1821 C 0.01643 0.3957 0.89068 0.0
C1822 C 0.06971 0.36304 0.88433 0.0
C1823 C 0.04977 0.36893 0.87047 0.0
H1824 H 0.35486 0.25381 0.59931 0.0
H1825 H 0.30843 0.19328 0.63485 0.0
H1826 H 0.31145 0.23112 0.6583 0.0
H1827 H 0.33372 0.2781 0.66976 0.0
H1828 H 0.38392 0.33634 0.6347 0.0
H1829 H 0.37267 0.30282 0.60997 0.0
C1830 C 0.34486 0.24904 0.61208 0.0
C1831 C 0.33176 0.22055 0.61536 0.0
C1832 C 0.34764 0.27042 0.62566 0.0
C1833 C 0.31886 0.2149 0.63199 0.0
C1834 C 0.32068 0.2365 0.64543 0.0
C1835 C 0.34158 0.28385 0.65663 0.0
C1836 C 0.35982 0.30958 0.6541 0.0
C1837 C 0.33598 0.26388 0.64259 0.0
C1838 C 0.37003 0.31656 0.63703 0.0
C1839 C 0.36368 0.29736 0.62289 0.0
H1840 H 0.46872 0.5859 0.42155 0.0
H1841 H 0.41029 0.62583 0.38233 0.0
H1842 H 0.44675 0.61328 0.35928 0.0
H1843 H 0.49816 0.5985 0.35113 0.0
H1844 H 0.55839 0.56295 0.39082 0.0
H1845 H 0.51804 0.56577 0.41276 0.0
C1846 C 0.46359 0.59128 0.40791 0.0
C1847 C 0.43695 0.60717 0.40372 0.0
C1848 C 0.48517 0.58508 0.39482 0.0
C1849 C 0.43073 0.61388 0.38596 0.0
C1850 C 0.45163 0.60681 0.37277 0.0
C1851 C 0.50235 0.59073 0.36448 0.0
C1852 C 0.53143 0.58093 0.36938 0.0
C1853 C 0.47943 0.59355 0.37717 0.0
C1854 C 0.53633 0.57087 0.38673 0.0
C1855 C 0.51329 0.5726 0.3993 0.0
H1856 H 0.54224 0.25846 0.21565 0.0
H1857 H 0.47093 0.32433 0.20995 0.0
H1858 H 0.43312 0.28425 0.2128 0.0
H1859 H 0.42086 0.23011 0.21334 0.0
H1860 H 0.49255 0.16411 0.21479 0.0
H1861 H 0.52994 0.20462 0.21751 0.0
C1862 C 0.5184 0.2641 0.21538 0.0
C1863 C 0.50926 0.2942 0.21261 0.0
C1864 C 0.497 0.24089 0.21621 0.0
C1865 C 0.47838 0.30123 0.212 0.0
C1866 C 0.45683 0.27836 0.21362 0.0
C1867 C 0.44463 0.22468 0.21472 0.0
C1868 C 0.45413 0.19438 0.21405 0.0
C1869 C 0.46593 0.24805 0.21525 0.0
C1870 C 0.48493 0.1874 0.21538 0.0
C1871 C 0.50621 0.21051 0.21684 0.0
H1872 H 0.9867 0.31128 0.46847 0.0
H1873 H 0.91972 0.2407 0.47019 0.0
H1874 H 0.95955 0.2023 0.47191 0.0
H1875 H 0.0127 0.18897 0.46789 0.0
H1876 H 0.07895 0.25943 0.46102 0.0
H1877 H 0.0403 0.29797 0.46654 0.0
C1878 C 0.98094 0.28752 0.46978 0.0
C1879 C 0.95056 0.27859 0.46935 0.0
C1880 C 0.00386 0.26568 0.46955 0.0
C1881 C 0.9431 0.24785 0.47059 0.0
C1882 C 0.96581 0.22599 0.47146 0.0
C1883 C 0.01878 0.21276 0.46806 0.0
C1884 C 0.04846 0.22153 0.46408 0.0
C1885 C -0.0038 0.23463 0.4702 0.0
C1886 C 0.05611 0.25233 0.46401 0.0
C1887 C 0.03405 0.27428 0.46712 0.0
H1888 H 0.95486 0.72262 0.72076 0.0
H1889 H 0.96116 0.70827 0.66454 0.0
H1890 H 0.99143 0.7538 0.66137 0.0
H1891 H 0.01789 0.79621 0.67449 0.0
H1892 H 0.01836 0.80776 0.7309 0.0
H1893 H 0.98307 0.76522 0.73419 0.0
C1894 C 0.96302 0.72955 0.70788 0.0
C1895 C 0.95609 0.71214 0.69294 0.0
C1896 C 0.98118 0.75539 0.70619 0.0
C1897 C 0.96669 0.72112 0.67627 0.0
C1898 C 0.98374 0.74727 0.6744 0.0
C1899 C 0.00966 0.7898 0.68746 0.0
C1900 C 0.01989 0.80522 0.70241 0.0
C1901 C 0.99121 0.76444 0.68925 0.0
C1902 C 0.01016 0.79627 0.71923 0.0
C1903 C 0.9903 0.77189 0.72109 0.0
H1904 H 0.51052 0.68638 0.96305 0.0
H1905 H 0.57961 0.75485 0.9602 0.0
H1906 H 0.54148 0.79452 0.96385 0.0
H1907 H 0.48831 0.80949 0.96354 0.0
H1908 H 0.41907 0.74105 0.96189 0.0
H1909 H 0.45737 0.70135 0.96458 0.0
C1910 C 0.51721 0.70997 0.96367 0.0
C1911 C 0.54761 0.71791 0.96139 0.0
C1912 C 0.49511 0.73252 0.96479 0.0
C1913 C 0.55618 0.74844 0.96188 0.0
C1914 C 0.53445 0.77103 0.96392 0.0
C1915 C 0.48164 0.78589 0.96421 0.0
C1916 C 0.45112 0.77799 0.96255 0.0
C1917 C 0.50379 0.76333 0.96476 0.0
C1918 C 0.44257 0.74745 0.96312 0.0
C1919 C 0.46441 0.72484 0.96459 0.0
H1920 H 0.44891 0.7441 0.28934 0.0
H1921 H 0.51772 0.81277 0.28608 0.0
H1922 H 0.55693 0.77372 0.2854 0.0
H1923 H 0.57152 0.72102 0.29021 0.0
H1924 H 0.50292 0.65305 0.29783 0.0
H1925 H 0.46356 0.69072 0.29212 0.0
C1926 C 0.47248 0.75037 0.288 0.0
C1927 C 0.48063 0.78105 0.2877 0.0
C1928 C 0.49482 0.72793 0.28864 0.0
C1929 C 0.51113 0.78916 0.28633 0.0
C1930 C 0.53347 0.7669 0.28601 0.0
C1931 C 0.54797 0.71432 0.2902 0.0
C1932 C 0.54 0.68443 0.29445 0.0
C1933 C 0.52559 0.73632 0.28783 0.0
C1934 C 0.50946 0.67604 0.29466 0.0
C1935 C 0.48701 0.69755 0.29144 0.0
H1936 H 0.50137 0.29538 0.53387 0.0
H1937 H 0.56822 0.22543 0.54096 0.0
H1938 H 0.52869 0.18675 0.5403 0.0
H1939 H 0.47489 0.17389 0.54189 0.0
H1940 H 0.40816 0.24486 0.53935 0.0
H1941 H 0.44776 0.28227 0.53383 0.0
C1942 C 0.50728 0.27159 0.53481 0.0
C1943 C 0.53749 0.26307 0.53738 0.0
C1944 C 0.4844 0.24982 0.53544 0.0
C1945 C 0.545 0.23233 0.53896 0.0
C1946 C 0.52244 0.21031 0.53865 0.0
C1947 C 0.46908 0.19746 0.53971 0.0
C1948 C 0.43887 0.20681 0.54095 0.0
C1949 C 0.49201 0.21892 0.53751 0.0
C1950 C 0.43141 0.23737 0.53846 0.0
C1951 C 0.45399 0.25868 0.53535 0.0
H1952 H 0.98583 0.1877 0.79241 0.0
H1953 H 0.06698 0.24098 0.78766 0.0
H1954 H 0.03712 0.28728 0.78635 0.0
H1955 H 0.98835 0.3129 0.79018 0.0
H1956 H 0.90686 0.25995 0.79315 0.0
H1957 H 0.93634 0.21321 0.7913 0.0
C1958 C -0.00316 0.20943 0.79079 0.0
C1959 C 0.02846 0.21103 0.79039 0.0
C1960 C 0.97953 0.23599 0.78984 0.0
C1961 C 0.0426 0.23921 0.78801 0.0
C1962 C 0.02558 0.26573 0.78737 0.0
C1963 C 0.97712 0.29109 0.79007 0.0
C1964 C 0.94571 0.28966 0.79201 0.0
C1965 C 0.99412 0.26443 0.78881 0.0
C1966 C 0.93114 0.26145 0.79165 0.0
C1967 C 0.94796 0.23476 0.79071 0.0
H1968 H 0.98891 0.68472 0.03925 0.0
H1969 H 0.9179 0.75153 0.04097 0.0
H1970 H 0.95496 0.79204 0.0375 0.0
H1971 H 0.00765 0.80841 0.0381 0.0
H1972 H 0.07879 0.74178 0.04028 0.0
H1973 H 0.04167 0.70108 0.03782 0.0
C1974 C 0.98159 0.70813 0.03846 0.0
C1975 C 0.95092 0.71532 0.0404 0.0
C1976 C 0.00307 0.73124 0.03731 0.0
C1977 C 0.94154 0.74565 0.03961 0.0
C1978 C 0.96267 0.76874 0.03765 0.0
C1979 C 0.01501 0.78498 0.0376 0.0
C1980 C 0.04572 0.77792 0.03938 0.0
C1981 C 0.99353 0.76183 0.03709 0.0
C1982 C 0.05512 0.74758 0.03899 0.0
C1983 C 0.03396 0.72437 0.03764 0.0
H1984 H 0.4271 0.72542 0.77334 0.0
H1985 H 0.49654 0.6574 0.77748 0.0
H1986 H 0.53541 0.69586 0.77289 0.0
H1987 H 0.54925 0.74933 0.77461 0.0
H1988 H 0.47957 0.81756 0.7756 0.0
H1989 H 0.44108 0.77878 0.77097 0.0
C1990 C 0.4507 0.71896 0.77256 0.0
C1991 C 0.45918 0.68888 0.77581 0.0
C1992 C 0.47283 0.74142 0.77121 0.0
C1993 C 0.48973 0.68059 0.77505 0.0
C1994 C 0.51188 0.70258 0.77257 0.0
C1995 C 0.52572 0.75574 0.77325 0.0
C1996 C 0.51705 0.78603 0.77565 0.0
C1997 C 0.50371 0.73321 0.77169 0.0
C1998 C 0.48656 0.79421 0.774 0.0
C1999 C 0.46461 0.77208 0.7714 0.0
H2000 H -0.00149 0.81322 0.53628 0.0
H2001 H 0.93227 0.7448 0.52457 0.0
H2002 H 0.97242 0.70801 0.51875 0.0
H2003 H 0.02511 0.69353 0.52213 0.0
H2004 H 0.09059 0.75958 0.539 0.0
H2005 H 0.05226 0.79948 0.53728 0.0
C2006 C 0.99306 0.79044 0.532 0.0
C2007 C 0.96276 0.78146 0.5308 0.0
C2008 C 0.01614 0.76909 0.52976 0.0
C2009 C 0.95559 0.75191 0.52558 0.0
C2010 C 0.97848 0.73098 0.5223 0.0
C2011 C 0.03123 0.71683 0.52489 0.0
C2012 C 0.06051 0.72375 0.53069 0.0
C2013 C 0.00872 0.73902 0.52507 0.0
C2014 C 0.0681 0.75387 0.53452 0.0
C2015 C 0.04617 0.77656 0.53365 0.0
H2016 H 0.92926 0.24047 0.27945 0.0
H2017 H -0.00154 0.17184 0.27824 0.0
H2018 H 0.03738 0.21088 0.27575 0.0
H2019 H 0.0517 0.26407 0.27916 0.0
H2020 H 0.98257 0.33216 0.28501 0.0
H2021 H 0.9435 0.29399 0.28026 0.0
C2022 C 0.95282 0.23414 0.27806 0.0
C2023 C 0.96118 0.20352 0.27894 0.0
C2024 C 0.97501 0.25667 0.27779 0.0
C2025 C 0.9917 0.19539 0.27754 0.0
C2026 C 0.01388 0.21767 0.27624 0.0
C2027 C 0.0281 0.27063 0.27892 0.0
C2028 C 0.01988 0.30073 0.28248 0.0
C2029 C 0.00585 0.24836 0.27714 0.0
C2030 C 0.98928 0.309 0.2824 0.0
C2031 C 0.967 0.28721 0.27972 0.0
H2032 H 0.56472 0.25554 0.0455 0.0
H2033 H 0.51295 0.1744 0.03618 0.0
H2034 H 0.46735 0.20449 0.03227 0.0
H2035 H 0.44103 0.25296 0.03617 0.0
H2036 H 0.49263 0.33441 0.04435 0.0
H2037 H 0.53951 0.30519 0.04375 0.0
C2038 C 0.54357 0.24456 0.04224 0.0
C2039 C 0.54207 0.21283 0.04149 0.0
C2040 C 0.51737 0.26199 0.03997 0.0
C2041 C 0.51467 0.19883 0.03694 0.0
C2042 C 0.48851 0.21598 0.03481 0.0
C2043 C 0.46263 0.26431 0.0374 0.0
C2044 C 0.46351 0.29556 0.04057 0.0
C2045 C 0.4894 0.24743 0.037 0.0
C2046 C 0.49151 0.31027 0.04191 0.0
C2047 C 0.51828 0.29357 0.04171 0.0
H2048 H 0.49319 0.3119 0.71621 0.0
H2049 H 0.41436 0.25528 0.72109 0.0
H2050 H 0.44635 0.21078 0.725 0.0
H2051 H 0.49626 0.18734 0.72144 0.0
H2052 H 0.57515 0.24392 0.71695 0.0
H2053 H 0.54365 0.28921 0.71886 0.0
C2054 C 0.4831 0.2899 0.71856 0.0
C2055 C 0.45162 0.28663 0.71796 0.0
C2056 C 0.50159 0.26444 0.72069 0.0
C2057 C 0.43862 0.25823 0.72137 0.0
C2058 C 0.45688 0.23276 0.72349 0.0
C2059 C 0.50654 0.20962 0.72135 0.0
C2060 C 0.53773 0.21247 0.71868 0.0
C2061 C 0.48832 0.23547 0.72232 0.0
C2062 C 0.55106 0.24129 0.7189 0.0
C2063 C 0.53307 0.26716 0.71985 0.0
H2064 H 0.5055 0.80919 0.46063 0.0
H2065 H 0.57566 0.7417 0.46376 0.0
H2066 H 0.53768 0.70166 0.46584 0.0
H2067 H 0.48508 0.68581 0.46295 0.0
H2068 H 0.4154 0.75285 0.45549 0.0
H2069 H 0.45252 0.79337 0.45909 0.0
C2070 C 0.51233 0.78573 0.46217 0.0
C2071 C 0.54307 0.77815 0.46213 0.0
C2072 C 0.49048 0.7629 0.4624 0.0
C2073 C 0.55196 0.7478 0.46377 0.0
C2074 C 0.53032 0.72501 0.46491 0.0
C2075 C 0.47798 0.70932 0.4625 0.0
C2076 C 0.44773 0.71653 0.459 0.0
C2077 C 0.49958 0.73226 0.46368 0.0
C2078 C 0.4387 0.74695 0.45813 0.0
C2079 C 0.45987 0.77003 0.46015 0.0
H2080 H 0.92823 0.76175 0.2056 0.0
H2081 H -0.00282 0.82965 0.21175 0.0
H2082 H 0.03541 0.79013 0.21551 0.0
H2083 H 0.0499 0.73699 0.21281 0.0
H2084 H 0.98199 0.6694 0.20246 0.0
H2085 H 0.94246 0.70797 0.20476 0.0
C2086 C 0.95153 0.76777 0.20822 0.0
C2087 C 0.96006 0.79837 0.20851 0.0
C2088 C 0.9735 0.74499 0.20938 0.0
C2089 C 0.99029 0.80613 0.21153 0.0
C2090 C 0.01208 0.78359 0.21359 0.0
C2091 C 0.02639 0.73056 0.21145 0.0
C2092 C 0.0188 0.70046 0.20744 0.0
C2093 C 0.00407 0.75301 0.21192 0.0
C2094 C 0.98831 0.6925 0.20548 0.0
C2095 C 0.96577 0.71453 0.20675 0.0
H2096 H 0.98612 0.18507 0.96327 0.0
H2097 H 0.92336 0.25862 0.97075 0.0
H2098 H 0.96524 0.29433 0.97332 0.0
H2099 H 0.01853 0.30546 0.96832 0.0
H2100 H 0.08061 0.23277 0.95676 0.0
H2101 H 0.04034 0.19574 0.96114 0.0
C2102 C 0.98175 0.20879 0.966 0.0
C2103 C 0.9519 0.21937 0.96682 0.0
C2104 C 0.00581 0.22933 0.96644 0.0
C2105 C 0.94629 0.25014 0.97005 0.0
C2106 C 0.97018 0.27052 0.97142 0.0
C2107 C 0.02343 0.28147 0.9672 0.0
C2108 C 0.05236 0.27181 0.96208 0.0
C2109 C -9e-05 0.26053 0.96887 0.0
C2110 C 0.05838 0.2407 0.96054 0.0
C2111 C 0.03537 0.21956 0.963 0.0
H2112 H 0.35869 0.94266 0.263 0.0
H2113 H 0.45588 0.94476 0.26513 0.0
H2114 H 0.45657 0.98923 0.24596 0.0
H2115 H 0.42939 0.0281 0.229 0.0
H2116 H 0.3325 0.02399 0.22505 0.0
H2117 H 0.33172 0.97929 0.24419 0.0
C2118 C 0.37999 0.95272 0.25909 0.0
C2119 C 0.40716 0.9407 0.26557 0.0
C2120 C 0.38023 0.97774 0.24766 0.0
C2121 C 0.43463 0.95403 0.26058 0.0
C2122 C 0.43506 0.97926 0.24949 0.0
C2123 C 0.4082 0.01704 0.2321 0.0
C2124 C 0.38102 0.02924 0.22578 0.0
C2125 C 0.408 0.99134 0.24299 0.0
C2126 C 0.35364 0.015 0.22997 0.0
C2127 C 0.3532 0.98954 0.2409 0.0
H2128 H 0.30387 0.14125 0.50181 0.0
H2129 H 0.24558 0.14261 0.54739 0.0
H2130 H 0.2013 0.14619 0.52817 0.0
H2131 H 0.17944 0.14785 0.49852 0.0
H2132 H 0.23717 0.14256 0.45283 0.0
H2133 H 0.28179 0.14189 0.472 0.0
C2134 C 0.28144 0.14183 0.50751 0.0
C2135 C 0.27785 0.1413 0.52596 0.0
C2136 C 0.2562 0.14334 0.49639 0.0
C2137 C 0.24878 0.14305 0.53322 0.0
C2138 C 0.22354 0.14501 0.52225 0.0
C2139 C 0.20178 0.14607 0.49277 0.0
C2140 C 0.20512 0.14468 0.47433 0.0
C2141 C 0.22702 0.14494 0.50384 0.0
C2142 C 0.23416 0.14358 0.467 0.0
C2143 C 0.25957 0.14305 0.47795 0.0
H2144 H 0.06133 0.96155 0.72773 0.0
H2145 H 0.15815 0.95325 0.73019 0.0
H2146 H 0.16025 0.99356 0.7523 0.0
H2147 H 0.13439 0.03087 0.77108 0.0
H2148 H 0.03835 0.04346 0.766 0.0
H2149 H 0.03578 0.0011 0.74524 0.0
C2150 C 0.08289 0.96894 0.73292 0.0
C2151 C 0.10956 0.95441 0.72747 0.0
C2152 C 0.08393 0.99248 0.74537 0.0
C2153 C 0.13733 0.96393 0.7344 0.0
C2154 C 0.13852 0.98692 0.74702 0.0
C2155 C 0.11299 0.02458 0.76521 0.0
C2156 C 0.08667 0.04042 0.76989 0.0
C2157 C 0.11195 0.00126 0.75265 0.0
C2158 C 0.0589 0.03143 0.76269 0.0
C2159 C 0.05748 0.00745 0.75067 0.0
H2160 H 0.23204 0.85773 0.03592 0.0
H2161 H 0.16784 0.85857 0.99323 0.0
H2162 H 0.20878 0.85886 0.97173 0.0
H2163 H 0.26312 0.85848 0.965 0.0
H2164 H 0.32712 0.85282 0.00767 0.0
H2165 H 0.2862 0.85449 0.02919 0.0
C2166 C 0.2271 0.85783 0.02191 0.0
C2167 C 0.19705 0.85878 0.01618 0.0
C2168 C 0.25075 0.85706 0.00961 0.0
C2169 C 0.19084 0.85889 0.99799 0.0
C2170 C 0.21423 0.85867 0.98567 0.0
C2171 C 0.26798 0.85743 0.97901 0.0
C2172 C 0.29799 0.85614 0.98478 0.0
C2173 C 0.24429 0.85776 0.99132 0.0
C2174 C 0.30415 0.8547 0.00295 0.0
C2175 C 0.28078 0.85541 0.01526 0.0
H2176 H 0.59773 0.97533 0.78384 0.0
H2177 H 0.58673 0.91346 0.74042 0.0
H2178 H 0.58705 0.95564 0.71952 0.0
H2179 H 0.59053 0.01043 0.7136 0.0
H2180 H 0.60137 0.07222 0.75709 0.0
H2181 H 0.60114 0.03005 0.77794 0.0
C2182 C 0.59537 0.97127 0.76979 0.0
C2183 C 0.59243 0.94156 0.76359 0.0
C2184 C 0.59563 0.99561 0.75788 0.0
C2185 C 0.58943 0.93627 0.74541 0.0
C2186 C 0.58947 0.96034 0.73348 0.0
C2187 C 0.59281 0.01449 0.72765 0.0
C2188 C 0.5963 0.04416 0.73385 0.0
C2189 C 0.5926 0.99012 0.73955 0.0
C2190 C 0.59926 0.04939 0.75204 0.0
C2191 C 0.59891 0.02535 0.76397 0.0
H2192 H 0.73247 0.85254 0.46653 0.0
H2193 H 0.67059 0.84466 0.51019 0.0
H2194 H 0.7127 0.84262 0.5309 0.0
H2195 H 0.76743 0.84382 0.53662 0.0
H2196 H 0.82918 0.84861 0.49274 0.0
H2197 H 0.78703 0.8508 0.47209 0.0
C2198 C 0.72833 0.85017 0.48058 0.0
C2199 C 0.69863 0.84924 0.48689 0.0
C2200 C 0.75264 0.84844 0.49236 0.0
C2201 C 0.69336 0.84621 0.50509 0.0
C2202 C 0.7174 0.84476 0.51692 0.0
C2203 C 0.7715 0.8451 0.52253 0.0
C2204 C 0.80116 0.84659 0.51617 0.0
C2205 C 0.74715 0.84601 0.51071 0.0
C2206 C 0.8064 0.84819 0.49791 0.0
C2207 C 0.78236 0.84926 0.4861 0.0
H2208 H 0.88654 0.06449 0.24433 0.0
H2209 H 0.88295 0.0128 0.29252 0.0
H2210 H 0.88282 0.96562 0.2755 0.0
H2211 H 0.88447 0.93928 0.24686 0.0
H2212 H 0.88558 0.99123 0.19872 0.0
H2213 H 0.88574 0.03829 0.21576 0.0
C2214 C 0.88521 0.0429 0.2511 0.0
C2215 C 0.88455 0.04206 0.26964 0.0
C2216 C 0.88477 0.01603 0.24123 0.0
C2217 C 0.88362 0.01394 0.27825 0.0
C2218 C 0.88344 0.98703 0.26853 0.0
C2219 C 0.88422 0.96091 0.24012 0.0
C2220 C 0.88491 0.96185 0.22156 0.0
C2221 C 0.88403 0.98781 0.25001 0.0
C2222 C 0.88528 0.99001 0.21299 0.0
C2223 C 0.88528 0.01687 0.22272 0.0
H2224 H 0.80992 0.15143 0.00523 0.0
H2225 H 0.7544 0.15335 0.9586 0.0
H2226 H 0.70879 0.15249 0.97694 0.0
H2227 H 0.68496 0.15142 0.00627 0.0
H2228 H 0.74043 0.14949 0.05291 0.0
H2229 H 0.78608 0.15022 0.03457 0.0
C2230 C 0.7878 0.1513 0.99912 0.0
C2231 C 0.78533 0.15219 0.98065 0.0
C2232 C 0.76185 0.15093 0.00975 0.0
C2233 C 0.75667 0.15271 0.97283 0.0
C2234 C 0.73069 0.15217 0.98329 0.0
C2235 C 0.70709 0.15085 0.01237 0.0
C2236 C 0.70954 0.15009 0.03085 0.0
C2237 C 0.73303 0.15128 0.00176 0.0
C2238 C 0.73818 0.15007 0.03869 0.0
C2239 C 0.76418 0.15041 0.02822 0.0
H2240 H 0.9039 0.56694 0.75229 0.0
H2241 H 0.88963 0.51374 0.70535 0.0
H2242 H 0.88944 0.46739 0.72298 0.0
H2243 H 0.89254 0.44229 0.75166 0.0
H2244 H 0.90303 0.49516 0.79902 0.0
H2245 H 0.90583 0.54161 0.78131 0.0
C2246 C 0.90051 0.54518 0.74599 0.0
C2247 C 0.89687 0.54361 0.72758 0.0
C2248 C 0.89983 0.51875 0.75625 0.0
C2249 C 0.89291 0.51536 0.71948 0.0
C2250 C 0.89262 0.48894 0.72955 0.0
C2251 C 0.89493 0.46404 0.75813 0.0
C2252 C 0.89714 0.46548 0.77659 0.0
C2253 C 0.89588 0.49042 0.74793 0.0
C2254 C 0.90135 0.49361 0.78479 0.0
C2255 C 0.90279 0.52009 0.77469 0.0
H2256 H 0.76441 0.64333 0.03331 0.0
H2257 H 0.83137 0.63961 0.99208 0.0
H2258 H 0.79187 0.64023 0.96969 0.0
H2259 H 0.73772 0.64092 0.96177 0.0
H2260 H 0.67144 0.64905 0.00316 0.0
H2261 H 0.711 0.64827 0.02544 0.0
C2262 C 0.77031 0.64293 0.01942 0.0
C2263 C 0.80066 0.64071 0.01439 0.0
C2264 C 0.74753 0.64416 0.0066 0.0
C2265 C 0.80806 0.64021 0.99633 0.0
C2266 C 0.78551 0.64096 0.98349 0.0
C2267 C 0.73213 0.64277 0.97567 0.0
C2268 C 0.7018 0.64413 0.98088 0.0
C2269 C 0.7551 0.64274 0.98846 0.0
C2270 C 0.69466 0.64687 0.99889 0.0
C2271 C 0.71725 0.64665 0.01164 0.0
H2272 H 0.57268 0.53462 0.2781 0.0
H2273 H 0.6688 0.52178 0.28247 0.0
H2274 H 0.66689 0.48176 0.26011 0.0
H2275 H 0.63767 0.45081 0.23922 0.0
H2276 H 0.54075 0.45921 0.23793 0.0
H2277 H 0.54309 0.50124 0.25884 0.0
C2278 C 0.5931 0.52268 0.27435 0.0
C2279 C 0.62088 0.5311 0.28177 0.0
C2280 C 0.59167 0.49934 0.26186 0.0
C2281 C 0.64726 0.51581 0.27671 0.0
C2282 C 0.64615 0.49299 0.26397 0.0
C2283 C 0.61707 0.46166 0.2437 0.0
C2284 C 0.5891 0.45194 0.2371 0.0
C2285 C 0.61848 0.48467 0.25641 0.0
C2286 C 0.56259 0.46659 0.24264 0.0
C2287 C 0.56389 0.49036 0.25475 0.0
H2288 H 0.78603 0.30847 0.48321 0.0
H2289 H 0.78192 0.40489 0.47506 0.0
H2290 H 0.73652 0.40802 0.49346 0.0
H2291 H 0.69912 0.38339 0.51273 0.0
H2292 H 0.70181 0.2866 0.51969 0.0
H2293 H 0.74699 0.28347 0.50121 0.0
C2294 C 0.77484 0.33004 0.48528 0.0
C2295 C 0.78712 0.35645 0.47791 0.0
C2296 C 0.74889 0.33161 0.49589 0.0
C2297 C 0.77275 0.38435 0.48074 0.0
C2298 C 0.74694 0.38613 0.49127 0.0
C2299 C 0.70958 0.36164 0.51009 0.0
C2300 C 0.69742 0.33532 0.51765 0.0
C2301 C 0.73503 0.35995 0.49909 0.0
C2302 C 0.71116 0.30725 0.51427 0.0
C2303 C 0.73678 0.30541 0.50357 0.0
H2304 H 0.06135 0.54013 0.23037 0.0
H2305 H 0.15819 0.54745 0.22771 0.0
H2306 H 0.16344 0.5048 0.24819 0.0
H2307 H 0.14016 0.46571 0.26712 0.0
H2308 H 0.04334 0.45631 0.26772 0.0
H2309 H 0.03827 0.49967 0.24797 0.0
C2310 C 0.08358 0.53207 0.23409 0.0
C2311 C 0.10936 0.54679 0.22761 0.0
C2312 C 0.08636 0.50742 0.24565 0.0
C2313 C 0.13805 0.53649 0.23269 0.0
C2314 C 0.14104 0.51215 0.24436 0.0
C2315 C 0.11802 0.47312 0.2628 0.0
C2316 C 0.09216 0.45807 0.26896 0.0
C2317 C 0.11533 0.49752 0.25099 0.0
C2318 C 0.06355 0.46793 0.26342 0.0
C2319 C 0.06064 0.49253 0.25199 0.0
H2320 H 0.31236 0.35366 0.99862 0.0
H2321 H 0.25835 0.34135 0.04537 0.0
H2322 H 0.21235 0.34112 0.02741 0.0
H2323 H 0.18779 0.34413 0.99837 0.0
H2324 H 0.24178 0.35628 0.95159 0.0
H2325 H 0.28778 0.35695 0.96958 0.0
C2326 C 0.29046 0.35128 0.00485 0.0
C2327 C 0.28854 0.34774 0.02324 0.0
C2328 C 0.2643 0.3511 0.99445 0.0
C2329 C 0.26021 0.34399 0.0312 0.0
C2330 C 0.234 0.34395 0.02096 0.0
C2331 C 0.20964 0.34728 0.99218 0.0
C2332 C 0.21158 0.35046 0.97376 0.0
C2333 C 0.2358 0.34749 0.00258 0.0
C2334 C 0.23993 0.35382 0.96578 0.0
C2335 C 0.26612 0.35424 0.97604 0.0
H2336 H 0.3944 0.55568 0.75196 0.0
H2337 H 0.3843 0.50121 0.79875 0.0
H2338 H 0.38603 0.45501 0.78079 0.0
H2339 H 0.38915 0.43064 0.7517 0.0
H2340 H 0.39676 0.48533 0.70481 0.0
H2341 H 0.39739 0.53133 0.72289 0.0
C2342 C 0.3923 0.53366 0.75817 0.0
C2343 C 0.3888 0.5316 0.77655 0.0
C2344 C 0.39289 0.50749 0.74776 0.0
C2345 C 0.3869 0.5031 0.78458 0.0
C2346 C 0.38782 0.47683 0.77433 0.0
C2347 C 0.39057 0.45268 0.74546 0.0
C2348 C 0.39252 0.45482 0.72699 0.0
C2349 C 0.3905 0.47882 0.7559 0.0
C2350 C 0.39525 0.48332 0.71902 0.0
C2351 C 0.39551 0.50951 0.72934 0.0
H2352 H 0.21407 0.67572 0.51963 0.0
H2353 H 0.2152 0.57934 0.52812 0.0
H2354 H 0.25749 0.57396 0.50748 0.0
H2355 H 0.29178 0.59651 0.48561 0.0
H2356 H 0.29226 0.69323 0.47816 0.0
H2357 H 0.25101 0.69873 0.49935 0.0
C2358 C 0.22416 0.6537 0.51724 0.0
C2359 C 0.21193 0.62794 0.52533 0.0
C2360 C 0.24805 0.65082 0.50519 0.0
C2361 C 0.22463 0.5994 0.52203 0.0
C2362 C 0.24851 0.59633 0.51014 0.0
C2363 C 0.28289 0.61877 0.48874 0.0
C2364 C 0.29469 0.64437 0.48022 0.0
C2365 C 0.25996 0.62181 0.50138 0.0
C2366 C 0.28301 0.67311 0.48426 0.0
C2367 C 0.25973 0.67631 0.49655 0.0
loop_
_geom_bond_atom_site_label_1
_geom_bond_atom_site_label_2
_geom_bond_distance
_geom_bond_site_symmetry_2
_ccdc_geom_bond_type
Co0 O3 1.970 . S
Co0 N17 1.989 . S
Co0 O25 1.967 . S
Co0 O32 1.920 . S
Co1 O4 1.966 . S
Co1 N10 2.022 . S
Co1 N18 1.993 . S
Co1 O26 1.941 . S
C2 O3 1.258 . S
C2 O4 1.263 . S
O3 Co0 1.970 . S
O3 C2 1.258 . S
O4 Co1 1.966 . S
O4 C2 1.263 . S
C5 O6 1.235 . S
C5 O32 1.289 . S
O6 C5 1.235 . S
C7 C9 1.400 . S
C7 N10 1.351 . S
C7 C12 1.501 . S
C8 C9 1.387 . S
C8 N11 1.341 . S
C9 C7 1.400 . S
C9 C8 1.387 . S
N10 Co1 2.022 . S
N10 C7 1.351 . S
N10 N11 1.365 . S
N11 C8 1.341 . S
N11 N10 1.365 . S
N11 H31 0.862 . S
C12 C7 1.501 . S
C12 H13 0.961 . S
C12 H14 0.961 . S
C12 H15 0.960 . S
H13 C12 0.961 . S
H14 C12 0.961 . S
H15 C12 0.960 . S
C16 N17 1.342 . S
C16 C20 1.401 . S
C16 C21 1.499 . S
N17 Co0 1.989 . S
N17 C16 1.342 . S
N17 N18 1.388 . S
N18 Co1 1.993 . S
N18 N17 1.388 . S
N18 C19 1.346 . S
C19 N18 1.346 . S
C19 C20 1.396 . S
C19 C29 1.510 . S
C20 C16 1.401 . S
C20 C19 1.396 . S
C21 C16 1.499 . S
C21 H22 0.959 . S
C21 H23 0.960 . S
C21 H24 0.961 . S
H22 C21 0.959 . S
H23 C21 0.960 . S
H24 C21 0.961 . S
O25 Co0 1.967 . S
O25 C33 1.258 . S
O26 Co1 1.941 . S
O26 C33 1.266 . S
H27 C29 0.959 . S
H28 C29 0.961 . S
C29 C19 1.510 . S
C29 H27 0.959 . S
C29 H28 0.961 . S
C29 H30 0.960 . S
H30 C29 0.960 . S
H31 N11 0.862 . S
O32 Co0 1.920 . S
O32 C5 1.289 . S
C33 O25 1.258 . S
C33 O26 1.266 . S
Co34 O37 1.970 . S
Co34 N51 1.989 . S
Co34 O59 1.967 . S
Co34 O66 1.920 . S
Co35 O38 1.966 . S
Co35 N44 2.022 . S
Co35 N52 1.993 . S
Co35 O60 1.941 . S
C36 O37 1.258 . S
C36 O38 1.263 . S
O37 Co34 1.970 . S
O37 C36 1.258 . S
O38 Co35 1.966 . S
O38 C36 1.263 . S
C39 O40 1.235 . S
C39 O66 1.289 . S
O40 C39 1.235 . S
C41 C43 1.400 . S
C41 N44 1.351 . S
C41 C46 1.501 . S
C42 C43 1.387 . S
C42 N45 1.341 . S
C43 C41 1.400 . S
C43 C42 1.387 . S
N44 Co35 2.022 . S
N44 C41 1.351 . S
N44 N45 1.365 . S
N45 C42 1.341 . S
N45 N44 1.365 . S
N45 H65 0.862 . S
C46 C41 1.501 . S
C46 H47 0.961 . S
C46 H48 0.961 . S
C46 H49 0.960 . S
H47 C46 0.961 . S
H48 C46 0.961 . S
H49 C46 0.960 . S
C50 N51 1.342 . S
C50 C54 1.401 . S
C50 C55 1.499 . S
N51 Co34 1.989 . S
N51 C50 1.342 . S
N51 N52 1.388 . S
N52 Co35 1.993 . S
N52 N51 1.388 . S
N52 C53 1.346 . S
C53 N52 1.346 . S
C53 C54 1.396 . S
C53 C63 1.510 . S
C54 C50 1.401 . S
C54 C53 1.396 . S
C55 C50 1.499 . S
C55 H56 0.959 . S
C55 H57 0.960 . S
C55 H58 0.961 . S
H56 C55 0.959 . S
H57 C55 0.960 . S
H58 C55 0.961 . S
O59 Co34 1.967 . S
O59 C67 1.258 . S
O60 Co35 1.941 . S
O60 C67 1.266 . S
H61 C63 0.959 . S
H62 C63 0.961 . S
C63 C53 1.510 . S
C63 H61 0.959 . S
C63 H62 0.961 . S
C63 H64 0.960 . S
H64 C63 0.960 . S
H65 N45 0.862 . S
O66 Co34 1.920 . S
O66 C39 1.289 . S
C67 O59 1.258 . S
C67 O60 1.266 . S
Co68 O71 1.970 . S
Co68 N85 1.989 . S
Co68 O93 1.967 . S
Co68 O100 1.920 . S
Co69 O72 1.966 . S
Co69 N78 2.022 . S
Co69 N86 1.993 . S
Co69 O94 1.941 . S
C70 O71 1.258 . S
C70 O72 1.263 . S
O71 Co68 1.970 . S
O71 C70 1.258 . S
O72 Co69 1.966 . S
O72 C70 1.263 . S
C73 O74 1.235 . S
C73 O100 1.289 . S
O74 C73 1.235 . S
C75 C77 1.400 . S
C75 N78 1.351 . S
C75 C80 1.501 . S
C76 C77 1.387 . S
C76 N79 1.341 . S
C77 C75 1.400 . S
C77 C76 1.387 . S
N78 Co69 2.022 . S
N78 C75 1.351 . S
N78 N79 1.365 . S
N79 C76 1.341 . S
N79 N78 1.365 . S
N79 H99 0.862 . S
C80 C75 1.501 . S
C80 H81 0.961 . S
C80 H82 0.961 . S
C80 H83 0.960 . S
H81 C80 0.961 . S
H82 C80 0.961 . S
H83 C80 0.960 . S
C84 N85 1.342 . S
C84 C88 1.401 . S
C84 C89 1.499 . S
N85 Co68 1.989 . S
N85 C84 1.342 . S
N85 N86 1.388 . S
N86 Co69 1.993 . S
N86 N85 1.388 . S
N86 C87 1.346 . S
C87 N86 1.346 . S
C87 C88 1.396 . S
C87 C97 1.510 . S
C88 C84 1.401 . S
C88 C87 1.396 . S
C89 C84 1.499 . S
C89 H90 0.959 . S
C89 H91 0.960 . S
C89 H92 0.961 . S
H90 C89 0.959 . S
H91 C89 0.960 . S
H92 C89 0.961 . S
O93 Co68 1.967 . S
O93 C101 1.258 . S
O94 Co69 1.941 . S
O94 C101 1.266 . S
H95 C97 0.959 . S
H96 C97 0.961 . S
C97 C87 1.510 . S
C97 H95 0.959 . S
C97 H96 0.961 . S
C97 H98 0.960 . S
H98 C97 0.960 . S
H99 N79 0.862 . S
O100 Co68 1.920 . S
O100 C73 1.289 . S
C101 O93 1.258 . S
C101 O94 1.266 . S
Co102 O105 1.970 . S
Co102 N119 1.989 . S
Co102 O127 1.967 . S
Co102 O134 1.920 . S
Co103 O106 1.966 . S
Co103 N112 2.022 . S
Co103 N120 1.993 . S
Co103 O128 1.941 . S
C104 O105 1.258 . S
C104 O106 1.263 . S
O105 Co102 1.970 . S
O105 C104 1.258 . S
O106 Co103 1.966 . S
O106 C104 1.263 . S
C107 O108 1.235 . S
C107 O134 1.289 . S
O108 C107 1.235 . S
C109 C111 1.400 . S
C109 N112 1.351 . S
C109 C114 1.501 . S
C110 C111 1.387 . S
C110 N113 1.341 . S
C111 C109 1.400 . S
C111 C110 1.387 . S
N112 Co103 2.022 . S
N112 C109 1.351 . S
N112 N113 1.365 . S
N113 C110 1.341 . S
N113 N112 1.365 . S
N113 H133 0.862 . S
C114 C109 1.501 . S
C114 H115 0.961 . S
C114 H116 0.961 . S
C114 H117 0.960 . S
H115 C114 0.961 . S
H116 C114 0.961 . S
H117 C114 0.960 . S
C118 N119 1.342 . S
C118 C122 1.401 . S
C118 C123 1.499 . S
N119 Co102 1.989 . S
N119 C118 1.342 . S
N119 N120 1.388 . S
N120 Co103 1.993 . S
N120 N119 1.388 . S
N120 C121 1.346 . S
C121 N120 1.346 . S
C121 C122 1.396 . S
C121 C131 1.510 . S
C122 C118 1.401 . S
C122 C121 1.396 . S
C123 C118 1.499 . S
C123 H124 0.959 . S
C123 H125 0.960 . S
C123 H126 0.961 . S
H124 C123 0.959 . S
H125 C123 0.960 . S
H126 C123 0.961 . S
O127 Co102 1.967 . S
O127 C135 1.258 . S
O128 Co103 1.941 . S
O128 C135 1.266 . S
H129 C131 0.959 . S
H130 C131 0.961 . S
C131 C121 1.510 . S
C131 H129 0.959 . S
C131 H130 0.961 . S
C131 H132 0.960 . S
H132 C131 0.960 . S
H133 N113 0.862 . S
O134 Co102 1.920 . S
O134 C107 1.289 . S
C135 O127 1.258 . S
C135 O128 1.266 . S
Co136 O139 1.970 . S
Co136 N153 1.989 . S
Co136 O161 1.967 . S
Co136 O168 1.920 . S
Co137 O140 1.966 . S
Co137 N146 2.022 . S
Co137 N154 1.993 . S
Co137 O162 1.941 . S
C138 O139 1.258 . S
C138 O140 1.263 . S
O139 Co136 1.970 . S
O139 C138 1.258 . S
O140 Co137 1.966 . S
O140 C138 1.263 . S
C141 O142 1.235 . S
C141 O168 1.289 . S
O142 C141 1.235 . S
C143 C145 1.400 . S
C143 N146 1.351 . S
C143 C148 1.501 . S
C144 C145 1.387 . S
C144 N147 1.341 . S
C145 C143 1.400 . S
C145 C144 1.387 . S
N146 Co137 2.022 . S
N146 C143 1.351 . S
N146 N147 1.365 . S
N147 C144 1.341 . S
N147 N146 1.365 . S
N147 H167 0.862 . S
C148 C143 1.501 . S
C148 H149 0.961 . S
C148 H150 0.961 . S
C148 H151 0.960 . S
H149 C148 0.961 . S
H150 C148 0.961 . S
H151 C148 0.960 . S
C152 N153 1.342 . S
C152 C156 1.401 . S
C152 C157 1.499 . S
N153 Co136 1.989 . S
N153 C152 1.342 . S
N153 N154 1.388 . S
N154 Co137 1.993 . S
N154 N153 1.388 . S
N154 C155 1.346 . S
C155 N154 1.346 . S
C155 C156 1.396 . S
C155 C165 1.510 . S
C156 C152 1.401 . S
C156 C155 1.396 . S
C157 C152 1.499 . S
C157 H158 0.959 . S
C157 H159 0.960 . S
C157 H160 0.961 . S
H158 C157 0.959 . S
H159 C157 0.960 . S
H160 C157 0.961 . S
O161 Co136 1.967 . S
O161 C169 1.258 . S
O162 Co137 1.941 . S
O162 C169 1.266 . S
H163 C165 0.959 . S
H164 C165 0.961 . S
C165 C155 1.510 . S
C165 H163 0.959 . S
C165 H164 0.961 . S
C165 H166 0.960 . S
H166 C165 0.960 . S
H167 N147 0.862 . S
O168 Co136 1.920 . S
O168 C141 1.289 . S
C169 O161 1.258 . S
C169 O162 1.266 . S
Co170 O173 1.970 . S
Co170 N187 1.989 . S
Co170 O195 1.967 . S
Co170 O202 1.920 . S
Co171 O174 1.966 . S
Co171 N180 2.022 . S
Co171 N188 1.993 . S
Co171 O196 1.941 . S
C172 O173 1.258 . S
C172 O174 1.263 . S
O173 Co170 1.970 . S
O173 C172 1.258 . S
O174 Co171 1.966 . S
O174 C172 1.263 . S
C175 O176 1.235 . S
C175 O202 1.289 . S
O176 C175 1.235 . S
C177 C179 1.400 . S
C177 N180 1.351 . S
C177 C182 1.501 . S
C178 C179 1.387 . S
C178 N181 1.341 . S
C179 C177 1.400 . S
C179 C178 1.387 . S
N180 Co171 2.022 . S
N180 C177 1.351 . S
N180 N181 1.365 . S
N181 C178 1.341 . S
N181 N180 1.365 . S
N181 H201 0.862 . S
C182 C177 1.501 . S
C182 H183 0.961 . S
C182 H184 0.961 . S
C182 H185 0.960 . S
H183 C182 0.961 . S
H184 C182 0.961 . S
H185 C182 0.960 . S
C186 N187 1.342 . S
C186 C190 1.401 . S
C186 C191 1.499 . S
N187 Co170 1.989 . S
N187 C186 1.342 . S
N187 N188 1.388 . S
N188 Co171 1.993 . S
N188 N187 1.388 . S
N188 C189 1.346 . S
C189 N188 1.346 . S
C189 C190 1.396 . S
C189 C199 1.510 . S
C190 C186 1.401 . S
C190 C189 1.396 . S
C191 C186 1.499 . S
C191 H192 0.959 . S
C191 H193 0.960 . S
C191 H194 0.961 . S
H192 C191 0.959 . S
H193 C191 0.960 . S
H194 C191 0.961 . S
O195 Co170 1.967 . S
O195 C203 1.258 . S
O196 Co171 1.941 . S
O196 C203 1.266 . S
H197 C199 0.959 . S
H198 C199 0.961 . S
C199 C189 1.510 . S
C199 H197 0.959 . S
C199 H198 0.961 . S
C199 H200 0.960 . S
H200 C199 0.960 . S
H201 N181 0.862 . S
O202 Co170 1.920 . S
O202 C175 1.289 . S
C203 O195 1.258 . S
C203 O196 1.266 . S
Co204 O207 1.970 . S
Co204 N221 1.989 . S
Co204 O229 1.967 . S
Co204 O236 1.920 . S
Co205 O208 1.966 . S
Co205 N214 2.022 . S
Co205 N222 1.993 . S
Co205 O230 1.941 . S
C206 O207 1.258 . S
C206 O208 1.263 . S
O207 Co204 1.970 . S
O207 C206 1.258 . S
O208 Co205 1.966 . S
O208 C206 1.263 . S
C209 O210 1.235 . S
C209 O236 1.289 . S
O210 C209 1.235 . S
C211 C213 1.400 . S
C211 N214 1.351 . S
C211 C216 1.501 . S
C212 C213 1.387 . S
C212 N215 1.341 . S
C213 C211 1.400 . S
C213 C212 1.387 . S
N214 Co205 2.022 . S
N214 C211 1.351 . S
N214 N215 1.365 . S
N215 C212 1.341 . S
N215 N214 1.365 . S
N215 H235 0.862 . S
C216 C211 1.501 . S
C216 H217 0.961 . S
C216 H218 0.961 . S
C216 H219 0.960 . S
H217 C216 0.961 . S
H218 C216 0.961 . S
H219 C216 0.960 . S
C220 N221 1.342 . S
C220 C224 1.401 . S
C220 C225 1.499 . S
N221 Co204 1.989 . S
N221 C220 1.342 . S
N221 N222 1.388 . S
N222 Co205 1.993 . S
N222 N221 1.388 . S
N222 C223 1.346 . S
C223 N222 1.346 . S
C223 C224 1.396 . S
C223 C233 1.510 . S
C224 C220 1.401 . S
C224 C223 1.396 . S
C225 C220 1.499 . S
C225 H226 0.959 . S
C225 H227 0.960 . S
C225 H228 0.961 . S
H226 C225 0.959 . S
H227 C225 0.960 . S
H228 C225 0.961 . S
O229 Co204 1.967 . S
O229 C237 1.258 . S
O230 Co205 1.941 . S
O230 C237 1.266 . S
H231 C233 0.959 . S
H232 C233 0.961 . S
C233 C223 1.510 . S
C233 H231 0.959 . S
C233 H232 0.961 . S
C233 H234 0.960 . S
H234 C233 0.960 . S
H235 N215 0.862 . S
O236 Co204 1.920 . S
O236 C209 1.289 . S
C237 O229 1.258 . S
C237 O230 1.266 . S
Co238 O241 1.970 . S
Co238 N255 1.989 . S
Co238 O263 1.967 . S
Co238 O270 1.920 . S
Co239 O242 1.966 . S
Co239 N248 2.022 . S
Co239 N256 1.993 . S
Co239 O264 1.941 . S
C240 O241 1.258 . S
C240 O242 1.263 . S
O241 Co238 1.970 . S
O241 C240 1.258 . S
O242 Co239 1.966 . S
O242 C240 1.263 . S
C243 O244 1.235 . S
C243 O270 1.289 . S
O244 C243 1.235 . S
C245 C247 1.400 . S
C245 N248 1.351 . S
C245 C250 1.501 . S
C246 C247 1.387 . S
C246 N249 1.341 . S
C247 C245 1.400 . S
C247 C246 1.387 . S
N248 Co239 2.022 . S
N248 C245 1.351 . S
N248 N249 1.365 . S
N249 C246 1.341 . S
N249 N248 1.365 . S
N249 H269 0.862 . S
C250 C245 1.501 . S
C250 H251 0.961 . S
C250 H252 0.961 . S
C250 H253 0.960 . S
H251 C250 0.961 . S
H252 C250 0.961 . S
H253 C250 0.960 . S
C254 N255 1.342 . S
C254 C258 1.401 . S
C254 C259 1.499 . S
N255 Co238 1.989 . S
N255 C254 1.342 . S
N255 N256 1.388 . S
N256 Co239 1.993 . S
N256 N255 1.388 . S
N256 C257 1.346 . S
C257 N256 1.346 . S
C257 C258 1.396 . S
C257 C267 1.510 . S
C258 C254 1.401 . S
C258 C257 1.396 . S
C259 C254 1.499 . S
C259 H260 0.959 . S
C259 H261 0.960 . S
C259 H262 0.961 . S
H260 C259 0.959 . S
H261 C259 0.960 . S
H262 C259 0.961 . S
O263 Co238 1.967 . S
O263 C271 1.258 . S
O264 Co239 1.941 . S
O264 C271 1.266 . S
H265 C267 0.959 . S
H266 C267 0.961 . S
C267 C257 1.510 . S
C267 H265 0.959 . S
C267 H266 0.961 . S
C267 H268 0.960 . S
H268 C267 0.960 . S
H269 N249 0.862 . S
O270 Co238 1.920 . S
O270 C243 1.289 . S
C271 O263 1.258 . S
C271 O264 1.266 . S
Co272 O275 1.970 . S
Co272 N289 1.989 . S
Co272 O297 1.967 . S
Co272 O304 1.920 . S
Co273 O276 1.966 . S
Co273 N282 2.022 . S
Co273 N290 1.993 . S
Co273 O298 1.941 . S
C274 O275 1.258 . S
C274 O276 1.263 . S
O275 Co272 1.970 . S
O275 C274 1.258 . S
O276 Co273 1.966 . S
O276 C274 1.263 . S
C277 O278 1.235 . S
C277 O304 1.289 . S
O278 C277 1.235 . S
C279 C281 1.400 . S
C279 N282 1.351 . S
C279 C284 1.501 . S
C280 C281 1.387 . S
C280 N283 1.341 . S
C281 C279 1.400 . S
C281 C280 1.387 . S
N282 Co273 2.022 . S
N282 C279 1.351 . S
N282 N283 1.365 . S
N283 C280 1.341 . S
N283 N282 1.365 . S
N283 H303 0.862 . S
C284 C279 1.501 . S
C284 H285 0.961 . S
C284 H286 0.961 . S
C284 H287 0.960 . S
H285 C284 0.961 . S
H286 C284 0.961 . S
H287 C284 0.960 . S
C288 N289 1.342 . S
C288 C292 1.401 . S
C288 C293 1.499 . S
N289 Co272 1.989 . S
N289 C288 1.342 . S
N289 N290 1.388 . S
N290 Co273 1.993 . S
N290 N289 1.388 . S
N290 C291 1.346 . S
C291 N290 1.346 . S
C291 C292 1.396 . S
C291 C301 1.510 . S
C292 C288 1.401 . S
C292 C291 1.396 . S
C293 C288 1.499 . S
C293 H294 0.959 . S
C293 H295 0.960 . S
C293 H296 0.961 . S
H294 C293 0.959 . S
H295 C293 0.960 . S
H296 C293 0.961 . S
O297 Co272 1.967 . S
O297 C305 1.258 . S
O298 Co273 1.941 . S
O298 C305 1.266 . S
H299 C301 0.959 . S
H300 C301 0.961 . S
C301 C291 1.510 . S
C301 H299 0.959 . S
C301 H300 0.961 . S
C301 H302 0.960 . S
H302 C301 0.960 . S
H303 N283 0.862 . S
O304 Co272 1.920 . S
O304 C277 1.289 . S
C305 O297 1.258 . S
C305 O298 1.266 . S
Co306 O309 1.970 . S
Co306 N323 1.989 . S
Co306 O331 1.967 . S
Co306 O338 1.920 . S
Co307 O310 1.966 . S
Co307 N316 2.022 . S
Co307 N324 1.993 . S
Co307 O332 1.941 . S
C308 O309 1.258 . S
C308 O310 1.263 . S
O309 Co306 1.970 . S
O309 C308 1.258 . S
O310 Co307 1.966 . S
O310 C308 1.263 . S
C311 O312 1.235 . S
C311 O338 1.289 . S
O312 C311 1.235 . S
C313 C315 1.400 . S
C313 N316 1.351 . S
C313 C318 1.501 . S
C314 C315 1.387 . S
C314 N317 1.341 . S
C315 C313 1.400 . S
C315 C314 1.387 . S
N316 Co307 2.022 . S
N316 C313 1.351 . S
N316 N317 1.365 . S
N317 C314 1.341 . S
N317 N316 1.365 . S
N317 H337 0.862 . S
C318 C313 1.501 . S
C318 H319 0.961 . S
C318 H320 0.961 . S
C318 H321 0.960 . S
H319 C318 0.961 . S
H320 C318 0.961 . S
H321 C318 0.960 . S
C322 N323 1.342 . S
C322 C326 1.401 . S
C322 C327 1.499 . S
N323 Co306 1.989 . S
N323 C322 1.342 . S
N323 N324 1.388 . S
N324 Co307 1.993 . S
N324 N323 1.388 . S
N324 C325 1.346 . S
C325 N324 1.346 . S
C325 C326 1.396 . S
C325 C335 1.510 . S
C326 C322 1.401 . S
C326 C325 1.396 . S
C327 C322 1.499 . S
C327 H328 0.959 . S
C327 H329 0.960 . S
C327 H330 0.961 . S
H328 C327 0.959 . S
H329 C327 0.960 . S
H330 C327 0.961 . S
O331 Co306 1.967 . S
O331 C339 1.258 . S
O332 Co307 1.941 . S
O332 C339 1.266 . S
H333 C335 0.959 . S
H334 C335 0.961 . S
C335 C325 1.510 . S
C335 H333 0.959 . S
C335 H334 0.961 . S
C335 H336 0.960 . S
H336 C335 0.960 . S
H337 N317 0.862 . S
O338 Co306 1.920 . S
O338 C311 1.289 . S
C339 O331 1.258 . S
C339 O332 1.266 . S
Co340 O343 1.970 . S
Co340 N357 1.989 . S
Co340 O365 1.967 . S
Co340 O372 1.920 . S
Co341 O344 1.966 . S
Co341 N350 2.022 . S
Co341 N358 1.993 . S
Co341 O366 1.941 . S
C342 O343 1.258 . S
C342 O344 1.263 . S
O343 Co340 1.970 . S
O343 C342 1.258 . S
O344 Co341 1.966 . S
O344 C342 1.263 . S
C345 O346 1.235 . S
C345 O372 1.289 . S
O346 C345 1.235 . S
C347 C349 1.400 . S
C347 N350 1.351 . S
C347 C352 1.501 . S
C348 C349 1.387 . S
C348 N351 1.341 . S
C349 C347 1.400 . S
C349 C348 1.387 . S
N350 Co341 2.022 . S
N350 C347 1.351 . S
N350 N351 1.365 . S
N351 C348 1.341 . S
N351 N350 1.365 . S
N351 H371 0.862 . S
C352 C347 1.501 . S
C352 H353 0.961 . S
C352 H354 0.961 . S
C352 H355 0.960 . S
H353 C352 0.961 . S
H354 C352 0.961 . S
H355 C352 0.960 . S
C356 N357 1.342 . S
C356 C360 1.401 . S
C356 C361 1.499 . S
N357 Co340 1.989 . S
N357 C356 1.342 . S
N357 N358 1.388 . S
N358 Co341 1.993 . S
N358 N357 1.388 . S
N358 C359 1.346 . S
C359 N358 1.346 . S
C359 C360 1.396 . S
C359 C369 1.510 . S
C360 C356 1.401 . S
C360 C359 1.396 . S
C361 C356 1.499 . S
C361 H362 0.959 . S
C361 H363 0.960 . S
C361 H364 0.961 . S
H362 C361 0.959 . S
H363 C361 0.960 . S
H364 C361 0.961 . S
O365 Co340 1.967 . S
O365 C373 1.258 . S
O366 Co341 1.941 . S
O366 C373 1.266 . S
H367 C369 0.959 . S
H368 C369 0.961 . S
C369 C359 1.510 . S
C369 H367 0.959 . S
C369 H368 0.961 . S
C369 H370 0.960 . S
H370 C369 0.960 . S
H371 N351 0.862 . S
O372 Co340 1.920 . S
O372 C345 1.289 . S
C373 O365 1.258 . S
C373 O366 1.266 . S
Co374 O377 1.970 . S
Co374 N391 1.989 . S
Co374 O399 1.967 . S
Co374 O406 1.920 . S
Co375 O378 1.966 . S
Co375 N384 2.022 . S
Co375 N392 1.993 . S
Co375 O400 1.941 . S
C376 O377 1.258 . S
C376 O378 1.263 . S
O377 Co374 1.970 . S
O377 C376 1.258 . S
O378 Co375 1.966 . S
O378 C376 1.263 . S
C379 O380 1.235 . S
C379 O406 1.289 . S
O380 C379 1.235 . S
C381 C383 1.400 . S
C381 N384 1.351 . S
C381 C386 1.501 . S
C382 C383 1.387 . S
C382 N385 1.341 . S
C383 C381 1.400 . S
C383 C382 1.387 . S
N384 Co375 2.022 . S
N384 C381 1.351 . S
N384 N385 1.365 . S
N385 C382 1.341 . S
N385 N384 1.365 . S
N385 H405 0.862 . S
C386 C381 1.501 . S
C386 H387 0.961 . S
C386 H388 0.961 . S
C386 H389 0.960 . S
H387 C386 0.961 . S
H388 C386 0.961 . S
H389 C386 0.960 . S
C390 N391 1.342 . S
C390 C394 1.401 . S
C390 C395 1.499 . S
N391 Co374 1.989 . S
N391 C390 1.342 . S
N391 N392 1.388 . S
N392 Co375 1.993 . S
N392 N391 1.388 . S
N392 C393 1.346 . S
C393 N392 1.346 . S
C393 C394 1.396 . S
C393 C403 1.510 . S
C394 C390 1.401 . S
C394 C393 1.396 . S
C395 C390 1.499 . S
C395 H396 0.959 . S
C395 H397 0.960 . S
C395 H398 0.961 . S
H396 C395 0.959 . S
H397 C395 0.960 . S
H398 C395 0.961 . S
O399 Co374 1.967 . S
O399 C407 1.258 . S
O400 Co375 1.941 . S
O400 C407 1.266 . S
H401 C403 0.959 . S
H402 C403 0.961 . S
C403 C393 1.510 . S
C403 H401 0.959 . S
C403 H402 0.961 . S
C403 H404 0.960 . S
H404 C403 0.960 . S
H405 N385 0.862 . S
O406 Co374 1.920 . S
O406 C379 1.289 . S
C407 O399 1.258 . S
C407 O400 1.266 . S
Co408 O411 1.970 . S
Co408 N425 1.989 . S
Co408 O433 1.967 . S
Co408 O440 1.920 . S
Co409 O412 1.966 . S
Co409 N418 2.022 . S
Co409 N426 1.993 . S
Co409 O434 1.941 . S
C410 O411 1.258 . S
C410 O412 1.263 . S
O411 Co408 1.970 . S
O411 C410 1.258 . S
O412 Co409 1.966 . S
O412 C410 1.263 . S
C413 O414 1.235 . S
C413 O440 1.289 . S
O414 C413 1.235 . S
C415 C417 1.400 . S
C415 N418 1.351 . S
C415 C420 1.501 . S
C416 C417 1.387 . S
C416 N419 1.341 . S
C417 C415 1.400 . S
C417 C416 1.387 . S
N418 Co409 2.022 . S
N418 C415 1.351 . S
N418 N419 1.365 . S
N419 C416 1.341 . S
N419 N418 1.365 . S
N419 H439 0.862 . S
C420 C415 1.501 . S
C420 H421 0.961 . S
C420 H422 0.961 . S
C420 H423 0.960 . S
H421 C420 0.961 . S
H422 C420 0.961 . S
H423 C420 0.960 . S
C424 N425 1.342 . S
C424 C428 1.401 . S
C424 C429 1.499 . S
N425 Co408 1.989 . S
N425 C424 1.342 . S
N425 N426 1.388 . S
N426 Co409 1.993 . S
N426 N425 1.388 . S
N426 C427 1.346 . S
C427 N426 1.346 . S
C427 C428 1.396 . S
C427 C437 1.510 . S
C428 C424 1.401 . S
C428 C427 1.396 . S
C429 C424 1.499 . S
C429 H430 0.959 . S
C429 H431 0.960 . S
C429 H432 0.961 . S
H430 C429 0.959 . S
H431 C429 0.960 . S
H432 C429 0.961 . S
O433 Co408 1.967 . S
O433 C441 1.258 . S
O434 Co409 1.941 . S
O434 C441 1.266 . S
H435 C437 0.959 . S
H436 C437 0.961 . S
C437 C427 1.510 . S
C437 H435 0.959 . S
C437 H436 0.961 . S
C437 H438 0.960 . S
H438 C437 0.960 . S
H439 N419 0.862 . S
O440 Co408 1.920 . S
O440 C413 1.289 . S
C441 O433 1.258 . S
C441 O434 1.266 . S
Co442 O445 1.970 . S
Co442 N459 1.989 . S
Co442 O467 1.967 . S
Co442 O474 1.920 . S
Co443 O446 1.966 . S
Co443 N452 2.022 . S
Co443 N460 1.993 . S
Co443 O468 1.941 . S
C444 O445 1.258 . S
C444 O446 1.263 . S
O445 Co442 1.970 . S
O445 C444 1.258 . S
O446 Co443 1.966 . S
O446 C444 1.263 . S
C447 O448 1.235 . S
C447 O474 1.289 . S
O448 C447 1.235 . S
C449 C451 1.400 . S
C449 N452 1.351 . S
C449 C454 1.501 . S
C450 C451 1.387 . S
C450 N453 1.341 . S
C451 C449 1.400 . S
C451 C450 1.387 . S
N452 Co443 2.022 . S
N452 C449 1.351 . S
N452 N453 1.365 . S
N453 C450 1.341 . S
N453 N452 1.365 . S
N453 H473 0.862 . S
C454 C449 1.501 . S
C454 H455 0.961 . S
C454 H456 0.961 . S
C454 H457 0.960 . S
H455 C454 0.961 . S
H456 C454 0.961 . S
H457 C454 0.960 . S
C458 N459 1.342 . S
C458 C462 1.401 . S
C458 C463 1.499 . S
N459 Co442 1.989 . S
N459 C458 1.342 . S
N459 N460 1.388 . S
N460 Co443 1.993 . S
N460 N459 1.388 . S
N460 C461 1.346 . S
C461 N460 1.346 . S
C461 C462 1.396 . S
C461 C471 1.510 . S
C462 C458 1.401 . S
C462 C461 1.396 . S
C463 C458 1.499 . S
C463 H464 0.959 . S
C463 H465 0.960 . S
C463 H466 0.961 . S
H464 C463 0.959 . S
H465 C463 0.960 . S
H466 C463 0.961 . S
O467 Co442 1.967 . S
O467 C475 1.258 . S
O468 Co443 1.941 . S
O468 C475 1.266 . S
H469 C471 0.959 . S
H470 C471 0.961 . S
C471 C461 1.510 . S
C471 H469 0.959 . S
C471 H470 0.961 . S
C471 H472 0.960 . S
H472 C471 0.960 . S
H473 N453 0.862 . S
O474 Co442 1.920 . S
O474 C447 1.289 . S
C475 O467 1.258 . S
C475 O468 1.266 . S
Co476 O479 1.970 . S
Co476 N493 1.989 . S
Co476 O501 1.967 . S
Co476 O508 1.920 . S
Co477 O480 1.966 . S
Co477 N486 2.022 . S
Co477 N494 1.993 . S
Co477 O502 1.941 . S
C478 O479 1.258 . S
C478 O480 1.263 . S
O479 Co476 1.970 . S
O479 C478 1.258 . S
O480 Co477 1.966 . S
O480 C478 1.263 . S
C481 O482 1.235 . S
C481 O508 1.289 . S
O482 C481 1.235 . S
C483 C485 1.400 . S
C483 N486 1.351 . S
C483 C488 1.501 . S
C484 C485 1.387 . S
C484 N487 1.341 . S
C485 C483 1.400 . S
C485 C484 1.387 . S
N486 Co477 2.022 . S
N486 C483 1.351 . S
N486 N487 1.365 . S
N487 C484 1.341 . S
N487 N486 1.365 . S
N487 H507 0.862 . S
C488 C483 1.501 . S
C488 H489 0.961 . S
C488 H490 0.961 . S
C488 H491 0.960 . S
H489 C488 0.961 . S
H490 C488 0.961 . S
H491 C488 0.960 . S
C492 N493 1.342 . S
C492 C496 1.401 . S
C492 C497 1.499 . S
N493 Co476 1.989 . S
N493 C492 1.342 . S
N493 N494 1.388 . S
N494 Co477 1.993 . S
N494 N493 1.388 . S
N494 C495 1.346 . S
C495 N494 1.346 . S
C495 C496 1.396 . S
C495 C505 1.510 . S
C496 C492 1.401 . S
C496 C495 1.396 . S
C497 C492 1.499 . S
C497 H498 0.959 . S
C497 H499 0.960 . S
C497 H500 0.961 . S
H498 C497 0.959 . S
H499 C497 0.960 . S
H500 C497 0.961 . S
O501 Co476 1.967 . S
O501 C509 1.258 . S
O502 Co477 1.941 . S
O502 C509 1.266 . S
H503 C505 0.959 . S
H504 C505 0.961 . S
C505 C495 1.510 . S
C505 H503 0.959 . S
C505 H504 0.961 . S
C505 H506 0.960 . S
H506 C505 0.960 . S
H507 N487 0.862 . S
O508 Co476 1.920 . S
O508 C481 1.289 . S
C509 O501 1.258 . S
C509 O502 1.266 . S
Co510 O513 1.970 . S
Co510 N527 1.989 . S
Co510 O535 1.967 . S
Co510 O542 1.920 . S
Co511 O514 1.966 . S
Co511 N520 2.022 . S
Co511 N528 1.993 . S
Co511 O536 1.941 . S
C512 O513 1.258 . S
C512 O514 1.263 . S
O513 Co510 1.970 . S
O513 C512 1.258 . S
O514 Co511 1.966 . S
O514 C512 1.263 . S
C515 O516 1.235 . S
C515 O542 1.289 . S
O516 C515 1.235 . S
C517 C519 1.400 . S
C517 N520 1.351 . S
C517 C522 1.501 . S
C518 C519 1.387 . S
C518 N521 1.341 . S
C519 C517 1.400 . S
C519 C518 1.387 . S
N520 Co511 2.022 . S
N520 C517 1.351 . S
N520 N521 1.365 . S
N521 C518 1.341 . S
N521 N520 1.365 . S
N521 H541 0.862 . S
C522 C517 1.501 . S
C522 H523 0.961 . S
C522 H524 0.961 . S
C522 H525 0.960 . S
H523 C522 0.961 . S
H524 C522 0.961 . S
H525 C522 0.960 . S
C526 N527 1.342 . S
C526 C530 1.401 . S
C526 C531 1.499 . S
N527 Co510 1.989 . S
N527 C526 1.342 . S
N527 N528 1.388 . S
N528 Co511 1.993 . S
N528 N527 1.388 . S
N528 C529 1.346 . S
C529 N528 1.346 . S
C529 C530 1.396 . S
C529 C539 1.510 . S
C530 C526 1.401 . S
C530 C529 1.396 . S
C531 C526 1.499 . S
C531 H532 0.959 . S
C531 H533 0.960 . S
C531 H534 0.961 . S
H532 C531 0.959 . S
H533 C531 0.960 . S
H534 C531 0.961 . S
O535 Co510 1.967 . S
O535 C543 1.258 . S
O536 Co511 1.941 . S
O536 C543 1.266 . S
H537 C539 0.959 . S
H538 C539 0.961 . S
C539 C529 1.510 . S
C539 H537 0.959 . S
C539 H538 0.961 . S
C539 H540 0.960 . S
H540 C539 0.960 . S
H541 N521 0.862 . S
O542 Co510 1.920 . S
O542 C515 1.289 . S
C543 O535 1.258 . S
C543 O536 1.266 . S
Co544 O547 1.970 . S
Co544 N561 1.989 . S
Co544 O569 1.967 . S
Co544 O576 1.920 . S
Co545 O548 1.966 . S
Co545 N554 2.022 . S
Co545 N562 1.993 . S
Co545 O570 1.941 . S
C546 O547 1.258 . S
C546 O548 1.263 . S
O547 Co544 1.970 . S
O547 C546 1.258 . S
O548 Co545 1.966 . S
O548 C546 1.263 . S
C549 O550 1.235 . S
C549 O576 1.289 . S
O550 C549 1.235 . S
C551 C553 1.400 . S
C551 N554 1.351 . S
C551 C556 1.501 . S
C552 C553 1.387 . S
C552 N555 1.341 . S
C553 C551 1.400 . S
C553 C552 1.387 . S
N554 Co545 2.022 . S
N554 C551 1.351 . S
N554 N555 1.365 . S
N555 C552 1.341 . S
N555 N554 1.365 . S
N555 H575 0.862 . S
C556 C551 1.501 . S
C556 H557 0.961 . S
C556 H558 0.961 . S
C556 H559 0.960 . S
H557 C556 0.961 . S
H558 C556 0.961 . S
H559 C556 0.960 . S
C560 N561 1.342 . S
C560 C564 1.401 . S
C560 C565 1.499 . S
N561 Co544 1.989 . S
N561 C560 1.342 . S
N561 N562 1.388 . S
N562 Co545 1.993 . S
N562 N561 1.388 . S
N562 C563 1.346 . S
C563 N562 1.346 . S
C563 C564 1.396 . S
C563 C573 1.510 . S
C564 C560 1.401 . S
C564 C563 1.396 . S
C565 C560 1.499 . S
C565 H566 0.959 . S
C565 H567 0.960 . S
C565 H568 0.961 . S
H566 C565 0.959 . S
H567 C565 0.960 . S
H568 C565 0.961 . S
O569 Co544 1.967 . S
O569 C577 1.258 . S
O570 Co545 1.941 . S
O570 C577 1.266 . S
H571 C573 0.959 . S
H572 C573 0.961 . S
C573 C563 1.510 . S
C573 H571 0.959 . S
C573 H572 0.961 . S
C573 H574 0.960 . S
H574 C573 0.960 . S
H575 N555 0.862 . S
O576 Co544 1.920 . S
O576 C549 1.289 . S
C577 O569 1.258 . S
C577 O570 1.266 . S
Co578 O581 1.970 . S
Co578 N595 1.989 . S
Co578 O603 1.967 . S
Co578 O610 1.920 . S
Co579 O582 1.966 . S
Co579 N588 2.022 . S
Co579 N596 1.993 . S
Co579 O604 1.941 . S
C580 O581 1.258 . S
C580 O582 1.263 . S
O581 Co578 1.970 . S
O581 C580 1.258 . S
O582 Co579 1.966 . S
O582 C580 1.263 . S
C583 O584 1.235 . S
C583 O610 1.289 . S
O584 C583 1.235 . S
C585 C587 1.400 . S
C585 N588 1.351 . S
C585 C590 1.501 . S
C586 C587 1.387 . S
C586 N589 1.341 . S
C587 C585 1.400 . S
C587 C586 1.387 . S
N588 Co579 2.022 . S
N588 C585 1.351 . S
N588 N589 1.365 . S
N589 C586 1.341 . S
N589 N588 1.365 . S
N589 H609 0.862 . S
C590 C585 1.501 . S
C590 H591 0.961 . S
C590 H592 0.961 . S
C590 H593 0.960 . S
H591 C590 0.961 . S
H592 C590 0.961 . S
H593 C590 0.960 . S
C594 N595 1.342 . S
C594 C598 1.401 . S
C594 C599 1.499 . S
N595 Co578 1.989 . S
N595 C594 1.342 . S
N595 N596 1.388 . S
N596 Co579 1.993 . S
N596 N595 1.388 . S
N596 C597 1.346 . S
C597 N596 1.346 . S
C597 C598 1.396 . S
C597 C607 1.510 . S
C598 C594 1.401 . S
C598 C597 1.396 . S
C599 C594 1.499 . S
C599 H600 0.959 . S
C599 H601 0.960 . S
C599 H602 0.961 . S
H600 C599 0.959 . S
H601 C599 0.960 . S
H602 C599 0.961 . S
O603 Co578 1.967 . S
O603 C611 1.258 . S
O604 Co579 1.941 . S
O604 C611 1.266 . S
H605 C607 0.959 . S
H606 C607 0.961 . S
C607 C597 1.510 . S
C607 H605 0.959 . S
C607 H606 0.961 . S
C607 H608 0.960 . S
H608 C607 0.960 . S
H609 N589 0.862 . S
O610 Co578 1.920 . S
O610 C583 1.289 . S
C611 O603 1.258 . S
C611 O604 1.266 . S
Co612 O615 1.970 . S
Co612 N629 1.989 . S
Co612 O637 1.967 . S
Co612 O644 1.920 . S
Co613 O616 1.966 . S
Co613 N622 2.022 . S
Co613 N630 1.993 . S
Co613 O638 1.941 . S
C614 O615 1.258 . S
C614 O616 1.263 . S
O615 Co612 1.970 . S
O615 C614 1.258 . S
O616 Co613 1.966 . S
O616 C614 1.263 . S
C617 O618 1.235 . S
C617 O644 1.289 . S
O618 C617 1.235 . S
C619 C621 1.400 . S
C619 N622 1.351 . S
C619 C624 1.501 . S
C620 C621 1.387 . S
C620 N623 1.341 . S
C621 C619 1.400 . S
C621 C620 1.387 . S
N622 Co613 2.022 . S
N622 C619 1.351 . S
N622 N623 1.365 . S
N623 C620 1.341 . S
N623 N622 1.365 . S
N623 H643 0.862 . S
C624 C619 1.501 . S
C624 H625 0.961 . S
C624 H626 0.961 . S
C624 H627 0.960 . S
H625 C624 0.961 . S
H626 C624 0.961 . S
H627 C624 0.960 . S
C628 N629 1.342 . S
C628 C632 1.401 . S
C628 C633 1.499 . S
N629 Co612 1.989 . S
N629 C628 1.342 . S
N629 N630 1.388 . S
N630 Co613 1.993 . S
N630 N629 1.388 . S
N630 C631 1.346 . S
C631 N630 1.346 . S
C631 C632 1.396 . S
C631 C641 1.510 . S
C632 C628 1.401 . S
C632 C631 1.396 . S
C633 C628 1.499 . S
C633 H634 0.959 . S
C633 H635 0.960 . S
C633 H636 0.961 . S
H634 C633 0.959 . S
H635 C633 0.960 . S
H636 C633 0.961 . S
O637 Co612 1.967 . S
O637 C645 1.258 . S
O638 Co613 1.941 . S
O638 C645 1.266 . S
H639 C641 0.959 . S
H640 C641 0.961 . S
C641 C631 1.510 . S
C641 H639 0.959 . S
C641 H640 0.961 . S
C641 H642 0.960 . S
H642 C641 0.960 . S
H643 N623 0.862 . S
O644 Co612 1.920 . S
O644 C617 1.289 . S
C645 O637 1.258 . S
C645 O638 1.266 . S
Co646 O649 1.970 . S
Co646 N663 1.989 . S
Co646 O671 1.967 . S
Co646 O678 1.920 . S
Co647 O650 1.966 . S
Co647 N656 2.022 . S
Co647 N664 1.993 . S
Co647 O672 1.941 . S
C648 O649 1.258 . S
C648 O650 1.263 . S
O649 Co646 1.970 . S
O649 C648 1.258 . S
O650 Co647 1.966 . S
O650 C648 1.263 . S
C651 O652 1.235 . S
C651 O678 1.289 . S
O652 C651 1.235 . S
C653 C655 1.400 . S
C653 N656 1.351 . S
C653 C658 1.501 . S
C654 C655 1.387 . S
C654 N657 1.341 . S
C655 C653 1.400 . S
C655 C654 1.387 . S
N656 Co647 2.022 . S
N656 C653 1.351 . S
N656 N657 1.365 . S
N657 C654 1.341 . S
N657 N656 1.365 . S
N657 H677 0.862 . S
C658 C653 1.501 . S
C658 H659 0.961 . S
C658 H660 0.961 . S
C658 H661 0.960 . S
H659 C658 0.961 . S
H660 C658 0.961 . S
H661 C658 0.960 . S
C662 N663 1.342 . S
C662 C666 1.401 . S
C662 C667 1.499 . S
N663 Co646 1.989 . S
N663 C662 1.342 . S
N663 N664 1.388 . S
N664 Co647 1.993 . S
N664 N663 1.388 . S
N664 C665 1.346 . S
C665 N664 1.346 . S
C665 C666 1.396 . S
C665 C675 1.510 . S
C666 C662 1.401 . S
C666 C665 1.396 . S
C667 C662 1.499 . S
C667 H668 0.959 . S
C667 H669 0.960 . S
C667 H670 0.961 . S
H668 C667 0.959 . S
H669 C667 0.960 . S
H670 C667 0.961 . S
O671 Co646 1.967 . S
O671 C679 1.258 . S
O672 Co647 1.941 . S
O672 C679 1.266 . S
H673 C675 0.959 . S
H674 C675 0.961 . S
C675 C665 1.510 . S
C675 H673 0.959 . S
C675 H674 0.961 . S
C675 H676 0.960 . S
H676 C675 0.960 . S
H677 N657 0.862 . S
O678 Co646 1.920 . S
O678 C651 1.289 . S
C679 O671 1.258 . S
C679 O672 1.266 . S
Co680 O683 1.970 . S
Co680 N697 1.989 . S
Co680 O705 1.967 . S
Co680 O712 1.920 . S
Co681 O684 1.966 . S
Co681 N690 2.022 . S
Co681 N698 1.993 . S
Co681 O706 1.941 . S
C682 O683 1.258 . S
C682 O684 1.263 . S
O683 Co680 1.970 . S
O683 C682 1.258 . S
O684 Co681 1.966 . S
O684 C682 1.263 . S
C685 O686 1.235 . S
C685 O712 1.289 . S
O686 C685 1.235 . S
C687 C689 1.400 . S
C687 N690 1.351 . S
C687 C692 1.501 . S
C688 C689 1.387 . S
C688 N691 1.341 . S
C689 C687 1.400 . S
C689 C688 1.387 . S
N690 Co681 2.022 . S
N690 C687 1.351 . S
N690 N691 1.365 . S
N691 C688 1.341 . S
N691 N690 1.365 . S
N691 H711 0.862 . S
C692 C687 1.501 . S
C692 H693 0.961 . S
C692 H694 0.961 . S
C692 H695 0.960 . S
H693 C692 0.961 . S
H694 C692 0.961 . S
H695 C692 0.960 . S
C696 N697 1.342 . S
C696 C700 1.401 . S
C696 C701 1.499 . S
N697 Co680 1.989 . S
N697 C696 1.342 . S
N697 N698 1.388 . S
N698 Co681 1.993 . S
N698 N697 1.388 . S
N698 C699 1.346 . S
C699 N698 1.346 . S
C699 C700 1.396 . S
C699 C709 1.510 . S
C700 C696 1.401 . S
C700 C699 1.396 . S
C701 C696 1.499 . S
C701 H702 0.959 . S
C701 H703 0.960 . S
C701 H704 0.961 . S
H702 C701 0.959 . S
H703 C701 0.960 . S
H704 C701 0.961 . S
O705 Co680 1.967 . S
O705 C713 1.258 . S
O706 Co681 1.941 . S
O706 C713 1.266 . S
H707 C709 0.959 . S
H708 C709 0.961 . S
C709 C699 1.510 . S
C709 H707 0.959 . S
C709 H708 0.961 . S
C709 H710 0.960 . S
H710 C709 0.960 . S
H711 N691 0.862 . S
O712 Co680 1.920 . S
O712 C685 1.289 . S
C713 O705 1.258 . S
C713 O706 1.266 . S
Co714 O717 1.970 . S
Co714 N731 1.989 . S
Co714 O739 1.967 . S
Co714 O746 1.920 . S
Co715 O718 1.966 . S
Co715 N724 2.022 . S
Co715 N732 1.993 . S
Co715 O740 1.941 . S
C716 O717 1.258 . S
C716 O718 1.263 . S
O717 Co714 1.970 . S
O717 C716 1.258 . S
O718 Co715 1.966 . S
O718 C716 1.263 . S
C719 O720 1.235 . S
C719 O746 1.289 . S
O720 C719 1.235 . S
C721 C723 1.400 . S
C721 N724 1.351 . S
C721 C726 1.501 . S
C722 C723 1.387 . S
C722 N725 1.341 . S
C723 C721 1.400 . S
C723 C722 1.387 . S
N724 Co715 2.022 . S
N724 C721 1.351 . S
N724 N725 1.365 . S
N725 C722 1.341 . S
N725 N724 1.365 . S
N725 H745 0.862 . S
C726 C721 1.501 . S
C726 H727 0.961 . S
C726 H728 0.961 . S
C726 H729 0.960 . S
H727 C726 0.961 . S
H728 C726 0.961 . S
H729 C726 0.960 . S
C730 N731 1.342 . S
C730 C734 1.401 . S
C730 C735 1.499 . S
N731 Co714 1.989 . S
N731 C730 1.342 . S
N731 N732 1.388 . S
N732 Co715 1.993 . S
N732 N731 1.388 . S
N732 C733 1.346 . S
C733 N732 1.346 . S
C733 C734 1.396 . S
C733 C743 1.510 . S
C734 C730 1.401 . S
C734 C733 1.396 . S
C735 C730 1.499 . S
C735 H736 0.959 . S
C735 H737 0.960 . S
C735 H738 0.961 . S
H736 C735 0.959 . S
H737 C735 0.960 . S
H738 C735 0.961 . S
O739 Co714 1.967 . S
O739 C747 1.258 . S
O740 Co715 1.941 . S
O740 C747 1.266 . S
H741 C743 0.959 . S
H742 C743 0.961 . S
C743 C733 1.510 . S
C743 H741 0.959 . S
C743 H742 0.961 . S
C743 H744 0.960 . S
H744 C743 0.960 . S
H745 N725 0.862 . S
O746 Co714 1.920 . S
O746 C719 1.289 . S
C747 O739 1.258 . S
C747 O740 1.266 . S
Co748 O751 1.970 . S
Co748 N765 1.989 . S
Co748 O773 1.967 . S
Co748 O780 1.920 . S
Co749 O752 1.966 . S
Co749 N758 2.022 . S
Co749 N766 1.993 . S
Co749 O774 1.941 . S
C750 O751 1.258 . S
C750 O752 1.263 . S
O751 Co748 1.970 . S
O751 C750 1.258 . S
O752 Co749 1.966 . S
O752 C750 1.263 . S
C753 O754 1.235 . S
C753 O780 1.289 . S
O754 C753 1.235 . S
C755 C757 1.400 . S
C755 N758 1.351 . S
C755 C760 1.501 . S
C756 C757 1.387 . S
C756 N759 1.341 . S
C757 C755 1.400 . S
C757 C756 1.387 . S
N758 Co749 2.022 . S
N758 C755 1.351 . S
N758 N759 1.365 . S
N759 C756 1.341 . S
N759 N758 1.365 . S
N759 H779 0.862 . S
C760 C755 1.501 . S
C760 H761 0.961 . S
C760 H762 0.961 . S
C760 H763 0.960 . S
H761 C760 0.961 . S
H762 C760 0.961 . S
H763 C760 0.960 . S
C764 N765 1.342 . S
C764 C768 1.401 . S
C764 C769 1.499 . S
N765 Co748 1.989 . S
N765 C764 1.342 . S
N765 N766 1.388 . S
N766 Co749 1.993 . S
N766 N765 1.388 . S
N766 C767 1.346 . S
C767 N766 1.346 . S
C767 C768 1.396 . S
C767 C777 1.510 . S
C768 C764 1.401 . S
C768 C767 1.396 . S
C769 C764 1.499 . S
C769 H770 0.959 . S
C769 H771 0.960 . S
C769 H772 0.961 . S
H770 C769 0.959 . S
H771 C769 0.960 . S
H772 C769 0.961 . S
O773 Co748 1.967 . S
O773 C781 1.258 . S
O774 Co749 1.941 . S
O774 C781 1.266 . S
H775 C777 0.959 . S
H776 C777 0.961 . S
C777 C767 1.510 . S
C777 H775 0.959 . S
C777 H776 0.961 . S
C777 H778 0.960 . S
H778 C777 0.960 . S
H779 N759 0.862 . S
O780 Co748 1.920 . S
O780 C753 1.289 . S
C781 O773 1.258 . S
C781 O774 1.266 . S
Co782 O785 1.970 . S
Co782 N799 1.989 . S
Co782 O807 1.967 . S
Co782 O814 1.920 . S
Co783 O786 1.966 . S
Co783 N792 2.022 . S
Co783 N800 1.993 . S
Co783 O808 1.941 . S
C784 O785 1.258 . S
C784 O786 1.263 . S
O785 Co782 1.970 . S
O785 C784 1.258 . S
O786 Co783 1.966 . S
O786 C784 1.263 . S
C787 O788 1.235 . S
C787 O814 1.289 . S
O788 C787 1.235 . S
C789 C791 1.400 . S
C789 N792 1.351 . S
C789 C794 1.501 . S
C790 C791 1.387 . S
C790 N793 1.341 . S
C791 C789 1.400 . S
C791 C790 1.387 . S
N792 Co783 2.022 . S
N792 C789 1.351 . S
N792 N793 1.365 . S
N793 C790 1.341 . S
N793 N792 1.365 . S
N793 H813 0.862 . S
C794 C789 1.501 . S
C794 H795 0.961 . S
C794 H796 0.961 . S
C794 H797 0.960 . S
H795 C794 0.961 . S
H796 C794 0.961 . S
H797 C794 0.960 . S
C798 N799 1.342 . S
C798 C802 1.401 . S
C798 C803 1.499 . S
N799 Co782 1.989 . S
N799 C798 1.342 . S
N799 N800 1.388 . S
N800 Co783 1.993 . S
N800 N799 1.388 . S
N800 C801 1.346 . S
C801 N800 1.346 . S
C801 C802 1.396 . S
C801 C811 1.510 . S
C802 C798 1.401 . S
C802 C801 1.396 . S
C803 C798 1.499 . S
C803 H804 0.959 . S
C803 H805 0.960 . S
C803 H806 0.961 . S
H804 C803 0.959 . S
H805 C803 0.960 . S
H806 C803 0.961 . S
O807 Co782 1.967 . S
O807 C815 1.258 . S
O808 Co783 1.941 . S
O808 C815 1.266 . S
H809 C811 0.959 . S
H810 C811 0.961 . S
C811 C801 1.510 . S
C811 H809 0.959 . S
C811 H810 0.961 . S
C811 H812 0.960 . S
H812 C811 0.960 . S
H813 N793 0.862 . S
O814 Co782 1.920 . S
O814 C787 1.289 . S
C815 O807 1.258 . S
C815 O808 1.266 . S
Co816 O819 1.970 . S
Co816 N833 1.989 . S
Co816 O841 1.967 . S
Co816 O848 1.920 . S
Co817 O820 1.966 . S
Co817 N826 2.022 . S
Co817 N834 1.993 . S
Co817 O842 1.941 . S
C818 O819 1.258 . S
C818 O820 1.263 . S
O819 Co816 1.970 . S
O819 C818 1.258 . S
O820 Co817 1.966 . S
O820 C818 1.263 . S
C821 O822 1.235 . S
C821 O848 1.289 . S
O822 C821 1.235 . S
C823 C825 1.400 . S
C823 N826 1.351 . S
C823 C828 1.501 . S
C824 C825 1.387 . S
C824 N827 1.341 . S
C825 C823 1.400 . S
C825 C824 1.387 . S
N826 Co817 2.022 . S
N826 C823 1.351 . S
N826 N827 1.365 . S
N827 C824 1.341 . S
N827 N826 1.365 . S
N827 H847 0.862 . S
C828 C823 1.501 . S
C828 H829 0.961 . S
C828 H830 0.961 . S
C828 H831 0.960 . S
H829 C828 0.961 . S
H830 C828 0.961 . S
H831 C828 0.960 . S
C832 N833 1.342 . S
C832 C836 1.401 . S
C832 C837 1.499 . S
N833 Co816 1.989 . S
N833 C832 1.342 . S
N833 N834 1.388 . S
N834 Co817 1.993 . S
N834 N833 1.388 . S
N834 C835 1.346 . S
C835 N834 1.346 . S
C835 C836 1.396 . S
C835 C845 1.510 . S
C836 C832 1.401 . S
C836 C835 1.396 . S
C837 C832 1.499 . S
C837 H838 0.959 . S
C837 H839 0.960 . S
C837 H840 0.961 . S
H838 C837 0.959 . S
H839 C837 0.960 . S
H840 C837 0.961 . S
O841 Co816 1.967 . S
O841 C849 1.258 . S
O842 Co817 1.941 . S
O842 C849 1.266 . S
H843 C845 0.959 . S
H844 C845 0.961 . S
C845 C835 1.510 . S
C845 H843 0.959 . S
C845 H844 0.961 . S
C845 H846 0.960 . S
H846 C845 0.960 . S
H847 N827 0.862 . S
O848 Co816 1.920 . S
O848 C821 1.289 . S
C849 O841 1.258 . S
C849 O842 1.266 . S
Co850 O853 1.970 . S
Co850 N867 1.989 . S
Co850 O875 1.967 . S
Co850 O882 1.920 . S
Co851 O854 1.966 . S
Co851 N860 2.022 . S
Co851 N868 1.993 . S
Co851 O876 1.941 . S
C852 O853 1.258 . S
C852 O854 1.263 . S
O853 Co850 1.970 . S
O853 C852 1.258 . S
O854 Co851 1.966 . S
O854 C852 1.263 . S
C855 O856 1.235 . S
C855 O882 1.289 . S
O856 C855 1.235 . S
C857 C859 1.400 . S
C857 N860 1.351 . S
C857 C862 1.501 . S
C858 C859 1.387 . S
C858 N861 1.341 . S
C859 C857 1.400 . S
C859 C858 1.387 . S
N860 Co851 2.022 . S
N860 C857 1.351 . S
N860 N861 1.365 . S
N861 C858 1.341 . S
N861 N860 1.365 . S
N861 H881 0.862 . S
C862 C857 1.501 . S
C862 H863 0.961 . S
C862 H864 0.961 . S
C862 H865 0.960 . S
H863 C862 0.961 . S
H864 C862 0.961 . S
H865 C862 0.960 . S
C866 N867 1.342 . S
C866 C870 1.401 . S
C866 C871 1.499 . S
N867 Co850 1.989 . S
N867 C866 1.342 . S
N867 N868 1.388 . S
N868 Co851 1.993 . S
N868 N867 1.388 . S
N868 C869 1.346 . S
C869 N868 1.346 . S
C869 C870 1.396 . S
C869 C879 1.510 . S
C870 C866 1.401 . S
C870 C869 1.396 . S
C871 C866 1.499 . S
C871 H872 0.959 . S
C871 H873 0.960 . S
C871 H874 0.961 . S
H872 C871 0.959 . S
H873 C871 0.960 . S
H874 C871 0.961 . S
O875 Co850 1.967 . S
O875 C883 1.258 . S
O876 Co851 1.941 . S
O876 C883 1.266 . S
H877 C879 0.959 . S
H878 C879 0.961 . S
C879 C869 1.510 . S
C879 H877 0.959 . S
C879 H878 0.961 . S
C879 H880 0.960 . S
H880 C879 0.960 . S
H881 N861 0.862 . S
O882 Co850 1.920 . S
O882 C855 1.289 . S
C883 O875 1.258 . S
C883 O876 1.266 . S
Co884 O887 1.970 . S
Co884 N901 1.989 . S
Co884 O909 1.967 . S
Co884 O916 1.920 . S
Co885 O888 1.966 . S
Co885 N894 2.022 . S
Co885 N902 1.993 . S
Co885 O910 1.941 . S
C886 O887 1.258 . S
C886 O888 1.263 . S
O887 Co884 1.970 . S
O887 C886 1.258 . S
O888 Co885 1.966 . S
O888 C886 1.263 . S
C889 O890 1.235 . S
C889 O916 1.289 . S
O890 C889 1.235 . S
C891 C893 1.400 . S
C891 N894 1.351 . S
C891 C896 1.501 . S
C892 C893 1.387 . S
C892 N895 1.341 . S
C893 C891 1.400 . S
C893 C892 1.387 . S
N894 Co885 2.022 . S
N894 C891 1.351 . S
N894 N895 1.365 . S
N895 C892 1.341 . S
N895 N894 1.365 . S
N895 H915 0.862 . S
C896 C891 1.501 . S
C896 H897 0.961 . S
C896 H898 0.961 . S
C896 H899 0.960 . S
H897 C896 0.961 . S
H898 C896 0.961 . S
H899 C896 0.960 . S
C900 N901 1.342 . S
C900 C904 1.401 . S
C900 C905 1.499 . S
N901 Co884 1.989 . S
N901 C900 1.342 . S
N901 N902 1.388 . S
N902 Co885 1.993 . S
N902 N901 1.388 . S
N902 C903 1.346 . S
C903 N902 1.346 . S
C903 C904 1.396 . S
C903 C913 1.510 . S
C904 C900 1.401 . S
C904 C903 1.396 . S
C905 C900 1.499 . S
C905 H906 0.959 . S
C905 H907 0.960 . S
C905 H908 0.961 . S
H906 C905 0.959 . S
H907 C905 0.960 . S
H908 C905 0.961 . S
O909 Co884 1.967 . S
O909 C917 1.258 . S
O910 Co885 1.941 . S
O910 C917 1.266 . S
H911 C913 0.959 . S
H912 C913 0.961 . S
C913 C903 1.510 . S
C913 H911 0.959 . S
C913 H912 0.961 . S
C913 H914 0.960 . S
H914 C913 0.960 . S
H915 N895 0.862 . S
O916 Co884 1.920 . S
O916 C889 1.289 . S
C917 O909 1.258 . S
C917 O910 1.266 . S
Co918 O921 1.970 . S
Co918 N935 1.989 . S
Co918 O943 1.967 . S
Co918 O950 1.920 . S
Co919 O922 1.966 . S
Co919 N928 2.022 . S
Co919 N936 1.993 . S
Co919 O944 1.941 . S
C920 O921 1.258 . S
C920 O922 1.263 . S
O921 Co918 1.970 . S
O921 C920 1.258 . S
O922 Co919 1.966 . S
O922 C920 1.263 . S
C923 O924 1.235 . S
C923 O950 1.289 . S
O924 C923 1.235 . S
C925 C927 1.400 . S
C925 N928 1.351 . S
C925 C930 1.501 . S
C926 C927 1.387 . S
C926 N929 1.341 . S
C927 C925 1.400 . S
C927 C926 1.387 . S
N928 Co919 2.022 . S
N928 C925 1.351 . S
N928 N929 1.365 . S
N929 C926 1.341 . S
N929 N928 1.365 . S
N929 H949 0.862 . S
C930 C925 1.501 . S
C930 H931 0.961 . S
C930 H932 0.961 . S
C930 H933 0.960 . S
H931 C930 0.961 . S
H932 C930 0.961 . S
H933 C930 0.960 . S
C934 N935 1.342 . S
C934 C938 1.401 . S
C934 C939 1.499 . S
N935 Co918 1.989 . S
N935 C934 1.342 . S
N935 N936 1.388 . S
N936 Co919 1.993 . S
N936 N935 1.388 . S
N936 C937 1.346 . S
C937 N936 1.346 . S
C937 C938 1.396 . S
C937 C947 1.510 . S
C938 C934 1.401 . S
C938 C937 1.396 . S
C939 C934 1.499 . S
C939 H940 0.959 . S
C939 H941 0.960 . S
C939 H942 0.961 . S
H940 C939 0.959 . S
H941 C939 0.960 . S
H942 C939 0.961 . S
O943 Co918 1.967 . S
O943 C951 1.258 . S
O944 Co919 1.941 . S
O944 C951 1.266 . S
H945 C947 0.959 . S
H946 C947 0.961 . S
C947 C937 1.510 . S
C947 H945 0.959 . S
C947 H946 0.961 . S
C947 H948 0.960 . S
H948 C947 0.960 . S
H949 N929 0.862 . S
O950 Co918 1.920 . S
O950 C923 1.289 . S
C951 O943 1.258 . S
C951 O944 1.266 . S
Co952 O955 1.970 . S
Co952 N969 1.989 . S
Co952 O977 1.967 . S
Co952 O984 1.920 . S
Co953 O956 1.966 . S
Co953 N962 2.022 . S
Co953 N970 1.993 . S
Co953 O978 1.941 . S
C954 O955 1.258 . S
C954 O956 1.263 . S
O955 Co952 1.970 . S
O955 C954 1.258 . S
O956 Co953 1.966 . S
O956 C954 1.263 . S
C957 O958 1.235 . S
C957 O984 1.289 . S
O958 C957 1.235 . S
C959 C961 1.400 . S
C959 N962 1.351 . S
C959 C964 1.501 . S
C960 C961 1.387 . S
C960 N963 1.341 . S
C961 C959 1.400 . S
C961 C960 1.387 . S
N962 Co953 2.022 . S
N962 C959 1.351 . S
N962 N963 1.365 . S
N963 C960 1.341 . S
N963 N962 1.365 . S
N963 H983 0.862 . S
C964 C959 1.501 . S
C964 H965 0.961 . S
C964 H966 0.961 . S
C964 H967 0.960 . S
H965 C964 0.961 . S
H966 C964 0.961 . S
H967 C964 0.960 . S
C968 N969 1.342 . S
C968 C972 1.401 . S
C968 C973 1.499 . S
N969 Co952 1.989 . S
N969 C968 1.342 . S
N969 N970 1.388 . S
N970 Co953 1.993 . S
N970 N969 1.388 . S
N970 C971 1.346 . S
C971 N970 1.346 . S
C971 C972 1.396 . S
C971 C981 1.510 . S
C972 C968 1.401 . S
C972 C971 1.396 . S
C973 C968 1.499 . S
C973 H974 0.959 . S
C973 H975 0.960 . S
C973 H976 0.961 . S
H974 C973 0.959 . S
H975 C973 0.960 . S
H976 C973 0.961 . S
O977 Co952 1.967 . S
O977 C985 1.258 . S
O978 Co953 1.941 . S
O978 C985 1.266 . S
H979 C981 0.959 . S
H980 C981 0.961 . S
C981 C971 1.510 . S
C981 H979 0.959 . S
C981 H980 0.961 . S
C981 H982 0.960 . S
H982 C981 0.960 . S
H983 N963 0.862 . S
O984 Co952 1.920 . S
O984 C957 1.289 . S
C985 O977 1.258 . S
C985 O978 1.266 . S
Co986 O989 1.970 . S
Co986 N1003 1.989 . S
Co986 O1011 1.967 . S
Co986 O1018 1.920 . S
Co987 O990 1.966 . S
Co987 N996 2.022 . S
Co987 N1004 1.993 . S
Co987 O1012 1.941 . S
C988 O989 1.258 . S
C988 O990 1.263 . S
O989 Co986 1.970 . S
O989 C988 1.258 . S
O990 Co987 1.966 . S
O990 C988 1.263 . S
C991 O992 1.235 . S
C991 O1018 1.289 . S
O992 C991 1.235 . S
C993 C995 1.400 . S
C993 N996 1.351 . S
C993 C998 1.501 . S
C994 C995 1.387 . S
C994 N997 1.341 . S
C995 C993 1.400 . S
C995 C994 1.387 . S
N996 Co987 2.022 . S
N996 C993 1.351 . S
N996 N997 1.365 . S
N997 C994 1.341 . S
N997 N996 1.365 . S
N997 H1017 0.862 . S
C998 C993 1.501 . S
C998 H999 0.961 . S
C998 H1000 0.961 . S
C998 H1001 0.960 . S
H999 C998 0.961 . S
H1000 C998 0.961 . S
H1001 C998 0.960 . S
C1002 N1003 1.342 . S
C1002 C1006 1.401 . S
C1002 C1007 1.499 . S
N1003 Co986 1.989 . S
N1003 C1002 1.342 . S
N1003 N1004 1.388 . S
N1004 Co987 1.993 . S
N1004 N1003 1.388 . S
N1004 C1005 1.346 . S
C1005 N1004 1.346 . S
C1005 C1006 1.396 . S
C1005 C1015 1.510 . S
C1006 C1002 1.401 . S
C1006 C1005 1.396 . S
C1007 C1002 1.499 . S
C1007 H1008 0.959 . S
C1007 H1009 0.960 . S
C1007 H1010 0.961 . S
H1008 C1007 0.959 . S
H1009 C1007 0.960 . S
H1010 C1007 0.961 . S
O1011 Co986 1.967 . S
O1011 C1019 1.258 . S
O1012 Co987 1.941 . S
O1012 C1019 1.266 . S
H1013 C1015 0.959 . S
H1014 C1015 0.961 . S
C1015 C1005 1.510 . S
C1015 H1013 0.959 . S
C1015 H1014 0.961 . S
C1015 H1016 0.960 . S
H1016 C1015 0.960 . S
H1017 N997 0.862 . S
O1018 Co986 1.920 . S
O1018 C991 1.289 . S
C1019 O1011 1.258 . S
C1019 O1012 1.266 . S
Co1020 O1023 1.970 . S
Co1020 N1037 1.989 . S
Co1020 O1045 1.967 . S
Co1020 O1052 1.920 . S
Co1021 O1024 1.966 . S
Co1021 N1030 2.022 . S
Co1021 N1038 1.993 . S
Co1021 O1046 1.941 . S
C1022 O1023 1.258 . S
C1022 O1024 1.263 . S
O1023 Co1020 1.970 . S
O1023 C1022 1.258 . S
O1024 Co1021 1.966 . S
O1024 C1022 1.263 . S
C1025 O1026 1.235 . S
C1025 O1052 1.289 . S
O1026 C1025 1.235 . S
C1027 C1029 1.400 . S
C1027 N1030 1.351 . S
C1027 C1032 1.501 . S
C1028 C1029 1.387 . S
C1028 N1031 1.341 . S
C1029 C1027 1.400 . S
C1029 C1028 1.387 . S
N1030 Co1021 2.022 . S
N1030 C1027 1.351 . S
N1030 N1031 1.365 . S
N1031 C1028 1.341 . S
N1031 N1030 1.365 . S
N1031 H1051 0.862 . S
C1032 C1027 1.501 . S
C1032 H1033 0.961 . S
C1032 H1034 0.961 . S
C1032 H1035 0.960 . S
H1033 C1032 0.961 . S
H1034 C1032 0.961 . S
H1035 C1032 0.960 . S
C1036 N1037 1.342 . S
C1036 C1040 1.401 . S
C1036 C1041 1.499 . S
N1037 Co1020 1.989 . S
N1037 C1036 1.342 . S
N1037 N1038 1.388 . S
N1038 Co1021 1.993 . S
N1038 N1037 1.388 . S
N1038 C1039 1.346 . S
C1039 N1038 1.346 . S
C1039 C1040 1.396 . S
C1039 C1049 1.510 . S
C1040 C1036 1.401 . S
C1040 C1039 1.396 . S
C1041 C1036 1.499 . S
C1041 H1042 0.959 . S
C1041 H1043 0.960 . S
C1041 H1044 0.961 . S
H1042 C1041 0.959 . S
H1043 C1041 0.960 . S
H1044 C1041 0.961 . S
O1045 Co1020 1.967 . S
O1045 C1053 1.258 . S
O1046 Co1021 1.941 . S
O1046 C1053 1.266 . S
H1047 C1049 0.959 . S
H1048 C1049 0.961 . S
C1049 C1039 1.510 . S
C1049 H1047 0.959 . S
C1049 H1048 0.961 . S
C1049 H1050 0.960 . S
H1050 C1049 0.960 . S
H1051 N1031 0.862 . S
O1052 Co1020 1.920 . S
O1052 C1025 1.289 . S
C1053 O1045 1.258 . S
C1053 O1046 1.266 . S
Co1054 O1057 1.970 . S
Co1054 N1071 1.989 . S
Co1054 O1079 1.967 . S
Co1054 O1086 1.920 . S
Co1055 O1058 1.966 . S
Co1055 N1064 2.022 . S
Co1055 N1072 1.993 . S
Co1055 O1080 1.941 . S
C1056 O1057 1.258 . S
C1056 O1058 1.263 . S
O1057 Co1054 1.970 . S
O1057 C1056 1.258 . S
O1058 Co1055 1.966 . S
O1058 C1056 1.263 . S
C1059 O1060 1.235 . S
C1059 O1086 1.289 . S
O1060 C1059 1.235 . S
C1061 C1063 1.400 . S
C1061 N1064 1.351 . S
C1061 C1066 1.501 . S
C1062 C1063 1.387 . S
C1062 N1065 1.341 . S
C1063 C1061 1.400 . S
C1063 C1062 1.387 . S
N1064 Co1055 2.022 . S
N1064 C1061 1.351 . S
N1064 N1065 1.365 . S
N1065 C1062 1.341 . S
N1065 N1064 1.365 . S
N1065 H1085 0.862 . S
C1066 C1061 1.501 . S
C1066 H1067 0.961 . S
C1066 H1068 0.961 . S
C1066 H1069 0.960 . S
H1067 C1066 0.961 . S
H1068 C1066 0.961 . S
H1069 C1066 0.960 . S
C1070 N1071 1.342 . S
C1070 C1074 1.401 . S
C1070 C1075 1.499 . S
N1071 Co1054 1.989 . S
N1071 C1070 1.342 . S
N1071 N1072 1.388 . S
N1072 Co1055 1.993 . S
N1072 N1071 1.388 . S
N1072 C1073 1.346 . S
C1073 N1072 1.346 . S
C1073 C1074 1.396 . S
C1073 C1083 1.510 . S
C1074 C1070 1.401 . S
C1074 C1073 1.396 . S
C1075 C1070 1.499 . S
C1075 H1076 0.959 . S
C1075 H1077 0.960 . S
C1075 H1078 0.961 . S
H1076 C1075 0.959 . S
H1077 C1075 0.960 . S
H1078 C1075 0.961 . S
O1079 Co1054 1.967 . S
O1079 C1087 1.258 . S
O1080 Co1055 1.941 . S
O1080 C1087 1.266 . S
H1081 C1083 0.959 . S
H1082 C1083 0.961 . S
C1083 C1073 1.510 . S
C1083 H1081 0.959 . S
C1083 H1082 0.961 . S
C1083 H1084 0.960 . S
H1084 C1083 0.960 . S
H1085 N1065 0.862 . S
O1086 Co1054 1.920 . S
O1086 C1059 1.289 . S
C1087 O1079 1.258 . S
C1087 O1080 1.266 . S
H1088 C1094 0.930 . S
H1089 C1097 0.930 . S
H1090 C1098 0.930 . S
H1091 C1099 0.930 . S
H1092 C1102 0.930 . S
H1093 C1103 0.930 . S
C1094 H1088 0.930 . S
C1094 C1095 1.355 . S
C1094 C1096 1.415 . S
C1095 C1094 1.355 . S
C1095 C1097 1.419 . S
C1096 C1094 1.415 . S
C1096 C1101 1.425 . S
C1096 C1103 1.409 . S
C1097 H1089 0.930 . S
C1097 C1095 1.419 . S
C1097 C1098 1.362 . S
C1098 H1090 0.930 . S
C1098 C1097 1.362 . S
C1098 C1101 1.409 . S
C1099 H1091 0.930 . S
C1099 C1100 1.355 . S
C1099 C1101 1.415 . S
C1100 C1099 1.355 . S
C1100 C1102 1.419 . S
C1101 C1096 1.425 . S
C1101 C1098 1.409 . S
C1101 C1099 1.415 . S
C1102 H1092 0.930 . S
C1102 C1100 1.419 . S
C1102 C1103 1.362 . S
C1103 H1093 0.930 . S
C1103 C1096 1.409 . S
C1103 C1102 1.362 . S
H1104 C1110 0.930 . S
H1105 C1113 0.930 . S
H1106 C1114 0.930 . S
H1107 C1115 0.930 . S
H1108 C1118 0.930 . S
H1109 C1119 0.930 . S
C1110 H1104 0.930 . S
C1110 C1111 1.355 . S
C1110 C1112 1.415 1_655 S
C1111 C1110 1.355 . S
C1111 C1113 1.419 . S
C1112 C1110 1.415 1_455 S
C1112 C1117 1.425 1_465 S
C1112 C1119 1.409 . S
C1113 H1105 0.930 . S
C1113 C1111 1.419 . S
C1113 C1114 1.362 1_565 S
C1114 H1106 0.930 . S
C1114 C1113 1.362 1_545 S
C1114 C1117 1.409 . S
C1115 H1107 0.930 . S
C1115 C1116 1.355 . S
C1115 C1117 1.415 1_455 S
C1116 C1115 1.355 . S
C1116 C1118 1.419 . S
C1117 C1112 1.425 1_645 S
C1117 C1114 1.409 . S
C1117 C1115 1.415 1_655 S
C1118 H1108 0.930 . S
C1118 C1116 1.419 . S
C1118 C1119 1.362 1_545 S
C1119 H1109 0.930 . S
C1119 C1112 1.409 . S
C1119 C1118 1.362 1_565 S
H1120 C1126 0.930 . S
H1121 C1129 0.930 . S
H1122 C1130 0.930 . S
H1123 C1131 0.930 . S
H1124 C1134 0.930 . S
H1125 C1135 0.930 . S
C1126 H1120 0.930 . S
C1126 C1127 1.355 . S
C1126 C1128 1.415 . S
C1127 C1126 1.355 . S
C1127 C1129 1.419 . S
C1128 C1126 1.415 . S
C1128 C1133 1.425 . S
C1128 C1135 1.409 . S
C1129 H1121 0.930 . S
C1129 C1127 1.419 . S
C1129 C1130 1.362 . S
C1130 H1122 0.930 . S
C1130 C1129 1.362 . S
C1130 C1133 1.409 . S
C1131 H1123 0.930 . S
C1131 C1132 1.355 . S
C1131 C1133 1.415 . S
C1132 C1131 1.355 . S
C1132 C1134 1.419 . S
C1133 C1128 1.425 . S
C1133 C1130 1.409 . S
C1133 C1131 1.415 . S
C1134 H1124 0.930 . S
C1134 C1132 1.419 . S
C1134 C1135 1.362 . S
C1135 H1125 0.930 . S
C1135 C1128 1.409 . S
C1135 C1134 1.362 . S
H1136 C1142 0.930 . S
H1137 C1145 0.930 . S
H1138 C1146 0.930 . S
H1139 C1147 0.930 . S
H1140 C1150 0.930 . S
H1141 C1151 0.930 . S
C1142 H1136 0.930 . S
C1142 C1143 1.355 1_554 S
C1142 C1144 1.415 . S
C1143 C1142 1.355 1_556 S
C1143 C1145 1.419 . S
C1144 C1142 1.415 . S
C1144 C1149 1.425 1_564 S
C1144 C1151 1.409 . S
C1145 H1137 0.930 . S
C1145 C1143 1.419 . S
C1145 C1146 1.362 1_565 S
C1146 H1138 0.930 . S
C1146 C1145 1.362 1_545 S
C1146 C1149 1.409 . S
C1147 H1139 0.930 . S
C1147 C1148 1.355 1_556 S
C1147 C1149 1.415 . S
C1148 C1147 1.355 1_554 S
C1148 C1150 1.419 . S
C1149 C1144 1.425 1_546 S
C1149 C1146 1.409 . S
C1149 C1147 1.415 . S
C1150 H1140 0.930 . S
C1150 C1148 1.419 . S
C1150 C1151 1.362 1_545 S
C1151 H1141 0.930 . S
C1151 C1144 1.409 . S
C1151 C1150 1.362 1_565 S
H1152 C1158 0.930 . S
H1153 C1161 0.930 . S
H1154 C1162 0.930 . S
H1155 C1163 0.930 . S
H1156 C1166 0.930 . S
H1157 C1167 0.930 . S
C1158 H1152 0.930 . S
C1158 C1159 1.355 . S
C1158 C1160 1.415 . S
C1159 C1158 1.355 . S
C1159 C1161 1.419 . S
C1160 C1158 1.415 . S
C1160 C1165 1.425 . S
C1160 C1167 1.409 . S
C1161 H1153 0.930 . S
C1161 C1159 1.419 . S
C1161 C1162 1.362 . S
C1162 H1154 0.930 . S
C1162 C1161 1.362 . S
C1162 C1165 1.409 . S
C1163 H1155 0.930 . S
C1163 C1164 1.355 . S
C1163 C1165 1.415 . S
C1164 C1163 1.355 . S
C1164 C1166 1.419 . S
C1165 C1160 1.425 . S
C1165 C1162 1.409 . S
C1165 C1163 1.415 . S
C1166 H1156 0.930 . S
C1166 C1164 1.419 . S
C1166 C1167 1.362 . S
C1167 H1157 0.930 . S
C1167 C1160 1.409 . S
C1167 C1166 1.362 . S
H1168 C1174 0.930 1_545 S
H1169 C1177 0.930 . S
H1170 C1178 0.930 . S
H1171 C1179 0.930 1_565 S
H1172 C1182 0.930 . S
H1173 C1183 0.930 . S
C1174 H1168 0.930 1_565 S
C1174 C1175 1.355 . S
C1174 C1176 1.415 1_565 S
C1175 C1174 1.355 . S
C1175 C1177 1.419 . S
C1176 C1174 1.415 1_545 S
C1176 C1181 1.425 1_545 S
C1176 C1183 1.409 . S
C1177 H1169 0.930 . S
C1177 C1175 1.419 . S
C1177 C1178 1.362 . S
C1178 H1170 0.930 . S
C1178 C1177 1.362 . S
C1178 C1181 1.409 . S
C1179 H1171 0.930 1_545 S
C1179 C1180 1.355 . S
C1179 C1181 1.415 1_545 S
C1180 C1179 1.355 . S
C1180 C1182 1.419 . S
C1181 C1176 1.425 1_565 S
C1181 C1178 1.409 . S
C1181 C1179 1.415 1_565 S
C1182 H1172 0.930 . S
C1182 C1180 1.419 . S
C1182 C1183 1.362 . S
C1183 H1173 0.930 . S
C1183 C1176 1.409 . S
C1183 C1182 1.362 . S
H1184 C1190 0.930 . S
H1185 C1193 0.930 . S
H1186 C1194 0.930 . S
H1187 C1195 0.930 . S
H1188 C1198 0.930 . S
H1189 C1199 0.930 . S
C1190 H1184 0.930 . S
C1190 C1191 1.355 . S
C1190 C1192 1.415 . S
C1191 C1190 1.355 . S
C1191 C1193 1.419 . S
C1192 C1190 1.415 . S
C1192 C1197 1.425 . S
C1192 C1199 1.409 . S
C1193 H1185 0.930 . S
C1193 C1191 1.419 . S
C1193 C1194 1.362 . S
C1194 H1186 0.930 . S
C1194 C1193 1.362 . S
C1194 C1197 1.409 . S
C1195 H1187 0.930 . S
C1195 C1196 1.355 . S
C1195 C1197 1.415 . S
C1196 C1195 1.355 . S
C1196 C1198 1.419 . S
C1197 C1192 1.425 . S
C1197 C1194 1.409 . S
C1197 C1195 1.415 . S
C1198 H1188 0.930 . S
C1198 C1196 1.419 . S
C1198 C1199 1.362 . S
C1199 H1189 0.930 . S
C1199 C1192 1.409 . S
C1199 C1198 1.362 . S
H1200 C1206 0.930 1_545 S
H1201 C1209 0.930 . S
H1202 C1210 0.930 . S
H1203 C1211 0.930 1_565 S
H1204 C1214 0.930 . S
H1205 C1215 0.930 . S
C1206 H1200 0.930 1_565 S
C1206 C1207 1.355 . S
C1206 C1208 1.415 1_565 S
C1207 C1206 1.355 . S
C1207 C1209 1.419 1_554 S
C1208 C1206 1.415 1_545 S
C1208 C1213 1.425 1_444 S
C1208 C1215 1.409 1_455 S
C1209 H1201 0.930 . S
C1209 C1207 1.419 1_556 S
C1209 C1210 1.362 . S
C1210 H1202 0.930 . S
C1210 C1209 1.362 . S
C1210 C1213 1.409 1_455 S
C1211 H1203 0.930 1_545 S
C1211 C1212 1.355 . S
C1211 C1213 1.415 1_545 S
C1212 C1211 1.355 . S
C1212 C1214 1.419 1_556 S
C1213 C1208 1.425 1_666 S
C1213 C1210 1.409 1_655 S
C1213 C1211 1.415 1_565 S
C1214 H1204 0.930 . S
C1214 C1212 1.419 1_554 S
C1214 C1215 1.362 . S
C1215 H1205 0.930 . S
C1215 C1208 1.409 1_655 S
C1215 C1214 1.362 . S
H1216 C1222 0.930 . S
H1217 C1225 0.930 . S
H1218 C1226 0.930 . S
H1219 C1227 0.930 . S
H1220 C1230 0.930 . S
H1221 C1231 0.930 . S
C1222 H1216 0.930 . S
C1222 C1223 1.355 . S
C1222 C1224 1.415 . S
C1223 C1222 1.355 . S
C1223 C1225 1.419 . S
C1224 C1222 1.415 . S
C1224 C1229 1.425 . S
C1224 C1231 1.409 . S
C1225 H1217 0.930 . S
C1225 C1223 1.419 . S
C1225 C1226 1.362 . S
C1226 H1218 0.930 . S
C1226 C1225 1.362 . S
C1226 C1229 1.409 . S
C1227 H1219 0.930 . S
C1227 C1228 1.355 . S
C1227 C1229 1.415 . S
C1228 C1227 1.355 . S
C1228 C1230 1.419 . S
C1229 C1224 1.425 . S
C1229 C1226 1.409 . S
C1229 C1227 1.415 . S
C1230 H1220 0.930 . S
C1230 C1228 1.419 . S
C1230 C1231 1.362 . S
C1231 H1221 0.930 . S
C1231 C1224 1.409 . S
C1231 C1230 1.362 . S
H1232 C1238 0.930 . S
H1233 C1241 0.930 . S
H1234 C1242 0.930 . S
H1235 C1243 0.930 . S
H1236 C1246 0.930 . S
H1237 C1247 0.930 . S
C1238 H1232 0.930 . S
C1238 C1239 1.355 . S
C1238 C1240 1.415 . S
C1239 C1238 1.355 . S
C1239 C1241 1.419 . S
C1240 C1238 1.415 . S
C1240 C1245 1.425 . S
C1240 C1247 1.409 . S
C1241 H1233 0.930 . S
C1241 C1239 1.419 . S
C1241 C1242 1.362 . S
C1242 H1234 0.930 . S
C1242 C1241 1.362 . S
C1242 C1245 1.409 . S
C1243 H1235 0.930 . S
C1243 C1244 1.355 . S
C1243 C1245 1.415 . S
C1244 C1243 1.355 . S
C1244 C1246 1.419 . S
C1245 C1240 1.425 . S
C1245 C1242 1.409 . S
C1245 C1243 1.415 . S
C1246 H1236 0.930 . S
C1246 C1244 1.419 . S
C1246 C1247 1.362 . S
C1247 H1237 0.930 . S
C1247 C1240 1.409 . S
C1247 C1246 1.362 . S
H1248 C1254 0.930 . S
H1249 C1257 0.930 . S
H1250 C1258 0.930 . S
H1251 C1259 0.930 . S
H1252 C1262 0.930 . S
H1253 C1263 0.930 . S
C1254 H1248 0.930 . S
C1254 C1255 1.355 . S
C1254 C1256 1.415 . S
C1255 C1254 1.355 . S
C1255 C1257 1.419 . S
C1256 C1254 1.415 . S
C1256 C1261 1.425 . S
C1256 C1263 1.409 . S
C1257 H1249 0.930 . S
C1257 C1255 1.419 . S
C1257 C1258 1.362 . S
C1258 H1250 0.930 . S
C1258 C1257 1.362 . S
C1258 C1261 1.409 . S
C1259 H1251 0.930 . S
C1259 C1260 1.355 . S
C1259 C1261 1.415 . S
C1260 C1259 1.355 . S
C1260 C1262 1.419 . S
C1261 C1256 1.425 . S
C1261 C1258 1.409 . S
C1261 C1259 1.415 . S
C1262 H1252 0.930 . S
C1262 C1260 1.419 . S
C1262 C1263 1.362 . S
C1263 H1253 0.930 . S
C1263 C1256 1.409 . S
C1263 C1262 1.362 . S
H1264 C1270 0.930 . S
H1265 C1273 0.930 . S
H1266 C1274 0.930 . S
H1267 C1275 0.930 . S
H1268 C1278 0.930 . S
H1269 C1279 0.930 . S
C1270 H1264 0.930 . S
C1270 C1271 1.355 . S
C1270 C1272 1.415 . S
C1271 C1270 1.355 . S
C1271 C1273 1.419 . S
C1272 C1270 1.415 . S
C1272 C1277 1.425 . S
C1272 C1279 1.409 . S
C1273 H1265 0.930 . S
C1273 C1271 1.419 . S
C1273 C1274 1.362 . S
C1274 H1266 0.930 . S
C1274 C1273 1.362 . S
C1274 C1277 1.409 . S
C1275 H1267 0.930 . S
C1275 C1276 1.355 . S
C1275 C1277 1.415 . S
C1276 C1275 1.355 . S
C1276 C1278 1.419 . S
C1277 C1272 1.425 . S
C1277 C1274 1.409 . S
C1277 C1275 1.415 . S
C1278 H1268 0.930 . S
C1278 C1276 1.419 . S
C1278 C1279 1.362 . S
C1279 H1269 0.930 . S
C1279 C1272 1.409 . S
C1279 C1278 1.362 . S
H1280 C1286 0.930 . S
H1281 C1289 0.930 . S
H1282 C1290 0.951 . S
H1283 C1291 0.930 . S
H1284 C1294 0.930 . S
H1285 C1295 0.951 . S
C1286 H1280 0.930 . S
C1286 C1287 1.355 . S
C1286 C1288 1.415 . S
C1287 C1286 1.355 . S
C1287 C1289 1.419 . S
C1288 C1286 1.415 . S
C1288 C1293 1.425 1_556 S
C1288 C1295 1.418 . S
C1289 H1281 0.930 . S
C1289 C1287 1.419 . S
C1289 C1290 1.337 1_556 S
C1290 H1282 0.951 . S
C1290 C1289 1.337 1_554 S
C1290 C1293 1.418 . S
C1291 H1283 0.930 . S
C1291 C1292 1.355 . S
C1291 C1293 1.415 . S
C1292 C1291 1.355 . S
C1292 C1294 1.419 . S
C1293 C1288 1.425 1_554 S
C1293 C1290 1.418 . S
C1293 C1291 1.415 . S
C1294 H1284 0.930 . S
C1294 C1292 1.419 . S
C1294 C1295 1.337 1_554 S
C1295 H1285 0.951 . S
C1295 C1288 1.418 . S
C1295 C1294 1.337 1_556 S
H1296 C1302 0.930 . S
H1297 C1305 0.930 . S
H1298 C1306 0.940 . S
H1299 C1307 0.930 . S
H1300 C1310 0.930 . S
H1301 C1311 0.940 . S
C1302 H1296 0.930 . S
C1302 C1303 1.355 . S
C1302 C1304 1.415 . S
C1303 C1302 1.355 . S
C1303 C1305 1.419 . S
C1304 C1302 1.415 . S
C1304 C1309 1.425 1_455 S
C1304 C1311 1.409 1_455 S
C1305 H1297 0.930 . S
C1305 C1303 1.419 . S
C1305 C1306 1.362 . S
C1306 H1298 0.940 . S
C1306 C1305 1.362 . S
C1306 C1309 1.409 1_455 S
C1307 H1299 0.930 . S
C1307 C1308 1.355 . S
C1307 C1309 1.415 . S
C1308 C1307 1.355 . S
C1308 C1310 1.419 . S
C1309 C1304 1.425 1_655 S
C1309 C1306 1.409 1_655 S
C1309 C1307 1.415 . S
C1310 H1300 0.930 . S
C1310 C1308 1.419 . S
C1310 C1311 1.362 . S
C1311 H1301 0.940 . S
C1311 C1304 1.409 1_655 S
C1311 C1310 1.362 . S
H1312 C1318 0.930 . S
H1313 C1321 0.930 . S
H1314 C1322 0.921 1_554 S
H1315 C1323 0.930 . S
H1316 C1326 0.930 . S
H1317 C1327 0.921 1_556 S
C1318 H1312 0.930 . S
C1318 C1319 1.355 . S
C1318 C1320 1.415 . S
C1319 C1318 1.355 . S
C1319 C1321 1.419 . S
C1320 C1318 1.415 . S
C1320 C1325 1.425 1_456 S
C1320 C1327 1.404 1_556 S
C1321 H1313 0.930 . S
C1321 C1319 1.419 . S
C1321 C1322 1.378 1_455 S
C1322 H1314 0.921 1_556 S
C1322 C1321 1.378 1_655 S
C1322 C1325 1.404 1_556 S
C1323 H1315 0.930 . S
C1323 C1324 1.355 . S
C1323 C1325 1.415 . S
C1324 C1323 1.355 . S
C1324 C1326 1.419 . S
C1325 C1320 1.425 1_654 S
C1325 C1322 1.404 1_554 S
C1325 C1323 1.415 . S
C1326 H1316 0.930 . S
C1326 C1324 1.419 . S
C1326 C1327 1.378 1_655 S
C1327 H1317 0.921 1_554 S
C1327 C1320 1.404 1_554 S
C1327 C1326 1.378 1_455 S
H1328 C1334 0.930 . S
H1329 C1337 0.930 . S
H1330 C1338 0.930 . S
H1331 C1339 0.930 . S
H1332 C1342 0.930 . S
H1333 C1343 0.930 . S
C1334 H1328 0.930 . S
C1334 C1335 1.355 . S
C1334 C1336 1.415 . S
C1335 C1334 1.355 . S
C1335 C1337 1.419 . S
C1336 C1334 1.415 . S
C1336 C1341 1.425 . S
C1336 C1343 1.409 . S
C1337 H1329 0.930 . S
C1337 C1335 1.419 . S
C1337 C1338 1.362 . S
C1338 H1330 0.930 . S
C1338 C1337 1.362 . S
C1338 C1341 1.409 . S
C1339 H1331 0.930 . S
C1339 C1340 1.355 . S
C1339 C1341 1.415 . S
C1340 C1339 1.355 . S
C1340 C1342 1.419 . S
C1341 C1336 1.425 . S
C1341 C1338 1.409 . S
C1341 C1339 1.415 . S
C1342 H1332 0.930 . S
C1342 C1340 1.419 . S
C1342 C1343 1.362 . S
C1343 H1333 0.930 . S
C1343 C1336 1.409 . S
C1343 C1342 1.362 . S
H1344 C1350 0.930 . S
H1345 C1353 0.930 . S
H1346 C1354 0.930 . S
H1347 C1355 0.930 . S
H1348 C1358 0.930 . S
H1349 C1359 0.930 . S
C1350 H1344 0.930 . S
C1350 C1351 1.355 . S
C1350 C1352 1.415 . S
C1351 C1350 1.355 . S
C1351 C1353 1.419 . S
C1352 C1350 1.415 . S
C1352 C1357 1.425 . S
C1352 C1359 1.409 . S
C1353 H1345 0.930 . S
C1353 C1351 1.419 . S
C1353 C1354 1.362 . S
C1354 H1346 0.930 . S
C1354 C1353 1.362 . S
C1354 C1357 1.409 . S
C1355 H1347 0.930 . S
C1355 C1356 1.355 . S
C1355 C1357 1.415 . S
C1356 C1355 1.355 . S
C1356 C1358 1.419 . S
C1357 C1352 1.425 . S
C1357 C1354 1.409 . S
C1357 C1355 1.415 . S
C1358 H1348 0.930 . S
C1358 C1356 1.419 . S
C1358 C1359 1.362 . S
C1359 H1349 0.930 . S
C1359 C1352 1.409 . S
C1359 C1358 1.362 . S
H1360 C1366 0.930 . S
H1361 C1369 0.930 . S
H1362 C1370 0.930 . S
H1363 C1371 0.930 . S
H1364 C1374 0.930 . S
H1365 C1375 0.930 . S
C1366 H1360 0.930 . S
C1366 C1367 1.355 . S
C1366 C1368 1.415 . S
C1367 C1366 1.355 . S
C1367 C1369 1.445 . S
C1368 C1366 1.415 . S
C1368 C1373 1.425 1_655 S
C1368 C1375 1.409 . S
C1369 H1361 0.930 . S
C1369 C1367 1.445 . S
C1369 C1370 1.337 1_655 S
C1370 H1362 0.930 . S
C1370 C1369 1.337 1_455 S
C1370 C1373 1.409 . S
C1371 H1363 0.930 . S
C1371 C1372 1.355 . S
C1371 C1373 1.415 . S
C1372 C1371 1.355 . S
C1372 C1374 1.419 . S
C1373 C1368 1.425 1_455 S
C1373 C1370 1.409 . S
C1373 C1371 1.415 . S
C1374 H1364 0.930 . S
C1374 C1372 1.419 . S
C1374 C1375 1.362 1_455 S
C1375 H1365 0.930 . S
C1375 C1368 1.409 . S
C1375 C1374 1.362 1_655 S
H1376 C1382 0.930 . S
H1377 C1385 0.930 . S
H1378 C1386 0.930 . S
H1379 C1387 0.930 . S
H1380 C1390 0.930 . S
H1381 C1391 0.930 . S
C1382 H1376 0.930 . S
C1382 C1383 1.355 . S
C1382 C1384 1.415 . S
C1383 C1382 1.355 . S
C1383 C1385 1.419 . S
C1384 C1382 1.415 . S
C1384 C1389 1.425 . S
C1384 C1391 1.409 . S
C1385 H1377 0.930 . S
C1385 C1383 1.419 . S
C1385 C1386 1.362 . S
C1386 H1378 0.930 . S
C1386 C1385 1.362 . S
C1386 C1389 1.409 . S
C1387 H1379 0.930 . S
C1387 C1388 1.355 . S
C1387 C1389 1.415 . S
C1388 C1387 1.355 . S
C1388 C1390 1.419 . S
C1389 C1384 1.425 . S
C1389 C1386 1.409 . S
C1389 C1387 1.415 . S
C1390 H1380 0.930 . S
C1390 C1388 1.419 . S
C1390 C1391 1.362 . S
C1391 H1381 0.930 . S
C1391 C1384 1.409 . S
C1391 C1390 1.362 . S
H1392 C1398 0.930 . S
H1393 C1401 0.930 . S
H1394 C1402 0.930 . S
H1395 C1403 0.930 . S
H1396 C1406 0.930 . S
H1397 C1407 0.930 . S
C1398 H1392 0.930 . S
C1398 C1399 1.355 . S
C1398 C1400 1.415 . S
C1399 C1398 1.355 . S
C1399 C1401 1.419 . S
C1400 C1398 1.415 . S
C1400 C1405 1.425 . S
C1400 C1407 1.409 . S
C1401 H1393 0.930 . S
C1401 C1399 1.419 . S
C1401 C1402 1.362 . S
C1402 H1394 0.930 . S
C1402 C1401 1.362 . S
C1402 C1405 1.409 . S
C1403 H1395 0.930 . S
C1403 C1404 1.355 . S
C1403 C1405 1.415 . S
C1404 C1403 1.355 . S
C1404 C1406 1.419 . S
C1405 C1400 1.425 . S
C1405 C1402 1.409 . S
C1405 C1403 1.415 . S
C1406 H1396 0.930 . S
C1406 C1404 1.419 . S
C1406 C1407 1.362 . S
C1407 H1397 0.930 . S
C1407 C1400 1.409 . S
C1407 C1406 1.362 . S
H1408 C1414 0.930 . S
H1409 C1417 0.930 . S
H1410 C1418 0.930 . S
H1411 C1419 0.930 . S
H1412 C1422 0.930 . S
H1413 C1423 0.930 . S
C1414 H1408 0.930 . S
C1414 C1415 1.355 . S
C1414 C1416 1.415 . S
C1415 C1414 1.355 . S
C1415 C1417 1.419 . S
C1416 C1414 1.415 . S
C1416 C1421 1.425 . S
C1416 C1423 1.409 . S
C1417 H1409 0.930 . S
C1417 C1415 1.419 . S
C1417 C1418 1.362 . S
C1418 H1410 0.930 . S
C1418 C1417 1.362 . S
C1418 C1421 1.409 . S
C1419 H1411 0.930 . S
C1419 C1420 1.355 . S
C1419 C1421 1.415 . S
C1420 C1419 1.355 . S
C1420 C1422 1.419 . S
C1421 C1416 1.425 . S
C1421 C1418 1.409 . S
C1421 C1419 1.415 . S
C1422 H1412 0.930 . S
C1422 C1420 1.419 . S
C1422 C1423 1.362 . S
C1423 H1413 0.930 . S
C1423 C1416 1.409 . S
C1423 C1422 1.362 . S
H1424 C1430 0.930 . S
H1425 C1433 0.930 . S
H1426 C1434 0.930 . S
H1427 C1435 0.930 . S
H1428 C1438 0.930 . S
H1429 C1439 0.930 . S
C1430 H1424 0.930 . S
C1430 C1431 1.355 . S
C1430 C1432 1.415 . S
C1431 C1430 1.355 . S
C1431 C1433 1.419 . S
C1432 C1430 1.415 . S
C1432 C1437 1.425 . S
C1432 C1439 1.409 . S
C1433 H1425 0.930 . S
C1433 C1431 1.419 . S
C1433 C1434 1.362 . S
C1434 H1426 0.930 . S
C1434 C1433 1.362 . S
C1434 C1437 1.409 . S
C1435 H1427 0.930 . S
C1435 C1436 1.355 . S
C1435 C1437 1.415 . S
C1436 C1435 1.355 . S
C1436 C1438 1.419 . S
C1437 C1432 1.425 . S
C1437 C1434 1.409 . S
C1437 C1435 1.415 . S
C1438 H1428 0.930 . S
C1438 C1436 1.419 . S
C1438 C1439 1.362 . S
C1439 H1429 0.930 . S
C1439 C1432 1.409 . S
C1439 C1438 1.362 . S
H1440 C1446 0.930 . S
H1441 C1449 0.930 . S
H1442 C1450 0.930 . S
H1443 C1451 0.930 . S
H1444 C1454 0.930 . S
H1445 C1455 0.930 . S
C1446 H1440 0.930 . S
C1446 C1447 1.355 . S
C1446 C1448 1.415 . S
C1447 C1446 1.355 . S
C1447 C1449 1.419 . S
C1448 C1446 1.415 . S
C1448 C1453 1.425 . S
C1448 C1455 1.409 . S
C1449 H1441 0.930 . S
C1449 C1447 1.419 . S
C1449 C1450 1.362 . S
C1450 H1442 0.930 . S
C1450 C1449 1.362 . S
C1450 C1453 1.409 . S
C1451 H1443 0.930 . S
C1451 C1452 1.355 . S
C1451 C1453 1.415 . S
C1452 C1451 1.355 . S
C1452 C1454 1.419 . S
C1453 C1448 1.425 . S
C1453 C1450 1.409 . S
C1453 C1451 1.415 . S
C1454 H1444 0.930 . S
C1454 C1452 1.419 . S
C1454 C1455 1.362 . S
C1455 H1445 0.930 . S
C1455 C1448 1.409 . S
C1455 C1454 1.362 . S
H1456 C1462 0.932 . S
H1457 C1465 0.930 . S
H1458 C1466 0.930 . S
H1459 C1467 0.930 . S
H1460 C1470 0.930 . S
H1461 C1471 0.930 . S
C1462 H1456 0.932 . S
C1462 C1463 1.355 . S
C1462 C1464 1.415 1_655 S
C1463 C1462 1.355 . S
C1463 C1465 1.419 . S
C1464 C1462 1.415 1_455 S
C1464 C1469 1.425 . S
C1464 C1471 1.409 . S
C1465 H1457 0.930 . S
C1465 C1463 1.419 . S
C1465 C1466 1.362 . S
C1466 H1458 0.930 . S
C1466 C1465 1.362 . S
C1466 C1469 1.409 1_655 S
C1467 H1459 0.930 . S
C1467 C1468 1.355 . S
C1467 C1469 1.415 . S
C1468 C1467 1.355 . S
C1468 C1470 1.419 . S
C1469 C1464 1.425 . S
C1469 C1466 1.409 1_455 S
C1469 C1467 1.415 . S
C1470 H1460 0.930 . S
C1470 C1468 1.419 . S
C1470 C1471 1.362 . S
C1471 H1461 0.930 . S
C1471 C1464 1.409 . S
C1471 C1470 1.362 . S
H1472 C1478 0.930 . S
H1473 C1481 0.930 . S
H1474 C1482 0.930 . S
H1475 C1483 0.930 . S
H1476 C1486 0.930 . S
H1477 C1487 0.930 . S
C1478 H1472 0.930 . S
C1478 C1479 1.355 . S
C1478 C1480 1.415 . S
C1479 C1478 1.355 . S
C1479 C1481 1.419 . S
C1480 C1478 1.415 . S
C1480 C1485 1.425 . S
C1480 C1487 1.409 . S
C1481 H1473 0.930 . S
C1481 C1479 1.419 . S
C1481 C1482 1.362 . S
C1482 H1474 0.930 . S
C1482 C1481 1.362 . S
C1482 C1485 1.409 . S
C1483 H1475 0.930 . S
C1483 C1484 1.355 . S
C1483 C1485 1.415 . S
C1484 C1483 1.355 . S
C1484 C1486 1.419 . S
C1485 C1480 1.425 . S
C1485 C1482 1.409 . S
C1485 C1483 1.415 . S
C1486 H1476 0.930 . S
C1486 C1484 1.419 . S
C1486 C1487 1.362 . S
C1487 H1477 0.930 . S
C1487 C1480 1.409 . S
C1487 C1486 1.362 . S
H1488 C1494 0.930 . S
H1489 C1497 0.930 . S
H1490 C1498 0.930 . S
H1491 C1499 0.930 . S
H1492 C1502 0.930 . S
H1493 C1503 0.930 . S
C1494 H1488 0.930 . S
C1494 C1495 1.355 . S
C1494 C1496 1.415 1_455 S
C1495 C1494 1.355 . S
C1495 C1497 1.419 . S
C1496 C1494 1.415 1_655 S
C1496 C1501 1.425 . S
C1496 C1503 1.409 . S
C1497 H1489 0.930 . S
C1497 C1495 1.419 . S
C1497 C1498 1.362 . S
C1498 H1490 0.930 . S
C1498 C1497 1.362 . S
C1498 C1501 1.409 1_455 S
C1499 H1491 0.930 . S
C1499 C1500 1.355 . S
C1499 C1501 1.415 . S
C1500 C1499 1.355 . S
C1500 C1502 1.419 . S
C1501 C1496 1.425 . S
C1501 C1498 1.409 1_655 S
C1501 C1499 1.415 . S
C1502 H1492 0.930 . S
C1502 C1500 1.419 . S
C1502 C1503 1.362 . S
C1503 H1493 0.930 . S
C1503 C1496 1.409 . S
C1503 C1502 1.362 . S
H1504 C1510 0.930 . S
H1505 C1513 0.930 . S
H1506 C1514 0.930 . S
H1507 C1515 0.930 . S
H1508 C1518 0.930 . S
H1509 C1519 0.930 . S
C1510 H1504 0.930 . S
C1510 C1511 1.355 . S
C1510 C1512 1.415 . S
C1511 C1510 1.355 . S
C1511 C1513 1.419 . S
C1512 C1510 1.415 . S
C1512 C1517 1.425 . S
C1512 C1519 1.409 . S
C1513 H1505 0.930 . S
C1513 C1511 1.419 . S
C1513 C1514 1.362 . S
C1514 H1506 0.930 . S
C1514 C1513 1.362 . S
C1514 C1517 1.409 . S
C1515 H1507 0.930 . S
C1515 C1516 1.355 . S
C1515 C1517 1.415 . S
C1516 C1515 1.355 . S
C1516 C1518 1.419 . S
C1517 C1512 1.425 . S
C1517 C1514 1.409 . S
C1517 C1515 1.415 . S
C1518 H1508 0.930 . S
C1518 C1516 1.419 . S
C1518 C1519 1.362 . S
C1519 H1509 0.930 . S
C1519 C1512 1.409 . S
C1519 C1518 1.362 . S
H1520 C1526 0.930 . S
H1521 C1529 0.930 . S
H1522 C1530 0.930 . S
H1523 C1531 0.930 . S
H1524 C1534 0.930 . S
H1525 C1535 0.930 . S
C1526 H1520 0.930 . S
C1526 C1527 1.355 . S
C1526 C1528 1.415 . S
C1527 C1526 1.355 . S
C1527 C1529 1.419 . S
C1528 C1526 1.415 . S
C1528 C1533 1.425 . S
C1528 C1535 1.409 . S
C1529 H1521 0.930 . S
C1529 C1527 1.419 . S
C1529 C1530 1.362 . S
C1530 H1522 0.930 . S
C1530 C1529 1.362 . S
C1530 C1533 1.409 . S
C1531 H1523 0.930 . S
C1531 C1532 1.355 . S
C1531 C1533 1.415 . S
C1532 C1531 1.355 . S
C1532 C1534 1.419 . S
C1533 C1528 1.425 . S
C1533 C1530 1.409 . S
C1533 C1531 1.415 . S
C1534 H1524 0.930 . S
C1534 C1532 1.419 . S
C1534 C1535 1.362 . S
C1535 H1525 0.930 . S
C1535 C1528 1.409 . S
C1535 C1534 1.362 . S
H1536 C1542 0.930 . S
H1537 C1545 0.930 . S
H1538 C1546 0.930 . S
H1539 C1547 0.930 . S
H1540 C1550 0.930 . S
H1541 C1551 0.930 . S
C1542 H1536 0.930 . S
C1542 C1543 1.355 . S
C1542 C1544 1.415 . S
C1543 C1542 1.355 . S
C1543 C1545 1.419 . S
C1544 C1542 1.415 . S
C1544 C1549 1.425 . S
C1544 C1551 1.409 . S
C1545 H1537 0.930 . S
C1545 C1543 1.419 . S
C1545 C1546 1.362 . S
C1546 H1538 0.930 . S
C1546 C1545 1.362 . S
C1546 C1549 1.409 . S
C1547 H1539 0.930 . S
C1547 C1548 1.355 . S
C1547 C1549 1.415 . S
C1548 C1547 1.355 . S
C1548 C1550 1.419 . S
C1549 C1544 1.425 . S
C1549 C1546 1.409 . S
C1549 C1547 1.415 . S
C1550 H1540 0.930 . S
C1550 C1548 1.419 . S
C1550 C1551 1.362 . S
C1551 H1541 0.930 . S
C1551 C1544 1.409 . S
C1551 C1550 1.362 . S
H1552 C1558 0.930 . S
H1553 C1561 0.930 . S
H1554 C1562 0.930 . S
H1555 C1563 0.930 . S
H1556 C1566 0.930 . S
H1557 C1567 0.930 . S
C1558 H1552 0.930 . S
C1558 C1559 1.355 . S
C1558 C1560 1.415 . S
C1559 C1558 1.355 . S
C1559 C1561 1.419 . S
C1560 C1558 1.415 . S
C1560 C1565 1.425 . S
C1560 C1567 1.409 . S
C1561 H1553 0.930 . S
C1561 C1559 1.419 . S
C1561 C1562 1.362 . S
C1562 H1554 0.930 . S
C1562 C1561 1.362 . S
C1562 C1565 1.409 . S
C1563 H1555 0.930 . S
C1563 C1564 1.355 . S
C1563 C1565 1.415 . S
C1564 C1563 1.355 . S
C1564 C1566 1.419 . S
C1565 C1560 1.425 . S
C1565 C1562 1.409 . S
C1565 C1563 1.415 . S
C1566 H1556 0.930 . S
C1566 C1564 1.419 . S
C1566 C1567 1.362 . S
C1567 H1557 0.930 . S
C1567 C1560 1.409 . S
C1567 C1566 1.362 . S
H1568 C1574 0.930 . S
H1569 C1577 0.930 . S
H1570 C1578 0.930 . S
H1571 C1579 0.930 . S
H1572 C1582 0.930 . S
H1573 C1583 0.930 . S
C1574 H1568 0.930 . S
C1574 C1575 1.355 . S
C1574 C1576 1.415 . S
C1575 C1574 1.355 . S
C1575 C1577 1.419 . S
C1576 C1574 1.415 . S
C1576 C1581 1.425 . S
C1576 C1583 1.409 . S
C1577 H1569 0.930 . S
C1577 C1575 1.419 . S
C1577 C1578 1.362 . S
C1578 H1570 0.930 . S
C1578 C1577 1.362 . S
C1578 C1581 1.409 . S
C1579 H1571 0.930 . S
C1579 C1580 1.355 . S
C1579 C1581 1.415 . S
C1580 C1579 1.355 . S
C1580 C1582 1.419 . S
C1581 C1576 1.425 . S
C1581 C1578 1.409 . S
C1581 C1579 1.415 . S
C1582 H1572 0.930 . S
C1582 C1580 1.419 . S
C1582 C1583 1.362 . S
C1583 H1573 0.930 . S
C1583 C1576 1.409 . S
C1583 C1582 1.362 . S
H1584 C1590 0.930 . S
H1585 C1593 0.930 . S
H1586 C1594 0.930 . S
H1587 C1595 0.930 1_655 S
H1588 C1598 0.930 . S
H1589 C1599 0.930 . S
C1590 H1584 0.930 . S
C1590 C1591 1.355 . S
C1590 C1592 1.415 . S
C1591 C1590 1.355 . S
C1591 C1593 1.419 . S
C1592 C1590 1.415 . S
C1592 C1597 1.425 . S
C1592 C1599 1.409 1_655 S
C1593 H1585 0.930 . S
C1593 C1591 1.419 . S
C1593 C1594 1.362 . S
C1594 H1586 0.930 . S
C1594 C1593 1.362 . S
C1594 C1597 1.409 . S
C1595 H1587 0.930 1_455 S
C1595 C1596 1.355 . S
C1595 C1597 1.415 1_455 S
C1596 C1595 1.355 . S
C1596 C1598 1.419 . S
C1597 C1592 1.425 . S
C1597 C1594 1.409 . S
C1597 C1595 1.415 1_655 S
C1598 H1588 0.930 . S
C1598 C1596 1.419 . S
C1598 C1599 1.362 . S
C1599 H1589 0.930 . S
C1599 C1592 1.409 1_455 S
C1599 C1598 1.362 . S
H1600 C1606 0.930 . S
H1601 C1609 0.930 . S
H1602 C1610 0.930 . S
H1603 C1611 0.930 . S
H1604 C1614 0.930 . S
H1605 C1615 0.930 . S
C1606 H1600 0.930 . S
C1606 C1607 1.355 . S
C1606 C1608 1.415 . S
C1607 C1606 1.355 . S
C1607 C1609 1.419 . S
C1608 C1606 1.415 . S
C1608 C1613 1.425 . S
C1608 C1615 1.409 . S
C1609 H1601 0.930 . S
C1609 C1607 1.419 . S
C1609 C1610 1.362 . S
C1610 H1602 0.930 . S
C1610 C1609 1.362 . S
C1610 C1613 1.409 . S
C1611 H1603 0.930 . S
C1611 C1612 1.355 . S
C1611 C1613 1.415 . S
C1612 C1611 1.355 . S
C1612 C1614 1.419 . S
C1613 C1608 1.425 . S
C1613 C1610 1.409 . S
C1613 C1611 1.415 . S
C1614 H1604 0.930 . S
C1614 C1612 1.419 . S
C1614 C1615 1.362 . S
C1615 H1605 0.930 . S
C1615 C1608 1.409 . S
C1615 C1614 1.362 . S
H1616 C1622 0.930 . S
H1617 C1625 0.930 . S
H1618 C1626 0.930 . S
H1619 C1627 0.930 . S
H1620 C1630 0.930 . S
H1621 C1631 0.930 . S
C1622 H1616 0.930 . S
C1622 C1623 1.355 . S
C1622 C1624 1.415 . S
C1623 C1622 1.355 . S
C1623 C1625 1.419 . S
C1624 C1622 1.415 . S
C1624 C1629 1.425 . S
C1624 C1631 1.409 . S
C1625 H1617 0.930 . S
C1625 C1623 1.419 . S
C1625 C1626 1.362 . S
C1626 H1618 0.930 . S
C1626 C1625 1.362 . S
C1626 C1629 1.409 . S
C1627 H1619 0.930 . S
C1627 C1628 1.355 . S
C1627 C1629 1.415 . S
C1628 C1627 1.355 . S
C1628 C1630 1.419 . S
C1629 C1624 1.425 . S
C1629 C1626 1.409 . S
C1629 C1627 1.415 . S
C1630 H1620 0.930 . S
C1630 C1628 1.419 . S
C1630 C1631 1.362 . S
C1631 H1621 0.930 . S
C1631 C1624 1.409 . S
C1631 C1630 1.362 . S
H1632 C1638 0.930 . S
H1633 C1641 0.930 . S
H1634 C1642 0.930 . S
H1635 C1643 0.930 . S
H1636 C1646 0.930 . S
H1637 C1647 0.930 . S
C1638 H1632 0.930 . S
C1638 C1639 1.355 . S
C1638 C1640 1.415 . S
C1639 C1638 1.355 . S
C1639 C1641 1.419 . S
C1640 C1638 1.415 . S
C1640 C1645 1.425 . S
C1640 C1647 1.409 . S
C1641 H1633 0.930 . S
C1641 C1639 1.419 . S
C1641 C1642 1.362 . S
C1642 H1634 0.930 . S
C1642 C1641 1.362 . S
C1642 C1645 1.409 . S
C1643 H1635 0.930 . S
C1643 C1644 1.355 . S
C1643 C1645 1.415 . S
C1644 C1643 1.355 . S
C1644 C1646 1.419 . S
C1645 C1640 1.425 . S
C1645 C1642 1.409 . S
C1645 C1643 1.415 . S
C1646 H1636 0.930 . S
C1646 C1644 1.419 . S
C1646 C1647 1.362 . S
C1647 H1637 0.930 . S
C1647 C1640 1.409 . S
C1647 C1646 1.362 . S
H1648 C1654 0.930 . S
H1649 C1657 0.930 . S
H1650 C1658 0.930 . S
H1651 C1659 0.930 . S
H1652 C1662 0.930 . S
H1653 C1663 0.930 . S
C1654 H1648 0.930 . S
C1654 C1655 1.355 . S
C1654 C1656 1.415 . S
C1655 C1654 1.355 . S
C1655 C1657 1.419 . S
C1656 C1654 1.415 . S
C1656 C1661 1.425 . S
C1656 C1663 1.409 . S
C1657 H1649 0.930 . S
C1657 C1655 1.419 . S
C1657 C1658 1.362 . S
C1658 H1650 0.930 . S
C1658 C1657 1.362 . S
C1658 C1661 1.409 . S
C1659 H1651 0.930 . S
C1659 C1660 1.355 . S
C1659 C1661 1.415 1_455 S
C1660 C1659 1.355 . S
C1660 C1662 1.419 . S
C1661 C1656 1.425 . S
C1661 C1658 1.409 . S
C1661 C1659 1.415 1_655 S
C1662 H1652 0.930 . S
C1662 C1660 1.419 . S
C1662 C1663 1.362 1_455 S
C1663 H1653 0.930 . S
C1663 C1656 1.409 . S
C1663 C1662 1.362 1_655 S
H1664 C1670 0.930 . S
H1665 C1673 0.930 . S
H1666 C1674 0.930 . S
H1667 C1675 0.930 . S
H1668 C1678 0.930 . S
H1669 C1679 0.930 . S
C1670 H1664 0.930 . S
C1670 C1671 1.355 . S
C1670 C1672 1.415 . S
C1671 C1670 1.355 . S
C1671 C1673 1.419 . S
C1672 C1670 1.415 . S
C1672 C1677 1.425 . S
C1672 C1679 1.409 . S
C1673 H1665 0.930 . S
C1673 C1671 1.419 . S
C1673 C1674 1.362 . S
C1674 H1666 0.930 . S
C1674 C1673 1.362 . S
C1674 C1677 1.409 . S
C1675 H1667 0.930 . S
C1675 C1676 1.355 . S
C1675 C1677 1.415 . S
C1676 C1675 1.355 . S
C1676 C1678 1.419 . S
C1677 C1672 1.425 . S
C1677 C1674 1.409 . S
C1677 C1675 1.415 . S
C1678 H1668 0.930 . S
C1678 C1676 1.419 . S
C1678 C1679 1.362 . S
C1679 H1669 0.930 . S
C1679 C1672 1.409 . S
C1679 C1678 1.362 . S
H1680 C1686 0.930 . S
H1681 C1689 0.930 . S
H1682 C1690 0.930 . S
H1683 C1691 0.939 . S
H1684 C1694 0.930 . S
H1685 C1695 0.930 . S
C1686 H1680 0.930 . S
C1686 C1687 1.355 . S
C1686 C1688 1.415 . S
C1687 C1686 1.355 . S
C1687 C1689 1.419 . S
C1688 C1686 1.415 . S
C1688 C1693 1.425 . S
C1688 C1695 1.409 1_655 S
C1689 H1681 0.930 . S
C1689 C1687 1.419 . S
C1689 C1690 1.362 . S
C1690 H1682 0.930 . S
C1690 C1689 1.362 . S
C1690 C1693 1.409 . S
C1691 H1683 0.939 . S
C1691 C1692 1.355 . S
C1691 C1693 1.415 1_455 S
C1692 C1691 1.355 . S
C1692 C1694 1.419 . S
C1693 C1688 1.425 . S
C1693 C1690 1.409 . S
C1693 C1691 1.415 1_655 S
C1694 H1684 0.930 . S
C1694 C1692 1.419 . S
C1694 C1695 1.362 . S
C1695 H1685 0.930 . S
C1695 C1688 1.409 1_455 S
C1695 C1694 1.362 . S
H1696 C1702 0.930 . S
H1697 C1705 0.930 . S
H1698 C1706 0.930 . S
H1699 C1707 0.930 . S
H1700 C1710 0.930 . S
H1701 C1711 0.930 . S
C1702 H1696 0.930 . S
C1702 C1703 1.355 . S
C1702 C1704 1.415 . S
C1703 C1702 1.355 . S
C1703 C1705 1.419 . S
C1704 C1702 1.415 . S
C1704 C1709 1.425 . S
C1704 C1711 1.409 . S
C1705 H1697 0.930 . S
C1705 C1703 1.419 . S
C1705 C1706 1.362 . S
C1706 H1698 0.930 . S
C1706 C1705 1.362 . S
C1706 C1709 1.409 . S
C1707 H1699 0.930 . S
C1707 C1708 1.355 . S
C1707 C1709 1.415 . S
C1708 C1707 1.355 . S
C1708 C1710 1.419 . S
C1709 C1704 1.425 . S
C1709 C1706 1.409 . S
C1709 C1707 1.415 . S
C1710 H1700 0.930 . S
C1710 C1708 1.419 . S
C1710 C1711 1.362 . S
C1711 H1701 0.930 . S
C1711 C1704 1.409 . S
C1711 C1710 1.362 . S
H1712 C1718 0.930 . S
H1713 C1721 0.930 . S
H1714 C1722 0.930 . S
H1715 C1723 0.930 . S
H1716 C1726 0.930 . S
H1717 C1727 0.930 . S
C1718 H1712 0.930 . S
C1718 C1719 1.355 . S
C1718 C1720 1.415 . S
C1719 C1718 1.355 . S
C1719 C1721 1.419 . S
C1720 C1718 1.415 . S
C1720 C1725 1.425 . S
C1720 C1727 1.409 . S
C1721 H1713 0.930 . S
C1721 C1719 1.419 . S
C1721 C1722 1.362 . S
C1722 H1714 0.930 . S
C1722 C1721 1.362 . S
C1722 C1725 1.409 . S
C1723 H1715 0.930 . S
C1723 C1724 1.355 . S
C1723 C1725 1.415 . S
C1724 C1723 1.355 . S
C1724 C1726 1.419 . S
C1725 C1720 1.425 . S
C1725 C1722 1.409 . S
C1725 C1723 1.415 . S
C1726 H1716 0.930 . S
C1726 C1724 1.419 . S
C1726 C1727 1.362 . S
C1727 H1717 0.930 . S
C1727 C1720 1.409 . S
C1727 C1726 1.362 . S
H1728 C1734 0.930 . S
H1729 C1737 0.930 . S
H1730 C1738 0.930 . S
H1731 C1739 0.930 . S
H1732 C1742 0.930 . S
H1733 C1743 0.930 . S
C1734 H1728 0.930 . S
C1734 C1735 1.355 . S
C1734 C1736 1.415 . S
C1735 C1734 1.355 . S
C1735 C1737 1.419 . S
C1736 C1734 1.415 . S
C1736 C1741 1.425 . S
C1736 C1743 1.409 . S
C1737 H1729 0.930 . S
C1737 C1735 1.419 . S
C1737 C1738 1.362 . S
C1738 H1730 0.930 . S
C1738 C1737 1.362 . S
C1738 C1741 1.409 . S
C1739 H1731 0.930 . S
C1739 C1740 1.355 . S
C1739 C1741 1.415 . S
C1740 C1739 1.355 . S
C1740 C1742 1.419 . S
C1741 C1736 1.425 . S
C1741 C1738 1.409 . S
C1741 C1739 1.415 . S
C1742 H1732 0.930 . S
C1742 C1740 1.419 . S
C1742 C1743 1.362 . S
C1743 H1733 0.930 . S
C1743 C1736 1.409 . S
C1743 C1742 1.362 . S
H1744 C1750 0.930 . S
H1745 C1753 0.930 . S
H1746 C1754 0.930 . S
H1747 C1755 0.930 . S
H1748 C1758 0.930 . S
H1749 C1759 0.930 . S
C1750 H1744 0.930 . S
C1750 C1751 1.355 . S
C1750 C1752 1.415 . S
C1751 C1750 1.355 . S
C1751 C1753 1.419 . S
C1752 C1750 1.415 . S
C1752 C1757 1.425 . S
C1752 C1759 1.409 . S
C1753 H1745 0.930 . S
C1753 C1751 1.419 . S
C1753 C1754 1.362 . S
C1754 H1746 0.930 . S
C1754 C1753 1.362 . S
C1754 C1757 1.409 . S
C1755 H1747 0.930 . S
C1755 C1756 1.355 . S
C1755 C1757 1.415 . S
C1756 C1755 1.355 . S
C1756 C1758 1.419 . S
C1757 C1752 1.425 . S
C1757 C1754 1.409 . S
C1757 C1755 1.415 . S
C1758 H1748 0.930 . S
C1758 C1756 1.419 . S
C1758 C1759 1.362 . S
C1759 H1749 0.930 . S
C1759 C1752 1.409 . S
C1759 C1758 1.362 . S
H1760 C1766 0.930 . S
H1761 C1769 0.930 . S
H1762 C1770 0.930 . S
H1763 C1771 0.930 . S
H1764 C1774 0.930 . S
H1765 C1775 0.930 . S
C1766 H1760 0.930 . S
C1766 C1767 1.355 . S
C1766 C1768 1.415 . S
C1767 C1766 1.355 . S
C1767 C1769 1.419 . S
C1768 C1766 1.415 . S
C1768 C1773 1.425 . S
C1768 C1775 1.409 . S
C1769 H1761 0.930 . S
C1769 C1767 1.419 . S
C1769 C1770 1.362 . S
C1770 H1762 0.930 . S
C1770 C1769 1.362 . S
C1770 C1773 1.409 . S
C1771 H1763 0.930 . S
C1771 C1772 1.355 . S
C1771 C1773 1.415 . S
C1772 C1771 1.355 . S
C1772 C1774 1.419 . S
C1773 C1768 1.425 . S
C1773 C1770 1.409 . S
C1773 C1771 1.415 . S
C1774 H1764 0.930 . S
C1774 C1772 1.419 . S
C1774 C1775 1.362 . S
C1775 H1765 0.930 . S
C1775 C1768 1.409 . S
C1775 C1774 1.362 . S
H1776 C1782 0.930 . S
H1777 C1785 0.930 . S
H1778 C1786 0.930 . S
H1779 C1787 0.930 . S
H1780 C1790 0.930 . S
H1781 C1791 0.930 . S
C1782 H1776 0.930 . S
C1782 C1783 1.355 . S
C1782 C1784 1.415 . S
C1783 C1782 1.355 . S
C1783 C1785 1.419 . S
C1784 C1782 1.415 . S
C1784 C1789 1.425 1_455 S
C1784 C1791 1.409 . S
C1785 H1777 0.930 . S
C1785 C1783 1.419 . S
C1785 C1786 1.362 1_455 S
C1786 H1778 0.930 . S
C1786 C1785 1.362 1_655 S
C1786 C1789 1.409 . S
C1787 H1779 0.930 . S
C1787 C1788 1.355 . S
C1787 C1789 1.415 . S
C1788 C1787 1.355 . S
C1788 C1790 1.415 1_655 S
C1789 C1784 1.425 1_655 S
C1789 C1786 1.409 . S
C1789 C1787 1.415 . S
C1790 H1780 0.930 . S
C1790 C1788 1.415 1_455 S
C1790 C1791 1.366 . S
C1791 H1781 0.930 . S
C1791 C1784 1.409 . S
C1791 C1790 1.366 . S
H1792 C1798 0.930 . S
H1793 C1801 0.930 . S
H1794 C1802 0.930 . S
H1795 C1803 0.930 . S
H1796 C1806 0.930 . S
H1797 C1807 0.930 . S
C1798 H1792 0.930 . S
C1798 C1799 1.355 . S
C1798 C1800 1.415 . S
C1799 C1798 1.355 . S
C1799 C1801 1.419 . S
C1800 C1798 1.415 . S
C1800 C1805 1.425 . S
C1800 C1807 1.409 . S
C1801 H1793 0.930 . S
C1801 C1799 1.419 . S
C1801 C1802 1.362 . S
C1802 H1794 0.930 . S
C1802 C1801 1.362 . S
C1802 C1805 1.409 . S
C1803 H1795 0.930 . S
C1803 C1804 1.355 . S
C1803 C1805 1.415 . S
C1804 C1803 1.355 . S
C1804 C1806 1.419 . S
C1805 C1800 1.425 . S
C1805 C1802 1.409 . S
C1805 C1803 1.415 . S
C1806 H1796 0.930 . S
C1806 C1804 1.419 . S
C1806 C1807 1.362 . S
C1807 H1797 0.930 . S
C1807 C1800 1.409 . S
C1807 C1806 1.362 . S
H1808 C1814 0.930 1_455 S
H1809 C1817 0.930 . S
H1810 C1818 0.930 . S
H1811 C1819 0.930 . S
H1812 C1822 0.930 . S
H1813 C1823 0.930 . S
C1814 H1808 0.930 1_655 S
C1814 C1815 1.355 . S
C1814 C1816 1.415 1_655 S
C1815 C1814 1.355 . S
C1815 C1817 1.419 . S
C1816 C1814 1.415 1_455 S
C1816 C1821 1.425 . S
C1816 C1823 1.409 . S
C1817 H1809 0.930 . S
C1817 C1815 1.419 . S
C1817 C1818 1.362 . S
C1818 H1810 0.930 . S
C1818 C1817 1.362 . S
C1818 C1821 1.409 1_655 S
C1819 H1811 0.930 . S
C1819 C1820 1.355 . S
C1819 C1821 1.415 . S
C1820 C1819 1.355 . S
C1820 C1822 1.419 . S
C1821 C1816 1.425 . S
C1821 C1818 1.409 1_455 S
C1821 C1819 1.415 . S
C1822 H1812 0.930 . S
C1822 C1820 1.419 . S
C1822 C1823 1.362 . S
C1823 H1813 0.930 . S
C1823 C1816 1.409 . S
C1823 C1822 1.362 . S
H1824 C1830 0.930 . S
H1825 C1833 0.930 . S
H1826 C1834 0.930 . S
H1827 C1835 0.930 . S
H1828 C1838 0.930 . S
H1829 C1839 0.930 . S
C1830 H1824 0.930 . S
C1830 C1831 1.355 . S
C1830 C1832 1.415 . S
C1831 C1830 1.355 . S
C1831 C1833 1.419 . S
C1832 C1830 1.415 . S
C1832 C1837 1.425 . S
C1832 C1839 1.409 . S
C1833 H1825 0.930 . S
C1833 C1831 1.419 . S
C1833 C1834 1.362 . S
C1834 H1826 0.930 . S
C1834 C1833 1.362 . S
C1834 C1837 1.409 . S
C1835 H1827 0.930 . S
C1835 C1836 1.355 . S
C1835 C1837 1.415 . S
C1836 C1835 1.355 . S
C1836 C1838 1.419 . S
C1837 C1832 1.425 . S
C1837 C1834 1.409 . S
C1837 C1835 1.415 . S
C1838 H1828 0.930 . S
C1838 C1836 1.419 . S
C1838 C1839 1.362 . S
C1839 H1829 0.930 . S
C1839 C1832 1.409 . S
C1839 C1838 1.362 . S
H1840 C1846 0.930 . S
H1841 C1849 0.930 . S
H1842 C1850 0.930 . S
H1843 C1851 0.930 . S
H1844 C1854 0.930 . S
H1845 C1855 0.930 . S
C1846 H1840 0.930 . S
C1846 C1847 1.355 . S
C1846 C1848 1.415 . S
C1847 C1846 1.355 . S
C1847 C1849 1.419 . S
C1848 C1846 1.415 . S
C1848 C1853 1.425 . S
C1848 C1855 1.409 . S
C1849 H1841 0.930 . S
C1849 C1847 1.419 . S
C1849 C1850 1.362 . S
C1850 H1842 0.930 . S
C1850 C1849 1.362 . S
C1850 C1853 1.409 . S
C1851 H1843 0.930 . S
C1851 C1852 1.355 . S
C1851 C1853 1.415 . S
C1852 C1851 1.355 . S
C1852 C1854 1.419 . S
C1853 C1848 1.425 . S
C1853 C1850 1.409 . S
C1853 C1851 1.415 . S
C1854 H1844 0.930 . S
C1854 C1852 1.419 . S
C1854 C1855 1.362 . S
C1855 H1845 0.930 . S
C1855 C1848 1.409 . S
C1855 C1854 1.362 . S
H1856 C1862 0.930 . S
H1857 C1865 0.930 . S
H1858 C1866 0.930 . S
H1859 C1867 0.930 . S
H1860 C1870 0.930 . S
H1861 C1871 0.930 . S
C1862 H1856 0.930 . S
C1862 C1863 1.355 . S
C1862 C1864 1.415 . S
C1863 C1862 1.355 . S
C1863 C1865 1.419 . S
C1864 C1862 1.415 . S
C1864 C1869 1.425 . S
C1864 C1871 1.409 . S
C1865 H1857 0.930 . S
C1865 C1863 1.419 . S
C1865 C1866 1.362 . S
C1866 H1858 0.930 . S
C1866 C1865 1.362 . S
C1866 C1869 1.409 . S
C1867 H1859 0.930 . S
C1867 C1868 1.355 . S
C1867 C1869 1.415 . S
C1868 C1867 1.355 . S
C1868 C1870 1.419 . S
C1869 C1864 1.425 . S
C1869 C1866 1.409 . S
C1869 C1867 1.415 . S
C1870 H1860 0.930 . S
C1870 C1868 1.419 . S
C1870 C1871 1.362 . S
C1871 H1861 0.930 . S
C1871 C1864 1.409 . S
C1871 C1870 1.362 . S
H1872 C1878 0.930 . S
H1873 C1881 0.930 . S
H1874 C1882 0.930 . S
H1875 C1883 0.930 . S
H1876 C1886 0.930 . S
H1877 C1887 0.930 . S
C1878 H1872 0.930 . S
C1878 C1879 1.355 . S
C1878 C1880 1.415 1_655 S
C1879 C1878 1.355 . S
C1879 C1881 1.419 . S
C1880 C1878 1.415 1_455 S
C1880 C1885 1.425 1_455 S
C1880 C1887 1.409 . S
C1881 H1873 0.930 . S
C1881 C1879 1.419 . S
C1881 C1882 1.362 . S
C1882 H1874 0.930 . S
C1882 C1881 1.362 . S
C1882 C1885 1.409 . S
C1883 H1875 0.930 . S
C1883 C1884 1.355 . S
C1883 C1885 1.415 1_455 S
C1884 C1883 1.355 . S
C1884 C1886 1.419 . S
C1885 C1880 1.425 1_655 S
C1885 C1882 1.409 . S
C1885 C1883 1.415 1_655 S
C1886 H1876 0.930 . S
C1886 C1884 1.419 . S
C1886 C1887 1.362 . S
C1887 H1877 0.930 . S
C1887 C1880 1.409 . S
C1887 C1886 1.362 . S
H1888 C1894 0.930 . S
H1889 C1897 0.930 . S
H1890 C1898 0.930 . S
H1891 C1899 0.930 . S
H1892 C1902 0.930 . S
H1893 C1903 0.930 . S
C1894 H1888 0.930 . S
C1894 C1895 1.355 . S
C1894 C1896 1.433 . S
C1895 C1894 1.355 . S
C1895 C1897 1.419 . S
C1896 C1894 1.433 . S
C1896 C1901 1.424 1_655 S
C1896 C1903 1.392 1_655 S
C1897 H1889 0.930 . S
C1897 C1895 1.419 . S
C1897 C1898 1.362 . S
C1898 H1890 0.930 . S
C1898 C1897 1.362 . S
C1898 C1901 1.392 1_655 S
C1899 H1891 0.930 . S
C1899 C1900 1.355 . S
C1899 C1901 1.433 . S
C1900 C1899 1.355 . S
C1900 C1902 1.419 . S
C1901 C1896 1.424 1_455 S
C1901 C1898 1.392 1_455 S
C1901 C1899 1.433 . S
C1902 H1892 0.930 . S
C1902 C1900 1.419 . S
C1902 C1903 1.362 . S
C1903 H1893 0.930 . S
C1903 C1896 1.392 1_455 S
C1903 C1902 1.362 . S
H1904 C1910 0.930 . S
H1905 C1913 0.930 . S
H1906 C1914 0.930 . S
H1907 C1915 0.930 . S
H1908 C1918 0.930 . S
H1909 C1919 0.930 . S
C1910 H1904 0.930 . S
C1910 C1911 1.355 . S
C1910 C1912 1.415 . S
C1911 C1910 1.355 . S
C1911 C1913 1.419 . S
C1912 C1910 1.415 . S
C1912 C1917 1.425 . S
C1912 C1919 1.409 . S
C1913 H1905 0.930 . S
C1913 C1911 1.419 . S
C1913 C1914 1.362 . S
C1914 H1906 0.930 . S
C1914 C1913 1.362 . S
C1914 C1917 1.409 . S
C1915 H1907 0.930 . S
C1915 C1916 1.355 . S
C1915 C1917 1.415 . S
C1916 C1915 1.355 . S
C1916 C1918 1.419 . S
C1917 C1912 1.425 . S
C1917 C1914 1.409 . S
C1917 C1915 1.415 . S
C1918 H1908 0.930 . S
C1918 C1916 1.419 . S
C1918 C1919 1.362 . S
C1919 H1909 0.930 . S
C1919 C1912 1.409 . S
C1919 C1918 1.362 . S
H1920 C1926 0.930 . S
H1921 C1929 0.930 . S
H1922 C1930 0.930 . S
H1923 C1931 0.930 . S
H1924 C1934 0.930 . S
H1925 C1935 0.930 . S
C1926 H1920 0.930 . S
C1926 C1927 1.355 . S
C1926 C1928 1.415 . S
C1927 C1926 1.355 . S
C1927 C1929 1.419 . S
C1928 C1926 1.415 . S
C1928 C1933 1.425 . S
C1928 C1935 1.409 . S
C1929 H1921 0.930 . S
C1929 C1927 1.419 . S
C1929 C1930 1.362 . S
C1930 H1922 0.930 . S
C1930 C1929 1.362 . S
C1930 C1933 1.409 . S
C1931 H1923 0.930 . S
C1931 C1932 1.355 . S
C1931 C1933 1.415 . S
C1932 C1931 1.355 . S
C1932 C1934 1.419 . S
C1933 C1928 1.425 . S
C1933 C1930 1.409 . S
C1933 C1931 1.415 . S
C1934 H1924 0.930 . S
C1934 C1932 1.419 . S
C1934 C1935 1.362 . S
C1935 H1925 0.930 . S
C1935 C1928 1.409 . S
C1935 C1934 1.362 . S
H1936 C1942 0.930 . S
H1937 C1945 0.930 . S
H1938 C1946 0.930 . S
H1939 C1947 0.930 . S
H1940 C1950 0.930 . S
H1941 C1951 0.930 . S
C1942 H1936 0.930 . S
C1942 C1943 1.355 . S
C1942 C1944 1.415 . S
C1943 C1942 1.355 . S
C1943 C1945 1.419 . S
C1944 C1942 1.415 . S
C1944 C1949 1.425 . S
C1944 C1951 1.409 . S
C1945 H1937 0.930 . S
C1945 C1943 1.419 . S
C1945 C1946 1.362 . S
C1946 H1938 0.930 . S
C1946 C1945 1.362 . S
C1946 C1949 1.409 . S
C1947 H1939 0.930 . S
C1947 C1948 1.355 . S
C1947 C1949 1.415 . S
C1948 C1947 1.355 . S
C1948 C1950 1.419 . S
C1949 C1944 1.425 . S
C1949 C1946 1.409 . S
C1949 C1947 1.415 . S
C1950 H1940 0.930 . S
C1950 C1948 1.419 . S
C1950 C1951 1.362 . S
C1951 H1941 0.930 . S
C1951 C1944 1.409 . S
C1951 C1950 1.362 . S
H1952 C1958 0.930 1_655 S
H1953 C1961 0.930 . S
H1954 C1962 0.930 . S
H1955 C1963 0.930 1_455 S
H1956 C1966 0.930 . S
H1957 C1967 0.930 . S
C1958 H1952 0.930 1_455 S
C1958 C1959 1.355 . S
C1958 C1960 1.415 1_455 S
C1959 C1958 1.355 . S
C1959 C1961 1.419 . S
C1960 C1958 1.415 1_655 S
C1960 C1965 1.425 1_655 S
C1960 C1967 1.409 . S
C1961 H1953 0.930 . S
C1961 C1959 1.419 . S
C1961 C1962 1.362 . S
C1962 H1954 0.930 . S
C1962 C1961 1.362 . S
C1962 C1965 1.409 . S
C1963 H1955 0.930 1_655 S
C1963 C1964 1.355 . S
C1963 C1965 1.415 1_655 S
C1964 C1963 1.355 . S
C1964 C1966 1.419 . S
C1965 C1960 1.425 1_455 S
C1965 C1962 1.409 . S
C1965 C1963 1.415 1_455 S
C1966 H1956 0.930 . S
C1966 C1964 1.419 . S
C1966 C1967 1.362 . S
C1967 H1957 0.930 . S
C1967 C1960 1.409 . S
C1967 C1966 1.362 . S
H1968 C1974 0.930 . S
H1969 C1977 0.930 . S
H1970 C1978 0.930 . S
H1971 C1979 0.930 . S
H1972 C1982 0.930 . S
H1973 C1983 0.930 . S
C1974 H1968 0.930 . S
C1974 C1975 1.355 . S
C1974 C1976 1.415 1_655 S
C1975 C1974 1.355 . S
C1975 C1977 1.419 . S
C1976 C1974 1.415 1_455 S
C1976 C1981 1.425 1_455 S
C1976 C1983 1.409 . S
C1977 H1969 0.930 . S
C1977 C1975 1.419 . S
C1977 C1978 1.362 . S
C1978 H1970 0.930 . S
C1978 C1977 1.362 . S
C1978 C1981 1.409 . S
C1979 H1971 0.930 . S
C1979 C1980 1.355 . S
C1979 C1981 1.415 1_455 S
C1980 C1979 1.355 . S
C1980 C1982 1.419 . S
C1981 C1976 1.425 1_655 S
C1981 C1978 1.409 . S
C1981 C1979 1.415 1_655 S
C1982 H1972 0.930 . S
C1982 C1980 1.419 . S
C1982 C1983 1.362 . S
C1983 H1973 0.930 . S
C1983 C1976 1.409 . S
C1983 C1982 1.362 . S
H1984 C1990 0.930 . S
H1985 C1993 0.930 . S
H1986 C1994 0.930 . S
H1987 C1995 0.930 . S
H1988 C1998 0.930 . S
H1989 C1999 0.930 . S
C1990 H1984 0.930 . S
C1990 C1991 1.355 . S
C1990 C1992 1.415 . S
C1991 C1990 1.355 . S
C1991 C1993 1.419 . S
C1992 C1990 1.415 . S
C1992 C1997 1.425 . S
C1992 C1999 1.409 . S
C1993 H1985 0.930 . S
C1993 C1991 1.419 . S
C1993 C1994 1.362 . S
C1994 H1986 0.930 . S
C1994 C1993 1.362 . S
C1994 C1997 1.409 . S
C1995 H1987 0.930 . S
C1995 C1996 1.355 . S
C1995 C1997 1.415 . S
C1996 C1995 1.355 . S
C1996 C1998 1.419 . S
C1997 C1992 1.425 . S
C1997 C1994 1.409 . S
C1997 C1995 1.415 . S
C1998 H1988 0.930 . S
C1998 C1996 1.419 . S
C1998 C1999 1.362 . S
C1999 H1989 0.930 . S
C1999 C1992 1.409 . S
C1999 C1998 1.362 . S
H2000 C2006 0.930 . S
H2001 C2009 0.930 . S
H2002 C2010 0.930 . S
H2003 C2011 0.930 . S
H2004 C2014 0.930 . S
H2005 C2015 0.930 . S
C2006 H2000 0.930 . S
C2006 C2007 1.355 . S
C2006 C2008 1.415 1_655 S
C2007 C2006 1.355 . S
C2007 C2009 1.419 . S
C2008 C2006 1.415 1_455 S
C2008 C2013 1.425 1_455 S
C2008 C2015 1.409 . S
C2009 H2001 0.930 . S
C2009 C2007 1.419 . S
C2009 C2010 1.362 . S
C2010 H2002 0.930 . S
C2010 C2009 1.362 . S
C2010 C2013 1.409 . S
C2011 H2003 0.930 . S
C2011 C2012 1.355 . S
C2011 C2013 1.415 1_455 S
C2012 C2011 1.355 . S
C2012 C2014 1.419 . S
C2013 C2008 1.425 1_655 S
C2013 C2010 1.409 . S
C2013 C2011 1.415 1_655 S
C2014 H2004 0.930 . S
C2014 C2012 1.419 . S
C2014 C2015 1.362 . S
C2015 H2005 0.930 . S
C2015 C2008 1.409 . S
C2015 C2014 1.362 . S
H2016 C2022 0.930 . S
H2017 C2025 0.930 . S
H2018 C2026 0.930 . S
H2019 C2027 0.930 . S
H2020 C2030 0.930 . S
H2021 C2031 0.930 . S
C2022 H2016 0.930 . S
C2022 C2023 1.355 . S
C2022 C2024 1.415 . S
C2023 C2022 1.355 . S
C2023 C2025 1.419 . S
C2024 C2022 1.415 . S
C2024 C2029 1.425 1_655 S
C2024 C2031 1.409 1_655 S
C2025 H2017 0.930 . S
C2025 C2023 1.419 . S
C2025 C2026 1.362 . S
C2026 H2018 0.930 . S
C2026 C2025 1.362 . S
C2026 C2029 1.409 1_655 S
C2027 H2019 0.930 . S
C2027 C2028 1.355 . S
C2027 C2029 1.415 . S
C2028 C2027 1.355 . S
C2028 C2030 1.419 . S
C2029 C2024 1.425 1_455 S
C2029 C2026 1.409 1_455 S
C2029 C2027 1.415 . S
C2030 H2020 0.930 . S
C2030 C2028 1.419 . S
C2030 C2031 1.362 . S
C2031 H2021 0.930 . S
C2031 C2024 1.409 1_455 S
C2031 C2030 1.362 . S
H2032 C2038 0.930 . S
H2033 C2041 0.930 . S
H2034 C2042 0.930 . S
H2035 C2043 0.930 . S
H2036 C2046 0.930 . S
H2037 C2047 0.930 . S
C2038 H2032 0.930 . S
C2038 C2039 1.355 . S
C2038 C2040 1.415 . S
C2039 C2038 1.355 . S
C2039 C2041 1.419 . S
C2040 C2038 1.415 . S
C2040 C2045 1.425 . S
C2040 C2047 1.409 . S
C2041 H2033 0.930 . S
C2041 C2039 1.419 . S
C2041 C2042 1.362 . S
C2042 H2034 0.930 . S
C2042 C2041 1.362 . S
C2042 C2045 1.409 . S
C2043 H2035 0.930 . S
C2043 C2044 1.355 . S
C2043 C2045 1.415 . S
C2044 C2043 1.355 . S
C2044 C2046 1.419 . S
C2045 C2040 1.425 . S
C2045 C2042 1.409 . S
C2045 C2043 1.415 . S
C2046 H2036 0.930 . S
C2046 C2044 1.419 . S
C2046 C2047 1.362 . S
C2047 H2037 0.930 . S
C2047 C2040 1.409 . S
C2047 C2046 1.362 . S
H2048 C2054 0.930 . S
H2049 C2057 0.930 . S
H2050 C2058 0.930 . S
H2051 C2059 0.930 . S
H2052 C2062 0.930 . S
H2053 C2063 0.930 . S
C2054 H2048 0.930 . S
C2054 C2055 1.355 . S
C2054 C2056 1.415 . S
C2055 C2054 1.355 . S
C2055 C2057 1.419 . S
C2056 C2054 1.415 . S
C2056 C2061 1.425 . S
C2056 C2063 1.409 . S
C2057 H2049 0.930 . S
C2057 C2055 1.419 . S
C2057 C2058 1.362 . S
C2058 H2050 0.930 . S
C2058 C2057 1.362 . S
C2058 C2061 1.409 . S
C2059 H2051 0.930 . S
C2059 C2060 1.355 . S
C2059 C2061 1.415 . S
C2060 C2059 1.355 . S
C2060 C2062 1.419 . S
C2061 C2056 1.425 . S
C2061 C2058 1.409 . S
C2061 C2059 1.415 . S
C2062 H2052 0.930 . S
C2062 C2060 1.419 . S
C2062 C2063 1.362 . S
C2063 H2053 0.930 . S
C2063 C2056 1.409 . S
C2063 C2062 1.362 . S
H2064 C2070 0.930 . S
H2065 C2073 0.930 . S
H2066 C2074 0.930 . S
H2067 C2075 0.930 . S
H2068 C2078 0.930 . S
H2069 C2079 0.930 . S
C2070 H2064 0.930 . S
C2070 C2071 1.355 . S
C2070 C2072 1.415 . S
C2071 C2070 1.355 . S
C2071 C2073 1.419 . S
C2072 C2070 1.415 . S
C2072 C2077 1.425 . S
C2072 C2079 1.409 . S
C2073 H2065 0.930 . S
C2073 C2071 1.419 . S
C2073 C2074 1.362 . S
C2074 H2066 0.930 . S
C2074 C2073 1.362 . S
C2074 C2077 1.409 . S
C2075 H2067 0.930 . S
C2075 C2076 1.355 . S
C2075 C2077 1.415 . S
C2076 C2075 1.355 . S
C2076 C2078 1.419 . S
C2077 C2072 1.425 . S
C2077 C2074 1.409 . S
C2077 C2075 1.415 . S
C2078 H2068 0.930 . S
C2078 C2076 1.419 . S
C2078 C2079 1.362 . S
C2079 H2069 0.930 . S
C2079 C2072 1.409 . S
C2079 C2078 1.362 . S
H2080 C2086 0.930 . S
H2081 C2089 0.930 . S
H2082 C2090 0.930 . S
H2083 C2091 0.930 . S
H2084 C2094 0.930 . S
H2085 C2095 0.930 . S
C2086 H2080 0.930 . S
C2086 C2087 1.355 . S
C2086 C2088 1.415 . S
C2087 C2086 1.355 . S
C2087 C2089 1.419 . S
C2088 C2086 1.415 . S
C2088 C2093 1.425 1_655 S
C2088 C2095 1.409 . S
C2089 H2081 0.930 . S
C2089 C2087 1.419 . S
C2089 C2090 1.362 1_655 S
C2090 H2082 0.930 . S
C2090 C2089 1.362 1_455 S
C2090 C2093 1.409 . S
C2091 H2083 0.930 . S
C2091 C2092 1.355 . S
C2091 C2093 1.415 . S
C2092 C2091 1.355 . S
C2092 C2094 1.419 . S
C2093 C2088 1.425 1_455 S
C2093 C2090 1.409 . S
C2093 C2091 1.415 . S
C2094 H2084 0.930 . S
C2094 C2092 1.419 . S
C2094 C2095 1.362 1_455 S
C2095 H2085 0.930 . S
C2095 C2088 1.409 . S
C2095 C2094 1.362 1_655 S
H2096 C2102 0.930 . S
H2097 C2105 0.930 . S
H2098 C2106 0.930 . S
H2099 C2107 0.930 . S
H2100 C2110 0.930 . S
H2101 C2111 0.930 . S
C2102 H2096 0.930 . S
C2102 C2103 1.355 . S
C2102 C2104 1.415 1_655 S
C2103 C2102 1.355 . S
C2103 C2105 1.419 . S
C2104 C2102 1.415 1_455 S
C2104 C2109 1.425 1_455 S
C2104 C2111 1.409 . S
C2105 H2097 0.930 . S
C2105 C2103 1.419 . S
C2105 C2106 1.362 . S
C2106 H2098 0.930 . S
C2106 C2105 1.362 . S
C2106 C2109 1.409 . S
C2107 H2099 0.930 . S
C2107 C2108 1.355 . S
C2107 C2109 1.415 1_455 S
C2108 C2107 1.355 . S
C2108 C2110 1.419 . S
C2109 C2104 1.425 1_655 S
C2109 C2106 1.409 . S
C2109 C2107 1.415 1_655 S
C2110 H2100 0.930 . S
C2110 C2108 1.419 . S
C2110 C2111 1.362 . S
C2111 H2101 0.930 . S
C2111 C2104 1.409 . S
C2111 C2110 1.362 . S
H2112 C2118 0.930 . S
H2113 C2121 0.930 . S
H2114 C2122 0.930 . S
H2115 C2123 0.930 . S
H2116 C2126 0.930 . S
H2117 C2127 0.930 . S
C2118 H2112 0.930 . S
C2118 C2119 1.355 . S
C2118 C2120 1.428 . S
C2119 C2118 1.355 . S
C2119 C2121 1.419 . S
C2120 C2118 1.428 . S
C2120 C2125 1.425 1_565 S
C2120 C2127 1.396 1_565 S
C2121 H2113 0.930 . S
C2121 C2119 1.419 . S
C2121 C2122 1.362 . S
C2122 H2114 0.930 . S
C2122 C2121 1.362 . S
C2122 C2125 1.396 1_565 S
C2123 H2115 0.930 . S
C2123 C2124 1.355 . S
C2123 C2125 1.428 . S
C2124 C2123 1.355 . S
C2124 C2126 1.419 . S
C2125 C2120 1.425 1_545 S
C2125 C2122 1.396 1_545 S
C2125 C2123 1.428 . S
C2126 H2116 0.930 . S
C2126 C2124 1.419 . S
C2126 C2127 1.362 . S
C2127 H2117 0.930 . S
C2127 C2120 1.396 1_545 S
C2127 C2126 1.362 . S
H2128 C2134 0.930 . S
H2129 C2137 0.930 . S
H2130 C2138 0.930 . S
H2131 C2139 0.930 . S
H2132 C2142 0.930 . S
H2133 C2143 0.930 . S
C2134 H2128 0.930 . S
C2134 C2135 1.355 . S
C2134 C2136 1.415 . S
C2135 C2134 1.355 . S
C2135 C2137 1.419 . S
C2136 C2134 1.415 . S
C2136 C2141 1.425 . S
C2136 C2143 1.409 . S
C2137 H2129 0.930 . S
C2137 C2135 1.419 . S
C2137 C2138 1.362 . S
C2138 H2130 0.930 . S
C2138 C2137 1.362 . S
C2138 C2141 1.409 . S
C2139 H2131 0.930 . S
C2139 C2140 1.355 . S
C2139 C2141 1.415 . S
C2140 C2139 1.355 . S
C2140 C2142 1.419 . S
C2141 C2136 1.425 . S
C2141 C2138 1.409 . S
C2141 C2139 1.415 . S
C2142 H2132 0.930 . S
C2142 C2140 1.419 . S
C2142 C2143 1.362 . S
C2143 H2133 0.930 . S
C2143 C2136 1.409 . S
C2143 C2142 1.362 . S
H2144 C2150 0.930 . S
H2145 C2153 0.930 . S
H2146 C2154 0.930 . S
H2147 C2155 0.930 . S
H2148 C2158 0.930 . S
H2149 C2159 0.930 . S
C2150 H2144 0.930 . S
C2150 C2151 1.355 . S
C2150 C2152 1.415 . S
C2151 C2150 1.355 . S
C2151 C2153 1.419 . S
C2152 C2150 1.415 . S
C2152 C2157 1.425 1_565 S
C2152 C2159 1.409 1_565 S
C2153 H2145 0.930 . S
C2153 C2151 1.419 . S
C2153 C2154 1.362 . S
C2154 H2146 0.930 . S
C2154 C2153 1.362 . S
C2154 C2157 1.409 1_565 S
C2155 H2147 0.930 . S
C2155 C2156 1.355 . S
C2155 C2157 1.415 . S
C2156 C2155 1.355 . S
C2156 C2158 1.419 . S
C2157 C2152 1.425 1_545 S
C2157 C2154 1.409 1_545 S
C2157 C2155 1.415 . S
C2158 H2148 0.930 . S
C2158 C2156 1.419 . S
C2158 C2159 1.362 . S
C2159 H2149 0.930 . S
C2159 C2152 1.409 1_545 S
C2159 C2158 1.362 . S
H2160 C2166 0.930 . S
H2161 C2169 0.930 . S
H2162 C2170 0.930 . S
H2163 C2171 0.930 . S
H2164 C2174 0.930 . S
H2165 C2175 0.930 . S
C2166 H2160 0.930 . S
C2166 C2167 1.355 . S
C2166 C2168 1.415 . S
C2167 C2166 1.355 . S
C2167 C2169 1.419 . S
C2168 C2166 1.415 . S
C2168 C2173 1.425 1_554 S
C2168 C2175 1.409 . S
C2169 H2161 0.930 . S
C2169 C2167 1.419 . S
C2169 C2170 1.362 1_554 S
C2170 H2162 0.930 . S
C2170 C2169 1.362 1_556 S
C2170 C2173 1.409 . S
C2171 H2163 0.930 . S
C2171 C2172 1.355 . S
C2171 C2173 1.415 . S
C2172 C2171 1.355 . S
C2172 C2174 1.419 . S
C2173 C2168 1.425 1_556 S
C2173 C2170 1.409 . S
C2173 C2171 1.415 . S
C2174 H2164 0.930 . S
C2174 C2172 1.419 . S
C2174 C2175 1.362 1_556 S
C2175 H2165 0.930 . S
C2175 C2168 1.409 . S
C2175 C2174 1.362 1_554 S
H2176 C2182 0.930 . S
H2177 C2185 0.930 . S
H2178 C2186 0.930 . S
H2179 C2187 0.930 . S
H2180 C2190 0.930 . S
H2181 C2191 0.930 . S
C2182 H2176 0.930 . S
C2182 C2183 1.355 . S
C2182 C2184 1.415 1_565 S
C2183 C2182 1.355 . S
C2183 C2185 1.419 . S
C2184 C2182 1.415 1_545 S
C2184 C2189 1.425 1_545 S
C2184 C2191 1.409 . S
C2185 H2177 0.930 . S
C2185 C2183 1.419 . S
C2185 C2186 1.362 . S
C2186 H2178 0.930 . S
C2186 C2185 1.362 . S
C2186 C2189 1.409 . S
C2187 H2179 0.930 . S
C2187 C2188 1.355 . S
C2187 C2189 1.415 1_545 S
C2188 C2187 1.355 . S
C2188 C2190 1.419 . S
C2189 C2184 1.425 1_565 S
C2189 C2186 1.409 . S
C2189 C2187 1.415 1_565 S
C2190 H2180 0.930 . S
C2190 C2188 1.419 . S
C2190 C2191 1.362 . S
C2191 H2181 0.930 . S
C2191 C2184 1.409 . S
C2191 C2190 1.362 . S
H2192 C2198 0.930 . S
H2193 C2201 0.930 . S
H2194 C2202 0.930 . S
H2195 C2203 0.930 . S
H2196 C2206 0.930 . S
H2197 C2207 0.930 . S
C2198 H2192 0.930 . S
C2198 C2199 1.355 . S
C2198 C2200 1.415 . S
C2199 C2198 1.355 . S
C2199 C2201 1.419 . S
C2200 C2198 1.415 . S
C2200 C2205 1.425 . S
C2200 C2207 1.409 . S
C2201 H2193 0.930 . S
C2201 C2199 1.419 . S
C2201 C2202 1.362 . S
C2202 H2194 0.930 . S
C2202 C2201 1.362 . S
C2202 C2205 1.409 . S
C2203 H2195 0.930 . S
C2203 C2204 1.355 . S
C2203 C2205 1.415 . S
C2204 C2203 1.355 . S
C2204 C2206 1.419 . S
C2205 C2200 1.425 . S
C2205 C2202 1.409 . S
C2205 C2203 1.415 . S
C2206 H2196 0.930 . S
C2206 C2204 1.419 . S
C2206 C2207 1.362 . S
C2207 H2197 0.930 . S
C2207 C2200 1.409 . S
C2207 C2206 1.362 . S
H2208 C2214 0.930 . S
H2209 C2217 0.930 . S
H2210 C2218 0.930 . S
H2211 C2219 0.930 . S
H2212 C2222 0.930 . S
H2213 C2223 0.930 . S
C2214 H2208 0.930 . S
C2214 C2215 1.355 . S
C2214 C2216 1.415 . S
C2215 C2214 1.355 . S
C2215 C2217 1.419 . S
C2216 C2214 1.415 . S
C2216 C2221 1.425 1_545 S
C2216 C2223 1.409 . S
C2217 H2209 0.930 . S
C2217 C2215 1.419 . S
C2217 C2218 1.362 1_545 S
C2218 H2210 0.930 . S
C2218 C2217 1.362 1_565 S
C2218 C2221 1.409 . S
C2219 H2211 0.930 . S
C2219 C2220 1.355 . S
C2219 C2221 1.415 . S
C2220 C2219 1.355 . S
C2220 C2222 1.419 . S
C2221 C2216 1.425 1_565 S
C2221 C2218 1.409 . S
C2221 C2219 1.415 . S
C2222 H2212 0.930 . S
C2222 C2220 1.419 . S
C2222 C2223 1.362 1_565 S
C2223 H2213 0.930 . S
C2223 C2216 1.409 . S
C2223 C2222 1.362 1_545 S
H2224 C2230 0.930 . S
H2225 C2233 0.930 . S
H2226 C2234 0.930 . S
H2227 C2235 0.930 . S
H2228 C2238 0.930 . S
H2229 C2239 0.930 . S
C2230 H2224 0.930 . S
C2230 C2231 1.355 . S
C2230 C2232 1.415 1_556 S
C2231 C2230 1.355 . S
C2231 C2233 1.419 . S
C2232 C2230 1.415 1_554 S
C2232 C2237 1.425 1_554 S
C2232 C2239 1.409 . S
C2233 H2225 0.930 . S
C2233 C2231 1.419 . S
C2233 C2234 1.362 . S
C2234 H2226 0.930 . S
C2234 C2233 1.362 . S
C2234 C2237 1.409 . S
C2235 H2227 0.930 . S
C2235 C2236 1.355 . S
C2235 C2237 1.415 1_554 S
C2236 C2235 1.355 . S
C2236 C2238 1.419 . S
C2237 C2232 1.425 1_556 S
C2237 C2234 1.409 . S
C2237 C2235 1.415 1_556 S
C2238 H2228 0.930 . S
C2238 C2236 1.419 . S
C2238 C2239 1.362 . S
C2239 H2229 0.930 . S
C2239 C2232 1.409 . S
C2239 C2238 1.362 . S
H2240 C2246 0.930 . S
H2241 C2249 0.930 . S
H2242 C2250 0.930 . S
H2243 C2251 0.930 . S
H2244 C2254 0.930 . S
H2245 C2255 0.930 . S
C2246 H2240 0.930 . S
C2246 C2247 1.355 . S
C2246 C2248 1.415 . S
C2247 C2246 1.355 . S
C2247 C2249 1.419 . S
C2248 C2246 1.415 . S
C2248 C2253 1.425 . S
C2248 C2255 1.409 . S
C2249 H2241 0.930 . S
C2249 C2247 1.419 . S
C2249 C2250 1.362 . S
C2250 H2242 0.930 . S
C2250 C2249 1.362 . S
C2250 C2253 1.409 . S
C2251 H2243 0.930 . S
C2251 C2252 1.355 . S
C2251 C2253 1.415 . S
C2252 C2251 1.355 . S
C2252 C2254 1.419 . S
C2253 C2248 1.425 . S
C2253 C2250 1.409 . S
C2253 C2251 1.415 . S
C2254 H2244 0.930 . S
C2254 C2252 1.419 . S
C2254 C2255 1.362 . S
C2255 H2245 0.930 . S
C2255 C2248 1.409 . S
C2255 C2254 1.362 . S
H2256 C2262 0.930 . S
H2257 C2265 0.930 . S
H2258 C2266 0.930 . S
H2259 C2267 0.930 . S
H2260 C2270 0.930 . S
H2261 C2271 0.930 . S
C2262 H2256 0.930 . S
C2262 C2263 1.355 . S
C2262 C2264 1.415 . S
C2263 C2262 1.355 . S
C2263 C2265 1.419 . S
C2264 C2262 1.415 . S
C2264 C2269 1.425 1_554 S
C2264 C2271 1.409 . S
C2265 H2257 0.930 . S
C2265 C2263 1.419 . S
C2265 C2266 1.362 1_554 S
C2266 H2258 0.930 . S
C2266 C2265 1.362 1_556 S
C2266 C2269 1.409 . S
C2267 H2259 0.930 . S
C2267 C2268 1.355 . S
C2267 C2269 1.415 . S
C2268 C2267 1.355 . S
C2268 C2270 1.419 . S
C2269 C2264 1.425 1_556 S
C2269 C2266 1.409 . S
C2269 C2267 1.415 . S
C2270 H2260 0.930 . S
C2270 C2268 1.419 . S
C2270 C2271 1.362 1_556 S
C2271 H2261 0.930 . S
C2271 C2264 1.409 . S
C2271 C2270 1.362 1_554 S
H2272 C2278 0.930 . S
H2273 C2281 0.930 . S
H2274 C2282 0.930 . S
H2275 C2283 0.930 . S
H2276 C2286 0.930 . S
H2277 C2287 0.930 . S
C2278 H2272 0.930 . S
C2278 C2279 1.355 . S
C2278 C2280 1.415 . S
C2279 C2278 1.355 . S
C2279 C2281 1.419 . S
C2280 C2278 1.415 . S
C2280 C2285 1.425 . S
C2280 C2287 1.409 . S
C2281 H2273 0.930 . S
C2281 C2279 1.419 . S
C2281 C2282 1.362 . S
C2282 H2274 0.930 . S
C2282 C2281 1.362 . S
C2282 C2285 1.409 . S
C2283 H2275 0.930 . S
C2283 C2284 1.355 . S
C2283 C2285 1.415 . S
C2284 C2283 1.355 . S
C2284 C2286 1.419 . S
C2285 C2280 1.425 . S
C2285 C2282 1.409 . S
C2285 C2283 1.415 . S
C2286 H2276 0.930 . S
C2286 C2284 1.419 . S
C2286 C2287 1.362 . S
C2287 H2277 0.930 . S
C2287 C2280 1.409 . S
C2287 C2286 1.362 . S
H2288 C2294 0.930 . S
H2289 C2297 0.930 . S
H2290 C2298 0.930 . S
H2291 C2299 0.930 . S
H2292 C2302 0.930 . S
H2293 C2303 0.930 . S
C2294 H2288 0.930 . S
C2294 C2295 1.355 . S
C2294 C2296 1.415 . S
C2295 C2294 1.355 . S
C2295 C2297 1.419 . S
C2296 C2294 1.415 . S
C2296 C2301 1.425 . S
C2296 C2303 1.409 . S
C2297 H2289 0.930 . S
C2297 C2295 1.419 . S
C2297 C2298 1.362 . S
C2298 H2290 0.930 . S
C2298 C2297 1.362 . S
C2298 C2301 1.409 . S
C2299 H2291 0.930 . S
C2299 C2300 1.355 . S
C2299 C2301 1.415 . S
C2300 C2299 1.355 . S
C2300 C2302 1.419 . S
C2301 C2296 1.425 . S
C2301 C2298 1.409 . S
C2301 C2299 1.415 . S
C2302 H2292 0.930 . S
C2302 C2300 1.419 . S
C2302 C2303 1.362 . S
C2303 H2293 0.930 . S
C2303 C2296 1.409 . S
C2303 C2302 1.362 . S
H2304 C2310 0.930 . S
H2305 C2313 0.930 . S
H2306 C2314 0.930 . S
H2307 C2315 0.930 . S
H2308 C2318 0.930 . S
H2309 C2319 0.930 . S
C2310 H2304 0.930 . S
C2310 C2311 1.355 . S
C2310 C2312 1.415 . S
C2311 C2310 1.355 . S
C2311 C2313 1.419 . S
C2312 C2310 1.415 . S
C2312 C2317 1.425 . S
C2312 C2319 1.409 . S
C2313 H2305 0.930 . S
C2313 C2311 1.419 . S
C2313 C2314 1.362 . S
C2314 H2306 0.930 . S
C2314 C2313 1.362 . S
C2314 C2317 1.409 . S
C2315 H2307 0.930 . S
C2315 C2316 1.355 . S
C2315 C2317 1.415 . S
C2316 C2315 1.355 . S
C2316 C2318 1.419 . S
C2317 C2312 1.425 . S
C2317 C2314 1.409 . S
C2317 C2315 1.415 . S
C2318 H2308 0.930 . S
C2318 C2316 1.419 . S
C2318 C2319 1.362 . S
C2319 H2309 0.930 . S
C2319 C2312 1.409 . S
C2319 C2318 1.362 . S
H2320 C2326 0.930 . S
H2321 C2329 0.930 . S
H2322 C2330 0.930 . S
H2323 C2331 0.930 . S
H2324 C2334 0.930 . S
H2325 C2335 0.930 . S
C2326 H2320 0.930 . S
C2326 C2327 1.355 . S
C2326 C2328 1.415 1_554 S
C2327 C2326 1.355 . S
C2327 C2329 1.419 . S
C2328 C2326 1.415 1_556 S
C2328 C2333 1.425 1_556 S
C2328 C2335 1.409 . S
C2329 H2321 0.930 . S
C2329 C2327 1.419 . S
C2329 C2330 1.362 . S
C2330 H2322 0.930 . S
C2330 C2329 1.362 . S
C2330 C2333 1.409 . S
C2331 H2323 0.930 . S
C2331 C2332 1.355 . S
C2331 C2333 1.415 1_556 S
C2332 C2331 1.355 . S
C2332 C2334 1.419 . S
C2333 C2328 1.425 1_554 S
C2333 C2330 1.409 . S
C2333 C2331 1.415 1_554 S
C2334 H2324 0.930 . S
C2334 C2332 1.419 . S
C2334 C2335 1.362 . S
C2335 H2325 0.930 . S
C2335 C2328 1.409 . S
C2335 C2334 1.362 . S
H2336 C2342 0.930 . S
H2337 C2345 0.930 . S
H2338 C2346 0.930 . S
H2339 C2347 0.930 . S
H2340 C2350 0.930 . S
H2341 C2351 0.930 . S
C2342 H2336 0.930 . S
C2342 C2343 1.355 . S
C2342 C2344 1.415 . S
C2343 C2342 1.355 . S
C2343 C2345 1.419 . S
C2344 C2342 1.415 . S
C2344 C2349 1.425 . S
C2344 C2351 1.409 . S
C2345 H2337 0.930 . S
C2345 C2343 1.419 . S
C2345 C2346 1.362 . S
C2346 H2338 0.930 . S
C2346 C2345 1.362 . S
C2346 C2349 1.409 . S
C2347 H2339 0.930 . S
C2347 C2348 1.355 . S
C2347 C2349 1.415 . S
C2348 C2347 1.355 . S
C2348 C2350 1.419 . S
C2349 C2344 1.425 . S
C2349 C2346 1.409 . S
C2349 C2347 1.415 . S
C2350 H2340 0.930 . S
C2350 C2348 1.419 . S
C2350 C2351 1.362 . S
C2351 H2341 0.930 . S
C2351 C2344 1.409 . S
C2351 C2350 1.362 . S
H2352 C2358 0.930 . S
H2353 C2361 0.930 . S
H2354 C2362 0.930 . S
H2355 C2363 0.930 . S
H2356 C2366 0.930 . S
H2357 C2367 0.930 . S
C2358 H2352 0.930 . S
C2358 C2359 1.355 . S
C2358 C2360 1.415 . S
C2359 C2358 1.355 . S
C2359 C2361 1.419 . S
C2360 C2358 1.415 . S
C2360 C2365 1.425 . S
C2360 C2367 1.409 . S
C2361 H2353 0.930 . S
C2361 C2359 1.419 . S
C2361 C2362 1.362 . S
C2362 H2354 0.930 . S
C2362 C2361 1.362 . S
C2362 C2365 1.409 . S
C2363 H2355 0.930 . S
C2363 C2364 1.355 . S
C2363 C2365 1.415 . S
C2364 C2363 1.355 . S
C2364 C2366 1.419 . S
C2365 C2360 1.425 . S
C2365 C2362 1.409 . S
C2365 C2363 1.415 . S
C2366 H2356 0.930 . S
C2366 C2364 1.419 . S
C2366 C2367 1.362 . S
C2367 H2357 0.930 . S
C2367 C2360 1.409 . S
C2367 C2366 1.362 . S
C1095 C9 1.381 . S
C1100 C825 1.381 . S
C1111 C315 1.378 . S
C1116 C43 1.378 . S
C1127 C893 1.311 . S
C1132 C77 1.311 . S
C1143 C111 1.359 . S
C1148 C383 1.359 . S
C1159 C961 1.289 . S
C1164 C145 1.289 . S
C1175 C451 1.265 . S
C1180 C179 1.265 . S
C1191 C213 1.359 . S
C1196 C1029 1.359 . S
C1207 C247 1.271 . S
C1212 C519 1.271 . S
C1223 C281 1.295 . S
C1228 C553 1.295 . S
C1239 C349 1.283 . S
C1244 C621 1.283 . S
C1255 C689 1.268 . S
C1260 C417 1.268 . S
C1271 C485 1.379 . S
C1276 C757 1.379 . S
C1287 C587 1.268 . S
C1292 C859 1.268 . S
C1303 C927 1.291 . S
C1308 C655 1.291 . S
C1319 C995 1.266 . S
C1324 C723 1.266 . S
C1335 C791 1.381 . S
C1340 C1063 1.381 . S
C1351 C2 1.080 . S
C1356 C855 0.995 . S
C1367 C345 1.030 . S
C1372 C36 1.064 . S
C1383 C70 1.071 . S
C1388 C923 1.063 . S
C1399 C277 0.980 . S
C1404 C104 1.094 . S
C1415 C138 1.088 . S
C1420 C1059 1.020 . S
C1431 C172 1.063 . S
C1436 C413 1.031 . S
C1447 C991 1.089 . S
C1452 C206 1.048 . S
C1463 C481 0.995 . S
C1468 C240 1.094 . S
C1479 C583 1.007 . S
C1484 C274 1.092 . S
C1495 C73 1.038 . S
C1500 C308 1.082 . S
C1511 C342 1.060 . S
C1516 C651 1.041 . S
C1527 C376 1.090 . S
C1532 C5 1.012 . S
C1543 C787 0.981 . S
C1548 C410 1.089 . S
C1559 C141 1.081 . S
C1564 C444 1.048 . S
C1575 C478 1.080 . S
C1580 C719 1.042 . S
C1591 C512 1.088 . S
C1596 C209 1.019 . S
C1607 C311 1.036 . S
C1612 C546 1.061 . S
C1623 C889 0.980 . S
C1628 C580 1.091 . S
C1639 C379 1.043 . S
C1644 C614 1.080 . S
C1655 C648 1.077 . S
C1660 C821 1.001 . S
C1671 C515 0.980 . S
C1676 C682 1.094 . S
C1687 C716 1.092 . S
C1692 C957 0.980 . S
C1703 C447 1.090 . S
C1708 C750 1.048 . S
C1719 C784 1.048 . S
C1724 C1025 1.086 . S
C1735 C39 0.981 . S
C1740 C818 1.094 . S
C1751 C617 0.996 . S
C1756 C852 1.094 . S
C1767 C107 1.009 . S
C1772 C886 1.073 . S
C1783 C920 1.056 . S
C1788 C549 1.051 . S
C1799 C954 1.078 . S
C1804 C243 1.047 . S
C1815 C685 1.023 . S
C1820 C988 1.087 . S
C1831 C175 1.084 . S
C1836 C1022 1.059 . S
C1847 C1056 1.086 . S
C1852 C753 1.027 . S
C1863 C645 1.081 . S
C1868 C33 1.108 . S
C1879 C679 1.080 . S
C1884 C67 1.108 . S
C1895 C577 1.044 . S
C1900 C101 1.084 . S
C1911 C611 1.107 . S
C1916 C135 1.086 . S
C1927 C169 1.099 . S
C1932 C781 1.099 . S
C1943 C815 1.060 . S
C1948 C203 1.104 . S
C1959 C237 1.064 . S
C1964 C713 1.047 . S
C1975 C747 1.085 . S
C1980 C271 1.107 . S
C1991 C917 1.103 . S
C1996 C305 1.058 . S
C2007 C339 1.107 . S
C2012 C951 1.083 . S
C2023 C373 1.086 . S
C2028 C849 1.045 . S
C2039 C407 1.044 . S
C2044 C883 1.081 . S
C2055 C1053 1.053 . S
C2060 C441 1.054 . S
C2071 C475 1.103 . S
C2076 C1087 1.094 . S
C2087 C509 1.108 . S
C2092 C985 1.079 . S
C2103 C543 1.105 . S
C2108 C1019 1.091 . S
C2119 C156 2.043 . S
C2124 C20 2.049 . S
C2135 C190 2.049 . S
C2140 C54 2.056 . S
C2151 C88 2.054 . S
C2156 C224 2.046 . S
C2167 C258 2.046 . S
C2172 C122 2.042 . S
C2183 C292 2.044 . S
C2188 C428 2.051 . S
C2199 C462 2.045 . S
C2204 C326 2.042 . S
C2215 C360 2.058 . S
C2220 C496 2.055 . S
C2231 C530 2.056 . S
C2236 C394 2.057 . S
C2247 C564 2.057 . S
C2252 C700 2.057 . S
C2263 C734 2.046 . S
C2268 C598 2.042 . S
C2279 C768 2.054 . S
C2284 C632 2.046 . S
C2295 C666 2.056 . S
C2300 C802 2.049 . S
C2311 C972 2.052 . S
C2316 C836 2.044 . S
C2327 C870 2.055 . S
C2332 C1006 2.057 . S
C2343 C904 2.057 . S
C2348 C1040 2.051 . S
C2359 C938 2.055 . S
C2364 C1074 2.047 . S
