# Generated by pormake.
# Topology bcg, (8)-cn, num edge types: 1
# Building blocks:
#     Node 0, Type 0, BuildingBlock: AJUNOK_clean_sbu_0, # of connection points: 8
#     Node 1, Type 0, BuildingBlock: AJUNOK_clean_sbu_0, # of connection points: 8
#     Node 2, Type 0, BuildingBlock: AJUNOK_clean_sbu_0, # of connection points: 8
#     Node 3, Type 0, BuildingBlock: AJUNOK_clean_sbu_0, # of connection points: 8
#     Edge 4, Type (0, 0), BuildingBlock: KIFKEQ_clean_linker_1, # of connection points: 2
#     Edge 5, Type (0, 0), BuildingBlock: KIFKEQ_clean_linker_1, # of connection points: 2
#     Edge 6, Type (0, 0), BuildingBlock: KIFKEQ_clean_linker_1, # of connection points: 2
#     Edge 7, Type (0, 0), BuildingBlock: KIFKEQ_clean_linker_1, # of connection points: 2
#     Edge 8, Type (0, 0), BuildingBlock: KIFKEQ_clean_linker_1, # of connection points: 2
#     Edge 9, Type (0, 0), BuildingBlock: KIFKEQ_clean_linker_1, # of connection points: 2
#     Edge 10, Type (0, 0), BuildingBlock: KIFKEQ_clean_linker_1, # of connection points: 2
#     Edge 11, Type (0, 0), BuildingBlock: KIFKEQ_clean_linker_1, # of connection points: 2
#     Edge 12, Type (0, 0), BuildingBlock: KIFKEQ_clean_linker_1, # of connection points: 2
#     Edge 13, Type (0, 0), BuildingBlock: KIFKEQ_clean_linker_1, # of connection points: 2
#     Edge 14, Type (0, 0), BuildingBlock: KIFKEQ_clean_linker_1, # of connection points: 2
#     Edge 15, Type (0, 0), BuildingBlock: KIFKEQ_clean_linker_1, # of connection points: 2
#     Edge 16, Type (0, 0), BuildingBlock: KIFKEQ_clean_linker_1, # of connection points: 2
#     Edge 17, Type (0, 0), BuildingBlock: KIFKEQ_clean_linker_1, # of connection points: 2
#     Edge 18, Type (0, 0), BuildingBlock: KIFKEQ_clean_linker_1, # of connection points: 2
#     Edge 19, Type (0, 0), BuildingBlock: KIFKEQ_clean_linker_1, # of connection points: 2
# Relax obj value: 0.150
# Max RMSD: 0.196
# Mean RMSD: 0.196
data_MOF--net-bcg--node1-AJUNOK_clean_sbu_0--edge1-KIFKEQ_clean_linker_1
_symmetry_space_group_name_H-M    P1
_symmetry_Int_Tables_number       1
_symmetry_cell_setting            triclinic
loop_
_symmetry_equiv_pos_as_xyz
'x, y, z'
_cell_length_a     17.265552
_cell_length_b     26.045489
_cell_length_c     38.571448
_cell_angle_alpha  89.751873
_cell_angle_beta   90.087373
_cell_angle_gamma 90.229628
loop_
_atom_site_label
_atom_site_type_symbol
_atom_site_fract_x
_atom_site_fract_y
_atom_site_fract_z
_atom_type_partial_charge
Cd0 Cd 0.08532 0.29844 0.01583 0.0
Cd1 Cd 0.31347 0.21895 1.01069 0.0
C2 C 0.09422 0.32459 0.0982 0.0
N3 N 0.06181 0.29121 0.07533 0.0
C4 C -0.01651 0.25422 0.12006 0.0
C5 C 0.01368 0.28939 0.14407 0.0
C6 C 0.07112 0.32418 0.13296 0.0
C7 C 0.00853 0.2558 0.08571 0.0
H8 H 0.13593 0.35272 0.08923 0.0
H9 H -0.01681 0.23004 0.06696 0.0
C10 C 0.14121 0.16013 0.02051 0.0
C11 C 0.26852 0.20726 0.93049 0.0
C12 C 0.28467 0.21275 0.89512 0.0
C13 C 0.32653 0.25591 0.88337 0.0
C14 C 0.34403 0.29489 0.90722 0.0
C15 C 0.32801 0.28745 0.94225 0.0
N16 N 0.29281 0.24359 0.9533 0.0
H17 H 0.24338 0.17186 0.9401 0.0
H18 H 0.35026 0.31466 0.96076 0.0
C19 C 0.31988 0.17994 0.09093 0.0
N20 N 0.33897 0.22032 0.07015 0.0
C21 C 0.40501 0.2617 0.1169 0.0
C22 C 0.38814 0.21996 0.13885 0.0
C23 C 0.34373 0.17906 0.12562 0.0
C24 C 0.37985 0.26103 0.08251 0.0
H25 H 0.28821 0.1477 0.08034 0.0
H26 H 0.39487 0.29242 0.06535 0.0
C27 C 0.25648 0.35454 0.02078 0.0
C28 C 0.9385 0.33591 0.99483 0.0
N29 N 0.09287 0.2681 0.95896 0.0
C30 C 0.12378 0.29946 0.93429 0.0
C31 C 0.10468 0.29254 0.89933 0.0
C32 C 0.05303 0.25304 0.88977 0.0
C33 C 0.02752 0.2188 0.91565 0.0
C34 C 0.04649 0.22784 0.95021 0.0
C35 C 0.46354 0.19245 0.98878 0.0
O36 O 0.1129 0.20518 0.01943 0.0
O37 O 0.21375 0.15368 0.01725 0.0
O38 O 0.27629 0.30804 0.01732 0.0
O39 O 0.18491 0.36514 0.02138 0.0
O40 O 0.94665 0.30332 0.01899 0.0
O41 O -0.00043 0.35525 0.9821 0.0
O42 O 0.44968 0.23051 1.00809 0.0
O43 O 0.40754 0.16284 0.98129 0.0
H44 H 0.15764 0.33253 0.94203 0.0
H45 H 0.01853 0.20522 0.97016 0.0
H46 H 0.93995 0.22629 0.12759 0.0
H47 H 0.09554 0.3522 0.15057 0.0
H48 H 0.27045 0.18147 0.87783 0.0
H49 H 0.37497 0.32924 0.89933 0.0
H50 H 0.43807 0.29435 0.12609 0.0
H51 H 0.33002 0.14588 0.1415 0.0
H52 H 0.12533 0.32036 0.88055 0.0
H53 H -0.01112 0.18723 0.90966 0.0
Cd54 Cd 0.61442 0.78802 1.0089 0.0
Cd55 Cd 0.81429 0.70856 0.0203 0.0
C56 C 0.64749 0.79486 0.09129 0.0
N57 N 0.60923 0.76588 0.06748 0.0
C58 C 0.5335 0.72612 0.11199 0.0
C59 C 0.57027 0.75651 0.13712 0.0
C60 C 0.62948 0.79032 0.12653 0.0
C61 C 0.55306 0.73201 0.07719 0.0
H62 H 0.68912 0.82333 0.08276 0.0
H63 H 0.51968 0.71185 0.05777 0.0
C64 C 0.6422 0.64865 1.01286 0.0
C65 C 0.81924 0.66825 0.94215 0.0
C66 C 0.83772 0.66979 0.90684 0.0
C67 C 0.84128 0.71729 0.88948 0.0
C68 C 0.81966 0.76165 0.90753 0.0
C69 C 0.80154 0.75835 0.94273 0.0
N70 N 0.80388 0.71235 0.95955 0.0
H71 H 0.82296 0.63237 0.95626 0.0
H72 H 0.78965 0.79304 0.95675 0.0
C73 C 0.75526 0.68793 0.09845 0.0
N74 N 0.79327 0.72399 0.07924 0.0
C75 C 0.84561 0.76207 0.13057 0.0
C76 C 0.81094 0.72358 0.15079 0.0
C77 C 0.76347 0.68697 0.13454 0.0
C78 C 0.8373 0.76095 0.09463 0.0
H79 H 0.72327 0.65768 0.08567 0.0
H80 H 0.87128 0.78713 0.07909 0.0
C81 C 0.79195 0.84667 0.01693 0.0
C82 C 0.46319 0.82866 0.01546 0.0
N83 N 0.61748 0.78246 0.94829 0.0
C84 C 0.60466 0.82674 0.93045 0.0
C85 C 0.58604 0.82535 0.89519 0.0
C86 C 0.5802 0.77785 0.87818 0.0
C87 C 0.59844 0.73303 0.89681 0.0
C88 C 0.61642 0.73617 0.93204 0.0
C89 C -0.03074 0.67386 0.02849 0.0
O90 O 0.61454 0.69364 1.0104 0.0
O91 O 0.71443 0.64213 0.01712 0.0
O92 O 0.823 0.80275 0.02006 0.0
O93 O 0.71971 0.85094 1.01138 0.0
O94 O 0.48117 0.79624 0.99257 0.0
O95 O 0.51787 0.84681 0.03357 0.0
O96 O 0.94731 0.70124 1.00329 0.0
O97 O 0.91732 0.65794 0.04897 0.0
H98 H 0.60433 0.86292 0.94413 0.0
H99 H 0.62572 0.70127 0.94655 0.0
H100 H 0.48758 0.69959 0.11896 0.0
H101 H 0.65845 0.81508 0.14498 0.0
H102 H 0.85462 0.63468 0.89401 0.0
H103 H 0.82033 0.79893 0.89497 0.0
H104 H 0.88421 0.7901 0.14213 0.0
H105 H 0.7364 0.65645 0.1494 0.0
H106 H 0.57347 0.86093 0.88173 0.0
H107 H 0.59412 0.69554 0.88492 0.0
Cd108 Cd 0.29914 0.78088 0.51091 0.0
Cd109 Cd 0.08059 0.70047 0.52367 0.0
C110 C 0.33328 0.81852 0.43374 0.0
N111 N 0.31623 0.7743 0.45098 0.0
C112 C 0.34211 0.72485 0.40022 0.0
C113 C 0.36282 0.76976 0.38208 0.0
C114 C 0.35674 0.81716 0.39912 0.0
C115 C 0.31932 0.72797 0.43489 0.0
H116 H 0.33145 0.85473 0.44736 0.0
H117 H 0.30686 0.69318 0.44915 0.0
C118 C 0.24965 0.64274 0.51477 0.0
C119 C 0.1465 0.69181 0.60195 0.0
C120 C 0.13679 0.6959 0.63787 0.0
C121 C 0.08646 0.73324 0.65133 0.0
C122 C 0.05261 0.76848 0.62821 0.0
C123 C 0.06408 0.76314 0.59266 0.0
N124 N 0.10878 0.72454 0.58024 0.0
H125 H 0.17912 0.66017 0.59139 0.0
H126 H 0.03089 0.78665 0.57495 0.0
C127 C 0.01392 0.66097 0.4525 0.0
N128 N 0.07024 0.69343 0.4637 0.0
C129 C 0.08991 0.7249 0.40602 0.0
C130 C 0.02906 0.69346 0.39387 0.0
C131 C -0.00804 0.6606 0.41773 0.0
C132 C 0.10907 0.72467 0.44133 0.0
H133 H -0.01677 0.63714 0.471 0.0
H134 H 0.15271 0.75078 0.45108 0.0
C135 C 0.12144 0.83768 0.50941 0.0
C136 C 0.44829 0.82035 0.52454 0.0
N137 N 0.30249 0.75775 0.56915 0.0
C138 C 0.26914 0.78894 0.59298 0.0
C139 C 0.28963 0.78488 0.62797 0.0
C140 C 0.34598 0.74903 0.63824 0.0
C141 C 0.37632 0.71569 0.61322 0.0
C142 C 0.35442 0.72116 0.57862 0.0
C143 C 0.92739 0.67411 0.54296 0.0
O144 O 0.27175 0.68919 0.51316 0.0
O145 O 0.17834 0.6329 0.51939 0.0
O146 O 0.09023 0.79393 0.51426 0.0
O147 O 0.19456 0.84243 0.50764 0.0
O148 O 0.436 0.7842 0.50332 0.0
O149 O 0.38967 0.84206 0.53761 0.0
O150 O 0.94364 0.7087 0.52105 0.0
O151 O -0.01719 0.64768 0.55491 0.0
H152 H 0.23052 0.81911 0.5845 0.0
H153 H 0.38318 0.6987 0.559 0.0
H154 H 0.34671 0.68746 0.38825 0.0
H155 H 0.37124 0.85276 0.38601 0.0
H156 H 0.16475 0.66826 0.65473 0.0
H157 H 0.01195 0.79707 0.6371 0.0
H158 H 0.12126 0.7503 0.38869 0.0
H159 H 0.94374 0.63645 0.41015 0.0
H160 H 0.26551 0.81178 0.64632 0.0
H161 H 0.41969 0.68743 0.62001 0.0
Cd162 Cd 0.81125 0.29397 0.52178 0.0
Cd163 Cd 0.60968 0.21437 0.51775 0.0
C164 C 0.80143 0.34329 0.44593 0.0
N165 N 0.79213 0.29681 0.46157 0.0
C166 C 0.79702 0.25449 0.40669 0.0
C167 C 0.81147 0.3016 0.39002 0.0
C168 C 0.8107 0.34663 0.41 0.0
C169 C 0.78793 0.25295 0.44262 0.0
H170 H 0.80638 0.37751 0.46158 0.0
H171 H 0.78161 0.21628 0.45527 0.0
C172 C 0.78874 0.15646 0.51498 0.0
C173 C 0.63824 0.20079 0.59965 0.0
C174 C 0.62065 0.20476 0.63493 0.0
C175 C 0.57287 0.24474 0.64636 0.0
C176 C 0.54615 0.2809 0.62219 0.0
C177 C 0.56375 0.2749 0.58721 0.0
N178 N 0.60932 0.23544 0.57659 0.0
H179 H 0.67122 0.16841 0.59038 0.0
H180 H 0.53617 0.29973 0.56846 0.0
C181 C 0.62292 0.17274 0.43929 0.0
N182 N 0.61147 0.2171 0.457 0.0
C183 C 0.57878 0.26126 0.4045 0.0
C184 C 0.58736 0.21564 0.38565 0.0
C185 C 0.61141 0.17119 0.4034 0.0
C186 C 0.59054 0.26103 0.44028 0.0
H187 H 0.63811 0.13809 0.45323 0.0
H188 H 0.57934 0.29554 0.45474 0.0
C189 C 0.64134 0.35378 0.51674 0.0
C190 C -0.03395 0.32883 0.53142 0.0
N191 N 0.78947 0.2713 0.57991 0.0
C192 C 0.75969 0.30772 0.60125 0.0
C193 C 0.77058 0.30417 0.63716 0.0
C194 C 0.81217 0.26264 0.65104 0.0
C195 C 0.83803 0.22418 0.62867 0.0
C196 C 0.82756 0.22981 0.59304 0.0
C197 C 0.45792 0.17505 0.52592 0.0
O198 O 0.82226 0.20002 0.51569 0.0
O199 O 0.71547 0.15269 0.51683 0.0
O200 O 0.61564 0.3081 0.51616 0.0
O201 O 0.71344 0.36191 0.52031 0.0
O202 O 0.94494 0.3031 0.50535 0.0
O203 O 0.91331 0.34339 0.55177 0.0
O204 O 0.47541 0.20862 0.50345 0.0
O205 O 0.51299 0.15543 0.54307 0.0
H206 H 0.7329 0.34154 0.59027 0.0
H207 H 0.85605 0.20313 0.5761 0.0
H208 H 0.79772 0.21869 0.39254 0.0
H209 H 0.82052 0.3839 0.39823 0.0
H210 H 0.64177 0.17593 0.65288 0.0
H211 H 0.50733 0.31135 0.6299 0.0
H212 H 0.55905 0.29621 0.39208 0.0
H213 H 0.61932 0.13527 0.38985 0.0
H214 H 0.75033 0.33479 0.65371 0.0
H215 H 0.87206 0.1923 0.63833 0.0
H216 H 0.60161 0.15956 1.01295 0.0
H217 H 0.48908 0.22988 0.92503 0.0
H218 H 0.72188 0.20371 0.99791 0.0
H219 H 0.60857 0.27644 0.91102 0.0
H220 H 0.91419 0.30788 0.92865 0.0
H221 H 0.79651 0.26192 0.91101 0.0
H222 H 0.67991 0.3175 1.00216 0.0
H223 H 0.79832 0.36073 0.02076 0.0
C224 C 0.60416 0.18174 0.98914 0.0
C225 C 0.5368 0.19173 0.97019 0.0
C226 C 0.67244 0.20748 0.98074 0.0
C227 C 0.67294 0.2442 0.95394 0.0
C228 C 0.60902 0.24832 0.9318 0.0
C229 C 0.5411 0.2214 0.9397 0.0
C230 C 0.86191 0.31276 0.94376 0.0
C231 C 0.86487 0.33705 0.97626 0.0
C232 C 0.79509 0.28612 0.93377 0.0
C233 C 0.73084 0.28545 0.95581 0.0
C234 C 0.72977 0.31727 0.98511 0.0
C235 C 0.79694 0.3425 0.99556 0.0
H236 H 0.0257 0.7063 0.08982 0.0
H237 H 0.09357 0.65277 0.98867 0.0
H238 H 0.14555 0.75628 0.09399 0.0
H239 H 0.21458 0.7006 0.99338 0.0
H240 H 0.33477 0.8426 0.97648 0.0
H241 H 0.21422 0.79711 0.98845 0.0
H242 H 0.29387 0.76308 0.09222 0.0
H243 H 0.41311 0.81099 0.08065 0.0
C244 C 0.06862 0.70258 0.0695 0.0
C245 C 0.05057 0.67654 0.03865 0.0
C246 C 0.13648 0.73186 0.07167 0.0
C247 C 0.18681 0.73424 0.0432 0.0
C248 C 0.17463 0.70109 0.01502 0.0
C249 C 0.10649 0.67271 1.01262 0.0
C250 C 0.32436 0.82815 1.00245 0.0
C251 C 0.3831 0.82942 0.02744 0.0
C252 C 0.25643 0.80103 1.0091 0.0
C253 C 0.24727 0.77426 0.04058 0.0
C254 C 0.30055 0.78244 0.06749 0.0
C255 C 0.36815 0.81056 0.061 0.0
H256 H 0.48256 0.80701 0.59218 0.0
H257 H 0.58454 0.83595 0.49191 0.0
H258 H 0.59982 0.76141 0.61038 0.0
H259 H 0.7024 0.79265 0.51054 0.0
H260 H 0.79404 0.64032 0.51456 0.0
H261 H 0.67382 0.68769 0.52206 0.0
H262 H 0.77064 0.76484 0.61099 0.0
H263 H 0.89023 0.71556 0.60427 0.0
C264 C 0.53206 0.80674 0.57494 0.0
C265 C 0.52475 0.82392 0.54045 0.0
C266 C 0.59847 0.7801 0.58525 0.0
C267 C 0.65784 0.77202 0.56123 0.0
C268 C 0.6558 0.79742 0.52904 0.0
C269 C 0.58919 0.82298 0.51857 0.0
C270 C 0.78749 0.66447 0.53717 0.0
C271 C 0.85084 0.67481 0.55867 0.0
C272 C 0.71949 0.69227 0.54113 0.0
C273 C 0.71512 0.73109 0.56624 0.0
C274 C 0.77355 0.73546 0.59125 0.0
C275 C 0.84133 0.70679 0.58763 0.0
H276 H 0.01829 0.29823 0.59421 0.0
H277 H 0.09344 0.34672 0.49252 0.0
H278 H 0.13725 0.24848 0.60134 0.0
H279 H 0.21327 0.29894 0.50013 0.0
H280 H 0.32931 0.15572 0.48822 0.0
H281 H 0.20822 0.20063 0.49877 0.0
H282 H 0.28918 0.24391 0.60056 0.0
H283 H 0.40925 0.19675 0.59046 0.0
C284 C 0.06245 0.30085 0.57432 0.0
C285 C 0.04677 0.32539 0.54253 0.0
C286 C 0.12981 0.27174 0.57823 0.0
C287 C 0.18189 0.26798 0.55052 0.0
C288 C 0.17195 0.29962 0.52124 0.0
C289 C 0.10441 0.32788 0.51714 0.0
C290 C 0.31905 0.17198 0.51362 0.0
C291 C 0.37828 0.17353 0.53834 0.0
C292 C 0.25077 0.19868 0.51941 0.0
C293 C 0.24184 0.22786 0.54971 0.0
C294 C 0.2957 0.22254 0.57671 0.0
C295 C 0.36372 0.19486 0.57112 0.0
H296 H 0.67018 0.55069 0.03569 0.0
H297 H 0.49218 0.64595 0.99049 0.0
H298 H 0.57864 0.47935 0.03949 0.0
H299 H 0.40165 0.5743 0.99281 0.0
H300 H 0.23259 0.45646 0.03277 0.0
H301 H 0.32688 0.52591 0.0316 0.0
H302 H 0.50801 0.41716 1.00852 0.0
H303 H 0.41405 0.34735 1.01155 0.0
C304 C 0.61179 0.55616 0.02609 0.0
C305 C 0.58848 0.60405 1.01289 0.0
C306 C 0.55921 0.51515 0.02816 0.0
C307 C 0.48219 0.52085 0.01669 0.0
C308 C 0.4597 0.56857 1.00271 0.0
C309 C 0.51193 0.60967 1.00107 0.0
C310 C 0.29261 0.44727 0.02766 0.0
C311 C 0.31537 0.39628 0.02187 0.0
C312 C 0.3468 0.48727 0.02664 0.0
C313 C 0.42529 0.47757 0.01941 0.0
C314 C 0.44837 0.42632 1.01441 0.0
C315 C 0.3942 0.38617 0.01587 0.0
H316 H 0.66709 0.45554 0.53132 0.0
H317 H 0.48941 0.3499 0.49731 0.0
H318 H 0.5732 0.52534 0.53032 0.0
H319 H 0.39664 0.41966 0.49484 0.0
H320 H 0.22772 0.54136 0.53064 0.0
H321 H 0.32313 0.47295 0.53075 0.0
H322 H 0.49765 0.58008 0.49485 0.0
H323 H 0.40256 0.64899 0.49614 0.0
C324 C 0.60825 0.44733 0.52324 0.0
C325 C 0.58581 0.39707 0.51457 0.0
C326 C 0.55434 0.48744 0.52246 0.0
C327 C 0.47683 0.47836 0.51265 0.0
C328 C 0.45512 0.42815 0.50328 0.0
C329 C 0.50866 0.38806 0.50444 0.0
C330 C 0.28638 0.55031 0.52265 0.0
C331 C 0.30734 0.60068 0.51336 0.0
C332 C 0.34123 0.51093 0.52251 0.0
C333 C 0.41847 0.52066 0.51268 0.0
C334 C 0.43921 0.5711 0.50309 0.0
C335 C 0.38444 0.61063 0.50356 0.0
H336 H -0.01627 0.15756 0.03091 0.0
H337 H 0.18051 0.05935 1.01305 0.0
H338 H 0.89901 0.08268 0.03241 0.0
H339 H 0.09569 0.98495 1.01237 0.0
H340 H 0.93908 0.85403 0.04261 0.0
H341 H 0.021 0.9298 0.04607 0.0
H342 H 0.84092 0.02005 0.99747 0.0
H343 H 0.75741 0.94448 0.99577 0.0
C344 C 0.00904 0.12004 0.02742 0.0
C345 C 0.0892 0.11461 0.02228 0.0
C346 C -0.03979 0.07698 0.02781 0.0
C347 C -0.00989 0.02739 0.02251 0.0
C348 C 0.07037 0.02216 0.01731 0.0
C349 C 0.11921 0.06506 0.01745 0.0
C350 C 0.91673 0.8901 0.03283 0.0
C351 C 0.84154 0.89318 0.01897 0.0
C352 C -0.03592 0.93365 0.03456 0.0
C353 C 0.93813 0.98137 0.02189 0.0
C354 C 0.86271 0.98435 1.00805 0.0
C355 C 0.81484 0.94088 1.00684 0.0
H356 H 0.93692 0.14832 0.49104 0.0
H357 H 0.74805 0.05842 0.53288 0.0
H358 H 0.01556 0.07131 0.48691 0.0
H359 H 0.82781 0.98167 0.53057 0.0
H360 H -0.03442 0.84333 0.49646 0.0
H361 H 0.88485 0.91991 0.49532 0.0
H362 H 0.08524 0.01308 0.5201 0.0
H363 H 0.166 0.93704 0.51935 0.0
C364 C 0.91243 0.11208 0.49964 0.0
C365 C 0.83627 0.10946 0.51232 0.0
C366 C -0.04227 0.06784 0.49749 0.0
C367 C 0.92855 0.01992 0.50856 0.0
C368 C 0.8521 0.01749 0.52118 0.0
C369 C 0.80636 0.06162 0.52275 0.0
C370 C -0.00768 0.8803 0.5014 0.0
C371 C 0.07226 0.88412 0.50787 0.0
C372 C 0.94592 0.92427 0.50103 0.0
C373 C -0.02186 0.97305 0.50768 0.0
C374 C 0.05827 0.97658 0.51411 0.0
C375 C 0.10474 0.9328 0.51391 0.0
H376 H 0.61631 0.28737 0.335 0.0
H377 H 0.50595 0.14032 0.35224 0.0
H378 H 0.56882 0.28785 0.27543 0.0
H379 H 0.46072 0.13999 0.29238 0.0
H380 H 0.31456 0.18737 0.19799 0.0
H381 H 0.36616 0.18481 0.25691 0.0
H382 H 0.58403 0.24588 0.21991 0.0
H383 H 0.53243 0.24856 0.16112 0.0
C384 C 0.58248 0.25495 0.32599 0.0
C385 C 0.56503 0.2138 0.34841 0.0
C386 C 0.55575 0.25502 0.29175 0.0
C387 C 0.51059 0.21405 0.27914 0.0
C388 C 0.49446 0.17246 0.30137 0.0
C389 C 0.5214 0.17231 0.33556 0.0
C390 C 0.37363 0.1999 0.20241 0.0
C391 C 0.41918 0.21838 0.17485 0.0
C392 C 0.4033 0.19836 0.23617 0.0
C393 C 0.4793 0.21514 0.24316 0.0
C394 C 0.5249 0.23343 0.21556 0.0
C395 C 0.49523 0.23502 0.18184 0.0
H396 H 0.42024 0.75406 0.15905 0.0
H397 H 0.6554 0.75963 0.1973 0.0
H398 H 0.37186 0.75576 0.21813 0.0
H399 H 0.60674 0.76143 0.25682 0.0
H400 H 0.48534 0.82291 0.35459 0.0
H401 H 0.53674 0.81834 0.29584 0.0
H402 H 0.3646 0.70375 0.27018 0.0
H403 H 0.31144 0.7097 0.32857 0.0
C404 C 0.46175 0.7548 0.18013 0.0
C405 C 0.54181 0.75622 0.17346 0.0
C406 C 0.43392 0.75586 0.21406 0.0
C407 C 0.48533 0.7585 0.24226 0.0
C408 C 0.56551 0.75994 0.23566 0.0
C409 C 0.59345 0.75885 0.2016 0.0
C410 C 0.45789 0.79716 0.33629 0.0
C411 C 0.39388 0.76694 0.3462 0.0
C412 C 0.48809 0.79402 0.30275 0.0
C413 C 0.45489 0.76065 0.27829 0.0
C414 C 0.39109 0.73025 0.28827 0.0
C415 C 0.361 0.73331 0.32182 0.0
H416 H 0.49815 0.74236 0.65652 0.0
H417 H 0.26961 0.7597 0.70022 0.0
H418 H 0.555 0.74905 0.71395 0.0
H419 H 0.32665 0.76597 0.75812 0.0
H420 H 0.45998 0.83209 0.85013 0.0
H421 H 0.40351 0.82389 0.79256 0.0
H422 H 0.56861 0.70514 0.76824 0.0
H423 H 0.62748 0.7151 0.82533 0.0
C424 C 0.45986 0.74666 0.67851 0.0
C425 C 0.37924 0.75016 0.6738 0.0
C426 C 0.49256 0.75057 0.71151 0.0
C427 C 0.44555 0.75805 0.74075 0.0
C428 C 0.36473 0.76101 0.73612 0.0
C429 C 0.33195 0.75724 0.70299 0.0
C430 C 0.48523 0.80489 0.83229 0.0
C431 C 0.54868 0.77449 0.84231 0.0
C432 C 0.45192 0.79956 0.79945 0.0
C433 C 0.48107 0.76362 0.77577 0.0
C434 C 0.54501 0.73353 0.78568 0.0
C435 C 0.57842 0.73892 0.81853 0.0
H436 H 0.26283 0.22185 0.822 0.0
H437 H 0.47 0.29117 0.86462 0.0
H438 H 0.32517 0.21843 0.7651 0.0
H439 H 0.53031 0.28931 0.8078 0.0
H440 H 0.5725 0.32575 0.69096 0.0
H441 H 0.51101 0.32991 0.7481 0.0
H442 H 0.44195 0.171 0.73908 0.0
H443 H 0.50371 0.16687 0.68206 0.0
C444 C 0.32127 0.23658 0.81929 0.0
C445 C 0.36087 0.25723 0.84795 0.0
C446 C 0.35691 0.23461 0.78672 0.0
C447 C 0.43252 0.25368 0.78209 0.0
C448 C 0.47162 0.27499 0.81051 0.0
C449 C 0.43655 0.2764 0.84306 0.0
C450 C 0.54482 0.29166 0.70144 0.0
C451 C 0.54325 0.24591 0.68233 0.0
C452 C 0.50971 0.294 0.73404 0.0
C453 C 0.47124 0.25086 0.74785 0.0
C454 C 0.47047 0.20495 0.72887 0.0
C455 C 0.50663 0.2024 0.69652 0.0
H456 H -0.03186 0.61635 0.3535 0.0
H457 H 0.02445 0.77825 0.35093 0.0
H458 H 0.90818 0.62366 0.29702 0.0
H459 H -0.02868 0.78441 0.2928 0.0
H460 H 0.80508 0.79495 0.20245 0.0
H461 H 0.85682 0.78707 0.26122 0.0
H462 H 0.92936 0.63189 0.2386 0.0
H463 H 0.87331 0.63928 0.18098 0.0
C464 C -0.03164 0.65355 0.34087 0.0
C465 C 0.00069 0.69679 0.3573 0.0
C466 C 0.93486 0.65758 0.308 0.0
C467 C 0.93425 0.70472 0.29005 0.0
C468 C -0.03109 0.74764 0.30595 0.0
C469 C 0.00108 0.74384 0.33919 0.0
C470 C 0.83092 0.75898 0.21051 0.0
C471 C 0.83434 0.7175 0.18749 0.0
C472 C 0.86158 0.75454 0.244 0.0
C473 C 0.89808 0.70889 0.2549 0.0
C474 C 0.90051 0.66731 0.2317 0.0
C475 C 0.86839 0.67144 0.19855 0.0
H476 H 0.92365 0.36143 0.36011 0.0
H477 H 0.7552 0.24362 0.33608 0.0
H478 H -0.03028 0.35966 0.30066 0.0
H479 H 0.80377 0.24022 0.27684 0.0
H480 H 0.86251 0.28257 0.16456 0.0
H481 H 0.81079 0.28715 0.22318 0.0
H482 H 0.04302 0.3048 0.26351 0.0
H483 H 0.09456 0.30084 0.20473 0.0
C484 C 0.89562 0.33559 0.34205 0.0
C485 C 0.83516 0.30295 0.35292 0.0
C486 C 0.92306 0.33395 0.30804 0.0
C487 C 0.89105 0.29947 0.28397 0.0
C488 C 0.82948 0.26753 0.29459 0.0
C489 C 0.80194 0.26922 0.32866 0.0
C490 C 0.9026 0.28694 0.18598 0.0
C491 C -0.01728 0.29122 0.17999 0.0
C492 C 0.87291 0.28957 0.21961 0.0
C493 C 0.92262 0.29643 0.24812 0.0
C494 C 0.00285 0.30043 0.24212 0.0
C495 C 0.03251 0.29803 0.20845 0.0
H496 H 0.90443 0.22645 0.87184 0.0
H497 H 0.12129 0.27738 0.82704 0.0
H498 H 0.84465 0.22793 0.81488 0.0
H499 H 0.05939 0.28096 0.77 0.0
H500 H 0.88883 0.33885 0.6848 0.0
H501 H 0.9489 0.33485 0.74229 0.0
H502 H 0.85866 0.18138 0.75645 0.0
H503 H 0.79914 0.18528 0.69873 0.0
C504 C 0.94004 0.23714 0.84989 0.0
C505 C 0.01834 0.25133 0.85428 0.0
C506 C 0.90524 0.23837 0.81721 0.0
C507 C 0.94722 0.25471 0.78808 0.0
C508 C 0.02543 0.26874 0.79216 0.0
C509 C 0.06079 0.26675 0.82486 0.0
C510 C 0.88071 0.30467 0.7005 0.0
C511 C 0.83879 0.26254 0.68756 0.0
C512 C 0.91594 0.30212 0.73313 0.0
C513 C 0.90892 0.25767 0.75366 0.0
C514 C 0.86487 0.21614 0.74117 0.0
C515 C 0.83074 0.21837 0.70827 0.0
H516 H 0.05637 0.64829 0.69133 0.0
H517 H 0.05483 0.81409 0.69453 0.0
H518 H -0.00102 0.64503 0.74883 0.0
H519 H -0.00686 0.81084 0.75118 0.0
H520 H 0.94771 0.7871 0.86656 0.0
H521 H 0.01182 0.79078 0.81053 0.0
H522 H 0.87752 0.65994 0.77644 0.0
H523 H 0.81446 0.65573 0.83306 0.0
C524 C 0.04489 0.68412 0.70445 0.0
C525 C 0.06052 0.7315 0.68818 0.0
C526 C 0.01045 0.68222 0.73724 0.0
C527 C -0.00968 0.72763 0.7546 0.0
C528 C 0.00817 0.77502 0.73879 0.0
C529 C 0.04306 0.77692 0.7061 0.0
C530 C 0.93101 0.75955 0.84694 0.0
C531 C 0.87561 0.72127 0.85421 0.0
C532 C -0.03206 0.76161 0.81475 0.0
C533 C 0.9502 0.72561 0.78884 0.0
C534 C 0.89385 0.68772 0.79595 0.0
C535 C 0.85726 0.68545 0.82832 0.0
loop_
_geom_bond_atom_site_label_1
_geom_bond_atom_site_label_2
_geom_bond_distance
_geom_bond_site_symmetry_2
_ccdc_geom_bond_type
Cd0 N3 2.334 . S
Cd0 N29 2.304 1_554 S
Cd0 O36 2.268 . S
Cd0 O39 2.273 . S
Cd0 O40 2.417 1_455 S
Cd0 O41 2.330 . S
Cd1 N16 2.304 1_554 S
Cd1 N20 2.334 . S
Cd1 O37 2.273 . S
Cd1 O38 2.268 . S
Cd1 O42 2.417 . S
Cd1 O43 2.330 . S
C2 N3 1.332 . S
C2 C6 1.381 . S
C2 H8 0.931 . S
N3 Cd0 2.334 . S
N3 C2 1.332 . S
N3 C7 1.328 . S
C4 C5 1.396 . S
C4 C7 1.378 . S
C4 H46 0.931 . S
C5 C4 1.396 . S
C5 C6 1.382 . S
C6 C2 1.381 . S
C6 C5 1.382 . S
C6 H47 0.930 . S
C7 N3 1.328 . S
C7 C4 1.378 . S
C7 H9 0.930 . S
H8 C2 0.931 . S
H9 C7 0.930 . S
C10 O36 1.238 . S
C10 O37 1.253 . S
C11 C12 1.379 . S
C11 N16 1.337 . S
C11 H17 0.929 . S
C12 C11 1.379 . S
C12 C13 1.380 . S
C12 H48 0.929 . S
C13 C12 1.380 . S
C13 C14 1.399 . S
C14 C13 1.399 . S
C14 C15 1.376 . S
C14 H49 0.931 . S
C15 C14 1.376 . S
C15 N16 1.338 . S
C15 H18 0.930 . S
N16 Cd1 2.304 1_556 S
N16 C11 1.337 . S
N16 C15 1.338 . S
H17 C11 0.929 . S
H18 C15 0.930 . S
C19 N20 1.332 . S
C19 C23 1.381 . S
C19 H25 0.931 . S
N20 Cd1 2.334 . S
N20 C19 1.332 . S
N20 C24 1.328 . S
C21 C22 1.396 . S
C21 C24 1.378 . S
C21 H50 0.931 . S
C22 C21 1.396 . S
C22 C23 1.382 . S
C23 C19 1.381 . S
C23 C22 1.382 . S
C23 H51 0.930 . S
C24 N20 1.328 . S
C24 C21 1.378 . S
C24 H26 0.930 . S
H25 C19 0.931 . S
H26 C24 0.930 . S
C27 O38 1.238 . S
C27 O39 1.253 . S
C28 O40 1.239 . S
C28 O41 1.230 1_655 S
N29 Cd0 2.304 1_556 S
N29 C30 1.337 . S
N29 C34 1.338 . S
C30 N29 1.337 . S
C30 C31 1.379 . S
C30 H44 0.929 . S
C31 C30 1.379 . S
C31 C32 1.380 . S
C31 H52 0.929 . S
C32 C31 1.380 . S
C32 C33 1.399 . S
C33 C32 1.399 . S
C33 C34 1.376 . S
C33 H53 0.931 . S
C34 N29 1.338 . S
C34 C33 1.376 . S
C34 H45 0.930 . S
C35 O42 1.239 . S
C35 O43 1.230 . S
O36 Cd0 2.268 . S
O36 C10 1.238 . S
O37 Cd1 2.273 . S
O37 C10 1.253 . S
O38 Cd1 2.268 . S
O38 C27 1.238 . S
O39 Cd0 2.273 . S
O39 C27 1.253 . S
O40 Cd0 2.417 1_655 S
O40 C28 1.239 . S
O41 Cd0 2.330 . S
O41 C28 1.230 1_455 S
O42 Cd1 2.417 . S
O42 C35 1.239 . S
O43 Cd1 2.330 . S
O43 C35 1.230 . S
H44 C30 0.929 . S
H45 C34 0.930 . S
H46 C4 0.931 . S
H47 C6 0.930 . S
H48 C12 0.929 . S
H49 C14 0.931 . S
H50 C21 0.931 . S
H51 C23 0.930 . S
H52 C31 0.929 . S
H53 C33 0.931 . S
Cd54 N57 2.334 . S
Cd54 N83 2.304 1_554 S
Cd54 O90 2.268 . S
Cd54 O93 2.273 . S
Cd54 O94 2.417 . S
Cd54 O95 2.330 . S
Cd55 N70 2.304 1_554 S
Cd55 N74 2.334 . S
Cd55 O91 2.273 . S
Cd55 O92 2.268 . S
Cd55 O96 2.417 1_655 S
Cd55 O97 2.330 . S
C56 N57 1.332 . S
C56 C60 1.381 . S
C56 H62 0.931 . S
N57 Cd54 2.334 . S
N57 C56 1.332 . S
N57 C61 1.328 . S
C58 C59 1.396 . S
C58 C61 1.378 . S
C58 H100 0.931 . S
C59 C58 1.396 . S
C59 C60 1.382 . S
C60 C56 1.381 . S
C60 C59 1.382 . S
C60 H101 0.930 . S
C61 N57 1.328 . S
C61 C58 1.378 . S
C61 H63 0.930 . S
H62 C56 0.931 . S
H63 C61 0.930 . S
C64 O90 1.238 . S
C64 O91 1.253 . S
C65 C66 1.379 . S
C65 N70 1.337 . S
C65 H71 0.929 . S
C66 C65 1.379 . S
C66 C67 1.380 . S
C66 H102 0.929 . S
C67 C66 1.380 . S
C67 C68 1.399 . S
C68 C67 1.399 . S
C68 C69 1.376 . S
C68 H103 0.931 . S
C69 C68 1.376 . S
C69 N70 1.338 . S
C69 H72 0.930 . S
N70 Cd55 2.304 1_556 S
N70 C65 1.337 . S
N70 C69 1.338 . S
H71 C65 0.929 . S
H72 C69 0.930 . S
C73 N74 1.332 . S
C73 C77 1.381 . S
C73 H79 0.931 . S
N74 Cd55 2.334 . S
N74 C73 1.332 . S
N74 C78 1.328 . S
C75 C76 1.396 . S
C75 C78 1.378 . S
C75 H104 0.931 . S
C76 C75 1.396 . S
C76 C77 1.382 . S
C77 C73 1.381 . S
C77 C76 1.382 . S
C77 H105 0.930 . S
C78 N74 1.328 . S
C78 C75 1.378 . S
C78 H80 0.930 . S
H79 C73 0.931 . S
H80 C78 0.930 . S
C81 O92 1.238 . S
C81 O93 1.253 . S
C82 O94 1.239 . S
C82 O95 1.230 . S
N83 Cd54 2.304 1_556 S
N83 C84 1.337 . S
N83 C88 1.338 . S
C84 N83 1.337 . S
C84 C85 1.379 . S
C84 H98 0.929 . S
C85 C84 1.379 . S
C85 C86 1.380 . S
C85 H106 0.929 . S
C86 C85 1.380 . S
C86 C87 1.399 . S
C87 C86 1.399 . S
C87 C88 1.376 . S
C87 H107 0.931 . S
C88 N83 1.338 . S
C88 C87 1.376 . S
C88 H99 0.930 . S
C89 O96 1.239 . S
C89 O97 1.230 1_455 S
O90 Cd54 2.268 . S
O90 C64 1.238 . S
O91 Cd55 2.273 . S
O91 C64 1.253 . S
O92 Cd55 2.268 . S
O92 C81 1.238 . S
O93 Cd54 2.273 . S
O93 C81 1.253 . S
O94 Cd54 2.417 . S
O94 C82 1.239 . S
O95 Cd54 2.330 . S
O95 C82 1.230 . S
O96 Cd55 2.417 1_455 S
O96 C89 1.239 . S
O97 Cd55 2.330 . S
O97 C89 1.230 1_655 S
H98 C84 0.929 . S
H99 C88 0.930 . S
H100 C58 0.931 . S
H101 C60 0.930 . S
H102 C66 0.929 . S
H103 C68 0.931 . S
H104 C75 0.931 . S
H105 C77 0.930 . S
H106 C85 0.929 . S
H107 C87 0.931 . S
Cd108 N111 2.334 . S
Cd108 N137 2.304 . S
Cd108 O144 2.268 . S
Cd108 O147 2.273 . S
Cd108 O148 2.417 . S
Cd108 O149 2.330 . S
Cd109 N124 2.304 . S
Cd109 N128 2.334 . S
Cd109 O145 2.273 . S
Cd109 O146 2.268 . S
Cd109 O150 2.417 1_455 S
Cd109 O151 2.330 . S
C110 N111 1.332 . S
C110 C114 1.381 . S
C110 H116 0.931 . S
N111 Cd108 2.334 . S
N111 C110 1.332 . S
N111 C115 1.328 . S
C112 C113 1.396 . S
C112 C115 1.378 . S
C112 H154 0.931 . S
C113 C112 1.396 . S
C113 C114 1.382 . S
C114 C110 1.381 . S
C114 C113 1.382 . S
C114 H155 0.930 . S
C115 N111 1.328 . S
C115 C112 1.378 . S
C115 H117 0.930 . S
H116 C110 0.931 . S
H117 C115 0.930 . S
C118 O144 1.238 . S
C118 O145 1.253 . S
C119 C120 1.379 . S
C119 N124 1.337 . S
C119 H125 0.929 . S
C120 C119 1.379 . S
C120 C121 1.380 . S
C120 H156 0.929 . S
C121 C120 1.380 . S
C121 C122 1.399 . S
C122 C121 1.399 . S
C122 C123 1.376 . S
C122 H157 0.931 . S
C123 C122 1.376 . S
C123 N124 1.338 . S
C123 H126 0.930 . S
N124 Cd109 2.304 . S
N124 C119 1.337 . S
N124 C123 1.338 . S
H125 C119 0.929 . S
H126 C123 0.930 . S
C127 N128 1.332 . S
C127 C131 1.381 . S
C127 H133 0.931 . S
N128 Cd109 2.334 . S
N128 C127 1.332 . S
N128 C132 1.328 . S
C129 C130 1.396 . S
C129 C132 1.378 . S
C129 H158 0.931 . S
C130 C129 1.396 . S
C130 C131 1.382 . S
C131 C127 1.381 . S
C131 C130 1.382 . S
C131 H159 0.930 . S
C132 N128 1.328 . S
C132 C129 1.378 . S
C132 H134 0.930 . S
H133 C127 0.931 . S
H134 C132 0.930 . S
C135 O146 1.238 . S
C135 O147 1.253 . S
C136 O148 1.239 . S
C136 O149 1.230 . S
N137 Cd108 2.304 . S
N137 C138 1.337 . S
N137 C142 1.338 . S
C138 N137 1.337 . S
C138 C139 1.379 . S
C138 H152 0.929 . S
C139 C138 1.379 . S
C139 C140 1.380 . S
C139 H160 0.929 . S
C140 C139 1.380 . S
C140 C141 1.399 . S
C141 C140 1.399 . S
C141 C142 1.376 . S
C141 H161 0.931 . S
C142 N137 1.338 . S
C142 C141 1.376 . S
C142 H153 0.930 . S
C143 O150 1.239 . S
C143 O151 1.230 1_655 S
O144 Cd108 2.268 . S
O144 C118 1.238 . S
O145 Cd109 2.273 . S
O145 C118 1.253 . S
O146 Cd109 2.268 . S
O146 C135 1.238 . S
O147 Cd108 2.273 . S
O147 C135 1.253 . S
O148 Cd108 2.417 . S
O148 C136 1.239 . S
O149 Cd108 2.330 . S
O149 C136 1.230 . S
O150 Cd109 2.417 1_655 S
O150 C143 1.239 . S
O151 Cd109 2.330 . S
O151 C143 1.230 1_455 S
H152 C138 0.929 . S
H153 C142 0.930 . S
H154 C112 0.931 . S
H155 C114 0.930 . S
H156 C120 0.929 . S
H157 C122 0.931 . S
H158 C129 0.931 . S
H159 C131 0.930 . S
H160 C139 0.929 . S
H161 C141 0.931 . S
Cd162 N165 2.334 . S
Cd162 N191 2.304 . S
Cd162 O198 2.268 . S
Cd162 O201 2.273 . S
Cd162 O202 2.417 1_655 S
Cd162 O203 2.330 . S
Cd163 N178 2.304 . S
Cd163 N182 2.334 . S
Cd163 O199 2.273 . S
Cd163 O200 2.268 . S
Cd163 O204 2.417 . S
Cd163 O205 2.330 . S
C164 N165 1.332 . S
C164 C168 1.381 . S
C164 H170 0.931 . S
N165 Cd162 2.334 . S
N165 C164 1.332 . S
N165 C169 1.328 . S
C166 C167 1.396 . S
C166 C169 1.378 . S
C166 H208 0.931 . S
C167 C166 1.396 . S
C167 C168 1.382 . S
C168 C164 1.381 . S
C168 C167 1.382 . S
C168 H209 0.930 . S
C169 N165 1.328 . S
C169 C166 1.378 . S
C169 H171 0.930 . S
H170 C164 0.931 . S
H171 C169 0.930 . S
C172 O198 1.238 . S
C172 O199 1.253 . S
C173 C174 1.379 . S
C173 N178 1.337 . S
C173 H179 0.929 . S
C174 C173 1.379 . S
C174 C175 1.380 . S
C174 H210 0.929 . S
C175 C174 1.380 . S
C175 C176 1.399 . S
C176 C175 1.399 . S
C176 C177 1.376 . S
C176 H211 0.931 . S
C177 C176 1.376 . S
C177 N178 1.338 . S
C177 H180 0.930 . S
N178 Cd163 2.304 . S
N178 C173 1.337 . S
N178 C177 1.338 . S
H179 C173 0.929 . S
H180 C177 0.930 . S
C181 N182 1.332 . S
C181 C185 1.381 . S
C181 H187 0.931 . S
N182 Cd163 2.334 . S
N182 C181 1.332 . S
N182 C186 1.328 . S
C183 C184 1.396 . S
C183 C186 1.378 . S
C183 H212 0.931 . S
C184 C183 1.396 . S
C184 C185 1.382 . S
C185 C181 1.381 . S
C185 C184 1.382 . S
C185 H213 0.930 . S
C186 N182 1.328 . S
C186 C183 1.378 . S
C186 H188 0.930 . S
H187 C181 0.931 . S
H188 C186 0.930 . S
C189 O200 1.238 . S
C189 O201 1.253 . S
C190 O202 1.239 . S
C190 O203 1.230 1_455 S
N191 Cd162 2.304 . S
N191 C192 1.337 . S
N191 C196 1.338 . S
C192 N191 1.337 . S
C192 C193 1.379 . S
C192 H206 0.929 . S
C193 C192 1.379 . S
C193 C194 1.380 . S
C193 H214 0.929 . S
C194 C193 1.380 . S
C194 C195 1.399 . S
C195 C194 1.399 . S
C195 C196 1.376 . S
C195 H215 0.931 . S
C196 N191 1.338 . S
C196 C195 1.376 . S
C196 H207 0.930 . S
C197 O204 1.239 . S
C197 O205 1.230 . S
O198 Cd162 2.268 . S
O198 C172 1.238 . S
O199 Cd163 2.273 . S
O199 C172 1.253 . S
O200 Cd163 2.268 . S
O200 C189 1.238 . S
O201 Cd162 2.273 . S
O201 C189 1.253 . S
O202 Cd162 2.417 1_455 S
O202 C190 1.239 . S
O203 Cd162 2.330 . S
O203 C190 1.230 1_655 S
O204 Cd163 2.417 . S
O204 C197 1.239 . S
O205 Cd163 2.330 . S
O205 C197 1.230 . S
H206 C192 0.929 . S
H207 C196 0.930 . S
H208 C166 0.931 . S
H209 C168 0.930 . S
H210 C174 0.929 . S
H211 C176 0.931 . S
H212 C183 0.931 . S
H213 C185 0.930 . S
H214 C193 0.929 . S
H215 C195 0.931 . S
H216 C224 0.950 . S
H217 C229 0.950 . S
H218 C226 0.950 . S
H219 C228 0.950 . S
H220 C230 0.950 . S
H221 C232 0.950 . S
H222 C234 0.950 . S
H223 C235 0.950 . S
C224 H216 0.950 . S
C224 C225 1.386 . S
C224 C226 1.391 . S
C225 C224 1.386 . S
C225 C229 1.393 1_554 S
C226 H218 0.950 . S
C226 C224 1.391 . S
C226 C227 1.400 . S
C227 C226 1.400 . S
C227 C228 1.398 1_554 S
C227 C233 1.491 . S
C228 H219 0.950 . S
C228 C227 1.398 1_556 S
C228 C229 1.391 . S
C229 H217 0.950 . S
C229 C225 1.393 1_556 S
C229 C228 1.391 . S
C230 H220 0.950 . S
C230 C231 1.386 1_556 S
C230 C232 1.391 . S
C231 C230 1.386 1_554 S
C231 C235 1.393 . S
C232 H221 0.950 . S
C232 C230 1.391 . S
C232 C233 1.400 1_556 S
C233 C227 1.491 . S
C233 C232 1.400 1_554 S
C233 C234 1.398 . S
C234 H222 0.950 . S
C234 C233 1.398 . S
C234 C235 1.391 . S
C235 H223 0.950 . S
C235 C231 1.393 . S
C235 C234 1.391 . S
H236 C244 0.950 . S
H237 C249 0.950 . S
H238 C246 0.950 . S
H239 C248 0.950 . S
H240 C250 0.950 . S
H241 C252 0.950 . S
H242 C254 0.950 . S
H243 C255 0.950 . S
C244 H236 0.950 . S
C244 C245 1.386 . S
C244 C246 1.391 . S
C245 C244 1.386 . S
C245 C249 1.393 1_554 S
C246 H238 0.950 . S
C246 C244 1.391 . S
C246 C247 1.400 . S
C247 C246 1.400 . S
C247 C248 1.398 1_554 S
C247 C253 1.491 . S
C248 H239 0.950 . S
C248 C247 1.398 1_556 S
C248 C249 1.391 . S
C249 H237 0.950 . S
C249 C245 1.393 1_556 S
C249 C248 1.391 . S
C250 H240 0.950 . S
C250 C251 1.386 1_556 S
C250 C252 1.391 . S
C251 C250 1.386 1_554 S
C251 C255 1.393 . S
C252 H241 0.950 . S
C252 C250 1.391 . S
C252 C253 1.400 1_556 S
C253 C247 1.491 . S
C253 C252 1.400 1_554 S
C253 C254 1.398 . S
C254 H242 0.950 . S
C254 C253 1.398 . S
C254 C255 1.391 . S
C255 H243 0.950 . S
C255 C251 1.393 . S
C255 C254 1.391 . S
H256 C264 0.950 . S
H257 C269 0.950 . S
H258 C266 0.950 . S
H259 C268 0.950 . S
H260 C270 0.950 . S
H261 C272 0.950 . S
H262 C274 0.950 . S
H263 C275 0.950 . S
C264 H256 0.950 . S
C264 C265 1.386 . S
C264 C266 1.391 . S
C265 C264 1.386 . S
C265 C269 1.393 . S
C266 H258 0.950 . S
C266 C264 1.391 . S
C266 C267 1.400 . S
C267 C266 1.400 . S
C267 C268 1.398 . S
C267 C273 1.491 . S
C268 H259 0.950 . S
C268 C267 1.398 . S
C268 C269 1.391 . S
C269 H257 0.950 . S
C269 C265 1.393 . S
C269 C268 1.391 . S
C270 H260 0.950 . S
C270 C271 1.386 . S
C270 C272 1.391 . S
C271 C270 1.386 . S
C271 C275 1.393 . S
C272 H261 0.950 . S
C272 C270 1.391 . S
C272 C273 1.400 . S
C273 C267 1.491 . S
C273 C272 1.400 . S
C273 C274 1.398 . S
C274 H262 0.950 . S
C274 C273 1.398 . S
C274 C275 1.391 . S
C275 H263 0.950 . S
C275 C271 1.393 . S
C275 C274 1.391 . S
H276 C284 0.950 . S
H277 C289 0.950 . S
H278 C286 0.950 . S
H279 C288 0.950 . S
H280 C290 0.950 . S
H281 C292 0.950 . S
H282 C294 0.950 . S
H283 C295 0.950 . S
C284 H276 0.950 . S
C284 C285 1.386 . S
C284 C286 1.391 . S
C285 C284 1.386 . S
C285 C289 1.393 . S
C286 H278 0.950 . S
C286 C284 1.391 . S
C286 C287 1.400 . S
C287 C286 1.400 . S
C287 C288 1.398 . S
C287 C293 1.491 . S
C288 H279 0.950 . S
C288 C287 1.398 . S
C288 C289 1.391 . S
C289 H277 0.950 . S
C289 C285 1.393 . S
C289 C288 1.391 . S
C290 H280 0.950 . S
C290 C291 1.386 . S
C290 C292 1.391 . S
C291 C290 1.386 . S
C291 C295 1.393 . S
C292 H281 0.950 . S
C292 C290 1.391 . S
C292 C293 1.400 . S
C293 C287 1.491 . S
C293 C292 1.400 . S
C293 C294 1.398 . S
C294 H282 0.950 . S
C294 C293 1.398 . S
C294 C295 1.391 . S
C295 H283 0.950 . S
C295 C291 1.393 . S
C295 C294 1.391 . S
H296 C304 0.950 . S
H297 C309 0.950 . S
H298 C306 0.950 . S
H299 C308 0.950 . S
H300 C310 0.950 . S
H301 C312 0.950 . S
H302 C314 0.950 . S
H303 C315 0.950 . S
C304 H296 0.950 . S
C304 C305 1.386 1_556 S
C304 C306 1.391 . S
C305 C304 1.386 1_554 S
C305 C309 1.393 . S
C306 H298 0.950 . S
C306 C304 1.391 . S
C306 C307 1.400 1_556 S
C307 C306 1.400 1_554 S
C307 C308 1.398 . S
C307 C313 1.491 . S
C308 H299 0.950 . S
C308 C307 1.398 . S
C308 C309 1.391 . S
C309 H297 0.950 . S
C309 C305 1.393 . S
C309 C308 1.391 . S
C310 H300 0.950 . S
C310 C311 1.386 . S
C310 C312 1.391 . S
C311 C310 1.386 . S
C311 C315 1.393 1_554 S
C312 H301 0.950 . S
C312 C310 1.391 . S
C312 C313 1.400 . S
C313 C307 1.491 . S
C313 C312 1.400 . S
C313 C314 1.398 1_554 S
C314 H302 0.950 . S
C314 C313 1.398 1_556 S
C314 C315 1.391 . S
C315 H303 0.950 . S
C315 C311 1.393 1_556 S
C315 C314 1.391 . S
H316 C324 0.950 . S
H317 C329 0.950 . S
H318 C326 0.950 . S
H319 C328 0.950 . S
H320 C330 0.950 . S
H321 C332 0.950 . S
H322 C334 0.950 . S
H323 C335 0.950 . S
C324 H316 0.950 . S
C324 C325 1.386 . S
C324 C326 1.391 . S
C325 C324 1.386 . S
C325 C329 1.393 . S
C326 H318 0.950 . S
C326 C324 1.391 . S
C326 C327 1.400 . S
C327 C326 1.400 . S
C327 C328 1.398 . S
C327 C333 1.491 . S
C328 H319 0.950 . S
C328 C327 1.398 . S
C328 C329 1.391 . S
C329 H317 0.950 . S
C329 C325 1.393 . S
C329 C328 1.391 . S
C330 H320 0.950 . S
C330 C331 1.386 . S
C330 C332 1.391 . S
C331 C330 1.386 . S
C331 C335 1.393 . S
C332 H321 0.950 . S
C332 C330 1.391 . S
C332 C333 1.400 . S
C333 C327 1.491 . S
C333 C332 1.400 . S
C333 C334 1.398 . S
C334 H322 0.950 . S
C334 C333 1.398 . S
C334 C335 1.391 . S
C335 H323 0.950 . S
C335 C331 1.393 . S
C335 C334 1.391 . S
H336 C344 0.950 . S
H337 C349 0.950 . S
H338 C346 0.950 1_655 S
H339 C348 0.950 1_565 S
H340 C350 0.950 . S
H341 C352 0.950 1_455 S
H342 C354 0.950 1_545 S
H343 C355 0.950 . S
C344 H336 0.950 . S
C344 C345 1.386 1_556 S
C344 C346 1.391 . S
C345 C344 1.386 1_554 S
C345 C349 1.393 . S
C346 H338 0.950 1_455 S
C346 C344 1.391 . S
C346 C347 1.400 1_556 S
C347 C346 1.400 1_554 S
C347 C348 1.398 . S
C347 C353 1.491 1_445 S
C348 H339 0.950 1_545 S
C348 C347 1.398 . S
C348 C349 1.391 . S
C349 H337 0.950 . S
C349 C345 1.393 . S
C349 C348 1.391 . S
C350 H340 0.950 . S
C350 C351 1.386 . S
C350 C352 1.391 . S
C351 C350 1.386 . S
C351 C355 1.393 1_554 S
C352 H341 0.950 1_655 S
C352 C350 1.391 . S
C352 C353 1.400 . S
C353 C347 1.491 1_665 S
C353 C352 1.400 . S
C353 C354 1.398 1_554 S
C354 H342 0.950 1_565 S
C354 C353 1.398 1_556 S
C354 C355 1.391 . S
C355 H343 0.950 . S
C355 C351 1.393 1_556 S
C355 C354 1.391 . S
H356 C364 0.950 . S
H357 C369 0.950 . S
H358 C366 0.950 1_455 S
H359 C368 0.950 1_565 S
H360 C370 0.950 . S
H361 C372 0.950 1_655 S
H362 C374 0.950 1_545 S
H363 C375 0.950 . S
C364 H356 0.950 . S
C364 C365 1.386 . S
C364 C366 1.391 . S
C365 C364 1.386 . S
C365 C369 1.393 . S
C366 H358 0.950 1_655 S
C366 C364 1.391 . S
C366 C367 1.400 . S
C367 C366 1.400 . S
C367 C368 1.398 . S
C367 C373 1.491 1_645 S
C368 H359 0.950 1_545 S
C368 C367 1.398 . S
C368 C369 1.391 . S
C369 H357 0.950 . S
C369 C365 1.393 . S
C369 C368 1.391 . S
C370 H360 0.950 . S
C370 C371 1.386 . S
C370 C372 1.391 . S
C371 C370 1.386 . S
C371 C375 1.393 . S
C372 H361 0.950 1_455 S
C372 C370 1.391 . S
C372 C373 1.400 . S
C373 C367 1.491 1_465 S
C373 C372 1.400 . S
C373 C374 1.398 . S
C374 H362 0.950 1_565 S
C374 C373 1.398 . S
C374 C375 1.391 . S
C375 H363 0.950 . S
C375 C371 1.393 . S
C375 C374 1.391 . S
H376 C384 0.950 . S
H377 C389 0.950 . S
H378 C386 0.950 . S
H379 C388 0.950 . S
H380 C390 0.950 . S
H381 C392 0.950 . S
H382 C394 0.950 . S
H383 C395 0.950 . S
C384 H376 0.950 . S
C384 C385 1.386 . S
C384 C386 1.391 . S
C385 C384 1.386 . S
C385 C389 1.393 . S
C386 H378 0.950 . S
C386 C384 1.391 . S
C386 C387 1.400 . S
C387 C386 1.400 . S
C387 C388 1.398 . S
C387 C393 1.491 . S
C388 H379 0.950 . S
C388 C387 1.398 . S
C388 C389 1.391 . S
C389 H377 0.950 . S
C389 C385 1.393 . S
C389 C388 1.391 . S
C390 H380 0.950 . S
C390 C391 1.386 . S
C390 C392 1.391 . S
C391 C390 1.386 . S
C391 C395 1.393 . S
C392 H381 0.950 . S
C392 C390 1.391 . S
C392 C393 1.400 . S
C393 C387 1.491 . S
C393 C392 1.400 . S
C393 C394 1.398 . S
C394 H382 0.950 . S
C394 C393 1.398 . S
C394 C395 1.391 . S
C395 H383 0.950 . S
C395 C391 1.393 . S
C395 C394 1.391 . S
H396 C404 0.950 . S
H397 C409 0.950 . S
H398 C406 0.950 . S
H399 C408 0.950 . S
H400 C410 0.950 . S
H401 C412 0.950 . S
H402 C414 0.950 . S
H403 C415 0.950 . S
C404 H396 0.950 . S
C404 C405 1.386 . S
C404 C406 1.391 . S
C405 C404 1.386 . S
C405 C409 1.393 . S
C406 H398 0.950 . S
C406 C404 1.391 . S
C406 C407 1.400 . S
C407 C406 1.400 . S
C407 C408 1.398 . S
C407 C413 1.491 . S
C408 H399 0.950 . S
C408 C407 1.398 . S
C408 C409 1.391 . S
C409 H397 0.950 . S
C409 C405 1.393 . S
C409 C408 1.391 . S
C410 H400 0.950 . S
C410 C411 1.386 . S
C410 C412 1.391 . S
C411 C410 1.386 . S
C411 C415 1.393 . S
C412 H401 0.950 . S
C412 C410 1.391 . S
C412 C413 1.400 . S
C413 C407 1.491 . S
C413 C412 1.400 . S
C413 C414 1.398 . S
C414 H402 0.950 . S
C414 C413 1.398 . S
C414 C415 1.391 . S
C415 H403 0.950 . S
C415 C411 1.393 . S
C415 C414 1.391 . S
H416 C424 0.950 . S
H417 C429 0.950 . S
H418 C426 0.950 . S
H419 C428 0.950 . S
H420 C430 0.950 . S
H421 C432 0.950 . S
H422 C434 0.950 . S
H423 C435 0.950 . S
C424 H416 0.950 . S
C424 C425 1.386 . S
C424 C426 1.391 . S
C425 C424 1.386 . S
C425 C429 1.393 . S
C426 H418 0.950 . S
C426 C424 1.391 . S
C426 C427 1.400 . S
C427 C426 1.400 . S
C427 C428 1.398 . S
C427 C433 1.491 . S
C428 H419 0.950 . S
C428 C427 1.398 . S
C428 C429 1.391 . S
C429 H417 0.950 . S
C429 C425 1.393 . S
C429 C428 1.391 . S
C430 H420 0.950 . S
C430 C431 1.386 . S
C430 C432 1.391 . S
C431 C430 1.386 . S
C431 C435 1.393 . S
C432 H421 0.950 . S
C432 C430 1.391 . S
C432 C433 1.400 . S
C433 C427 1.491 . S
C433 C432 1.400 . S
C433 C434 1.398 . S
C434 H422 0.950 . S
C434 C433 1.398 . S
C434 C435 1.391 . S
C435 H423 0.950 . S
C435 C431 1.393 . S
C435 C434 1.391 . S
H436 C444 0.950 . S
H437 C449 0.950 . S
H438 C446 0.950 . S
H439 C448 0.950 . S
H440 C450 0.950 . S
H441 C452 0.950 . S
H442 C454 0.950 . S
H443 C455 0.950 . S
C444 H436 0.950 . S
C444 C445 1.386 . S
C444 C446 1.391 . S
C445 C444 1.386 . S
C445 C449 1.393 . S
C446 H438 0.950 . S
C446 C444 1.391 . S
C446 C447 1.400 . S
C447 C446 1.400 . S
C447 C448 1.398 . S
C447 C453 1.491 . S
C448 H439 0.950 . S
C448 C447 1.398 . S
C448 C449 1.391 . S
C449 H437 0.950 . S
C449 C445 1.393 . S
C449 C448 1.391 . S
C450 H440 0.950 . S
C450 C451 1.386 . S
C450 C452 1.391 . S
C451 C450 1.386 . S
C451 C455 1.393 . S
C452 H441 0.950 . S
C452 C450 1.391 . S
C452 C453 1.400 . S
C453 C447 1.491 . S
C453 C452 1.400 . S
C453 C454 1.398 . S
C454 H442 0.950 . S
C454 C453 1.398 . S
C454 C455 1.391 . S
C455 H443 0.950 . S
C455 C451 1.393 . S
C455 C454 1.391 . S
H456 C464 0.950 . S
H457 C469 0.950 . S
H458 C466 0.950 . S
H459 C468 0.950 1_655 S
H460 C470 0.950 . S
H461 C472 0.950 . S
H462 C474 0.950 1_455 S
H463 C475 0.950 . S
C464 H456 0.950 . S
C464 C465 1.386 . S
C464 C466 1.391 . S
C465 C464 1.386 . S
C465 C469 1.393 . S
C466 H458 0.950 . S
C466 C464 1.391 . S
C466 C467 1.400 . S
C467 C466 1.400 . S
C467 C468 1.398 . S
C467 C473 1.491 1_455 S
C468 H459 0.950 1_455 S
C468 C467 1.398 . S
C468 C469 1.391 . S
C469 H457 0.950 . S
C469 C465 1.393 . S
C469 C468 1.391 . S
C470 H460 0.950 . S
C470 C471 1.386 . S
C470 C472 1.391 . S
C471 C470 1.386 . S
C471 C475 1.393 . S
C472 H461 0.950 . S
C472 C470 1.391 . S
C472 C473 1.400 . S
C473 C467 1.491 1_655 S
C473 C472 1.400 . S
C473 C474 1.398 . S
C474 H462 0.950 1_655 S
C474 C473 1.398 . S
C474 C475 1.391 . S
C475 H463 0.950 . S
C475 C471 1.393 . S
C475 C474 1.391 . S
H476 C484 0.950 1_455 S
H477 C489 0.950 . S
H478 C486 0.950 . S
H479 C488 0.950 . S
H480 C490 0.950 1_655 S
H481 C492 0.950 . S
H482 C494 0.950 . S
H483 C495 0.950 . S
C484 H476 0.950 1_655 S
C484 C485 1.386 . S
C484 C486 1.391 1_655 S
C485 C484 1.386 . S
C485 C489 1.393 . S
C486 H478 0.950 . S
C486 C484 1.391 1_455 S
C486 C487 1.400 1_455 S
C487 C486 1.400 1_655 S
C487 C488 1.398 . S
C487 C493 1.491 1_655 S
C488 H479 0.950 . S
C488 C487 1.398 . S
C488 C489 1.391 . S
C489 H477 0.950 . S
C489 C485 1.393 . S
C489 C488 1.391 . S
C490 H480 0.950 1_455 S
C490 C491 1.386 . S
C490 C492 1.391 1_455 S
C491 C490 1.386 . S
C491 C495 1.393 . S
C492 H481 0.950 . S
C492 C490 1.391 1_655 S
C492 C493 1.400 1_655 S
C493 C487 1.491 1_455 S
C493 C492 1.400 1_455 S
C493 C494 1.398 . S
C494 H482 0.950 . S
C494 C493 1.398 . S
C494 C495 1.391 . S
C495 H483 0.950 . S
C495 C491 1.393 . S
C495 C494 1.391 . S
H496 C504 0.950 . S
H497 C509 0.950 . S
H498 C506 0.950 1_655 S
H499 C508 0.950 . S
H500 C510 0.950 . S
H501 C512 0.950 1_455 S
H502 C514 0.950 . S
H503 C515 0.950 . S
C504 H496 0.950 . S
C504 C505 1.386 . S
C504 C506 1.391 . S
C505 C504 1.386 . S
C505 C509 1.393 . S
C506 H498 0.950 1_455 S
C506 C504 1.391 . S
C506 C507 1.400 . S
C507 C506 1.400 . S
C507 C508 1.398 . S
C507 C513 1.491 1_455 S
C508 H499 0.950 . S
C508 C507 1.398 . S
C508 C509 1.391 . S
C509 H497 0.950 . S
C509 C505 1.393 . S
C509 C508 1.391 . S
C510 H500 0.950 . S
C510 C511 1.386 . S
C510 C512 1.391 . S
C511 C510 1.386 . S
C511 C515 1.393 . S
C512 H501 0.950 1_655 S
C512 C510 1.391 . S
C512 C513 1.400 . S
C513 C507 1.491 1_655 S
C513 C512 1.400 . S
C513 C514 1.398 . S
C514 H502 0.950 . S
C514 C513 1.398 . S
C514 C515 1.391 . S
C515 H503 0.950 . S
C515 C511 1.393 . S
C515 C514 1.391 . S
H516 C524 0.950 . S
H517 C529 0.950 . S
H518 C526 0.950 1_655 S
H519 C528 0.950 . S
H520 C530 0.950 . S
H521 C532 0.950 1_455 S
H522 C534 0.950 . S
H523 C535 0.950 . S
C524 H516 0.950 . S
C524 C525 1.386 . S
C524 C526 1.391 . S
C525 C524 1.386 . S
C525 C529 1.393 . S
C526 H518 0.950 1_455 S
C526 C524 1.391 . S
C526 C527 1.400 . S
C527 C526 1.400 . S
C527 C528 1.398 . S
C527 C533 1.491 1_455 S
C528 H519 0.950 . S
C528 C527 1.398 . S
C528 C529 1.391 . S
C529 H517 0.950 . S
C529 C525 1.393 . S
C529 C528 1.391 . S
C530 H520 0.950 . S
C530 C531 1.386 . S
C530 C532 1.391 . S
C531 C530 1.386 . S
C531 C535 1.393 . S
C532 H521 0.950 1_655 S
C532 C530 1.391 . S
C532 C533 1.400 . S
C533 C527 1.491 1_655 S
C533 C532 1.400 . S
C533 C534 1.398 . S
C534 H522 0.950 . S
C534 C533 1.398 . S
C534 C535 1.391 . S
C535 H523 0.950 . S
C535 C531 1.393 . S
C535 C534 1.391 . S
C225 C35 0.502 . S
C231 C28 0.502 . S
C245 C89 0.504 . S
C251 C82 0.505 . S
C265 C136 0.426 . S
C271 C143 0.427 . S
C285 C190 0.423 . S
C291 C197 0.423 . S
C305 C64 1.708 . S
C311 C27 1.708 . S
C325 C189 1.706 . S
C331 C118 1.706 . S
C345 C10 1.708 . S
C351 C81 1.708 . S
C365 C172 1.703 . S
C371 C135 1.703 . S
C385 C184 1.769 . S
C391 C22 1.769 . S
C405 C59 1.769 . S
C411 C113 1.769 . S
C425 C140 1.743 . S
C431 C86 1.742 . S
C445 C13 1.751 . S
C451 C175 1.752 . S
C465 C130 1.752 . S
C471 C76 1.752 . S
C485 C167 1.762 . S
C491 C5 1.762 . S
C505 C32 1.740 . S
C511 C194 1.739 . S
C525 C121 1.758 . S
C531 C67 1.758 . S
