# Generated by pormake.
# Topology smi, (6)-cn, num edge types: 1
# Building blocks:
#     Node 0, Type 0, BuildingBlock: IZENUY_clean_sbu_0, # of connection points: 6
#     Node 1, Type 0, BuildingBlock: IZENUY_clean_sbu_0, # of connection points: 6
#     Node 2, Type 0, BuildingBlock: IZENUY_clean_sbu_0, # of connection points: 6
#     Node 3, Type 0, BuildingBlock: IZENUY_clean_sbu_0, # of connection points: 6
#     Node 4, Type 0, BuildingBlock: IZENUY_clean_sbu_0, # of connection points: 6
#     Node 5, Type 0, BuildingBlock: IZENUY_clean_sbu_0, # of connection points: 6
#     Edge 6, Type (0, 0), BuildingBlock: FUNLAD_clean_linker_1, # of connection points: 2
#     Edge 7, Type (0, 0), BuildingBlock: FUNLAD_clean_linker_1, # of connection points: 2
#     Edge 8, Type (0, 0), BuildingBlock: FUNLAD_clean_linker_1, # of connection points: 2
#     Edge 9, Type (0, 0), BuildingBlock: FUNLAD_clean_linker_1, # of connection points: 2
#     Edge 10, Type (0, 0), BuildingBlock: FUNLAD_clean_linker_1, # of connection points: 2
#     Edge 11, Type (0, 0), BuildingBlock: FUNLAD_clean_linker_1, # of connection points: 2
#     Edge 12, Type (0, 0), BuildingBlock: FUNLAD_clean_linker_1, # of connection points: 2
#     Edge 13, Type (0, 0), BuildingBlock: FUNLAD_clean_linker_1, # of connection points: 2
#     Edge 14, Type (0, 0), BuildingBlock: FUNLAD_clean_linker_1, # of connection points: 2
#     Edge 15, Type (0, 0), BuildingBlock: FUNLAD_clean_linker_1, # of connection points: 2
#     Edge 16, Type (0, 0), BuildingBlock: FUNLAD_clean_linker_1, # of connection points: 2
#     Edge 17, Type (0, 0), BuildingBlock: FUNLAD_clean_linker_1, # of connection points: 2
#     Edge 18, Type (0, 0), BuildingBlock: FUNLAD_clean_linker_1, # of connection points: 2
#     Edge 19, Type (0, 0), BuildingBlock: FUNLAD_clean_linker_1, # of connection points: 2
#     Edge 20, Type (0, 0), BuildingBlock: FUNLAD_clean_linker_1, # of connection points: 2
#     Edge 21, Type (0, 0), BuildingBlock: FUNLAD_clean_linker_1, # of connection points: 2
#     Edge 22, Type (0, 0), BuildingBlock: FUNLAD_clean_linker_1, # of connection points: 2
#     Edge 23, Type (0, 0), BuildingBlock: FUNLAD_clean_linker_1, # of connection points: 2
# Relax obj value: 0.337
# Max RMSD: 0.277
# Mean RMSD: 0.276
data_MOF--net-smi--node1-IZENUY_clean_sbu_0--edge1-FUNLAD_clean_linker_1
_symmetry_space_group_name_H-M    P1
_symmetry_Int_Tables_number       1
_symmetry_cell_setting            triclinic
loop_
_symmetry_equiv_pos_as_xyz
'x, y, z'
_cell_length_a     27.867617
_cell_length_b     27.788122
_cell_length_c     41.700651
_cell_angle_alpha  89.976814
_cell_angle_beta   89.54053
_cell_angle_gamma 120.18116
loop_
_atom_site_label
_atom_site_type_symbol
_atom_site_fract_x
_atom_site_fract_y
_atom_site_fract_z
_atom_type_partial_charge
Fe0 Fe 0.1121 0.57189 0.12119 0.0
Fe1 Fe 0.2191 0.59437 0.08758 0.0
O2 O 0.14604 0.56274 0.08753 0.0
Fe3 Fe 0.10766 0.52264 0.05416 0.0
O4 O 0.0768 0.56578 0.0482 0.0
O5 O 0.05391 0.56807 0.09837 0.0
O6 O 0.14906 0.6473 0.11613 0.0
C7 C 0.20142 0.67612 0.11665 0.0
C8 C 0.04256 0.46163 0.10901 0.0
O9 O 0.2308 0.65378 0.11226 0.0
C10 C 0.18709 0.49266 0.05574 0.0
O11 O 0.16322 0.57583 0.15027 0.0
O12 O 0.21621 0.55351 0.12212 0.0
O13 O 0.04777 0.47106 0.07889 0.0
O14 O 0.07386 0.49808 0.12869 0.0
C15 C 0.20152 0.61769 0.02701 0.0
O16 O 0.22243 0.54231 0.06238 0.0
O17 O 0.13589 0.47607 0.05667 0.0
C18 C 0.19547 0.55614 0.14852 0.0
O19 O 0.22512 0.63633 0.05339 0.0
O20 O 0.16098 0.56817 0.02435 0.0
C21 C 0.04851 0.57399 0.06879 0.0
Fe22 Fe 0.56848 0.09422 0.21812 0.0
Fe23 Fe 0.60515 0.20636 0.25119 0.0
O24 O 0.56661 0.13226 0.25191 0.0
Fe25 Fe 0.52665 0.09698 0.28655 0.0
O26 O 0.56345 0.05936 0.2921 0.0
O27 O 0.5651 0.03649 0.24168 0.0
O28 O 0.64363 0.12673 0.21925 0.0
C29 C 0.67615 0.17835 0.21647 0.0
C30 C 0.45839 0.03098 0.2352 0.0
O31 O 0.66047 0.21226 0.22434 0.0
C32 C 0.50726 0.18366 0.28568 0.0
O33 O 0.57189 0.14533 0.18869 0.0
O34 O 0.56611 0.20915 0.2173 0.0
O35 O 0.47069 0.03873 0.2646 0.0
O36 O 0.49383 0.05825 0.21369 0.0
C37 C 0.62642 0.18604 0.31185 0.0
O38 O 0.55756 0.21575 0.27787 0.0
O39 O 0.48619 0.13166 0.28404 0.0
C40 C 0.56263 0.18552 0.19081 0.0
O41 O 0.64675 0.2081 0.28493 0.0
O42 O 0.57581 0.14874 0.31483 0.0
C43 C 0.57035 0.03038 0.27132 0.0
Fe44 Fe 0.3998 0.61058 0.42153 0.0
Fe45 Fe 0.42238 0.52338 0.45193 0.0
O46 O 0.43753 0.57492 0.42197 0.0
Fe47 Fe 0.49012 0.59169 0.39232 0.0
O48 O 0.52842 0.66499 0.4034 0.0
O49 O 0.45523 0.67483 0.40371 0.0
O50 O 0.42639 0.64037 0.4602 0.0
C51 C 0.42178 0.61248 0.48509 0.0
C52 C 0.40142 0.58918 0.35825 0.0
O53 O 0.40923 0.56182 0.48359 0.0
C54 C 0.44168 0.47764 0.39496 0.0
O55 O 0.33632 0.55459 0.43946 0.0
O56 O 0.34888 0.483 0.44195 0.0
O57 O 0.4526 0.60509 0.36059 0.0
O58 O 0.37165 0.58203 0.38274 0.0
C59 C 0.53627 0.57385 0.44876 0.0
O60 O 0.43417 0.47707 0.42511 0.0
O61 O 0.45669 0.52084 0.3784 0.0
C62 C 0.3171 0.50303 0.4424 0.0
O63 O 0.49325 0.55856 0.46544 0.0
O64 O 0.53634 0.58029 0.41868 0.0
C65 C 0.50715 0.69571 0.40285 0.0
Fe66 Fe 0.80441 0.39954 0.57363 0.0
Fe67 Fe 0.92238 0.48166 0.54904 0.0
O68 O 0.87723 0.43651 0.5795 0.0
Fe69 Fe 0.90562 0.4282 0.61573 0.0
O70 O 0.85094 0.35585 0.62308 0.0
O71 O 0.79981 0.33267 0.57992 0.0
O72 O 0.80899 0.38919 0.53041 0.0
C73 C 0.8484 0.39405 0.51269 0.0
C74 C 0.81619 0.43356 0.63911 0.0
O75 O 0.89838 0.42532 0.52037 0.0
C76 C 0.97274 0.54352 0.60191 0.0
O77 O 0.80222 0.46281 0.56668 0.0
O78 O 0.87389 0.50259 0.53383 0.0
O79 O 0.86823 0.45368 0.63978 0.0
O80 O 0.78743 0.40395 0.61587 0.0
C81 C 0.97849 0.42747 0.57147 0.0
O82 O 0.94948 0.54115 0.57569 0.0
O83 O 0.96543 0.49951 0.61557 0.0
C84 C 0.82968 0.49819 0.54518 0.0
O85 O 0.97932 0.4688 0.55811 0.0
O86 O 0.94449 0.40153 0.59399 0.0
C87 C 0.81461 0.31911 0.60516 0.0
Fe88 Fe 0.42383 0.90833 0.72572 0.0
Fe89 Fe 0.40308 0.79442 0.74874 0.0
O90 O 0.4347 0.86718 0.75414 0.0
Fe91 Fe 0.47732 0.899 0.788 0.0
O92 O 0.46018 0.95474 0.79125 0.0
O93 O 0.3938 0.93242 0.75619 0.0
O94 O 0.35279 0.85408 0.7152 0.0
C95 C 0.31825 0.80919 0.72915 0.0
C96 C 0.53784 0.97393 0.74061 0.0
O97 O 0.33425 0.78576 0.74864 0.0
C98 C 0.50264 0.81454 0.7716 0.0
O99 O 0.45333 0.88752 0.69333 0.0
O100 O 0.40799 0.79818 0.70514 0.0
O101 O 0.53728 0.94186 0.76231 0.0
O102 O 0.49303 0.96965 0.73059 0.0
C103 C 0.39082 0.80531 0.81498 0.0
O104 O 0.46936 0.79699 0.74853 0.0
O105 O 0.50219 0.849 0.79131 0.0
C106 C 0.4379 0.83779 0.68621 0.0
O107 O 0.39232 0.77779 0.79134 0.0
O108 O 0.41982 0.85788 0.8156 0.0
C109 C 0.41945 0.95845 0.78095 0.0
Fe110 Fe 0.62074 0.40727 0.92544 0.0
Fe111 Fe 0.58984 0.49367 0.94845 0.0
O112 O 0.58546 0.44489 0.91929 0.0
Fe113 Fe 0.54535 0.43377 0.884 0.0
O114 O 0.5246 0.35995 0.8794 0.0
O115 O 0.55742 0.34065 0.92211 0.0
O116 O 0.60965 0.40074 0.96906 0.0
C117 C 0.57792 0.40864 0.98748 0.0
C118 C 0.63803 0.43561 0.85905 0.0
O119 O 0.56018 0.44066 0.9796 0.0
C120 C 0.5965 0.5507 0.89361 0.0
O121 O 0.68742 0.46994 0.92944 0.0
O122 O 0.66088 0.51549 0.96113 0.0
O123 O 0.60566 0.4551 0.85797 0.0
O124 O 0.63859 0.4078 0.88296 0.0
C125 C 0.47707 0.43986 0.92969 0.0
O126 O 0.6197 0.55039 0.91941 0.0
O127 O 0.55886 0.50568 0.88158 0.0
C128 C 0.69856 0.50817 0.94927 0.0
O129 O 0.51947 0.48086 0.94174 0.0
O130 O 0.48195 0.41153 0.90752 0.0
C131 C 0.52564 0.32492 0.89837 0.0
H132 H 0.22041 0.5095 0.18033 0.0
C133 C 0.21791 0.54711 0.17796 0.0
H134 H 0.23684 0.62451 0.19739 0.0
H135 H 0.25314 0.58107 0.34228 0.0
H136 H 0.18042 0.60439 0.34176 0.0
H137 H 0.14179 0.61395 0.29073 0.0
H138 H 0.17658 0.60148 0.23996 0.0
C139 C 0.23859 0.58657 0.20058 0.0
C140 C 0.26111 0.57884 0.23107 0.0
C141 C 0.23845 0.58393 0.26058 0.0
C142 C 0.25922 0.57631 0.28998 0.0
C143 C 0.23799 0.58474 0.31915 0.0
C144 C 0.19623 0.59833 0.31925 0.0
C145 C 0.17455 0.6038 0.29054 0.0
C146 C 0.19511 0.59663 0.2615 0.0
H147 H 0.40738 0.61429 0.30776 0.0
C148 C 0.37884 0.5881 0.32653 0.0
H149 H 0.29623 0.53027 0.33947 0.0
H150 H 0.32367 0.57918 0.17948 0.0
H151 H 0.39041 0.5476 0.17958 0.0
H152 H 0.41277 0.51624 0.22977 0.0
H153 H 0.37052 0.51914 0.28026 0.0
C154 C 0.32443 0.55652 0.32061 0.0
C155 C 0.30076 0.56106 0.28973 0.0
C156 C 0.32148 0.55337 0.26015 0.0
C157 C 0.3043 0.56583 0.2309 0.0
C158 C 0.33156 0.56558 0.20211 0.0
C159 C 0.37054 0.5482 0.20187 0.0
C160 C 0.38341 0.53094 0.23013 0.0
C161 C 0.35929 0.53338 0.259 0.0
H162 H 0.63785 0.19076 0.36408 0.0
C163 C 0.65877 0.20877 0.34138 0.0
H164 H 0.7317 0.2724 0.3193 0.0
H165 H 0.79378 0.43025 0.44007 0.0
H166 H 0.77911 0.48347 0.39908 0.0
H167 H 0.74396 0.44318 0.34579 0.0
H168 H 0.72454 0.35006 0.33287 0.0
C169 C 0.71079 0.25242 0.34163 0.0
C170 C 0.73747 0.2787 0.37258 0.0
C171 C 0.7485 0.33325 0.37966 0.0
C172 C 0.7673 0.35596 0.41065 0.0
C173 C 0.77865 0.41073 0.41703 0.0
C174 C 0.77053 0.44178 0.39371 0.0
C175 C 0.75073 0.41908 0.36372 0.0
C176 C 0.73976 0.36551 0.35662 0.0
H177 H 0.8703 0.37063 0.46642 0.0
C178 C 0.83626 0.36805 0.48068 0.0
H179 H 0.75125 0.34399 0.48149 0.0
H180 H 0.73117 0.17783 0.36495 0.0
H181 H 0.74643 0.12503 0.40596 0.0
H182 H 0.77341 0.16208 0.4607 0.0
H183 H 0.78617 0.25259 0.47464 0.0
C184 C 0.78514 0.34445 0.46816 0.0
C185 C 0.77393 0.32374 0.43466 0.0
C186 C 0.76579 0.27045 0.42714 0.0
C187 C 0.74847 0.24829 0.39587 0.0
C188 C 0.74239 0.19574 0.38864 0.0
C189 C 0.75139 0.16519 0.41189 0.0
C190 C 0.76672 0.18612 0.44269 0.0
C191 C 0.77391 0.23813 0.45037 0.0
H192 H 0.46193 0.85564 0.63496 0.0
C193 C 0.44854 0.82434 0.6538 0.0
H194 H 0.42538 0.74161 0.66602 0.0
H195 H 0.33117 0.6397 0.53161 0.0
H196 H 0.24663 0.6045 0.5631 0.0
H197 H 0.24907 0.63539 0.61881 0.0
H198 H 0.33558 0.70464 0.64251 0.0
C199 C 0.43923 0.77303 0.64722 0.0
C200 C 0.43889 0.75427 0.614 0.0
C201 C 0.38786 0.71309 0.60081 0.0
C202 C 0.38668 0.69348 0.56927 0.0
C203 C 0.33482 0.65447 0.55596 0.0
C204 C 0.28587 0.63402 0.57373 0.0
C205 C 0.28723 0.65162 0.60503 0.0
C206 C 0.33733 0.69124 0.61839 0.0
H207 H 0.4164 0.61142 0.5379 0.0
C208 C 0.42499 0.6373 0.51665 0.0
H209 H 0.4467 0.7172 0.49881 0.0
H210 H 0.54408 0.83136 0.633 0.0
H211 H 0.62854 0.86684 0.60128 0.0
H212 H 0.62633 0.83283 0.54635 0.0
H213 H 0.53958 0.76298 0.52289 0.0
C214 C 0.4364 0.69014 0.51965 0.0
C215 C 0.43683 0.71365 0.55154 0.0
C216 C 0.48768 0.75545 0.56449 0.0
C217 C 0.48883 0.77559 0.59594 0.0
C218 C 0.54052 0.81563 0.6089 0.0
C219 C 0.58943 0.8361 0.59102 0.0
C220 C 0.5882 0.8169 0.56012 0.0
C221 C 0.53809 0.77687 0.54693 0.0
H222 H 0.71406 0.44389 0.83747 0.0
C223 C 0.67566 0.44319 0.83191 0.0
H224 H 0.62377 0.44245 0.79528 0.0
H225 H 0.80016 0.54496 0.68333 0.0
H226 H 0.76678 0.61029 0.68744 0.0
H227 H 0.7037 0.60269 0.73141 0.0
H228 H 0.67333 0.52985 0.77154 0.0
C229 C 0.6624 0.44381 0.80102 0.0
C230 C 0.70016 0.44752 0.77402 0.0
C231 C 0.71804 0.49089 0.75088 0.0
C232 C 0.7547 0.49549 0.72547 0.0
C233 C 0.77184 0.53918 0.70281 0.0
C234 C 0.75327 0.57716 0.70499 0.0
C235 C 0.71778 0.57291 0.72979 0.0
C236 C 0.70047 0.53063 0.75261 0.0
H237 H 0.74193 0.42387 0.66414 0.0
C238 C 0.7861 0.43941 0.66688 0.0
H239 H 0.85273 0.47256 0.69954 0.0
H240 H 0.66486 0.35117 0.80895 0.0
H241 H 0.70207 0.28914 0.80613 0.0
H242 H 0.77496 0.305 0.7666 0.0
H243 H 0.80896 0.38155 0.72856 0.0
C244 C 0.80936 0.45929 0.69555 0.0
C245 C 0.77434 0.45739 0.72342 0.0
C246 C 0.7578 0.415 0.74693 0.0
C247 C 0.71868 0.40832 0.77127 0.0
C248 C 0.69779 0.36116 0.79174 0.0
C249 C 0.71826 0.32465 0.79008 0.0
C250 C 0.75918 0.33348 0.76777 0.0
C251 C 0.77838 0.37764 0.74612 0.0
H252 H 0.26126 0.69553 0.00326 0.0
C253 C 0.22717 0.65354 0.99889 0.0
H254 H 0.18169 0.59403 0.96329 0.0
H255 H 0.31353 0.84411 0.8908 0.0
H256 H 0.24453 0.85967 0.91706 0.0
H257 H 0.17586 0.79001 0.95465 0.0
H258 H 0.17591 0.70437 0.96622 0.0
C259 C 0.21354 0.63651 0.96863 0.0
C260 C 0.24848 0.67401 0.9423 0.0
C261 C 0.24744 0.72347 0.93547 0.0
C262 C 0.28659 0.76328 0.91355 0.0
C263 C 0.28471 0.81239 0.90723 0.0
C264 C 0.2453 0.82185 0.92213 0.0
C265 C 0.2067 0.78268 0.94333 0.0
C266 C 0.20742 0.7339 0.94993 0.0
H267 H 0.32478 0.72968 0.83738 0.0
C268 C 0.35575 0.77283 0.84215 0.0
H269 H 0.3925 0.83432 0.87795 0.0
H270 H 0.26029 0.58255 0.94957 0.0
H271 H 0.32948 0.56687 0.92374 0.0
H272 H 0.39851 0.63641 0.88637 0.0
H273 H 0.3999 0.72278 0.87534 0.0
C274 C 0.36224 0.79142 0.87228 0.0
C275 C 0.32593 0.75296 0.89805 0.0
C276 C 0.32713 0.70347 0.90508 0.0
C277 C 0.28775 0.66359 0.92686 0.0
C278 C 0.28942 0.61435 0.93328 0.0
C279 C 0.32889 0.60477 0.91862 0.0
C280 C 0.36782 0.64398 0.89762 0.0
C281 C 0.36759 0.69308 0.89114 0.0
H282 H 0.55401 0.188 0.1385 0.0
C283 C 0.55641 0.2097 0.16066 0.0
H284 H 0.56455 0.28311 0.18085 0.0
H285 H 0.68041 0.42574 0.05588 0.0
H286 H 0.75476 0.46715 0.09463 0.0
H287 H 0.74278 0.42675 0.14879 0.0
H288 H 0.65658 0.34461 0.16455 0.0
C289 C 0.55924 0.25941 0.15912 0.0
C290 C 0.56403 0.28671 0.12749 0.0
C291 C 0.61462 0.33514 0.11878 0.0
C292 C 0.62174 0.3582 0.08744 0.0
C293 C 0.6729 0.40626 0.07928 0.0
C294 C 0.71588 0.4306 0.10132 0.0
C295 C 0.70911 0.40789 0.13183 0.0
C296 C 0.65929 0.36068 0.14057 0.0
H297 H 0.53703 0.39032 0.03525 0.0
C298 C 0.56498 0.38371 0.01998 0.0
H299 H 0.61781 0.34978 0.01687 0.0
H300 H 0.45913 0.19902 0.13791 0.0
H301 H 0.38522 0.15673 0.0989 0.0
H302 H 0.39913 0.19383 0.04374 0.0
H303 H 0.48668 0.27381 0.02735 0.0
C304 C 0.588 0.35472 0.03137 0.0
C305 C 0.57824 0.333 0.06487 0.0
C306 C 0.52704 0.28561 0.07386 0.0
C307 C 0.51966 0.26296 0.10535 0.0
C308 C 0.46758 0.21669 0.114 0.0
C309 C 0.42468 0.19225 0.09191 0.0
C310 C 0.43247 0.21324 0.06088 0.0
C311 C 0.48293 0.25933 0.05182 0.0
H312 H 0.38776 0.41112 0.9219 0.0
C313 C 0.42147 0.43054 0.93894 0.0
H314 H 0.44772 0.46737 0.98423 0.0
H315 H 0.2969 0.56785 0.0096 0.0
H316 H 0.38809 0.64963 0.00568 0.0
H317 H 0.46885 0.64228 0.98842 0.0
H318 H 0.45835 0.55374 0.97264 0.0
C319 C 0.41345 0.44847 0.96748 0.0
C320 C 0.3628 0.45164 0.97607 0.0
C321 C 0.36914 0.50446 0.98353 0.0
C322 C 0.32267 0.50867 0.99407 0.0
C323 C 0.3306 0.56194 0.00165 0.0
C324 C 0.38281 0.60943 0.99947 0.0
C325 C 0.42819 0.60533 0.98948 0.0
C326 C 0.42158 0.5539 0.98098 0.0
H327 H 0.2255 0.44031 0.05671 0.0
C328 C 0.20797 0.4585 0.04093 0.0
H329 H 0.20905 0.48905 0.99469 0.0
H330 H 0.33615 0.34316 0.9673 0.0
H331 H 0.24492 0.26121 0.97285 0.0
H332 H 0.16401 0.26934 0.98916 0.0
H333 H 0.17408 0.35979 1.00043 0.0
C334 C 0.2223 0.46585 0.00966 0.0
C335 C 0.26977 0.46012 0.99755 0.0
C336 C 0.26318 0.4074 0.99009 0.0
C337 C 0.30976 0.40298 0.97966 0.0
C338 C 0.30214 0.34936 0.97405 0.0
C339 C 0.24998 0.30185 0.9774 0.0
C340 C 0.20442 0.30641 0.98667 0.0
C341 C 0.21074 0.35847 0.99308 0.0
H342 H 0.99012 0.41185 0.14911 0.0
C343 C 0.99401 0.41214 0.12311 0.0
H344 H 0.9547 0.37144 0.08043 0.0
H345 H 0.82944 0.22915 0.2182 0.0
H346 H 0.91376 0.22656 0.22765 0.0
H347 H 0.99124 0.26752 0.18854 0.0
H348 H 0.98532 0.31303 0.14015 0.0
C349 C 0.95259 0.37108 0.10645 0.0
C350 C 0.90024 0.32986 0.12362 0.0
C351 C 0.90235 0.29945 0.15048 0.0
C352 C 0.85624 0.27271 0.17201 0.0
C353 C 0.86196 0.24781 0.20026 0.0
C354 C 0.91034 0.24627 0.20607 0.0
C355 C 0.95406 0.26954 0.18413 0.0
C356 C 0.95034 0.29588 0.15662 0.0
H357 H 0.73874 0.16811 0.18882 0.0
C358 C 0.72847 0.19852 0.19791 0.0
H359 H 0.74827 0.28235 0.19718 0.0
H360 H 0.87834 0.37614 0.07158 0.0
H361 H 0.78997 0.3675 0.0582 0.0
H362 H 0.70753 0.31312 0.09259 0.0
H363 H 0.71364 0.26969 0.14166 0.0
C364 C 0.7602 0.25246 0.18941 0.0
C365 C 0.80641 0.27272 0.16532 0.0
C366 C 0.80198 0.29681 0.13625 0.0
C367 C 0.84907 0.32613 0.11564 0.0
C368 C 0.84389 0.35235 0.08779 0.0
C369 C 0.7933 0.34773 0.07978 0.0
C370 C 0.74693 0.31738 0.09924 0.0
C371 C 0.75106 0.29266 0.12734 0.0
H372 H 0.52876 0.78285 0.40575 0.0
C373 C 0.54005 0.75497 0.39398 0.0
H374 H 0.57415 0.74139 0.35215 0.0
H375 H 0.49369 0.88614 0.2764 0.0
H376 H 0.43433 0.79398 0.2554 0.0
H377 H 0.43705 0.71299 0.2772 0.0
H378 H 0.5002 0.72403 0.31977 0.0
C379 C 0.56781 0.77098 0.36592 0.0
C380 C 0.57415 0.82147 0.34919 0.0
C381 C 0.53845 0.81477 0.32335 0.0
C382 C 0.53754 0.86182 0.3104 0.0
C383 C 0.49837 0.85283 0.28626 0.0
C384 C 0.46321 0.79978 0.27424 0.0
C385 C 0.4648 0.75418 0.28647 0.0
C386 C 0.5015 0.76124 0.31089 0.0
H387 H 0.59086 0.96387 0.26359 0.0
C388 C 0.57945 0.98458 0.28167 0.0
H389 H 0.55853 0.98595 0.33025 0.0
H390 H 0.65126 0.84907 0.39604 0.0
H391 H 0.71437 0.94202 0.41585 0.0
H392 H 0.71454 0.0239 0.39289 0.0
H393 H 0.65161 0.01358 0.35009 0.0
C394 C 0.56949 0.96508 0.31203 0.0
C395 C 0.57387 0.91596 0.32263 0.0
C396 C 0.61135 0.92271 0.34745 0.0
C397 C 0.6114 0.87549 0.36074 0.0
C398 C 0.64915 0.88353 0.38548 0.0
C399 C 0.68572 0.93662 0.39694 0.0
C400 C 0.68581 0.98274 0.384 0.0
C401 C 0.64928 0.97617 0.35952 0.0
H402 H 0.83216 0.56158 0.51217 0.0
C403 C 0.80582 0.52846 0.52885 0.0
H404 H 0.72369 0.47569 0.5453 0.0
H405 H 0.68242 0.67013 0.48464 0.0
H406 H 0.73288 0.72483 0.53092 0.0
H407 H 0.78029 0.69217 0.56717 0.0
H408 H 0.77787 0.60483 0.55729 0.0
C409 C 0.75136 0.51124 0.53044 0.0
C410 C 0.72569 0.53311 0.50784 0.0
C411 C 0.72742 0.58408 0.51403 0.0
C412 C 0.69898 0.60227 0.49355 0.0
C413 C 0.70198 0.6537 0.5 0.0
C414 C 0.73109 0.68563 0.52632 0.0
C415 C 0.75789 0.66729 0.5467 0.0
C416 C 0.75623 0.61714 0.54074 0.0
H417 H 0.58014 0.56831 0.49076 0.0
C418 C 0.58424 0.57633 0.46505 0.0
H419 H 0.63298 0.58689 0.42379 0.0
H420 H 0.71697 0.43505 0.48807 0.0
H421 H 0.66838 0.38174 0.44112 0.0
H422 H 0.62249 0.4154 0.40445 0.0
H423 H 0.62072 0.49987 0.41586 0.0
C424 C 0.62908 0.58138 0.44966 0.0
C425 C 0.66822 0.56906 0.4672 0.0
C426 C 0.66973 0.52003 0.45978 0.0
C427 C 0.69775 0.50158 0.4804 0.0
C428 C 0.69659 0.45118 0.47317 0.0
C429 C 0.66907 0.42028 0.44622 0.0
C430 C 0.6429 0.43901 0.42569 0.0
C431 C 0.64244 0.48781 0.43247 0.0
H432 H 0.23434 0.73587 0.72853 0.0
C433 C 0.26041 0.7769 0.71795 0.0
H434 H 0.26775 0.83234 0.68114 0.0
H435 H 0.11488 0.63126 0.59 0.0
H436 H 0.20029 0.68116 0.55944 0.0
H437 H 0.28181 0.76333 0.58196 0.0
H438 H 0.27839 0.79583 0.63526 0.0
C439 C 0.24144 0.79232 0.69268 0.0
C440 C 0.18901 0.75093 0.67664 0.0
C441 C 0.19139 0.73324 0.64502 0.0
C442 C 0.14406 0.68619 0.63182 0.0
C443 C 0.1487 0.66762 0.60092 0.0
C444 C 0.1977 0.69577 0.58309 0.0
C445 C 0.2436 0.74202 0.59578 0.0
C446 C 0.24099 0.76026 0.62649 0.0
H447 H 0.02305 0.63566 0.60102 0.0
C448 C 0.01554 0.59849 0.61397 0.0
H449 H 0.03962 0.56647 0.65265 0.0
H450 H 0.16687 0.78227 0.73444 0.0
H451 H 0.0794 0.73589 0.76391 0.0
H452 H 0.99783 0.65333 0.74157 0.0
H453 H 1.00306 0.61692 0.68953 0.0
C454 C 0.04757 0.60322 0.6391 0.0
C455 C 0.09414 0.65768 0.65009 0.0
C456 C 0.09056 0.67822 0.68058 0.0
C457 C 0.13783 0.72523 0.69372 0.0
C458 C 0.13265 0.74565 0.72386 0.0
C459 C 0.0826 0.71971 0.74088 0.0
C460 C 0.03666 0.67326 0.72828 0.0
C461 C 0.0403 0.65264 0.69847 0.0
H462 H 0.51244 0.24003 0.90159 0.0
C463 C 0.49874 0.26552 0.88935 0.0
H464 H 0.44989 0.26927 0.85232 0.0
H465 H 0.46799 0.09558 0.76332 0.0
H466 H 0.49896 0.17589 0.72888 0.0
H467 H 0.51034 0.26384 0.74998 0.0
H468 H 0.48874 0.27124 0.80532 0.0
C469 C 0.46318 0.24368 0.86475 0.0
C470 C 0.44851 0.18816 0.85097 0.0
C471 C 0.46152 0.18461 0.81833 0.0
C472 C 0.45571 0.13399 0.80619 0.0
C473 C 0.47044 0.13227 0.77378 0.0
C474 C 0.48874 0.17835 0.75371 0.0
C475 C 0.49506 0.22782 0.76557 0.0
C476 C 0.48224 0.23136 0.7975 0.0
H477 H 0.3754 0.00622 0.78383 0.0
C478 C 0.40842 1.00145 0.79423 0.0
H479 H 0.47436 0.03325 0.82726 0.0
H480 H 0.40523 0.17575 0.91158 0.0
H481 H 0.36839 0.09312 0.94519 0.0
H482 H 0.36309 0.0071 0.92505 0.0
H483 H 0.39383 1.00295 0.87097 0.0
C484 C 0.44168 0.03804 0.81639 0.0
C485 C 0.43717 0.08705 0.82673 0.0
C486 C 0.42025 0.08937 0.85854 0.0
C487 C 0.42483 0.13952 0.87048 0.0
C488 C 0.405 0.13956 0.90183 0.0
C489 C 0.38322 0.09224 0.92124 0.0
C490 C 0.38016 0.04378 0.90989 0.0
C491 C 0.39821 0.04205 0.87889 0.0
H492 H 0.51872 0.74496 0.76698 0.0
C493 C 0.53095 0.78331 0.77995 0.0
H494 H 0.5757 0.83358 0.81889 0.0
H495 H 0.53411 0.62883 0.90461 0.0
H496 H 0.49466 0.67331 0.93623 0.0
H497 H 0.49148 0.7546 0.91566 0.0
H498 H 0.52675 0.79135 0.8628 0.0
C499 C 0.56406 0.7957 0.80562 0.0
C500 C 0.57563 0.75327 0.82007 0.0
C501 C 0.55556 0.73279 0.85146 0.0
C502 C 0.55832 0.68634 0.86372 0.0
C503 C 0.53504 0.665 0.89438 0.0
C504 C 0.51187 0.68997 0.91287 0.0
C505 C 0.51001 0.73572 0.90122 0.0
C506 C 0.53071 0.75652 0.87075 0.0
H507 H 0.63587 0.64265 0.89296 0.0
C508 C 0.60697 0.60477 0.88049 0.0
H509 H 0.55013 0.57048 0.8424 0.0
H510 H 0.62895 0.7898 0.76229 0.0
H511 H 0.67331 0.74856 0.73145 0.0
H512 H 0.67637 0.66704 0.75212 0.0
H513 H 0.63544 0.62626 0.80387 0.0
C514 C 0.57829 0.60786 0.85549 0.0
C515 C 0.58227 0.66113 0.84486 0.0
C516 C 0.60556 0.68395 0.81438 0.0
C517 C 0.60285 0.73041 0.80215 0.0
C518 C 0.62817 0.7534 0.77216 0.0
C519 C 0.65418 0.73044 0.75436 0.0
C520 C 0.65595 0.68453 0.76602 0.0
C521 C 0.63212 0.66143 0.79569 0.0
H522 H 0.96082 0.55103 0.07125 0.0
C523 C 0.99917 0.57547 0.05775 0.0
H524 H 0.03805 0.62381 0.01691 0.0
H525 H 0.84158 0.51162 0.92046 0.0
H526 H 0.91742 0.51028 0.89258 0.0
H527 H 1.00651 0.54066 0.91953 0.0
H528 H 0.02075 0.57352 0.974 0.0
C529 C 0.99889 0.59909 0.02962 0.0
C530 C 0.94598 0.58447 0.01276 0.0
C531 C 0.93802 0.56381 0.98087 0.0
C532 C 0.88585 0.54404 0.96569 0.0
C533 C 0.87972 0.52554 0.9335 0.0
C534 C 0.923 0.52473 0.91711 0.0
C535 C 0.97317 0.54198 0.93225 0.0
C536 C 0.9808 0.56113 0.96369 0.0
H537 H 0.7702 0.58165 0.971 0.0
C538 C 0.75498 0.53944 0.96261 0.0
H539 H 0.76846 0.47151 0.95979 0.0
H540 H 0.95105 0.63595 0.06969 0.0
H541 H 0.87321 0.63089 0.09924 0.0
H542 H 0.77865 0.58073 0.07708 0.0
H543 H 0.76187 0.53799 0.02477 0.0
C544 C 0.78469 0.51417 0.96773 0.0
C545 C 0.84073 0.54223 0.98276 0.0
C546 C 0.84872 0.56316 0.01455 0.0
C547 C 0.9022 0.58724 0.02874 0.0
C548 C 0.91044 0.61338 0.05894 0.0
C549 C 0.86626 0.61132 0.07598 0.0
C550 C 0.81312 0.58346 0.0634 0.0
C551 C 0.80418 0.55953 0.0331 0.0
H552 H 0.37037 0.9676 0.24419 0.0
C553 C 0.40323 0.98451 0.22615 0.0
H554 H 0.42772 0.97584 0.17957 0.0
H555 H 0.22154 0.71823 0.20374 0.0
H556 H 0.26948 0.71629 0.25161 0.0
H557 H 0.35187 0.80127 0.27076 0.0
H558 H 0.38755 0.88828 0.24212 0.0
C559 C 0.39485 0.95901 0.19761 0.0
C560 C 0.34167 0.90808 0.18881 0.0
C561 C 0.32249 0.85692 0.20563 0.0
C562 C 0.27571 0.80735 0.19414 0.0
C563 C 0.25717 0.75689 0.21127 0.0
C564 C 0.28425 0.75513 0.23877 0.0
C565 C 0.33068 0.80301 0.24953 0.0
C566 C 0.35025 0.85314 0.23303 0.0
H567 H 0.27359 0.76007 0.11925 0.0
C568 C 0.23047 0.73467 0.12688 0.0
H569 H 0.16945 0.72867 0.15966 0.0
H570 H 0.36346 0.99936 0.15274 0.0
H571 H 0.31529 1.00017 0.10469 0.0
H572 H 0.23651 0.91337 0.08399 0.0
H573 H 0.20519 0.82511 0.11143 0.0
C574 C 0.21062 0.75473 0.1494 0.0
C575 C 0.2499 0.80833 0.16519 0.0
C576 C 0.26743 0.85953 0.14922 0.0
C577 C 0.3131 0.90945 0.16109 0.0
C578 C 0.32956 0.96002 0.14455 0.0
C579 C 0.30212 0.96112 0.11701 0.0
C580 C 0.25776 0.91225 0.10535 0.0
C581 C 0.24038 0.86192 0.12121 0.0
H582 H 0.43265 0.17821 0.30877 0.0
C583 C 0.4759 0.20642 0.30246 0.0
H584 H 0.54506 0.28701 0.30808 0.0
H585 H 0.35309 0.34985 0.34555 0.0
H586 H 0.32003 0.32443 0.29099 0.0
H587 H 0.3579 0.28028 0.25549 0.0
H588 H 0.42804 0.26015 0.27448 0.0
C589 C 0.501 0.25951 0.31267 0.0
C590 C 0.47323 0.28089 0.33447 0.0
C591 C 0.43321 0.29349 0.32269 0.0
C592 C 0.41329 0.32141 0.34268 0.0
C593 C 0.37149 0.33121 0.33083 0.0
C594 C 0.35182 0.31636 0.29969 0.0
C595 C 0.37301 0.29133 0.27974 0.0
C596 C 0.41323 0.27992 0.29097 0.0
H597 H 0.4562 0.43787 0.35365 0.0
C598 C 0.44089 0.43029 0.37828 0.0
H599 H 0.41185 0.37269 0.41654 0.0
H600 H 0.54253 0.25452 0.36611 0.0
H601 H 0.57195 0.27589 0.42143 0.0
H602 H 0.53921 0.32619 0.45562 0.0
H603 H 0.47786 0.35642 0.43466 0.0
C604 C 0.42602 0.38068 0.39176 0.0
C605 C 0.43541 0.33919 0.37387 0.0
C606 C 0.47148 0.32194 0.38659 0.0
C607 C 0.49048 0.29294 0.36683 0.0
C608 C 0.5271 0.2769 0.37999 0.0
C609 C 0.54411 0.28865 0.41174 0.0
C610 C 0.52562 0.31692 0.431 0.0
C611 C 0.49035 0.33411 0.41861 0.0
H612 H 0.02361 0.38059 0.5757 0.0
C613 C 0.02096 0.41261 0.5622 0.0
H614 H 0.05159 0.46827 0.52289 0.0
H615 H 0.28368 0.47155 0.5338 0.0
H616 H 0.29196 0.51111 0.58654 0.0
H617 H 0.21219 0.51123 0.61245 0.0
H618 H 0.1238 0.47251 0.5855 0.0
C619 C 0.05576 0.4379 0.53719 0.0
C620 C 0.09883 0.42459 0.5261 0.0
C621 C 0.1499 0.44612 0.54252 0.0
C622 C 0.1959 0.44563 0.52757 0.0
C623 C 0.24711 0.46991 0.54399 0.0
C624 C 0.25251 0.49286 0.57436 0.0
C625 C 0.2076 0.49293 0.58895 0.0
C626 C 0.15701 0.47048 0.5732 0.0
H627 H 0.23105 0.48439 0.44403 0.0
C628 C 0.25839 0.46981 0.4525 0.0
H629 H 0.27044 0.42372 0.48832 0.0
H630 H 1.00469 0.37257 0.49034 0.0
H631 H 0.99452 0.32805 0.4387 0.0
H632 H 0.07337 0.325 0.41349 0.0
H633 H 0.16312 0.36696 0.43963 0.0
C634 C 0.24178 0.43483 0.47778 0.0
C635 C 0.19069 0.42355 0.49621 0.0
C636 C 0.13805 0.3972 0.48127 0.0
C637 C 0.09235 0.39826 0.49605 0.0
C638 C 0.04077 0.37314 0.48006 0.0
C639 C 0.03432 0.34724 0.45053 0.0
C640 C 0.07874 0.34556 0.43632 0.0
C641 C 0.13006 0.37008 0.45143 0.0
H642 H 0.62984 0.0265 0.73887 0.0
C643 C 0.59145 0.02027 0.72856 0.0
H644 H 0.55475 0.04916 0.69529 0.0
H645 H 0.73839 0.29515 0.67796 0.0
H646 H 0.67516 0.3055 0.71364 0.0
H647 H 0.60205 0.22511 0.74314 0.0
H648 H 0.58672 0.13196 0.73424 0.0
C649 C 0.59312 0.05445 0.7051 0.0
C650 C 0.64547 0.10345 0.69321 0.0
C651 C 0.65498 0.15766 0.69961 0.0
C652 C 0.69973 0.20473 0.68426 0.0
C653 C 0.70603 0.258 0.6896 0.0
C654 C 0.67013 0.26465 0.71008 0.0
C655 C 0.62835 0.21913 0.72638 0.0
C656 C 0.62027 0.16607 0.72113 0.0
H657 H 0.746 0.23189 0.60248 0.0
C658 C 0.77989 0.26152 0.61734 0.0
H659 H 0.81484 0.27829 0.66357 0.0
H660 H 0.63849 0.00545 0.67486 0.0
H661 H 0.70217 0.99509 0.63945 0.0
H662 H 0.78297 0.07734 0.61538 0.0
H663 H 0.80006 0.1706 0.62619 0.0
C664 C 0.78308 0.2479 0.64791 0.0
C665 C 0.73625 0.19782 0.66341 0.0
C666 C 0.72787 0.14386 0.65774 0.0
C667 C 0.68199 0.09649 0.67232 0.0
C668 C 0.67322 0.04292 0.66503 0.0
C669 C 0.70942 0.03638 0.64467 0.0
C670 C 0.75488 0.0827 0.63108 0.0
C671 C 0.76419 0.13593 0.63743 0.0
loop_
_geom_bond_atom_site_label_1
_geom_bond_atom_site_label_2
_geom_bond_distance
_geom_bond_site_symmetry_2
_ccdc_geom_bond_type
Fe0 O2 1.918 . S
Fe0 O5 1.997 . S
Fe0 O6 2.002 . S
Fe0 O11 1.976 . S
Fe0 O14 1.996 . S
Fe1 O2 1.918 . S
Fe1 O9 1.997 . S
Fe1 O12 1.996 . S
Fe1 O16 1.976 . S
Fe1 O19 2.002 . S
O2 Fe0 1.918 . S
O2 Fe1 1.918 . S
O2 Fe3 1.918 . S
Fe3 O2 1.918 . S
Fe3 O4 2.002 . S
Fe3 O13 1.976 . S
Fe3 O17 1.996 . S
Fe3 O20 1.997 . S
O4 Fe3 2.002 . S
O4 C21 1.295 . S
O5 Fe0 1.997 . S
O5 C21 1.235 . S
O6 Fe0 2.002 . S
O6 C7 1.295 . S
C7 O6 1.295 . S
C7 O9 1.235 . S
C8 O13 1.287 . S
C8 O14 1.255 . S
O9 Fe1 1.997 . S
O9 C7 1.235 . S
C10 O16 1.287 . S
C10 O17 1.255 . S
O11 Fe0 1.976 . S
O11 C18 1.287 . S
O12 Fe1 1.996 . S
O12 C18 1.255 . S
O13 Fe3 1.976 . S
O13 C8 1.287 . S
O14 Fe0 1.996 . S
O14 C8 1.255 . S
C15 O19 1.295 . S
C15 O20 1.235 . S
O16 Fe1 1.976 . S
O16 C10 1.287 . S
O17 Fe3 1.996 . S
O17 C10 1.255 . S
C18 O11 1.287 . S
C18 O12 1.255 . S
O19 Fe1 2.002 . S
O19 C15 1.295 . S
O20 Fe3 1.997 . S
O20 C15 1.235 . S
C21 O4 1.295 . S
C21 O5 1.235 . S
Fe22 O24 1.918 . S
Fe22 O27 1.997 . S
Fe22 O28 2.002 . S
Fe22 O33 1.976 . S
Fe22 O36 1.996 . S
Fe23 O24 1.918 . S
Fe23 O31 1.997 . S
Fe23 O34 1.996 . S
Fe23 O38 1.976 . S
Fe23 O41 2.002 . S
O24 Fe22 1.918 . S
O24 Fe23 1.918 . S
O24 Fe25 1.918 . S
Fe25 O24 1.918 . S
Fe25 O26 2.002 . S
Fe25 O35 1.976 . S
Fe25 O39 1.996 . S
Fe25 O42 1.997 . S
O26 Fe25 2.002 . S
O26 C43 1.295 . S
O27 Fe22 1.997 . S
O27 C43 1.235 . S
O28 Fe22 2.002 . S
O28 C29 1.295 . S
C29 O28 1.295 . S
C29 O31 1.235 . S
C30 O35 1.287 . S
C30 O36 1.255 . S
O31 Fe23 1.997 . S
O31 C29 1.235 . S
C32 O38 1.287 . S
C32 O39 1.255 . S
O33 Fe22 1.976 . S
O33 C40 1.287 . S
O34 Fe23 1.996 . S
O34 C40 1.255 . S
O35 Fe25 1.976 . S
O35 C30 1.287 . S
O36 Fe22 1.996 . S
O36 C30 1.255 . S
C37 O41 1.295 . S
C37 O42 1.235 . S
O38 Fe23 1.976 . S
O38 C32 1.287 . S
O39 Fe25 1.996 . S
O39 C32 1.255 . S
C40 O33 1.287 . S
C40 O34 1.255 . S
O41 Fe23 2.002 . S
O41 C37 1.295 . S
O42 Fe25 1.997 . S
O42 C37 1.235 . S
C43 O26 1.295 . S
C43 O27 1.235 . S
Fe44 O46 1.918 . S
Fe44 O49 1.997 . S
Fe44 O50 2.002 . S
Fe44 O55 1.976 . S
Fe44 O58 1.996 . S
Fe45 O46 1.918 . S
Fe45 O53 1.997 . S
Fe45 O56 1.996 . S
Fe45 O60 1.976 . S
Fe45 O63 2.002 . S
O46 Fe44 1.918 . S
O46 Fe45 1.918 . S
O46 Fe47 1.918 . S
Fe47 O46 1.918 . S
Fe47 O48 2.002 . S
Fe47 O57 1.976 . S
Fe47 O61 1.996 . S
Fe47 O64 1.997 . S
O48 Fe47 2.002 . S
O48 C65 1.295 . S
O49 Fe44 1.997 . S
O49 C65 1.235 . S
O50 Fe44 2.002 . S
O50 C51 1.295 . S
C51 O50 1.295 . S
C51 O53 1.235 . S
C52 O57 1.287 . S
C52 O58 1.255 . S
O53 Fe45 1.997 . S
O53 C51 1.235 . S
C54 O60 1.287 . S
C54 O61 1.255 . S
O55 Fe44 1.976 . S
O55 C62 1.287 . S
O56 Fe45 1.996 . S
O56 C62 1.255 . S
O57 Fe47 1.976 . S
O57 C52 1.287 . S
O58 Fe44 1.996 . S
O58 C52 1.255 . S
C59 O63 1.295 . S
C59 O64 1.235 . S
O60 Fe45 1.976 . S
O60 C54 1.287 . S
O61 Fe47 1.996 . S
O61 C54 1.255 . S
C62 O55 1.287 . S
C62 O56 1.255 . S
O63 Fe45 2.002 . S
O63 C59 1.295 . S
O64 Fe47 1.997 . S
O64 C59 1.235 . S
C65 O48 1.295 . S
C65 O49 1.235 . S
Fe66 O68 1.918 . S
Fe66 O71 1.997 . S
Fe66 O72 2.002 . S
Fe66 O77 1.976 . S
Fe66 O80 1.996 . S
Fe67 O68 1.918 . S
Fe67 O75 1.997 . S
Fe67 O78 1.996 . S
Fe67 O82 1.976 . S
Fe67 O85 2.002 . S
O68 Fe66 1.918 . S
O68 Fe67 1.918 . S
O68 Fe69 1.918 . S
Fe69 O68 1.918 . S
Fe69 O70 2.002 . S
Fe69 O79 1.976 . S
Fe69 O83 1.996 . S
Fe69 O86 1.997 . S
O70 Fe69 2.002 . S
O70 C87 1.295 . S
O71 Fe66 1.997 . S
O71 C87 1.235 . S
O72 Fe66 2.002 . S
O72 C73 1.295 . S
C73 O72 1.295 . S
C73 O75 1.235 . S
C74 O79 1.287 . S
C74 O80 1.255 . S
O75 Fe67 1.997 . S
O75 C73 1.235 . S
C76 O82 1.287 . S
C76 O83 1.255 . S
O77 Fe66 1.976 . S
O77 C84 1.287 . S
O78 Fe67 1.996 . S
O78 C84 1.255 . S
O79 Fe69 1.976 . S
O79 C74 1.287 . S
O80 Fe66 1.996 . S
O80 C74 1.255 . S
C81 O85 1.295 . S
C81 O86 1.235 . S
O82 Fe67 1.976 . S
O82 C76 1.287 . S
O83 Fe69 1.996 . S
O83 C76 1.255 . S
C84 O77 1.287 . S
C84 O78 1.255 . S
O85 Fe67 2.002 . S
O85 C81 1.295 . S
O86 Fe69 1.997 . S
O86 C81 1.235 . S
C87 O70 1.295 . S
C87 O71 1.235 . S
Fe88 O90 1.918 . S
Fe88 O93 1.997 . S
Fe88 O94 2.002 . S
Fe88 O99 1.976 . S
Fe88 O102 1.996 . S
Fe89 O90 1.918 . S
Fe89 O97 1.997 . S
Fe89 O100 1.996 . S
Fe89 O104 1.976 . S
Fe89 O107 2.002 . S
O90 Fe88 1.918 . S
O90 Fe89 1.918 . S
O90 Fe91 1.918 . S
Fe91 O90 1.918 . S
Fe91 O92 2.002 . S
Fe91 O101 1.976 . S
Fe91 O105 1.996 . S
Fe91 O108 1.997 . S
O92 Fe91 2.002 . S
O92 C109 1.295 . S
O93 Fe88 1.997 . S
O93 C109 1.235 . S
O94 Fe88 2.002 . S
O94 C95 1.295 . S
C95 O94 1.295 . S
C95 O97 1.235 . S
C96 O101 1.287 . S
C96 O102 1.255 . S
O97 Fe89 1.997 . S
O97 C95 1.235 . S
C98 O104 1.287 . S
C98 O105 1.255 . S
O99 Fe88 1.976 . S
O99 C106 1.287 . S
O100 Fe89 1.996 . S
O100 C106 1.255 . S
O101 Fe91 1.976 . S
O101 C96 1.287 . S
O102 Fe88 1.996 . S
O102 C96 1.255 . S
C103 O107 1.295 . S
C103 O108 1.235 . S
O104 Fe89 1.976 . S
O104 C98 1.287 . S
O105 Fe91 1.996 . S
O105 C98 1.255 . S
C106 O99 1.287 . S
C106 O100 1.255 . S
O107 Fe89 2.002 . S
O107 C103 1.295 . S
O108 Fe91 1.997 . S
O108 C103 1.235 . S
C109 O92 1.295 . S
C109 O93 1.235 . S
Fe110 O112 1.918 . S
Fe110 O115 1.997 . S
Fe110 O116 2.002 . S
Fe110 O121 1.976 . S
Fe110 O124 1.996 . S
Fe111 O112 1.918 . S
Fe111 O119 1.997 . S
Fe111 O122 1.996 . S
Fe111 O126 1.976 . S
Fe111 O129 2.002 . S
O112 Fe110 1.918 . S
O112 Fe111 1.918 . S
O112 Fe113 1.918 . S
Fe113 O112 1.918 . S
Fe113 O114 2.002 . S
Fe113 O123 1.976 . S
Fe113 O127 1.996 . S
Fe113 O130 1.997 . S
O114 Fe113 2.002 . S
O114 C131 1.295 . S
O115 Fe110 1.997 . S
O115 C131 1.235 . S
O116 Fe110 2.002 . S
O116 C117 1.295 . S
C117 O116 1.295 . S
C117 O119 1.235 . S
C118 O123 1.287 . S
C118 O124 1.255 . S
O119 Fe111 1.997 . S
O119 C117 1.235 . S
C120 O126 1.287 . S
C120 O127 1.255 . S
O121 Fe110 1.976 . S
O121 C128 1.287 . S
O122 Fe111 1.996 . S
O122 C128 1.255 . S
O123 Fe113 1.976 . S
O123 C118 1.287 . S
O124 Fe110 1.996 . S
O124 C118 1.255 . S
C125 O129 1.295 . S
C125 O130 1.235 . S
O126 Fe111 1.976 . S
O126 C120 1.287 . S
O127 Fe113 1.996 . S
O127 C120 1.255 . S
C128 O121 1.287 . S
C128 O122 1.255 . S
O129 Fe111 2.002 . S
O129 C125 1.295 . S
O130 Fe113 1.997 . S
O130 C125 1.235 . S
C131 O114 1.295 . S
C131 O115 1.235 . S
H132 C133 0.951 . S
C133 H132 0.951 . S
C133 C139 1.265 . S
H134 C139 0.950 . S
H135 C143 0.949 . S
H136 C144 0.950 . S
H137 C145 0.951 . S
H138 C146 0.951 . S
C139 C133 1.265 . S
C139 H134 0.950 . S
C139 C140 1.478 . S
C140 C139 1.478 . S
C140 C141 1.397 . S
C140 C157 1.394 . S
C141 C140 1.397 . S
C141 C142 1.438 . S
C141 C146 1.429 . S
C142 C141 1.438 . S
C142 C143 1.428 . S
C142 C155 1.394 . S
C143 H135 0.949 . S
C143 C142 1.428 . S
C143 C144 1.345 . S
C144 H136 0.950 . S
C144 C143 1.345 . S
C144 C145 1.424 . S
C145 H137 0.951 . S
C145 C144 1.424 . S
C145 C146 1.347 . S
C146 H138 0.951 . S
C146 C141 1.429 . S
C146 C145 1.347 . S
H147 C148 0.951 . S
C148 H147 0.951 . S
C148 C154 1.265 . S
H149 C154 0.950 . S
H150 C158 0.949 . S
H151 C159 0.950 . S
H152 C160 0.951 . S
H153 C161 0.951 . S
C154 C148 1.265 . S
C154 H149 0.950 . S
C154 C155 1.478 . S
C155 C142 1.394 . S
C155 C154 1.478 . S
C155 C156 1.397 . S
C156 C155 1.397 . S
C156 C157 1.438 . S
C156 C161 1.429 . S
C157 C140 1.394 . S
C157 C156 1.438 . S
C157 C158 1.428 . S
C158 H150 0.949 . S
C158 C157 1.428 . S
C158 C159 1.345 . S
C159 H151 0.950 . S
C159 C158 1.345 . S
C159 C160 1.424 . S
C160 H152 0.951 . S
C160 C159 1.424 . S
C160 C161 1.347 . S
C161 H153 0.951 . S
C161 C156 1.429 . S
C161 C160 1.347 . S
H162 C163 0.951 . S
C163 H162 0.951 . S
C163 C169 1.265 . S
H164 C169 0.950 . S
H165 C173 0.949 . S
H166 C174 0.950 . S
H167 C175 0.951 . S
H168 C176 0.951 . S
C169 C163 1.265 . S
C169 H164 0.950 . S
C169 C170 1.478 . S
C170 C169 1.478 . S
C170 C171 1.397 . S
C170 C187 1.394 . S
C171 C170 1.397 . S
C171 C172 1.438 . S
C171 C176 1.429 . S
C172 C171 1.438 . S
C172 C173 1.428 . S
C172 C185 1.394 . S
C173 H165 0.949 . S
C173 C172 1.428 . S
C173 C174 1.345 . S
C174 H166 0.950 . S
C174 C173 1.345 . S
C174 C175 1.424 . S
C175 H167 0.951 . S
C175 C174 1.424 . S
C175 C176 1.347 . S
C176 H168 0.951 . S
C176 C171 1.429 . S
C176 C175 1.347 . S
H177 C178 0.951 . S
C178 H177 0.951 . S
C178 C184 1.265 . S
H179 C184 0.950 . S
H180 C188 0.949 . S
H181 C189 0.950 . S
H182 C190 0.951 . S
H183 C191 0.951 . S
C184 C178 1.265 . S
C184 H179 0.950 . S
C184 C185 1.478 . S
C185 C172 1.394 . S
C185 C184 1.478 . S
C185 C186 1.397 . S
C186 C185 1.397 . S
C186 C187 1.438 . S
C186 C191 1.429 . S
C187 C170 1.394 . S
C187 C186 1.438 . S
C187 C188 1.428 . S
C188 H180 0.949 . S
C188 C187 1.428 . S
C188 C189 1.345 . S
C189 H181 0.950 . S
C189 C188 1.345 . S
C189 C190 1.424 . S
C190 H182 0.951 . S
C190 C189 1.424 . S
C190 C191 1.347 . S
C191 H183 0.951 . S
C191 C186 1.429 . S
C191 C190 1.347 . S
H192 C193 0.951 . S
C193 H192 0.951 . S
C193 C199 1.265 . S
H194 C199 0.950 . S
H195 C203 0.949 . S
H196 C204 0.950 . S
H197 C205 0.951 . S
H198 C206 0.951 . S
C199 C193 1.265 . S
C199 H194 0.950 . S
C199 C200 1.478 . S
C200 C199 1.478 . S
C200 C201 1.397 . S
C200 C217 1.394 . S
C201 C200 1.397 . S
C201 C202 1.438 . S
C201 C206 1.429 . S
C202 C201 1.438 . S
C202 C203 1.428 . S
C202 C215 1.394 . S
C203 H195 0.949 . S
C203 C202 1.428 . S
C203 C204 1.345 . S
C204 H196 0.950 . S
C204 C203 1.345 . S
C204 C205 1.424 . S
C205 H197 0.951 . S
C205 C204 1.424 . S
C205 C206 1.347 . S
C206 H198 0.951 . S
C206 C201 1.429 . S
C206 C205 1.347 . S
H207 C208 0.951 . S
C208 H207 0.951 . S
C208 C214 1.265 . S
H209 C214 0.950 . S
H210 C218 0.949 . S
H211 C219 0.950 . S
H212 C220 0.951 . S
H213 C221 0.951 . S
C214 C208 1.265 . S
C214 H209 0.950 . S
C214 C215 1.478 . S
C215 C202 1.394 . S
C215 C214 1.478 . S
C215 C216 1.397 . S
C216 C215 1.397 . S
C216 C217 1.438 . S
C216 C221 1.429 . S
C217 C200 1.394 . S
C217 C216 1.438 . S
C217 C218 1.428 . S
C218 H210 0.949 . S
C218 C217 1.428 . S
C218 C219 1.345 . S
C219 H211 0.950 . S
C219 C218 1.345 . S
C219 C220 1.424 . S
C220 H212 0.951 . S
C220 C219 1.424 . S
C220 C221 1.347 . S
C221 H213 0.951 . S
C221 C216 1.429 . S
C221 C220 1.347 . S
H222 C223 0.951 . S
C223 H222 0.951 . S
C223 C229 1.265 . S
H224 C229 0.950 . S
H225 C233 0.949 . S
H226 C234 0.950 . S
H227 C235 0.951 . S
H228 C236 0.951 . S
C229 C223 1.265 . S
C229 H224 0.950 . S
C229 C230 1.478 . S
C230 C229 1.478 . S
C230 C231 1.397 . S
C230 C247 1.394 . S
C231 C230 1.397 . S
C231 C232 1.438 . S
C231 C236 1.429 . S
C232 C231 1.438 . S
C232 C233 1.428 . S
C232 C245 1.394 . S
C233 H225 0.949 . S
C233 C232 1.428 . S
C233 C234 1.345 . S
C234 H226 0.950 . S
C234 C233 1.345 . S
C234 C235 1.424 . S
C235 H227 0.951 . S
C235 C234 1.424 . S
C235 C236 1.347 . S
C236 H228 0.951 . S
C236 C231 1.429 . S
C236 C235 1.347 . S
H237 C238 0.951 . S
C238 H237 0.951 . S
C238 C244 1.265 . S
H239 C244 0.950 . S
H240 C248 0.949 . S
H241 C249 0.950 . S
H242 C250 0.951 . S
H243 C251 0.951 . S
C244 C238 1.265 . S
C244 H239 0.950 . S
C244 C245 1.478 . S
C245 C232 1.394 . S
C245 C244 1.478 . S
C245 C246 1.397 . S
C246 C245 1.397 . S
C246 C247 1.438 . S
C246 C251 1.429 . S
C247 C230 1.394 . S
C247 C246 1.438 . S
C247 C248 1.428 . S
C248 H240 0.949 . S
C248 C247 1.428 . S
C248 C249 1.345 . S
C249 H241 0.950 . S
C249 C248 1.345 . S
C249 C250 1.424 . S
C250 H242 0.951 . S
C250 C249 1.424 . S
C250 C251 1.347 . S
C251 H243 0.951 . S
C251 C246 1.429 . S
C251 C250 1.347 . S
H252 C253 0.950 1_554 S
C253 H252 0.950 1_556 S
C253 C259 1.265 . S
H254 C259 0.950 . S
H255 C263 0.949 . S
H256 C264 0.950 . S
H257 C265 0.951 . S
H258 C266 0.951 . S
C259 C253 1.265 . S
C259 H254 0.950 . S
C259 C260 1.478 . S
C260 C259 1.478 . S
C260 C261 1.397 . S
C260 C277 1.394 . S
C261 C260 1.397 . S
C261 C262 1.438 . S
C261 C266 1.429 . S
C262 C261 1.438 . S
C262 C263 1.428 . S
C262 C275 1.394 . S
C263 H255 0.949 . S
C263 C262 1.428 . S
C263 C264 1.345 . S
C264 H256 0.950 . S
C264 C263 1.345 . S
C264 C265 1.424 . S
C265 H257 0.951 . S
C265 C264 1.424 . S
C265 C266 1.347 . S
C266 H258 0.951 . S
C266 C261 1.429 . S
C266 C265 1.347 . S
H267 C268 0.951 . S
C268 H267 0.951 . S
C268 C274 1.265 . S
H269 C274 0.950 . S
H270 C278 0.949 . S
H271 C279 0.950 . S
H272 C280 0.951 . S
H273 C281 0.951 . S
C274 C268 1.265 . S
C274 H269 0.950 . S
C274 C275 1.478 . S
C275 C262 1.394 . S
C275 C274 1.478 . S
C275 C276 1.397 . S
C276 C275 1.397 . S
C276 C277 1.438 . S
C276 C281 1.429 . S
C277 C260 1.394 . S
C277 C276 1.438 . S
C277 C278 1.428 . S
C278 H270 0.949 . S
C278 C277 1.428 . S
C278 C279 1.345 . S
C279 H271 0.950 . S
C279 C278 1.345 . S
C279 C280 1.424 . S
C280 H272 0.951 . S
C280 C279 1.424 . S
C280 C281 1.347 . S
C281 H273 0.951 . S
C281 C276 1.429 . S
C281 C280 1.347 . S
H282 C283 0.951 . S
C283 H282 0.951 . S
C283 C289 1.265 . S
H284 C289 0.950 . S
H285 C293 0.949 . S
H286 C294 0.950 . S
H287 C295 0.951 . S
H288 C296 0.951 . S
C289 C283 1.265 . S
C289 H284 0.950 . S
C289 C290 1.478 . S
C290 C289 1.478 . S
C290 C291 1.397 . S
C290 C307 1.394 . S
C291 C290 1.397 . S
C291 C292 1.438 . S
C291 C296 1.429 . S
C292 C291 1.438 . S
C292 C293 1.428 . S
C292 C305 1.394 . S
C293 H285 0.949 . S
C293 C292 1.428 . S
C293 C294 1.345 . S
C294 H286 0.950 . S
C294 C293 1.345 . S
C294 C295 1.424 . S
C295 H287 0.951 . S
C295 C294 1.424 . S
C295 C296 1.347 . S
C296 H288 0.951 . S
C296 C291 1.429 . S
C296 C295 1.347 . S
H297 C298 0.951 . S
C298 H297 0.951 . S
C298 C304 1.265 . S
H299 C304 0.950 . S
H300 C308 0.949 . S
H301 C309 0.950 . S
H302 C310 0.951 . S
H303 C311 0.951 . S
C304 C298 1.265 . S
C304 H299 0.950 . S
C304 C305 1.478 . S
C305 C292 1.394 . S
C305 C304 1.478 . S
C305 C306 1.397 . S
C306 C305 1.397 . S
C306 C307 1.438 . S
C306 C311 1.429 . S
C307 C290 1.394 . S
C307 C306 1.438 . S
C307 C308 1.428 . S
C308 H300 0.949 . S
C308 C307 1.428 . S
C308 C309 1.345 . S
C309 H301 0.950 . S
C309 C308 1.345 . S
C309 C310 1.424 . S
C310 H302 0.951 . S
C310 C309 1.424 . S
C310 C311 1.347 . S
C311 H303 0.951 . S
C311 C306 1.429 . S
C311 C310 1.347 . S
H312 C313 0.951 . S
C313 H312 0.951 . S
C313 C319 1.265 . S
H314 C319 0.950 . S
H315 C323 0.949 . S
H316 C324 0.950 . S
H317 C325 0.951 . S
H318 C326 0.951 . S
C319 C313 1.265 . S
C319 H314 0.950 . S
C319 C320 1.478 . S
C320 C319 1.478 . S
C320 C321 1.397 . S
C320 C337 1.394 . S
C321 C320 1.397 . S
C321 C322 1.427 1_556 S
C321 C326 1.429 . S
C322 C321 1.427 1_554 S
C322 C323 1.430 . S
C322 C335 1.402 . S
C323 H315 0.949 . S
C323 C322 1.430 . S
C323 C324 1.345 1_554 S
C324 H316 0.950 . S
C324 C323 1.345 1_556 S
C324 C325 1.424 . S
C325 H317 0.951 . S
C325 C324 1.424 . S
C325 C326 1.347 . S
C326 H318 0.951 . S
C326 C321 1.429 . S
C326 C325 1.347 . S
H327 C328 0.951 . S
C328 H327 0.951 . S
C328 C334 1.265 . S
H329 C334 0.950 . S
H330 C338 0.949 . S
H331 C339 0.951 . S
H332 C340 0.951 . S
H333 C341 0.951 . S
C334 C328 1.265 . S
C334 H329 0.950 . S
C334 C335 1.478 . S
C335 C322 1.402 . S
C335 C334 1.478 . S
C335 C336 1.397 . S
C336 C335 1.397 . S
C336 C337 1.438 1_554 S
C336 C341 1.429 . S
C337 C320 1.394 . S
C337 C336 1.438 1_556 S
C337 C338 1.428 . S
C338 H330 0.949 . S
C338 C337 1.428 . S
C338 C339 1.348 . S
C339 H331 0.951 . S
C339 C338 1.348 . S
C339 C340 1.420 1_556 S
C340 H332 0.951 . S
C340 C339 1.420 1_554 S
C340 C341 1.347 . S
C341 H333 0.951 . S
C341 C336 1.429 . S
C341 C340 1.347 . S
H342 C343 0.951 . S
C343 H342 0.951 . S
C343 C349 1.265 1_455 S
H344 C349 0.950 . S
H345 C353 0.949 . S
H346 C354 0.950 . S
H347 C355 0.951 . S
H348 C356 0.951 . S
C349 C343 1.265 1_655 S
C349 H344 0.950 . S
C349 C350 1.478 . S
C350 C349 1.478 . S
C350 C351 1.397 . S
C350 C367 1.394 . S
C351 C350 1.397 . S
C351 C352 1.438 . S
C351 C356 1.429 . S
C352 C351 1.438 . S
C352 C353 1.428 . S
C352 C365 1.394 . S
C353 H345 0.949 . S
C353 C352 1.428 . S
C353 C354 1.345 . S
C354 H346 0.950 . S
C354 C353 1.345 . S
C354 C355 1.424 . S
C355 H347 0.951 . S
C355 C354 1.424 . S
C355 C356 1.347 . S
C356 H348 0.951 . S
C356 C351 1.429 . S
C356 C355 1.347 . S
H357 C358 0.951 . S
C358 H357 0.951 . S
C358 C364 1.265 . S
H359 C364 0.950 . S
H360 C368 0.949 . S
H361 C369 0.950 . S
H362 C370 0.951 . S
H363 C371 0.951 . S
C364 C358 1.265 . S
C364 H359 0.950 . S
C364 C365 1.478 . S
C365 C352 1.394 . S
C365 C364 1.478 . S
C365 C366 1.397 . S
C366 C365 1.397 . S
C366 C367 1.438 . S
C366 C371 1.429 . S
C367 C350 1.394 . S
C367 C366 1.438 . S
C367 C368 1.428 . S
C368 H360 0.949 . S
C368 C367 1.428 . S
C368 C369 1.345 . S
C369 H361 0.950 . S
C369 C368 1.345 . S
C369 C370 1.424 . S
C370 H362 0.951 . S
C370 C369 1.424 . S
C370 C371 1.347 . S
C371 H363 0.951 . S
C371 C366 1.429 . S
C371 C370 1.347 . S
H372 C373 0.951 . S
C373 H372 0.951 . S
C373 C379 1.265 . S
H374 C379 0.950 . S
H375 C383 0.949 . S
H376 C384 0.950 . S
H377 C385 0.951 . S
H378 C386 0.951 . S
C379 C373 1.265 . S
C379 H374 0.950 . S
C379 C380 1.478 . S
C380 C379 1.478 . S
C380 C381 1.397 . S
C380 C397 1.394 . S
C381 C380 1.397 . S
C381 C382 1.438 . S
C381 C386 1.429 . S
C382 C381 1.438 . S
C382 C383 1.428 . S
C382 C395 1.394 . S
C383 H375 0.949 . S
C383 C382 1.428 . S
C383 C384 1.345 . S
C384 H376 0.950 . S
C384 C383 1.345 . S
C384 C385 1.424 . S
C385 H377 0.951 . S
C385 C384 1.424 . S
C385 C386 1.347 . S
C386 H378 0.951 . S
C386 C381 1.429 . S
C386 C385 1.347 . S
H387 C388 0.951 1_565 S
C388 H387 0.951 1_545 S
C388 C394 1.265 1_545 S
H389 C394 0.950 1_545 S
H390 C398 0.949 . S
H391 C399 0.950 . S
H392 C400 0.951 1_545 S
H393 C401 0.951 1_545 S
C394 C388 1.265 1_565 S
C394 H389 0.950 1_565 S
C394 C395 1.478 . S
C395 C382 1.394 . S
C395 C394 1.478 . S
C395 C396 1.397 . S
C396 C395 1.397 . S
C396 C397 1.438 . S
C396 C401 1.429 . S
C397 C380 1.394 . S
C397 C396 1.438 . S
C397 C398 1.428 . S
C398 H390 0.949 . S
C398 C397 1.428 . S
C398 C399 1.345 . S
C399 H391 0.950 . S
C399 C398 1.345 . S
C399 C400 1.424 . S
C400 H392 0.951 1_565 S
C400 C399 1.424 . S
C400 C401 1.347 . S
C401 H393 0.951 1_565 S
C401 C396 1.429 . S
C401 C400 1.347 . S
H402 C403 0.951 . S
C403 H402 0.951 . S
C403 C409 1.265 . S
H404 C409 0.950 . S
H405 C413 0.949 . S
H406 C414 0.950 . S
H407 C415 0.951 . S
H408 C416 0.951 . S
C409 C403 1.265 . S
C409 H404 0.950 . S
C409 C410 1.478 . S
C410 C409 1.478 . S
C410 C411 1.397 . S
C410 C427 1.394 . S
C411 C410 1.397 . S
C411 C412 1.438 . S
C411 C416 1.429 . S
C412 C411 1.438 . S
C412 C413 1.428 . S
C412 C425 1.394 . S
C413 H405 0.949 . S
C413 C412 1.428 . S
C413 C414 1.345 . S
C414 H406 0.950 . S
C414 C413 1.345 . S
C414 C415 1.424 . S
C415 H407 0.951 . S
C415 C414 1.424 . S
C415 C416 1.347 . S
C416 H408 0.951 . S
C416 C411 1.429 . S
C416 C415 1.347 . S
H417 C418 0.951 . S
C418 H417 0.951 . S
C418 C424 1.265 . S
H419 C424 0.950 . S
H420 C428 0.949 . S
H421 C429 0.950 . S
H422 C430 0.951 . S
H423 C431 0.951 . S
C424 C418 1.265 . S
C424 H419 0.950 . S
C424 C425 1.478 . S
C425 C412 1.394 . S
C425 C424 1.478 . S
C425 C426 1.397 . S
C426 C425 1.397 . S
C426 C427 1.438 . S
C426 C431 1.429 . S
C427 C410 1.394 . S
C427 C426 1.438 . S
C427 C428 1.428 . S
C428 H420 0.949 . S
C428 C427 1.428 . S
C428 C429 1.345 . S
C429 H421 0.950 . S
C429 C428 1.345 . S
C429 C430 1.424 . S
C430 H422 0.951 . S
C430 C429 1.424 . S
C430 C431 1.347 . S
C431 H423 0.951 . S
C431 C426 1.429 . S
C431 C430 1.347 . S
H432 C433 0.951 . S
C433 H432 0.951 . S
C433 C439 1.265 . S
H434 C439 0.950 . S
H435 C443 0.949 . S
H436 C444 0.950 . S
H437 C445 0.951 . S
H438 C446 0.951 . S
C439 C433 1.265 . S
C439 H434 0.950 . S
C439 C440 1.478 . S
C440 C439 1.478 . S
C440 C441 1.397 . S
C440 C457 1.394 . S
C441 C440 1.397 . S
C441 C442 1.438 . S
C441 C446 1.429 . S
C442 C441 1.438 . S
C442 C443 1.428 . S
C442 C455 1.394 . S
C443 H435 0.949 . S
C443 C442 1.428 . S
C443 C444 1.345 . S
C444 H436 0.950 . S
C444 C443 1.345 . S
C444 C445 1.424 . S
C445 H437 0.951 . S
C445 C444 1.424 . S
C445 C446 1.347 . S
C446 H438 0.951 . S
C446 C441 1.429 . S
C446 C445 1.347 . S
H447 C448 0.951 . S
C448 H447 0.951 . S
C448 C454 1.265 1_655 S
H449 C454 0.950 . S
H450 C458 0.949 . S
H451 C459 0.950 . S
H452 C460 0.951 . S
H453 C461 0.951 . S
C454 C448 1.265 1_455 S
C454 H449 0.950 . S
C454 C455 1.478 . S
C455 C442 1.394 . S
C455 C454 1.478 . S
C455 C456 1.397 . S
C456 C455 1.397 . S
C456 C457 1.438 . S
C456 C461 1.429 . S
C457 C440 1.394 . S
C457 C456 1.438 . S
C457 C458 1.428 . S
C458 H450 0.949 . S
C458 C457 1.428 . S
C458 C459 1.345 . S
C459 H451 0.950 . S
C459 C458 1.345 . S
C459 C460 1.424 . S
C460 H452 0.951 . S
C460 C459 1.424 . S
C460 C461 1.347 . S
C461 H453 0.951 . S
C461 C456 1.429 . S
C461 C460 1.347 . S
H462 C463 0.951 . S
C463 H462 0.951 . S
C463 C469 1.265 . S
H464 C469 0.950 . S
H465 C473 0.949 . S
H466 C474 0.950 . S
H467 C475 0.951 . S
H468 C476 0.951 . S
C469 C463 1.265 . S
C469 H464 0.950 . S
C469 C470 1.478 . S
C470 C469 1.478 . S
C470 C471 1.397 . S
C470 C487 1.394 . S
C471 C470 1.397 . S
C471 C472 1.438 . S
C471 C476 1.429 . S
C472 C471 1.438 . S
C472 C473 1.428 . S
C472 C485 1.394 . S
C473 H465 0.949 . S
C473 C472 1.428 . S
C473 C474 1.345 . S
C474 H466 0.950 . S
C474 C473 1.345 . S
C474 C475 1.424 . S
C475 H467 0.951 . S
C475 C474 1.424 . S
C475 C476 1.347 . S
C476 H468 0.951 . S
C476 C471 1.429 . S
C476 C475 1.347 . S
H477 C478 0.951 1_545 S
C478 H477 0.951 1_565 S
C478 C484 1.265 1_565 S
H479 C484 0.950 1_565 S
H480 C488 0.949 . S
H481 C489 0.950 . S
H482 C490 0.951 1_565 S
H483 C491 0.951 1_565 S
C484 C478 1.265 1_545 S
C484 H479 0.950 1_545 S
C484 C485 1.478 . S
C485 C472 1.394 . S
C485 C484 1.478 . S
C485 C486 1.397 . S
C486 C485 1.397 . S
C486 C487 1.438 . S
C486 C491 1.429 . S
C487 C470 1.394 . S
C487 C486 1.438 . S
C487 C488 1.428 . S
C488 H480 0.949 . S
C488 C487 1.428 . S
C488 C489 1.345 . S
C489 H481 0.950 . S
C489 C488 1.345 . S
C489 C490 1.424 . S
C490 H482 0.951 1_545 S
C490 C489 1.424 . S
C490 C491 1.347 . S
C491 H483 0.951 1_545 S
C491 C486 1.429 . S
C491 C490 1.347 . S
H492 C493 0.951 . S
C493 H492 0.951 . S
C493 C499 1.265 . S
H494 C499 0.950 . S
H495 C503 0.949 . S
H496 C504 0.950 . S
H497 C505 0.951 . S
H498 C506 0.951 . S
C499 C493 1.265 . S
C499 H494 0.950 . S
C499 C500 1.478 . S
C500 C499 1.478 . S
C500 C501 1.397 . S
C500 C517 1.394 . S
C501 C500 1.397 . S
C501 C502 1.438 . S
C501 C506 1.429 . S
C502 C501 1.438 . S
C502 C503 1.428 . S
C502 C515 1.394 . S
C503 H495 0.949 . S
C503 C502 1.428 . S
C503 C504 1.345 . S
C504 H496 0.950 . S
C504 C503 1.345 . S
C504 C505 1.424 . S
C505 H497 0.951 . S
C505 C504 1.424 . S
C505 C506 1.347 . S
C506 H498 0.951 . S
C506 C501 1.429 . S
C506 C505 1.347 . S
H507 C508 0.951 . S
C508 H507 0.951 . S
C508 C514 1.265 . S
H509 C514 0.950 . S
H510 C518 0.949 . S
H511 C519 0.950 . S
H512 C520 0.951 . S
H513 C521 0.951 . S
C514 C508 1.265 . S
C514 H509 0.950 . S
C514 C515 1.478 . S
C515 C502 1.394 . S
C515 C514 1.478 . S
C515 C516 1.397 . S
C516 C515 1.397 . S
C516 C517 1.438 . S
C516 C521 1.429 . S
C517 C500 1.394 . S
C517 C516 1.438 . S
C517 C518 1.428 . S
C518 H510 0.949 . S
C518 C517 1.428 . S
C518 C519 1.345 . S
C519 H511 0.950 . S
C519 C518 1.345 . S
C519 C520 1.424 . S
C520 H512 0.951 . S
C520 C519 1.424 . S
C520 C521 1.347 . S
C521 H513 0.951 . S
C521 C516 1.429 . S
C521 C520 1.347 . S
H522 C523 0.951 1_655 S
C523 H522 0.951 1_455 S
C523 C529 1.265 1_455 S
H524 C529 0.950 1_455 S
H525 C533 0.949 . S
H526 C534 0.950 . S
H527 C535 0.951 1_455 S
H528 C536 0.951 1_455 S
C529 C523 1.265 1_655 S
C529 H524 0.950 1_655 S
C529 C530 1.478 . S
C530 C529 1.478 . S
C530 C531 1.397 1_554 S
C530 C547 1.394 . S
C531 C530 1.397 1_556 S
C531 C532 1.438 . S
C531 C536 1.429 . S
C532 C531 1.438 . S
C532 C533 1.428 . S
C532 C545 1.394 . S
C533 H525 0.949 . S
C533 C532 1.428 . S
C533 C534 1.345 . S
C534 H526 0.950 . S
C534 C533 1.345 . S
C534 C535 1.424 . S
C535 H527 0.951 1_655 S
C535 C534 1.424 . S
C535 C536 1.347 . S
C536 H528 0.951 1_655 S
C536 C531 1.429 . S
C536 C535 1.347 . S
H537 C538 0.951 . S
C538 H537 0.951 . S
C538 C544 1.265 . S
H539 C544 0.950 . S
H540 C548 0.949 . S
H541 C549 0.950 . S
H542 C550 0.951 . S
H543 C551 0.951 . S
C544 C538 1.265 . S
C544 H539 0.950 . S
C544 C545 1.478 . S
C545 C532 1.394 . S
C545 C544 1.478 . S
C545 C546 1.397 1_556 S
C546 C545 1.397 1_554 S
C546 C547 1.438 . S
C546 C551 1.429 . S
C547 C530 1.394 . S
C547 C546 1.438 . S
C547 C548 1.428 . S
C548 H540 0.949 . S
C548 C547 1.428 . S
C548 C549 1.345 . S
C549 H541 0.950 . S
C549 C548 1.345 . S
C549 C550 1.424 . S
C550 H542 0.951 . S
C550 C549 1.424 . S
C550 C551 1.347 . S
C551 H543 0.951 . S
C551 C546 1.429 . S
C551 C550 1.347 . S
H552 C553 0.951 . S
C553 H552 0.951 . S
C553 C559 1.265 1_545 S
H554 C559 0.950 . S
H555 C563 0.949 . S
H556 C564 0.950 . S
H557 C565 0.951 . S
H558 C566 0.951 . S
C559 C553 1.265 1_565 S
C559 H554 0.950 . S
C559 C560 1.478 . S
C560 C559 1.478 . S
C560 C561 1.397 . S
C560 C577 1.394 . S
C561 C560 1.397 . S
C561 C562 1.438 . S
C561 C566 1.429 . S
C562 C561 1.438 . S
C562 C563 1.428 . S
C562 C575 1.394 . S
C563 H555 0.949 . S
C563 C562 1.428 . S
C563 C564 1.345 . S
C564 H556 0.950 . S
C564 C563 1.345 . S
C564 C565 1.424 . S
C565 H557 0.951 . S
C565 C564 1.424 . S
C565 C566 1.347 . S
C566 H558 0.951 . S
C566 C561 1.429 . S
C566 C565 1.347 . S
H567 C568 0.951 . S
C568 H567 0.951 . S
C568 C574 1.265 . S
H569 C574 0.950 . S
H570 C578 0.949 1_545 S
H571 C579 0.950 1_545 S
H572 C580 0.951 . S
H573 C581 0.951 . S
C574 C568 1.265 . S
C574 H569 0.950 . S
C574 C575 1.478 . S
C575 C562 1.394 . S
C575 C574 1.478 . S
C575 C576 1.397 . S
C576 C575 1.397 . S
C576 C577 1.438 . S
C576 C581 1.429 . S
C577 C560 1.394 . S
C577 C576 1.438 . S
C577 C578 1.428 . S
C578 H570 0.949 1_565 S
C578 C577 1.428 . S
C578 C579 1.345 . S
C579 H571 0.950 1_565 S
C579 C578 1.345 . S
C579 C580 1.424 . S
C580 H572 0.951 . S
C580 C579 1.424 . S
C580 C581 1.347 . S
C581 H573 0.951 . S
C581 C576 1.429 . S
C581 C580 1.347 . S
H582 C583 0.951 . S
C583 H582 0.951 . S
C583 C589 1.265 . S
H584 C589 0.950 . S
H585 C593 0.949 . S
H586 C594 0.950 . S
H587 C595 0.951 . S
H588 C596 0.951 . S
C589 C583 1.265 . S
C589 H584 0.950 . S
C589 C590 1.478 . S
C590 C589 1.478 . S
C590 C591 1.397 . S
C590 C607 1.394 . S
C591 C590 1.397 . S
C591 C592 1.438 . S
C591 C596 1.429 . S
C592 C591 1.438 . S
C592 C593 1.428 . S
C592 C605 1.394 . S
C593 H585 0.949 . S
C593 C592 1.428 . S
C593 C594 1.345 . S
C594 H586 0.950 . S
C594 C593 1.345 . S
C594 C595 1.424 . S
C595 H587 0.951 . S
C595 C594 1.424 . S
C595 C596 1.347 . S
C596 H588 0.951 . S
C596 C591 1.429 . S
C596 C595 1.347 . S
H597 C598 0.951 . S
C598 H597 0.951 . S
C598 C604 1.265 . S
H599 C604 0.950 . S
H600 C608 0.949 . S
H601 C609 0.950 . S
H602 C610 0.951 . S
H603 C611 0.951 . S
C604 C598 1.265 . S
C604 H599 0.950 . S
C604 C605 1.478 . S
C605 C592 1.394 . S
C605 C604 1.478 . S
C605 C606 1.397 . S
C606 C605 1.397 . S
C606 C607 1.438 . S
C606 C611 1.429 . S
C607 C590 1.394 . S
C607 C606 1.438 . S
C607 C608 1.428 . S
C608 H600 0.949 . S
C608 C607 1.428 . S
C608 C609 1.345 . S
C609 H601 0.950 . S
C609 C608 1.345 . S
C609 C610 1.424 . S
C610 H602 0.951 . S
C610 C609 1.424 . S
C610 C611 1.347 . S
C611 H603 0.951 . S
C611 C606 1.429 . S
C611 C610 1.347 . S
H612 C613 0.951 . S
C613 H612 0.951 . S
C613 C619 1.265 1_655 S
H614 C619 0.950 . S
H615 C623 0.949 . S
H616 C624 0.950 . S
H617 C625 0.951 . S
H618 C626 0.951 . S
C619 C613 1.265 1_455 S
C619 H614 0.950 . S
C619 C620 1.478 . S
C620 C619 1.478 . S
C620 C621 1.397 . S
C620 C637 1.394 . S
C621 C620 1.397 . S
C621 C622 1.438 . S
C621 C626 1.429 . S
C622 C621 1.438 . S
C622 C623 1.428 . S
C622 C635 1.394 . S
C623 H615 0.949 . S
C623 C622 1.428 . S
C623 C624 1.345 . S
C624 H616 0.950 . S
C624 C623 1.345 . S
C624 C625 1.424 . S
C625 H617 0.951 . S
C625 C624 1.424 . S
C625 C626 1.347 . S
C626 H618 0.951 . S
C626 C621 1.429 . S
C626 C625 1.347 . S
H627 C628 0.951 . S
C628 H627 0.951 . S
C628 C634 1.265 . S
H629 C634 0.950 . S
H630 C638 0.949 1_655 S
H631 C639 0.950 . S
H632 C640 0.951 . S
H633 C641 0.951 . S
C634 C628 1.265 . S
C634 H629 0.950 . S
C634 C635 1.478 . S
C635 C622 1.394 . S
C635 C634 1.478 . S
C635 C636 1.397 . S
C636 C635 1.397 . S
C636 C637 1.438 . S
C636 C641 1.429 . S
C637 C620 1.394 . S
C637 C636 1.438 . S
C637 C638 1.428 . S
C638 H630 0.949 1_455 S
C638 C637 1.428 . S
C638 C639 1.345 1_455 S
C639 H631 0.950 . S
C639 C638 1.345 1_655 S
C639 C640 1.424 1_655 S
C640 H632 0.951 . S
C640 C639 1.424 1_455 S
C640 C641 1.347 . S
C641 H633 0.951 . S
C641 C636 1.429 . S
C641 C640 1.347 . S
H642 C643 0.951 . S
C643 H642 0.951 . S
C643 C649 1.265 1_565 S
H644 C649 0.950 . S
H645 C653 0.949 . S
H646 C654 0.950 . S
H647 C655 0.951 . S
H648 C656 0.951 . S
C649 C643 1.265 1_545 S
C649 H644 0.950 . S
C649 C650 1.478 . S
C650 C649 1.478 . S
C650 C651 1.397 . S
C650 C667 1.394 . S
C651 C650 1.397 . S
C651 C652 1.438 . S
C651 C656 1.429 . S
C652 C651 1.438 . S
C652 C653 1.428 . S
C652 C665 1.394 . S
C653 H645 0.949 . S
C653 C652 1.428 . S
C653 C654 1.345 . S
C654 H646 0.950 . S
C654 C653 1.345 . S
C654 C655 1.424 . S
C655 H647 0.951 . S
C655 C654 1.424 . S
C655 C656 1.347 . S
C656 H648 0.951 . S
C656 C651 1.429 . S
C656 C655 1.347 . S
H657 C658 0.951 . S
C658 H657 0.951 . S
C658 C664 1.265 . S
H659 C664 0.950 . S
H660 C668 0.949 1_565 S
H661 C669 0.950 1_565 S
H662 C670 0.951 . S
H663 C671 0.951 . S
C664 C658 1.265 . S
C664 H659 0.950 . S
C664 C665 1.478 . S
C665 C652 1.394 . S
C665 C664 1.478 . S
C665 C666 1.397 . S
C666 C665 1.397 . S
C666 C667 1.438 . S
C666 C671 1.429 . S
C667 C650 1.394 . S
C667 C666 1.438 . S
C667 C668 1.428 . S
C668 H660 0.949 1_545 S
C668 C667 1.428 . S
C668 C669 1.345 . S
C669 H661 0.950 1_545 S
C669 C668 1.345 . S
C669 C670 1.424 . S
C670 H662 0.951 . S
C670 C669 1.424 . S
C670 C671 1.347 . S
C671 H663 0.951 . S
C671 C666 1.429 . S
C671 C670 1.347 . S
C133 C18 0.819 . S
C148 C52 0.788 . S
C163 C37 0.921 . S
C178 C73 0.958 . S
C193 C106 0.865 . S
C208 C51 0.899 . S
C223 C118 0.801 . S
C238 C74 0.803 . S
C253 C15 0.922 1_556 S
C268 C103 0.969 . S
C283 C40 0.864 . S
C298 C117 0.903 1_554 S
C313 C125 1.360 . S
C328 C10 1.347 . S
C343 C8 1.296 . S
C358 C29 1.296 . S
C373 C65 1.356 . S
C388 C43 1.379 . S
C403 C84 1.324 . S
C418 C59 1.302 . S
C433 C95 1.281 . S
C448 C76 1.378 . S
C463 C131 1.344 . S
C478 C109 1.387 . S
C493 C98 1.309 . S
C508 C120 1.345 . S
C523 C21 1.272 . S
C538 C128 1.378 . S
C553 C30 1.371 . S
C568 C7 1.275 . S
C583 C32 1.314 . S
C598 C54 1.256 . S
C613 C81 1.367 . S
C628 C62 1.300 . S
C643 C96 1.371 . S
C658 C87 1.275 . S
