# Generated by pormake.
# Topology unv, (4)-cn, num edge types: 1
# Building blocks:
#     Node 0, Type 0, BuildingBlock: TATPOV_clean_sbu_0, # of connection points: 4
#     Node 1, Type 0, BuildingBlock: TATPOV_clean_sbu_0, # of connection points: 4
#     Node 2, Type 0, BuildingBlock: TATPOV_clean_sbu_0, # of connection points: 4
#     Node 3, Type 0, BuildingBlock: TATPOV_clean_sbu_0, # of connection points: 4
#     Node 4, Type 0, BuildingBlock: TATPOV_clean_sbu_0, # of connection points: 4
#     Node 5, Type 0, BuildingBlock: TATPOV_clean_sbu_0, # of connection points: 4
#     Node 6, Type 0, BuildingBlock: TATPOV_clean_sbu_0, # of connection points: 4
#     Node 7, Type 0, BuildingBlock: TATPOV_clean_sbu_0, # of connection points: 4
#     Node 8, Type 0, BuildingBlock: TATPOV_clean_sbu_0, # of connection points: 4
#     Node 9, Type 0, BuildingBlock: TATPOV_clean_sbu_0, # of connection points: 4
#     Node 10, Type 0, BuildingBlock: TATPOV_clean_sbu_0, # of connection points: 4
#     Node 11, Type 0, BuildingBlock: TATPOV_clean_sbu_0, # of connection points: 4
#     Node 12, Type 0, BuildingBlock: TATPOV_clean_sbu_0, # of connection points: 4
#     Node 13, Type 0, BuildingBlock: TATPOV_clean_sbu_0, # of connection points: 4
#     Node 14, Type 0, BuildingBlock: TATPOV_clean_sbu_0, # of connection points: 4
#     Node 15, Type 0, BuildingBlock: TATPOV_clean_sbu_0, # of connection points: 4
#     Node 16, Type 0, BuildingBlock: TATPOV_clean_sbu_0, # of connection points: 4
#     Node 17, Type 0, BuildingBlock: TATPOV_clean_sbu_0, # of connection points: 4
#     Node 18, Type 0, BuildingBlock: TATPOV_clean_sbu_0, # of connection points: 4
#     Node 19, Type 0, BuildingBlock: TATPOV_clean_sbu_0, # of connection points: 4
#     Node 20, Type 0, BuildingBlock: TATPOV_clean_sbu_0, # of connection points: 4
#     Node 21, Type 0, BuildingBlock: TATPOV_clean_sbu_0, # of connection points: 4
#     Node 22, Type 0, BuildingBlock: TATPOV_clean_sbu_0, # of connection points: 4
#     Node 23, Type 0, BuildingBlock: TATPOV_clean_sbu_0, # of connection points: 4
#     Edge 24, Type (0, 0), BuildingBlock: OJICUG_clean_linker_0, # of connection points: 2
#     Edge 25, Type (0, 0), BuildingBlock: OJICUG_clean_linker_0, # of connection points: 2
#     Edge 26, Type (0, 0), BuildingBlock: OJICUG_clean_linker_0, # of connection points: 2
#     Edge 27, Type (0, 0), BuildingBlock: OJICUG_clean_linker_0, # of connection points: 2
#     Edge 28, Type (0, 0), BuildingBlock: OJICUG_clean_linker_0, # of connection points: 2
#     Edge 29, Type (0, 0), BuildingBlock: OJICUG_clean_linker_0, # of connection points: 2
#     Edge 30, Type (0, 0), BuildingBlock: OJICUG_clean_linker_0, # of connection points: 2
#     Edge 31, Type (0, 0), BuildingBlock: OJICUG_clean_linker_0, # of connection points: 2
#     Edge 32, Type (0, 0), BuildingBlock: OJICUG_clean_linker_0, # of connection points: 2
#     Edge 33, Type (0, 0), BuildingBlock: OJICUG_clean_linker_0, # of connection points: 2
#     Edge 34, Type (0, 0), BuildingBlock: OJICUG_clean_linker_0, # of connection points: 2
#     Edge 35, Type (0, 0), BuildingBlock: OJICUG_clean_linker_0, # of connection points: 2
#     Edge 36, Type (0, 0), BuildingBlock: OJICUG_clean_linker_0, # of connection points: 2
#     Edge 37, Type (0, 0), BuildingBlock: OJICUG_clean_linker_0, # of connection points: 2
#     Edge 38, Type (0, 0), BuildingBlock: OJICUG_clean_linker_0, # of connection points: 2
#     Edge 39, Type (0, 0), BuildingBlock: OJICUG_clean_linker_0, # of connection points: 2
#     Edge 40, Type (0, 0), BuildingBlock: OJICUG_clean_linker_0, # of connection points: 2
#     Edge 41, Type (0, 0), BuildingBlock: OJICUG_clean_linker_0, # of connection points: 2
#     Edge 42, Type (0, 0), BuildingBlock: OJICUG_clean_linker_0, # of connection points: 2
#     Edge 43, Type (0, 0), BuildingBlock: OJICUG_clean_linker_0, # of connection points: 2
#     Edge 44, Type (0, 0), BuildingBlock: OJICUG_clean_linker_0, # of connection points: 2
#     Edge 45, Type (0, 0), BuildingBlock: OJICUG_clean_linker_0, # of connection points: 2
#     Edge 46, Type (0, 0), BuildingBlock: OJICUG_clean_linker_0, # of connection points: 2
#     Edge 47, Type (0, 0), BuildingBlock: OJICUG_clean_linker_0, # of connection points: 2
#     Edge 48, Type (0, 0), BuildingBlock: OJICUG_clean_linker_0, # of connection points: 2
#     Edge 49, Type (0, 0), BuildingBlock: OJICUG_clean_linker_0, # of connection points: 2
#     Edge 50, Type (0, 0), BuildingBlock: OJICUG_clean_linker_0, # of connection points: 2
#     Edge 51, Type (0, 0), BuildingBlock: OJICUG_clean_linker_0, # of connection points: 2
#     Edge 52, Type (0, 0), BuildingBlock: OJICUG_clean_linker_0, # of connection points: 2
#     Edge 53, Type (0, 0), BuildingBlock: OJICUG_clean_linker_0, # of connection points: 2
#     Edge 54, Type (0, 0), BuildingBlock: OJICUG_clean_linker_0, # of connection points: 2
#     Edge 55, Type (0, 0), BuildingBlock: OJICUG_clean_linker_0, # of connection points: 2
#     Edge 56, Type (0, 0), BuildingBlock: OJICUG_clean_linker_0, # of connection points: 2
#     Edge 57, Type (0, 0), BuildingBlock: OJICUG_clean_linker_0, # of connection points: 2
#     Edge 58, Type (0, 0), BuildingBlock: OJICUG_clean_linker_0, # of connection points: 2
#     Edge 59, Type (0, 0), BuildingBlock: OJICUG_clean_linker_0, # of connection points: 2
#     Edge 60, Type (0, 0), BuildingBlock: OJICUG_clean_linker_0, # of connection points: 2
#     Edge 61, Type (0, 0), BuildingBlock: OJICUG_clean_linker_0, # of connection points: 2
#     Edge 62, Type (0, 0), BuildingBlock: OJICUG_clean_linker_0, # of connection points: 2
#     Edge 63, Type (0, 0), BuildingBlock: OJICUG_clean_linker_0, # of connection points: 2
#     Edge 64, Type (0, 0), BuildingBlock: OJICUG_clean_linker_0, # of connection points: 2
#     Edge 65, Type (0, 0), BuildingBlock: OJICUG_clean_linker_0, # of connection points: 2
#     Edge 66, Type (0, 0), BuildingBlock: OJICUG_clean_linker_0, # of connection points: 2
#     Edge 67, Type (0, 0), BuildingBlock: OJICUG_clean_linker_0, # of connection points: 2
#     Edge 68, Type (0, 0), BuildingBlock: OJICUG_clean_linker_0, # of connection points: 2
#     Edge 69, Type (0, 0), BuildingBlock: OJICUG_clean_linker_0, # of connection points: 2
#     Edge 70, Type (0, 0), BuildingBlock: OJICUG_clean_linker_0, # of connection points: 2
#     Edge 71, Type (0, 0), BuildingBlock: OJICUG_clean_linker_0, # of connection points: 2
# Relax obj value: 0.297
# Max RMSD: 0.272
# Mean RMSD: 0.270
data_MOF--net-unv--node1-TATPOV_clean_sbu_0--edge1-OJICUG_clean_linker_0
_symmetry_space_group_name_H-M    P1
_symmetry_Int_Tables_number       1
_symmetry_cell_setting            triclinic
loop_
_symmetry_equiv_pos_as_xyz
'x, y, z'
_cell_length_a     35.416662
_cell_length_b     35.379673
_cell_length_c     34.880197
_cell_angle_alpha  89.977888
_cell_angle_beta   90.079654
_cell_angle_gamma 89.875296
loop_
_atom_site_label
_atom_site_type_symbol
_atom_site_fract_x
_atom_site_fract_y
_atom_site_fract_z
_atom_type_partial_charge
Zn0 Zn 0.93656 0.03459 0.43812 0.0
Zn1 Zn 0.95132 0.09533 0.39795 0.0
O2 O 0.96421 0.10552 0.45577 0.0
O3 O 0.95655 0.05268 0.4878 0.0
O4 O 0.95167 0.14906 0.37537 0.0
O5 O 0.97116 0.0106 0.39665 0.0
O6 O 0.99332 0.06425 0.37344 0.0
C7 C 0.9659 0.08709 0.48723 0.0
C8 C 0.88014 0.04467 0.39246 0.0
O9 O 0.90507 0.06533 0.37656 0.0
O10 O 0.88093 0.04235 0.42851 0.0
C11 C 0.93125 0.17352 0.39246 0.0
O12 O 0.90939 0.16203 0.42055 0.0
C13 C 0.99321 0.02809 0.374 0.0
Zn14 Zn 0.01028 0.46889 0.34469 0.0
Zn15 Zn 0.98537 0.40745 0.349 0.0
O16 O 0.94875 0.43535 0.38743 0.0
O17 O 0.98668 0.48401 0.39393 0.0
O18 O 0.97314 0.35036 0.34984 0.0
O19 O 0.98526 0.48673 0.29812 0.0
O20 O 0.9813 0.42538 0.2902 0.0
C21 C 0.9578 0.46597 0.40471 0.0
C22 C 0.06668 0.4314 0.37085 0.0
O23 O 0.03756 0.41089 0.37637 0.0
O24 O 0.06539 0.45523 0.34391 0.0
C25 C 0.94806 0.33597 0.37158 0.0
O26 O 0.92804 0.35855 0.3935 0.0
C27 C 0.9786 0.45898 0.27656 0.0
Zn28 Zn 0.01502 0.96434 0.16198 0.0
Zn29 Zn 0.03162 0.90047 0.16786 0.0
O30 O 0.07514 0.92099 0.13304 0.0
O31 O 0.04077 0.96783 0.11079 0.0
O32 O 0.04093 0.84294 0.17094 0.0
O33 O 0.04085 0.98257 0.20884 0.0
O34 O 0.0303 0.92355 0.22445 0.0
C35 C 0.06936 0.94665 0.10794 0.0
C36 C 0.95513 0.92954 0.13907 0.0
O37 O 0.98219 0.90588 0.13564 0.0
O38 O 0.95887 0.95574 0.16333 0.0
C39 C 0.05173 0.82715 0.13994 0.0
O40 O 0.05579 0.84826 0.10923 0.0
C41 C 0.03799 0.95757 0.23449 0.0
Zn42 Zn 0.06922 0.52781 0.06913 0.0
Zn43 Zn 0.05649 0.58793 0.11145 0.0
O44 O 0.04348 0.60037 0.05427 0.0
O45 O 0.04921 0.5485 0.0203 0.0
O46 O 0.05665 0.64078 0.13604 0.0
O47 O 0.03442 0.50348 0.11014 0.0
O48 O 0.0139 0.55725 0.13475 0.0
C49 C 0.04085 0.58316 0.02222 0.0
C50 C 0.12659 0.53533 0.11493 0.0
O51 O 0.10233 0.55636 0.13152 0.0
O52 O 0.12506 0.53319 0.07887 0.0
C53 C 0.0751 0.66589 0.11779 0.0
O54 O 0.095 0.65521 0.0879 0.0
C55 C 0.01295 0.52116 0.13327 0.0
Zn56 Zn 0.43375 0.95431 0.02987 0.0
Zn57 Zn 0.39809 0.97916 0.08865 0.0
O58 O 0.45602 0.98488 0.09869 0.0
O59 O 0.48583 0.9672 0.04664 0.0
O60 O 0.37668 0.98693 0.14225 0.0
O61 O 0.39904 0.99283 1.00195 0.0
O62 O 0.37953 0.02182 0.05433 0.0
C63 C 0.48684 0.98017 0.08035 0.0
C64 C 0.38063 0.90524 0.04332 0.0
O65 O 0.37033 0.93368 0.06321 0.0
O66 O 0.4155 0.901 0.03718 0.0
C67 C 0.38241 0.96113 0.16706 0.0
O68 O 0.39854 0.92949 0.15597 0.0
C69 C 0.38005 0.01908 0.01782 0.0
Zn70 Zn 0.60028 0.56134 0.05459 0.0
Zn71 Zn 0.61441 0.52694 0.1169 0.0
O72 O 0.58184 0.48636 0.09108 0.0
O73 O 0.55312 0.52825 0.05433 0.0
O74 O 0.62533 0.51065 0.17261 0.0
O75 O 0.64556 0.54221 0.0283 0.0
O76 O 0.66609 0.53084 0.08677 0.0
C77 C 0.55475 0.49533 0.06867 0.0
C78 C 0.57665 0.60376 0.10481 0.0
O79 O 0.57689 0.57198 0.12194 0.0
O80 O 0.60477 0.61071 0.08392 0.0
C81 C 0.61319 0.47975 0.18679 0.0
O82 O 0.59471 0.45629 0.16446 0.0
C83 C 0.67226 0.53345 0.05061 0.0
Zn84 Zn 0.39118 0.06191 0.46546 0.0
Zn85 Zn 0.38114 0.03535 0.39978 0.0
O86 O 0.41967 0.99679 0.42024 0.0
O87 O 0.44349 0.03815 0.46058 0.0
O88 O 0.37172 0.02296 0.34338 0.0
O89 O 0.35143 0.03113 0.48924 0.0
O90 O 0.32981 0.03043 0.4301 0.0
C91 C 0.44609 0.00697 0.44288 0.0
C92 C 0.40352 0.11428 0.42075 0.0
O93 O 0.41054 0.08607 0.39932 0.0
O94 O 0.37419 0.11159 0.44087 0.0
C95 C 0.37277 0.98929 0.33054 0.0
O96 O 0.3783 0.96133 0.35472 0.0
C97 C 0.3246 0.02538 0.46614 0.0
Zn98 Zn 0.57263 0.50156 0.49133 0.0
Zn99 Zn 0.60585 0.48055 0.42964 0.0
O100 O 0.55006 0.49618 0.416 0.0
O101 O 0.52117 0.50744 0.47048 0.0
O102 O 0.62681 0.47576 0.37514 0.0
O103 O 0.60769 0.54505 0.50312 0.0
O104 O 0.64091 0.51882 0.45694 0.0
C105 C 0.52 0.50408 0.43449 0.0
C106 C 0.60488 0.42615 0.49554 0.0
O107 O 0.61424 0.4305 0.46042 0.0
O108 O 0.58713 0.45188 0.51314 0.0
C109 C 0.60923 0.45498 0.35125 0.0
O110 O 0.58173 0.43348 0.36392 0.0
C111 C 0.6384 0.54204 0.48487 0.0
Zn112 Zn 0.04926 0.34127 0.10266 0.0
Zn113 Zn 0.10491 0.3337 0.05268 0.0
O114 O 0.12159 0.37008 0.09555 0.0
O115 O 0.07782 0.3758 0.13936 0.0
O116 O 0.1551 0.32816 0.0246 0.0
O117 O 0.04248 0.28518 0.10899 0.0
O118 O 0.0836 0.27942 0.06207 0.0
C119 C 0.10987 0.38518 0.12645 0.0
C120 C 0.03472 0.37191 0.02506 0.0
O121 O 0.06869 0.36264 0.01739 0.0
O122 O 0.02079 0.36523 0.05786 0.0
C123 C 0.17071 0.35946 0.01612 0.0
O124 O 0.1517 0.39085 0.0221 0.0
C125 C 0.05919 0.26467 0.08453 0.0
Zn126 Zn 0.02552 0.56892 0.52228 0.0
Zn127 Zn 0.08414 0.60817 0.51513 0.0
O128 O 0.09597 0.55356 0.49446 0.0
O129 O 0.04347 0.52117 0.49933 0.0
O130 O 0.13752 0.62921 0.51913 0.0
O131 O 0.99968 0.61081 0.49041 0.0
O132 O 0.05347 0.63869 0.47602 0.0
C133 C 0.0778 0.52276 0.48989 0.0
C134 C 0.03627 0.60299 0.58995 0.0
O135 O 0.05828 0.62109 0.56761 0.0
O136 O 0.02389 0.57129 0.57927 0.0
C137 C 0.15762 0.61177 0.54376 0.0
O138 O 0.14133 0.58572 0.56489 0.0
C139 C 0.01759 0.63656 0.47274 0.0
Zn140 Zn 0.95548 0.84843 0.4044 0.0
Zn141 Zn 0.89754 0.83892 0.451 0.0
O142 O 0.8826 0.87747 0.40918 0.0
O143 O 0.92878 0.88499 0.36827 0.0
O144 O 0.8468 0.83339 0.47789 0.0
O145 O 0.9621 0.79275 0.39537 0.0
O146 O 0.91881 0.78479 0.43988 0.0
C147 C 0.89606 0.89395 0.37976 0.0
C148 C 0.96681 0.87461 0.48387 0.0
O149 O 0.93246 0.86539 0.48918 0.0
O150 O 0.98236 0.8696 0.45151 0.0
C151 C 0.83253 0.86492 0.48801 0.0
O152 O 0.85279 0.89567 0.48341 0.0
C153 C 0.94426 0.77109 0.41784 0.0
Zn154 Zn 0.45969 0.61361 0.48809 0.0
Zn155 Zn 0.39676 0.62848 0.51562 0.0
O156 O 0.41383 0.58924 0.55472 0.0
O157 O 0.45267 0.56192 0.51406 0.0
O158 O 0.34094 0.64033 0.52574 0.0
O159 O 0.4867 0.65192 0.51759 0.0
O160 O 0.43032 0.67672 0.52655 0.0
C161 C 0.43508 0.56154 0.54577 0.0
C162 C 0.41558 0.60383 0.43383 0.0
O163 O 0.39558 0.59915 0.46375 0.0
O164 O 0.4401 0.62944 0.43554 0.0
C165 C 0.32095 0.6149 0.5417 0.0
O166 O 0.33738 0.58343 0.55279 0.0
C167 C 0.4664 0.67882 0.52941 0.0
Zn168 Zn 0.44043 0.53778 0.94716 0.0
Zn169 Zn 0.46035 0.59507 0.90707 0.0
O170 O 0.46957 0.60726 0.96509 0.0
O171 O 0.45394 0.55757 0.99898 0.0
O172 O 0.46349 0.64705 0.88227 0.0
O173 O 0.4791 0.51003 0.91241 0.0
O174 O 0.50268 0.56184 0.88667 0.0
C175 C 0.46641 0.59095 0.99756 0.0
C176 C 0.38648 0.54852 0.89519 0.0
O177 O 0.41324 0.56943 0.8832 0.0
O178 O 0.3862 0.53944 0.93022 0.0
C179 C 0.44524 0.67238 0.90037 0.0
O180 O 0.4254 0.66239 0.93051 0.0
C181 C 0.50273 0.52591 0.8902 0.0
Zn182 Zn 0.38718 0.96383 0.84639 0.0
Zn183 Zn 0.4236 0.89996 0.8359 0.0
O184 O 0.38202 0.89371 0.87685 0.0
O185 O 0.34794 0.94477 0.88399 0.0
O186 O 0.44022 0.845 0.83213 0.0
O187 O 0.37813 0.97153 0.79021 0.0
O188 O 0.41535 0.92249 0.78093 0.0
C189 C 0.35544 0.91118 0.8939 0.0
C190 C 0.46721 0.9625 0.87103 0.0
O191 O 0.46728 0.92798 0.86087 0.0
O192 O 0.43776 0.98268 0.86733 0.0
C193 C 0.44868 0.83213 0.86518 0.0
O194 O 0.45042 0.85593 0.89404 0.0
C195 C 0.39718 0.95097 0.76765 0.0
Zn196 Zn 0.58471 0.45593 0.6846 0.0
Zn197 Zn 0.53873 0.39928 0.69302 0.0
O198 O 0.57987 0.38777 0.65279 0.0
O199 O 0.62474 0.42995 0.65216 0.0
O200 O 0.51738 0.34658 0.69825 0.0
O201 O 0.58924 0.46624 0.74106 0.0
O202 O 0.54691 0.42138 0.74796 0.0
C203 C 0.61084 0.39972 0.63892 0.0
C204 C 0.50713 0.46442 0.65198 0.0
O205 O 0.50012 0.43165 0.66515 0.0
O206 O 0.5394 0.47936 0.65644 0.0
C207 C 0.50755 0.33324 0.66589 0.0
O208 O 0.50591 0.35634 0.63641 0.0
C209 C 0.56687 0.44792 0.76236 0.0
Zn210 Zn 0.52104 0.03963 0.58118 0.0
Zn211 Zn 0.50939 0.09727 0.62569 0.0
O212 O 0.49927 0.11461 0.56931 0.0
O213 O 0.50852 0.0656 0.53202 0.0
O214 O 0.50415 0.14759 0.65293 0.0
O215 O 0.48232 0.01084 0.61416 0.0
O216 O 0.46853 0.0622 0.64711 0.0
C217 C 0.50034 0.10014 0.53589 0.0
C218 C 0.58436 0.05284 0.62742 0.0
O219 O 0.56133 0.07571 0.64333 0.0
O220 O 0.5753 0.03724 0.59612 0.0
C221 C 0.52249 0.17366 0.63621 0.0
O222 O 0.54463 0.16468 0.60741 0.0
C223 C 0.46329 0.02717 0.64019 0.0
Zn224 Zn 0.84553 0.61107 0.56241 0.0
Zn225 Zn 0.84574 0.55128 0.60456 0.0
O226 O 0.88495 0.5912 0.62081 0.0
O227 O 0.87909 0.64625 0.59309 0.0
O228 O 0.84075 0.52251 0.65505 0.0
O229 O 0.78922 0.61749 0.5562 0.0
O230 O 0.79195 0.56131 0.58308 0.0
C231 C 0.89604 0.6252 0.61688 0.0
C232 C 0.87942 0.53734 0.53109 0.0
O233 O 0.87111 0.52064 0.5624 0.0
O234 O 0.87178 0.5723 0.52675 0.0
C235 C 0.87132 0.51176 0.67102 0.0
O236 O 0.90288 0.51407 0.65139 0.0
C237 C 0.77325 0.58689 0.56544 0.0
Zn238 Zn 0.10486 0.0378 0.53939 0.0
Zn239 Zn 0.12197 0.01573 0.60225 0.0
O240 O 0.08975 0.97024 0.58548 0.0
O241 O 0.0575 0.00597 0.54546 0.0
O242 O 0.13809 0.00777 0.65805 0.0
O243 O 0.14811 0.01689 0.51089 0.0
O244 O 0.17166 0.01843 0.56916 0.0
C245 C 0.06099 0.97535 0.564 0.0
C246 C 0.08351 0.09046 0.58247 0.0
O247 O 0.08433 0.06113 0.60368 0.0
O248 O 0.10799 0.09243 0.55639 0.0
C249 C 0.11426 0.99625 0.68273 0.0
O250 O 0.07982 0.98834 0.67125 0.0
C251 C 0.17637 0.01516 0.53287 0.0
Zn252 Zn 0.89437 0.54181 0.97831 0.0
Zn253 Zn 0.87711 0.51971 0.91534 0.0
O254 O 0.90807 0.47324 0.93267 0.0
O255 O 0.94026 0.50748 0.97393 0.0
O256 O 0.86273 0.51171 0.85898 0.0
O257 O 0.84925 0.52419 1.00616 0.0
O258 O 0.82673 0.52496 0.94744 0.0
C259 C 0.93651 0.47729 0.95479 0.0
C260 C 0.91916 0.59308 0.93453 0.0
O261 O 0.91608 0.56368 0.91365 0.0
O262 O 0.89612 0.59653 0.96184 0.0
C263 C 0.88824 0.50042 0.8359 0.0
O264 O 0.92197 0.49285 0.84968 0.0
C265 C 0.82128 0.52303 0.98375 0.0
Zn266 Zn 0.17408 0.09461 0.96506 0.0
Zn267 Zn 0.17497 0.04289 0.91132 0.0
O268 O 0.13434 0.0829 0.89939 0.0
O269 O 0.13424 0.12886 0.94127 0.0
O270 O 0.17576 0.01652 0.85929 0.0
O271 O 0.2299 0.10426 0.96377 0.0
O272 O 0.23101 0.05479 0.92563 0.0
C273 C 0.12031 0.11379 0.91156 0.0
C274 C 0.15023 0.01689 0.98803 0.0
O275 O 0.15384 0.00759 0.95285 0.0
O276 O 0.15742 0.05038 0.99888 0.0
C277 C 0.14407 0.00574 0.84592 0.0
O278 O 0.1144 0.00688 0.86848 0.0
C279 C 0.24848 0.079 0.94629 0.0
Zn280 Zn 0.5451 0.88412 0.6082 0.0
Zn281 Zn 0.60381 0.86931 0.56614 0.0
O282 O 0.61917 0.90562 0.61014 0.0
O283 O 0.57247 0.91089 0.65078 0.0
O284 O 0.655 0.85492 0.54374 0.0
O285 O 0.52602 0.8317 0.61242 0.0
O286 O 0.57332 0.8195 0.57336 0.0
C287 C 0.60573 0.9195 0.64099 0.0
C288 C 0.544 0.91518 0.52943 0.0
O289 O 0.5763 0.89993 0.52511 0.0
O290 O 0.52665 0.91299 0.56114 0.0
C291 C 0.67668 0.88265 0.53643 0.0
O292 O 0.66367 0.91709 0.54157 0.0
C293 C 0.54343 0.80888 0.59087 0.0
Zn294 Zn 0.54577 0.10299 0.02407 0.0
Zn295 Zn 0.60688 0.11415 0.99073 0.0
O296 O 0.58656 0.07538 0.95298 0.0
O297 O 0.54815 0.05172 0.99645 0.0
O298 O 0.66262 0.12491 0.97894 0.0
O299 O 0.51781 0.14288 0.99775 0.0
O300 O 0.57382 0.16316 0.98 0.0
C301 C 0.56384 0.04958 0.96378 0.0
C302 C 0.59188 0.08756 0.07349 0.0
O303 O 0.60925 0.08343 0.04182 0.0
O304 O 0.56961 0.11525 0.07563 0.0
C305 C 0.68253 0.0993 0.96305 0.0
O306 O 0.66596 0.06785 0.95229 0.0
C307 C 0.53785 0.1675 0.98142 0.0
Zn308 Zn 0.45945 0.37071 0.89728 0.0
Zn309 Zn 0.40073 0.35694 0.94237 0.0
O310 O 0.38461 0.39231 0.89863 0.0
O311 O 0.43034 0.40086 0.85747 0.0
O312 O 0.34957 0.34388 0.96571 0.0
O313 O 0.47528 0.31669 0.89214 0.0
O314 O 0.43065 0.30706 0.93498 0.0
C315 C 0.39692 0.40787 0.86822 0.0
C316 C 0.46309 0.40074 0.97689 0.0
O317 O 0.42982 0.38798 0.98167 0.0
O318 O 0.48003 0.39685 0.94508 0.0
C319 C 0.32846 0.37228 0.97255 0.0
O320 O 0.34237 0.4063 0.96731 0.0
C321 C 0.459 0.29508 0.9158 0.0
Zn322 Zn 0.97905 0.06228 0.97728 0.0
Zn323 Zn 0.92081 0.10006 0.9895 0.0
O324 O 0.91343 0.04516 0.01185 0.0
O325 O 0.96608 0.01399 1.00192 0.0
O326 O 0.86621 0.11827 0.98382 0.0
O327 O 0.00297 0.10664 0.00829 0.0
O328 O 0.9493 0.13087 0.02921 0.0
C329 C 0.93292 0.01488 0.01503 0.0
C330 C 0.97031 0.0992 0.91544 0.0
O331 O 0.95066 0.11676 0.94035 0.0
O332 O 0.9745 0.06411 0.91986 0.0
C333 C 0.84633 0.09814 0.96123 0.0
O334 O 0.86318 0.07079 0.9423 0.0
C335 C 0.98539 0.13067 0.02884 0.0
C336 C 0.01356 0.08601 0.58244 0.0
C337 C 0.04602 0.10686 0.57293 0.0
H338 H 0.96181 0.06289 0.56144 0.0
C339 C 0.04361 0.13273 0.54228 0.0
H340 H 0.01367 0.06678 0.60662 0.0
C341 C 0.0137 0.13041 0.51613 0.0
C342 C 0.98577 0.10272 0.52101 0.0
H343 H 0.06761 0.15023 0.53492 0.0
H344 H 0.01538 0.14651 0.48976 0.0
C345 C 0.98383 0.08347 0.55623 0.0
C346 C 0.9145 0.46068 0.46243 0.0
C347 C 0.9352 0.48262 0.43622 0.0
H348 H 0.88103 0.46066 0.51406 0.0
C349 C 0.93704 0.52192 0.44174 0.0
H350 H 0.91295 0.43029 0.45908 0.0
C351 C 0.91902 0.53902 0.47255 0.0
C352 C 0.89878 0.51742 0.49925 0.0
H353 H 0.95271 0.53974 0.42216 0.0
H354 H 0.92142 0.5694 0.47562 0.0
C355 C 0.89666 0.47797 0.49403 0.0
C356 C 0.08339 0.95089 0.03843 0.0
C357 C 0.09592 0.95415 0.07654 0.0
H358 H 0.09182 0.96737 0.97979 0.0
C359 C 0.12975 0.97311 0.08423 0.0
H360 H 0.05687 0.937 0.03208 0.0
C361 C 0.14908 0.99134 0.05459 0.0
C362 C 0.13525 0.99021 0.01676 0.0
H363 H 0.13943 0.97663 0.11349 0.0
H364 H 0.17368 0.00816 0.06158 0.0
C365 C 0.10328 0.9683 0.00859 0.0
C366 C 0.0197 0.58189 0.95408 0.0
C367 C 0.02041 0.60056 0.98964 0.0
H368 H 0.98645 0.56731 0.90532 0.0
C369 C 0.99408 0.62954 0.99638 0.0
H370 H 0.0405 0.56038 0.94738 0.0
C371 C 0.9629 0.63361 0.97204 0.0
C372 C 0.95765 0.60817 0.94144 0.0
H373 H 0.99453 0.64534 0.02298 0.0
H374 H 0.9401 0.65205 0.98102 0.0
C375 C 0.9887 0.58619 0.92967 0.0
C376 C 0.55626 0.99042 0.07454 0.0
C377 C 0.52237 0.99741 0.09427 0.0
H378 H 0.6082 0.01366 0.05474 0.0
C379 C 0.52102 0.02774 0.12022 0.0
H380 H 0.55874 0.96644 0.0554 0.0
C381 C 0.54958 0.05501 0.11986 0.0
C382 C 0.57916 0.05242 0.09299 0.0
H383 H 0.49578 0.03329 0.13682 0.0
H384 H 0.5451 0.08087 0.13587 0.0
C385 C 0.5849 0.01752 0.07446 0.0
C386 C 0.54183 0.43171 0.04167 0.0
C387 C 0.52821 0.46685 0.0541 0.0
H388 H 0.53139 0.38318 1.00646 0.0
C389 C 0.49075 0.47724 0.04576 0.0
H390 H 0.57075 0.42334 0.04736 0.0
C391 C 0.46799 0.45394 0.02313 0.0
C392 C 0.48286 0.42048 0.00788 0.0
H393 H 0.47978 0.50429 0.05505 0.0
H394 H 0.43995 0.46345 0.01518 0.0
C395 C 0.51946 0.40894 0.01817 0.0
C396 C 0.49262 0.91964 0.48153 0.0
C397 C 0.52538 0.93511 0.49782 0.0
H398 H 0.44195 0.93041 0.44964 0.0
C399 C 0.53527 0.9725 0.4896 0.0
H400 H 0.48443 0.89085 0.48804 0.0
C401 C 0.51084 0.9952 0.46808 0.0
C402 C 0.47637 0.98072 0.45449 0.0
H403 H 0.5602 0.985 0.50237 0.0
H404 H 0.51766 0.02475 0.46428 0.0
C405 C 0.46843 0.9422 0.45952 0.0
C406 C 0.42082 0.53413 0.43005 0.0
C407 C 0.42704 0.56935 0.41241 0.0
H408 H 0.44794 0.48456 0.45202 0.0
C409 C 0.45761 0.57236 0.3867 0.0
H410 H 0.39664 0.52983 0.44852 0.0
C411 C 0.48709 0.54597 0.38841 0.0
C412 C 0.4852 0.51623 0.41492 0.0
H413 H 0.46237 0.59845 0.37119 0.0
H414 H 0.51339 0.5524 0.37401 0.0
C415 C 0.45039 0.50805 0.43223 0.0
C416 C 0.15808 0.43603 0.1181 0.0
C417 C 0.12787 0.42099 0.13941 0.0
H418 H 0.18274 0.48609 0.09464 0.0
C419 C 0.1086 0.44515 0.16477 0.0
H420 H 0.1745 0.41815 0.09917 0.0
C421 C 0.11381 0.48435 0.16256 0.0
C422 C 0.13804 0.49977 0.13459 0.0
H423 H 0.08603 0.43443 0.18262 0.0
H424 H 0.09459 0.50232 0.17843 0.0
C425 C 0.16311 0.47518 0.11571 0.0
C426 C 0.07734 0.42973 0.44113 0.0
C427 C 0.08992 0.44155 0.40481 0.0
H428 H 0.06307 0.44772 0.49783 0.0
C429 C 0.11289 0.47402 0.40284 0.0
H430 H 0.0609 0.40412 0.44425 0.0
C431 C 0.11433 0.49906 0.43389 0.0
C432 C 0.09342 0.49126 0.46709 0.0
H433 H 0.12432 0.48329 0.37563 0.0
H434 H 0.12697 0.52661 0.4297 0.0
C435 C 0.07837 0.45488 0.47195 0.0
C436 C 0.84838 0.94554 0.38819 0.0
C437 C 0.8788 0.93036 0.36723 0.0
H438 H 0.8236 0.99567 0.4116 0.0
C439 C 0.8987 0.95456 0.34246 0.0
H440 H 0.83154 0.92768 0.4067 0.0
C441 C 0.89362 0.99379 0.34484 0.0
C442 C 0.869 0.00924 0.37247 0.0
H443 H 0.92149 0.94375 0.3249 0.0
H444 H 0.91316 0.0117 0.32937 0.0
C445 C 0.84352 0.98473 0.3908 0.0
C446 C 0.45969 0.49744 0.56233 0.0
C447 C 0.4447 0.53229 0.57431 0.0
H448 H 0.49049 0.44768 0.57861 0.0
C449 C 0.44477 0.54128 0.61357 0.0
H450 H 0.46001 0.48987 0.53223 0.0
C451 C 0.46281 0.51748 0.63986 0.0
C452 C 0.47984 0.4839 0.62738 0.0
H453 H 0.4337 0.56809 0.62354 0.0
H454 H 0.46539 0.52632 0.66949 0.0
C455 C 0.47691 0.47326 0.58879 0.0
C456 C 0.53879 0.64056 0.05725 0.0
C457 C 0.53943 0.61623 0.08927 0.0
H458 H 0.5147 0.65127 1.00199 0.0
C459 C 0.50716 0.59418 0.09654 0.0
H460 H 0.56239 0.65911 0.05141 0.0
C461 C 0.47983 0.58954 0.06797 0.0
C462 C 0.48405 0.6075 0.03227 0.0
H463 H 0.50576 0.57614 0.1216 0.0
H464 H 0.45788 0.56871 0.0723 0.0
C465 C 0.51146 0.63591 0.02865 0.0
C466 C 0.36755 0.86327 0.98771 0.0
C467 C 0.35536 0.8928 0.01171 0.0
H468 H 0.37579 0.84519 0.92991 0.0
C469 C 0.32926 0.9191 0.9967 0.0
H470 H 0.38682 0.84194 0.99851 0.0
C471 C 0.32354 0.92154 0.95703 0.0
C472 C 0.34326 0.89724 0.9322 0.0
H473 H 0.31829 0.94173 0.01442 0.0
H474 H 0.30812 0.94563 0.94585 0.0
C475 C 0.36142 0.86541 0.94812 0.0
C476 C 0.6531 0.40345 0.58146 0.0
C477 C 0.62229 0.38652 0.60009 0.0
H478 H 0.67351 0.42619 0.52866 0.0
C479 C 0.59582 0.36675 0.57752 0.0
H480 H 0.67457 0.4181 0.59782 0.0
C481 C 0.59493 0.37204 0.53773 0.0
C482 C 0.62085 0.39652 0.52027 0.0
H483 H 0.57228 0.35227 0.59073 0.0
H484 H 0.57024 0.36267 0.52205 0.0
C485 C 0.65277 0.40759 0.54149 0.0
C486 C 0.45471 0.14521 0.50632 0.0
C487 C 0.48593 0.12108 0.50228 0.0
H488 H 0.40358 0.16483 0.48057 0.0
C489 C 0.49697 0.11004 0.46528 0.0
H490 H 0.44622 0.15525 0.53436 0.0
C491 C 0.47268 0.11586 0.43422 0.0
C492 C 0.4366 0.13143 0.44053 0.0
H493 H 0.52204 0.09296 0.46116 0.0
H494 H 0.47946 0.10224 0.40727 0.0
C495 C 0.43034 0.15089 0.47525 0.0
C496 C 0.99443 0.65667 0.60379 0.0
C497 C 0.01208 0.62359 0.61738 0.0
H498 H 0.94139 0.68376 0.59327 0.0
C499 C 0.99344 0.60233 0.6456 0.0
H500 H 0.00835 0.67428 0.5827 0.0
C501 C 0.95484 0.60786 0.65187 0.0
C502 C 0.93486 0.6346 0.62981 0.0
H503 H 0.00668 0.57723 0.65738 0.0
H504 H 0.93985 0.58721 0.66899 0.0
C505 C 0.95566 0.66197 0.60965 0.0
C506 C 0.02622 0.88559 0.52026 0.0
C507 C 0.98815 0.89474 0.51367 0.0
H508 H 0.07921 0.90374 0.5436 0.0
C509 C 0.97279 0.92726 0.53058 0.0
H510 H 0.03859 0.86065 0.50728 0.0
C511 C 0.9962 0.95233 0.5504 0.0
C512 C 0.0349 0.94449 0.55463 0.0
H513 H 0.94359 0.93503 0.52548 0.0
H514 H 0.98464 0.97903 0.56016 0.0
C515 C 0.04935 0.91003 0.54121 0.0
C516 C 0.97366 0.38517 0.99228 0.0
C517 C 0.01196 0.394 0.99775 0.0
H518 H 0.91959 0.40452 0.97239 0.0
C519 C 0.02628 0.42781 0.98273 0.0
H520 H 0.96205 0.35929 1.00394 0.0
C521 C 0.00185 0.45404 0.96577 0.0
C522 C 0.96309 0.44622 0.96248 0.0
H523 H 0.0556 0.43539 0.98712 0.0
H524 H 0.01282 0.48137 0.95727 0.0
C525 C 0.94946 0.41087 0.97414 0.0
C526 C 0.06019 0.15041 0.91957 0.0
C527 C 0.08208 0.12501 0.89792 0.0
H528 H 0.00509 0.16373 0.9404 0.0
C529 C 0.06374 0.10262 0.87023 0.0
H530 H 0.07334 0.16884 0.94045 0.0
C531 C 0.02436 0.09956 0.87028 0.0
C532 C 0.00294 0.11892 0.89794 0.0
H533 H 0.07972 0.08354 0.85212 0.0
H534 H 0.01141 0.07778 0.85286 0.0
C535 C 0.02074 0.14766 0.91926 0.0
C536 C 0.6422 0.01483 0.63 0.0
C537 C 0.61286 0.03248 0.65042 0.0
H538 H 0.66414 0.96161 0.61164 0.0
C539 C 0.5986 0.0137 0.68281 0.0
H540 H 0.65524 0.02926 0.60604 0.0
C541 C 0.60267 0.97441 0.68546 0.0
C542 C 0.62235 0.9548 0.65659 0.0
H543 H 0.57737 0.02714 0.70057 0.0
H544 H 0.58496 0.95927 0.70556 0.0
C545 C 0.64688 0.97565 0.63295 0.0
C546 C 0.54091 0.03334 0.89859 0.0
C547 C 0.54891 0.02185 0.93628 0.0
H548 H 0.50759 0.02329 0.84822 0.0
C549 C 0.535 0.98702 0.94947 0.0
H550 H 0.55086 0.06031 0.88794 0.0
C551 C 0.51107 0.96543 0.92635 0.0
C552 C 0.50009 0.97897 0.89024 0.0
H553 H 0.5406 0.97775 0.97855 0.0
H554 H 0.49862 0.93993 0.93796 0.0
C555 C 0.51606 0.01235 0.87596 0.0
C556 C 0.39394 0.50749 0.83844 0.0
C557 C 0.37041 0.52027 0.86834 0.0
H558 H 0.42139 0.45918 0.81434 0.0
C559 C 0.34291 0.49527 0.88241 0.0
H560 H 0.41443 0.52626 0.82551 0.0
C561 C 0.34653 0.45649 0.87545 0.0
C562 C 0.37781 0.44285 0.85466 0.0
H563 H 0.32326 0.5045 0.90429 0.0
H564 H 0.32896 0.43733 0.89177 0.0
C565 C 0.3981 0.46866 0.83204 0.0
C566 C 0.93863 0.94832 0.03702 0.0
C567 C 0.92108 0.98381 0.04062 0.0
H568 H 0.96129 0.90057 0.06654 0.0
C569 C 0.90148 0.99215 0.07452 0.0
H570 H 0.95309 0.94071 0.01076 0.0
C571 C 0.90629 0.96907 0.10678 0.0
C572 C 0.93103 0.93784 0.10527 0.0
H573 H 0.88708 0.01899 0.07789 0.0
H574 H 0.89554 0.97902 0.13405 0.0
C575 C 0.94312 0.92511 0.06911 0.0
C576 C 0.91036 0.24044 0.40316 0.0
C577 C 0.9341 0.21478 0.38394 0.0
H578 H 0.89597 0.29808 0.41425 0.0
C579 C 0.96154 0.22934 0.35878 0.0
H580 H 0.88881 0.23044 0.42267 0.0
C581 C 0.96573 0.26863 0.35393 0.0
C582 C 0.94256 0.2942 0.37412 0.0
H583 H 0.98037 0.21046 0.34354 0.0
H584 H 0.98761 0.27894 0.33498 0.0
C585 C 0.91451 0.27945 0.39833 0.0
C586 C 0.05006 0.72046 0.15791 0.0
C587 C 0.07123 0.70701 0.12653 0.0
H588 H 0.02755 0.76911 0.18731 0.0
C589 C 0.0874 0.73359 0.10149 0.0
H590 H 0.03722 0.70081 0.17778 0.0
C591 C 0.08151 0.77228 0.10665 0.0
C592 C 0.05966 0.78586 0.1373 0.0
H593 H 0.10394 0.72455 0.07705 0.0
H594 H 0.09389 0.79162 0.08614 0.0
C595 C 0.04456 0.75956 0.16341 0.0
C596 C 0.36777 0.00449 0.22249 0.0
C597 C 0.37552 0.96797 0.20854 0.0
H598 H 0.36088 0.03998 0.27188 0.0
C599 C 0.37962 0.93827 0.23504 0.0
H600 H 0.36451 0.02804 0.20291 0.0
C601 C 0.37741 0.94507 0.27449 0.0
C602 C 0.37129 0.98181 0.28857 0.0
H603 H 0.38544 0.90977 0.22537 0.0
H604 H 0.3816 0.92157 0.29396 0.0
C605 C 0.36581 0.01135 0.26207 0.0
C606 C 0.59894 0.43936 0.24414 0.0
C607 C 0.6164 0.47161 0.22865 0.0
H608 H 0.58336 0.40872 0.29459 0.0
C609 C 0.63477 0.49666 0.25387 0.0
H610 H 0.58468 0.41927 0.22574 0.0
C611 C 0.63428 0.49034 0.29367 0.0
C612 C 0.61515 0.45901 0.30915 0.0
H613 H 0.64863 0.52171 0.24297 0.0
H614 H 0.64754 0.51085 0.31236 0.0
C615 C 0.5982 0.43324 0.28377 0.0
C616 C 0.27172 0.33218 0.98955 0.0
C617 C 0.28819 0.36791 0.98372 0.0
H618 H 0.22156 0.30123 1.00419 0.0
C619 C 0.26538 0.40024 0.98764 0.0
H620 H 0.28845 0.30669 0.98659 0.0
C621 C 0.22731 0.39713 0.9973 0.0
C622 C 0.21076 0.36158 1.00351 0.0
H623 H 0.27688 0.42824 0.98317 0.0
H624 H 0.21094 0.42285 1.00028 0.0
C625 C 0.23337 0.32904 0.99944 0.0
C626 C 0.21861 0.6421 0.52182 0.0
C627 C 0.19927 0.61675 0.54592 0.0
H628 H 0.2725 0.66192 0.50183 0.0
C629 C 0.22046 0.59368 0.57079 0.0
H630 H 0.20315 0.66033 0.50238 0.0
C631 C 0.25985 0.59439 0.57025 0.0
C632 C 0.2793 0.61846 0.54513 0.0
H633 H 0.20669 0.57396 0.58995 0.0
H634 H 0.27509 0.57527 0.58901 0.0
C635 C 0.25831 0.64309 0.52158 0.0
C636 C 0.73153 0.84081 0.51709 0.0
C637 C 0.71648 0.87702 0.52416 0.0
H638 H 0.78015 0.80834 0.50017 0.0
C639 C 0.74016 0.90856 0.52004 0.0
H640 H 0.71407 0.8159 0.52011 0.0
C641 C 0.77775 0.90424 0.50903 0.0
C642 C 0.7929 0.86823 0.50159 0.0
H643 H 0.72972 0.93688 0.52538 0.0
H644 H 0.79485 0.92941 0.506 0.0
C645 C 0.7694 0.83647 0.50581 0.0
C646 C 0.44447 0.7784 0.91087 0.0
C647 C 0.4503 0.791 0.87313 0.0
H648 H 0.43791 0.73144 0.94862 0.0
C649 C 0.45569 0.76404 0.84397 0.0
H650 H 0.43997 0.79827 0.93405 0.0
C651 C 0.45511 0.7252 0.85262 0.0
C652 C 0.44812 0.71291 0.89031 0.0
H653 H 0.4602 0.77294 0.81462 0.0
H654 H 0.45912 0.70487 0.82977 0.0
C655 C 0.44302 0.73996 0.91924 0.0
C656 C 0.51225 0.27851 0.62158 0.0
C657 C 0.50695 0.29196 0.65908 0.0
H658 H 0.52191 0.23084 0.58542 0.0
C659 C 0.50472 0.26575 0.68938 0.0
H660 H 0.51429 0.29779 0.59754 0.0
C661 C 0.50849 0.22685 0.68217 0.0
C662 C 0.51563 0.21391 0.64478 0.0
H663 H 0.50071 0.27534 0.71858 0.0
H664 H 0.5072 0.20711 0.70587 0.0
C665 C 0.51698 0.24008 0.61461 0.0
C666 C 0.91104 0.48801 0.76905 0.0
C667 C 0.8816 0.49895 0.79372 0.0
H668 H 0.93068 0.48293 0.71133 0.0
C669 C 0.84704 0.51044 0.77741 0.0
H670 H 0.93797 0.47871 0.78045 0.0
C671 C 0.84276 0.51263 0.73739 0.0
C672 C 0.873 0.50354 0.71287 0.0
H673 H 0.8237 0.51892 0.79552 0.0
H674 H 0.81633 0.52302 0.72578 0.0
C675 C 0.90683 0.49034 0.72926 0.0
C676 C 0.09631 0.98398 0.75115 0.0
C677 C 0.12388 0.99466 0.7243 0.0
H678 H 0.08121 0.9786 0.81024 0.0
C679 C 0.1597 0.00557 0.73788 0.0
H680 H 0.0685 0.97516 0.74186 0.0
C681 C 0.16712 0.00734 0.77742 0.0
C682 C 0.13883 0.99837 0.80423 0.0
H683 H 0.18168 0.01381 0.71803 0.0
H684 H 0.19451 0.01716 0.78695 0.0
C685 C 0.10365 0.98588 0.79051 0.0
C686 C 0.78462 0.12878 0.98111 0.0
C687 C 0.80448 0.10204 0.959 0.0
H688 H 0.73038 0.14933 0.9995 0.0
C689 C 0.78368 0.07682 0.9361 0.0
H690 H 0.79971 0.14867 0.99903 0.0
C691 C 0.74424 0.07704 0.93656 0.0
C692 C 0.72428 0.1027 0.95968 0.0
H693 H 0.79784 0.05594 0.91851 0.0
H694 H 0.72938 0.0564 0.91931 0.0
C695 C 0.74488 0.12921 0.98132 0.0
C696 C 0.01591 0.95042 0.30274 0.0
C697 C 0.03618 0.97066 0.27494 0.0
H698 H 0.98703 0.95259 0.35662 0.0
C699 C 0.04852 0.00747 0.28392 0.0
H700 H 0.006 0.92208 0.29682 0.0
C701 C 0.03719 0.02521 0.3178 0.0
C702 C 0.01352 0.00646 0.34378 0.0
H703 H 0.06469 0.02373 0.26339 0.0
H704 H 0.04494 0.05447 0.32234 0.0
C705 C 0.00484 0.96812 0.33695 0.0
C706 C 0.99426 0.44603 0.20776 0.0
C707 C 0.9746 0.46733 0.23519 0.0
H708 H 0.02119 0.44631 0.15278 0.0
C709 C 0.95972 0.50272 0.22445 0.0
H710 H 0.00617 0.41877 0.21523 0.0
C711 C 0.9689 0.51886 0.18916 0.0
C712 C 0.9929 0.49978 0.1637 0.0
H713 H 0.94407 0.51962 0.24492 0.0
H714 H 0.95987 0.54758 0.18334 0.0
C715 C 0.00316 0.46209 0.17209 0.0
C716 C 0.30936 0.04289 0.94024 0.0
C717 C 0.28826 0.0717 0.95791 0.0
H718 H 0.35581 0.0044 0.94488 0.0
C719 C 0.30242 0.088 0.99188 0.0
H720 H 0.29945 0.0298 0.91403 0.0
C721 C 0.33426 0.07281 0.0101 0.0
C722 C 0.35315 0.04158 0.99432 0.0
H723 H 0.28708 0.11036 1.0063 0.0
H724 H 0.34259 0.08402 0.03773 0.0
C725 C 0.3417 0.02826 0.95807 0.0
C726 C 0.71498 0.52875 0.99368 0.0
C727 C 0.71029 0.52776 0.03385 0.0
H728 H 0.75343 0.52779 0.94633 0.0
C729 C 0.7422 0.52263 0.05709 0.0
H730 H 0.69096 0.53233 0.97477 0.0
C731 C 0.77809 0.51994 0.0406 0.0
C732 C 0.78286 0.52226 1.0005 0.0
H733 H 0.73958 0.52156 0.08801 0.0
H734 H 0.80222 0.51683 0.05946 0.0
C735 C 0.75081 0.52602 0.97722 0.0
C736 C 0.28256 0.01355 0.52235 0.0
C737 C 0.28688 0.01724 0.48232 0.0
H738 H 0.24439 0.01003 0.56976 0.0
C739 C 0.25467 0.01644 0.45898 0.0
H740 H 0.30684 0.01367 0.54126 0.0
C741 C 0.21881 0.01411 0.47548 0.0
C742 C 0.21445 0.01273 0.51566 0.0
H743 H 0.25702 0.01904 0.42814 0.0
H744 H 0.19444 0.01482 0.45669 0.0
C745 C 0.24675 0.01146 0.53883 0.0
C746 C 0.73574 0.54139 0.52764 0.0
C747 C 0.73754 0.57645 0.54635 0.0
H748 H 0.70377 0.50416 0.49215 0.0
C749 C 0.70712 0.60181 0.54269 0.0
H750 H 0.75912 0.52163 0.52922 0.0
C751 C 0.67474 0.59139 0.52186 0.0
C752 C 0.67335 0.55635 0.50283 0.0
H753 H 0.70819 0.62927 0.55636 0.0
H754 H 0.6509 0.61057 0.52059 0.0
C755 C 0.70434 0.53172 0.50571 0.0
C756 C 0.06225 0.20221 0.05016 0.0
C757 C 0.04434 0.22611 0.0767 0.0
H758 H 0.05793 0.15296 0.01479 0.0
C759 C 0.00866 0.2155 0.09096 0.0
H760 H 0.08963 0.20947 0.03853 0.0
C761 C 0.99007 0.18354 0.07672 0.0
C762 C 0.00704 0.16095 0.0485 0.0
H763 H 0.99387 0.23321 0.11136 0.0
H764 H 0.96184 0.17735 0.0868 0.0
C765 C 0.04395 0.16981 0.03648 0.0
C766 C 0.01424 0.69061 0.42618 0.0
C767 C 0.99619 0.66669 0.45245 0.0
H768 H 0.01138 0.74152 0.39335 0.0
C769 C 0.95837 0.67432 0.46235 0.0
H770 H 0.0432 0.68536 0.41773 0.0
C771 C 0.94017 0.70695 0.44887 0.0
C772 C 0.95912 0.73226 0.42457 0.0
H773 H 0.94357 0.65639 0.48251 0.0
H774 H 0.912 0.71333 0.45909 0.0
C775 C 0.99578 0.72275 0.41204 0.0
C776 C 0.54417 0.74641 0.5577 0.0
C777 C 0.52474 0.77318 0.57975 0.0
H778 H 0.54091 0.6961 0.52434 0.0
C779 C 0.48572 0.76827 0.5861 0.0
H780 H 0.57408 0.74949 0.55203 0.0
C781 C 0.46633 0.73793 0.5695 0.0
C782 C 0.48572 0.7117 0.54671 0.0
H783 H 0.46976 0.78869 0.60261 0.0
H784 H 0.43627 0.73511 0.57441 0.0
C785 C 0.52495 0.71597 0.54157 0.0
C786 C 0.51492 0.46498 0.85555 0.0
C787 C 0.52582 0.50236 0.86388 0.0
H788 H 0.51951 0.41808 0.81693 0.0
C789 C 0.55543 0.51847 0.84278 0.0
H790 H 0.49225 0.45164 0.87134 0.0
C791 C 0.57156 0.49891 0.81201 0.0
C792 C 0.55794 0.46307 0.80111 0.0
H793 H 0.56474 0.54703 0.84868 0.0
H794 H 0.59274 0.51323 0.79501 0.0
C795 C 0.5306 0.44565 0.82432 0.0
C796 C 0.39428 0.00288 0.7189 0.0
C797 C 0.4057 0.9659 0.72869 0.0
H798 H 0.40379 0.05141 0.68344 0.0
C799 C 0.43129 0.94715 0.70441 0.0
H800 H 0.37445 0.01827 0.73666 0.0
C801 C 0.44766 0.96618 0.67332 0.0
C802 C 0.43923 0.00449 0.6663 0.0
H803 H 0.44069 0.91872 0.71094 0.0
H804 H 0.46914 0.95176 0.65672 0.0
C805 C 0.4112 0.02209 0.6884 0.0
C806 C 0.51639 0.25333 0.91933 0.0
C807 C 0.47789 0.25956 0.92768 0.0
H808 H 0.56601 0.21993 0.93041 0.0
C809 C 0.45956 0.2348 0.95284 0.0
H810 H 0.53154 0.27222 0.90039 0.0
C811 C 0.47935 0.2053 0.97018 0.0
C812 C 0.51813 0.19977 0.96303 0.0
H813 H 0.4301 0.23888 0.96013 0.0
H814 H 0.46416 0.18714 0.98981 0.0
C815 C 0.53637 0.2238 0.93699 0.0
loop_
_geom_bond_atom_site_label_1
_geom_bond_atom_site_label_2
_geom_bond_distance
_geom_bond_site_symmetry_2
_ccdc_geom_bond_type
Zn0 O3 2.031 . S
Zn0 O5 2.049 . S
Zn0 O10 2.067 1_455 S
Zn1 O2 1.962 . S
Zn1 O4 1.986 1_455 S
Zn1 O6 1.996 . S
Zn1 O9 1.943 1_455 S
O2 Zn1 1.962 . S
O2 C7 1.254 . S
O3 Zn0 2.031 . S
O3 C7 1.269 . S
O4 Zn1 1.986 1_655 S
O4 C11 1.262 . S
O5 Zn0 2.049 . S
O5 C13 1.260 . S
O6 Zn1 1.996 . S
O6 C13 1.257 . S
C7 O2 1.254 . S
C7 O3 1.269 . S
C8 O9 1.249 . S
C8 O10 1.270 . S
O9 Zn1 1.943 1_655 S
O9 C8 1.249 . S
O10 Zn0 2.067 1_655 S
O10 C8 1.270 . S
C11 O4 1.262 . S
C11 O12 1.232 . S
O12 C11 1.232 . S
C13 O5 1.260 . S
C13 O6 1.257 . S
Zn14 O17 2.031 . S
Zn14 O19 2.049 . S
Zn14 O24 2.067 1_655 S
Zn15 O16 1.962 . S
Zn15 O18 1.986 1_655 S
Zn15 O20 1.996 . S
Zn15 O23 1.943 1_655 S
O16 Zn15 1.962 . S
O16 C21 1.254 . S
O17 Zn14 2.031 . S
O17 C21 1.269 . S
O18 Zn15 1.986 1_455 S
O18 C25 1.262 . S
O19 Zn14 2.049 . S
O19 C27 1.260 . S
O20 Zn15 1.996 . S
O20 C27 1.257 . S
C21 O16 1.254 . S
C21 O17 1.269 . S
C22 O23 1.249 . S
C22 O24 1.270 . S
O23 Zn15 1.943 1_455 S
O23 C22 1.249 . S
O24 Zn14 2.067 1_455 S
O24 C22 1.270 . S
C25 O18 1.262 . S
C25 O26 1.232 . S
O26 C25 1.232 . S
C27 O19 1.260 . S
C27 O20 1.257 . S
Zn28 O31 2.031 . S
Zn28 O33 2.049 . S
Zn28 O38 2.067 1_455 S
Zn29 O30 1.962 . S
Zn29 O32 1.986 1_455 S
Zn29 O34 1.996 . S
Zn29 O37 1.943 1_455 S
O30 Zn29 1.962 . S
O30 C35 1.254 . S
O31 Zn28 2.031 . S
O31 C35 1.269 . S
O32 Zn29 1.986 1_655 S
O32 C39 1.262 . S
O33 Zn28 2.049 . S
O33 C41 1.260 . S
O34 Zn29 1.996 . S
O34 C41 1.257 . S
C35 O30 1.254 . S
C35 O31 1.269 . S
C36 O37 1.249 . S
C36 O38 1.270 . S
O37 Zn29 1.943 1_655 S
O37 C36 1.249 . S
O38 Zn28 2.067 1_655 S
O38 C36 1.270 . S
C39 O32 1.262 . S
C39 O40 1.232 . S
O40 C39 1.232 . S
C41 O33 1.260 . S
C41 O34 1.257 . S
Zn42 O45 2.031 . S
Zn42 O47 2.049 . S
Zn42 O52 2.067 1_655 S
Zn43 O44 1.962 . S
Zn43 O46 1.986 1_655 S
Zn43 O48 1.996 . S
Zn43 O51 1.943 1_655 S
O44 Zn43 1.962 . S
O44 C49 1.254 . S
O45 Zn42 2.031 . S
O45 C49 1.269 . S
O46 Zn43 1.986 1_455 S
O46 C53 1.262 . S
O47 Zn42 2.049 . S
O47 C55 1.260 . S
O48 Zn43 1.996 . S
O48 C55 1.257 . S
C49 O44 1.254 . S
C49 O45 1.269 . S
C50 O51 1.249 . S
C50 O52 1.270 . S
O51 Zn43 1.943 1_455 S
O51 C50 1.249 . S
O52 Zn42 2.067 1_455 S
O52 C50 1.270 . S
C53 O46 1.262 . S
C53 O54 1.232 . S
O54 C53 1.232 . S
C55 O47 1.260 . S
C55 O48 1.257 . S
Zn56 O59 2.031 . S
Zn56 O61 2.049 . S
Zn56 O66 2.067 1_545 S
Zn57 O58 1.962 . S
Zn57 O60 1.986 1_545 S
Zn57 O62 1.996 . S
Zn57 O65 1.943 1_545 S
O58 Zn57 1.962 . S
O58 C63 1.254 . S
O59 Zn56 2.031 . S
O59 C63 1.269 . S
O60 Zn57 1.986 1_565 S
O60 C67 1.262 . S
O61 Zn56 2.049 . S
O61 C69 1.260 . S
O62 Zn57 1.996 . S
O62 C69 1.257 . S
C63 O58 1.254 . S
C63 O59 1.269 . S
C64 O65 1.249 . S
C64 O66 1.270 . S
O65 Zn57 1.943 1_565 S
O65 C64 1.249 . S
O66 Zn56 2.067 1_565 S
O66 C64 1.270 . S
C67 O60 1.262 . S
C67 O68 1.232 . S
O68 C67 1.232 . S
C69 O61 1.260 . S
C69 O62 1.257 . S
Zn70 O73 2.031 . S
Zn70 O75 2.049 . S
Zn70 O80 2.067 . S
Zn71 O72 1.962 . S
Zn71 O74 1.986 . S
Zn71 O76 1.996 . S
Zn71 O79 1.943 . S
O72 Zn71 1.962 . S
O72 C77 1.254 . S
O73 Zn70 2.031 . S
O73 C77 1.269 . S
O74 Zn71 1.986 . S
O74 C81 1.262 . S
O75 Zn70 2.049 . S
O75 C83 1.260 . S
O76 Zn71 1.996 . S
O76 C83 1.257 . S
C77 O72 1.254 . S
C77 O73 1.269 . S
C78 O79 1.249 . S
C78 O80 1.270 . S
O79 Zn71 1.943 . S
O79 C78 1.249 . S
O80 Zn70 2.067 . S
O80 C78 1.270 . S
C81 O74 1.262 . S
C81 O82 1.232 . S
O82 C81 1.232 . S
C83 O75 1.260 . S
C83 O76 1.257 . S
Zn84 O87 2.031 . S
Zn84 O89 2.049 . S
Zn84 O94 2.067 1_565 S
Zn85 O86 1.962 . S
Zn85 O88 1.986 1_565 S
Zn85 O90 1.996 . S
Zn85 O93 1.943 1_565 S
O86 Zn85 1.962 . S
O86 C91 1.254 . S
O87 Zn84 2.031 . S
O87 C91 1.269 . S
O88 Zn85 1.986 1_545 S
O88 C95 1.262 . S
O89 Zn84 2.049 . S
O89 C97 1.260 . S
O90 Zn85 1.996 . S
O90 C97 1.257 . S
C91 O86 1.254 . S
C91 O87 1.269 . S
C92 O93 1.249 . S
C92 O94 1.270 . S
O93 Zn85 1.943 1_545 S
O93 C92 1.249 . S
O94 Zn84 2.067 1_545 S
O94 C92 1.270 . S
C95 O88 1.262 . S
C95 O96 1.232 . S
O96 C95 1.232 . S
C97 O89 1.260 . S
C97 O90 1.257 . S
Zn98 O101 2.031 . S
Zn98 O103 2.049 . S
Zn98 O108 2.067 . S
Zn99 O100 1.962 . S
Zn99 O102 1.986 . S
Zn99 O104 1.996 . S
Zn99 O107 1.943 . S
O100 Zn99 1.962 . S
O100 C105 1.254 . S
O101 Zn98 2.031 . S
O101 C105 1.269 . S
O102 Zn99 1.986 . S
O102 C109 1.262 . S
O103 Zn98 2.049 . S
O103 C111 1.260 . S
O104 Zn99 1.996 . S
O104 C111 1.257 . S
C105 O100 1.254 . S
C105 O101 1.269 . S
C106 O107 1.249 . S
C106 O108 1.270 . S
O107 Zn99 1.943 . S
O107 C106 1.249 . S
O108 Zn98 2.067 . S
O108 C106 1.270 . S
C109 O102 1.262 . S
C109 O110 1.232 . S
O110 C109 1.232 . S
C111 O103 1.260 . S
C111 O104 1.257 . S
Zn112 O115 2.031 . S
Zn112 O117 2.049 . S
Zn112 O122 2.067 1_554 S
Zn113 O114 1.962 . S
Zn113 O116 1.986 1_554 S
Zn113 O118 1.996 . S
Zn113 O121 1.943 1_554 S
O114 Zn113 1.962 . S
O114 C119 1.254 . S
O115 Zn112 2.031 . S
O115 C119 1.269 . S
O116 Zn113 1.986 1_556 S
O116 C123 1.262 . S
O117 Zn112 2.049 . S
O117 C125 1.260 . S
O118 Zn113 1.996 . S
O118 C125 1.257 . S
C119 O114 1.254 . S
C119 O115 1.269 . S
C120 O121 1.249 . S
C120 O122 1.270 . S
O121 Zn113 1.943 1_556 S
O121 C120 1.249 . S
O122 Zn112 2.067 1_556 S
O122 C120 1.270 . S
C123 O116 1.262 . S
C123 O124 1.232 . S
O124 C123 1.232 . S
C125 O117 1.260 . S
C125 O118 1.257 . S
Zn126 O129 2.031 . S
Zn126 O131 2.049 . S
Zn126 O136 2.067 . S
Zn127 O128 1.962 . S
Zn127 O130 1.986 . S
Zn127 O132 1.996 . S
Zn127 O135 1.943 . S
O128 Zn127 1.962 . S
O128 C133 1.254 . S
O129 Zn126 2.031 . S
O129 C133 1.269 . S
O130 Zn127 1.986 . S
O130 C137 1.262 . S
O131 Zn126 2.049 . S
O131 C139 1.260 . S
O132 Zn127 1.996 . S
O132 C139 1.257 . S
C133 O128 1.254 . S
C133 O129 1.269 . S
C134 O135 1.249 . S
C134 O136 1.270 . S
O135 Zn127 1.943 . S
O135 C134 1.249 . S
O136 Zn126 2.067 . S
O136 C134 1.270 . S
C137 O130 1.262 . S
C137 O138 1.232 . S
O138 C137 1.232 . S
C139 O131 1.260 . S
C139 O132 1.257 . S
Zn140 O143 2.031 . S
Zn140 O145 2.049 . S
Zn140 O150 2.067 . S
Zn141 O142 1.962 . S
Zn141 O144 1.986 . S
Zn141 O146 1.996 . S
Zn141 O149 1.943 . S
O142 Zn141 1.962 . S
O142 C147 1.254 . S
O143 Zn140 2.031 . S
O143 C147 1.269 . S
O144 Zn141 1.986 . S
O144 C151 1.262 . S
O145 Zn140 2.049 . S
O145 C153 1.260 . S
O146 Zn141 1.996 . S
O146 C153 1.257 . S
C147 O142 1.254 . S
C147 O143 1.269 . S
C148 O149 1.249 . S
C148 O150 1.270 . S
O149 Zn141 1.943 . S
O149 C148 1.249 . S
O150 Zn140 2.067 . S
O150 C148 1.270 . S
C151 O144 1.262 . S
C151 O152 1.232 . S
O152 C151 1.232 . S
C153 O145 1.260 . S
C153 O146 1.257 . S
Zn154 O157 2.031 . S
Zn154 O159 2.049 . S
Zn154 O164 2.067 . S
Zn155 O156 1.962 . S
Zn155 O158 1.986 . S
Zn155 O160 1.996 . S
Zn155 O163 1.943 . S
O156 Zn155 1.962 . S
O156 C161 1.254 . S
O157 Zn154 2.031 . S
O157 C161 1.269 . S
O158 Zn155 1.986 . S
O158 C165 1.262 . S
O159 Zn154 2.049 . S
O159 C167 1.260 . S
O160 Zn155 1.996 . S
O160 C167 1.257 . S
C161 O156 1.254 . S
C161 O157 1.269 . S
C162 O163 1.249 . S
C162 O164 1.270 . S
O163 Zn155 1.943 . S
O163 C162 1.249 . S
O164 Zn154 2.067 . S
O164 C162 1.270 . S
C165 O158 1.262 . S
C165 O166 1.232 . S
O166 C165 1.232 . S
C167 O159 1.260 . S
C167 O160 1.257 . S
Zn168 O171 2.031 . S
Zn168 O173 2.049 . S
Zn168 O178 2.067 . S
Zn169 O170 1.962 . S
Zn169 O172 1.986 . S
Zn169 O174 1.996 . S
Zn169 O177 1.943 . S
O170 Zn169 1.962 . S
O170 C175 1.254 . S
O171 Zn168 2.031 . S
O171 C175 1.269 . S
O172 Zn169 1.986 . S
O172 C179 1.262 . S
O173 Zn168 2.049 . S
O173 C181 1.260 . S
O174 Zn169 1.996 . S
O174 C181 1.257 . S
C175 O170 1.254 . S
C175 O171 1.269 . S
C176 O177 1.249 . S
C176 O178 1.270 . S
O177 Zn169 1.943 . S
O177 C176 1.249 . S
O178 Zn168 2.067 . S
O178 C176 1.270 . S
C179 O172 1.262 . S
C179 O180 1.232 . S
O180 C179 1.232 . S
C181 O173 1.260 . S
C181 O174 1.257 . S
Zn182 O185 2.031 . S
Zn182 O187 2.049 . S
Zn182 O192 2.067 . S
Zn183 O184 1.962 . S
Zn183 O186 1.986 . S
Zn183 O188 1.996 . S
Zn183 O191 1.943 . S
O184 Zn183 1.962 . S
O184 C189 1.254 . S
O185 Zn182 2.031 . S
O185 C189 1.269 . S
O186 Zn183 1.986 . S
O186 C193 1.262 . S
O187 Zn182 2.049 . S
O187 C195 1.260 . S
O188 Zn183 1.996 . S
O188 C195 1.257 . S
C189 O184 1.254 . S
C189 O185 1.269 . S
C190 O191 1.249 . S
C190 O192 1.270 . S
O191 Zn183 1.943 . S
O191 C190 1.249 . S
O192 Zn182 2.067 . S
O192 C190 1.270 . S
C193 O186 1.262 . S
C193 O194 1.232 . S
O194 C193 1.232 . S
C195 O187 1.260 . S
C195 O188 1.257 . S
Zn196 O199 2.031 . S
Zn196 O201 2.049 . S
Zn196 O206 2.067 . S
Zn197 O198 1.962 . S
Zn197 O200 1.986 . S
Zn197 O202 1.996 . S
Zn197 O205 1.943 . S
O198 Zn197 1.962 . S
O198 C203 1.254 . S
O199 Zn196 2.031 . S
O199 C203 1.269 . S
O200 Zn197 1.986 . S
O200 C207 1.262 . S
O201 Zn196 2.049 . S
O201 C209 1.260 . S
O202 Zn197 1.996 . S
O202 C209 1.257 . S
C203 O198 1.254 . S
C203 O199 1.269 . S
C204 O205 1.249 . S
C204 O206 1.270 . S
O205 Zn197 1.943 . S
O205 C204 1.249 . S
O206 Zn196 2.067 . S
O206 C204 1.270 . S
C207 O200 1.262 . S
C207 O208 1.232 . S
O208 C207 1.232 . S
C209 O201 1.260 . S
C209 O202 1.257 . S
Zn210 O213 2.031 . S
Zn210 O215 2.049 . S
Zn210 O220 2.067 . S
Zn211 O212 1.962 . S
Zn211 O214 1.986 . S
Zn211 O216 1.996 . S
Zn211 O219 1.943 . S
O212 Zn211 1.962 . S
O212 C217 1.254 . S
O213 Zn210 2.031 . S
O213 C217 1.269 . S
O214 Zn211 1.986 . S
O214 C221 1.262 . S
O215 Zn210 2.049 . S
O215 C223 1.260 . S
O216 Zn211 1.996 . S
O216 C223 1.257 . S
C217 O212 1.254 . S
C217 O213 1.269 . S
C218 O219 1.249 . S
C218 O220 1.270 . S
O219 Zn211 1.943 . S
O219 C218 1.249 . S
O220 Zn210 2.067 . S
O220 C218 1.270 . S
C221 O214 1.262 . S
C221 O222 1.232 . S
O222 C221 1.232 . S
C223 O215 1.260 . S
C223 O216 1.257 . S
Zn224 O227 2.031 . S
Zn224 O229 2.049 . S
Zn224 O234 2.067 . S
Zn225 O226 1.962 . S
Zn225 O228 1.986 . S
Zn225 O230 1.996 . S
Zn225 O233 1.943 . S
O226 Zn225 1.962 . S
O226 C231 1.254 . S
O227 Zn224 2.031 . S
O227 C231 1.269 . S
O228 Zn225 1.986 . S
O228 C235 1.262 . S
O229 Zn224 2.049 . S
O229 C237 1.260 . S
O230 Zn225 1.996 . S
O230 C237 1.257 . S
C231 O226 1.254 . S
C231 O227 1.269 . S
C232 O233 1.249 . S
C232 O234 1.270 . S
O233 Zn225 1.943 . S
O233 C232 1.249 . S
O234 Zn224 2.067 . S
O234 C232 1.270 . S
C235 O228 1.262 . S
C235 O236 1.232 . S
O236 C235 1.232 . S
C237 O229 1.260 . S
C237 O230 1.257 . S
Zn238 O241 2.031 . S
Zn238 O243 2.049 . S
Zn238 O248 2.067 1_565 S
Zn239 O240 1.962 . S
Zn239 O242 1.986 1_565 S
Zn239 O244 1.996 . S
Zn239 O247 1.943 1_565 S
O240 Zn239 1.962 . S
O240 C245 1.254 . S
O241 Zn238 2.031 . S
O241 C245 1.269 . S
O242 Zn239 1.986 1_545 S
O242 C249 1.262 . S
O243 Zn238 2.049 . S
O243 C251 1.260 . S
O244 Zn239 1.996 . S
O244 C251 1.257 . S
C245 O240 1.254 . S
C245 O241 1.269 . S
C246 O247 1.249 . S
C246 O248 1.270 . S
O247 Zn239 1.943 1_545 S
O247 C246 1.249 . S
O248 Zn238 2.067 1_545 S
O248 C246 1.270 . S
C249 O242 1.262 . S
C249 O250 1.232 . S
O250 C249 1.232 . S
C251 O243 1.260 . S
C251 O244 1.257 . S
Zn252 O255 2.031 . S
Zn252 O257 2.049 . S
Zn252 O262 2.067 . S
Zn253 O254 1.962 . S
Zn253 O256 1.986 . S
Zn253 O258 1.996 . S
Zn253 O261 1.943 . S
O254 Zn253 1.962 . S
O254 C259 1.254 . S
O255 Zn252 2.031 . S
O255 C259 1.269 . S
O256 Zn253 1.986 . S
O256 C263 1.262 . S
O257 Zn252 2.049 . S
O257 C265 1.260 . S
O258 Zn253 1.996 . S
O258 C265 1.257 . S
C259 O254 1.254 . S
C259 O255 1.269 . S
C260 O261 1.249 . S
C260 O262 1.270 . S
O261 Zn253 1.943 . S
O261 C260 1.249 . S
O262 Zn252 2.067 . S
O262 C260 1.270 . S
C263 O256 1.262 . S
C263 O264 1.232 . S
O264 C263 1.232 . S
C265 O257 1.260 . S
C265 O258 1.257 . S
Zn266 O269 2.031 . S
Zn266 O271 2.049 . S
Zn266 O276 2.067 1_545 S
Zn267 O268 1.962 . S
Zn267 O270 1.986 1_545 S
Zn267 O272 1.996 . S
Zn267 O275 1.943 1_545 S
O268 Zn267 1.962 . S
O268 C273 1.254 . S
O269 Zn266 2.031 . S
O269 C273 1.269 . S
O270 Zn267 1.986 1_565 S
O270 C277 1.262 . S
O271 Zn266 2.049 . S
O271 C279 1.260 . S
O272 Zn267 1.996 . S
O272 C279 1.257 . S
C273 O268 1.254 . S
C273 O269 1.269 . S
C274 O275 1.249 . S
C274 O276 1.270 . S
O275 Zn267 1.943 1_565 S
O275 C274 1.249 . S
O276 Zn266 2.067 1_565 S
O276 C274 1.270 . S
C277 O270 1.262 . S
C277 O278 1.232 . S
O278 C277 1.232 . S
C279 O271 1.260 . S
C279 O272 1.257 . S
Zn280 O283 2.031 . S
Zn280 O285 2.049 . S
Zn280 O290 2.067 . S
Zn281 O282 1.962 . S
Zn281 O284 1.986 . S
Zn281 O286 1.996 . S
Zn281 O289 1.943 . S
O282 Zn281 1.962 . S
O282 C287 1.254 . S
O283 Zn280 2.031 . S
O283 C287 1.269 . S
O284 Zn281 1.986 . S
O284 C291 1.262 . S
O285 Zn280 2.049 . S
O285 C293 1.260 . S
O286 Zn281 1.996 . S
O286 C293 1.257 . S
C287 O282 1.254 . S
C287 O283 1.269 . S
C288 O289 1.249 . S
C288 O290 1.270 . S
O289 Zn281 1.943 . S
O289 C288 1.249 . S
O290 Zn280 2.067 . S
O290 C288 1.270 . S
C291 O284 1.262 . S
C291 O292 1.232 . S
O292 C291 1.232 . S
C293 O285 1.260 . S
C293 O286 1.257 . S
Zn294 O297 2.031 . S
Zn294 O299 2.049 . S
Zn294 O304 2.067 1_556 S
Zn295 O296 1.962 . S
Zn295 O298 1.986 1_556 S
Zn295 O300 1.996 . S
Zn295 O303 1.943 1_556 S
O296 Zn295 1.962 . S
O296 C301 1.254 . S
O297 Zn294 2.031 . S
O297 C301 1.269 . S
O298 Zn295 1.986 1_554 S
O298 C305 1.262 . S
O299 Zn294 2.049 . S
O299 C307 1.260 . S
O300 Zn295 1.996 . S
O300 C307 1.257 . S
C301 O296 1.254 . S
C301 O297 1.269 . S
C302 O303 1.249 . S
C302 O304 1.270 . S
O303 Zn295 1.943 1_554 S
O303 C302 1.249 . S
O304 Zn294 2.067 1_554 S
O304 C302 1.270 . S
C305 O298 1.262 . S
C305 O306 1.232 . S
O306 C305 1.232 . S
C307 O299 1.260 . S
C307 O300 1.257 . S
Zn308 O311 2.031 . S
Zn308 O313 2.049 . S
Zn308 O318 2.067 1_556 S
Zn309 O310 1.962 . S
Zn309 O312 1.986 1_556 S
Zn309 O314 1.996 . S
Zn309 O317 1.943 1_556 S
O310 Zn309 1.962 . S
O310 C315 1.254 . S
O311 Zn308 2.031 . S
O311 C315 1.269 . S
O312 Zn309 1.986 1_554 S
O312 C319 1.262 . S
O313 Zn308 2.049 . S
O313 C321 1.260 . S
O314 Zn309 1.996 . S
O314 C321 1.257 . S
C315 O310 1.254 . S
C315 O311 1.269 . S
C316 O317 1.249 . S
C316 O318 1.270 . S
O317 Zn309 1.943 1_554 S
O317 C316 1.249 . S
O318 Zn308 2.067 1_554 S
O318 C316 1.270 . S
C319 O312 1.262 . S
C319 O320 1.232 . S
O320 C319 1.232 . S
C321 O313 1.260 . S
C321 O314 1.257 . S
Zn322 O325 2.031 . S
Zn322 O327 2.049 . S
Zn322 O332 2.067 1_554 S
Zn323 O324 1.962 . S
Zn323 O326 1.986 1_554 S
Zn323 O328 1.996 . S
Zn323 O331 1.943 1_554 S
O324 Zn323 1.962 . S
O324 C329 1.254 . S
O325 Zn322 2.031 . S
O325 C329 1.269 . S
O326 Zn323 1.986 1_556 S
O326 C333 1.262 . S
O327 Zn322 2.049 . S
O327 C335 1.260 . S
O328 Zn323 1.996 . S
O328 C335 1.257 . S
C329 O324 1.254 . S
C329 O325 1.269 . S
C330 O331 1.249 . S
C330 O332 1.270 . S
O331 Zn323 1.943 1_556 S
O331 C330 1.249 . S
O332 Zn322 2.067 1_556 S
O332 C330 1.270 . S
C333 O326 1.262 . S
C333 O334 1.232 . S
O334 C333 1.232 . S
C335 O327 1.260 . S
C335 O328 1.257 . S
C336 C337 1.387 . S
C336 H340 0.950 . S
C336 C345 1.390 . S
C337 C336 1.387 . S
C337 C339 1.387 . S
H338 C345 0.950 . S
C339 C337 1.387 . S
C339 C341 1.390 . S
C339 H343 0.950 . S
H340 C336 0.950 . S
C341 C339 1.390 . S
C341 C342 1.387 . S
C341 H344 0.950 . S
C342 C341 1.387 . S
C342 C345 1.387 . S
H343 C339 0.950 . S
H344 C341 0.950 . S
C345 C336 1.390 . S
C345 H338 0.950 . S
C345 C342 1.387 . S
C346 C347 1.387 . S
C346 H350 0.950 . S
C346 C355 1.390 . S
C347 C346 1.387 . S
C347 C349 1.387 . S
H348 C355 0.950 . S
C349 C347 1.387 . S
C349 C351 1.390 . S
C349 H353 0.950 . S
H350 C346 0.950 . S
C351 C349 1.390 . S
C351 C352 1.387 . S
C351 H354 0.950 . S
C352 C351 1.387 . S
C352 C355 1.387 . S
H353 C349 0.950 . S
H354 C351 0.950 . S
C355 C346 1.390 . S
C355 H348 0.950 . S
C355 C352 1.387 . S
C356 C357 1.387 . S
C356 H360 0.950 . S
C356 C365 1.390 1_554 S
C357 C356 1.387 . S
C357 C359 1.387 . S
H358 C365 0.950 . S
C359 C357 1.387 . S
C359 C361 1.390 1_554 S
C359 H363 0.950 . S
H360 C356 0.950 . S
C361 C359 1.390 1_556 S
C361 C362 1.387 . S
C361 H364 0.950 . S
C362 C361 1.387 . S
C362 C365 1.387 . S
H363 C359 0.950 . S
H364 C361 0.950 . S
C365 C356 1.390 1_556 S
C365 H358 0.950 . S
C365 C362 1.387 . S
C366 C367 1.387 . S
C366 H370 0.950 . S
C366 C375 1.390 1_554 S
C367 C366 1.387 . S
C367 C369 1.387 . S
H368 C375 0.950 . S
C369 C367 1.387 . S
C369 C371 1.390 1_554 S
C369 H373 0.950 . S
H370 C366 0.950 . S
C371 C369 1.390 1_556 S
C371 C372 1.387 . S
C371 H374 0.950 . S
C372 C371 1.387 . S
C372 C375 1.387 . S
H373 C369 0.950 . S
H374 C371 0.950 . S
C375 C366 1.390 1_556 S
C375 H368 0.950 . S
C375 C372 1.387 . S
C376 C377 1.387 . S
C376 H380 0.950 . S
C376 C385 1.390 . S
C377 C376 1.387 . S
C377 C379 1.387 . S
H378 C385 0.950 . S
C379 C377 1.387 . S
C379 C381 1.390 . S
C379 H383 0.950 . S
H380 C376 0.950 . S
C381 C379 1.390 . S
C381 C382 1.387 . S
C381 H384 0.950 . S
C382 C381 1.387 . S
C382 C385 1.387 . S
H383 C379 0.950 . S
H384 C381 0.950 . S
C385 C376 1.390 . S
C385 H378 0.950 . S
C385 C382 1.387 . S
C386 C387 1.387 . S
C386 H390 0.950 . S
C386 C395 1.390 . S
C387 C386 1.387 . S
C387 C389 1.387 . S
H388 C395 0.950 . S
C389 C387 1.387 . S
C389 C391 1.390 . S
C389 H393 0.950 . S
H390 C386 0.950 . S
C391 C389 1.390 . S
C391 C392 1.387 . S
C391 H394 0.950 . S
C392 C391 1.387 . S
C392 C395 1.387 . S
H393 C389 0.950 . S
H394 C391 0.950 . S
C395 C386 1.390 . S
C395 H388 0.950 . S
C395 C392 1.387 . S
C396 C397 1.387 . S
C396 H400 0.950 . S
C396 C405 1.390 . S
C397 C396 1.387 . S
C397 C399 1.387 . S
H398 C405 0.950 . S
C399 C397 1.387 . S
C399 C401 1.390 . S
C399 H403 0.950 . S
H400 C396 0.950 . S
C401 C399 1.390 . S
C401 C402 1.387 . S
C401 H404 0.950 . S
C402 C401 1.387 . S
C402 C405 1.387 . S
H403 C399 0.950 . S
H404 C401 0.950 . S
C405 C396 1.390 . S
C405 H398 0.950 . S
C405 C402 1.387 . S
C406 C407 1.387 . S
C406 H410 0.950 . S
C406 C415 1.390 . S
C407 C406 1.387 . S
C407 C409 1.387 . S
H408 C415 0.950 . S
C409 C407 1.387 . S
C409 C411 1.390 . S
C409 H413 0.950 . S
H410 C406 0.950 . S
C411 C409 1.390 . S
C411 C412 1.387 . S
C411 H414 0.950 . S
C412 C411 1.387 . S
C412 C415 1.387 . S
H413 C409 0.950 . S
H414 C411 0.950 . S
C415 C406 1.390 . S
C415 H408 0.950 . S
C415 C412 1.387 . S
C416 C417 1.387 . S
C416 H420 0.950 . S
C416 C425 1.390 . S
C417 C416 1.387 . S
C417 C419 1.387 . S
H418 C425 0.950 . S
C419 C417 1.387 . S
C419 C421 1.390 . S
C419 H423 0.950 . S
H420 C416 0.950 . S
C421 C419 1.390 . S
C421 C422 1.387 . S
C421 H424 0.950 . S
C422 C421 1.387 . S
C422 C425 1.387 . S
H423 C419 0.950 . S
H424 C421 0.950 . S
C425 C416 1.390 . S
C425 H418 0.950 . S
C425 C422 1.387 . S
C426 C427 1.387 . S
C426 H430 0.950 . S
C426 C435 1.390 . S
C427 C426 1.387 . S
C427 C429 1.387 . S
H428 C435 0.950 . S
C429 C427 1.387 . S
C429 C431 1.390 . S
C429 H433 0.950 . S
H430 C426 0.950 . S
C431 C429 1.390 . S
C431 C432 1.387 . S
C431 H434 0.950 . S
C432 C431 1.387 . S
C432 C435 1.387 . S
H433 C429 0.950 . S
H434 C431 0.950 . S
C435 C426 1.390 . S
C435 H428 0.950 . S
C435 C432 1.387 . S
C436 C437 1.387 . S
C436 H440 0.950 . S
C436 C445 1.390 1_565 S
C437 C436 1.387 . S
C437 C439 1.387 . S
H438 C445 0.950 . S
C439 C437 1.387 . S
C439 C441 1.390 1_565 S
C439 H443 0.950 . S
H440 C436 0.950 . S
C441 C439 1.390 1_545 S
C441 C442 1.387 . S
C441 H444 0.950 . S
C442 C441 1.387 . S
C442 C445 1.387 . S
H443 C439 0.950 . S
H444 C441 0.950 . S
C445 C436 1.390 1_545 S
C445 H438 0.950 . S
C445 C442 1.387 . S
C446 C447 1.387 . S
C446 H450 0.950 . S
C446 C455 1.390 . S
C447 C446 1.387 . S
C447 C449 1.387 . S
H448 C455 0.950 . S
C449 C447 1.387 . S
C449 C451 1.390 . S
C449 H453 0.950 . S
H450 C446 0.950 . S
C451 C449 1.390 . S
C451 C452 1.387 . S
C451 H454 0.950 . S
C452 C451 1.387 . S
C452 C455 1.387 . S
H453 C449 0.950 . S
H454 C451 0.950 . S
C455 C446 1.390 . S
C455 H448 0.950 . S
C455 C452 1.387 . S
C456 C457 1.387 . S
C456 H460 0.950 . S
C456 C465 1.390 1_554 S
C457 C456 1.387 . S
C457 C459 1.387 . S
H458 C465 0.950 . S
C459 C457 1.387 . S
C459 C461 1.390 1_554 S
C459 H463 0.950 . S
H460 C456 0.950 . S
C461 C459 1.390 1_556 S
C461 C462 1.387 . S
C461 H464 0.950 . S
C462 C461 1.387 . S
C462 C465 1.387 . S
H463 C459 0.950 . S
H464 C461 0.950 . S
C465 C456 1.390 1_556 S
C465 H458 0.950 . S
C465 C462 1.387 . S
C466 C467 1.387 . S
C466 H470 0.950 . S
C466 C475 1.390 1_554 S
C467 C466 1.387 . S
C467 C469 1.387 . S
H468 C475 0.950 . S
C469 C467 1.387 . S
C469 C471 1.390 1_554 S
C469 H473 0.950 . S
H470 C466 0.950 . S
C471 C469 1.390 1_556 S
C471 C472 1.387 . S
C471 H474 0.950 . S
C472 C471 1.387 . S
C472 C475 1.387 . S
H473 C469 0.950 . S
H474 C471 0.950 . S
C475 C466 1.390 1_556 S
C475 H468 0.950 . S
C475 C472 1.387 . S
C476 C477 1.387 . S
C476 H480 0.950 . S
C476 C485 1.390 . S
C477 C476 1.387 . S
C477 C479 1.387 . S
H478 C485 0.950 . S
C479 C477 1.387 . S
C479 C481 1.390 . S
C479 H483 0.950 . S
H480 C476 0.950 . S
C481 C479 1.390 . S
C481 C482 1.387 . S
C481 H484 0.950 . S
C482 C481 1.387 . S
C482 C485 1.387 . S
H483 C479 0.950 . S
H484 C481 0.950 . S
C485 C476 1.390 . S
C485 H478 0.950 . S
C485 C482 1.387 . S
C486 C487 1.387 . S
C486 H490 0.950 . S
C486 C495 1.390 . S
C487 C486 1.387 . S
C487 C489 1.387 . S
H488 C495 0.950 . S
C489 C487 1.387 . S
C489 C491 1.390 . S
C489 H493 0.950 . S
H490 C486 0.950 . S
C491 C489 1.390 . S
C491 C492 1.387 . S
C491 H494 0.950 . S
C492 C491 1.387 . S
C492 C495 1.387 . S
H493 C489 0.950 . S
H494 C491 0.950 . S
C495 C486 1.390 . S
C495 H488 0.950 . S
C495 C492 1.387 . S
C496 C497 1.387 . S
C496 H500 0.950 . S
C496 C505 1.390 1_455 S
C497 C496 1.387 . S
C497 C499 1.387 . S
H498 C505 0.950 . S
C499 C497 1.387 . S
C499 C501 1.390 1_455 S
C499 H503 0.950 . S
H500 C496 0.950 . S
C501 C499 1.390 1_655 S
C501 C502 1.387 . S
C501 H504 0.950 . S
C502 C501 1.387 . S
C502 C505 1.387 . S
H503 C499 0.950 . S
H504 C501 0.950 . S
C505 C496 1.390 1_655 S
C505 H498 0.950 . S
C505 C502 1.387 . S
C506 C507 1.387 . S
C506 H510 0.950 . S
C506 C515 1.390 1_655 S
C507 C506 1.387 . S
C507 C509 1.387 . S
H508 C515 0.950 . S
C509 C507 1.387 . S
C509 C511 1.390 1_655 S
C509 H513 0.950 . S
H510 C506 0.950 . S
C511 C509 1.390 1_455 S
C511 C512 1.387 . S
C511 H514 0.950 . S
C512 C511 1.387 . S
C512 C515 1.387 . S
H513 C509 0.950 . S
H514 C511 0.950 . S
C515 C506 1.390 1_455 S
C515 H508 0.950 . S
C515 C512 1.387 . S
C516 C517 1.387 . S
C516 H520 0.950 . S
C516 C525 1.390 1_455 S
C517 C516 1.387 . S
C517 C519 1.387 . S
H518 C525 0.950 . S
C519 C517 1.387 . S
C519 C521 1.390 1_455 S
C519 H523 0.950 . S
H520 C516 0.950 . S
C521 C519 1.390 1_655 S
C521 C522 1.387 . S
C521 H524 0.950 . S
C522 C521 1.387 . S
C522 C525 1.387 . S
H523 C519 0.950 . S
H524 C521 0.950 . S
C525 C516 1.390 1_655 S
C525 H518 0.950 . S
C525 C522 1.387 . S
C526 C527 1.387 . S
C526 H530 0.950 . S
C526 C535 1.390 1_455 S
C527 C526 1.387 . S
C527 C529 1.387 . S
H528 C535 0.950 . S
C529 C527 1.387 . S
C529 C531 1.390 1_455 S
C529 H533 0.950 . S
H530 C526 0.950 . S
C531 C529 1.390 1_655 S
C531 C532 1.387 . S
C531 H534 0.950 . S
C532 C531 1.387 . S
C532 C535 1.387 . S
H533 C529 0.950 . S
H534 C531 0.950 . S
C535 C526 1.390 1_655 S
C535 H528 0.950 . S
C535 C532 1.387 . S
C536 C537 1.387 . S
C536 H540 0.950 . S
C536 C545 1.390 1_545 S
C537 C536 1.387 . S
C537 C539 1.387 . S
H538 C545 0.950 . S
C539 C537 1.387 . S
C539 C541 1.390 1_545 S
C539 H543 0.950 . S
H540 C536 0.950 . S
C541 C539 1.390 1_565 S
C541 C542 1.387 . S
C541 H544 0.950 . S
C542 C541 1.387 . S
C542 C545 1.387 . S
H543 C539 0.950 . S
H544 C541 0.950 . S
C545 C536 1.390 1_565 S
C545 H538 0.950 . S
C545 C542 1.387 . S
C546 C547 1.387 . S
C546 H550 0.950 . S
C546 C555 1.390 1_545 S
C547 C546 1.387 . S
C547 C549 1.387 . S
H548 C555 0.950 . S
C549 C547 1.387 . S
C549 C551 1.390 1_545 S
C549 H553 0.950 . S
H550 C546 0.950 . S
C551 C549 1.390 1_565 S
C551 C552 1.387 . S
C551 H554 0.950 . S
C552 C551 1.387 . S
C552 C555 1.387 . S
H553 C549 0.950 . S
H554 C551 0.950 . S
C555 C546 1.390 1_565 S
C555 H548 0.950 . S
C555 C552 1.387 . S
C556 C557 1.387 . S
C556 H560 0.950 . S
C556 C565 1.390 . S
C557 C556 1.387 . S
C557 C559 1.387 . S
H558 C565 0.950 . S
C559 C557 1.387 . S
C559 C561 1.390 . S
C559 H563 0.950 . S
H560 C556 0.950 . S
C561 C559 1.390 . S
C561 C562 1.387 . S
C561 H564 0.950 . S
C562 C561 1.387 . S
C562 C565 1.387 . S
H563 C559 0.950 . S
H564 C561 0.950 . S
C565 C556 1.390 . S
C565 H558 0.950 . S
C565 C562 1.387 . S
C566 C567 1.387 . S
C566 H570 0.950 . S
C566 C575 1.390 1_545 S
C567 C566 1.387 . S
C567 C569 1.387 . S
H568 C575 0.950 . S
C569 C567 1.387 . S
C569 C571 1.390 1_545 S
C569 H573 0.950 . S
H570 C566 0.950 . S
C571 C569 1.390 1_565 S
C571 C572 1.387 . S
C571 H574 0.950 . S
C572 C571 1.387 . S
C572 C575 1.387 . S
H573 C569 0.950 . S
H574 C571 0.950 . S
C575 C566 1.390 1_565 S
C575 H568 0.950 . S
C575 C572 1.387 . S
C576 C577 1.387 . S
C576 H580 0.950 . S
C576 C585 1.390 1_655 S
C577 C576 1.387 . S
C577 C579 1.387 . S
H578 C585 0.950 . S
C579 C577 1.387 . S
C579 C581 1.390 1_655 S
C579 H583 0.950 . S
H580 C576 0.950 . S
C581 C579 1.390 1_455 S
C581 C582 1.387 . S
C581 H584 0.950 . S
C582 C581 1.387 . S
C582 C585 1.387 . S
H583 C579 0.950 . S
H584 C581 0.950 . S
C585 C576 1.390 1_455 S
C585 H578 0.950 . S
C585 C582 1.387 . S
C586 C587 1.387 . S
C586 H590 0.950 . S
C586 C595 1.390 1_455 S
C587 C586 1.387 . S
C587 C589 1.387 . S
H588 C595 0.950 . S
C589 C587 1.387 . S
C589 C591 1.390 1_455 S
C589 H593 0.950 . S
H590 C586 0.950 . S
C591 C589 1.390 1_655 S
C591 C592 1.387 . S
C591 H594 0.950 . S
C592 C591 1.387 . S
C592 C595 1.387 . S
H593 C589 0.950 . S
H594 C591 0.950 . S
C595 C586 1.390 1_655 S
C595 H588 0.950 . S
C595 C592 1.387 . S
C596 C597 1.387 . S
C596 H600 0.950 . S
C596 C605 1.390 1_565 S
C597 C596 1.387 . S
C597 C599 1.387 . S
H598 C605 0.950 . S
C599 C597 1.387 . S
C599 C601 1.390 1_565 S
C599 H603 0.950 . S
H600 C596 0.950 . S
C601 C599 1.390 1_545 S
C601 C602 1.387 . S
C601 H604 0.950 . S
C602 C601 1.387 . S
C602 C605 1.387 . S
H603 C599 0.950 . S
H604 C601 0.950 . S
C605 C596 1.390 1_545 S
C605 H598 0.950 . S
C605 C602 1.387 . S
C606 C607 1.387 . S
C606 H610 0.950 . S
C606 C615 1.390 . S
C607 C606 1.387 . S
C607 C609 1.387 . S
H608 C615 0.950 . S
C609 C607 1.387 . S
C609 C611 1.390 . S
C609 H613 0.950 . S
H610 C606 0.950 . S
C611 C609 1.390 . S
C611 C612 1.387 . S
C611 H614 0.950 . S
C612 C611 1.387 . S
C612 C615 1.387 . S
H613 C609 0.950 . S
H614 C611 0.950 . S
C615 C606 1.390 . S
C615 H608 0.950 . S
C615 C612 1.387 . S
C616 C617 1.387 . S
C616 H620 0.950 . S
C616 C625 1.390 1_554 S
C617 C616 1.387 . S
C617 C619 1.387 . S
H618 C625 0.950 . S
C619 C617 1.387 . S
C619 C621 1.390 1_554 S
C619 H623 0.950 . S
H620 C616 0.950 . S
C621 C619 1.390 1_556 S
C621 C622 1.387 . S
C621 H624 0.950 . S
C622 C621 1.387 . S
C622 C625 1.387 . S
H623 C619 0.950 . S
H624 C621 0.950 . S
C625 C616 1.390 1_556 S
C625 H618 0.950 . S
C625 C622 1.387 . S
C626 C627 1.387 . S
C626 H630 0.950 . S
C626 C635 1.390 . S
C627 C626 1.387 . S
C627 C629 1.387 . S
H628 C635 0.950 . S
C629 C627 1.387 . S
C629 C631 1.390 . S
C629 H633 0.950 . S
H630 C626 0.950 . S
C631 C629 1.390 . S
C631 C632 1.387 . S
C631 H634 0.950 . S
C632 C631 1.387 . S
C632 C635 1.387 . S
H633 C629 0.950 . S
H634 C631 0.950 . S
C635 C626 1.390 . S
C635 H628 0.950 . S
C635 C632 1.387 . S
C636 C637 1.387 . S
C636 H640 0.950 . S
C636 C645 1.390 . S
C637 C636 1.387 . S
C637 C639 1.387 . S
H638 C645 0.950 . S
C639 C637 1.387 . S
C639 C641 1.390 . S
C639 H643 0.950 . S
H640 C636 0.950 . S
C641 C639 1.390 . S
C641 C642 1.387 . S
C641 H644 0.950 . S
C642 C641 1.387 . S
C642 C645 1.387 . S
H643 C639 0.950 . S
H644 C641 0.950 . S
C645 C636 1.390 . S
C645 H638 0.950 . S
C645 C642 1.387 . S
C646 C647 1.387 . S
C646 H650 0.950 . S
C646 C655 1.390 . S
C647 C646 1.387 . S
C647 C649 1.387 . S
H648 C655 0.950 . S
C649 C647 1.387 . S
C649 C651 1.390 . S
C649 H653 0.950 . S
H650 C646 0.950 . S
C651 C649 1.390 . S
C651 C652 1.387 . S
C651 H654 0.950 . S
C652 C651 1.387 . S
C652 C655 1.387 . S
H653 C649 0.950 . S
H654 C651 0.950 . S
C655 C646 1.390 . S
C655 H648 0.950 . S
C655 C652 1.387 . S
C656 C657 1.387 . S
C656 H660 0.950 . S
C656 C665 1.390 . S
C657 C656 1.387 . S
C657 C659 1.387 . S
H658 C665 0.950 . S
C659 C657 1.387 . S
C659 C661 1.390 . S
C659 H663 0.950 . S
H660 C656 0.950 . S
C661 C659 1.390 . S
C661 C662 1.387 . S
C661 H664 0.950 . S
C662 C661 1.387 . S
C662 C665 1.387 . S
H663 C659 0.950 . S
H664 C661 0.950 . S
C665 C656 1.390 . S
C665 H658 0.950 . S
C665 C662 1.387 . S
C666 C667 1.387 . S
C666 H670 0.950 . S
C666 C675 1.390 . S
C667 C666 1.387 . S
C667 C669 1.387 . S
H668 C675 0.950 . S
C669 C667 1.387 . S
C669 C671 1.390 . S
C669 H673 0.950 . S
H670 C666 0.950 . S
C671 C669 1.390 . S
C671 C672 1.387 . S
C671 H674 0.950 . S
C672 C671 1.387 . S
C672 C675 1.387 . S
H673 C669 0.950 . S
H674 C671 0.950 . S
C675 C666 1.390 . S
C675 H668 0.950 . S
C675 C672 1.387 . S
C676 C677 1.387 . S
C676 H680 0.950 . S
C676 C685 1.390 1_545 S
C677 C676 1.387 . S
C677 C679 1.387 . S
H678 C685 0.950 . S
C679 C677 1.387 . S
C679 C681 1.390 1_545 S
C679 H683 0.950 . S
H680 C676 0.950 . S
C681 C679 1.390 1_565 S
C681 C682 1.387 . S
C681 H684 0.950 . S
C682 C681 1.387 . S
C682 C685 1.387 . S
H683 C679 0.950 . S
H684 C681 0.950 . S
C685 C676 1.390 1_565 S
C685 H678 0.950 . S
C685 C682 1.387 . S
C686 C687 1.387 . S
C686 H690 0.950 . S
C686 C695 1.390 1_556 S
C687 C686 1.387 . S
C687 C689 1.387 . S
H688 C695 0.950 . S
C689 C687 1.387 . S
C689 C691 1.390 1_556 S
C689 H693 0.950 . S
H690 C686 0.950 . S
C691 C689 1.390 1_554 S
C691 C692 1.387 . S
C691 H694 0.950 . S
C692 C691 1.387 . S
C692 C695 1.387 . S
H693 C689 0.950 . S
H694 C691 0.950 . S
C695 C686 1.390 1_554 S
C695 H688 0.950 . S
C695 C692 1.387 . S
C696 C697 1.387 1_655 S
C696 H700 0.950 . S
C696 C705 1.390 1_565 S
C697 C696 1.387 1_455 S
C697 C699 1.387 . S
H698 C705 0.950 . S
C699 C697 1.387 . S
C699 C701 1.390 1_565 S
C699 H703 0.950 . S
H700 C696 0.950 . S
C701 C699 1.390 1_545 S
C701 C702 1.387 . S
C701 H704 0.950 . S
C702 C701 1.387 . S
C702 C705 1.387 1_455 S
H703 C699 0.950 . S
H704 C701 0.950 . S
C705 C696 1.390 1_545 S
C705 H698 0.950 . S
C705 C702 1.387 1_655 S
C706 C707 1.387 1_455 S
C706 H710 0.950 . S
C706 C715 1.390 . S
C707 C706 1.387 1_655 S
C707 C709 1.387 . S
H708 C715 0.950 . S
C709 C707 1.387 . S
C709 C711 1.390 . S
C709 H713 0.950 . S
H710 C706 0.950 . S
C711 C709 1.390 . S
C711 C712 1.387 . S
C711 H714 0.950 . S
C712 C711 1.387 . S
C712 C715 1.387 1_655 S
H713 C709 0.950 . S
H714 C711 0.950 . S
C715 C706 1.390 . S
C715 H708 0.950 . S
C715 C712 1.387 1_455 S
C716 C717 1.387 1_565 S
C716 H720 0.950 . S
C716 C725 1.390 1_556 S
C717 C716 1.387 1_545 S
C717 C719 1.387 . S
H718 C725 0.950 . S
C719 C717 1.387 . S
C719 C721 1.390 1_556 S
C719 H723 0.950 . S
H720 C716 0.950 . S
C721 C719 1.390 1_554 S
C721 C722 1.387 . S
C721 H724 0.950 . S
C722 C721 1.387 . S
C722 C725 1.387 1_545 S
H723 C719 0.950 . S
H724 C721 0.950 . S
C725 C716 1.390 1_554 S
C725 H718 0.950 . S
C725 C722 1.387 1_565 S
C726 C727 1.387 . S
C726 H730 0.950 . S
C726 C735 1.390 1_554 S
C727 C726 1.387 . S
C727 C729 1.387 . S
H728 C735 0.950 . S
C729 C727 1.387 . S
C729 C731 1.390 1_554 S
C729 H733 0.950 . S
H730 C726 0.950 . S
C731 C729 1.390 1_556 S
C731 C732 1.387 . S
C731 H734 0.950 . S
C732 C731 1.387 . S
C732 C735 1.387 . S
H733 C729 0.950 . S
H734 C731 0.950 . S
C735 C726 1.390 1_556 S
C735 H728 0.950 . S
C735 C732 1.387 . S
C736 C737 1.387 . S
C736 H740 0.950 . S
C736 C745 1.390 . S
C737 C736 1.387 . S
C737 C739 1.387 1_565 S
H738 C745 0.950 . S
C739 C737 1.387 1_545 S
C739 C741 1.390 . S
C739 H743 0.950 . S
H740 C736 0.950 . S
C741 C739 1.390 . S
C741 C742 1.387 1_545 S
C741 H744 0.950 . S
C742 C741 1.387 1_565 S
C742 C745 1.387 . S
H743 C739 0.950 . S
H744 C741 0.950 . S
C745 C736 1.390 . S
C745 H738 0.950 . S
C745 C742 1.387 . S
C746 C747 1.387 . S
C746 H750 0.950 . S
C746 C755 1.390 . S
C747 C746 1.387 . S
C747 C749 1.387 . S
H748 C755 0.950 . S
C749 C747 1.387 . S
C749 C751 1.390 . S
C749 H753 0.950 . S
H750 C746 0.950 . S
C751 C749 1.390 . S
C751 C752 1.387 . S
C751 H754 0.950 . S
C752 C751 1.387 . S
C752 C755 1.387 . S
H753 C749 0.950 . S
H754 C751 0.950 . S
C755 C746 1.390 . S
C755 H748 0.950 . S
C755 C752 1.387 . S
C756 C757 1.387 1_556 S
C756 H760 0.950 . S
C756 C765 1.390 1_455 S
C757 C756 1.387 1_554 S
C757 C759 1.387 . S
H758 C765 0.950 . S
C759 C757 1.387 . S
C759 C761 1.390 1_455 S
C759 H763 0.950 . S
H760 C756 0.950 . S
C761 C759 1.390 1_655 S
C761 C762 1.387 . S
C761 H764 0.950 . S
C762 C761 1.387 . S
C762 C765 1.387 1_554 S
H763 C759 0.950 . S
H764 C761 0.950 . S
C765 C756 1.390 1_655 S
C765 H758 0.950 . S
C765 C762 1.387 1_556 S
C766 C767 1.387 . S
C766 H770 0.950 . S
C766 C775 1.390 1_455 S
C767 C766 1.387 . S
C767 C769 1.387 . S
H768 C775 0.950 . S
C769 C767 1.387 . S
C769 C771 1.390 1_455 S
C769 H773 0.950 . S
H770 C766 0.950 . S
C771 C769 1.390 1_655 S
C771 C772 1.387 . S
C771 H774 0.950 . S
C772 C771 1.387 . S
C772 C775 1.387 . S
H773 C769 0.950 . S
H774 C771 0.950 . S
C775 C766 1.390 1_655 S
C775 H768 0.950 . S
C775 C772 1.387 . S
C776 C777 1.387 . S
C776 H780 0.950 . S
C776 C785 1.390 . S
C777 C776 1.387 . S
C777 C779 1.387 . S
H778 C785 0.950 . S
C779 C777 1.387 . S
C779 C781 1.390 . S
C779 H783 0.950 . S
H780 C776 0.950 . S
C781 C779 1.390 . S
C781 C782 1.387 . S
C781 H784 0.950 . S
C782 C781 1.387 . S
C782 C785 1.387 . S
H783 C779 0.950 . S
H784 C781 0.950 . S
C785 C776 1.390 . S
C785 H778 0.950 . S
C785 C782 1.387 . S
C786 C787 1.387 . S
C786 H790 0.950 . S
C786 C795 1.390 . S
C787 C786 1.387 . S
C787 C789 1.387 . S
H788 C795 0.950 . S
C789 C787 1.387 . S
C789 C791 1.390 . S
C789 H793 0.950 . S
H790 C786 0.950 . S
C791 C789 1.390 . S
C791 C792 1.387 . S
C791 H794 0.950 . S
C792 C791 1.387 . S
C792 C795 1.387 . S
H793 C789 0.950 . S
H794 C791 0.950 . S
C795 C786 1.390 . S
C795 H788 0.950 . S
C795 C792 1.387 . S
C796 C797 1.387 . S
C796 H800 0.950 . S
C796 C805 1.390 1_565 S
C797 C796 1.387 . S
C797 C799 1.387 . S
H798 C805 0.950 . S
C799 C797 1.387 . S
C799 C801 1.390 1_565 S
C799 H803 0.950 . S
H800 C796 0.950 . S
C801 C799 1.390 1_545 S
C801 C802 1.387 . S
C801 H804 0.950 . S
C802 C801 1.387 . S
C802 C805 1.387 . S
H803 C799 0.950 . S
H804 C801 0.950 . S
C805 C796 1.390 1_545 S
C805 H798 0.950 . S
C805 C802 1.387 . S
C806 C807 1.387 1_554 S
C806 H810 0.950 . S
C806 C815 1.390 . S
C807 C806 1.387 1_556 S
C807 C809 1.387 . S
H808 C815 0.950 . S
C809 C807 1.387 . S
C809 C811 1.390 . S
C809 H813 0.950 . S
H810 C806 0.950 . S
C811 C809 1.390 . S
C811 C812 1.387 . S
C811 H814 0.950 . S
C812 C811 1.387 . S
C812 C815 1.387 1_556 S
H813 C809 0.950 . S
H814 C811 0.950 . S
C815 C806 1.390 . S
C815 H808 0.950 . S
C815 C812 1.387 1_554 S
C337 C246 0.914 . S
C342 C7 1.038 . S
C347 C21 1.048 . S
C352 C232 0.911 . S
C357 C35 1.053 . S
C362 C274 0.923 . S
C367 C49 1.056 . S
C372 C260 0.918 . S
C377 C63 1.040 . S
C382 C302 0.912 . S
C387 C77 1.049 . S
C392 C316 0.925 . S
C397 C288 0.920 . S
C402 C91 1.050 . S
C407 C162 0.917 . S
C412 C105 1.054 . S
C417 C119 1.044 . S
C422 C50 0.915 . S
C427 C22 0.917 . S
C432 C133 1.045 . S
C437 C147 1.058 . S
C442 C8 0.929 . S
C447 C161 1.054 . S
C452 C204 0.916 . S
C457 C78 0.930 . S
C462 C175 1.067 . S
C467 C64 0.925 . S
C472 C189 1.054 . S
C477 C203 1.058 . S
C482 C106 0.923 . S
C487 C217 1.049 . S
C492 C92 0.925 . S
C497 C134 0.931 . S
C502 C231 1.067 . S
C507 C148 0.926 . S
C512 C245 1.059 . S
C517 C120 0.931 . S
C522 C259 1.058 . S
C527 C273 1.051 . S
C532 C330 0.927 . S
C537 C218 0.925 . S
C542 C287 1.063 . S
C547 C301 1.060 . S
C552 C190 0.923 . S
C557 C176 0.921 . S
C562 C315 1.050 . S
C567 C329 1.053 . S
C572 C36 0.924 . S
C577 C11 1.608 . S
C582 C25 1.607 . S
C587 C53 1.600 . S
C592 C39 1.601 . S
C597 C67 1.605 . S
C602 C95 1.603 . S
C607 C81 1.622 . S
C612 C109 1.621 . S
C617 C319 1.604 . S
C622 C123 1.605 . S
C627 C137 1.619 . S
C632 C165 1.617 . S
C637 C291 1.612 . S
C642 C151 1.613 . S
C647 C193 1.617 . S
C652 C179 1.615 . S
C657 C207 1.621 . S
C662 C221 1.622 . S
C667 C263 1.617 . S
C672 C235 1.615 . S
C677 C249 1.603 . S
C682 C277 1.604 . S
C687 C333 1.601 . S
C692 C305 1.599 . S
C697 C41 1.252 . S
C702 C13 1.252 . S
C707 C27 1.260 . S
C712 C55 1.260 . S
C717 C279 1.252 . S
C722 C69 1.252 . S
C727 C83 1.254 . S
C732 C265 1.254 . S
C737 C97 1.267 . S
C742 C251 1.267 . S
C747 C237 1.262 . S
C752 C111 1.262 . S
C757 C125 1.252 . S
C762 C335 1.252 . S
C767 C139 1.254 . S
C772 C153 1.254 . S
C777 C293 1.262 . S
C782 C167 1.262 . S
C787 C181 1.262 . S
C792 C209 1.262 . S
C797 C195 1.260 . S
C802 C223 1.260 . S
C807 C321 1.260 . S
C812 C307 1.260 . S
