# Generated by pormake.
# Topology wne, (6)-cn, num edge types: 1
# Building blocks:
#     Node 0, Type 0, BuildingBlock: CUKXOW_clean_sbu_0, # of connection points: 6
#     Node 1, Type 0, BuildingBlock: CUKXOW_clean_sbu_0, # of connection points: 6
#     Node 2, Type 0, BuildingBlock: CUKXOW_clean_sbu_0, # of connection points: 6
#     Node 3, Type 0, BuildingBlock: CUKXOW_clean_sbu_0, # of connection points: 6
#     Node 4, Type 0, BuildingBlock: CUKXOW_clean_sbu_0, # of connection points: 6
#     Node 5, Type 0, BuildingBlock: CUKXOW_clean_sbu_0, # of connection points: 6
#     Node 6, Type 0, BuildingBlock: CUKXOW_clean_sbu_0, # of connection points: 6
#     Node 7, Type 0, BuildingBlock: CUKXOW_clean_sbu_0, # of connection points: 6
#     Node 8, Type 0, BuildingBlock: CUKXOW_clean_sbu_0, # of connection points: 6
#     Node 9, Type 0, BuildingBlock: CUKXOW_clean_sbu_0, # of connection points: 6
#     Node 10, Type 0, BuildingBlock: CUKXOW_clean_sbu_0, # of connection points: 6
#     Node 11, Type 0, BuildingBlock: CUKXOW_clean_sbu_0, # of connection points: 6
#     Node 12, Type 0, BuildingBlock: CUKXOW_clean_sbu_0, # of connection points: 6
#     Node 13, Type 0, BuildingBlock: CUKXOW_clean_sbu_0, # of connection points: 6
#     Node 14, Type 0, BuildingBlock: CUKXOW_clean_sbu_0, # of connection points: 6
#     Node 15, Type 0, BuildingBlock: CUKXOW_clean_sbu_0, # of connection points: 6
#     Node 16, Type 0, BuildingBlock: CUKXOW_clean_sbu_0, # of connection points: 6
#     Node 17, Type 0, BuildingBlock: CUKXOW_clean_sbu_0, # of connection points: 6
#     Node 18, Type 0, BuildingBlock: CUKXOW_clean_sbu_0, # of connection points: 6
#     Node 19, Type 0, BuildingBlock: CUKXOW_clean_sbu_0, # of connection points: 6
#     Node 20, Type 0, BuildingBlock: CUKXOW_clean_sbu_0, # of connection points: 6
#     Node 21, Type 0, BuildingBlock: CUKXOW_clean_sbu_0, # of connection points: 6
#     Node 22, Type 0, BuildingBlock: CUKXOW_clean_sbu_0, # of connection points: 6
#     Node 23, Type 0, BuildingBlock: CUKXOW_clean_sbu_0, # of connection points: 6
#     Node 24, Type 0, BuildingBlock: CUKXOW_clean_sbu_0, # of connection points: 6
#     Node 25, Type 0, BuildingBlock: CUKXOW_clean_sbu_0, # of connection points: 6
#     Node 26, Type 0, BuildingBlock: CUKXOW_clean_sbu_0, # of connection points: 6
#     Node 27, Type 0, BuildingBlock: CUKXOW_clean_sbu_0, # of connection points: 6
#     Node 28, Type 0, BuildingBlock: CUKXOW_clean_sbu_0, # of connection points: 6
#     Node 29, Type 0, BuildingBlock: CUKXOW_clean_sbu_0, # of connection points: 6
#     Node 30, Type 0, BuildingBlock: CUKXOW_clean_sbu_0, # of connection points: 6
#     Node 31, Type 0, BuildingBlock: CUKXOW_clean_sbu_0, # of connection points: 6
#     Node 32, Type 0, BuildingBlock: CUKXOW_clean_sbu_0, # of connection points: 6
#     Node 33, Type 0, BuildingBlock: CUKXOW_clean_sbu_0, # of connection points: 6
#     Node 34, Type 0, BuildingBlock: CUKXOW_clean_sbu_0, # of connection points: 6
#     Node 35, Type 0, BuildingBlock: CUKXOW_clean_sbu_0, # of connection points: 6
#     Edge 36, Type (0, 0), BuildingBlock: OJICUG_clean_linker_0, # of connection points: 2
#     Edge 37, Type (0, 0), BuildingBlock: OJICUG_clean_linker_0, # of connection points: 2
#     Edge 38, Type (0, 0), BuildingBlock: OJICUG_clean_linker_0, # of connection points: 2
#     Edge 39, Type (0, 0), BuildingBlock: OJICUG_clean_linker_0, # of connection points: 2
#     Edge 40, Type (0, 0), BuildingBlock: OJICUG_clean_linker_0, # of connection points: 2
#     Edge 41, Type (0, 0), BuildingBlock: OJICUG_clean_linker_0, # of connection points: 2
#     Edge 42, Type (0, 0), BuildingBlock: OJICUG_clean_linker_0, # of connection points: 2
#     Edge 43, Type (0, 0), BuildingBlock: OJICUG_clean_linker_0, # of connection points: 2
#     Edge 44, Type (0, 0), BuildingBlock: OJICUG_clean_linker_0, # of connection points: 2
#     Edge 45, Type (0, 0), BuildingBlock: OJICUG_clean_linker_0, # of connection points: 2
#     Edge 46, Type (0, 0), BuildingBlock: OJICUG_clean_linker_0, # of connection points: 2
#     Edge 47, Type (0, 0), BuildingBlock: OJICUG_clean_linker_0, # of connection points: 2
#     Edge 48, Type (0, 0), BuildingBlock: OJICUG_clean_linker_0, # of connection points: 2
#     Edge 49, Type (0, 0), BuildingBlock: OJICUG_clean_linker_0, # of connection points: 2
#     Edge 50, Type (0, 0), BuildingBlock: OJICUG_clean_linker_0, # of connection points: 2
#     Edge 51, Type (0, 0), BuildingBlock: OJICUG_clean_linker_0, # of connection points: 2
#     Edge 52, Type (0, 0), BuildingBlock: OJICUG_clean_linker_0, # of connection points: 2
#     Edge 53, Type (0, 0), BuildingBlock: OJICUG_clean_linker_0, # of connection points: 2
#     Edge 54, Type (0, 0), BuildingBlock: OJICUG_clean_linker_0, # of connection points: 2
#     Edge 55, Type (0, 0), BuildingBlock: OJICUG_clean_linker_0, # of connection points: 2
#     Edge 56, Type (0, 0), BuildingBlock: OJICUG_clean_linker_0, # of connection points: 2
#     Edge 57, Type (0, 0), BuildingBlock: OJICUG_clean_linker_0, # of connection points: 2
#     Edge 58, Type (0, 0), BuildingBlock: OJICUG_clean_linker_0, # of connection points: 2
#     Edge 59, Type (0, 0), BuildingBlock: OJICUG_clean_linker_0, # of connection points: 2
#     Edge 60, Type (0, 0), BuildingBlock: OJICUG_clean_linker_0, # of connection points: 2
#     Edge 61, Type (0, 0), BuildingBlock: OJICUG_clean_linker_0, # of connection points: 2
#     Edge 62, Type (0, 0), BuildingBlock: OJICUG_clean_linker_0, # of connection points: 2
#     Edge 63, Type (0, 0), BuildingBlock: OJICUG_clean_linker_0, # of connection points: 2
#     Edge 64, Type (0, 0), BuildingBlock: OJICUG_clean_linker_0, # of connection points: 2
#     Edge 65, Type (0, 0), BuildingBlock: OJICUG_clean_linker_0, # of connection points: 2
#     Edge 66, Type (0, 0), BuildingBlock: OJICUG_clean_linker_0, # of connection points: 2
#     Edge 67, Type (0, 0), BuildingBlock: OJICUG_clean_linker_0, # of connection points: 2
#     Edge 68, Type (0, 0), BuildingBlock: OJICUG_clean_linker_0, # of connection points: 2
#     Edge 69, Type (0, 0), BuildingBlock: OJICUG_clean_linker_0, # of connection points: 2
#     Edge 70, Type (0, 0), BuildingBlock: OJICUG_clean_linker_0, # of connection points: 2
#     Edge 71, Type (0, 0), BuildingBlock: OJICUG_clean_linker_0, # of connection points: 2
#     Edge 72, Type (0, 0), BuildingBlock: OJICUG_clean_linker_0, # of connection points: 2
#     Edge 73, Type (0, 0), BuildingBlock: OJICUG_clean_linker_0, # of connection points: 2
#     Edge 74, Type (0, 0), BuildingBlock: OJICUG_clean_linker_0, # of connection points: 2
#     Edge 75, Type (0, 0), BuildingBlock: OJICUG_clean_linker_0, # of connection points: 2
#     Edge 76, Type (0, 0), BuildingBlock: OJICUG_clean_linker_0, # of connection points: 2
#     Edge 77, Type (0, 0), BuildingBlock: OJICUG_clean_linker_0, # of connection points: 2
#     Edge 78, Type (0, 0), BuildingBlock: OJICUG_clean_linker_0, # of connection points: 2
#     Edge 79, Type (0, 0), BuildingBlock: OJICUG_clean_linker_0, # of connection points: 2
#     Edge 80, Type (0, 0), BuildingBlock: OJICUG_clean_linker_0, # of connection points: 2
#     Edge 81, Type (0, 0), BuildingBlock: OJICUG_clean_linker_0, # of connection points: 2
#     Edge 82, Type (0, 0), BuildingBlock: OJICUG_clean_linker_0, # of connection points: 2
#     Edge 83, Type (0, 0), BuildingBlock: OJICUG_clean_linker_0, # of connection points: 2
#     Edge 84, Type (0, 0), BuildingBlock: OJICUG_clean_linker_0, # of connection points: 2
#     Edge 85, Type (0, 0), BuildingBlock: OJICUG_clean_linker_0, # of connection points: 2
#     Edge 86, Type (0, 0), BuildingBlock: OJICUG_clean_linker_0, # of connection points: 2
#     Edge 87, Type (0, 0), BuildingBlock: OJICUG_clean_linker_0, # of connection points: 2
#     Edge 88, Type (0, 0), BuildingBlock: OJICUG_clean_linker_0, # of connection points: 2
#     Edge 89, Type (0, 0), BuildingBlock: OJICUG_clean_linker_0, # of connection points: 2
#     Edge 90, Type (0, 0), BuildingBlock: OJICUG_clean_linker_0, # of connection points: 2
#     Edge 91, Type (0, 0), BuildingBlock: OJICUG_clean_linker_0, # of connection points: 2
#     Edge 92, Type (0, 0), BuildingBlock: OJICUG_clean_linker_0, # of connection points: 2
#     Edge 93, Type (0, 0), BuildingBlock: OJICUG_clean_linker_0, # of connection points: 2
#     Edge 94, Type (0, 0), BuildingBlock: OJICUG_clean_linker_0, # of connection points: 2
#     Edge 95, Type (0, 0), BuildingBlock: OJICUG_clean_linker_0, # of connection points: 2
#     Edge 96, Type (0, 0), BuildingBlock: OJICUG_clean_linker_0, # of connection points: 2
#     Edge 97, Type (0, 0), BuildingBlock: OJICUG_clean_linker_0, # of connection points: 2
#     Edge 98, Type (0, 0), BuildingBlock: OJICUG_clean_linker_0, # of connection points: 2
#     Edge 99, Type (0, 0), BuildingBlock: OJICUG_clean_linker_0, # of connection points: 2
#     Edge 100, Type (0, 0), BuildingBlock: OJICUG_clean_linker_0, # of connection points: 2
#     Edge 101, Type (0, 0), BuildingBlock: OJICUG_clean_linker_0, # of connection points: 2
#     Edge 102, Type (0, 0), BuildingBlock: OJICUG_clean_linker_0, # of connection points: 2
#     Edge 103, Type (0, 0), BuildingBlock: OJICUG_clean_linker_0, # of connection points: 2
#     Edge 104, Type (0, 0), BuildingBlock: OJICUG_clean_linker_0, # of connection points: 2
#     Edge 105, Type (0, 0), BuildingBlock: OJICUG_clean_linker_0, # of connection points: 2
#     Edge 106, Type (0, 0), BuildingBlock: OJICUG_clean_linker_0, # of connection points: 2
#     Edge 107, Type (0, 0), BuildingBlock: OJICUG_clean_linker_0, # of connection points: 2
#     Edge 108, Type (0, 0), BuildingBlock: OJICUG_clean_linker_0, # of connection points: 2
#     Edge 109, Type (0, 0), BuildingBlock: OJICUG_clean_linker_0, # of connection points: 2
#     Edge 110, Type (0, 0), BuildingBlock: OJICUG_clean_linker_0, # of connection points: 2
#     Edge 111, Type (0, 0), BuildingBlock: OJICUG_clean_linker_0, # of connection points: 2
#     Edge 112, Type (0, 0), BuildingBlock: OJICUG_clean_linker_0, # of connection points: 2
#     Edge 113, Type (0, 0), BuildingBlock: OJICUG_clean_linker_0, # of connection points: 2
#     Edge 114, Type (0, 0), BuildingBlock: OJICUG_clean_linker_0, # of connection points: 2
#     Edge 115, Type (0, 0), BuildingBlock: OJICUG_clean_linker_0, # of connection points: 2
#     Edge 116, Type (0, 0), BuildingBlock: OJICUG_clean_linker_0, # of connection points: 2
#     Edge 117, Type (0, 0), BuildingBlock: OJICUG_clean_linker_0, # of connection points: 2
#     Edge 118, Type (0, 0), BuildingBlock: OJICUG_clean_linker_0, # of connection points: 2
#     Edge 119, Type (0, 0), BuildingBlock: OJICUG_clean_linker_0, # of connection points: 2
#     Edge 120, Type (0, 0), BuildingBlock: OJICUG_clean_linker_0, # of connection points: 2
#     Edge 121, Type (0, 0), BuildingBlock: OJICUG_clean_linker_0, # of connection points: 2
#     Edge 122, Type (0, 0), BuildingBlock: OJICUG_clean_linker_0, # of connection points: 2
#     Edge 123, Type (0, 0), BuildingBlock: OJICUG_clean_linker_0, # of connection points: 2
#     Edge 124, Type (0, 0), BuildingBlock: OJICUG_clean_linker_0, # of connection points: 2
#     Edge 125, Type (0, 0), BuildingBlock: OJICUG_clean_linker_0, # of connection points: 2
#     Edge 126, Type (0, 0), BuildingBlock: OJICUG_clean_linker_0, # of connection points: 2
#     Edge 127, Type (0, 0), BuildingBlock: OJICUG_clean_linker_0, # of connection points: 2
#     Edge 128, Type (0, 0), BuildingBlock: OJICUG_clean_linker_0, # of connection points: 2
#     Edge 129, Type (0, 0), BuildingBlock: OJICUG_clean_linker_0, # of connection points: 2
#     Edge 130, Type (0, 0), BuildingBlock: OJICUG_clean_linker_0, # of connection points: 2
#     Edge 131, Type (0, 0), BuildingBlock: OJICUG_clean_linker_0, # of connection points: 2
#     Edge 132, Type (0, 0), BuildingBlock: OJICUG_clean_linker_0, # of connection points: 2
#     Edge 133, Type (0, 0), BuildingBlock: OJICUG_clean_linker_0, # of connection points: 2
#     Edge 134, Type (0, 0), BuildingBlock: OJICUG_clean_linker_0, # of connection points: 2
#     Edge 135, Type (0, 0), BuildingBlock: OJICUG_clean_linker_0, # of connection points: 2
#     Edge 136, Type (0, 0), BuildingBlock: OJICUG_clean_linker_0, # of connection points: 2
#     Edge 137, Type (0, 0), BuildingBlock: OJICUG_clean_linker_0, # of connection points: 2
#     Edge 138, Type (0, 0), BuildingBlock: OJICUG_clean_linker_0, # of connection points: 2
#     Edge 139, Type (0, 0), BuildingBlock: OJICUG_clean_linker_0, # of connection points: 2
#     Edge 140, Type (0, 0), BuildingBlock: OJICUG_clean_linker_0, # of connection points: 2
#     Edge 141, Type (0, 0), BuildingBlock: OJICUG_clean_linker_0, # of connection points: 2
#     Edge 142, Type (0, 0), BuildingBlock: OJICUG_clean_linker_0, # of connection points: 2
#     Edge 143, Type (0, 0), BuildingBlock: OJICUG_clean_linker_0, # of connection points: 2
# Relax obj value: 0.143
# Max RMSD: 0.228
# Mean RMSD: 0.228
data_MOF--net-wne--node1-CUKXOW_clean_sbu_0--edge1-OJICUG_clean_linker_0
_symmetry_space_group_name_H-M    P1
_symmetry_Int_Tables_number       1
_symmetry_cell_setting            triclinic
loop_
_symmetry_equiv_pos_as_xyz
'x, y, z'
_cell_length_a     50.134836
_cell_length_b     50.396292
_cell_length_c     27.598697
_cell_angle_alpha  89.815424
_cell_angle_beta   89.991402
_cell_angle_gamma 119.74769
loop_
_atom_site_label
_atom_site_type_symbol
_atom_site_fract_x
_atom_site_fract_y
_atom_site_fract_z
_atom_type_partial_charge
Tb0 Tb 0.31117 0.24108 0.09666 0.0
C1 C 0.25634 0.22532 0.1588 0.0
Tb2 Tb 0.25908 0.24262 0.0463 0.0
O3 O 0.32223 0.2825 0.13831 0.0
O4 O 0.3024 0.27578 0.07132 0.0
O5 O 0.27518 0.21532 0.14744 0.0
C6 C 0.20898 0.2477 0.02636 0.0
O7 O 0.25014 0.24118 0.12619 0.0
C8 C 0.26245 0.193 0.02995 0.0
C9 C 0.32405 0.26793 0.9911 0.0
O10 O 0.21043 0.22857 0.05611 0.0
O11 O 0.23603 0.26427 1.00707 0.0
O12 O 0.25086 0.20426 0.99967 0.0
O13 O 0.26805 0.2075 0.06919 0.0
O14 O 0.29697 0.26746 0.99208 0.0
O15 O 0.33245 0.25573 0.02623 0.0
C16 C 0.35072 0.22471 0.1271 0.0
O17 O 0.34267 0.24168 0.15114 0.0
O18 O 0.33738 0.21793 0.08517 0.0
C19 C 0.31048 0.29316 0.10713 0.0
Tb20 Tb 0.82403 0.07851 0.09791 0.0
C21 C 0.84332 0.03941 0.15663 0.0
Tb22 Tb 0.82426 1.02438 0.0437 0.0
O23 O 0.77535 0.05363 0.12163 0.0
O24 O 0.79464 0.03215 0.08583 0.0
O25 O 0.84927 0.06756 0.14871 0.0
C26 C 0.82231 0.97169 0.02035 0.0
O27 O 0.82989 1.01765 0.12276 0.0
C28 C 0.87144 0.07924 0.02612 0.0
C29 C 0.79704 0.06357 0.99372 0.0
O30 O 0.84375 0.99403 0.04475 0.0
O31 O 0.80151 0.97892 1.0086 0.0
O32 O 0.86128 0.05659 0.99596 0.0
O33 O 0.85715 0.06939 0.06552 0.0
O34 O 0.79663 0.03667 0.99454 0.0
O35 O 0.81169 0.08514 0.02628 0.0
C36 C 0.84173 0.13266 0.13327 0.0
O37 O 0.84444 0.12728 0.08807 0.0
O38 O 0.82847 0.1075 0.15831 0.0
C39 C 0.76985 0.02756 0.10393 0.0
Tb40 Tb 0.98795 0.76133 0.10294 0.0
C41 C 1.03278 0.81865 0.15565 0.0
Tb42 Tb 0.04314 0.80962 0.04239 0.0
O43 O 1.01023 0.73632 0.13284 0.0
O44 O 1.03317 0.77325 0.08809 0.0
O45 O 1.00333 0.80027 0.14862 0.0
C46 C 0.09668 0.85899 0.01788 0.0
O47 O 0.05326 0.82269 0.12098 0.0
C48 C 0.98901 0.80529 0.02673 0.0
C49 C 0.99985 0.74249 1.00021 0.0
O50 O 0.07438 0.85888 0.04178 0.0
O51 O 0.08878 0.8309 1.00662 0.0
O52 O 1.01014 0.81335 0.99375 0.0
O53 O 0.99988 0.80266 0.06628 0.0
O54 O 1.02819 0.76718 0.9987 0.0
O55 O 0.9793 0.73914 0.03344 0.0
C56 C 0.93356 0.73131 0.14153 0.0
O57 O 0.93863 0.73813 0.09579 0.0
O58 O 0.95899 0.74064 0.16525 0.0
C59 C 1.03623 0.75354 0.11102 0.0
Tb60 Tb 0.25958 0.29634 0.42343 0.0
C61 C 0.24406 0.23985 0.36396 0.0
Tb62 Tb 0.26125 0.24307 0.4778 0.0
O63 O 0.30768 0.32035 0.39723 0.0
O64 O 0.2904 0.28094 0.43688 0.0
O65 O 0.23594 0.26055 0.37211 0.0
C66 C 0.26495 0.19301 0.49931 0.0
O67 O 0.258 0.2322 0.39832 0.0
C68 C 0.21282 0.24971 0.49365 0.0
C69 C 0.28638 0.3081 0.52866 0.0
O70 O 0.24305 0.19371 0.47542 0.0
O71 O 0.28499 0.22076 0.51208 0.0
O72 O 0.22375 0.23847 0.52524 0.0
O73 O 0.2273 0.25385 0.4546 0.0
O74 O 0.28824 0.28241 0.52737 0.0
O75 O 0.27164 0.31488 0.49548 0.0
C76 C 0.24043 0.33192 0.38862 0.0
O77 O 0.23605 0.32203 0.43304 0.0
O78 O 0.25587 0.32212 0.3641 0.0
C79 C 0.31426 0.30076 0.41643 0.0
Tb80 Tb 0.77703 0.9717 0.41715 0.0
C81 C 0.83478 1.01212 0.36053 0.0
Tb82 Tb 0.82922 0.02572 0.47341 0.0
O83 O 0.7537 0.99601 0.38858 0.0
O84 O 0.79198 1.01753 0.43083 0.0
O85 O 0.8147 0.98334 0.36927 0.0
C86 C 0.8796 0.07823 0.49732 0.0
O87 O 0.8412 0.0336 0.39424 0.0
C88 C 0.82264 0.97113 0.49055 0.0
C89 C 0.76312 0.98525 0.52168 0.0
O90 O 0.87884 0.05639 0.47167 0.0
O91 O 0.85165 0.07063 0.51004 0.0
O92 O 0.83387 0.9934 0.52145 0.0
O93 O 0.81885 0.98122 0.45095 0.0
O94 O 0.78851 1.01293 0.52106 0.0
O95 O 0.7576 0.96425 0.48861 0.0
C96 C 0.74068 0.91766 0.38228 0.0
O97 O 0.74754 0.92324 0.42783 0.0
O98 O 0.75402 0.94245 0.35644 0.0
C99 C 0.77263 1.02175 0.40893 0.0
Tb100 Tb 0.09677 0.80868 0.42387 0.0
C101 C 0.06078 0.82865 0.35986 0.0
Tb102 Tb 0.04374 0.80855 0.47233 0.0
O103 O 0.06557 0.76702 0.38347 0.0
O104 O 0.05333 0.77445 0.45073 0.0
O105 O 0.08873 0.83454 0.37009 0.0
C106 C 0.98699 0.79917 0.49302 0.0
O107 O 1.03851 0.81596 0.39326 0.0
C108 C 0.09624 0.85927 0.48559 0.0
C109 C 0.08297 0.78305 0.529 0.0
O110 O 0.99626 0.79487 0.4515 0.0
O111 O 1.00959 0.80823 0.52343 0.0
O112 O 0.07317 0.84918 0.51517 0.0
O113 O 0.08755 0.84333 0.4477 0.0
O114 O 0.05553 0.78165 0.52491 0.0
O115 O 0.10447 0.79678 0.4957 0.0
C116 C 0.15216 0.82299 0.39351 0.0
O117 O 0.12684 0.80513 0.37095 0.0
O118 O 0.14613 0.83161 0.43426 0.0
C119 C 0.04358 0.75685 0.41526 0.0
Tb120 Tb 0.82306 0.80651 0.97497 0.0
C121 C 0.75968 0.78589 0.03126 0.0
Tb122 Tb 0.77218 0.80883 0.92458 0.0
O123 O 0.83508 0.84764 0.01714 0.0
O124 O 0.81624 0.84257 0.94862 0.0
O125 O 0.7836 0.78092 0.02695 0.0
C126 C 0.73203 0.82388 0.89158 0.0
O127 O 0.75405 0.80094 0.99731 0.0
C128 C 0.77122 0.75563 0.918 0.0
C129 C 0.8279 0.82638 0.8622 0.0
O130 O 0.74006 0.80631 0.86947 0.0
O131 O 0.74557 0.83183 0.93324 0.0
O132 O 0.76067 0.76649 0.88523 0.0
O133 O 0.77892 0.77325 0.95345 0.0
O134 O 0.80722 0.83426 0.87222 0.0
O135 O 0.83583 0.81245 0.8959 0.0
C136 C 0.87025 0.79681 0.99647 0.0
O137 O 0.85623 0.7917 0.95523 0.0
O138 O 0.857 0.80653 0.02635 0.0
C139 C 0.82354 0.85862 0.98642 0.0
Tb140 Tb 0.2596 0.0266 0.97251 0.0
C141 C 0.28469 0.98619 0.02344 0.0
Tb142 Tb 0.25948 0.97273 0.91785 0.0
O143 O 0.22185 0.99449 0.0192 0.0
O144 O 0.22621 0.98189 0.9495 0.0
O145 O 0.28654 1.01371 0.02226 0.0
C146 C 0.2424 0.91882 0.88255 0.0
O147 O 0.27018 0.96515 0.99008 0.0
C148 C 0.3137 1.02321 0.91203 0.0
C149 C 0.24171 1.01263 0.85925 0.0
O150 O 0.23983 0.92411 0.92783 0.0
O151 O 0.25502 0.9439 0.85732 0.0
O152 O 0.30785 0.99751 0.89249 0.0
O153 O 0.28946 1.0186 0.93197 0.0
O154 O 0.23428 0.9841 0.86763 0.0
O155 O 0.2557 0.03418 0.89322 0.0
C156 C 0.26248 0.07965 0.99533 0.0
O157 O 0.24136 0.05793 0.9696 0.0
O158 O 0.28234 0.07156 1.00887 0.0
C159 C 0.21161 0.97203 0.98868 0.0
Tb160 Tb 1.04022 0.24227 0.97658 0.0
C161 C 0.07754 0.30769 0.02868 0.0
Tb162 Tb 0.09433 0.29733 0.92437 0.0
O163 O 0.07223 0.23687 0.02409 0.0
O164 O 0.08597 0.25503 0.95512 0.0
O165 O 0.0511 0.28085 0.02722 0.0
C166 C 0.14843 0.33593 0.89046 0.0
O167 O 0.09954 0.31579 0.99608 0.0
C168 C 0.04275 0.2997 0.9176 0.0
C169 C 0.05595 0.24068 0.86293 0.0
O170 O 0.14321 0.32579 0.93475 0.0
O171 O 0.12327 0.32444 0.86545 0.0
O172 O 0.06884 0.32038 0.89982 0.0
O173 O 0.04768 0.28001 0.93653 0.0
O174 O 0.08412 0.26277 0.8713 0.0
O175 O 1.034 0.23152 0.89704 0.0
C176 C 0.98653 0.19202 0.99735 0.0
O177 O 1.00892 0.19296 0.97249 0.0
O178 O 0.99438 0.21961 0.01134 0.0
C179 C 0.09542 0.25 0.99456 0.0
Tb180 Tb 0.82477 0.80655 0.54487 0.0
C181 C 0.7971 0.73879 0.50147 0.0
Tb182 Tb 0.83098 0.75635 0.60188 0.0
O183 O 0.86107 0.81081 0.49493 0.0
O184 O 0.86059 0.79819 0.5665 0.0
O185 O 0.79601 0.76495 0.50057 0.0
C186 C 0.85655 0.72712 0.64029 0.0
O187 O 0.81396 0.73361 0.53314 0.0
C188 C 0.77561 0.74989 0.61258 0.0
C189 C 0.84367 0.8133 0.658 0.0
O190 O 0.85915 0.73501 0.59488 0.0
O191 O 0.83861 0.73451 0.66324 0.0
O192 O 0.78401 0.7318 0.63264 0.0
O193 O 0.79842 0.76972 0.5898 0.0
O194 O 0.85379 0.79413 0.65029 0.0
O195 O 0.82806 0.81877 0.62367 0.0
C196 C 0.8212 0.85657 0.52238 0.0
O197 O 0.84271 0.85581 0.54729 0.0
O198 O 0.80132 0.8288 0.50918 0.0
C199 C 0.87384 0.80153 0.5265 0.0
Tb200 Tb 0.26035 1.02535 0.54199 0.0
C201 C 0.32656 0.06363 0.49131 0.0
Tb202 Tb 0.31517 0.07888 0.59592 0.0
O203 O 0.25542 0.05782 0.49511 0.0
O204 O 0.27289 0.07044 0.56451 0.0
O205 O 0.29967 0.03721 0.49189 0.0
C206 C 0.35228 0.13319 0.62981 0.0
O207 O 0.3342 0.08505 0.52439 0.0
C208 C 0.31751 0.02749 0.60185 0.0
C209 C 0.25719 0.04006 0.65537 0.0
O210 O 0.34336 0.12753 0.58501 0.0
O211 O 0.34084 0.10821 0.65527 0.0
O212 O 0.33815 0.05327 0.62024 0.0
O213 O 0.29787 0.03263 0.58302 0.0
O214 O 0.27942 0.06818 0.64748 0.0
O215 O 0.24855 1.01842 0.62122 0.0
C216 C 0.20981 0.9727 0.51878 0.0
O217 O 0.21061 0.99498 0.54331 0.0
O218 O 0.23778 0.97999 0.50678 0.0
C219 C 0.26822 0.08039 0.52537 0.0
Tb220 Tb 0.04351 0.2439 0.54524 0.0
C221 C 0.99897 0.26301 0.49011 0.0
Tb222 Tb 0.98875 0.23855 0.59614 0.0
O223 O 1.01581 0.20249 0.50276 0.0
O224 O 1.0015 0.2067 0.57133 0.0
O225 O 1.02821 0.26892 0.49433 0.0
C226 C 0.93287 0.22109 0.62836 0.0
O227 O 0.97839 0.24665 0.52349 0.0
C228 C 1.03948 0.29275 0.60356 0.0
C229 C 1.02917 0.22387 0.65809 0.0
O230 O 0.95801 0.23898 0.65125 0.0
O231 O 0.9392 0.21398 0.58656 0.0
O232 O 1.01793 0.28118 0.63602 0.0
O233 O 1.03034 0.27529 0.56793 0.0
O234 O 1.00023 0.21414 0.64786 0.0
O235 O 0.05082 0.23895 0.6245 0.0
C236 C 0.10123 0.25582 0.52422 0.0
O237 O 0.09126 0.25868 0.56607 0.0
O238 O 0.07883 0.24711 0.49347 0.0
C239 C 0.99335 0.19072 0.53352 0.0
Tb240 Tb 0.97733 0.57487 0.43325 0.0
C241 C 0.92136 0.55963 0.49239 0.0
Tb242 Tb 0.92644 0.57656 0.37965 0.0
O243 O 0.98789 0.61648 0.47412 0.0
O244 O 0.96926 0.60966 0.40624 0.0
O245 O 0.94022 0.5494 0.48261 0.0
C246 C 0.87628 0.58092 0.35771 0.0
O247 O 0.9161 0.57564 0.45886 0.0
C248 C 0.93023 0.52706 0.36424 0.0
C249 C 0.99236 0.60193 0.32765 0.0
O250 O 0.87733 0.56099 0.38607 0.0
O251 O 0.90378 0.59867 0.34069 0.0
O252 O 0.91954 0.5387 0.33303 0.0
O253 O 0.93486 0.5412 0.40377 0.0
O254 O 0.96521 0.60136 0.32687 0.0
O255 O 1.00006 0.5897 0.36372 0.0
C256 C 1.01555 0.55775 0.46741 0.0
O257 O 1.00747 0.57516 0.49001 0.0
O258 O 1.00318 0.55113 0.42475 0.0
C259 C 0.97676 0.62714 0.44184 0.0
Tb260 Tb 0.49595 0.41224 0.43165 0.0
C261 C 0.51258 0.37102 0.48782 0.0
Tb262 Tb 0.49202 0.35658 0.37564 0.0
O263 O 0.4483 0.38896 0.46032 0.0
O264 O 0.46435 0.36655 0.41872 0.0
O265 O 0.52192 0.39986 0.47834 0.0
C266 C 0.48803 0.30291 0.35289 0.0
O267 O 0.49666 0.34928 0.45487 0.0
C268 C 0.54095 0.41029 0.35831 0.0
C269 C 0.46821 0.39889 0.32739 0.0
O270 O 0.50939 0.32453 0.37844 0.0
O271 O 0.46841 0.3114 0.33959 0.0
O272 O 0.52967 0.38792 0.32757 0.0
O273 O 0.52672 0.40065 0.39767 0.0
O274 O 0.465 0.37076 0.32821 0.0
O275 O 0.48434 0.4199 0.36011 0.0
C276 C 0.51636 0.46662 0.46789 0.0
O277 O 0.51695 0.46112 0.42208 0.0
O278 O 0.50368 0.44152 0.49307 0.0
C279 C 0.44098 0.36291 0.44052 0.0
Tb280 Tb 0.65761 0.08628 0.42705 0.0
C281 C 0.69533 0.14327 0.48841 0.0
Tb282 Tb 0.71128 0.14161 0.37505 0.0
O283 O 0.6834 0.064 0.45329 0.0
O284 O 0.70439 0.10411 0.4154 0.0
O285 O 0.66733 0.12077 0.48014 0.0
C286 C 0.76439 0.19234 0.3543 0.0
O287 O 0.71732 0.15265 0.45439 0.0
C288 C 0.65575 0.13296 0.35655 0.0
C289 C 0.6752 0.0762 0.32287 0.0
O290 O 0.74175 0.19103 0.37891 0.0
O291 O 0.75713 0.16487 0.34056 0.0
O292 O 0.67897 0.14625 0.32712 0.0
O293 O 0.66538 0.12831 0.3961 0.0
O294 O 0.70117 0.10342 0.32418 0.0
O295 O 0.65327 0.06738 0.35577 0.0
C296 C 0.60325 0.04766 0.45989 0.0
O297 O 0.60885 0.0579 0.41567 0.0
O298 O 0.62823 0.05895 0.48536 0.0
C299 C 0.7094 0.0847 0.43525 0.0
Tb300 Tb 0.9281 0.62872 0.76126 0.0
C301 C 0.90808 0.5739 0.69732 0.0
Tb302 Tb 0.92752 0.57696 0.80992 0.0
O303 O 0.96897 0.63737 0.71967 0.0
O304 O 0.96286 0.6201 0.78879 0.0
O305 O 0.90145 0.59537 0.70774 0.0
C306 C 0.936 0.52909 0.82931 0.0
O307 O 0.92121 0.56488 0.73079 0.0
C308 C 0.87625 0.57866 0.82268 0.0
C309 C 0.9509 0.63951 0.86785 0.0
O310 O 0.94026 0.54281 0.78798 0.0
O311 O 0.92748 0.54273 0.86038 0.0
O312 O 0.88667 0.56628 0.85284 0.0
O313 O 0.89217 0.58549 0.78455 0.0
O314 O 0.95429 0.61482 0.86304 0.0
O315 O 0.93704 0.6467 0.83405 0.0
C316 C 0.91892 0.67329 0.73197 0.0
O317 O 0.90856 0.65813 0.772 0.0
O318 O 0.93476 0.66358 0.70861 0.0
C319 C 0.97976 0.62671 0.75223 0.0
Tb320 Tb 0.43647 0.30491 0.74897 0.0
C321 C 0.49514 0.34457 0.69158 0.0
Tb322 Tb 0.49027 0.35856 0.80489 0.0
O323 O 0.41299 0.32983 0.72409 0.0
O324 O 0.45302 0.3511 0.76244 0.0
O325 O 0.47286 0.31642 0.69866 0.0
C326 C 0.54057 0.4112 0.82961 0.0
O327 O 0.50319 0.36603 0.72594 0.0
C328 C 0.48216 0.30329 0.8198 0.0
C329 C 0.42348 0.31938 0.85334 0.0
O330 O 0.54009 0.38892 0.80552 0.0
O331 O 0.51242 0.40387 0.84043 0.0
O332 O 0.49365 0.32488 0.85192 0.0
O333 O 0.47861 0.31425 0.78107 0.0
O334 O 0.45024 0.34594 0.85369 0.0
O335 O 0.41639 0.29823 0.81987 0.0
C336 C 0.40196 0.25021 0.71469 0.0
O337 O 0.41131 0.25604 0.75928 0.0
O338 O 0.41129 0.27519 0.68976 0.0
C339 C 0.43301 0.35566 0.74327 0.0
Tb340 Tb 0.76042 0.14206 0.75164 0.0
C341 C 0.7221 0.16089 0.69281 0.0
Tb342 Tb 0.70872 0.14182 0.80536 0.0
O343 O 0.72848 0.10138 0.71024 0.0
O344 O 0.71748 0.1078 0.77914 0.0
O345 O 0.75076 0.16898 0.70225 0.0
C346 C 0.65589 0.13966 0.83329 0.0
O347 O 0.70049 0.14636 0.72659 0.0
C348 C 0.76284 0.19006 0.82033 0.0
C349 C 0.7481 0.11541 0.85786 0.0
O350 O 0.68247 0.16396 0.82815 0.0
O351 O 0.65902 0.1161 0.82343 0.0
O352 O 0.74134 0.17783 0.85284 0.0
O353 O 0.75263 0.17649 0.78049 0.0
O354 O 0.72195 0.11678 0.85895 0.0
O355 O 0.76778 0.12691 0.82136 0.0
C356 C 0.81563 0.15698 0.71945 0.0
O357 O 0.79026 0.14037 0.69609 0.0
O358 O 0.80978 0.16417 0.76158 0.0
C359 C 0.70711 0.0906 0.74315 0.0
Tb360 Tb 0.49225 0.14008 0.30172 0.0
C361 C 0.42648 0.11494 0.35414 0.0
Tb362 Tb 0.44129 0.1418 0.24842 0.0
O363 O 0.49963 0.1782 0.3481 0.0
O364 O 0.48384 0.17551 0.27761 0.0
O365 O 0.45356 0.11539 0.35474 0.0
C366 C 0.40254 0.15868 0.21596 0.0
O367 O 0.41876 0.12715 0.31809 0.0
C368 C 0.44167 0.08936 0.23994 0.0
C369 C 0.49713 0.15712 0.18891 0.0
O370 O 0.41098 0.14189 0.19227 0.0
O371 O 0.41499 0.16493 0.25855 0.0
O372 O 0.43058 0.10009 0.20768 0.0
O373 O 0.44928 0.10698 0.2754 0.0
O374 O 0.47823 0.16729 0.19881 0.0
O375 O 0.50242 0.14106 0.22235 0.0
C376 C 0.54228 0.13533 0.32378 0.0
O377 O 0.54118 0.15479 0.29435 0.0
O378 O 0.51488 0.11825 0.34168 0.0
C379 C 0.48877 0.18976 0.31708 0.0
Tb380 Tb 0.92644 0.35995 0.30663 0.0
C381 C 0.95091 0.31898 0.35825 0.0
Tb382 Tb 0.92473 0.30452 0.25323 0.0
O383 O 0.88852 0.32878 0.35405 0.0
O384 O 0.89262 0.3153 0.28486 0.0
O385 O 0.9532 0.34671 0.35636 0.0
C386 C 0.90583 0.25008 0.21807 0.0
O387 O 0.93583 0.29757 0.32559 0.0
C388 C 0.97923 0.35454 0.2458 0.0
C389 C 0.90727 0.34456 0.19387 0.0
O390 O 0.9038 0.25566 0.26342 0.0
O391 O 0.91911 0.27514 0.19285 0.0
O392 O 0.97296 0.3285 0.22703 0.0
O393 O 0.95523 0.35044 0.26593 0.0
O394 O 0.89962 0.31605 0.20308 0.0
O395 O 0.9217 0.36653 0.22714 0.0
C396 C 0.93039 0.41366 0.32872 0.0
O397 O 0.90918 0.39209 0.3029 0.0
O398 O 0.94985 0.40511 0.34258 0.0
C399 C 0.87802 0.30602 0.32407 0.0
Tb400 Tb 0.7075 0.57538 0.30965 0.0
C401 C 0.74364 0.64001 0.36396 0.0
Tb402 Tb 0.76138 0.63132 0.25897 0.0
O403 O 0.7396 0.56982 0.35662 0.0
O404 O 0.75341 0.58882 0.28816 0.0
O405 O 0.71751 0.61296 0.36177 0.0
C406 C 0.81567 0.67088 0.22683 0.0
O407 O 0.76566 0.64909 0.33115 0.0
C408 C 0.70963 0.63305 0.25169 0.0
C409 C 0.72337 0.57526 0.19591 0.0
O410 O 0.81015 0.65993 0.27064 0.0
O411 O 0.79072 0.65959 0.20131 0.0
O412 O 0.73565 0.65398 0.23411 0.0
O413 O 0.71464 0.61349 0.27088 0.0
O414 O 0.75146 0.59752 0.20453 0.0
O415 O 0.70141 0.56553 0.23 0.0
C416 C 0.6543 0.52439 0.32901 0.0
O417 O 0.67677 0.52609 0.30342 0.0
O418 O 0.66177 0.55159 0.34451 0.0
C419 C 0.76283 0.58346 0.32733 0.0
Tb420 Tb 0.4899 0.14289 0.87162 0.0
C421 C 0.46029 0.07733 0.81632 0.0
Tb422 Tb 0.49139 0.08668 0.9168 0.0
O423 O 0.54064 0.16746 0.86847 0.0
O424 O 0.51592 0.12032 0.86333 0.0
O425 O 0.46195 0.10484 0.81954 0.0
C426 C 0.51635 0.05485 0.94586 0.0
O427 O 0.47434 0.06793 0.84665 0.0
C428 C 0.43981 0.08637 0.93775 0.0
C429 C 0.50897 0.14271 0.98363 0.0
O430 O 0.48768 0.04302 0.93345 0.0
O431 O 0.53079 0.08432 0.9414 0.0
O432 O 0.44579 0.06529 0.95236 0.0
O433 O 0.46314 0.10563 0.91529 0.0
O434 O 0.51273 0.11913 0.97449 0.0
O435 O 0.49813 0.15428 0.95027 0.0
C436 C 0.47662 0.1866 0.84641 0.0
O437 O 0.46994 0.17191 0.88725 0.0
O438 O 0.48998 0.17586 0.81847 0.0
C439 C 0.54265 0.14275 0.86638 0.0
Tb440 Tb 0.92444 0.35827 0.87655 0.0
C441 C 0.99253 0.39738 0.83245 0.0
Tb442 Tb 0.97571 0.41324 0.93369 0.0
O443 O 0.92071 0.39085 0.82728 0.0
O444 O 0.93398 0.40235 0.89863 0.0
O445 O 0.96584 0.37079 0.83106 0.0
C446 C 1.0083 0.46809 0.96828 0.0
O447 O 0.99846 0.41884 0.86502 0.0
C448 C 0.98016 0.36349 0.94482 0.0
C449 C 0.91766 0.37154 0.98938 0.0
O450 O 1.00006 0.46217 0.92319 0.0
O451 O 0.99887 0.44322 0.99346 0.0
O452 O 0.99862 0.3894 0.96541 0.0
O453 O 0.96108 0.36742 0.92136 0.0
O454 O 0.93758 0.40041 0.98107 0.0
O455 O 0.91165 0.3502 0.95554 0.0
C456 C 0.87492 0.30502 0.85251 0.0
O457 O 0.8749 0.32693 0.87694 0.0
O458 O 0.90316 0.31305 0.84092 0.0
C459 C 0.93082 0.41267 0.85897 0.0
Tb460 Tb 0.70728 0.57441 0.87878 0.0
C461 C 0.66762 0.60078 0.8272 0.0
Tb462 Tb 0.65568 0.57381 0.93276 0.0
O463 O 0.67577 0.537 0.83207 0.0
O464 O 0.66333 0.53935 0.90315 0.0
O465 O 0.69385 0.59961 0.82602 0.0
C466 C 0.60064 0.55805 0.96657 0.0
O467 O 0.64788 0.58895 0.86351 0.0
C468 C 0.70892 0.6256 0.94162 0.0
C469 C 0.69558 0.5575 0.99138 0.0
O470 O 0.62613 0.57447 0.98971 0.0
O471 O 0.60627 0.5516 0.92371 0.0
O472 O 0.68729 0.61487 0.97411 0.0
O473 O 0.69863 0.60834 0.90572 0.0
O474 O 0.66658 0.54748 0.98147 0.0
O475 O 0.71686 0.57335 0.95784 0.0
C476 C 0.76083 0.57707 0.85495 0.0
O477 O 0.73942 0.5569 0.88244 0.0
O478 O 0.75212 0.59613 0.84012 0.0
C479 C 0.65363 0.52536 0.86353 0.0
Tb480 Tb 0.6458 0.90725 0.75946 0.0
C481 C 0.59029 0.89042 0.82161 0.0
Tb482 Tb 0.59532 0.91049 0.7088 0.0
O483 O 0.6579 0.94971 0.79897 0.0
O484 O 0.6395 0.94315 0.73078 0.0
O485 O 0.61049 0.88194 0.81146 0.0
C486 C 0.54878 0.92137 0.68803 0.0
O487 O 0.58278 0.90476 0.78799 0.0
C488 C 0.59422 0.85808 0.69714 0.0
C489 C 0.65893 0.93067 0.6531 0.0
O490 O 0.56226 0.92523 0.72953 0.0
O491 O 0.56217 0.91216 0.65749 0.0
O492 O 0.58282 0.86925 0.66648 0.0
O493 O 0.60159 0.87412 0.73493 0.0
O494 O 0.63519 0.93594 0.65732 0.0
O495 O 0.66411 0.91519 0.68688 0.0
C496 C 0.6853 0.89142 0.79278 0.0
O497 O 0.67751 0.90921 0.81483 0.0
O498 O 0.67189 0.88368 0.75099 0.0
C499 C 0.64739 0.96067 0.76633 0.0
Tb500 Tb 0.16222 0.74686 0.76424 0.0
C501 C 0.17898 0.70601 0.82253 0.0
Tb502 Tb 0.16062 0.69214 0.70944 0.0
O503 O 0.11449 0.72284 0.79204 0.0
O504 O 0.13176 0.70095 0.75146 0.0
O505 O 0.18701 0.7347 0.8141 0.0
C506 C 0.15754 0.63904 0.68629 0.0
O507 O 0.16466 0.6845 0.78862 0.0
C508 C 0.20855 0.74657 0.692 0.0
C509 C 0.13223 0.73079 0.66178 0.0
O510 O 0.1789 0.66084 0.71161 0.0
O511 O 0.13751 0.64706 0.67344 0.0
O512 O 0.19779 0.72411 0.66144 0.0
O513 O 0.19439 0.73674 0.7314 0.0
O514 O 0.1322 0.7041 0.66182 0.0
O515 O 0.14766 0.75264 0.69368 0.0
C516 C 0.1812 0.80126 0.79881 0.0
O517 O 0.18356 0.79564 0.7536 0.0
O518 O 0.16768 0.7763 0.82424 0.0
C519 C 0.10796 0.69697 0.77232 0.0
Tb520 Tb 0.3206 0.4268 0.76615 0.0
C521 C 0.36445 0.48326 0.82181 0.0
Tb522 Tb 0.37672 0.47615 0.70858 0.0
O523 O 0.34231 0.40097 0.79491 0.0
O524 O 0.36604 0.43886 0.75247 0.0
O525 O 0.33517 0.46488 0.81345 0.0
C526 C 0.43088 0.52518 0.68576 0.0
O527 O 0.38555 0.48809 0.78776 0.0
C528 C 0.32299 0.47235 0.69164 0.0
C529 C 0.33362 0.41 0.66297 0.0
O530 O 0.40866 0.52526 0.7096 0.0
O531 O 0.42258 0.49711 0.6737 0.0
O532 O 0.34467 0.48112 0.65949 0.0
O533 O 0.33314 0.46885 0.73131 0.0
O534 O 0.36208 0.4345 0.66307 0.0
O535 O 0.31258 0.40622 0.69551 0.0
C536 C 0.26607 0.39596 0.80401 0.0
O537 O 0.27127 0.40331 0.75844 0.0
O538 O 0.29144 0.40528 0.82787 0.0
C539 C 0.36864 0.41855 0.77433 0.0
Tb540 Tb 0.58905 0.96211 0.08876 0.0
C541 C 0.57843 0.90788 0.02503 0.0
Tb542 Tb 0.59305 0.90951 0.14162 0.0
O543 O 0.63529 0.98491 0.05554 0.0
O544 O 0.62046 0.94702 0.09877 0.0
O545 O 0.57404 0.93142 0.02928 0.0
C546 C 0.59662 0.85929 0.16219 0.0
O547 O 0.58864 0.89775 0.06197 0.0
C548 C 0.54442 0.91528 0.16067 0.0
C549 C 0.61941 0.97527 0.19014 0.0
O550 O 0.57555 0.86039 0.13656 0.0
O551 O 0.61601 0.88677 0.17717 0.0
O552 O 0.55622 0.90454 0.19156 0.0
O553 O 0.55843 0.91959 0.12127 0.0
O554 O 0.62239 0.95024 0.18734 0.0
O555 O 0.60035 0.97919 0.16177 0.0
C556 C 0.5648 0.99392 0.05551 0.0
O557 O 0.5936 1.00535 0.0662 0.0
O558 O 0.54973 0.96492 0.06437 0.0
C559 C 0.64324 0.96645 0.07543 0.0
Tb560 Tb 0.1034 0.63981 0.08539 0.0
C561 C 0.16154 0.67824 0.02624 0.0
Tb562 Tb 0.15805 0.69278 0.13951 0.0
O563 O 0.08031 0.66527 0.06127 0.0
O564 O 0.12062 0.68617 0.09852 0.0
O565 O 0.1391 0.65021 0.03394 0.0
C566 C 0.20902 0.7448 0.16364 0.0
O567 O 0.17018 0.69984 0.06043 0.0
C568 C 0.1497 0.6375 0.15626 0.0
C569 C 0.09205 0.65463 0.19025 0.0
O570 O 0.20787 0.72258 0.1385 0.0
O571 O 0.18114 0.73785 0.17561 0.0
O572 O 0.16234 0.66002 0.1866 0.0
O573 O 0.14542 0.64765 0.11699 0.0
O574 O 0.11882 0.68112 0.1896 0.0
O575 O 0.08446 0.6333 0.15705 0.0
C576 C 0.06524 0.58595 0.05122 0.0
O577 O 0.07412 0.59132 0.09606 0.0
O578 O 0.07758 0.61092 0.02572 0.0
C579 C 0.10072 0.69105 0.07984 0.0
Tb580 Tb 0.42875 0.4764 0.09052 0.0
C581 C 0.39085 0.49371 0.02704 0.0
Tb582 Tb 0.37448 0.47311 0.13962 0.0
O583 O 0.39893 0.43392 0.05092 0.0
O584 O 0.38643 0.44054 0.11857 0.0
O585 O 0.41933 0.50185 0.03796 0.0
C586 C 0.31716 0.46227 0.16072 0.0
O587 O 0.36859 0.47945 0.06014 0.0
C588 C 0.42554 0.52541 0.15178 0.0
C589 C 0.41771 0.45327 0.19692 0.0
O590 O 0.32651 0.45787 0.11933 0.0
O591 O 0.33996 0.47202 0.19088 0.0
O592 O 0.40282 0.51434 0.18212 0.0
O593 O 0.41717 0.50934 0.11409 0.0
O594 O 0.38867 0.44777 0.19184 0.0
O595 O 0.4386 0.46886 0.1636 0.0
C596 C 0.48438 0.49187 0.05953 0.0
O597 O 0.45919 0.47459 0.0363 0.0
O598 O 0.47816 0.49944 0.10105 0.0
C599 C 0.3772 0.42294 0.0831 0.0
Tb600 Tb 0.15712 0.47379 0.63866 0.0
C601 C 0.09296 0.44877 0.69654 0.0
Tb602 Tb 0.10441 0.47492 0.59121 0.0
O603 O 0.16896 0.51452 0.68165 0.0
O604 O 0.14855 0.50904 0.61439 0.0
O605 O 0.1189 0.44722 0.69197 0.0
C606 C 0.06372 0.49025 0.56236 0.0
O607 O 0.08489 0.46231 0.66323 0.0
C608 C 0.10509 0.42279 0.58133 0.0
C609 C 0.15978 0.49353 0.5261 0.0
O610 O 0.07032 0.47178 0.53957 0.0
O611 O 0.0791 0.49902 0.60245 0.0
O612 O 0.09352 0.43349 0.54994 0.0
O613 O 0.11315 0.44016 0.61716 0.0
O614 O 0.13805 0.49994 0.53653 0.0
O615 O 0.1692 0.48063 0.55943 0.0
C616 C 0.20497 0.46495 0.65902 0.0
O617 O 0.19145 0.46076 0.61746 0.0
O618 O 0.19099 0.47341 0.68963 0.0
C619 C 0.15621 0.52496 0.65229 0.0
Tb620 Tb 0.59347 0.69237 0.63915 0.0
C621 C 0.62012 0.65336 0.69071 0.0
Tb622 Tb 0.5945 0.63859 0.58588 0.0
O623 O 0.55633 0.66021 0.68659 0.0
O624 O 0.56076 0.64719 0.61724 0.0
O625 O 0.62076 0.68033 0.68926 0.0
C626 C 0.57803 0.58454 0.55125 0.0
O627 O 0.60578 0.63179 0.6581 0.0
C628 C 0.64881 0.68953 0.58055 0.0
C629 C 0.57479 0.67704 0.52632 0.0
O630 O 0.57504 0.58996 0.59629 0.0
O631 O 0.59072 0.60957 0.52589 0.0
O632 O 0.64326 0.66345 0.56288 0.0
O633 O 0.62394 0.68498 0.5984 0.0
O634 O 0.56923 0.64904 0.53444 0.0
O635 O 0.58796 0.6989 0.56006 0.0
C636 C 0.59536 0.74504 0.66243 0.0
O637 O 0.57413 0.72286 0.63753 0.0
O638 O 0.61597 0.73769 0.67467 0.0
C639 C 0.54637 0.63749 0.65661 0.0
Tb640 Tb 0.37656 0.90947 0.64022 0.0
C641 C 0.41432 0.97773 0.68201 0.0
Tb642 Tb 0.43087 0.96024 0.58188 0.0
O643 O 0.40985 0.90689 0.68966 0.0
O644 O 0.42105 0.9192 0.61782 0.0
O645 O 0.38788 0.9509 0.68398 0.0
C646 C 0.48565 0.99277 0.54588 0.0
O647 O 0.43621 0.98339 0.64995 0.0
C648 C 0.38074 0.96438 0.57101 0.0
C649 C 0.38893 0.90217 0.52721 0.0
O650 O 0.48007 0.98459 0.5911 0.0
O651 O 0.46049 0.98337 0.52138 0.0
O652 O 0.40675 0.98278 0.55013 0.0
O653 O 0.38472 0.94539 0.59457 0.0
O654 O 0.41791 0.92249 0.53426 0.0
O655 O 0.36782 0.89619 0.56172 0.0
C656 C 0.32346 0.85939 0.66363 0.0
O657 O 0.34579 0.86009 0.63901 0.0
O658 O 0.33108 0.88718 0.6762 0.0
C659 C 0.4317 0.91669 0.65766 0.0
Tb660 Tb 0.15766 0.47566 0.20774 0.0
C661 C 0.1292 0.40805 0.1635 0.0
Tb662 Tb 0.16012 0.42408 0.26605 0.0
O663 O 0.19412 0.47868 0.15952 0.0
O664 O 0.19195 0.46543 0.23125 0.0
O665 O 0.12961 0.43492 0.16135 0.0
C666 C 0.18079 0.39011 0.30213 0.0
O667 O 0.1442 0.4018 0.197 0.0
C668 C 0.10563 0.42001 0.27379 0.0
C669 C 0.17581 0.48181 0.32172 0.0
O670 O 0.18444 0.39912 0.25725 0.0
O671 O 0.16511 0.39975 0.32638 0.0
O672 O 0.11263 0.40118 0.2948 0.0
O673 O 0.12919 0.43921 0.25181 0.0
O674 O 0.18415 0.46116 0.31507 0.0
O675 O 0.16147 0.48841 0.28659 0.0
C676 C 0.15405 0.52544 0.18353 0.0
O677 O 0.17627 0.5251 0.20701 0.0
O678 O 0.13362 0.49743 0.1726 0.0
C679 C 0.20559 0.46832 0.19166 0.0
Tb680 Tb 0.5895 0.69063 0.21024 0.0
C681 C 0.65578 0.73173 0.16323 0.0
Tb682 Tb 0.64074 0.74498 0.26736 0.0
O683 O 0.58477 0.72274 0.16176 0.0
O684 O 0.59904 0.73486 0.23267 0.0
O685 O 0.63063 0.70387 0.16348 0.0
C686 C 0.67599 0.79916 0.30264 0.0
O687 O 0.66078 0.7526 0.19628 0.0
C688 C 0.64575 0.69537 0.27665 0.0
C689 C 0.58271 0.70396 0.32264 0.0
O690 O 0.66976 0.79353 0.25692 0.0
O691 O 0.66271 0.77433 0.3284 0.0
O692 O 0.6642 0.72116 0.2973 0.0
O693 O 0.62649 0.69931 0.25387 0.0
O694 O 0.60237 0.73284 0.31389 0.0
O695 O 0.57705 0.68255 0.28917 0.0
C696 C 0.53935 0.63797 0.18642 0.0
O697 O 0.53992 0.66003 0.21118 0.0
O698 O 0.56739 0.64545 0.17444 0.0
C699 C 0.59536 0.74485 0.19292 0.0
Tb700 Tb 0.37468 0.90885 0.21098 0.0
C701 C 0.3311 0.92898 0.15539 0.0
Tb702 Tb 0.32145 0.90618 0.26199 0.0
O703 O 0.34591 0.86783 0.16868 0.0
O704 O 0.3321 0.87267 0.23747 0.0
O705 O 0.36007 0.93408 0.15929 0.0
C706 C 0.26636 0.89085 0.29544 0.0
O707 O 0.31063 0.91357 0.18938 0.0
C708 C 0.37338 0.95962 0.26748 0.0
C709 C 0.35985 0.88845 0.32364 0.0
O710 O 0.29193 0.90825 0.31768 0.0
O711 O 0.27193 0.88328 0.25344 0.0
O712 O 0.35222 0.94894 0.3006 0.0
O713 O 0.36332 0.94172 0.23248 0.0
O714 O 0.33131 0.88073 0.31401 0.0
O715 O 0.38159 0.90243 0.28981 0.0
C716 C 0.4318 0.91944 0.18989 0.0
O717 O 0.42304 0.92564 0.23038 0.0
O718 O 0.40856 0.90819 0.16044 0.0
C719 C 0.32348 0.85672 0.19955 0.0
C720 C 0.24969 0.14704 0.98012 0.0
C721 C 0.26319 0.16425 0.02201 0.0
H722 H 0.23861 0.10674 0.93956 0.0
C723 C 0.27699 0.15358 0.05538 0.0
H724 H 0.2388 0.15453 0.95375 0.0
C725 C 0.27778 0.12651 0.04637 0.0
C726 C 0.26373 0.10916 1.00476 0.0
H727 H 0.28704 0.16602 0.08846 0.0
H728 H 0.28859 0.11876 0.07247 0.0
C729 C 0.24959 0.11964 0.97196 0.0
C730 C 0.93805 0.16019 0.04576 0.0
C731 C 0.95648 0.16397 1.00504 0.0
H732 H 0.89726 0.12978 0.08572 0.0
C733 C 0.94641 0.14009 0.97135 0.0
H734 H 0.94541 0.17817 0.07248 0.0
C735 C 0.91847 0.11307 0.97789 0.0
C736 C 0.90026 0.10882 0.01904 0.0
H737 H 0.96009 0.14239 0.93956 0.0
H738 H 0.91141 0.09522 0.951 0.0
C739 C 0.91043 0.13259 0.05316 0.0
C740 C 0.91681 0.7958 0.96553 0.0
C741 C 0.89943 0.79651 1.00504 0.0
H742 H 0.95883 0.79848 0.94139 0.0
C743 C 0.91125 0.79892 0.05203 0.0
H744 H 0.90843 0.79409 0.92885 0.0
C745 C 0.93999 0.80098 0.05924 0.0
C746 C 0.9578 0.80131 0.01954 0.0
H747 H 0.89842 0.79953 0.08318 0.0
H748 H 0.94861 0.80305 0.09583 0.0
C749 C 0.94576 0.79846 0.97266 0.0
C750 C 0.14832 0.25597 0.55521 0.0
C751 C 0.13116 0.25701 0.51565 0.0
H752 H 0.18719 0.25241 0.57919 0.0
C753 C 0.14195 0.25717 0.46853 0.0
H754 H 0.14062 0.25572 0.59197 0.0
C755 C 0.16905 0.25582 0.46124 0.0
C756 C 0.18549 0.25355 0.5009 0.0
H757 H 0.12926 0.25797 0.43734 0.0
H758 H 0.17664 0.25567 0.42454 0.0
C759 C 0.17495 0.25394 0.54791 0.0
C760 C 0.83315 0.93606 0.54076 0.0
C761 C 0.82076 0.94104 0.49837 0.0
H762 H 0.84329 0.90571 0.58084 0.0
C763 C 0.80746 0.91742 0.46393 0.0
H764 H 0.84363 0.95375 0.56795 0.0
C765 C 0.80635 0.88929 0.47213 0.0
C766 C 0.81957 0.88482 0.51405 0.0
H767 H 0.79823 0.92076 0.4305 0.0
H768 H 0.79614 0.8715 0.44505 0.0
C769 C 0.83296 0.90851 0.54815 0.0
C770 C 0.12867 0.90691 0.53226 0.0
C771 C 0.12562 0.88829 0.49249 0.0
H772 H 0.15739 0.94814 0.57099 0.0
C773 C 0.15076 0.89765 0.4608 0.0
H774 H 0.10979 0.90046 0.55733 0.0
C775 C 0.17862 0.92474 0.4696 0.0
C776 C 0.18133 0.9434 0.50923 0.0
H777 H 0.14895 0.8841 0.42936 0.0
H778 H 0.19774 0.9314 0.44495 0.0
C779 C 0.15599 0.93426 0.54014 0.0
C780 C 0.80625 0.924 0.97057 0.0
C781 C 0.82174 0.94246 0.0106 0.0
H782 H 0.79597 0.88367 0.92982 0.0
C783 C 0.83789 0.93328 0.04161 0.0
H784 H 0.79387 0.9307 0.94579 0.0
C785 C 0.8382 0.90607 0.0335 0.0
C786 C 0.82307 0.88765 0.99335 0.0
H787 H 0.85005 0.94701 0.07275 0.0
H788 H 0.85054 0.89957 0.05869 0.0
C789 C 0.80739 0.89708 0.96152 0.0
C790 C 0.16455 0.93808 0.03661 0.0
C791 C 0.1829 0.9423 0.99569 0.0
H792 H 0.12296 0.90877 0.07487 0.0
C793 C 0.17303 0.91829 0.96199 0.0
H794 H 0.17137 0.95605 0.06322 0.0
C795 C 0.14549 0.89056 0.96954 0.0
C796 C 0.12688 0.88688 0.00997 0.0
H797 H 0.18638 0.92103 0.92968 0.0
H798 H 0.13831 0.87244 0.94311 0.0
C799 C 0.13675 0.91096 0.04327 0.0
C800 C 0.17719 0.26414 0.97634 0.0
C801 C 0.18086 0.24995 0.01783 0.0
H802 H 0.1469 0.27459 0.93549 0.0
C803 C 0.15668 0.23674 0.05157 0.0
H804 H 0.19537 0.2744 0.94959 0.0
C805 C 0.12947 0.23752 0.04419 0.0
C806 C 0.12532 0.25099 1.00232 0.0
H807 H 0.15879 0.22573 0.08397 0.0
H808 H 0.11141 0.22704 0.0711 0.0
C809 C 0.14949 0.26431 0.96835 0.0
C810 C 0.94702 0.7982 0.54953 0.0
C811 C 0.95704 0.79765 0.50214 0.0
H812 H 0.91254 0.79928 0.59444 0.0
C813 C 0.93883 0.79718 0.46303 0.0
H814 H 0.96054 0.79852 0.58038 0.0
C815 C 0.91172 0.79821 0.47101 0.0
C816 C 0.90187 0.79912 0.51832 0.0
H817 H 0.94596 0.79685 0.42609 0.0
H818 H 0.89854 0.79846 0.44009 0.0
C819 C 0.91955 0.79861 0.55755 0.0
C820 C 0.25428 0.1142 0.47855 0.0
C821 C 0.26879 0.10996 0.51898 0.0
H822 H 0.24132 0.14345 0.44148 0.0
C823 C 0.2827 0.13371 0.55309 0.0
H824 H 0.24323 0.09638 0.4517 0.0
C825 C 0.28245 0.16129 0.54635 0.0
C826 C 0.26722 0.16503 0.50639 0.0
H827 H 0.2935 0.13091 0.58512 0.0
H828 H 0.29332 0.17926 0.57301 0.0
C829 C 0.25313 0.14117 0.47273 0.0
C830 C 0.93924 0.15158 0.55853 0.0
C831 C 0.96403 0.16182 0.52588 0.0
H832 H 0.89241 0.11746 0.57441 0.0
C833 C 0.96056 0.14436 0.48438 0.0
H834 H 0.94144 0.16419 0.59134 0.0
C835 C 0.93311 0.11728 0.47568 0.0
C836 C 0.90809 0.10734 0.50754 0.0
H837 H 0.97919 0.15152 0.45857 0.0
H838 H 0.93136 0.10426 0.4435 0.0
C839 C 0.91125 0.12483 0.54896 0.0
C840 C 0.94406 0.48706 0.39021 0.0
C841 C 0.93109 0.49831 0.35626 0.0
H842 H 0.95507 0.45183 0.40752 0.0
C843 C 0.9186 0.48172 0.31347 0.0
H844 H 0.95331 0.49897 0.42395 0.0
C845 C 0.91861 0.45439 0.30499 0.0
C846 C 0.93189 0.44331 0.33837 0.0
H847 H 0.90838 0.48963 0.28659 0.0
H848 H 0.90833 0.44198 0.27191 0.0
C849 C 0.94498 0.46006 0.38091 0.0
C850 C 0.60704 0.49116 0.37864 0.0
C851 C 0.62469 0.49593 0.33662 0.0
H852 H 0.56746 0.45957 0.41975 0.0
C853 C 0.61435 0.47266 0.30177 0.0
H854 H 0.61467 0.50864 0.40627 0.0
C855 C 0.58681 0.44523 0.30849 0.0
C856 C 0.5694 0.44005 0.3509 0.0
H857 H 0.62751 0.47577 0.269 0.0
H858 H 0.57942 0.42783 0.28077 0.0
C859 C 0.57994 0.46319 0.38616 0.0
C860 C 0.59466 0.14634 0.29924 0.0
C861 C 0.57035 0.13304 0.33273 0.0
H862 H 0.63997 0.15606 0.28005 0.0
C863 C 0.57386 0.11875 0.37422 0.0
H864 H 0.59268 0.15742 0.26682 0.0
C865 C 0.60156 0.11859 0.38246 0.0
C866 C 0.62585 0.13197 0.34869 0.0
H867 H 0.55557 0.10842 0.40079 0.0
H868 H 0.60403 0.10826 0.41535 0.0
C869 C 0.62182 0.14552 0.30682 0.0
C870 C 0.83766 0.59495 0.79828 0.0
C871 C 0.8467 0.57852 0.82916 0.0
H872 H 0.8036 0.60807 0.78264 0.0
C873 C 0.82733 0.56199 0.86793 0.0
H874 H 0.85204 0.60783 0.76799 0.0
C875 C 0.79956 0.56157 0.87555 0.0
C876 C 0.79058 0.57821 0.84531 0.0
H877 H 0.83354 0.54911 0.89244 0.0
H878 H 0.78521 0.54838 0.9057 0.0
C879 C 0.80998 0.59511 0.80665 0.0
C880 C 0.47341 0.23126 0.87823 0.0
C881 C 0.47513 0.21497 0.83817 0.0
H882 H 0.4749 0.27215 0.90378 0.0
C883 C 0.47754 0.22723 0.79152 0.0
H884 H 0.47167 0.22248 0.91467 0.0
C885 C 0.47864 0.25546 0.78526 0.0
C886 C 0.4783 0.27231 0.82564 0.0
H887 H 0.4789 0.21519 0.76003 0.0
H888 H 0.48079 0.26458 0.74897 0.0
C889 C 0.4754 0.25978 0.87209 0.0
C890 C 0.81625 0.23022 0.79352 0.0
C891 C 0.79207 0.2192 0.82748 0.0
H892 H 0.86216 0.2657 0.77548 0.0
C893 C 0.79579 0.23648 0.86933 0.0
H894 H 0.81389 0.21769 0.76055 0.0
C895 C 0.8227 0.26427 0.87685 0.0
C896 C 0.84706 0.27512 0.84351 0.0
H897 H 0.77764 0.22876 0.89614 0.0
H898 H 0.82457 0.2772 0.90922 0.0
C899 C 0.8438 0.25769 0.80196 0.0
C900 C 0.47432 0.22941 0.29153 0.0
C901 C 0.48771 0.21841 0.32517 0.0
H902 H 0.46285 0.26437 0.2745 0.0
C903 C 0.50042 0.23517 0.36775 0.0
H904 H 0.46485 0.21735 0.25796 0.0
C905 C 0.50023 0.26241 0.37629 0.0
C906 C 0.48657 0.27326 0.3432 0.0
H907 H 0.51096 0.22746 0.3944 0.0
H908 H 0.51071 0.27496 0.40919 0.0
C909 C 0.47324 0.25634 0.3009 0.0
C910 C 0.80394 0.24454 0.38005 0.0
C911 C 0.79406 0.22069 0.34636 0.0
H912 H 0.83854 0.28971 0.4 0.0
C913 C 0.81225 0.22473 0.30527 0.0
H914 H 0.79038 0.242 0.41211 0.0
C915 C 0.83947 0.25259 0.29748 0.0
C916 C 0.84951 0.27633 0.33162 0.0
H917 H 0.80499 0.20677 0.27854 0.0
H918 H 0.85242 0.25563 0.26459 0.0
C919 C 0.83155 0.27185 0.37313 0.0
C920 C 0.7966 0.57005 0.37564 0.0
C921 C 0.7927 0.58437 0.33466 0.0
H922 H 0.82569 0.55752 0.41432 0.0
C923 C 0.81707 0.59845 0.30117 0.0
H924 H 0.77837 0.55896 0.40215 0.0
C925 C 0.84477 0.59822 0.30881 0.0
C926 C 0.84817 0.58318 0.34938 0.0
H927 H 0.81466 0.60937 0.26895 0.0
H928 H 0.86315 0.60911 0.28251 0.0
C929 C 0.82377 0.56918 0.38259 0.0
C930 C 0.62754 0.16732 0.85545 0.0
C931 C 0.62679 0.13969 0.84445 0.0
H932 H 0.60178 0.1899 0.87128 0.0
C933 C 0.59807 0.11283 0.84202 0.0
H934 H 0.64927 0.18846 0.85751 0.0
C935 C 0.57076 0.11373 0.8495 0.0
C936 C 0.57156 0.14146 0.86011 0.0
H937 H 0.59666 0.09122 0.83337 0.0
H938 H 0.54898 0.09276 0.84627 0.0
C939 C 0.60031 0.16818 0.86327 0.0
C940 C 0.93654 0.48947 0.88445 0.0
C941 C 0.93683 0.50037 0.83743 0.0
H942 H 0.93502 0.45337 0.92814 0.0
C943 C 0.93638 0.48278 0.79766 0.0
H944 H 0.93694 0.50256 0.91576 0.0
C945 C 0.93466 0.4544 0.80468 0.0
C946 C 0.93397 0.44329 0.85164 0.0
H947 H 0.93651 0.49055 0.76097 0.0
H948 H 0.93368 0.44108 0.77333 0.0
C949 C 0.93545 0.46133 0.89149 0.0
C950 C 0.59968 0.4857 0.88917 0.0
C951 C 0.62431 0.49624 0.85613 0.0
H952 H 0.55323 0.45094 0.90602 0.0
C953 C 0.62085 0.47859 0.81481 0.0
H954 H 0.60179 0.49844 0.92179 0.0
C955 C 0.59371 0.45101 0.80688 0.0
C956 C 0.56887 0.44073 0.83919 0.0
H957 H 0.63933 0.48591 0.78869 0.0
H958 H 0.59203 0.43785 0.7749 0.0
C959 C 0.57193 0.45847 0.88027 0.0
C960 C 0.57979 0.81089 0.64948 0.0
C961 C 0.59461 0.82903 0.69003 0.0
H962 H 0.56815 0.77017 0.60972 0.0
C963 C 0.60994 0.81931 0.72208 0.0
H964 H 0.56771 0.81762 0.62412 0.0
C965 C 0.61106 0.7924 0.71285 0.0
C966 C 0.5959 0.77424 0.67239 0.0
H967 H 0.62108 0.83247 0.75411 0.0
H968 H 0.62317 0.78549 0.7378 0.0
C969 C 0.58006 0.78368 0.64117 0.0
C970 C 0.24791 0.79948 0.71996 0.0
C971 C 0.23733 0.77615 0.68497 0.0
H972 H 0.28311 0.84479 0.74005 0.0
C973 C 0.25509 0.78086 0.64313 0.0
H974 H 0.23515 0.79623 0.75313 0.0
C975 C 0.28299 0.80794 0.63672 0.0
C976 C 0.29342 0.83139 0.67126 0.0
H977 H 0.24772 0.76334 0.61561 0.0
H978 H 0.29637 0.81062 0.60438 0.0
C979 C 0.27544 0.82716 0.71268 0.0
C980 C 0.2449 0.46551 0.71517 0.0
C981 C 0.23403 0.46452 0.66787 0.0
H982 H 0.28132 0.46822 0.75983 0.0
C983 C 0.25215 0.46495 0.62862 0.0
H984 H 0.23147 0.46519 0.74613 0.0
C985 C 0.28092 0.4673 0.63641 0.0
C986 C 0.29199 0.46871 0.68364 0.0
H987 H 0.24449 0.46433 0.59174 0.0
H988 H 0.29458 0.4682 0.60538 0.0
C989 C 0.27345 0.46727 0.72299 0.0
C990 C 0.48088 0.92379 0.22113 0.0
C991 C 0.4616 0.92042 0.18175 0.0
H992 H 0.5219 0.92429 0.24546 0.0
C993 C 0.47016 0.91598 0.13531 0.0
H994 H 0.47479 0.92698 0.25745 0.0
C995 C 0.4973 0.9148 0.12845 0.0
C996 C 0.51627 0.9176 0.16795 0.0
H997 H 0.45571 0.91309 0.10434 0.0
H998 H 0.503 0.91084 0.09234 0.0
C999 C 0.50775 0.92207 0.21437 0.0
C1000 C 0.16494 0.60449 0.20243 0.0
C1001 C 0.14952 0.6081 0.16268 0.0
H1002 H 0.17884 0.57591 0.23925 0.0
C1003 C 0.13498 0.58387 0.12951 0.0
H1004 H 0.17647 0.62267 0.22859 0.0
C1005 C 0.13555 0.55645 0.13655 0.0
C1006 C 0.15165 0.55333 0.17585 0.0
H1007 H 0.12336 0.58614 0.0981 0.0
H1008 H 0.12413 0.53808 0.11068 0.0
C1009 C 0.16637 0.57768 0.20851 0.0
C1010 C 0.48573 0.5994 0.20797 0.0
C1011 C 0.51093 0.60875 0.17666 0.0
H1012 H 0.43948 0.56565 0.22501 0.0
C1013 C 0.50797 0.59058 0.13625 0.0
H1014 H 0.48734 0.61294 0.2394 0.0
C1015 C 0.47997 0.56375 0.12706 0.0
C1016 C 0.45497 0.5542 0.15911 0.0
H1017 H 0.52697 0.59745 0.11127 0.0
H1018 H 0.47792 0.55056 0.09504 0.0
C1019 C 0.45827 0.5723 0.19967 0.0
C1020 C 0.1718 0.5998 0.70787 0.0
C1021 C 0.15623 0.60953 0.67664 0.0
H1022 H 0.18341 0.56538 0.72505 0.0
C1023 C 0.14054 0.5913 0.63655 0.0
H1024 H 0.18407 0.61336 0.73908 0.0
C1025 C 0.14095 0.56402 0.62758 0.0
C1026 C 0.15614 0.5541 0.65953 0.0
H1027 H 0.12858 0.59844 0.61166 0.0
H1028 H 0.12945 0.5508 0.59577 0.0
C1029 C 0.17143 0.57228 0.69978 0.0
C1030 C 0.50768 0.58373 0.63038 0.0
C1031 C 0.5176 0.60786 0.66383 0.0
H1032 H 0.4727 0.53797 0.61163 0.0
C1033 C 0.49918 0.60396 0.70452 0.0
H1034 H 0.52111 0.58623 0.59827 0.0
C1035 C 0.47122 0.57702 0.71116 0.0
C1036 C 0.46126 0.55284 0.67805 0.0
H1037 H 0.50604 0.62205 0.73093 0.0
H1038 H 0.45736 0.57507 0.74254 0.0
C1039 C 0.47995 0.55619 0.63789 0.0
C1040 C 0.50238 0.92262 0.71917 0.0
C1041 C 0.52006 0.9226 0.67957 0.0
H1042 H 0.46054 0.92033 0.7433 0.0
C1043 C 0.50902 0.92194 0.63249 0.0
H1044 H 0.51017 0.92301 0.75591 0.0
C1045 C 0.48075 0.92092 0.62528 0.0
C1046 C 0.4626 0.91987 0.665 0.0
H1047 H 0.5221 0.92192 0.60127 0.0
H1048 H 0.47273 0.92017 0.58859 0.0
C1049 C 0.47388 0.92097 0.71199 0.0
C1050 C 0.25009 0.46347 0.22399 0.0
C1051 C 0.23297 0.46457 0.18438 0.0
H1052 H 0.29037 0.46222 0.24769 0.0
C1053 C 0.24287 0.46311 0.13732 0.0
H1054 H 0.24301 0.46449 0.26071 0.0
C1055 C 0.26951 0.4611 0.12994 0.0
C1056 C 0.2873 0.46117 0.1694 0.0
H1057 H 0.23012 0.46376 0.10609 0.0
H1058 H 0.27671 0.46049 0.09315 0.0
C1059 C 0.27718 0.46215 0.21656 0.0
C1060 C 0.60973 0.79809 0.22032 0.0
C1061 C 0.59716 0.77487 0.18515 0.0
H1062 H 0.62044 0.84367 0.24009 0.0
C1063 C 0.58542 0.7802 0.14234 0.0
H1064 H 0.61838 0.79443 0.25411 0.0
C1065 C 0.58555 0.80775 0.13523 0.0
C1066 C 0.59823 0.83103 0.17009 0.0
H1067 H 0.5755 0.76279 0.11462 0.0
H1068 H 0.57573 0.81087 0.1022 0.0
C1069 C 0.61079 0.8262 0.21244 0.0
C1070 C 0.29069 0.80975 0.15171 0.0
C1071 C 0.294 0.8279 0.19226 0.0
H1072 H 0.2615 0.76928 0.11163 0.0
C1073 C 0.26889 0.81846 0.22404 0.0
H1074 H 0.30955 0.81628 0.12657 0.0
C1075 C 0.24078 0.79181 0.21449 0.0
C1076 C 0.23777 0.77366 0.174 0.0
H1077 H 0.27091 0.83165 0.25604 0.0
H1078 H 0.22167 0.7851 0.23919 0.0
C1079 C 0.26311 0.7828 0.14309 0.0
C1080 C 0.36737 0.18611 0.12292 0.0
C1081 C 0.36576 0.2092 0.14868 0.0
H1082 H 0.3798 0.15122 0.12493 0.0
C1083 C 0.37533 0.2149 0.19708 0.0
H1084 H 0.35964 0.18111 0.08569 0.0
C1085 C 0.38632 0.19755 0.21964 0.0
C1086 C 0.38787 0.17441 0.19394 0.0
H1087 H 0.37393 0.23244 0.21767 0.0
H1088 H 0.39398 0.20254 0.25691 0.0
C1089 C 0.37841 0.16878 0.14548 0.0
C1090 C 0.85474 0.16598 0.2046 0.0
C1091 C 0.85675 0.1628 0.15455 0.0
H1092 H 0.86956 0.19676 0.26443 0.0
C1093 C 0.87552 0.18822 0.12567 0.0
H1094 H 0.84049 0.14644 0.2274 0.0
C1095 C 0.89234 0.21674 0.14681 0.0
C1096 C 0.89041 0.21992 0.19687 0.0
H1097 H 0.87757 0.18601 0.08699 0.0
H1098 H 0.90663 0.23627 0.12399 0.0
C1099 C 0.87157 0.19452 0.22575 0.0
C1100 C 0.87181 0.69598 0.23474 0.0
C1101 C 0.84601 0.68923 0.2066 0.0
H1102 H 0.92042 0.71467 0.23529 0.0
C1103 C 0.84915 0.69746 0.15755 0.0
H1104 H 0.86962 0.68961 0.27268 0.0
C1105 C 0.87795 0.7114 0.1362 0.0
C1106 C 0.90361 0.71719 0.16392 0.0
H1107 H 0.82933 0.69236 0.13542 0.0
H1108 H 0.88006 0.7173 0.09805 0.0
C1109 C 0.90063 0.70999 0.21339 0.0
C1110 C 0.21566 0.36917 0.29634 0.0
C1111 C 0.19551 0.37468 0.32392 0.0
H1112 H 0.24643 0.35145 0.2962 0.0
C1113 C 0.19092 0.36706 0.37322 0.0
H1114 H 0.21964 0.37529 0.25829 0.0
C1115 C 0.20634 0.35375 0.39488 0.0
C1116 C 0.22635 0.34808 0.36723 0.0
H1117 H 0.17552 0.37143 0.39499 0.0
H1118 H 0.2023 0.34756 0.4329 0.0
C1119 C 0.2311 0.35589 0.31801 0.0
C1120 C 0.7031 0.8549 0.29247 0.0
C1121 C 0.69295 0.82939 0.32283 0.0
H1122 H 0.7262 0.90355 0.28831 0.0
C1123 C 0.69782 0.83289 0.37289 0.0
H1124 H 0.69921 0.85242 0.25371 0.0
C1125 C 0.71297 0.86192 0.39259 0.0
C1126 C 0.72323 0.88743 0.36221 0.0
H1127 H 0.68991 0.81328 0.39674 0.0
H1128 H 0.71692 0.86439 0.43133 0.0
C1129 C 0.71824 0.88393 0.31217 0.0
C1130 C 0.21209 0.84994 0.29652 0.0
C1131 C 0.23669 0.87474 0.3196 0.0
H1132 H 0.16594 0.81317 0.30297 0.0
C1133 C 0.23393 0.88137 0.36799 0.0
H1134 H 0.21401 0.84414 0.2594 0.0
C1135 C 0.20669 0.86341 0.39307 0.0
C1136 C 0.18205 0.83868 0.36993 0.0
H1137 H 0.25288 0.90019 0.38657 0.0
H1138 H 0.20472 0.86926 0.43014 0.0
C1139 C 0.18489 0.83195 0.32163 0.0
C1140 C 0.71773 0.86424 0.89059 0.0
C1141 C 0.71805 0.83968 0.86748 0.0
H1142 H 0.70782 0.90073 0.88402 0.0
C1143 C 0.70878 0.83302 0.81904 0.0
H1144 H 0.7253 0.87004 0.92777 0.0
C1145 C 0.69932 0.85084 0.79386 0.0
C1146 C 0.69905 0.87543 0.81695 0.0
H1147 H 0.70927 0.81437 0.80042 0.0
H1148 H 0.69176 0.84506 0.75667 0.0
C1149 C 0.70828 0.88207 0.86541 0.0
C1150 C 0.19377 0.83462 0.86968 0.0
C1151 C 0.19606 0.83142 0.81973 0.0
H1152 H 0.20754 0.86548 0.92919 0.0
C1153 C 0.2145 0.85685 0.79069 0.0
H1154 H 0.17975 0.81505 0.89259 0.0
C1155 C 0.23056 0.88552 0.81161 0.0
C1156 C 0.22816 0.88871 0.86154 0.0
H1157 H 0.21673 0.85458 0.75209 0.0
H1158 H 0.24451 0.90512 0.78874 0.0
C1159 C 0.20985 0.86324 0.89059 0.0
C1160 C 0.18155 0.36139 0.82023 0.0
C1161 C 0.17864 0.35379 0.86955 0.0
H1162 H 0.21226 0.38078 0.76033 0.0
C1163 C 0.20456 0.36087 0.89756 0.0
H1164 H 0.16162 0.35599 0.79818 0.0
C1165 C 0.23329 0.37473 0.87595 0.0
C1166 C 0.23609 0.38152 0.82634 0.0
H1167 H 0.20256 0.35497 0.9357 0.0
H1168 H 0.25318 0.37977 0.89787 0.0
C1169 C 0.21028 0.37524 0.79861 0.0
C1170 C 0.89628 0.71172 0.63826 0.0
C1171 C 0.87418 0.71522 0.6641 0.0
H1172 H 0.92887 0.69615 0.64067 0.0
C1173 C 0.86974 0.7084 0.71369 0.0
H1174 H 0.90037 0.71752 0.60012 0.0
C1175 C 0.88618 0.69667 0.73685 0.0
C1176 C 0.90712 0.69166 0.71053 0.0
H1177 H 0.85311 0.71149 0.73436 0.0
H1178 H 0.8815 0.69028 0.77474 0.0
C1179 C 0.91279 0.69999 0.66151 0.0
C1180 C 0.37332 0.16688 0.70046 0.0
C1181 C 0.36702 0.1634 0.65075 0.0
H1182 H 0.38901 0.19768 0.76019 0.0
C1183 C 0.37166 0.18838 0.62227 0.0
H1184 H 0.36959 0.14766 0.72295 0.0
C1185 C 0.38226 0.21671 0.64358 0.0
C1186 C 0.38833 0.22014 0.69336 0.0
H1187 H 0.3665 0.18591 0.58388 0.0
H1188 H 0.38586 0.2359 0.62112 0.0
C1189 C 0.38397 0.19523 0.72176 0.0
C1190 C 0.8991 0.21195 0.69903 0.0
C1191 C 0.90259 0.20561 0.6508 0.0
H1192 H 0.86851 0.20068 0.7592 0.0
C1193 C 0.8777 0.18222 0.62588 0.0
H1194 H 0.91819 0.22971 0.71901 0.0
C1195 C 0.84947 0.16541 0.64898 0.0
C1196 C 0.84596 0.17184 0.69717 0.0
H1197 H 0.88013 0.17672 0.5888 0.0
H1198 H 0.83033 0.14772 0.62899 0.0
C1199 C 0.87091 0.19511 0.72215 0.0
C1200 C 1.02898 0.51678 0.46741 0.0
C1201 C 1.02914 0.54144 0.49102 0.0
H1202 H 1.03902 0.48033 0.4726 0.0
C1203 C 1.03906 0.54808 0.53918 0.0
H1204 H 1.02087 0.51097 0.43047 0.0
C1205 C 0.04903 0.53036 0.56342 0.0
C1206 C 0.04905 0.50582 0.53969 0.0
H1207 H 1.03894 0.56681 0.55816 0.0
H1208 H 0.05729 0.53625 0.60027 0.0
C1209 C 1.03882 0.49899 0.4917 0.0
C1210 C 0.54654 0.52875 0.55987 0.0
C1211 C 0.56405 0.5543 0.53045 0.0
H1212 H 0.51696 0.48042 0.56233 0.0
C1213 C 0.56574 0.55101 0.48036 0.0
H1214 H 0.54482 0.53102 0.59861 0.0
C1215 C 0.5496 0.52227 0.45964 0.0
C1216 C 0.5318 0.49678 0.48901 0.0
H1217 H 0.57908 0.57063 0.45717 0.0
H1218 H 0.55117 0.52 0.42086 0.0
C1219 C 0.53044 0.50002 0.53917 0.0
C1220 C 0.56965 1.02359 0.53007 0.0
C1221 C 0.57292 0.03098 0.48067 0.0
H1222 H 0.53875 1.00583 0.59001 0.0
C1223 C 0.54744 1.02547 0.45265 0.0
H1224 H 0.58925 0.02786 0.55214 0.0
C1225 C 0.51883 1.0133 0.4743 0.0
C1226 C 0.51569 1.00659 0.52394 0.0
H1227 H 0.54975 0.03133 0.41448 0.0
H1228 H 0.49929 1.00932 0.45232 0.0
C1229 C 0.54103 1.01141 0.55173 0.0
C1230 C 0.57142 0.04012 0.01458 0.0
C1231 C 0.55224 1.00976 0.02871 0.0
H1232 H 0.57486 0.07818 0.97535 0.0
C1233 C 0.52158 0.9937 0.01345 0.0
H1234 H 0.59527 0.05263 0.02569 0.0
C1235 C 0.51006 1.00807 0.98428 0.0
C1236 C 0.52916 0.03854 0.97064 0.0
H1237 H 0.5066 0.97005 0.02376 0.0
H1238 H 0.48617 0.99561 0.97337 0.0
C1239 C 0.5599 0.0545 0.98549 0.0
C1240 C 1.02875 0.50162 0.03903 0.0
C1241 C 1.02271 0.49825 0.98924 0.0
H1242 H 0.04674 0.53269 0.09814 0.0
C1243 C 1.029 0.52356 0.9603 0.0
H1244 H 1.0237 0.48215 0.0619 0.0
C1245 C 1.04191 0.55232 0.98103 0.0
C1246 C 0.04845 0.55573 0.03068 0.0
H1247 H 1.02404 0.52115 0.92184 0.0
H1248 H 0.04727 0.57186 0.95815 0.0
C1249 C 1.04156 0.53032 0.05975 0.0
C1250 C 0.51784 0.50141 0.98841 0.0
C1251 C 0.51459 0.50733 0.03698 0.0
H1252 H 0.54792 0.51375 0.92739 0.0
C1253 C 0.53947 0.53075 0.06185 0.0
H1254 H 0.49873 0.48364 0.96848 0.0
C1255 C 0.5674 0.5482 0.03823 0.0
C1256 C 0.57059 0.54236 0.98959 0.0
H1257 H 0.53721 0.53593 0.0992 0.0
H1258 H 0.58652 0.56599 0.0581 0.0
C1259 C 0.54571 0.51891 0.96477 0.0
C1260 C 0.34293 0.28459 0.90552 0.0
C1261 C 0.34862 0.28648 0.95535 0.0
H1262 H 0.36257 0.29389 0.83422 0.0
C1263 C 0.37939 0.30354 0.97148 0.0
H1264 H 0.31965 0.27168 0.89198 0.0
C1265 C 0.40404 0.31661 0.93859 0.0
C1266 C 0.39844 0.31245 0.88879 0.0
H1267 H 0.3845 0.30569 0.00989 0.0
H1268 H 0.42737 0.32808 0.95217 0.0
C1269 C 0.3676 0.29722 0.87261 0.0
C1270 C 0.78032 0.06687 0.90869 0.0
C1271 C 0.77863 0.07038 0.95863 0.0
H1272 H 0.77172 0.07841 0.83784 0.0
C1273 C 0.76276 0.08525 0.97541 0.0
H1274 H 0.79243 0.05573 0.89464 0.0
C1275 C 0.75063 0.09811 0.94304 0.0
C1276 C 0.75462 0.09686 0.8931 0.0
H1277 H 0.76092 0.08814 0.01394 0.0
H1278 H 0.73999 0.11068 0.95712 0.0
C1279 C 0.76864 0.08016 0.87633 0.0
C1280 C 0.94523 0.67072 0.93126 0.0
C1281 C 0.96456 0.66215 0.90778 0.0
H1282 H 0.94101 0.70256 0.97639 0.0
C1283 C 0.99662 0.68085 0.91374 0.0
H1284 H 0.92057 0.65754 0.9261 0.0
C1285 C 1.00881 0.70762 0.94259 0.0
C1286 C 0.98911 0.71618 0.96564 0.0
H1287 H 1.01222 0.67556 0.8945 0.0
H1288 H 1.03346 0.72146 0.94689 0.0
C1289 C 0.95717 0.69703 0.95959 0.0
C1290 C 0.27998 0.33927 0.5913 0.0
C1291 C 0.29962 0.33081 0.56857 0.0
H1292 H 0.27518 0.3708 0.63632 0.0
C1293 C 0.33157 0.34934 0.57582 0.0
H1294 H 0.25539 0.32616 0.58531 0.0
C1295 C 0.34337 0.37581 0.60523 0.0
C1296 C 0.32337 0.38425 0.62752 0.0
H1297 H 0.34745 0.34412 0.55737 0.0
H1298 H 0.36793 0.38947 0.61068 0.0
C1299 C 0.29154 0.36534 0.62009 0.0
C1300 C 0.70082 0.93079 0.60534 0.0
C1301 C 0.684 0.94554 0.61624 0.0
H1302 H 0.73945 0.93251 0.56992 0.0
C1303 C 0.69517 0.97556 0.59859 0.0
H1304 H 0.69328 0.90784 0.61846 0.0
C1305 C 0.72248 0.99012 0.57044 0.0
C1306 C 0.73908 0.97494 0.56005 0.0
H1307 H 0.68322 0.98789 0.6072 0.0
H1308 H 0.73 1.01267 0.55562 0.0
C1309 C 0.72776 0.94519 0.57811 0.0
C1310 C 0.10151 0.7462 0.54606 0.0
C1311 C 0.08843 0.76356 0.56356 0.0
H1312 H 0.12506 0.72139 0.56323 0.0
C1313 C 0.08551 0.76548 0.61362 0.0
H1314 H 0.10389 0.74419 0.50742 0.0
C1315 C 0.09792 0.75262 0.6454 0.0
C1316 C 0.11307 0.73722 0.62783 0.0
H1317 H 0.07572 0.77872 0.62813 0.0
H1318 H 0.09706 0.75609 0.68397 0.0
C1319 C 0.1135 0.73294 0.57785 0.0
C1320 C 0.69215 0.77242 0.10847 0.0
C1321 C 0.68015 0.7423 0.12533 0.0
H1322 H 0.72702 0.80978 0.06856 0.0
C1323 C 0.69602 0.72658 0.11364 0.0
H1324 H 0.68098 0.78547 0.11752 0.0
C1325 C 0.72326 0.74095 0.08532 0.0
C1326 C 0.73503 0.77127 0.06873 0.0
H1327 H 0.68793 0.70369 0.12743 0.0
H1328 H 0.7346 0.7282 0.07562 0.0
C1329 C 0.71899 0.78659 0.08099 0.0
C1330 C 0.27798 0.94797 0.08503 0.0
C1331 C 0.29778 0.97614 0.06306 0.0
H1332 H 0.27294 0.91078 0.12836 0.0
C1333 C 0.32972 0.98865 0.06964 0.0
H1334 H 0.25338 0.93715 0.07934 0.0
C1335 C 0.34134 0.97312 0.09793 0.0
C1336 C 0.32117 0.94466 0.11948 0.0
H1337 H 0.3457 1.0097 0.05154 0.0
H1338 H 0.36589 0.98344 0.10316 0.0
C1339 C 0.28938 0.93254 0.11246 0.0
C1340 C 0.09761 0.35179 0.14652 0.0
C1341 C 0.11027 0.38228 0.12974 0.0
H1342 H 0.07641 0.30404 0.12822 0.0
C1343 C 0.10713 0.38705 0.08052 0.0
H1344 H 0.09926 0.3472 0.18445 0.0
C1345 C 0.09409 0.36215 0.04839 0.0
C1346 C 0.08327 0.33187 0.0648 0.0
H1347 H 0.11651 0.41004 0.06635 0.0
H1348 H 0.09385 0.3667 0.01004 0.0
C1349 C 0.08412 0.32688 0.11452 0.0
C1350 C 0.7688 0.68253 0.48263 0.0
C1351 C 0.778 0.71283 0.468 0.0
H1352 H 0.74966 0.6354 0.46181 0.0
C1353 C 0.77063 0.7175 0.42087 0.0
H1354 H 0.77368 0.67791 0.51893 0.0
C1355 C 0.75682 0.69292 0.38818 0.0
C1356 C 0.74929 0.66299 0.40215 0.0
H1357 H 0.77723 0.74034 0.40835 0.0
H1358 H 0.75345 0.69757 0.35099 0.0
C1359 C 0.75454 0.65793 0.45021 0.0
C1360 C 0.34574 0.06805 0.40561 0.0
C1361 C 0.35125 0.07005 0.45548 0.0
H1362 H 0.36548 0.08074 0.33466 0.0
C1363 C 0.382 0.08344 0.47171 0.0
H1364 H 0.32248 0.05813 0.39202 0.0
C1365 C 0.40678 0.0963 0.43899 0.0
C1366 C 0.40132 0.09659 0.38933 0.0
H1367 H 0.38692 0.0852 0.51017 0.0
H1368 H 0.43007 0.10767 0.45276 0.0
C1369 C 0.37051 0.08136 0.37295 0.0
C1370 C 1.00843 0.30714 0.43288 0.0
C1371 C 0.98863 0.27856 0.45449 0.0
H1372 H 1.01209 0.34344 0.38632 0.0
C1373 C 0.95678 0.26596 0.44743 0.0
H1374 H 1.03302 0.31783 0.4381 0.0
C1375 C 0.94497 0.28099 0.41989 0.0
C1376 C 0.96439 0.30923 0.39778 0.0
H1377 H 0.94058 0.24411 0.46332 0.0
H1378 H 0.92035 0.26979 0.41424 0.0
C1379 C 0.99639 0.32228 0.40447 0.0
C1380 C 0.07307 0.64911 0.27617 0.0
C1381 C 0.06748 0.64795 0.22639 0.0
H1382 H 0.05346 0.63537 0.347 0.0
C1383 C 1.03673 0.63488 0.21037 0.0
H1384 H 0.09634 0.65872 0.28956 0.0
C1385 C 1.012 0.62156 0.24314 0.0
C1386 C 1.01753 0.62046 0.2926 0.0
H1387 H 1.03176 0.63372 0.17197 0.0
H1388 H 0.98869 0.61053 0.22949 0.0
C1389 C 0.04836 0.63534 0.30885 0.0
C1390 C 0.47197 0.43989 0.27373 0.0
C1391 C 0.45425 0.40952 0.28973 0.0
H1392 H 0.47394 0.47748 0.23521 0.0
C1393 C 0.42276 0.39355 0.27757 0.0
H1394 H 0.49611 0.45315 0.28303 0.0
C1395 C 0.40963 0.40793 0.24978 0.0
C1396 C 0.42779 0.43853 0.23419 0.0
H1397 H 0.4082 0.37044 0.29053 0.0
H1398 H 0.38566 0.39498 0.23967 0.0
C1399 C 0.45905 0.45409 0.2469 0.0
C1400 C 0.66356 1.02356 0.29955 0.0
C1401 C 0.66944 0.05293 0.28519 0.0
H1402 H 0.64375 0.97589 0.28094 0.0
C1403 C 0.66182 0.05681 0.23795 0.0
H1404 H 0.66869 1.0198 0.33625 0.0
C1405 C 0.6469 0.03161 0.20691 0.0
C1406 C 0.63932 1.00181 0.22206 0.0
H1407 H 0.6653 0.07884 0.22621 0.0
H1408 H 0.64019 0.03534 0.17135 0.0
C1409 C 0.64906 0.99832 0.26811 0.0
C1410 C 0.4091 0.99955 0.76207 0.0
C1411 C 0.42044 1.00388 0.71454 0.0
H1412 H 0.41271 1.02014 0.83162 0.0
C1413 C 0.44051 0.03416 0.69865 0.0
H1414 H 0.39364 0.97674 0.77553 0.0
C1415 C 0.45094 0.05909 0.73038 0.0
C1416 C 0.44164 0.0544 0.77893 0.0
H1417 H 0.44939 0.03852 0.66195 0.0
H1418 H 0.46812 0.08158 0.71791 0.0
C1419 C 0.41987 1.02451 0.79402 0.0
C1420 C 1.03811 0.41126 0.71595 0.0
C1421 C 0.06857 0.42991 0.73235 0.0
H1422 H 0.99005 0.38557 0.73452 0.0
C1423 C 0.07382 0.43386 0.78227 0.0
H1424 H 1.03339 0.40782 0.67747 0.0
C1425 C 0.0489 0.42145 0.81476 0.0
C1426 C 1.01824 0.40443 0.79816 0.0
H1427 H 0.09686 0.44822 0.79595 0.0
H1428 H 0.05357 0.42634 0.853 0.0
C1429 C 1.01322 0.39838 0.74851 0.0
C1430 C 0.63485 0.64875 0.77626 0.0
C1431 C 0.63815 0.64658 0.72639 0.0
H1432 H 0.6418 0.63587 0.84712 0.0
C1433 C 0.65504 0.6327 0.70996 0.0
H1434 H 0.62186 0.65906 0.78995 0.0
C1435 C 0.6667 0.61952 0.74254 0.0
C1436 C 0.66112 0.61941 0.79221 0.0
H1437 H 0.65803 0.63083 0.67147 0.0
H1438 H 0.67825 0.60779 0.72866 0.0
C1439 C 0.64604 0.63513 0.80879 0.0
C1440 C 0.2273 0.23944 0.27786 0.0
C1441 C 0.24167 0.22982 0.31241 0.0
H1442 H 0.22057 0.24574 0.20273 0.0
C1443 C 0.25711 0.21487 0.29559 0.0
H1444 H 0.21484 0.25081 0.28919 0.0
C1445 C 0.25995 0.21161 0.24561 0.0
C1446 C 0.24771 0.2235 0.21107 0.0
H1447 H 0.26843 0.20718 0.32079 0.0
H1448 H 0.27327 0.20117 0.23417 0.0
C1449 C 0.23046 0.23653 0.22796 0.0
C1450 C 0.83577 1.00231 0.2242 0.0
C1451 C 0.84783 0.03241 0.20766 0.0
H1452 H 0.82323 0.9724 0.28533 0.0
C1453 C 0.8607 0.05627 0.24219 0.0
H1454 H 0.82586 0.98342 0.19897 0.0
C1455 C 0.85876 0.05005 0.29204 0.0
C1456 C 0.84429 1.01982 0.30876 0.0
H1457 H 0.87068 0.07993 0.23103 0.0
H1458 H 0.86689 0.06885 0.31736 0.0
C1459 C 0.83423 0.99612 0.27405 0.0
C1460 C 1.01867 0.8222 0.24198 0.0
C1461 C 1.04178 0.82866 0.20693 0.0
H1462 H 1.0062 0.81689 0.31737 0.0
C1463 C 0.07192 0.83966 0.2232 0.0
H1464 H 0.99509 0.81393 0.23107 0.0
C1465 C 0.07826 0.8418 0.27306 0.0
C1466 C 0.0546 0.83264 0.30807 0.0
H1467 H 0.09027 0.84485 0.19763 0.0
H1468 H 0.10161 0.84896 0.28396 0.0
C1469 C 1.02492 0.82391 0.29179 0.0
C1470 C 0.82849 0.83709 0.72544 0.0
C1471 C 0.84532 0.82341 0.70937 0.0
H1472 H 0.81048 0.84945 0.78602 0.0
C1473 C 0.86039 0.815 0.74455 0.0
H1474 H 0.81663 0.84387 0.69976 0.0
C1475 C 0.85648 0.81765 0.79432 0.0
C1476 C 0.83778 0.82922 0.81041 0.0
H1477 H 0.87391 0.80463 0.73382 0.0
H1478 H 0.86685 0.80919 0.82003 0.0
C1479 C 0.82493 0.84012 0.77524 0.0
C1480 C 0.22545 0.99643 0.77312 0.0
C1481 C 0.23897 1.02017 0.80776 0.0
H1482 H 0.2204 0.98382 0.69797 0.0
C1483 C 0.25361 0.05042 0.79108 0.0
H1484 H 0.21354 0.9727 0.7844 0.0
C1485 C 0.25701 0.05669 0.7412 0.0
C1486 C 0.24622 0.03287 0.70661 0.0
H1487 H 0.26411 0.06924 0.81637 0.0
H1488 H 0.26991 0.0804 0.72995 0.0
C1489 C 0.22919 1.00269 0.72323 0.0
C1490 C 0.06695 0.23759 0.72693 0.0
C1491 C 1.03661 0.22221 0.71013 0.0
H1492 H 0.09682 0.25465 0.78805 0.0
C1493 C 1.01266 0.20873 0.74482 0.0
H1494 H 0.08595 0.24819 0.70161 0.0
C1495 C 1.01876 0.21277 0.79475 0.0
C1496 C 0.04901 0.23017 0.81145 0.0
H1497 H 0.98886 0.19644 0.73348 0.0
H1498 H 0.99968 0.20373 0.82 0.0
C1499 C 0.07306 0.24136 0.77683 0.0
C1500 C 0.89424 0.57727 0.61058 0.0
C1501 C 0.90538 0.56449 0.64539 0.0
H1502 H 0.89031 0.5858 0.53527 0.0
C1503 C 0.91764 0.54649 0.62881 0.0
H1504 H 0.88443 0.59119 0.62175 0.0
C1505 C 0.92065 0.54317 0.57893 0.0
C1506 C 0.91176 0.55798 0.54416 0.0
H1507 H 0.92642 0.53628 0.65425 0.0
H1508 H 0.93155 0.53023 0.56779 0.0
C1509 C 0.8975 0.57417 0.56069 0.0
C1510 C 0.52796 0.38781 0.574 0.0
C1511 C 0.51493 0.36384 0.53962 0.0
H1512 H 0.53204 0.40082 0.64891 0.0
C1513 C 0.50048 0.33371 0.55667 0.0
H1514 H 0.53974 0.41149 0.56245 0.0
C1515 C 0.49677 0.32774 0.60658 0.0
C1516 C 0.50688 0.35173 0.64079 0.0
H1517 H 0.49043 0.31474 0.5316 0.0
H1518 H 0.48408 0.30406 0.61805 0.0
C1519 C 0.52377 0.38184 0.62392 0.0
C1520 C 0.67809 0.14295 0.57429 0.0
C1521 C 0.70214 0.15417 0.53969 0.0
H1522 H 0.66525 0.13632 0.64951 0.0
C1523 C 0.73236 0.17202 0.55628 0.0
H1524 H 0.65435 0.12935 0.56311 0.0
C1525 C 0.73847 0.17636 0.60618 0.0
C1526 C 0.71457 0.16275 0.64091 0.0
H1527 H 0.75143 0.18114 0.53102 0.0
H1528 H 0.76226 0.18892 0.6175 0.0
C1529 C 0.68422 0.14705 0.62416 0.0
C1530 C 0.52027 0.14214 0.1201 0.0
C1531 C 0.50672 0.15889 0.13708 0.0
H1532 H 0.53244 0.12466 0.05863 0.0
C1533 C 0.4984 0.17436 0.10265 0.0
H1534 H 0.52705 0.13002 0.14524 0.0
C1535 C 0.50114 0.17108 0.05266 0.0
C1536 C 0.51249 0.15239 0.03559 0.0
H1537 H 0.4881 0.18778 0.11417 0.0
H1538 H 0.4927 0.18176 0.02754 0.0
C1539 C 0.52323 0.13904 0.07011 0.0
C1540 C 0.91542 0.38139 0.12554 0.0
C1541 C 0.90358 0.35138 0.14233 0.0
H1542 H 0.92797 0.41114 0.06424 0.0
C1543 C 0.89141 0.32745 0.10784 0.0
H1544 H 0.92477 0.40033 0.1507 0.0
C1545 C 0.8937 0.33356 0.05791 0.0
C1546 C 0.90781 0.36374 0.04103 0.0
H1547 H 0.88167 0.30384 0.11914 0.0
H1548 H 0.88609 0.31475 0.03271 0.0
C1549 C 0.91726 0.38746 0.07562 0.0
C1550 C 0.74027 0.57683 0.10945 0.0
C1551 C 0.71641 0.56495 0.14439 0.0
H1552 H 0.75267 0.58379 0.03407 0.0
C1553 C 0.68615 0.54676 0.12815 0.0
H1554 H 0.76402 0.59075 0.12034 0.0
C1555 C 0.67978 0.54247 0.07833 0.0
C1556 C 0.70345 0.55648 0.04334 0.0
H1557 H 0.66723 0.53716 0.15368 0.0
H1558 H 0.65596 0.52949 0.06731 0.0
C1559 C 0.73387 0.57277 0.05967 0.0
C1560 C 0.59354 0.87712 0.90883 0.0
C1561 C 0.58089 0.88821 0.87356 0.0
H1562 H 0.60271 0.87435 0.98433 0.0
C1563 C 0.5631 0.90081 0.88964 0.0
H1564 H 0.60726 0.86698 0.89803 0.0
C1565 C 0.56014 0.90449 0.93933 0.0
C1566 C 0.57523 0.8961 0.97446 0.0
H1567 H 0.55287 0.90939 0.86389 0.0
H1568 H 0.54738 0.91569 0.95003 0.0
C1569 C 0.59085 0.88113 0.95863 0.0
C1570 C 0.16206 0.66165 0.94051 0.0
C1571 C 0.17289 0.68542 0.97518 0.0
H1572 H 0.15545 0.64925 0.86527 0.0
C1573 C 0.19046 0.7156 0.95876 0.0
H1574 H 0.14876 0.63795 0.9516 0.0
C1575 C 0.19473 0.72194 0.90893 0.0
C1576 C 0.18121 0.69829 0.87413 0.0
H1577 H 0.1993 0.73443 0.98411 0.0
H1578 H 0.20705 0.74569 0.89776 0.0
C1579 C 0.166 0.66801 0.89068 0.0
C1580 C 0.40865 0.50758 0.94051 0.0
C1581 C 0.38454 0.49699 0.97502 0.0
H1582 H 0.42156 0.51177 0.86535 0.0
C1583 C 0.35464 0.48642 0.95806 0.0
H1584 H 0.43218 0.51613 0.95194 0.0
C1585 C 0.34877 0.48457 0.90809 0.0
C1586 C 0.37254 0.4927 0.87353 0.0
H1587 H 0.33557 0.47825 0.98322 0.0
H1588 H 0.3251 0.47502 0.8967 0.0
C1589 C 0.40272 0.50527 0.8905 0.0
C1590 C 0.18957 0.48699 0.45768 0.0
C1591 C 0.16975 0.49714 0.4742 0.0
H1592 H 0.20798 0.4754 0.39673 0.0
C1593 C 0.15605 0.50731 0.43932 0.0
H1594 H 0.20066 0.47917 0.48313 0.0
C1595 C 0.15987 0.50481 0.38939 0.0
C1596 C 0.17773 0.49233 0.37292 0.0
H1597 H 0.14076 0.51557 0.45041 0.0
H1598 H 0.14725 0.5108 0.36394 0.0
C1599 C 0.19366 0.48482 0.40781 0.0
C1600 C 0.55929 0.66599 0.39108 0.0
C1601 C 0.57315 0.69618 0.37432 0.0
H1602 H 0.54806 0.63625 0.45211 0.0
C1603 C 0.58271 0.71987 0.40894 0.0
H1604 H 0.55154 0.6472 0.36579 0.0
C1605 C 0.58137 0.71377 0.45878 0.0
C1606 C 0.57001 0.68377 0.47535 0.0
H1607 H 0.5932 0.74354 0.3976 0.0
H1608 H 0.59091 0.73269 0.48397 0.0
C1609 C 0.55753 0.65985 0.44091 0.0
C1610 C 0.35 0.87727 0.46023 0.0
C1611 C 0.38052 0.89144 0.47613 0.0
H1612 H 0.31953 0.86449 0.3998 0.0
C1613 C 0.40397 0.90005 0.44089 0.0
H1614 H 0.33137 0.87031 0.48598 0.0
C1615 C 0.39734 0.89729 0.39116 0.0
C1616 C 0.36703 0.8854 0.37523 0.0
H1617 H 0.42787 0.91077 0.45154 0.0
H1618 H 0.41612 0.90601 0.36538 0.0
C1619 C 0.34333 0.87412 0.41047 0.0
C1620 C 0.32912 0.33923 0.05427 0.0
C1621 C 0.32246 0.3262 0.10105 0.0
H1622 H 0.35228 0.38034 0.01194 0.0
C1623 C 0.33064 0.34535 0.14143 0.0
H1624 H 0.32303 0.32504 0.02232 0.0
C1625 C 0.34657 0.37704 0.13523 0.0
C1626 C 0.35547 0.39002 0.08864 0.0
H1627 H 0.32565 0.33584 0.17774 0.0
H1628 H 0.35335 0.39124 0.16718 0.0
C1629 C 0.3459 0.37089 0.04816 0.0
C1630 C 0.6949 0.98824 0.03959 0.0
C1631 C 0.675 0.97246 0.078 0.0
H1632 H 0.74103 1.0172 0.01735 0.0
C1633 C 0.68719 0.96915 0.12195 0.0
H1634 H 0.68597 0.99115 1.00542 0.0
C1635 C 0.71902 0.98494 0.12924 0.0
C1636 C 0.73882 1.003 0.092 0.0
H1637 H 0.6723 0.95706 0.15214 0.0
H1638 H 0.72799 0.9849 0.16495 0.0
C1639 C 0.72658 1.00313 0.04641 0.0
C1640 C 0.06629 0.73127 0.14507 0.0
C1641 C 0.06104 0.74624 0.10655 0.0
H1642 H 0.08466 0.70318 0.16716 0.0
C1643 C 0.07523 0.74857 0.06165 0.0
H1644 H 0.05553 0.7292 0.18001 0.0
C1645 C 0.09121 0.73274 0.05385 0.0
C1646 C 0.09432 0.71571 0.09149 0.0
H1647 H 0.0716 0.76007 0.03139 0.0
H1648 H 0.0992 0.73201 0.01765 0.0
C1649 C 0.08317 0.71647 0.13775 0.0
C1650 C 0.39678 0.32943 0.38836 0.0
C1651 C 0.40941 0.33783 0.43487 0.0
H1652 H 0.35562 0.31107 0.34597 0.0
C1653 C 0.39 0.32747 0.47542 0.0
H1654 H 0.41122 0.33721 0.35657 0.0
C1655 C 0.35817 0.31107 0.46936 0.0
C1656 C 0.34557 0.30629 0.42273 0.0
H1657 H 0.39936 0.33389 0.51162 0.0
H1658 H 0.34367 0.3051 0.50105 0.0
C1659 C 0.36496 0.31437 0.38227 0.0
C1660 C 0.75609 0.05625 0.37376 0.0
C1661 C 0.76698 0.04745 0.41394 0.0
H1662 H 0.73052 0.07703 0.34903 0.0
C1663 C 0.76511 0.05788 0.46018 0.0
H1664 H 0.75715 0.04821 0.33782 0.0
C1665 C 0.74877 0.07339 0.46684 0.0
C1666 C 0.73544 0.07975 0.42706 0.0
H1667 H 0.77318 0.05122 0.49173 0.0
H1668 H 0.74442 0.07816 0.50335 0.0
C1669 C 0.74089 0.07283 0.38021 0.0
C1670 C 1.01117 0.70452 0.38152 0.0
C1671 C 1.02164 0.72397 0.4216 0.0
H1672 H 0.9876 0.65845 0.35658 0.0
C1673 C 1.01365 0.71129 0.46855 0.0
H1674 H 1.01688 0.7137 0.34506 0.0
C1675 C 0.99769 0.67965 0.47534 0.0
C1676 C 0.98865 0.66017 0.4353 0.0
H1677 H 1.02122 0.72565 0.50031 0.0
H1678 H 0.99343 0.67043 0.51184 0.0
C1679 C 0.99441 0.67288 0.38829 0.0
C1680 C 0.74061 0.67788 0.97613 0.0
C1681 C 0.72995 0.65873 0.93566 0.0
H1682 H 0.76317 0.72379 1.00209 0.0
C1683 C 0.73644 0.67186 0.88896 0.0
H1684 H 0.736 0.66834 0.01241 0.0
C1685 C 0.75111 0.70356 0.88299 0.0
C1686 C 0.7603 0.72268 0.92354 0.0
H1687 H 0.72861 0.6577 0.85694 0.0
H1688 H 0.75428 0.71306 0.84678 0.0
C1689 C 0.75608 0.70962 0.97009 0.0
C1690 C 0.35699 0.05552 0.96649 0.0
C1691 C 0.34468 0.04894 0.91959 0.0
H1692 H 0.39799 0.07272 0.00915 0.0
C1693 C 0.36424 0.06151 0.87962 0.0
H1694 H 0.34234 0.04601 0.99781 0.0
C1695 C 0.39598 0.07819 0.88626 0.0
C1696 C 0.40846 0.08112 0.93274 0.0
H1697 H 0.35513 0.05646 0.84312 0.0
H1698 H 0.4105 0.08564 0.8546 0.0
C1699 C 0.38881 0.07093 0.97301 0.0
C1700 C 0.98525 0.32482 0.89602 0.0
C1701 C 0.98613 0.33791 0.94122 0.0
H1702 H 1.00351 0.30216 0.85282 0.0
C1703 C 0.99956 0.33155 0.98075 0.0
H1704 H 0.97499 0.32936 0.86499 0.0
C1705 C 1.01464 0.31489 0.97421 0.0
C1706 C 1.01726 0.30521 0.92778 0.0
H1707 H 1.00053 0.34153 0.0159 0.0
H1708 H 1.02695 0.31265 1.0045 0.0
C1709 C 1.00141 0.30911 0.88908 0.0
C1710 C 0.72325 0.7265 0.64646 0.0
C1711 C 0.7436 0.74313 0.60899 0.0
H1712 H 0.67682 0.69755 0.66727 0.0
C1713 C 0.73193 0.74763 0.56537 0.0
H1714 H 0.73175 0.72275 0.68042 0.0
C1715 C 0.70014 0.73234 0.55735 0.0
C1716 C 0.67987 0.7136 0.59363 0.0
H1717 H 0.74716 0.76052 0.53597 0.0
H1718 H 0.69156 0.73337 0.52176 0.0
C1719 C 0.69165 0.71215 0.63899 0.0
C1720 C 0.34977 0.98533 0.53652 0.0
C1721 C 0.35525 0.97067 0.57523 0.0
H1722 H 0.33205 1.01393 0.5144 0.0
C1723 C 0.34155 0.96892 0.62038 0.0
H1724 H 0.36019 0.98698 0.5014 0.0
C1725 C 0.32623 0.98538 0.6283 0.0
C1726 C 0.32326 1.00239 0.59052 0.0
H1727 H 0.34522 0.95756 0.65074 0.0
H1728 H 0.31874 0.98662 0.66463 0.0
C1729 C 0.33353 1.00075 0.54399 0.0
C1730 C 0.08678 0.37641 0.63354 0.0
C1731 C 0.09325 0.38973 0.58698 0.0
H1732 H 0.06413 0.33499 0.67527 0.0
C1733 C 0.08504 0.37083 0.54628 0.0
H1734 H 0.09284 0.39036 0.66574 0.0
C1735 C 0.06932 0.3391 0.55195 0.0
C1736 C 0.06076 0.3258 0.59839 0.0
H1737 H 0.08984 0.38055 0.51011 0.0
H1738 H 0.06249 0.32512 0.51976 0.0
C1739 C 0.07029 0.34469 0.63917 0.0
C1740 C 1.02628 0.64215 0.80241 0.0
C1741 C 1.01276 0.63728 0.75629 0.0
H1742 H 0.06785 0.66567 0.84343 0.0
C1743 C 1.03161 0.64695 0.71505 0.0
H1744 H 1.01233 0.63469 0.83489 0.0
C1745 C 0.06352 0.66368 0.7201 0.0
C1746 C 0.07673 0.67145 0.76639 0.0
H1747 H 1.02166 0.64329 0.67916 0.0
H1748 H 0.0774 0.67276 0.6879 0.0
C1749 C 0.05804 0.6597 0.80742 0.0
C1750 C 0.42292 0.39693 0.71673 0.0
C1751 C 0.42621 0.38012 0.75455 0.0
H1752 H 0.40342 0.42432 0.69417 0.0
C1753 C 0.41535 0.38123 0.80088 0.0
H1754 H 0.43071 0.39597 0.68049 0.0
C1755 C 0.39864 0.39622 0.80821 0.0
C1756 C 0.39332 0.41106 0.76962 0.0
H1757 H 0.41698 0.36816 0.83048 0.0
H1758 H 0.38812 0.39443 0.84327 0.0
C1759 C 0.40714 0.41297 0.72452 0.0
C1760 C 0.67585 0.03826 0.70881 0.0
C1761 C 0.68657 0.05741 0.74927 0.0
H1762 H 0.654 0.99242 0.68269 0.0
C1763 C 0.68087 0.04424 0.79593 0.0
H1764 H 0.67988 0.04781 0.67255 0.0
C1765 C 0.66696 1.01258 0.80178 0.0
C1766 C 0.65774 0.99352 0.76117 0.0
H1767 H 0.68878 0.0584 0.82795 0.0
H1768 H 0.66438 1.0031 0.8379 0.0
C1769 C 0.66114 1.00655 0.71475 0.0
C1770 C 0.42002 0.03662 0.20692 0.0
C1771 C 0.42919 0.05624 0.24681 0.0
H1772 H 0.39609 0.99048 0.18235 0.0
C1773 C 0.42299 0.04365 0.29391 0.0
H1774 H 0.42459 0.04573 0.17036 0.0
C1775 C 0.40578 1.01206 0.30089 0.0
C1776 C 0.39527 0.99249 0.26094 0.0
H1777 H 0.42987 0.05818 0.32552 0.0
H1778 H 0.39987 1.00301 0.3374 0.0
C1779 C 0.40361 1.00499 0.21395 0.0
C1780 C 1.03015 0.39115 0.21244 0.0
C1781 C 1.01035 0.38022 0.2524 0.0
H1782 H 0.07652 0.41461 0.18799 0.0
C1783 C 1.02234 0.38883 0.29924 0.0
H1784 H 1.02128 0.38456 0.17601 0.0
C1785 C 0.05409 0.40479 0.30626 0.0
C1786 C 0.07401 0.41348 0.26639 0.0
H1787 H 1.00755 0.38062 0.33062 0.0
H1788 H 0.06305 0.40832 0.34285 0.0
C1789 C 0.06183 0.40835 0.21939 0.0
C1790 C 0.6528 0.65841 0.22682 0.0
C1791 C 0.6517 0.66983 0.2726 0.0
H1792 H 0.67303 0.63747 0.1841 0.0
C1793 C 0.66349 0.66211 0.31288 0.0
H1794 H 0.64401 0.66423 0.1952 0.0
C1795 C 0.67888 0.64569 0.3068 0.0
C1796 C 0.6835 0.63776 0.26017 0.0
H1797 H 0.66299 0.67089 0.34846 0.0
H1798 H 0.69003 0.6424 0.33785 0.0
C1799 C 0.66927 0.64301 0.22046 0.0
loop_
_geom_bond_atom_site_label_1
_geom_bond_atom_site_label_2
_geom_bond_distance
_geom_bond_site_symmetry_2
_ccdc_geom_bond_type
Tb0 O3 2.453 . S
Tb0 O4 2.596 . S
Tb0 O5 2.374 . S
Tb0 O13 2.343 . S
Tb0 O15 2.353 . S
Tb0 O17 2.427 . S
Tb0 O18 2.513 . S
C1 O5 1.251 . S
C1 O7 1.263 . S
Tb2 O4 2.343 . S
Tb2 O7 2.353 . S
Tb2 O10 2.427 . S
Tb2 O11 2.513 1_554 S
Tb2 O12 2.453 . S
Tb2 O13 2.596 . S
Tb2 O14 2.374 1_554 S
O3 Tb0 2.453 . S
O3 C19 1.245 . S
O4 Tb0 2.596 . S
O4 Tb2 2.343 . S
O4 C19 1.259 . S
O5 Tb0 2.374 . S
O5 C1 1.251 . S
C6 O10 1.275 . S
C6 O11 1.246 1_554 S
O7 C1 1.263 . S
O7 Tb2 2.353 . S
C8 O12 1.245 . S
C8 O13 1.259 . S
C9 O14 1.250 . S
C9 O15 1.263 1_556 S
O10 Tb2 2.427 . S
O10 C6 1.275 . S
O11 Tb2 2.513 1_556 S
O11 C6 1.246 1_556 S
O12 Tb2 2.453 . S
O12 C8 1.245 . S
O13 Tb0 2.343 . S
O13 Tb2 2.596 . S
O13 C8 1.259 . S
O14 Tb2 2.374 1_556 S
O14 C9 1.250 . S
O15 Tb0 2.353 . S
O15 C9 1.263 1_554 S
C16 O17 1.275 . S
C16 O18 1.246 . S
O17 Tb0 2.427 . S
O17 C16 1.275 . S
O18 Tb0 2.513 . S
O18 C16 1.246 . S
C19 O3 1.245 . S
C19 O4 1.259 . S
Tb20 O23 2.453 . S
Tb20 O24 2.596 . S
Tb20 O25 2.374 . S
Tb20 O33 2.343 . S
Tb20 O35 2.353 . S
Tb20 O37 2.427 . S
Tb20 O38 2.513 . S
C21 O25 1.251 . S
C21 O27 1.263 . S
Tb22 O24 2.343 . S
Tb22 O27 2.353 . S
Tb22 O30 2.427 1_545 S
Tb22 O31 2.513 1_544 S
Tb22 O32 2.453 . S
Tb22 O33 2.596 . S
Tb22 O34 2.374 1_554 S
O23 Tb20 2.453 . S
O23 C39 1.262 . S
O24 Tb20 2.596 . S
O24 Tb22 2.343 . S
O24 C39 1.256 . S
O25 Tb20 2.374 . S
O25 C21 1.251 . S
C26 O30 1.275 . S
C26 O31 1.246 1_554 S
O27 C21 1.263 . S
O27 Tb22 2.353 . S
C28 O32 1.245 . S
C28 O33 1.259 . S
C29 O34 1.250 . S
C29 O35 1.263 1_556 S
O30 Tb22 2.427 1_565 S
O30 C26 1.275 . S
O31 Tb22 2.513 1_566 S
O31 C26 1.246 1_556 S
O32 Tb22 2.453 . S
O32 C28 1.245 . S
O33 Tb20 2.343 . S
O33 Tb22 2.596 . S
O33 C28 1.259 . S
O34 Tb22 2.374 1_556 S
O34 C29 1.250 . S
O35 Tb20 2.353 . S
O35 C29 1.263 1_554 S
C36 O37 1.275 . S
C36 O38 1.246 . S
O37 Tb20 2.427 . S
O37 C36 1.275 . S
O38 Tb20 2.513 . S
O38 C36 1.246 . S
C39 O23 1.262 . S
C39 O24 1.256 . S
Tb40 O43 2.453 . S
Tb40 O44 2.596 . S
Tb40 O45 2.374 . S
Tb40 O53 2.343 . S
Tb40 O55 2.353 . S
Tb40 O57 2.427 . S
Tb40 O58 2.513 . S
C41 O45 1.251 . S
C41 O47 1.263 . S
Tb42 O44 2.343 . S
Tb42 O47 2.353 . S
Tb42 O50 2.427 1_655 S
Tb42 O51 2.513 1_654 S
Tb42 O52 2.453 . S
Tb42 O53 2.596 . S
Tb42 O54 2.374 1_554 S
O43 Tb40 2.453 . S
O43 C59 1.249 . S
O44 Tb40 2.596 . S
O44 Tb42 2.343 . S
O44 C59 1.273 . S
O45 Tb40 2.374 . S
O45 C41 1.251 . S
C46 O50 1.275 . S
C46 O51 1.246 1_554 S
O47 C41 1.263 . S
O47 Tb42 2.353 . S
C48 O52 1.245 . S
C48 O53 1.259 . S
C49 O54 1.250 . S
C49 O55 1.263 1_556 S
O50 Tb42 2.427 1_455 S
O50 C46 1.275 . S
O51 Tb42 2.513 1_456 S
O51 C46 1.246 1_556 S
O52 Tb42 2.453 . S
O52 C48 1.245 . S
O53 Tb40 2.343 . S
O53 Tb42 2.596 . S
O53 C48 1.259 . S
O54 Tb42 2.374 1_556 S
O54 C49 1.250 . S
O55 Tb40 2.353 . S
O55 C49 1.263 1_554 S
C56 O57 1.275 . S
C56 O58 1.246 . S
O57 Tb40 2.427 . S
O57 C56 1.275 . S
O58 Tb40 2.513 . S
O58 C56 1.246 . S
C59 O43 1.249 . S
C59 O44 1.273 . S
Tb60 O63 2.453 . S
Tb60 O64 2.596 . S
Tb60 O65 2.374 . S
Tb60 O73 2.343 . S
Tb60 O75 2.353 . S
Tb60 O77 2.427 . S
Tb60 O78 2.513 . S
C61 O65 1.251 . S
C61 O67 1.263 . S
Tb62 O64 2.343 . S
Tb62 O67 2.353 . S
Tb62 O70 2.427 . S
Tb62 O71 2.513 . S
Tb62 O72 2.453 . S
Tb62 O73 2.596 . S
Tb62 O74 2.374 . S
O63 Tb60 2.453 . S
O63 C79 1.245 . S
O64 Tb60 2.596 . S
O64 Tb62 2.343 . S
O64 C79 1.259 . S
O65 Tb60 2.374 . S
O65 C61 1.251 . S
C66 O70 1.275 . S
C66 O71 1.246 . S
O67 C61 1.263 . S
O67 Tb62 2.353 . S
C68 O72 1.245 . S
C68 O73 1.259 . S
C69 O74 1.250 . S
C69 O75 1.263 . S
O70 Tb62 2.427 . S
O70 C66 1.275 . S
O71 Tb62 2.513 . S
O71 C66 1.246 . S
O72 Tb62 2.453 . S
O72 C68 1.245 . S
O73 Tb60 2.343 . S
O73 Tb62 2.596 . S
O73 C68 1.259 . S
O74 Tb62 2.374 . S
O74 C69 1.250 . S
O75 Tb60 2.353 . S
O75 C69 1.263 . S
C76 O77 1.275 . S
C76 O78 1.246 . S
O77 Tb60 2.427 . S
O77 C76 1.275 . S
O78 Tb60 2.513 . S
O78 C76 1.246 . S
C79 O63 1.245 . S
C79 O64 1.259 . S
Tb80 O83 2.453 . S
Tb80 O84 2.596 . S
Tb80 O85 2.374 . S
Tb80 O93 2.343 . S
Tb80 O95 2.353 . S
Tb80 O97 2.427 . S
Tb80 O98 2.513 . S
C81 O85 1.251 . S
C81 O87 1.263 . S
Tb82 O84 2.343 . S
Tb82 O87 2.353 . S
Tb82 O90 2.427 1_565 S
Tb82 O91 2.513 1_565 S
Tb82 O92 2.453 . S
Tb82 O93 2.596 . S
Tb82 O94 2.374 . S
O83 Tb80 2.453 . S
O83 C99 1.249 . S
O84 Tb80 2.596 . S
O84 Tb82 2.343 . S
O84 C99 1.273 . S
O85 Tb80 2.374 . S
O85 C81 1.251 . S
C86 O90 1.275 . S
C86 O91 1.246 . S
O87 C81 1.263 . S
O87 Tb82 2.353 . S
C88 O92 1.245 . S
C88 O93 1.259 . S
C89 O94 1.250 . S
C89 O95 1.263 . S
O90 Tb82 2.427 1_545 S
O90 C86 1.275 . S
O91 Tb82 2.513 1_545 S
O91 C86 1.246 . S
O92 Tb82 2.453 . S
O92 C88 1.245 . S
O93 Tb80 2.343 . S
O93 Tb82 2.596 . S
O93 C88 1.259 . S
O94 Tb82 2.374 . S
O94 C89 1.250 . S
O95 Tb80 2.353 . S
O95 C89 1.263 . S
C96 O97 1.275 . S
C96 O98 1.246 . S
O97 Tb80 2.427 . S
O97 C96 1.275 . S
O98 Tb80 2.513 . S
O98 C96 1.246 . S
C99 O83 1.249 . S
C99 O84 1.273 . S
Tb100 O103 2.453 . S
Tb100 O104 2.596 . S
Tb100 O105 2.374 . S
Tb100 O113 2.343 . S
Tb100 O115 2.353 . S
Tb100 O117 2.427 . S
Tb100 O118 2.513 . S
C101 O105 1.251 . S
C101 O107 1.263 . S
Tb102 O104 2.343 . S
Tb102 O107 2.353 . S
Tb102 O110 2.427 1_455 S
Tb102 O111 2.513 1_455 S
Tb102 O112 2.453 . S
Tb102 O113 2.596 . S
Tb102 O114 2.374 . S
O103 Tb100 2.453 . S
O103 C119 1.262 . S
O104 Tb100 2.596 . S
O104 Tb102 2.343 . S
O104 C119 1.256 . S
O105 Tb100 2.374 . S
O105 C101 1.251 . S
C106 O110 1.275 . S
C106 O111 1.246 . S
O107 C101 1.263 . S
O107 Tb102 2.353 . S
C108 O112 1.245 . S
C108 O113 1.259 . S
C109 O114 1.250 . S
C109 O115 1.263 . S
O110 Tb102 2.427 1_655 S
O110 C106 1.275 . S
O111 Tb102 2.513 1_655 S
O111 C106 1.246 . S
O112 Tb102 2.453 . S
O112 C108 1.245 . S
O113 Tb100 2.343 . S
O113 Tb102 2.596 . S
O113 C108 1.259 . S
O114 Tb102 2.374 . S
O114 C109 1.250 . S
O115 Tb100 2.353 . S
O115 C109 1.263 . S
C116 O117 1.275 . S
C116 O118 1.246 . S
O117 Tb100 2.427 . S
O117 C116 1.275 . S
O118 Tb100 2.513 . S
O118 C116 1.246 . S
C119 O103 1.262 . S
C119 O104 1.256 . S
Tb120 O123 2.453 . S
Tb120 O124 2.596 . S
Tb120 O125 2.374 1_556 S
Tb120 O133 2.343 . S
Tb120 O135 2.353 . S
Tb120 O137 2.427 . S
Tb120 O138 2.513 1_556 S
C121 O125 1.251 . S
C121 O127 1.263 1_554 S
Tb122 O124 2.343 . S
Tb122 O127 2.353 . S
Tb122 O130 2.427 . S
Tb122 O131 2.513 . S
Tb122 O132 2.453 . S
Tb122 O133 2.596 . S
Tb122 O134 2.374 . S
O123 Tb120 2.453 . S
O123 C139 1.245 . S
O124 Tb120 2.596 . S
O124 Tb122 2.343 . S
O124 C139 1.259 . S
O125 Tb120 2.374 1_554 S
O125 C121 1.251 . S
C126 O130 1.275 . S
C126 O131 1.246 . S
O127 C121 1.263 1_556 S
O127 Tb122 2.353 . S
C128 O132 1.245 . S
C128 O133 1.259 . S
C129 O134 1.250 . S
C129 O135 1.263 . S
O130 Tb122 2.427 . S
O130 C126 1.275 . S
O131 Tb122 2.513 . S
O131 C126 1.246 . S
O132 Tb122 2.453 . S
O132 C128 1.245 . S
O133 Tb120 2.343 . S
O133 Tb122 2.596 . S
O133 C128 1.259 . S
O134 Tb122 2.374 . S
O134 C129 1.250 . S
O135 Tb120 2.353 . S
O135 C129 1.263 . S
C136 O137 1.275 . S
C136 O138 1.246 1_556 S
O137 Tb120 2.427 . S
O137 C136 1.275 . S
O138 Tb120 2.513 1_554 S
O138 C136 1.246 1_554 S
C139 O123 1.245 . S
C139 O124 1.259 . S
Tb140 O143 2.453 . S
Tb140 O144 2.596 . S
Tb140 O145 2.374 1_556 S
Tb140 O153 2.343 . S
Tb140 O155 2.353 . S
Tb140 O157 2.427 1_565 S
Tb140 O158 2.513 1_566 S
C141 O145 1.251 . S
C141 O147 1.263 1_554 S
Tb142 O144 2.343 . S
Tb142 O147 2.353 . S
Tb142 O150 2.427 . S
Tb142 O151 2.513 . S
Tb142 O152 2.453 . S
Tb142 O153 2.596 . S
Tb142 O154 2.374 . S
O143 Tb140 2.453 . S
O143 C159 1.245 . S
O144 Tb140 2.596 . S
O144 Tb142 2.343 . S
O144 C159 1.259 . S
O145 Tb140 2.374 1_554 S
O145 C141 1.251 . S
C146 O150 1.275 . S
C146 O151 1.246 . S
O147 C141 1.263 1_556 S
O147 Tb142 2.353 . S
C148 O152 1.262 . S
C148 O153 1.256 . S
C149 O154 1.250 . S
C149 O155 1.263 . S
O150 Tb142 2.427 . S
O150 C146 1.275 . S
O151 Tb142 2.513 . S
O151 C146 1.246 . S
O152 Tb142 2.453 . S
O152 C148 1.262 . S
O153 Tb140 2.343 . S
O153 Tb142 2.596 . S
O153 C148 1.256 . S
O154 Tb142 2.374 . S
O154 C149 1.250 . S
O155 Tb140 2.353 . S
O155 C149 1.263 . S
C156 O157 1.275 . S
C156 O158 1.246 1_556 S
O157 Tb140 2.427 1_545 S
O157 C156 1.275 . S
O158 Tb140 2.513 1_544 S
O158 C156 1.246 1_554 S
C159 O143 1.245 . S
C159 O144 1.259 . S
Tb160 O163 2.453 . S
Tb160 O164 2.596 . S
Tb160 O165 2.374 1_556 S
Tb160 O173 2.343 . S
Tb160 O175 2.353 . S
Tb160 O177 2.427 1_455 S
Tb160 O178 2.513 1_456 S
C161 O165 1.251 . S
C161 O167 1.263 1_554 S
Tb162 O164 2.343 . S
Tb162 O167 2.353 . S
Tb162 O170 2.427 . S
Tb162 O171 2.513 . S
Tb162 O172 2.453 . S
Tb162 O173 2.596 . S
Tb162 O174 2.374 . S
O163 Tb160 2.453 . S
O163 C179 1.245 . S
O164 Tb160 2.596 . S
O164 Tb162 2.343 . S
O164 C179 1.259 . S
O165 Tb160 2.374 1_554 S
O165 C161 1.251 . S
C166 O170 1.275 . S
C166 O171 1.246 . S
O167 C161 1.263 1_556 S
O167 Tb162 2.353 . S
C168 O172 1.249 . S
C168 O173 1.273 . S
C169 O174 1.250 . S
C169 O175 1.263 . S
O170 Tb162 2.427 . S
O170 C166 1.275 . S
O171 Tb162 2.513 . S
O171 C166 1.246 . S
O172 Tb162 2.453 . S
O172 C168 1.249 . S
O173 Tb160 2.343 . S
O173 Tb162 2.596 . S
O173 C168 1.273 . S
O174 Tb162 2.374 . S
O174 C169 1.250 . S
O175 Tb160 2.353 . S
O175 C169 1.263 . S
C176 O177 1.275 . S
C176 O178 1.246 1_556 S
O177 Tb160 2.427 1_655 S
O177 C176 1.275 . S
O178 Tb160 2.513 1_654 S
O178 C176 1.246 1_554 S
C179 O163 1.245 . S
C179 O164 1.259 . S
Tb180 O183 2.453 . S
Tb180 O184 2.596 . S
Tb180 O185 2.374 . S
Tb180 O193 2.343 . S
Tb180 O195 2.353 . S
Tb180 O197 2.427 . S
Tb180 O198 2.513 . S
C181 O185 1.251 . S
C181 O187 1.263 . S
Tb182 O184 2.343 . S
Tb182 O187 2.353 . S
Tb182 O190 2.427 . S
Tb182 O191 2.513 . S
Tb182 O192 2.453 . S
Tb182 O193 2.596 . S
Tb182 O194 2.374 . S
O183 Tb180 2.453 . S
O183 C199 1.245 . S
O184 Tb180 2.596 . S
O184 Tb182 2.343 . S
O184 C199 1.259 . S
O185 Tb180 2.374 . S
O185 C181 1.251 . S
C186 O190 1.275 . S
C186 O191 1.246 . S
O187 C181 1.263 . S
O187 Tb182 2.353 . S
C188 O192 1.245 . S
C188 O193 1.259 . S
C189 O194 1.250 . S
C189 O195 1.263 . S
O190 Tb182 2.427 . S
O190 C186 1.275 . S
O191 Tb182 2.513 . S
O191 C186 1.246 . S
O192 Tb182 2.453 . S
O192 C188 1.245 . S
O193 Tb180 2.343 . S
O193 Tb182 2.596 . S
O193 C188 1.259 . S
O194 Tb182 2.374 . S
O194 C189 1.250 . S
O195 Tb180 2.353 . S
O195 C189 1.263 . S
C196 O197 1.275 . S
C196 O198 1.246 . S
O197 Tb180 2.427 . S
O197 C196 1.275 . S
O198 Tb180 2.513 . S
O198 C196 1.246 . S
C199 O183 1.245 . S
C199 O184 1.259 . S
Tb200 O203 2.453 . S
Tb200 O204 2.596 . S
Tb200 O205 2.374 . S
Tb200 O213 2.343 . S
Tb200 O215 2.353 . S
Tb200 O217 2.427 1_545 S
Tb200 O218 2.513 1_545 S
C201 O205 1.251 . S
C201 O207 1.263 . S
Tb202 O204 2.343 . S
Tb202 O207 2.353 . S
Tb202 O210 2.427 . S
Tb202 O211 2.513 . S
Tb202 O212 2.453 . S
Tb202 O213 2.596 . S
Tb202 O214 2.374 . S
O203 Tb200 2.453 . S
O203 C219 1.245 . S
O204 Tb200 2.596 . S
O204 Tb202 2.343 . S
O204 C219 1.259 . S
O205 Tb200 2.374 . S
O205 C201 1.251 . S
C206 O210 1.275 . S
C206 O211 1.246 . S
O207 C201 1.263 . S
O207 Tb202 2.353 . S
C208 O212 1.249 . S
C208 O213 1.273 . S
C209 O214 1.250 . S
C209 O215 1.263 . S
O210 Tb202 2.427 . S
O210 C206 1.275 . S
O211 Tb202 2.513 . S
O211 C206 1.246 . S
O212 Tb202 2.453 . S
O212 C208 1.249 . S
O213 Tb200 2.343 . S
O213 Tb202 2.596 . S
O213 C208 1.273 . S
O214 Tb202 2.374 . S
O214 C209 1.250 . S
O215 Tb200 2.353 . S
O215 C209 1.263 . S
C216 O217 1.275 . S
C216 O218 1.246 . S
O217 Tb200 2.427 1_565 S
O217 C216 1.275 . S
O218 Tb200 2.513 1_565 S
O218 C216 1.246 . S
C219 O203 1.245 . S
C219 O204 1.259 . S
Tb220 O223 2.453 . S
Tb220 O224 2.596 . S
Tb220 O225 2.374 . S
Tb220 O233 2.343 . S
Tb220 O235 2.353 . S
Tb220 O237 2.427 1_655 S
Tb220 O238 2.513 1_655 S
C221 O225 1.251 . S
C221 O227 1.263 . S
Tb222 O224 2.343 . S
Tb222 O227 2.353 . S
Tb222 O230 2.427 . S
Tb222 O231 2.513 . S
Tb222 O232 2.453 . S
Tb222 O233 2.596 . S
Tb222 O234 2.374 . S
O223 Tb220 2.453 . S
O223 C239 1.245 . S
O224 Tb220 2.596 . S
O224 Tb222 2.343 . S
O224 C239 1.259 . S
O225 Tb220 2.374 . S
O225 C221 1.251 . S
C226 O230 1.275 . S
C226 O231 1.246 . S
O227 C221 1.263 . S
O227 Tb222 2.353 . S
C228 O232 1.262 . S
C228 O233 1.256 . S
C229 O234 1.250 . S
C229 O235 1.263 . S
O230 Tb222 2.427 . S
O230 C226 1.275 . S
O231 Tb222 2.513 . S
O231 C226 1.246 . S
O232 Tb222 2.453 . S
O232 C228 1.262 . S
O233 Tb220 2.343 . S
O233 Tb222 2.596 . S
O233 C228 1.256 . S
O234 Tb222 2.374 . S
O234 C229 1.250 . S
O235 Tb220 2.353 . S
O235 C229 1.263 . S
C236 O237 1.275 . S
C236 O238 1.246 . S
O237 Tb220 2.427 1_455 S
O237 C236 1.275 . S
O238 Tb220 2.513 1_455 S
O238 C236 1.246 . S
C239 O223 1.245 . S
C239 O224 1.259 . S
Tb240 O243 2.453 . S
Tb240 O244 2.596 . S
Tb240 O245 2.374 . S
Tb240 O253 2.343 . S
Tb240 O255 2.353 . S
Tb240 O257 2.427 . S
Tb240 O258 2.513 . S
C241 O245 1.251 . S
C241 O247 1.263 . S
Tb242 O244 2.343 . S
Tb242 O247 2.353 . S
Tb242 O250 2.427 . S
Tb242 O251 2.513 . S
Tb242 O252 2.453 . S
Tb242 O253 2.596 . S
Tb242 O254 2.374 . S
O243 Tb240 2.453 . S
O243 C259 1.245 . S
O244 Tb240 2.596 . S
O244 Tb242 2.343 . S
O244 C259 1.259 . S
O245 Tb240 2.374 . S
O245 C241 1.251 . S
C246 O250 1.275 . S
C246 O251 1.246 . S
O247 C241 1.263 . S
O247 Tb242 2.353 . S
C248 O252 1.245 . S
C248 O253 1.259 . S
C249 O254 1.250 . S
C249 O255 1.263 . S
O250 Tb242 2.427 . S
O250 C246 1.275 . S
O251 Tb242 2.513 . S
O251 C246 1.246 . S
O252 Tb242 2.453 . S
O252 C248 1.245 . S
O253 Tb240 2.343 . S
O253 Tb242 2.596 . S
O253 C248 1.259 . S
O254 Tb242 2.374 . S
O254 C249 1.250 . S
O255 Tb240 2.353 . S
O255 C249 1.263 . S
C256 O257 1.275 . S
C256 O258 1.246 . S
O257 Tb240 2.427 . S
O257 C256 1.275 . S
O258 Tb240 2.513 . S
O258 C256 1.246 . S
C259 O243 1.245 . S
C259 O244 1.259 . S
Tb260 O263 2.453 . S
Tb260 O264 2.596 . S
Tb260 O265 2.374 . S
Tb260 O273 2.343 . S
Tb260 O275 2.353 . S
Tb260 O277 2.427 . S
Tb260 O278 2.513 . S
C261 O265 1.251 . S
C261 O267 1.263 . S
Tb262 O264 2.343 . S
Tb262 O267 2.353 . S
Tb262 O270 2.427 . S
Tb262 O271 2.513 . S
Tb262 O272 2.453 . S
Tb262 O273 2.596 . S
Tb262 O274 2.374 . S
O263 Tb260 2.453 . S
O263 C279 1.245 . S
O264 Tb260 2.596 . S
O264 Tb262 2.343 . S
O264 C279 1.259 . S
O265 Tb260 2.374 . S
O265 C261 1.251 . S
C266 O270 1.275 . S
C266 O271 1.246 . S
O267 C261 1.263 . S
O267 Tb262 2.353 . S
C268 O272 1.245 . S
C268 O273 1.259 . S
C269 O274 1.250 . S
C269 O275 1.263 . S
O270 Tb262 2.427 . S
O270 C266 1.275 . S
O271 Tb262 2.513 . S
O271 C266 1.246 . S
O272 Tb262 2.453 . S
O272 C268 1.245 . S
O273 Tb260 2.343 . S
O273 Tb262 2.596 . S
O273 C268 1.259 . S
O274 Tb262 2.374 . S
O274 C269 1.250 . S
O275 Tb260 2.353 . S
O275 C269 1.263 . S
C276 O277 1.275 . S
C276 O278 1.246 . S
O277 Tb260 2.427 . S
O277 C276 1.275 . S
O278 Tb260 2.513 . S
O278 C276 1.246 . S
C279 O263 1.245 . S
C279 O264 1.259 . S
Tb280 O283 2.453 . S
Tb280 O284 2.596 . S
Tb280 O285 2.374 . S
Tb280 O293 2.343 . S
Tb280 O295 2.353 . S
Tb280 O297 2.427 . S
Tb280 O298 2.513 . S
C281 O285 1.251 . S
C281 O287 1.263 . S
Tb282 O284 2.343 . S
Tb282 O287 2.353 . S
Tb282 O290 2.427 . S
Tb282 O291 2.513 . S
Tb282 O292 2.453 . S
Tb282 O293 2.596 . S
Tb282 O294 2.374 . S
O283 Tb280 2.453 . S
O283 C299 1.245 . S
O284 Tb280 2.596 . S
O284 Tb282 2.343 . S
O284 C299 1.259 . S
O285 Tb280 2.374 . S
O285 C281 1.251 . S
C286 O290 1.275 . S
C286 O291 1.246 . S
O287 C281 1.263 . S
O287 Tb282 2.353 . S
C288 O292 1.245 . S
C288 O293 1.259 . S
C289 O294 1.250 . S
C289 O295 1.263 . S
O290 Tb282 2.427 . S
O290 C286 1.275 . S
O291 Tb282 2.513 . S
O291 C286 1.246 . S
O292 Tb282 2.453 . S
O292 C288 1.245 . S
O293 Tb280 2.343 . S
O293 Tb282 2.596 . S
O293 C288 1.259 . S
O294 Tb282 2.374 . S
O294 C289 1.250 . S
O295 Tb280 2.353 . S
O295 C289 1.263 . S
C296 O297 1.275 . S
C296 O298 1.246 . S
O297 Tb280 2.427 . S
O297 C296 1.275 . S
O298 Tb280 2.513 . S
O298 C296 1.246 . S
C299 O283 1.245 . S
C299 O284 1.259 . S
Tb300 O303 2.453 . S
Tb300 O304 2.596 . S
Tb300 O305 2.374 . S
Tb300 O313 2.343 . S
Tb300 O315 2.353 . S
Tb300 O317 2.427 . S
Tb300 O318 2.513 . S
C301 O305 1.251 . S
C301 O307 1.263 . S
Tb302 O304 2.343 . S
Tb302 O307 2.353 . S
Tb302 O310 2.427 . S
Tb302 O311 2.513 . S
Tb302 O312 2.453 . S
Tb302 O313 2.596 . S
Tb302 O314 2.374 . S
O303 Tb300 2.453 . S
O303 C319 1.245 . S
O304 Tb300 2.596 . S
O304 Tb302 2.343 . S
O304 C319 1.259 . S
O305 Tb300 2.374 . S
O305 C301 1.251 . S
C306 O310 1.275 . S
C306 O311 1.246 . S
O307 C301 1.263 . S
O307 Tb302 2.353 . S
C308 O312 1.245 . S
C308 O313 1.259 . S
C309 O314 1.250 . S
C309 O315 1.263 . S
O310 Tb302 2.427 . S
O310 C306 1.275 . S
O311 Tb302 2.513 . S
O311 C306 1.246 . S
O312 Tb302 2.453 . S
O312 C308 1.245 . S
O313 Tb300 2.343 . S
O313 Tb302 2.596 . S
O313 C308 1.259 . S
O314 Tb302 2.374 . S
O314 C309 1.250 . S
O315 Tb300 2.353 . S
O315 C309 1.263 . S
C316 O317 1.275 . S
C316 O318 1.246 . S
O317 Tb300 2.427 . S
O317 C316 1.275 . S
O318 Tb300 2.513 . S
O318 C316 1.246 . S
C319 O303 1.245 . S
C319 O304 1.259 . S
Tb320 O323 2.453 . S
Tb320 O324 2.596 . S
Tb320 O325 2.374 . S
Tb320 O333 2.343 . S
Tb320 O335 2.353 . S
Tb320 O337 2.427 . S
Tb320 O338 2.513 . S
C321 O325 1.251 . S
C321 O327 1.263 . S
Tb322 O324 2.343 . S
Tb322 O327 2.353 . S
Tb322 O330 2.427 . S
Tb322 O331 2.513 . S
Tb322 O332 2.453 . S
Tb322 O333 2.596 . S
Tb322 O334 2.374 . S
O323 Tb320 2.453 . S
O323 C339 1.245 . S
O324 Tb320 2.596 . S
O324 Tb322 2.343 . S
O324 C339 1.259 . S
O325 Tb320 2.374 . S
O325 C321 1.251 . S
C326 O330 1.275 . S
C326 O331 1.246 . S
O327 C321 1.263 . S
O327 Tb322 2.353 . S
C328 O332 1.245 . S
C328 O333 1.259 . S
C329 O334 1.250 . S
C329 O335 1.263 . S
O330 Tb322 2.427 . S
O330 C326 1.275 . S
O331 Tb322 2.513 . S
O331 C326 1.246 . S
O332 Tb322 2.453 . S
O332 C328 1.245 . S
O333 Tb320 2.343 . S
O333 Tb322 2.596 . S
O333 C328 1.259 . S
O334 Tb322 2.374 . S
O334 C329 1.250 . S
O335 Tb320 2.353 . S
O335 C329 1.263 . S
C336 O337 1.275 . S
C336 O338 1.246 . S
O337 Tb320 2.427 . S
O337 C336 1.275 . S
O338 Tb320 2.513 . S
O338 C336 1.246 . S
C339 O323 1.245 . S
C339 O324 1.259 . S
Tb340 O343 2.453 . S
Tb340 O344 2.596 . S
Tb340 O345 2.374 . S
Tb340 O353 2.343 . S
Tb340 O355 2.353 . S
Tb340 O357 2.427 . S
Tb340 O358 2.513 . S
C341 O345 1.251 . S
C341 O347 1.263 . S
Tb342 O344 2.343 . S
Tb342 O347 2.353 . S
Tb342 O350 2.427 . S
Tb342 O351 2.513 . S
Tb342 O352 2.453 . S
Tb342 O353 2.596 . S
Tb342 O354 2.374 . S
O343 Tb340 2.453 . S
O343 C359 1.245 . S
O344 Tb340 2.596 . S
O344 Tb342 2.343 . S
O344 C359 1.259 . S
O345 Tb340 2.374 . S
O345 C341 1.251 . S
C346 O350 1.275 . S
C346 O351 1.246 . S
O347 C341 1.263 . S
O347 Tb342 2.353 . S
C348 O352 1.245 . S
C348 O353 1.259 . S
C349 O354 1.250 . S
C349 O355 1.263 . S
O350 Tb342 2.427 . S
O350 C346 1.275 . S
O351 Tb342 2.513 . S
O351 C346 1.246 . S
O352 Tb342 2.453 . S
O352 C348 1.245 . S
O353 Tb340 2.343 . S
O353 Tb342 2.596 . S
O353 C348 1.259 . S
O354 Tb342 2.374 . S
O354 C349 1.250 . S
O355 Tb340 2.353 . S
O355 C349 1.263 . S
C356 O357 1.275 . S
C356 O358 1.246 . S
O357 Tb340 2.427 . S
O357 C356 1.275 . S
O358 Tb340 2.513 . S
O358 C356 1.246 . S
C359 O343 1.245 . S
C359 O344 1.259 . S
Tb360 O363 2.453 . S
Tb360 O364 2.596 . S
Tb360 O365 2.374 . S
Tb360 O373 2.343 . S
Tb360 O375 2.353 . S
Tb360 O377 2.427 . S
Tb360 O378 2.513 . S
C361 O365 1.251 . S
C361 O367 1.263 . S
Tb362 O364 2.343 . S
Tb362 O367 2.353 . S
Tb362 O370 2.427 . S
Tb362 O371 2.513 . S
Tb362 O372 2.453 . S
Tb362 O373 2.596 . S
Tb362 O374 2.374 . S
O363 Tb360 2.453 . S
O363 C379 1.245 . S
O364 Tb360 2.596 . S
O364 Tb362 2.343 . S
O364 C379 1.259 . S
O365 Tb360 2.374 . S
O365 C361 1.251 . S
C366 O370 1.275 . S
C366 O371 1.246 . S
O367 C361 1.263 . S
O367 Tb362 2.353 . S
C368 O372 1.245 . S
C368 O373 1.259 . S
C369 O374 1.250 . S
C369 O375 1.263 . S
O370 Tb362 2.427 . S
O370 C366 1.275 . S
O371 Tb362 2.513 . S
O371 C366 1.246 . S
O372 Tb362 2.453 . S
O372 C368 1.245 . S
O373 Tb360 2.343 . S
O373 Tb362 2.596 . S
O373 C368 1.259 . S
O374 Tb362 2.374 . S
O374 C369 1.250 . S
O375 Tb360 2.353 . S
O375 C369 1.263 . S
C376 O377 1.275 . S
C376 O378 1.246 . S
O377 Tb360 2.427 . S
O377 C376 1.275 . S
O378 Tb360 2.513 . S
O378 C376 1.246 . S
C379 O363 1.245 . S
C379 O364 1.259 . S
Tb380 O383 2.453 . S
Tb380 O384 2.596 . S
Tb380 O385 2.374 . S
Tb380 O393 2.343 . S
Tb380 O395 2.353 . S
Tb380 O397 2.427 . S
Tb380 O398 2.513 . S
C381 O385 1.251 . S
C381 O387 1.263 . S
Tb382 O384 2.343 . S
Tb382 O387 2.353 . S
Tb382 O390 2.427 . S
Tb382 O391 2.513 . S
Tb382 O392 2.453 . S
Tb382 O393 2.596 . S
Tb382 O394 2.374 . S
O383 Tb380 2.453 . S
O383 C399 1.245 . S
O384 Tb380 2.596 . S
O384 Tb382 2.343 . S
O384 C399 1.259 . S
O385 Tb380 2.374 . S
O385 C381 1.251 . S
C386 O390 1.275 . S
C386 O391 1.246 . S
O387 C381 1.263 . S
O387 Tb382 2.353 . S
C388 O392 1.245 . S
C388 O393 1.259 . S
C389 O394 1.250 . S
C389 O395 1.263 . S
O390 Tb382 2.427 . S
O390 C386 1.275 . S
O391 Tb382 2.513 . S
O391 C386 1.246 . S
O392 Tb382 2.453 . S
O392 C388 1.245 . S
O393 Tb380 2.343 . S
O393 Tb382 2.596 . S
O393 C388 1.259 . S
O394 Tb382 2.374 . S
O394 C389 1.250 . S
O395 Tb380 2.353 . S
O395 C389 1.263 . S
C396 O397 1.275 . S
C396 O398 1.246 . S
O397 Tb380 2.427 . S
O397 C396 1.275 . S
O398 Tb380 2.513 . S
O398 C396 1.246 . S
C399 O383 1.245 . S
C399 O384 1.259 . S
Tb400 O403 2.453 . S
Tb400 O404 2.596 . S
Tb400 O405 2.374 . S
Tb400 O413 2.343 . S
Tb400 O415 2.353 . S
Tb400 O417 2.427 . S
Tb400 O418 2.513 . S
C401 O405 1.251 . S
C401 O407 1.263 . S
Tb402 O404 2.343 . S
Tb402 O407 2.353 . S
Tb402 O410 2.427 . S
Tb402 O411 2.513 . S
Tb402 O412 2.453 . S
Tb402 O413 2.596 . S
Tb402 O414 2.374 . S
O403 Tb400 2.453 . S
O403 C419 1.245 . S
O404 Tb400 2.596 . S
O404 Tb402 2.343 . S
O404 C419 1.259 . S
O405 Tb400 2.374 . S
O405 C401 1.251 . S
C406 O410 1.275 . S
C406 O411 1.246 . S
O407 C401 1.263 . S
O407 Tb402 2.353 . S
C408 O412 1.245 . S
C408 O413 1.259 . S
C409 O414 1.250 . S
C409 O415 1.263 . S
O410 Tb402 2.427 . S
O410 C406 1.275 . S
O411 Tb402 2.513 . S
O411 C406 1.246 . S
O412 Tb402 2.453 . S
O412 C408 1.245 . S
O413 Tb400 2.343 . S
O413 Tb402 2.596 . S
O413 C408 1.259 . S
O414 Tb402 2.374 . S
O414 C409 1.250 . S
O415 Tb400 2.353 . S
O415 C409 1.263 . S
C416 O417 1.275 . S
C416 O418 1.246 . S
O417 Tb400 2.427 . S
O417 C416 1.275 . S
O418 Tb400 2.513 . S
O418 C416 1.246 . S
C419 O403 1.245 . S
C419 O404 1.259 . S
Tb420 O423 2.453 . S
Tb420 O424 2.596 . S
Tb420 O425 2.374 . S
Tb420 O433 2.343 . S
Tb420 O435 2.353 . S
Tb420 O437 2.427 . S
Tb420 O438 2.513 . S
C421 O425 1.251 . S
C421 O427 1.263 . S
Tb422 O424 2.343 . S
Tb422 O427 2.353 . S
Tb422 O430 2.427 . S
Tb422 O431 2.513 . S
Tb422 O432 2.453 . S
Tb422 O433 2.596 . S
Tb422 O434 2.374 . S
O423 Tb420 2.453 . S
O423 C439 1.245 . S
O424 Tb420 2.596 . S
O424 Tb422 2.343 . S
O424 C439 1.259 . S
O425 Tb420 2.374 . S
O425 C421 1.251 . S
C426 O430 1.275 . S
C426 O431 1.246 . S
O427 C421 1.263 . S
O427 Tb422 2.353 . S
C428 O432 1.245 . S
C428 O433 1.259 . S
C429 O434 1.250 . S
C429 O435 1.263 . S
O430 Tb422 2.427 . S
O430 C426 1.275 . S
O431 Tb422 2.513 . S
O431 C426 1.246 . S
O432 Tb422 2.453 . S
O432 C428 1.245 . S
O433 Tb420 2.343 . S
O433 Tb422 2.596 . S
O433 C428 1.259 . S
O434 Tb422 2.374 . S
O434 C429 1.250 . S
O435 Tb420 2.353 . S
O435 C429 1.263 . S
C436 O437 1.275 . S
C436 O438 1.246 . S
O437 Tb420 2.427 . S
O437 C436 1.275 . S
O438 Tb420 2.513 . S
O438 C436 1.246 . S
C439 O423 1.245 . S
C439 O424 1.259 . S
Tb440 O443 2.453 . S
Tb440 O444 2.596 . S
Tb440 O445 2.374 . S
Tb440 O453 2.343 . S
Tb440 O455 2.353 . S
Tb440 O457 2.427 . S
Tb440 O458 2.513 . S
C441 O445 1.251 . S
C441 O447 1.263 . S
Tb442 O444 2.343 . S
Tb442 O447 2.353 . S
Tb442 O450 2.427 . S
Tb442 O451 2.513 . S
Tb442 O452 2.453 . S
Tb442 O453 2.596 . S
Tb442 O454 2.374 . S
O443 Tb440 2.453 . S
O443 C459 1.245 . S
O444 Tb440 2.596 . S
O444 Tb442 2.343 . S
O444 C459 1.259 . S
O445 Tb440 2.374 . S
O445 C441 1.251 . S
C446 O450 1.275 . S
C446 O451 1.246 . S
O447 C441 1.263 . S
O447 Tb442 2.353 . S
C448 O452 1.245 . S
C448 O453 1.259 . S
C449 O454 1.250 . S
C449 O455 1.263 . S
O450 Tb442 2.427 . S
O450 C446 1.275 . S
O451 Tb442 2.513 . S
O451 C446 1.246 . S
O452 Tb442 2.453 . S
O452 C448 1.245 . S
O453 Tb440 2.343 . S
O453 Tb442 2.596 . S
O453 C448 1.259 . S
O454 Tb442 2.374 . S
O454 C449 1.250 . S
O455 Tb440 2.353 . S
O455 C449 1.263 . S
C456 O457 1.275 . S
C456 O458 1.246 . S
O457 Tb440 2.427 . S
O457 C456 1.275 . S
O458 Tb440 2.513 . S
O458 C456 1.246 . S
C459 O443 1.245 . S
C459 O444 1.259 . S
Tb460 O463 2.453 . S
Tb460 O464 2.596 . S
Tb460 O465 2.374 . S
Tb460 O473 2.343 . S
Tb460 O475 2.353 . S
Tb460 O477 2.427 . S
Tb460 O478 2.513 . S
C461 O465 1.251 . S
C461 O467 1.263 . S
Tb462 O464 2.343 . S
Tb462 O467 2.353 . S
Tb462 O470 2.427 . S
Tb462 O471 2.513 . S
Tb462 O472 2.453 . S
Tb462 O473 2.596 . S
Tb462 O474 2.374 . S
O463 Tb460 2.453 . S
O463 C479 1.245 . S
O464 Tb460 2.596 . S
O464 Tb462 2.343 . S
O464 C479 1.259 . S
O465 Tb460 2.374 . S
O465 C461 1.251 . S
C466 O470 1.275 . S
C466 O471 1.246 . S
O467 C461 1.263 . S
O467 Tb462 2.353 . S
C468 O472 1.245 . S
C468 O473 1.259 . S
C469 O474 1.250 . S
C469 O475 1.263 . S
O470 Tb462 2.427 . S
O470 C466 1.275 . S
O471 Tb462 2.513 . S
O471 C466 1.246 . S
O472 Tb462 2.453 . S
O472 C468 1.245 . S
O473 Tb460 2.343 . S
O473 Tb462 2.596 . S
O473 C468 1.259 . S
O474 Tb462 2.374 . S
O474 C469 1.250 . S
O475 Tb460 2.353 . S
O475 C469 1.263 . S
C476 O477 1.275 . S
C476 O478 1.246 . S
O477 Tb460 2.427 . S
O477 C476 1.275 . S
O478 Tb460 2.513 . S
O478 C476 1.246 . S
C479 O463 1.245 . S
C479 O464 1.259 . S
Tb480 O483 2.453 . S
Tb480 O484 2.596 . S
Tb480 O485 2.374 . S
Tb480 O493 2.343 . S
Tb480 O495 2.353 . S
Tb480 O497 2.427 . S
Tb480 O498 2.513 . S
C481 O485 1.251 . S
C481 O487 1.263 . S
Tb482 O484 2.343 . S
Tb482 O487 2.353 . S
Tb482 O490 2.427 . S
Tb482 O491 2.513 . S
Tb482 O492 2.453 . S
Tb482 O493 2.596 . S
Tb482 O494 2.374 . S
O483 Tb480 2.453 . S
O483 C499 1.245 . S
O484 Tb480 2.596 . S
O484 Tb482 2.343 . S
O484 C499 1.259 . S
O485 Tb480 2.374 . S
O485 C481 1.251 . S
C486 O490 1.275 . S
C486 O491 1.246 . S
O487 C481 1.263 . S
O487 Tb482 2.353 . S
C488 O492 1.245 . S
C488 O493 1.259 . S
C489 O494 1.250 . S
C489 O495 1.263 . S
O490 Tb482 2.427 . S
O490 C486 1.275 . S
O491 Tb482 2.513 . S
O491 C486 1.246 . S
O492 Tb482 2.453 . S
O492 C488 1.245 . S
O493 Tb480 2.343 . S
O493 Tb482 2.596 . S
O493 C488 1.259 . S
O494 Tb482 2.374 . S
O494 C489 1.250 . S
O495 Tb480 2.353 . S
O495 C489 1.263 . S
C496 O497 1.275 . S
C496 O498 1.246 . S
O497 Tb480 2.427 . S
O497 C496 1.275 . S
O498 Tb480 2.513 . S
O498 C496 1.246 . S
C499 O483 1.245 . S
C499 O484 1.259 . S
Tb500 O503 2.453 . S
Tb500 O504 2.596 . S
Tb500 O505 2.374 . S
Tb500 O513 2.343 . S
Tb500 O515 2.353 . S
Tb500 O517 2.427 . S
Tb500 O518 2.513 . S
C501 O505 1.251 . S
C501 O507 1.263 . S
Tb502 O504 2.343 . S
Tb502 O507 2.353 . S
Tb502 O510 2.427 . S
Tb502 O511 2.513 . S
Tb502 O512 2.453 . S
Tb502 O513 2.596 . S
Tb502 O514 2.374 . S
O503 Tb500 2.453 . S
O503 C519 1.245 . S
O504 Tb500 2.596 . S
O504 Tb502 2.343 . S
O504 C519 1.259 . S
O505 Tb500 2.374 . S
O505 C501 1.251 . S
C506 O510 1.275 . S
C506 O511 1.246 . S
O507 C501 1.263 . S
O507 Tb502 2.353 . S
C508 O512 1.245 . S
C508 O513 1.259 . S
C509 O514 1.250 . S
C509 O515 1.263 . S
O510 Tb502 2.427 . S
O510 C506 1.275 . S
O511 Tb502 2.513 . S
O511 C506 1.246 . S
O512 Tb502 2.453 . S
O512 C508 1.245 . S
O513 Tb500 2.343 . S
O513 Tb502 2.596 . S
O513 C508 1.259 . S
O514 Tb502 2.374 . S
O514 C509 1.250 . S
O515 Tb500 2.353 . S
O515 C509 1.263 . S
C516 O517 1.275 . S
C516 O518 1.246 . S
O517 Tb500 2.427 . S
O517 C516 1.275 . S
O518 Tb500 2.513 . S
O518 C516 1.246 . S
C519 O503 1.245 . S
C519 O504 1.259 . S
Tb520 O523 2.453 . S
Tb520 O524 2.596 . S
Tb520 O525 2.374 . S
Tb520 O533 2.343 . S
Tb520 O535 2.353 . S
Tb520 O537 2.427 . S
Tb520 O538 2.513 . S
C521 O525 1.251 . S
C521 O527 1.263 . S
Tb522 O524 2.343 . S
Tb522 O527 2.353 . S
Tb522 O530 2.427 . S
Tb522 O531 2.513 . S
Tb522 O532 2.453 . S
Tb522 O533 2.596 . S
Tb522 O534 2.374 . S
O523 Tb520 2.453 . S
O523 C539 1.245 . S
O524 Tb520 2.596 . S
O524 Tb522 2.343 . S
O524 C539 1.259 . S
O525 Tb520 2.374 . S
O525 C521 1.251 . S
C526 O530 1.275 . S
C526 O531 1.246 . S
O527 C521 1.263 . S
O527 Tb522 2.353 . S
C528 O532 1.245 . S
C528 O533 1.259 . S
C529 O534 1.250 . S
C529 O535 1.263 . S
O530 Tb522 2.427 . S
O530 C526 1.275 . S
O531 Tb522 2.513 . S
O531 C526 1.246 . S
O532 Tb522 2.453 . S
O532 C528 1.245 . S
O533 Tb520 2.343 . S
O533 Tb522 2.596 . S
O533 C528 1.259 . S
O534 Tb522 2.374 . S
O534 C529 1.250 . S
O535 Tb520 2.353 . S
O535 C529 1.263 . S
C536 O537 1.275 . S
C536 O538 1.246 . S
O537 Tb520 2.427 . S
O537 C536 1.275 . S
O538 Tb520 2.513 . S
O538 C536 1.246 . S
C539 O523 1.245 . S
C539 O524 1.259 . S
Tb540 O543 2.453 . S
Tb540 O544 2.596 . S
Tb540 O545 2.374 . S
Tb540 O553 2.343 . S
Tb540 O555 2.353 . S
Tb540 O557 2.427 . S
Tb540 O558 2.513 . S
C541 O545 1.251 . S
C541 O547 1.263 . S
Tb542 O544 2.343 . S
Tb542 O547 2.353 . S
Tb542 O550 2.427 . S
Tb542 O551 2.513 . S
Tb542 O552 2.453 . S
Tb542 O553 2.596 . S
Tb542 O554 2.374 . S
O543 Tb540 2.453 . S
O543 C559 1.245 . S
O544 Tb540 2.596 . S
O544 Tb542 2.343 . S
O544 C559 1.259 . S
O545 Tb540 2.374 . S
O545 C541 1.251 . S
C546 O550 1.275 . S
C546 O551 1.246 . S
O547 C541 1.263 . S
O547 Tb542 2.353 . S
C548 O552 1.245 . S
C548 O553 1.259 . S
C549 O554 1.250 . S
C549 O555 1.263 . S
O550 Tb542 2.427 . S
O550 C546 1.275 . S
O551 Tb542 2.513 . S
O551 C546 1.246 . S
O552 Tb542 2.453 . S
O552 C548 1.245 . S
O553 Tb540 2.343 . S
O553 Tb542 2.596 . S
O553 C548 1.259 . S
O554 Tb542 2.374 . S
O554 C549 1.250 . S
O555 Tb540 2.353 . S
O555 C549 1.263 . S
C556 O557 1.275 . S
C556 O558 1.246 . S
O557 Tb540 2.427 . S
O557 C556 1.275 . S
O558 Tb540 2.513 . S
O558 C556 1.246 . S
C559 O543 1.245 . S
C559 O544 1.259 . S
Tb560 O563 2.453 . S
Tb560 O564 2.596 . S
Tb560 O565 2.374 . S
Tb560 O573 2.343 . S
Tb560 O575 2.353 . S
Tb560 O577 2.427 . S
Tb560 O578 2.513 . S
C561 O565 1.251 . S
C561 O567 1.263 . S
Tb562 O564 2.343 . S
Tb562 O567 2.353 . S
Tb562 O570 2.427 . S
Tb562 O571 2.513 . S
Tb562 O572 2.453 . S
Tb562 O573 2.596 . S
Tb562 O574 2.374 . S
O563 Tb560 2.453 . S
O563 C579 1.245 . S
O564 Tb560 2.596 . S
O564 Tb562 2.343 . S
O564 C579 1.259 . S
O565 Tb560 2.374 . S
O565 C561 1.251 . S
C566 O570 1.275 . S
C566 O571 1.246 . S
O567 C561 1.263 . S
O567 Tb562 2.353 . S
C568 O572 1.245 . S
C568 O573 1.259 . S
C569 O574 1.250 . S
C569 O575 1.263 . S
O570 Tb562 2.427 . S
O570 C566 1.275 . S
O571 Tb562 2.513 . S
O571 C566 1.246 . S
O572 Tb562 2.453 . S
O572 C568 1.245 . S
O573 Tb560 2.343 . S
O573 Tb562 2.596 . S
O573 C568 1.259 . S
O574 Tb562 2.374 . S
O574 C569 1.250 . S
O575 Tb560 2.353 . S
O575 C569 1.263 . S
C576 O577 1.275 . S
C576 O578 1.246 . S
O577 Tb560 2.427 . S
O577 C576 1.275 . S
O578 Tb560 2.513 . S
O578 C576 1.246 . S
C579 O563 1.245 . S
C579 O564 1.259 . S
Tb580 O583 2.453 . S
Tb580 O584 2.596 . S
Tb580 O585 2.374 . S
Tb580 O593 2.343 . S
Tb580 O595 2.353 . S
Tb580 O597 2.427 . S
Tb580 O598 2.513 . S
C581 O585 1.251 . S
C581 O587 1.263 . S
Tb582 O584 2.343 . S
Tb582 O587 2.353 . S
Tb582 O590 2.427 . S
Tb582 O591 2.513 . S
Tb582 O592 2.453 . S
Tb582 O593 2.596 . S
Tb582 O594 2.374 . S
O583 Tb580 2.453 . S
O583 C599 1.245 . S
O584 Tb580 2.596 . S
O584 Tb582 2.343 . S
O584 C599 1.259 . S
O585 Tb580 2.374 . S
O585 C581 1.251 . S
C586 O590 1.275 . S
C586 O591 1.246 . S
O587 C581 1.263 . S
O587 Tb582 2.353 . S
C588 O592 1.245 . S
C588 O593 1.259 . S
C589 O594 1.250 . S
C589 O595 1.263 . S
O590 Tb582 2.427 . S
O590 C586 1.275 . S
O591 Tb582 2.513 . S
O591 C586 1.246 . S
O592 Tb582 2.453 . S
O592 C588 1.245 . S
O593 Tb580 2.343 . S
O593 Tb582 2.596 . S
O593 C588 1.259 . S
O594 Tb582 2.374 . S
O594 C589 1.250 . S
O595 Tb580 2.353 . S
O595 C589 1.263 . S
C596 O597 1.275 . S
C596 O598 1.246 . S
O597 Tb580 2.427 . S
O597 C596 1.275 . S
O598 Tb580 2.513 . S
O598 C596 1.246 . S
C599 O583 1.245 . S
C599 O584 1.259 . S
Tb600 O603 2.453 . S
Tb600 O604 2.596 . S
Tb600 O605 2.374 . S
Tb600 O613 2.343 . S
Tb600 O615 2.353 . S
Tb600 O617 2.427 . S
Tb600 O618 2.513 . S
C601 O605 1.251 . S
C601 O607 1.263 . S
Tb602 O604 2.343 . S
Tb602 O607 2.353 . S
Tb602 O610 2.427 . S
Tb602 O611 2.513 . S
Tb602 O612 2.453 . S
Tb602 O613 2.596 . S
Tb602 O614 2.374 . S
O603 Tb600 2.453 . S
O603 C619 1.245 . S
O604 Tb600 2.596 . S
O604 Tb602 2.343 . S
O604 C619 1.259 . S
O605 Tb600 2.374 . S
O605 C601 1.251 . S
C606 O610 1.275 . S
C606 O611 1.246 . S
O607 C601 1.263 . S
O607 Tb602 2.353 . S
C608 O612 1.245 . S
C608 O613 1.259 . S
C609 O614 1.250 . S
C609 O615 1.263 . S
O610 Tb602 2.427 . S
O610 C606 1.275 . S
O611 Tb602 2.513 . S
O611 C606 1.246 . S
O612 Tb602 2.453 . S
O612 C608 1.245 . S
O613 Tb600 2.343 . S
O613 Tb602 2.596 . S
O613 C608 1.259 . S
O614 Tb602 2.374 . S
O614 C609 1.250 . S
O615 Tb600 2.353 . S
O615 C609 1.263 . S
C616 O617 1.275 . S
C616 O618 1.246 . S
O617 Tb600 2.427 . S
O617 C616 1.275 . S
O618 Tb600 2.513 . S
O618 C616 1.246 . S
C619 O603 1.245 . S
C619 O604 1.259 . S
Tb620 O623 2.453 . S
Tb620 O624 2.596 . S
Tb620 O625 2.374 . S
Tb620 O633 2.343 . S
Tb620 O635 2.353 . S
Tb620 O637 2.427 . S
Tb620 O638 2.513 . S
C621 O625 1.251 . S
C621 O627 1.263 . S
Tb622 O624 2.343 . S
Tb622 O627 2.353 . S
Tb622 O630 2.427 . S
Tb622 O631 2.513 . S
Tb622 O632 2.453 . S
Tb622 O633 2.596 . S
Tb622 O634 2.374 . S
O623 Tb620 2.453 . S
O623 C639 1.245 . S
O624 Tb620 2.596 . S
O624 Tb622 2.343 . S
O624 C639 1.259 . S
O625 Tb620 2.374 . S
O625 C621 1.251 . S
C626 O630 1.275 . S
C626 O631 1.246 . S
O627 C621 1.263 . S
O627 Tb622 2.353 . S
C628 O632 1.245 . S
C628 O633 1.259 . S
C629 O634 1.250 . S
C629 O635 1.263 . S
O630 Tb622 2.427 . S
O630 C626 1.275 . S
O631 Tb622 2.513 . S
O631 C626 1.246 . S
O632 Tb622 2.453 . S
O632 C628 1.245 . S
O633 Tb620 2.343 . S
O633 Tb622 2.596 . S
O633 C628 1.259 . S
O634 Tb622 2.374 . S
O634 C629 1.250 . S
O635 Tb620 2.353 . S
O635 C629 1.263 . S
C636 O637 1.275 . S
C636 O638 1.246 . S
O637 Tb620 2.427 . S
O637 C636 1.275 . S
O638 Tb620 2.513 . S
O638 C636 1.246 . S
C639 O623 1.245 . S
C639 O624 1.259 . S
Tb640 O643 2.453 . S
Tb640 O644 2.596 . S
Tb640 O645 2.374 . S
Tb640 O653 2.343 . S
Tb640 O655 2.353 . S
Tb640 O657 2.427 . S
Tb640 O658 2.513 . S
C641 O645 1.251 . S
C641 O647 1.263 . S
Tb642 O644 2.343 . S
Tb642 O647 2.353 . S
Tb642 O650 2.427 . S
Tb642 O651 2.513 . S
Tb642 O652 2.453 . S
Tb642 O653 2.596 . S
Tb642 O654 2.374 . S
O643 Tb640 2.453 . S
O643 C659 1.245 . S
O644 Tb640 2.596 . S
O644 Tb642 2.343 . S
O644 C659 1.259 . S
O645 Tb640 2.374 . S
O645 C641 1.251 . S
C646 O650 1.275 . S
C646 O651 1.246 . S
O647 C641 1.263 . S
O647 Tb642 2.353 . S
C648 O652 1.245 . S
C648 O653 1.259 . S
C649 O654 1.250 . S
C649 O655 1.263 . S
O650 Tb642 2.427 . S
O650 C646 1.275 . S
O651 Tb642 2.513 . S
O651 C646 1.246 . S
O652 Tb642 2.453 . S
O652 C648 1.245 . S
O653 Tb640 2.343 . S
O653 Tb642 2.596 . S
O653 C648 1.259 . S
O654 Tb642 2.374 . S
O654 C649 1.250 . S
O655 Tb640 2.353 . S
O655 C649 1.263 . S
C656 O657 1.275 . S
C656 O658 1.246 . S
O657 Tb640 2.427 . S
O657 C656 1.275 . S
O658 Tb640 2.513 . S
O658 C656 1.246 . S
C659 O643 1.245 . S
C659 O644 1.259 . S
Tb660 O663 2.453 . S
Tb660 O664 2.596 . S
Tb660 O665 2.374 . S
Tb660 O673 2.343 . S
Tb660 O675 2.353 . S
Tb660 O677 2.427 . S
Tb660 O678 2.513 . S
C661 O665 1.251 . S
C661 O667 1.263 . S
Tb662 O664 2.343 . S
Tb662 O667 2.353 . S
Tb662 O670 2.427 . S
Tb662 O671 2.513 . S
Tb662 O672 2.453 . S
Tb662 O673 2.596 . S
Tb662 O674 2.374 . S
O663 Tb660 2.453 . S
O663 C679 1.245 . S
O664 Tb660 2.596 . S
O664 Tb662 2.343 . S
O664 C679 1.259 . S
O665 Tb660 2.374 . S
O665 C661 1.251 . S
C666 O670 1.275 . S
C666 O671 1.246 . S
O667 C661 1.263 . S
O667 Tb662 2.353 . S
C668 O672 1.245 . S
C668 O673 1.259 . S
C669 O674 1.250 . S
C669 O675 1.263 . S
O670 Tb662 2.427 . S
O670 C666 1.275 . S
O671 Tb662 2.513 . S
O671 C666 1.246 . S
O672 Tb662 2.453 . S
O672 C668 1.245 . S
O673 Tb660 2.343 . S
O673 Tb662 2.596 . S
O673 C668 1.259 . S
O674 Tb662 2.374 . S
O674 C669 1.250 . S
O675 Tb660 2.353 . S
O675 C669 1.263 . S
C676 O677 1.275 . S
C676 O678 1.246 . S
O677 Tb660 2.427 . S
O677 C676 1.275 . S
O678 Tb660 2.513 . S
O678 C676 1.246 . S
C679 O663 1.245 . S
C679 O664 1.259 . S
Tb680 O683 2.453 . S
Tb680 O684 2.596 . S
Tb680 O685 2.374 . S
Tb680 O693 2.343 . S
Tb680 O695 2.353 . S
Tb680 O697 2.427 . S
Tb680 O698 2.513 . S
C681 O685 1.251 . S
C681 O687 1.263 . S
Tb682 O684 2.343 . S
Tb682 O687 2.353 . S
Tb682 O690 2.427 . S
Tb682 O691 2.513 . S
Tb682 O692 2.453 . S
Tb682 O693 2.596 . S
Tb682 O694 2.374 . S
O683 Tb680 2.453 . S
O683 C699 1.245 . S
O684 Tb680 2.596 . S
O684 Tb682 2.343 . S
O684 C699 1.259 . S
O685 Tb680 2.374 . S
O685 C681 1.251 . S
C686 O690 1.275 . S
C686 O691 1.246 . S
O687 C681 1.263 . S
O687 Tb682 2.353 . S
C688 O692 1.245 . S
C688 O693 1.259 . S
C689 O694 1.250 . S
C689 O695 1.263 . S
O690 Tb682 2.427 . S
O690 C686 1.275 . S
O691 Tb682 2.513 . S
O691 C686 1.246 . S
O692 Tb682 2.453 . S
O692 C688 1.245 . S
O693 Tb680 2.343 . S
O693 Tb682 2.596 . S
O693 C688 1.259 . S
O694 Tb682 2.374 . S
O694 C689 1.250 . S
O695 Tb680 2.353 . S
O695 C689 1.263 . S
C696 O697 1.275 . S
C696 O698 1.246 . S
O697 Tb680 2.427 . S
O697 C696 1.275 . S
O698 Tb680 2.513 . S
O698 C696 1.246 . S
C699 O683 1.245 . S
C699 O684 1.259 . S
Tb700 O703 2.453 . S
Tb700 O704 2.596 . S
Tb700 O705 2.374 . S
Tb700 O713 2.343 . S
Tb700 O715 2.353 . S
Tb700 O717 2.427 . S
Tb700 O718 2.513 . S
C701 O705 1.251 . S
C701 O707 1.263 . S
Tb702 O704 2.343 . S
Tb702 O707 2.353 . S
Tb702 O710 2.427 . S
Tb702 O711 2.513 . S
Tb702 O712 2.453 . S
Tb702 O713 2.596 . S
Tb702 O714 2.374 . S
O703 Tb700 2.453 . S
O703 C719 1.245 . S
O704 Tb700 2.596 . S
O704 Tb702 2.343 . S
O704 C719 1.259 . S
O705 Tb700 2.374 . S
O705 C701 1.251 . S
C706 O710 1.275 . S
C706 O711 1.246 . S
O707 C701 1.263 . S
O707 Tb702 2.353 . S
C708 O712 1.245 . S
C708 O713 1.259 . S
C709 O714 1.250 . S
C709 O715 1.263 . S
O710 Tb702 2.427 . S
O710 C706 1.275 . S
O711 Tb702 2.513 . S
O711 C706 1.246 . S
O712 Tb702 2.453 . S
O712 C708 1.245 . S
O713 Tb700 2.343 . S
O713 Tb702 2.596 . S
O713 C708 1.259 . S
O714 Tb702 2.374 . S
O714 C709 1.250 . S
O715 Tb700 2.353 . S
O715 C709 1.263 . S
C716 O717 1.275 . S
C716 O718 1.246 . S
O717 Tb700 2.427 . S
O717 C716 1.275 . S
O718 Tb700 2.513 . S
O718 C716 1.246 . S
C719 O703 1.245 . S
C719 O704 1.259 . S
C720 C721 1.387 1_556 S
C720 H724 0.950 . S
C720 C729 1.390 . S
C721 C720 1.387 1_554 S
C721 C723 1.387 . S
H722 C729 0.950 . S
C723 C721 1.387 . S
C723 C725 1.390 . S
C723 H727 0.950 . S
H724 C720 0.950 . S
C725 C723 1.390 . S
C725 C726 1.387 . S
C725 H728 0.950 . S
C726 C725 1.387 . S
C726 C729 1.387 1_554 S
H727 C723 0.950 . S
H728 C725 0.950 . S
C729 C720 1.390 . S
C729 H722 0.950 . S
C729 C726 1.387 1_556 S
C730 C731 1.387 . S
C730 H734 0.950 . S
C730 C739 1.390 . S
C731 C730 1.387 . S
C731 C733 1.387 1_554 S
H732 C739 0.950 . S
C733 C731 1.387 1_556 S
C733 C735 1.390 . S
C733 H737 0.950 . S
H734 C730 0.950 . S
C735 C733 1.390 . S
C735 C736 1.387 1_556 S
C735 H738 0.950 . S
C736 C735 1.387 1_554 S
C736 C739 1.387 . S
H737 C733 0.950 . S
H738 C735 0.950 . S
C739 C730 1.390 . S
C739 H732 0.950 . S
C739 C736 1.387 . S
C740 C741 1.387 1_556 S
C740 H744 0.950 . S
C740 C749 1.386 1_556 S
C741 C740 1.387 1_554 S
C741 C743 1.387 . S
H742 C749 0.945 1_556 S
C743 C741 1.387 . S
C743 C745 1.390 . S
C743 H747 0.950 . S
H744 C740 0.950 . S
C745 C743 1.390 . S
C745 C746 1.387 . S
C745 H748 0.950 . S
C746 C745 1.387 . S
C746 C749 1.397 . S
H747 C743 0.950 . S
H748 C745 0.950 . S
C749 C740 1.386 1_554 S
C749 H742 0.945 1_554 S
C749 C746 1.397 . S
C750 C751 1.387 . S
C750 H754 0.950 . S
C750 C759 1.390 . S
C751 C750 1.387 . S
C751 C753 1.387 . S
H752 C759 0.950 . S
C753 C751 1.387 . S
C753 C755 1.390 . S
C753 H757 0.950 . S
H754 C750 0.950 . S
C755 C753 1.390 . S
C755 C756 1.387 . S
C755 H758 0.950 . S
C756 C755 1.387 . S
C756 C759 1.387 . S
H757 C753 0.950 . S
H758 C755 0.950 . S
C759 C750 1.390 . S
C759 H752 0.950 . S
C759 C756 1.387 . S
C760 C761 1.387 . S
C760 H764 0.950 . S
C760 C769 1.390 . S
C761 C760 1.387 . S
C761 C763 1.387 . S
H762 C769 0.950 . S
C763 C761 1.387 . S
C763 C765 1.390 . S
C763 H767 0.950 . S
H764 C760 0.950 . S
C765 C763 1.390 . S
C765 C766 1.387 . S
C765 H768 0.950 . S
C766 C765 1.387 . S
C766 C769 1.387 . S
H767 C763 0.950 . S
H768 C765 0.950 . S
C769 C760 1.390 . S
C769 H762 0.950 . S
C769 C766 1.387 . S
C770 C771 1.387 . S
C770 H774 0.950 . S
C770 C779 1.390 . S
C771 C770 1.387 . S
C771 C773 1.387 . S
H772 C779 0.950 . S
C773 C771 1.387 . S
C773 C775 1.390 . S
C773 H777 0.950 . S
H774 C770 0.950 . S
C775 C773 1.390 . S
C775 C776 1.387 . S
C775 H778 0.950 . S
C776 C775 1.387 . S
C776 C779 1.387 . S
H777 C773 0.950 . S
H778 C775 0.950 . S
C779 C770 1.390 . S
C779 H772 0.950 . S
C779 C776 1.387 . S
C780 C781 1.387 . S
C780 H784 0.950 . S
C780 C789 1.390 . S
C781 C780 1.387 . S
C781 C783 1.387 1_556 S
H782 C789 0.950 . S
C783 C781 1.387 1_554 S
C783 C785 1.390 . S
C783 H787 0.950 . S
H784 C780 0.950 . S
C785 C783 1.390 . S
C785 C786 1.387 1_554 S
C785 H788 0.950 . S
C786 C785 1.387 1_556 S
C786 C789 1.387 . S
H787 C783 0.950 . S
H788 C785 0.950 . S
C789 C780 1.390 . S
C789 H782 0.950 . S
C789 C786 1.387 . S
C790 C791 1.387 1_554 S
C790 H794 0.950 . S
C790 C799 1.390 . S
C791 C790 1.387 1_556 S
C791 C793 1.387 . S
H792 C799 0.950 . S
C793 C791 1.387 . S
C793 C795 1.390 . S
C793 H797 0.950 . S
H794 C790 0.950 . S
C795 C793 1.390 . S
C795 C796 1.387 . S
C795 H798 0.950 . S
C796 C795 1.387 . S
C796 C799 1.387 1_556 S
H797 C793 0.950 . S
H798 C795 0.950 . S
C799 C790 1.390 . S
C799 H792 0.950 . S
C799 C796 1.387 1_554 S
C800 C801 1.387 . S
C800 H804 0.950 . S
C800 C809 1.390 . S
C801 C800 1.387 . S
C801 C803 1.387 1_556 S
H802 C809 0.950 . S
C803 C801 1.387 1_554 S
C803 C805 1.390 1_554 S
C803 H807 0.950 . S
H804 C800 0.950 . S
C805 C803 1.390 1_556 S
C805 C806 1.387 . S
C805 H808 0.950 1_556 S
C806 C805 1.387 . S
C806 C809 1.387 . S
H807 C803 0.950 . S
H808 C805 0.950 1_554 S
C809 C800 1.390 . S
C809 H802 0.950 . S
C809 C806 1.387 . S
C810 C811 1.387 . S
C810 H814 0.950 . S
C810 C819 1.390 . S
C811 C810 1.387 . S
C811 C813 1.387 . S
H812 C819 0.950 . S
C813 C811 1.387 . S
C813 C815 1.390 . S
C813 H817 0.950 . S
H814 C810 0.950 . S
C815 C813 1.390 . S
C815 C816 1.387 . S
C815 H818 0.950 . S
C816 C815 1.387 . S
C816 C819 1.387 . S
H817 C813 0.950 . S
H818 C815 0.950 . S
C819 C810 1.390 . S
C819 H812 0.950 . S
C819 C816 1.387 . S
C820 C821 1.387 . S
C820 H824 0.950 . S
C820 C829 1.390 . S
C821 C820 1.387 . S
C821 C823 1.387 . S
H822 C829 0.950 . S
C823 C821 1.387 . S
C823 C825 1.390 . S
C823 H827 0.950 . S
H824 C820 0.950 . S
C825 C823 1.390 . S
C825 C826 1.387 . S
C825 H828 0.950 . S
C826 C825 1.387 . S
C826 C829 1.387 . S
H827 C823 0.950 . S
H828 C825 0.950 . S
C829 C820 1.390 . S
C829 H822 0.950 . S
C829 C826 1.387 . S
C830 C831 1.387 . S
C830 H834 0.950 . S
C830 C839 1.390 . S
C831 C830 1.387 . S
C831 C833 1.387 . S
H832 C839 0.950 . S
C833 C831 1.387 . S
C833 C835 1.390 . S
C833 H837 0.950 . S
H834 C830 0.950 . S
C835 C833 1.390 . S
C835 C836 1.387 . S
C835 H838 0.950 . S
C836 C835 1.387 . S
C836 C839 1.387 . S
H837 C833 0.950 . S
H838 C835 0.950 . S
C839 C830 1.390 . S
C839 H832 0.950 . S
C839 C836 1.387 . S
C840 C841 1.387 . S
C840 H844 0.950 . S
C840 C849 1.390 . S
C841 C840 1.387 . S
C841 C843 1.387 . S
H842 C849 0.950 . S
C843 C841 1.387 . S
C843 C845 1.390 . S
C843 H847 0.950 . S
H844 C840 0.950 . S
C845 C843 1.390 . S
C845 C846 1.387 . S
C845 H848 0.950 . S
C846 C845 1.387 . S
C846 C849 1.387 . S
H847 C843 0.950 . S
H848 C845 0.950 . S
C849 C840 1.390 . S
C849 H842 0.950 . S
C849 C846 1.387 . S
C850 C851 1.387 . S
C850 H854 0.950 . S
C850 C859 1.390 . S
C851 C850 1.387 . S
C851 C853 1.387 . S
H852 C859 0.950 . S
C853 C851 1.387 . S
C853 C855 1.390 . S
C853 H857 0.950 . S
H854 C850 0.950 . S
C855 C853 1.390 . S
C855 C856 1.387 . S
C855 H858 0.950 . S
C856 C855 1.387 . S
C856 C859 1.387 . S
H857 C853 0.950 . S
H858 C855 0.950 . S
C859 C850 1.390 . S
C859 H852 0.950 . S
C859 C856 1.387 . S
C860 C861 1.387 . S
C860 H864 0.950 . S
C860 C869 1.390 . S
C861 C860 1.387 . S
C861 C863 1.387 . S
H862 C869 0.950 . S
C863 C861 1.387 . S
C863 C865 1.390 . S
C863 H867 0.950 . S
H864 C860 0.950 . S
C865 C863 1.390 . S
C865 C866 1.387 . S
C865 H868 0.950 . S
C866 C865 1.387 . S
C866 C869 1.387 . S
H867 C863 0.950 . S
H868 C865 0.950 . S
C869 C860 1.390 . S
C869 H862 0.950 . S
C869 C866 1.387 . S
C870 C871 1.387 . S
C870 H874 0.950 . S
C870 C879 1.390 . S
C871 C870 1.387 . S
C871 C873 1.387 . S
H872 C879 0.950 . S
C873 C871 1.387 . S
C873 C875 1.390 . S
C873 H877 0.950 . S
H874 C870 0.950 . S
C875 C873 1.390 . S
C875 C876 1.387 . S
C875 H878 0.950 . S
C876 C875 1.387 . S
C876 C879 1.387 . S
H877 C873 0.950 . S
H878 C875 0.950 . S
C879 C870 1.390 . S
C879 H872 0.950 . S
C879 C876 1.387 . S
C880 C881 1.387 . S
C880 H884 0.950 . S
C880 C889 1.390 . S
C881 C880 1.387 . S
C881 C883 1.387 . S
H882 C889 0.950 . S
C883 C881 1.387 . S
C883 C885 1.390 . S
C883 H887 0.950 . S
H884 C880 0.950 . S
C885 C883 1.390 . S
C885 C886 1.387 . S
C885 H888 0.950 . S
C886 C885 1.387 . S
C886 C889 1.387 . S
H887 C883 0.950 . S
H888 C885 0.950 . S
C889 C880 1.390 . S
C889 H882 0.950 . S
C889 C886 1.387 . S
C890 C891 1.387 . S
C890 H894 0.950 . S
C890 C899 1.390 . S
C891 C890 1.387 . S
C891 C893 1.387 . S
H892 C899 0.950 . S
C893 C891 1.387 . S
C893 C895 1.390 . S
C893 H897 0.950 . S
H894 C890 0.950 . S
C895 C893 1.390 . S
C895 C896 1.387 . S
C895 H898 0.950 . S
C896 C895 1.387 . S
C896 C899 1.387 . S
H897 C893 0.950 . S
H898 C895 0.950 . S
C899 C890 1.390 . S
C899 H892 0.950 . S
C899 C896 1.387 . S
C900 C901 1.387 . S
C900 H904 0.950 . S
C900 C909 1.390 . S
C901 C900 1.387 . S
C901 C903 1.387 . S
H902 C909 0.950 . S
C903 C901 1.387 . S
C903 C905 1.390 . S
C903 H907 0.950 . S
H904 C900 0.950 . S
C905 C903 1.390 . S
C905 C906 1.387 . S
C905 H908 0.950 . S
C906 C905 1.387 . S
C906 C909 1.387 . S
H907 C903 0.950 . S
H908 C905 0.950 . S
C909 C900 1.390 . S
C909 H902 0.950 . S
C909 C906 1.387 . S
C910 C911 1.387 . S
C910 H914 0.950 . S
C910 C919 1.390 . S
C911 C910 1.387 . S
C911 C913 1.387 . S
H912 C919 0.950 . S
C913 C911 1.387 . S
C913 C915 1.390 . S
C913 H917 0.950 . S
H914 C910 0.950 . S
C915 C913 1.390 . S
C915 C916 1.387 . S
C915 H918 0.950 . S
C916 C915 1.387 . S
C916 C919 1.387 . S
H917 C913 0.950 . S
H918 C915 0.950 . S
C919 C910 1.390 . S
C919 H912 0.950 . S
C919 C916 1.387 . S
C920 C921 1.387 . S
C920 H924 0.950 . S
C920 C929 1.390 . S
C921 C920 1.387 . S
C921 C923 1.387 . S
H922 C929 0.950 . S
C923 C921 1.387 . S
C923 C925 1.390 . S
C923 H927 0.950 . S
H924 C920 0.950 . S
C925 C923 1.390 . S
C925 C926 1.387 . S
C925 H928 0.950 . S
C926 C925 1.387 . S
C926 C929 1.387 . S
H927 C923 0.950 . S
H928 C925 0.950 . S
C929 C920 1.390 . S
C929 H922 0.950 . S
C929 C926 1.387 . S
C930 C931 1.387 . S
C930 H934 0.950 . S
C930 C939 1.390 . S
C931 C930 1.387 . S
C931 C933 1.387 . S
H932 C939 0.950 . S
C933 C931 1.387 . S
C933 C935 1.390 . S
C933 H937 0.950 . S
H934 C930 0.950 . S
C935 C933 1.390 . S
C935 C936 1.387 . S
C935 H938 0.950 . S
C936 C935 1.387 . S
C936 C939 1.387 . S
H937 C933 0.950 . S
H938 C935 0.950 . S
C939 C930 1.390 . S
C939 H932 0.950 . S
C939 C936 1.387 . S
C940 C941 1.387 . S
C940 H944 0.950 . S
C940 C949 1.390 . S
C941 C940 1.387 . S
C941 C943 1.387 . S
H942 C949 0.950 . S
C943 C941 1.387 . S
C943 C945 1.390 . S
C943 H947 0.950 . S
H944 C940 0.950 . S
C945 C943 1.390 . S
C945 C946 1.387 . S
C945 H948 0.950 . S
C946 C945 1.387 . S
C946 C949 1.387 . S
H947 C943 0.950 . S
H948 C945 0.950 . S
C949 C940 1.390 . S
C949 H942 0.950 . S
C949 C946 1.387 . S
C950 C951 1.387 . S
C950 H954 0.950 . S
C950 C959 1.390 . S
C951 C950 1.387 . S
C951 C953 1.387 . S
H952 C959 0.950 . S
C953 C951 1.387 . S
C953 C955 1.390 . S
C953 H957 0.950 . S
H954 C950 0.950 . S
C955 C953 1.390 . S
C955 C956 1.387 . S
C955 H958 0.950 . S
C956 C955 1.387 . S
C956 C959 1.387 . S
H957 C953 0.950 . S
H958 C955 0.950 . S
C959 C950 1.390 . S
C959 H952 0.950 . S
C959 C956 1.387 . S
C960 C961 1.387 . S
C960 H964 0.950 . S
C960 C969 1.390 . S
C961 C960 1.387 . S
C961 C963 1.387 . S
H962 C969 0.950 . S
C963 C961 1.387 . S
C963 C965 1.390 . S
C963 H967 0.950 . S
H964 C960 0.950 . S
C965 C963 1.390 . S
C965 C966 1.387 . S
C965 H968 0.950 . S
C966 C965 1.387 . S
C966 C969 1.387 . S
H967 C963 0.950 . S
H968 C965 0.950 . S
C969 C960 1.390 . S
C969 H962 0.950 . S
C969 C966 1.387 . S
C970 C971 1.387 . S
C970 H974 0.950 . S
C970 C979 1.390 . S
C971 C970 1.387 . S
C971 C973 1.387 . S
H972 C979 0.950 . S
C973 C971 1.387 . S
C973 C975 1.390 . S
C973 H977 0.950 . S
H974 C970 0.950 . S
C975 C973 1.390 . S
C975 C976 1.387 . S
C975 H978 0.950 . S
C976 C975 1.387 . S
C976 C979 1.387 . S
H977 C973 0.950 . S
H978 C975 0.950 . S
C979 C970 1.390 . S
C979 H972 0.950 . S
C979 C976 1.387 . S
C980 C981 1.387 . S
C980 H984 0.950 . S
C980 C989 1.390 . S
C981 C980 1.387 . S
C981 C983 1.387 . S
H982 C989 0.950 . S
C983 C981 1.387 . S
C983 C985 1.390 . S
C983 H987 0.950 . S
H984 C980 0.950 . S
C985 C983 1.390 . S
C985 C986 1.387 . S
C985 H988 0.950 . S
C986 C985 1.387 . S
C986 C989 1.387 . S
H987 C983 0.950 . S
H988 C985 0.950 . S
C989 C980 1.390 . S
C989 H982 0.950 . S
C989 C986 1.387 . S
C990 C991 1.387 . S
C990 H994 0.950 . S
C990 C999 1.390 . S
C991 C990 1.387 . S
C991 C993 1.387 . S
H992 C999 0.950 . S
C993 C991 1.387 . S
C993 C995 1.390 . S
C993 H997 0.950 . S
H994 C990 0.950 . S
C995 C993 1.390 . S
C995 C996 1.387 . S
C995 H998 0.950 . S
C996 C995 1.387 . S
C996 C999 1.387 . S
H997 C993 0.950 . S
H998 C995 0.950 . S
C999 C990 1.390 . S
C999 H992 0.950 . S
C999 C996 1.387 . S
C1000 C1001 1.387 . S
C1000 H1004 0.950 . S
C1000 C1009 1.390 . S
C1001 C1000 1.387 . S
C1001 C1003 1.387 . S
H1002 C1009 0.950 . S
C1003 C1001 1.387 . S
C1003 C1005 1.390 . S
C1003 H1007 0.950 . S
H1004 C1000 0.950 . S
C1005 C1003 1.390 . S
C1005 C1006 1.387 . S
C1005 H1008 0.950 . S
C1006 C1005 1.387 . S
C1006 C1009 1.387 . S
H1007 C1003 0.950 . S
H1008 C1005 0.950 . S
C1009 C1000 1.390 . S
C1009 H1002 0.950 . S
C1009 C1006 1.387 . S
C1010 C1011 1.387 . S
C1010 H1014 0.950 . S
C1010 C1019 1.390 . S
C1011 C1010 1.387 . S
C1011 C1013 1.387 . S
H1012 C1019 0.950 . S
C1013 C1011 1.387 . S
C1013 C1015 1.390 . S
C1013 H1017 0.950 . S
H1014 C1010 0.950 . S
C1015 C1013 1.390 . S
C1015 C1016 1.387 . S
C1015 H1018 0.950 . S
C1016 C1015 1.387 . S
C1016 C1019 1.387 . S
H1017 C1013 0.950 . S
H1018 C1015 0.950 . S
C1019 C1010 1.390 . S
C1019 H1012 0.950 . S
C1019 C1016 1.387 . S
C1020 C1021 1.387 . S
C1020 H1024 0.950 . S
C1020 C1029 1.390 . S
C1021 C1020 1.387 . S
C1021 C1023 1.387 . S
H1022 C1029 0.950 . S
C1023 C1021 1.387 . S
C1023 C1025 1.390 . S
C1023 H1027 0.950 . S
H1024 C1020 0.950 . S
C1025 C1023 1.390 . S
C1025 C1026 1.387 . S
C1025 H1028 0.950 . S
C1026 C1025 1.387 . S
C1026 C1029 1.387 . S
H1027 C1023 0.950 . S
H1028 C1025 0.950 . S
C1029 C1020 1.390 . S
C1029 H1022 0.950 . S
C1029 C1026 1.387 . S
C1030 C1031 1.387 . S
C1030 H1034 0.950 . S
C1030 C1039 1.390 . S
C1031 C1030 1.387 . S
C1031 C1033 1.387 . S
H1032 C1039 0.950 . S
C1033 C1031 1.387 . S
C1033 C1035 1.390 . S
C1033 H1037 0.950 . S
H1034 C1030 0.950 . S
C1035 C1033 1.390 . S
C1035 C1036 1.387 . S
C1035 H1038 0.950 . S
C1036 C1035 1.387 . S
C1036 C1039 1.387 . S
H1037 C1033 0.950 . S
H1038 C1035 0.950 . S
C1039 C1030 1.390 . S
C1039 H1032 0.950 . S
C1039 C1036 1.387 . S
C1040 C1041 1.387 . S
C1040 H1044 0.950 . S
C1040 C1049 1.390 . S
C1041 C1040 1.387 . S
C1041 C1043 1.387 . S
H1042 C1049 0.950 . S
C1043 C1041 1.387 . S
C1043 C1045 1.390 . S
C1043 H1047 0.950 . S
H1044 C1040 0.950 . S
C1045 C1043 1.390 . S
C1045 C1046 1.387 . S
C1045 H1048 0.950 . S
C1046 C1045 1.387 . S
C1046 C1049 1.387 . S
H1047 C1043 0.950 . S
H1048 C1045 0.950 . S
C1049 C1040 1.390 . S
C1049 H1042 0.950 . S
C1049 C1046 1.387 . S
C1050 C1051 1.387 . S
C1050 H1054 0.950 . S
C1050 C1059 1.390 . S
C1051 C1050 1.387 . S
C1051 C1053 1.387 . S
H1052 C1059 0.950 . S
C1053 C1051 1.387 . S
C1053 C1055 1.390 . S
C1053 H1057 0.950 . S
H1054 C1050 0.950 . S
C1055 C1053 1.390 . S
C1055 C1056 1.387 . S
C1055 H1058 0.950 . S
C1056 C1055 1.387 . S
C1056 C1059 1.387 . S
H1057 C1053 0.950 . S
H1058 C1055 0.950 . S
C1059 C1050 1.390 . S
C1059 H1052 0.950 . S
C1059 C1056 1.387 . S
C1060 C1061 1.387 . S
C1060 H1064 0.950 . S
C1060 C1069 1.390 . S
C1061 C1060 1.387 . S
C1061 C1063 1.387 . S
H1062 C1069 0.950 . S
C1063 C1061 1.387 . S
C1063 C1065 1.390 . S
C1063 H1067 0.950 . S
H1064 C1060 0.950 . S
C1065 C1063 1.390 . S
C1065 C1066 1.387 . S
C1065 H1068 0.950 . S
C1066 C1065 1.387 . S
C1066 C1069 1.387 . S
H1067 C1063 0.950 . S
H1068 C1065 0.950 . S
C1069 C1060 1.390 . S
C1069 H1062 0.950 . S
C1069 C1066 1.387 . S
C1070 C1071 1.387 . S
C1070 H1074 0.950 . S
C1070 C1079 1.390 . S
C1071 C1070 1.387 . S
C1071 C1073 1.387 . S
H1072 C1079 0.950 . S
C1073 C1071 1.387 . S
C1073 C1075 1.390 . S
C1073 H1077 0.950 . S
H1074 C1070 0.950 . S
C1075 C1073 1.390 . S
C1075 C1076 1.387 . S
C1075 H1078 0.950 . S
C1076 C1075 1.387 . S
C1076 C1079 1.387 . S
H1077 C1073 0.950 . S
H1078 C1075 0.950 . S
C1079 C1070 1.390 . S
C1079 H1072 0.950 . S
C1079 C1076 1.387 . S
C1080 C1081 1.387 . S
C1080 H1084 0.950 . S
C1080 C1089 1.390 . S
C1081 C1080 1.387 . S
C1081 C1083 1.387 . S
H1082 C1089 0.950 . S
C1083 C1081 1.387 . S
C1083 C1085 1.390 . S
C1083 H1087 0.950 . S
H1084 C1080 0.950 . S
C1085 C1083 1.390 . S
C1085 C1086 1.387 . S
C1085 H1088 0.950 . S
C1086 C1085 1.387 . S
C1086 C1089 1.387 . S
H1087 C1083 0.950 . S
H1088 C1085 0.950 . S
C1089 C1080 1.390 . S
C1089 H1082 0.950 . S
C1089 C1086 1.387 . S
C1090 C1091 1.387 . S
C1090 H1094 0.950 . S
C1090 C1099 1.390 . S
C1091 C1090 1.387 . S
C1091 C1093 1.387 . S
H1092 C1099 0.950 . S
C1093 C1091 1.387 . S
C1093 C1095 1.390 . S
C1093 H1097 0.950 . S
H1094 C1090 0.950 . S
C1095 C1093 1.390 . S
C1095 C1096 1.387 . S
C1095 H1098 0.950 . S
C1096 C1095 1.387 . S
C1096 C1099 1.387 . S
H1097 C1093 0.950 . S
H1098 C1095 0.950 . S
C1099 C1090 1.390 . S
C1099 H1092 0.950 . S
C1099 C1096 1.387 . S
C1100 C1101 1.387 . S
C1100 H1104 0.950 . S
C1100 C1109 1.390 . S
C1101 C1100 1.387 . S
C1101 C1103 1.387 . S
H1102 C1109 0.950 . S
C1103 C1101 1.387 . S
C1103 C1105 1.390 . S
C1103 H1107 0.950 . S
H1104 C1100 0.950 . S
C1105 C1103 1.390 . S
C1105 C1106 1.387 . S
C1105 H1108 0.950 . S
C1106 C1105 1.387 . S
C1106 C1109 1.387 . S
H1107 C1103 0.950 . S
H1108 C1105 0.950 . S
C1109 C1100 1.390 . S
C1109 H1102 0.950 . S
C1109 C1106 1.387 . S
C1110 C1111 1.387 . S
C1110 H1114 0.950 . S
C1110 C1119 1.390 . S
C1111 C1110 1.387 . S
C1111 C1113 1.387 . S
H1112 C1119 0.950 . S
C1113 C1111 1.387 . S
C1113 C1115 1.390 . S
C1113 H1117 0.950 . S
H1114 C1110 0.950 . S
C1115 C1113 1.390 . S
C1115 C1116 1.387 . S
C1115 H1118 0.950 . S
C1116 C1115 1.387 . S
C1116 C1119 1.387 . S
H1117 C1113 0.950 . S
H1118 C1115 0.950 . S
C1119 C1110 1.390 . S
C1119 H1112 0.950 . S
C1119 C1116 1.387 . S
C1120 C1121 1.387 . S
C1120 H1124 0.950 . S
C1120 C1129 1.390 . S
C1121 C1120 1.387 . S
C1121 C1123 1.387 . S
H1122 C1129 0.950 . S
C1123 C1121 1.387 . S
C1123 C1125 1.390 . S
C1123 H1127 0.950 . S
H1124 C1120 0.950 . S
C1125 C1123 1.390 . S
C1125 C1126 1.387 . S
C1125 H1128 0.950 . S
C1126 C1125 1.387 . S
C1126 C1129 1.387 . S
H1127 C1123 0.950 . S
H1128 C1125 0.950 . S
C1129 C1120 1.390 . S
C1129 H1122 0.950 . S
C1129 C1126 1.387 . S
C1130 C1131 1.387 . S
C1130 H1134 0.950 . S
C1130 C1139 1.390 . S
C1131 C1130 1.387 . S
C1131 C1133 1.387 . S
H1132 C1139 0.950 . S
C1133 C1131 1.387 . S
C1133 C1135 1.390 . S
C1133 H1137 0.950 . S
H1134 C1130 0.950 . S
C1135 C1133 1.390 . S
C1135 C1136 1.387 . S
C1135 H1138 0.950 . S
C1136 C1135 1.387 . S
C1136 C1139 1.387 . S
H1137 C1133 0.950 . S
H1138 C1135 0.950 . S
C1139 C1130 1.390 . S
C1139 H1132 0.950 . S
C1139 C1136 1.387 . S
C1140 C1141 1.387 . S
C1140 H1144 0.950 . S
C1140 C1149 1.390 . S
C1141 C1140 1.387 . S
C1141 C1143 1.387 . S
H1142 C1149 0.950 . S
C1143 C1141 1.387 . S
C1143 C1145 1.390 . S
C1143 H1147 0.950 . S
H1144 C1140 0.950 . S
C1145 C1143 1.390 . S
C1145 C1146 1.387 . S
C1145 H1148 0.950 . S
C1146 C1145 1.387 . S
C1146 C1149 1.387 . S
H1147 C1143 0.950 . S
H1148 C1145 0.950 . S
C1149 C1140 1.390 . S
C1149 H1142 0.950 . S
C1149 C1146 1.387 . S
C1150 C1151 1.387 . S
C1150 H1154 0.950 . S
C1150 C1159 1.390 . S
C1151 C1150 1.387 . S
C1151 C1153 1.387 . S
H1152 C1159 0.950 . S
C1153 C1151 1.387 . S
C1153 C1155 1.390 . S
C1153 H1157 0.950 . S
H1154 C1150 0.950 . S
C1155 C1153 1.390 . S
C1155 C1156 1.387 . S
C1155 H1158 0.950 . S
C1156 C1155 1.387 . S
C1156 C1159 1.387 . S
H1157 C1153 0.950 . S
H1158 C1155 0.950 . S
C1159 C1150 1.390 . S
C1159 H1152 0.950 . S
C1159 C1156 1.387 . S
C1160 C1161 1.387 . S
C1160 H1164 0.950 . S
C1160 C1169 1.390 . S
C1161 C1160 1.387 . S
C1161 C1163 1.387 . S
H1162 C1169 0.950 . S
C1163 C1161 1.387 . S
C1163 C1165 1.390 . S
C1163 H1167 0.950 . S
H1164 C1160 0.950 . S
C1165 C1163 1.390 . S
C1165 C1166 1.387 . S
C1165 H1168 0.950 . S
C1166 C1165 1.387 . S
C1166 C1169 1.387 . S
H1167 C1163 0.950 . S
H1168 C1165 0.950 . S
C1169 C1160 1.390 . S
C1169 H1162 0.950 . S
C1169 C1166 1.387 . S
C1170 C1171 1.387 . S
C1170 H1174 0.950 . S
C1170 C1179 1.390 . S
C1171 C1170 1.387 . S
C1171 C1173 1.387 . S
H1172 C1179 0.950 . S
C1173 C1171 1.387 . S
C1173 C1175 1.390 . S
C1173 H1177 0.950 . S
H1174 C1170 0.950 . S
C1175 C1173 1.390 . S
C1175 C1176 1.387 . S
C1175 H1178 0.950 . S
C1176 C1175 1.387 . S
C1176 C1179 1.387 . S
H1177 C1173 0.950 . S
H1178 C1175 0.950 . S
C1179 C1170 1.390 . S
C1179 H1172 0.950 . S
C1179 C1176 1.387 . S
C1180 C1181 1.387 . S
C1180 H1184 0.950 . S
C1180 C1189 1.390 . S
C1181 C1180 1.387 . S
C1181 C1183 1.387 . S
H1182 C1189 0.950 . S
C1183 C1181 1.387 . S
C1183 C1185 1.390 . S
C1183 H1187 0.950 . S
H1184 C1180 0.950 . S
C1185 C1183 1.390 . S
C1185 C1186 1.387 . S
C1185 H1188 0.950 . S
C1186 C1185 1.387 . S
C1186 C1189 1.387 . S
H1187 C1183 0.950 . S
H1188 C1185 0.950 . S
C1189 C1180 1.390 . S
C1189 H1182 0.950 . S
C1189 C1186 1.387 . S
C1190 C1191 1.387 . S
C1190 H1194 0.950 . S
C1190 C1199 1.390 . S
C1191 C1190 1.387 . S
C1191 C1193 1.387 . S
H1192 C1199 0.950 . S
C1193 C1191 1.387 . S
C1193 C1195 1.390 . S
C1193 H1197 0.950 . S
H1194 C1190 0.950 . S
C1195 C1193 1.390 . S
C1195 C1196 1.387 . S
C1195 H1198 0.950 . S
C1196 C1195 1.387 . S
C1196 C1199 1.387 . S
H1197 C1193 0.950 . S
H1198 C1195 0.950 . S
C1199 C1190 1.390 . S
C1199 H1192 0.950 . S
C1199 C1196 1.387 . S
C1200 C1201 1.387 . S
C1200 H1204 0.950 . S
C1200 C1209 1.390 . S
C1201 C1200 1.387 . S
C1201 C1203 1.387 1_655 S
H1202 C1209 0.950 . S
C1203 C1201 1.387 1_455 S
C1203 C1205 1.390 . S
C1203 H1207 0.950 . S
H1204 C1200 0.950 . S
C1205 C1203 1.390 . S
C1205 C1206 1.387 . S
C1205 H1208 0.950 . S
C1206 C1205 1.387 . S
C1206 C1209 1.387 1_455 S
H1207 C1203 0.950 . S
H1208 C1205 0.950 . S
C1209 C1200 1.390 . S
C1209 H1202 0.950 . S
C1209 C1206 1.387 1_655 S
C1210 C1211 1.387 . S
C1210 H1214 0.950 . S
C1210 C1219 1.390 . S
C1211 C1210 1.387 . S
C1211 C1213 1.387 . S
H1212 C1219 0.950 . S
C1213 C1211 1.387 . S
C1213 C1215 1.390 . S
C1213 H1217 0.950 . S
H1214 C1210 0.950 . S
C1215 C1213 1.390 . S
C1215 C1216 1.387 . S
C1215 H1218 0.950 . S
C1216 C1215 1.387 . S
C1216 C1219 1.387 . S
H1217 C1213 0.950 . S
H1218 C1215 0.950 . S
C1219 C1210 1.390 . S
C1219 H1212 0.950 . S
C1219 C1216 1.387 . S
C1220 C1221 1.387 . S
C1220 H1224 0.950 . S
C1220 C1229 1.390 . S
C1221 C1220 1.387 . S
C1221 C1223 1.387 1_545 S
H1222 C1229 0.950 . S
C1223 C1221 1.387 1_565 S
C1223 C1225 1.390 . S
C1223 H1227 0.950 . S
H1224 C1220 0.950 . S
C1225 C1223 1.390 . S
C1225 C1226 1.387 . S
C1225 H1228 0.950 . S
C1226 C1225 1.387 . S
C1226 C1229 1.387 1_565 S
H1227 C1223 0.950 . S
H1228 C1225 0.950 . S
C1229 C1220 1.390 . S
C1229 H1222 0.950 . S
C1229 C1226 1.387 1_545 S
C1230 C1231 1.387 1_546 S
C1230 H1234 0.950 . S
C1230 C1239 1.390 . S
C1231 C1230 1.387 1_564 S
C1231 C1233 1.387 . S
H1232 C1239 0.950 . S
C1233 C1231 1.387 . S
C1233 C1235 1.390 . S
C1233 H1237 0.950 . S
H1234 C1230 0.950 . S
C1235 C1233 1.390 . S
C1235 C1236 1.387 1_564 S
C1235 H1238 0.950 . S
C1236 C1235 1.387 1_546 S
C1236 C1239 1.387 . S
H1237 C1233 0.950 . S
H1238 C1235 0.950 . S
C1239 C1230 1.390 . S
C1239 H1232 0.950 . S
C1239 C1236 1.387 . S
C1240 C1241 1.387 . S
C1240 H1244 0.950 . S
C1240 C1249 1.390 1_556 S
C1241 C1240 1.387 . S
C1241 C1243 1.387 1_655 S
H1242 C1249 0.950 . S
C1243 C1241 1.387 1_455 S
C1243 C1245 1.390 1_556 S
C1243 H1247 0.950 . S
H1244 C1240 0.950 . S
C1245 C1243 1.390 1_554 S
C1245 C1246 1.387 . S
C1245 H1248 0.950 . S
C1246 C1245 1.387 . S
C1246 C1249 1.387 1_455 S
H1247 C1243 0.950 . S
H1248 C1245 0.950 . S
C1249 C1240 1.390 1_554 S
C1249 H1242 0.950 . S
C1249 C1246 1.387 1_655 S
C1250 C1251 1.387 . S
C1250 H1254 0.950 . S
C1250 C1259 1.390 1_554 S
C1251 C1250 1.387 . S
C1251 C1253 1.387 . S
H1252 C1259 0.950 . S
C1253 C1251 1.387 . S
C1253 C1255 1.390 1_554 S
C1253 H1257 0.950 . S
H1254 C1250 0.950 . S
C1255 C1253 1.390 1_556 S
C1255 C1256 1.387 . S
C1255 H1258 0.950 . S
C1256 C1255 1.387 . S
C1256 C1259 1.387 . S
H1257 C1253 0.950 . S
H1258 C1255 0.950 . S
C1259 C1250 1.390 1_556 S
C1259 H1252 0.950 . S
C1259 C1256 1.387 . S
C1260 C1261 1.387 . S
C1260 H1264 0.950 . S
C1260 C1269 1.390 . S
C1261 C1260 1.387 . S
C1261 C1263 1.387 . S
H1262 C1269 0.950 . S
C1263 C1261 1.387 . S
C1263 C1265 1.390 . S
C1263 H1267 0.950 . S
H1264 C1260 0.950 . S
C1265 C1263 1.390 . S
C1265 C1266 1.387 . S
C1265 H1268 0.950 . S
C1266 C1265 1.387 . S
C1266 C1269 1.387 . S
H1267 C1263 0.950 . S
H1268 C1265 0.950 . S
C1269 C1260 1.390 . S
C1269 H1262 0.950 . S
C1269 C1266 1.387 . S
C1270 C1271 1.387 . S
C1270 H1274 0.950 . S
C1270 C1279 1.390 . S
C1271 C1270 1.387 . S
C1271 C1273 1.387 . S
H1272 C1279 0.950 . S
C1273 C1271 1.387 . S
C1273 C1275 1.390 . S
C1273 H1277 0.950 . S
H1274 C1270 0.950 . S
C1275 C1273 1.390 . S
C1275 C1276 1.387 . S
C1275 H1278 0.950 . S
C1276 C1275 1.387 . S
C1276 C1279 1.387 . S
H1277 C1273 0.950 . S
H1278 C1275 0.950 . S
C1279 C1270 1.390 . S
C1279 H1272 0.950 . S
C1279 C1276 1.387 . S
C1280 C1281 1.387 . S
C1280 H1284 0.950 . S
C1280 C1289 1.390 . S
C1281 C1280 1.387 . S
C1281 C1283 1.387 . S
H1282 C1289 0.950 . S
C1283 C1281 1.387 . S
C1283 C1285 1.390 . S
C1283 H1287 0.950 . S
H1284 C1280 0.950 . S
C1285 C1283 1.390 . S
C1285 C1286 1.387 . S
C1285 H1288 0.950 . S
C1286 C1285 1.387 . S
C1286 C1289 1.387 . S
H1287 C1283 0.950 . S
H1288 C1285 0.950 . S
C1289 C1280 1.390 . S
C1289 H1282 0.950 . S
C1289 C1286 1.387 . S
C1290 C1291 1.387 . S
C1290 H1294 0.950 . S
C1290 C1299 1.390 . S
C1291 C1290 1.387 . S
C1291 C1293 1.387 . S
H1292 C1299 0.950 . S
C1293 C1291 1.387 . S
C1293 C1295 1.390 . S
C1293 H1297 0.950 . S
H1294 C1290 0.950 . S
C1295 C1293 1.390 . S
C1295 C1296 1.387 . S
C1295 H1298 0.950 . S
C1296 C1295 1.387 . S
C1296 C1299 1.387 . S
H1297 C1293 0.950 . S
H1298 C1295 0.950 . S
C1299 C1290 1.390 . S
C1299 H1292 0.950 . S
C1299 C1296 1.387 . S
C1300 C1301 1.387 . S
C1300 H1304 0.950 . S
C1300 C1309 1.390 . S
C1301 C1300 1.387 . S
C1301 C1303 1.387 . S
H1302 C1309 0.950 . S
C1303 C1301 1.387 . S
C1303 C1305 1.390 . S
C1303 H1307 0.950 . S
H1304 C1300 0.950 . S
C1305 C1303 1.390 . S
C1305 C1306 1.387 . S
C1305 H1308 0.950 . S
C1306 C1305 1.387 . S
C1306 C1309 1.387 . S
H1307 C1303 0.950 . S
H1308 C1305 0.950 . S
C1309 C1300 1.390 . S
C1309 H1302 0.950 . S
C1309 C1306 1.387 . S
C1310 C1311 1.387 . S
C1310 H1314 0.950 . S
C1310 C1319 1.390 . S
C1311 C1310 1.387 . S
C1311 C1313 1.387 . S
H1312 C1319 0.950 . S
C1313 C1311 1.387 . S
C1313 C1315 1.390 . S
C1313 H1317 0.950 . S
H1314 C1310 0.950 . S
C1315 C1313 1.390 . S
C1315 C1316 1.387 . S
C1315 H1318 0.950 . S
C1316 C1315 1.387 . S
C1316 C1319 1.387 . S
H1317 C1313 0.950 . S
H1318 C1315 0.950 . S
C1319 C1310 1.390 . S
C1319 H1312 0.950 . S
C1319 C1316 1.387 . S
C1320 C1321 1.387 . S
C1320 H1324 0.950 . S
C1320 C1329 1.390 . S
C1321 C1320 1.387 . S
C1321 C1323 1.387 . S
H1322 C1329 0.950 . S
C1323 C1321 1.387 . S
C1323 C1325 1.390 . S
C1323 H1327 0.950 . S
H1324 C1320 0.950 . S
C1325 C1323 1.390 . S
C1325 C1326 1.387 . S
C1325 H1328 0.950 . S
C1326 C1325 1.387 . S
C1326 C1329 1.387 . S
H1327 C1323 0.950 . S
H1328 C1325 0.950 . S
C1329 C1320 1.390 . S
C1329 H1322 0.950 . S
C1329 C1326 1.387 . S
C1330 C1331 1.387 . S
C1330 H1334 0.950 . S
C1330 C1339 1.390 . S
C1331 C1330 1.387 . S
C1331 C1333 1.387 . S
H1332 C1339 0.950 . S
C1333 C1331 1.387 . S
C1333 C1335 1.390 . S
C1333 H1337 0.950 . S
H1334 C1330 0.950 . S
C1335 C1333 1.390 . S
C1335 C1336 1.387 . S
C1335 H1338 0.950 . S
C1336 C1335 1.387 . S
C1336 C1339 1.387 . S
H1337 C1333 0.950 . S
H1338 C1335 0.950 . S
C1339 C1330 1.390 . S
C1339 H1332 0.950 . S
C1339 C1336 1.387 . S
C1340 C1341 1.387 . S
C1340 H1344 0.950 . S
C1340 C1349 1.390 . S
C1341 C1340 1.387 . S
C1341 C1343 1.387 . S
H1342 C1349 0.950 . S
C1343 C1341 1.387 . S
C1343 C1345 1.390 . S
C1343 H1347 0.950 . S
H1344 C1340 0.950 . S
C1345 C1343 1.390 . S
C1345 C1346 1.387 . S
C1345 H1348 0.950 . S
C1346 C1345 1.387 . S
C1346 C1349 1.387 . S
H1347 C1343 0.950 . S
H1348 C1345 0.950 . S
C1349 C1340 1.390 . S
C1349 H1342 0.950 . S
C1349 C1346 1.387 . S
C1350 C1351 1.387 . S
C1350 H1354 0.950 . S
C1350 C1359 1.390 . S
C1351 C1350 1.387 . S
C1351 C1353 1.387 . S
H1352 C1359 0.950 . S
C1353 C1351 1.387 . S
C1353 C1355 1.390 . S
C1353 H1357 0.950 . S
H1354 C1350 0.950 . S
C1355 C1353 1.390 . S
C1355 C1356 1.387 . S
C1355 H1358 0.950 . S
C1356 C1355 1.387 . S
C1356 C1359 1.387 . S
H1357 C1353 0.950 . S
H1358 C1355 0.950 . S
C1359 C1350 1.390 . S
C1359 H1352 0.950 . S
C1359 C1356 1.387 . S
C1360 C1361 1.387 . S
C1360 H1364 0.950 . S
C1360 C1369 1.390 . S
C1361 C1360 1.387 . S
C1361 C1363 1.387 . S
H1362 C1369 0.950 . S
C1363 C1361 1.387 . S
C1363 C1365 1.390 . S
C1363 H1367 0.950 . S
H1364 C1360 0.950 . S
C1365 C1363 1.390 . S
C1365 C1366 1.387 . S
C1365 H1368 0.950 . S
C1366 C1365 1.387 . S
C1366 C1369 1.387 . S
H1367 C1363 0.950 . S
H1368 C1365 0.950 . S
C1369 C1360 1.390 . S
C1369 H1362 0.950 . S
C1369 C1366 1.387 . S
C1370 C1371 1.387 . S
C1370 H1374 0.950 . S
C1370 C1379 1.390 . S
C1371 C1370 1.387 . S
C1371 C1373 1.387 . S
H1372 C1379 0.950 . S
C1373 C1371 1.387 . S
C1373 C1375 1.390 . S
C1373 H1377 0.950 . S
H1374 C1370 0.950 . S
C1375 C1373 1.390 . S
C1375 C1376 1.387 . S
C1375 H1378 0.950 . S
C1376 C1375 1.387 . S
C1376 C1379 1.387 . S
H1377 C1373 0.950 . S
H1378 C1375 0.950 . S
C1379 C1370 1.390 . S
C1379 H1372 0.950 . S
C1379 C1376 1.387 . S
C1380 C1381 1.387 . S
C1380 H1384 0.950 . S
C1380 C1389 1.390 1_455 S
C1381 C1380 1.387 . S
C1381 C1383 1.387 . S
H1382 C1389 0.950 . S
C1383 C1381 1.387 . S
C1383 C1385 1.390 1_455 S
C1383 H1387 0.950 . S
H1384 C1380 0.950 . S
C1385 C1383 1.390 1_655 S
C1385 C1386 1.387 . S
C1385 H1388 0.950 . S
C1386 C1385 1.387 . S
C1386 C1389 1.387 . S
H1387 C1383 0.950 . S
H1388 C1385 0.950 . S
C1389 C1380 1.390 1_655 S
C1389 H1382 0.950 . S
C1389 C1386 1.387 . S
C1390 C1391 1.387 . S
C1390 H1394 0.950 . S
C1390 C1399 1.390 . S
C1391 C1390 1.387 . S
C1391 C1393 1.387 . S
H1392 C1399 0.950 . S
C1393 C1391 1.387 . S
C1393 C1395 1.390 . S
C1393 H1397 0.950 . S
H1394 C1390 0.950 . S
C1395 C1393 1.390 . S
C1395 C1396 1.387 . S
C1395 H1398 0.950 . S
C1396 C1395 1.387 . S
C1396 C1399 1.387 . S
H1397 C1393 0.950 . S
H1398 C1395 0.950 . S
C1399 C1390 1.390 . S
C1399 H1392 0.950 . S
C1399 C1396 1.387 . S
C1400 C1401 1.387 . S
C1400 H1404 0.950 . S
C1400 C1409 1.390 1_545 S
C1401 C1400 1.387 . S
C1401 C1403 1.387 . S
H1402 C1409 0.950 . S
C1403 C1401 1.387 . S
C1403 C1405 1.390 1_545 S
C1403 H1407 0.950 . S
H1404 C1400 0.950 . S
C1405 C1403 1.390 1_565 S
C1405 C1406 1.387 . S
C1405 H1408 0.950 . S
C1406 C1405 1.387 . S
C1406 C1409 1.387 . S
H1407 C1403 0.950 . S
H1408 C1405 0.950 . S
C1409 C1400 1.390 1_565 S
C1409 H1402 0.950 . S
C1409 C1406 1.387 . S
C1410 C1411 1.387 . S
C1410 H1414 0.950 . S
C1410 C1419 1.390 1_565 S
C1411 C1410 1.387 . S
C1411 C1413 1.387 . S
H1412 C1419 0.950 . S
C1413 C1411 1.387 . S
C1413 C1415 1.390 1_565 S
C1413 H1417 0.950 . S
H1414 C1410 0.950 . S
C1415 C1413 1.390 1_545 S
C1415 C1416 1.387 . S
C1415 H1418 0.950 . S
C1416 C1415 1.387 . S
C1416 C1419 1.387 . S
H1417 C1413 0.950 . S
H1418 C1415 0.950 . S
C1419 C1410 1.390 1_545 S
C1419 H1412 0.950 . S
C1419 C1416 1.387 . S
C1420 C1421 1.387 . S
C1420 H1424 0.950 . S
C1420 C1429 1.390 1_455 S
C1421 C1420 1.387 . S
C1421 C1423 1.387 . S
H1422 C1429 0.950 . S
C1423 C1421 1.387 . S
C1423 C1425 1.390 1_455 S
C1423 H1427 0.950 . S
H1424 C1420 0.950 . S
C1425 C1423 1.390 1_655 S
C1425 C1426 1.387 . S
C1425 H1428 0.950 . S
C1426 C1425 1.387 . S
C1426 C1429 1.387 . S
H1427 C1423 0.950 . S
H1428 C1425 0.950 . S
C1429 C1420 1.390 1_655 S
C1429 H1422 0.950 . S
C1429 C1426 1.387 . S
C1430 C1431 1.387 . S
C1430 H1434 0.950 . S
C1430 C1439 1.390 . S
C1431 C1430 1.387 . S
C1431 C1433 1.387 . S
H1432 C1439 0.950 . S
C1433 C1431 1.387 . S
C1433 C1435 1.390 . S
C1433 H1437 0.950 . S
H1434 C1430 0.950 . S
C1435 C1433 1.390 . S
C1435 C1436 1.387 . S
C1435 H1438 0.950 . S
C1436 C1435 1.387 . S
C1436 C1439 1.387 . S
H1437 C1433 0.950 . S
H1438 C1435 0.950 . S
C1439 C1430 1.390 . S
C1439 H1432 0.950 . S
C1439 C1436 1.387 . S
C1440 C1441 1.387 . S
C1440 H1444 0.950 . S
C1440 C1449 1.390 . S
C1441 C1440 1.387 . S
C1441 C1443 1.387 . S
H1442 C1449 0.950 . S
C1443 C1441 1.387 . S
C1443 C1445 1.390 . S
C1443 H1447 0.950 . S
H1444 C1440 0.950 . S
C1445 C1443 1.390 . S
C1445 C1446 1.387 . S
C1445 H1448 0.950 . S
C1446 C1445 1.387 . S
C1446 C1449 1.387 . S
H1447 C1443 0.950 . S
H1448 C1445 0.950 . S
C1449 C1440 1.390 . S
C1449 H1442 0.950 . S
C1449 C1446 1.387 . S
C1450 C1451 1.387 . S
C1450 H1454 0.950 . S
C1450 C1459 1.390 1_545 S
C1451 C1450 1.387 . S
C1451 C1453 1.387 . S
H1452 C1459 0.950 . S
C1453 C1451 1.387 . S
C1453 C1455 1.390 1_545 S
C1453 H1457 0.950 . S
H1454 C1450 0.950 . S
C1455 C1453 1.390 1_565 S
C1455 C1456 1.387 . S
C1455 H1458 0.950 . S
C1456 C1455 1.387 . S
C1456 C1459 1.387 . S
H1457 C1453 0.950 . S
H1458 C1455 0.950 . S
C1459 C1450 1.390 1_565 S
C1459 H1452 0.950 . S
C1459 C1456 1.387 . S
C1460 C1461 1.387 . S
C1460 H1464 0.950 . S
C1460 C1469 1.390 . S
C1461 C1460 1.387 . S
C1461 C1463 1.387 1_655 S
H1462 C1469 0.950 . S
C1463 C1461 1.387 1_455 S
C1463 C1465 1.390 . S
C1463 H1467 0.950 . S
H1464 C1460 0.950 . S
C1465 C1463 1.390 . S
C1465 C1466 1.387 . S
C1465 H1468 0.950 . S
C1466 C1465 1.387 . S
C1466 C1469 1.387 1_455 S
H1467 C1463 0.950 . S
H1468 C1465 0.950 . S
C1469 C1460 1.390 . S
C1469 H1462 0.950 . S
C1469 C1466 1.387 1_655 S
C1470 C1471 1.387 . S
C1470 H1474 0.950 . S
C1470 C1479 1.390 . S
C1471 C1470 1.387 . S
C1471 C1473 1.387 . S
H1472 C1479 0.950 . S
C1473 C1471 1.387 . S
C1473 C1475 1.390 . S
C1473 H1477 0.950 . S
H1474 C1470 0.950 . S
C1475 C1473 1.390 . S
C1475 C1476 1.387 . S
C1475 H1478 0.950 . S
C1476 C1475 1.387 . S
C1476 C1479 1.387 . S
H1477 C1473 0.950 . S
H1478 C1475 0.950 . S
C1479 C1470 1.390 . S
C1479 H1472 0.950 . S
C1479 C1476 1.387 . S
C1480 C1481 1.387 . S
C1480 H1484 0.950 . S
C1480 C1489 1.390 1_565 S
C1481 C1480 1.387 . S
C1481 C1483 1.387 . S
H1482 C1489 0.950 . S
C1483 C1481 1.387 . S
C1483 C1485 1.390 1_565 S
C1483 H1487 0.950 . S
H1484 C1480 0.950 . S
C1485 C1483 1.390 1_545 S
C1485 C1486 1.387 . S
C1485 H1488 0.950 . S
C1486 C1485 1.387 . S
C1486 C1489 1.387 . S
H1487 C1483 0.950 . S
H1488 C1485 0.950 . S
C1489 C1480 1.390 1_545 S
C1489 H1482 0.950 . S
C1489 C1486 1.387 . S
C1490 C1491 1.387 1_455 S
C1490 H1494 0.950 . S
C1490 C1499 1.390 . S
C1491 C1490 1.387 1_655 S
C1491 C1493 1.387 . S
H1492 C1499 0.950 . S
C1493 C1491 1.387 . S
C1493 C1495 1.390 . S
C1493 H1497 0.950 . S
H1494 C1490 0.950 . S
C1495 C1493 1.390 . S
C1495 C1496 1.387 1_655 S
C1495 H1498 0.950 . S
C1496 C1495 1.387 1_455 S
C1496 C1499 1.387 . S
H1497 C1493 0.950 . S
H1498 C1495 0.950 . S
C1499 C1490 1.390 . S
C1499 H1492 0.950 . S
C1499 C1496 1.387 . S
C1500 C1501 1.387 . S
C1500 H1504 0.950 . S
C1500 C1509 1.390 . S
C1501 C1500 1.387 . S
C1501 C1503 1.387 . S
H1502 C1509 0.950 . S
C1503 C1501 1.387 . S
C1503 C1505 1.390 . S
C1503 H1507 0.950 . S
H1504 C1500 0.950 . S
C1505 C1503 1.390 . S
C1505 C1506 1.387 . S
C1505 H1508 0.950 . S
C1506 C1505 1.387 . S
C1506 C1509 1.387 . S
H1507 C1503 0.950 . S
H1508 C1505 0.950 . S
C1509 C1500 1.390 . S
C1509 H1502 0.950 . S
C1509 C1506 1.387 . S
C1510 C1511 1.387 . S
C1510 H1514 0.950 . S
C1510 C1519 1.390 . S
C1511 C1510 1.387 . S
C1511 C1513 1.387 . S
H1512 C1519 0.950 . S
C1513 C1511 1.387 . S
C1513 C1515 1.390 . S
C1513 H1517 0.950 . S
H1514 C1510 0.950 . S
C1515 C1513 1.390 . S
C1515 C1516 1.387 . S
C1515 H1518 0.950 . S
C1516 C1515 1.387 . S
C1516 C1519 1.387 . S
H1517 C1513 0.950 . S
H1518 C1515 0.950 . S
C1519 C1510 1.390 . S
C1519 H1512 0.950 . S
C1519 C1516 1.387 . S
C1520 C1521 1.387 . S
C1520 H1524 0.950 . S
C1520 C1529 1.390 . S
C1521 C1520 1.387 . S
C1521 C1523 1.387 . S
H1522 C1529 0.950 . S
C1523 C1521 1.387 . S
C1523 C1525 1.390 . S
C1523 H1527 0.950 . S
H1524 C1520 0.950 . S
C1525 C1523 1.390 . S
C1525 C1526 1.387 . S
C1525 H1528 0.950 . S
C1526 C1525 1.387 . S
C1526 C1529 1.387 . S
H1527 C1523 0.950 . S
H1528 C1525 0.950 . S
C1529 C1520 1.390 . S
C1529 H1522 0.950 . S
C1529 C1526 1.387 . S
C1530 C1531 1.387 . S
C1530 H1534 0.950 . S
C1530 C1539 1.390 . S
C1531 C1530 1.387 . S
C1531 C1533 1.387 . S
H1532 C1539 0.950 . S
C1533 C1531 1.387 . S
C1533 C1535 1.390 . S
C1533 H1537 0.950 . S
H1534 C1530 0.950 . S
C1535 C1533 1.390 . S
C1535 C1536 1.387 . S
C1535 H1538 0.950 . S
C1536 C1535 1.387 . S
C1536 C1539 1.387 . S
H1537 C1533 0.950 . S
H1538 C1535 0.950 . S
C1539 C1530 1.390 . S
C1539 H1532 0.950 . S
C1539 C1536 1.387 . S
C1540 C1541 1.387 . S
C1540 H1544 0.950 . S
C1540 C1549 1.390 . S
C1541 C1540 1.387 . S
C1541 C1543 1.387 . S
H1542 C1549 0.950 . S
C1543 C1541 1.387 . S
C1543 C1545 1.390 . S
C1543 H1547 0.950 . S
H1544 C1540 0.950 . S
C1545 C1543 1.390 . S
C1545 C1546 1.387 . S
C1545 H1548 0.950 . S
C1546 C1545 1.387 . S
C1546 C1549 1.387 . S
H1547 C1543 0.950 . S
H1548 C1545 0.950 . S
C1549 C1540 1.390 . S
C1549 H1542 0.950 . S
C1549 C1546 1.387 . S
C1550 C1551 1.387 . S
C1550 H1554 0.950 . S
C1550 C1559 1.390 . S
C1551 C1550 1.387 . S
C1551 C1553 1.387 . S
H1552 C1559 0.950 . S
C1553 C1551 1.387 . S
C1553 C1555 1.390 . S
C1553 H1557 0.950 . S
H1554 C1550 0.950 . S
C1555 C1553 1.390 . S
C1555 C1556 1.387 . S
C1555 H1558 0.950 . S
C1556 C1555 1.387 . S
C1556 C1559 1.387 . S
H1557 C1553 0.950 . S
H1558 C1555 0.950 . S
C1559 C1550 1.390 . S
C1559 H1552 0.950 . S
C1559 C1556 1.387 . S
C1560 C1561 1.387 . S
C1560 H1564 0.950 . S
C1560 C1569 1.390 . S
C1561 C1560 1.387 . S
C1561 C1563 1.387 . S
H1562 C1569 0.950 . S
C1563 C1561 1.387 . S
C1563 C1565 1.390 . S
C1563 H1567 0.950 . S
H1564 C1560 0.950 . S
C1565 C1563 1.390 . S
C1565 C1566 1.387 . S
C1565 H1568 0.950 . S
C1566 C1565 1.387 . S
C1566 C1569 1.387 . S
H1567 C1563 0.950 . S
H1568 C1565 0.950 . S
C1569 C1560 1.390 . S
C1569 H1562 0.950 . S
C1569 C1566 1.387 . S
C1570 C1571 1.387 . S
C1570 H1574 0.950 . S
C1570 C1579 1.390 . S
C1571 C1570 1.387 . S
C1571 C1573 1.387 . S
H1572 C1579 0.950 . S
C1573 C1571 1.387 . S
C1573 C1575 1.390 . S
C1573 H1577 0.950 . S
H1574 C1570 0.950 . S
C1575 C1573 1.390 . S
C1575 C1576 1.387 . S
C1575 H1578 0.950 . S
C1576 C1575 1.387 . S
C1576 C1579 1.387 . S
H1577 C1573 0.950 . S
H1578 C1575 0.950 . S
C1579 C1570 1.390 . S
C1579 H1572 0.950 . S
C1579 C1576 1.387 . S
C1580 C1581 1.387 . S
C1580 H1584 0.950 . S
C1580 C1589 1.390 . S
C1581 C1580 1.387 . S
C1581 C1583 1.387 . S
H1582 C1589 0.950 . S
C1583 C1581 1.387 . S
C1583 C1585 1.390 . S
C1583 H1587 0.950 . S
H1584 C1580 0.950 . S
C1585 C1583 1.390 . S
C1585 C1586 1.387 . S
C1585 H1588 0.950 . S
C1586 C1585 1.387 . S
C1586 C1589 1.387 . S
H1587 C1583 0.950 . S
H1588 C1585 0.950 . S
C1589 C1580 1.390 . S
C1589 H1582 0.950 . S
C1589 C1586 1.387 . S
C1590 C1591 1.387 . S
C1590 H1594 0.950 . S
C1590 C1599 1.390 . S
C1591 C1590 1.387 . S
C1591 C1593 1.387 . S
H1592 C1599 0.950 . S
C1593 C1591 1.387 . S
C1593 C1595 1.390 . S
C1593 H1597 0.950 . S
H1594 C1590 0.950 . S
C1595 C1593 1.390 . S
C1595 C1596 1.387 . S
C1595 H1598 0.950 . S
C1596 C1595 1.387 . S
C1596 C1599 1.387 . S
H1597 C1593 0.950 . S
H1598 C1595 0.950 . S
C1599 C1590 1.390 . S
C1599 H1592 0.950 . S
C1599 C1596 1.387 . S
C1600 C1601 1.387 . S
C1600 H1604 0.950 . S
C1600 C1609 1.390 . S
C1601 C1600 1.387 . S
C1601 C1603 1.387 . S
H1602 C1609 0.950 . S
C1603 C1601 1.387 . S
C1603 C1605 1.390 . S
C1603 H1607 0.950 . S
H1604 C1600 0.950 . S
C1605 C1603 1.390 . S
C1605 C1606 1.387 . S
C1605 H1608 0.950 . S
C1606 C1605 1.387 . S
C1606 C1609 1.387 . S
H1607 C1603 0.950 . S
H1608 C1605 0.950 . S
C1609 C1600 1.390 . S
C1609 H1602 0.950 . S
C1609 C1606 1.387 . S
C1610 C1611 1.387 . S
C1610 H1614 0.950 . S
C1610 C1619 1.390 . S
C1611 C1610 1.387 . S
C1611 C1613 1.387 . S
H1612 C1619 0.950 . S
C1613 C1611 1.387 . S
C1613 C1615 1.390 . S
C1613 H1617 0.950 . S
H1614 C1610 0.950 . S
C1615 C1613 1.390 . S
C1615 C1616 1.387 . S
C1615 H1618 0.950 . S
C1616 C1615 1.387 . S
C1616 C1619 1.387 . S
H1617 C1613 0.950 . S
H1618 C1615 0.950 . S
C1619 C1610 1.390 . S
C1619 H1612 0.950 . S
C1619 C1616 1.387 . S
C1620 C1621 1.387 . S
C1620 H1624 0.950 . S
C1620 C1629 1.390 . S
C1621 C1620 1.387 . S
C1621 C1623 1.387 . S
H1622 C1629 0.950 . S
C1623 C1621 1.387 . S
C1623 C1625 1.390 . S
C1623 H1627 0.950 . S
H1624 C1620 0.950 . S
C1625 C1623 1.390 . S
C1625 C1626 1.387 . S
C1625 H1628 0.950 . S
C1626 C1625 1.387 . S
C1626 C1629 1.387 . S
H1627 C1623 0.950 . S
H1628 C1625 0.950 . S
C1629 C1620 1.390 . S
C1629 H1622 0.950 . S
C1629 C1626 1.387 . S
C1630 C1631 1.387 . S
C1630 H1634 0.950 . S
C1630 C1639 1.390 . S
C1631 C1630 1.387 . S
C1631 C1633 1.387 . S
H1632 C1639 0.950 . S
C1633 C1631 1.387 . S
C1633 C1635 1.390 . S
C1633 H1637 0.950 . S
H1634 C1630 0.950 . S
C1635 C1633 1.390 . S
C1635 C1636 1.387 . S
C1635 H1638 0.950 . S
C1636 C1635 1.387 . S
C1636 C1639 1.387 . S
H1637 C1633 0.950 . S
H1638 C1635 0.950 . S
C1639 C1630 1.390 . S
C1639 H1632 0.950 . S
C1639 C1636 1.387 . S
C1640 C1641 1.387 . S
C1640 H1644 0.950 . S
C1640 C1649 1.390 . S
C1641 C1640 1.387 . S
C1641 C1643 1.387 . S
H1642 C1649 0.950 . S
C1643 C1641 1.387 . S
C1643 C1645 1.390 . S
C1643 H1647 0.950 . S
H1644 C1640 0.950 . S
C1645 C1643 1.390 . S
C1645 C1646 1.387 . S
C1645 H1648 0.950 . S
C1646 C1645 1.387 . S
C1646 C1649 1.387 . S
H1647 C1643 0.950 . S
H1648 C1645 0.950 . S
C1649 C1640 1.390 . S
C1649 H1642 0.950 . S
C1649 C1646 1.387 . S
C1650 C1651 1.387 . S
C1650 H1654 0.950 . S
C1650 C1659 1.390 . S
C1651 C1650 1.387 . S
C1651 C1653 1.387 . S
H1652 C1659 0.950 . S
C1653 C1651 1.387 . S
C1653 C1655 1.390 . S
C1653 H1657 0.950 . S
H1654 C1650 0.950 . S
C1655 C1653 1.390 . S
C1655 C1656 1.387 . S
C1655 H1658 0.950 . S
C1656 C1655 1.387 . S
C1656 C1659 1.387 . S
H1657 C1653 0.950 . S
H1658 C1655 0.950 . S
C1659 C1650 1.390 . S
C1659 H1652 0.950 . S
C1659 C1656 1.387 . S
C1660 C1661 1.387 . S
C1660 H1664 0.950 . S
C1660 C1669 1.390 . S
C1661 C1660 1.387 . S
C1661 C1663 1.387 . S
H1662 C1669 0.950 . S
C1663 C1661 1.387 . S
C1663 C1665 1.390 . S
C1663 H1667 0.950 . S
H1664 C1660 0.950 . S
C1665 C1663 1.390 . S
C1665 C1666 1.387 . S
C1665 H1668 0.950 . S
C1666 C1665 1.387 . S
C1666 C1669 1.387 . S
H1667 C1663 0.950 . S
H1668 C1665 0.950 . S
C1669 C1660 1.390 . S
C1669 H1662 0.950 . S
C1669 C1666 1.387 . S
C1670 C1671 1.387 . S
C1670 H1674 0.950 1_655 S
C1670 C1679 1.390 . S
C1671 C1670 1.387 . S
C1671 C1673 1.387 . S
H1672 C1679 0.950 . S
C1673 C1671 1.387 . S
C1673 C1675 1.390 . S
C1673 H1677 0.950 . S
H1674 C1670 0.950 1_455 S
C1675 C1673 1.390 . S
C1675 C1676 1.387 . S
C1675 H1678 0.950 . S
C1676 C1675 1.387 . S
C1676 C1679 1.387 . S
H1677 C1673 0.950 . S
H1678 C1675 0.950 . S
C1679 C1670 1.390 . S
C1679 H1672 0.950 . S
C1679 C1676 1.387 . S
C1680 C1681 1.387 . S
C1680 H1684 0.950 . S
C1680 C1689 1.390 . S
C1681 C1680 1.387 . S
C1681 C1683 1.387 . S
H1682 C1689 0.950 . S
C1683 C1681 1.387 . S
C1683 C1685 1.390 . S
C1683 H1687 0.950 . S
H1684 C1680 0.950 . S
C1685 C1683 1.390 . S
C1685 C1686 1.387 . S
C1685 H1688 0.950 . S
C1686 C1685 1.387 . S
C1686 C1689 1.387 . S
H1687 C1683 0.950 . S
H1688 C1685 0.950 . S
C1689 C1680 1.390 . S
C1689 H1682 0.950 . S
C1689 C1686 1.387 . S
C1690 C1691 1.387 . S
C1690 H1694 0.950 . S
C1690 C1699 1.390 . S
C1691 C1690 1.387 . S
C1691 C1693 1.387 . S
H1692 C1699 0.950 . S
C1693 C1691 1.387 . S
C1693 C1695 1.390 . S
C1693 H1697 0.950 . S
H1694 C1690 0.950 . S
C1695 C1693 1.390 . S
C1695 C1696 1.387 . S
C1695 H1698 0.950 . S
C1696 C1695 1.387 . S
C1696 C1699 1.387 . S
H1697 C1693 0.950 . S
H1698 C1695 0.950 . S
C1699 C1690 1.390 . S
C1699 H1692 0.950 . S
C1699 C1696 1.387 . S
C1700 C1701 1.387 . S
C1700 H1704 0.950 . S
C1700 C1709 1.390 . S
C1701 C1700 1.387 . S
C1701 C1703 1.387 . S
H1702 C1709 0.950 . S
C1703 C1701 1.387 . S
C1703 C1705 1.390 . S
C1703 H1707 0.950 . S
H1704 C1700 0.950 . S
C1705 C1703 1.390 . S
C1705 C1706 1.387 . S
C1705 H1708 0.950 . S
C1706 C1705 1.387 . S
C1706 C1709 1.387 . S
H1707 C1703 0.950 . S
H1708 C1705 0.950 . S
C1709 C1700 1.390 . S
C1709 H1702 0.950 . S
C1709 C1706 1.387 . S
C1710 C1711 1.387 . S
C1710 H1714 0.950 . S
C1710 C1719 1.390 . S
C1711 C1710 1.387 . S
C1711 C1713 1.387 . S
H1712 C1719 0.950 . S
C1713 C1711 1.387 . S
C1713 C1715 1.390 . S
C1713 H1717 0.950 . S
H1714 C1710 0.950 . S
C1715 C1713 1.390 . S
C1715 C1716 1.387 . S
C1715 H1718 0.950 . S
C1716 C1715 1.387 . S
C1716 C1719 1.387 . S
H1717 C1713 0.950 . S
H1718 C1715 0.950 . S
C1719 C1710 1.390 . S
C1719 H1712 0.950 . S
C1719 C1716 1.387 . S
C1720 C1721 1.387 . S
C1720 H1724 0.950 . S
C1720 C1729 1.390 . S
C1721 C1720 1.387 . S
C1721 C1723 1.387 . S
H1722 C1729 0.950 . S
C1723 C1721 1.387 . S
C1723 C1725 1.390 . S
C1723 H1727 0.950 . S
H1724 C1720 0.950 . S
C1725 C1723 1.390 . S
C1725 C1726 1.387 . S
C1725 H1728 0.950 . S
C1726 C1725 1.387 . S
C1726 C1729 1.387 . S
H1727 C1723 0.950 . S
H1728 C1725 0.950 . S
C1729 C1720 1.390 . S
C1729 H1722 0.950 . S
C1729 C1726 1.387 . S
C1730 C1731 1.387 . S
C1730 H1734 0.950 . S
C1730 C1739 1.390 . S
C1731 C1730 1.387 . S
C1731 C1733 1.387 . S
H1732 C1739 0.950 . S
C1733 C1731 1.387 . S
C1733 C1735 1.390 . S
C1733 H1737 0.950 . S
H1734 C1730 0.950 . S
C1735 C1733 1.390 . S
C1735 C1736 1.387 . S
C1735 H1738 0.950 1_455 S
C1736 C1735 1.387 . S
C1736 C1739 1.387 . S
H1737 C1733 0.950 . S
H1738 C1735 0.950 1_655 S
C1739 C1730 1.390 . S
C1739 H1732 0.950 . S
C1739 C1736 1.387 . S
C1740 C1741 1.387 . S
C1740 H1744 0.950 . S
C1740 C1749 1.390 1_655 S
C1741 C1740 1.387 . S
C1741 C1743 1.387 . S
H1742 C1749 0.950 . S
C1743 C1741 1.387 . S
C1743 C1745 1.390 1_655 S
C1743 H1747 0.950 . S
H1744 C1740 0.950 . S
C1745 C1743 1.390 1_455 S
C1745 C1746 1.387 . S
C1745 H1748 0.950 . S
C1746 C1745 1.387 . S
C1746 C1749 1.387 . S
H1747 C1743 0.950 . S
H1748 C1745 0.950 . S
C1749 C1740 1.390 1_455 S
C1749 H1742 0.950 . S
C1749 C1746 1.387 . S
C1750 C1751 1.387 . S
C1750 H1754 0.950 . S
C1750 C1759 1.390 . S
C1751 C1750 1.387 . S
C1751 C1753 1.387 . S
H1752 C1759 0.950 . S
C1753 C1751 1.387 . S
C1753 C1755 1.390 . S
C1753 H1757 0.950 . S
H1754 C1750 0.950 . S
C1755 C1753 1.390 . S
C1755 C1756 1.387 . S
C1755 H1758 0.950 . S
C1756 C1755 1.387 . S
C1756 C1759 1.387 . S
H1757 C1753 0.950 . S
H1758 C1755 0.950 . S
C1759 C1750 1.390 . S
C1759 H1752 0.950 . S
C1759 C1756 1.387 . S
C1760 C1761 1.387 . S
C1760 H1764 0.950 . S
C1760 C1769 1.390 1_545 S
C1761 C1760 1.387 . S
C1761 C1763 1.387 . S
H1762 C1769 0.950 . S
C1763 C1761 1.387 . S
C1763 C1765 1.390 1_545 S
C1763 H1767 0.950 . S
H1764 C1760 0.950 . S
C1765 C1763 1.390 1_565 S
C1765 C1766 1.387 . S
C1765 H1768 0.950 . S
C1766 C1765 1.387 . S
C1766 C1769 1.387 . S
H1767 C1763 0.950 . S
H1768 C1765 0.950 . S
C1769 C1760 1.390 1_565 S
C1769 H1762 0.950 . S
C1769 C1766 1.387 . S
C1770 C1771 1.387 . S
C1770 H1774 0.950 . S
C1770 C1779 1.390 1_545 S
C1771 C1770 1.387 . S
C1771 C1773 1.387 . S
H1772 C1779 0.950 . S
C1773 C1771 1.387 . S
C1773 C1775 1.390 1_545 S
C1773 H1777 0.950 . S
H1774 C1770 0.950 . S
C1775 C1773 1.390 1_565 S
C1775 C1776 1.387 . S
C1775 H1778 0.950 . S
C1776 C1775 1.387 . S
C1776 C1779 1.387 . S
H1777 C1773 0.950 . S
H1778 C1775 0.950 . S
C1779 C1770 1.390 1_565 S
C1779 H1772 0.950 . S
C1779 C1776 1.387 . S
C1780 C1781 1.387 . S
C1780 H1784 0.950 . S
C1780 C1789 1.390 1_655 S
C1781 C1780 1.387 . S
C1781 C1783 1.387 . S
H1782 C1789 0.950 . S
C1783 C1781 1.387 . S
C1783 C1785 1.390 1_655 S
C1783 H1787 0.950 . S
H1784 C1780 0.950 . S
C1785 C1783 1.390 1_455 S
C1785 C1786 1.387 . S
C1785 H1788 0.950 . S
C1786 C1785 1.387 . S
C1786 C1789 1.387 . S
H1787 C1783 0.950 . S
H1788 C1785 0.950 . S
C1789 C1780 1.390 1_455 S
C1789 H1782 0.950 . S
C1789 C1786 1.387 . S
C1790 C1791 1.387 . S
C1790 H1794 0.950 . S
C1790 C1799 1.390 . S
C1791 C1790 1.387 . S
C1791 C1793 1.387 . S
H1792 C1799 0.950 . S
C1793 C1791 1.387 . S
C1793 C1795 1.390 . S
C1793 H1797 0.950 . S
H1794 C1790 0.950 . S
C1795 C1793 1.390 . S
C1795 C1796 1.387 . S
C1795 H1798 0.950 . S
C1796 C1795 1.387 . S
C1796 C1799 1.387 . S
H1797 C1793 0.950 . S
H1798 C1795 0.950 . S
C1799 C1790 1.390 . S
C1799 H1792 0.950 . S
C1799 C1796 1.387 . S
C721 C8 2.121 . S
C726 C156 1.974 1_554 S
C731 C176 1.971 1_554 S
C736 C28 2.122 . S
C741 C136 1.974 1_554 S
C746 C48 2.122 . S
C751 C236 1.974 . S
C756 C68 2.121 . S
C761 C88 2.121 . S
C766 C196 1.974 . S
C771 C108 2.121 . S
C776 C216 1.974 . S
C781 C26 1.974 1_556 S
C786 C139 2.121 . S
C791 C159 2.122 . S
C796 C46 1.971 1_556 S
C801 C6 1.974 1_556 S
C806 C179 2.121 . S
C811 C106 1.974 . S
C816 C199 2.121 . S
C821 C219 2.122 . S
C826 C66 1.971 . S
C831 C239 2.121 . S
C836 C86 1.974 . S
C841 C248 2.122 . S
C846 C396 1.972 . S
C851 C416 1.971 . S
C856 C268 2.122 . S
C861 C376 1.974 . S
C866 C288 2.121 . S
C871 C308 2.121 . S
C876 C476 1.972 . S
C881 C436 1.974 . S
C886 C328 2.121 . S
C891 C348 2.122 . S
C896 C456 1.971 . S
C901 C379 2.121 . S
C906 C266 1.974 . S
C911 C286 1.973 . S
C916 C399 2.121 . S
C921 C419 2.121 . S
C926 C246 1.972 . S
C931 C346 1.973 . S
C936 C439 2.121 . S
C941 C306 1.974 . S
C946 C459 2.121 . S
C951 C479 2.121 . S
C956 C326 1.974 . S
C961 C488 2.121 . S
C966 C636 1.974 . S
C971 C508 2.121 . S
C976 C656 1.972 . S
C981 C616 1.972 . S
C986 C528 2.121 . S
C991 C716 1.974 . S
C996 C548 2.121 . S
C1001 C568 2.121 . S
C1006 C676 1.974 . S
C1011 C696 1.974 . S
C1016 C588 2.121 . S
C1021 C506 1.971 . S
C1026 C619 2.122 . S
C1031 C639 2.121 . S
C1036 C526 1.974 . S
C1041 C486 1.972 . S
C1046 C659 2.121 . S
C1051 C679 2.122 . S
C1056 C586 1.974 . S
C1061 C699 2.121 . S
C1066 C546 1.975 . S
C1071 C719 2.122 . S
C1076 C566 1.971 . S
C1081 C16 1.221 . S
C1086 C366 1.221 . S
C1091 C36 1.220 . S
C1096 C386 1.220 . S
C1101 C406 1.220 . S
C1106 C56 1.220 . S
C1111 C666 1.220 . S
C1116 C76 1.220 . S
C1121 C686 1.220 . S
C1126 C96 1.220 . S
C1131 C706 1.222 . S
C1136 C116 1.222 . S
C1141 C126 1.223 . S
C1146 C496 1.223 . S
C1151 C516 1.220 . S
C1156 C146 1.220 . S
C1161 C166 1.224 . S
C1166 C536 1.224 . S
C1171 C186 1.221 . S
C1176 C316 1.221 . S
C1181 C206 1.224 . S
C1186 C336 1.224 . S
C1191 C226 1.220 . S
C1196 C356 1.220 . S
C1201 C256 1.220 . S
C1206 C606 1.220 . S
C1211 C626 1.221 . S
C1216 C276 1.221 . S
C1221 C296 1.220 . S
C1226 C646 1.220 . S
C1231 C556 1.223 . S
C1236 C426 1.223 . S
C1241 C446 1.224 . S
C1246 C576 1.224 . S
C1251 C596 1.223 . S
C1256 C466 1.223 . S
C1261 C9 1.649 . S
C1266 C329 1.647 . S
C1271 C29 1.650 . S
C1276 C349 1.649 . S
C1281 C309 1.647 . S
C1286 C49 1.647 . S
C1291 C69 1.647 . S
C1296 C529 1.647 . S
C1301 C489 1.647 . S
C1306 C89 1.648 . S
C1311 C109 1.648 . S
C1316 C509 1.650 . S
C1321 C681 1.650 . S
C1326 C121 1.649 . S
C1331 C141 1.650 . S
C1336 C701 1.649 . S
C1341 C661 1.650 . S
C1346 C161 1.650 . S
C1351 C181 1.650 . S
C1356 C401 1.650 . S
C1361 C201 1.647 . S
C1366 C361 1.649 . S
C1371 C221 1.648 . S
C1376 C381 1.647 . S
C1381 C569 1.650 . S
C1386 C249 1.648 . S
C1391 C269 1.647 . S
C1396 C589 1.648 . S
C1401 C289 1.650 . S
C1406 C549 1.650 . S
C1411 C641 1.647 . S
C1416 C421 1.647 . S
C1421 C601 1.648 . S
C1426 C441 1.647 . S
C1431 C621 1.647 . S
C1436 C461 1.649 . S
C1441 C61 1.462 . S
C1446 C1 1.462 . S
C1451 C21 1.464 . S
C1456 C81 1.464 . S
C1461 C41 1.462 . S
C1466 C101 1.462 . S
C1471 C189 1.462 . S
C1476 C129 1.462 . S
C1481 C149 1.464 . S
C1486 C209 1.464 . S
C1491 C229 1.464 . S
C1496 C169 1.464 . S
C1501 C301 1.463 . S
C1506 C241 1.463 . S
C1511 C261 1.464 . S
C1516 C321 1.464 . S
C1521 C281 1.464 . S
C1526 C341 1.464 . S
C1531 C369 1.462 . S
C1536 C429 1.462 1_554 S
C1541 C389 1.462 . S
C1546 C449 1.462 1_554 S
C1551 C409 1.464 . S
C1556 C469 1.464 1_554 S
C1561 C481 1.464 . S
C1566 C541 1.464 1_556 S
C1571 C561 1.464 1_556 S
C1576 C501 1.464 . S
C1581 C581 1.464 1_556 S
C1586 C521 1.464 . S
C1591 C609 1.464 . S
C1596 C669 1.464 . S
C1601 C689 1.462 . S
C1606 C629 1.462 . S
C1611 C649 1.463 . S
C1616 C709 1.462 . S
C1621 C19 1.477 . S
C1626 C599 1.477 . S
C1631 C559 1.480 . S
C1636 C39 1.468 1_565 S
C1641 C59 1.461 1_455 S
C1646 C579 1.475 . S
C1651 C279 1.475 . S
C1656 C79 1.480 . S
C1661 C99 1.461 1_545 S
C1666 C299 1.475 . S
C1671 C119 1.470 1_655 S
C1676 C259 1.478 . S
C1681 C468 1.478 . S
C1686 C128 1.478 . S
C1691 C148 1.472 1_545 S
C1696 C428 1.475 . S
C1701 C448 1.480 . S
C1706 C168 1.456 1_655 S
C1711 C188 1.475 . S
C1716 C628 1.480 . S
C1721 C648 1.475 . S
C1726 C208 1.461 1_565 S
C1731 C608 1.478 . S
C1736 C228 1.470 1_455 S
C1741 C319 1.478 . S
C1746 C519 1.478 . S
C1751 C339 1.480 . S
C1756 C539 1.475 . S
C1761 C359 1.477 . S
C1766 C499 1.477 . S
C1771 C368 1.477 . S
C1776 C708 1.477 . S
C1781 C388 1.475 . S
C1786 C668 1.480 . S
C1791 C688 1.480 . S
C1796 C408 1.475 . S
