# Generated by pormake.
# Topology uko, (4)-cn, num edge types: 1
# Building blocks:
#     Node 0, Type 0, BuildingBlock: CEKHIL_clean_sbu_0, # of connection points: 4
#     Node 1, Type 0, BuildingBlock: CEKHIL_clean_sbu_0, # of connection points: 4
#     Node 2, Type 0, BuildingBlock: CEKHIL_clean_sbu_0, # of connection points: 4
#     Node 3, Type 0, BuildingBlock: CEKHIL_clean_sbu_0, # of connection points: 4
#     Node 4, Type 0, BuildingBlock: CEKHIL_clean_sbu_0, # of connection points: 4
#     Node 5, Type 0, BuildingBlock: CEKHIL_clean_sbu_0, # of connection points: 4
#     Node 6, Type 0, BuildingBlock: CEKHIL_clean_sbu_0, # of connection points: 4
#     Node 7, Type 0, BuildingBlock: CEKHIL_clean_sbu_0, # of connection points: 4
#     Node 8, Type 0, BuildingBlock: CEKHIL_clean_sbu_0, # of connection points: 4
#     Node 9, Type 0, BuildingBlock: CEKHIL_clean_sbu_0, # of connection points: 4
#     Node 10, Type 0, BuildingBlock: CEKHIL_clean_sbu_0, # of connection points: 4
#     Node 11, Type 0, BuildingBlock: CEKHIL_clean_sbu_0, # of connection points: 4
#     Node 12, Type 0, BuildingBlock: CEKHIL_clean_sbu_0, # of connection points: 4
#     Node 13, Type 0, BuildingBlock: CEKHIL_clean_sbu_0, # of connection points: 4
#     Node 14, Type 0, BuildingBlock: CEKHIL_clean_sbu_0, # of connection points: 4
#     Node 15, Type 0, BuildingBlock: CEKHIL_clean_sbu_0, # of connection points: 4
#     Node 16, Type 0, BuildingBlock: CEKHIL_clean_sbu_0, # of connection points: 4
#     Node 17, Type 0, BuildingBlock: CEKHIL_clean_sbu_0, # of connection points: 4
#     Node 18, Type 0, BuildingBlock: CEKHIL_clean_sbu_0, # of connection points: 4
#     Node 19, Type 0, BuildingBlock: CEKHIL_clean_sbu_0, # of connection points: 4
#     Node 20, Type 0, BuildingBlock: CEKHIL_clean_sbu_0, # of connection points: 4
#     Node 21, Type 0, BuildingBlock: CEKHIL_clean_sbu_0, # of connection points: 4
#     Node 22, Type 0, BuildingBlock: CEKHIL_clean_sbu_0, # of connection points: 4
#     Node 23, Type 0, BuildingBlock: CEKHIL_clean_sbu_0, # of connection points: 4
#     Node 24, Type 0, BuildingBlock: CEKHIL_clean_sbu_0, # of connection points: 4
#     Node 25, Type 0, BuildingBlock: CEKHIL_clean_sbu_0, # of connection points: 4
#     Node 26, Type 0, BuildingBlock: CEKHIL_clean_sbu_0, # of connection points: 4
#     Node 27, Type 0, BuildingBlock: CEKHIL_clean_sbu_0, # of connection points: 4
#     Node 28, Type 0, BuildingBlock: CEKHIL_clean_sbu_0, # of connection points: 4
#     Node 29, Type 0, BuildingBlock: CEKHIL_clean_sbu_0, # of connection points: 4
#     Node 30, Type 0, BuildingBlock: CEKHIL_clean_sbu_0, # of connection points: 4
#     Node 31, Type 0, BuildingBlock: CEKHIL_clean_sbu_0, # of connection points: 4
#     Node 32, Type 0, BuildingBlock: CEKHIL_clean_sbu_0, # of connection points: 4
#     Node 33, Type 0, BuildingBlock: CEKHIL_clean_sbu_0, # of connection points: 4
#     Node 34, Type 0, BuildingBlock: CEKHIL_clean_sbu_0, # of connection points: 4
#     Node 35, Type 0, BuildingBlock: CEKHIL_clean_sbu_0, # of connection points: 4
#     Node 36, Type 0, BuildingBlock: CEKHIL_clean_sbu_0, # of connection points: 4
#     Node 37, Type 0, BuildingBlock: CEKHIL_clean_sbu_0, # of connection points: 4
#     Node 38, Type 0, BuildingBlock: CEKHIL_clean_sbu_0, # of connection points: 4
#     Node 39, Type 0, BuildingBlock: CEKHIL_clean_sbu_0, # of connection points: 4
#     Node 40, Type 0, BuildingBlock: CEKHIL_clean_sbu_0, # of connection points: 4
#     Node 41, Type 0, BuildingBlock: CEKHIL_clean_sbu_0, # of connection points: 4
#     Node 42, Type 0, BuildingBlock: CEKHIL_clean_sbu_0, # of connection points: 4
#     Node 43, Type 0, BuildingBlock: CEKHIL_clean_sbu_0, # of connection points: 4
#     Node 44, Type 0, BuildingBlock: CEKHIL_clean_sbu_0, # of connection points: 4
#     Node 45, Type 0, BuildingBlock: CEKHIL_clean_sbu_0, # of connection points: 4
#     Node 46, Type 0, BuildingBlock: CEKHIL_clean_sbu_0, # of connection points: 4
#     Node 47, Type 0, BuildingBlock: CEKHIL_clean_sbu_0, # of connection points: 4
#     Edge 48, Type (0, 0), BuildingBlock: OJICUG_clean_linker_0, # of connection points: 2
#     Edge 49, Type (0, 0), BuildingBlock: OJICUG_clean_linker_0, # of connection points: 2
#     Edge 50, Type (0, 0), BuildingBlock: OJICUG_clean_linker_0, # of connection points: 2
#     Edge 51, Type (0, 0), BuildingBlock: OJICUG_clean_linker_0, # of connection points: 2
#     Edge 52, Type (0, 0), BuildingBlock: OJICUG_clean_linker_0, # of connection points: 2
#     Edge 53, Type (0, 0), BuildingBlock: OJICUG_clean_linker_0, # of connection points: 2
#     Edge 54, Type (0, 0), BuildingBlock: OJICUG_clean_linker_0, # of connection points: 2
#     Edge 55, Type (0, 0), BuildingBlock: OJICUG_clean_linker_0, # of connection points: 2
#     Edge 56, Type (0, 0), BuildingBlock: OJICUG_clean_linker_0, # of connection points: 2
#     Edge 57, Type (0, 0), BuildingBlock: OJICUG_clean_linker_0, # of connection points: 2
#     Edge 58, Type (0, 0), BuildingBlock: OJICUG_clean_linker_0, # of connection points: 2
#     Edge 59, Type (0, 0), BuildingBlock: OJICUG_clean_linker_0, # of connection points: 2
#     Edge 60, Type (0, 0), BuildingBlock: OJICUG_clean_linker_0, # of connection points: 2
#     Edge 61, Type (0, 0), BuildingBlock: OJICUG_clean_linker_0, # of connection points: 2
#     Edge 62, Type (0, 0), BuildingBlock: OJICUG_clean_linker_0, # of connection points: 2
#     Edge 63, Type (0, 0), BuildingBlock: OJICUG_clean_linker_0, # of connection points: 2
#     Edge 64, Type (0, 0), BuildingBlock: OJICUG_clean_linker_0, # of connection points: 2
#     Edge 65, Type (0, 0), BuildingBlock: OJICUG_clean_linker_0, # of connection points: 2
#     Edge 66, Type (0, 0), BuildingBlock: OJICUG_clean_linker_0, # of connection points: 2
#     Edge 67, Type (0, 0), BuildingBlock: OJICUG_clean_linker_0, # of connection points: 2
#     Edge 68, Type (0, 0), BuildingBlock: OJICUG_clean_linker_0, # of connection points: 2
#     Edge 69, Type (0, 0), BuildingBlock: OJICUG_clean_linker_0, # of connection points: 2
#     Edge 70, Type (0, 0), BuildingBlock: OJICUG_clean_linker_0, # of connection points: 2
#     Edge 71, Type (0, 0), BuildingBlock: OJICUG_clean_linker_0, # of connection points: 2
#     Edge 72, Type (0, 0), BuildingBlock: OJICUG_clean_linker_0, # of connection points: 2
#     Edge 73, Type (0, 0), BuildingBlock: OJICUG_clean_linker_0, # of connection points: 2
#     Edge 74, Type (0, 0), BuildingBlock: OJICUG_clean_linker_0, # of connection points: 2
#     Edge 75, Type (0, 0), BuildingBlock: OJICUG_clean_linker_0, # of connection points: 2
#     Edge 76, Type (0, 0), BuildingBlock: OJICUG_clean_linker_0, # of connection points: 2
#     Edge 77, Type (0, 0), BuildingBlock: OJICUG_clean_linker_0, # of connection points: 2
#     Edge 78, Type (0, 0), BuildingBlock: OJICUG_clean_linker_0, # of connection points: 2
#     Edge 79, Type (0, 0), BuildingBlock: OJICUG_clean_linker_0, # of connection points: 2
#     Edge 80, Type (0, 0), BuildingBlock: OJICUG_clean_linker_0, # of connection points: 2
#     Edge 81, Type (0, 0), BuildingBlock: OJICUG_clean_linker_0, # of connection points: 2
#     Edge 82, Type (0, 0), BuildingBlock: OJICUG_clean_linker_0, # of connection points: 2
#     Edge 83, Type (0, 0), BuildingBlock: OJICUG_clean_linker_0, # of connection points: 2
#     Edge 84, Type (0, 0), BuildingBlock: OJICUG_clean_linker_0, # of connection points: 2
#     Edge 85, Type (0, 0), BuildingBlock: OJICUG_clean_linker_0, # of connection points: 2
#     Edge 86, Type (0, 0), BuildingBlock: OJICUG_clean_linker_0, # of connection points: 2
#     Edge 87, Type (0, 0), BuildingBlock: OJICUG_clean_linker_0, # of connection points: 2
#     Edge 88, Type (0, 0), BuildingBlock: OJICUG_clean_linker_0, # of connection points: 2
#     Edge 89, Type (0, 0), BuildingBlock: OJICUG_clean_linker_0, # of connection points: 2
#     Edge 90, Type (0, 0), BuildingBlock: OJICUG_clean_linker_0, # of connection points: 2
#     Edge 91, Type (0, 0), BuildingBlock: OJICUG_clean_linker_0, # of connection points: 2
#     Edge 92, Type (0, 0), BuildingBlock: OJICUG_clean_linker_0, # of connection points: 2
#     Edge 93, Type (0, 0), BuildingBlock: OJICUG_clean_linker_0, # of connection points: 2
#     Edge 94, Type (0, 0), BuildingBlock: OJICUG_clean_linker_0, # of connection points: 2
#     Edge 95, Type (0, 0), BuildingBlock: OJICUG_clean_linker_0, # of connection points: 2
#     Edge 96, Type (0, 0), BuildingBlock: OJICUG_clean_linker_0, # of connection points: 2
#     Edge 97, Type (0, 0), BuildingBlock: OJICUG_clean_linker_0, # of connection points: 2
#     Edge 98, Type (0, 0), BuildingBlock: OJICUG_clean_linker_0, # of connection points: 2
#     Edge 99, Type (0, 0), BuildingBlock: OJICUG_clean_linker_0, # of connection points: 2
#     Edge 100, Type (0, 0), BuildingBlock: OJICUG_clean_linker_0, # of connection points: 2
#     Edge 101, Type (0, 0), BuildingBlock: OJICUG_clean_linker_0, # of connection points: 2
#     Edge 102, Type (0, 0), BuildingBlock: OJICUG_clean_linker_0, # of connection points: 2
#     Edge 103, Type (0, 0), BuildingBlock: OJICUG_clean_linker_0, # of connection points: 2
#     Edge 104, Type (0, 0), BuildingBlock: OJICUG_clean_linker_0, # of connection points: 2
#     Edge 105, Type (0, 0), BuildingBlock: OJICUG_clean_linker_0, # of connection points: 2
#     Edge 106, Type (0, 0), BuildingBlock: OJICUG_clean_linker_0, # of connection points: 2
#     Edge 107, Type (0, 0), BuildingBlock: OJICUG_clean_linker_0, # of connection points: 2
#     Edge 108, Type (0, 0), BuildingBlock: OJICUG_clean_linker_0, # of connection points: 2
#     Edge 109, Type (0, 0), BuildingBlock: OJICUG_clean_linker_0, # of connection points: 2
#     Edge 110, Type (0, 0), BuildingBlock: OJICUG_clean_linker_0, # of connection points: 2
#     Edge 111, Type (0, 0), BuildingBlock: OJICUG_clean_linker_0, # of connection points: 2
#     Edge 112, Type (0, 0), BuildingBlock: OJICUG_clean_linker_0, # of connection points: 2
#     Edge 113, Type (0, 0), BuildingBlock: OJICUG_clean_linker_0, # of connection points: 2
#     Edge 114, Type (0, 0), BuildingBlock: OJICUG_clean_linker_0, # of connection points: 2
#     Edge 115, Type (0, 0), BuildingBlock: OJICUG_clean_linker_0, # of connection points: 2
#     Edge 116, Type (0, 0), BuildingBlock: OJICUG_clean_linker_0, # of connection points: 2
#     Edge 117, Type (0, 0), BuildingBlock: OJICUG_clean_linker_0, # of connection points: 2
#     Edge 118, Type (0, 0), BuildingBlock: OJICUG_clean_linker_0, # of connection points: 2
#     Edge 119, Type (0, 0), BuildingBlock: OJICUG_clean_linker_0, # of connection points: 2
#     Edge 120, Type (0, 0), BuildingBlock: OJICUG_clean_linker_0, # of connection points: 2
#     Edge 121, Type (0, 0), BuildingBlock: OJICUG_clean_linker_0, # of connection points: 2
#     Edge 122, Type (0, 0), BuildingBlock: OJICUG_clean_linker_0, # of connection points: 2
#     Edge 123, Type (0, 0), BuildingBlock: OJICUG_clean_linker_0, # of connection points: 2
#     Edge 124, Type (0, 0), BuildingBlock: OJICUG_clean_linker_0, # of connection points: 2
#     Edge 125, Type (0, 0), BuildingBlock: OJICUG_clean_linker_0, # of connection points: 2
#     Edge 126, Type (0, 0), BuildingBlock: OJICUG_clean_linker_0, # of connection points: 2
#     Edge 127, Type (0, 0), BuildingBlock: OJICUG_clean_linker_0, # of connection points: 2
#     Edge 128, Type (0, 0), BuildingBlock: OJICUG_clean_linker_0, # of connection points: 2
#     Edge 129, Type (0, 0), BuildingBlock: OJICUG_clean_linker_0, # of connection points: 2
#     Edge 130, Type (0, 0), BuildingBlock: OJICUG_clean_linker_0, # of connection points: 2
#     Edge 131, Type (0, 0), BuildingBlock: OJICUG_clean_linker_0, # of connection points: 2
#     Edge 132, Type (0, 0), BuildingBlock: OJICUG_clean_linker_0, # of connection points: 2
#     Edge 133, Type (0, 0), BuildingBlock: OJICUG_clean_linker_0, # of connection points: 2
#     Edge 134, Type (0, 0), BuildingBlock: OJICUG_clean_linker_0, # of connection points: 2
#     Edge 135, Type (0, 0), BuildingBlock: OJICUG_clean_linker_0, # of connection points: 2
#     Edge 136, Type (0, 0), BuildingBlock: OJICUG_clean_linker_0, # of connection points: 2
#     Edge 137, Type (0, 0), BuildingBlock: OJICUG_clean_linker_0, # of connection points: 2
#     Edge 138, Type (0, 0), BuildingBlock: OJICUG_clean_linker_0, # of connection points: 2
#     Edge 139, Type (0, 0), BuildingBlock: OJICUG_clean_linker_0, # of connection points: 2
#     Edge 140, Type (0, 0), BuildingBlock: OJICUG_clean_linker_0, # of connection points: 2
#     Edge 141, Type (0, 0), BuildingBlock: OJICUG_clean_linker_0, # of connection points: 2
#     Edge 142, Type (0, 0), BuildingBlock: OJICUG_clean_linker_0, # of connection points: 2
#     Edge 143, Type (0, 0), BuildingBlock: OJICUG_clean_linker_0, # of connection points: 2
# Relax obj value: 0.293
# Max RMSD: 0.162
# Mean RMSD: 0.162
data_MOF--net-uko--node1-CEKHIL_clean_sbu_0--edge1-OJICUG_clean_linker_0
_symmetry_space_group_name_H-M    P1
_symmetry_Int_Tables_number       1
_symmetry_cell_setting            triclinic
loop_
_symmetry_equiv_pos_as_xyz
'x, y, z'
_cell_length_a     40.575912
_cell_length_b     40.579421
_cell_length_c     40.572662
_cell_angle_alpha  90.025429
_cell_angle_beta   90.016741
_cell_angle_gamma 90.033039
loop_
_atom_site_label
_atom_site_type_symbol
_atom_site_fract_x
_atom_site_fract_y
_atom_site_fract_z
_atom_type_partial_charge
Co0 Co 0.0325 0.36307 0.25843 0.0
O1 O 0.04699 0.31867 0.25113 0.0
O2 O 0.99482 0.33454 0.25557 0.0
C3 C 0.06516 0.38735 0.22097 0.0
O4 O 0.00796 0.40639 0.26362 0.0
Co5 Co 0.08075 0.41469 0.28695 0.0
O6 O 0.04463 0.44571 0.27728 0.0
C7 C 0.05826 0.36046 0.32837 0.0
C8 C 0.01596 0.3108 0.25154 0.0
C9 C 0.01575 0.43658 0.26905 0.0
O10 O 0.03521 0.35481 0.30738 0.0
O11 O 0.08085 0.3819 0.32367 0.0
O12 O 0.03774 0.37339 0.21199 0.0
O13 O 0.07357 0.3831 0.25146 0.0
Co14 Co 0.95836 0.12321 0.26321 0.0
O15 O 0.94377 0.16737 0.25467 0.0
O16 O -0.00405 0.15181 0.25999 0.0
C17 C 0.92618 0.09798 0.22594 0.0
O18 O 0.98311 0.08013 0.26949 0.0
Co19 Co 0.91039 0.07181 0.2923 0.0
O20 O 0.94618 0.04067 0.28187 0.0
C21 C 0.93189 0.12718 0.33283 0.0
C22 C 0.97478 0.17533 0.255 0.0
C23 C 0.97516 0.04984 0.27409 0.0
O24 O 0.95507 0.13268 0.31195 0.0
O25 O 0.90969 0.10527 0.32841 0.0
O26 O 0.95368 0.11179 0.21701 0.0
O27 O 0.91742 0.10282 0.25626 0.0
Co28 Co 0.03372 0.62441 0.23061 0.0
O29 O 0.0479 0.66865 0.23953 0.0
O30 O -0.00408 0.6527 0.23324 0.0
C31 C 0.06545 0.59919 0.26825 0.0
O32 O 0.00931 0.58124 0.22357 0.0
Co33 Co 0.08254 0.57338 0.20215 0.0
O34 O 0.04616 0.54213 0.21002 0.0
C35 C 0.06132 0.62871 0.16148 0.0
C36 C 0.01685 0.6764 0.23852 0.0
C37 C 0.0171 0.55116 0.21765 0.0
O38 O 0.03778 0.63404 0.18199 0.0
O39 O 0.08364 0.60702 0.16624 0.0
O40 O 0.03778 0.61282 0.27689 0.0
O41 O 0.0746 0.60424 0.2381 0.0
Co42 Co 0.95773 0.86342 0.22899 0.0
O43 O 0.94353 0.81911 0.23745 0.0
O44 O 0.99557 0.83521 0.23222 0.0
C45 C 0.92528 0.88823 0.26629 0.0
O46 O 0.9821 0.90671 0.22273 0.0
Co47 Co 0.90944 0.91426 0.1998 0.0
O48 O 0.94517 0.94582 0.20945 0.0
C49 C 0.93146 0.85914 0.15931 0.0
C50 C 0.97461 0.81146 0.23711 0.0
C51 C 0.97415 0.93688 0.2175 0.0
O52 O 0.95463 0.85395 0.18026 0.0
O53 O 0.90899 0.88076 0.16367 0.0
O54 O 0.95293 0.87473 0.27517 0.0
O55 O 0.91654 0.88337 0.23595 0.0
Co56 Co 0.25468 0.03462 0.36566 0.0
O57 O 0.24608 0.04882 0.32136 0.0
O58 O 0.25268 -0.00313 0.33721 0.0
C59 C 0.21658 0.06592 0.39067 0.0
O60 O 0.26153 0.01016 0.4088 0.0
Co61 Co 0.28203 0.08378 0.41727 0.0
O62 O 0.27425 0.04711 0.44819 0.0
C63 C 0.32363 0.06294 0.36242 0.0
C64 C 0.24744 0.0178 0.31353 0.0
C65 C 0.26713 0.01797 0.43895 0.0
O66 O 0.30337 0.03926 0.35659 0.0
O67 O 0.31837 0.08514 0.38414 0.0
O68 O 0.20821 0.03825 0.37682 0.0
O69 O 0.24669 0.0753 0.38592 0.0
Co70 Co 0.73189 0.45861 0.3645 0.0
O71 O 0.74052 0.44353 0.3205 0.0
O72 O 0.73648 0.49592 0.33579 0.0
C73 C 0.7679 0.42557 0.39036 0.0
O74 O 0.72574 0.48381 0.40734 0.0
Co75 Co 0.70086 0.41178 0.41583 0.0
O76 O 0.71128 0.44772 0.44684 0.0
C77 C 0.66161 0.43409 0.3599 0.0
C78 C 0.74107 0.4745 0.3124 0.0
C79 C 0.7201 0.47637 0.43756 0.0
O80 O 0.68322 0.45661 0.35448 0.0
O81 O 0.66515 0.41189 0.38194 0.0
O82 O 0.77778 0.45272 0.37652 0.0
O83 O 0.73741 0.41762 0.38518 0.0
Co84 Co 0.25973 0.95912 0.12646 0.0
O85 O 0.2508 0.9447 0.17061 0.0
O86 O 0.25567 -0.00316 0.15475 0.0
C87 C 0.22326 0.92629 0.10091 0.0
O88 O 0.26628 0.98371 0.08334 0.0
Co89 Co 0.29007 0.91126 0.07563 0.0
O90 O 0.27968 0.94681 0.0442 0.0
C91 C 0.32966 0.93363 0.13137 0.0
C92 C 0.25069 0.97577 0.17836 0.0
C93 C 0.27144 0.97572 0.05316 0.0
O94 O 0.30837 0.9565 0.1366 0.0
O95 O 0.32582 0.9113 0.10949 0.0
O96 O 0.21375 0.95372 0.11445 0.0
O97 O 0.25362 0.91799 0.10621 0.0
Co98 Co 0.73487 0.53158 0.12478 0.0
O99 O 0.74469 0.54598 0.16877 0.0
O100 O 0.73707 0.494 0.15342 0.0
C101 C 0.77281 0.56233 0.09879 0.0
O102 O 0.72673 0.50693 0.08192 0.0
Co103 Co 0.70687 0.58062 0.07362 0.0
O104 O 0.71344 0.54374 0.04266 0.0
C105 C 0.6664 0.56073 0.12962 0.0
C106 C 0.74311 0.51504 0.17684 0.0
C107 C 0.72052 0.51459 0.05186 0.0
O108 O 0.68646 0.53682 0.13502 0.0
O109 O 0.67139 0.58271 0.10764 0.0
O110 O 0.78109 0.53461 0.11254 0.0
O111 O 0.74292 0.57209 0.10415 0.0
Co112 Co 0.36756 0.25952 0.03241 0.0
O113 O 0.32355 0.25155 0.0478 0.0
O114 O 0.33843 0.25576 0.9953 0.0
C115 C 0.39304 0.22284 0.06504 0.0
O116 O 0.41028 0.26523 0.00692 0.0
Co117 Co 0.41969 0.28943 0.07908 0.0
O118 O 0.4502 0.28003 0.04244 0.0
C119 C 0.3638 0.32929 0.058 0.0
C120 C 0.31514 0.2515 0.0169 0.0
C121 C 0.44055 0.27125 0.01389 0.0
O122 O 0.35841 0.30831 0.03489 0.0
O123 O 0.38579 0.32511 0.08015 0.0
O124 O 0.37884 0.21338 0.0379 0.0
O125 O 0.38846 0.25336 0.0732 0.0
Co126 Co 0.36632 0.72869 0.45877 0.0
O127 O 0.32244 0.73746 0.44345 0.0
O128 O 0.33705 0.73158 0.49585 0.0
C129 C 0.3921 0.76627 0.42738 0.0
O130 O 0.40892 0.72195 0.48424 0.0
Co131 Co 0.41836 0.69992 0.41149 0.0
O132 O 0.44889 0.7082 0.4484 0.0
C133 C 0.36243 0.65948 0.43144 0.0
C134 C 0.31391 0.73676 0.47429 0.0
C135 C 0.43921 0.71612 0.47718 0.0
O136 O 0.3568 0.68006 0.45484 0.0
O137 O 0.3846 0.66409 0.40956 0.0
O138 O 0.37793 0.77489 0.45479 0.0
O139 O 0.38738 0.73604 0.41822 0.0
Co140 Co 0.62537 0.76018 0.4618 0.0
O141 O 0.66951 0.75265 0.44662 0.0
O142 O 0.65436 0.75657 0.49906 0.0
C143 C 0.60039 0.72337 0.42888 0.0
O144 O 0.5824 0.76539 0.48702 0.0
Co145 Co 0.57334 0.78978 0.41485 0.0
O146 O 0.54263 0.77957 0.45109 0.0
C147 C 0.62889 0.82997 0.43636 0.0
C148 C 0.67779 0.75259 0.47755 0.0
C149 C 0.5521 0.77085 0.47971 0.0
O150 O 0.63419 0.80905 0.45953 0.0
O151 O 0.60706 0.82565 0.41406 0.0
O152 O 0.61449 0.71394 0.45606 0.0
O153 O 0.60478 0.75395 0.42087 0.0
Co154 Co 0.12521 0.7301 0.52835 0.0
O155 O 0.16921 0.73816 0.54369 0.0
O156 O 0.15437 0.73355 0.49121 0.0
C157 C 0.09975 0.76705 0.56068 0.0
O158 O 0.08237 0.72428 0.503 0.0
Co159 Co 0.07326 0.70053 0.57545 0.0
O160 O 0.04261 0.7105 0.5391 0.0
C161 C 0.12903 0.66048 0.55442 0.0
C162 C 0.17765 0.73797 0.51281 0.0
C163 C 0.05206 0.71892 0.51038 0.0
O164 O 0.13437 0.68131 0.53117 0.0
O165 O 0.10709 0.6648 0.57658 0.0
O166 O 0.11397 0.7763 0.5335 0.0
O167 O 0.10437 0.73662 0.56909 0.0
Co168 Co 0.95521 0.62323 0.7298 0.0
O169 O 0.94124 0.66764 0.73823 0.0
O170 O 0.9932 0.65123 0.73335 0.0
C171 C 0.92235 0.59827 0.76662 0.0
O172 O 0.97933 0.57981 0.72353 0.0
Co173 Co 0.90666 0.57272 0.69996 0.0
O174 O 0.94233 0.54104 0.70924 0.0
C175 C 0.92934 0.62802 0.66009 0.0
C176 C 0.97237 0.67513 0.73797 0.0
C177 C 0.97128 0.54977 0.71767 0.0
O178 O 0.95257 0.63278 0.68109 0.0
O179 O 0.90659 0.60663 0.66425 0.0
O180 O 0.94989 0.61176 0.77593 0.0
O181 O 0.91393 0.6034 0.73625 0.0
Co182 Co 0.03331 0.86186 0.72949 0.0
O183 O 0.04702 0.81732 0.73751 0.0
O184 O 0.99516 0.83394 0.73227 0.0
C185 C 0.06587 0.88609 0.76708 0.0
O186 O 0.00943 0.9055 0.72366 0.0
Co187 Co 0.08242 0.91273 0.70115 0.0
O188 O 0.04713 0.94439 0.71176 0.0
C189 C 0.05973 0.85842 0.65979 0.0
C190 C 0.01586 0.80995 0.73699 0.0
C191 C 0.01796 0.93567 0.71935 0.0
O192 O 0.03652 0.85295 0.68064 0.0
O193 O 0.08235 0.87984 0.66451 0.0
O194 O 0.03815 0.87263 0.77585 0.0
O195 O 0.07458 0.88141 0.73673 0.0
Co196 Co 0.95786 0.36105 0.76018 0.0
O197 O 0.94427 0.31644 0.7524 0.0
O198 O -0.00391 0.33325 0.75767 0.0
C199 C 0.92531 0.38497 0.72245 0.0
O200 O 0.98148 0.40485 0.76596 0.0
Co201 Co 0.90821 0.41153 0.78833 0.0
O202 O 0.94361 0.44336 0.77853 0.0
C203 C 0.93139 0.35768 0.82988 0.0
C204 C 0.97542 0.30915 0.75319 0.0
C205 C 0.97283 0.4349 0.77085 0.0
O206 O 0.95465 0.35237 0.80905 0.0
O207 O 0.90853 0.37878 0.82507 0.0
O208 O 0.95307 0.37157 0.71375 0.0
O209 O 0.91654 0.38032 0.75278 0.0
Co210 Co 0.03547 0.12244 0.76487 0.0
O211 O 0.04963 0.16676 0.75632 0.0
O212 O -0.0024 0.15057 0.76143 0.0
C213 C 0.06805 0.09755 0.72779 0.0
O214 O 0.01114 0.07911 0.77116 0.0
Co215 Co 0.08373 0.07168 0.79434 0.0
O216 O 0.04818 0.04006 0.78432 0.0
C217 C 0.06172 0.1271 0.83444 0.0
C218 C 0.01853 0.17434 0.75651 0.0
C219 C 0.0192 0.04894 0.77622 0.0
O220 O 0.03842 0.13204 0.81356 0.0
O221 O 0.08422 0.1055 0.83017 0.0
O222 O 0.04042 0.111 0.71876 0.0
O223 O 0.07668 0.10253 0.75814 0.0
Co224 Co 0.73459 0.96068 0.62913 0.0
O225 O 0.74137 0.94654 0.67372 0.0
O226 O 0.73734 -0.0014 0.65738 0.0
C227 C 0.77204 0.92768 0.60537 0.0
O228 O 0.72996 0.98481 0.58548 0.0
Co229 Co 0.70625 0.91192 0.57773 0.0
O230 O 0.71702 0.94752 0.54646 0.0
C231 C 0.66464 0.93501 0.63158 0.0
C232 C 0.74098 0.97763 0.68134 0.0
C233 C 0.72517 0.97652 0.55531 0.0
O234 O 0.68554 0.95821 0.63698 0.0
O235 O 0.66944 0.91217 0.61043 0.0
O236 O 0.78112 0.9551 0.61927 0.0
O237 O 0.74148 0.91947 0.6095 0.0
Co238 Co 0.26013 0.53411 0.62401 0.0
O239 O 0.25006 0.54902 0.6678 0.0
O240 O 0.25718 0.49683 0.65291 0.0
C241 C 0.22268 0.56492 0.59742 0.0
O242 O 0.26822 0.50883 0.58154 0.0
Co243 Co 0.28905 0.58189 0.57236 0.0
O244 O 0.28116 0.54504 0.54165 0.0
C245 C 0.32908 0.56233 0.62883 0.0
C246 C 0.251 0.5181 0.67607 0.0
C247 C 0.27388 0.51608 0.55128 0.0
O248 O 0.30852 0.53892 0.63462 0.0
O249 O 0.32459 0.58394 0.60637 0.0
O250 O 0.21411 0.53739 0.61136 0.0
O251 O 0.25264 0.57453 0.60284 0.0
Co252 Co 0.72829 0.03595 0.86877 0.0
O253 O 0.73762 0.05047 0.82469 0.0
O254 O 0.73036 -0.00155 0.84002 0.0
C255 C 0.76651 0.06665 0.89446 0.0
O256 O 0.72084 0.01106 0.91156 0.0
Co257 Co 0.70067 0.08435 0.92054 0.0
O258 O 0.70887 0.0477 0.95139 0.0
C259 C 0.65964 0.06479 0.86481 0.0
C260 C 0.73628 0.01951 0.81661 0.0
C261 C 0.7158 0.01862 0.94186 0.0
O262 O 0.67977 0.04101 0.8591 0.0
O263 O 0.66474 0.08663 0.88694 0.0
O264 O 0.77457 0.03897 0.88049 0.0
O265 O 0.73654 0.07647 0.88954 0.0
Co266 Co 0.25674 0.46041 0.86332 0.0
O267 O 0.24763 0.44606 0.81921 0.0
O268 O 0.2527 0.49819 0.8351 0.0
C269 C 0.22036 0.4276 0.88902 0.0
O270 O 0.26368 0.48482 0.90651 0.0
Co271 Co 0.28746 0.41213 0.9135 0.0
O272 O 0.27857 0.44794 0.94513 0.0
C273 C 0.32655 0.43482 0.85764 0.0
C274 C 0.2478 0.47711 0.81144 0.0
C275 C 0.26999 0.47685 0.93648 0.0
O276 O 0.30531 0.45781 0.85292 0.0
O277 O 0.32283 0.41222 0.87925 0.0
O278 O 0.21079 0.45505 0.87556 0.0
O279 O 0.25065 0.41926 0.88345 0.0
Co280 Co 0.62818 0.73182 0.95666 0.0
O281 O 0.67247 0.73857 0.94138 0.0
O282 O 0.65745 0.73368 0.99377 0.0
C283 C 0.60385 0.77013 0.92504 0.0
O284 O 0.58538 0.72704 0.98217 0.0
Co285 Co 0.57478 0.70501 0.90939 0.0
O286 O 0.54483 0.71443 0.94651 0.0
C287 C 0.6288 0.66228 0.92984 0.0
C288 C 0.68087 0.73767 0.97228 0.0
C289 C 0.55492 0.72209 0.97523 0.0
O290 O 0.63544 0.68279 0.95306 0.0
O291 O 0.60688 0.66773 0.90788 0.0
O292 O 0.61856 0.77849 0.95226 0.0
O293 O 0.60735 0.73969 0.91614 0.0
Co294 Co 0.62255 0.25822 0.53046 0.0
O295 O 0.6662 0.24861 0.5459 0.0
O296 O 0.65155 0.25342 0.49339 0.0
C297 C 0.5958 0.2224 0.56309 0.0
O298 O 0.58014 0.26553 0.50486 0.0
Co299 Co 0.57135 0.28977 0.57695 0.0
O300 O 0.54063 0.28181 0.54013 0.0
C301 C 0.62837 0.32808 0.55578 0.0
C302 C 0.67463 0.24827 0.51501 0.0
C303 C 0.55009 0.27276 0.51162 0.0
O304 O 0.63355 0.30666 0.53302 0.0
O305 O 0.60606 0.32469 0.57773 0.0
O306 O 0.60957 0.2125 0.5359 0.0
O307 O 0.60142 0.25275 0.57124 0.0
Co308 Co 0.36294 0.23353 0.52961 0.0
O309 O 0.31888 0.24148 0.54479 0.0
O310 O 0.33365 0.23533 0.49245 0.0
C311 C 0.38791 0.27195 0.56068 0.0
O312 O 0.40572 0.22743 0.50428 0.0
Co313 Co 0.41567 0.20663 0.57757 0.0
O314 O 0.44587 0.21506 0.54047 0.0
C315 C 0.36093 0.16446 0.55764 0.0
C316 C 0.31038 0.24023 0.51394 0.0
C317 C 0.43607 0.22226 0.51154 0.0
O318 O 0.35456 0.18471 0.53412 0.0
O319 O 0.38297 0.16988 0.57947 0.0
O320 O 0.37353 0.2801 0.53323 0.0
O321 O 0.38381 0.24172 0.57002 0.0
Co322 Co 0.8628 0.25724 0.46058 0.0
O323 O 0.81914 0.24723 0.44532 0.0
O324 O 0.83362 0.25405 0.49767 0.0
C325 C 0.88956 0.22001 0.42958 0.0
O326 O 0.9051 0.26531 0.48613 0.0
Co327 Co 0.91456 0.28653 0.41312 0.0
O328 O 0.94499 0.27937 0.45032 0.0
C329 C 0.85822 0.32649 0.43304 0.0
C330 C 0.81061 0.24808 0.47617 0.0
C331 C 0.93529 0.27173 0.47917 0.0
O332 O 0.85218 0.30564 0.45611 0.0
O333 O 0.88074 0.32219 0.41145 0.0
O334 O 0.87551 0.21125 0.457 0.0
O335 O 0.88416 0.25002 0.42019 0.0
Co336 Co 0.53392 0.87009 0.76056 0.0
O337 O 0.54832 0.8261 0.75083 0.0
O338 O 0.49627 0.84158 0.75745 0.0
C339 C 0.56556 0.89602 0.7233 0.0
O340 O 0.50925 0.91295 0.76836 0.0
Co341 Co 0.58234 0.92103 0.7898 0.0
O342 O 0.54573 0.95217 0.78271 0.0
C343 C 0.56193 0.86461 0.82939 0.0
C344 C 0.51731 0.81814 0.75167 0.0
C345 C 0.51675 0.943 0.77488 0.0
O346 O 0.53818 0.85963 0.80901 0.0
O347 O 0.58408 0.88655 0.82488 0.0
O348 O 0.53787 0.88248 0.71449 0.0
O349 O 0.57472 0.89061 0.75338 0.0
Co350 Co 0.45959 0.63052 0.75766 0.0
O351 O 0.44492 0.67482 0.75 0.0
O352 O 0.49716 0.6591 0.7542 0.0
C353 C 0.42675 0.60571 0.72068 0.0
O354 O 0.48439 0.58737 0.763 0.0
Co355 Co 0.41195 0.5788 0.78692 0.0
O356 O 0.4478 0.54784 0.77615 0.0
C357 C 0.43455 0.63341 0.82791 0.0
C358 C 0.47595 0.68274 0.75002 0.0
C359 C 0.47663 0.55709 0.76788 0.0
O360 O 0.45721 0.63932 0.80657 0.0
O361 O 0.4122 0.61163 0.82362 0.0
O362 O 0.45404 0.61969 0.71138 0.0
O363 O 0.41854 0.61023 0.7512 0.0
Co364 Co 0.52997 0.13153 0.73441 0.0
O365 O 0.54427 0.17603 0.7415 0.0
O366 O 0.49218 0.15991 0.73672 0.0
C367 C 0.56241 0.10762 0.77229 0.0
O368 O 0.50564 0.08802 0.72932 0.0
Co369 Co 0.57878 0.07991 0.70674 0.0
O370 O 0.54279 0.04882 0.71672 0.0
C371 C 0.55621 0.13354 0.66456 0.0
C372 C 0.51322 0.18377 0.74073 0.0
C373 C 0.51374 0.05782 0.72447 0.0
O374 O 0.5331 0.13948 0.68539 0.0
O375 O 0.57879 0.11219 0.6696 0.0
O376 O 0.53491 0.12155 0.78099 0.0
O377 O 0.57101 0.11173 0.74184 0.0
Co378 Co 0.45576 0.37112 0.72625 0.0
O379 O 0.44103 0.32715 0.73563 0.0
O380 O 0.49322 0.34244 0.72952 0.0
C381 C 0.42407 0.39694 0.76355 0.0
O382 O 0.48078 0.41387 0.71897 0.0
Co383 Co 0.40807 0.4224 0.69694 0.0
O384 O 0.4446 0.45344 0.70509 0.0
C385 C 0.42861 0.36632 0.65697 0.0
C386 C 0.472 0.31908 0.73512 0.0
C387 C 0.47347 0.44405 0.71301 0.0
O388 O 0.45193 0.36097 0.67772 0.0
O389 O 0.40658 0.3884 0.66131 0.0
O390 O 0.45167 0.38325 0.77229 0.0
O391 O 0.41495 0.3918 0.73337 0.0
Co392 Co 0.75493 0.5295 0.86281 0.0
O393 O 0.74627 0.54386 0.81861 0.0
O394 O 0.75163 0.49176 0.83445 0.0
C395 C 0.71796 0.56196 0.88803 0.0
O396 O 0.76154 0.50499 0.90599 0.0
Co397 Co 0.78419 0.57799 0.91395 0.0
O398 O 0.77567 0.54171 0.94511 0.0
C399 C 0.82434 0.55628 0.85838 0.0
C400 C 0.74677 0.51281 0.81079 0.0
C401 C 0.7676 0.51276 0.93607 0.0
O402 O 0.80363 0.53285 0.85314 0.0
O403 O 0.81986 0.57866 0.88008 0.0
O404 O 0.7087 0.53445 0.87443 0.0
O405 O 0.74828 0.57045 0.88299 0.0
Co406 Co 0.23137 0.95657 0.86639 0.0
O407 O 0.24185 0.94232 0.82251 0.0
O408 O 0.23451 0.99428 0.83805 0.0
C409 C 0.26868 0.92545 0.89275 0.0
O410 O 0.22289 0.98115 0.90919 0.0
Co411 Co 0.20212 0.90792 0.917 0.0
O412 O 0.21024 0.94412 0.94842 0.0
C413 C 0.16255 0.92828 0.86051 0.0
C414 C 0.24096 0.97335 0.81466 0.0
C415 C 0.21743 0.97328 0.93934 0.0
O416 O 0.1831 0.95182 0.85528 0.0
O417 O 0.16686 0.90634 0.88268 0.0
O418 O 0.27726 0.95325 0.87934 0.0
O419 O 0.23879 0.91583 0.88696 0.0
Co420 Co 0.75986 0.45521 0.62356 0.0
O421 O 0.74962 0.4405 0.66736 0.0
O422 O 0.75666 0.49264 0.65228 0.0
C423 C 0.7226 0.42406 0.59699 0.0
O424 O 0.7681 0.48029 0.58104 0.0
Co425 Co 0.7892 0.40734 0.57231 0.0
O426 O 0.78154 0.44402 0.54137 0.0
C427 C 0.82875 0.42722 0.629 0.0
C428 C 0.75045 0.47147 0.6755 0.0
C429 C 0.77404 0.47297 0.55084 0.0
O430 O 0.80818 0.45067 0.63443 0.0
O431 O 0.82444 0.40544 0.60665 0.0
O432 O 0.71394 0.45169 0.61071 0.0
O433 O 0.75258 0.4146 0.60257 0.0
Co434 Co 0.23539 0.03269 0.62812 0.0
O435 O 0.24517 0.04678 0.67219 0.0
O436 O 0.23936 0.99477 0.6561 0.0
C437 C 0.27173 0.06524 0.60209 0.0
O438 O 0.22759 0.00847 0.58498 0.0
Co439 Co 0.20474 0.08149 0.57824 0.0
O440 O 0.21214 0.04536 0.54659 0.0
C441 C 0.16589 0.05898 0.63438 0.0
C442 C 0.24474 0.01568 0.6798 0.0
C443 C 0.22053 0.01637 0.55517 0.0
O444 O 0.18698 0.03582 0.63907 0.0
O445 O 0.16968 0.08155 0.61277 0.0
O446 O 0.28127 0.03767 0.61532 0.0
O447 O 0.24159 0.07379 0.60804 0.0
Co448 Co 0.86635 0.7613 0.53259 0.0
O449 O 0.82233 0.75276 0.54771 0.0
O450 O 0.83709 0.75938 0.49544 0.0
C451 C 0.8916 0.72293 0.5634 0.0
O452 O 0.90902 0.76795 0.50721 0.0
Co453 Co 0.91899 0.78849 0.58031 0.0
O454 O 0.94931 0.78045 0.54318 0.0
C455 C 0.86344 0.82994 0.56137 0.0
C456 C 0.81387 0.75403 0.51685 0.0
C457 C 0.93941 0.77323 0.51429 0.0
O458 O 0.85749 0.80998 0.53748 0.0
O459 O 0.88562 0.82456 0.58307 0.0
O460 O 0.87735 0.71486 0.53586 0.0
O461 O 0.88733 0.75308 0.57298 0.0
Co462 Co 0.86736 0.23041 0.9627 0.0
O463 O 0.8235 0.23917 0.94741 0.0
O464 O 0.83834 0.23445 -0.00012 0.0
C465 C 0.89327 0.26693 0.93024 0.0
O466 O 0.9101 0.22396 0.98804 0.0
Co467 Co 0.91877 0.19994 0.91577 0.0
O468 O 0.94967 0.20934 0.95209 0.0
C469 C 0.86219 0.16091 0.93663 0.0
C470 C 0.81512 0.23923 0.97831 0.0
C471 C 0.94032 0.21802 0.98076 0.0
O472 O 0.85733 0.18179 0.95995 0.0
O473 O 0.88422 0.16486 0.91447 0.0
O474 O 0.87936 0.27639 0.9575 0.0
O475 O 0.88821 0.23652 0.92188 0.0
Co476 Co 0.12677 0.26011 0.96156 0.0
O477 O 0.17078 0.25133 0.94668 0.0
O478 O 0.15582 0.25804 -0.00111 0.0
C479 C 0.1014 0.22186 0.93063 0.0
O480 O 0.08396 0.26697 0.98666 0.0
Co481 Co 0.07466 0.28757 0.9134 0.0
O482 O 0.04403 0.27896 0.95012 0.0
C483 C 0.13004 0.32899 0.93314 0.0
C484 C 0.17911 0.25256 0.97757 0.0
C485 C 0.05361 0.2719 0.97915 0.0
O486 O 0.13603 0.30876 0.95678 0.0
O487 O 0.1079 0.32383 0.91134 0.0
O488 O 0.11548 0.21373 0.95823 0.0
O489 O 0.10598 0.25197 0.92107 0.0
Co490 Co 0.62668 0.23151 0.03268 0.0
O491 O 0.67052 0.24067 0.04791 0.0
O492 O 0.65586 0.23432 0.99555 0.0
C493 C 0.60065 0.26906 0.06386 0.0
O494 O 0.5841 0.22429 0.00731 0.0
Co495 Co 0.57478 0.20278 0.08033 0.0
O496 O 0.54425 0.21074 0.04337 0.0
C497 C 0.63069 0.16237 0.06027 0.0
C498 C 0.67901 0.23976 0.01705 0.0
C499 C 0.55385 0.21841 0.0145 0.0
O500 O 0.63647 0.18296 0.03691 0.0
O501 O 0.60848 0.16697 0.08211 0.0
O502 O 0.61479 0.27768 0.03643 0.0
O503 O 0.60559 0.23894 0.07316 0.0
Co504 Co 0.45637 0.12958 0.23553 0.0
O505 O 0.44174 0.174 0.24264 0.0
O506 O 0.49397 0.15808 0.23905 0.0
C507 C 0.42312 0.10519 0.27235 0.0
O508 O 0.48109 0.08631 0.23073 0.0
Co509 Co 0.40877 0.07769 0.20628 0.0
O510 O 0.4447 0.04677 0.21696 0.0
C511 C 0.43162 0.13214 0.16527 0.0
C512 C 0.4728 0.18183 0.24276 0.0
C513 C 0.47344 0.05605 0.22551 0.0
O514 O 0.45439 0.13791 0.18654 0.0
O515 O 0.4091 0.11055 0.16964 0.0
O516 O 0.45034 0.11919 0.28186 0.0
O517 O 0.41525 0.10946 0.24172 0.0
Co518 Co 0.53225 0.36859 0.22947 0.0
O519 O 0.5461 0.3245 0.23934 0.0
O520 O 0.49422 0.34056 0.23273 0.0
C521 C 0.56417 0.39425 0.26668 0.0
O522 O 0.50825 0.41183 0.22166 0.0
Co523 Co 0.58156 0.41859 0.20007 0.0
O524 O 0.5459 0.45041 0.20869 0.0
C525 C 0.55962 0.36285 0.16027 0.0
C526 C 0.51501 0.3169 0.23865 0.0
C527 C 0.51666 0.44184 0.21618 0.0
O528 O 0.53623 0.3579 0.18105 0.0
O529 O 0.58206 0.38455 0.16452 0.0
O530 O 0.53632 0.38108 0.27547 0.0
O531 O 0.57335 0.38855 0.23664 0.0
Co532 Co 0.45892 0.86758 0.26165 0.0
O533 O 0.4456 0.82346 0.25116 0.0
O534 O 0.49726 0.84001 0.2584 0.0
C535 C 0.427 0.89334 0.22452 0.0
O536 O 0.48242 0.91097 0.27027 0.0
Co537 Co 0.4089 0.91662 0.29135 0.0
O538 O 0.4445 0.94892 0.28418 0.0
C539 C 0.43116 0.8607 0.33062 0.0
C540 C 0.47675 0.81617 0.25214 0.0
C541 C 0.47383 0.94076 0.27663 0.0
O542 O 0.45471 0.85625 0.30991 0.0
O543 O 0.40851 0.88216 0.32649 0.0
O544 O 0.45505 0.88058 0.21577 0.0
O545 O 0.41767 0.88717 0.25441 0.0
Co546 Co 0.53634 0.62932 0.25844 0.0
O547 O 0.55091 0.67366 0.25045 0.0
O548 O 0.49874 0.65773 0.25502 0.0
C549 C 0.56898 0.60436 0.22143 0.0
O550 O 0.51151 0.58623 0.26417 0.0
Co551 Co 0.58394 0.57762 0.28764 0.0
O552 O 0.5478 0.54661 0.27775 0.0
C553 C 0.56182 0.63252 0.32849 0.0
C554 C 0.51984 0.68143 0.25056 0.0
C555 C 0.519 0.55597 0.26952 0.0
O556 O 0.53902 0.63837 0.30728 0.0
O557 O 0.58408 0.61068 0.32414 0.0
O558 O 0.54163 0.61825 0.2122 0.0
O559 O 0.57735 0.60901 0.25189 0.0
Co560 Co 0.23213 0.45687 0.12464 0.0
O561 O 0.24105 0.44226 0.16872 0.0
O562 O 0.23457 0.49438 0.15337 0.0
C563 C 0.26997 0.4256 0.09918 0.0
O564 O 0.22509 0.48167 0.08172 0.0
Co565 Co 0.20394 0.40841 0.0731 0.0
O566 O 0.21195 0.44505 0.04219 0.0
C567 C 0.16319 0.42877 0.1287 0.0
C568 C 0.23994 0.47322 0.17682 0.0
C569 C 0.2194 0.47407 0.05152 0.0
O570 O 0.18352 0.45245 0.13416 0.0
O571 O 0.16809 0.40666 0.10679 0.0
O572 O 0.27842 0.4532 0.11309 0.0
O573 O 0.23986 0.41621 0.10406 0.0
Co574 Co 0.75888 0.03181 0.12826 0.0
O575 O 0.75019 0.04644 0.17238 0.0
O576 O 0.75506 0.99422 0.15671 0.0
C577 C 0.72218 0.06436 0.10281 0.0
O578 O 0.76526 0.00708 0.08518 0.0
Co579 Co 0.78888 0.07965 0.07722 0.0
O580 O 0.77863 0.04388 0.04594 0.0
C581 C 0.8287 0.05762 0.13285 0.0
C582 C 0.7502 0.01541 0.18026 0.0
C583 C 0.77041 0.01498 0.05497 0.0
O584 O 0.80756 0.03461 0.13811 0.0
O585 O 0.82468 0.07994 0.11101 0.0
O586 O 0.71282 0.03696 0.11651 0.0
O587 O 0.75255 0.07283 0.10792 0.0
Co588 Co 0.23193 0.53028 0.36464 0.0
O589 O 0.2402 0.54495 0.32046 0.0
O590 O 0.23472 0.49275 0.33594 0.0
C591 C 0.2695 0.56223 0.38969 0.0
O592 O 0.22576 0.50547 0.40769 0.0
Co593 Co 0.20341 0.5784 0.41628 0.0
O594 O 0.213 0.5422 0.44722 0.0
C595 C 0.16257 0.55729 0.36101 0.0
C596 C 0.23958 0.51396 0.31243 0.0
C597 C 0.22075 0.51324 0.43796 0.0
O598 O 0.18316 0.53385 0.35554 0.0
O599 O 0.16731 0.57953 0.38281 0.0
O600 O 0.27825 0.53475 0.37574 0.0
O601 O 0.23919 0.5711 0.38506 0.0
Co602 Co 0.75963 0.9569 0.36712 0.0
O603 O 0.74877 0.94285 0.32329 0.0
O604 O 0.75663 0.99472 0.33889 0.0
C605 C 0.72236 0.92589 0.39374 0.0
O606 O 0.76875 0.98116 0.40999 0.0
Co607 Co 0.78914 0.90763 0.41698 0.0
O608 O 0.78273 0.94397 0.44862 0.0
C609 C 0.8282 0.92826 0.36028 0.0
C610 C 0.7501 0.97385 0.31545 0.0
C611 C 0.77536 0.97319 0.43989 0.0
O612 O 0.80777 0.95199 0.35558 0.0
O613 O 0.82397 0.90607 0.38221 0.0
O614 O 0.7138 0.95375 0.38046 0.0
O615 O 0.75211 0.91613 0.38757 0.0
Co616 Co 0.1214 0.23183 0.46045 0.0
O617 O 0.16536 0.23947 0.44474 0.0
O618 O 0.1509 0.23493 0.49732 0.0
C619 C 0.09613 0.26914 0.42837 0.0
O620 O 0.07889 0.22637 0.48633 0.0
Co621 Co 0.06837 0.20313 0.41399 0.0
O622 O 0.03843 0.21215 0.45118 0.0
C623 C 0.12392 0.16228 0.4341 0.0
C624 C 0.17403 0.23924 0.47556 0.0
C625 C 0.04851 0.22053 0.4797 0.0
O626 O 0.12988 0.18295 0.45737 0.0
O627 O 0.10176 0.16703 0.41223 0.0
O628 O 0.11064 0.27818 0.45548 0.0
O629 O 0.10021 0.23863 0.41994 0.0
Co630 Co 0.12868 0.75804 0.03188 0.0
O631 O 0.17262 0.74936 0.04714 0.0
O632 O 0.15777 0.75475 0.99474 0.0
C633 C 0.10286 0.72088 0.0637 0.0
O634 O 0.08606 0.76456 0.00639 0.0
Co635 Co 0.0765 0.78718 0.07896 0.0
O636 O 0.04601 0.77825 0.04217 0.0
C637 C 0.13231 0.82762 0.05845 0.0
C638 C 0.181 0.74976 0.01624 0.0
C639 C 0.05574 0.77023 0.01343 0.0
O640 O 0.13826 0.80672 0.03538 0.0
O641 O 0.11004 0.8232 0.08027 0.0
O642 O 0.11701 0.71186 0.0364 0.0
O643 O 0.10765 0.75119 0.07248 0.0
Co644 Co 0.86907 0.7279 0.02875 0.0
O645 O 0.82482 0.73587 0.04334 0.0
O646 O 0.84035 0.73044 0.99115 0.0
C647 C 0.89367 0.76575 0.06081 0.0
O648 O 0.91223 0.72199 0.00404 0.0
Co649 Co 0.92078 0.69986 0.07702 0.0
O650 O 0.95173 0.70892 0.04068 0.0
C651 C 0.86581 0.65863 0.05592 0.0
C652 C 0.81678 0.73519 0.01235 0.0
C653 C 0.94247 0.71671 0.01173 0.0
O654 O 0.86033 0.67908 0.03237 0.0
O655 O 0.88749 0.6636 0.07824 0.0
O656 O 0.87982 0.77433 0.03323 0.0
O657 O 0.8893 0.7354 0.06966 0.0
Co658 Co 0.36873 0.76023 0.96032 0.0
O659 O 0.3249 0.75048 0.94551 0.0
O660 O 0.34011 0.75606 -0.00221 0.0
C661 C 0.39505 0.72389 0.92795 0.0
O662 O 0.4115 0.76783 0.98525 0.0
Co663 Co 0.41938 0.79101 0.9126 0.0
O664 O 0.45056 0.783 0.94898 0.0
C665 C 0.36286 0.82977 0.93417 0.0
C666 C 0.31679 0.75063 0.97648 0.0
C667 C 0.44152 0.77451 0.9778 0.0
O668 O 0.35787 0.80864 0.95723 0.0
O669 O 0.38486 0.82606 0.91195 0.0
O670 O 0.38152 0.7144 0.9554 0.0
O671 O 0.38937 0.7541 0.91941 0.0
C672 C 0.01895 0.2179 0.25087 0.0
C673 C 0.98532 0.20985 0.25155 0.0
H674 H 0.05504 0.25628 0.25004 0.0
C675 C 0.9618 0.23521 0.25036 0.0
H676 H 0.03762 0.19884 0.25168 0.0
C677 C 0.97175 0.2681 0.24951 0.0
C678 C 0.00539 0.27617 0.24969 0.0
H679 H 0.93567 0.22971 0.25084 0.0
H680 H 0.95309 0.28718 0.24933 0.0
C681 C 0.02891 0.25078 0.24986 0.0
C682 C 0.02936 0.73648 0.24156 0.0
C683 C 0.00604 0.71089 0.24107 0.0
H684 H 0.03764 0.78854 0.24069 0.0
C685 C 0.97234 0.71864 0.24119 0.0
H686 H 0.05553 0.73121 0.24145 0.0
C687 C 0.96212 0.75144 0.24088 0.0
C688 C 0.98543 0.77702 0.24026 0.0
H689 H 0.95383 0.6994 0.24089 0.0
H690 H 0.93595 0.75669 0.24029 0.0
C691 C 0.01913 0.76929 0.24107 0.0
C692 C 0.24577 0.02018 0.22061 0.0
C693 C 0.24699 0.9865 0.2128 0.0
H694 H 0.24466 0.05652 0.25877 0.0
C695 C 0.2463 0.96315 0.23832 0.0
H696 H 0.24618 0.03871 0.2014 0.0
C697 C 0.24555 0.97333 0.27115 0.0
C698 C 0.2453 0.00702 0.27898 0.0
H699 H 0.2472 0.937 0.23302 0.0
H700 H 0.24583 0.9548 0.29036 0.0
C701 C 0.24484 0.03036 0.25343 0.0
C702 C 0.74498 0.47094 0.21959 0.0
C703 C 0.74577 0.50454 0.21143 0.0
H704 H 0.74314 0.43506 0.25811 0.0
C705 C 0.74715 0.52813 0.23674 0.0
H706 H 0.74399 0.45223 0.20057 0.0
C707 C 0.74652 0.51832 0.26967 0.0
C708 C 0.74468 0.48476 0.27782 0.0
H709 H 0.74778 0.55422 0.23115 0.0
H710 H 0.74678 0.53706 0.28869 0.0
C711 C 0.74453 0.46113 0.25253 0.0
C712 C 0.27185 0.24771 0.97343 0.0
C713 C 0.28038 0.24894 0.00693 0.0
H714 H 0.23298 0.24765 0.93787 0.0
C715 C 0.25532 0.24955 0.0308 0.0
H716 H 0.29068 0.24717 0.9545 0.0
C717 C 0.22229 0.24997 0.02128 0.0
C718 C 0.21379 0.24963 0.98775 0.0
H719 H 0.26119 0.25054 0.05683 0.0
H720 H 0.20348 0.25117 0.04018 0.0
C721 C 0.23883 0.24796 0.96392 0.0
C722 C 0.25423 0.74082 0.46015 0.0
C723 C 0.27916 0.7398 0.48417 0.0
H724 H 0.20242 0.7411 0.45043 0.0
C725 C 0.27047 0.7401 0.51764 0.0
H726 H 0.26023 0.7406 0.43414 0.0
C727 C 0.23738 0.74053 0.52695 0.0
C728 C 0.21244 0.74049 0.50293 0.0
H729 H 0.28918 0.73941 0.53668 0.0
H730 H 0.23139 0.74005 0.55296 0.0
C731 C 0.22114 0.74108 0.46946 0.0
C732 C 0.75412 0.74972 0.53063 0.0
C733 C 0.77915 0.75116 0.50677 0.0
H734 H 0.70225 0.74896 0.54005 0.0
C735 C 0.77063 0.75127 0.47324 0.0
H736 H 0.75999 0.74961 0.55667 0.0
C737 C 0.73761 0.75075 0.46374 0.0
C738 C 0.71255 0.75029 0.48761 0.0
H739 H 0.78943 0.7523 0.45432 0.0
H740 H 0.73175 0.75152 0.4377 0.0
C741 C 0.72108 0.74937 0.52112 0.0
C742 C 0.02773 0.7498 0.741 0.0
C743 C 0.00466 0.77557 0.7399 0.0
H744 H 0.03554 0.69769 0.74136 0.0
C745 C 0.97088 0.76809 0.74009 0.0
H746 H 0.05394 0.75485 0.74089 0.0
C747 C 0.96036 0.73535 0.7405 0.0
C748 C 0.98344 0.70957 0.74056 0.0
H749 H 0.95256 0.78747 0.73932 0.0
H750 H 0.93415 0.73028 0.73992 0.0
C751 C 0.0172 0.71708 0.74125 0.0
C752 C 0.97386 0.21624 0.75176 0.0
C753 C 0.00759 0.20872 0.75304 0.0
H754 H 0.93724 0.25404 0.75051 0.0
C755 C 0.03076 0.23444 0.75246 0.0
H756 H 0.95547 0.19688 0.75208 0.0
C757 C 0.02033 0.26719 0.75166 0.0
C758 C 0.98658 0.27472 0.75126 0.0
H759 H 0.05694 0.22935 0.75343 0.0
H760 H 0.0387 0.28656 0.75199 0.0
C761 C 0.96344 0.24896 0.7508 0.0
C762 C 0.7416 0.03224 0.75669 0.0
C763 C 0.73984 0.00885 0.78214 0.0
H764 H 0.74341 0.04065 0.70466 0.0
C765 C 0.74021 0.97518 0.77425 0.0
H766 H 0.74134 0.05839 0.76207 0.0
C767 C 0.74156 0.96505 0.74144 0.0
C768 C 0.74238 0.98842 0.71594 0.0
H769 H 0.73896 0.95661 0.79338 0.0
H770 H 0.74118 0.9389 0.73608 0.0
C771 C 0.74277 0.0221 0.72384 0.0
C772 C 0.24504 0.52135 0.76882 0.0
C773 C 0.24522 0.48771 0.77687 0.0
H774 H 0.24649 0.55739 0.73039 0.0
C775 C 0.24513 0.46418 0.75148 0.0
H776 H 0.24505 0.54002 0.78791 0.0
C777 C 0.24614 0.4741 0.71861 0.0
C778 C 0.24705 0.50772 0.71057 0.0
H779 H 0.24528 0.43806 0.75697 0.0
H780 H 0.2469 0.45541 0.69956 0.0
C781 C 0.24585 0.53128 0.73591 0.0
C782 C 0.72402 0.73997 0.01596 0.0
C783 C 0.71566 0.73933 0.9824 0.0
H784 H 0.76267 0.73938 0.05174 0.0
C785 C 0.74084 0.73882 0.95866 0.0
H786 H 0.70511 0.74043 0.0348 0.0
C787 C 0.77383 0.73809 0.96836 0.0
C788 C 0.78216 0.73804 0.00195 0.0
H789 H 0.73509 0.73826 0.9326 0.0
H790 H 0.79276 0.73708 0.94956 0.0
C791 C 0.75698 0.73941 0.02565 0.0
C792 C 0.7343 0.24448 0.52906 0.0
C793 C 0.70931 0.24468 0.50511 0.0
H794 H 0.78612 0.24534 0.53862 0.0
C795 C 0.71789 0.24358 0.47162 0.0
H796 H 0.72838 0.2453 0.55508 0.0
C797 C 0.75095 0.24347 0.46221 0.0
C798 C 0.77593 0.24467 0.48614 0.0
H799 H 0.69911 0.2436 0.45263 0.0
H800 H 0.75687 0.24349 0.43618 0.0
C801 C 0.76735 0.24457 0.51965 0.0
C802 C 0.21759 0.24317 0.51874 0.0
C803 C 0.20885 0.24197 0.4853 0.0
H804 H 0.25671 0.24382 0.55403 0.0
C805 C 0.23374 0.24188 0.46125 0.0
H806 H 0.1989 0.24334 0.5378 0.0
C807 C 0.26685 0.24204 0.47053 0.0
C808 C 0.27558 0.24245 0.504 0.0
H809 H 0.2277 0.24093 0.43526 0.0
H810 H 0.28554 0.24129 0.45149 0.0
C811 C 0.25069 0.2435 0.52802 0.0
C812 C 0.47302 0.77563 0.74824 0.0
C813 C 0.50668 0.78363 0.74829 0.0
H814 H 0.43689 0.73727 0.74847 0.0
C815 C 0.53015 0.75825 0.74686 0.0
H816 H 0.4544 0.79472 0.74924 0.0
C817 C 0.52013 0.72536 0.74654 0.0
C818 C 0.48649 0.71734 0.74748 0.0
H819 H 0.55628 0.76371 0.74686 0.0
H820 H 0.53877 0.70626 0.74623 0.0
C821 C 0.46301 0.74275 0.74775 0.0
C822 C 0.45896 0.25926 0.74055 0.0
C823 C 0.48248 0.28462 0.73913 0.0
H824 H 0.45029 0.20728 0.74224 0.0
C825 C 0.51612 0.27665 0.74017 0.0
H826 H 0.43284 0.26471 0.7398 0.0
C827 C 0.52608 0.24381 0.74172 0.0
C828 C 0.50258 0.21839 0.74209 0.0
H829 H 0.53478 0.29572 0.73921 0.0
H830 H 0.55221 0.23836 0.74181 0.0
C831 C 0.46893 0.22639 0.74193 0.0
C832 C 0.74452 0.52564 0.75079 0.0
C833 C 0.74442 0.50217 0.77621 0.0
H834 H 0.74649 0.53426 0.69885 0.0
C835 C 0.74416 0.46851 0.76821 0.0
H836 H 0.74473 0.55177 0.75624 0.0
C837 C 0.74505 0.45849 0.73533 0.0
C838 C 0.74642 0.48198 0.70996 0.0
H839 H 0.74401 0.44989 0.78734 0.0
H840 H 0.74562 0.43236 0.72987 0.0
C841 C 0.74561 0.51562 0.71794 0.0
C842 C 0.24723 0.02812 0.73988 0.0
C843 C 0.24742 0.00483 0.71427 0.0
H844 H 0.24502 0.03635 0.79189 0.0
C845 C 0.24778 0.97112 0.72199 0.0
H846 H 0.24693 0.05429 0.73464 0.0
C847 C 0.2468 0.96086 0.75478 0.0
C848 C 0.24523 0.98415 0.78034 0.0
H849 H 0.24801 0.95264 0.70272 0.0
H850 H 0.24627 0.93469 0.76002 0.0
C851 C 0.24604 0.01786 0.77265 0.0
C852 C 0.73872 0.2436 0.03108 0.0
C853 C 0.71375 0.24266 0.00711 0.0
H854 H 0.79055 0.24331 0.04071 0.0
C855 C 0.72237 0.24267 0.97362 0.0
H856 H 0.73277 0.24361 0.0571 0.0
C857 C 0.75543 0.24264 0.96425 0.0
C858 C 0.78041 0.24241 0.98823 0.0
H859 H 0.70362 0.24204 0.95462 0.0
H860 H 0.76137 0.24189 0.93823 0.0
C861 C 0.77179 0.24339 0.02171 0.0
C862 C 0.52732 0.25708 0.24497 0.0
C863 C 0.50404 0.28257 0.24255 0.0
H864 H 0.53563 0.2051 0.24705 0.0
C865 C 0.47034 0.27477 0.2423 0.0
H866 H 0.55349 0.26238 0.24527 0.0
C867 C 0.46011 0.24196 0.24346 0.0
C868 C 0.48345 0.21643 0.24473 0.0
H869 H 0.45185 0.29394 0.24054 0.0
H870 H 0.43398 0.2366 0.24245 0.0
C871 C 0.51711 0.22429 0.24597 0.0
C872 C 0.46494 0.75621 0.24637 0.0
C873 C 0.48802 0.78191 0.24858 0.0
H874 H 0.45697 0.70415 0.2452 0.0
C875 C 0.52178 0.77438 0.24927 0.0
H876 H 0.43874 0.76129 0.24577 0.0
C877 C 0.53223 0.74163 0.24881 0.0
C878 C 0.50906 0.71591 0.24784 0.0
H879 H 0.54011 0.79373 0.25089 0.0
H880 H 0.55838 0.73648 0.25017 0.0
C881 C 0.47536 0.72349 0.2461 0.0
C882 C 0.24303 0.46992 0.26967 0.0
C883 C 0.24237 0.50353 0.27782 0.0
H884 H 0.24306 0.43396 0.23115 0.0
C885 C 0.2428 0.52713 0.25252 0.0
H886 H 0.24279 0.4512 0.2887 0.0
C887 C 0.24283 0.51727 0.21959 0.0
C888 C 0.24261 0.48366 0.21144 0.0
H889 H 0.2423 0.55323 0.2581 0.0
H890 H 0.24242 0.53599 0.20057 0.0
C891 C 0.24324 0.46006 0.23674 0.0
C892 C 0.74716 0.02832 0.24024 0.0
C893 C 0.74694 0.00487 0.21477 0.0
H894 H 0.74826 0.03683 0.29225 0.0
C895 C 0.74542 0.97124 0.22269 0.0
H896 H 0.74831 0.05444 0.23484 0.0
C897 C 0.74523 0.96119 0.25554 0.0
C898 C 0.74676 0.9846 0.281 0.0
H899 H 0.7451 0.95264 0.20353 0.0
H900 H 0.74489 0.93505 0.26093 0.0
C901 C 0.74717 0.01826 0.2731 0.0
C902 C 0.24083 0.74667 0.02995 0.0
C903 C 0.21569 0.74679 0.00615 0.0
H904 H 0.29274 0.74772 0.03917 0.0
C905 C 0.22407 0.7459 0.97261 0.0
H906 H 0.23507 0.74733 0.05601 0.0
C907 C 0.25705 0.74598 0.96299 0.0
C908 C 0.2822 0.74713 0.98676 0.0
H909 H 0.20518 0.74585 0.95374 0.0
H910 H 0.26279 0.74609 0.93692 0.0
C911 C 0.27384 0.74693 0.02032 0.0
C912 C 0.06196 0.28277 0.37894 0.0
C913 C 0.08077 0.29329 0.40602 0.0
H914 H 0.03914 0.29626 0.3333 0.0
C915 C 0.08758 0.32702 0.40981 0.0
H916 H 0.05611 0.25692 0.37563 0.0
C917 C 0.07828 0.34944 0.38545 0.0
C918 C 0.06138 0.33862 0.35725 0.0
H919 H 0.10188 0.33586 0.43056 0.0
H920 H 0.08563 0.37499 0.38796 0.0
C921 C 0.05204 0.30533 0.35487 0.0
C922 C 0.90096 0.16198 0.41306 0.0
C923 C 0.90616 0.19584 0.40812 0.0
H924 H 0.90525 0.11341 0.39287 0.0
C925 C 0.92462 0.20627 0.38077 0.0
H926 H 0.88699 0.15321 0.43405 0.0
C927 C 0.93574 0.18335 0.35755 0.0
C928 C 0.92795 0.14977 0.36104 0.0
H929 H 0.92924 0.23223 0.37657 0.0
H930 H 0.94827 0.19224 0.33571 0.0
C931 C 0.91144 0.13917 0.38954 0.0
C932 C 0.06812 0.70738 0.1128 0.0
C933 C 0.0867 0.69682 0.08558 0.0
H934 H 0.04453 0.69362 0.15798 0.0
C935 C 0.09233 0.66297 0.08107 0.0
H936 H 0.06318 0.73333 0.11666 0.0
C937 C 0.08208 0.64035 0.10485 0.0
C938 C 0.06536 0.6511 0.13316 0.0
H939 H 0.10641 0.6541 0.0602 0.0
H940 H 0.08853 0.61462 0.10181 0.0
C941 C 0.05723 0.68463 0.13627 0.0
C942 C 0.93722 0.80333 0.13406 0.0
C943 C 0.9281 0.83661 0.13095 0.0
H944 H 0.93306 0.7545 0.11425 0.0
C945 C 0.91131 0.84686 0.10249 0.0
H946 H 0.95002 0.79469 0.15586 0.0
C947 C 0.90205 0.82396 0.07853 0.0
C948 C 0.90875 0.79029 0.08298 0.0
H949 H 0.9041 0.87238 0.09942 0.0
H950 H 0.88792 0.83241 0.05751 0.0
C951 C 0.92732 0.78028 0.11041 0.0
C952 C 0.34999 0.05916 0.307 0.0
C953 C 0.35235 0.06728 0.34061 0.0
H954 H 0.37061 0.06526 0.25874 0.0
C955 C 0.38027 0.08428 0.35197 0.0
H956 H 0.3286 0.04625 0.29755 0.0
C957 C 0.40443 0.09478 0.32987 0.0
C958 C 0.4007 0.08908 0.29593 0.0
H959 H 0.38272 0.09074 0.37777 0.0
H960 H 0.425 0.10902 0.33919 0.0
C961 C 0.37386 0.07027 0.28477 0.0
C962 C 0.61414 0.42766 0.28046 0.0
C963 C 0.58608 0.41027 0.29084 0.0
H964 H 0.6599 0.44988 0.29466 0.0
C965 C 0.58068 0.40558 0.32471 0.0
H966 H 0.61869 0.43188 0.25449 0.0
C967 C 0.60437 0.41546 0.34761 0.0
C968 C 0.6335 0.43087 0.33709 0.0
H969 H 0.55913 0.39245 0.33344 0.0
H970 H 0.60061 0.40966 0.3734 0.0
C971 C 0.63755 0.43819 0.30347 0.0
C972 C 0.3868 0.91474 0.14364 0.0
C973 C 0.35773 0.93023 0.15418 0.0
H974 H 0.43197 0.89161 0.15775 0.0
C975 C 0.35369 0.93745 0.18784 0.0
H976 H 0.39054 0.909 0.11782 0.0
C977 C 0.37706 0.92679 0.21083 0.0
C978 C 0.40509 0.90939 0.2004 0.0
H979 H 0.33138 0.94917 0.19667 0.0
H980 H 0.37251 0.93095 0.23681 0.0
C981 C 0.41046 0.90476 0.16651 0.0
C982 C 0.58649 0.5932 0.16368 0.0
C983 C 0.59098 0.588 0.1976 0.0
H984 H 0.60706 0.58842 0.11534 0.0
C985 C 0.61809 0.5694 0.20841 0.0
H986 H 0.5657 0.60727 0.15462 0.0
C987 C 0.64142 0.55795 0.18576 0.0
C988 C 0.63827 0.56552 0.1521 0.0
H989 H 0.62193 0.56479 0.23442 0.0
H990 H 0.66303 0.54518 0.19489 0.0
C991 C 0.61011 0.58237 0.14117 0.0
C992 C 0.28436 0.3767 0.06454 0.0
C993 C 0.29444 0.40412 0.08311 0.0
H994 H 0.29888 0.33173 0.04103 0.0
C995 C 0.32821 0.40922 0.08879 0.0
H996 H 0.25848 0.37239 0.05955 0.0
C997 C 0.35125 0.38582 0.0786 0.0
C998 C 0.34099 0.3573 0.0619 0.0
H999 H 0.3367 0.43027 0.10287 0.0
H1000 H 0.37691 0.3893 0.0851 0.0
C1001 C 0.30751 0.35361 0.05371 0.0
C1002 C 0.30636 0.6345 0.43539 0.0
C1003 C 0.33985 0.63133 0.42705 0.0
H1004 H 0.25754 0.61507 0.42966 0.0
C1005 C 0.35036 0.60312 0.41 0.0
H1006 H 0.29753 0.65611 0.44837 0.0
C1007 C 0.32756 0.5795 0.39971 0.0
C1008 C 0.29376 0.58405 0.40565 0.0
H1009 H 0.37604 0.60003 0.40338 0.0
H1010 H 0.33624 0.55868 0.38543 0.0
C1011 C 0.28344 0.61118 0.42448 0.0
C1012 C 0.70846 0.87694 0.4285 0.0
C1013 C 0.69814 0.90455 0.4104 0.0
H1014 H 0.69413 0.83189 0.45199 0.0
C1015 C 0.66428 0.90998 0.40568 0.0
H1016 H 0.73442 0.87238 0.43274 0.0
C1017 C 0.6413 0.88667 0.41626 0.0
C1018 C 0.65174 0.85794 0.43243 0.0
H1019 H 0.65561 0.93118 0.39199 0.0
H1020 H 0.61551 0.89035 0.41041 0.0
C1021 C 0.68538 0.85395 0.43975 0.0
C1022 C 0.18548 0.63644 0.55094 0.0
C1023 C 0.1519 0.63256 0.55854 0.0
H1024 H 0.23454 0.61802 0.55775 0.0
C1025 C 0.14153 0.604 0.57509 0.0
H1026 H 0.19418 0.65835 0.53839 0.0
C1027 C 0.16455 0.58079 0.58575 0.0
C1028 C 0.19838 0.58612 0.58072 0.0
H1029 H 0.11578 0.60038 0.58115 0.0
H1030 H 0.15594 0.55974 0.59973 0.0
C1031 C 0.2086 0.61353 0.56225 0.0
C1032 C 0.9356 0.68405 0.63558 0.0
C1033 C 0.9262 0.65088 0.63202 0.0
H1034 H 0.93161 0.73318 0.61657 0.0
C1035 C 0.90921 0.64112 0.60349 0.0
H1036 H 0.94855 0.69231 0.65744 0.0
C1037 C 0.89995 0.66441 0.57995 0.0
C1038 C 0.90686 0.69797 0.58492 0.0
H1039 H 0.90179 0.61569 0.60009 0.0
H1040 H 0.88561 0.65635 0.55891 0.0
C1041 C 0.92571 0.70749 0.61235 0.0
C1042 C 0.05481 0.80284 0.63393 0.0
C1043 C 0.06314 0.83636 0.63111 0.0
H1044 H 0.06031 0.75429 0.61376 0.0
C1045 C 0.07963 0.8473 0.60273 0.0
H1046 H 0.04227 0.7937 0.65566 0.0
C1047 C 0.08954 0.82485 0.57864 0.0
C1048 C 0.0838 0.79098 0.58287 0.0
H1049 H 0.08621 0.87302 0.59991 0.0
H1050 H 0.10349 0.83386 0.55774 0.0
C1051 C 0.06536 0.78025 0.61012 0.0
C1052 C 0.93689 0.30234 0.85605 0.0
C1053 C 0.92838 0.33582 0.85872 0.0
H1054 H 0.93201 0.25394 0.8767 0.0
C1055 C 0.91225 0.3469 0.88723 0.0
H1056 H 0.94917 0.2931 0.8342 0.0
C1057 C 0.90289 0.32461 0.91168 0.0
C1058 C 0.90881 0.29075 0.90766 0.0
H1059 H 0.90554 0.3726 0.88994 0.0
H1060 H 0.8892 0.33371 0.93271 0.0
C1061 C 0.92687 0.2799 0.88021 0.0
C1062 C 0.08228 0.14014 0.89092 0.0
C1063 C 0.06531 0.15002 0.86244 0.0
H1064 H 0.10636 0.15523 0.93532 0.0
C1065 C 0.05645 0.18332 0.85878 0.0
H1066 H 0.0893 0.11462 0.89438 0.0
C1067 C 0.06687 0.20672 0.88186 0.0
C1068 C 0.0857 0.19705 0.90923 0.0
H1069 H 0.04354 0.19167 0.83695 0.0
H1070 H 0.06137 0.23248 0.87756 0.0
C1071 C 0.09206 0.16341 0.91431 0.0
C1072 C 0.61483 0.9304 0.70966 0.0
C1073 C 0.58759 0.9118 0.69913 0.0
H1074 H 0.66036 0.95335 0.69602 0.0
C1075 C 0.58339 0.90559 0.66533 0.0
H1076 H 0.61845 0.93578 0.73556 0.0
C1077 C 0.60753 0.91521 0.64279 0.0
C1078 C 0.63588 0.93187 0.65357 0.0
H1079 H 0.56252 0.89146 0.65651 0.0
H1080 H 0.60476 0.90823 0.61716 0.0
C1081 C 0.63865 0.94068 0.68698 0.0
C1082 C 0.37737 0.57104 0.7077 0.0
C1083 C 0.40464 0.5894 0.69687 0.0
H1084 H 0.33224 0.5471 0.69421 0.0
C1085 C 0.40922 0.59439 0.66293 0.0
H1086 H 0.37345 0.56656 0.73373 0.0
C1087 C 0.38555 0.58364 0.64042 0.0
C1088 C 0.35722 0.56706 0.65137 0.0
H1089 H 0.43016 0.60825 0.65385 0.0
H1090 H 0.38871 0.58952 0.61456 0.0
C1091 C 0.35396 0.55967 0.68506 0.0
C1092 C 0.60368 0.08737 0.85298 0.0
C1093 C 0.63144 0.06966 0.84237 0.0
H1094 H 0.55962 0.1127 0.83903 0.0
C1095 C 0.6342 0.06105 0.80891 0.0
H1096 H 0.60091 0.09422 0.87865 0.0
C1097 C 0.61093 0.07227 0.7861 0.0
C1098 C 0.58425 0.09166 0.79651 0.0
H1099 H 0.65546 0.04758 0.8 0.0
H1100 H 0.6145 0.06678 0.76021 0.0
C1101 C 0.58009 0.09796 0.8303 0.0
C1102 C 0.35053 0.43988 0.80122 0.0
C1103 C 0.35456 0.43181 0.83469 0.0
H1104 H 0.36945 0.43473 0.75213 0.0
C1105 C 0.38365 0.41613 0.84487 0.0
H1106 H 0.32821 0.45179 0.79268 0.0
C1107 C 0.40736 0.40682 0.82178 0.0
C1108 C 0.40205 0.41234 0.78801 0.0
H1109 H 0.38739 0.40975 0.87053 0.0
H1110 H 0.42889 0.39352 0.83025 0.0
C1111 C 0.37397 0.42991 0.77799 0.0
C1112 C 0.68358 0.63484 0.93438 0.0
C1113 C 0.6501 0.63314 0.92562 0.0
H1114 H 0.73159 0.61354 0.92891 0.0
C1115 C 0.63856 0.60551 0.90824 0.0
H1116 H 0.6932 0.65595 0.94762 0.0
C1117 C 0.66046 0.58106 0.89794 0.0
C1118 C 0.69434 0.58425 0.90422 0.0
H1119 H 0.61285 0.60354 0.90131 0.0
H1120 H 0.65111 0.56078 0.88331 0.0
C1121 C 0.7056 0.61073 0.92346 0.0
C1122 C 0.64134 0.38496 0.575 0.0
C1123 C 0.65157 0.35581 0.55946 0.0
H1124 H 0.6559 0.42986 0.59839 0.0
C1125 C 0.68519 0.35138 0.55235 0.0
H1126 H 0.61555 0.38902 0.58064 0.0
C1127 C 0.70843 0.37445 0.56317 0.0
C1128 C 0.69829 0.40253 0.58067 0.0
H1129 H 0.69378 0.329 0.54057 0.0
H1130 H 0.73436 0.36959 0.5591 0.0
C1131 C 0.66446 0.4083 0.58518 0.0
C1132 C 0.28347 0.11424 0.56667 0.0
C1133 C 0.29501 0.08742 0.58522 0.0
H1134 H 0.29576 0.15944 0.54234 0.0
C1135 C 0.32907 0.08361 0.59006 0.0
H1136 H 0.25734 0.11753 0.56232 0.0
C1137 C 0.35097 0.10774 0.57905 0.0
C1138 C 0.33926 0.13568 0.56235 0.0
H1139 H 0.33866 0.06305 0.60411 0.0
H1140 H 0.37691 0.10529 0.58491 0.0
C1141 C 0.30549 0.13804 0.555 0.0
C1142 C 0.82528 0.40758 0.4025 0.0
C1143 C 0.79123 0.4031 0.40679 0.0
H1144 H 0.8734 0.38663 0.40766 0.0
C1145 C 0.77989 0.37551 0.42434 0.0
H1146 H 0.83476 0.42874 0.38928 0.0
C1147 C 0.80216 0.35169 0.43551 0.0
C1148 C 0.83598 0.35488 0.42871 0.0
H1149 H 0.75376 0.37165 0.42826 0.0
H1150 H 0.79266 0.32974 0.4474 0.0
C1151 C 0.84743 0.38351 0.41305 0.0
C1152 C 0.5577 0.80825 0.85368 0.0
C1153 C 0.56638 0.84162 0.85719 0.0
H1154 H 0.5632 0.75916 0.87243 0.0
C1155 C 0.58391 0.85163 0.88531 0.0
H1156 H 0.54438 0.7998 0.83212 0.0
C1157 C 0.5943 0.82847 0.9085 0.0
C1158 C 0.58797 0.79479 0.90361 0.0
H1159 H 0.59081 0.87721 0.88866 0.0
H1160 H 0.60892 0.83679 0.92924 0.0
C1161 C 0.56869 0.78495 0.87658 0.0
C1162 C 0.41578 0.64406 0.88543 0.0
C1163 C 0.43143 0.65534 0.85672 0.0
H1164 H 0.39268 0.65701 0.93097 0.0
C1165 C 0.43915 0.68899 0.8538 0.0
H1166 H 0.40969 0.61822 0.88834 0.0
C1167 C 0.42875 0.71135 0.87789 0.0
C1168 C 0.41109 0.70026 0.9055 0.0
H1169 H 0.45104 0.69839 0.83181 0.0
H1170 H 0.43324 0.7374 0.87417 0.0
C1171 C 0.40603 0.66629 0.9098 0.0
C1172 C 0.57551 0.14325 0.60705 0.0
C1173 C 0.55948 0.15494 0.63538 0.0
H1174 H 0.59887 0.15551 0.56145 0.0
C1175 C 0.55142 0.18857 0.63757 0.0
H1176 H 0.58188 0.11742 0.60471 0.0
C1177 C 0.56181 0.21053 0.61313 0.0
C1178 C 0.5798 0.19907 0.58587 0.0
H1179 H 0.53924 0.19828 0.65926 0.0
H1180 H 0.55704 0.23661 0.61628 0.0
C1181 C 0.58524 0.16507 0.58232 0.0
C1182 C 0.43351 0.31021 0.63225 0.0
C1183 C 0.42448 0.3435 0.62895 0.0
H1184 H 0.42861 0.26118 0.61317 0.0
C1185 C 0.40705 0.35349 0.60078 0.0
H1186 H 0.4468 0.30176 0.65382 0.0
C1187 C 0.39704 0.33035 0.57736 0.0
C1188 C 0.40366 0.29671 0.58209 0.0
H1189 H 0.3999 0.37902 0.59757 0.0
H1190 H 0.38242 0.3386 0.55661 0.0
C1191 C 0.42289 0.28694 0.60914 0.0
C1192 C 0.90501 0.58666 0.82433 0.0
C1193 C 0.90016 0.58203 0.79037 0.0
H1194 H 0.88459 0.58189 0.87273 0.0
C1195 C 0.87254 0.56419 0.77951 0.0
H1196 H 0.92621 0.60013 0.83343 0.0
C1197 C 0.84904 0.55306 0.80216 0.0
C1198 C 0.85259 0.56021 0.83588 0.0
H1199 H 0.8684 0.56001 0.75346 0.0
H1200 H 0.82703 0.54099 0.79302 0.0
C1201 C 0.88125 0.57618 0.84685 0.0
C1202 C 0.13845 0.93141 0.80398 0.0
C1203 C 0.1347 0.92381 0.83758 0.0
H1204 H 0.11959 0.92495 0.75501 0.0
C1205 C 0.10615 0.90729 0.84803 0.0
H1206 H 0.16036 0.94394 0.79522 0.0
C1207 C 0.08272 0.89683 0.82512 0.0
C1208 C 0.08778 0.90206 0.79129 0.0
H1209 H 0.10262 0.90123 0.8738 0.0
H1210 H 0.06159 0.88302 0.83382 0.0
C1211 C 0.1153 0.92032 0.78095 0.0
C1212 C 0.90845 0.39553 0.66438 0.0
C1213 C 0.90344 0.40088 0.69821 0.0
H1214 H 0.88853 0.39986 0.61571 0.0
C1215 C 0.876 0.41925 0.70853 0.0
H1216 H 0.92952 0.38163 0.6557 0.0
C1217 C 0.85288 0.43035 0.6855 0.0
C1218 C 0.85659 0.42264 0.65192 0.0
H1219 H 0.87176 0.42398 0.73446 0.0
H1220 H 0.83105 0.44298 0.69427 0.0
C1221 C 0.88504 0.406 0.64147 0.0
C1222 C 0.085 0.08709 0.66978 0.0
C1223 C 0.09031 0.08209 0.70362 0.0
H1224 H 0.10501 0.08352 0.6211 0.0
C1225 C 0.11847 0.06482 0.71393 0.0
H1226 H 0.0634 0.10013 0.66108 0.0
C1227 C 0.14199 0.05463 0.69087 0.0
C1228 C 0.13791 0.06217 0.6573 0.0
H1229 H 0.12298 0.06039 0.73987 0.0
H1230 H 0.16437 0.04297 0.69959 0.0
C1231 C 0.10877 0.07756 0.64686 0.0
C1232 C 0.78515 0.87907 0.56981 0.0
C1233 C 0.79594 0.90563 0.5892 0.0
H1234 H 0.7985 0.83453 0.54481 0.0
C1235 C 0.8298 0.90955 0.5952 0.0
H1236 H 0.75919 0.87569 0.56456 0.0
C1237 C 0.85222 0.88587 0.58428 0.0
C1238 C 0.84125 0.85824 0.56654 0.0
H1239 H 0.83883 0.92993 0.60992 0.0
H1240 H 0.87796 0.88847 0.5909 0.0
C1241 C 0.80769 0.8557 0.55827 0.0
C1242 C 0.78171 0.11525 0.92929 0.0
C1243 C 0.79131 0.08766 0.91073 0.0
H1244 H 0.79709 0.15983 0.95306 0.0
C1245 C 0.82501 0.08186 0.90532 0.0
H1246 H 0.7559 0.1201 0.93407 0.0
C1247 C 0.84849 0.10473 0.91577 0.0
C1248 C 0.83877 0.13341 0.93249 0.0
H1249 H 0.83314 0.06067 0.89127 0.0
H1250 H 0.87413 0.10071 0.90948 0.0
C1251 C 0.80531 0.13781 0.94039 0.0
C1252 C 0.14073 0.38559 0.91177 0.0
C1253 C 0.15214 0.35745 0.92834 0.0
H1254 H 0.15348 0.43028 0.88697 0.0
C1255 C 0.18592 0.35464 0.93555 0.0
H1256 H 0.11481 0.38838 0.906 0.0
C1257 C 0.20819 0.37827 0.92397 0.0
C1258 C 0.19692 0.40535 0.90562 0.0
H1259 H 0.1954 0.33307 0.9481 0.0
H1260 H 0.2343 0.37467 0.92826 0.0
C1261 C 0.16289 0.40952 0.90085 0.0
C1262 C 0.64205 0.1057 0.08098 0.0
C1263 C 0.65308 0.13412 0.06466 0.0
H1264 H 0.65537 0.06089 0.1052 0.0
C1265 C 0.68677 0.13737 0.05723 0.0
H1266 H 0.61619 0.10256 0.08688 0.0
C1267 C 0.70935 0.11385 0.06838 0.0
C1268 C 0.69845 0.08648 0.08653 0.0
H1269 H 0.69597 0.15916 0.04484 0.0
H1270 H 0.73538 0.11776 0.06395 0.0
C1271 C 0.6645 0.08189 0.09149 0.0
C1272 C 0.42675 0.20997 0.11503 0.0
C1273 C 0.40871 0.19905 0.08757 0.0
H1274 H 0.44914 0.19685 0.16101 0.0
C1275 C 0.40299 0.16516 0.08348 0.0
H1276 H 0.43176 0.23595 0.11859 0.0
C1277 C 0.41254 0.14288 0.10786 0.0
C1278 C 0.42861 0.15402 0.13641 0.0
H1279 H 0.38933 0.15601 0.06243 0.0
H1280 H 0.40598 0.11714 0.10509 0.0
C1281 C 0.43692 0.18755 0.13915 0.0
C1282 C 0.55533 0.30649 0.13604 0.0
C1283 C 0.56337 0.33999 0.13228 0.0
H1284 H 0.56128 0.25745 0.11726 0.0
C1285 C 0.57983 0.35027 0.10364 0.0
H1286 H 0.54283 0.29787 0.15801 0.0
C1287 C 0.58996 0.32724 0.0802 0.0
C1288 C 0.58448 0.29346 0.08537 0.0
H1289 H 0.5862 0.37596 0.1001 0.0
H1290 H 0.60387 0.33577 0.05907 0.0
C1291 C 0.56611 0.28334 0.11289 0.0
C1292 C 0.4114 0.84771 0.38729 0.0
C1293 C 0.42769 0.83765 0.35849 0.0
H1294 H 0.38808 0.83292 0.43213 0.0
C1295 C 0.43603 0.80425 0.35457 0.0
H1296 H 0.40481 0.87332 0.39095 0.0
C1297 C 0.42579 0.78095 0.37783 0.0
C1298 C 0.40767 0.79083 0.4056 0.0
H1299 H 0.44842 0.79581 0.33247 0.0
H1300 H 0.43087 0.75512 0.37338 0.0
C1301 C 0.40182 0.82455 0.41083 0.0
C1302 C 0.59077 0.66567 0.41021 0.0
C1303 C 0.5849 0.69954 0.40621 0.0
H1304 H 0.58787 0.61766 0.38852 0.0
C1305 C 0.56682 0.71041 0.37878 0.0
H1306 H 0.60446 0.65655 0.43124 0.0
C1307 C 0.55669 0.68798 0.35463 0.0
C1308 C 0.56508 0.65447 0.3573 0.0
H1309 H 0.5617 0.73637 0.37529 0.0
H1310 H 0.54438 0.69725 0.33282 0.0
C1311 C 0.58126 0.64338 0.38579 0.0
C1312 C 0.10682 0.40725 0.14041 0.0
C1313 C 0.13492 0.42438 0.15111 0.0
H1314 H 0.06227 0.38271 0.15421 0.0
C1315 C 0.13785 0.43281 0.1846 0.0
H1316 H 0.10391 0.40055 0.11472 0.0
C1317 C 0.11436 0.42195 0.20736 0.0
C1318 C 0.0873 0.4031 0.19686 0.0
H1319 H 0.1594 0.44583 0.19356 0.0
H1320 H 0.11804 0.42724 0.23328 0.0
C1321 C 0.08303 0.39702 0.16304 0.0
C1322 C 0.85311 0.05345 0.18915 0.0
C1323 C 0.85685 0.06116 0.15557 0.0
H1324 H 0.87219 0.05952 0.23808 0.0
C1325 C 0.88565 0.07716 0.14505 0.0
H1326 H 0.83101 0.0413 0.19795 0.0
C1327 C 0.90932 0.08717 0.16791 0.0
C1328 C 0.90424 0.08202 0.20177 0.0
H1329 H 0.88918 0.08327 0.1193 0.0
H1330 H 0.93062 0.10071 0.15918 0.0
C1331 C 0.8765 0.0641 0.21213 0.0
C1332 C 0.08249 0.58876 0.32631 0.0
C1333 C 0.08713 0.58303 0.29249 0.0
H1334 H 0.10297 0.5849 0.37479 0.0
C1335 C 0.11427 0.56427 0.28209 0.0
H1336 H 0.06167 0.60299 0.33503 0.0
C1337 C 0.13755 0.55324 0.30499 0.0
C1338 C 0.13433 0.56143 0.33851 0.0
H1339 H 0.11822 0.55924 0.25617 0.0
H1340 H 0.1592 0.54038 0.29611 0.0
C1341 C 0.10608 0.57837 0.34909 0.0
C1342 C 0.85201 0.932 0.30366 0.0
C1343 C 0.85594 0.92414 0.33718 0.0
H1344 H 0.8709 0.92633 0.25459 0.0
C1345 C 0.8847 0.90793 0.34744 0.0
H1346 H 0.82992 0.9443 0.29506 0.0
C1347 C 0.90827 0.89812 0.32441 0.0
C1348 C 0.90312 0.90363 0.29062 0.0
H1349 H 0.88837 0.90169 0.37314 0.0
H1350 H 0.9296 0.88456 0.33298 0.0
C1351 C 0.87529 0.92152 0.28049 0.0
C1352 C 0.13572 0.10608 0.41212 0.0
C1353 C 0.14631 0.13403 0.42959 0.0
H1354 H 0.14978 0.06211 0.38666 0.0
C1355 C 0.17981 0.13706 0.43794 0.0
H1356 H 0.11002 0.1031 0.40548 0.0
C1357 C 0.20267 0.11397 0.42654 0.0
C1358 C 0.19228 0.08721 0.40721 0.0
H1359 H 0.18871 0.15847 0.45122 0.0
H1360 H 0.22858 0.11782 0.4317 0.0
C1361 C 0.15848 0.08266 0.40133 0.0
C1362 C 0.21078 0.8765 0.06669 0.0
C1363 C 0.19969 0.904 0.08453 0.0
H1364 H 0.19769 0.83091 0.04343 0.0
C1365 C 0.16569 0.90855 0.08911 0.0
H1366 H 0.23686 0.8726 0.06254 0.0
C1367 C 0.14336 0.88459 0.07858 0.0
C1368 C 0.15459 0.85603 0.06263 0.0
H1369 H 0.1564 0.92966 0.10257 0.0
H1370 H 0.11745 0.88771 0.08423 0.0
C1371 C 0.18834 0.85281 0.05552 0.0
C1372 C 0.85383 0.60233 0.07754 0.0
C1373 C 0.84336 0.63036 0.06017 0.0
H1374 H 0.83958 0.5583 0.10278 0.0
C1375 C 0.8099 0.63345 0.05171 0.0
H1376 H 0.8795 0.59932 0.08427 0.0
C1377 C 0.78694 0.61036 0.06296 0.0
C1378 C 0.7972 0.58352 0.08222 0.0
H1379 H 0.8011 0.65492 0.0385 0.0
H1380 H 0.76104 0.61427 0.05778 0.0
C1381 C 0.83098 0.5789 0.08815 0.0
C1382 C 0.28286 0.87603 0.92674 0.0
C1383 C 0.293 0.90403 0.90911 0.0
H1384 H 0.29752 0.83072 0.94952 0.0
C1385 C 0.32682 0.90981 0.90453 0.0
H1386 H 0.25693 0.87118 0.93086 0.0
C1387 C 0.34995 0.88655 0.91478 0.0
C1388 C 0.33971 0.85748 0.93046 0.0
H1389 H 0.33536 0.93132 0.89123 0.0
H1390 H 0.37572 0.89058 0.90908 0.0
C1391 C 0.3061 0.85305 0.93764 0.0
C1392 C 0.99183 0.49678 0.20839 0.0
C1393 C 0.99482 0.52487 0.22832 0.0
H1394 H 0.99374 0.44422 0.20721 0.0
C1395 C 0.98969 0.52197 0.26241 0.0
H1396 H -0.00434 0.49854 0.18201 0.0
C1397 C 0.9899 0.49081 0.27698 0.0
C1398 C 0.99392 0.46273 0.25724 0.0
H1399 H 0.99187 0.54339 0.27826 0.0
H1400 H 0.99226 0.48906 0.30353 0.0
C1401 C 0.99071 0.46562 0.22292 0.0
C1402 C 0.00064 0.96449 0.26389 0.0
C1403 C -0.00414 0.96305 0.22964 0.0
H1404 H -0.0021 -0.00437 0.30639 0.0
C1405 C -0.00107 0.99197 0.21099 0.0
H1406 H -0.00166 0.94242 0.27877 0.0
C1407 C 0.00011 0.02247 0.22689 0.0
C1408 C -0.00324 0.02394 0.2613 0.0
H1409 H 0.99531 0.99135 0.18454 0.0
H1410 H -0.0027 0.04454 0.2121 0.0
C1411 C 0.00044 0.995 0.27981 0.0
C1412 C 0.20966 0.99129 0.50105 0.0
C1413 C 0.23062 0.99447 0.52835 0.0
H1414 H 0.20632 0.99404 0.4486 0.0
C1415 C 0.26469 0.9903 0.52403 0.0
H1416 H 0.18328 0.99437 0.50392 0.0
C1417 C 0.27797 0.99143 0.49231 0.0
C1418 C 0.25701 0.99535 0.46512 0.0
H1419 H 0.28131 0.99263 0.54482 0.0
H1420 H 0.30435 0.9946 0.48954 0.0
C1421 C 0.22294 0.9911 0.46932 0.0
C1422 C 0.78254 0.49858 0.49647 0.0
C1423 C 0.76322 0.49566 0.52497 0.0
H1424 H 0.78242 0.49738 0.44388 0.0
C1425 C 0.72919 0.50159 0.52294 0.0
H1426 H 0.80886 0.49419 0.49756 0.0
C1427 C 0.71388 0.50207 0.49213 0.0
C1428 C 0.73284 0.49793 0.46354 0.0
H1429 H 0.71381 0.49951 0.54469 0.0
H1430 H 0.68726 0.50025 0.49097 0.0
C1431 C 0.76729 0.50047 0.46568 0.0
C1432 C 0.2092 -0.0016 0.99399 0.0
C1433 C 0.22851 0.99556 0.96548 0.0
H1434 H 0.20923 -0.00315 0.04658 0.0
C1435 C 0.26263 0.001 0.96762 0.0
H1436 H 0.18284 0.99428 0.99283 0.0
C1437 C 0.2779 0.0011 -0.00154 0.0
C1438 C 0.25885 -0.00289 0.027 0.0
H1439 H 0.278 -0.0011 0.94587 0.0
H1440 H 0.3045 -0.001 -0.00036 0.0
C1441 C 0.22443 -0.0001 0.02482 0.0
C1442 C 0.76402 0.48658 0.02151 0.0
C1443 C 0.73007 0.49182 0.02557 0.0
H1444 H 0.80396 0.48903 0.98718 0.0
C1445 C 0.70917 0.48867 -0.00179 0.0
H1446 H 0.7806 0.48885 0.04235 0.0
C1447 C 0.72261 0.48743 0.96656 0.0
C1448 C 0.75681 0.49068 0.96246 0.0
H1449 H 0.68289 0.49257 0.00086 0.0
H1450 H 0.70618 0.49043 0.9457 0.0
C1451 C 0.7775 0.48665 0.98985 0.0
C1452 C 0.49468 0.27864 0.98755 0.0
C1453 C 0.46633 0.2593 0.99165 0.0
H1454 H 0.54726 0.27912 0.98919 0.0
C1455 C 0.46866 0.22498 0.98796 0.0
H1456 H 0.49335 0.30518 0.99019 0.0
C1457 C 0.4996 0.20997 0.98872 0.0
C1458 C 0.528 0.22944 0.99188 0.0
H1459 H 0.44703 0.20958 0.99095 0.0
H1460 H 0.50095 0.18354 0.99231 0.0
C1461 C 0.52561 0.2636 0.98696 0.0
C1462 C 0.52432 0.7238 0.5045 0.0
C1463 C 0.52624 0.75821 0.50148 0.0
H1464 H 0.4927 0.68194 0.49898 0.0
C1465 C 0.49754 0.77703 0.50547 0.0
H1466 H 0.54622 0.70878 0.50157 0.0
C1467 C 0.46681 0.76152 0.5053 0.0
C1468 C 0.46497 0.7274 0.49985 0.0
H1469 H 0.49852 0.80363 0.5033 0.0
H1470 H 0.44497 0.77674 0.50305 0.0
C1471 C 0.49361 0.70832 0.503 0.0
C1472 C -0.00253 0.71268 0.48477 0.0
C1473 C 0.02619 0.73155 0.48863 0.0
H1474 H 0.94494 0.71282 0.48786 0.0
C1475 C 0.02419 0.76598 0.48587 0.0
H1476 H -0.00148 0.68607 0.48673 0.0
C1477 C 0.99348 0.78136 0.48793 0.0
C1478 C 0.96491 0.76218 0.49126 0.0
H1479 H 0.04609 0.78103 0.48869 0.0
H1480 H 0.99258 0.8077 0.49221 0.0
C1481 C 0.96673 0.72811 0.48547 0.0
C1482 C -0.00245 0.46404 0.7246 0.0
C1483 C 0.99409 0.46148 0.75893 0.0
H1484 H 0.99282 0.4964 0.68324 0.0
C1485 C -0.00264 0.48987 0.77838 0.0
H1486 H 0.99501 0.44239 0.70914 0.0
C1487 C -0.0026 0.52086 0.76345 0.0
C1488 C 0.9929 0.52331 0.72923 0.0
H1489 H 0.99469 0.48838 0.80491 0.0
H1490 H 0.99481 0.54243 0.77901 0.0
C1491 C -0.00374 0.495 0.70969 0.0
C1492 C 0.99321 0.02136 0.72953 0.0
C1493 C -0.00235 0.02277 0.76383 0.0
H1494 H -0.00385 0.99023 0.68703 0.0
C1495 C 0.99437 0.99383 0.78243 0.0
H1496 H -0.00426 0.04343 0.7147 0.0
C1497 C 0.9932 0.96335 0.7665 0.0
C1498 C -0.00328 0.96188 0.73211 0.0
H1499 H -0.00223 0.99443 0.80891 0.0
H1500 H -0.00422 0.94125 0.78128 0.0
C1501 C 0.99341 0.99086 0.71359 0.0
C1502 C 0.78608 -0.00227 0.4944 0.0
C1503 C 0.76575 -0.00443 0.46652 0.0
H1504 H 0.78773 -0.00409 0.54697 0.0
C1505 C 0.73192 0.00204 0.46979 0.0
H1506 H 0.81225 0.99284 0.49236 0.0
C1507 C 0.7177 0.00253 0.50112 0.0
C1508 C 0.73755 -0.00217 0.52901 0.0
H1509 H 0.71576 0.00049 0.44855 0.0
H1510 H 0.6911 0.00124 0.50317 0.0
C1511 C 0.77194 -0.00045 0.52571 0.0
C1512 C 0.26732 0.48832 0.46625 0.0
C1513 C 0.23293 0.49137 0.46391 0.0
H1514 H 0.30879 0.49404 0.49835 0.0
C1515 C 0.21374 0.48752 0.49239 0.0
H1516 H 0.2826 0.49117 0.44452 0.0
C1517 C 0.22888 0.4878 0.52329 0.0
C1518 C 0.26298 0.49326 0.52552 0.0
H1519 H 0.18716 0.48975 0.49107 0.0
H1520 H 0.2134 0.49015 0.54494 0.0
C1521 C 0.28241 0.48999 0.49713 0.0
C1522 C 0.70784 0.99274 -0.00381 0.0
C1523 C 0.72698 -0.00405 0.9676 0.0
H1524 H 0.70822 0.99359 0.04878 0.0
C1525 C 0.76107 0.99036 0.96942 0.0
H1526 H 0.68148 -0.00307 0.99526 0.0
C1527 C 0.77655 0.98981 0.00015 0.0
C1528 C 0.7577 0.99355 0.02887 0.0
H1529 H 0.77631 0.99272 0.9476 0.0
H1530 H 0.80316 0.99186 0.00118 0.0
C1531 C 0.72326 0.99077 0.02688 0.0
C1532 C 0.27854 0.50172 0.99114 0.0
C1533 C 0.25858 0.49833 0.96312 0.0
H1534 H 0.28019 0.49883 0.04366 0.0
C1535 C 0.2243 0.50176 0.96635 0.0
H1536 H 0.30505 0.49919 0.98914 0.0
C1537 C 0.20999 0.50019 -0.00241 0.0
C1538 C 0.23009 0.49661 0.02548 0.0
H1539 H 0.20842 0.49924 0.945 0.0
H1540 H 0.1836 0.49653 -0.00053 0.0
C1541 C 0.26421 0.5015 0.02242 0.0
C1542 C 0.49628 0.78292 0.00245 0.0
C1543 C 0.46788 0.76338 -0.00022 0.0
H1544 H 0.54877 0.78353 -0.00117 0.0
C1545 C 0.47051 0.72918 0.00429 0.0
H1546 H 0.49474 0.80938 -0.00081 0.0
C1547 C 0.50146 0.71426 0.00272 0.0
C1548 C 0.52963 0.73375 -0.00188 0.0
H1549 H 0.44886 0.71361 0.00246 0.0
H1550 H 0.50281 0.68775 -0.00025 0.0
C1551 C 0.52728 0.76802 0.00222 0.0
C1552 C 0.4897 0.21339 0.48485 0.0
C1553 C 0.46174 0.23331 0.48875 0.0
H1554 H 0.54224 0.21188 0.48684 0.0
C1555 C 0.4648 0.26754 0.48476 0.0
H1556 H 0.4878 0.1869 0.48771 0.0
C1557 C 0.49604 0.28195 0.48562 0.0
C1558 C 0.52401 0.26194 0.48911 0.0
H1559 H 0.44348 0.28338 0.48756 0.0
H1560 H 0.49792 0.30837 0.48901 0.0
C1561 C 0.52094 0.22781 0.48438 0.0
C1562 C 0.98928 0.28118 0.50511 0.0
C1563 C 0.96112 0.26134 0.50212 0.0
H1564 H 0.04181 0.28216 0.50268 0.0
C1565 C 0.96389 0.22728 0.50749 0.0
H1566 H 0.98761 0.30755 0.50124 0.0
C1567 C 0.99499 0.21259 0.50697 0.0
C1568 C 0.02308 0.23222 0.50245 0.0
H1569 H 0.94241 0.2115 0.50549 0.0
H1570 H -0.00341 0.18604 0.50454 0.0
C1571 C 0.02038 0.26653 0.50594 0.0
C1572 C 0.48951 0.02841 0.7707 0.0
C1573 C 0.49203 0.0316 0.73634 0.0
H1574 H 0.49563 0.99528 0.81125 0.0
C1575 C 0.48787 0.00362 0.71648 0.0
H1576 H 0.49264 0.04976 0.78648 0.0
C1577 C 0.48832 0.97234 0.73081 0.0
C1578 C 0.49417 0.96926 0.76478 0.0
H1579 H 0.48972 0.0056 0.68991 0.0
H1580 H 0.4904 0.95108 0.71475 0.0
C1581 C 0.49127 -0.00283 0.78497 0.0
C1582 C 0.50073 0.52931 0.72056 0.0
C1583 C 0.49816 0.5312 0.75501 0.0
H1584 H 0.4946 0.49775 0.67873 0.0
C1585 C 0.50222 0.50248 0.77378 0.0
H1586 H 0.49769 0.55123 0.7056 0.0
C1587 C 0.50178 0.47178 0.75824 0.0
C1588 C 0.49598 0.46999 0.72416 0.0
H1589 H 0.50036 0.50345 0.8004 0.0
H1590 H 0.49968 0.44993 0.77346 0.0
C1591 C 0.49892 0.49863 0.70507 0.0
C1592 C -0.00064 0.27977 0.00512 0.0
C1593 C 0.02786 0.26053 0.00174 0.0
H1594 H 0.94678 0.27977 0.00355 0.0
C1595 C 0.02574 0.22633 0.00656 0.0
H1596 H 0.00051 0.3062 0.00153 0.0
C1597 C 0.9949 0.21105 0.00637 0.0
C1598 C 0.96635 0.23017 0.00266 0.0
H1599 H 0.04748 0.21101 0.00409 0.0
H1600 H 0.99372 0.1845 0.00373 0.0
C1601 C 0.96853 0.26451 0.00628 0.0
C1602 C 0.50021 0.00218 0.21796 0.0
C1603 C 0.49524 0.03008 0.23774 0.0
H1604 H 0.49968 0.9496 0.21643 0.0
C1605 C 0.49781 0.0271 0.27211 0.0
H1606 H 0.49829 0.00401 0.19139 0.0
C1607 C 0.49728 -0.00414 0.2865 0.0
C1608 C 0.49545 0.96778 0.26641 0.0
H1609 H 0.49398 0.04838 0.28782 0.0
H1610 H 0.49306 0.9939 0.31279 0.0
C1611 C 0.50102 0.97097 0.23241 0.0
C1612 C 0.49098 0.47092 0.26191 0.0
C1613 C 0.49515 0.46841 0.22764 0.0
H1614 H 0.49564 0.50307 0.30348 0.0
C1615 C 0.49256 0.4969 0.20826 0.0
H1616 H 0.4929 0.4492 0.27734 0.0
C1617 C 0.49281 0.52784 0.22332 0.0
C1618 C 0.49686 0.5301 0.25761 0.0
H1619 H 0.49571 0.49546 0.18177 0.0
H1620 H 0.49604 0.54941 0.2079 0.0
C1621 C 0.49259 0.50181 0.27698 0.0
C1622 C 0.00165 0.77798 0.98707 0.0
C1623 C 0.03006 0.75868 0.99084 0.0
H1624 H 0.94905 0.77814 0.98826 0.0
C1625 C 0.02788 0.72446 0.98625 0.0
H1626 H 0.00285 0.80445 0.99044 0.0
C1627 C -0.003 0.70927 0.98633 0.0
C1628 C 0.96849 0.72851 0.98971 0.0
H1629 H 0.04956 0.70909 0.989 0.0
H1630 H -0.00427 0.68275 0.98919 0.0
C1631 C 0.97079 0.7628 0.9858 0.0
loop_
_geom_bond_atom_site_label_1
_geom_bond_atom_site_label_2
_geom_bond_distance
_geom_bond_site_symmetry_2
_ccdc_geom_bond_type
Co0 O1 2.216 . S
Co0 O2 2.091 . S
Co0 O4 2.004 . S
Co0 O10 2.021 . S
Co0 O12 2.137 . S
Co0 O13 2.244 . S
O1 Co0 2.216 . S
O1 C8 1.247 . S
O2 Co0 2.091 . S
O2 C8 1.261 . S
C3 O12 1.247 . S
C3 O13 1.272 . S
O4 Co0 2.004 . S
O4 C9 1.259 . S
Co5 O6 2.061 . S
Co5 O11 2.052 . S
Co5 O13 2.135 . S
O6 Co5 2.061 . S
O6 C9 1.235 . S
C7 O10 1.238 . S
C7 O11 1.241 . S
C8 O1 1.247 . S
C8 O2 1.261 . S
C9 O4 1.259 . S
C9 O6 1.235 . S
O10 Co0 2.021 . S
O10 C7 1.238 . S
O11 Co5 2.052 . S
O11 C7 1.241 . S
O12 Co0 2.137 . S
O12 C3 1.247 . S
O13 Co0 2.244 . S
O13 C3 1.272 . S
O13 Co5 2.135 . S
Co14 O15 2.216 . S
Co14 O16 2.091 . S
Co14 O18 2.004 . S
Co14 O24 2.021 . S
Co14 O26 2.137 . S
Co14 O27 2.244 . S
O15 Co14 2.216 . S
O15 C22 1.247 . S
O16 Co14 2.091 . S
O16 C22 1.261 . S
C17 O26 1.247 . S
C17 O27 1.272 . S
O18 Co14 2.004 . S
O18 C23 1.259 . S
Co19 O20 2.061 . S
Co19 O25 2.052 . S
Co19 O27 2.135 . S
O20 Co19 2.061 . S
O20 C23 1.235 . S
C21 O24 1.238 . S
C21 O25 1.241 . S
C22 O15 1.247 . S
C22 O16 1.261 . S
C23 O18 1.259 . S
C23 O20 1.235 . S
O24 Co14 2.021 . S
O24 C21 1.238 . S
O25 Co19 2.052 . S
O25 C21 1.241 . S
O26 Co14 2.137 . S
O26 C17 1.247 . S
O27 Co14 2.244 . S
O27 C17 1.272 . S
O27 Co19 2.135 . S
Co28 O29 2.216 . S
Co28 O30 2.091 . S
Co28 O32 2.004 . S
Co28 O38 2.021 . S
Co28 O40 2.137 . S
Co28 O41 2.244 . S
O29 Co28 2.216 . S
O29 C36 1.247 . S
O30 Co28 2.091 . S
O30 C36 1.261 . S
C31 O40 1.247 . S
C31 O41 1.272 . S
O32 Co28 2.004 . S
O32 C37 1.259 . S
Co33 O34 2.061 . S
Co33 O39 2.052 . S
Co33 O41 2.135 . S
O34 Co33 2.061 . S
O34 C37 1.235 . S
C35 O38 1.238 . S
C35 O39 1.241 . S
C36 O29 1.247 . S
C36 O30 1.261 . S
C37 O32 1.259 . S
C37 O34 1.235 . S
O38 Co28 2.021 . S
O38 C35 1.238 . S
O39 Co33 2.052 . S
O39 C35 1.241 . S
O40 Co28 2.137 . S
O40 C31 1.247 . S
O41 Co28 2.244 . S
O41 C31 1.272 . S
O41 Co33 2.135 . S
Co42 O43 2.216 . S
Co42 O44 2.091 . S
Co42 O46 2.004 . S
Co42 O52 2.021 . S
Co42 O54 2.137 . S
Co42 O55 2.244 . S
O43 Co42 2.216 . S
O43 C50 1.247 . S
O44 Co42 2.091 . S
O44 C50 1.261 . S
C45 O54 1.247 . S
C45 O55 1.272 . S
O46 Co42 2.004 . S
O46 C51 1.259 . S
Co47 O48 2.061 . S
Co47 O53 2.052 . S
Co47 O55 2.135 . S
O48 Co47 2.061 . S
O48 C51 1.235 . S
C49 O52 1.238 . S
C49 O53 1.241 . S
C50 O43 1.247 . S
C50 O44 1.261 . S
C51 O46 1.259 . S
C51 O48 1.235 . S
O52 Co42 2.021 . S
O52 C49 1.238 . S
O53 Co47 2.052 . S
O53 C49 1.241 . S
O54 Co42 2.137 . S
O54 C45 1.247 . S
O55 Co42 2.244 . S
O55 C45 1.272 . S
O55 Co47 2.135 . S
Co56 O57 2.216 . S
Co56 O58 2.091 . S
Co56 O60 2.004 . S
Co56 O66 2.021 . S
Co56 O68 2.137 . S
Co56 O69 2.244 . S
O57 Co56 2.216 . S
O57 C64 1.247 . S
O58 Co56 2.091 . S
O58 C64 1.261 . S
C59 O68 1.247 . S
C59 O69 1.272 . S
O60 Co56 2.004 . S
O60 C65 1.259 . S
Co61 O62 2.061 . S
Co61 O67 2.052 . S
Co61 O69 2.135 . S
O62 Co61 2.061 . S
O62 C65 1.235 . S
C63 O66 1.238 . S
C63 O67 1.241 . S
C64 O57 1.247 . S
C64 O58 1.261 . S
C65 O60 1.259 . S
C65 O62 1.235 . S
O66 Co56 2.021 . S
O66 C63 1.238 . S
O67 Co61 2.052 . S
O67 C63 1.241 . S
O68 Co56 2.137 . S
O68 C59 1.247 . S
O69 Co56 2.244 . S
O69 C59 1.272 . S
O69 Co61 2.135 . S
Co70 O71 2.216 . S
Co70 O72 2.091 . S
Co70 O74 2.004 . S
Co70 O80 2.021 . S
Co70 O82 2.137 . S
Co70 O83 2.244 . S
O71 Co70 2.216 . S
O71 C78 1.247 . S
O72 Co70 2.091 . S
O72 C78 1.261 . S
C73 O82 1.247 . S
C73 O83 1.272 . S
O74 Co70 2.004 . S
O74 C79 1.259 . S
Co75 O76 2.061 . S
Co75 O81 2.052 . S
Co75 O83 2.135 . S
O76 Co75 2.061 . S
O76 C79 1.235 . S
C77 O80 1.238 . S
C77 O81 1.241 . S
C78 O71 1.247 . S
C78 O72 1.261 . S
C79 O74 1.259 . S
C79 O76 1.235 . S
O80 Co70 2.021 . S
O80 C77 1.238 . S
O81 Co75 2.052 . S
O81 C77 1.241 . S
O82 Co70 2.137 . S
O82 C73 1.247 . S
O83 Co70 2.244 . S
O83 C73 1.272 . S
O83 Co75 2.135 . S
Co84 O85 2.216 . S
Co84 O86 2.091 . S
Co84 O88 2.004 . S
Co84 O94 2.021 . S
Co84 O96 2.137 . S
Co84 O97 2.244 . S
O85 Co84 2.216 . S
O85 C92 1.247 . S
O86 Co84 2.091 . S
O86 C92 1.261 . S
C87 O96 1.247 . S
C87 O97 1.272 . S
O88 Co84 2.004 . S
O88 C93 1.259 . S
Co89 O90 2.061 . S
Co89 O95 2.052 . S
Co89 O97 2.135 . S
O90 Co89 2.061 . S
O90 C93 1.235 . S
C91 O94 1.238 . S
C91 O95 1.241 . S
C92 O85 1.247 . S
C92 O86 1.261 . S
C93 O88 1.259 . S
C93 O90 1.235 . S
O94 Co84 2.021 . S
O94 C91 1.238 . S
O95 Co89 2.052 . S
O95 C91 1.241 . S
O96 Co84 2.137 . S
O96 C87 1.247 . S
O97 Co84 2.244 . S
O97 C87 1.272 . S
O97 Co89 2.135 . S
Co98 O99 2.216 . S
Co98 O100 2.091 . S
Co98 O102 2.004 . S
Co98 O108 2.021 . S
Co98 O110 2.137 . S
Co98 O111 2.244 . S
O99 Co98 2.216 . S
O99 C106 1.247 . S
O100 Co98 2.091 . S
O100 C106 1.261 . S
C101 O110 1.247 . S
C101 O111 1.272 . S
O102 Co98 2.004 . S
O102 C107 1.259 . S
Co103 O104 2.061 . S
Co103 O109 2.052 . S
Co103 O111 2.135 . S
O104 Co103 2.061 . S
O104 C107 1.235 . S
C105 O108 1.238 . S
C105 O109 1.241 . S
C106 O99 1.247 . S
C106 O100 1.261 . S
C107 O102 1.259 . S
C107 O104 1.235 . S
O108 Co98 2.021 . S
O108 C105 1.238 . S
O109 Co103 2.052 . S
O109 C105 1.241 . S
O110 Co98 2.137 . S
O110 C101 1.247 . S
O111 Co98 2.244 . S
O111 C101 1.272 . S
O111 Co103 2.135 . S
Co112 O113 2.216 . S
Co112 O114 2.091 . S
Co112 O116 2.004 . S
Co112 O122 2.021 . S
Co112 O124 2.137 . S
Co112 O125 2.244 . S
O113 Co112 2.216 . S
O113 C120 1.247 . S
O114 Co112 2.091 . S
O114 C120 1.261 . S
C115 O124 1.247 . S
C115 O125 1.272 . S
O116 Co112 2.004 . S
O116 C121 1.259 . S
Co117 O118 2.061 . S
Co117 O123 2.052 . S
Co117 O125 2.135 . S
O118 Co117 2.061 . S
O118 C121 1.235 . S
C119 O122 1.238 . S
C119 O123 1.241 . S
C120 O113 1.247 . S
C120 O114 1.261 . S
C121 O116 1.259 . S
C121 O118 1.235 . S
O122 Co112 2.021 . S
O122 C119 1.238 . S
O123 Co117 2.052 . S
O123 C119 1.241 . S
O124 Co112 2.137 . S
O124 C115 1.247 . S
O125 Co112 2.244 . S
O125 C115 1.272 . S
O125 Co117 2.135 . S
Co126 O127 2.216 . S
Co126 O128 2.091 . S
Co126 O130 2.004 . S
Co126 O136 2.021 . S
Co126 O138 2.137 . S
Co126 O139 2.244 . S
O127 Co126 2.216 . S
O127 C134 1.247 . S
O128 Co126 2.091 . S
O128 C134 1.261 . S
C129 O138 1.247 . S
C129 O139 1.272 . S
O130 Co126 2.004 . S
O130 C135 1.259 . S
Co131 O132 2.061 . S
Co131 O137 2.052 . S
Co131 O139 2.135 . S
O132 Co131 2.061 . S
O132 C135 1.235 . S
C133 O136 1.238 . S
C133 O137 1.241 . S
C134 O127 1.247 . S
C134 O128 1.261 . S
C135 O130 1.259 . S
C135 O132 1.235 . S
O136 Co126 2.021 . S
O136 C133 1.238 . S
O137 Co131 2.052 . S
O137 C133 1.241 . S
O138 Co126 2.137 . S
O138 C129 1.247 . S
O139 Co126 2.244 . S
O139 C129 1.272 . S
O139 Co131 2.135 . S
Co140 O141 2.216 . S
Co140 O142 2.091 . S
Co140 O144 2.004 . S
Co140 O150 2.021 . S
Co140 O152 2.137 . S
Co140 O153 2.244 . S
O141 Co140 2.216 . S
O141 C148 1.247 . S
O142 Co140 2.091 . S
O142 C148 1.261 . S
C143 O152 1.247 . S
C143 O153 1.272 . S
O144 Co140 2.004 . S
O144 C149 1.259 . S
Co145 O146 2.061 . S
Co145 O151 2.052 . S
Co145 O153 2.135 . S
O146 Co145 2.061 . S
O146 C149 1.235 . S
C147 O150 1.238 . S
C147 O151 1.241 . S
C148 O141 1.247 . S
C148 O142 1.261 . S
C149 O144 1.259 . S
C149 O146 1.235 . S
O150 Co140 2.021 . S
O150 C147 1.238 . S
O151 Co145 2.052 . S
O151 C147 1.241 . S
O152 Co140 2.137 . S
O152 C143 1.247 . S
O153 Co140 2.244 . S
O153 C143 1.272 . S
O153 Co145 2.135 . S
Co154 O155 2.216 . S
Co154 O156 2.091 . S
Co154 O158 2.004 . S
Co154 O164 2.021 . S
Co154 O166 2.137 . S
Co154 O167 2.244 . S
O155 Co154 2.216 . S
O155 C162 1.247 . S
O156 Co154 2.091 . S
O156 C162 1.261 . S
C157 O166 1.247 . S
C157 O167 1.272 . S
O158 Co154 2.004 . S
O158 C163 1.259 . S
Co159 O160 2.061 . S
Co159 O165 2.052 . S
Co159 O167 2.135 . S
O160 Co159 2.061 . S
O160 C163 1.235 . S
C161 O164 1.238 . S
C161 O165 1.241 . S
C162 O155 1.247 . S
C162 O156 1.261 . S
C163 O158 1.259 . S
C163 O160 1.235 . S
O164 Co154 2.021 . S
O164 C161 1.238 . S
O165 Co159 2.052 . S
O165 C161 1.241 . S
O166 Co154 2.137 . S
O166 C157 1.247 . S
O167 Co154 2.244 . S
O167 C157 1.272 . S
O167 Co159 2.135 . S
Co168 O169 2.216 . S
Co168 O170 2.091 . S
Co168 O172 2.004 . S
Co168 O178 2.021 . S
Co168 O180 2.137 . S
Co168 O181 2.244 . S
O169 Co168 2.216 . S
O169 C176 1.247 . S
O170 Co168 2.091 . S
O170 C176 1.261 . S
C171 O180 1.247 . S
C171 O181 1.272 . S
O172 Co168 2.004 . S
O172 C177 1.259 . S
Co173 O174 2.061 . S
Co173 O179 2.052 . S
Co173 O181 2.135 . S
O174 Co173 2.061 . S
O174 C177 1.235 . S
C175 O178 1.238 . S
C175 O179 1.241 . S
C176 O169 1.247 . S
C176 O170 1.261 . S
C177 O172 1.259 . S
C177 O174 1.235 . S
O178 Co168 2.021 . S
O178 C175 1.238 . S
O179 Co173 2.052 . S
O179 C175 1.241 . S
O180 Co168 2.137 . S
O180 C171 1.247 . S
O181 Co168 2.244 . S
O181 C171 1.272 . S
O181 Co173 2.135 . S
Co182 O183 2.216 . S
Co182 O184 2.091 . S
Co182 O186 2.004 . S
Co182 O192 2.021 . S
Co182 O194 2.137 . S
Co182 O195 2.244 . S
O183 Co182 2.216 . S
O183 C190 1.247 . S
O184 Co182 2.091 . S
O184 C190 1.261 . S
C185 O194 1.247 . S
C185 O195 1.272 . S
O186 Co182 2.004 . S
O186 C191 1.259 . S
Co187 O188 2.061 . S
Co187 O193 2.052 . S
Co187 O195 2.135 . S
O188 Co187 2.061 . S
O188 C191 1.235 . S
C189 O192 1.238 . S
C189 O193 1.241 . S
C190 O183 1.247 . S
C190 O184 1.261 . S
C191 O186 1.259 . S
C191 O188 1.235 . S
O192 Co182 2.021 . S
O192 C189 1.238 . S
O193 Co187 2.052 . S
O193 C189 1.241 . S
O194 Co182 2.137 . S
O194 C185 1.247 . S
O195 Co182 2.244 . S
O195 C185 1.272 . S
O195 Co187 2.135 . S
Co196 O197 2.216 . S
Co196 O198 2.091 . S
Co196 O200 2.004 . S
Co196 O206 2.021 . S
Co196 O208 2.137 . S
Co196 O209 2.244 . S
O197 Co196 2.216 . S
O197 C204 1.247 . S
O198 Co196 2.091 . S
O198 C204 1.261 . S
C199 O208 1.247 . S
C199 O209 1.272 . S
O200 Co196 2.004 . S
O200 C205 1.259 . S
Co201 O202 2.061 . S
Co201 O207 2.052 . S
Co201 O209 2.135 . S
O202 Co201 2.061 . S
O202 C205 1.235 . S
C203 O206 1.238 . S
C203 O207 1.241 . S
C204 O197 1.247 . S
C204 O198 1.261 . S
C205 O200 1.259 . S
C205 O202 1.235 . S
O206 Co196 2.021 . S
O206 C203 1.238 . S
O207 Co201 2.052 . S
O207 C203 1.241 . S
O208 Co196 2.137 . S
O208 C199 1.247 . S
O209 Co196 2.244 . S
O209 C199 1.272 . S
O209 Co201 2.135 . S
Co210 O211 2.216 . S
Co210 O212 2.091 . S
Co210 O214 2.004 . S
Co210 O220 2.021 . S
Co210 O222 2.137 . S
Co210 O223 2.244 . S
O211 Co210 2.216 . S
O211 C218 1.247 . S
O212 Co210 2.091 . S
O212 C218 1.261 . S
C213 O222 1.247 . S
C213 O223 1.272 . S
O214 Co210 2.004 . S
O214 C219 1.259 . S
Co215 O216 2.061 . S
Co215 O221 2.052 . S
Co215 O223 2.135 . S
O216 Co215 2.061 . S
O216 C219 1.235 . S
C217 O220 1.238 . S
C217 O221 1.241 . S
C218 O211 1.247 . S
C218 O212 1.261 . S
C219 O214 1.259 . S
C219 O216 1.235 . S
O220 Co210 2.021 . S
O220 C217 1.238 . S
O221 Co215 2.052 . S
O221 C217 1.241 . S
O222 Co210 2.137 . S
O222 C213 1.247 . S
O223 Co210 2.244 . S
O223 C213 1.272 . S
O223 Co215 2.135 . S
Co224 O225 2.216 . S
Co224 O226 2.091 . S
Co224 O228 2.004 . S
Co224 O234 2.021 . S
Co224 O236 2.137 . S
Co224 O237 2.244 . S
O225 Co224 2.216 . S
O225 C232 1.247 . S
O226 Co224 2.091 . S
O226 C232 1.261 . S
C227 O236 1.247 . S
C227 O237 1.272 . S
O228 Co224 2.004 . S
O228 C233 1.259 . S
Co229 O230 2.061 . S
Co229 O235 2.052 . S
Co229 O237 2.135 . S
O230 Co229 2.061 . S
O230 C233 1.235 . S
C231 O234 1.238 . S
C231 O235 1.241 . S
C232 O225 1.247 . S
C232 O226 1.261 . S
C233 O228 1.259 . S
C233 O230 1.235 . S
O234 Co224 2.021 . S
O234 C231 1.238 . S
O235 Co229 2.052 . S
O235 C231 1.241 . S
O236 Co224 2.137 . S
O236 C227 1.247 . S
O237 Co224 2.244 . S
O237 C227 1.272 . S
O237 Co229 2.135 . S
Co238 O239 2.216 . S
Co238 O240 2.091 . S
Co238 O242 2.004 . S
Co238 O248 2.021 . S
Co238 O250 2.137 . S
Co238 O251 2.244 . S
O239 Co238 2.216 . S
O239 C246 1.247 . S
O240 Co238 2.091 . S
O240 C246 1.261 . S
C241 O250 1.247 . S
C241 O251 1.272 . S
O242 Co238 2.004 . S
O242 C247 1.259 . S
Co243 O244 2.061 . S
Co243 O249 2.052 . S
Co243 O251 2.135 . S
O244 Co243 2.061 . S
O244 C247 1.235 . S
C245 O248 1.238 . S
C245 O249 1.241 . S
C246 O239 1.247 . S
C246 O240 1.261 . S
C247 O242 1.259 . S
C247 O244 1.235 . S
O248 Co238 2.021 . S
O248 C245 1.238 . S
O249 Co243 2.052 . S
O249 C245 1.241 . S
O250 Co238 2.137 . S
O250 C241 1.247 . S
O251 Co238 2.244 . S
O251 C241 1.272 . S
O251 Co243 2.135 . S
Co252 O253 2.216 . S
Co252 O254 2.091 . S
Co252 O256 2.004 . S
Co252 O262 2.021 . S
Co252 O264 2.137 . S
Co252 O265 2.244 . S
O253 Co252 2.216 . S
O253 C260 1.247 . S
O254 Co252 2.091 . S
O254 C260 1.261 . S
C255 O264 1.247 . S
C255 O265 1.272 . S
O256 Co252 2.004 . S
O256 C261 1.259 . S
Co257 O258 2.061 . S
Co257 O263 2.052 . S
Co257 O265 2.135 . S
O258 Co257 2.061 . S
O258 C261 1.235 . S
C259 O262 1.238 . S
C259 O263 1.241 . S
C260 O253 1.247 . S
C260 O254 1.261 . S
C261 O256 1.259 . S
C261 O258 1.235 . S
O262 Co252 2.021 . S
O262 C259 1.238 . S
O263 Co257 2.052 . S
O263 C259 1.241 . S
O264 Co252 2.137 . S
O264 C255 1.247 . S
O265 Co252 2.244 . S
O265 C255 1.272 . S
O265 Co257 2.135 . S
Co266 O267 2.216 . S
Co266 O268 2.091 . S
Co266 O270 2.004 . S
Co266 O276 2.021 . S
Co266 O278 2.137 . S
Co266 O279 2.244 . S
O267 Co266 2.216 . S
O267 C274 1.247 . S
O268 Co266 2.091 . S
O268 C274 1.261 . S
C269 O278 1.247 . S
C269 O279 1.272 . S
O270 Co266 2.004 . S
O270 C275 1.259 . S
Co271 O272 2.061 . S
Co271 O277 2.052 . S
Co271 O279 2.135 . S
O272 Co271 2.061 . S
O272 C275 1.235 . S
C273 O276 1.238 . S
C273 O277 1.241 . S
C274 O267 1.247 . S
C274 O268 1.261 . S
C275 O270 1.259 . S
C275 O272 1.235 . S
O276 Co266 2.021 . S
O276 C273 1.238 . S
O277 Co271 2.052 . S
O277 C273 1.241 . S
O278 Co266 2.137 . S
O278 C269 1.247 . S
O279 Co266 2.244 . S
O279 C269 1.272 . S
O279 Co271 2.135 . S
Co280 O281 2.216 . S
Co280 O282 2.091 . S
Co280 O284 2.004 . S
Co280 O290 2.021 . S
Co280 O292 2.137 . S
Co280 O293 2.244 . S
O281 Co280 2.216 . S
O281 C288 1.247 . S
O282 Co280 2.091 . S
O282 C288 1.261 . S
C283 O292 1.247 . S
C283 O293 1.272 . S
O284 Co280 2.004 . S
O284 C289 1.259 . S
Co285 O286 2.061 . S
Co285 O291 2.052 . S
Co285 O293 2.135 . S
O286 Co285 2.061 . S
O286 C289 1.235 . S
C287 O290 1.238 . S
C287 O291 1.241 . S
C288 O281 1.247 . S
C288 O282 1.261 . S
C289 O284 1.259 . S
C289 O286 1.235 . S
O290 Co280 2.021 . S
O290 C287 1.238 . S
O291 Co285 2.052 . S
O291 C287 1.241 . S
O292 Co280 2.137 . S
O292 C283 1.247 . S
O293 Co280 2.244 . S
O293 C283 1.272 . S
O293 Co285 2.135 . S
Co294 O295 2.216 . S
Co294 O296 2.091 . S
Co294 O298 2.004 . S
Co294 O304 2.021 . S
Co294 O306 2.137 . S
Co294 O307 2.244 . S
O295 Co294 2.216 . S
O295 C302 1.247 . S
O296 Co294 2.091 . S
O296 C302 1.261 . S
C297 O306 1.247 . S
C297 O307 1.272 . S
O298 Co294 2.004 . S
O298 C303 1.259 . S
Co299 O300 2.061 . S
Co299 O305 2.052 . S
Co299 O307 2.135 . S
O300 Co299 2.061 . S
O300 C303 1.235 . S
C301 O304 1.238 . S
C301 O305 1.241 . S
C302 O295 1.247 . S
C302 O296 1.261 . S
C303 O298 1.259 . S
C303 O300 1.235 . S
O304 Co294 2.021 . S
O304 C301 1.238 . S
O305 Co299 2.052 . S
O305 C301 1.241 . S
O306 Co294 2.137 . S
O306 C297 1.247 . S
O307 Co294 2.244 . S
O307 C297 1.272 . S
O307 Co299 2.135 . S
Co308 O309 2.216 . S
Co308 O310 2.091 . S
Co308 O312 2.004 . S
Co308 O318 2.021 . S
Co308 O320 2.137 . S
Co308 O321 2.244 . S
O309 Co308 2.216 . S
O309 C316 1.247 . S
O310 Co308 2.091 . S
O310 C316 1.261 . S
C311 O320 1.247 . S
C311 O321 1.272 . S
O312 Co308 2.004 . S
O312 C317 1.259 . S
Co313 O314 2.061 . S
Co313 O319 2.052 . S
Co313 O321 2.135 . S
O314 Co313 2.061 . S
O314 C317 1.235 . S
C315 O318 1.238 . S
C315 O319 1.241 . S
C316 O309 1.247 . S
C316 O310 1.261 . S
C317 O312 1.259 . S
C317 O314 1.235 . S
O318 Co308 2.021 . S
O318 C315 1.238 . S
O319 Co313 2.052 . S
O319 C315 1.241 . S
O320 Co308 2.137 . S
O320 C311 1.247 . S
O321 Co308 2.244 . S
O321 C311 1.272 . S
O321 Co313 2.135 . S
Co322 O323 2.216 . S
Co322 O324 2.091 . S
Co322 O326 2.004 . S
Co322 O332 2.021 . S
Co322 O334 2.137 . S
Co322 O335 2.244 . S
O323 Co322 2.216 . S
O323 C330 1.247 . S
O324 Co322 2.091 . S
O324 C330 1.261 . S
C325 O334 1.247 . S
C325 O335 1.272 . S
O326 Co322 2.004 . S
O326 C331 1.259 . S
Co327 O328 2.061 . S
Co327 O333 2.052 . S
Co327 O335 2.135 . S
O328 Co327 2.061 . S
O328 C331 1.235 . S
C329 O332 1.238 . S
C329 O333 1.241 . S
C330 O323 1.247 . S
C330 O324 1.261 . S
C331 O326 1.259 . S
C331 O328 1.235 . S
O332 Co322 2.021 . S
O332 C329 1.238 . S
O333 Co327 2.052 . S
O333 C329 1.241 . S
O334 Co322 2.137 . S
O334 C325 1.247 . S
O335 Co322 2.244 . S
O335 C325 1.272 . S
O335 Co327 2.135 . S
Co336 O337 2.216 . S
Co336 O338 2.091 . S
Co336 O340 2.004 . S
Co336 O346 2.021 . S
Co336 O348 2.137 . S
Co336 O349 2.244 . S
O337 Co336 2.216 . S
O337 C344 1.247 . S
O338 Co336 2.091 . S
O338 C344 1.261 . S
C339 O348 1.247 . S
C339 O349 1.272 . S
O340 Co336 2.004 . S
O340 C345 1.259 . S
Co341 O342 2.061 . S
Co341 O347 2.052 . S
Co341 O349 2.135 . S
O342 Co341 2.061 . S
O342 C345 1.235 . S
C343 O346 1.238 . S
C343 O347 1.241 . S
C344 O337 1.247 . S
C344 O338 1.261 . S
C345 O340 1.259 . S
C345 O342 1.235 . S
O346 Co336 2.021 . S
O346 C343 1.238 . S
O347 Co341 2.052 . S
O347 C343 1.241 . S
O348 Co336 2.137 . S
O348 C339 1.247 . S
O349 Co336 2.244 . S
O349 C339 1.272 . S
O349 Co341 2.135 . S
Co350 O351 2.216 . S
Co350 O352 2.091 . S
Co350 O354 2.004 . S
Co350 O360 2.021 . S
Co350 O362 2.137 . S
Co350 O363 2.244 . S
O351 Co350 2.216 . S
O351 C358 1.247 . S
O352 Co350 2.091 . S
O352 C358 1.261 . S
C353 O362 1.247 . S
C353 O363 1.272 . S
O354 Co350 2.004 . S
O354 C359 1.259 . S
Co355 O356 2.061 . S
Co355 O361 2.052 . S
Co355 O363 2.135 . S
O356 Co355 2.061 . S
O356 C359 1.235 . S
C357 O360 1.238 . S
C357 O361 1.241 . S
C358 O351 1.247 . S
C358 O352 1.261 . S
C359 O354 1.259 . S
C359 O356 1.235 . S
O360 Co350 2.021 . S
O360 C357 1.238 . S
O361 Co355 2.052 . S
O361 C357 1.241 . S
O362 Co350 2.137 . S
O362 C353 1.247 . S
O363 Co350 2.244 . S
O363 C353 1.272 . S
O363 Co355 2.135 . S
Co364 O365 2.216 . S
Co364 O366 2.091 . S
Co364 O368 2.004 . S
Co364 O374 2.021 . S
Co364 O376 2.137 . S
Co364 O377 2.244 . S
O365 Co364 2.216 . S
O365 C372 1.247 . S
O366 Co364 2.091 . S
O366 C372 1.261 . S
C367 O376 1.247 . S
C367 O377 1.272 . S
O368 Co364 2.004 . S
O368 C373 1.259 . S
Co369 O370 2.061 . S
Co369 O375 2.052 . S
Co369 O377 2.135 . S
O370 Co369 2.061 . S
O370 C373 1.235 . S
C371 O374 1.238 . S
C371 O375 1.241 . S
C372 O365 1.247 . S
C372 O366 1.261 . S
C373 O368 1.259 . S
C373 O370 1.235 . S
O374 Co364 2.021 . S
O374 C371 1.238 . S
O375 Co369 2.052 . S
O375 C371 1.241 . S
O376 Co364 2.137 . S
O376 C367 1.247 . S
O377 Co364 2.244 . S
O377 C367 1.272 . S
O377 Co369 2.135 . S
Co378 O379 2.216 . S
Co378 O380 2.091 . S
Co378 O382 2.004 . S
Co378 O388 2.021 . S
Co378 O390 2.137 . S
Co378 O391 2.244 . S
O379 Co378 2.216 . S
O379 C386 1.247 . S
O380 Co378 2.091 . S
O380 C386 1.261 . S
C381 O390 1.247 . S
C381 O391 1.272 . S
O382 Co378 2.004 . S
O382 C387 1.259 . S
Co383 O384 2.061 . S
Co383 O389 2.052 . S
Co383 O391 2.135 . S
O384 Co383 2.061 . S
O384 C387 1.235 . S
C385 O388 1.238 . S
C385 O389 1.241 . S
C386 O379 1.247 . S
C386 O380 1.261 . S
C387 O382 1.259 . S
C387 O384 1.235 . S
O388 Co378 2.021 . S
O388 C385 1.238 . S
O389 Co383 2.052 . S
O389 C385 1.241 . S
O390 Co378 2.137 . S
O390 C381 1.247 . S
O391 Co378 2.244 . S
O391 C381 1.272 . S
O391 Co383 2.135 . S
Co392 O393 2.216 . S
Co392 O394 2.091 . S
Co392 O396 2.004 . S
Co392 O402 2.021 . S
Co392 O404 2.137 . S
Co392 O405 2.244 . S
O393 Co392 2.216 . S
O393 C400 1.247 . S
O394 Co392 2.091 . S
O394 C400 1.261 . S
C395 O404 1.247 . S
C395 O405 1.272 . S
O396 Co392 2.004 . S
O396 C401 1.259 . S
Co397 O398 2.061 . S
Co397 O403 2.052 . S
Co397 O405 2.135 . S
O398 Co397 2.061 . S
O398 C401 1.235 . S
C399 O402 1.238 . S
C399 O403 1.241 . S
C400 O393 1.247 . S
C400 O394 1.261 . S
C401 O396 1.259 . S
C401 O398 1.235 . S
O402 Co392 2.021 . S
O402 C399 1.238 . S
O403 Co397 2.052 . S
O403 C399 1.241 . S
O404 Co392 2.137 . S
O404 C395 1.247 . S
O405 Co392 2.244 . S
O405 C395 1.272 . S
O405 Co397 2.135 . S
Co406 O407 2.216 . S
Co406 O408 2.091 . S
Co406 O410 2.004 . S
Co406 O416 2.021 . S
Co406 O418 2.137 . S
Co406 O419 2.244 . S
O407 Co406 2.216 . S
O407 C414 1.247 . S
O408 Co406 2.091 . S
O408 C414 1.261 . S
C409 O418 1.247 . S
C409 O419 1.272 . S
O410 Co406 2.004 . S
O410 C415 1.259 . S
Co411 O412 2.061 . S
Co411 O417 2.052 . S
Co411 O419 2.135 . S
O412 Co411 2.061 . S
O412 C415 1.235 . S
C413 O416 1.238 . S
C413 O417 1.241 . S
C414 O407 1.247 . S
C414 O408 1.261 . S
C415 O410 1.259 . S
C415 O412 1.235 . S
O416 Co406 2.021 . S
O416 C413 1.238 . S
O417 Co411 2.052 . S
O417 C413 1.241 . S
O418 Co406 2.137 . S
O418 C409 1.247 . S
O419 Co406 2.244 . S
O419 C409 1.272 . S
O419 Co411 2.135 . S
Co420 O421 2.216 . S
Co420 O422 2.091 . S
Co420 O424 2.004 . S
Co420 O430 2.021 . S
Co420 O432 2.137 . S
Co420 O433 2.244 . S
O421 Co420 2.216 . S
O421 C428 1.247 . S
O422 Co420 2.091 . S
O422 C428 1.261 . S
C423 O432 1.247 . S
C423 O433 1.272 . S
O424 Co420 2.004 . S
O424 C429 1.259 . S
Co425 O426 2.061 . S
Co425 O431 2.052 . S
Co425 O433 2.135 . S
O426 Co425 2.061 . S
O426 C429 1.235 . S
C427 O430 1.238 . S
C427 O431 1.241 . S
C428 O421 1.247 . S
C428 O422 1.261 . S
C429 O424 1.259 . S
C429 O426 1.235 . S
O430 Co420 2.021 . S
O430 C427 1.238 . S
O431 Co425 2.052 . S
O431 C427 1.241 . S
O432 Co420 2.137 . S
O432 C423 1.247 . S
O433 Co420 2.244 . S
O433 C423 1.272 . S
O433 Co425 2.135 . S
Co434 O435 2.216 . S
Co434 O436 2.091 . S
Co434 O438 2.004 . S
Co434 O444 2.021 . S
Co434 O446 2.137 . S
Co434 O447 2.244 . S
O435 Co434 2.216 . S
O435 C442 1.247 . S
O436 Co434 2.091 . S
O436 C442 1.261 . S
C437 O446 1.247 . S
C437 O447 1.272 . S
O438 Co434 2.004 . S
O438 C443 1.259 . S
Co439 O440 2.061 . S
Co439 O445 2.052 . S
Co439 O447 2.135 . S
O440 Co439 2.061 . S
O440 C443 1.235 . S
C441 O444 1.238 . S
C441 O445 1.241 . S
C442 O435 1.247 . S
C442 O436 1.261 . S
C443 O438 1.259 . S
C443 O440 1.235 . S
O444 Co434 2.021 . S
O444 C441 1.238 . S
O445 Co439 2.052 . S
O445 C441 1.241 . S
O446 Co434 2.137 . S
O446 C437 1.247 . S
O447 Co434 2.244 . S
O447 C437 1.272 . S
O447 Co439 2.135 . S
Co448 O449 2.216 . S
Co448 O450 2.091 . S
Co448 O452 2.004 . S
Co448 O458 2.021 . S
Co448 O460 2.137 . S
Co448 O461 2.244 . S
O449 Co448 2.216 . S
O449 C456 1.247 . S
O450 Co448 2.091 . S
O450 C456 1.261 . S
C451 O460 1.247 . S
C451 O461 1.272 . S
O452 Co448 2.004 . S
O452 C457 1.259 . S
Co453 O454 2.061 . S
Co453 O459 2.052 . S
Co453 O461 2.135 . S
O454 Co453 2.061 . S
O454 C457 1.235 . S
C455 O458 1.238 . S
C455 O459 1.241 . S
C456 O449 1.247 . S
C456 O450 1.261 . S
C457 O452 1.259 . S
C457 O454 1.235 . S
O458 Co448 2.021 . S
O458 C455 1.238 . S
O459 Co453 2.052 . S
O459 C455 1.241 . S
O460 Co448 2.137 . S
O460 C451 1.247 . S
O461 Co448 2.244 . S
O461 C451 1.272 . S
O461 Co453 2.135 . S
Co462 O463 2.216 . S
Co462 O464 2.091 . S
Co462 O466 2.004 . S
Co462 O472 2.021 . S
Co462 O474 2.137 . S
Co462 O475 2.244 . S
O463 Co462 2.216 . S
O463 C470 1.247 . S
O464 Co462 2.091 . S
O464 C470 1.261 . S
C465 O474 1.247 . S
C465 O475 1.272 . S
O466 Co462 2.004 . S
O466 C471 1.259 . S
Co467 O468 2.061 . S
Co467 O473 2.052 . S
Co467 O475 2.135 . S
O468 Co467 2.061 . S
O468 C471 1.235 . S
C469 O472 1.238 . S
C469 O473 1.241 . S
C470 O463 1.247 . S
C470 O464 1.261 . S
C471 O466 1.259 . S
C471 O468 1.235 . S
O472 Co462 2.021 . S
O472 C469 1.238 . S
O473 Co467 2.052 . S
O473 C469 1.241 . S
O474 Co462 2.137 . S
O474 C465 1.247 . S
O475 Co462 2.244 . S
O475 C465 1.272 . S
O475 Co467 2.135 . S
Co476 O477 2.216 . S
Co476 O478 2.091 . S
Co476 O480 2.004 . S
Co476 O486 2.021 . S
Co476 O488 2.137 . S
Co476 O489 2.244 . S
O477 Co476 2.216 . S
O477 C484 1.247 . S
O478 Co476 2.091 . S
O478 C484 1.261 . S
C479 O488 1.247 . S
C479 O489 1.272 . S
O480 Co476 2.004 . S
O480 C485 1.259 . S
Co481 O482 2.061 . S
Co481 O487 2.052 . S
Co481 O489 2.135 . S
O482 Co481 2.061 . S
O482 C485 1.235 . S
C483 O486 1.238 . S
C483 O487 1.241 . S
C484 O477 1.247 . S
C484 O478 1.261 . S
C485 O480 1.259 . S
C485 O482 1.235 . S
O486 Co476 2.021 . S
O486 C483 1.238 . S
O487 Co481 2.052 . S
O487 C483 1.241 . S
O488 Co476 2.137 . S
O488 C479 1.247 . S
O489 Co476 2.244 . S
O489 C479 1.272 . S
O489 Co481 2.135 . S
Co490 O491 2.216 . S
Co490 O492 2.091 . S
Co490 O494 2.004 . S
Co490 O500 2.021 . S
Co490 O502 2.137 . S
Co490 O503 2.244 . S
O491 Co490 2.216 . S
O491 C498 1.247 . S
O492 Co490 2.091 . S
O492 C498 1.261 . S
C493 O502 1.247 . S
C493 O503 1.272 . S
O494 Co490 2.004 . S
O494 C499 1.259 . S
Co495 O496 2.061 . S
Co495 O501 2.052 . S
Co495 O503 2.135 . S
O496 Co495 2.061 . S
O496 C499 1.235 . S
C497 O500 1.238 . S
C497 O501 1.241 . S
C498 O491 1.247 . S
C498 O492 1.261 . S
C499 O494 1.259 . S
C499 O496 1.235 . S
O500 Co490 2.021 . S
O500 C497 1.238 . S
O501 Co495 2.052 . S
O501 C497 1.241 . S
O502 Co490 2.137 . S
O502 C493 1.247 . S
O503 Co490 2.244 . S
O503 C493 1.272 . S
O503 Co495 2.135 . S
Co504 O505 2.216 . S
Co504 O506 2.091 . S
Co504 O508 2.004 . S
Co504 O514 2.021 . S
Co504 O516 2.137 . S
Co504 O517 2.244 . S
O505 Co504 2.216 . S
O505 C512 1.247 . S
O506 Co504 2.091 . S
O506 C512 1.261 . S
C507 O516 1.247 . S
C507 O517 1.272 . S
O508 Co504 2.004 . S
O508 C513 1.259 . S
Co509 O510 2.061 . S
Co509 O515 2.052 . S
Co509 O517 2.135 . S
O510 Co509 2.061 . S
O510 C513 1.235 . S
C511 O514 1.238 . S
C511 O515 1.241 . S
C512 O505 1.247 . S
C512 O506 1.261 . S
C513 O508 1.259 . S
C513 O510 1.235 . S
O514 Co504 2.021 . S
O514 C511 1.238 . S
O515 Co509 2.052 . S
O515 C511 1.241 . S
O516 Co504 2.137 . S
O516 C507 1.247 . S
O517 Co504 2.244 . S
O517 C507 1.272 . S
O517 Co509 2.135 . S
Co518 O519 2.216 . S
Co518 O520 2.091 . S
Co518 O522 2.004 . S
Co518 O528 2.021 . S
Co518 O530 2.137 . S
Co518 O531 2.244 . S
O519 Co518 2.216 . S
O519 C526 1.247 . S
O520 Co518 2.091 . S
O520 C526 1.261 . S
C521 O530 1.247 . S
C521 O531 1.272 . S
O522 Co518 2.004 . S
O522 C527 1.259 . S
Co523 O524 2.061 . S
Co523 O529 2.052 . S
Co523 O531 2.135 . S
O524 Co523 2.061 . S
O524 C527 1.235 . S
C525 O528 1.238 . S
C525 O529 1.241 . S
C526 O519 1.247 . S
C526 O520 1.261 . S
C527 O522 1.259 . S
C527 O524 1.235 . S
O528 Co518 2.021 . S
O528 C525 1.238 . S
O529 Co523 2.052 . S
O529 C525 1.241 . S
O530 Co518 2.137 . S
O530 C521 1.247 . S
O531 Co518 2.244 . S
O531 C521 1.272 . S
O531 Co523 2.135 . S
Co532 O533 2.216 . S
Co532 O534 2.091 . S
Co532 O536 2.004 . S
Co532 O542 2.021 . S
Co532 O544 2.137 . S
Co532 O545 2.244 . S
O533 Co532 2.216 . S
O533 C540 1.247 . S
O534 Co532 2.091 . S
O534 C540 1.261 . S
C535 O544 1.247 . S
C535 O545 1.272 . S
O536 Co532 2.004 . S
O536 C541 1.259 . S
Co537 O538 2.061 . S
Co537 O543 2.052 . S
Co537 O545 2.135 . S
O538 Co537 2.061 . S
O538 C541 1.235 . S
C539 O542 1.238 . S
C539 O543 1.241 . S
C540 O533 1.247 . S
C540 O534 1.261 . S
C541 O536 1.259 . S
C541 O538 1.235 . S
O542 Co532 2.021 . S
O542 C539 1.238 . S
O543 Co537 2.052 . S
O543 C539 1.241 . S
O544 Co532 2.137 . S
O544 C535 1.247 . S
O545 Co532 2.244 . S
O545 C535 1.272 . S
O545 Co537 2.135 . S
Co546 O547 2.216 . S
Co546 O548 2.091 . S
Co546 O550 2.004 . S
Co546 O556 2.021 . S
Co546 O558 2.137 . S
Co546 O559 2.244 . S
O547 Co546 2.216 . S
O547 C554 1.247 . S
O548 Co546 2.091 . S
O548 C554 1.261 . S
C549 O558 1.247 . S
C549 O559 1.272 . S
O550 Co546 2.004 . S
O550 C555 1.259 . S
Co551 O552 2.061 . S
Co551 O557 2.052 . S
Co551 O559 2.135 . S
O552 Co551 2.061 . S
O552 C555 1.235 . S
C553 O556 1.238 . S
C553 O557 1.241 . S
C554 O547 1.247 . S
C554 O548 1.261 . S
C555 O550 1.259 . S
C555 O552 1.235 . S
O556 Co546 2.021 . S
O556 C553 1.238 . S
O557 Co551 2.052 . S
O557 C553 1.241 . S
O558 Co546 2.137 . S
O558 C549 1.247 . S
O559 Co546 2.244 . S
O559 C549 1.272 . S
O559 Co551 2.135 . S
Co560 O561 2.216 . S
Co560 O562 2.091 . S
Co560 O564 2.004 . S
Co560 O570 2.021 . S
Co560 O572 2.137 . S
Co560 O573 2.244 . S
O561 Co560 2.216 . S
O561 C568 1.247 . S
O562 Co560 2.091 . S
O562 C568 1.261 . S
C563 O572 1.247 . S
C563 O573 1.272 . S
O564 Co560 2.004 . S
O564 C569 1.259 . S
Co565 O566 2.061 . S
Co565 O571 2.052 . S
Co565 O573 2.135 . S
O566 Co565 2.061 . S
O566 C569 1.235 . S
C567 O570 1.238 . S
C567 O571 1.241 . S
C568 O561 1.247 . S
C568 O562 1.261 . S
C569 O564 1.259 . S
C569 O566 1.235 . S
O570 Co560 2.021 . S
O570 C567 1.238 . S
O571 Co565 2.052 . S
O571 C567 1.241 . S
O572 Co560 2.137 . S
O572 C563 1.247 . S
O573 Co560 2.244 . S
O573 C563 1.272 . S
O573 Co565 2.135 . S
Co574 O575 2.216 . S
Co574 O576 2.091 . S
Co574 O578 2.004 . S
Co574 O584 2.021 . S
Co574 O586 2.137 . S
Co574 O587 2.244 . S
O575 Co574 2.216 . S
O575 C582 1.247 . S
O576 Co574 2.091 . S
O576 C582 1.261 . S
C577 O586 1.247 . S
C577 O587 1.272 . S
O578 Co574 2.004 . S
O578 C583 1.259 . S
Co579 O580 2.061 . S
Co579 O585 2.052 . S
Co579 O587 2.135 . S
O580 Co579 2.061 . S
O580 C583 1.235 . S
C581 O584 1.238 . S
C581 O585 1.241 . S
C582 O575 1.247 . S
C582 O576 1.261 . S
C583 O578 1.259 . S
C583 O580 1.235 . S
O584 Co574 2.021 . S
O584 C581 1.238 . S
O585 Co579 2.052 . S
O585 C581 1.241 . S
O586 Co574 2.137 . S
O586 C577 1.247 . S
O587 Co574 2.244 . S
O587 C577 1.272 . S
O587 Co579 2.135 . S
Co588 O589 2.216 . S
Co588 O590 2.091 . S
Co588 O592 2.004 . S
Co588 O598 2.021 . S
Co588 O600 2.137 . S
Co588 O601 2.244 . S
O589 Co588 2.216 . S
O589 C596 1.247 . S
O590 Co588 2.091 . S
O590 C596 1.261 . S
C591 O600 1.247 . S
C591 O601 1.272 . S
O592 Co588 2.004 . S
O592 C597 1.259 . S
Co593 O594 2.061 . S
Co593 O599 2.052 . S
Co593 O601 2.135 . S
O594 Co593 2.061 . S
O594 C597 1.235 . S
C595 O598 1.238 . S
C595 O599 1.241 . S
C596 O589 1.247 . S
C596 O590 1.261 . S
C597 O592 1.259 . S
C597 O594 1.235 . S
O598 Co588 2.021 . S
O598 C595 1.238 . S
O599 Co593 2.052 . S
O599 C595 1.241 . S
O600 Co588 2.137 . S
O600 C591 1.247 . S
O601 Co588 2.244 . S
O601 C591 1.272 . S
O601 Co593 2.135 . S
Co602 O603 2.216 . S
Co602 O604 2.091 . S
Co602 O606 2.004 . S
Co602 O612 2.021 . S
Co602 O614 2.137 . S
Co602 O615 2.244 . S
O603 Co602 2.216 . S
O603 C610 1.247 . S
O604 Co602 2.091 . S
O604 C610 1.261 . S
C605 O614 1.247 . S
C605 O615 1.272 . S
O606 Co602 2.004 . S
O606 C611 1.259 . S
Co607 O608 2.061 . S
Co607 O613 2.052 . S
Co607 O615 2.135 . S
O608 Co607 2.061 . S
O608 C611 1.235 . S
C609 O612 1.238 . S
C609 O613 1.241 . S
C610 O603 1.247 . S
C610 O604 1.261 . S
C611 O606 1.259 . S
C611 O608 1.235 . S
O612 Co602 2.021 . S
O612 C609 1.238 . S
O613 Co607 2.052 . S
O613 C609 1.241 . S
O614 Co602 2.137 . S
O614 C605 1.247 . S
O615 Co602 2.244 . S
O615 C605 1.272 . S
O615 Co607 2.135 . S
Co616 O617 2.216 . S
Co616 O618 2.091 . S
Co616 O620 2.004 . S
Co616 O626 2.021 . S
Co616 O628 2.137 . S
Co616 O629 2.244 . S
O617 Co616 2.216 . S
O617 C624 1.247 . S
O618 Co616 2.091 . S
O618 C624 1.261 . S
C619 O628 1.247 . S
C619 O629 1.272 . S
O620 Co616 2.004 . S
O620 C625 1.259 . S
Co621 O622 2.061 . S
Co621 O627 2.052 . S
Co621 O629 2.135 . S
O622 Co621 2.061 . S
O622 C625 1.235 . S
C623 O626 1.238 . S
C623 O627 1.241 . S
C624 O617 1.247 . S
C624 O618 1.261 . S
C625 O620 1.259 . S
C625 O622 1.235 . S
O626 Co616 2.021 . S
O626 C623 1.238 . S
O627 Co621 2.052 . S
O627 C623 1.241 . S
O628 Co616 2.137 . S
O628 C619 1.247 . S
O629 Co616 2.244 . S
O629 C619 1.272 . S
O629 Co621 2.135 . S
Co630 O631 2.216 . S
Co630 O632 2.091 . S
Co630 O634 2.004 . S
Co630 O640 2.021 . S
Co630 O642 2.137 . S
Co630 O643 2.244 . S
O631 Co630 2.216 . S
O631 C638 1.247 . S
O632 Co630 2.091 . S
O632 C638 1.261 . S
C633 O642 1.247 . S
C633 O643 1.272 . S
O634 Co630 2.004 . S
O634 C639 1.259 . S
Co635 O636 2.061 . S
Co635 O641 2.052 . S
Co635 O643 2.135 . S
O636 Co635 2.061 . S
O636 C639 1.235 . S
C637 O640 1.238 . S
C637 O641 1.241 . S
C638 O631 1.247 . S
C638 O632 1.261 . S
C639 O634 1.259 . S
C639 O636 1.235 . S
O640 Co630 2.021 . S
O640 C637 1.238 . S
O641 Co635 2.052 . S
O641 C637 1.241 . S
O642 Co630 2.137 . S
O642 C633 1.247 . S
O643 Co630 2.244 . S
O643 C633 1.272 . S
O643 Co635 2.135 . S
Co644 O645 2.216 . S
Co644 O646 2.091 . S
Co644 O648 2.004 . S
Co644 O654 2.021 . S
Co644 O656 2.137 . S
Co644 O657 2.244 . S
O645 Co644 2.216 . S
O645 C652 1.247 . S
O646 Co644 2.091 . S
O646 C652 1.261 . S
C647 O656 1.247 . S
C647 O657 1.272 . S
O648 Co644 2.004 . S
O648 C653 1.259 . S
Co649 O650 2.061 . S
Co649 O655 2.052 . S
Co649 O657 2.135 . S
O650 Co649 2.061 . S
O650 C653 1.235 . S
C651 O654 1.238 . S
C651 O655 1.241 . S
C652 O645 1.247 . S
C652 O646 1.261 . S
C653 O648 1.259 . S
C653 O650 1.235 . S
O654 Co644 2.021 . S
O654 C651 1.238 . S
O655 Co649 2.052 . S
O655 C651 1.241 . S
O656 Co644 2.137 . S
O656 C647 1.247 . S
O657 Co644 2.244 . S
O657 C647 1.272 . S
O657 Co649 2.135 . S
Co658 O659 2.216 . S
Co658 O660 2.091 . S
Co658 O662 2.004 . S
Co658 O668 2.021 . S
Co658 O670 2.137 . S
Co658 O671 2.244 . S
O659 Co658 2.216 . S
O659 C666 1.247 . S
O660 Co658 2.091 . S
O660 C666 1.261 . S
C661 O670 1.247 . S
C661 O671 1.272 . S
O662 Co658 2.004 . S
O662 C667 1.259 . S
Co663 O664 2.061 . S
Co663 O669 2.052 . S
Co663 O671 2.135 . S
O664 Co663 2.061 . S
O664 C667 1.235 . S
C665 O668 1.238 . S
C665 O669 1.241 . S
C666 O659 1.247 . S
C666 O660 1.261 . S
C667 O662 1.259 . S
C667 O664 1.235 . S
O668 Co658 2.021 . S
O668 C665 1.238 . S
O669 Co663 2.052 . S
O669 C665 1.241 . S
O670 Co658 2.137 . S
O670 C661 1.247 . S
O671 Co658 2.244 . S
O671 C661 1.272 . S
O671 Co663 2.135 . S
C672 C673 1.387 . S
C672 H676 0.950 . S
C672 C681 1.390 1_655 S
C673 C672 1.387 . S
C673 C675 1.387 . S
H674 C681 0.950 . S
C675 C673 1.387 . S
C675 C677 1.390 1_655 S
C675 H679 0.950 . S
H676 C672 0.950 . S
C677 C675 1.390 1_455 S
C677 C678 1.387 . S
C677 H680 0.950 . S
C678 C677 1.387 . S
C678 C681 1.387 . S
H679 C675 0.950 . S
H680 C677 0.950 . S
C681 C672 1.390 1_455 S
C681 H674 0.950 . S
C681 C678 1.387 . S
C682 C683 1.387 . S
C682 H686 0.950 . S
C682 C691 1.390 1_455 S
C683 C682 1.387 . S
C683 C685 1.387 . S
H684 C691 0.950 . S
C685 C683 1.387 . S
C685 C687 1.390 1_455 S
C685 H689 0.950 . S
H686 C682 0.950 . S
C687 C685 1.390 1_655 S
C687 C688 1.387 . S
C687 H690 0.950 . S
C688 C687 1.387 . S
C688 C691 1.387 . S
H689 C685 0.950 . S
H690 C687 0.950 . S
C691 C682 1.390 1_655 S
C691 H684 0.950 . S
C691 C688 1.387 . S
C692 C693 1.387 . S
C692 H696 0.950 . S
C692 C701 1.390 1_565 S
C693 C692 1.387 . S
C693 C695 1.387 . S
H694 C701 0.950 . S
C695 C693 1.387 . S
C695 C697 1.390 1_565 S
C695 H699 0.950 . S
H696 C692 0.950 . S
C697 C695 1.390 1_545 S
C697 C698 1.387 . S
C697 H700 0.950 . S
C698 C697 1.387 . S
C698 C701 1.387 . S
H699 C695 0.950 . S
H700 C697 0.950 . S
C701 C692 1.390 1_545 S
C701 H694 0.950 . S
C701 C698 1.387 . S
C702 C703 1.387 . S
C702 H706 0.950 . S
C702 C711 1.390 . S
C703 C702 1.387 . S
C703 C705 1.387 . S
H704 C711 0.950 . S
C705 C703 1.387 . S
C705 C707 1.390 . S
C705 H709 0.950 . S
H706 C702 0.950 . S
C707 C705 1.390 . S
C707 C708 1.387 . S
C707 H710 0.950 . S
C708 C707 1.387 . S
C708 C711 1.387 . S
H709 C705 0.950 . S
H710 C707 0.950 . S
C711 C702 1.390 . S
C711 H704 0.950 . S
C711 C708 1.387 . S
C712 C713 1.387 . S
C712 H716 0.950 . S
C712 C721 1.390 1_554 S
C713 C712 1.387 . S
C713 C715 1.387 . S
H714 C721 0.950 . S
C715 C713 1.387 . S
C715 C717 1.390 1_554 S
C715 H719 0.950 . S
H716 C712 0.950 . S
C717 C715 1.390 1_556 S
C717 C718 1.387 . S
C717 H720 0.950 . S
C718 C717 1.387 . S
C718 C721 1.387 . S
H719 C715 0.950 . S
H720 C717 0.950 . S
C721 C712 1.390 1_556 S
C721 H714 0.950 . S
C721 C718 1.387 . S
C722 C723 1.387 . S
C722 H726 0.950 . S
C722 C731 1.390 . S
C723 C722 1.387 . S
C723 C725 1.387 . S
H724 C731 0.950 . S
C725 C723 1.387 . S
C725 C727 1.390 . S
C725 H729 0.950 . S
H726 C722 0.950 . S
C727 C725 1.390 . S
C727 C728 1.387 . S
C727 H730 0.950 . S
C728 C727 1.387 . S
C728 C731 1.387 . S
H729 C725 0.950 . S
H730 C727 0.950 . S
C731 C722 1.390 . S
C731 H724 0.950 . S
C731 C728 1.387 . S
C732 C733 1.387 . S
C732 H736 0.950 . S
C732 C741 1.390 . S
C733 C732 1.387 . S
C733 C735 1.387 . S
H734 C741 0.950 . S
C735 C733 1.387 . S
C735 C737 1.390 . S
C735 H739 0.950 . S
H736 C732 0.950 . S
C737 C735 1.390 . S
C737 C738 1.387 . S
C737 H740 0.950 . S
C738 C737 1.387 . S
C738 C741 1.387 . S
H739 C735 0.950 . S
H740 C737 0.950 . S
C741 C732 1.390 . S
C741 H734 0.950 . S
C741 C738 1.387 . S
C742 C743 1.387 . S
C742 H746 0.950 . S
C742 C751 1.390 1_455 S
C743 C742 1.387 . S
C743 C745 1.387 . S
H744 C751 0.950 . S
C745 C743 1.387 . S
C745 C747 1.390 1_455 S
C745 H749 0.950 . S
H746 C742 0.950 . S
C747 C745 1.390 1_655 S
C747 C748 1.387 . S
C747 H750 0.950 . S
C748 C747 1.387 . S
C748 C751 1.387 . S
H749 C745 0.950 . S
H750 C747 0.950 . S
C751 C742 1.390 1_655 S
C751 H744 0.950 . S
C751 C748 1.387 . S
C752 C753 1.387 . S
C752 H756 0.950 . S
C752 C761 1.390 1_455 S
C753 C752 1.387 . S
C753 C755 1.387 . S
H754 C761 0.950 . S
C755 C753 1.387 . S
C755 C757 1.390 1_455 S
C755 H759 0.950 . S
H756 C752 0.950 . S
C757 C755 1.390 1_655 S
C757 C758 1.387 . S
C757 H760 0.950 . S
C758 C757 1.387 . S
C758 C761 1.387 . S
H759 C755 0.950 . S
H760 C757 0.950 . S
C761 C752 1.390 1_655 S
C761 H754 0.950 . S
C761 C758 1.387 . S
C762 C763 1.387 . S
C762 H766 0.950 . S
C762 C771 1.390 1_545 S
C763 C762 1.387 . S
C763 C765 1.387 . S
H764 C771 0.950 . S
C765 C763 1.387 . S
C765 C767 1.390 1_545 S
C765 H769 0.950 . S
H766 C762 0.950 . S
C767 C765 1.390 1_565 S
C767 C768 1.387 . S
C767 H770 0.950 . S
C768 C767 1.387 . S
C768 C771 1.387 . S
H769 C765 0.950 . S
H770 C767 0.950 . S
C771 C762 1.390 1_565 S
C771 H764 0.950 . S
C771 C768 1.387 . S
C772 C773 1.387 . S
C772 H776 0.950 . S
C772 C781 1.390 . S
C773 C772 1.387 . S
C773 C775 1.387 . S
H774 C781 0.950 . S
C775 C773 1.387 . S
C775 C777 1.390 . S
C775 H779 0.950 . S
H776 C772 0.950 . S
C777 C775 1.390 . S
C777 C778 1.387 . S
C777 H780 0.950 . S
C778 C777 1.387 . S
C778 C781 1.387 . S
H779 C775 0.950 . S
H780 C777 0.950 . S
C781 C772 1.390 . S
C781 H774 0.950 . S
C781 C778 1.387 . S
C782 C783 1.387 . S
C782 H786 0.950 . S
C782 C791 1.390 1_556 S
C783 C782 1.387 . S
C783 C785 1.387 . S
H784 C791 0.950 . S
C785 C783 1.387 . S
C785 C787 1.390 1_556 S
C785 H789 0.950 . S
H786 C782 0.950 . S
C787 C785 1.390 1_554 S
C787 C788 1.387 . S
C787 H790 0.950 . S
C788 C787 1.387 . S
C788 C791 1.387 . S
H789 C785 0.950 . S
H790 C787 0.950 . S
C791 C782 1.390 1_554 S
C791 H784 0.950 . S
C791 C788 1.387 . S
C792 C793 1.387 . S
C792 H796 0.950 . S
C792 C801 1.390 . S
C793 C792 1.387 . S
C793 C795 1.387 . S
H794 C801 0.950 . S
C795 C793 1.387 . S
C795 C797 1.390 . S
C795 H799 0.950 . S
H796 C792 0.950 . S
C797 C795 1.390 . S
C797 C798 1.387 . S
C797 H800 0.950 . S
C798 C797 1.387 . S
C798 C801 1.387 . S
H799 C795 0.950 . S
H800 C797 0.950 . S
C801 C792 1.390 . S
C801 H794 0.950 . S
C801 C798 1.387 . S
C802 C803 1.387 . S
C802 H806 0.950 . S
C802 C811 1.390 . S
C803 C802 1.387 . S
C803 C805 1.387 . S
H804 C811 0.950 . S
C805 C803 1.387 . S
C805 C807 1.390 . S
C805 H809 0.950 . S
H806 C802 0.950 . S
C807 C805 1.390 . S
C807 C808 1.387 . S
C807 H810 0.950 . S
C808 C807 1.387 . S
C808 C811 1.387 . S
H809 C805 0.950 . S
H810 C807 0.950 . S
C811 C802 1.390 . S
C811 H804 0.950 . S
C811 C808 1.387 . S
C812 C813 1.387 . S
C812 H816 0.950 . S
C812 C821 1.390 . S
C813 C812 1.387 . S
C813 C815 1.387 . S
H814 C821 0.950 . S
C815 C813 1.387 . S
C815 C817 1.390 . S
C815 H819 0.950 . S
H816 C812 0.950 . S
C817 C815 1.390 . S
C817 C818 1.387 . S
C817 H820 0.950 . S
C818 C817 1.387 . S
C818 C821 1.387 . S
H819 C815 0.950 . S
H820 C817 0.950 . S
C821 C812 1.390 . S
C821 H814 0.950 . S
C821 C818 1.387 . S
C822 C823 1.387 . S
C822 H826 0.950 . S
C822 C831 1.390 . S
C823 C822 1.387 . S
C823 C825 1.387 . S
H824 C831 0.950 . S
C825 C823 1.387 . S
C825 C827 1.390 . S
C825 H829 0.950 . S
H826 C822 0.950 . S
C827 C825 1.390 . S
C827 C828 1.387 . S
C827 H830 0.950 . S
C828 C827 1.387 . S
C828 C831 1.387 . S
H829 C825 0.950 . S
H830 C827 0.950 . S
C831 C822 1.390 . S
C831 H824 0.950 . S
C831 C828 1.387 . S
C832 C833 1.387 . S
C832 H836 0.950 . S
C832 C841 1.390 . S
C833 C832 1.387 . S
C833 C835 1.387 . S
H834 C841 0.950 . S
C835 C833 1.387 . S
C835 C837 1.390 . S
C835 H839 0.950 . S
H836 C832 0.950 . S
C837 C835 1.390 . S
C837 C838 1.387 . S
C837 H840 0.950 . S
C838 C837 1.387 . S
C838 C841 1.387 . S
H839 C835 0.950 . S
H840 C837 0.950 . S
C841 C832 1.390 . S
C841 H834 0.950 . S
C841 C838 1.387 . S
C842 C843 1.387 . S
C842 H846 0.950 . S
C842 C851 1.390 1_545 S
C843 C842 1.387 . S
C843 C845 1.387 . S
H844 C851 0.950 . S
C845 C843 1.387 . S
C845 C847 1.390 1_545 S
C845 H849 0.950 . S
H846 C842 0.950 . S
C847 C845 1.390 1_565 S
C847 C848 1.387 . S
C847 H850 0.950 . S
C848 C847 1.387 . S
C848 C851 1.387 . S
H849 C845 0.950 . S
H850 C847 0.950 . S
C851 C842 1.390 1_565 S
C851 H844 0.950 . S
C851 C848 1.387 . S
C852 C853 1.387 . S
C852 H856 0.950 . S
C852 C861 1.390 1_554 S
C853 C852 1.387 . S
C853 C855 1.387 . S
H854 C861 0.950 . S
C855 C853 1.387 . S
C855 C857 1.390 1_554 S
C855 H859 0.950 . S
H856 C852 0.950 . S
C857 C855 1.390 1_556 S
C857 C858 1.387 . S
C857 H860 0.950 . S
C858 C857 1.387 . S
C858 C861 1.387 . S
H859 C855 0.950 . S
H860 C857 0.950 . S
C861 C852 1.390 1_556 S
C861 H854 0.950 . S
C861 C858 1.387 . S
C862 C863 1.387 . S
C862 H866 0.950 . S
C862 C871 1.390 . S
C863 C862 1.387 . S
C863 C865 1.387 . S
H864 C871 0.950 . S
C865 C863 1.387 . S
C865 C867 1.390 . S
C865 H869 0.950 . S
H866 C862 0.950 . S
C867 C865 1.390 . S
C867 C868 1.387 . S
C867 H870 0.950 . S
C868 C867 1.387 . S
C868 C871 1.387 . S
H869 C865 0.950 . S
H870 C867 0.950 . S
C871 C862 1.390 . S
C871 H864 0.950 . S
C871 C868 1.387 . S
C872 C873 1.387 . S
C872 H876 0.950 . S
C872 C881 1.390 . S
C873 C872 1.387 . S
C873 C875 1.387 . S
H874 C881 0.950 . S
C875 C873 1.387 . S
C875 C877 1.390 . S
C875 H879 0.950 . S
H876 C872 0.950 . S
C877 C875 1.390 . S
C877 C878 1.387 . S
C877 H880 0.950 . S
C878 C877 1.387 . S
C878 C881 1.387 . S
H879 C875 0.950 . S
H880 C877 0.950 . S
C881 C872 1.390 . S
C881 H874 0.950 . S
C881 C878 1.387 . S
C882 C883 1.387 . S
C882 H886 0.950 . S
C882 C891 1.390 . S
C883 C882 1.387 . S
C883 C885 1.387 . S
H884 C891 0.950 . S
C885 C883 1.387 . S
C885 C887 1.390 . S
C885 H889 0.950 . S
H886 C882 0.950 . S
C887 C885 1.390 . S
C887 C888 1.387 . S
C887 H890 0.950 . S
C888 C887 1.387 . S
C888 C891 1.387 . S
H889 C885 0.950 . S
H890 C887 0.950 . S
C891 C882 1.390 . S
C891 H884 0.950 . S
C891 C888 1.387 . S
C892 C893 1.387 . S
C892 H896 0.950 . S
C892 C901 1.390 1_545 S
C893 C892 1.387 . S
C893 C895 1.387 . S
H894 C901 0.950 . S
C895 C893 1.387 . S
C895 C897 1.390 1_545 S
C895 H899 0.950 . S
H896 C892 0.950 . S
C897 C895 1.390 1_565 S
C897 C898 1.387 . S
C897 H900 0.950 . S
C898 C897 1.387 . S
C898 C901 1.387 . S
H899 C895 0.950 . S
H900 C897 0.950 . S
C901 C892 1.390 1_565 S
C901 H894 0.950 . S
C901 C898 1.387 . S
C902 C903 1.387 . S
C902 H906 0.950 . S
C902 C911 1.390 1_554 S
C903 C902 1.387 . S
C903 C905 1.387 . S
H904 C911 0.950 . S
C905 C903 1.387 . S
C905 C907 1.390 1_554 S
C905 H909 0.950 . S
H906 C902 0.950 . S
C907 C905 1.390 1_556 S
C907 C908 1.387 . S
C907 H910 0.950 . S
C908 C907 1.387 . S
C908 C911 1.387 . S
H909 C905 0.950 . S
H910 C907 0.950 . S
C911 C902 1.390 1_556 S
C911 H904 0.950 . S
C911 C908 1.387 . S
C912 C913 1.387 . S
C912 H916 0.950 . S
C912 C921 1.390 . S
C913 C912 1.387 . S
C913 C915 1.387 . S
H914 C921 0.950 . S
C915 C913 1.387 . S
C915 C917 1.390 . S
C915 H919 0.950 . S
H916 C912 0.950 . S
C917 C915 1.390 . S
C917 C918 1.387 . S
C917 H920 0.950 . S
C918 C917 1.387 . S
C918 C921 1.387 . S
H919 C915 0.950 . S
H920 C917 0.950 . S
C921 C912 1.390 . S
C921 H914 0.950 . S
C921 C918 1.387 . S
C922 C923 1.387 . S
C922 H926 0.950 . S
C922 C931 1.390 . S
C923 C922 1.387 . S
C923 C925 1.387 . S
H924 C931 0.950 . S
C925 C923 1.387 . S
C925 C927 1.390 . S
C925 H929 0.950 . S
H926 C922 0.950 . S
C927 C925 1.390 . S
C927 C928 1.387 . S
C927 H930 0.950 . S
C928 C927 1.387 . S
C928 C931 1.387 . S
H929 C925 0.950 . S
H930 C927 0.950 . S
C931 C922 1.390 . S
C931 H924 0.950 . S
C931 C928 1.387 . S
C932 C933 1.387 . S
C932 H936 0.950 . S
C932 C941 1.390 . S
C933 C932 1.387 . S
C933 C935 1.387 . S
H934 C941 0.950 . S
C935 C933 1.387 . S
C935 C937 1.390 . S
C935 H939 0.950 . S
H936 C932 0.950 . S
C937 C935 1.390 . S
C937 C938 1.387 . S
C937 H940 0.950 . S
C938 C937 1.387 . S
C938 C941 1.387 . S
H939 C935 0.950 . S
H940 C937 0.950 . S
C941 C932 1.390 . S
C941 H934 0.950 . S
C941 C938 1.387 . S
C942 C943 1.387 . S
C942 H946 0.950 . S
C942 C951 1.390 . S
C943 C942 1.387 . S
C943 C945 1.387 . S
H944 C951 0.950 . S
C945 C943 1.387 . S
C945 C947 1.390 . S
C945 H949 0.950 . S
H946 C942 0.950 . S
C947 C945 1.390 . S
C947 C948 1.387 . S
C947 H950 0.950 . S
C948 C947 1.387 . S
C948 C951 1.387 . S
H949 C945 0.950 . S
H950 C947 0.950 . S
C951 C942 1.390 . S
C951 H944 0.950 . S
C951 C948 1.387 . S
C952 C953 1.387 . S
C952 H956 0.950 . S
C952 C961 1.390 . S
C953 C952 1.387 . S
C953 C955 1.387 . S
H954 C961 0.950 . S
C955 C953 1.387 . S
C955 C957 1.390 . S
C955 H959 0.950 . S
H956 C952 0.950 . S
C957 C955 1.390 . S
C957 C958 1.387 . S
C957 H960 0.950 . S
C958 C957 1.387 . S
C958 C961 1.387 . S
H959 C955 0.950 . S
H960 C957 0.950 . S
C961 C952 1.390 . S
C961 H954 0.950 . S
C961 C958 1.387 . S
C962 C963 1.387 . S
C962 H966 0.950 . S
C962 C971 1.390 . S
C963 C962 1.387 . S
C963 C965 1.387 . S
H964 C971 0.950 . S
C965 C963 1.387 . S
C965 C967 1.390 . S
C965 H969 0.950 . S
H966 C962 0.950 . S
C967 C965 1.390 . S
C967 C968 1.387 . S
C967 H970 0.950 . S
C968 C967 1.387 . S
C968 C971 1.387 . S
H969 C965 0.950 . S
H970 C967 0.950 . S
C971 C962 1.390 . S
C971 H964 0.950 . S
C971 C968 1.387 . S
C972 C973 1.387 . S
C972 H976 0.950 . S
C972 C981 1.390 . S
C973 C972 1.387 . S
C973 C975 1.387 . S
H974 C981 0.950 . S
C975 C973 1.387 . S
C975 C977 1.390 . S
C975 H979 0.950 . S
H976 C972 0.950 . S
C977 C975 1.390 . S
C977 C978 1.387 . S
C977 H980 0.950 . S
C978 C977 1.387 . S
C978 C981 1.387 . S
H979 C975 0.950 . S
H980 C977 0.950 . S
C981 C972 1.390 . S
C981 H974 0.950 . S
C981 C978 1.387 . S
C982 C983 1.387 . S
C982 H986 0.950 . S
C982 C991 1.390 . S
C983 C982 1.387 . S
C983 C985 1.387 . S
H984 C991 0.950 . S
C985 C983 1.387 . S
C985 C987 1.390 . S
C985 H989 0.950 . S
H986 C982 0.950 . S
C987 C985 1.390 . S
C987 C988 1.387 . S
C987 H990 0.950 . S
C988 C987 1.387 . S
C988 C991 1.387 . S
H989 C985 0.950 . S
H990 C987 0.950 . S
C991 C982 1.390 . S
C991 H984 0.950 . S
C991 C988 1.387 . S
C992 C993 1.387 . S
C992 H996 0.950 . S
C992 C1001 1.390 . S
C993 C992 1.387 . S
C993 C995 1.387 . S
H994 C1001 0.950 . S
C995 C993 1.387 . S
C995 C997 1.390 . S
C995 H999 0.950 . S
H996 C992 0.950 . S
C997 C995 1.390 . S
C997 C998 1.387 . S
C997 H1000 0.950 . S
C998 C997 1.387 . S
C998 C1001 1.387 . S
H999 C995 0.950 . S
H1000 C997 0.950 . S
C1001 C992 1.390 . S
C1001 H994 0.950 . S
C1001 C998 1.387 . S
C1002 C1003 1.387 . S
C1002 H1006 0.950 . S
C1002 C1011 1.390 . S
C1003 C1002 1.387 . S
C1003 C1005 1.387 . S
H1004 C1011 0.950 . S
C1005 C1003 1.387 . S
C1005 C1007 1.390 . S
C1005 H1009 0.950 . S
H1006 C1002 0.950 . S
C1007 C1005 1.390 . S
C1007 C1008 1.387 . S
C1007 H1010 0.950 . S
C1008 C1007 1.387 . S
C1008 C1011 1.387 . S
H1009 C1005 0.950 . S
H1010 C1007 0.950 . S
C1011 C1002 1.390 . S
C1011 H1004 0.950 . S
C1011 C1008 1.387 . S
C1012 C1013 1.387 . S
C1012 H1016 0.950 . S
C1012 C1021 1.390 . S
C1013 C1012 1.387 . S
C1013 C1015 1.387 . S
H1014 C1021 0.950 . S
C1015 C1013 1.387 . S
C1015 C1017 1.390 . S
C1015 H1019 0.950 . S
H1016 C1012 0.950 . S
C1017 C1015 1.390 . S
C1017 C1018 1.387 . S
C1017 H1020 0.950 . S
C1018 C1017 1.387 . S
C1018 C1021 1.387 . S
H1019 C1015 0.950 . S
H1020 C1017 0.950 . S
C1021 C1012 1.390 . S
C1021 H1014 0.950 . S
C1021 C1018 1.387 . S
C1022 C1023 1.387 . S
C1022 H1026 0.950 . S
C1022 C1031 1.390 . S
C1023 C1022 1.387 . S
C1023 C1025 1.387 . S
H1024 C1031 0.950 . S
C1025 C1023 1.387 . S
C1025 C1027 1.390 . S
C1025 H1029 0.950 . S
H1026 C1022 0.950 . S
C1027 C1025 1.390 . S
C1027 C1028 1.387 . S
C1027 H1030 0.950 . S
C1028 C1027 1.387 . S
C1028 C1031 1.387 . S
H1029 C1025 0.950 . S
H1030 C1027 0.950 . S
C1031 C1022 1.390 . S
C1031 H1024 0.950 . S
C1031 C1028 1.387 . S
C1032 C1033 1.387 . S
C1032 H1036 0.950 . S
C1032 C1041 1.390 . S
C1033 C1032 1.387 . S
C1033 C1035 1.387 . S
H1034 C1041 0.950 . S
C1035 C1033 1.387 . S
C1035 C1037 1.390 . S
C1035 H1039 0.950 . S
H1036 C1032 0.950 . S
C1037 C1035 1.390 . S
C1037 C1038 1.387 . S
C1037 H1040 0.950 . S
C1038 C1037 1.387 . S
C1038 C1041 1.387 . S
H1039 C1035 0.950 . S
H1040 C1037 0.950 . S
C1041 C1032 1.390 . S
C1041 H1034 0.950 . S
C1041 C1038 1.387 . S
C1042 C1043 1.387 . S
C1042 H1046 0.950 . S
C1042 C1051 1.390 . S
C1043 C1042 1.387 . S
C1043 C1045 1.387 . S
H1044 C1051 0.950 . S
C1045 C1043 1.387 . S
C1045 C1047 1.390 . S
C1045 H1049 0.950 . S
H1046 C1042 0.950 . S
C1047 C1045 1.390 . S
C1047 C1048 1.387 . S
C1047 H1050 0.950 . S
C1048 C1047 1.387 . S
C1048 C1051 1.387 . S
H1049 C1045 0.950 . S
H1050 C1047 0.950 . S
C1051 C1042 1.390 . S
C1051 H1044 0.950 . S
C1051 C1048 1.387 . S
C1052 C1053 1.387 . S
C1052 H1056 0.950 . S
C1052 C1061 1.390 . S
C1053 C1052 1.387 . S
C1053 C1055 1.387 . S
H1054 C1061 0.950 . S
C1055 C1053 1.387 . S
C1055 C1057 1.390 . S
C1055 H1059 0.950 . S
H1056 C1052 0.950 . S
C1057 C1055 1.390 . S
C1057 C1058 1.387 . S
C1057 H1060 0.950 . S
C1058 C1057 1.387 . S
C1058 C1061 1.387 . S
H1059 C1055 0.950 . S
H1060 C1057 0.950 . S
C1061 C1052 1.390 . S
C1061 H1054 0.950 . S
C1061 C1058 1.387 . S
C1062 C1063 1.387 . S
C1062 H1066 0.950 . S
C1062 C1071 1.390 . S
C1063 C1062 1.387 . S
C1063 C1065 1.387 . S
H1064 C1071 0.950 . S
C1065 C1063 1.387 . S
C1065 C1067 1.390 . S
C1065 H1069 0.950 . S
H1066 C1062 0.950 . S
C1067 C1065 1.390 . S
C1067 C1068 1.387 . S
C1067 H1070 0.950 . S
C1068 C1067 1.387 . S
C1068 C1071 1.387 . S
H1069 C1065 0.950 . S
H1070 C1067 0.950 . S
C1071 C1062 1.390 . S
C1071 H1064 0.950 . S
C1071 C1068 1.387 . S
C1072 C1073 1.387 . S
C1072 H1076 0.950 . S
C1072 C1081 1.390 . S
C1073 C1072 1.387 . S
C1073 C1075 1.387 . S
H1074 C1081 0.950 . S
C1075 C1073 1.387 . S
C1075 C1077 1.390 . S
C1075 H1079 0.950 . S
H1076 C1072 0.950 . S
C1077 C1075 1.390 . S
C1077 C1078 1.387 . S
C1077 H1080 0.950 . S
C1078 C1077 1.387 . S
C1078 C1081 1.387 . S
H1079 C1075 0.950 . S
H1080 C1077 0.950 . S
C1081 C1072 1.390 . S
C1081 H1074 0.950 . S
C1081 C1078 1.387 . S
C1082 C1083 1.387 . S
C1082 H1086 0.950 . S
C1082 C1091 1.390 . S
C1083 C1082 1.387 . S
C1083 C1085 1.387 . S
H1084 C1091 0.950 . S
C1085 C1083 1.387 . S
C1085 C1087 1.390 . S
C1085 H1089 0.950 . S
H1086 C1082 0.950 . S
C1087 C1085 1.390 . S
C1087 C1088 1.387 . S
C1087 H1090 0.950 . S
C1088 C1087 1.387 . S
C1088 C1091 1.387 . S
H1089 C1085 0.950 . S
H1090 C1087 0.950 . S
C1091 C1082 1.390 . S
C1091 H1084 0.950 . S
C1091 C1088 1.387 . S
C1092 C1093 1.387 . S
C1092 H1096 0.950 . S
C1092 C1101 1.390 . S
C1093 C1092 1.387 . S
C1093 C1095 1.387 . S
H1094 C1101 0.950 . S
C1095 C1093 1.387 . S
C1095 C1097 1.390 . S
C1095 H1099 0.950 . S
H1096 C1092 0.950 . S
C1097 C1095 1.390 . S
C1097 C1098 1.387 . S
C1097 H1100 0.950 . S
C1098 C1097 1.387 . S
C1098 C1101 1.387 . S
H1099 C1095 0.950 . S
H1100 C1097 0.950 . S
C1101 C1092 1.390 . S
C1101 H1094 0.950 . S
C1101 C1098 1.387 . S
C1102 C1103 1.387 . S
C1102 H1106 0.950 . S
C1102 C1111 1.390 . S
C1103 C1102 1.387 . S
C1103 C1105 1.387 . S
H1104 C1111 0.950 . S
C1105 C1103 1.387 . S
C1105 C1107 1.390 . S
C1105 H1109 0.950 . S
H1106 C1102 0.950 . S
C1107 C1105 1.390 . S
C1107 C1108 1.387 . S
C1107 H1110 0.950 . S
C1108 C1107 1.387 . S
C1108 C1111 1.387 . S
H1109 C1105 0.950 . S
H1110 C1107 0.950 . S
C1111 C1102 1.390 . S
C1111 H1104 0.950 . S
C1111 C1108 1.387 . S
C1112 C1113 1.387 . S
C1112 H1116 0.950 . S
C1112 C1121 1.390 . S
C1113 C1112 1.387 . S
C1113 C1115 1.387 . S
H1114 C1121 0.950 . S
C1115 C1113 1.387 . S
C1115 C1117 1.390 . S
C1115 H1119 0.950 . S
H1116 C1112 0.950 . S
C1117 C1115 1.390 . S
C1117 C1118 1.387 . S
C1117 H1120 0.950 . S
C1118 C1117 1.387 . S
C1118 C1121 1.387 . S
H1119 C1115 0.950 . S
H1120 C1117 0.950 . S
C1121 C1112 1.390 . S
C1121 H1114 0.950 . S
C1121 C1118 1.387 . S
C1122 C1123 1.387 . S
C1122 H1126 0.950 . S
C1122 C1131 1.390 . S
C1123 C1122 1.387 . S
C1123 C1125 1.387 . S
H1124 C1131 0.950 . S
C1125 C1123 1.387 . S
C1125 C1127 1.390 . S
C1125 H1129 0.950 . S
H1126 C1122 0.950 . S
C1127 C1125 1.390 . S
C1127 C1128 1.387 . S
C1127 H1130 0.950 . S
C1128 C1127 1.387 . S
C1128 C1131 1.387 . S
H1129 C1125 0.950 . S
H1130 C1127 0.950 . S
C1131 C1122 1.390 . S
C1131 H1124 0.950 . S
C1131 C1128 1.387 . S
C1132 C1133 1.387 . S
C1132 H1136 0.950 . S
C1132 C1141 1.390 . S
C1133 C1132 1.387 . S
C1133 C1135 1.387 . S
H1134 C1141 0.950 . S
C1135 C1133 1.387 . S
C1135 C1137 1.390 . S
C1135 H1139 0.950 . S
H1136 C1132 0.950 . S
C1137 C1135 1.390 . S
C1137 C1138 1.387 . S
C1137 H1140 0.950 . S
C1138 C1137 1.387 . S
C1138 C1141 1.387 . S
H1139 C1135 0.950 . S
H1140 C1137 0.950 . S
C1141 C1132 1.390 . S
C1141 H1134 0.950 . S
C1141 C1138 1.387 . S
C1142 C1143 1.387 . S
C1142 H1146 0.950 . S
C1142 C1151 1.390 . S
C1143 C1142 1.387 . S
C1143 C1145 1.387 . S
H1144 C1151 0.950 . S
C1145 C1143 1.387 . S
C1145 C1147 1.390 . S
C1145 H1149 0.950 . S
H1146 C1142 0.950 . S
C1147 C1145 1.390 . S
C1147 C1148 1.387 . S
C1147 H1150 0.950 . S
C1148 C1147 1.387 . S
C1148 C1151 1.387 . S
H1149 C1145 0.950 . S
H1150 C1147 0.950 . S
C1151 C1142 1.390 . S
C1151 H1144 0.950 . S
C1151 C1148 1.387 . S
C1152 C1153 1.387 . S
C1152 H1156 0.950 . S
C1152 C1161 1.390 . S
C1153 C1152 1.387 . S
C1153 C1155 1.387 . S
H1154 C1161 0.950 . S
C1155 C1153 1.387 . S
C1155 C1157 1.390 . S
C1155 H1159 0.950 . S
H1156 C1152 0.950 . S
C1157 C1155 1.390 . S
C1157 C1158 1.387 . S
C1157 H1160 0.950 . S
C1158 C1157 1.387 . S
C1158 C1161 1.387 . S
H1159 C1155 0.950 . S
H1160 C1157 0.950 . S
C1161 C1152 1.390 . S
C1161 H1154 0.950 . S
C1161 C1158 1.387 . S
C1162 C1163 1.387 . S
C1162 H1166 0.950 . S
C1162 C1171 1.390 . S
C1163 C1162 1.387 . S
C1163 C1165 1.387 . S
H1164 C1171 0.950 . S
C1165 C1163 1.387 . S
C1165 C1167 1.390 . S
C1165 H1169 0.950 . S
H1166 C1162 0.950 . S
C1167 C1165 1.390 . S
C1167 C1168 1.387 . S
C1167 H1170 0.950 . S
C1168 C1167 1.387 . S
C1168 C1171 1.387 . S
H1169 C1165 0.950 . S
H1170 C1167 0.950 . S
C1171 C1162 1.390 . S
C1171 H1164 0.950 . S
C1171 C1168 1.387 . S
C1172 C1173 1.387 . S
C1172 H1176 0.950 . S
C1172 C1181 1.390 . S
C1173 C1172 1.387 . S
C1173 C1175 1.387 . S
H1174 C1181 0.950 . S
C1175 C1173 1.387 . S
C1175 C1177 1.390 . S
C1175 H1179 0.950 . S
H1176 C1172 0.950 . S
C1177 C1175 1.390 . S
C1177 C1178 1.387 . S
C1177 H1180 0.950 . S
C1178 C1177 1.387 . S
C1178 C1181 1.387 . S
H1179 C1175 0.950 . S
H1180 C1177 0.950 . S
C1181 C1172 1.390 . S
C1181 H1174 0.950 . S
C1181 C1178 1.387 . S
C1182 C1183 1.387 . S
C1182 H1186 0.950 . S
C1182 C1191 1.390 . S
C1183 C1182 1.387 . S
C1183 C1185 1.387 . S
H1184 C1191 0.950 . S
C1185 C1183 1.387 . S
C1185 C1187 1.390 . S
C1185 H1189 0.950 . S
H1186 C1182 0.950 . S
C1187 C1185 1.390 . S
C1187 C1188 1.387 . S
C1187 H1190 0.950 . S
C1188 C1187 1.387 . S
C1188 C1191 1.387 . S
H1189 C1185 0.950 . S
H1190 C1187 0.950 . S
C1191 C1182 1.390 . S
C1191 H1184 0.950 . S
C1191 C1188 1.387 . S
C1192 C1193 1.387 . S
C1192 H1196 0.950 . S
C1192 C1201 1.390 . S
C1193 C1192 1.387 . S
C1193 C1195 1.387 . S
H1194 C1201 0.950 . S
C1195 C1193 1.387 . S
C1195 C1197 1.390 . S
C1195 H1199 0.950 . S
H1196 C1192 0.950 . S
C1197 C1195 1.390 . S
C1197 C1198 1.387 . S
C1197 H1200 0.950 . S
C1198 C1197 1.387 . S
C1198 C1201 1.387 . S
H1199 C1195 0.950 . S
H1200 C1197 0.950 . S
C1201 C1192 1.390 . S
C1201 H1194 0.950 . S
C1201 C1198 1.387 . S
C1202 C1203 1.387 . S
C1202 H1206 0.950 . S
C1202 C1211 1.390 . S
C1203 C1202 1.387 . S
C1203 C1205 1.387 . S
H1204 C1211 0.950 . S
C1205 C1203 1.387 . S
C1205 C1207 1.390 . S
C1205 H1209 0.950 . S
H1206 C1202 0.950 . S
C1207 C1205 1.390 . S
C1207 C1208 1.387 . S
C1207 H1210 0.950 . S
C1208 C1207 1.387 . S
C1208 C1211 1.387 . S
H1209 C1205 0.950 . S
H1210 C1207 0.950 . S
C1211 C1202 1.390 . S
C1211 H1204 0.950 . S
C1211 C1208 1.387 . S
C1212 C1213 1.387 . S
C1212 H1216 0.950 . S
C1212 C1221 1.390 . S
C1213 C1212 1.387 . S
C1213 C1215 1.387 . S
H1214 C1221 0.950 . S
C1215 C1213 1.387 . S
C1215 C1217 1.390 . S
C1215 H1219 0.950 . S
H1216 C1212 0.950 . S
C1217 C1215 1.390 . S
C1217 C1218 1.387 . S
C1217 H1220 0.950 . S
C1218 C1217 1.387 . S
C1218 C1221 1.387 . S
H1219 C1215 0.950 . S
H1220 C1217 0.950 . S
C1221 C1212 1.390 . S
C1221 H1214 0.950 . S
C1221 C1218 1.387 . S
C1222 C1223 1.387 . S
C1222 H1226 0.950 . S
C1222 C1231 1.390 . S
C1223 C1222 1.387 . S
C1223 C1225 1.387 . S
H1224 C1231 0.950 . S
C1225 C1223 1.387 . S
C1225 C1227 1.390 . S
C1225 H1229 0.950 . S
H1226 C1222 0.950 . S
C1227 C1225 1.390 . S
C1227 C1228 1.387 . S
C1227 H1230 0.950 . S
C1228 C1227 1.387 . S
C1228 C1231 1.387 . S
H1229 C1225 0.950 . S
H1230 C1227 0.950 . S
C1231 C1222 1.390 . S
C1231 H1224 0.950 . S
C1231 C1228 1.387 . S
C1232 C1233 1.387 . S
C1232 H1236 0.950 . S
C1232 C1241 1.390 . S
C1233 C1232 1.387 . S
C1233 C1235 1.387 . S
H1234 C1241 0.950 . S
C1235 C1233 1.387 . S
C1235 C1237 1.390 . S
C1235 H1239 0.950 . S
H1236 C1232 0.950 . S
C1237 C1235 1.390 . S
C1237 C1238 1.387 . S
C1237 H1240 0.950 . S
C1238 C1237 1.387 . S
C1238 C1241 1.387 . S
H1239 C1235 0.950 . S
H1240 C1237 0.950 . S
C1241 C1232 1.390 . S
C1241 H1234 0.950 . S
C1241 C1238 1.387 . S
C1242 C1243 1.387 . S
C1242 H1246 0.950 . S
C1242 C1251 1.390 . S
C1243 C1242 1.387 . S
C1243 C1245 1.387 . S
H1244 C1251 0.950 . S
C1245 C1243 1.387 . S
C1245 C1247 1.390 . S
C1245 H1249 0.950 . S
H1246 C1242 0.950 . S
C1247 C1245 1.390 . S
C1247 C1248 1.387 . S
C1247 H1250 0.950 . S
C1248 C1247 1.387 . S
C1248 C1251 1.387 . S
H1249 C1245 0.950 . S
H1250 C1247 0.950 . S
C1251 C1242 1.390 . S
C1251 H1244 0.950 . S
C1251 C1248 1.387 . S
C1252 C1253 1.387 . S
C1252 H1256 0.950 . S
C1252 C1261 1.390 . S
C1253 C1252 1.387 . S
C1253 C1255 1.387 . S
H1254 C1261 0.950 . S
C1255 C1253 1.387 . S
C1255 C1257 1.390 . S
C1255 H1259 0.950 . S
H1256 C1252 0.950 . S
C1257 C1255 1.390 . S
C1257 C1258 1.387 . S
C1257 H1260 0.950 . S
C1258 C1257 1.387 . S
C1258 C1261 1.387 . S
H1259 C1255 0.950 . S
H1260 C1257 0.950 . S
C1261 C1252 1.390 . S
C1261 H1254 0.950 . S
C1261 C1258 1.387 . S
C1262 C1263 1.387 . S
C1262 H1266 0.950 . S
C1262 C1271 1.390 . S
C1263 C1262 1.387 . S
C1263 C1265 1.387 . S
H1264 C1271 0.950 . S
C1265 C1263 1.387 . S
C1265 C1267 1.390 . S
C1265 H1269 0.950 . S
H1266 C1262 0.950 . S
C1267 C1265 1.390 . S
C1267 C1268 1.387 . S
C1267 H1270 0.950 . S
C1268 C1267 1.387 . S
C1268 C1271 1.387 . S
H1269 C1265 0.950 . S
H1270 C1267 0.950 . S
C1271 C1262 1.390 . S
C1271 H1264 0.950 . S
C1271 C1268 1.387 . S
C1272 C1273 1.387 . S
C1272 H1276 0.950 . S
C1272 C1281 1.390 . S
C1273 C1272 1.387 . S
C1273 C1275 1.387 . S
H1274 C1281 0.950 . S
C1275 C1273 1.387 . S
C1275 C1277 1.390 . S
C1275 H1279 0.950 . S
H1276 C1272 0.950 . S
C1277 C1275 1.390 . S
C1277 C1278 1.387 . S
C1277 H1280 0.950 . S
C1278 C1277 1.387 . S
C1278 C1281 1.387 . S
H1279 C1275 0.950 . S
H1280 C1277 0.950 . S
C1281 C1272 1.390 . S
C1281 H1274 0.950 . S
C1281 C1278 1.387 . S
C1282 C1283 1.387 . S
C1282 H1286 0.950 . S
C1282 C1291 1.390 . S
C1283 C1282 1.387 . S
C1283 C1285 1.387 . S
H1284 C1291 0.950 . S
C1285 C1283 1.387 . S
C1285 C1287 1.390 . S
C1285 H1289 0.950 . S
H1286 C1282 0.950 . S
C1287 C1285 1.390 . S
C1287 C1288 1.387 . S
C1287 H1290 0.950 . S
C1288 C1287 1.387 . S
C1288 C1291 1.387 . S
H1289 C1285 0.950 . S
H1290 C1287 0.950 . S
C1291 C1282 1.390 . S
C1291 H1284 0.950 . S
C1291 C1288 1.387 . S
C1292 C1293 1.387 . S
C1292 H1296 0.950 . S
C1292 C1301 1.390 . S
C1293 C1292 1.387 . S
C1293 C1295 1.387 . S
H1294 C1301 0.950 . S
C1295 C1293 1.387 . S
C1295 C1297 1.390 . S
C1295 H1299 0.950 . S
H1296 C1292 0.950 . S
C1297 C1295 1.390 . S
C1297 C1298 1.387 . S
C1297 H1300 0.950 . S
C1298 C1297 1.387 . S
C1298 C1301 1.387 . S
H1299 C1295 0.950 . S
H1300 C1297 0.950 . S
C1301 C1292 1.390 . S
C1301 H1294 0.950 . S
C1301 C1298 1.387 . S
C1302 C1303 1.387 . S
C1302 H1306 0.950 . S
C1302 C1311 1.390 . S
C1303 C1302 1.387 . S
C1303 C1305 1.387 . S
H1304 C1311 0.950 . S
C1305 C1303 1.387 . S
C1305 C1307 1.390 . S
C1305 H1309 0.950 . S
H1306 C1302 0.950 . S
C1307 C1305 1.390 . S
C1307 C1308 1.387 . S
C1307 H1310 0.950 . S
C1308 C1307 1.387 . S
C1308 C1311 1.387 . S
H1309 C1305 0.950 . S
H1310 C1307 0.950 . S
C1311 C1302 1.390 . S
C1311 H1304 0.950 . S
C1311 C1308 1.387 . S
C1312 C1313 1.387 . S
C1312 H1316 0.950 . S
C1312 C1321 1.390 . S
C1313 C1312 1.387 . S
C1313 C1315 1.387 . S
H1314 C1321 0.950 . S
C1315 C1313 1.387 . S
C1315 C1317 1.390 . S
C1315 H1319 0.950 . S
H1316 C1312 0.950 . S
C1317 C1315 1.390 . S
C1317 C1318 1.387 . S
C1317 H1320 0.950 . S
C1318 C1317 1.387 . S
C1318 C1321 1.387 . S
H1319 C1315 0.950 . S
H1320 C1317 0.950 . S
C1321 C1312 1.390 . S
C1321 H1314 0.950 . S
C1321 C1318 1.387 . S
C1322 C1323 1.387 . S
C1322 H1326 0.950 . S
C1322 C1331 1.390 . S
C1323 C1322 1.387 . S
C1323 C1325 1.387 . S
H1324 C1331 0.950 . S
C1325 C1323 1.387 . S
C1325 C1327 1.390 . S
C1325 H1329 0.950 . S
H1326 C1322 0.950 . S
C1327 C1325 1.390 . S
C1327 C1328 1.387 . S
C1327 H1330 0.950 . S
C1328 C1327 1.387 . S
C1328 C1331 1.387 . S
H1329 C1325 0.950 . S
H1330 C1327 0.950 . S
C1331 C1322 1.390 . S
C1331 H1324 0.950 . S
C1331 C1328 1.387 . S
C1332 C1333 1.387 . S
C1332 H1336 0.950 . S
C1332 C1341 1.390 . S
C1333 C1332 1.387 . S
C1333 C1335 1.387 . S
H1334 C1341 0.950 . S
C1335 C1333 1.387 . S
C1335 C1337 1.390 . S
C1335 H1339 0.950 . S
H1336 C1332 0.950 . S
C1337 C1335 1.390 . S
C1337 C1338 1.387 . S
C1337 H1340 0.950 . S
C1338 C1337 1.387 . S
C1338 C1341 1.387 . S
H1339 C1335 0.950 . S
H1340 C1337 0.950 . S
C1341 C1332 1.390 . S
C1341 H1334 0.950 . S
C1341 C1338 1.387 . S
C1342 C1343 1.387 . S
C1342 H1346 0.950 . S
C1342 C1351 1.390 . S
C1343 C1342 1.387 . S
C1343 C1345 1.387 . S
H1344 C1351 0.950 . S
C1345 C1343 1.387 . S
C1345 C1347 1.390 . S
C1345 H1349 0.950 . S
H1346 C1342 0.950 . S
C1347 C1345 1.390 . S
C1347 C1348 1.387 . S
C1347 H1350 0.950 . S
C1348 C1347 1.387 . S
C1348 C1351 1.387 . S
H1349 C1345 0.950 . S
H1350 C1347 0.950 . S
C1351 C1342 1.390 . S
C1351 H1344 0.950 . S
C1351 C1348 1.387 . S
C1352 C1353 1.387 . S
C1352 H1356 0.950 . S
C1352 C1361 1.390 . S
C1353 C1352 1.387 . S
C1353 C1355 1.387 . S
H1354 C1361 0.950 . S
C1355 C1353 1.387 . S
C1355 C1357 1.390 . S
C1355 H1359 0.950 . S
H1356 C1352 0.950 . S
C1357 C1355 1.390 . S
C1357 C1358 1.387 . S
C1357 H1360 0.950 . S
C1358 C1357 1.387 . S
C1358 C1361 1.387 . S
H1359 C1355 0.950 . S
H1360 C1357 0.950 . S
C1361 C1352 1.390 . S
C1361 H1354 0.950 . S
C1361 C1358 1.387 . S
C1362 C1363 1.387 . S
C1362 H1366 0.950 . S
C1362 C1371 1.390 . S
C1363 C1362 1.387 . S
C1363 C1365 1.387 . S
H1364 C1371 0.950 . S
C1365 C1363 1.387 . S
C1365 C1367 1.390 . S
C1365 H1369 0.950 . S
H1366 C1362 0.950 . S
C1367 C1365 1.390 . S
C1367 C1368 1.387 . S
C1367 H1370 0.950 . S
C1368 C1367 1.387 . S
C1368 C1371 1.387 . S
H1369 C1365 0.950 . S
H1370 C1367 0.950 . S
C1371 C1362 1.390 . S
C1371 H1364 0.950 . S
C1371 C1368 1.387 . S
C1372 C1373 1.387 . S
C1372 H1376 0.950 . S
C1372 C1381 1.390 . S
C1373 C1372 1.387 . S
C1373 C1375 1.387 . S
H1374 C1381 0.950 . S
C1375 C1373 1.387 . S
C1375 C1377 1.390 . S
C1375 H1379 0.950 . S
H1376 C1372 0.950 . S
C1377 C1375 1.390 . S
C1377 C1378 1.387 . S
C1377 H1380 0.950 . S
C1378 C1377 1.387 . S
C1378 C1381 1.387 . S
H1379 C1375 0.950 . S
H1380 C1377 0.950 . S
C1381 C1372 1.390 . S
C1381 H1374 0.950 . S
C1381 C1378 1.387 . S
C1382 C1383 1.387 . S
C1382 H1386 0.950 . S
C1382 C1391 1.390 . S
C1383 C1382 1.387 . S
C1383 C1385 1.387 . S
H1384 C1391 0.950 . S
C1385 C1383 1.387 . S
C1385 C1387 1.390 . S
C1385 H1389 0.950 . S
H1386 C1382 0.950 . S
C1387 C1385 1.390 . S
C1387 C1388 1.387 . S
C1387 H1390 0.950 . S
C1388 C1387 1.387 . S
C1388 C1391 1.387 . S
H1389 C1385 0.950 . S
H1390 C1387 0.950 . S
C1391 C1382 1.390 . S
C1391 H1384 0.950 . S
C1391 C1388 1.387 . S
C1392 C1393 1.387 . S
C1392 H1396 0.950 . S
C1392 C1401 1.390 . S
C1393 C1392 1.387 . S
C1393 C1395 1.387 . S
H1394 C1401 0.950 . S
C1395 C1393 1.387 . S
C1395 C1397 1.390 . S
C1395 H1399 0.950 1_455 S
H1396 C1392 0.950 . S
C1397 C1395 1.390 . S
C1397 C1398 1.387 . S
C1397 H1400 0.950 1_455 S
C1398 C1397 1.387 . S
C1398 C1401 1.387 . S
H1399 C1395 0.950 1_655 S
H1400 C1397 0.950 1_655 S
C1401 C1392 1.390 . S
C1401 H1394 0.950 . S
C1401 C1398 1.387 . S
C1402 C1403 1.387 . S
C1402 H1406 0.950 1_655 S
C1402 C1411 1.390 1_565 S
C1403 C1402 1.387 . S
C1403 C1405 1.387 . S
H1404 C1411 0.950 1_455 S
C1405 C1403 1.387 . S
C1405 C1407 1.390 1_565 S
C1405 H1409 0.950 . S
H1406 C1402 0.950 1_455 S
C1407 C1405 1.390 1_545 S
C1407 C1408 1.387 . S
C1407 H1410 0.950 . S
C1408 C1407 1.387 . S
C1408 C1411 1.387 . S
H1409 C1405 0.950 . S
H1410 C1407 0.950 . S
C1411 C1402 1.390 1_545 S
C1411 H1404 0.950 1_655 S
C1411 C1408 1.387 . S
C1412 C1413 1.387 . S
C1412 H1416 0.950 . S
C1412 C1421 1.390 . S
C1413 C1412 1.387 . S
C1413 C1415 1.387 . S
H1414 C1421 0.950 . S
C1415 C1413 1.387 . S
C1415 C1417 1.390 . S
C1415 H1419 0.950 1_545 S
H1416 C1412 0.950 . S
C1417 C1415 1.390 . S
C1417 C1418 1.387 . S
C1417 H1420 0.950 1_545 S
C1418 C1417 1.387 . S
C1418 C1421 1.387 . S
H1419 C1415 0.950 1_565 S
H1420 C1417 0.950 1_565 S
C1421 C1412 1.390 . S
C1421 H1414 0.950 . S
C1421 C1418 1.387 . S
C1422 C1423 1.387 . S
C1422 H1426 0.950 . S
C1422 C1431 1.390 . S
C1423 C1422 1.387 . S
C1423 C1425 1.387 . S
H1424 C1431 0.950 . S
C1425 C1423 1.387 . S
C1425 C1427 1.390 . S
C1425 H1429 0.950 . S
H1426 C1422 0.950 . S
C1427 C1425 1.390 . S
C1427 C1428 1.387 . S
C1427 H1430 0.950 . S
C1428 C1427 1.387 . S
C1428 C1431 1.387 . S
H1429 C1425 0.950 . S
H1430 C1427 0.950 . S
C1431 C1422 1.390 . S
C1431 H1424 0.950 . S
C1431 C1428 1.387 . S
C1432 C1433 1.387 . S
C1432 H1436 0.950 . S
C1432 C1441 1.390 1_556 S
C1433 C1432 1.387 . S
C1433 C1435 1.387 . S
H1434 C1441 0.950 . S
C1435 C1433 1.387 . S
C1435 C1437 1.390 1_556 S
C1435 H1439 0.950 1_565 S
H1436 C1432 0.950 . S
C1437 C1435 1.390 1_554 S
C1437 C1438 1.387 . S
C1437 H1440 0.950 1_565 S
C1438 C1437 1.387 . S
C1438 C1441 1.387 . S
H1439 C1435 0.950 1_545 S
H1440 C1437 0.950 1_545 S
C1441 C1432 1.390 1_554 S
C1441 H1434 0.950 . S
C1441 C1438 1.387 . S
C1442 C1443 1.387 . S
C1442 H1446 0.950 . S
C1442 C1451 1.390 1_554 S
C1443 C1442 1.387 . S
C1443 C1445 1.387 . S
H1444 C1451 0.950 . S
C1445 C1443 1.387 . S
C1445 C1447 1.390 1_554 S
C1445 H1449 0.950 . S
H1446 C1442 0.950 . S
C1447 C1445 1.390 1_556 S
C1447 C1448 1.387 . S
C1447 H1450 0.950 . S
C1448 C1447 1.387 . S
C1448 C1451 1.387 . S
H1449 C1445 0.950 . S
H1450 C1447 0.950 . S
C1451 C1442 1.390 1_556 S
C1451 H1444 0.950 . S
C1451 C1448 1.387 . S
C1452 C1453 1.387 . S
C1452 H1456 0.950 1_554 S
C1452 C1461 1.390 . S
C1453 C1452 1.387 . S
C1453 C1455 1.387 . S
H1454 C1461 0.950 1_556 S
C1455 C1453 1.387 . S
C1455 C1457 1.390 . S
C1455 H1459 0.950 . S
H1456 C1452 0.950 1_556 S
C1457 C1455 1.390 . S
C1457 C1458 1.387 . S
C1457 H1460 0.950 . S
C1458 C1457 1.387 . S
C1458 C1461 1.387 . S
H1459 C1455 0.950 . S
H1460 C1457 0.950 . S
C1461 C1452 1.390 . S
C1461 H1454 0.950 1_554 S
C1461 C1458 1.387 . S
C1462 C1463 1.387 . S
C1462 H1466 0.950 . S
C1462 C1471 1.390 . S
C1463 C1462 1.387 . S
C1463 C1465 1.387 . S
H1464 C1471 0.950 . S
C1465 C1463 1.387 . S
C1465 C1467 1.390 . S
C1465 H1469 0.950 . S
H1466 C1462 0.950 . S
C1467 C1465 1.390 . S
C1467 C1468 1.387 . S
C1467 H1470 0.950 . S
C1468 C1467 1.387 . S
C1468 C1471 1.387 . S
H1469 C1465 0.950 . S
H1470 C1467 0.950 . S
C1471 C1462 1.390 . S
C1471 H1464 0.950 . S
C1471 C1468 1.387 . S
C1472 C1473 1.387 . S
C1472 H1476 0.950 . S
C1472 C1481 1.390 1_455 S
C1473 C1472 1.387 . S
C1473 C1475 1.387 . S
H1474 C1481 0.950 . S
C1475 C1473 1.387 . S
C1475 C1477 1.390 1_455 S
C1475 H1479 0.950 . S
H1476 C1472 0.950 . S
C1477 C1475 1.390 1_655 S
C1477 C1478 1.387 . S
C1477 H1480 0.950 . S
C1478 C1477 1.387 . S
C1478 C1481 1.387 . S
H1479 C1475 0.950 . S
H1480 C1477 0.950 . S
C1481 C1472 1.390 1_655 S
C1481 H1474 0.950 . S
C1481 C1478 1.387 . S
C1482 C1483 1.387 . S
C1482 H1486 0.950 . S
C1482 C1491 1.390 . S
C1483 C1482 1.387 . S
C1483 C1485 1.387 . S
H1484 C1491 0.950 . S
C1485 C1483 1.387 . S
C1485 C1487 1.390 . S
C1485 H1489 0.950 1_655 S
H1486 C1482 0.950 . S
C1487 C1485 1.390 . S
C1487 C1488 1.387 . S
C1487 H1490 0.950 1_655 S
C1488 C1487 1.387 . S
C1488 C1491 1.387 . S
H1489 C1485 0.950 1_455 S
H1490 C1487 0.950 1_455 S
C1491 C1482 1.390 . S
C1491 H1484 0.950 . S
C1491 C1488 1.387 . S
C1492 C1493 1.387 . S
C1492 H1496 0.950 . S
C1492 C1501 1.390 1_545 S
C1493 C1492 1.387 . S
C1493 C1495 1.387 . S
H1494 C1501 0.950 . S
C1495 C1493 1.387 . S
C1495 C1497 1.390 1_545 S
C1495 H1499 0.950 1_455 S
H1496 C1492 0.950 . S
C1497 C1495 1.390 1_565 S
C1497 C1498 1.387 . S
C1497 H1500 0.950 1_455 S
C1498 C1497 1.387 . S
C1498 C1501 1.387 . S
H1499 C1495 0.950 1_655 S
H1500 C1497 0.950 1_655 S
C1501 C1492 1.390 1_565 S
C1501 H1494 0.950 . S
C1501 C1498 1.387 . S
C1502 C1503 1.387 . S
C1502 H1506 0.950 . S
C1502 C1511 1.390 . S
C1503 C1502 1.387 . S
C1503 C1505 1.387 . S
H1504 C1511 0.950 . S
C1505 C1503 1.387 . S
C1505 C1507 1.390 . S
C1505 H1509 0.950 1_565 S
H1506 C1502 0.950 . S
C1507 C1505 1.390 . S
C1507 C1508 1.387 . S
C1507 H1510 0.950 1_565 S
C1508 C1507 1.387 . S
C1508 C1511 1.387 . S
H1509 C1505 0.950 1_545 S
H1510 C1507 0.950 1_545 S
C1511 C1502 1.390 . S
C1511 H1504 0.950 . S
C1511 C1508 1.387 . S
C1512 C1513 1.387 . S
C1512 H1516 0.950 . S
C1512 C1521 1.390 . S
C1513 C1512 1.387 . S
C1513 C1515 1.387 . S
H1514 C1521 0.950 . S
C1515 C1513 1.387 . S
C1515 C1517 1.390 . S
C1515 H1519 0.950 . S
H1516 C1512 0.950 . S
C1517 C1515 1.390 . S
C1517 C1518 1.387 . S
C1517 H1520 0.950 . S
C1518 C1517 1.387 . S
C1518 C1521 1.387 . S
H1519 C1515 0.950 . S
H1520 C1517 0.950 . S
C1521 C1512 1.390 . S
C1521 H1514 0.950 . S
C1521 C1518 1.387 . S
C1522 C1523 1.387 . S
C1522 H1526 0.950 . S
C1522 C1531 1.390 1_556 S
C1523 C1522 1.387 . S
C1523 C1525 1.387 . S
H1524 C1531 0.950 . S
C1525 C1523 1.387 . S
C1525 C1527 1.390 1_556 S
C1525 H1529 0.950 1_545 S
H1526 C1522 0.950 . S
C1527 C1525 1.390 1_554 S
C1527 C1528 1.387 . S
C1527 H1530 0.950 1_545 S
C1528 C1527 1.387 . S
C1528 C1531 1.387 . S
H1529 C1525 0.950 1_565 S
H1530 C1527 0.950 1_565 S
C1531 C1522 1.390 1_554 S
C1531 H1524 0.950 . S
C1531 C1528 1.387 . S
C1532 C1533 1.387 . S
C1532 H1536 0.950 . S
C1532 C1541 1.390 1_556 S
C1533 C1532 1.387 . S
C1533 C1535 1.387 . S
H1534 C1541 0.950 . S
C1535 C1533 1.387 . S
C1535 C1537 1.390 1_556 S
C1535 H1539 0.950 . S
H1536 C1532 0.950 . S
C1537 C1535 1.390 1_554 S
C1537 C1538 1.387 . S
C1537 H1540 0.950 . S
C1538 C1537 1.387 . S
C1538 C1541 1.387 . S
H1539 C1535 0.950 . S
H1540 C1537 0.950 . S
C1541 C1532 1.390 1_554 S
C1541 H1534 0.950 . S
C1541 C1538 1.387 . S
C1542 C1543 1.387 . S
C1542 H1546 0.950 . S
C1542 C1551 1.390 . S
C1543 C1542 1.387 . S
C1543 C1545 1.387 . S
H1544 C1551 0.950 . S
C1545 C1543 1.387 . S
C1545 C1547 1.390 . S
C1545 H1549 0.950 1_556 S
H1546 C1542 0.950 . S
C1547 C1545 1.390 . S
C1547 C1548 1.387 . S
C1547 H1550 0.950 1_556 S
C1548 C1547 1.387 . S
C1548 C1551 1.387 . S
H1549 C1545 0.950 1_554 S
H1550 C1547 0.950 1_554 S
C1551 C1542 1.390 . S
C1551 H1544 0.950 . S
C1551 C1548 1.387 . S
C1552 C1553 1.387 . S
C1552 H1556 0.950 . S
C1552 C1561 1.390 . S
C1553 C1552 1.387 . S
C1553 C1555 1.387 . S
H1554 C1561 0.950 . S
C1555 C1553 1.387 . S
C1555 C1557 1.390 . S
C1555 H1559 0.950 . S
H1556 C1552 0.950 . S
C1557 C1555 1.390 . S
C1557 C1558 1.387 . S
C1557 H1560 0.950 . S
C1558 C1557 1.387 . S
C1558 C1561 1.387 . S
H1559 C1555 0.950 . S
H1560 C1557 0.950 . S
C1561 C1552 1.390 . S
C1561 H1554 0.950 . S
C1561 C1558 1.387 . S
C1562 C1563 1.387 . S
C1562 H1566 0.950 . S
C1562 C1571 1.390 1_655 S
C1563 C1562 1.387 . S
C1563 C1565 1.387 . S
H1564 C1571 0.950 . S
C1565 C1563 1.387 . S
C1565 C1567 1.390 1_655 S
C1565 H1569 0.950 . S
H1566 C1562 0.950 . S
C1567 C1565 1.390 1_455 S
C1567 C1568 1.387 . S
C1567 H1570 0.950 . S
C1568 C1567 1.387 . S
C1568 C1571 1.387 . S
H1569 C1565 0.950 . S
H1570 C1567 0.950 . S
C1571 C1562 1.390 1_455 S
C1571 H1564 0.950 . S
C1571 C1568 1.387 . S
C1572 C1573 1.387 . S
C1572 H1576 0.950 . S
C1572 C1581 1.390 1_545 S
C1573 C1572 1.387 . S
C1573 C1575 1.387 . S
H1574 C1581 0.950 . S
C1575 C1573 1.387 . S
C1575 C1577 1.390 1_545 S
C1575 H1579 0.950 . S
H1576 C1572 0.950 . S
C1577 C1575 1.390 1_565 S
C1577 C1578 1.387 . S
C1577 H1580 0.950 . S
C1578 C1577 1.387 . S
C1578 C1581 1.387 . S
H1579 C1575 0.950 . S
H1580 C1577 0.950 . S
C1581 C1572 1.390 1_565 S
C1581 H1574 0.950 . S
C1581 C1578 1.387 . S
C1582 C1583 1.387 . S
C1582 H1586 0.950 . S
C1582 C1591 1.390 . S
C1583 C1582 1.387 . S
C1583 C1585 1.387 . S
H1584 C1591 0.950 . S
C1585 C1583 1.387 . S
C1585 C1587 1.390 . S
C1585 H1589 0.950 . S
H1586 C1582 0.950 . S
C1587 C1585 1.390 . S
C1587 C1588 1.387 . S
C1587 H1590 0.950 . S
C1588 C1587 1.387 . S
C1588 C1591 1.387 . S
H1589 C1585 0.950 . S
H1590 C1587 0.950 . S
C1591 C1582 1.390 . S
C1591 H1584 0.950 . S
C1591 C1588 1.387 . S
C1592 C1593 1.387 . S
C1592 H1596 0.950 . S
C1592 C1601 1.390 1_455 S
C1593 C1592 1.387 . S
C1593 C1595 1.387 . S
H1594 C1601 0.950 . S
C1595 C1593 1.387 . S
C1595 C1597 1.390 1_455 S
C1595 H1599 0.950 1_556 S
H1596 C1592 0.950 . S
C1597 C1595 1.390 1_655 S
C1597 C1598 1.387 . S
C1597 H1600 0.950 1_556 S
C1598 C1597 1.387 . S
C1598 C1601 1.387 . S
H1599 C1595 0.950 1_554 S
H1600 C1597 0.950 1_554 S
C1601 C1592 1.390 1_655 S
C1601 H1594 0.950 . S
C1601 C1598 1.387 . S
C1602 C1603 1.387 . S
C1602 H1606 0.950 . S
C1602 C1611 1.390 1_545 S
C1603 C1602 1.387 . S
C1603 C1605 1.387 . S
H1604 C1611 0.950 . S
C1605 C1603 1.387 . S
C1605 C1607 1.390 1_545 S
C1605 H1609 0.950 . S
H1606 C1602 0.950 . S
C1607 C1605 1.390 1_565 S
C1607 C1608 1.387 . S
C1607 H1610 0.950 . S
C1608 C1607 1.387 . S
C1608 C1611 1.387 . S
H1609 C1605 0.950 . S
H1610 C1607 0.950 . S
C1611 C1602 1.390 1_565 S
C1611 H1604 0.950 . S
C1611 C1608 1.387 . S
C1612 C1613 1.387 . S
C1612 H1616 0.950 . S
C1612 C1621 1.390 . S
C1613 C1612 1.387 . S
C1613 C1615 1.387 . S
H1614 C1621 0.950 . S
C1615 C1613 1.387 . S
C1615 C1617 1.390 . S
C1615 H1619 0.950 . S
H1616 C1612 0.950 . S
C1617 C1615 1.390 . S
C1617 C1618 1.387 . S
C1617 H1620 0.950 . S
C1618 C1617 1.387 . S
C1618 C1621 1.387 . S
H1619 C1615 0.950 . S
H1620 C1617 0.950 . S
C1621 C1612 1.390 . S
C1621 H1614 0.950 . S
C1621 C1618 1.387 . S
C1622 C1623 1.387 . S
C1622 H1626 0.950 1_554 S
C1622 C1631 1.390 1_455 S
C1623 C1622 1.387 . S
C1623 C1625 1.387 . S
H1624 C1631 0.950 1_556 S
C1625 C1623 1.387 . S
C1625 C1627 1.390 1_455 S
C1625 H1629 0.950 . S
H1626 C1622 0.950 1_556 S
C1627 C1625 1.390 1_655 S
C1627 C1628 1.387 . S
C1627 H1630 0.950 . S
C1628 C1627 1.387 . S
C1628 C1631 1.387 . S
H1629 C1625 0.950 . S
H1630 C1627 0.950 . S
C1631 C1622 1.390 1_655 S
C1631 H1624 0.950 1_554 S
C1631 C1628 1.387 . S
C673 C22 1.729 . S
C678 C8 1.729 . S
C683 C36 1.730 . S
C688 C50 1.730 . S
C693 C92 1.729 . S
C698 C64 1.729 . S
C703 C106 1.729 . S
C708 C78 1.729 . S
C713 C120 1.730 . S
C718 C484 1.730 . S
C723 C134 1.730 . S
C728 C162 1.730 . S
C733 C456 1.730 . S
C738 C148 1.730 . S
C743 C190 1.730 . S
C748 C176 1.730 . S
C753 C218 1.729 . S
C758 C204 1.729 . S
C763 C260 1.729 . S
C768 C232 1.729 . S
C773 C274 1.730 . S
C778 C246 1.730 . S
C783 C288 1.729 . S
C788 C652 1.729 . S
C793 C302 1.729 . S
C798 C330 1.729 . S
C803 C624 1.729 . S
C808 C316 1.729 . S
C813 C344 1.729 . S
C818 C358 1.729 . S
C823 C386 1.730 . S
C828 C372 1.730 . S
C833 C400 1.729 . S
C838 C428 1.729 . S
C843 C442 1.730 . S
C848 C414 1.730 . S
C853 C498 1.730 . S
C858 C470 1.730 . S
C863 C526 1.729 . S
C868 C512 1.729 . S
C873 C540 1.729 . S
C878 C554 1.729 . S
C883 C596 1.730 . S
C888 C568 1.730 . S
C893 C582 1.730 . S
C898 C610 1.730 . S
C903 C638 1.730 . S
C908 C666 1.730 . S
C913 C619 1.430 . S
C918 C7 1.392 . S
C923 C325 1.430 . S
C928 C21 1.390 . S
C933 C633 1.430 . S
C938 C35 1.393 . S
C943 C49 1.392 . S
C948 C647 1.430 . S
C953 C63 1.392 . S
C958 C507 1.430 . S
C963 C521 1.431 . S
C968 C77 1.393 . S
C973 C91 1.390 . S
C978 C535 1.430 . S
C983 C549 1.429 . S
C988 C105 1.390 . S
C993 C563 1.430 . S
C998 C119 1.393 . S
C1003 C133 1.392 . S
C1008 C591 1.430 . S
C1013 C605 1.431 . S
C1018 C147 1.393 . S
C1023 C161 1.393 . S
C1028 C241 1.432 . S
C1033 C175 1.389 . S
C1038 C451 1.429 . S
C1043 C189 1.389 . S
C1048 C157 1.429 . S
C1053 C203 1.389 . S
C1058 C465 1.429 . S
C1063 C217 1.393 . S
C1068 C479 1.430 . S
C1073 C339 1.430 . S
C1078 C231 1.390 . S
C1083 C353 1.429 . S
C1088 C245 1.389 . S
C1093 C259 1.393 . S
C1098 C367 1.431 . S
C1103 C273 1.389 . S
C1108 C381 1.429 . S
C1113 C287 1.392 . S
C1118 C395 1.431 . S
C1123 C301 1.392 . S
C1128 C423 1.430 . S
C1133 C437 1.430 . S
C1138 C315 1.390 . S
C1143 C73 1.431 . S
C1148 C329 1.393 . S
C1153 C343 1.392 . S
C1158 C283 1.430 . S
C1163 C357 1.389 . S
C1168 C661 1.429 . S
C1173 C371 1.392 . S
C1178 C297 1.431 . S
C1183 C385 1.393 . S
C1188 C311 1.431 . S
C1193 C171 1.430 . S
C1198 C399 1.390 . S
C1203 C413 1.392 . S
C1208 C185 1.430 . S
C1213 C199 1.430 . S
C1218 C427 1.390 . S
C1223 C213 1.429 . S
C1228 C441 1.390 . S
C1233 C227 1.428 . S
C1238 C455 1.390 . S
C1243 C255 1.431 . S
C1248 C469 1.393 . S
C1253 C483 1.392 . S
C1258 C269 1.431 . S
C1263 C497 1.390 . S
C1268 C577 1.429 . S
C1273 C115 1.429 . S
C1278 C511 1.390 . S
C1283 C525 1.390 . S
C1288 C493 1.429 . S
C1293 C539 1.393 . S
C1298 C129 1.430 . S
C1303 C143 1.430 . S
C1308 C553 1.393 . S
C1313 C567 1.392 . S
C1318 C3 1.430 . S
C1323 C581 1.390 . S
C1328 C17 1.429 . S
C1333 C31 1.430 . S
C1338 C595 1.392 . S
C1343 C609 1.390 . S
C1348 C45 1.429 . S
C1353 C623 1.393 . S
C1358 C59 1.430 . S
C1363 C87 1.429 . S
C1368 C637 1.390 . S
C1373 C651 1.392 . S
C1378 C101 1.430 . S
C1383 C409 1.429 . S
C1388 C665 1.390 . S
C1393 C37 1.119 . S
C1398 C9 1.119 . S
C1403 C51 1.121 . S
C1408 C23 1.121 . S
C1413 C443 1.119 . S
C1418 C65 1.119 . S
C1423 C429 1.119 . S
C1428 C79 1.119 . S
C1433 C415 1.119 . S
C1438 C93 1.119 . S
C1443 C107 1.121 . S
C1448 C401 1.121 . S
C1453 C121 1.121 . S
C1458 C499 1.121 . S
C1463 C149 1.119 . S
C1468 C135 1.119 . S
C1473 C163 1.119 . S
C1478 C457 1.119 . S
C1483 C205 1.121 . S
C1488 C177 1.121 . S
C1493 C219 1.121 . S
C1498 C191 1.121 . S
C1503 C611 1.121 . S
C1508 C233 1.121 . S
C1513 C597 1.119 . S
C1518 C247 1.119 . S
C1523 C261 1.121 . S
C1528 C583 1.121 . S
C1533 C275 1.121 . S
C1538 C569 1.121 . S
C1543 C667 1.121 . S
C1548 C289 1.121 . S
C1553 C317 1.119 . S
C1558 C303 1.119 . S
C1563 C331 1.121 . S
C1568 C625 1.121 . S
C1573 C373 1.119 . S
C1578 C345 1.119 . S
C1583 C359 1.119 . S
C1588 C387 1.119 . S
C1593 C485 1.119 . S
C1598 C471 1.119 . S
C1603 C513 1.119 . S
C1608 C541 1.119 . S
C1613 C527 1.119 . S
C1618 C555 1.119 . S
C1623 C639 1.119 . S
C1628 C653 1.119 . S
