# Generated by pormake.
# Topology uog, (4)-cn, num edge types: 1
# Building blocks:
#     Node 0, Type 0, BuildingBlock: MUDLON_clean_sbu_0, # of connection points: 4
#     Node 1, Type 0, BuildingBlock: MUDLON_clean_sbu_0, # of connection points: 4
#     Node 2, Type 0, BuildingBlock: MUDLON_clean_sbu_0, # of connection points: 4
#     Node 3, Type 0, BuildingBlock: MUDLON_clean_sbu_0, # of connection points: 4
#     Node 4, Type 0, BuildingBlock: MUDLON_clean_sbu_0, # of connection points: 4
#     Node 5, Type 0, BuildingBlock: MUDLON_clean_sbu_0, # of connection points: 4
#     Edge 6, Type (0, 0), BuildingBlock: EZIPEK_clean_linker_0, # of connection points: 2
#     Edge 7, Type (0, 0), BuildingBlock: EZIPEK_clean_linker_0, # of connection points: 2
#     Edge 8, Type (0, 0), BuildingBlock: EZIPEK_clean_linker_0, # of connection points: 2
#     Edge 9, Type (0, 0), BuildingBlock: EZIPEK_clean_linker_0, # of connection points: 2
#     Edge 10, Type (0, 0), BuildingBlock: EZIPEK_clean_linker_0, # of connection points: 2
#     Edge 11, Type (0, 0), BuildingBlock: EZIPEK_clean_linker_0, # of connection points: 2
#     Edge 12, Type (0, 0), BuildingBlock: EZIPEK_clean_linker_0, # of connection points: 2
#     Edge 13, Type (0, 0), BuildingBlock: EZIPEK_clean_linker_0, # of connection points: 2
#     Edge 14, Type (0, 0), BuildingBlock: EZIPEK_clean_linker_0, # of connection points: 2
#     Edge 15, Type (0, 0), BuildingBlock: EZIPEK_clean_linker_0, # of connection points: 2
#     Edge 16, Type (0, 0), BuildingBlock: EZIPEK_clean_linker_0, # of connection points: 2
#     Edge 17, Type (0, 0), BuildingBlock: EZIPEK_clean_linker_0, # of connection points: 2
# Relax obj value: 0.035
# Max RMSD: 0.253
# Mean RMSD: 0.253
data_MOF--net-uog--node1-MUDLON_clean_sbu_0--edge1-EZIPEK_clean_linker_0
_symmetry_space_group_name_H-M    P1
_symmetry_Int_Tables_number       1
_symmetry_cell_setting            triclinic
loop_
_symmetry_equiv_pos_as_xyz
'x, y, z'
_cell_length_a     22.266073
_cell_length_b     22.266654
_cell_length_c     32.758028
_cell_angle_alpha  89.667717
_cell_angle_beta   90.138637
_cell_angle_gamma 120.15747
loop_
_atom_site_label
_atom_site_type_symbol
_atom_site_fract_x
_atom_site_fract_y
_atom_site_fract_z
_atom_type_partial_charge
Mg0 Mg 0.58107 0.28931 0.19769 0.0
C1 C 0.61463 0.32344 0.11194 0.0
O2 O 0.5469 0.29559 0.11379 0.0
C3 C 0.67821 0.31884 0.27429 0.0
O4 O 0.7162 0.30079 0.25271 0.0
C5 C 0.56507 0.1503 0.18955 0.0
O6 O 0.63265 0.19108 0.18679 0.0
O7 O 0.52658 0.17684 0.19429 0.0
O8 O 0.64834 0.32922 0.14454 0.0
O9 O 0.51799 0.33815 0.19443 0.0
C10 C 0.55504 0.40412 0.19443 0.0
O11 O 0.62301 0.43312 0.19548 0.0
O12 O 0.62648 0.31917 0.2581 0.0
Mg13 Mg 0.30539 0.58623 0.52985 0.0
C14 C 0.2875 0.60708 0.44303 0.0
O15 O 0.2356 0.54443 0.45087 0.0
C16 C 0.36529 0.63915 0.61375 0.0
O17 O 0.39856 0.60602 0.60539 0.0
C18 C 0.42755 0.56873 0.51672 0.0
O19 O 0.45088 0.63265 0.50385 0.0
O20 O 0.36505 0.53299 0.52922 0.0
O21 O 0.32795 0.64235 0.47202 0.0
O22 O 0.19294 0.5229 0.53155 0.0
C23 C 0.16403 0.55958 0.53476 0.0
O24 O 0.20301 0.62738 0.53751 0.0
O25 O 0.32779 0.64465 0.58629 0.0
Mg26 Mg 0.71399 0.30707 0.86662 0.0
C27 C 0.68652 0.29202 0.77835 0.0
O28 O 0.7021 0.24382 0.78707 0.0
C29 C 0.71052 0.3801 0.9455 0.0
O30 O 0.77135 0.43048 0.93349 0.0
C31 C 0.85574 0.42829 0.85696 0.0
O32 O 0.81649 0.45401 0.84578 0.0
O33 O 0.82717 0.36477 0.86775 0.0
O34 O 0.68436 0.32903 0.8072 0.0
O35 O 0.66711 0.19488 0.87123 0.0
C36 C 0.60315 0.1605 0.86149 0.0
O37 O 0.57236 0.19403 0.8482 0.0
O38 O 0.67489 0.32889 0.92208 0.0
Mg39 Mg 0.42719 0.71098 0.19569 0.0
C40 C 0.39618 0.69245 0.10909 0.0
O41 O 0.46432 0.72625 0.1112 0.0
C42 C 0.33952 0.69639 0.27387 0.0
O43 O 0.31569 0.73211 0.25471 0.0
C44 C 0.45174 0.85315 0.18663 0.0
O45 O 0.38472 0.81493 0.18003 0.0
O46 O 0.487 0.82365 0.19384 0.0
O47 O 0.3611 0.67682 0.14203 0.0
O48 O 0.48444 0.6563 0.19132 0.0
C49 C 0.44658 0.59161 0.19875 0.0
O50 O 0.38099 0.5665 0.2084 0.0
O51 O 0.38 0.68067 0.25565 0.0
Mg52 Mg 0.72826 0.43031 0.52925 0.0
C53 C 0.72906 0.40702 0.44317 0.0
O54 O 0.77248 0.47345 0.44912 0.0
C55 C 0.65439 0.33767 0.60705 0.0
O56 O 0.59538 0.30717 0.58698 0.0
C57 C 0.60939 0.45275 0.52149 0.0
O58 O 0.58043 0.38492 0.51918 0.0
O59 O 0.67497 0.48936 0.52594 0.0
O60 O 0.69848 0.36845 0.47394 0.0
O61 O 0.84086 0.48834 0.52714 0.0
C62 C 0.86725 0.4496 0.53197 0.0
O63 O 0.82597 0.38244 0.53706 0.0
O64 O 0.70967 0.38285 0.58943 0.0
Mg65 Mg 0.29981 0.72258 0.86317 0.0
C66 C 0.35725 0.73062 0.77849 0.0
O67 O 0.38778 0.79708 0.78677 0.0
C68 C 0.29344 0.64702 0.94369 0.0
O69 O 0.23006 0.60168 0.93234 0.0
C70 C 0.15363 0.61168 0.85529 0.0
O71 O 0.18827 0.58079 0.84475 0.0
O72 O 0.18704 0.67572 0.86487 0.0
O73 O 0.3208 0.68674 0.80599 0.0
O74 O 0.36005 0.8358 0.86267 0.0
C75 C 0.42376 0.86223 0.87263 0.0
O76 O 0.44744 0.82111 0.88357 0.0
O77 O 0.333 0.69625 0.91978 0.0
C78 C 0.54012 0.0398 0.22442 0.0
C79 C 0.53514 0.07412 0.18902 0.0
C80 C 0.48423 0.96502 0.15082 0.0
C81 C 0.48427 0.92972 0.18705 0.0
N82 N 0.5023 0.93053 0.25975 0.0
N83 N 0.49661 0.07002 0.11977 0.0
C84 C 0.50997 0.96633 0.22423 0.0
C85 C 0.50527 0.03682 0.15257 0.0
N86 N 0.57409 0.07761 0.25817 0.0
N87 N 0.46661 0.93033 0.11447 0.0
H88 H 0.51376 0.12309 0.11949 0.0
H89 H 0.46839 0.04449 0.09385 0.0
H90 H 0.45199 0.87803 0.112 0.0
H91 H 0.47198 0.9543 0.08627 0.0
H92 H 0.58714 0.05718 0.28307 0.0
H93 H 0.59314 0.13088 0.26035 0.0
H94 H 0.51234 0.95314 0.28852 0.0
H95 H 0.48072 0.87676 0.26095 0.0
C96 C 0.52859 0.56369 0.54714 0.0
C97 C 0.4748 0.53992 0.51756 0.0
C98 C 0.51713 0.46801 0.48674 0.0
C99 C 0.56509 0.48503 0.51941 0.0
N100 N 0.60605 0.53795 0.58543 0.0
N101 N 0.4128 0.46417 0.46142 0.0
C102 C 0.5683 0.53012 0.55086 0.0
C103 C 0.46731 0.49015 0.48814 0.0
N104 N 0.54251 0.61884 0.57147 0.0
N105 N 0.52137 0.43366 0.45339 0.0
H106 H 0.37717 0.48152 0.46019 0.0
H107 H 0.40008 0.42209 0.44243 0.0
H108 H 0.55853 0.41856 0.45054 0.0
H109 H 0.49274 0.42619 0.42682 0.0
H110 H 0.58583 0.64282 0.59046 0.0
H111 H 0.51468 0.64491 0.56998 0.0
H112 H 0.60398 0.56415 0.61115 0.0
H113 H 0.6339 0.51239 0.59026 0.0
C114 C 0.96722 0.49935 0.81848 0.0
C115 C 0.9324 0.47373 0.85637 0.0
C116 C 0.04033 0.55024 0.89314 0.0
C117 C 0.07657 0.5709 0.85544 0.0
N118 N 0.07677 0.56292 0.7821 0.0
N119 N 0.9374 0.46603 0.9297 0.0
C120 C 0.04055 0.5448 0.81804 0.0
C121 C 0.96945 0.49655 0.8937 0.0
N122 N 0.93002 0.48044 0.7829 0.0
N123 N 0.07328 0.58271 0.92839 0.0
H124 H 0.88561 0.42683 0.93154 0.0
H125 H 0.96357 0.47495 0.95737 0.0
H126 H 0.12484 0.62256 0.92915 0.0
H127 H 0.04796 0.57513 0.95624 0.0
H128 H 0.95038 0.50343 0.75472 0.0
H129 H 0.87721 0.44372 0.78169 0.0
H130 H 0.05572 0.53917 0.7543 0.0
H131 H 0.12944 0.6001 0.78025 0.0
C132 C 0.0566 0.53997 0.49843 0.0
C133 C 0.08764 0.52799 0.53313 0.0
C134 C 0.97525 0.47106 0.5684 0.0
C135 C 0.94342 0.47872 0.53264 0.0
N136 N 0.95066 0.50814 0.46117 0.0
N137 N 0.07642 0.47492 0.59916 0.0
C138 C 0.98325 0.51009 0.497 0.0
C139 C 0.04679 0.49093 0.56744 0.0
N140 N 0.09726 0.58032 0.46689 0.0
N141 N 0.93778 0.44779 0.6038 0.0
H142 H 0.12925 0.49126 0.60038 0.0
H143 H 0.04806 0.44139 0.62291 0.0
H144 H 0.88564 0.43395 0.60591 0.0
H145 H 0.95949 0.44779 0.63198 0.0
H146 H 0.07882 0.59818 0.44327 0.0
H147 H 0.15067 0.59982 0.46548 0.0
H148 H 0.97593 0.523 0.4331 0.0
H149 H 0.89697 0.48579 0.45873 0.0
C150 C 0.53016 0.96691 0.84463 0.0
C151 C 0.4718 0.93848 0.87128 0.0
C152 C 0.50303 0.05559 0.89378 0.0
C153 C 0.56161 0.08403 0.86728 0.0
N154 N 0.63787 0.06738 0.82247 0.0
N155 N 0.41028 0.95328 0.9271 0.0
C156 C 0.57751 0.03982 0.84443 0.0
C157 C 0.46012 0.98218 0.89738 0.0
N158 N 0.53861 0.92458 0.81802 0.0
N159 N 0.48861 0.09895 0.91572 0.0
H160 H 0.37853 0.89979 0.93104 0.0
H161 H 0.40378 0.98159 0.95008 0.0
H162 H 0.5226 0.15236 0.91764 0.0
H163 H 0.44192 0.08262 0.93096 0.0
H164 H 0.57403 0.94266 0.79402 0.0
H165 H 0.50712 0.87078 0.81801 0.0
H166 H 0.657 0.03777 0.80951 0.0
H167 H 0.67196 0.12051 0.81931 0.0
C168 C 0.45185 0.49267 0.16624 0.0
C169 C 0.47497 0.54418 0.19709 0.0
C170 C 0.54028 0.49524 0.22953 0.0
C171 C 0.52342 0.4488 0.1963 0.0
N172 N 0.47129 0.40936 0.13002 0.0
N173 N 0.54614 0.59939 0.25618 0.0
C174 C 0.48103 0.44878 0.16391 0.0
C175 C 0.52106 0.5472 0.22803 0.0
N176 N 0.4015 0.48516 0.13934 0.0
N177 N 0.5715 0.48725 0.26351 0.0
H178 H 0.53029 0.63614 0.25765 0.0
H179 H 0.58616 0.60917 0.2764 0.0
H180 H 0.58365 0.44788 0.2664 0.0
H181 H 0.57904 0.5148 0.29042 0.0
H182 H 0.37677 0.44353 0.11934 0.0
H183 H 0.38063 0.51786 0.13887 0.0
H184 H 0.4482 0.41361 0.10332 0.0
H185 H 0.49119 0.37607 0.12725 0.0
C186 C 0.66393 0.40914 1.00756 0.0
C187 C 0.69318 0.37201 0.98952 0.0
C188 C 0.6773 0.30729 0.05329 0.0
C189 C 0.64935 0.34542 0.0717 0.0
N190 N 0.62891 0.44185 0.06991 0.0
N191 N 0.74333 0.29845 0.99732 0.0
C192 C 0.64663 0.39929 0.04985 0.0
C193 C 0.7048 0.32507 1.01311 0.0
N194 N 0.65069 0.452 0.98396 0.0
N195 N 0.67408 0.25162 0.07324 0.0
H196 H 0.76428 0.31006 0.96794 0.0
H197 H 0.7599 0.26998 1.0145 0.0
H198 H 0.65488 0.23711 0.10284 0.0
H199 H 0.68558 0.21659 0.05942 0.0
H200 H 0.62239 0.47467 0.99402 0.0
H201 H 0.66446 0.46155 0.95319 0.0
H202 H 0.63167 0.48589 0.05686 0.0
H203 H 0.61731 0.43662 0.10102 0.0
C204 C 0.30079 0.60453 0.32779 0.0
C205 C 0.32055 0.6738 0.31702 0.0
C206 C 0.31134 0.69816 0.38908 0.0
C207 C 0.30153 0.63206 0.40007 0.0
N208 N 0.3052 0.52968 0.37973 0.0
N209 N 0.35814 0.79108 0.33907 0.0
C210 C 0.30131 0.5872 0.36938 0.0
C211 C 0.32932 0.72203 0.34806 0.0
N212 N 0.27956 0.55458 0.29842 0.0
N213 N 0.30127 0.73726 0.41725 0.0
H214 H 0.37427 0.81153 0.30985 0.0
H215 H 0.37228 0.82898 0.36141 0.0
H216 H 0.28658 0.72103 0.44733 0.0
H217 H 0.30089 0.78259 0.40968 0.0
H218 H 0.25881 0.50203 0.30526 0.0
H219 H 0.2751 0.5644 0.26771 0.0
H220 H 0.31175 0.49912 0.35822 0.0
H221 H 0.31029 0.51718 0.40978 0.0
C222 C 0.61845 0.30897 0.72188 0.0
C223 C 0.67758 0.3056 0.73489 0.0
C224 C 0.71203 0.30925 0.66354 0.0
C225 C 0.65821 0.32154 0.65078 0.0
N226 N 0.56925 0.3484 0.66948 0.0
N227 N 0.7903 0.32121 0.71805 0.0
C228 C 0.61363 0.32547 0.68036 0.0
C229 C 0.72717 0.31104 0.7057 0.0
N230 N 0.56563 0.294 0.74857 0.0
N231 N 0.74749 0.29367 0.63551 0.0
H232 H 0.80531 0.32665 0.7486 0.0
H233 H 0.83064 0.33235 0.69778 0.0
H234 H 0.7358 0.28852 0.60442 0.0
H235 H 0.78297 0.27819 0.64369 0.0
H236 H 0.51834 0.28874 0.73948 0.0
H237 H 0.56627 0.28023 0.77896 0.0
H238 H 0.5411 0.35902 0.69073 0.0
H239 H 0.56565 0.3636 0.63986 0.0
C240 C 0.35842 0.62719 0.99983 0.0
C241 C 0.31338 0.65131 0.98714 0.0
C242 C 0.31933 0.69973 0.05517 0.0
C243 C 0.36228 0.6732 0.06844 0.0
N244 N 0.41228 0.60071 0.05618 0.0
N245 N 0.24162 0.70068 1.0036 0.0
C246 C 0.37876 0.63365 0.04152 0.0
C247 C 0.29051 0.684 1.01523 0.0
N248 N 0.38306 0.59963 0.97176 0.0
N249 N 0.30995 0.74398 0.07958 0.0
H250 H 0.22239 0.69426 0.97394 0.0
H251 H 0.21644 0.71642 1.02397 0.0
H252 H 0.33032 0.75734 0.10891 0.0
H253 H 0.28675 0.77207 0.06972 0.0
H254 H 0.4225 0.5887 0.97786 0.0
H255 H 0.36694 0.59156 0.94136 0.0
H256 H 0.41937 0.5652 0.03939 0.0
H257 H 0.42804 0.60431 0.08649 0.0
C258 C 0.72004 0.32348 0.3882 0.0
C259 C 0.71316 0.3807 0.40067 0.0
C260 C 0.69813 0.40406 0.3294 0.0
C261 C 0.69585 0.34187 0.31738 0.0
N262 N 0.6923 0.23526 0.33703 0.0
N263 N 0.67821 0.46457 0.38382 0.0
C264 C 0.70357 0.29952 0.3472 0.0
C265 C 0.69712 0.41785 0.37146 0.0
N266 N 0.74496 0.29372 0.41481 0.0
N267 N 0.70405 0.45156 0.3007 0.0
H268 H 0.67372 0.47414 0.41446 0.0
H269 H 0.65943 0.48782 0.36377 0.0
H270 H 0.70864 0.4452 0.26955 0.0
H271 H 0.71231 0.50059 0.30816 0.0
H272 H 0.758 0.25683 0.40597 0.0
H273 H 0.75866 0.31033 0.44483 0.0
H274 H 0.68975 0.19943 0.35858 0.0
H275 H 0.67932 0.21517 0.30765 0.0
C276 C 0.3551 0.74387 0.70202 0.0
C277 C 0.3607 0.70763 0.73641 0.0
C278 C 0.35985 0.62127 0.69024 0.0
C279 C 0.36565 0.66358 0.65601 0.0
N280 N 0.38678 0.77517 0.63141 0.0
N281 N 0.38658 0.62081 0.76168 0.0
C282 C 0.36881 0.72802 0.66248 0.0
C283 C 0.36862 0.64901 0.73012 0.0
N284 N 0.33265 0.79041 0.70642 0.0
N285 N 0.34172 0.55333 0.68529 0.0
H286 H 0.39733 0.64171 0.79097 0.0
H287 H 0.39866 0.58168 0.75746 0.0
H288 H 0.32826 0.52829 0.65719 0.0
H289 H 0.33131 0.51952 0.70987 0.0
H290 H 0.32244 0.81339 0.68157 0.0
H291 H 0.31556 0.79924 0.73412 0.0
H292 H 0.39538 0.82522 0.6359 0.0
H293 H 0.40099 0.76737 0.60248 0.0
loop_
_geom_bond_atom_site_label_1
_geom_bond_atom_site_label_2
_geom_bond_distance
_geom_bond_site_symmetry_2
_ccdc_geom_bond_type
Mg0 O7 2.141 . S
Mg0 O8 2.048 . S
Mg0 O9 2.048 . S
Mg0 O12 2.141 . S
C1 O2 1.313 . S
C1 O8 1.195 . S
O2 C1 1.313 . S
C3 O4 1.245 . S
C3 O12 1.289 . S
O4 C3 1.245 . S
C5 O6 1.245 . S
C5 O7 1.289 . S
O6 C5 1.245 . S
O7 Mg0 2.141 . S
O7 C5 1.289 . S
O8 Mg0 2.048 . S
O8 C1 1.195 . S
O9 Mg0 2.048 . S
O9 C10 1.195 . S
C10 O9 1.195 . S
C10 O11 1.313 . S
O11 C10 1.313 . S
O12 Mg0 2.141 . S
O12 C3 1.289 . S
Mg13 O20 2.141 . S
Mg13 O21 2.048 . S
Mg13 O22 2.048 . S
Mg13 O25 2.141 . S
C14 O15 1.313 . S
C14 O21 1.195 . S
O15 C14 1.313 . S
C16 O17 1.245 . S
C16 O25 1.289 . S
O17 C16 1.245 . S
C18 O19 1.245 . S
C18 O20 1.289 . S
O19 C18 1.245 . S
O20 Mg13 2.141 . S
O20 C18 1.289 . S
O21 Mg13 2.048 . S
O21 C14 1.195 . S
O22 Mg13 2.048 . S
O22 C23 1.195 . S
C23 O22 1.195 . S
C23 O24 1.313 . S
O24 C23 1.313 . S
O25 Mg13 2.141 . S
O25 C16 1.289 . S
Mg26 O33 2.141 . S
Mg26 O34 2.048 . S
Mg26 O35 2.048 . S
Mg26 O38 2.141 . S
C27 O28 1.313 . S
C27 O34 1.195 . S
O28 C27 1.313 . S
C29 O30 1.245 . S
C29 O38 1.289 . S
O30 C29 1.245 . S
C31 O32 1.245 . S
C31 O33 1.289 . S
O32 C31 1.245 . S
O33 Mg26 2.141 . S
O33 C31 1.289 . S
O34 Mg26 2.048 . S
O34 C27 1.195 . S
O35 Mg26 2.048 . S
O35 C36 1.195 . S
C36 O35 1.195 . S
C36 O37 1.313 . S
O37 C36 1.313 . S
O38 Mg26 2.141 . S
O38 C29 1.289 . S
Mg39 O46 2.141 . S
Mg39 O47 2.048 . S
Mg39 O48 2.048 . S
Mg39 O51 2.141 . S
C40 O41 1.313 . S
C40 O47 1.195 . S
O41 C40 1.313 . S
C42 O43 1.245 . S
C42 O51 1.289 . S
O43 C42 1.245 . S
C44 O45 1.245 . S
C44 O46 1.289 . S
O45 C44 1.245 . S
O46 Mg39 2.141 . S
O46 C44 1.289 . S
O47 Mg39 2.048 . S
O47 C40 1.195 . S
O48 Mg39 2.048 . S
O48 C49 1.195 . S
C49 O48 1.195 . S
C49 O50 1.313 . S
O50 C49 1.313 . S
O51 Mg39 2.141 . S
O51 C42 1.289 . S
Mg52 O59 2.141 . S
Mg52 O60 2.048 . S
Mg52 O61 2.048 . S
Mg52 O64 2.141 . S
C53 O54 1.313 . S
C53 O60 1.195 . S
O54 C53 1.313 . S
C55 O56 1.245 . S
C55 O64 1.289 . S
O56 C55 1.245 . S
C57 O58 1.245 . S
C57 O59 1.289 . S
O58 C57 1.245 . S
O59 Mg52 2.141 . S
O59 C57 1.289 . S
O60 Mg52 2.048 . S
O60 C53 1.195 . S
O61 Mg52 2.048 . S
O61 C62 1.195 . S
C62 O61 1.195 . S
C62 O63 1.313 . S
O63 C62 1.313 . S
O64 Mg52 2.141 . S
O64 C55 1.289 . S
Mg65 O72 2.141 . S
Mg65 O73 2.048 . S
Mg65 O74 2.048 . S
Mg65 O77 2.141 . S
C66 O67 1.313 . S
C66 O73 1.195 . S
O67 C66 1.313 . S
C68 O69 1.245 . S
C68 O77 1.289 . S
O69 C68 1.245 . S
C70 O71 1.245 . S
C70 O72 1.289 . S
O71 C70 1.245 . S
O72 Mg65 2.141 . S
O72 C70 1.289 . S
O73 Mg65 2.048 . S
O73 C66 1.195 . S
O74 Mg65 2.048 . S
O74 C75 1.195 . S
C75 O74 1.195 . S
C75 O76 1.313 . S
O76 C75 1.313 . S
O77 Mg65 2.141 . S
O77 C68 1.289 . S
C78 C79 1.363 . S
C78 C84 1.379 1_545 S
C78 N86 1.356 . S
C79 C78 1.363 . S
C79 C85 1.363 . S
C80 C81 1.363 . S
C80 C85 1.379 1_565 S
C80 N87 1.356 . S
C81 C80 1.363 . S
C81 C84 1.363 . S
N82 C84 1.356 . S
N82 H94 0.984 . S
N82 H95 0.985 . S
N83 C85 1.356 . S
N83 H88 0.984 . S
N83 H89 0.985 . S
C84 C78 1.379 1_565 S
C84 C81 1.363 . S
C84 N82 1.356 . S
C85 C79 1.363 . S
C85 C80 1.379 1_545 S
C85 N83 1.356 . S
N86 C78 1.356 . S
N86 H92 0.984 . S
N86 H93 0.984 . S
N87 C80 1.356 . S
N87 H90 0.984 . S
N87 H91 0.985 . S
H88 N83 0.984 . S
H89 N83 0.985 . S
H90 N87 0.984 . S
H91 N87 0.985 . S
H92 N86 0.984 . S
H93 N86 0.984 . S
H94 N82 0.984 . S
H95 N82 0.985 . S
C96 C97 1.363 . S
C96 C102 1.379 . S
C96 N104 1.356 . S
C97 C96 1.363 . S
C97 C103 1.363 . S
C98 C99 1.363 . S
C98 C103 1.379 . S
C98 N105 1.356 . S
C99 C98 1.363 . S
C99 C102 1.363 . S
N100 C102 1.356 . S
N100 H112 0.984 . S
N100 H113 0.985 . S
N101 C103 1.356 . S
N101 H106 0.984 . S
N101 H107 0.985 . S
C102 C96 1.379 . S
C102 C99 1.363 . S
C102 N100 1.356 . S
C103 C97 1.363 . S
C103 C98 1.379 . S
C103 N101 1.356 . S
N104 C96 1.356 . S
N104 H110 0.984 . S
N104 H111 0.984 . S
N105 C98 1.356 . S
N105 H108 0.984 . S
N105 H109 0.985 . S
H106 N101 0.984 . S
H107 N101 0.985 . S
H108 N105 0.984 . S
H109 N105 0.985 . S
H110 N104 0.984 . S
H111 N104 0.984 . S
H112 N100 0.984 . S
H113 N100 0.985 . S
C114 C115 1.363 . S
C114 C120 1.379 1_655 S
C114 N122 1.356 . S
C115 C114 1.363 . S
C115 C121 1.363 . S
C116 C117 1.363 . S
C116 C121 1.379 1_455 S
C116 N123 1.356 . S
C117 C116 1.363 . S
C117 C120 1.363 . S
N118 C120 1.356 . S
N118 H130 0.984 . S
N118 H131 0.985 . S
N119 C121 1.356 . S
N119 H124 0.984 . S
N119 H125 0.985 . S
C120 C114 1.379 1_455 S
C120 C117 1.363 . S
C120 N118 1.356 . S
C121 C115 1.363 . S
C121 C116 1.379 1_655 S
C121 N119 1.356 . S
N122 C114 1.356 . S
N122 H128 0.984 . S
N122 H129 0.984 . S
N123 C116 1.356 . S
N123 H126 0.984 . S
N123 H127 0.985 . S
H124 N119 0.984 . S
H125 N119 0.985 . S
H126 N123 0.984 . S
H127 N123 0.985 . S
H128 N122 0.984 . S
H129 N122 0.984 . S
H130 N118 0.984 . S
H131 N118 0.985 . S
C132 C133 1.363 . S
C132 C138 1.379 1_455 S
C132 N140 1.356 . S
C133 C132 1.363 . S
C133 C139 1.363 . S
C134 C135 1.363 . S
C134 C139 1.379 1_655 S
C134 N141 1.356 . S
C135 C134 1.363 . S
C135 C138 1.363 . S
N136 C138 1.356 . S
N136 H148 0.984 . S
N136 H149 0.985 . S
N137 C139 1.356 . S
N137 H142 0.984 . S
N137 H143 0.985 . S
C138 C132 1.379 1_655 S
C138 C135 1.363 . S
C138 N136 1.356 . S
C139 C133 1.363 . S
C139 C134 1.379 1_455 S
C139 N137 1.356 . S
N140 C132 1.356 . S
N140 H146 0.984 . S
N140 H147 0.984 . S
N141 C134 1.356 . S
N141 H144 0.984 . S
N141 H145 0.985 . S
H142 N137 0.984 . S
H143 N137 0.985 . S
H144 N141 0.984 . S
H145 N141 0.985 . S
H146 N140 0.984 . S
H147 N140 0.984 . S
H148 N136 0.984 . S
H149 N136 0.985 . S
C150 C151 1.363 . S
C150 C156 1.379 1_565 S
C150 N158 1.356 . S
C151 C150 1.363 . S
C151 C157 1.363 . S
C152 C153 1.363 . S
C152 C157 1.379 1_545 S
C152 N159 1.356 . S
C153 C152 1.363 . S
C153 C156 1.363 . S
N154 C156 1.356 . S
N154 H166 0.984 . S
N154 H167 0.985 . S
N155 C157 1.356 . S
N155 H160 0.984 . S
N155 H161 0.985 . S
C156 C150 1.379 1_545 S
C156 C153 1.363 . S
C156 N154 1.356 . S
C157 C151 1.363 . S
C157 C152 1.379 1_565 S
C157 N155 1.356 . S
N158 C150 1.356 . S
N158 H164 0.984 . S
N158 H165 0.984 . S
N159 C152 1.356 . S
N159 H162 0.984 . S
N159 H163 0.985 . S
H160 N155 0.984 . S
H161 N155 0.985 . S
H162 N159 0.984 . S
H163 N159 0.985 . S
H164 N158 0.984 . S
H165 N158 0.984 . S
H166 N154 0.984 . S
H167 N154 0.985 . S
C168 C169 1.363 . S
C168 C174 1.379 . S
C168 N176 1.356 . S
C169 C168 1.363 . S
C169 C175 1.363 . S
C170 C171 1.363 . S
C170 C175 1.379 . S
C170 N177 1.356 . S
C171 C170 1.363 . S
C171 C174 1.363 . S
N172 C174 1.356 . S
N172 H184 0.984 . S
N172 H185 0.985 . S
N173 C175 1.356 . S
N173 H178 0.984 . S
N173 H179 0.985 . S
C174 C168 1.379 . S
C174 C171 1.363 . S
C174 N172 1.356 . S
C175 C169 1.363 . S
C175 C170 1.379 . S
C175 N173 1.356 . S
N176 C168 1.356 . S
N176 H182 0.984 . S
N176 H183 0.984 . S
N177 C170 1.356 . S
N177 H180 0.984 . S
N177 H181 0.985 . S
H178 N173 0.984 . S
H179 N173 0.985 . S
H180 N177 0.984 . S
H181 N177 0.985 . S
H182 N176 0.984 . S
H183 N176 0.984 . S
H184 N172 0.984 . S
H185 N172 0.985 . S
C186 C187 1.363 . S
C186 C192 1.379 1_556 S
C186 N194 1.356 . S
C187 C186 1.363 . S
C187 C193 1.363 . S
C188 C189 1.363 . S
C188 C193 1.379 1_554 S
C188 N195 1.356 . S
C189 C188 1.363 . S
C189 C192 1.363 . S
N190 C192 1.356 . S
N190 H202 0.984 . S
N190 H203 0.985 . S
N191 C193 1.356 . S
N191 H196 0.984 . S
N191 H197 0.985 . S
C192 C186 1.379 1_554 S
C192 C189 1.363 . S
C192 N190 1.356 . S
C193 C187 1.363 . S
C193 C188 1.379 1_556 S
C193 N191 1.356 . S
N194 C186 1.356 . S
N194 H200 0.984 . S
N194 H201 0.984 . S
N195 C188 1.356 . S
N195 H198 0.984 . S
N195 H199 0.985 . S
H196 N191 0.984 . S
H197 N191 0.985 . S
H198 N195 0.984 . S
H199 N195 0.985 . S
H200 N194 0.984 . S
H201 N194 0.984 . S
H202 N190 0.984 . S
H203 N190 0.985 . S
C204 C205 1.363 . S
C204 C210 1.379 . S
C204 N212 1.356 . S
C205 C204 1.363 . S
C205 C211 1.363 . S
C206 C207 1.363 . S
C206 C211 1.379 . S
C206 N213 1.356 . S
C207 C206 1.363 . S
C207 C210 1.363 . S
N208 C210 1.356 . S
N208 H220 0.984 . S
N208 H221 0.985 . S
N209 C211 1.356 . S
N209 H214 0.984 . S
N209 H215 0.985 . S
C210 C204 1.379 . S
C210 C207 1.363 . S
C210 N208 1.356 . S
C211 C205 1.363 . S
C211 C206 1.379 . S
C211 N209 1.356 . S
N212 C204 1.356 . S
N212 H218 0.984 . S
N212 H219 0.984 . S
N213 C206 1.356 . S
N213 H216 0.984 . S
N213 H217 0.985 . S
H214 N209 0.984 . S
H215 N209 0.985 . S
H216 N213 0.984 . S
H217 N213 0.985 . S
H218 N212 0.984 . S
H219 N212 0.984 . S
H220 N208 0.984 . S
H221 N208 0.985 . S
C222 C223 1.363 . S
C222 C228 1.379 . S
C222 N230 1.356 . S
C223 C222 1.363 . S
C223 C229 1.363 . S
C224 C225 1.363 . S
C224 C229 1.379 . S
C224 N231 1.356 . S
C225 C224 1.363 . S
C225 C228 1.363 . S
N226 C228 1.356 . S
N226 H238 0.984 . S
N226 H239 0.985 . S
N227 C229 1.356 . S
N227 H232 0.984 . S
N227 H233 0.985 . S
C228 C222 1.379 . S
C228 C225 1.363 . S
C228 N226 1.356 . S
C229 C223 1.363 . S
C229 C224 1.379 . S
C229 N227 1.356 . S
N230 C222 1.356 . S
N230 H236 0.984 . S
N230 H237 0.984 . S
N231 C224 1.356 . S
N231 H234 0.984 . S
N231 H235 0.985 . S
H232 N227 0.984 . S
H233 N227 0.985 . S
H234 N231 0.984 . S
H235 N231 0.985 . S
H236 N230 0.984 . S
H237 N230 0.984 . S
H238 N226 0.984 . S
H239 N226 0.985 . S
C240 C241 1.363 . S
C240 C246 1.379 1_556 S
C240 N248 1.356 . S
C241 C240 1.363 . S
C241 C247 1.363 . S
C242 C243 1.363 . S
C242 C247 1.379 1_554 S
C242 N249 1.356 . S
C243 C242 1.363 . S
C243 C246 1.363 . S
N244 C246 1.356 . S
N244 H256 0.984 . S
N244 H257 0.985 . S
N245 C247 1.356 . S
N245 H250 0.984 . S
N245 H251 0.985 . S
C246 C240 1.379 1_554 S
C246 C243 1.363 . S
C246 N244 1.356 . S
C247 C241 1.363 . S
C247 C242 1.379 1_556 S
C247 N245 1.356 . S
N248 C240 1.356 . S
N248 H254 0.984 . S
N248 H255 0.984 . S
N249 C242 1.356 . S
N249 H252 0.984 . S
N249 H253 0.985 . S
H250 N245 0.984 . S
H251 N245 0.985 . S
H252 N249 0.984 . S
H253 N249 0.985 . S
H254 N248 0.984 . S
H255 N248 0.984 . S
H256 N244 0.984 . S
H257 N244 0.985 . S
C258 C259 1.363 . S
C258 C264 1.379 . S
C258 N266 1.356 . S
C259 C258 1.363 . S
C259 C265 1.363 . S
C260 C261 1.363 . S
C260 C265 1.379 . S
C260 N267 1.356 . S
C261 C260 1.363 . S
C261 C264 1.363 . S
N262 C264 1.356 . S
N262 H274 0.984 . S
N262 H275 0.985 . S
N263 C265 1.356 . S
N263 H268 0.984 . S
N263 H269 0.985 . S
C264 C258 1.379 . S
C264 C261 1.363 . S
C264 N262 1.356 . S
C265 C259 1.363 . S
C265 C260 1.379 . S
C265 N263 1.356 . S
N266 C258 1.356 . S
N266 H272 0.984 . S
N266 H273 0.984 . S
N267 C260 1.356 . S
N267 H270 0.984 . S
N267 H271 0.985 . S
H268 N263 0.984 . S
H269 N263 0.985 . S
H270 N267 0.984 . S
H271 N267 0.985 . S
H272 N266 0.984 . S
H273 N266 0.984 . S
H274 N262 0.984 . S
H275 N262 0.985 . S
C276 C277 1.363 . S
C276 C282 1.379 . S
C276 N284 1.356 . S
C277 C276 1.363 . S
C277 C283 1.363 . S
C278 C279 1.363 . S
C278 C283 1.379 . S
C278 N285 1.356 . S
C279 C278 1.363 . S
C279 C282 1.363 . S
N280 C282 1.356 . S
N280 H292 0.984 . S
N280 H293 0.985 . S
N281 C283 1.356 . S
N281 H286 0.984 . S
N281 H287 0.985 . S
C282 C276 1.379 . S
C282 C279 1.363 . S
C282 N280 1.356 . S
C283 C277 1.363 . S
C283 C278 1.379 . S
C283 N281 1.356 . S
N284 C276 1.356 . S
N284 H290 0.984 . S
N284 H291 0.984 . S
N285 C278 1.356 . S
N285 H288 0.984 . S
N285 H289 0.985 . S
H286 N281 0.984 . S
H287 N281 0.985 . S
H288 N285 0.984 . S
H289 N285 0.985 . S
H290 N284 0.984 . S
H291 N284 0.984 . S
H292 N280 0.984 . S
H293 N280 0.985 . S
C79 C5 1.980 . S
C81 C44 1.980 . S
C97 C18 1.980 . S
C99 C57 1.980 . S
C115 C31 1.980 . S
C117 C70 1.980 . S
C133 C23 2.037 . S
C135 C62 2.037 . S
C151 C75 2.037 . S
C153 C36 2.037 . S
C169 C49 2.037 . S
C171 C10 2.037 . S
C187 C29 1.612 . S
C189 C1 1.630 . S
C205 C42 1.612 . S
C207 C14 1.630 . S
C223 C27 1.630 . S
C225 C55 1.612 . S
C241 C68 1.612 . S
C243 C40 1.630 . S
C259 C53 1.630 . S
C261 C3 1.612 . S
C277 C66 1.630 . S
C279 C16 1.612 . S
