# Generated by pormake.
# Topology umg, (4)-cn, num edge types: 1
# Building blocks:
#     Node 0, Type 0, BuildingBlock: ICAMEG_clean_sbu_1, # of connection points: 4
#     Node 1, Type 0, BuildingBlock: ICAMEG_clean_sbu_1, # of connection points: 4
#     Node 2, Type 0, BuildingBlock: ICAMEG_clean_sbu_1, # of connection points: 4
#     Node 3, Type 0, BuildingBlock: ICAMEG_clean_sbu_1, # of connection points: 4
#     Node 4, Type 0, BuildingBlock: ICAMEG_clean_sbu_1, # of connection points: 4
#     Node 5, Type 0, BuildingBlock: ICAMEG_clean_sbu_1, # of connection points: 4
#     Node 6, Type 0, BuildingBlock: ICAMEG_clean_sbu_1, # of connection points: 4
#     Node 7, Type 0, BuildingBlock: ICAMEG_clean_sbu_1, # of connection points: 4
#     Node 8, Type 0, BuildingBlock: ICAMEG_clean_sbu_1, # of connection points: 4
#     Node 9, Type 0, BuildingBlock: ICAMEG_clean_sbu_1, # of connection points: 4
#     Node 10, Type 0, BuildingBlock: ICAMEG_clean_sbu_1, # of connection points: 4
#     Node 11, Type 0, BuildingBlock: ICAMEG_clean_sbu_1, # of connection points: 4
#     Edge 12, Type (0, 0), BuildingBlock: KIFKEQ_clean_linker_1, # of connection points: 2
#     Edge 13, Type (0, 0), BuildingBlock: KIFKEQ_clean_linker_1, # of connection points: 2
#     Edge 14, Type (0, 0), BuildingBlock: KIFKEQ_clean_linker_1, # of connection points: 2
#     Edge 15, Type (0, 0), BuildingBlock: KIFKEQ_clean_linker_1, # of connection points: 2
#     Edge 16, Type (0, 0), BuildingBlock: KIFKEQ_clean_linker_1, # of connection points: 2
#     Edge 17, Type (0, 0), BuildingBlock: KIFKEQ_clean_linker_1, # of connection points: 2
#     Edge 18, Type (0, 0), BuildingBlock: KIFKEQ_clean_linker_1, # of connection points: 2
#     Edge 19, Type (0, 0), BuildingBlock: KIFKEQ_clean_linker_1, # of connection points: 2
#     Edge 20, Type (0, 0), BuildingBlock: KIFKEQ_clean_linker_1, # of connection points: 2
#     Edge 21, Type (0, 0), BuildingBlock: KIFKEQ_clean_linker_1, # of connection points: 2
#     Edge 22, Type (0, 0), BuildingBlock: KIFKEQ_clean_linker_1, # of connection points: 2
#     Edge 23, Type (0, 0), BuildingBlock: KIFKEQ_clean_linker_1, # of connection points: 2
#     Edge 24, Type (0, 0), BuildingBlock: KIFKEQ_clean_linker_1, # of connection points: 2
#     Edge 25, Type (0, 0), BuildingBlock: KIFKEQ_clean_linker_1, # of connection points: 2
#     Edge 26, Type (0, 0), BuildingBlock: KIFKEQ_clean_linker_1, # of connection points: 2
#     Edge 27, Type (0, 0), BuildingBlock: KIFKEQ_clean_linker_1, # of connection points: 2
#     Edge 28, Type (0, 0), BuildingBlock: KIFKEQ_clean_linker_1, # of connection points: 2
#     Edge 29, Type (0, 0), BuildingBlock: KIFKEQ_clean_linker_1, # of connection points: 2
#     Edge 30, Type (0, 0), BuildingBlock: KIFKEQ_clean_linker_1, # of connection points: 2
#     Edge 31, Type (0, 0), BuildingBlock: KIFKEQ_clean_linker_1, # of connection points: 2
#     Edge 32, Type (0, 0), BuildingBlock: KIFKEQ_clean_linker_1, # of connection points: 2
#     Edge 33, Type (0, 0), BuildingBlock: KIFKEQ_clean_linker_1, # of connection points: 2
#     Edge 34, Type (0, 0), BuildingBlock: KIFKEQ_clean_linker_1, # of connection points: 2
#     Edge 35, Type (0, 0), BuildingBlock: KIFKEQ_clean_linker_1, # of connection points: 2
# Relax obj value: 0.059
# Max RMSD: 0.148
# Mean RMSD: 0.148
data_MOF--net-umg--node1-ICAMEG_clean_sbu_1--edge1-KIFKEQ_clean_linker_1
_symmetry_space_group_name_H-M    P1
_symmetry_Int_Tables_number       1
_symmetry_cell_setting            triclinic
loop_
_symmetry_equiv_pos_as_xyz
'x, y, z'
_cell_length_a     30.94181
_cell_length_b     30.930836
_cell_length_c     92.840995
_cell_angle_alpha  90.004574
_cell_angle_beta   90.008039
_cell_angle_gamma 120.01404
loop_
_atom_site_label
_atom_site_type_symbol
_atom_site_fract_x
_atom_site_fract_y
_atom_site_fract_z
_atom_type_partial_charge
Co0 Co 0.28904 0.62221 0.08485 0.0
Co1 Co 0.25187 0.50257 0.09657 0.0
O2 O 0.29122 0.56039 0.08435 0.0
C3 C 0.2626 0.58495 0.0552 0.0
O4 O 0.22986 0.54238 0.06106 0.0
C5 C 0.35658 0.53219 0.10202 0.0
O6 O 0.36482 0.57803 0.10295 0.0
O7 O 0.26904 0.5452 0.11402 0.0
O8 O 0.28878 0.62206 0.10645 0.0
H9 H 0.12696 0.40422 0.13512 0.0
H10 H 0.36718 0.61682 0.06769 0.0
O11 O 0.28931 0.62261 0.06319 0.0
H12 H 0.45843 0.75087 0.1032 0.0
H13 H 0.33684 0.7947 0.0676 0.0
H14 H 0.23424 0.66036 0.10195 0.0
H15 H 0.36642 0.70573 0.10245 0.0
H16 H 0.33933 0.71619 0.06774 0.0
O17 O 0.31258 0.49609 0.0997 0.0
H18 H 0.17602 0.47718 0.11945 0.0
H19 H 0.24617 0.40407 0.09989 0.0
H20 H 0.23086 0.73838 0.10227 0.0
H21 H 0.4592 0.66131 0.06798 0.0
H22 H 0.28243 0.80622 0.085 0.0
H23 H 0.50544 0.72873 0.08587 0.0
O24 O 0.21471 0.58502 0.08485 0.0
H25 H 0.28878 0.44498 0.04995 0.0
H26 H 0.15693 0.42075 0.0843 0.0
H27 H 0.13428 0.36975 0.0622 0.0
H28 H 0.20047 0.38177 0.04483 0.0
H29 H 0.30973 0.49535 0.07215 0.0
H30 H 0.19816 0.33043 0.11542 0.0
H31 H 0.13791 0.33017 0.13315 0.0
O32 O 0.19103 0.50864 0.0937 0.0
C33 C 0.28124 0.59051 0.11642 0.0
C34 C 0.15297 0.40382 0.1274 0.0
C35 C 0.19298 0.36243 0.11636 0.0
N36 N 0.21355 0.44466 0.10869 0.0
C37 C 0.18072 0.44495 0.11847 0.0
C38 C 0.22012 0.40425 0.10761 0.0
C39 C 0.15917 0.3623 0.1263 0.0
C40 C 0.38703 0.6465 0.0754 0.0
N41 N 0.36145 0.65884 0.08499 0.0
C42 C 0.43914 0.67141 0.07556 0.0
C43 C 0.46506 0.70918 0.08561 0.0
C44 C 0.43871 0.72158 0.09535 0.0
C45 C 0.3866 0.69583 0.09489 0.0
C46 C 0.31427 0.76546 0.0752 0.0
C47 C 0.25702 0.68986 0.09447 0.0
C48 C 0.31546 0.72091 0.0753 0.0
N49 N 0.28727 0.68396 0.08492 0.0
C50 C 0.25484 0.73388 0.09467 0.0
C51 C 0.28375 0.7719 0.08497 0.0
C52 C 0.18128 0.54167 0.08901 0.0
C53 C 0.25963 0.43928 0.05746 0.0
C54 C 0.18594 0.42614 0.07681 0.0
C55 C 0.1729 0.39713 0.06432 0.0
C56 C 0.21006 0.40388 0.05458 0.0
N57 N 0.23465 0.46077 0.07955 0.0
C58 C 0.2713 0.46753 0.07008 0.0
Co59 Co 0.66453 0.2869 0.41814 0.0
Co60 Co 0.74558 0.24764 0.42949 0.0
O61 O 0.72813 0.28846 0.41765 0.0
C62 C 0.67601 0.26234 0.38837 0.0
O63 O 0.68497 0.22882 0.39409 0.0
C64 C 0.82136 0.35126 0.4362 0.0
O65 O 0.78381 0.35905 0.4382 0.0
O66 O 0.71996 0.26373 0.44713 0.0
O67 O 0.66359 0.28476 0.43973 0.0
H68 H 0.71712 0.11941 0.46716 0.0
H69 H 0.74954 0.36595 0.40163 0.0
O70 O 0.6653 0.28896 0.39648 0.0
H71 H 0.70663 0.45519 0.43779 0.0
H72 H 0.54202 0.33802 0.40127 0.0
H73 H 0.57081 0.23155 0.4349 0.0
H74 H 0.65859 0.36328 0.43628 0.0
H75 H 0.6225 0.33946 0.4014 0.0
O76 O 0.81311 0.30782 0.4328 0.0
H77 H 0.69418 0.1702 0.45193 0.0
H78 H 0.8377 0.24064 0.43253 0.0
H79 H 0.48991 0.22918 0.43521 0.0
H80 H 0.79833 0.4579 0.40271 0.0
H81 H 0.47514 0.28271 0.4183 0.0
H82 H 0.77707 0.50312 0.42092 0.0
O83 O 0.62661 0.21255 0.41765 0.0
H84 H 0.84084 0.28708 0.38295 0.0
H85 H 0.73145 0.15319 0.41655 0.0
H86 H 0.75968 0.13168 0.39422 0.0
H87 H 0.81474 0.1989 0.37724 0.0
H88 H 0.81152 0.3069 0.40536 0.0
H89 H 0.86237 0.19088 0.44763 0.0
H90 H 0.80177 0.12961 0.46505 0.0
O91 O 0.67834 0.18743 0.42635 0.0
C92 C 0.687 0.27607 0.44963 0.0
C93 C 0.7438 0.14585 0.45957 0.0
C94 C 0.82534 0.18602 0.44862 0.0
N95 N 0.76442 0.20799 0.44128 0.0
C96 C 0.73096 0.17459 0.45089 0.0
C97 C 0.81121 0.21415 0.44013 0.0
C98 C 0.79132 0.15163 0.45839 0.0
C99 C 0.73972 0.38538 0.40949 0.0
N100 N 0.70107 0.35929 0.41883 0.0
C101 C 0.76763 0.43744 0.41009 0.0
C102 C 0.75573 0.46279 0.42033 0.0
C103 C 0.71622 0.43592 0.4298 0.0
C104 C 0.6892 0.38388 0.4289 0.0
C105 C 0.54804 0.3146 0.4087 0.0
C106 C 0.56474 0.25517 0.42757 0.0
C107 C 0.59348 0.31519 0.40881 0.0
N108 N 0.60141 0.28591 0.41823 0.0
C109 C 0.51882 0.25356 0.42777 0.0
C110 C 0.51054 0.28357 0.41827 0.0
C111 C 0.63585 0.17849 0.42164 0.0
C112 C 0.81699 0.25748 0.39029 0.0
C113 C 0.75544 0.18265 0.40922 0.0
C114 C 0.77135 0.17025 0.3966 0.0
C115 C 0.80227 0.20799 0.38708 0.0
N116 N 0.77005 0.23128 0.41229 0.0
C117 C 0.80045 0.2685 0.40303 0.0
Co118 Co 0.3771 0.66254 0.75114 0.0
Co119 Co 0.49364 0.74604 0.76465 0.0
O120 O 0.43796 0.72767 0.7515 0.0
C121 C 0.41772 0.6798 0.72185 0.0
O122 O 0.46052 0.6922 0.72803 0.0
C123 C 0.46433 0.82198 0.76882 0.0
O124 O 0.4182 0.78475 0.7694 0.0
O125 O 0.44781 0.72151 0.78134 0.0
O126 O 0.37503 0.65917 0.77281 0.0
H127 H 0.58356 0.71969 0.80576 0.0
H128 H 0.38102 0.74691 0.73483 0.0
O129 O 0.37859 0.66508 0.72949 0.0
H130 H 0.24342 0.69573 0.7696 0.0
H131 H 0.20754 0.53668 0.73223 0.0
H132 H 0.34034 0.56735 0.76703 0.0
H133 H 0.29098 0.65133 0.76851 0.0
H134 H 0.28446 0.61892 0.73341 0.0
O135 O 0.50029 0.8135 0.7671 0.0
H136 H 0.51372 0.69602 0.78884 0.0
H137 H 0.59212 0.83831 0.76882 0.0
H138 H 0.26387 0.48468 0.7663 0.0
H139 H 0.33415 0.79206 0.73548 0.0
H140 H 0.19681 0.46896 0.7488 0.0
H141 H 0.26492 0.76663 0.75299 0.0
O142 O 0.41629 0.62772 0.75077 0.0
H143 H 0.56281 0.84252 0.71876 0.0
H144 H 0.57646 0.73114 0.7542 0.0
H145 H 0.63254 0.76011 0.73313 0.0
H146 H 0.62597 0.8163 0.71525 0.0
H147 H 0.507 0.8121 0.73987 0.0
H148 H 0.66266 0.86372 0.78559 0.0
H149 H 0.65871 0.80409 0.80418 0.0
O150 O 0.48763 0.67867 0.76253 0.0
C151 C 0.40344 0.6855 0.78312 0.0
C152 C 0.58582 0.74592 0.79766 0.0
C153 C 0.63019 0.82678 0.78636 0.0
N154 N 0.54913 0.76553 0.77776 0.0
C155 C 0.54648 0.73265 0.78803 0.0
C156 C 0.59012 0.81222 0.7769 0.0
C157 C 0.62795 0.79331 0.79678 0.0
C158 C 0.35057 0.73525 0.74237 0.0
N159 N 0.33858 0.69636 0.75156 0.0
C160 C 0.32431 0.7611 0.74273 0.0
C161 C 0.28553 0.74688 0.75258 0.0
C162 C 0.27348 0.70713 0.76191 0.0
C163 C 0.30061 0.68219 0.76126 0.0
C164 C 0.23643 0.54312 0.73992 0.0
C165 C 0.31115 0.56087 0.75946 0.0
C166 C 0.28008 0.58956 0.74063 0.0
N167 N 0.31658 0.59801 0.75038 0.0
C168 C 0.26802 0.51395 0.75906 0.0
C169 C 0.23043 0.50514 0.74923 0.0
C170 C 0.45765 0.63723 0.75645 0.0
C171 C 0.56616 0.8182 0.72651 0.0
C172 C 0.57323 0.75542 0.74643 0.0
C173 C 0.60519 0.77182 0.73455 0.0
C174 C 0.60152 0.80339 0.72453 0.0
N175 N 0.53865 0.77012 0.74829 0.0
C176 C 0.53481 0.80104 0.73851 0.0
Co177 Co 0.71281 0.37702 0.08491 0.0
Co178 Co 0.75009 0.49673 0.09659 0.0
O179 O 0.71064 0.43884 0.0844 0.0
C180 C 0.73889 0.41405 0.05524 0.0
O181 O 0.77177 0.45664 0.06106 0.0
C182 C 0.64544 0.46725 0.10206 0.0
O183 O 0.63718 0.42141 0.10302 0.0
O184 O 0.73294 0.4542 0.11404 0.0
O185 O 0.71328 0.37732 0.10652 0.0
H186 H 0.87517 0.59522 0.1351 0.0
H187 H 0.63449 0.38229 0.0678 0.0
O188 O 0.71229 0.37645 0.06325 0.0
H189 H 0.5436 0.24855 0.10341 0.0
H190 H 0.6648 0.20439 0.06773 0.0
H191 H 0.76777 0.33897 0.10199 0.0
H192 H 0.63561 0.29365 0.10259 0.0
H193 H 0.66231 0.2829 0.06785 0.0
O194 O 0.68944 0.50331 0.09971 0.0
H195 H 0.826 0.52218 0.11946 0.0
H196 H 0.75593 0.59531 0.09986 0.0
H197 H 0.77114 0.26095 0.10232 0.0
H198 H 0.54249 0.33785 0.06817 0.0
H199 H 0.71938 0.19299 0.0851 0.0
H200 H 0.49642 0.27057 0.08611 0.0
O201 O 0.78714 0.41419 0.08486 0.0
H202 H 0.71311 0.5541 0.04994 0.0
H203 H 0.84502 0.57843 0.08429 0.0
H204 H 0.86764 0.62929 0.06216 0.0
H205 H 0.80141 0.61723 0.0448 0.0
H206 H 0.69218 0.50387 0.07216 0.0
H207 H 0.80405 0.66903 0.11536 0.0
H208 H 0.86433 0.66933 0.1331 0.0
O209 O 0.81088 0.49058 0.09372 0.0
C210 C 0.7208 0.40892 0.11647 0.0
C211 C 0.84916 0.59561 0.12738 0.0
C212 C 0.80919 0.63701 0.11631 0.0
N213 N 0.7885 0.55471 0.10868 0.0
C214 C 0.82134 0.55444 0.11846 0.0
C215 C 0.78199 0.59515 0.10758 0.0
C216 C 0.84301 0.63716 0.12626 0.0
C217 C 0.61472 0.35268 0.07553 0.0
N218 N 0.6404 0.3404 0.08511 0.0
C219 C 0.56262 0.32779 0.07573 0.0
C220 C 0.5368 0.29011 0.08581 0.0
C221 C 0.56325 0.27776 0.09554 0.0
C222 C 0.61535 0.3035 0.09504 0.0
C223 C 0.68745 0.23368 0.07531 0.0
C224 C 0.74491 0.30942 0.09453 0.0
C225 C 0.68627 0.27824 0.0754 0.0
N226 N 0.71457 0.31526 0.085 0.0
C227 C 0.74708 0.2654 0.09473 0.0
C228 C 0.71807 0.22731 0.08506 0.0
C229 C 0.82059 0.45754 0.08902 0.0
C230 C 0.74227 0.55983 0.05744 0.0
C231 C 0.816 0.57301 0.07679 0.0
C232 C 0.82902 0.60195 0.06429 0.0
C233 C 0.79184 0.59518 0.05456 0.0
N234 N 0.76729 0.53843 0.07955 0.0
C235 C 0.73062 0.53165 0.07007 0.0
Co236 Co 0.32977 0.71109 0.41818 0.0
Co237 Co 0.24767 0.7482 0.43028 0.0
O238 O 0.26526 0.70792 0.41818 0.0
C239 C 0.31362 0.73356 0.38867 0.0
O240 O 0.30138 0.76436 0.39465 0.0
C241 C 0.17337 0.64396 0.43708 0.0
O242 O 0.21128 0.63656 0.43882 0.0
O243 O 0.27523 0.73297 0.44762 0.0
O244 O 0.33209 0.71327 0.43978 0.0
H245 H 0.27691 0.87614 0.46813 0.0
H246 H 0.24458 0.63089 0.40203 0.0
O247 O 0.32796 0.70921 0.3965 0.0
H248 H 0.29277 0.54398 0.43752 0.0
H249 H 0.4541 0.66385 0.40027 0.0
H250 H 0.42433 0.76828 0.43445 0.0
H251 H 0.339 0.63592 0.43598 0.0
H252 H 0.37261 0.66022 0.40098 0.0
O253 O 0.18102 0.68736 0.43392 0.0
H254 H 0.29984 0.82616 0.45254 0.0
H255 H 0.1547 0.75321 0.43414 0.0
H256 H 0.50625 0.77283 0.43419 0.0
H257 H 0.19753 0.53888 0.40314 0.0
H258 H 0.52152 0.72034 0.41701 0.0
H259 H 0.22147 0.49484 0.42102 0.0
O260 O 0.36615 0.78533 0.41761 0.0
H261 H 0.14574 0.70617 0.38492 0.0
H262 H 0.25924 0.84182 0.41747 0.0
H263 H 0.22696 0.86199 0.39573 0.0
H264 H 0.16967 0.79386 0.3793 0.0
H265 H 0.17945 0.68774 0.40666 0.0
H266 H 0.13004 0.80214 0.44961 0.0
H267 H 0.19145 0.86426 0.46671 0.0
O268 O 0.31408 0.80923 0.42678 0.0
C269 C 0.30891 0.72144 0.44986 0.0
C270 C 0.24987 0.84932 0.46068 0.0
C271 C 0.16742 0.80773 0.4503 0.0
N272 N 0.22878 0.78717 0.44235 0.0
C273 C 0.26269 0.82103 0.4518 0.0
C274 C 0.18156 0.78008 0.44159 0.0
C275 C 0.2019 0.84259 0.45989 0.0
C276 C 0.25555 0.61197 0.40974 0.0
N277 N 0.29468 0.63872 0.41887 0.0
C278 C 0.22863 0.55988 0.41036 0.0
C279 C 0.24203 0.53519 0.42041 0.0
C280 C 0.28202 0.56274 0.42967 0.0
C281 C 0.30801 0.61479 0.42877 0.0
C282 C 0.44786 0.68683 0.40783 0.0
C283 C 0.43062 0.7451 0.42701 0.0
C284 C 0.40185 0.685 0.40825 0.0
N285 N 0.39366 0.71371 0.41782 0.0
C286 C 0.47711 0.74794 0.42688 0.0
C287 C 0.48567 0.71852 0.41723 0.0
C288 C 0.35641 0.81889 0.42174 0.0
C289 C 0.17051 0.73616 0.39203 0.0
C290 C 0.23449 0.812 0.41034 0.0
C291 C 0.21622 0.82363 0.39807 0.0
C292 C 0.18403 0.78538 0.38887 0.0
N293 N 0.22103 0.76362 0.41337 0.0
C294 C 0.18955 0.72593 0.40439 0.0
Co295 Co 0.62287 0.33736 0.75125 0.0
Co296 Co 0.50623 0.2539 0.76469 0.0
O297 O 0.56197 0.27226 0.75157 0.0
C298 C 0.58244 0.32018 0.72193 0.0
O299 O 0.53961 0.30782 0.72808 0.0
C300 C 0.53542 0.17789 0.76887 0.0
O301 O 0.58156 0.21509 0.76948 0.0
O302 O 0.55198 0.27834 0.78141 0.0
O303 O 0.62482 0.34069 0.77292 0.0
H304 H 0.41621 0.28027 0.80576 0.0
H305 H 0.61896 0.25298 0.73494 0.0
O306 O 0.62151 0.33486 0.7296 0.0
H307 H 0.75635 0.304 0.76979 0.0
H308 H 0.79257 0.46316 0.73243 0.0
H309 H 0.6596 0.43253 0.76715 0.0
H310 H 0.70885 0.34847 0.76867 0.0
H311 H 0.71561 0.38095 0.73358 0.0
O312 O 0.49949 0.1864 0.76713 0.0
H313 H 0.48611 0.30392 0.78888 0.0
H314 H 0.40769 0.16168 0.76881 0.0
H315 H 0.73611 0.51517 0.76647 0.0
H316 H 0.66576 0.20777 0.73562 0.0
H317 H 0.80326 0.53087 0.74901 0.0
H318 H 0.73489 0.23312 0.75318 0.0
O319 O 0.58372 0.37223 0.75085 0.0
H320 H 0.43719 0.15758 0.71876 0.0
H321 H 0.42353 0.26894 0.7542 0.0
H322 H 0.36754 0.24008 0.73311 0.0
H323 H 0.37411 0.18389 0.71523 0.0
H324 H 0.49291 0.18789 0.7399 0.0
H325 H 0.33709 0.1363 0.78555 0.0
H326 H 0.34101 0.1959 0.80415 0.0
O327 O 0.51233 0.32131 0.76258 0.0
C328 C 0.59635 0.31433 0.78321 0.0
C329 C 0.41396 0.25405 0.79766 0.0
C330 C 0.36958 0.17322 0.78633 0.0
N331 N 0.45069 0.23443 0.77777 0.0
C332 C 0.45333 0.2673 0.78804 0.0
C333 C 0.40968 0.18777 0.7769 0.0
C334 C 0.3718 0.20668 0.79676 0.0
C335 C 0.64937 0.26461 0.7425 0.0
N336 N 0.66133 0.30349 0.7517 0.0
C337 C 0.67559 0.23871 0.74288 0.0
C338 C 0.71431 0.2529 0.75275 0.0
C339 C 0.72633 0.29264 0.76209 0.0
C340 C 0.69924 0.31761 0.76142 0.0
C341 C 0.76364 0.45673 0.74011 0.0
C342 C 0.68883 0.439 0.7596 0.0
C343 C 0.71997 0.4103 0.74079 0.0
N344 N 0.68343 0.40187 0.75052 0.0
C345 C 0.73198 0.4859 0.75923 0.0
C346 C 0.76962 0.4947 0.74942 0.0
C347 C 0.54236 0.36275 0.75651 0.0
C348 C 0.43383 0.18189 0.72651 0.0
C349 C 0.42676 0.24467 0.74644 0.0
C350 C 0.39485 0.22833 0.73454 0.0
C351 C 0.39852 0.19675 0.72452 0.0
N352 N 0.4613 0.22992 0.74831 0.0
C353 C 0.46514 0.19899 0.73853 0.0
Co354 Co 0.38018 0.71191 0.58499 0.0
Co355 Co 0.49958 0.75001 0.57287 0.0
O356 O 0.44185 0.70935 0.58497 0.0
C357 C 0.41886 0.73461 0.6145 0.0
O358 O 0.46181 0.76571 0.60852 0.0
C359 C 0.47043 0.64603 0.56593 0.0
O360 O 0.42502 0.63835 0.56422 0.0
O361 O 0.4567 0.73455 0.55553 0.0
O362 O 0.37994 0.71404 0.56339 0.0
H363 H 0.59752 0.87846 0.53507 0.0
H364 H 0.38605 0.63216 0.60112 0.0
O365 O 0.38021 0.71004 0.60667 0.0
H366 H 0.25098 0.54432 0.56567 0.0
H367 H 0.20829 0.6632 0.60295 0.0
H368 H 0.34197 0.76839 0.56874 0.0
H369 H 0.29604 0.63625 0.5672 0.0
H370 H 0.28658 0.66038 0.60222 0.0
O371 O 0.50598 0.68949 0.56916 0.0
H372 H 0.52475 0.82797 0.55065 0.0
H373 H 0.59796 0.75592 0.56896 0.0
H374 H 0.26416 0.77212 0.56902 0.0
H375 H 0.34175 0.54017 0.60002 0.0
H376 H 0.19666 0.71924 0.58622 0.0
H377 H 0.27379 0.49566 0.58216 0.0
O378 O 0.41747 0.78616 0.58556 0.0
H379 H 0.56018 0.70848 0.61816 0.0
H380 H 0.58118 0.84389 0.58571 0.0
H381 H 0.63369 0.86433 0.60745 0.0
H382 H 0.62343 0.79632 0.62383 0.0
H383 H 0.50797 0.68978 0.59643 0.0
H384 H 0.6714 0.80536 0.5535 0.0
H385 H 0.67153 0.8673 0.53644 0.0
O386 O 0.49362 0.81072 0.57641 0.0
C387 C 0.41135 0.72257 0.5533 0.0
C388 C 0.59799 0.85173 0.54249 0.0
C389 C 0.63942 0.81065 0.55282 0.0
N390 N 0.55733 0.7894 0.56079 0.0
C391 C 0.55696 0.82315 0.55138 0.0
C392 C 0.59771 0.7827 0.56153 0.0
C393 C 0.63948 0.8454 0.54326 0.0
C394 C 0.35617 0.61304 0.59342 0.0
N395 N 0.34344 0.63953 0.5843 0.0
C396 C 0.33137 0.56095 0.5928 0.0
C397 C 0.29329 0.536 0.58277 0.0
C398 C 0.28049 0.56329 0.57351 0.0
C399 C 0.30618 0.61534 0.57441 0.0
C400 C 0.23739 0.68634 0.59539 0.0
C401 C 0.31262 0.74504 0.57619 0.0
C402 C 0.28181 0.68497 0.59495 0.0
N403 N 0.31858 0.7139 0.58537 0.0
C404 C 0.26872 0.74742 0.57633 0.0
C405 C 0.23088 0.71778 0.58599 0.0
C406 C 0.46066 0.82 0.58144 0.0
C407 C 0.56515 0.73842 0.61108 0.0
C408 C 0.57636 0.81412 0.59282 0.0
C409 C 0.60629 0.8259 0.60509 0.0
C410 C 0.60056 0.78772 0.61427 0.0
N411 N 0.54172 0.76566 0.58976 0.0
C412 C 0.53583 0.72803 0.59872 0.0
Co413 Co 0.66328 0.37569 0.91893 0.0
Co414 Co 0.74655 0.49486 0.90712 0.0
O415 O 0.72753 0.43724 0.91947 0.0
C416 C 0.67431 0.41282 0.94857 0.0
O417 O 0.68373 0.45526 0.94271 0.0
C418 C 0.82231 0.46588 0.90235 0.0
O419 O 0.78495 0.41994 0.9013 0.0
O420 O 0.72277 0.45186 0.88974 0.0
O421 O 0.66288 0.37607 0.8973 0.0
H422 H 0.72199 0.59196 0.86776 0.0
H423 H 0.74639 0.37993 0.93605 0.0
O424 O 0.66338 0.37515 0.94059 0.0
H425 H 0.7028 0.24658 0.90023 0.0
H426 H 0.53801 0.20323 0.93604 0.0
H427 H 0.56996 0.33853 0.90204 0.0
H428 H 0.65658 0.29238 0.90111 0.0
H429 H 0.61933 0.28139 0.93589 0.0
O430 O 0.81405 0.50179 0.90455 0.0
H431 H 0.69744 0.51933 0.88363 0.0
H432 H 0.83917 0.59369 0.90408 0.0
H433 H 0.48824 0.26087 0.90174 0.0
H434 H 0.79326 0.33478 0.93563 0.0
H435 H 0.47188 0.19255 0.91884 0.0
H436 H 0.77166 0.26769 0.91759 0.0
O437 O 0.6267 0.41329 0.91901 0.0
H438 H 0.83746 0.55357 0.95425 0.0
H439 H 0.73197 0.57654 0.91878 0.0
H440 H 0.75839 0.62783 0.94085 0.0
H441 H 0.81148 0.61644 0.95877 0.0
H442 H 0.80997 0.50289 0.93208 0.0
H443 H 0.86544 0.667 0.88836 0.0
H444 H 0.80655 0.66648 0.87008 0.0
O445 O 0.67927 0.48844 0.90943 0.0
C446 C 0.68859 0.40696 0.88736 0.0
C447 C 0.74792 0.59271 0.87572 0.0
C448 C 0.82846 0.6348 0.88727 0.0
N449 N 0.76668 0.55251 0.89484 0.0
C450 C 0.73417 0.55177 0.88476 0.0
C451 C 0.81342 0.59317 0.89612 0.0
C452 C 0.79539 0.63448 0.87701 0.0
C453 C 0.73637 0.35039 0.92827 0.0
N454 N 0.69859 0.33861 0.91867 0.0
C455 C 0.7632 0.32511 0.92805 0.0
C456 C 0.75113 0.28754 0.9179 0.0
C457 C 0.71252 0.2757 0.90815 0.0
C458 C 0.68655 0.30183 0.90868 0.0
C459 C 0.54474 0.23267 0.92852 0.0
C460 C 0.56322 0.3088 0.90943 0.0
C461 C 0.59067 0.27702 0.9284 0.0
N462 N 0.5995 0.31421 0.91886 0.0
C463 C 0.51683 0.26499 0.90925 0.0
C464 C 0.50765 0.2267 0.91886 0.0
C465 C 0.63665 0.45614 0.91439 0.0
C466 C 0.81447 0.55899 0.9465 0.0
C467 C 0.75511 0.57141 0.92652 0.0
C468 C 0.77 0.60059 0.93899 0.0
C469 C 0.79981 0.59421 0.94904 0.0
N470 N 0.76965 0.53695 0.92411 0.0
C471 C 0.79898 0.53056 0.93389 0.0
Co472 Co 0.28783 0.66732 0.25179 0.0
Co473 Co 0.25199 0.75019 0.23938 0.0
O474 O 0.29114 0.73199 0.25181 0.0
C475 C 0.26307 0.6824 0.28116 0.0
O476 O 0.23305 0.69534 0.27501 0.0
C477 C 0.35705 0.82419 0.23365 0.0
O478 O 0.36501 0.78635 0.23308 0.0
O479 O 0.26821 0.72282 0.22221 0.0
O480 O 0.28772 0.66597 0.23018 0.0
H481 H 0.12662 0.72182 0.20079 0.0
H482 H 0.36659 0.75133 0.26866 0.0
O483 O 0.28772 0.66808 0.27347 0.0
H484 H 0.45655 0.70463 0.23383 0.0
H485 H 0.33288 0.54171 0.27005 0.0
H486 H 0.23194 0.57351 0.2351 0.0
H487 H 0.36452 0.65879 0.23456 0.0
H488 H 0.33685 0.62338 0.26938 0.0
O489 O 0.31315 0.81672 0.23582 0.0
H490 H 0.17536 0.69845 0.21677 0.0
H491 H 0.2477 0.8435 0.23526 0.0
H492 H 0.22709 0.49143 0.23531 0.0
H493 H 0.45864 0.79791 0.26838 0.0
H494 H 0.27783 0.47513 0.25289 0.0
H495 H 0.50422 0.77473 0.25084 0.0
O496 O 0.2136 0.63111 0.2518 0.0
H497 H 0.29176 0.85125 0.28485 0.0
H498 H 0.15789 0.73922 0.25161 0.0
H499 H 0.1367 0.77129 0.27321 0.0
H500 H 0.20393 0.82782 0.28998 0.0
H501 H 0.31122 0.81783 0.26323 0.0
H502 H 0.20003 0.8686 0.2194 0.0
H503 H 0.13883 0.80746 0.20206 0.0
O504 O 0.19057 0.68393 0.24268 0.0
C505 C 0.28018 0.68943 0.22005 0.0
C506 C 0.15304 0.74874 0.20834 0.0
C507 C 0.19429 0.83115 0.21878 0.0
N508 N 0.21396 0.76944 0.22701 0.0
C509 C 0.18061 0.73567 0.21745 0.0
C510 C 0.22123 0.81676 0.2277 0.0
C511 C 0.15995 0.79681 0.20905 0.0
C512 C 0.38616 0.74066 0.26111 0.0
N513 N 0.36022 0.7022 0.25169 0.0
C514 C 0.43828 0.76731 0.26096 0.0
C515 C 0.46384 0.75435 0.25109 0.0
C516 C 0.43711 0.71504 0.24154 0.0
C517 C 0.38501 0.68928 0.24198 0.0
C518 C 0.31067 0.54839 0.26232 0.0
C519 C 0.25436 0.56678 0.24271 0.0
C520 C 0.3127 0.59451 0.26192 0.0
N521 N 0.28496 0.60328 0.25213 0.0
C522 C 0.25135 0.52019 0.24281 0.0
C523 C 0.27979 0.51106 0.25269 0.0
C524 C 0.18043 0.64129 0.24759 0.0
C525 C 0.26217 0.82682 0.27759 0.0
C526 C 0.18733 0.76368 0.25889 0.0
C527 C 0.17512 0.78182 0.27108 0.0
C528 C 0.21287 0.81358 0.28048 0.0
N529 N 0.23579 0.77687 0.25612 0.0
C530 C 0.27299 0.80795 0.2653 0.0
Co531 Co 0.62015 0.28735 0.58509 0.0
Co532 Co 0.50069 0.2494 0.57303 0.0
O533 O 0.55855 0.29006 0.58509 0.0
C534 C 0.58164 0.26488 0.61461 0.0
O535 O 0.53867 0.23375 0.60864 0.0
C536 C 0.52996 0.35338 0.56606 0.0
O537 O 0.57534 0.36098 0.56432 0.0
O538 O 0.54341 0.26466 0.55568 0.0
O539 O 0.62022 0.28503 0.56348 0.0
H540 H 0.4023 0.12083 0.53529 0.0
H541 H 0.61463 0.36732 0.6012 0.0
O542 O 0.62027 0.28937 0.60676 0.0
H543 H 0.7494 0.45467 0.56564 0.0
H544 H 0.79208 0.33586 0.60297 0.0
H545 H 0.65807 0.2306 0.56884 0.0
H546 H 0.70419 0.36275 0.56723 0.0
H547 H 0.71388 0.33884 0.60227 0.0
O548 O 0.4944 0.30997 0.56931 0.0
H549 H 0.4752 0.17128 0.55085 0.0
H550 H 0.40237 0.24368 0.56918 0.0
H551 H 0.73579 0.2267 0.5691 0.0
H552 H 0.65909 0.45931 0.60004 0.0
H553 H 0.80346 0.2796 0.58626 0.0
H554 H 0.72691 0.50358 0.58214 0.0
O555 O 0.58274 0.21309 0.58568 0.0
H556 H 0.44052 0.29142 0.61833 0.0
H557 H 0.41909 0.15568 0.58594 0.0
H558 H 0.3667 0.13549 0.60769 0.0
H559 H 0.37718 0.20366 0.62404 0.0
H560 H 0.49262 0.30988 0.59658 0.0
H561 H 0.3288 0.19427 0.55375 0.0
H562 H 0.32841 0.13219 0.53669 0.0
O563 O 0.50654 0.18863 0.57659 0.0
C564 C 0.58869 0.27649 0.55341 0.0
C565 C 0.40194 0.14763 0.54272 0.0
C566 C 0.36072 0.1889 0.55306 0.0
N567 N 0.44282 0.21002 0.56099 0.0
C568 C 0.44304 0.17618 0.55158 0.0
C569 C 0.40251 0.21682 0.56175 0.0
C570 C 0.36052 0.15407 0.5435 0.0
C571 C 0.64445 0.38634 0.59348 0.0
N572 N 0.65701 0.35972 0.58436 0.0
C573 C 0.66934 0.43842 0.59283 0.0
C574 C 0.70734 0.46323 0.58277 0.0
C575 C 0.71996 0.43581 0.57351 0.0
C576 C 0.69419 0.38377 0.57444 0.0
C577 C 0.76291 0.3127 0.59542 0.0
C578 C 0.6875 0.25396 0.57627 0.0
C579 C 0.71854 0.31416 0.595 0.0
N580 N 0.68168 0.28522 0.58544 0.0
C581 C 0.73135 0.25148 0.5764 0.0
C582 C 0.76928 0.28114 0.58604 0.0
C583 C 0.53949 0.17929 0.58159 0.0
C584 C 0.43547 0.26141 0.61126 0.0
C585 C 0.42401 0.18553 0.59303 0.0
C586 C 0.39415 0.17388 0.60531 0.0
C587 C 0.4 0.21215 0.61447 0.0
N588 N 0.4587 0.23394 0.58995 0.0
C589 C 0.46472 0.27166 0.59889 0.0
Co590 Co 0.33573 0.62331 0.91877 0.0
Co591 Co 0.25227 0.50427 0.9069 0.0
O592 O 0.27138 0.56185 0.91927 0.0
C593 C 0.32457 0.58596 0.94839 0.0
O594 O 0.31492 0.54349 0.94249 0.0
C595 C 0.17674 0.53358 0.90212 0.0
O596 O 0.21417 0.57949 0.90111 0.0
O597 O 0.27626 0.54735 0.88954 0.0
O598 O 0.33619 0.62306 0.89715 0.0
H599 H 0.27662 0.4071 0.8675 0.0
H600 H 0.2527 0.61923 0.93589 0.0
O601 O 0.3356 0.62371 0.94043 0.0
H602 H 0.29679 0.75291 0.90016 0.0
H603 H 0.46136 0.79551 0.936 0.0
H604 H 0.42906 0.6603 0.90192 0.0
H605 H 0.34276 0.70685 0.90101 0.0
H606 H 0.37989 0.71751 0.93579 0.0
O607 O 0.18488 0.49759 0.90429 0.0
H608 H 0.30133 0.47968 0.88342 0.0
H609 H 0.15946 0.40562 0.90378 0.0
H610 H 0.51092 0.73779 0.90168 0.0
H611 H 0.20608 0.66463 0.9355 0.0
H612 H 0.52747 0.80606 0.91881 0.0
H613 H 0.22793 0.73189 0.91751 0.0
O614 O 0.37211 0.58552 0.91884 0.0
H615 H 0.16097 0.44549 0.95396 0.0
H616 H 0.26643 0.4223 0.91853 0.0
H617 H 0.23968 0.37085 0.94056 0.0
H618 H 0.1866 0.38234 0.95846 0.0
H619 H 0.18878 0.49632 0.93182 0.0
H620 H 0.13303 0.33238 0.88801 0.0
H621 H 0.19191 0.33277 0.86976 0.0
O622 O 0.31944 0.51042 0.90923 0.0
C623 C 0.3105 0.59224 0.88719 0.0
C624 C 0.25069 0.40641 0.87545 0.0
C625 C 0.17008 0.36449 0.88695 0.0
N626 N 0.23202 0.44665 0.89459 0.0
C627 C 0.26453 0.44732 0.88452 0.0
C628 C 0.18521 0.40609 0.89583 0.0
C629 C 0.20314 0.36474 0.87671 0.0
C630 C 0.26283 0.64884 0.92813 0.0
N631 N 0.3006 0.66057 0.91854 0.0
C632 C 0.23614 0.67426 0.92792 0.0
C633 C 0.24836 0.71193 0.91781 0.0
C634 C 0.28696 0.72371 0.90807 0.0
C635 C 0.31279 0.69744 0.90858 0.0
C636 C 0.45455 0.76609 0.92846 0.0
C637 C 0.43588 0.69001 0.90932 0.0
C638 C 0.40854 0.72184 0.9283 0.0
N639 N 0.39961 0.68467 0.91875 0.0
C640 C 0.48235 0.73372 0.90918 0.0
C641 C 0.49162 0.77199 0.91881 0.0
C642 C 0.36207 0.54264 0.91422 0.0
C643 C 0.18395 0.44002 0.94621 0.0
C644 C 0.24329 0.42748 0.92627 0.0
C645 C 0.22822 0.3982 0.93871 0.0
C646 C 0.19841 0.40465 0.94875 0.0
N647 N 0.22895 0.46209 0.92386 0.0
C648 C 0.19963 0.46854 0.93363 0.0
Co649 Co 0.71185 0.33617 0.25199 0.0
Co650 Co 0.74982 0.25425 0.24034 0.0
O651 O 0.71013 0.27238 0.25252 0.0
C652 C 0.73848 0.32576 0.28164 0.0
O653 O 0.77141 0.31624 0.27578 0.0
C654 C 0.64533 0.1785 0.23482 0.0
O655 O 0.63675 0.21588 0.23389 0.0
O656 O 0.73247 0.27942 0.22288 0.0
O657 O 0.71216 0.33619 0.23037 0.0
H658 H 0.87512 0.28162 0.20185 0.0
H659 H 0.63402 0.25237 0.26916 0.0
O660 O 0.71155 0.33639 0.27365 0.0
H661 H 0.54216 0.29397 0.23356 0.0
H662 H 0.66285 0.46002 0.26915 0.0
H663 H 0.76614 0.42915 0.23485 0.0
H664 H 0.63416 0.34151 0.23433 0.0
H665 H 0.66099 0.37932 0.26905 0.0
O666 O 0.68941 0.18677 0.23719 0.0
H667 H 0.82565 0.30508 0.21748 0.0
H668 H 0.7563 0.16186 0.23709 0.0
H669 H 0.76889 0.51025 0.23449 0.0
H670 H 0.54203 0.20417 0.26883 0.0
H671 H 0.71696 0.52607 0.25173 0.0
H672 H 0.49548 0.22476 0.2509 0.0
O673 O 0.78619 0.37383 0.25198 0.0
H674 H 0.71324 0.15993 0.28698 0.0
H675 H 0.84495 0.26815 0.25267 0.0
H676 H 0.86779 0.24015 0.2748 0.0
H677 H 0.80166 0.18568 0.29215 0.0
H678 H 0.6921 0.189 0.26475 0.0
H679 H 0.80473 0.13668 0.22159 0.0
H680 H 0.86479 0.19687 0.20385 0.0
O681 O 0.81036 0.32143 0.24321 0.0
C682 C 0.71998 0.31229 0.22043 0.0
C683 C 0.84921 0.25513 0.20957 0.0
C684 C 0.80964 0.17375 0.22064 0.0
N685 N 0.78849 0.23502 0.22826 0.0
C686 C 0.82122 0.26825 0.21848 0.0
C687 C 0.78226 0.18817 0.22936 0.0
C688 C 0.84335 0.20755 0.21069 0.0
C689 C 0.61404 0.26194 0.26143 0.0
N690 N 0.63944 0.2999 0.25183 0.0
C691 C 0.56194 0.23436 0.26125 0.0
C692 C 0.53585 0.24588 0.25117 0.0
C693 C 0.56202 0.28468 0.24143 0.0
C694 C 0.61412 0.3114 0.2419 0.0
C695 C 0.68557 0.45353 0.26156 0.0
C696 C 0.74321 0.43567 0.24232 0.0
C697 C 0.68474 0.40797 0.26148 0.0
N698 N 0.71313 0.39945 0.25188 0.0
C699 C 0.74503 0.4817 0.24209 0.0
C700 C 0.71592 0.49057 0.25178 0.0
C701 C 0.81982 0.36418 0.24785 0.0
C702 C 0.74237 0.18352 0.27948 0.0
C703 C 0.81597 0.2444 0.26015 0.0
C704 C 0.82912 0.22863 0.27266 0.0
C705 C 0.79199 0.19804 0.28239 0.0
N706 N 0.76721 0.22997 0.25738 0.0
C707 C 0.7306 0.19991 0.26685 0.0
H708 H 0.30298 0.5129 0.96821 0.0
H709 H 0.3323 0.66446 0.96421 0.0
H710 H 0.28898 0.51482 0.99389 0.0
H711 H 0.31698 0.66591 0.98997 0.0
H712 H 0.33331 0.66377 0.03949 0.0
H713 H 0.35017 0.66572 0.01372 0.0
H714 H 0.22718 0.51465 0.00958 0.0
H715 H 0.21117 0.51223 0.03527 0.0
C716 C 0.30653 0.54671 0.97281 0.0
C717 C 0.31875 0.58853 0.96414 0.0
C718 C 0.29807 0.54766 0.98754 0.0
C719 C 0.30135 0.59035 0.99399 0.0
C720 C 0.31452 0.63257 0.98537 0.0
C721 C 0.32314 0.63168 0.9706 0.0
C722 C 0.30972 0.63109 0.03305 0.0
C723 C 0.27098 0.5878 0.03945 0.0
C724 C 0.31928 0.63228 0.01827 0.0
C725 C 0.29029 0.59021 0.00959 0.0
C726 C 0.25088 0.54738 0.01598 0.0
C727 C 0.24143 0.54614 0.03072 0.0
H728 H 0.69762 0.21153 0.36834 0.0
H729 H 0.66877 0.33393 0.37281 0.0
H730 H 0.71185 0.22831 0.34271 0.0
H731 H 0.68427 0.35153 0.34707 0.0
H732 H 0.66779 0.33373 0.29742 0.0
H733 H 0.65098 0.31856 0.32319 0.0
H734 H 0.77403 0.29063 0.32721 0.0
H735 H 0.79003 0.30452 0.30152 0.0
C736 C 0.69423 0.24203 0.36386 0.0
C737 C 0.68208 0.27141 0.37264 0.0
C738 C 0.70282 0.25192 0.34915 0.0
C739 C 0.69972 0.2916 0.34284 0.0
C740 C 0.68661 0.32046 0.35157 0.0
C741 C 0.67789 0.31048 0.36632 0.0
C742 C 0.69141 0.32463 0.30384 0.0
C743 C 0.73016 0.32019 0.2974 0.0
C744 C 0.68188 0.31611 0.31862 0.0
C745 C 0.71088 0.30295 0.32725 0.0
C746 C 0.75032 0.29971 0.32084 0.0
C747 C 0.75976 0.30809 0.3061 0.0
H748 H 0.4933 0.74576 0.7049 0.0
H749 H 0.33842 0.63029 0.70352 0.0
H750 H 0.49163 0.75989 0.67931 0.0
H751 H 0.3373 0.6415 0.67751 0.0
H752 H 0.33868 0.70288 0.63261 0.0
H753 H 0.33705 0.69014 0.65862 0.0
H754 H 0.49219 0.72883 0.65719 0.0
H755 H 0.4943 0.74503 0.63162 0.0
C756 C 0.45903 0.72277 0.69903 0.0
C757 C 0.4161 0.68674 0.70617 0.0
C758 C 0.45807 0.73054 0.68426 0.0
C759 C 0.4145 0.70142 0.67612 0.0
C760 C 0.3714 0.66523 0.68335 0.0
C761 C 0.37206 0.6584 0.69825 0.0
C762 C 0.37236 0.70889 0.63796 0.0
C763 C 0.41675 0.7255 0.63015 0.0
C764 C 0.37143 0.7012 0.65286 0.0
C765 C 0.41462 0.70879 0.6602 0.0
C766 C 0.45853 0.72408 0.65216 0.0
C767 C 0.45973 0.73301 0.6374 0.0
H768 H 0.78967 0.4868 0.03527 0.0
H769 H 0.66794 0.33511 0.0396 0.0
H770 H 0.77297 0.48431 0.00961 0.0
H771 H 0.6504 0.33309 0.01388 0.0
H772 H 0.66713 0.3344 0.96431 0.0
H773 H 0.68306 0.33301 0.99003 0.0
H774 H 0.71063 0.48391 0.99409 0.0
H775 H 0.696 0.48578 0.96845 0.0
C776 C 0.75937 0.45284 0.03074 0.0
C777 C 0.73014 0.41116 0.0395 0.0
C778 C 0.74951 0.45156 0.01603 0.0
C779 C 0.71001 0.40868 0.00969 0.0
C780 C 0.68135 0.36658 0.01839 0.0
C781 C 0.6913 0.3678 0.03314 0.0
C782 C 0.67631 0.36716 0.97072 0.0
C783 C 0.68041 0.41024 0.96431 0.0
C784 C 0.68529 0.36629 0.98547 0.0
C785 C 0.69853 0.40849 0.99411 0.0
C786 C 0.7015 0.4511 0.98772 0.0
C787 C 0.69268 0.45201 0.97301 0.0
H788 H 0.29274 0.63237 0.29934 0.0
H789 H 0.25246 0.74724 0.29833 0.0
H790 H 0.30423 0.64246 0.32541 0.0
H791 H 0.26736 0.76022 0.32397 0.0
H792 H 0.24825 0.74328 0.37153 0.0
H793 H 0.23484 0.72771 0.34592 0.0
H794 H 0.35249 0.69073 0.34451 0.0
H795 H 0.36298 0.70285 0.37057 0.0
C796 C 0.28682 0.66009 0.30471 0.0
C797 C 0.27113 0.68859 0.29687 0.0
C798 C 0.29381 0.66626 0.31964 0.0
C799 C 0.28637 0.70194 0.32698 0.0
C800 C 0.27195 0.73123 0.31892 0.0
C801 C 0.26374 0.72412 0.30413 0.0
C802 C 0.2712 0.73176 0.36575 0.0
C803 C 0.30687 0.72459 0.37301 0.0
C804 C 0.26386 0.72319 0.35097 0.0
C805 C 0.29306 0.70863 0.34293 0.0
C806 C 0.32876 0.70127 0.35028 0.0
C807 C 0.33516 0.7086 0.3652 0.0
H808 H 0.50693 0.25424 0.70495 0.0
H809 H 0.66185 0.3696 0.70364 0.0
H810 H 0.50872 0.24003 0.67937 0.0
H811 H 0.66311 0.35831 0.67763 0.0
H812 H 0.66182 0.29673 0.63275 0.0
H813 H 0.66339 0.30963 0.65875 0.0
H814 H 0.50829 0.27106 0.65724 0.0
H815 H 0.50623 0.25469 0.63168 0.0
C816 C 0.54124 0.27719 0.69909 0.0
C817 C 0.58414 0.31321 0.70625 0.0
C818 C 0.54227 0.26938 0.68433 0.0
C819 C 0.58589 0.29845 0.67621 0.0
C820 C 0.62896 0.33463 0.68345 0.0
C821 C 0.62823 0.3415 0.69835 0.0
C822 C 0.62813 0.29078 0.63808 0.0
C823 C 0.58377 0.27415 0.63026 0.0
C824 C 0.62903 0.29856 0.65298 0.0
C825 C 0.58583 0.29104 0.66029 0.0
C826 C 0.54196 0.27575 0.65223 0.0
C827 C 0.54078 0.26673 0.63748 0.0
H828 H 0.31176 0.6262 0.21004 0.0
H829 H 0.25881 0.72452 0.19562 0.0
H830 H 0.31708 0.60484 0.18507 0.0
H831 H 0.26277 0.70208 0.17083 0.0
H832 H 0.31393 0.68508 0.12674 0.0
H833 H 0.31868 0.71086 0.15176 0.0
H834 H 0.26245 0.55851 0.16556 0.0
H835 H 0.25908 0.53294 0.14067 0.0
C836 C 0.30126 0.64328 0.20158 0.0
C837 C 0.28486 0.6771 0.20489 0.0
C838 C 0.30407 0.63082 0.18725 0.0
C839 C 0.29034 0.65172 0.17591 0.0
C840 C 0.27445 0.6859 0.17924 0.0
C841 C 0.27186 0.69851 0.19352 0.0
C842 C 0.30291 0.65711 0.13511 0.0
C843 C 0.28604 0.6069 0.13164 0.0
C844 C 0.30538 0.67187 0.14947 0.0
C845 C 0.29078 0.63674 0.1607 0.0
C846 C 0.27469 0.58671 0.15723 0.0
C847 C 0.27245 0.572 0.1429 0.0
H848 H 0.72178 0.2526 0.47379 0.0
H849 H 0.62524 0.30858 0.46011 0.0
H850 H 0.6997 0.25567 0.49874 0.0
H851 H 0.6043 0.31293 0.48515 0.0
H852 H 0.53147 0.25404 0.52911 0.0
H853 H 0.55713 0.2569 0.50427 0.0
H854 H 0.70892 0.31102 0.51822 0.0
H855 H 0.68302 0.30689 0.54323 0.0
C856 C 0.69625 0.26609 0.47609 0.0
C857 C 0.67518 0.28018 0.46488 0.0
C858 C 0.68384 0.26814 0.49044 0.0
C859 C 0.65018 0.28449 0.49398 0.0
C860 C 0.62978 0.29943 0.4828 0.0
C861 C 0.64202 0.29719 0.46843 0.0
C862 C 0.57042 0.26679 0.52693 0.0
C863 C 0.60515 0.28017 0.53823 0.0
C864 C 0.5852 0.26873 0.51263 0.0
C865 C 0.63512 0.28429 0.50921 0.0
C866 C 0.67003 0.29825 0.52048 0.0
C867 C 0.65521 0.29614 0.53483 0.0
H868 H 0.33361 0.59499 0.79403 0.0
H869 H 0.43164 0.74885 0.80599 0.0
H870 H 0.30968 0.57398 0.81916 0.0
H871 H 0.40577 0.7288 0.83096 0.0
H872 H 0.24799 0.5544 0.8641 0.0
H873 H 0.26651 0.57905 0.83897 0.0
H874 H 0.41713 0.69029 0.85081 0.0
H875 H 0.39745 0.66739 0.876 0.0
C876 C 0.34927 0.62448 0.80201 0.0
C877 C 0.38481 0.67342 0.79807 0.0
C878 C 0.3354 0.61257 0.81644 0.0
C879 C 0.35602 0.64958 0.82723 0.0
C880 C 0.39005 0.69896 0.8231 0.0
C881 C 0.40463 0.7106 0.80874 0.0
C882 C 0.28495 0.5844 0.86132 0.0
C883 C 0.32131 0.6089 0.87203 0.0
C884 C 0.29574 0.59833 0.84687 0.0
C885 C 0.34348 0.63653 0.84273 0.0
C886 C 0.37964 0.66136 0.85353 0.0
C887 C 0.36852 0.64804 0.86801 0.0
H888 H 0.74229 0.46658 0.14067 0.0
H889 H 0.68861 0.31451 0.12687 0.0
H890 H 0.73836 0.44121 0.1656 0.0
H891 H 0.68332 0.28891 0.15194 0.0
H892 H 0.74189 0.27634 0.19627 0.0
H893 H 0.73842 0.29799 0.17134 0.0
H894 H 0.68283 0.39485 0.1849 0.0
H895 H 0.68765 0.37432 0.20998 0.0
C896 C 0.72908 0.42757 0.14294 0.0
C897 C 0.71592 0.39263 0.13171 0.0
C898 C 0.72651 0.41297 0.15729 0.0
C899 C 0.71051 0.363 0.16081 0.0
C900 C 0.69648 0.32785 0.1496 0.0
C901 C 0.69927 0.34249 0.13522 0.0
C902 C 0.72864 0.30208 0.19398 0.0
C903 C 0.7152 0.32369 0.20519 0.0
C904 C 0.72634 0.31424 0.17963 0.0
C905 C 0.71035 0.34818 0.17608 0.0
C906 C 0.696 0.36911 0.18726 0.0
C907 C 0.69851 0.35711 0.20165 0.0
H908 H 0.31663 0.69079 0.54326 0.0
H909 H 0.46829 0.74577 0.5289 0.0
H910 H 0.29013 0.6863 0.51832 0.0
H911 H 0.44201 0.74259 0.5041 0.0
H912 H 0.37269 0.69075 0.45993 0.0
H913 H 0.39502 0.68683 0.48488 0.0
H914 H 0.29808 0.74155 0.49905 0.0
H915 H 0.27466 0.74415 0.47424 0.0
C916 C 0.34435 0.70194 0.53482 0.0
C917 C 0.39462 0.71864 0.53814 0.0
C918 C 0.32918 0.69962 0.5205 0.0
C919 C 0.36394 0.71415 0.50918 0.0
C920 C 0.41407 0.73036 0.51251 0.0
C921 C 0.4292 0.73249 0.52679 0.0
C922 C 0.35589 0.70167 0.46836 0.0
C923 C 0.32185 0.71776 0.46503 0.0
C924 C 0.36892 0.69969 0.48268 0.0
C925 C 0.34842 0.71395 0.49399 0.0
C926 C 0.31402 0.72954 0.49065 0.0
C927 C 0.30083 0.73133 0.47637 0.0
H928 H 0.60177 0.33177 0.8761 0.0
H929 H 0.75122 0.44503 0.86431 0.0
H930 H 0.58227 0.30903 0.8509 0.0
H931 H 0.73287 0.42054 0.83916 0.0
H932 H 0.66602 0.40481 0.79419 0.0
H933 H 0.68979 0.42567 0.81934 0.0
H934 H 0.59382 0.27073 0.83102 0.0
H935 H 0.56811 0.25083 0.80603 0.0
C936 C 0.63074 0.35121 0.86813 0.0
C937 C 0.67789 0.39038 0.87219 0.0
C938 C 0.61972 0.33799 0.85364 0.0
C939 C 0.65593 0.36294 0.84287 0.0
C940 C 0.70361 0.40117 0.84705 0.0
C941 C 0.7143 0.41501 0.8615 0.0
C942 C 0.65035 0.37527 0.80215 0.0
C943 C 0.6149 0.32634 0.79817 0.0
C944 C 0.66413 0.38709 0.8166 0.0
C945 C 0.64349 0.34999 0.82735 0.0
C946 C 0.60955 0.30063 0.82318 0.0
C947 C 0.59507 0.28907 0.80881 0.0
H948 H 0.90365 0.54568 0.09657 0.0
H949 H 0.85786 0.39809 0.08009 0.0
H950 H 0.99031 0.56553 0.09617 0.0
H951 H 0.94472 0.41849 0.07947 0.0
H952 H 0.14398 0.60109 0.08009 0.0
H953 H 0.05712 0.58067 0.07947 0.0
H954 H 0.01157 0.43365 0.09617 0.0
H955 H 0.09825 0.45352 0.09656 0.0
C956 C 0.91198 0.51754 0.09276 0.0
C957 C 0.87358 0.47023 0.08837 0.0
C958 C 0.96179 0.52908 0.09247 0.0
C959 C 0.97447 0.49361 0.08779 0.0
C960 C 0.93617 0.44645 0.08331 0.0
C961 C 0.88635 0.43489 0.08358 0.0
C962 C 0.11551 0.56429 0.08358 0.0
C963 C 0.12829 0.52896 0.08837 0.0
C964 C 0.06568 0.55272 0.08331 0.0
C965 C 0.02739 0.50556 0.08779 0.0
C966 C 0.04009 0.4701 0.09247 0.0
C967 C 0.0899 0.48165 0.09276 0.0
H968 H 0.63963 0.09435 0.42866 0.0
H969 H 0.53914 0.14281 0.41291 0.0
H970 H 0.57188 0.0081 0.42813 0.0
H971 H 0.47168 0.05632 0.41216 0.0
H972 H 0.45223 0.8556 0.41213 0.0
H973 H 0.51914 0.94222 0.41135 0.0
H974 H 0.41962 0.98904 0.42877 0.0
H975 H 0.35224 0.90249 0.42932 0.0
C976 C 0.60324 0.0867 0.42498 0.0
C977 C 0.59498 0.12572 0.42083 0.0
C978 C 0.56441 0.03712 0.42461 0.0
C979 C 0.51633 0.02528 0.4201 0.0
C980 C 0.50812 0.0642 0.41585 0.0
C981 C 0.54696 0.11381 0.4162 0.0
C982 C 0.44439 0.88429 0.41573 0.0
C983 C 0.3967 0.87188 0.4208 0.0
C984 C 0.48294 0.93399 0.41536 0.0
C985 C 0.47482 0.97256 0.42004 0.0
C986 C 0.427 0.96029 0.42493 0.0
C987 C 0.3884 0.91056 0.42531 0.0
H988 H 0.48236 0.37673 0.77526 0.0
H989 H 0.57209 0.43828 0.73696 0.0
H990 H 0.46296 0.44448 0.77512 0.0
H991 H 0.55126 0.50501 0.73669 0.0
H992 H 0.42797 0.56166 0.73692 0.0
H993 H 0.44882 0.49494 0.73667 0.0
H994 H 0.53709 0.55561 0.77512 0.0
H995 H 0.51766 0.62334 0.77522 0.0
C996 C 0.49755 0.40439 0.76676 0.0
C997 C 0.52883 0.40228 0.75613 0.0
C998 C 0.48661 0.44311 0.76674 0.0
C999 C 0.5058 0.4796 0.75591 0.0
C1000 C 0.53617 0.4771 0.74513 0.0
C1001 C 0.54807 0.43907 0.74533 0.0
C1002 C 0.45199 0.5609 0.74529 0.0
C1003 C 0.47122 0.59772 0.75609 0.0
C1004 C 0.4639 0.52288 0.74511 0.0
C1005 C 0.49427 0.52042 0.7559 0.0
C1006 C 0.51345 0.55694 0.76672 0.0
C1007 C 0.50249 0.59566 0.76673 0.0
H1008 H 0.4517 0.09522 0.5743 0.0
H1009 H 0.59972 0.14331 0.59078 0.0
H1010 H 0.43321 0.00889 0.5748 0.0
H1011 H 0.58072 0.05689 0.59149 0.0
H1012 H 0.54837 0.90415 0.57416 0.0
H1013 H 0.56684 0.99047 0.57473 0.0
H1014 H 0.41936 0.94227 0.59147 0.0
H1015 H 0.40039 0.85586 0.59068 0.0
C1016 C 0.48019 0.08746 0.57814 0.0
C1017 C 0.52726 0.12642 0.58249 0.0
C1018 C 0.46946 0.03785 0.57849 0.0
C1019 C 0.50551 0.02595 0.58316 0.0
C1020 C 0.55234 0.06481 0.58765 0.0
C1021 C 0.56308 0.1144 0.58733 0.0
C1022 C 0.51988 0.91186 0.57802 0.0
C1023 C 0.47284 0.87285 0.58236 0.0
C1024 C 0.5306 0.96146 0.57842 0.0
C1025 C 0.49455 0.9733 0.58313 0.0
C1026 C 0.44773 0.9344 0.5876 0.0
C1027 C 0.43701 0.88482 0.58723 0.0
H1028 H 0.35624 0.45451 0.90624 0.0
H1029 H 0.45881 0.60125 0.92314 0.0
H1030 H 0.42263 0.43397 0.90652 0.0
H1031 H 0.52478 0.58018 0.9236 0.0
H1032 H 0.53977 0.39731 0.92319 0.0
H1033 H 0.47368 0.41824 0.92356 0.0
H1034 H 0.57593 0.5646 0.9066 0.0
H1035 H 0.64239 0.5442 0.90642 0.0
C1036 C 0.39279 0.48232 0.9101 0.0
C1037 C 0.40207 0.52957 0.91468 0.0
C1038 C 0.43079 0.4704 0.91032 0.0
C1039 C 0.47897 0.50545 0.91508 0.0
C1040 C 0.48822 0.55258 0.91971 0.0
C1041 C 0.45024 0.5645 0.91952 0.0
C1042 C 0.54833 0.43406 0.91958 0.0
C1043 C 0.59655 0.46908 0.9148 0.0
C1044 C 0.51029 0.4459 0.91971 0.0
C1045 C 0.51954 0.49305 0.91509 0.0
C1046 C 0.56776 0.52817 0.91039 0.0
C1047 C 0.60581 0.51633 0.91022 0.0
H1048 H 0.09753 0.64649 0.23988 0.0
H1049 H 0.14276 0.54502 0.25694 0.0
H1050 H 0.01071 0.5797 0.24033 0.0
H1051 H 0.0559 0.47871 0.25761 0.0
H1052 H 0.8566 0.46123 0.25644 0.0
H1053 H 0.94337 0.52811 0.257 0.0
H1054 H 0.98966 0.42663 0.24083 0.0
H1055 H 0.90315 0.35946 0.24049 0.0
C1056 C 0.08904 0.61012 0.24383 0.0
C1057 C 0.12732 0.60125 0.24835 0.0
C1058 C 0.03916 0.57187 0.24415 0.0
C1059 C 0.02635 0.52383 0.24898 0.0
C1060 C 0.06454 0.51509 0.25364 0.0
C1061 C 0.11438 0.5533 0.25334 0.0
C1062 C 0.88523 0.45302 0.25305 0.0
C1063 C 0.87272 0.40479 0.24844 0.0
C1064 C 0.93499 0.49152 0.25329 0.0
C1065 C 0.97346 0.48275 0.24895 0.0
C1066 C 0.96101 0.4345 0.24443 0.0
C1067 C 0.91128 0.39601 0.24416 0.0
H1068 H 0.54763 0.40163 0.09652 0.0
H1069 H 0.64806 0.55393 0.10941 0.0
H1070 H 0.47828 0.41753 0.09674 0.0
H1071 H 0.57827 0.56934 0.11059 0.0
H1072 H 0.45435 0.59777 0.09642 0.0
H1073 H 0.52372 0.5819 0.09667 0.0
H1074 H 0.42386 0.43026 0.11066 0.0
H1075 H 0.35405 0.44564 0.10947 0.0
C1076 C 0.55467 0.43835 0.09963 0.0
C1077 C 0.6032 0.47659 0.10292 0.0
C1078 C 0.51479 0.44747 0.09987 0.0
C1079 C 0.52229 0.4948 0.10371 0.0
C1080 C 0.57096 0.53274 0.10728 0.0
C1081 C 0.61102 0.52388 0.10672 0.0
C1082 C 0.44735 0.56109 0.09958 0.0
C1083 C 0.39884 0.52289 0.1029 0.0
C1084 C 0.48724 0.552 0.09983 0.0
C1085 C 0.47977 0.50472 0.10371 0.0
C1086 C 0.43114 0.46682 0.10731 0.0
C1087 C 0.39106 0.47566 0.10675 0.0
H1088 H 0.85206 0.44619 0.44533 0.0
H1089 H 0.90774 0.35202 0.42934 0.0
H1090 H 0.93694 0.51643 0.4465 0.0
H1091 H 0.99259 0.42275 0.43004 0.0
H1092 H 0.14317 0.54802 0.4452 0.0
H1093 H 0.05836 0.47726 0.44589 0.0
H1094 H 0.00227 0.57227 0.4309 0.0
H1095 H 0.08682 0.64328 0.43068 0.0
C1096 C 0.88243 0.44047 0.44204 0.0
C1097 C 0.87314 0.39348 0.43726 0.0
C1098 C 0.93112 0.48089 0.44262 0.0
C1099 C 0.9717 0.4754 0.43831 0.0
C1100 C 0.96237 0.42821 0.43364 0.0
C1101 C 0.91366 0.38768 0.43316 0.0
C1102 C 0.11269 0.55387 0.44215 0.0
C1103 C 0.12175 0.60133 0.43793 0.0
C1104 C 0.06406 0.51319 0.44244 0.0
C1105 C 0.02338 0.51894 0.43842 0.0
C1106 C 0.03254 0.56657 0.43429 0.0
C1107 C 0.08111 0.60729 0.43409 0.0
H1108 H 0.44829 0.09466 0.77633 0.0
H1109 H 0.59963 0.14415 0.76296 0.0
H1110 H 0.43135 0.0089 0.77733 0.0
H1111 H 0.58217 0.05826 0.76309 0.0
H1112 H 0.55138 0.90518 0.77636 0.0
H1113 H 0.5683 0.99093 0.77737 0.0
H1114 H 0.41757 0.94159 0.76304 0.0
H1115 H 0.40013 0.85571 0.76288 0.0
C1116 C 0.47781 0.08705 0.7735 0.0
C1117 C 0.52529 0.12601 0.76961 0.0
C1118 C 0.46805 0.03781 0.77396 0.0
C1119 C 0.50527 0.02628 0.77024 0.0
C1120 C 0.55279 0.06555 0.76632 0.0
C1121 C 0.5628 0.11487 0.76614 0.0
C1122 C 0.52187 0.9128 0.77351 0.0
C1123 C 0.47444 0.87385 0.76958 0.0
C1124 C 0.53162 0.96202 0.77398 0.0
C1125 C 0.49442 0.97356 0.77024 0.0
C1126 C 0.44693 0.9343 0.76628 0.0
C1127 C 0.43694 0.88499 0.76609 0.0
H1128 H 0.40545 0.55056 0.55729 0.0
H1129 H 0.55634 0.64542 0.57243 0.0
H1130 H 0.41985 0.48009 0.55632 0.0
H1131 H 0.57023 0.5746 0.57194 0.0
H1132 H 0.59497 0.44878 0.55736 0.0
H1133 H 0.5806 0.51926 0.55633 0.0
H1134 H 0.43027 0.42495 0.57199 0.0
H1135 H 0.44412 0.35412 0.57254 0.0
C1136 C 0.44171 0.55639 0.56042 0.0
C1137 C 0.47977 0.60364 0.56491 0.0
C1138 C 0.44986 0.51585 0.55997 0.0
C1139 C 0.49616 0.52151 0.56409 0.0
C1140 C 0.53435 0.56897 0.56847 0.0
C1141 C 0.52631 0.60958 0.56883 0.0
C1142 C 0.55873 0.443 0.56049 0.0
C1143 C 0.52066 0.39579 0.56501 0.0
C1144 C 0.5506 0.48354 0.56 0.0
C1145 C 0.50431 0.47795 0.56412 0.0
C1146 C 0.46612 0.43054 0.56852 0.0
C1147 C 0.47415 0.38992 0.56892 0.0
H1148 H 0.09308 0.44682 0.89471 0.0
H1149 H 0.14408 0.59861 0.90799 0.0
H1150 H 0.00766 0.43078 0.8937 0.0
H1151 H 0.05855 0.58205 0.9079 0.0
H1152 H 0.90586 0.55281 0.89498 0.0
H1153 H 0.9913 0.56895 0.89385 0.0
H1154 H 0.94071 0.41759 0.90789 0.0
H1155 H 0.85517 0.40095 0.9081 0.0
C1156 C 0.08584 0.47662 0.89752 0.0
C1157 C 0.12509 0.52395 0.90138 0.0
C1158 C 0.03681 0.46739 0.89706 0.0
C1159 C 0.02581 0.505 0.90077 0.0
C1160 C 0.06541 0.55238 0.90467 0.0
C1161 C 0.11452 0.56187 0.90482 0.0
C1162 C 0.91317 0.52302 0.89774 0.0
C1163 C 0.87399 0.47563 0.90158 0.0
C1164 C 0.96221 0.5323 0.8972 0.0
C1165 C 0.9733 0.49468 0.90083 0.0
C1166 C 0.93378 0.44727 0.90472 0.0
C1167 C 0.88466 0.43773 0.90495 0.0
H1168 H 0.35511 0.90822 0.22587 0.0
H1169 H 0.45469 0.85625 0.23951 0.0
H1170 H 0.42495 0.99347 0.22494 0.0
H1171 H 0.52409 0.94159 0.23951 0.0
H1172 H 0.54712 0.14546 0.23994 0.0
H1173 H 0.4781 0.06002 0.2393 0.0
H1174 H 0.57951 0.00951 0.22592 0.0
H1175 H 0.64894 0.09491 0.22748 0.0
C1176 C 0.39199 0.91518 0.22876 0.0
C1177 C 0.39953 0.87568 0.23273 0.0
C1178 C 0.43207 0.96413 0.22835 0.0
C1179 C 0.48048 0.97488 0.23223 0.0
C1180 C 0.48778 0.93501 0.23616 0.0
C1181 C 0.44787 0.88596 0.23626 0.0
C1182 C 0.55456 0.11603 0.23683 0.0
C1183 C 0.60336 0.12676 0.23378 0.0
C1184 C 0.51487 0.06694 0.23635 0.0
C1185 C 0.52285 0.02742 0.23251 0.0
C1186 C 0.57182 0.03856 0.22921 0.0
C1187 C 0.61167 0.0876 0.22999 0.0
loop_
_geom_bond_atom_site_label_1
_geom_bond_atom_site_label_2
_geom_bond_distance
_geom_bond_site_symmetry_2
_ccdc_geom_bond_type
Co0 O2 2.143 . S
Co0 O8 2.074 . S
Co0 O11 2.093 . S
Co0 O24 2.097 . S
Co0 N41 2.151 . S
Co0 N49 2.214 . S
Co1 O2 2.160 . S
Co1 O7 2.058 . S
Co1 O17 2.057 . S
Co1 O32 2.037 . S
Co1 N36 2.145 . S
Co1 N57 2.257 . S
O2 Co0 2.143 . S
O2 Co1 2.160 . S
C3 O4 1.278 . S
C3 O11 1.224 . S
O4 C3 1.278 . S
C5 O6 1.245 . S
C5 O17 1.232 . S
O6 C5 1.245 . S
O7 Co1 2.058 . S
O7 C33 1.269 . S
O8 Co0 2.074 . S
O8 C33 1.257 . S
H9 C34 0.930 . S
H10 C40 0.930 . S
O11 Co0 2.093 . S
O11 C3 1.224 . S
H12 C44 0.929 . S
H13 C46 0.930 . S
H14 C47 0.930 . S
H15 C45 0.929 . S
H16 C48 0.928 . S
O17 Co1 2.057 . S
O17 C5 1.232 . S
H18 C37 0.929 . S
H19 C38 0.929 . S
H20 C50 0.931 . S
H21 C42 0.929 . S
H22 C51 0.930 . S
H23 C43 0.931 . S
O24 Co0 2.097 . S
O24 C52 1.214 . S
H25 C53 0.929 . S
H26 C54 0.929 . S
H27 C55 0.930 . S
H28 C56 0.929 . S
H29 C58 0.930 . S
H30 C35 0.930 . S
H31 C39 0.930 . S
O32 Co1 2.037 . S
O32 C52 1.234 . S
C33 O7 1.269 . S
C33 O8 1.257 . S
C34 H9 0.930 . S
C34 C37 1.388 . S
C34 C39 1.418 . S
C35 H30 0.930 . S
C35 C38 1.404 . S
C35 C39 1.353 . S
N36 Co1 2.145 . S
N36 C37 1.397 . S
N36 C38 1.334 . S
C37 H18 0.929 . S
C37 C34 1.388 . S
C37 N36 1.397 . S
C38 H19 0.929 . S
C38 C35 1.404 . S
C38 N36 1.334 . S
C39 H31 0.930 . S
C39 C34 1.418 . S
C39 C35 1.353 . S
C40 H10 0.930 . S
C40 N41 1.330 . S
C40 C42 1.446 . S
N41 Co0 2.151 . S
N41 C40 1.330 . S
N41 C45 1.418 . S
C42 H21 0.929 . S
C42 C40 1.446 . S
C42 C43 1.332 . S
C43 H23 0.931 . S
C43 C42 1.332 . S
C43 C44 1.267 . S
C44 H12 0.929 . S
C44 C43 1.267 . S
C44 C45 1.251 . S
C45 H15 0.929 . S
C45 N41 1.418 . S
C45 C44 1.251 . S
C46 H13 0.930 . S
C46 C48 1.406 . S
C46 C51 1.261 . S
C47 H14 0.930 . S
C47 N49 1.325 . S
C47 C50 1.357 . S
C48 H16 0.928 . S
C48 C46 1.406 . S
C48 N49 1.261 . S
N49 Co0 2.214 . S
N49 C47 1.325 . S
N49 C48 1.261 . S
C50 H20 0.931 . S
C50 C47 1.357 . S
C50 C51 1.312 . S
C51 H22 0.930 . S
C51 C46 1.261 . S
C51 C50 1.312 . S
C52 O24 1.214 . S
C52 O32 1.234 . S
C53 H25 0.929 . S
C53 C56 1.391 . S
C53 C58 1.391 . S
C54 H26 0.929 . S
C54 C55 1.390 . S
C54 N57 1.391 . S
C55 H27 0.930 . S
C55 C54 1.390 . S
C55 C56 1.392 . S
C56 H28 0.929 . S
C56 C53 1.391 . S
C56 C55 1.392 . S
N57 Co1 2.257 . S
N57 C54 1.391 . S
N57 C58 1.388 . S
C58 H29 0.930 . S
C58 C53 1.391 . S
C58 N57 1.388 . S
Co59 O61 2.143 . S
Co59 O67 2.074 . S
Co59 O70 2.093 . S
Co59 O83 2.097 . S
Co59 N100 2.151 . S
Co59 N108 2.214 . S
Co60 O61 2.160 . S
Co60 O66 2.058 . S
Co60 O76 2.057 . S
Co60 O91 2.037 . S
Co60 N95 2.145 . S
Co60 N116 2.257 . S
O61 Co59 2.143 . S
O61 Co60 2.160 . S
C62 O63 1.278 . S
C62 O70 1.224 . S
O63 C62 1.278 . S
C64 O65 1.245 . S
C64 O76 1.232 . S
O65 C64 1.245 . S
O66 Co60 2.058 . S
O66 C92 1.269 . S
O67 Co59 2.074 . S
O67 C92 1.257 . S
H68 C93 0.930 . S
H69 C99 0.930 . S
O70 Co59 2.093 . S
O70 C62 1.224 . S
H71 C103 0.929 . S
H72 C105 0.930 . S
H73 C106 0.930 . S
H74 C104 0.929 . S
H75 C107 0.928 . S
O76 Co60 2.057 . S
O76 C64 1.232 . S
H77 C96 0.929 . S
H78 C97 0.929 . S
H79 C109 0.931 . S
H80 C101 0.929 . S
H81 C110 0.930 . S
H82 C102 0.931 . S
O83 Co59 2.097 . S
O83 C111 1.214 . S
H84 C112 0.929 . S
H85 C113 0.929 . S
H86 C114 0.930 . S
H87 C115 0.929 . S
H88 C117 0.930 . S
H89 C94 0.930 . S
H90 C98 0.930 . S
O91 Co60 2.037 . S
O91 C111 1.234 . S
C92 O66 1.269 . S
C92 O67 1.257 . S
C93 H68 0.930 . S
C93 C96 1.388 . S
C93 C98 1.418 . S
C94 H89 0.930 . S
C94 C97 1.404 . S
C94 C98 1.353 . S
N95 Co60 2.145 . S
N95 C96 1.397 . S
N95 C97 1.334 . S
C96 H77 0.929 . S
C96 C93 1.388 . S
C96 N95 1.397 . S
C97 H78 0.929 . S
C97 C94 1.404 . S
C97 N95 1.334 . S
C98 H90 0.930 . S
C98 C93 1.418 . S
C98 C94 1.353 . S
C99 H69 0.930 . S
C99 N100 1.330 . S
C99 C101 1.446 . S
N100 Co59 2.151 . S
N100 C99 1.330 . S
N100 C104 1.418 . S
C101 H80 0.929 . S
C101 C99 1.446 . S
C101 C102 1.332 . S
C102 H82 0.931 . S
C102 C101 1.332 . S
C102 C103 1.267 . S
C103 H71 0.929 . S
C103 C102 1.267 . S
C103 C104 1.251 . S
C104 H74 0.929 . S
C104 N100 1.418 . S
C104 C103 1.251 . S
C105 H72 0.930 . S
C105 C107 1.406 . S
C105 C110 1.261 . S
C106 H73 0.930 . S
C106 N108 1.325 . S
C106 C109 1.357 . S
C107 H75 0.928 . S
C107 C105 1.406 . S
C107 N108 1.261 . S
N108 Co59 2.214 . S
N108 C106 1.325 . S
N108 C107 1.261 . S
C109 H79 0.931 . S
C109 C106 1.357 . S
C109 C110 1.312 . S
C110 H81 0.930 . S
C110 C105 1.261 . S
C110 C109 1.312 . S
C111 O83 1.214 . S
C111 O91 1.234 . S
C112 H84 0.929 . S
C112 C115 1.391 . S
C112 C117 1.391 . S
C113 H85 0.929 . S
C113 C114 1.390 . S
C113 N116 1.391 . S
C114 H86 0.930 . S
C114 C113 1.390 . S
C114 C115 1.392 . S
C115 H87 0.929 . S
C115 C112 1.391 . S
C115 C114 1.392 . S
N116 Co60 2.257 . S
N116 C113 1.391 . S
N116 C117 1.388 . S
C117 H88 0.930 . S
C117 C112 1.391 . S
C117 N116 1.388 . S
Co118 O120 2.143 . S
Co118 O126 2.074 . S
Co118 O129 2.093 . S
Co118 O142 2.097 . S
Co118 N159 2.151 . S
Co118 N167 2.214 . S
Co119 O120 2.160 . S
Co119 O125 2.058 . S
Co119 O135 2.057 . S
Co119 O150 2.037 . S
Co119 N154 2.145 . S
Co119 N175 2.257 . S
O120 Co118 2.143 . S
O120 Co119 2.160 . S
C121 O122 1.278 . S
C121 O129 1.224 . S
O122 C121 1.278 . S
C123 O124 1.245 . S
C123 O135 1.232 . S
O124 C123 1.245 . S
O125 Co119 2.058 . S
O125 C151 1.269 . S
O126 Co118 2.074 . S
O126 C151 1.257 . S
H127 C152 0.930 . S
H128 C158 0.930 . S
O129 Co118 2.093 . S
O129 C121 1.224 . S
H130 C162 0.929 . S
H131 C164 0.930 . S
H132 C165 0.930 . S
H133 C163 0.929 . S
H134 C166 0.928 . S
O135 Co119 2.057 . S
O135 C123 1.232 . S
H136 C155 0.929 . S
H137 C156 0.929 . S
H138 C168 0.931 . S
H139 C160 0.929 . S
H140 C169 0.930 . S
H141 C161 0.931 . S
O142 Co118 2.097 . S
O142 C170 1.214 . S
H143 C171 0.929 . S
H144 C172 0.929 . S
H145 C173 0.930 . S
H146 C174 0.929 . S
H147 C176 0.930 . S
H148 C153 0.930 . S
H149 C157 0.930 . S
O150 Co119 2.037 . S
O150 C170 1.234 . S
C151 O125 1.269 . S
C151 O126 1.257 . S
C152 H127 0.930 . S
C152 C155 1.388 . S
C152 C157 1.418 . S
C153 H148 0.930 . S
C153 C156 1.404 . S
C153 C157 1.353 . S
N154 Co119 2.145 . S
N154 C155 1.397 . S
N154 C156 1.334 . S
C155 H136 0.929 . S
C155 C152 1.388 . S
C155 N154 1.397 . S
C156 H137 0.929 . S
C156 C153 1.404 . S
C156 N154 1.334 . S
C157 H149 0.930 . S
C157 C152 1.418 . S
C157 C153 1.353 . S
C158 H128 0.930 . S
C158 N159 1.330 . S
C158 C160 1.446 . S
N159 Co118 2.151 . S
N159 C158 1.330 . S
N159 C163 1.418 . S
C160 H139 0.929 . S
C160 C158 1.446 . S
C160 C161 1.332 . S
C161 H141 0.931 . S
C161 C160 1.332 . S
C161 C162 1.267 . S
C162 H130 0.929 . S
C162 C161 1.267 . S
C162 C163 1.251 . S
C163 H133 0.929 . S
C163 N159 1.418 . S
C163 C162 1.251 . S
C164 H131 0.930 . S
C164 C166 1.406 . S
C164 C169 1.261 . S
C165 H132 0.930 . S
C165 N167 1.325 . S
C165 C168 1.357 . S
C166 H134 0.928 . S
C166 C164 1.406 . S
C166 N167 1.261 . S
N167 Co118 2.214 . S
N167 C165 1.325 . S
N167 C166 1.261 . S
C168 H138 0.931 . S
C168 C165 1.357 . S
C168 C169 1.312 . S
C169 H140 0.930 . S
C169 C164 1.261 . S
C169 C168 1.312 . S
C170 O142 1.214 . S
C170 O150 1.234 . S
C171 H143 0.929 . S
C171 C174 1.391 . S
C171 C176 1.391 . S
C172 H144 0.929 . S
C172 C173 1.390 . S
C172 N175 1.391 . S
C173 H145 0.930 . S
C173 C172 1.390 . S
C173 C174 1.392 . S
C174 H146 0.929 . S
C174 C171 1.391 . S
C174 C173 1.392 . S
N175 Co119 2.257 . S
N175 C172 1.391 . S
N175 C176 1.388 . S
C176 H147 0.930 . S
C176 C171 1.391 . S
C176 N175 1.388 . S
Co177 O179 2.143 . S
Co177 O185 2.074 . S
Co177 O188 2.093 . S
Co177 O201 2.097 . S
Co177 N218 2.151 . S
Co177 N226 2.214 . S
Co178 O179 2.160 . S
Co178 O184 2.058 . S
Co178 O194 2.057 . S
Co178 O209 2.037 . S
Co178 N213 2.145 . S
Co178 N234 2.257 . S
O179 Co177 2.143 . S
O179 Co178 2.160 . S
C180 O181 1.278 . S
C180 O188 1.224 . S
O181 C180 1.278 . S
C182 O183 1.245 . S
C182 O194 1.232 . S
O183 C182 1.245 . S
O184 Co178 2.058 . S
O184 C210 1.269 . S
O185 Co177 2.074 . S
O185 C210 1.257 . S
H186 C211 0.930 . S
H187 C217 0.930 . S
O188 Co177 2.093 . S
O188 C180 1.224 . S
H189 C221 0.929 . S
H190 C223 0.930 . S
H191 C224 0.930 . S
H192 C222 0.929 . S
H193 C225 0.928 . S
O194 Co178 2.057 . S
O194 C182 1.232 . S
H195 C214 0.929 . S
H196 C215 0.929 . S
H197 C227 0.931 . S
H198 C219 0.929 . S
H199 C228 0.930 . S
H200 C220 0.931 . S
O201 Co177 2.097 . S
O201 C229 1.214 . S
H202 C230 0.929 . S
H203 C231 0.929 . S
H204 C232 0.930 . S
H205 C233 0.929 . S
H206 C235 0.930 . S
H207 C212 0.930 . S
H208 C216 0.930 . S
O209 Co178 2.037 . S
O209 C229 1.234 . S
C210 O184 1.269 . S
C210 O185 1.257 . S
C211 H186 0.930 . S
C211 C214 1.388 . S
C211 C216 1.418 . S
C212 H207 0.930 . S
C212 C215 1.404 . S
C212 C216 1.353 . S
N213 Co178 2.145 . S
N213 C214 1.397 . S
N213 C215 1.334 . S
C214 H195 0.929 . S
C214 C211 1.388 . S
C214 N213 1.397 . S
C215 H196 0.929 . S
C215 C212 1.404 . S
C215 N213 1.334 . S
C216 H208 0.930 . S
C216 C211 1.418 . S
C216 C212 1.353 . S
C217 H187 0.930 . S
C217 N218 1.330 . S
C217 C219 1.446 . S
N218 Co177 2.151 . S
N218 C217 1.330 . S
N218 C222 1.418 . S
C219 H198 0.929 . S
C219 C217 1.446 . S
C219 C220 1.332 . S
C220 H200 0.931 . S
C220 C219 1.332 . S
C220 C221 1.267 . S
C221 H189 0.929 . S
C221 C220 1.267 . S
C221 C222 1.251 . S
C222 H192 0.929 . S
C222 N218 1.418 . S
C222 C221 1.251 . S
C223 H190 0.930 . S
C223 C225 1.406 . S
C223 C228 1.261 . S
C224 H191 0.930 . S
C224 N226 1.325 . S
C224 C227 1.357 . S
C225 H193 0.928 . S
C225 C223 1.406 . S
C225 N226 1.261 . S
N226 Co177 2.214 . S
N226 C224 1.325 . S
N226 C225 1.261 . S
C227 H197 0.931 . S
C227 C224 1.357 . S
C227 C228 1.312 . S
C228 H199 0.930 . S
C228 C223 1.261 . S
C228 C227 1.312 . S
C229 O201 1.214 . S
C229 O209 1.234 . S
C230 H202 0.929 . S
C230 C233 1.391 . S
C230 C235 1.391 . S
C231 H203 0.929 . S
C231 C232 1.390 . S
C231 N234 1.391 . S
C232 H204 0.930 . S
C232 C231 1.390 . S
C232 C233 1.392 . S
C233 H205 0.929 . S
C233 C230 1.391 . S
C233 C232 1.392 . S
N234 Co178 2.257 . S
N234 C231 1.391 . S
N234 C235 1.388 . S
C235 H206 0.930 . S
C235 C230 1.391 . S
C235 N234 1.388 . S
Co236 O238 2.143 . S
Co236 O244 2.074 . S
Co236 O247 2.093 . S
Co236 O260 2.097 . S
Co236 N277 2.151 . S
Co236 N285 2.214 . S
Co237 O238 2.160 . S
Co237 O243 2.058 . S
Co237 O253 2.057 . S
Co237 O268 2.037 . S
Co237 N272 2.145 . S
Co237 N293 2.257 . S
O238 Co236 2.143 . S
O238 Co237 2.160 . S
C239 O240 1.278 . S
C239 O247 1.224 . S
O240 C239 1.278 . S
C241 O242 1.245 . S
C241 O253 1.232 . S
O242 C241 1.245 . S
O243 Co237 2.058 . S
O243 C269 1.269 . S
O244 Co236 2.074 . S
O244 C269 1.257 . S
H245 C270 0.930 . S
H246 C276 0.930 . S
O247 Co236 2.093 . S
O247 C239 1.224 . S
H248 C280 0.929 . S
H249 C282 0.930 . S
H250 C283 0.930 . S
H251 C281 0.929 . S
H252 C284 0.928 . S
O253 Co237 2.057 . S
O253 C241 1.232 . S
H254 C273 0.929 . S
H255 C274 0.929 . S
H256 C286 0.931 . S
H257 C278 0.929 . S
H258 C287 0.930 . S
H259 C279 0.931 . S
O260 Co236 2.097 . S
O260 C288 1.214 . S
H261 C289 0.929 . S
H262 C290 0.929 . S
H263 C291 0.930 . S
H264 C292 0.929 . S
H265 C294 0.930 . S
H266 C271 0.930 . S
H267 C275 0.930 . S
O268 Co237 2.037 . S
O268 C288 1.234 . S
C269 O243 1.269 . S
C269 O244 1.257 . S
C270 H245 0.930 . S
C270 C273 1.388 . S
C270 C275 1.418 . S
C271 H266 0.930 . S
C271 C274 1.404 . S
C271 C275 1.353 . S
N272 Co237 2.145 . S
N272 C273 1.397 . S
N272 C274 1.334 . S
C273 H254 0.929 . S
C273 C270 1.388 . S
C273 N272 1.397 . S
C274 H255 0.929 . S
C274 C271 1.404 . S
C274 N272 1.334 . S
C275 H267 0.930 . S
C275 C270 1.418 . S
C275 C271 1.353 . S
C276 H246 0.930 . S
C276 N277 1.330 . S
C276 C278 1.446 . S
N277 Co236 2.151 . S
N277 C276 1.330 . S
N277 C281 1.418 . S
C278 H257 0.929 . S
C278 C276 1.446 . S
C278 C279 1.332 . S
C279 H259 0.931 . S
C279 C278 1.332 . S
C279 C280 1.267 . S
C280 H248 0.929 . S
C280 C279 1.267 . S
C280 C281 1.251 . S
C281 H251 0.929 . S
C281 N277 1.418 . S
C281 C280 1.251 . S
C282 H249 0.930 . S
C282 C284 1.406 . S
C282 C287 1.261 . S
C283 H250 0.930 . S
C283 N285 1.325 . S
C283 C286 1.357 . S
C284 H252 0.928 . S
C284 C282 1.406 . S
C284 N285 1.261 . S
N285 Co236 2.214 . S
N285 C283 1.325 . S
N285 C284 1.261 . S
C286 H256 0.931 . S
C286 C283 1.357 . S
C286 C287 1.312 . S
C287 H258 0.930 . S
C287 C282 1.261 . S
C287 C286 1.312 . S
C288 O260 1.214 . S
C288 O268 1.234 . S
C289 H261 0.929 . S
C289 C292 1.391 . S
C289 C294 1.391 . S
C290 H262 0.929 . S
C290 C291 1.390 . S
C290 N293 1.391 . S
C291 H263 0.930 . S
C291 C290 1.390 . S
C291 C292 1.392 . S
C292 H264 0.929 . S
C292 C289 1.391 . S
C292 C291 1.392 . S
N293 Co237 2.257 . S
N293 C290 1.391 . S
N293 C294 1.388 . S
C294 H265 0.930 . S
C294 C289 1.391 . S
C294 N293 1.388 . S
Co295 O297 2.143 . S
Co295 O303 2.074 . S
Co295 O306 2.093 . S
Co295 O319 2.097 . S
Co295 N336 2.151 . S
Co295 N344 2.214 . S
Co296 O297 2.160 . S
Co296 O302 2.058 . S
Co296 O312 2.057 . S
Co296 O327 2.037 . S
Co296 N331 2.145 . S
Co296 N352 2.257 . S
O297 Co295 2.143 . S
O297 Co296 2.160 . S
C298 O299 1.278 . S
C298 O306 1.224 . S
O299 C298 1.278 . S
C300 O301 1.245 . S
C300 O312 1.232 . S
O301 C300 1.245 . S
O302 Co296 2.058 . S
O302 C328 1.269 . S
O303 Co295 2.074 . S
O303 C328 1.257 . S
H304 C329 0.930 . S
H305 C335 0.930 . S
O306 Co295 2.093 . S
O306 C298 1.224 . S
H307 C339 0.929 . S
H308 C341 0.930 . S
H309 C342 0.930 . S
H310 C340 0.929 . S
H311 C343 0.928 . S
O312 Co296 2.057 . S
O312 C300 1.232 . S
H313 C332 0.929 . S
H314 C333 0.929 . S
H315 C345 0.931 . S
H316 C337 0.929 . S
H317 C346 0.930 . S
H318 C338 0.931 . S
O319 Co295 2.097 . S
O319 C347 1.214 . S
H320 C348 0.929 . S
H321 C349 0.929 . S
H322 C350 0.930 . S
H323 C351 0.929 . S
H324 C353 0.930 . S
H325 C330 0.930 . S
H326 C334 0.930 . S
O327 Co296 2.037 . S
O327 C347 1.234 . S
C328 O302 1.269 . S
C328 O303 1.257 . S
C329 H304 0.930 . S
C329 C332 1.388 . S
C329 C334 1.418 . S
C330 H325 0.930 . S
C330 C333 1.404 . S
C330 C334 1.353 . S
N331 Co296 2.145 . S
N331 C332 1.397 . S
N331 C333 1.334 . S
C332 H313 0.929 . S
C332 C329 1.388 . S
C332 N331 1.397 . S
C333 H314 0.929 . S
C333 C330 1.404 . S
C333 N331 1.334 . S
C334 H326 0.930 . S
C334 C329 1.418 . S
C334 C330 1.353 . S
C335 H305 0.930 . S
C335 N336 1.330 . S
C335 C337 1.446 . S
N336 Co295 2.151 . S
N336 C335 1.330 . S
N336 C340 1.418 . S
C337 H316 0.929 . S
C337 C335 1.446 . S
C337 C338 1.332 . S
C338 H318 0.931 . S
C338 C337 1.332 . S
C338 C339 1.267 . S
C339 H307 0.929 . S
C339 C338 1.267 . S
C339 C340 1.251 . S
C340 H310 0.929 . S
C340 N336 1.418 . S
C340 C339 1.251 . S
C341 H308 0.930 . S
C341 C343 1.406 . S
C341 C346 1.261 . S
C342 H309 0.930 . S
C342 N344 1.325 . S
C342 C345 1.357 . S
C343 H311 0.928 . S
C343 C341 1.406 . S
C343 N344 1.261 . S
N344 Co295 2.214 . S
N344 C342 1.325 . S
N344 C343 1.261 . S
C345 H315 0.931 . S
C345 C342 1.357 . S
C345 C346 1.312 . S
C346 H317 0.930 . S
C346 C341 1.261 . S
C346 C345 1.312 . S
C347 O319 1.214 . S
C347 O327 1.234 . S
C348 H320 0.929 . S
C348 C351 1.391 . S
C348 C353 1.391 . S
C349 H321 0.929 . S
C349 C350 1.390 . S
C349 N352 1.391 . S
C350 H322 0.930 . S
C350 C349 1.390 . S
C350 C351 1.392 . S
C351 H323 0.929 . S
C351 C348 1.391 . S
C351 C350 1.392 . S
N352 Co296 2.257 . S
N352 C349 1.391 . S
N352 C353 1.388 . S
C353 H324 0.930 . S
C353 C348 1.391 . S
C353 N352 1.388 . S
Co354 O356 2.143 . S
Co354 O362 2.074 . S
Co354 O365 2.093 . S
Co354 O378 2.097 . S
Co354 N395 2.151 . S
Co354 N403 2.214 . S
Co355 O356 2.160 . S
Co355 O361 2.058 . S
Co355 O371 2.057 . S
Co355 O386 2.037 . S
Co355 N390 2.145 . S
Co355 N411 2.257 . S
O356 Co354 2.143 . S
O356 Co355 2.160 . S
C357 O358 1.278 . S
C357 O365 1.224 . S
O358 C357 1.278 . S
C359 O360 1.245 . S
C359 O371 1.232 . S
O360 C359 1.245 . S
O361 Co355 2.058 . S
O361 C387 1.269 . S
O362 Co354 2.074 . S
O362 C387 1.257 . S
H363 C388 0.930 . S
H364 C394 0.930 . S
O365 Co354 2.093 . S
O365 C357 1.224 . S
H366 C398 0.929 . S
H367 C400 0.930 . S
H368 C401 0.930 . S
H369 C399 0.929 . S
H370 C402 0.928 . S
O371 Co355 2.057 . S
O371 C359 1.232 . S
H372 C391 0.929 . S
H373 C392 0.929 . S
H374 C404 0.931 . S
H375 C396 0.929 . S
H376 C405 0.930 . S
H377 C397 0.931 . S
O378 Co354 2.097 . S
O378 C406 1.214 . S
H379 C407 0.929 . S
H380 C408 0.929 . S
H381 C409 0.930 . S
H382 C410 0.929 . S
H383 C412 0.930 . S
H384 C389 0.930 . S
H385 C393 0.930 . S
O386 Co355 2.037 . S
O386 C406 1.234 . S
C387 O361 1.269 . S
C387 O362 1.257 . S
C388 H363 0.930 . S
C388 C391 1.388 . S
C388 C393 1.418 . S
C389 H384 0.930 . S
C389 C392 1.404 . S
C389 C393 1.353 . S
N390 Co355 2.145 . S
N390 C391 1.397 . S
N390 C392 1.334 . S
C391 H372 0.929 . S
C391 C388 1.388 . S
C391 N390 1.397 . S
C392 H373 0.929 . S
C392 C389 1.404 . S
C392 N390 1.334 . S
C393 H385 0.930 . S
C393 C388 1.418 . S
C393 C389 1.353 . S
C394 H364 0.930 . S
C394 N395 1.330 . S
C394 C396 1.446 . S
N395 Co354 2.151 . S
N395 C394 1.330 . S
N395 C399 1.418 . S
C396 H375 0.929 . S
C396 C394 1.446 . S
C396 C397 1.332 . S
C397 H377 0.931 . S
C397 C396 1.332 . S
C397 C398 1.267 . S
C398 H366 0.929 . S
C398 C397 1.267 . S
C398 C399 1.251 . S
C399 H369 0.929 . S
C399 N395 1.418 . S
C399 C398 1.251 . S
C400 H367 0.930 . S
C400 C402 1.406 . S
C400 C405 1.261 . S
C401 H368 0.930 . S
C401 N403 1.325 . S
C401 C404 1.357 . S
C402 H370 0.928 . S
C402 C400 1.406 . S
C402 N403 1.261 . S
N403 Co354 2.214 . S
N403 C401 1.325 . S
N403 C402 1.261 . S
C404 H374 0.931 . S
C404 C401 1.357 . S
C404 C405 1.312 . S
C405 H376 0.930 . S
C405 C400 1.261 . S
C405 C404 1.312 . S
C406 O378 1.214 . S
C406 O386 1.234 . S
C407 H379 0.929 . S
C407 C410 1.391 . S
C407 C412 1.391 . S
C408 H380 0.929 . S
C408 C409 1.390 . S
C408 N411 1.391 . S
C409 H381 0.930 . S
C409 C408 1.390 . S
C409 C410 1.392 . S
C410 H382 0.929 . S
C410 C407 1.391 . S
C410 C409 1.392 . S
N411 Co355 2.257 . S
N411 C408 1.391 . S
N411 C412 1.388 . S
C412 H383 0.930 . S
C412 C407 1.391 . S
C412 N411 1.388 . S
Co413 O415 2.143 . S
Co413 O421 2.074 . S
Co413 O424 2.093 . S
Co413 O437 2.097 . S
Co413 N454 2.151 . S
Co413 N462 2.214 . S
Co414 O415 2.160 . S
Co414 O420 2.058 . S
Co414 O430 2.057 . S
Co414 O445 2.037 . S
Co414 N449 2.145 . S
Co414 N470 2.257 . S
O415 Co413 2.143 . S
O415 Co414 2.160 . S
C416 O417 1.278 . S
C416 O424 1.224 . S
O417 C416 1.278 . S
C418 O419 1.245 . S
C418 O430 1.232 . S
O419 C418 1.245 . S
O420 Co414 2.058 . S
O420 C446 1.269 . S
O421 Co413 2.074 . S
O421 C446 1.257 . S
H422 C447 0.930 . S
H423 C453 0.930 . S
O424 Co413 2.093 . S
O424 C416 1.224 . S
H425 C457 0.929 . S
H426 C459 0.930 . S
H427 C460 0.930 . S
H428 C458 0.929 . S
H429 C461 0.928 . S
O430 Co414 2.057 . S
O430 C418 1.232 . S
H431 C450 0.929 . S
H432 C451 0.929 . S
H433 C463 0.931 . S
H434 C455 0.929 . S
H435 C464 0.930 . S
H436 C456 0.931 . S
O437 Co413 2.097 . S
O437 C465 1.214 . S
H438 C466 0.929 . S
H439 C467 0.929 . S
H440 C468 0.930 . S
H441 C469 0.929 . S
H442 C471 0.930 . S
H443 C448 0.930 . S
H444 C452 0.930 . S
O445 Co414 2.037 . S
O445 C465 1.234 . S
C446 O420 1.269 . S
C446 O421 1.257 . S
C447 H422 0.930 . S
C447 C450 1.388 . S
C447 C452 1.418 . S
C448 H443 0.930 . S
C448 C451 1.404 . S
C448 C452 1.353 . S
N449 Co414 2.145 . S
N449 C450 1.397 . S
N449 C451 1.334 . S
C450 H431 0.929 . S
C450 C447 1.388 . S
C450 N449 1.397 . S
C451 H432 0.929 . S
C451 C448 1.404 . S
C451 N449 1.334 . S
C452 H444 0.930 . S
C452 C447 1.418 . S
C452 C448 1.353 . S
C453 H423 0.930 . S
C453 N454 1.330 . S
C453 C455 1.446 . S
N454 Co413 2.151 . S
N454 C453 1.330 . S
N454 C458 1.418 . S
C455 H434 0.929 . S
C455 C453 1.446 . S
C455 C456 1.332 . S
C456 H436 0.931 . S
C456 C455 1.332 . S
C456 C457 1.267 . S
C457 H425 0.929 . S
C457 C456 1.267 . S
C457 C458 1.251 . S
C458 H428 0.929 . S
C458 N454 1.418 . S
C458 C457 1.251 . S
C459 H426 0.930 . S
C459 C461 1.406 . S
C459 C464 1.261 . S
C460 H427 0.930 . S
C460 N462 1.325 . S
C460 C463 1.357 . S
C461 H429 0.928 . S
C461 C459 1.406 . S
C461 N462 1.261 . S
N462 Co413 2.214 . S
N462 C460 1.325 . S
N462 C461 1.261 . S
C463 H433 0.931 . S
C463 C460 1.357 . S
C463 C464 1.312 . S
C464 H435 0.930 . S
C464 C459 1.261 . S
C464 C463 1.312 . S
C465 O437 1.214 . S
C465 O445 1.234 . S
C466 H438 0.929 . S
C466 C469 1.391 . S
C466 C471 1.391 . S
C467 H439 0.929 . S
C467 C468 1.390 . S
C467 N470 1.391 . S
C468 H440 0.930 . S
C468 C467 1.390 . S
C468 C469 1.392 . S
C469 H441 0.929 . S
C469 C466 1.391 . S
C469 C468 1.392 . S
N470 Co414 2.257 . S
N470 C467 1.391 . S
N470 C471 1.388 . S
C471 H442 0.930 . S
C471 C466 1.391 . S
C471 N470 1.388 . S
Co472 O474 2.143 . S
Co472 O480 2.074 . S
Co472 O483 2.093 . S
Co472 O496 2.097 . S
Co472 N513 2.151 . S
Co472 N521 2.214 . S
Co473 O474 2.160 . S
Co473 O479 2.058 . S
Co473 O489 2.057 . S
Co473 O504 2.037 . S
Co473 N508 2.145 . S
Co473 N529 2.257 . S
O474 Co472 2.143 . S
O474 Co473 2.160 . S
C475 O476 1.278 . S
C475 O483 1.224 . S
O476 C475 1.278 . S
C477 O478 1.245 . S
C477 O489 1.232 . S
O478 C477 1.245 . S
O479 Co473 2.058 . S
O479 C505 1.269 . S
O480 Co472 2.074 . S
O480 C505 1.257 . S
H481 C506 0.930 . S
H482 C512 0.930 . S
O483 Co472 2.093 . S
O483 C475 1.224 . S
H484 C516 0.929 . S
H485 C518 0.930 . S
H486 C519 0.930 . S
H487 C517 0.929 . S
H488 C520 0.928 . S
O489 Co473 2.057 . S
O489 C477 1.232 . S
H490 C509 0.929 . S
H491 C510 0.929 . S
H492 C522 0.931 . S
H493 C514 0.929 . S
H494 C523 0.930 . S
H495 C515 0.931 . S
O496 Co472 2.097 . S
O496 C524 1.214 . S
H497 C525 0.929 . S
H498 C526 0.929 . S
H499 C527 0.930 . S
H500 C528 0.929 . S
H501 C530 0.930 . S
H502 C507 0.930 . S
H503 C511 0.930 . S
O504 Co473 2.037 . S
O504 C524 1.234 . S
C505 O479 1.269 . S
C505 O480 1.257 . S
C506 H481 0.930 . S
C506 C509 1.388 . S
C506 C511 1.418 . S
C507 H502 0.930 . S
C507 C510 1.404 . S
C507 C511 1.353 . S
N508 Co473 2.145 . S
N508 C509 1.397 . S
N508 C510 1.334 . S
C509 H490 0.929 . S
C509 C506 1.388 . S
C509 N508 1.397 . S
C510 H491 0.929 . S
C510 C507 1.404 . S
C510 N508 1.334 . S
C511 H503 0.930 . S
C511 C506 1.418 . S
C511 C507 1.353 . S
C512 H482 0.930 . S
C512 N513 1.330 . S
C512 C514 1.446 . S
N513 Co472 2.151 . S
N513 C512 1.330 . S
N513 C517 1.418 . S
C514 H493 0.929 . S
C514 C512 1.446 . S
C514 C515 1.332 . S
C515 H495 0.931 . S
C515 C514 1.332 . S
C515 C516 1.267 . S
C516 H484 0.929 . S
C516 C515 1.267 . S
C516 C517 1.251 . S
C517 H487 0.929 . S
C517 N513 1.418 . S
C517 C516 1.251 . S
C518 H485 0.930 . S
C518 C520 1.406 . S
C518 C523 1.261 . S
C519 H486 0.930 . S
C519 N521 1.325 . S
C519 C522 1.357 . S
C520 H488 0.928 . S
C520 C518 1.406 . S
C520 N521 1.261 . S
N521 Co472 2.214 . S
N521 C519 1.325 . S
N521 C520 1.261 . S
C522 H492 0.931 . S
C522 C519 1.357 . S
C522 C523 1.312 . S
C523 H494 0.930 . S
C523 C518 1.261 . S
C523 C522 1.312 . S
C524 O496 1.214 . S
C524 O504 1.234 . S
C525 H497 0.929 . S
C525 C528 1.391 . S
C525 C530 1.391 . S
C526 H498 0.929 . S
C526 C527 1.390 . S
C526 N529 1.391 . S
C527 H499 0.930 . S
C527 C526 1.390 . S
C527 C528 1.392 . S
C528 H500 0.929 . S
C528 C525 1.391 . S
C528 C527 1.392 . S
N529 Co473 2.257 . S
N529 C526 1.391 . S
N529 C530 1.388 . S
C530 H501 0.930 . S
C530 C525 1.391 . S
C530 N529 1.388 . S
Co531 O533 2.143 . S
Co531 O539 2.074 . S
Co531 O542 2.093 . S
Co531 O555 2.097 . S
Co531 N572 2.151 . S
Co531 N580 2.214 . S
Co532 O533 2.160 . S
Co532 O538 2.058 . S
Co532 O548 2.057 . S
Co532 O563 2.037 . S
Co532 N567 2.145 . S
Co532 N588 2.257 . S
O533 Co531 2.143 . S
O533 Co532 2.160 . S
C534 O535 1.278 . S
C534 O542 1.224 . S
O535 C534 1.278 . S
C536 O537 1.245 . S
C536 O548 1.232 . S
O537 C536 1.245 . S
O538 Co532 2.058 . S
O538 C564 1.269 . S
O539 Co531 2.074 . S
O539 C564 1.257 . S
H540 C565 0.930 . S
H541 C571 0.930 . S
O542 Co531 2.093 . S
O542 C534 1.224 . S
H543 C575 0.929 . S
H544 C577 0.930 . S
H545 C578 0.930 . S
H546 C576 0.929 . S
H547 C579 0.928 . S
O548 Co532 2.057 . S
O548 C536 1.232 . S
H549 C568 0.929 . S
H550 C569 0.929 . S
H551 C581 0.931 . S
H552 C573 0.929 . S
H553 C582 0.930 . S
H554 C574 0.931 . S
O555 Co531 2.097 . S
O555 C583 1.214 . S
H556 C584 0.929 . S
H557 C585 0.929 . S
H558 C586 0.930 . S
H559 C587 0.929 . S
H560 C589 0.930 . S
H561 C566 0.930 . S
H562 C570 0.930 . S
O563 Co532 2.037 . S
O563 C583 1.234 . S
C564 O538 1.269 . S
C564 O539 1.257 . S
C565 H540 0.930 . S
C565 C568 1.388 . S
C565 C570 1.418 . S
C566 H561 0.930 . S
C566 C569 1.404 . S
C566 C570 1.353 . S
N567 Co532 2.145 . S
N567 C568 1.397 . S
N567 C569 1.334 . S
C568 H549 0.929 . S
C568 C565 1.388 . S
C568 N567 1.397 . S
C569 H550 0.929 . S
C569 C566 1.404 . S
C569 N567 1.334 . S
C570 H562 0.930 . S
C570 C565 1.418 . S
C570 C566 1.353 . S
C571 H541 0.930 . S
C571 N572 1.330 . S
C571 C573 1.446 . S
N572 Co531 2.151 . S
N572 C571 1.330 . S
N572 C576 1.418 . S
C573 H552 0.929 . S
C573 C571 1.446 . S
C573 C574 1.332 . S
C574 H554 0.931 . S
C574 C573 1.332 . S
C574 C575 1.267 . S
C575 H543 0.929 . S
C575 C574 1.267 . S
C575 C576 1.251 . S
C576 H546 0.929 . S
C576 N572 1.418 . S
C576 C575 1.251 . S
C577 H544 0.930 . S
C577 C579 1.406 . S
C577 C582 1.261 . S
C578 H545 0.930 . S
C578 N580 1.325 . S
C578 C581 1.357 . S
C579 H547 0.928 . S
C579 C577 1.406 . S
C579 N580 1.261 . S
N580 Co531 2.214 . S
N580 C578 1.325 . S
N580 C579 1.261 . S
C581 H551 0.931 . S
C581 C578 1.357 . S
C581 C582 1.312 . S
C582 H553 0.930 . S
C582 C577 1.261 . S
C582 C581 1.312 . S
C583 O555 1.214 . S
C583 O563 1.234 . S
C584 H556 0.929 . S
C584 C587 1.391 . S
C584 C589 1.391 . S
C585 H557 0.929 . S
C585 C586 1.390 . S
C585 N588 1.391 . S
C586 H558 0.930 . S
C586 C585 1.390 . S
C586 C587 1.392 . S
C587 H559 0.929 . S
C587 C584 1.391 . S
C587 C586 1.392 . S
N588 Co532 2.257 . S
N588 C585 1.391 . S
N588 C589 1.388 . S
C589 H560 0.930 . S
C589 C584 1.391 . S
C589 N588 1.388 . S
Co590 O592 2.143 . S
Co590 O598 2.074 . S
Co590 O601 2.093 . S
Co590 O614 2.097 . S
Co590 N631 2.151 . S
Co590 N639 2.214 . S
Co591 O592 2.160 . S
Co591 O597 2.058 . S
Co591 O607 2.057 . S
Co591 O622 2.037 . S
Co591 N626 2.145 . S
Co591 N647 2.257 . S
O592 Co590 2.143 . S
O592 Co591 2.160 . S
C593 O594 1.278 . S
C593 O601 1.224 . S
O594 C593 1.278 . S
C595 O596 1.245 . S
C595 O607 1.232 . S
O596 C595 1.245 . S
O597 Co591 2.058 . S
O597 C623 1.269 . S
O598 Co590 2.074 . S
O598 C623 1.257 . S
H599 C624 0.930 . S
H600 C630 0.930 . S
O601 Co590 2.093 . S
O601 C593 1.224 . S
H602 C634 0.929 . S
H603 C636 0.930 . S
H604 C637 0.930 . S
H605 C635 0.929 . S
H606 C638 0.928 . S
O607 Co591 2.057 . S
O607 C595 1.232 . S
H608 C627 0.929 . S
H609 C628 0.929 . S
H610 C640 0.931 . S
H611 C632 0.929 . S
H612 C641 0.930 . S
H613 C633 0.931 . S
O614 Co590 2.097 . S
O614 C642 1.214 . S
H615 C643 0.929 . S
H616 C644 0.929 . S
H617 C645 0.930 . S
H618 C646 0.929 . S
H619 C648 0.930 . S
H620 C625 0.930 . S
H621 C629 0.930 . S
O622 Co591 2.037 . S
O622 C642 1.234 . S
C623 O597 1.269 . S
C623 O598 1.257 . S
C624 H599 0.930 . S
C624 C627 1.388 . S
C624 C629 1.418 . S
C625 H620 0.930 . S
C625 C628 1.404 . S
C625 C629 1.353 . S
N626 Co591 2.145 . S
N626 C627 1.397 . S
N626 C628 1.334 . S
C627 H608 0.929 . S
C627 C624 1.388 . S
C627 N626 1.397 . S
C628 H609 0.929 . S
C628 C625 1.404 . S
C628 N626 1.334 . S
C629 H621 0.930 . S
C629 C624 1.418 . S
C629 C625 1.353 . S
C630 H600 0.930 . S
C630 N631 1.330 . S
C630 C632 1.446 . S
N631 Co590 2.151 . S
N631 C630 1.330 . S
N631 C635 1.418 . S
C632 H611 0.929 . S
C632 C630 1.446 . S
C632 C633 1.332 . S
C633 H613 0.931 . S
C633 C632 1.332 . S
C633 C634 1.267 . S
C634 H602 0.929 . S
C634 C633 1.267 . S
C634 C635 1.251 . S
C635 H605 0.929 . S
C635 N631 1.418 . S
C635 C634 1.251 . S
C636 H603 0.930 . S
C636 C638 1.406 . S
C636 C641 1.261 . S
C637 H604 0.930 . S
C637 N639 1.325 . S
C637 C640 1.357 . S
C638 H606 0.928 . S
C638 C636 1.406 . S
C638 N639 1.261 . S
N639 Co590 2.214 . S
N639 C637 1.325 . S
N639 C638 1.261 . S
C640 H610 0.931 . S
C640 C637 1.357 . S
C640 C641 1.312 . S
C641 H612 0.930 . S
C641 C636 1.261 . S
C641 C640 1.312 . S
C642 O614 1.214 . S
C642 O622 1.234 . S
C643 H615 0.929 . S
C643 C646 1.391 . S
C643 C648 1.391 . S
C644 H616 0.929 . S
C644 C645 1.390 . S
C644 N647 1.391 . S
C645 H617 0.930 . S
C645 C644 1.390 . S
C645 C646 1.392 . S
C646 H618 0.929 . S
C646 C643 1.391 . S
C646 C645 1.392 . S
N647 Co591 2.257 . S
N647 C644 1.391 . S
N647 C648 1.388 . S
C648 H619 0.930 . S
C648 C643 1.391 . S
C648 N647 1.388 . S
Co649 O651 2.143 . S
Co649 O657 2.074 . S
Co649 O660 2.093 . S
Co649 O673 2.097 . S
Co649 N690 2.151 . S
Co649 N698 2.214 . S
Co650 O651 2.160 . S
Co650 O656 2.058 . S
Co650 O666 2.057 . S
Co650 O681 2.037 . S
Co650 N685 2.145 . S
Co650 N706 2.257 . S
O651 Co649 2.143 . S
O651 Co650 2.160 . S
C652 O653 1.278 . S
C652 O660 1.224 . S
O653 C652 1.278 . S
C654 O655 1.245 . S
C654 O666 1.232 . S
O655 C654 1.245 . S
O656 Co650 2.058 . S
O656 C682 1.269 . S
O657 Co649 2.074 . S
O657 C682 1.257 . S
H658 C683 0.930 . S
H659 C689 0.930 . S
O660 Co649 2.093 . S
O660 C652 1.224 . S
H661 C693 0.929 . S
H662 C695 0.930 . S
H663 C696 0.930 . S
H664 C694 0.929 . S
H665 C697 0.928 . S
O666 Co650 2.057 . S
O666 C654 1.232 . S
H667 C686 0.929 . S
H668 C687 0.929 . S
H669 C699 0.931 . S
H670 C691 0.929 . S
H671 C700 0.930 . S
H672 C692 0.931 . S
O673 Co649 2.097 . S
O673 C701 1.214 . S
H674 C702 0.929 . S
H675 C703 0.929 . S
H676 C704 0.930 . S
H677 C705 0.929 . S
H678 C707 0.930 . S
H679 C684 0.930 . S
H680 C688 0.930 . S
O681 Co650 2.037 . S
O681 C701 1.234 . S
C682 O656 1.269 . S
C682 O657 1.257 . S
C683 H658 0.930 . S
C683 C686 1.388 . S
C683 C688 1.418 . S
C684 H679 0.930 . S
C684 C687 1.404 . S
C684 C688 1.353 . S
N685 Co650 2.145 . S
N685 C686 1.397 . S
N685 C687 1.334 . S
C686 H667 0.929 . S
C686 C683 1.388 . S
C686 N685 1.397 . S
C687 H668 0.929 . S
C687 C684 1.404 . S
C687 N685 1.334 . S
C688 H680 0.930 . S
C688 C683 1.418 . S
C688 C684 1.353 . S
C689 H659 0.930 . S
C689 N690 1.330 . S
C689 C691 1.446 . S
N690 Co649 2.151 . S
N690 C689 1.330 . S
N690 C694 1.418 . S
C691 H670 0.929 . S
C691 C689 1.446 . S
C691 C692 1.332 . S
C692 H672 0.931 . S
C692 C691 1.332 . S
C692 C693 1.267 . S
C693 H661 0.929 . S
C693 C692 1.267 . S
C693 C694 1.251 . S
C694 H664 0.929 . S
C694 N690 1.418 . S
C694 C693 1.251 . S
C695 H662 0.930 . S
C695 C697 1.406 . S
C695 C700 1.261 . S
C696 H663 0.930 . S
C696 N698 1.325 . S
C696 C699 1.357 . S
C697 H665 0.928 . S
C697 C695 1.406 . S
C697 N698 1.261 . S
N698 Co649 2.214 . S
N698 C696 1.325 . S
N698 C697 1.261 . S
C699 H669 0.931 . S
C699 C696 1.357 . S
C699 C700 1.312 . S
C700 H671 0.930 . S
C700 C695 1.261 . S
C700 C699 1.312 . S
C701 O673 1.214 . S
C701 O681 1.234 . S
C702 H674 0.929 . S
C702 C705 1.391 . S
C702 C707 1.391 . S
C703 H675 0.929 . S
C703 C704 1.390 . S
C703 N706 1.391 . S
C704 H676 0.930 . S
C704 C703 1.390 . S
C704 C705 1.392 . S
C705 H677 0.929 . S
C705 C702 1.391 . S
C705 C704 1.392 . S
N706 Co650 2.257 . S
N706 C703 1.391 . S
N706 C707 1.388 . S
C707 H678 0.930 . S
C707 C702 1.391 . S
C707 N706 1.388 . S
H708 C716 0.950 . S
H709 C721 0.950 . S
H710 C718 0.950 . S
H711 C720 0.950 . S
H712 C722 0.950 . S
H713 C724 0.950 . S
H714 C726 0.950 . S
H715 C727 0.950 . S
C716 H708 0.950 . S
C716 C717 1.386 . S
C716 C718 1.391 . S
C717 C716 1.386 . S
C717 C721 1.393 . S
C718 H710 0.950 . S
C718 C716 1.391 . S
C718 C719 1.400 . S
C719 C718 1.400 . S
C719 C720 1.398 . S
C719 C725 1.491 1_556 S
C720 H711 0.950 . S
C720 C719 1.398 . S
C720 C721 1.391 . S
C721 H709 0.950 . S
C721 C717 1.393 . S
C721 C720 1.391 . S
C722 H712 0.950 . S
C722 C723 1.386 . S
C722 C724 1.391 . S
C723 C722 1.386 . S
C723 C727 1.393 . S
C724 H713 0.950 . S
C724 C722 1.391 . S
C724 C725 1.400 . S
C725 C719 1.491 1_554 S
C725 C724 1.400 . S
C725 C726 1.398 . S
C726 H714 0.950 . S
C726 C725 1.398 . S
C726 C727 1.391 . S
C727 H715 0.950 . S
C727 C723 1.393 . S
C727 C726 1.391 . S
H728 C736 0.950 . S
H729 C741 0.950 . S
H730 C738 0.950 . S
H731 C740 0.950 . S
H732 C742 0.950 . S
H733 C744 0.950 . S
H734 C746 0.950 . S
H735 C747 0.950 . S
C736 H728 0.950 . S
C736 C737 1.386 . S
C736 C738 1.391 . S
C737 C736 1.386 . S
C737 C741 1.393 . S
C738 H730 0.950 . S
C738 C736 1.391 . S
C738 C739 1.400 . S
C739 C738 1.400 . S
C739 C740 1.398 . S
C739 C745 1.491 . S
C740 H731 0.950 . S
C740 C739 1.398 . S
C740 C741 1.391 . S
C741 H729 0.950 . S
C741 C737 1.393 . S
C741 C740 1.391 . S
C742 H732 0.950 . S
C742 C743 1.386 . S
C742 C744 1.391 . S
C743 C742 1.386 . S
C743 C747 1.393 . S
C744 H733 0.950 . S
C744 C742 1.391 . S
C744 C745 1.400 . S
C745 C739 1.491 . S
C745 C744 1.400 . S
C745 C746 1.398 . S
C746 H734 0.950 . S
C746 C745 1.398 . S
C746 C747 1.391 . S
C747 H735 0.950 . S
C747 C743 1.393 . S
C747 C746 1.391 . S
H748 C756 0.950 . S
H749 C761 0.950 . S
H750 C758 0.950 . S
H751 C760 0.950 . S
H752 C762 0.950 . S
H753 C764 0.950 . S
H754 C766 0.950 . S
H755 C767 0.950 . S
C756 H748 0.950 . S
C756 C757 1.386 . S
C756 C758 1.391 . S
C757 C756 1.386 . S
C757 C761 1.393 . S
C758 H750 0.950 . S
C758 C756 1.391 . S
C758 C759 1.400 . S
C759 C758 1.400 . S
C759 C760 1.398 . S
C759 C765 1.491 . S
C760 H751 0.950 . S
C760 C759 1.398 . S
C760 C761 1.391 . S
C761 H749 0.950 . S
C761 C757 1.393 . S
C761 C760 1.391 . S
C762 H752 0.950 . S
C762 C763 1.386 . S
C762 C764 1.391 . S
C763 C762 1.386 . S
C763 C767 1.393 . S
C764 H753 0.950 . S
C764 C762 1.391 . S
C764 C765 1.400 . S
C765 C759 1.491 . S
C765 C764 1.400 . S
C765 C766 1.398 . S
C766 H754 0.950 . S
C766 C765 1.398 . S
C766 C767 1.391 . S
C767 H755 0.950 . S
C767 C763 1.393 . S
C767 C766 1.391 . S
H768 C776 0.950 . S
H769 C781 0.950 . S
H770 C778 0.950 . S
H771 C780 0.950 . S
H772 C782 0.950 . S
H773 C784 0.950 . S
H774 C786 0.950 . S
H775 C787 0.950 . S
C776 H768 0.950 . S
C776 C777 1.386 . S
C776 C778 1.391 . S
C777 C776 1.386 . S
C777 C781 1.393 . S
C778 H770 0.950 . S
C778 C776 1.391 . S
C778 C779 1.400 . S
C779 C778 1.400 . S
C779 C780 1.398 . S
C779 C785 1.491 1_554 S
C780 H771 0.950 . S
C780 C779 1.398 . S
C780 C781 1.391 . S
C781 H769 0.950 . S
C781 C777 1.393 . S
C781 C780 1.391 . S
C782 H772 0.950 . S
C782 C783 1.386 . S
C782 C784 1.391 . S
C783 C782 1.386 . S
C783 C787 1.393 . S
C784 H773 0.950 . S
C784 C782 1.391 . S
C784 C785 1.400 . S
C785 C779 1.491 1_556 S
C785 C784 1.400 . S
C785 C786 1.398 . S
C786 H774 0.950 . S
C786 C785 1.398 . S
C786 C787 1.391 . S
C787 H775 0.950 . S
C787 C783 1.393 . S
C787 C786 1.391 . S
H788 C796 0.950 . S
H789 C801 0.950 . S
H790 C798 0.950 . S
H791 C800 0.950 . S
H792 C802 0.950 . S
H793 C804 0.950 . S
H794 C806 0.950 . S
H795 C807 0.950 . S
C796 H788 0.950 . S
C796 C797 1.386 . S
C796 C798 1.391 . S
C797 C796 1.386 . S
C797 C801 1.393 . S
C798 H790 0.950 . S
C798 C796 1.391 . S
C798 C799 1.400 . S
C799 C798 1.400 . S
C799 C800 1.398 . S
C799 C805 1.491 . S
C800 H791 0.950 . S
C800 C799 1.398 . S
C800 C801 1.391 . S
C801 H789 0.950 . S
C801 C797 1.393 . S
C801 C800 1.391 . S
C802 H792 0.950 . S
C802 C803 1.386 . S
C802 C804 1.391 . S
C803 C802 1.386 . S
C803 C807 1.393 . S
C804 H793 0.950 . S
C804 C802 1.391 . S
C804 C805 1.400 . S
C805 C799 1.491 . S
C805 C804 1.400 . S
C805 C806 1.398 . S
C806 H794 0.950 . S
C806 C805 1.398 . S
C806 C807 1.391 . S
C807 H795 0.950 . S
C807 C803 1.393 . S
C807 C806 1.391 . S
H808 C816 0.950 . S
H809 C821 0.950 . S
H810 C818 0.950 . S
H811 C820 0.950 . S
H812 C822 0.950 . S
H813 C824 0.950 . S
H814 C826 0.950 . S
H815 C827 0.950 . S
C816 H808 0.950 . S
C816 C817 1.386 . S
C816 C818 1.391 . S
C817 C816 1.386 . S
C817 C821 1.393 . S
C818 H810 0.950 . S
C818 C816 1.391 . S
C818 C819 1.400 . S
C819 C818 1.400 . S
C819 C820 1.398 . S
C819 C825 1.491 . S
C820 H811 0.950 . S
C820 C819 1.398 . S
C820 C821 1.391 . S
C821 H809 0.950 . S
C821 C817 1.393 . S
C821 C820 1.391 . S
C822 H812 0.950 . S
C822 C823 1.386 . S
C822 C824 1.391 . S
C823 C822 1.386 . S
C823 C827 1.393 . S
C824 H813 0.950 . S
C824 C822 1.391 . S
C824 C825 1.400 . S
C825 C819 1.491 . S
C825 C824 1.400 . S
C825 C826 1.398 . S
C826 H814 0.950 . S
C826 C825 1.398 . S
C826 C827 1.391 . S
C827 H815 0.950 . S
C827 C823 1.393 . S
C827 C826 1.391 . S
H828 C836 0.950 . S
H829 C841 0.950 . S
H830 C838 0.950 . S
H831 C840 0.950 . S
H832 C842 0.950 . S
H833 C844 0.950 . S
H834 C846 0.950 . S
H835 C847 0.950 . S
C836 H828 0.950 . S
C836 C837 1.386 . S
C836 C838 1.391 . S
C837 C836 1.386 . S
C837 C841 1.393 . S
C838 H830 0.950 . S
C838 C836 1.391 . S
C838 C839 1.400 . S
C839 C838 1.400 . S
C839 C840 1.398 . S
C839 C845 1.491 . S
C840 H831 0.950 . S
C840 C839 1.398 . S
C840 C841 1.391 . S
C841 H829 0.950 . S
C841 C837 1.393 . S
C841 C840 1.391 . S
C842 H832 0.950 . S
C842 C843 1.386 . S
C842 C844 1.391 . S
C843 C842 1.386 . S
C843 C847 1.393 . S
C844 H833 0.950 . S
C844 C842 1.391 . S
C844 C845 1.400 . S
C845 C839 1.491 . S
C845 C844 1.400 . S
C845 C846 1.398 . S
C846 H834 0.950 . S
C846 C845 1.398 . S
C846 C847 1.391 . S
C847 H835 0.950 . S
C847 C843 1.393 . S
C847 C846 1.391 . S
H848 C856 0.950 . S
H849 C861 0.950 . S
H850 C858 0.950 . S
H851 C860 0.950 . S
H852 C862 0.950 . S
H853 C864 0.950 . S
H854 C866 0.950 . S
H855 C867 0.950 . S
C856 H848 0.950 . S
C856 C857 1.386 . S
C856 C858 1.391 . S
C857 C856 1.386 . S
C857 C861 1.393 . S
C858 H850 0.950 . S
C858 C856 1.391 . S
C858 C859 1.400 . S
C859 C858 1.400 . S
C859 C860 1.398 . S
C859 C865 1.491 . S
C860 H851 0.950 . S
C860 C859 1.398 . S
C860 C861 1.391 . S
C861 H849 0.950 . S
C861 C857 1.393 . S
C861 C860 1.391 . S
C862 H852 0.950 . S
C862 C863 1.386 . S
C862 C864 1.391 . S
C863 C862 1.386 . S
C863 C867 1.393 . S
C864 H853 0.950 . S
C864 C862 1.391 . S
C864 C865 1.400 . S
C865 C859 1.491 . S
C865 C864 1.400 . S
C865 C866 1.398 . S
C866 H854 0.950 . S
C866 C865 1.398 . S
C866 C867 1.391 . S
C867 H855 0.950 . S
C867 C863 1.393 . S
C867 C866 1.391 . S
H868 C876 0.950 . S
H869 C881 0.950 . S
H870 C878 0.950 . S
H871 C880 0.950 . S
H872 C882 0.950 . S
H873 C884 0.950 . S
H874 C886 0.950 . S
H875 C887 0.950 . S
C876 H868 0.950 . S
C876 C877 1.386 . S
C876 C878 1.391 . S
C877 C876 1.386 . S
C877 C881 1.393 . S
C878 H870 0.950 . S
C878 C876 1.391 . S
C878 C879 1.400 . S
C879 C878 1.400 . S
C879 C880 1.398 . S
C879 C885 1.491 . S
C880 H871 0.950 . S
C880 C879 1.398 . S
C880 C881 1.391 . S
C881 H869 0.950 . S
C881 C877 1.393 . S
C881 C880 1.391 . S
C882 H872 0.950 . S
C882 C883 1.386 . S
C882 C884 1.391 . S
C883 C882 1.386 . S
C883 C887 1.393 . S
C884 H873 0.950 . S
C884 C882 1.391 . S
C884 C885 1.400 . S
C885 C879 1.491 . S
C885 C884 1.400 . S
C885 C886 1.398 . S
C886 H874 0.950 . S
C886 C885 1.398 . S
C886 C887 1.391 . S
C887 H875 0.950 . S
C887 C883 1.393 . S
C887 C886 1.391 . S
H888 C896 0.950 . S
H889 C901 0.950 . S
H890 C898 0.950 . S
H891 C900 0.950 . S
H892 C902 0.950 . S
H893 C904 0.950 . S
H894 C906 0.950 . S
H895 C907 0.950 . S
C896 H888 0.950 . S
C896 C897 1.386 . S
C896 C898 1.391 . S
C897 C896 1.386 . S
C897 C901 1.393 . S
C898 H890 0.950 . S
C898 C896 1.391 . S
C898 C899 1.400 . S
C899 C898 1.400 . S
C899 C900 1.398 . S
C899 C905 1.491 . S
C900 H891 0.950 . S
C900 C899 1.398 . S
C900 C901 1.391 . S
C901 H889 0.950 . S
C901 C897 1.393 . S
C901 C900 1.391 . S
C902 H892 0.950 . S
C902 C903 1.386 . S
C902 C904 1.391 . S
C903 C902 1.386 . S
C903 C907 1.393 . S
C904 H893 0.950 . S
C904 C902 1.391 . S
C904 C905 1.400 . S
C905 C899 1.491 . S
C905 C904 1.400 . S
C905 C906 1.398 . S
C906 H894 0.950 . S
C906 C905 1.398 . S
C906 C907 1.391 . S
C907 H895 0.950 . S
C907 C903 1.393 . S
C907 C906 1.391 . S
H908 C916 0.950 . S
H909 C921 0.950 . S
H910 C918 0.950 . S
H911 C920 0.950 . S
H912 C922 0.950 . S
H913 C924 0.950 . S
H914 C926 0.950 . S
H915 C927 0.950 . S
C916 H908 0.950 . S
C916 C917 1.386 . S
C916 C918 1.391 . S
C917 C916 1.386 . S
C917 C921 1.393 . S
C918 H910 0.950 . S
C918 C916 1.391 . S
C918 C919 1.400 . S
C919 C918 1.400 . S
C919 C920 1.398 . S
C919 C925 1.491 . S
C920 H911 0.950 . S
C920 C919 1.398 . S
C920 C921 1.391 . S
C921 H909 0.950 . S
C921 C917 1.393 . S
C921 C920 1.391 . S
C922 H912 0.950 . S
C922 C923 1.386 . S
C922 C924 1.391 . S
C923 C922 1.386 . S
C923 C927 1.393 . S
C924 H913 0.950 . S
C924 C922 1.391 . S
C924 C925 1.400 . S
C925 C919 1.491 . S
C925 C924 1.400 . S
C925 C926 1.398 . S
C926 H914 0.950 . S
C926 C925 1.398 . S
C926 C927 1.391 . S
C927 H915 0.950 . S
C927 C923 1.393 . S
C927 C926 1.391 . S
H928 C936 0.950 . S
H929 C941 0.950 . S
H930 C938 0.950 . S
H931 C940 0.950 . S
H932 C942 0.950 . S
H933 C944 0.950 . S
H934 C946 0.950 . S
H935 C947 0.950 . S
C936 H928 0.950 . S
C936 C937 1.386 . S
C936 C938 1.391 . S
C937 C936 1.386 . S
C937 C941 1.393 . S
C938 H930 0.950 . S
C938 C936 1.391 . S
C938 C939 1.400 . S
C939 C938 1.400 . S
C939 C940 1.398 . S
C939 C945 1.491 . S
C940 H931 0.950 . S
C940 C939 1.398 . S
C940 C941 1.391 . S
C941 H929 0.950 . S
C941 C937 1.393 . S
C941 C940 1.391 . S
C942 H932 0.950 . S
C942 C943 1.386 . S
C942 C944 1.391 . S
C943 C942 1.386 . S
C943 C947 1.393 . S
C944 H933 0.950 . S
C944 C942 1.391 . S
C944 C945 1.400 . S
C945 C939 1.491 . S
C945 C944 1.400 . S
C945 C946 1.398 . S
C946 H934 0.950 . S
C946 C945 1.398 . S
C946 C947 1.391 . S
C947 H935 0.950 . S
C947 C943 1.393 . S
C947 C946 1.391 . S
H948 C956 0.950 . S
H949 C961 0.950 . S
H950 C958 0.950 . S
H951 C960 0.950 . S
H952 C962 0.950 . S
H953 C964 0.950 . S
H954 C966 0.950 . S
H955 C967 0.950 . S
C956 H948 0.950 . S
C956 C957 1.386 . S
C956 C958 1.391 . S
C957 C956 1.386 . S
C957 C961 1.393 . S
C958 H950 0.950 . S
C958 C956 1.391 . S
C958 C959 1.400 . S
C959 C958 1.400 . S
C959 C960 1.398 . S
C959 C965 1.491 1_655 S
C960 H951 0.950 . S
C960 C959 1.398 . S
C960 C961 1.391 . S
C961 H949 0.950 . S
C961 C957 1.393 . S
C961 C960 1.391 . S
C962 H952 0.950 . S
C962 C963 1.386 . S
C962 C964 1.391 . S
C963 C962 1.386 . S
C963 C967 1.393 . S
C964 H953 0.950 . S
C964 C962 1.391 . S
C964 C965 1.400 . S
C965 C959 1.491 1_455 S
C965 C964 1.400 . S
C965 C966 1.398 . S
C966 H954 0.950 . S
C966 C965 1.398 . S
C966 C967 1.391 . S
C967 H955 0.950 . S
C967 C963 1.393 . S
C967 C966 1.391 . S
H968 C976 0.950 . S
H969 C981 0.950 . S
H970 C978 0.950 . S
H971 C980 0.950 . S
H972 C982 0.950 . S
H973 C984 0.950 . S
H974 C986 0.950 . S
H975 C987 0.950 . S
C976 H968 0.950 . S
C976 C977 1.386 . S
C976 C978 1.391 . S
C977 C976 1.386 . S
C977 C981 1.393 . S
C978 H970 0.950 . S
C978 C976 1.391 . S
C978 C979 1.400 . S
C979 C978 1.400 . S
C979 C980 1.398 . S
C979 C985 1.491 1_545 S
C980 H971 0.950 . S
C980 C979 1.398 . S
C980 C981 1.391 . S
C981 H969 0.950 . S
C981 C977 1.393 . S
C981 C980 1.391 . S
C982 H972 0.950 . S
C982 C983 1.386 . S
C982 C984 1.391 . S
C983 C982 1.386 . S
C983 C987 1.393 . S
C984 H973 0.950 . S
C984 C982 1.391 . S
C984 C985 1.400 . S
C985 C979 1.491 1_565 S
C985 C984 1.400 . S
C985 C986 1.398 . S
C986 H974 0.950 . S
C986 C985 1.398 . S
C986 C987 1.391 . S
C987 H975 0.950 . S
C987 C983 1.393 . S
C987 C986 1.391 . S
H988 C996 0.950 . S
H989 C1001 0.950 . S
H990 C998 0.950 . S
H991 C1000 0.950 . S
H992 C1002 0.950 . S
H993 C1004 0.950 . S
H994 C1006 0.950 . S
H995 C1007 0.950 . S
C996 H988 0.950 . S
C996 C997 1.386 . S
C996 C998 1.391 . S
C997 C996 1.386 . S
C997 C1001 1.393 . S
C998 H990 0.950 . S
C998 C996 1.391 . S
C998 C999 1.400 . S
C999 C998 1.400 . S
C999 C1000 1.398 . S
C999 C1005 1.491 . S
C1000 H991 0.950 . S
C1000 C999 1.398 . S
C1000 C1001 1.391 . S
C1001 H989 0.950 . S
C1001 C997 1.393 . S
C1001 C1000 1.391 . S
C1002 H992 0.950 . S
C1002 C1003 1.386 . S
C1002 C1004 1.391 . S
C1003 C1002 1.386 . S
C1003 C1007 1.393 . S
C1004 H993 0.950 . S
C1004 C1002 1.391 . S
C1004 C1005 1.400 . S
C1005 C999 1.491 . S
C1005 C1004 1.400 . S
C1005 C1006 1.398 . S
C1006 H994 0.950 . S
C1006 C1005 1.398 . S
C1006 C1007 1.391 . S
C1007 H995 0.950 . S
C1007 C1003 1.393 . S
C1007 C1006 1.391 . S
H1008 C1016 0.950 . S
H1009 C1021 0.950 . S
H1010 C1018 0.950 . S
H1011 C1020 0.950 . S
H1012 C1022 0.950 . S
H1013 C1024 0.950 . S
H1014 C1026 0.950 . S
H1015 C1027 0.950 . S
C1016 H1008 0.950 . S
C1016 C1017 1.386 . S
C1016 C1018 1.391 . S
C1017 C1016 1.386 . S
C1017 C1021 1.393 . S
C1018 H1010 0.950 . S
C1018 C1016 1.391 . S
C1018 C1019 1.400 . S
C1019 C1018 1.400 . S
C1019 C1020 1.398 . S
C1019 C1025 1.491 1_545 S
C1020 H1011 0.950 . S
C1020 C1019 1.398 . S
C1020 C1021 1.391 . S
C1021 H1009 0.950 . S
C1021 C1017 1.393 . S
C1021 C1020 1.391 . S
C1022 H1012 0.950 . S
C1022 C1023 1.386 . S
C1022 C1024 1.391 . S
C1023 C1022 1.386 . S
C1023 C1027 1.393 . S
C1024 H1013 0.950 . S
C1024 C1022 1.391 . S
C1024 C1025 1.400 . S
C1025 C1019 1.491 1_565 S
C1025 C1024 1.400 . S
C1025 C1026 1.398 . S
C1026 H1014 0.950 . S
C1026 C1025 1.398 . S
C1026 C1027 1.391 . S
C1027 H1015 0.950 . S
C1027 C1023 1.393 . S
C1027 C1026 1.391 . S
H1028 C1036 0.950 . S
H1029 C1041 0.950 . S
H1030 C1038 0.950 . S
H1031 C1040 0.950 . S
H1032 C1042 0.950 . S
H1033 C1044 0.950 . S
H1034 C1046 0.950 . S
H1035 C1047 0.950 . S
C1036 H1028 0.950 . S
C1036 C1037 1.386 . S
C1036 C1038 1.391 . S
C1037 C1036 1.386 . S
C1037 C1041 1.393 . S
C1038 H1030 0.950 . S
C1038 C1036 1.391 . S
C1038 C1039 1.400 . S
C1039 C1038 1.400 . S
C1039 C1040 1.398 . S
C1039 C1045 1.491 . S
C1040 H1031 0.950 . S
C1040 C1039 1.398 . S
C1040 C1041 1.391 . S
C1041 H1029 0.950 . S
C1041 C1037 1.393 . S
C1041 C1040 1.391 . S
C1042 H1032 0.950 . S
C1042 C1043 1.386 . S
C1042 C1044 1.391 . S
C1043 C1042 1.386 . S
C1043 C1047 1.393 . S
C1044 H1033 0.950 . S
C1044 C1042 1.391 . S
C1044 C1045 1.400 . S
C1045 C1039 1.491 . S
C1045 C1044 1.400 . S
C1045 C1046 1.398 . S
C1046 H1034 0.950 . S
C1046 C1045 1.398 . S
C1046 C1047 1.391 . S
C1047 H1035 0.950 . S
C1047 C1043 1.393 . S
C1047 C1046 1.391 . S
H1048 C1056 0.950 . S
H1049 C1061 0.950 . S
H1050 C1058 0.950 . S
H1051 C1060 0.950 . S
H1052 C1062 0.950 . S
H1053 C1064 0.950 . S
H1054 C1066 0.950 . S
H1055 C1067 0.950 . S
C1056 H1048 0.950 . S
C1056 C1057 1.386 . S
C1056 C1058 1.391 . S
C1057 C1056 1.386 . S
C1057 C1061 1.393 . S
C1058 H1050 0.950 . S
C1058 C1056 1.391 . S
C1058 C1059 1.400 . S
C1059 C1058 1.400 . S
C1059 C1060 1.398 . S
C1059 C1065 1.491 1_455 S
C1060 H1051 0.950 . S
C1060 C1059 1.398 . S
C1060 C1061 1.391 . S
C1061 H1049 0.950 . S
C1061 C1057 1.393 . S
C1061 C1060 1.391 . S
C1062 H1052 0.950 . S
C1062 C1063 1.386 . S
C1062 C1064 1.391 . S
C1063 C1062 1.386 . S
C1063 C1067 1.393 . S
C1064 H1053 0.950 . S
C1064 C1062 1.391 . S
C1064 C1065 1.400 . S
C1065 C1059 1.491 1_655 S
C1065 C1064 1.400 . S
C1065 C1066 1.398 . S
C1066 H1054 0.950 . S
C1066 C1065 1.398 . S
C1066 C1067 1.391 . S
C1067 H1055 0.950 . S
C1067 C1063 1.393 . S
C1067 C1066 1.391 . S
H1068 C1076 0.950 . S
H1069 C1081 0.950 . S
H1070 C1078 0.950 . S
H1071 C1080 0.950 . S
H1072 C1082 0.950 . S
H1073 C1084 0.950 . S
H1074 C1086 0.950 . S
H1075 C1087 0.950 . S
C1076 H1068 0.950 . S
C1076 C1077 1.386 . S
C1076 C1078 1.391 . S
C1077 C1076 1.386 . S
C1077 C1081 1.393 . S
C1078 H1070 0.950 . S
C1078 C1076 1.391 . S
C1078 C1079 1.400 . S
C1079 C1078 1.400 . S
C1079 C1080 1.398 . S
C1079 C1085 1.491 . S
C1080 H1071 0.950 . S
C1080 C1079 1.398 . S
C1080 C1081 1.391 . S
C1081 H1069 0.950 . S
C1081 C1077 1.393 . S
C1081 C1080 1.391 . S
C1082 H1072 0.950 . S
C1082 C1083 1.386 . S
C1082 C1084 1.391 . S
C1083 C1082 1.386 . S
C1083 C1087 1.393 . S
C1084 H1073 0.950 . S
C1084 C1082 1.391 . S
C1084 C1085 1.400 . S
C1085 C1079 1.491 . S
C1085 C1084 1.400 . S
C1085 C1086 1.398 . S
C1086 H1074 0.950 . S
C1086 C1085 1.398 . S
C1086 C1087 1.391 . S
C1087 H1075 0.950 . S
C1087 C1083 1.393 . S
C1087 C1086 1.391 . S
H1088 C1096 0.950 . S
H1089 C1101 0.950 . S
H1090 C1098 0.950 . S
H1091 C1100 0.950 . S
H1092 C1102 0.950 . S
H1093 C1104 0.950 . S
H1094 C1106 0.950 . S
H1095 C1107 0.950 . S
C1096 H1088 0.950 . S
C1096 C1097 1.386 . S
C1096 C1098 1.391 . S
C1097 C1096 1.386 . S
C1097 C1101 1.393 . S
C1098 H1090 0.950 . S
C1098 C1096 1.391 . S
C1098 C1099 1.400 . S
C1099 C1098 1.400 . S
C1099 C1100 1.398 . S
C1099 C1105 1.491 1_655 S
C1100 H1091 0.950 . S
C1100 C1099 1.398 . S
C1100 C1101 1.391 . S
C1101 H1089 0.950 . S
C1101 C1097 1.393 . S
C1101 C1100 1.391 . S
C1102 H1092 0.950 . S
C1102 C1103 1.386 . S
C1102 C1104 1.391 . S
C1103 C1102 1.386 . S
C1103 C1107 1.393 . S
C1104 H1093 0.950 . S
C1104 C1102 1.391 . S
C1104 C1105 1.400 . S
C1105 C1099 1.491 1_455 S
C1105 C1104 1.400 . S
C1105 C1106 1.398 . S
C1106 H1094 0.950 . S
C1106 C1105 1.398 . S
C1106 C1107 1.391 . S
C1107 H1095 0.950 . S
C1107 C1103 1.393 . S
C1107 C1106 1.391 . S
H1108 C1116 0.950 . S
H1109 C1121 0.950 . S
H1110 C1118 0.950 . S
H1111 C1120 0.950 . S
H1112 C1122 0.950 . S
H1113 C1124 0.950 . S
H1114 C1126 0.950 . S
H1115 C1127 0.950 . S
C1116 H1108 0.950 . S
C1116 C1117 1.386 . S
C1116 C1118 1.391 . S
C1117 C1116 1.386 . S
C1117 C1121 1.393 . S
C1118 H1110 0.950 . S
C1118 C1116 1.391 . S
C1118 C1119 1.400 . S
C1119 C1118 1.400 . S
C1119 C1120 1.398 . S
C1119 C1125 1.491 1_545 S
C1120 H1111 0.950 . S
C1120 C1119 1.398 . S
C1120 C1121 1.391 . S
C1121 H1109 0.950 . S
C1121 C1117 1.393 . S
C1121 C1120 1.391 . S
C1122 H1112 0.950 . S
C1122 C1123 1.386 . S
C1122 C1124 1.391 . S
C1123 C1122 1.386 . S
C1123 C1127 1.393 . S
C1124 H1113 0.950 . S
C1124 C1122 1.391 . S
C1124 C1125 1.400 . S
C1125 C1119 1.491 1_565 S
C1125 C1124 1.400 . S
C1125 C1126 1.398 . S
C1126 H1114 0.950 . S
C1126 C1125 1.398 . S
C1126 C1127 1.391 . S
C1127 H1115 0.950 . S
C1127 C1123 1.393 . S
C1127 C1126 1.391 . S
H1128 C1136 0.950 . S
H1129 C1141 0.950 . S
H1130 C1138 0.950 . S
H1131 C1140 0.950 . S
H1132 C1142 0.950 . S
H1133 C1144 0.950 . S
H1134 C1146 0.950 . S
H1135 C1147 0.950 . S
C1136 H1128 0.950 . S
C1136 C1137 1.386 . S
C1136 C1138 1.391 . S
C1137 C1136 1.386 . S
C1137 C1141 1.393 . S
C1138 H1130 0.950 . S
C1138 C1136 1.391 . S
C1138 C1139 1.400 . S
C1139 C1138 1.400 . S
C1139 C1140 1.398 . S
C1139 C1145 1.491 . S
C1140 H1131 0.950 . S
C1140 C1139 1.398 . S
C1140 C1141 1.391 . S
C1141 H1129 0.950 . S
C1141 C1137 1.393 . S
C1141 C1140 1.391 . S
C1142 H1132 0.950 . S
C1142 C1143 1.386 . S
C1142 C1144 1.391 . S
C1143 C1142 1.386 . S
C1143 C1147 1.393 . S
C1144 H1133 0.950 . S
C1144 C1142 1.391 . S
C1144 C1145 1.400 . S
C1145 C1139 1.491 . S
C1145 C1144 1.400 . S
C1145 C1146 1.398 . S
C1146 H1134 0.950 . S
C1146 C1145 1.398 . S
C1146 C1147 1.391 . S
C1147 H1135 0.950 . S
C1147 C1143 1.393 . S
C1147 C1146 1.391 . S
H1148 C1156 0.950 . S
H1149 C1161 0.950 . S
H1150 C1158 0.950 . S
H1151 C1160 0.950 . S
H1152 C1162 0.950 . S
H1153 C1164 0.950 . S
H1154 C1166 0.950 . S
H1155 C1167 0.950 . S
C1156 H1148 0.950 . S
C1156 C1157 1.386 . S
C1156 C1158 1.391 . S
C1157 C1156 1.386 . S
C1157 C1161 1.393 . S
C1158 H1150 0.950 . S
C1158 C1156 1.391 . S
C1158 C1159 1.400 . S
C1159 C1158 1.400 . S
C1159 C1160 1.398 . S
C1159 C1165 1.491 1_455 S
C1160 H1151 0.950 . S
C1160 C1159 1.398 . S
C1160 C1161 1.391 . S
C1161 H1149 0.950 . S
C1161 C1157 1.393 . S
C1161 C1160 1.391 . S
C1162 H1152 0.950 . S
C1162 C1163 1.386 . S
C1162 C1164 1.391 . S
C1163 C1162 1.386 . S
C1163 C1167 1.393 . S
C1164 H1153 0.950 . S
C1164 C1162 1.391 . S
C1164 C1165 1.400 . S
C1165 C1159 1.491 1_655 S
C1165 C1164 1.400 . S
C1165 C1166 1.398 . S
C1166 H1154 0.950 . S
C1166 C1165 1.398 . S
C1166 C1167 1.391 . S
C1167 H1155 0.950 . S
C1167 C1163 1.393 . S
C1167 C1166 1.391 . S
H1168 C1176 0.950 . S
H1169 C1181 0.950 . S
H1170 C1178 0.950 . S
H1171 C1180 0.950 . S
H1172 C1182 0.950 . S
H1173 C1184 0.950 . S
H1174 C1186 0.950 . S
H1175 C1187 0.950 . S
C1176 H1168 0.950 . S
C1176 C1177 1.386 . S
C1176 C1178 1.391 . S
C1177 C1176 1.386 . S
C1177 C1181 1.393 . S
C1178 H1170 0.950 . S
C1178 C1176 1.391 . S
C1178 C1179 1.400 . S
C1179 C1178 1.400 . S
C1179 C1180 1.398 . S
C1179 C1185 1.491 1_565 S
C1180 H1171 0.950 . S
C1180 C1179 1.398 . S
C1180 C1181 1.391 . S
C1181 H1169 0.950 . S
C1181 C1177 1.393 . S
C1181 C1180 1.391 . S
C1182 H1172 0.950 . S
C1182 C1183 1.386 . S
C1182 C1184 1.391 . S
C1183 C1182 1.386 . S
C1183 C1187 1.393 . S
C1184 H1173 0.950 . S
C1184 C1182 1.391 . S
C1184 C1185 1.400 . S
C1185 C1179 1.491 1_545 S
C1185 C1184 1.400 . S
C1185 C1186 1.398 . S
C1186 H1174 0.950 . S
C1186 C1185 1.398 . S
C1186 C1187 1.391 . S
C1187 H1175 0.950 . S
C1187 C1183 1.393 . S
C1187 C1186 1.391 . S
C717 C593 1.378 . S
C723 C3 1.393 . S
C737 C62 1.393 . S
C743 C652 1.378 . S
C757 C121 1.384 . S
C763 C357 1.382 . S
C777 C180 1.378 . S
C783 C416 1.392 . S
C797 C475 1.386 . S
C803 C239 1.392 . S
C817 C298 1.385 . S
C823 C534 1.381 . S
C837 C505 1.283 . S
C843 C33 1.289 . S
C857 C92 1.271 . S
C863 C564 1.266 . S
C877 C151 1.267 . S
C883 C623 1.266 . S
C897 C210 1.272 . S
C903 C682 1.266 . S
C917 C387 1.265 . S
C923 C269 1.269 . S
C937 C446 1.268 . S
C943 C328 1.276 . S
C957 C229 1.666 . S
C963 C52 1.664 . S
C977 C111 1.665 . S
C983 C288 1.665 . S
C997 C347 1.664 . S
C1003 C170 1.666 . S
C1017 C583 1.669 . S
C1023 C406 1.662 . S
C1037 C642 1.664 . S
C1043 C465 1.667 . S
C1057 C524 1.664 . S
C1063 C701 1.666 . S
C1077 C182 1.289 . S
C1083 C5 1.287 . S
C1097 C64 1.284 . S
C1103 C241 1.283 . S
C1117 C300 1.287 . S
C1123 C123 1.289 . S
C1137 C359 1.289 . S
C1143 C536 1.289 . S
C1157 C595 1.287 . S
C1163 C418 1.289 . S
C1177 C477 1.288 . S
C1183 C654 1.289 . S
