# Generated by pormake.
# Topology lon, (4)-cn, num edge types: 1
# Building blocks:
#     Node 0, Type 0, BuildingBlock: UXUYUI_clean_sbu_0, # of connection points: 4
#     Node 1, Type 0, BuildingBlock: UXUYUI_clean_sbu_0, # of connection points: 4
#     Node 2, Type 0, BuildingBlock: UXUYUI_clean_sbu_0, # of connection points: 4
#     Node 3, Type 0, BuildingBlock: UXUYUI_clean_sbu_0, # of connection points: 4
#     Edge 4, Type (0, 0), BuildingBlock: ZUJKAS_clean_linker_0, # of connection points: 2
#     Edge 5, Type (0, 0), BuildingBlock: ZUJKAS_clean_linker_0, # of connection points: 2
#     Edge 6, Type (0, 0), BuildingBlock: ZUJKAS_clean_linker_0, # of connection points: 2
#     Edge 7, Type (0, 0), BuildingBlock: ZUJKAS_clean_linker_0, # of connection points: 2
#     Edge 8, Type (0, 0), BuildingBlock: ZUJKAS_clean_linker_0, # of connection points: 2
#     Edge 9, Type (0, 0), BuildingBlock: ZUJKAS_clean_linker_0, # of connection points: 2
#     Edge 10, Type (0, 0), BuildingBlock: ZUJKAS_clean_linker_0, # of connection points: 2
#     Edge 11, Type (0, 0), BuildingBlock: ZUJKAS_clean_linker_0, # of connection points: 2
# Relax obj value: 0.000
# Max RMSD: 0.004
# Mean RMSD: 0.003
data_MOF--net-lon--node1-UXUYUI_clean_sbu_0--edge1-ZUJKAS_clean_linker_0
_symmetry_space_group_name_H-M    P1
_symmetry_Int_Tables_number       1
_symmetry_cell_setting            triclinic
loop_
_symmetry_equiv_pos_as_xyz
'x, y, z'
_cell_length_a     43.838129
_cell_length_b     43.793537
_cell_length_c     71.540771
_cell_angle_alpha  90.23117
_cell_angle_beta   89.936514
_cell_angle_gamma 120.05821
loop_
_atom_site_label
_atom_site_type_symbol
_atom_site_fract_x
_atom_site_fract_y
_atom_site_fract_z
_atom_type_partial_charge
Li0 Li 0.34374 0.67481 0.09094 0.0
Li1 Li 0.36151 0.65378 0.06341 0.0
Li2 Li 0.36209 0.71177 0.06355 0.0
Li3 Li 0.3058 0.65562 0.06199 0.0
C4 C 0.41351 0.70609 0.09319 0.0
N5 N 0.45824 0.72313 0.12349 0.0
C6 C 0.42965 0.68623 0.09706 0.0
C7 C 0.42041 0.73485 0.10459 0.0
C8 C 0.45214 0.69523 0.11248 0.0
C9 C 0.443 0.74295 0.11989 0.0
C10 C 0.30212 0.59159 0.07903 0.0
C11 C 0.26783 0.5354 0.06355 0.0
N12 N 0.2689 0.51877 0.07934 0.0
C13 C 0.30252 0.57392 0.09518 0.0
C14 C 0.28435 0.57217 0.06314 0.0
C15 C 0.28573 0.53711 0.09502 0.0
C16 C 0.32846 0.69052 0.12708 0.0
N17 N 0.34304 0.67403 0.11762 0.0
C18 C 0.35773 0.65657 0.14629 0.0
C19 C 0.35723 0.65695 0.12678 0.0
C20 C 0.34304 0.67355 0.15652 0.0
C21 C 0.32813 0.69059 0.14661 0.0
H22 H 0.31691 0.7035 0.11947 0.0
H23 H 0.36841 0.64379 0.11892 0.0
C24 C 0.40636 0.64298 0.03952 0.0
N25 N 0.38532 0.62994 0.0548 0.0
C26 C 0.42436 0.62652 0.03261 0.0
C27 C 0.39914 0.5838 0.05748 0.0
C28 C 0.38176 0.60118 0.06394 0.0
C29 C 0.42079 0.59637 0.04158 0.0
H30 H 0.40916 0.66625 0.03269 0.0
H31 H 0.36563 0.59178 0.07631 0.0
C32 C 0.31407 0.72526 0.07835 0.0
N33 N 0.30569 0.78366 0.07681 0.0
C34 C 0.28761 0.72468 0.06721 0.0
C35 C 0.33601 0.75538 0.08886 0.0
C36 C 0.28384 0.75451 0.06659 0.0
C37 C 0.33145 0.78469 0.08784 0.0
C38 C 0.33848 0.66472 0.0255 0.0
C39 C 0.34055 0.68867 0.012 0.0
C40 C 0.3299 0.63063 0.02008 0.0
C41 C 0.3333 0.67787 0.99334 0.0
C42 C 0.32288 0.62085 1.00129 0.0
N43 N 0.32465 0.64446 0.98841 0.0
C44 C 0.42069 0.78065 0.05924 0.0
C45 C 0.36881 0.77088 0.04371 0.0
C46 C 0.43881 0.81559 0.05309 0.0
N47 N 0.38627 0.75919 0.05458 0.0
C48 C 0.38578 0.8057 0.03743 0.0
C49 C 0.42125 0.82857 0.04213 0.0
H50 H 0.43408 0.77064 0.06775 0.0
H51 H 0.34163 0.75315 0.03995 0.0
C52 C 0.23261 0.61107 0.06525 0.0
N53 N 0.25834 0.63212 0.05304 0.0
C54 C 0.19734 0.59301 0.05961 0.0
C55 C 0.21565 0.61879 0.02896 0.0
C56 C 0.25051 0.63654 0.03524 0.0
C57 C 0.1884 0.5966 0.0412 0.0
H58 H 0.23955 0.60836 0.07941 0.0
H59 H 0.27119 0.65392 0.02587 0.0
O60 O 0.39105 0.69738 0.07832 0.0
O61 O 0.31843 0.62765 0.079 0.0
O62 O 0.3184 0.69646 0.07897 0.0
O63 O 0.34554 0.67496 0.04384 0.0
H64 H 0.42469 0.66396 0.08835 0.0
H65 H 0.40822 0.75055 0.10174 0.0
H66 H 0.46467 0.67998 0.11571 0.0
H67 H 0.44838 0.76498 0.12891 0.0
H68 H 0.25403 0.52007 0.05133 0.0
H69 H 0.3158 0.58847 0.10767 0.0
H70 H 0.2829 0.58525 0.0507 0.0
H71 H 0.28604 0.52312 0.10738 0.0
H72 H 0.36992 0.64348 0.15325 0.0
H73 H 0.31591 0.70346 0.15385 0.0
H74 H 0.44124 0.6376 0.02054 0.0
H75 H 0.39531 0.56053 0.06479 0.0
H76 H 0.27033 0.70154 0.05903 0.0
H77 H 0.35654 0.75621 0.0976 0.0
H78 H 0.2636 0.75451 0.05796 0.0
H79 H 0.34841 0.80828 0.09579 0.0
H80 H 0.34749 0.71526 0.01588 0.0
H81 H 0.32908 0.61202 0.03021 0.0
H82 H 0.33458 0.69607 0.98277 0.0
H83 H 0.31616 0.59453 0.99692 0.0
H84 H 0.46611 0.83241 0.0571 0.0
H85 H 0.37143 0.81451 0.02879 0.0
H86 H 0.1773 0.57678 0.06967 0.0
H87 H 0.21024 0.62218 0.01459 0.0
Li88 Li 0.6582 0.35948 0.56263 0.0
Li89 Li 0.71579 0.3627 0.56304 0.0
Li90 Li 0.65864 0.30468 0.56259 0.0
Li91 Li 0.67784 0.34051 0.59123 0.0
C92 C 0.67254 0.35453 0.52711 0.0
N93 N 0.65951 0.38063 0.49486 0.0
C94 C 0.69998 0.38365 0.51814 0.0
C95 C 0.63856 0.33845 0.51958 0.0
C96 C 0.69284 0.39649 0.50186 0.0
C97 C 0.63248 0.35212 0.5033 0.0
C98 C 0.72396 0.41911 0.58726 0.0
C99 C 0.77107 0.45113 0.60937 0.0
N100 N 0.77432 0.48196 0.60321 0.0
C101 C 0.72747 0.45109 0.58132 0.0
C102 C 0.74568 0.4191 0.60155 0.0
C103 C 0.75321 0.48258 0.58948 0.0
C104 C 0.59939 0.36918 0.55779 0.0
N105 N 0.63427 0.38315 0.55405 0.0
C106 C 0.63537 0.43096 0.53744 0.0
C107 C 0.65243 0.41355 0.5442 0.0
C108 C 0.59925 0.41706 0.54096 0.0
C109 C 0.58127 0.38575 0.55133 0.0
H110 H 0.58564 0.34522 0.56585 0.0
H111 H 0.68017 0.42415 0.54144 0.0
C112 C 0.77735 0.36714 0.54841 0.0
N113 N 0.76313 0.38703 0.55399 0.0
C114 C 0.81181 0.38324 0.54159 0.0
C115 C 0.81624 0.44002 0.54614 0.0
C116 C 0.78166 0.4228 0.55281 0.0
C117 C 0.83184 0.42022 0.54043 0.0
H118 H 0.76183 0.33869 0.54924 0.0
H119 H 0.7696 0.43806 0.55688 0.0
C120 C 0.59969 0.28706 0.58105 0.0
N121 N 0.53797 0.2232 0.58464 0.0
C122 C 0.59216 0.2682 0.59775 0.0
C123 C 0.57566 0.27365 0.56625 0.0
C124 C 0.56084 0.23592 0.59928 0.0
C125 C 0.54467 0.24124 0.56831 0.0
C126 C 0.72401 0.31176 0.58773 0.0
C127 C 0.71435 0.27691 0.59191 0.0
C128 C 0.75681 0.33919 0.5936 0.0
C129 C 0.73731 0.27015 0.60228 0.0
C130 C 0.77905 0.33138 0.60392 0.0
N131 N 0.7689 0.29731 0.60804 0.0
C132 C 0.63148 0.25123 0.53476 0.0
C133 C 0.62425 0.2302 0.56583 0.0
C134 C 0.61435 0.21673 0.5278 0.0
N135 N 0.6359 0.25726 0.55347 0.0
C136 C 0.60695 0.1953 0.5595 0.0
C137 C 0.60175 0.18817 0.54023 0.0
H138 H 0.64135 0.2732 0.52521 0.0
H139 H 0.6281 0.2357 0.58065 0.0
C140 C 0.67355 0.36505 0.62702 0.0
N141 N 0.67712 0.33971 0.61792 0.0
C142 C 0.67271 0.36565 0.64654 0.0
C143 C 0.67857 0.31365 0.64697 0.0
C144 C 0.67925 0.31405 0.62745 0.0
C145 C 0.67533 0.33975 0.65679 0.0
H146 H 0.67144 0.38489 0.61909 0.0
H147 H 0.68092 0.29353 0.61993 0.0
O148 O 0.67893 0.3419 0.54321 0.0
O149 O 0.69881 0.38803 0.5794 0.0
O150 O 0.63047 0.31847 0.5792 0.0
O151 O 0.70182 0.31876 0.57752 0.0
H152 H 0.72645 0.39635 0.52374 0.0
H153 H 0.61704 0.31586 0.52632 0.0
H154 H 0.71378 0.41912 0.49483 0.0
H155 H 0.60625 0.3401 0.49739 0.0
H156 H 0.78807 0.45146 0.62042 0.0
H157 H 0.71063 0.45165 0.57047 0.0
H158 H 0.74268 0.39465 0.60676 0.0
H159 H 0.75635 0.50752 0.58492 0.0
H160 H 0.65023 0.45476 0.52932 0.0
H161 H 0.55357 0.37438 0.55464 0.0
H162 H 0.82243 0.36683 0.53704 0.0
H163 H 0.83067 0.46857 0.54564 0.0
H164 H 0.61038 0.27825 0.60937 0.0
H165 H 0.58105 0.28794 0.55325 0.0
H166 H 0.55475 0.22094 0.61209 0.0
H167 H 0.52597 0.23042 0.55692 0.0
H168 H 0.68933 0.25527 0.58729 0.0
H169 H 0.7653 0.36621 0.59002 0.0
H170 H 0.73003 0.24332 0.60572 0.0
H171 H 0.80447 0.35239 0.60856 0.0
H172 H 0.61142 0.21252 0.51283 0.0
H173 H 0.59733 0.17415 0.56961 0.0
H174 H 0.67042 0.3864 0.65351 0.0
H175 H 0.67992 0.29275 0.65428 0.0
Li176 Li 0.3631 0.71212 0.45143 0.0
Li177 Li 0.34556 0.67371 0.42367 0.0
Li178 Li 0.30736 0.65458 0.45265 0.0
Li179 Li 0.36339 0.65462 0.45117 0.0
C180 C 0.30693 0.71777 0.43486 0.0
N181 N 0.28009 0.7629 0.43288 0.0
C182 C 0.31169 0.73757 0.41872 0.0
C183 C 0.28789 0.72044 0.44984 0.0
C184 C 0.29812 0.76039 0.41803 0.0
C185 C 0.27469 0.74352 0.44861 0.0
C186 C 0.41614 0.71176 0.42208 0.0
C187 C 0.44598 0.7038 0.39578 0.0
N188 N 0.46321 0.73919 0.39273 0.0
C189 C 0.43437 0.74808 0.41879 0.0
C190 C 0.4222 0.68944 0.41059 0.0
C191 C 0.45798 0.76143 0.40385 0.0
C192 C 0.403 0.76737 0.47705 0.0
N193 N 0.38683 0.75989 0.46008 0.0
C194 C 0.4053 0.82076 0.45537 0.0
C195 C 0.38803 0.7858 0.44915 0.0
C196 C 0.42176 0.82925 0.47298 0.0
C197 C 0.42051 0.80198 0.48385 0.0
H198 H 0.4024 0.74644 0.48529 0.0
H199 H 0.37599 0.77944 0.43549 0.0
C200 C 0.32706 0.64244 0.38771 0.0
N201 N 0.34488 0.6737 0.39697 0.0
C202 C 0.32622 0.64159 0.36818 0.0
C203 C 0.36206 0.70516 0.36808 0.0
C204 C 0.36196 0.70477 0.38759 0.0
C205 C 0.34397 0.67326 0.35806 0.0
H206 H 0.31327 0.61812 0.39549 0.0
H207 H 0.37564 0.72932 0.39527 0.0
C208 C 0.33707 0.67642 0.48899 0.0
N209 N 0.31728 0.67956 0.52532 0.0
C210 C 0.3383 0.65432 0.50264 0.0
C211 C 0.32635 0.70052 0.4939 0.0
C212 C 0.32801 0.65617 0.52091 0.0
C213 C 0.31631 0.70161 0.51231 0.0
C214 C 0.316 0.59347 0.43572 0.0
C215 C 0.29037 0.56717 0.44704 0.0
C216 C 0.33752 0.58584 0.42454 0.0
C217 C 0.2871 0.53375 0.44721 0.0
C218 C 0.33346 0.55212 0.42513 0.0
N219 N 0.30857 0.527 0.43637 0.0
C220 C 0.23454 0.63047 0.45081 0.0
C221 C 0.25197 0.61326 0.47829 0.0
C222 C 0.19949 0.61331 0.45678 0.0
N223 N 0.25998 0.63048 0.46166 0.0
C224 C 0.21731 0.59582 0.48483 0.0
C225 C 0.19046 0.59574 0.47405 0.0
H226 H 0.24151 0.64379 0.43747 0.0
H227 H 0.27239 0.61272 0.48643 0.0
C228 C 0.42129 0.64325 0.45509 0.0
N229 N 0.38719 0.63103 0.46008 0.0
C230 C 0.43909 0.62616 0.46124 0.0
C231 C 0.38644 0.58434 0.47767 0.0
C232 C 0.36973 0.60235 0.47127 0.0
C233 C 0.42161 0.59619 0.47264 0.0
H234 H 0.43472 0.66631 0.44634 0.0
H235 H 0.34277 0.59344 0.47525 0.0
O236 O 0.32003 0.69524 0.43573 0.0
O237 O 0.39264 0.69817 0.43653 0.0
O238 O 0.34694 0.6748 0.47101 0.0
O239 O 0.31993 0.62649 0.43557 0.0
H240 H 0.32593 0.73553 0.40689 0.0
H241 H 0.28291 0.70455 0.46219 0.0
H242 H 0.30188 0.77607 0.40568 0.0
H243 H 0.25999 0.74589 0.46013 0.0
H244 H 0.45072 0.6868 0.3867 0.0
H245 H 0.43024 0.76577 0.42762 0.0
H246 H 0.40853 0.66133 0.41302 0.0
H247 H 0.47213 0.78946 0.40109 0.0
H248 H 0.40548 0.84087 0.44654 0.0
H249 H 0.4334 0.80738 0.49734 0.0
H250 H 0.31137 0.6164 0.36112 0.0
H251 H 0.37649 0.73021 0.36095 0.0
H252 H 0.34693 0.6358 0.49918 0.0
H253 H 0.32626 0.71855 0.48369 0.0
H254 H 0.32861 0.63905 0.53158 0.0
H255 H 0.3079 0.72012 0.51628 0.0
H256 H 0.27337 0.57255 0.45569 0.0
H257 H 0.35723 0.60576 0.41558 0.0
H258 H 0.26753 0.5132 0.45599 0.0
H259 H 0.35011 0.54592 0.41665 0.0
H260 H 0.17964 0.61339 0.44782 0.0
H261 H 0.21171 0.58284 0.49827 0.0
H262 H 0.46611 0.63605 0.45692 0.0
H263 H 0.37211 0.56169 0.48666 0.0
Li264 Li 0.6567 0.30238 0.95236 0.0
Li265 Li 0.65803 0.35902 0.95202 0.0
Li266 Li 0.67534 0.33863 0.92364 0.0
Li267 Li 0.71327 0.35946 0.95095 0.0
C268 C 0.60413 0.28902 0.92571 0.0
N269 N 0.55554 0.23427 0.90369 0.0
C270 C 0.57213 0.28689 0.92119 0.0
C271 C 0.61147 0.26335 0.91902 0.0
C272 C 0.54788 0.25898 0.91004 0.0
C273 C 0.58655 0.23587 0.90791 0.0
C274 C 0.6687 0.3474 0.9882 0.0
C275 C 0.6793 0.3867 0.01421 0.0
N276 N 0.64985 0.36112 0.02275 0.0
C277 C 0.63881 0.32133 0.99734 0.0
C278 C 0.68937 0.38021 0.99678 0.0
C279 C 0.62962 0.32884 0.01475 0.0
C280 C 0.65327 0.2417 0.96794 0.0
N281 N 0.63339 0.25581 0.96232 0.0
C282 C 0.58048 0.20311 0.97075 0.0
C283 C 0.59767 0.23748 0.96379 0.0
C284 C 0.60024 0.18755 0.9765 0.0
C285 C 0.63719 0.20749 0.97511 0.0
H286 H 0.68166 0.25714 0.96691 0.0
H287 H 0.58247 0.2495 0.95948 0.0
C288 C 0.64459 0.41592 0.95522 0.0
N289 N 0.6338 0.38239 0.96081 0.0
C290 C 0.62719 0.43338 0.96152 0.0
C291 C 0.58744 0.3813 0.979 0.0
C292 C 0.60539 0.36472 0.97219 0.0
C293 C 0.59835 0.41612 0.97369 0.0
H294 H 0.66655 0.42911 0.94574 0.0
H295 H 0.59648 0.33763 0.97586 0.0
C296 C 0.7271 0.31719 0.9272 0.0
N297 N 0.78489 0.32141 0.9092 0.0
C298 C 0.74693 0.3449 0.91491 0.0
C299 C 0.73659 0.29156 0.93031 0.0
C300 C 0.77607 0.3466 0.90596 0.0
C301 C 0.76591 0.29417 0.92108 0.0
C302 C 0.725 0.42032 0.93368 0.0
C303 C 0.74224 0.43366 0.91667 0.0
C304 C 0.73566 0.442 0.94952 0.0
C305 C 0.77023 0.46838 0.91587 0.0
C306 C 0.76376 0.47657 0.94816 0.0
N307 N 0.78034 0.48892 0.93151 0.0
C308 C 0.66831 0.3615 0.88804 0.0
C309 C 0.67607 0.31169 0.8874 0.0
C310 C 0.66735 0.36194 0.86853 0.0
N311 N 0.67297 0.33685 0.89701 0.0
C312 C 0.67526 0.31115 0.86789 0.0
C313 C 0.6711 0.33667 0.85817 0.0
H314 H 0.66575 0.38108 0.89607 0.0
H315 H 0.67935 0.29212 0.89488 0.0
C316 C 0.76679 0.37528 0.97733 0.0
N317 N 0.7611 0.38276 0.95969 0.0
C318 C 0.80094 0.39122 0.98465 0.0
C319 C 0.82286 0.42224 0.95549 0.0
C320 C 0.78838 0.40545 0.9487 0.0
C321 C 0.82962 0.41524 0.97372 0.0
H322 H 0.74474 0.35674 0.98572 0.0
H323 H 0.78354 0.4107 0.93463 0.0
O324 O 0.62817 0.31634 0.93652 0.0
O325 O 0.67804 0.34057 0.97111 0.0
O326 O 0.69851 0.31504 0.93617 0.0
O327 O 0.69769 0.3863 0.93475 0.0
H328 H 0.56611 0.30662 0.92625 0.0
H329 H 0.6361 0.26456 0.92239 0.0
H330 H 0.52298 0.25698 0.90643 0.0
H331 H 0.59188 0.21582 0.90264 0.0
H332 H 0.69497 0.41204 0.02097 0.0
H333 H 0.62266 0.29571 0.99096 0.0
H334 H 0.71305 0.40037 0.99012 0.0
H335 H 0.60637 0.30902 0.02191 0.0
H336 H 0.55197 0.18876 0.97134 0.0
H337 H 0.6536 0.19695 0.9797 0.0
H338 H 0.63644 0.46023 0.95708 0.0
H339 H 0.56489 0.36681 0.98805 0.0
H340 H 0.73995 0.36492 0.91234 0.0
H341 H 0.72146 0.26986 0.93973 0.0
H342 H 0.79167 0.36796 0.89643 0.0
H343 H 0.77357 0.27453 0.92337 0.0
H344 H 0.73429 0.41734 0.90423 0.0
H345 H 0.72234 0.43224 0.96271 0.0
H346 H 0.78393 0.47898 0.90283 0.0
H347 H 0.77236 0.49357 0.96034 0.0
H348 H 0.66441 0.3823 0.86164 0.0
H349 H 0.67766 0.29082 0.8605 0.0
H350 H 0.80478 0.3844 0.99863 0.0
H351 H 0.84391 0.44085 0.94658 0.0
H352 H 0.3532 0.727 0.18049 0.0
H353 H 0.3529 0.72632 0.21469 0.0
H354 H 0.33389 0.61978 0.21402 0.0
H355 H 0.33301 0.61966 0.17985 0.0
H356 H 0.2947 0.67288 0.23898 0.0
H357 H 0.42396 0.67948 0.24806 0.0
H358 H 0.41223 0.69347 0.22686 0.0
H359 H 0.39356 0.64735 0.23169 0.0
C360 C 0.34856 0.70324 0.18757 0.0
C361 C 0.34318 0.67339 0.17735 0.0
C362 C 0.34864 0.70302 0.20712 0.0
C363 C 0.34373 0.67314 0.21681 0.0
C364 C 0.33824 0.64327 0.20675 0.0
H365 H 0.34701 0.62558 0.33421 0.0
H366 H 0.34524 0.6249 0.30007 0.0
C367 C 0.33791 0.64335 0.18721 0.0
C368 C 0.34376 0.67298 0.23749 0.0
H369 H 0.39076 0.67237 0.27534 0.0
C370 C 0.3157 0.67287 0.24698 0.0
C371 C 0.3711 0.67271 0.24779 0.0
C372 C 0.40212 0.67349 0.23817 0.0
C373 C 0.31398 0.67197 0.26659 0.0
C374 C 0.3416 0.67219 0.27696 0.0
C375 C 0.36964 0.67224 0.2674 0.0
C376 C 0.34199 0.67244 0.29771 0.0
C377 C 0.28212 0.66988 0.27596 0.0
C378 C 0.34111 0.69957 0.30776 0.0
C379 C 0.34156 0.69975 0.3273 0.0
C380 C 0.34343 0.67304 0.33723 0.0
C381 C 0.34489 0.6462 0.32708 0.0
C382 C 0.34419 0.64592 0.30754 0.0
H383 H 0.25919 0.65938 0.26632 0.0
H384 H 0.27443 0.65287 0.28855 0.0
H385 H 0.28841 0.69674 0.28036 0.0
H386 H 0.34024 0.72076 0.3005 0.0
H387 H 0.34008 0.72067 0.3346 0.0
H388 H 0.71583 0.32677 0.68098 0.0
H389 H 0.71383 0.32609 0.71517 0.0
H390 H 0.6319 0.35319 0.71384 0.0
H391 H 0.63303 0.353 0.67964 0.0
H392 H 0.72515 0.3817 0.73965 0.0
H393 H 0.59076 0.26576 0.74773 0.0
H394 H 0.61493 0.27573 0.72604 0.0
H395 H 0.59347 0.29989 0.73277 0.0
C396 C 0.69708 0.33217 0.68795 0.0
C397 C 0.67445 0.33976 0.67757 0.0
C398 C 0.69615 0.332 0.70748 0.0
C399 C 0.6724 0.33912 0.71702 0.0
C400 C 0.65002 0.34705 0.70674 0.0
H401 H 0.62883 0.34905 0.83489 0.0
H402 H 0.62993 0.35099 0.80068 0.0
C403 C 0.65098 0.34731 0.6872 0.0
C404 C 0.67159 0.33892 0.73773 0.0
H405 H 0.61897 0.29751 0.77529 0.0
C406 C 0.70199 0.36325 0.74746 0.0
C407 C 0.64128 0.31487 0.74785 0.0
C408 C 0.60831 0.28735 0.73812 0.0
C409 C 0.70278 0.36446 0.76708 0.0
C410 C 0.67256 0.34024 0.77721 0.0
C411 C 0.64209 0.31605 0.76748 0.0
C412 C 0.67217 0.3393 0.79792 0.0
C413 C 0.73574 0.39209 0.77678 0.0
C414 C 0.69527 0.33165 0.80769 0.0
C415 C 0.69486 0.33072 0.82722 0.0
C416 C 0.67117 0.33722 0.83738 0.0
C417 C 0.64776 0.34445 0.82751 0.0
C418 C 0.64818 0.34535 0.80797 0.0
H419 H 0.75265 0.41419 0.76727 0.0
H420 H 0.72915 0.40296 0.7892 0.0
H421 H 0.75127 0.37992 0.78156 0.0
H422 H 0.71356 0.32627 0.8002 0.0
H423 H 0.71344 0.32536 0.83436 0.0
H424 H 0.45199 0.56629 0.06187 0.0
H425 H 0.48183 0.53561 0.05005 0.0
H426 H 0.46281 0.55519 0.99347 0.0
H427 H 0.43202 0.58508 1.00508 0.0
H428 H 0.45165 0.47464 0.02381 0.0
H429 H 0.57195 0.59296 0.99722 0.0
H430 H 0.54339 0.59584 0.0145 0.0
H431 H 0.53029 0.58819 0.9904 0.0
C432 C 0.4538 0.56383 0.0469 0.0
C433 C 0.43955 0.57822 0.03444 0.0
C434 C 0.47107 0.54647 0.04019 0.0
C435 C 0.47478 0.54348 0.02092 0.0
C436 C 0.46065 0.55772 0.00841 0.0
H437 H 0.57776 0.45586 0.95373 0.0
H438 H 0.54685 0.48573 0.96525 0.0
C439 C 0.44318 0.57491 0.01509 0.0
C440 C 0.49283 0.52482 0.01389 0.0
H441 H 0.56655 0.5375 0.99094 0.0
C442 C 0.47682 0.48831 0.01666 0.0
C443 C 0.5255 0.5428 1.00449 0.0
C444 C 0.54407 0.58216 1.00153 0.0
C445 C 0.4924 0.4691 0.01001 0.0
C446 C 0.52537 0.48713 1.00079 0.0
C447 C 0.54132 0.5237 0.99802 0.0
C448 C 0.54379 0.46861 0.99388 0.0
C449 C 0.4729 0.42958 0.0125 0.0
C450 C 0.55272 0.44938 1.00617 0.0
C451 C 0.57018 0.43211 0.99959 0.0
C452 C 0.57957 0.43423 0.98065 0.0
C453 C 0.57109 0.45395 0.96842 0.0
C454 C 0.55335 0.47094 0.97498 0.0
H455 H 0.44423 0.41898 0.01462 0.0
H456 H 0.47652 0.41614 1.00021 0.0
H457 H 0.48325 0.42293 0.02504 0.0
H458 H 0.54653 0.44802 0.02091 0.0
H459 H 0.5769 0.41761 0.0094 0.0
H460 H 0.14165 0.61718 0.47085 0.0
H461 H 0.08067 0.58682 0.48194 0.0
H462 H 0.0942 0.50273 0.50372 0.0
H463 H 0.15495 0.53243 0.49236 0.0
H464 H 0.02516 0.51574 0.47279 0.0
H465 H 0.05655 0.53492 0.5487 0.0
H466 H 0.08833 0.56083 0.53096 0.0
H467 H 0.07835 0.51645 0.53545 0.0
C468 C 0.13162 0.59208 0.47784 0.0
C469 C 0.15332 0.57734 0.48076 0.0
C470 C 0.09682 0.57488 0.48426 0.0
C471 C 0.08314 0.54281 0.49385 0.0
C472 C 0.10451 0.52781 0.49665 0.0
H473 H 0.88268 0.4024 0.54671 0.0
H474 H 0.94289 0.43132 0.53461 0.0
C475 C 0.13926 0.5449 0.49018 0.0
C476 C 0.04631 0.52475 0.50069 0.0
H477 H 0.99662 0.49862 0.54043 0.0
C478 C 0.01884 0.51207 0.48757 0.0
C479 C 0.03827 0.51991 0.51997 0.0
C480 C 0.06686 0.53394 0.53465 0.0
C481 C 0.9834 0.49409 0.49322 0.0
C482 C 0.9753 0.48947 0.51254 0.0
C483 C 1.00285 0.50217 0.52564 0.0
C484 C 0.93845 0.4716 0.51948 0.0
C485 C 0.955 0.47949 0.47844 0.0
C486 C 0.91603 0.48481 0.51513 0.0
C487 C 0.88144 0.46808 0.52183 0.0
C488 C 0.86865 0.43799 0.53322 0.0
C489 C 0.89139 0.42511 0.53772 0.0
C490 C 0.92593 0.44178 0.53094 0.0
H491 H 0.96523 0.47629 0.46479 0.0
H492 H 0.93254 0.45355 0.48266 0.0
H493 H 0.94502 0.49805 0.47639 0.0
H494 H 0.92534 0.50824 0.50664 0.0
H495 H 0.86464 0.47858 0.51793 0.0
H496 H 0.54145 0.15475 0.9988 0.0
H497 H 0.51151 0.09387 0.01 0.0
H498 H 0.58882 0.07624 0.98244 0.0
H499 H 0.61841 0.13669 0.97063 0.0
H500 H 0.48558 0.0292 0.9856 0.0
H501 H 0.58486 0.0455 0.03906 0.0
H502 H 0.58115 0.08224 0.03044 0.0
H503 H 0.60111 0.06325 0.01619 0.0
C504 C 0.55198 0.13791 0.99494 0.0
C505 C 0.58242 0.15076 0.98378 0.0
C506 C 0.53493 0.10319 1.00147 0.0
C507 C 0.54818 0.08077 0.99717 0.0
C508 C 0.57851 0.09337 0.98611 0.0
H509 H 0.48729 0.86566 0.02703 0.0
H510 H 0.51746 0.92661 0.0158 0.0
C511 C 0.59546 0.128 0.97945 0.0
C512 C 0.52976 0.04389 1.00388 0.0
H513 H 0.53742 0.98783 0.03398 0.0
C514 C 0.49677 0.02008 0.99621 0.0
C515 C 0.54467 0.0322 0.01761 0.0
C516 C 0.5798 0.05706 0.02646 0.0
C517 C 0.47843 0.98456 1.00173 0.0
C518 C 0.49309 0.97287 0.01568 0.0
C519 C 0.52617 0.9968 0.02332 0.0
C520 C 0.47463 0.93592 0.02253 0.0
C521 C 0.44402 0.95977 0.99217 0.0
C522 C 0.44074 0.92103 0.0303 0.0
C523 C 0.42338 0.88616 0.0366 0.0
C524 C 0.43981 0.86567 0.03555 0.0
C525 C 0.47404 0.88086 0.02813 0.0
C526 C 0.49125 0.91563 0.02167 0.0
H527 H 0.44188 0.97003 0.97834 0.0
H528 H 0.441 0.93325 0.99012 0.0
H529 H 0.42186 0.9569 1.00096 0.0
H530 H 0.42777 0.93646 0.03163 0.0
H531 H 0.39727 0.87538 0.04256 0.0
H532 H 0.62324 0.48811 0.5399 0.0
H533 H 0.59246 0.51774 0.52808 0.0
H534 H 0.5022 0.41694 0.51433 0.0
H535 H 0.5329 0.38704 0.52589 0.0
H536 H 0.56471 0.51358 0.49166 0.0
H537 H 0.46043 0.46601 0.54607 0.0
H538 H 0.50021 0.46378 0.54882 0.0
H539 H 0.46491 0.43206 0.53439 0.0
C540 C 0.59693 0.47221 0.53425 0.0
C541 C 0.58051 0.43516 0.5339 0.0
C542 C 0.57933 0.48919 0.5276 0.0
C543 C 0.5449 0.46951 0.52058 0.0
C544 C 0.5285 0.43258 0.52006 0.0
H545 H 0.39555 0.52492 0.47475 0.0
H546 H 0.42584 0.49432 0.48593 0.0
C547 C 0.54608 0.41555 0.52669 0.0
C548 C 0.52647 0.4877 0.51346 0.0
H549 H 0.45481 0.49745 0.52072 0.0
C550 C 0.54074 0.51018 0.49803 0.0
C551 C 0.49516 0.48307 0.52178 0.0
C552 C 0.47934 0.46017 0.53878 0.0
C553 C 0.52425 0.52781 0.49051 0.0
C554 C 0.49304 0.52337 0.4989 0.0
C555 C 0.47872 0.50079 0.51431 0.0
C556 C 0.47493 0.54208 0.49201 0.0
C557 C 0.53998 0.55041 0.4734 0.0
C558 C 0.49234 0.57909 0.49194 0.0
C559 C 0.4751 0.59664 0.48558 0.0
C560 C 0.43998 0.57752 0.47933 0.0
C561 C 0.42249 0.54042 0.47962 0.0
C562 C 0.4398 0.5229 0.48593 0.0
H563 H 0.55769 0.54336 0.46576 0.0
H564 H 0.51908 0.54782 0.46368 0.0
H565 H 0.55581 0.57847 0.47774 0.0
H566 H 0.51916 0.59443 0.49702 0.0
H567 H 0.4891 0.62521 0.48586 0.0
H568 H 0.13615 0.52982 0.05062 0.0
H569 H 0.07493 0.49876 0.0401 0.0
H570 H 0.09489 0.58789 1.00602 0.0
H571 H 0.15556 0.62 0.01731 0.0
H572 H 0.03392 0.56288 0.02414 0.0
H573 H 0.03925 0.45165 0.99024 0.0
H574 H 0.05102 0.45654 0.01451 0.0
H575 H 0.07825 0.49081 0.99829 0.0
C576 C 0.1275 0.54305 0.04106 0.0
C577 C 0.15101 0.57744 0.03476 0.0
C578 C 0.09255 0.52499 0.03482 0.0
C579 C 0.08048 0.54066 0.02194 0.0
C580 C 0.10369 0.57511 0.01583 0.0
H581 H 0.89069 0.43193 0.95495 0.0
H582 H 0.95089 0.4631 0.96692 0.0
C583 C 0.13852 0.59332 0.02218 0.0
C584 C 0.04353 0.52151 0.01505 0.0
H585 H 0.98259 0.44594 0.9931 0.0
C586 C 0.02271 0.53735 0.0173 0.0
C587 C 0.02907 0.48842 1.00588 0.0
C588 C 0.05065 0.471 1.0019 0.0
C589 C 0.98782 0.52096 0.01077 0.0
C590 C 0.97295 0.48728 1.00222 0.0
C591 C 0.99385 0.47156 0.99984 0.0
C592 C 0.93613 0.46834 0.99512 0.0
C593 C 0.96764 0.5404 0.01266 0.0
C594 C 0.90766 0.46046 1.00703 0.0
C595 C 0.87316 0.44324 1.00013 0.0
C596 C 0.8663 0.43297 0.98122 0.0
C597 C 0.89489 0.44009 0.96947 0.0
C598 C 0.92938 0.45763 0.97634 0.0
H599 H 0.98563 0.56927 0.01434 0.0
H600 H 0.95057 0.53584 1.0003 0.0
H601 H 0.95066 0.53082 0.02526 0.0
H602 H 0.91209 0.46766 0.02168 0.0
H603 H 0.85194 0.43848 0.00958 0.0
H604 H 0.60826 0.13258 0.55266 0.0
H605 H 0.57756 0.07175 0.54115 0.0
H606 H 0.52362 0.0993 0.50006 0.0
H607 H 0.55335 0.15997 0.51187 0.0
H608 H 0.47923 0.03709 0.51908 0.0
H609 H 0.59766 0.03633 0.49216 0.0
H610 H 0.60085 0.04949 0.51622 0.0
H611 H 0.59793 0.07651 0.49825 0.0
C612 C 0.58969 0.12568 0.54126 0.0
C613 C 0.58336 0.15121 0.53315 0.0
C614 C 0.57247 0.09098 0.53456 0.0
C615 C 0.54875 0.08115 0.51956 0.0
C616 C 0.54205 0.10642 0.51156 0.0
H617 H 0.46423 0.88931 0.45321 0.0
H618 H 0.49395 0.95031 0.46449 0.0
C619 C 0.55926 0.14113 0.51824 0.0
C620 C 0.53037 0.04436 0.51243 0.0
H621 H 0.54432 0.98121 0.49277 0.0
C622 C 0.49343 0.02487 0.51328 0.0
C623 C 0.54895 0.02866 0.50468 0.0
C624 C 0.58852 0.04887 0.50258 0.0
C625 C 0.47456 0.98986 0.50684 0.0
C626 C 0.49321 0.97381 0.49961 0.0
C627 C 0.53012 0.99348 0.49849 0.0
C628 C 0.47489 0.93677 0.49287 0.0
C629 C 0.43482 0.97055 0.50753 0.0
C630 C 0.45462 0.9089 0.50513 0.0
C631 C 0.43741 0.87402 0.4987 0.0
C632 C 0.44029 0.86632 0.47988 0.0
C633 C 0.46099 0.89434 0.4677 0.0
C634 C 0.47819 0.92919 0.47415 0.0
H635 H 0.42453 0.98904 0.50896 0.0
H636 H 0.4233 0.95425 0.49477 0.0
H637 H 0.42572 0.95273 0.5198 0.0
H638 H 0.45221 0.91413 0.51971 0.0
H639 H 0.42151 0.85311 0.50842 0.0
loop_
_geom_bond_atom_site_label_1
_geom_bond_atom_site_label_2
_geom_bond_distance
_geom_bond_site_symmetry_2
_ccdc_geom_bond_type
Li0 N17 1.990 . S
Li0 O60 1.956 . S
Li0 O61 1.970 . S
Li0 O62 1.961 . S
Li1 N25 1.990 . S
Li1 O60 1.970 . S
Li1 O61 1.956 . S
Li1 O63 1.961 . S
Li2 N47 1.990 . S
Li2 O60 1.961 . S
Li2 O62 1.956 . S
Li2 O63 1.970 . S
Li3 N53 1.990 . S
Li3 O61 1.961 . S
Li3 O62 1.970 . S
Li3 O63 1.956 . S
C4 C6 1.348 . S
C4 C7 1.356 . S
C4 O60 1.325 . S
N5 C8 1.314 . S
N5 C9 1.279 . S
C6 C4 1.348 . S
C6 C8 1.353 . S
C6 H64 0.929 . S
C7 C4 1.356 . S
C7 C9 1.358 . S
C7 H65 0.930 . S
C8 N5 1.314 . S
C8 C6 1.353 . S
C8 H66 0.930 . S
C9 N5 1.279 . S
C9 C7 1.358 . S
C9 H67 0.930 . S
C10 C13 1.348 . S
C10 C14 1.356 . S
C10 O61 1.325 . S
C11 N12 1.279 . S
C11 C14 1.358 . S
C11 H68 0.930 . S
N12 C11 1.279 . S
N12 C15 1.314 . S
C13 C10 1.348 . S
C13 C15 1.353 . S
C13 H69 0.929 . S
C14 C10 1.356 . S
C14 C11 1.358 . S
C14 H70 0.930 . S
C15 N12 1.314 . S
C15 C13 1.353 . S
C15 H71 0.930 . S
C16 N17 1.314 . S
C16 C21 1.353 . S
C16 H22 0.930 . S
N17 Li0 1.990 . S
N17 C16 1.314 . S
N17 C19 1.279 . S
C18 C19 1.358 . S
C18 C20 1.356 . S
C18 H72 0.930 . S
C19 N17 1.279 . S
C19 C18 1.358 . S
C19 H23 0.930 . S
C20 C18 1.356 . S
C20 C21 1.348 . S
C21 C16 1.353 . S
C21 C20 1.348 . S
C21 H73 0.929 . S
H22 C16 0.930 . S
H23 C19 0.930 . S
C24 N25 1.314 . S
C24 C26 1.353 . S
C24 H30 0.930 . S
N25 Li1 1.990 . S
N25 C24 1.314 . S
N25 C28 1.279 . S
C26 C24 1.353 . S
C26 C29 1.348 . S
C26 H74 0.929 . S
C27 C28 1.358 . S
C27 C29 1.356 . S
C27 H75 0.930 . S
C28 N25 1.279 . S
C28 C27 1.358 . S
C28 H31 0.930 . S
C29 C26 1.348 . S
C29 C27 1.356 . S
H30 C24 0.930 . S
H31 C28 0.930 . S
C32 C34 1.348 . S
C32 C35 1.356 . S
C32 O62 1.325 . S
N33 C36 1.314 . S
N33 C37 1.279 . S
C34 C32 1.348 . S
C34 C36 1.353 . S
C34 H76 0.929 . S
C35 C32 1.356 . S
C35 C37 1.358 . S
C35 H77 0.930 . S
C36 N33 1.314 . S
C36 C34 1.353 . S
C36 H78 0.930 . S
C37 N33 1.279 . S
C37 C35 1.358 . S
C37 H79 0.930 . S
C38 C39 1.348 . S
C38 C40 1.356 . S
C38 O63 1.325 . S
C39 C38 1.348 . S
C39 C41 1.353 1_554 S
C39 H80 0.929 . S
C40 C38 1.356 . S
C40 C42 1.358 1_554 S
C40 H81 0.930 . S
C41 C39 1.353 1_556 S
C41 N43 1.314 . S
C41 H82 0.930 . S
C42 C40 1.358 1_556 S
C42 N43 1.279 . S
C42 H83 0.930 . S
N43 C41 1.314 . S
N43 C42 1.279 . S
C44 C46 1.353 . S
C44 N47 1.314 . S
C44 H50 0.930 . S
C45 N47 1.279 . S
C45 C48 1.358 . S
C45 H51 0.930 . S
C46 C44 1.353 . S
C46 C49 1.348 . S
C46 H84 0.929 . S
N47 Li2 1.990 . S
N47 C44 1.314 . S
N47 C45 1.279 . S
C48 C45 1.358 . S
C48 C49 1.356 . S
C48 H85 0.930 . S
C49 C46 1.348 . S
C49 C48 1.356 . S
H50 C44 0.930 . S
H51 C45 0.930 . S
C52 N53 1.314 . S
C52 C54 1.353 . S
C52 H58 0.930 . S
N53 Li3 1.990 . S
N53 C52 1.314 . S
N53 C56 1.279 . S
C54 C52 1.353 . S
C54 C57 1.348 . S
C54 H86 0.929 . S
C55 C56 1.358 . S
C55 C57 1.356 . S
C55 H87 0.930 . S
C56 N53 1.279 . S
C56 C55 1.358 . S
C56 H59 0.930 . S
C57 C54 1.348 . S
C57 C55 1.356 . S
H58 C52 0.930 . S
H59 C56 0.930 . S
O60 Li0 1.956 . S
O60 Li1 1.970 . S
O60 Li2 1.961 . S
O60 C4 1.325 . S
O61 Li0 1.970 . S
O61 Li1 1.956 . S
O61 Li3 1.961 . S
O61 C10 1.325 . S
O62 Li0 1.961 . S
O62 Li2 1.956 . S
O62 Li3 1.970 . S
O62 C32 1.325 . S
O63 Li1 1.961 . S
O63 Li2 1.970 . S
O63 Li3 1.956 . S
O63 C38 1.325 . S
H64 C6 0.929 . S
H65 C7 0.930 . S
H66 C8 0.930 . S
H67 C9 0.930 . S
H68 C11 0.930 . S
H69 C13 0.929 . S
H70 C14 0.930 . S
H71 C15 0.930 . S
H72 C18 0.930 . S
H73 C21 0.929 . S
H74 C26 0.929 . S
H75 C27 0.930 . S
H76 C34 0.929 . S
H77 C35 0.930 . S
H78 C36 0.930 . S
H79 C37 0.930 . S
H80 C39 0.929 . S
H81 C40 0.930 . S
H82 C41 0.930 . S
H83 C42 0.930 . S
H84 C46 0.929 . S
H85 C48 0.930 . S
H86 C54 0.929 . S
H87 C55 0.930 . S
Li88 N105 1.990 . S
Li88 O148 1.956 . S
Li88 O149 1.970 . S
Li88 O150 1.961 . S
Li89 N113 1.990 . S
Li89 O148 1.970 . S
Li89 O149 1.956 . S
Li89 O151 1.961 . S
Li90 N135 1.990 . S
Li90 O148 1.961 . S
Li90 O150 1.956 . S
Li90 O151 1.970 . S
Li91 N141 1.990 . S
Li91 O149 1.961 . S
Li91 O150 1.970 . S
Li91 O151 1.956 . S
C92 C94 1.348 . S
C92 C95 1.356 . S
C92 O148 1.325 . S
N93 C96 1.314 . S
N93 C97 1.279 . S
C94 C92 1.348 . S
C94 C96 1.353 . S
C94 H152 0.929 . S
C95 C92 1.356 . S
C95 C97 1.358 . S
C95 H153 0.930 . S
C96 N93 1.314 . S
C96 C94 1.353 . S
C96 H154 0.930 . S
C97 N93 1.279 . S
C97 C95 1.358 . S
C97 H155 0.930 . S
C98 C101 1.348 . S
C98 C102 1.356 . S
C98 O149 1.325 . S
C99 N100 1.279 . S
C99 C102 1.358 . S
C99 H156 0.930 . S
N100 C99 1.279 . S
N100 C103 1.314 . S
C101 C98 1.348 . S
C101 C103 1.353 . S
C101 H157 0.929 . S
C102 C98 1.356 . S
C102 C99 1.358 . S
C102 H158 0.930 . S
C103 N100 1.314 . S
C103 C101 1.353 . S
C103 H159 0.930 . S
C104 N105 1.314 . S
C104 C109 1.353 . S
C104 H110 0.930 . S
N105 Li88 1.990 . S
N105 C104 1.314 . S
N105 C107 1.279 . S
C106 C107 1.358 . S
C106 C108 1.356 . S
C106 H160 0.930 . S
C107 N105 1.279 . S
C107 C106 1.358 . S
C107 H111 0.930 . S
C108 C106 1.356 . S
C108 C109 1.348 . S
C109 C104 1.353 . S
C109 C108 1.348 . S
C109 H161 0.929 . S
H110 C104 0.930 . S
H111 C107 0.930 . S
C112 N113 1.314 . S
C112 C114 1.353 . S
C112 H118 0.930 . S
N113 Li89 1.990 . S
N113 C112 1.314 . S
N113 C116 1.279 . S
C114 C112 1.353 . S
C114 C117 1.348 . S
C114 H162 0.929 . S
C115 C116 1.358 . S
C115 C117 1.356 . S
C115 H163 0.930 . S
C116 N113 1.279 . S
C116 C115 1.358 . S
C116 H119 0.930 . S
C117 C114 1.348 . S
C117 C115 1.356 . S
H118 C112 0.930 . S
H119 C116 0.930 . S
C120 C122 1.348 . S
C120 C123 1.356 . S
C120 O150 1.325 . S
N121 C124 1.314 . S
N121 C125 1.279 . S
C122 C120 1.348 . S
C122 C124 1.353 . S
C122 H164 0.929 . S
C123 C120 1.356 . S
C123 C125 1.358 . S
C123 H165 0.930 . S
C124 N121 1.314 . S
C124 C122 1.353 . S
C124 H166 0.930 . S
C125 N121 1.279 . S
C125 C123 1.358 . S
C125 H167 0.930 . S
C126 C127 1.348 . S
C126 C128 1.356 . S
C126 O151 1.325 . S
C127 C126 1.348 . S
C127 C129 1.353 . S
C127 H168 0.929 . S
C128 C126 1.356 . S
C128 C130 1.358 . S
C128 H169 0.930 . S
C129 C127 1.353 . S
C129 N131 1.314 . S
C129 H170 0.930 . S
C130 C128 1.358 . S
C130 N131 1.279 . S
C130 H171 0.930 . S
N131 C129 1.314 . S
N131 C130 1.279 . S
C132 C134 1.353 . S
C132 N135 1.314 . S
C132 H138 0.930 . S
C133 N135 1.279 . S
C133 C136 1.358 . S
C133 H139 0.930 . S
C134 C132 1.353 . S
C134 C137 1.348 . S
C134 H172 0.929 . S
N135 Li90 1.990 . S
N135 C132 1.314 . S
N135 C133 1.279 . S
C136 C133 1.358 . S
C136 C137 1.356 . S
C136 H173 0.930 . S
C137 C134 1.348 . S
C137 C136 1.356 . S
H138 C132 0.930 . S
H139 C133 0.930 . S
C140 N141 1.314 . S
C140 C142 1.353 . S
C140 H146 0.930 . S
N141 Li91 1.990 . S
N141 C140 1.314 . S
N141 C144 1.279 . S
C142 C140 1.353 . S
C142 C145 1.348 . S
C142 H174 0.929 . S
C143 C144 1.358 . S
C143 C145 1.356 . S
C143 H175 0.930 . S
C144 N141 1.279 . S
C144 C143 1.358 . S
C144 H147 0.930 . S
C145 C142 1.348 . S
C145 C143 1.356 . S
H146 C140 0.930 . S
H147 C144 0.930 . S
O148 Li88 1.956 . S
O148 Li89 1.970 . S
O148 Li90 1.961 . S
O148 C92 1.325 . S
O149 Li88 1.970 . S
O149 Li89 1.956 . S
O149 Li91 1.961 . S
O149 C98 1.325 . S
O150 Li88 1.961 . S
O150 Li90 1.956 . S
O150 Li91 1.970 . S
O150 C120 1.325 . S
O151 Li89 1.961 . S
O151 Li90 1.970 . S
O151 Li91 1.956 . S
O151 C126 1.325 . S
H152 C94 0.929 . S
H153 C95 0.930 . S
H154 C96 0.930 . S
H155 C97 0.930 . S
H156 C99 0.930 . S
H157 C101 0.929 . S
H158 C102 0.930 . S
H159 C103 0.930 . S
H160 C106 0.930 . S
H161 C109 0.929 . S
H162 C114 0.929 . S
H163 C115 0.930 . S
H164 C122 0.929 . S
H165 C123 0.930 . S
H166 C124 0.930 . S
H167 C125 0.930 . S
H168 C127 0.929 . S
H169 C128 0.930 . S
H170 C129 0.930 . S
H171 C130 0.930 . S
H172 C134 0.929 . S
H173 C136 0.930 . S
H174 C142 0.929 . S
H175 C143 0.930 . S
Li176 N193 1.990 . S
Li176 O236 1.956 . S
Li176 O237 1.970 . S
Li176 O238 1.961 . S
Li177 N201 1.990 . S
Li177 O236 1.970 . S
Li177 O237 1.956 . S
Li177 O239 1.961 . S
Li178 N223 1.990 . S
Li178 O236 1.961 . S
Li178 O238 1.956 . S
Li178 O239 1.970 . S
Li179 N229 1.990 . S
Li179 O237 1.961 . S
Li179 O238 1.970 . S
Li179 O239 1.956 . S
C180 C182 1.348 . S
C180 C183 1.356 . S
C180 O236 1.325 . S
N181 C184 1.314 . S
N181 C185 1.279 . S
C182 C180 1.348 . S
C182 C184 1.353 . S
C182 H240 0.929 . S
C183 C180 1.356 . S
C183 C185 1.358 . S
C183 H241 0.930 . S
C184 N181 1.314 . S
C184 C182 1.353 . S
C184 H242 0.930 . S
C185 N181 1.279 . S
C185 C183 1.358 . S
C185 H243 0.930 . S
C186 C189 1.348 . S
C186 C190 1.356 . S
C186 O237 1.325 . S
C187 N188 1.279 . S
C187 C190 1.358 . S
C187 H244 0.930 . S
N188 C187 1.279 . S
N188 C191 1.314 . S
C189 C186 1.348 . S
C189 C191 1.353 . S
C189 H245 0.929 . S
C190 C186 1.356 . S
C190 C187 1.358 . S
C190 H246 0.930 . S
C191 N188 1.314 . S
C191 C189 1.353 . S
C191 H247 0.930 . S
C192 N193 1.314 . S
C192 C197 1.353 . S
C192 H198 0.930 . S
N193 Li176 1.990 . S
N193 C192 1.314 . S
N193 C195 1.279 . S
C194 C195 1.358 . S
C194 C196 1.356 . S
C194 H248 0.930 . S
C195 N193 1.279 . S
C195 C194 1.358 . S
C195 H199 0.930 . S
C196 C194 1.356 . S
C196 C197 1.348 . S
C197 C192 1.353 . S
C197 C196 1.348 . S
C197 H249 0.929 . S
H198 C192 0.930 . S
H199 C195 0.930 . S
C200 N201 1.314 . S
C200 C202 1.353 . S
C200 H206 0.930 . S
N201 Li177 1.990 . S
N201 C200 1.314 . S
N201 C204 1.279 . S
C202 C200 1.353 . S
C202 C205 1.348 . S
C202 H250 0.929 . S
C203 C204 1.358 . S
C203 C205 1.356 . S
C203 H251 0.930 . S
C204 N201 1.279 . S
C204 C203 1.358 . S
C204 H207 0.930 . S
C205 C202 1.348 . S
C205 C203 1.356 . S
H206 C200 0.930 . S
H207 C204 0.930 . S
C208 C210 1.348 . S
C208 C211 1.356 . S
C208 O238 1.325 . S
N209 C212 1.314 . S
N209 C213 1.279 . S
C210 C208 1.348 . S
C210 C212 1.353 . S
C210 H252 0.929 . S
C211 C208 1.356 . S
C211 C213 1.358 . S
C211 H253 0.930 . S
C212 N209 1.314 . S
C212 C210 1.353 . S
C212 H254 0.930 . S
C213 N209 1.279 . S
C213 C211 1.358 . S
C213 H255 0.930 . S
C214 C215 1.348 . S
C214 C216 1.356 . S
C214 O239 1.325 . S
C215 C214 1.348 . S
C215 C217 1.353 . S
C215 H256 0.929 . S
C216 C214 1.356 . S
C216 C218 1.358 . S
C216 H257 0.930 . S
C217 C215 1.353 . S
C217 N219 1.314 . S
C217 H258 0.930 . S
C218 C216 1.358 . S
C218 N219 1.279 . S
C218 H259 0.930 . S
N219 C217 1.314 . S
N219 C218 1.279 . S
C220 C222 1.353 . S
C220 N223 1.314 . S
C220 H226 0.930 . S
C221 N223 1.279 . S
C221 C224 1.358 . S
C221 H227 0.930 . S
C222 C220 1.353 . S
C222 C225 1.348 . S
C222 H260 0.929 . S
N223 Li178 1.990 . S
N223 C220 1.314 . S
N223 C221 1.279 . S
C224 C221 1.358 . S
C224 C225 1.356 . S
C224 H261 0.930 . S
C225 C222 1.348 . S
C225 C224 1.356 . S
H226 C220 0.930 . S
H227 C221 0.930 . S
C228 N229 1.314 . S
C228 C230 1.353 . S
C228 H234 0.930 . S
N229 Li179 1.990 . S
N229 C228 1.314 . S
N229 C232 1.279 . S
C230 C228 1.353 . S
C230 C233 1.348 . S
C230 H262 0.929 . S
C231 C232 1.358 . S
C231 C233 1.356 . S
C231 H263 0.930 . S
C232 N229 1.279 . S
C232 C231 1.358 . S
C232 H235 0.930 . S
C233 C230 1.348 . S
C233 C231 1.356 . S
H234 C228 0.930 . S
H235 C232 0.930 . S
O236 Li176 1.956 . S
O236 Li177 1.970 . S
O236 Li178 1.961 . S
O236 C180 1.325 . S
O237 Li176 1.970 . S
O237 Li177 1.956 . S
O237 Li179 1.961 . S
O237 C186 1.325 . S
O238 Li176 1.961 . S
O238 Li178 1.956 . S
O238 Li179 1.970 . S
O238 C208 1.325 . S
O239 Li177 1.961 . S
O239 Li178 1.970 . S
O239 Li179 1.956 . S
O239 C214 1.325 . S
H240 C182 0.929 . S
H241 C183 0.930 . S
H242 C184 0.930 . S
H243 C185 0.930 . S
H244 C187 0.930 . S
H245 C189 0.929 . S
H246 C190 0.930 . S
H247 C191 0.930 . S
H248 C194 0.930 . S
H249 C197 0.929 . S
H250 C202 0.929 . S
H251 C203 0.930 . S
H252 C210 0.929 . S
H253 C211 0.930 . S
H254 C212 0.930 . S
H255 C213 0.930 . S
H256 C215 0.929 . S
H257 C216 0.930 . S
H258 C217 0.930 . S
H259 C218 0.930 . S
H260 C222 0.929 . S
H261 C224 0.930 . S
H262 C230 0.929 . S
H263 C231 0.930 . S
Li264 N281 1.990 . S
Li264 O324 1.956 . S
Li264 O325 1.970 . S
Li264 O326 1.961 . S
Li265 N289 1.990 . S
Li265 O324 1.970 . S
Li265 O325 1.956 . S
Li265 O327 1.961 . S
Li266 N311 1.990 . S
Li266 O324 1.961 . S
Li266 O326 1.956 . S
Li266 O327 1.970 . S
Li267 N317 1.990 . S
Li267 O325 1.961 . S
Li267 O326 1.970 . S
Li267 O327 1.956 . S
C268 C270 1.348 . S
C268 C271 1.356 . S
C268 O324 1.325 . S
N269 C272 1.314 . S
N269 C273 1.279 . S
C270 C268 1.348 . S
C270 C272 1.353 . S
C270 H328 0.929 . S
C271 C268 1.356 . S
C271 C273 1.358 . S
C271 H329 0.930 . S
C272 N269 1.314 . S
C272 C270 1.353 . S
C272 H330 0.930 . S
C273 N269 1.279 . S
C273 C271 1.358 . S
C273 H331 0.930 . S
C274 C277 1.348 . S
C274 C278 1.356 . S
C274 O325 1.325 . S
C275 N276 1.279 . S
C275 C278 1.358 1_554 S
C275 H332 0.930 . S
N276 C275 1.279 . S
N276 C279 1.314 . S
C277 C274 1.348 . S
C277 C279 1.353 1_556 S
C277 H333 0.929 . S
C278 C274 1.356 . S
C278 C275 1.358 1_556 S
C278 H334 0.930 . S
C279 N276 1.314 . S
C279 C277 1.353 1_554 S
C279 H335 0.930 . S
C280 N281 1.314 . S
C280 C285 1.353 . S
C280 H286 0.930 . S
N281 Li264 1.990 . S
N281 C280 1.314 . S
N281 C283 1.279 . S
C282 C283 1.358 . S
C282 C284 1.356 . S
C282 H336 0.930 . S
C283 N281 1.279 . S
C283 C282 1.358 . S
C283 H287 0.930 . S
C284 C282 1.356 . S
C284 C285 1.348 . S
C285 C280 1.353 . S
C285 C284 1.348 . S
C285 H337 0.929 . S
H286 C280 0.930 . S
H287 C283 0.930 . S
C288 N289 1.314 . S
C288 C290 1.353 . S
C288 H294 0.930 . S
N289 Li265 1.990 . S
N289 C288 1.314 . S
N289 C292 1.279 . S
C290 C288 1.353 . S
C290 C293 1.348 . S
C290 H338 0.929 . S
C291 C292 1.358 . S
C291 C293 1.356 . S
C291 H339 0.930 . S
C292 N289 1.279 . S
C292 C291 1.358 . S
C292 H295 0.930 . S
C293 C290 1.348 . S
C293 C291 1.356 . S
H294 C288 0.930 . S
H295 C292 0.930 . S
C296 C298 1.348 . S
C296 C299 1.356 . S
C296 O326 1.325 . S
N297 C300 1.314 . S
N297 C301 1.279 . S
C298 C296 1.348 . S
C298 C300 1.353 . S
C298 H340 0.929 . S
C299 C296 1.356 . S
C299 C301 1.358 . S
C299 H341 0.930 . S
C300 N297 1.314 . S
C300 C298 1.353 . S
C300 H342 0.930 . S
C301 N297 1.279 . S
C301 C299 1.358 . S
C301 H343 0.930 . S
C302 C303 1.348 . S
C302 C304 1.356 . S
C302 O327 1.325 . S
C303 C302 1.348 . S
C303 C305 1.353 . S
C303 H344 0.929 . S
C304 C302 1.356 . S
C304 C306 1.358 . S
C304 H345 0.930 . S
C305 C303 1.353 . S
C305 N307 1.314 . S
C305 H346 0.930 . S
C306 C304 1.358 . S
C306 N307 1.279 . S
C306 H347 0.930 . S
N307 C305 1.314 . S
N307 C306 1.279 . S
C308 C310 1.353 . S
C308 N311 1.314 . S
C308 H314 0.930 . S
C309 N311 1.279 . S
C309 C312 1.358 . S
C309 H315 0.930 . S
C310 C308 1.353 . S
C310 C313 1.348 . S
C310 H348 0.929 . S
N311 Li266 1.990 . S
N311 C308 1.314 . S
N311 C309 1.279 . S
C312 C309 1.358 . S
C312 C313 1.356 . S
C312 H349 0.930 . S
C313 C310 1.348 . S
C313 C312 1.356 . S
H314 C308 0.930 . S
H315 C309 0.930 . S
C316 N317 1.314 . S
C316 C318 1.353 . S
C316 H322 0.930 . S
N317 Li267 1.990 . S
N317 C316 1.314 . S
N317 C320 1.279 . S
C318 C316 1.353 . S
C318 C321 1.348 . S
C318 H350 0.929 . S
C319 C320 1.358 . S
C319 C321 1.356 . S
C319 H351 0.930 . S
C320 N317 1.279 . S
C320 C319 1.358 . S
C320 H323 0.930 . S
C321 C318 1.348 . S
C321 C319 1.356 . S
H322 C316 0.930 . S
H323 C320 0.930 . S
O324 Li264 1.956 . S
O324 Li265 1.970 . S
O324 Li266 1.961 . S
O324 C268 1.325 . S
O325 Li264 1.970 . S
O325 Li265 1.956 . S
O325 Li267 1.961 . S
O325 C274 1.325 . S
O326 Li264 1.961 . S
O326 Li266 1.956 . S
O326 Li267 1.970 . S
O326 C296 1.325 . S
O327 Li265 1.961 . S
O327 Li266 1.970 . S
O327 Li267 1.956 . S
O327 C302 1.325 . S
H328 C270 0.929 . S
H329 C271 0.930 . S
H330 C272 0.930 . S
H331 C273 0.930 . S
H332 C275 0.930 . S
H333 C277 0.929 . S
H334 C278 0.930 . S
H335 C279 0.930 . S
H336 C282 0.930 . S
H337 C285 0.929 . S
H338 C290 0.929 . S
H339 C291 0.930 . S
H340 C298 0.929 . S
H341 C299 0.930 . S
H342 C300 0.930 . S
H343 C301 0.930 . S
H344 C303 0.929 . S
H345 C304 0.930 . S
H346 C305 0.930 . S
H347 C306 0.930 . S
H348 C310 0.929 . S
H349 C312 0.930 . S
H350 C318 0.929 . S
H351 C319 0.930 . S
H352 C360 0.929 . S
H353 C362 0.930 . S
H354 C364 0.930 . S
H355 C367 0.929 . S
H356 C370 0.930 . S
H357 C372 0.960 . S
H358 C372 0.960 . S
H359 C372 0.960 . S
C360 H352 0.929 . S
C360 C361 1.377 . S
C360 C362 1.384 . S
C361 C360 1.377 . S
C361 C367 1.390 . S
C362 H353 0.930 . S
C362 C360 1.384 . S
C362 C363 1.372 . S
C363 C362 1.372 . S
C363 C364 1.400 . S
C363 C368 1.490 . S
C364 H354 0.930 . S
C364 C363 1.400 . S
C364 C367 1.386 . S
H365 C381 0.930 . S
H366 C382 0.931 . S
C367 H355 0.929 . S
C367 C361 1.390 . S
C367 C364 1.386 . S
C368 C363 1.490 . S
C368 C370 1.395 . S
C368 C371 1.403 . S
H369 C375 0.930 . S
C370 H356 0.930 . S
C370 C368 1.395 . S
C370 C373 1.403 . S
C371 C368 1.403 . S
C371 C372 1.524 . S
C371 C375 1.400 . S
C372 H357 0.960 . S
C372 H358 0.960 . S
C372 H359 0.960 . S
C372 C371 1.524 . S
C373 C370 1.403 . S
C373 C374 1.392 . S
C373 C377 1.495 . S
C374 C373 1.392 . S
C374 C375 1.385 . S
C374 C376 1.478 . S
C375 H369 0.930 . S
C375 C371 1.400 . S
C375 C374 1.385 . S
C376 C374 1.478 . S
C376 C378 1.381 . S
C376 C382 1.383 . S
C377 C373 1.495 . S
C377 H383 0.959 . S
C377 H384 0.961 . S
C377 H385 0.960 . S
C378 C376 1.381 . S
C378 C379 1.394 . S
C378 H386 0.930 . S
C379 C378 1.394 . S
C379 C380 1.383 . S
C379 H387 0.929 . S
C380 C379 1.383 . S
C380 C381 1.377 . S
C381 H365 0.930 . S
C381 C380 1.377 . S
C381 C382 1.379 . S
C382 H366 0.931 . S
C382 C376 1.383 . S
C382 C381 1.379 . S
H383 C377 0.959 . S
H384 C377 0.961 . S
H385 C377 0.960 . S
H386 C378 0.930 . S
H387 C379 0.929 . S
H388 C396 0.929 . S
H389 C398 0.930 . S
H390 C400 0.930 . S
H391 C403 0.929 . S
H392 C406 0.930 . S
H393 C408 0.960 . S
H394 C408 0.960 . S
H395 C408 0.960 . S
C396 H388 0.929 . S
C396 C397 1.377 . S
C396 C398 1.384 . S
C397 C396 1.377 . S
C397 C403 1.390 . S
C398 H389 0.930 . S
C398 C396 1.384 . S
C398 C399 1.372 . S
C399 C398 1.372 . S
C399 C400 1.400 . S
C399 C404 1.490 . S
C400 H390 0.930 . S
C400 C399 1.400 . S
C400 C403 1.386 . S
H401 C417 0.930 . S
H402 C418 0.931 . S
C403 H391 0.929 . S
C403 C397 1.390 . S
C403 C400 1.386 . S
C404 C399 1.490 . S
C404 C406 1.395 . S
C404 C407 1.403 . S
H405 C411 0.930 . S
C406 H392 0.930 . S
C406 C404 1.395 . S
C406 C409 1.403 . S
C407 C404 1.403 . S
C407 C408 1.524 . S
C407 C411 1.400 . S
C408 H393 0.960 . S
C408 H394 0.960 . S
C408 H395 0.960 . S
C408 C407 1.524 . S
C409 C406 1.403 . S
C409 C410 1.392 . S
C409 C413 1.495 . S
C410 C409 1.392 . S
C410 C411 1.385 . S
C410 C412 1.478 . S
C411 H405 0.930 . S
C411 C407 1.400 . S
C411 C410 1.385 . S
C412 C410 1.478 . S
C412 C414 1.381 . S
C412 C418 1.383 . S
C413 C409 1.495 . S
C413 H419 0.959 . S
C413 H420 0.961 . S
C413 H421 0.960 . S
C414 C412 1.381 . S
C414 C415 1.394 . S
C414 H422 0.930 . S
C415 C414 1.394 . S
C415 C416 1.383 . S
C415 H423 0.929 . S
C416 C415 1.383 . S
C416 C417 1.377 . S
C417 H401 0.930 . S
C417 C416 1.377 . S
C417 C418 1.379 . S
C418 H402 0.931 . S
C418 C412 1.383 . S
C418 C417 1.379 . S
H419 C413 0.959 . S
H420 C413 0.961 . S
H421 C413 0.960 . S
H422 C414 0.930 . S
H423 C415 0.929 . S
H424 C432 0.929 . S
H425 C434 0.930 . S
H426 C436 0.930 1_556 S
H427 C439 0.900 1_556 S
H428 C442 0.930 . S
H429 C444 0.960 . S
H430 C444 0.960 . S
H431 C444 0.960 . S
C432 H424 0.929 . S
C432 C433 1.377 . S
C432 C434 1.384 . S
C433 C432 1.377 . S
C433 C439 1.390 . S
C434 H425 0.930 . S
C434 C432 1.384 . S
C434 C435 1.372 . S
C435 C434 1.372 . S
C435 C436 1.400 . S
C435 C440 1.490 . S
C436 H426 0.930 1_554 S
C436 C435 1.400 . S
C436 C439 1.386 . S
H437 C453 0.930 . S
H438 C454 0.931 . S
C439 H427 0.900 1_554 S
C439 C433 1.390 . S
C439 C436 1.386 . S
C440 C435 1.490 . S
C440 C442 1.395 . S
C440 C443 1.403 1_554 S
H441 C447 0.930 . S
C442 H428 0.930 . S
C442 C440 1.395 . S
C442 C445 1.403 . S
C443 C440 1.403 1_556 S
C443 C444 1.524 . S
C443 C447 1.400 . S
C444 H429 0.960 . S
C444 H430 0.960 . S
C444 H431 0.960 . S
C444 C443 1.524 . S
C445 C442 1.403 . S
C445 C446 1.392 1_554 S
C445 C449 1.495 . S
C446 C445 1.392 1_556 S
C446 C447 1.385 . S
C446 C448 1.478 . S
C447 H441 0.930 . S
C447 C443 1.400 . S
C447 C446 1.385 . S
C448 C446 1.478 . S
C448 C450 1.385 . S
C448 C454 1.383 . S
C449 C445 1.495 . S
C449 H455 0.959 . S
C449 H456 0.961 . S
C449 H457 0.960 . S
C450 C448 1.385 . S
C450 C451 1.397 . S
C450 H458 0.923 1_556 S
C451 C450 1.397 . S
C451 C452 1.383 . S
C451 H459 0.928 1_556 S
C452 C451 1.383 . S
C452 C453 1.377 . S
C453 H437 0.930 . S
C453 C452 1.377 . S
C453 C454 1.379 . S
C454 H438 0.931 . S
C454 C448 1.383 . S
C454 C453 1.379 . S
H455 C449 0.959 . S
H456 C449 0.961 . S
H457 C449 0.960 . S
H458 C450 0.923 1_554 S
H459 C451 0.928 1_554 S
H460 C468 0.929 . S
H461 C470 0.930 . S
H462 C472 0.930 . S
H463 C475 0.929 . S
H464 C478 0.930 . S
H465 C480 0.960 . S
H466 C480 0.960 . S
H467 C480 0.960 . S
C468 H460 0.929 . S
C468 C469 1.377 . S
C468 C470 1.384 . S
C469 C468 1.377 . S
C469 C475 1.390 . S
C470 H461 0.930 . S
C470 C468 1.384 . S
C470 C471 1.372 . S
C471 C470 1.372 . S
C471 C472 1.400 . S
C471 C476 1.490 . S
C472 H462 0.930 . S
C472 C471 1.400 . S
C472 C475 1.386 . S
H473 C489 0.930 . S
H474 C490 0.931 . S
C475 H463 0.929 . S
C475 C469 1.390 . S
C475 C472 1.386 . S
C476 C471 1.490 . S
C476 C478 1.395 . S
C476 C479 1.403 . S
H477 C483 0.930 . S
C478 H464 0.930 . S
C478 C476 1.395 . S
C478 C481 1.403 1_455 S
C479 C476 1.403 . S
C479 C480 1.524 . S
C479 C483 1.400 1_455 S
C480 H465 0.960 . S
C480 H466 0.960 . S
C480 H467 0.960 . S
C480 C479 1.524 . S
C481 C478 1.403 1_655 S
C481 C482 1.392 . S
C481 C485 1.495 . S
C482 C481 1.392 . S
C482 C483 1.385 . S
C482 C484 1.478 . S
C483 H477 0.930 . S
C483 C479 1.400 1_655 S
C483 C482 1.385 . S
C484 C482 1.478 . S
C484 C486 1.381 . S
C484 C490 1.383 . S
C485 C481 1.495 . S
C485 H491 0.959 . S
C485 H492 0.961 . S
C485 H493 0.960 . S
C486 C484 1.381 . S
C486 C487 1.394 . S
C486 H494 0.930 . S
C487 C486 1.394 . S
C487 C488 1.383 . S
C487 H495 0.929 . S
C488 C487 1.383 . S
C488 C489 1.377 . S
C489 H473 0.930 . S
C489 C488 1.377 . S
C489 C490 1.379 . S
C490 H474 0.931 . S
C490 C484 1.383 . S
C490 C489 1.379 . S
H491 C485 0.959 . S
H492 C485 0.961 . S
H493 C485 0.960 . S
H494 C486 0.930 . S
H495 C487 0.929 . S
H496 C504 0.929 . S
H497 C506 0.928 1_554 S
H498 C508 0.930 . S
H499 C511 0.929 . S
H500 C514 0.930 . S
H501 C516 0.960 . S
H502 C516 0.960 . S
H503 C516 0.996 . S
C504 H496 0.929 . S
C504 C505 1.377 . S
C504 C506 1.384 . S
C505 C504 1.377 . S
C505 C511 1.390 . S
C506 H497 0.928 1_556 S
C506 C504 1.384 . S
C506 C507 1.372 . S
C507 C506 1.372 . S
C507 C508 1.400 . S
C507 C512 1.490 . S
C508 H498 0.930 . S
C508 C507 1.400 . S
C508 C511 1.386 . S
H509 C525 0.930 . S
H510 C526 0.931 1_556 S
C511 H499 0.929 . S
C511 C505 1.390 . S
C511 C508 1.386 . S
C512 C507 1.490 . S
C512 C514 1.395 . S
C512 C515 1.403 1_556 S
H513 C519 0.930 . S
C514 H500 0.930 . S
C514 C512 1.395 . S
C514 C517 1.403 1_545 S
C515 C512 1.403 1_554 S
C515 C516 1.524 . S
C515 C519 1.400 1_545 S
C516 H501 0.960 . S
C516 H502 0.960 . S
C516 H503 0.996 . S
C516 C515 1.524 . S
C517 C514 1.403 1_565 S
C517 C518 1.392 1_556 S
C517 C521 1.495 . S
C518 C517 1.392 1_554 S
C518 C519 1.385 . S
C518 C520 1.478 . S
C519 H513 0.930 . S
C519 C515 1.400 1_565 S
C519 C518 1.385 . S
C520 C518 1.478 . S
C520 C522 1.381 . S
C520 C526 1.383 . S
C521 C517 1.495 . S
C521 H527 0.959 . S
C521 H528 0.961 . S
C521 H529 0.959 1_556 S
C522 C520 1.381 . S
C522 C523 1.394 . S
C522 H530 0.930 . S
C523 C522 1.394 . S
C523 C524 1.383 . S
C523 H531 0.929 . S
C524 C523 1.383 . S
C524 C525 1.377 . S
C525 H509 0.930 . S
C525 C524 1.377 . S
C525 C526 1.379 . S
C526 H510 0.931 1_554 S
C526 C520 1.383 . S
C526 C525 1.379 . S
H527 C521 0.959 . S
H528 C521 0.961 . S
H529 C521 0.959 1_554 S
H530 C522 0.930 . S
H531 C523 0.929 . S
H532 C540 0.929 . S
H533 C542 0.930 . S
H534 C544 0.930 . S
H535 C547 0.929 . S
H536 C550 0.930 . S
H537 C552 0.960 . S
H538 C552 0.960 . S
H539 C552 0.960 . S
C540 H532 0.929 . S
C540 C541 1.377 . S
C540 C542 1.384 . S
C541 C540 1.377 . S
C541 C547 1.390 . S
C542 H533 0.930 . S
C542 C540 1.384 . S
C542 C543 1.372 . S
C543 C542 1.372 . S
C543 C544 1.400 . S
C543 C548 1.490 . S
C544 H534 0.930 . S
C544 C543 1.400 . S
C544 C547 1.386 . S
H545 C561 0.930 . S
H546 C562 0.931 . S
C547 H535 0.929 . S
C547 C541 1.390 . S
C547 C544 1.386 . S
C548 C543 1.490 . S
C548 C550 1.395 . S
C548 C551 1.403 . S
H549 C555 0.930 . S
C550 H536 0.930 . S
C550 C548 1.395 . S
C550 C553 1.403 . S
C551 C548 1.403 . S
C551 C552 1.524 . S
C551 C555 1.400 . S
C552 H537 0.960 . S
C552 H538 0.960 . S
C552 H539 0.960 . S
C552 C551 1.524 . S
C553 C550 1.403 . S
C553 C554 1.392 . S
C553 C557 1.495 . S
C554 C553 1.392 . S
C554 C555 1.385 . S
C554 C556 1.478 . S
C555 H549 0.930 . S
C555 C551 1.400 . S
C555 C554 1.385 . S
C556 C554 1.478 . S
C556 C558 1.381 . S
C556 C562 1.383 . S
C557 C553 1.495 . S
C557 H563 0.959 . S
C557 H564 0.961 . S
C557 H565 0.960 . S
C558 C556 1.381 . S
C558 C559 1.394 . S
C558 H566 0.930 . S
C559 C558 1.394 . S
C559 C560 1.383 . S
C559 H567 0.929 . S
C560 C559 1.383 . S
C560 C561 1.377 . S
C561 H545 0.930 . S
C561 C560 1.377 . S
C561 C562 1.379 . S
C562 H546 0.931 . S
C562 C556 1.383 . S
C562 C561 1.379 . S
H563 C557 0.959 . S
H564 C557 0.961 . S
H565 C557 0.960 . S
H566 C558 0.930 . S
H567 C559 0.929 . S
H568 C576 0.929 . S
H569 C578 0.930 . S
H570 C580 0.930 1_556 S
H571 C583 0.958 . S
H572 C586 0.930 . S
H573 C588 0.960 . S
H574 C588 0.960 . S
H575 C588 0.960 . S
C576 H568 0.929 . S
C576 C577 1.377 . S
C576 C578 1.384 . S
C577 C576 1.377 . S
C577 C583 1.390 . S
C578 H569 0.930 . S
C578 C576 1.384 . S
C578 C579 1.372 . S
C579 C578 1.372 . S
C579 C580 1.400 . S
C579 C584 1.490 . S
C580 H570 0.930 1_554 S
C580 C579 1.400 . S
C580 C583 1.386 . S
H581 C597 0.930 . S
H582 C598 0.931 . S
C583 H571 0.958 . S
C583 C577 1.390 . S
C583 C580 1.386 . S
C584 C579 1.490 . S
C584 C586 1.395 . S
C584 C587 1.403 1_554 S
H585 C591 0.930 . S
C586 H572 0.930 . S
C586 C584 1.395 . S
C586 C589 1.403 1_455 S
C587 C584 1.403 1_556 S
C587 C588 1.524 . S
C587 C591 1.400 1_455 S
C588 H573 0.960 . S
C588 H574 0.960 . S
C588 H575 0.960 . S
C588 C587 1.524 . S
C589 C586 1.403 1_655 S
C589 C590 1.392 1_554 S
C589 C593 1.495 . S
C590 C589 1.392 1_556 S
C590 C591 1.385 . S
C590 C592 1.478 . S
C591 H585 0.930 . S
C591 C587 1.400 1_655 S
C591 C590 1.385 . S
C592 C590 1.478 . S
C592 C594 1.394 . S
C592 C598 1.383 . S
C593 C589 1.495 . S
C593 H599 0.959 . S
C593 H600 0.961 . S
C593 H601 0.960 . S
C594 C592 1.394 . S
C594 C595 1.403 . S
C594 H602 0.908 1_556 S
C595 C594 1.403 . S
C595 C596 1.383 . S
C595 H603 0.963 . S
C596 C595 1.383 . S
C596 C597 1.377 . S
C597 H581 0.930 . S
C597 C596 1.377 . S
C597 C598 1.379 . S
C598 H582 0.931 . S
C598 C592 1.383 . S
C598 C597 1.379 . S
H599 C593 0.959 . S
H600 C593 0.961 . S
H601 C593 0.960 . S
H602 C594 0.908 1_554 S
H603 C595 0.963 . S
H604 C612 0.929 . S
H605 C614 0.930 . S
H606 C616 0.930 . S
H607 C619 0.929 . S
H608 C622 0.930 . S
H609 C624 0.960 . S
H610 C624 0.960 . S
H611 C624 0.960 . S
C612 H604 0.929 . S
C612 C613 1.377 . S
C612 C614 1.384 . S
C613 C612 1.377 . S
C613 C619 1.390 . S
C614 H605 0.930 . S
C614 C612 1.384 . S
C614 C615 1.372 . S
C615 C614 1.372 . S
C615 C616 1.400 . S
C615 C620 1.490 . S
C616 H606 0.930 . S
C616 C615 1.400 . S
C616 C619 1.386 . S
H617 C633 0.930 . S
H618 C634 0.931 . S
C619 H607 0.929 . S
C619 C613 1.390 . S
C619 C616 1.386 . S
C620 C615 1.490 . S
C620 C622 1.395 . S
C620 C623 1.403 . S
H621 C627 0.930 . S
C622 H608 0.930 . S
C622 C620 1.395 . S
C622 C625 1.403 1_545 S
C623 C620 1.403 . S
C623 C624 1.524 . S
C623 C627 1.400 1_545 S
C624 H609 0.960 . S
C624 H610 0.960 . S
C624 H611 0.960 . S
C624 C623 1.524 . S
C625 C622 1.403 1_565 S
C625 C626 1.392 . S
C625 C629 1.495 . S
C626 C625 1.392 . S
C626 C627 1.385 . S
C626 C628 1.478 . S
C627 H621 0.930 . S
C627 C623 1.400 1_565 S
C627 C626 1.385 . S
C628 C626 1.478 . S
C628 C630 1.381 . S
C628 C634 1.383 . S
C629 C625 1.495 . S
C629 H635 0.959 . S
C629 H636 0.961 . S
C629 H637 0.960 . S
C630 C628 1.381 . S
C630 C631 1.394 . S
C630 H638 0.930 . S
C631 C630 1.394 . S
C631 C632 1.383 . S
C631 H639 0.929 . S
C632 C631 1.383 . S
C632 C633 1.377 . S
C633 H617 0.930 . S
C633 C632 1.377 . S
C633 C634 1.379 . S
C634 H618 0.931 . S
C634 C628 1.383 . S
C634 C633 1.379 . S
H635 C629 0.959 . S
H636 C629 0.961 . S
H637 C629 0.960 . S
H638 C630 0.930 . S
H639 C631 0.929 . S
C361 C20 1.499 . S
C380 C205 1.498 . S
C397 C145 1.500 . S
C416 C313 1.498 . S
C433 C29 1.493 . S
C452 C293 1.489 . S
C469 C225 1.506 . S
C488 C117 1.505 . S
C505 C284 1.514 . S
C524 C49 1.511 . S
C541 C108 1.507 . S
C560 C233 1.502 . S
C577 C57 1.492 . S
C596 C321 1.488 . S
C613 C137 1.486 . S
C632 C196 1.480 . S
