# Generated by pormake.
# Topology ukc, (4)-cn, num edge types: 1
# Building blocks:
#     Node 0, Type 0, BuildingBlock: AZAVOO_clean_sbu_0, # of connection points: 4
#     Node 1, Type 0, BuildingBlock: AZAVOO_clean_sbu_0, # of connection points: 4
#     Node 2, Type 0, BuildingBlock: AZAVOO_clean_sbu_0, # of connection points: 4
#     Node 3, Type 0, BuildingBlock: AZAVOO_clean_sbu_0, # of connection points: 4
#     Node 4, Type 0, BuildingBlock: AZAVOO_clean_sbu_0, # of connection points: 4
#     Node 5, Type 0, BuildingBlock: AZAVOO_clean_sbu_0, # of connection points: 4
#     Node 6, Type 0, BuildingBlock: AZAVOO_clean_sbu_0, # of connection points: 4
#     Node 7, Type 0, BuildingBlock: AZAVOO_clean_sbu_0, # of connection points: 4
#     Node 8, Type 0, BuildingBlock: AZAVOO_clean_sbu_0, # of connection points: 4
#     Node 9, Type 0, BuildingBlock: AZAVOO_clean_sbu_0, # of connection points: 4
#     Node 10, Type 0, BuildingBlock: AZAVOO_clean_sbu_0, # of connection points: 4
#     Node 11, Type 0, BuildingBlock: AZAVOO_clean_sbu_0, # of connection points: 4
#     Node 12, Type 0, BuildingBlock: AZAVOO_clean_sbu_0, # of connection points: 4
#     Node 13, Type 0, BuildingBlock: AZAVOO_clean_sbu_0, # of connection points: 4
#     Node 14, Type 0, BuildingBlock: AZAVOO_clean_sbu_0, # of connection points: 4
#     Node 15, Type 0, BuildingBlock: AZAVOO_clean_sbu_0, # of connection points: 4
#     Node 16, Type 0, BuildingBlock: AZAVOO_clean_sbu_0, # of connection points: 4
#     Node 17, Type 0, BuildingBlock: AZAVOO_clean_sbu_0, # of connection points: 4
#     Node 18, Type 0, BuildingBlock: AZAVOO_clean_sbu_0, # of connection points: 4
#     Node 19, Type 0, BuildingBlock: AZAVOO_clean_sbu_0, # of connection points: 4
#     Node 20, Type 0, BuildingBlock: AZAVOO_clean_sbu_0, # of connection points: 4
#     Node 21, Type 0, BuildingBlock: AZAVOO_clean_sbu_0, # of connection points: 4
#     Node 22, Type 0, BuildingBlock: AZAVOO_clean_sbu_0, # of connection points: 4
#     Node 23, Type 0, BuildingBlock: AZAVOO_clean_sbu_0, # of connection points: 4
#     Node 24, Type 0, BuildingBlock: AZAVOO_clean_sbu_0, # of connection points: 4
#     Node 25, Type 0, BuildingBlock: AZAVOO_clean_sbu_0, # of connection points: 4
#     Node 26, Type 0, BuildingBlock: AZAVOO_clean_sbu_0, # of connection points: 4
#     Node 27, Type 0, BuildingBlock: AZAVOO_clean_sbu_0, # of connection points: 4
#     Node 28, Type 0, BuildingBlock: AZAVOO_clean_sbu_0, # of connection points: 4
#     Node 29, Type 0, BuildingBlock: AZAVOO_clean_sbu_0, # of connection points: 4
#     Node 30, Type 0, BuildingBlock: AZAVOO_clean_sbu_0, # of connection points: 4
#     Node 31, Type 0, BuildingBlock: AZAVOO_clean_sbu_0, # of connection points: 4
#     Edge 32, Type (0, 0), BuildingBlock: MIFKUJ_clean_linker_0, # of connection points: 2
#     Edge 33, Type (0, 0), BuildingBlock: MIFKUJ_clean_linker_0, # of connection points: 2
#     Edge 34, Type (0, 0), BuildingBlock: MIFKUJ_clean_linker_0, # of connection points: 2
#     Edge 35, Type (0, 0), BuildingBlock: MIFKUJ_clean_linker_0, # of connection points: 2
#     Edge 36, Type (0, 0), BuildingBlock: MIFKUJ_clean_linker_0, # of connection points: 2
#     Edge 37, Type (0, 0), BuildingBlock: MIFKUJ_clean_linker_0, # of connection points: 2
#     Edge 38, Type (0, 0), BuildingBlock: MIFKUJ_clean_linker_0, # of connection points: 2
#     Edge 39, Type (0, 0), BuildingBlock: MIFKUJ_clean_linker_0, # of connection points: 2
#     Edge 40, Type (0, 0), BuildingBlock: MIFKUJ_clean_linker_0, # of connection points: 2
#     Edge 41, Type (0, 0), BuildingBlock: MIFKUJ_clean_linker_0, # of connection points: 2
#     Edge 42, Type (0, 0), BuildingBlock: MIFKUJ_clean_linker_0, # of connection points: 2
#     Edge 43, Type (0, 0), BuildingBlock: MIFKUJ_clean_linker_0, # of connection points: 2
#     Edge 44, Type (0, 0), BuildingBlock: MIFKUJ_clean_linker_0, # of connection points: 2
#     Edge 45, Type (0, 0), BuildingBlock: MIFKUJ_clean_linker_0, # of connection points: 2
#     Edge 46, Type (0, 0), BuildingBlock: MIFKUJ_clean_linker_0, # of connection points: 2
#     Edge 47, Type (0, 0), BuildingBlock: MIFKUJ_clean_linker_0, # of connection points: 2
#     Edge 48, Type (0, 0), BuildingBlock: MIFKUJ_clean_linker_0, # of connection points: 2
#     Edge 49, Type (0, 0), BuildingBlock: MIFKUJ_clean_linker_0, # of connection points: 2
#     Edge 50, Type (0, 0), BuildingBlock: MIFKUJ_clean_linker_0, # of connection points: 2
#     Edge 51, Type (0, 0), BuildingBlock: MIFKUJ_clean_linker_0, # of connection points: 2
#     Edge 52, Type (0, 0), BuildingBlock: MIFKUJ_clean_linker_0, # of connection points: 2
#     Edge 53, Type (0, 0), BuildingBlock: MIFKUJ_clean_linker_0, # of connection points: 2
#     Edge 54, Type (0, 0), BuildingBlock: MIFKUJ_clean_linker_0, # of connection points: 2
#     Edge 55, Type (0, 0), BuildingBlock: MIFKUJ_clean_linker_0, # of connection points: 2
#     Edge 56, Type (0, 0), BuildingBlock: MIFKUJ_clean_linker_0, # of connection points: 2
#     Edge 57, Type (0, 0), BuildingBlock: MIFKUJ_clean_linker_0, # of connection points: 2
#     Edge 58, Type (0, 0), BuildingBlock: MIFKUJ_clean_linker_0, # of connection points: 2
#     Edge 59, Type (0, 0), BuildingBlock: MIFKUJ_clean_linker_0, # of connection points: 2
#     Edge 60, Type (0, 0), BuildingBlock: MIFKUJ_clean_linker_0, # of connection points: 2
#     Edge 61, Type (0, 0), BuildingBlock: MIFKUJ_clean_linker_0, # of connection points: 2
#     Edge 62, Type (0, 0), BuildingBlock: MIFKUJ_clean_linker_0, # of connection points: 2
#     Edge 63, Type (0, 0), BuildingBlock: MIFKUJ_clean_linker_0, # of connection points: 2
#     Edge 64, Type (0, 0), BuildingBlock: MIFKUJ_clean_linker_0, # of connection points: 2
#     Edge 65, Type (0, 0), BuildingBlock: MIFKUJ_clean_linker_0, # of connection points: 2
#     Edge 66, Type (0, 0), BuildingBlock: MIFKUJ_clean_linker_0, # of connection points: 2
#     Edge 67, Type (0, 0), BuildingBlock: MIFKUJ_clean_linker_0, # of connection points: 2
#     Edge 68, Type (0, 0), BuildingBlock: MIFKUJ_clean_linker_0, # of connection points: 2
#     Edge 69, Type (0, 0), BuildingBlock: MIFKUJ_clean_linker_0, # of connection points: 2
#     Edge 70, Type (0, 0), BuildingBlock: MIFKUJ_clean_linker_0, # of connection points: 2
#     Edge 71, Type (0, 0), BuildingBlock: MIFKUJ_clean_linker_0, # of connection points: 2
#     Edge 72, Type (0, 0), BuildingBlock: MIFKUJ_clean_linker_0, # of connection points: 2
#     Edge 73, Type (0, 0), BuildingBlock: MIFKUJ_clean_linker_0, # of connection points: 2
#     Edge 74, Type (0, 0), BuildingBlock: MIFKUJ_clean_linker_0, # of connection points: 2
#     Edge 75, Type (0, 0), BuildingBlock: MIFKUJ_clean_linker_0, # of connection points: 2
#     Edge 76, Type (0, 0), BuildingBlock: MIFKUJ_clean_linker_0, # of connection points: 2
#     Edge 77, Type (0, 0), BuildingBlock: MIFKUJ_clean_linker_0, # of connection points: 2
#     Edge 78, Type (0, 0), BuildingBlock: MIFKUJ_clean_linker_0, # of connection points: 2
#     Edge 79, Type (0, 0), BuildingBlock: MIFKUJ_clean_linker_0, # of connection points: 2
#     Edge 80, Type (0, 0), BuildingBlock: MIFKUJ_clean_linker_0, # of connection points: 2
#     Edge 81, Type (0, 0), BuildingBlock: MIFKUJ_clean_linker_0, # of connection points: 2
#     Edge 82, Type (0, 0), BuildingBlock: MIFKUJ_clean_linker_0, # of connection points: 2
#     Edge 83, Type (0, 0), BuildingBlock: MIFKUJ_clean_linker_0, # of connection points: 2
#     Edge 84, Type (0, 0), BuildingBlock: MIFKUJ_clean_linker_0, # of connection points: 2
#     Edge 85, Type (0, 0), BuildingBlock: MIFKUJ_clean_linker_0, # of connection points: 2
#     Edge 86, Type (0, 0), BuildingBlock: MIFKUJ_clean_linker_0, # of connection points: 2
#     Edge 87, Type (0, 0), BuildingBlock: MIFKUJ_clean_linker_0, # of connection points: 2
#     Edge 88, Type (0, 0), BuildingBlock: MIFKUJ_clean_linker_0, # of connection points: 2
#     Edge 89, Type (0, 0), BuildingBlock: MIFKUJ_clean_linker_0, # of connection points: 2
#     Edge 90, Type (0, 0), BuildingBlock: MIFKUJ_clean_linker_0, # of connection points: 2
#     Edge 91, Type (0, 0), BuildingBlock: MIFKUJ_clean_linker_0, # of connection points: 2
#     Edge 92, Type (0, 0), BuildingBlock: MIFKUJ_clean_linker_0, # of connection points: 2
#     Edge 93, Type (0, 0), BuildingBlock: MIFKUJ_clean_linker_0, # of connection points: 2
#     Edge 94, Type (0, 0), BuildingBlock: MIFKUJ_clean_linker_0, # of connection points: 2
#     Edge 95, Type (0, 0), BuildingBlock: MIFKUJ_clean_linker_0, # of connection points: 2
# Relax obj value: 0.063
# Max RMSD: 0.102
# Mean RMSD: 0.102
data_MOF--net-ukc--node1-AZAVOO_clean_sbu_0--edge1-MIFKUJ_clean_linker_0
_symmetry_space_group_name_H-M    P1
_symmetry_Int_Tables_number       1
_symmetry_cell_setting            triclinic
loop_
_symmetry_equiv_pos_as_xyz
'x, y, z'
_cell_length_a     58.992707
_cell_length_b     59.024208
_cell_length_c     107.91098
_cell_angle_alpha  89.984979
_cell_angle_beta   89.983473
_cell_angle_gamma 90.005983
loop_
_atom_site_label
_atom_site_type_symbol
_atom_site_fract_x
_atom_site_fract_y
_atom_site_fract_z
_atom_type_partial_charge
Mg0 Mg 0.10491 0.39077 0.0436 0.0
O1 O 0.09236 0.35716 0.0353 0.0
O2 O 0.11076 0.32934 0.04517 0.0
Mg3 Mg 0.13393 0.34477 0.05985 0.0
C4 C 0.09655 0.33615 0.03706 0.0
C5 C 0.08746 0.43196 0.02992 0.0
O6 O 0.09712 0.44034 0.03989 0.0
O7 O 0.1386 0.38752 0.03335 0.0
O8 O 0.15576 0.36087 0.04467 0.0
O9 O 0.07727 0.38904 0.05754 0.0
O10 O 0.11136 0.37434 0.06028 0.0
C11 C 0.15587 0.37529 0.03585 0.0
C12 C 0.09087 0.37689 0.0642 0.0
O13 O 0.0887 0.41076 0.028 0.0
Mg14 Mg 0.866 0.84283 0.29128 0.0
O15 O 0.8982 0.82667 0.28304 0.0
O16 O 0.92781 0.84618 0.29042 0.0
Mg17 Mg 0.91511 0.87384 0.30339 0.0
C18 C 0.91953 0.8303 0.28379 0.0
C19 C 0.82615 0.81463 0.28224 0.0
O20 O 0.82205 0.81751 0.29411 0.0
O21 O 0.86913 0.87343 0.27841 0.0
O22 O 0.89858 0.89161 0.28686 0.0
O23 O 0.86817 0.81947 0.30745 0.0
O24 O 0.88482 0.85301 0.3066 0.0
C25 C 0.88289 0.89012 0.27876 0.0
C26 C 0.88165 0.8342 0.31241 0.0
O27 O 0.84375 0.8237 0.27759 0.0
Mg28 Mg 0.39629 0.61829 0.53603 0.0
O29 O 0.41052 0.65012 0.52643 0.0
O30 O 0.39133 0.67967 0.53409 0.0
Mg31 Mg 0.36514 0.66735 0.54807 0.0
C32 C 0.40666 0.67142 0.52704 0.0
C33 C 0.42215 0.57706 0.52755 0.0
O34 O 0.4178 0.57343 0.53933 0.0
O35 O 0.36418 0.61928 0.5242 0.0
O36 O 0.34595 0.64848 0.5328 0.0
O37 O 0.42162 0.62272 0.55115 0.0
O38 O 0.38748 0.63826 0.55113 0.0
C39 C 0.34691 0.63226 0.525 0.0
C40 C 0.40719 0.63643 0.55617 0.0
O41 O 0.41464 0.59506 0.52255 0.0
Mg42 Mg 0.62502 0.15129 0.79184 0.0
O43 O 0.59331 0.16529 0.78236 0.0
O44 O 0.56335 0.14696 0.79011 0.0
Mg45 Mg 0.57589 0.12192 0.80482 0.0
C46 C 0.57197 0.16172 0.78284 0.0
C47 C 0.66887 0.16509 0.77854 0.0
O48 O 0.67632 0.15064 0.78686 0.0
O49 O 0.62289 0.11878 0.78061 0.0
O50 O 0.59456 0.10062 0.79016 0.0
O51 O 0.62171 0.17736 0.80652 0.0
O52 O 0.60593 0.14344 0.8075 0.0
C53 C 0.61044 0.10131 0.78211 0.0
C54 C 0.60864 0.16326 0.8123 0.0
O55 O 0.64765 0.16841 0.77764 0.0
Mg56 Mg 0.08942 0.61535 0.44875 0.0
O57 O 0.07753 0.64938 0.45684 0.0
O58 O 0.09782 0.67664 0.44764 0.0
Mg59 Mg 0.12226 0.66043 0.43381 0.0
C60 C 0.08253 0.67027 0.45527 0.0
C61 C 0.07965 0.57764 0.46797 0.0
O62 O 0.10009 0.57197 0.46425 0.0
O63 O 0.12222 0.61677 0.46007 0.0
O64 O 0.14149 0.64321 0.44964 0.0
O65 O 0.06388 0.61925 0.43352 0.0
O66 O 0.09926 0.63143 0.43259 0.0
C67 C 0.14015 0.6285 0.45829 0.0
C68 C 0.07951 0.63021 0.4276 0.0
O69 O 0.0707 0.59563 0.46373 0.0
Mg70 Mg 0.64487 0.84685 0.70293 0.0
O71 O 0.61014 0.83692 0.7107 0.0
O72 O 0.58413 0.85814 0.70106 0.0
Mg73 Mg 0.6021 0.88149 0.68724 0.0
C74 C 0.58955 0.84276 0.70885 0.0
C75 C 0.68143 0.81837 0.71386 0.0
O76 O 0.68708 0.82219 0.70226 0.0
O77 O 0.64443 0.87963 0.71424 0.0
O78 O 0.62009 0.90026 0.70298 0.0
O79 O 0.64003 0.82091 0.6881 0.0
O80 O 0.62964 0.85678 0.68651 0.0
C81 C 0.63408 0.89816 0.71193 0.0
C82 C 0.62965 0.83663 0.68196 0.0
O83 O 0.66329 0.82721 0.71799 0.0
Mg84 Mg 0.40849 0.38544 0.95299 0.0
O85 O 0.42159 0.35116 0.96016 0.0
O86 O 0.40178 0.32412 0.95044 0.0
Mg87 Mg 0.37727 0.34064 0.93676 0.0
C88 C 0.41695 0.3303 0.95818 0.0
C89 C 0.42337 0.42566 0.96896 0.0
O90 O 0.40871 0.43496 0.96133 0.0
O91 O 0.37587 0.38157 0.96428 0.0
O92 O 0.35738 0.35592 0.9529 0.0
O93 O 0.43424 0.3849 0.93779 0.0
O94 O 0.39996 0.36993 0.93644 0.0
C95 C 0.35826 0.36966 0.96202 0.0
C96 C 0.41969 0.373 0.93163 0.0
O97 O 0.42649 0.40438 0.96846 0.0
Mg98 Mg 0.86907 0.15144 0.20647 0.0
O99 O 0.90137 0.16652 0.21524 0.0
O100 O 0.93083 0.14821 0.20685 0.0
Mg101 Mg 0.91795 0.12261 0.19274 0.0
C102 C 0.92269 0.16304 0.21422 0.0
C103 C 0.82593 0.16361 0.22094 0.0
O104 O 0.81872 0.14743 0.21357 0.0
O105 O 0.87232 0.11904 0.2179 0.0
O106 O 0.90156 0.10224 0.20843 0.0
O107 O 0.87098 0.17707 0.19144 0.0
O108 O 0.8873 0.14341 0.19054 0.0
C109 C 0.88601 0.10243 0.21667 0.0
C110 C 0.88399 0.16301 0.18559 0.0
O111 O 0.84688 0.16865 0.22087 0.0
Mg112 Mg 0.90196 0.60921 0.95459 0.0
O113 O 0.91422 0.64301 0.96266 0.0
O114 O 0.89363 0.67031 0.9537 0.0
Mg115 Mg 0.86975 0.65432 0.93946 0.0
C116 C 0.90898 0.66386 0.96126 0.0
C117 C 0.92193 0.56837 0.96739 0.0
O118 O 0.91172 0.56006 0.95757 0.0
O119 O 0.86935 0.61133 0.96585 0.0
O120 O 0.84963 0.63686 0.95496 0.0
O121 O 0.92801 0.61191 0.93985 0.0
O122 O 0.89326 0.62559 0.93821 0.0
C123 C 0.85121 0.6225 0.96378 0.0
C124 C 0.91335 0.6236 0.93363 0.0
O125 O 0.92025 0.58946 0.96957 0.0
Mg126 Mg 0.13445 0.15553 0.70184 0.0
O127 O 0.10376 0.17234 0.71121 0.0
O128 O 0.07259 0.15526 0.70397 0.0
Mg129 Mg 0.083 0.12811 0.69013 0.0
C130 C 0.08223 0.17 0.71084 0.0
C131 C 0.17583 0.18157 0.71034 0.0
O132 O 0.17862 0.17925 0.69833 0.0
O133 O 0.13102 0.12401 0.71397 0.0
O134 O 0.09994 0.10825 0.70581 0.0
O135 O 0.13164 0.18053 0.68653 0.0
O136 O 0.11426 0.14736 0.68665 0.0
C137 C 0.11632 0.10814 0.71355 0.0
C138 C 0.11748 0.16669 0.68138 0.0
O139 O 0.15847 0.17273 0.71538 0.0
Mg140 Mg 0.6 0.38625 0.4546 0.0
O141 O 0.58559 0.35433 0.46387 0.0
O142 O 0.60542 0.32491 0.45655 0.0
Mg143 Mg 0.63081 0.33748 0.44203 0.0
C144 C 0.5899 0.33311 0.46349 0.0
C145 C 0.57466 0.42748 0.46352 0.0
O146 O 0.57913 0.4315 0.45179 0.0
O147 O 0.63208 0.38438 0.46645 0.0
O148 O 0.65104 0.35676 0.45673 0.0
O149 O 0.57488 0.38285 0.43923 0.0
O150 O 0.60877 0.36685 0.4393 0.0
C151 C 0.64989 0.3724 0.46488 0.0
C152 C 0.58935 0.36938 0.43405 0.0
O153 O 0.58187 0.40918 0.46832 0.0
Mg154 Mg 0.37113 0.85069 0.20426 0.0
O155 O 0.40542 0.8377 0.21138 0.0
O156 O 0.4323 0.8583 0.20206 0.0
Mg157 Mg 0.41556 0.88351 0.18883 0.0
C158 C 0.42625 0.84261 0.20952 0.0
C159 C 0.33069 0.83428 0.21912 0.0
O160 O 0.32196 0.84874 0.21118 0.0
O161 O 0.37426 0.88252 0.21608 0.0
O162 O 0.39943 0.9026 0.20512 0.0
O163 O 0.37266 0.8258 0.18882 0.0
O164 O 0.38636 0.8606 0.18777 0.0
C165 C 0.38558 0.90063 0.21416 0.0
C166 C 0.38388 0.841 0.18271 0.0
O167 O 0.35206 0.83163 0.2193 0.0
Mg168 Mg 0.9062 0.38777 0.54383 0.0
O169 O 0.91872 0.35476 0.53501 0.0
O170 O 0.89815 0.32645 0.54296 0.0
Mg171 Mg 0.8731 0.34108 0.5571 0.0
C172 C 0.91383 0.33373 0.53583 0.0
C173 C 0.94692 0.40686 0.52892 0.0
O174 O 0.95712 0.39142 0.53569 0.0
O175 O 0.87385 0.38727 0.532 0.0
O176 O 0.85407 0.3606 0.54208 0.0
O177 O 0.93106 0.38242 0.55933 0.0
O178 O 0.89574 0.37006 0.55937 0.0
C179 C 0.85568 0.37591 0.53377 0.0
C180 C 0.91522 0.37078 0.56465 0.0
O181 O 0.92551 0.40886 0.52967 0.0
Mg182 Mg 0.35056 0.15025 0.29659 0.0
O183 O 0.38656 0.162 0.29183 0.0
O184 O 0.41027 0.14405 0.30471 0.0
Mg185 Mg 0.38978 0.11961 0.31681 0.0
C186 C 0.40649 0.15817 0.29597 0.0
C187 C 0.31593 0.17447 0.28204 0.0
O188 O 0.30713 0.16938 0.29288 0.0
O189 O 0.3566 0.11716 0.28626 0.0
O190 O 0.37884 0.0989 0.2998 0.0
O191 O 0.34894 0.1771 0.3111 0.0
O192 O 0.36065 0.14201 0.3144 0.0
C193 C 0.36762 0.0996 0.28968 0.0
C194 C 0.35783 0.16228 0.31848 0.0
O195 O 0.33599 0.16793 0.2797 0.0
Mg196 Mg 0.59744 0.61438 0.04473 0.0
O197 O 0.58675 0.64678 0.03475 0.0
O198 O 0.60626 0.67562 0.04289 0.0
Mg199 Mg 0.62908 0.66164 0.05828 0.0
C200 C 0.59168 0.66783 0.03525 0.0
C201 C 0.58216 0.57151 0.03075 0.0
O202 O 0.59619 0.56298 0.03897 0.0
O203 O 0.63093 0.61413 0.03415 0.0
O204 O 0.64996 0.64134 0.0442 0.0
O205 O 0.57034 0.62034 0.05873 0.0
O206 O 0.60533 0.6333 0.06043 0.0
C207 C 0.64896 0.62554 0.03613 0.0
C208 C 0.58491 0.63264 0.06465 0.0
O209 O 0.57972 0.59287 0.03021 0.0
Mg210 Mg 0.13106 0.84956 0.78909 0.0
O211 O 0.10054 0.83227 0.77977 0.0
O212 O 0.06925 0.84976 0.7865 0.0
Mg213 Mg 0.07944 0.87776 0.79993 0.0
C214 C 0.07899 0.83459 0.77996 0.0
C215 C 0.17452 0.8266 0.78039 0.0
O216 O 0.17912 0.83225 0.7919 0.0
O217 O 0.12787 0.88032 0.77646 0.0
O218 O 0.09687 0.89698 0.78414 0.0
O219 O 0.12846 0.82552 0.80487 0.0
O220 O 0.1104 0.85834 0.80395 0.0
C221 C 0.11346 0.89645 0.77654 0.0
C222 C 0.11392 0.83944 0.80963 0.0
O223 O 0.15535 0.83197 0.7759 0.0
Mg224 Mg 0.58979 0.88274 0.54208 0.0
O225 O 0.57643 0.84917 0.53397 0.0
O226 O 0.59684 0.82121 0.54239 0.0
Mg227 Mg 0.62395 0.83636 0.55492 0.0
C228 C 0.5809 0.82811 0.53533 0.0
C229 C 0.54904 0.90862 0.53057 0.0
O230 O 0.53993 0.90088 0.54083 0.0
O231 O 0.62096 0.88172 0.52945 0.0
O232 O 0.64044 0.85323 0.53807 0.0
O233 O 0.56648 0.87801 0.5583 0.0
O234 O 0.60179 0.86569 0.55759 0.0
C235 C 0.63826 0.8687 0.52988 0.0
C236 C 0.58277 0.86663 0.56337 0.0
O237 O 0.56941 0.90331 0.528 0.0
Mg238 Mg 0.36784 0.35546 0.78567 0.0
O239 O 0.39882 0.3374 0.77727 0.0
O240 O 0.42977 0.35558 0.78394 0.0
Mg241 Mg 0.41894 0.38473 0.79645 0.0
C242 C 0.42033 0.33981 0.7777 0.0
C243 C 0.32747 0.32674 0.77801 0.0
O244 O 0.32478 0.32951 0.79001 0.0
O245 O 0.37135 0.38523 0.77229 0.0
O246 O 0.40222 0.40236 0.77988 0.0
O247 O 0.37051 0.33296 0.80209 0.0
O248 O 0.3875 0.36623 0.80056 0.0
C249 C 0.38592 0.40124 0.77211 0.0
C250 C 0.38429 0.34779 0.8067 0.0
O251 O 0.3443 0.33613 0.77274 0.0
Mg252 Mg 0.91168 0.12492 0.0405 0.0
O253 O 0.92951 0.15478 0.0309 0.0
O254 O 0.91215 0.18652 0.03705 0.0
Mg255 Mg 0.88405 0.17733 0.05066 0.0
C256 C 0.92736 0.17633 0.03075 0.0
C257 C 0.93609 0.08172 0.0326 0.0
O258 O 0.93222 0.07843 0.04445 0.0
O259 O 0.88079 0.12779 0.02785 0.0
O260 O 0.86443 0.15906 0.03536 0.0
O261 O 0.9355 0.12793 0.05643 0.0
O262 O 0.90286 0.1462 0.05509 0.0
C263 C 0.86465 0.14221 0.02794 0.0
C264 C 0.92151 0.14263 0.06099 0.0
O265 O 0.92912 0.09994 0.02761 0.0
Mg266 Mg 0.13803 0.65388 0.2879 0.0
O267 O 0.10528 0.66703 0.27886 0.0
O268 O 0.0763 0.64719 0.28666 0.0
Mg269 Mg 0.09036 0.62049 0.2998 0.0
C270 C 0.08407 0.66279 0.27965 0.0
C271 C 0.18093 0.67286 0.27596 0.0
O272 O 0.18886 0.65879 0.28435 0.0
O273 O 0.13808 0.62257 0.27542 0.0
O274 O 0.10851 0.60387 0.28345 0.0
O275 O 0.13194 0.678 0.30346 0.0
O276 O 0.11954 0.64262 0.30304 0.0
C277 C 0.12465 0.60561 0.27562 0.0
C278 C 0.11989 0.66206 0.30842 0.0
O279 O 0.15961 0.67428 0.27448 0.0
Mg280 Mg 0.6025 0.11653 0.9584 0.0
O281 O 0.58403 0.14683 0.96716 0.0
O282 O 0.60169 0.17837 0.96097 0.0
Mg283 Mg 0.6311 0.16852 0.94843 0.0
C284 C 0.58604 0.16838 0.96703 0.0
C285 C 0.58259 0.07172 0.96802 0.0
O286 O 0.59402 0.065 0.95824 0.0
O287 O 0.63214 0.11977 0.97188 0.0
O288 O 0.64883 0.15117 0.96472 0.0
O289 O 0.57992 0.11934 0.94203 0.0
O290 O 0.61274 0.13717 0.94373 0.0
C291 C 0.64795 0.13453 0.97226 0.0
C292 C 0.59429 0.13381 0.9376 0.0
O293 O 0.58337 0.09248 0.9711 0.0
Mg294 Mg 0.13152 0.34527 0.2027 0.0
O295 O 0.10183 0.3299 0.21371 0.0
O296 O 0.07026 0.34771 0.20762 0.0
Mg297 Mg 0.07941 0.37399 0.19296 0.0
C298 C 0.08038 0.3329 0.21425 0.0
C299 C 0.17632 0.32378 0.21061 0.0
O300 O 0.1804 0.32996 0.19913 0.0
O301 O 0.13084 0.3773 0.21444 0.0
O302 O 0.09941 0.39416 0.20744 0.0
O303 O 0.12614 0.31971 0.18785 0.0
O304 O 0.1091 0.35312 0.18857 0.0
C305 C 0.11692 0.39385 0.2144 0.0
C306 C 0.11121 0.33356 0.1834 0.0
O307 O 0.15712 0.32837 0.21534 0.0
Mg308 Mg 0.89859 0.88408 0.45715 0.0
O309 O 0.91619 0.85361 0.46631 0.0
O310 O 0.89926 0.82227 0.45926 0.0
Mg311 Mg 0.87122 0.83233 0.44582 0.0
C312 C 0.91424 0.83206 0.46591 0.0
C313 C 0.93754 0.90883 0.47062 0.0
O314 O 0.94871 0.89404 0.46387 0.0
O315 O 0.8674 0.8805 0.46957 0.0
O316 O 0.85142 0.8495 0.46149 0.0
O317 O 0.92289 0.88144 0.44145 0.0
O318 O 0.88986 0.86382 0.44209 0.0
C319 C 0.8514 0.86593 0.46919 0.0
C320 C 0.90888 0.86719 0.43652 0.0
O321 O 0.91599 0.90849 0.47045 0.0
Mg322 Mg 0.36811 0.66238 0.70016 0.0
O323 O 0.39991 0.67971 0.70812 0.0
O324 O 0.42992 0.66219 0.69982 0.0
Mg325 Mg 0.41778 0.6348 0.68652 0.0
C326 C 0.42132 0.67725 0.70689 0.0
C327 C 0.32628 0.6849 0.71072 0.0
O328 O 0.32054 0.67944 0.69934 0.0
O329 O 0.37323 0.63096 0.71221 0.0
O330 O 0.40274 0.6147 0.70272 0.0
O331 O 0.36846 0.68694 0.68454 0.0
O332 O 0.38604 0.65388 0.68423 0.0
C333 C 0.38747 0.61479 0.71112 0.0
C334 C 0.38184 0.67295 0.6789 0.0
O335 O 0.34592 0.67954 0.71457 0.0
Mg336 Mg 0.40747 0.12795 0.4567 0.0
O337 O 0.42119 0.15743 0.4683 0.0
O338 O 0.40277 0.18863 0.46218 0.0
Mg339 Mg 0.37819 0.17959 0.44651 0.0
C340 C 0.41746 0.17873 0.46901 0.0
C341 C 0.43922 0.08956 0.46474 0.0
O342 O 0.44505 0.09319 0.45316 0.0
O343 O 0.37418 0.12772 0.46768 0.0
O344 O 0.35657 0.15769 0.45939 0.0
O345 O 0.43413 0.13482 0.44229 0.0
O346 O 0.4003 0.15076 0.44258 0.0
C347 C 0.35673 0.14035 0.46646 0.0
C348 C 0.42014 0.14944 0.4377 0.0
O349 O 0.42364 0.10164 0.4695 0.0
Mg350 Mg 0.6306 0.64964 0.20455 0.0
O351 O 0.60251 0.66848 0.21508 0.0
O352 O 0.5693 0.65384 0.20907 0.0
Mg353 Mg 0.57585 0.62623 0.19477 0.0
C354 C 0.58087 0.66781 0.21552 0.0
C355 C 0.67495 0.6726 0.21227 0.0
O356 O 0.67718 0.67069 0.2002 0.0
O357 O 0.62647 0.61791 0.21651 0.0
O358 O 0.59353 0.60447 0.20939 0.0
O359 O 0.62797 0.67522 0.18947 0.0
O360 O 0.60771 0.64369 0.19021 0.0
C361 C 0.61083 0.60295 0.21644 0.0
C362 C 0.61182 0.66288 0.18496 0.0
O363 O 0.65726 0.66462 0.2174 0.0
Mg364 Mg 0.09327 0.87842 0.95511 0.0
O365 O 0.07471 0.8483 0.96401 0.0
O366 O 0.09095 0.81661 0.95694 0.0
Mg367 Mg 0.11934 0.82623 0.94359 0.0
C368 C 0.07615 0.82672 0.96357 0.0
C369 C 0.06981 0.92133 0.96393 0.0
O370 O 0.07375 0.92518 0.95213 0.0
O371 O 0.12403 0.87364 0.96761 0.0
O372 O 0.13941 0.84229 0.95954 0.0
O373 O 0.06922 0.87694 0.9393 0.0
O374 O 0.10176 0.85841 0.93993 0.0
C375 C 0.1396 0.85862 0.96731 0.0
C376 C 0.08302 0.86259 0.93425 0.0
O377 O 0.0764 0.9027 0.96861 0.0
Mg378 Mg 0.85799 0.34055 0.70393 0.0
O379 O 0.89318 0.32885 0.71066 0.0
O380 O 0.91902 0.34961 0.70058 0.0
Mg381 Mg 0.90088 0.37522 0.68832 0.0
C382 C 0.91379 0.33396 0.70823 0.0
C383 C 0.81905 0.3231 0.71961 0.0
O384 O 0.80959 0.33826 0.71234 0.0
O385 O 0.85994 0.37235 0.71597 0.0
O386 O 0.88637 0.39202 0.70569 0.0
O387 O 0.86112 0.31598 0.68831 0.0
O388 O 0.8722 0.35176 0.68752 0.0
C389 C 0.87239 0.3899 0.71465 0.0
C390 C 0.8714 0.33208 0.68241 0.0
O391 O 0.84037 0.32027 0.71901 0.0
Mg392 Mg 0.40372 0.87706 0.03612 0.0
O393 O 0.42178 0.84589 0.02796 0.0
O394 O 0.40408 0.8152 0.03536 0.0
Mg395 Mg 0.37589 0.82627 0.04845 0.0
C396 C 0.41944 0.82441 0.02872 0.0
C397 C 0.42169 0.92113 0.02484 0.0
O398 O 0.41017 0.92835 0.03448 0.0
O399 O 0.37306 0.87225 0.02344 0.0
O400 O 0.3567 0.84206 0.03221 0.0
O401 O 0.42728 0.87646 0.05222 0.0
O402 O 0.39474 0.85788 0.05154 0.0
C403 C 0.35704 0.85772 0.02406 0.0
C404 C 0.41337 0.86225 0.05728 0.0
O405 O 0.42166 0.90008 0.02239 0.0
Mg406 Mg 0.873 0.64782 0.79031 0.0
O407 O 0.90367 0.66346 0.78017 0.0
O408 O 0.93432 0.64424 0.78642 0.0
Mg409 Mg 0.92388 0.61754 0.80055 0.0
C410 C 0.92504 0.65976 0.77993 0.0
C411 C 0.83017 0.67263 0.78269 0.0
O412 O 0.82707 0.66823 0.79451 0.0
O413 O 0.87381 0.61631 0.77808 0.0
O414 O 0.90436 0.59843 0.78549 0.0
O415 O 0.8777 0.67226 0.80577 0.0
O416 O 0.89423 0.63865 0.80482 0.0
C417 C 0.88735 0.59944 0.7782 0.0
C418 C 0.89187 0.65781 0.8104 0.0
O419 O 0.84831 0.66585 0.77752 0.0
Mg420 Mg 0.09478 0.11999 0.53912 0.0
O421 O 0.08007 0.15148 0.52967 0.0
O422 O 0.09844 0.18155 0.53732 0.0
Mg423 Mg 0.12353 0.16966 0.55219 0.0
C424 C 0.08354 0.17284 0.53016 0.0
C425 C 0.05672 0.09712 0.52408 0.0
O426 O 0.04539 0.11226 0.53051 0.0
O427 O 0.12753 0.12275 0.52778 0.0
O428 O 0.14523 0.15066 0.53798 0.0
O429 O 0.06863 0.12283 0.55408 0.0
O430 O 0.10201 0.13978 0.55454 0.0
C431 C 0.14494 0.13508 0.52978 0.0
C432 C 0.08231 0.1369 0.55941 0.0
O433 O 0.0782 0.09658 0.525 0.0
Mg434 Mg 0.62816 0.34049 0.28687 0.0
O435 O 0.5937 0.32445 0.28167 0.0
O436 O 0.56722 0.34488 0.29142 0.0
Mg437 Mg 0.58367 0.37407 0.30178 0.0
C438 C 0.57299 0.32828 0.28453 0.0
C439 C 0.66785 0.32313 0.27184 0.0
O440 O 0.67636 0.33987 0.27838 0.0
O441 O 0.62287 0.36994 0.2735 0.0
O442 O 0.59616 0.38962 0.28354 0.0
O443 O 0.6291 0.31869 0.30364 0.0
O444 O 0.6142 0.35305 0.30319 0.0
C445 C 0.60967 0.38701 0.27439 0.0
C446 C 0.61783 0.33454 0.30919 0.0
O447 O 0.6467 0.31926 0.27253 0.0
H448 H 0.94984 0.58114 0.98644 0.0
H449 H 0.97812 0.5578 0.99702 0.0
H450 H 0.95748 0.49985 0.97544 0.0
H451 H 0.92903 0.52293 0.96493 0.0
H452 H 0.96507 0.4885 -0.00063 0.0
H453 H 0.00388 0.52956 0.96729 0.0
H454 H 0.01567 0.56365 0.95576 0.0
H455 H 0.04774 0.58999 0.98844 0.0
H456 H 0.03586 0.55617 0.00022 0.0
H457 H 0.06055 0.41914 0.01045 0.0
H458 H 0.03289 0.4425 -0.00058 0.0
H459 H 0.05307 0.50067 0.02094 0.0
H460 H 0.08092 0.47757 0.03191 0.0
H461 H 0.04579 0.51181 0.9969 0.0
H462 H 0.00668 0.47088 0.029 0.0
H463 H 0.99486 0.43678 0.04053 0.0
H464 H 0.96333 0.4102 0.00775 0.0
H465 H 0.97524 0.44402 0.99598 0.0
C466 C 0.95113 0.56337 0.98405 0.0
C467 C 0.93731 0.55393 0.97478 0.0
C468 C 0.96738 0.55009 0.99005 0.0
C469 C 0.97013 0.52719 0.98686 0.0
C470 C 0.9557 0.51751 0.978 0.0
C471 C 0.93947 0.53075 0.97199 0.0
C472 C 0.98849 0.51346 0.99245 0.0
C473 C 0.98274 0.49344 -0.00129 0.0
C474 C 0.01151 0.52015 0.99175 0.0
C475 C 0.01878 0.54044 0.98467 0.0
C476 C 0.0133 0.5427 0.97204 0.0
C477 C 0.02002 0.56196 0.96546 0.0
C478 C 0.03239 0.579 0.97137 0.0
C479 C 0.03812 0.57679 0.98388 0.0
C480 C 0.03141 0.55757 0.99051 0.0
C481 C 0.05933 0.43697 0.01272 0.0
C482 C 0.07279 0.44646 0.02214 0.0
C483 C 0.04343 0.45026 0.00645 0.0
C484 C 0.04067 0.47321 0.00953 0.0
C485 C 0.05486 0.48297 0.01848 0.0
C486 C 0.07074 0.46971 0.02475 0.0
C487 C 0.02236 0.48685 0.00382 0.0
C488 C 0.02812 0.50686 -0.00245 0.0
C489 C 0.99935 0.48015 0.0045 0.0
C490 C 0.99205 0.45987 0.01158 0.0
C491 C 0.99737 0.45768 0.02423 0.0
C492 C 0.99063 0.43842 0.03081 0.0
C493 C 0.9784 0.42131 0.02487 0.0
C494 C 0.97283 0.42346 0.01234 0.0
C495 C 0.97956 0.44267 0.00571 0.0
H496 H 0.9732 0.40641 0.02998 0.0
H497 H 0.03759 0.5939 0.96625 0.0
H498 H 0.67451 0.68168 0.23717 0.0
H499 H 0.70118 0.70524 0.24878 0.0
H500 H 0.74005 0.71651 0.21547 0.0
H501 H 0.71369 0.69273 0.20383 0.0
H502 H 0.76746 0.70937 0.23508 0.0
H503 H 0.70344 0.75637 0.22569 0.0
H504 H 0.66292 0.76657 0.22502 0.0
H505 H 0.65979 0.76441 0.26476 0.0
H506 H 0.70023 0.75386 0.26565 0.0
H507 H 0.82957 0.80463 0.25748 0.0
H508 H 0.80456 0.78023 0.24524 0.0
H509 H 0.76354 0.76776 0.27764 0.0
H510 H 0.78814 0.79233 0.28985 0.0
H511 H 0.73756 0.77596 0.2579 0.0
H512 H 0.80186 0.72847 0.26714 0.0
H513 H 0.84247 0.71859 0.26759 0.0
H514 H 0.84523 0.72221 0.22787 0.0
H515 H 0.80468 0.73241 0.2272 0.0
C516 C 0.68883 0.68901 0.23233 0.0
C517 C 0.69188 0.68545 0.21955 0.0
C518 C 0.70401 0.70255 0.23897 0.0
C519 C 0.72241 0.71291 0.23294 0.0
C520 C 0.72593 0.70874 0.22029 0.0
C521 C 0.71079 0.69519 0.21365 0.0
C522 C 0.73761 0.72858 0.23975 0.0
C523 C 0.76097 0.72409 0.23995 0.0
C524 C 0.72909 0.74761 0.24623 0.0
C525 C 0.70481 0.75411 0.24573 0.0
C526 C 0.69407 0.7579 0.23428 0.0
C527 C 0.67112 0.76377 0.23386 0.0
C528 C 0.65877 0.76608 0.24484 0.0
C529 C 0.66937 0.76258 0.25626 0.0
C530 C 0.6923 0.75668 0.25673 0.0
C531 C 0.81519 0.79674 0.26198 0.0
C532 C 0.81088 0.80038 0.27465 0.0
C533 C 0.80097 0.78272 0.255 0.0
C534 C 0.78233 0.77196 0.26057 0.0
C535 C 0.77783 0.77586 0.27315 0.0
C536 C 0.79197 0.78989 0.28012 0.0
C537 C 0.7674 0.75663 0.25335 0.0
C538 C 0.74406 0.76124 0.25304 0.0
C539 C 0.77597 0.73776 0.24674 0.0
C540 C 0.80029 0.73143 0.24713 0.0
C541 C 0.81117 0.72732 0.25851 0.0
C542 C 0.83417 0.72163 0.2588 0.0
C543 C 0.84644 0.71983 0.24777 0.0
C544 C 0.83571 0.72364 0.23641 0.0
C545 C 0.81272 0.72935 0.23607 0.0
H546 H 0.86425 0.71544 0.24801 0.0
H547 H 0.64101 0.77062 0.2445 0.0
H548 H 0.5562 0.46713 0.45543 0.0
H549 H 0.53077 0.49243 0.46662 0.0
H550 H 0.53501 0.44941 0.49886 0.0
H551 H 0.5603 0.42368 0.48762 0.0
H552 H 0.49186 0.46088 0.49392 0.0
H553 H 0.56235 0.50036 0.49799 0.0
H554 H 0.5979 0.51792 0.49076 0.0
H555 H 0.56004 0.56464 0.46836 0.0
H556 H 0.52425 0.54715 0.47533 0.0
H557 H 0.44087 0.53776 0.53599 0.0
H558 H 0.46662 0.5124 0.52506 0.0
H559 H 0.46238 0.55461 0.49251 0.0
H560 H 0.43675 0.58039 0.50348 0.0
H561 H 0.50571 0.54349 0.49779 0.0
H562 H 0.43519 0.50373 0.49369 0.0
H563 H 0.39972 0.48612 0.50101 0.0
H564 H 0.43781 0.43989 0.5236 0.0
H565 H 0.47352 0.45743 0.51655 0.0
C566 C 0.55189 0.46308 0.46493 0.0
C567 C 0.56031 0.44338 0.47064 0.0
C568 C 0.5374 0.47764 0.47133 0.0
C569 C 0.53117 0.47294 0.48362 0.0
C570 C 0.53964 0.45336 0.48939 0.0
C571 C 0.55415 0.43873 0.48297 0.0
C572 C 0.51522 0.48811 0.49025 0.0
C573 C 0.49505 0.47889 0.49495 0.0
C574 C 0.51912 0.51171 0.49128 0.0
C575 C 0.54062 0.5223 0.4871 0.0
C576 C 0.56161 0.51426 0.49145 0.0
C577 C 0.5818 0.52422 0.48741 0.0
C578 C 0.58123 0.54234 0.47908 0.0
C579 C 0.56045 0.55058 0.4748 0.0
C580 C 0.54021 0.54067 0.4788 0.0
C581 C 0.44526 0.54162 0.52648 0.0
C582 C 0.43672 0.5611 0.5206 0.0
C583 C 0.45994 0.52703 0.52023 0.0
C584 C 0.46626 0.53149 0.50793 0.0
C585 C 0.45768 0.55085 0.50199 0.0
C586 C 0.44298 0.5655 0.50825 0.0
C587 C 0.48234 0.51626 0.50144 0.0
C588 C 0.50254 0.52548 0.49677 0.0
C589 C 0.47848 0.49266 0.50045 0.0
C590 C 0.45702 0.48204 0.50468 0.0
C591 C 0.436 0.48993 0.5003 0.0
C592 C 0.41585 0.47993 0.50439 0.0
C593 C 0.41651 0.46194 0.51279 0.0
C594 C 0.43732 0.45385 0.5171 0.0
C595 C 0.45752 0.4638 0.51305 0.0
H596 H 0.40089 0.45422 0.51594 0.0
H597 H 0.59689 0.55003 0.47597 0.0
H598 H 0.8325 0.28715 0.73394 0.0
H599 H 0.80816 0.25993 0.7447 0.0
H600 H 0.74898 0.29709 0.73295 0.0
H601 H 0.77312 0.32451 0.72236 0.0
H602 H 0.74464 0.28329 0.75648 0.0
H603 H 0.76623 0.24978 0.71753 0.0
H604 H 0.79312 0.23643 0.70162 0.0
H605 H 0.82218 0.18982 0.72772 0.0
H606 H 0.79565 0.20313 0.74384 0.0
H607 H 0.65919 0.20088 0.76332 0.0
H608 H 0.68608 0.22708 0.75374 0.0
H609 H 0.74185 0.18829 0.76849 0.0
H610 H 0.71509 0.16191 0.77808 0.0
H611 H 0.74932 0.2023 0.74436 0.0
H612 H 0.7263 0.23489 0.78308 0.0
H613 H 0.69886 0.24804 0.79874 0.0
H614 H 0.67203 0.29634 0.77285 0.0
H615 H 0.69911 0.28325 0.75696 0.0
C616 C 0.81432 0.28967 0.73377 0.0
C617 C 0.80473 0.3079 0.7272 0.0
C618 C 0.80043 0.27403 0.73987 0.0
C619 C 0.77674 0.27628 0.73945 0.0
C620 C 0.76721 0.29498 0.73335 0.0
C621 C 0.78105 0.31062 0.72727 0.0
C622 C 0.76175 0.25883 0.74499 0.0
C623 C 0.74553 0.26562 0.75374 0.0
C624 C 0.76322 0.23569 0.74161 0.0
C625 C 0.77913 0.22763 0.73192 0.0
C626 C 0.77848 0.23681 0.7199 0.0
C627 C 0.79363 0.22924 0.71084 0.0
C628 C 0.8094 0.21234 0.71367 0.0
C629 C 0.80999 0.20294 0.72555 0.0
C630 C 0.79489 0.21048 0.73465 0.0
C631 C 0.67717 0.19773 0.76441 0.0
C632 C 0.68501 0.1794 0.77155 0.0
C633 C 0.6925 0.21279 0.75898 0.0
C634 C 0.71592 0.2098 0.76059 0.0
C635 C 0.72383 0.19094 0.7672 0.0
C636 C 0.7085 0.17591 0.77268 0.0
C637 C 0.7321 0.22683 0.75573 0.0
C638 C 0.74854 0.21995 0.74713 0.0
C639 C 0.73079 0.2499 0.75923 0.0
C640 C 0.7146 0.25794 0.76879 0.0
C641 C 0.71444 0.2482 0.78069 0.0
C642 C 0.69896 0.25566 0.78962 0.0
C643 C 0.68367 0.27298 0.78678 0.0
C644 C 0.68387 0.28291 0.77503 0.0
C645 C 0.69929 0.27549 0.76606 0.0
H646 H 0.6717 0.27873 0.7937 0.0
H647 H 0.82111 0.20649 0.70664 0.0
H648 H 0.93159 0.44391 0.51618 0.0
H649 H 0.95425 0.47304 0.50595 0.0
H650 H 0.01535 0.43647 0.51502 0.0
H651 H 0.99282 0.40744 0.52549 0.0
H652 H 0.01985 0.48009 0.52057 0.0
H653 H 0.99466 0.43787 0.48531 0.0
H654 H 0.96688 0.41927 0.4716 0.0
H655 H 0.93399 0.48312 0.46526 0.0
H656 H 0.9614 0.50206 0.47908 0.0
H657 H 0.09457 0.53965 0.47992 0.0
H658 H 0.07172 0.51144 0.49083 0.0
H659 H 0.01163 0.5513 0.48428 0.0
H660 H 0.03435 0.57965 0.47335 0.0
H661 H 0.00649 0.50645 0.47753 0.0
H662 H 0.0327 0.54855 0.51272 0.0
H663 H 0.06111 0.56665 0.52623 0.0
H664 H 0.09296 0.50222 0.5324 0.0
H665 H 0.06492 0.48377 0.51877 0.0
C666 C 0.94983 0.44191 0.51589 0.0
C667 C 0.9604 0.42335 0.52166 0.0
C668 C 0.96277 0.45857 0.51001 0.0
C669 C 0.9865 0.45688 0.50966 0.0
C670 C 0.99707 0.43815 0.51521 0.0
C671 C 0.98415 0.42151 0.52113 0.0
C672 C 0.00035 0.47507 0.50391 0.0
C673 C 0.01715 0.48563 0.5111 0.0
C674 C 0.99645 0.48267 0.49165 0.0
C675 C 0.97995 0.47134 0.48333 0.0
C676 C 0.98139 0.44791 0.48107 0.0
C677 C 0.96574 0.43732 0.47327 0.0
C678 C 0.94865 0.45 0.46759 0.0
C679 C 0.94722 0.47332 0.46968 0.0
C680 C 0.96282 0.48399 0.47749 0.0
C681 C 0.07654 0.54257 0.48092 0.0
C682 C 0.06627 0.56186 0.47573 0.0
C683 C 0.06352 0.52645 0.48719 0.0
C684 C 0.04 0.52931 0.48837 0.0
C685 C 0.02976 0.54879 0.48345 0.0
C686 C 0.0428 0.56501 0.47726 0.0
C687 C 0.02596 0.5114 0.49419 0.0
C688 C 0.00915 0.5009 0.48701 0.0
C689 C 0.02995 0.50376 0.50642 0.0
C690 C 0.04684 0.51482 0.51462 0.0
C691 C 0.04588 0.53827 0.51686 0.0
C692 C 0.06189 0.54859 0.52456 0.0
C693 C 0.07886 0.53561 0.53014 0.0
C694 C 0.07982 0.51226 0.52806 0.0
C695 C 0.06386 0.50186 0.52035 0.0
H696 H 0.09124 0.54363 0.53611 0.0
H697 H 0.93654 0.44176 0.46155 0.0
H698 H 0.67442 0.80536 0.73801 0.0
H699 H 0.69784 0.77955 0.75038 0.0
H700 H 0.74386 0.77184 0.71959 0.0
H701 H 0.72057 0.79727 0.70719 0.0
H702 H 0.73377 0.73153 0.7298 0.0
H703 H 0.75719 0.80538 0.74413 0.0
H704 H 0.75133 0.84345 0.75297 0.0
H705 H 0.7238 0.8139 0.78609 0.0
H706 H 0.72923 0.77563 0.77736 0.0
H707 H 0.83177 0.68592 0.75838 0.0
H708 H 0.80437 0.70952 0.74732 0.0
H709 H 0.76297 0.71339 0.78021 0.0
H710 H 0.79037 0.69005 0.79138 0.0
H711 H 0.76817 0.75439 0.76984 0.0
H712 H 0.74694 0.68041 0.75608 0.0
H713 H 0.75295 0.64232 0.7473 0.0
H714 H 0.77616 0.67184 0.71321 0.0
H715 H 0.77059 0.71013 0.72185 0.0
C716 C 0.68957 0.79821 0.73391 0.0
C717 C 0.69565 0.80339 0.72163 0.0
C718 C 0.70295 0.78351 0.74099 0.0
C719 C 0.72265 0.77387 0.73591 0.0
C720 C 0.7287 0.77903 0.72367 0.0
C721 C 0.71538 0.79367 0.71661 0.0
C722 C 0.73707 0.75828 0.74326 0.0
C723 C 0.74147 0.73659 0.7385 0.0
C724 C 0.74659 0.76468 0.75477 0.0
C725 C 0.74337 0.78767 0.76003 0.0
C726 C 0.74971 0.80701 0.75325 0.0
C727 C 0.7465 0.82862 0.75825 0.0
C728 C 0.73713 0.8311 0.77007 0.0
C729 C 0.73102 0.81196 0.77692 0.0
C730 C 0.73417 0.79031 0.77196 0.0
C731 C 0.81677 0.69168 0.76325 0.0
C732 C 0.81324 0.68609 0.77576 0.0
C733 C 0.80109 0.7051 0.7569 0.0
C734 C 0.78153 0.71305 0.76292 0.0
C735 C 0.77794 0.70743 0.77539 0.0
C736 C 0.7936 0.69403 0.78175 0.0
C737 C 0.76514 0.72774 0.75629 0.0
C738 C 0.76035 0.74925 0.76118 0.0
C739 C 0.75524 0.72116 0.74491 0.0
C740 C 0.75853 0.69815 0.73966 0.0
C741 C 0.75349 0.67878 0.74674 0.0
C742 C 0.75679 0.65715 0.74178 0.0
C743 C 0.76499 0.65466 0.72971 0.0
C744 C 0.76984 0.6738 0.72256 0.0
C745 C 0.76659 0.69547 0.72748 0.0
H746 H 0.76754 0.6379 0.72589 0.0
H747 H 0.73466 0.84784 0.77393 0.0
H748 H 0.42098 0.47151 0.97207 0.0
H749 H 0.44789 0.49586 0.98295 0.0
H750 H 0.48631 0.43712 0.99409 0.0
H751 H 0.45926 0.41256 0.98339 0.0
H752 H 0.48348 0.46791 0.01265 0.0
H753 H 0.50294 0.46846 0.96936 0.0
H754 H 0.49556 0.47327 0.94702 0.0
H755 H 0.47727 0.5428 0.95308 0.0
H756 H 0.48425 0.53832 0.97549 0.0
H757 H 0.58423 0.52536 0.02899 0.0
H758 H 0.55752 0.50022 0.01849 0.0
H759 H 0.51952 0.55815 0.00572 0.0
H760 H 0.54644 0.58343 0.01595 0.0
H761 H 0.5224 0.52729 0.98797 0.0
H762 H 0.5025 0.52695 0.03117 0.0
H763 H 0.50944 0.52235 0.05357 0.0
H764 H 0.52806 0.45282 0.04779 0.0
H765 H 0.52152 0.45709 0.02533 0.0
C766 C 0.43501 0.46372 0.97695 0.0
C767 C 0.4381 0.4401 0.97676 0.0
C768 C 0.45043 0.47768 0.98311 0.0
C769 C 0.46935 0.46832 0.98911 0.0
C770 C 0.4719 0.44469 0.98946 0.0
C771 C 0.45642 0.43069 0.98332 0.0
C772 C 0.48689 0.48322 0.99463 0.0
C773 C 0.4922 0.48071 0.00722 0.0
C774 C 0.49795 0.50021 0.9876 0.0
C775 C 0.49392 0.50299 0.97411 0.0
C776 C 0.4972 0.48473 0.96594 0.0
C777 C 0.49311 0.48741 0.95326 0.0
C778 C 0.4859 0.50831 0.94864 0.0
C779 C 0.48283 0.52661 0.95668 0.0
C780 C 0.48687 0.52402 0.96936 0.0
C781 C 0.57031 0.53277 0.02385 0.0
C782 C 0.56737 0.5564 0.02338 0.0
C783 C 0.55498 0.51836 0.01791 0.0
C784 C 0.53625 0.52728 0.01154 0.0
C785 C 0.53378 0.55088 0.01064 0.0
C786 C 0.5492 0.56531 0.0165 0.0
C787 C 0.51896 0.51206 0.00601 0.0
C788 C 0.5137 0.5145 0.99341 0.0
C789 C 0.50791 0.49505 0.01305 0.0
C790 C 0.51173 0.49241 0.02656 0.0
C791 C 0.50823 0.51072 0.03467 0.0
C792 C 0.51207 0.50817 0.04738 0.0
C793 C 0.51924 0.48732 0.0521 0.0
C794 C 0.52253 0.46897 0.04412 0.0
C795 C 0.51874 0.47144 0.0314 0.0
H796 H 0.52221 0.48538 0.06194 0.0
H797 H 0.48274 0.51035 0.93882 0.0
H798 H 0.83425 0.20277 0.23372 0.0
H799 H 0.80643 0.22852 0.24275 0.0
H800 H 0.75262 0.18253 0.23274 0.0
H801 H 0.78033 0.15689 0.22341 0.0
H802 H 0.74227 0.22416 0.22587 0.0
H803 H 0.76932 0.18991 0.26324 0.0
H804 H 0.79788 0.17706 0.27837 0.0
H805 H 0.82051 0.24561 0.28332 0.0
H806 H 0.79228 0.25884 0.26809 0.0
H807 H 0.65691 0.28312 0.26039 0.0
H808 H 0.68309 0.25512 0.25175 0.0
H809 H 0.73948 0.29926 0.25984 0.0
H810 H 0.71352 0.32715 0.26863 0.0
H811 H 0.74734 0.25718 0.26804 0.0
H812 H 0.72098 0.29106 0.23011 0.0
H813 H 0.69232 0.30375 0.21499 0.0
H814 H 0.66812 0.23548 0.21126 0.0
H815 H 0.69647 0.22242 0.22649 0.0
C816 C 0.81654 0.19795 0.23359 0.0
C817 C 0.8095 0.1778 0.22781 0.0
C818 C 0.80063 0.21268 0.2388 0.0
C819 C 0.77742 0.20741 0.23849 0.0
C820 C 0.77043 0.18697 0.23305 0.0
C821 C 0.78631 0.17229 0.22777 0.0
C822 C 0.76039 0.22379 0.24322 0.0
C823 C 0.74316 0.23109 0.23517 0.0
C824 C 0.76184 0.23323 0.25524 0.0
C825 C 0.7788 0.22533 0.26443 0.0
C826 C 0.7805 0.20222 0.26748 0.0
C827 C 0.79661 0.19488 0.27609 0.0
C828 C 0.81103 0.2105 0.28178 0.0
C829 C 0.80934 0.23352 0.27889 0.0
C830 C 0.79327 0.24095 0.27028 0.0
C831 C 0.67485 0.287 0.26017 0.0
C832 C 0.68314 0.30734 0.26524 0.0
C833 C 0.6898 0.27099 0.25522 0.0
C834 C 0.71325 0.27512 0.25514 0.0
C835 C 0.72146 0.29568 0.25986 0.0
C836 C 0.70657 0.31165 0.26483 0.0
C837 C 0.72938 0.25766 0.25066 0.0
C838 C 0.74642 0.25015 0.25876 0.0
C839 C 0.72772 0.24799 0.2387 0.0
C840 C 0.71069 0.25581 0.22953 0.0
C841 C 0.70943 0.27879 0.22614 0.0
C842 C 0.69326 0.28603 0.21754 0.0
C843 C 0.67837 0.27044 0.2122 0.0
C844 C 0.67965 0.24754 0.21542 0.0
C845 C 0.69577 0.24021 0.22403 0.0
H846 H 0.66587 0.27608 0.20554 0.0
H847 H 0.82349 0.20478 0.28844 0.0
H848 H 0.32779 0.31729 0.75314 0.0
H849 H 0.3019 0.29238 0.7418 0.0
H850 H 0.26547 0.27846 0.77562 0.0
H851 H 0.29131 0.3031 0.78703 0.0
H852 H 0.27367 0.24007 0.76279 0.0
H853 H 0.2434 0.31383 0.7543 0.0
H854 H 0.24452 0.35365 0.74741 0.0
H855 H 0.26477 0.33242 0.711 0.0
H856 H 0.26408 0.29247 0.71773 0.0
H857 H 0.17538 0.19012 0.73533 0.0
H858 H 0.20146 0.21435 0.747 0.0
H859 H 0.23883 0.22833 0.71349 0.0
H860 H 0.21285 0.20435 0.70178 0.0
H861 H 0.22991 0.26669 0.72633 0.0
H862 H 0.26013 0.19277 0.73493 0.0
H863 H 0.25874 0.15302 0.74192 0.0
H864 H 0.23819 0.17463 0.77821 0.0
H865 H 0.23916 0.21453 0.77139 0.0
C866 C 0.31422 0.30899 0.75815 0.0
C867 C 0.31158 0.31222 0.77098 0.0
C868 C 0.29941 0.29481 0.75166 0.0
C869 C 0.28167 0.2837 0.75786 0.0
C870 C 0.27905 0.28685 0.77066 0.0
C871 C 0.29381 0.30103 0.77715 0.0
C872 C 0.26593 0.26858 0.75105 0.0
C873 C 0.26387 0.24596 0.75491 0.0
C874 C 0.2535 0.27617 0.74064 0.0
C875 C 0.25391 0.30017 0.73656 0.0
C876 C 0.24828 0.31766 0.74486 0.0
C877 C 0.2488 0.34025 0.74097 0.0
C878 C 0.25477 0.34556 0.72878 0.0
C879 C 0.26018 0.32828 0.72044 0.0
C880 C 0.25971 0.30566 0.72428 0.0
C881 C 0.18923 0.19825 0.73047 0.0
C882 C 0.19204 0.1953 0.71763 0.0
C883 C 0.20414 0.21204 0.73715 0.0
C884 C 0.22214 0.22305 0.73111 0.0
C885 C 0.22503 0.22002 0.71832 0.0
C886 C 0.2102 0.20623 0.71165 0.0
C887 C 0.2377 0.23816 0.73803 0.0
C888 C 0.23971 0.2608 0.7342 0.0
C889 C 0.25004 0.23059 0.74848 0.0
C890 C 0.24948 0.20662 0.75261 0.0
C891 C 0.25512 0.18904 0.74437 0.0
C892 C 0.25445 0.16648 0.74831 0.0
C893 C 0.24832 0.1613 0.76049 0.0
C894 C 0.2429 0.17867 0.76877 0.0
C895 C 0.24353 0.20126 0.76488 0.0
H896 H 0.24781 0.14382 0.76352 0.0
H897 H 0.25516 0.36307 0.72579 0.0
H898 H 0.2272 0.67299 0.27654 0.0
H899 H 0.2528 0.70054 0.26709 0.0
H900 H 0.19561 0.73584 0.25134 0.0
H901 H 0.16987 0.70807 0.26057 0.0
H902 H 0.22945 0.73313 0.23502 0.0
H903 H 0.22197 0.75528 0.27761 0.0
H904 H 0.22297 0.74989 0.30027 0.0
H905 H 0.29381 0.73356 0.29838 0.0
H906 H 0.29317 0.73854 0.27568 0.0
H907 H 0.28451 0.83545 0.22033 0.0
H908 H 0.25943 0.8083 0.23048 0.0
H909 H 0.31743 0.77191 0.24446 0.0
H910 H 0.34275 0.7992 0.23442 0.0
H911 H 0.28352 0.77514 0.26173 0.0
H912 H 0.2907 0.75316 0.21902 0.0
H913 H 0.28948 0.75904 0.1964 0.0
H914 H 0.21871 0.77558 0.19863 0.0
H915 H 0.21959 0.77011 0.2213 0.0
C916 C 0.22005 0.68651 0.27099 0.0
C917 C 0.19647 0.68842 0.26937 0.0
C918 C 0.23471 0.70233 0.26566 0.0
C919 C 0.22609 0.7205 0.25872 0.0
C920 C 0.20262 0.72201 0.25672 0.0
C921 C 0.18793 0.70612 0.262 0.0
C922 C 0.24152 0.73808 0.25366 0.0
C923 C 0.24105 0.74252 0.24089 0.0
C924 C 0.25702 0.75 0.26128 0.0
C925 C 0.25746 0.74706 0.27493 0.0
C926 C 0.23772 0.75036 0.28202 0.0
C927 C 0.23823 0.74741 0.29487 0.0
C928 C 0.25842 0.74133 0.30076 0.0
C929 C 0.27817 0.73824 0.29381 0.0
C930 C 0.27775 0.74114 0.28095 0.0
C931 C 0.29198 0.82183 0.22567 0.0
C932 C 0.31565 0.81936 0.22647 0.0
C933 C 0.2776 0.80627 0.23142 0.0
C934 C 0.28658 0.78786 0.23802 0.0
C935 C 0.31017 0.78594 0.23935 0.0
C936 C 0.32461 0.80154 0.2336 0.0
C937 C 0.27136 0.77019 0.24312 0.0
C938 C 0.27189 0.76573 0.25588 0.0
C939 C 0.25587 0.75828 0.23551 0.0
C940 C 0.25526 0.76143 0.22187 0.0
C941 C 0.27492 0.75821 0.2147 0.0
C942 C 0.27428 0.76145 0.20187 0.0
C943 C 0.25404 0.76774 0.19609 0.0
C944 C 0.23438 0.77074 0.20312 0.0
C945 C 0.23493 0.76755 0.21596 0.0
H946 H 0.25359 0.77024 0.18615 0.0
H947 H 0.25878 0.73905 0.31071 0.0
H948 H 0.32892 0.18964 0.259 0.0
H949 H 0.30736 0.21448 0.24508 0.0
H950 H 0.25254 0.21645 0.27153 0.0
H951 H 0.27357 0.19148 0.28526 0.0
H952 H 0.23662 0.21068 0.24885 0.0
H953 H 0.29185 0.25985 0.26863 0.0
H954 H 0.3305 0.2724 0.27403 0.0
H955 H 0.34668 0.27947 0.23543 0.0
H956 H 0.30822 0.26665 0.22979 0.0
H957 H 0.17213 0.30617 0.23393 0.0
H958 H 0.19832 0.28065 0.24452 0.0
H959 H 0.24423 0.2842 0.21346 0.0
H960 H 0.21822 0.30998 0.20282 0.0
H961 H 0.26671 0.28549 0.23579 0.0
H962 H 0.21076 0.23941 0.21604 0.0
H963 H 0.17202 0.22741 0.21052 0.0
H964 H 0.15735 0.2144 0.24884 0.0
H965 H 0.19592 0.22665 0.25461 0.0
C966 C 0.31222 0.19528 0.26179 0.0
C967 C 0.30297 0.18863 0.27324 0.0
C968 C 0.29998 0.20955 0.25386 0.0
C969 C 0.27843 0.21749 0.25733 0.0
C970 C 0.26911 0.21051 0.26866 0.0
C971 C 0.28122 0.19626 0.27652 0.0
C972 C 0.26537 0.23319 0.24934 0.0
C973 C 0.24317 0.2271 0.24606 0.0
C974 C 0.27415 0.25432 0.24538 0.0
C975 C 0.29725 0.26204 0.24879 0.0
C976 C 0.30371 0.2639 0.26129 0.0
C977 C 0.32558 0.27109 0.2644 0.0
C978 C 0.34105 0.27667 0.25508 0.0
C979 C 0.33469 0.2751 0.24263 0.0
C980 C 0.31287 0.26788 0.23948 0.0
C981 C 0.18788 0.30171 0.22939 0.0
C982 C 0.19299 0.30994 0.21749 0.0
C983 C 0.20279 0.28706 0.23543 0.0
C984 C 0.22302 0.28026 0.22967 0.0
C985 C 0.22865 0.28917 0.21803 0.0
C986 C 0.21373 0.30385 0.21196 0.0
C987 C 0.2378 0.2632 0.23567 0.0
C988 C 0.26029 0.26898 0.23848 0.0
C989 C 0.22933 0.24174 0.23921 0.0
C990 C 0.20618 0.23411 0.23576 0.0
C991 C 0.19923 0.23413 0.2233 0.0
C992 C 0.1773 0.22727 0.22012 0.0
C993 C 0.16222 0.22019 0.22933 0.0
C994 C 0.16905 0.2199 0.24172 0.0
C995 C 0.19095 0.22678 0.24495 0.0
H996 H 0.14525 0.2149 0.22685 0.0
H997 H 0.35794 0.2823 0.25749 0.0
H998 H 0.16938 0.80986 0.75689 0.0
H999 H 0.19572 0.78565 0.74545 0.0
H1000 H 0.24269 0.78804 0.77605 0.0
H1001 H 0.21663 0.81247 0.78749 0.0
H1002 H 0.26431 0.79268 0.75411 0.0
H1003 H 0.2095 0.74219 0.77188 0.0
H1004 H 0.1711 0.72791 0.77641 0.0
H1005 H 0.15896 0.71825 0.73753 0.0
H1006 H 0.19719 0.73278 0.73276 0.0
H1007 H 0.33328 0.70074 0.7343 0.0
H1008 H 0.30776 0.7244 0.74664 0.0
H1009 H 0.25856 0.72315 0.71708 0.0
H1010 H 0.28373 0.69927 0.70479 0.0
H1011 H 0.23849 0.71749 0.73915 0.0
H1012 H 0.29301 0.76888 0.72138 0.0
H1013 H 0.33142 0.78319 0.71688 0.0
H1014 H 0.34415 0.79106 0.75582 0.0
H1015 H 0.30589 0.77651 0.76056 0.0
C1016 C 0.18537 0.80535 0.76116 0.0
C1017 C 0.19086 0.81299 0.77313 0.0
C1018 C 0.20035 0.79143 0.75464 0.0
C1019 C 0.22102 0.7848 0.75998 0.0
C1020 C 0.22681 0.79291 0.77178 0.0
C1021 C 0.21185 0.80683 0.77831 0.0
C1022 C 0.23645 0.76912 0.75336 0.0
C1023 C 0.25877 0.77611 0.75098 0.0
C1024 C 0.22909 0.74767 0.74911 0.0
C1025 C 0.20613 0.73878 0.75195 0.0
C1026 C 0.19858 0.73718 0.76429 0.0
C1027 C 0.17685 0.72901 0.7669 0.0
C1028 C 0.16257 0.72223 0.75726 0.0
C1029 C 0.17002 0.72354 0.74499 0.0
C1030 C 0.19173 0.73172 0.74232 0.0
C1031 C 0.31697 0.70539 0.73046 0.0
C1032 C 0.31058 0.69822 0.71854 0.0
C1033 C 0.30246 0.719 0.7375 0.0
C1034 C 0.28139 0.72578 0.73271 0.0
C1035 C 0.27476 0.71815 0.72095 0.0
C1036 C 0.28921 0.70454 0.71392 0.0
C1037 C 0.26631 0.7411 0.73982 0.0
C1038 C 0.24406 0.73403 0.7423 0.0
C1039 C 0.27374 0.76247 0.74417 0.0
C1040 C 0.29668 0.77138 0.74133 0.0
C1041 C 0.30406 0.77351 0.72899 0.0
C1042 C 0.32579 0.78169 0.72639 0.0
C1043 C 0.34024 0.78797 0.73606 0.0
C1044 C 0.33295 0.78616 0.74834 0.0
C1045 C 0.31124 0.77796 0.75099 0.0
H1046 H 0.35706 0.79429 0.73403 0.0
H1047 H 0.14575 0.71592 0.75931 0.0
H1048 H 0.50732 0.92682 0.53507 0.0
H1049 H 0.4881 0.95659 0.52347 0.0
H1050 H 0.54286 0.95767 0.49696 0.0
H1051 H 0.56253 0.92816 0.50872 0.0
H1052 H 0.53255 0.99922 0.50375 0.0
H1053 H 0.49015 0.93515 0.48983 0.0
H1054 H 0.46755 0.9002 0.49185 0.0
H1055 H 0.41619 0.93674 0.51174 0.0
H1056 H 0.43865 0.97186 0.51 0.0
H1057 H 0.4769 0.06572 0.45825 0.0
H1058 H 0.49479 0.03462 0.46947 0.0
H1059 H 0.44466 0.04036 0.49839 0.0
H1060 H 0.42657 0.07171 0.48719 0.0
H1061 H 0.45221 0.99548 0.49032 0.0
H1062 H 0.49554 0.05974 0.50392 0.0
H1063 H 0.51833 0.0944 0.50117 0.0
H1064 H 0.56829 0.05669 0.48088 0.0
H1065 H 0.54562 0.02185 0.48335 0.0
C1066 C 0.51521 0.93318 0.5267 0.0
C1067 C 0.5365 0.92512 0.52283 0.0
C1068 C 0.50412 0.95017 0.52004 0.0
C1069 C 0.51392 0.95926 0.50928 0.0
C1070 C 0.53498 0.95092 0.50524 0.0
C1071 C 0.54616 0.934 0.51195 0.0
C1072 C 0.50273 0.97822 0.50261 0.0
C1073 C 0.51509 0.99824 0.50064 0.0
C1074 C 0.47976 0.97719 0.49882 0.0
C1075 C 0.4662 0.9561 0.49989 0.0
C1076 C 0.47413 0.9357 0.49473 0.0
C1077 C 0.46132 0.91586 0.49581 0.0
C1078 C 0.44047 0.91624 0.50195 0.0
C1079 C 0.43236 0.93647 0.507 0.0
C1080 C 0.44511 0.95635 0.50596 0.0
C1081 C 0.46968 0.06046 0.46701 0.0
C1082 C 0.45032 0.07122 0.47184 0.0
C1083 C 0.47998 0.04271 0.47343 0.0
C1084 C 0.47112 0.03529 0.48478 0.0
C1085 C 0.45174 0.04588 0.48964 0.0
C1086 C 0.44151 0.06383 0.48326 0.0
C1087 C 0.48207 0.01632 0.49148 0.0
C1088 C 0.46967 0.99636 0.49344 0.0
C1089 C 0.50505 0.01731 0.49517 0.0
C1090 C 0.51877 0.03823 0.49372 0.0
C1091 C 0.51129 0.05887 0.49879 0.0
C1092 C 0.5242 0.07855 0.49729 0.0
C1093 C 0.54471 0.07776 0.49083 0.0
C1094 C 0.55238 0.05728 0.48587 0.0
C1095 C 0.53952 0.03756 0.48733 0.0
H1096 H 0.55469 0.09301 0.48968 0.0
H1097 H 0.43058 0.90087 0.50277 0.0
H1098 H 0.05302 0.96207 0.95632 0.0
H1099 H 0.03081 0.98914 0.96832 0.0
H1100 H 0.03553 0.94581 0.00041 0.0
H1101 H 0.05756 0.91837 0.98839 0.0
H1102 H 0.99286 0.96079 0.99701 0.0
H1103 H 0.06682 0.99412 -0.0015 0.0
H1104 H 0.10276 0.0087 0.98997 0.0
H1105 H 0.0663 0.0587 0.96904 0.0
H1106 H 0.0301 0.04421 0.97731 0.0
H1107 H 0.95321 0.04142 0.04073 0.0
H1108 H 0.9759 0.01417 0.0291 0.0
H1109 H 0.9713 0.0564 0.99657 0.0
H1110 H 0.94876 0.08398 0.0082 0.0
H1111 H 0.01419 0.04187 0.00045 0.0
H1112 H 0.94021 0.00822 -0.00117 0.0
H1113 H 0.90431 0.99362 0.0074 0.0
H1114 H 0.94092 0.94419 0.02865 0.0
H1115 H 0.97709 0.95871 0.02034 0.0
C1116 C 0.04945 0.95831 0.96595 0.0
C1117 C 0.0571 0.93807 0.97141 0.0
C1118 C 0.03682 0.97387 0.97281 0.0
C1119 C 0.03171 0.96961 0.98529 0.0
C1120 C 0.03932 0.94944 0.99079 0.0
C1121 C 0.05196 0.93382 0.98392 0.0
C1122 C 0.01794 0.986 0.99249 0.0
C1123 C 0.99769 0.97845 -0.00207 0.0
C1124 C 0.02398 0.00915 0.99341 0.0
C1125 C 0.04573 0.01794 0.98844 0.0
C1126 C 0.06645 0.00811 0.992 0.0
C1127 C 0.08687 0.01638 0.98722 0.0
C1128 C 0.08681 0.03458 0.97894 0.0
C1129 C 0.06632 0.04458 0.97544 0.0
C1130 C 0.04585 0.03637 0.98018 0.0
C1131 C 0.95692 0.0449 0.03108 0.0
C1132 C 0.94914 0.06487 0.02538 0.0
C1133 C 0.96983 0.02925 0.02444 0.0
C1134 C 0.97511 0.03315 0.01194 0.0
C1135 C 0.96739 0.05306 0.00621 0.0
C1136 C 0.95445 0.06875 0.01285 0.0
C1137 C 0.9891 0.01667 0.00494 0.0
C1138 C 0.00938 0.0242 -0.00046 0.0
C1139 C 0.9831 0.9935 0.00406 0.0
C1140 C 0.96137 0.9847 0.00905 0.0
C1141 C 0.94062 0.99436 0.00541 0.0
C1142 C 0.92022 0.98608 0.0102 0.0
C1143 C 0.92034 0.96803 0.01859 0.0
C1144 C 0.94086 0.95819 0.02217 0.0
C1145 C 0.96131 0.96643 0.01741 0.0
H1146 H 0.90452 0.96164 0.02229 0.0
H1147 H 0.10264 0.04095 0.97526 0.0
H1148 H 0.57855 0.02607 0.96447 0.0
H1149 H 0.5512 0.00039 0.97406 0.0
H1150 H 0.52424 0.05574 0.99562 0.0
H1151 H 0.55187 0.08144 0.98627 0.0
H1152 H 0.52751 0.0185 0.00939 0.0
H1153 H 0.49739 0.03681 0.96924 0.0
H1154 H 0.49815 0.04036 0.94647 0.0
H1155 H 0.50902 0.9687 0.94304 0.0
H1156 H 0.50863 0.96477 0.9658 0.0
H1157 H 0.42485 0.96703 0.02749 0.0
H1158 H 0.45184 0.99254 0.01749 0.0
H1159 H 0.4794 0.93651 0.99672 0.0
H1160 H 0.45217 0.91089 0.00652 0.0
H1161 H 0.47585 0.97391 0.98251 0.0
H1162 H 0.50589 0.95574 0.02272 0.0
H1163 H 0.50492 0.95232 0.0455 0.0
H1164 H 0.49394 0.02398 0.04877 0.0
H1165 H 0.49454 0.02778 0.026 0.0
C1166 C 0.56691 0.03276 0.97132 0.0
C1167 C 0.56729 0.05583 0.97455 0.0
C1168 C 0.55121 0.01808 0.97675 0.0
C1169 C 0.53539 0.02623 0.98538 0.0
C1170 C 0.53622 0.0491 0.98893 0.0
C1171 C 0.55202 0.06377 0.98357 0.0
C1172 C 0.51777 0.01102 0.99059 0.0
C1173 C 0.51602 0.00898 0.00351 0.0
C1174 C 0.50308 0.99822 0.98292 0.0
C1175 C 0.5032 0.00053 0.96923 0.0
C1176 C 0.50011 0.02183 0.96363 0.0
C1177 C 0.50044 0.02391 0.95073 0.0
C1178 C 0.50369 0.00477 0.94332 0.0
C1179 C 0.50654 0.98351 0.94879 0.0
C1180 C 0.50624 0.98134 0.9617 0.0
C1181 C 0.4365 0.96014 0.02071 0.0
C1182 C 0.43649 0.93689 0.01788 0.0
C1183 C 0.45199 0.97474 0.01505 0.0
C1184 C 0.46792 0.96634 0.00654 0.0
C1185 C 0.46733 0.94332 0.0033 0.0
C1186 C 0.45177 0.9287 0.00893 0.0
C1187 C 0.48558 0.98144 0.00129 0.0
C1188 C 0.48734 0.98344 0.98838 0.0
C1189 C 0.50026 0.99423 0.00896 0.0
C1190 C 0.50005 0.992 0.02266 0.0
C1191 C 0.50311 0.97074 0.0283 0.0
C1192 C 0.50265 0.96874 0.04121 0.0
C1193 C 0.49931 0.98791 0.04858 0.0
C1194 C 0.49649 0.00914 0.04305 0.0
C1195 C 0.49691 0.01123 0.03015 0.0
H1196 H 0.49896 0.98633 0.05857 0.0
H1197 H 0.50394 0.00642 0.93333 0.0
H1198 H 0.07466 0.06181 0.51082 0.0
H1199 H 0.05415 0.03027 0.50134 0.0
H1200 H 0.99058 0.06033 0.51229 0.0
H1201 H 0.01091 0.09182 0.52187 0.0
H1202 H 0.99269 0.01613 0.51868 0.0
H1203 H 0.00672 0.06045 0.48224 0.0
H1204 H 0.02987 0.0818 0.46722 0.0
H1205 H 0.0687 0.02198 0.45935 0.0
H1206 H 0.04597 0.00033 0.47446 0.0
H1207 H 0.91969 0.94432 0.48375 0.0
H1208 H 0.94015 0.97629 0.4928 0.0
H1209 H 0.00366 0.94684 0.48126 0.0
H1210 H 0.98335 0.91496 0.47204 0.0
H1211 H 0.00158 0.99081 0.47512 0.0
H1212 H 0.98783 0.94653 0.5116 0.0
H1213 H 0.96482 0.92509 0.52666 0.0
H1214 H 0.9257 0.98473 0.53452 0.0
H1215 H 0.94829 0.00647 0.51938 0.0
C1216 C 0.05631 0.06187 0.51108 0.0
C1217 C 0.04443 0.0793 0.51715 0.0
C1218 C 0.0446 0.04384 0.50563 0.0
C1219 C 0.02083 0.04298 0.50609 0.0
C1220 C 0.00893 0.06064 0.51186 0.0
C1221 C 0.0206 0.07867 0.51729 0.0
C1222 C 0.0084 0.02316 0.50107 0.0
C1223 C 0.99436 0.01078 0.5091 0.0
C1224 C 0.01109 0.01585 0.48867 0.0
C1225 C 0.02478 0.02883 0.47958 0.0
C1226 C 0.02032 0.05189 0.47739 0.0
C1227 C 0.03334 0.06404 0.46884 0.0
C1228 C 0.05079 0.05327 0.46236 0.0
C1229 C 0.05521 0.03031 0.46439 0.0
C1230 C 0.04225 0.01809 0.47293 0.0
C1231 C 0.93803 0.94451 0.48325 0.0
C1232 C 0.94988 0.9271 0.47716 0.0
C1233 C 0.94971 0.96278 0.48845 0.0
C1234 C 0.97345 0.96391 0.48774 0.0
C1235 C 0.98534 0.94634 0.48188 0.0
C1236 C 0.97369 0.92808 0.47666 0.0
C1237 C 0.98585 0.98378 0.49273 0.0
C1238 C 0.99989 0.99617 0.4847 0.0
C1239 C 0.9832 0.99109 0.50514 0.0
C1240 C 0.96961 0.97807 0.51426 0.0
C1241 C 0.9742 0.95503 0.51646 0.0
C1242 C 0.96125 0.94283 0.52503 0.0
C1243 C 0.94377 0.95353 0.53151 0.0
C1244 C 0.93923 0.97646 0.52947 0.0
C1245 C 0.95211 0.98873 0.52091 0.0
H1246 H 0.93377 0.94406 0.53814 0.0
H1247 H 0.06085 0.06271 0.45574 0.0
H1248 H 0.96967 0.16319 0.02323 0.0
H1249 H 0.00129 0.18817 0.01797 0.0
H1250 H 0.9566 0.24592 0.0192 0.0
H1251 H 0.92488 0.22114 0.02451 0.0
H1252 H 0.99308 0.24945 0.00106 0.0
H1253 H 0.97931 0.23285 0.04461 0.0
H1254 H 0.97352 0.2068 0.06221 0.0
H1255 H 0.0388 0.17692 0.05561 0.0
H1256 H 0.04476 0.20255 0.03781 0.0
H1257 H 0.05537 0.34181 0.02582 0.0
H1258 H 0.02972 0.31205 0.01879 0.0
H1259 H 0.08097 0.26174 0.02637 0.0
H1260 H 0.10644 0.29137 0.0338 0.0
H1261 H 0.04415 0.2509 0.03758 0.0
H1262 H 0.06096 0.27314 0.99621 0.0
H1263 H 0.06627 0.29936 0.97866 0.0
H1264 H 0.9963 0.319 0.98084 0.0
H1265 H 0.99063 0.29314 -0.00148 0.0
C1266 C 0.96637 0.1811 0.02198 0.0
C1267 C 0.94485 0.19025 0.02453 0.0
C1268 C 0.98447 0.19534 0.01896 0.0
C1269 C 0.98127 0.21888 0.01836 0.0
C1270 C 0.95938 0.22779 0.01962 0.0
C1271 C 0.94131 0.2136 0.02275 0.0
C1272 C 0.00097 0.23436 0.01868 0.0
C1273 C 0.00434 0.24985 0.009 0.0
C1274 C 0.01577 0.23455 0.02899 0.0
C1275 C 0.01235 0.21939 0.03979 0.0
C1276 C 0.99234 0.22059 0.04685 0.0
C1277 C 0.98904 0.20592 0.05687 0.0
C1278 C 0.00575 0.19017 0.06 0.0
C1279 C 0.02584 0.1891 0.05315 0.0
C1280 C 0.02919 0.20368 0.0431 0.0
C1281 C 0.0614 0.32448 0.0257 0.0
C1282 C 0.08284 0.31891 0.0305 0.0
C1283 C 0.04673 0.30745 0.02161 0.0
C1284 C 0.0534 0.2846 0.02201 0.0
C1285 C 0.0754 0.27922 0.02601 0.0
C1286 C 0.08994 0.29618 0.03026 0.0
C1287 C 0.03655 0.26628 0.01992 0.0
C1288 C 0.03346 0.25029 0.02941 0.0
C1289 C 0.02211 0.26574 0.00942 0.0
C1290 C 0.02541 0.28129 -0.00124 0.0
C1291 C 0.04673 0.28317 0.99301 0.0
C1292 C 0.0498 0.29795 0.98302 0.0
C1293 C 0.03164 0.31087 0.97865 0.0
C1294 C 0.01036 0.30899 0.98424 0.0
C1295 C 0.0072 0.29424 0.99423 0.0
H1296 H 0.03406 0.3223 0.97092 0.0
H1297 H 0.00316 0.17882 0.06776 0.0
H1298 H 0.09243 0.70446 0.2695 0.0
H1299 H 0.06426 0.73324 0.26429 0.0
H1300 H 0.01056 0.6853 0.27112 0.0
H1301 H 0.03855 0.65635 0.27637 0.0
H1302 H 0.00086 0.71818 0.25163 0.0
H1303 H 0.02514 0.71305 0.29436 0.0
H1304 H 0.05401 0.71105 0.31086 0.0
H1305 H 0.08014 0.77587 0.29977 0.0
H1306 H 0.05163 0.77805 0.28306 0.0
H1307 H 0.9117 0.78651 0.27661 0.0
H1308 H 0.94006 0.75856 0.27039 0.0
H1309 H 0.99175 0.8103 0.27106 0.0
H1310 H 0.96364 0.83812 0.27765 0.0
H1311 H 0.00384 0.77629 0.28483 0.0
H1312 H 0.97431 0.78329 0.24358 0.0
H1313 H 0.94453 0.78399 0.22755 0.0
H1314 H 0.92673 0.71525 0.23623 0.0
H1315 H 0.95623 0.71421 0.25242 0.0
C1316 C 0.07468 0.69978 0.26953 0.0
C1317 C 0.06771 0.67825 0.27361 0.0
C1318 C 0.05861 0.71626 0.26652 0.0
C1319 C 0.03539 0.71141 0.26749 0.0
C1320 C 0.02842 0.68932 0.27032 0.0
C1321 C 0.04446 0.67286 0.27342 0.0
C1322 C 0.01868 0.73006 0.26777 0.0
C1323 C 0.00139 0.73093 0.25886 0.0
C1324 C 0.01956 0.74665 0.2772 0.0
C1325 C 0.03645 0.74559 0.28738 0.0
C1326 C 0.03716 0.72679 0.29538 0.0
C1327 C 0.05344 0.72563 0.30478 0.0
C1328 C 0.06894 0.74329 0.30634 0.0
C1329 C 0.06814 0.76218 0.29853 0.0
C1330 C 0.05193 0.76339 0.2891 0.0
C1331 C 0.929 0.79204 0.27514 0.0
C1332 C 0.93549 0.81445 0.27775 0.0
C1333 C 0.94521 0.77605 0.27153 0.0
C1334 C 0.96807 0.78232 0.27024 0.0
C1335 C 0.97424 0.80504 0.27206 0.0
C1336 C 0.95815 0.82093 0.27582 0.0
C1337 C 0.98593 0.76487 0.26855 0.0
C1338 C 0.0034 0.76397 0.27737 0.0
C1339 C 0.985 0.74824 0.25909 0.0
C1340 C 0.96739 0.74874 0.24928 0.0
C1341 C 0.96395 0.76837 0.24213 0.0
C1342 C 0.94714 0.76881 0.233 0.0
C1343 C 0.93372 0.74969 0.23089 0.0
C1344 C 0.93714 0.73005 0.23788 0.0
C1345 C 0.95393 0.72951 0.24701 0.0
H1346 H 0.92069 0.75008 0.22383 0.0
H1347 H 0.08153 0.74237 0.31362 0.0
H1348 H 0.44526 0.66153 0.5138 0.0
H1349 H 0.47633 0.68779 0.50931 0.0
H1350 H 0.43594 0.74345 0.5227 0.0
H1351 H 0.40474 0.71766 0.52704 0.0
H1352 H 0.48091 0.7389 0.4975 0.0
H1353 H 0.46814 0.75664 0.5484 0.0
H1354 H 0.45137 0.73865 0.56693 0.0
H1355 H 0.47015 0.67302 0.5532 0.0
H1356 H 0.48743 0.69067 0.53473 0.0
H1357 H 0.54311 0.83519 0.52092 0.0
H1358 H 0.51545 0.80677 0.51427 0.0
H1359 H 0.55674 0.75395 0.53016 0.0
H1360 H 0.58442 0.78203 0.53681 0.0
H1361 H 0.51341 0.75403 0.53913 0.0
H1362 H 0.5506 0.75621 0.49966 0.0
H1363 H 0.56627 0.77429 0.48093 0.0
H1364 H 0.5002 0.79932 0.47139 0.0
H1365 H 0.48418 0.78165 0.49017 0.0
C1366 C 0.44263 0.67947 0.51535 0.0
C1367 C 0.42268 0.6874 0.52106 0.0
C1368 C 0.46038 0.69445 0.51271 0.0
C1369 C 0.45839 0.71743 0.5158 0.0
C1370 C 0.43771 0.72573 0.52026 0.0
C1371 C 0.41994 0.71087 0.5228 0.0
C1372 C 0.47884 0.73165 0.517 0.0
C1373 C 0.48817 0.74221 0.50655 0.0
C1374 C 0.48828 0.73568 0.52883 0.0
C1375 C 0.47885 0.72496 0.54015 0.0
C1376 C 0.46881 0.73839 0.54939 0.0
C1377 C 0.45921 0.72825 0.55987 0.0
C1378 C 0.45965 0.7047 0.56122 0.0
C1379 C 0.46978 0.69125 0.55212 0.0
C1380 C 0.47947 0.70131 0.54165 0.0
C1381 C 0.54655 0.81749 0.52279 0.0
C1382 C 0.56588 0.81096 0.52955 0.0
C1383 C 0.53075 0.80126 0.51893 0.0
C1384 C 0.53405 0.77828 0.52176 0.0
C1385 C 0.55387 0.77162 0.52792 0.0
C1386 C 0.56968 0.78775 0.53172 0.0
C1387 C 0.51577 0.76153 0.5196 0.0
C1388 C 0.50655 0.7506 0.52999 0.0
C1389 C 0.50666 0.75715 0.5077 0.0
C1390 C 0.51623 0.76776 0.49639 0.0
C1391 C 0.53944 0.76573 0.49363 0.0
C1392 C 0.54839 0.77588 0.48299 0.0
C1393 C 0.53425 0.78799 0.47499 0.0
C1394 C 0.51114 0.78994 0.4776 0.0
C1395 C 0.50211 0.77984 0.48823 0.0
H1396 H 0.54121 0.79583 0.46675 0.0
H1397 H 0.45221 0.69689 0.56934 0.0
H1398 H 0.5833 0.19956 0.76952 0.0
H1399 H 0.55761 0.22922 0.76239 0.0
H1400 H 0.5002 0.18898 0.77363 0.0
H1401 H 0.5257 0.15913 0.78081 0.0
H1402 H 0.49272 0.2171 0.75156 0.0
H1403 H 0.51956 0.22151 0.79416 0.0
H1404 H 0.54973 0.2218 0.80998 0.0
H1405 H 0.57958 0.28038 0.79291 0.0
H1406 H 0.54977 0.28016 0.77685 0.0
H1407 H 0.40971 0.29579 0.7724 0.0
H1408 H 0.43617 0.26542 0.76727 0.0
H1409 H 0.49067 0.31405 0.76493 0.0
H1410 H 0.46443 0.34434 0.77054 0.0
H1411 H 0.50197 0.28261 0.77993 0.0
H1412 H 0.47122 0.28231 0.73918 0.0
H1413 H 0.44152 0.28169 0.72312 0.0
H1414 H 0.4192 0.2165 0.73589 0.0
H1415 H 0.44857 0.21685 0.75215 0.0
C1416 C 0.56521 0.19667 0.77017 0.0
C1417 C 0.55659 0.17714 0.776 0.0
C1418 C 0.55056 0.21365 0.76605 0.0
C1419 C 0.52707 0.21137 0.76764 0.0
C1420 C 0.5183 0.19102 0.77232 0.0
C1421 C 0.53294 0.17405 0.77651 0.0
C1422 C 0.51215 0.23139 0.7665 0.0
C1423 C 0.4946 0.23147 0.75774 0.0
C1424 C 0.51498 0.25022 0.77444 0.0
C1425 C 0.53261 0.25067 0.78424 0.0
C1426 C 0.53265 0.23435 0.79374 0.0
C1427 C 0.54967 0.23451 0.80275 0.0
C1428 C 0.5666 0.25106 0.80243 0.0
C1429 C 0.56648 0.26754 0.79312 0.0
C1430 C 0.54953 0.26741 0.78407 0.0
C1431 C 0.42721 0.30009 0.77047 0.0
C1432 C 0.43506 0.32241 0.77201 0.0
C1433 C 0.44235 0.2827 0.76747 0.0
C1434 C 0.46548 0.2874 0.76569 0.0
C1435 C 0.47295 0.30996 0.76633 0.0
C1436 C 0.45793 0.32727 0.76953 0.0
C1437 C 0.48226 0.26866 0.7649 0.0
C1438 C 0.50017 0.26863 0.77347 0.0
C1439 C 0.4797 0.25002 0.75674 0.0
C1440 C 0.46201 0.24969 0.74695 0.0
C1441 C 0.45987 0.26792 0.73863 0.0
C1442 C 0.44311 0.2676 0.72947 0.0
C1443 C 0.42845 0.24909 0.7285 0.0
C1444 C 0.43056 0.23083 0.73666 0.0
C1445 C 0.44729 0.23107 0.74584 0.0
H1446 H 0.41549 0.24888 0.72141 0.0
H1447 H 0.57977 0.25115 0.80941 0.0
H1448 H 0.95708 0.84455 0.47274 0.0
H1449 H 0.98884 0.81902 0.47684 0.0
H1450 H 0.94345 0.76179 0.47599 0.0
H1451 H 0.91161 0.78712 0.47177 0.0
H1452 H 0.98201 0.75761 0.49325 0.0
H1453 H 0.96343 0.77514 0.45026 0.0
H1454 H 0.95569 0.8021 0.4333 0.0
H1455 H 0.02166 0.83157 0.43807 0.0
H1456 H 0.0296 0.80504 0.45523 0.0
H1457 H 0.0416 0.66509 0.46692 0.0
H1458 H 0.01628 0.695 0.47409 0.0
H1459 H 0.06681 0.74522 0.46504 0.0
H1460 H 0.09199 0.71544 0.45752 0.0
H1461 H 0.02876 0.75639 0.45501 0.0
H1462 H 0.05016 0.73382 0.49567 0.0
H1463 H 0.05744 0.70753 0.51297 0.0
H1464 H 0.98737 0.68786 0.51315 0.0
H1465 H 0.97971 0.7138 0.49573 0.0
C1466 C 0.95369 0.82663 0.47386 0.0
C1467 C 0.9319 0.81779 0.47171 0.0
C1468 C 0.97188 0.81207 0.4762 0.0
C1469 C 0.96847 0.78855 0.47656 0.0
C1470 C 0.94639 0.77991 0.47575 0.0
C1471 C 0.92824 0.7944 0.47326 0.0
C1472 C 0.98794 0.77289 0.47545 0.0
C1473 C 0.9923 0.75724 0.48493 0.0
C1474 C 0.0015 0.77278 0.46465 0.0
C1475 C 0.997 0.78831 0.45411 0.0
C1476 C 0.97622 0.78748 0.44774 0.0
C1477 C 0.97179 0.80267 0.4381 0.0
C1478 C 0.98815 0.81858 0.43463 0.0
C1479 C 0.00899 0.81927 0.44078 0.0
C1480 C 0.01346 0.80417 0.45047 0.0
C1481 C 0.04754 0.68245 0.46669 0.0
C1482 C 0.06876 0.68787 0.46153 0.0
C1483 C 0.03305 0.69957 0.47086 0.0
C1484 C 0.03964 0.72242 0.47017 0.0
C1485 C 0.06131 0.72775 0.46564 0.0
C1486 C 0.0757 0.71067 0.46135 0.0
C1487 C 0.02308 0.74076 0.47283 0.0
C1488 C 0.019 0.75691 0.46353 0.0
C1489 C 0.0099 0.74127 0.48382 0.0
C1490 C 0.0144 0.72566 0.49432 0.0
C1491 C 0.03633 0.72377 0.49933 0.0
C1492 C 0.04052 0.70895 0.50918 0.0
C1493 C 0.02289 0.696 0.51414 0.0
C1494 C 0.00101 0.69789 0.50929 0.0
C1495 C 0.99673 0.71268 0.49944 0.0
H1496 H 0.02617 0.68453 0.52176 0.0
H1497 H 0.98468 0.83034 0.42717 0.0
H1498 H 0.59357 0.80229 0.72098 0.0
H1499 H 0.56308 0.77577 0.72573 0.0
H1500 H 0.51356 0.82518 0.71427 0.0
H1501 H 0.54397 0.85189 0.7093 0.0
H1502 H 0.50097 0.79363 0.7359 0.0
H1503 H 0.52607 0.79568 0.69303 0.0
H1504 H 0.55545 0.79601 0.67675 0.0
H1505 H 0.58031 0.73175 0.68956 0.0
H1506 H 0.55132 0.73127 0.70606 0.0
H1507 H 0.41218 0.72106 0.71346 0.0
H1508 H 0.43984 0.75038 0.7187 0.0
H1509 H 0.49314 0.70029 0.71854 0.0
H1510 H 0.46572 0.67113 0.71287 0.0
H1511 H 0.50382 0.73324 0.70393 0.0
H1512 H 0.47526 0.72922 0.74557 0.0
H1513 H 0.4459 0.72949 0.76184 0.0
H1514 H 0.42688 0.79714 0.75154 0.0
H1515 H 0.45594 0.79718 0.7351 0.0
C1516 C 0.5762 0.80786 0.7198 0.0
C1517 C 0.57123 0.82909 0.71454 0.0
C1518 C 0.5588 0.79266 0.72257 0.0
C1519 C 0.53617 0.79852 0.72025 0.0
C1520 C 0.53097 0.82044 0.71615 0.0
C1521 C 0.54839 0.8356 0.71324 0.0
C1522 C 0.51866 0.78064 0.71998 0.0
C1523 C 0.50138 0.78045 0.7289 0.0
C1524 C 0.51948 0.76346 0.71089 0.0
C1525 C 0.53671 0.76356 0.70086 0.0
C1526 C 0.53794 0.78173 0.69245 0.0
C1527 C 0.5545 0.78193 0.68317 0.0
C1528 C 0.56977 0.76393 0.68214 0.0
C1529 C 0.56849 0.74569 0.69038 0.0
C1530 C 0.552 0.74544 0.69969 0.0
C1531 C 0.4297 0.71621 0.71486 0.0
C1532 C 0.43684 0.69385 0.71263 0.0
C1533 C 0.44551 0.73299 0.71789 0.0
C1534 C 0.46862 0.72758 0.719 0.0
C1535 C 0.47545 0.70492 0.71764 0.0
C1536 C 0.45975 0.68825 0.71443 0.0
C1537 C 0.48602 0.74568 0.72004 0.0
C1538 C 0.50333 0.74613 0.7111 0.0
C1539 C 0.48505 0.76305 0.7291 0.0
C1540 C 0.46766 0.76312 0.73903 0.0
C1541 C 0.46471 0.7441 0.74672 0.0
C1542 C 0.44814 0.74421 0.75598 0.0
C1543 C 0.4345 0.7633 0.75771 0.0
C1544 C 0.43745 0.78235 0.75019 0.0
C1545 C 0.45399 0.78233 0.74091 0.0
H1546 H 0.42167 0.76335 0.76488 0.0
H1547 H 0.58255 0.76408 0.67495 0.0
H1548 H 0.5429 0.1556 0.97317 0.0
H1549 H 0.51097 0.18086 0.97738 0.0
H1550 H 0.55619 0.23825 0.97747 0.0
H1551 H 0.5882 0.2132 0.97318 0.0
H1552 H 0.5182 0.24177 0.99463 0.0
H1553 H 0.5358 0.22505 0.95149 0.0
H1554 H 0.54287 0.19863 0.9342 0.0
H1555 H 0.47642 0.17019 0.93884 0.0
H1556 H 0.46915 0.19613 0.95636 0.0
H1557 H 0.4582 0.33514 0.96949 0.0
H1558 H 0.48363 0.30499 0.97626 0.0
H1559 H 0.43269 0.25512 0.96732 0.0
H1560 H 0.40742 0.28515 0.96019 0.0
H1561 H 0.47041 0.24425 0.95681 0.0
H1562 H 0.45023 0.26569 -0.00214 0.0
H1563 H 0.44354 0.29152 0.01544 0.0
H1564 H 0.51368 0.31097 0.01513 0.0
H1565 H 0.52074 0.28549 -0.00257 0.0
C1566 C 0.54619 0.17349 0.97448 0.0
C1567 C 0.56801 0.18248 0.97262 0.0
C1568 C 0.52792 0.18789 0.97689 0.0
C1569 C 0.53125 0.21139 0.97757 0.0
C1570 C 0.55331 0.22014 0.97697 0.0
C1571 C 0.57155 0.20581 0.97443 0.0
C1572 C 0.51176 0.22705 0.97675 0.0
C1573 C 0.50768 0.24241 0.9864 0.0
C1574 C 0.4979 0.2275 0.96606 0.0
C1575 C 0.50205 0.2123 0.95534 0.0
C1576 C 0.52277 0.21303 0.94889 0.0
C1577 C 0.52682 0.19814 0.93906 0.0
C1578 C 0.51015 0.18267 0.93547 0.0
C1579 C 0.48935 0.18213 0.94167 0.0
C1580 C 0.48526 0.1969 0.95155 0.0
C1581 C 0.45222 0.3178 0.9692 0.0
C1582 C 0.43086 0.31254 0.96418 0.0
C1583 C 0.46676 0.30055 0.97314 0.0
C1584 C 0.46006 0.27774 0.97235 0.0
C1585 C 0.43827 0.27257 0.96798 0.0
C1586 C 0.42383 0.28977 0.96391 0.0
C1587 C 0.47664 0.2593 0.97472 0.0
C1588 C 0.48041 0.24344 0.96524 0.0
C1589 C 0.49011 0.25844 0.98559 0.0
C1590 C 0.48597 0.27378 0.99625 0.0
C1591 C 0.4642 0.2756 0.00148 0.0
C1592 C 0.46035 0.29016 0.01147 0.0
C1593 C 0.47817 0.30291 0.01638 0.0
C1594 C 0.49989 0.30109 0.01131 0.0
C1595 C 0.50383 0.28656 0.00131 0.0
H1596 H 0.47515 0.31417 0.02412 0.0
H1597 H 0.51333 0.17114 0.92787 0.0
H1598 H 0.09342 0.29267 0.22477 0.0
H1599 H 0.06834 0.26232 0.2318 0.0
H1600 H 0.01043 0.3059 0.22674 0.0
H1601 H 0.03528 0.33638 0.21978 0.0
H1602 H 0.00487 0.27411 0.24646 0.0
H1603 H 0.02659 0.27712 0.20298 0.0
H1604 H 0.05478 0.27885 0.18611 0.0
H1605 H 0.08399 0.21621 0.19856 0.0
H1606 H 0.05617 0.21434 0.21564 0.0
H1607 H 0.91544 0.20623 0.22251 0.0
H1608 H 0.94427 0.23336 0.22912 0.0
H1609 H 0.99517 0.18093 0.22735 0.0
H1610 H 0.96656 0.15397 0.22033 0.0
H1611 H 0.00764 0.21466 0.214 0.0
H1612 H 0.97981 0.20808 0.25526 0.0
H1613 H 0.95128 0.20718 0.27195 0.0
H1614 H 0.93281 0.27599 0.26391 0.0
H1615 H 0.96101 0.27722 0.24705 0.0
C1616 C 0.07543 0.29609 0.22553 0.0
C1617 C 0.0663 0.31679 0.22143 0.0
C1618 C 0.06113 0.27871 0.22957 0.0
C1619 C 0.03753 0.28179 0.22958 0.0
C1620 C 0.02859 0.30318 0.22678 0.0
C1621 C 0.04284 0.32053 0.2227 0.0
C1622 C 0.02213 0.26203 0.23019 0.0
C1623 C 0.0054 0.26101 0.23942 0.0
C1624 C 0.02309 0.24488 0.22106 0.0
C1625 C 0.0395 0.24573 0.21065 0.0
C1626 C 0.03912 0.2638 0.20216 0.0
C1627 C 0.05501 0.2648 0.19256 0.0
C1628 C 0.0712 0.24767 0.19128 0.0
C1629 C 0.07147 0.22948 0.19958 0.0
C1630 C 0.05565 0.22844 0.20921 0.0
C1631 C 0.93266 0.20034 0.22386 0.0
C1632 C 0.9388 0.17805 0.22075 0.0
C1633 C 0.94915 0.21586 0.2277 0.0
C1634 C 0.97196 0.20922 0.22875 0.0
C1635 C 0.97773 0.1865 0.22655 0.0
C1636 C 0.96136 0.1711 0.22253 0.0
C1637 C 0.99011 0.22645 0.23033 0.0
C1638 C 0.0073 0.22722 0.22134 0.0
C1639 C 0.98942 0.24331 0.23967 0.0
C1640 C 0.97245 0.24268 0.24983 0.0
C1641 C 0.96955 0.22297 0.25699 0.0
C1642 C 0.95345 0.22241 0.26649 0.0
C1643 C 0.94021 0.2415 0.26898 0.0
C1644 C 0.94308 0.26121 0.26198 0.0
C1645 C 0.95915 0.26186 0.25245 0.0
H1646 H 0.92776 0.24104 0.27634 0.0
H1647 H 0.0835 0.24848 0.18385 0.0
H1648 H 0.89746 0.70786 0.96596 0.0
H1649 H 0.92276 0.73833 0.97257 0.0
H1650 H 0.97734 0.69023 0.97659 0.0
H1651 H 0.95192 0.65958 0.97045 0.0
H1652 H 0.98211 0.72302 0.99318 0.0
H1653 H 0.96858 0.71887 0.94921 0.0
H1654 H 0.94523 0.71817 0.93026 0.0
H1655 H 0.91892 0.7841 0.93899 0.0
H1656 H 0.94191 0.78504 0.9581 0.0
H1657 H 0.07832 0.78182 0.96958 0.0
H1658 H 0.04681 0.75736 0.97562 0.0
H1659 H 0.00238 0.8153 0.97698 0.0
H1660 H 0.03388 0.84001 0.97105 0.0
H1661 H 0.98895 0.78165 0.96043 0.0
H1662 H 0.01087 0.78714 0.00283 0.0
H1663 H 0.03716 0.78619 0.02057 0.0
H1664 H 0.05138 0.71605 0.01344 0.0
H1665 H 0.02543 0.71665 0.99553 0.0
C1666 C 0.91471 0.70371 0.96853 0.0
C1667 C 0.92281 0.68139 0.96748 0.0
C1668 C 0.92916 0.72113 0.97229 0.0
C1669 C 0.9521 0.71665 0.97476 0.0
C1670 C 0.95974 0.69412 0.97468 0.0
C1671 C 0.94518 0.67661 0.97113 0.0
C1672 C 0.96867 0.73547 0.97591 0.0
C1673 C 0.98364 0.73585 0.98603 0.0
C1674 C 0.97051 0.75239 0.96665 0.0
C1675 C 0.95672 0.7519 0.95515 0.0
C1676 C 0.95769 0.73314 0.94713 0.0
C1677 C 0.94454 0.73271 0.93636 0.0
C1678 C 0.93054 0.75105 0.93344 0.0
C1679 C 0.92972 0.76988 0.94128 0.0
C1680 C 0.9428 0.77038 0.95208 0.0
C1681 C 0.06199 0.78947 0.97148 0.0
C1682 C 0.05853 0.81282 0.9697 0.0
C1683 C 0.04403 0.77547 0.97501 0.0
C1684 C 0.02228 0.78454 0.97674 0.0
C1685 C 0.01908 0.80802 0.97573 0.0
C1686 C 0.03712 0.8221 0.97236 0.0
C1687 C 0.00254 0.76913 0.97764 0.0
C1688 C 0.98706 0.76924 0.96779 0.0
C1689 C 0.00066 0.75245 0.98699 0.0
C1690 C 0.01628 0.75199 -0.00223 0.0
C1691 C 0.01973 0.77155 0.00497 0.0
C1692 C 0.03455 0.77107 0.01508 0.0
C1693 C 0.04596 0.75108 0.01812 0.0
C1694 C 0.04253 0.73152 0.01107 0.0
C1695 C 0.02774 0.73192 0.00095 0.0
H1696 H 0.05742 0.75074 0.02594 0.0
H1697 H 0.92038 0.75069 0.9251 0.0
H1698 H 0.91046 0.29313 0.72024 0.0
H1699 H 0.94147 0.26758 0.72569 0.0
H1700 H 0.99003 0.3175 0.7135 0.0
H1701 H 0.95919 0.34296 0.70782 0.0
H1702 H 0.99764 0.27843 0.70263 0.0
H1703 H 0.98497 0.30246 0.74433 0.0
H1704 H 0.96269 0.31049 0.76315 0.0
H1705 H 0.94388 0.24037 0.76572 0.0
H1706 H 0.9658 0.23196 0.7468 0.0
H1707 H 0.09279 0.21365 0.71674 0.0
H1708 H 0.06586 0.24376 0.72181 0.0
H1709 H 0.01189 0.19468 0.72397 0.0
H1710 H 0.0386 0.16449 0.71865 0.0
H1711 H 0.00929 0.23496 0.7415 0.0
H1712 H 0.01675 0.21276 0.6983 0.0
H1713 H 0.03946 0.20382 0.67975 0.0
H1714 H 0.06753 0.27094 0.68011 0.0
H1715 H 0.04543 0.28006 0.69891 0.0
C1716 C 0.92774 0.29888 0.71896 0.0
C1717 C 0.93232 0.32001 0.71347 0.0
C1718 C 0.94548 0.28426 0.72213 0.0
C1719 C 0.96809 0.29063 0.72001 0.0
C1720 C 0.97271 0.3122 0.71517 0.0
C1721 C 0.95503 0.32674 0.71193 0.0
C1722 C 0.98675 0.27401 0.72157 0.0
C1723 C 0.00043 0.26934 0.71123 0.0
C1724 C 0.99006 0.26165 0.73268 0.0
C1725 C 0.97689 0.26662 0.74408 0.0
C1726 C 0.97594 0.28878 0.74885 0.0
C1727 C 0.9634 0.29339 0.75955 0.0
C1728 C 0.95184 0.27596 0.76561 0.0
C1729 C 0.95283 0.25386 0.76101 0.0
C1730 C 0.96534 0.24916 0.7503 0.0
C1731 C 0.07537 0.20914 0.71873 0.0
C1732 C 0.06769 0.18679 0.71712 0.0
C1733 C 0.06003 0.22636 0.72164 0.0
C1734 C 0.03694 0.22138 0.72315 0.0
C1735 C 0.02968 0.19878 0.72286 0.0
C1736 C 0.04492 0.1816 0.71974 0.0
C1737 C 0.01999 0.23975 0.72262 0.0
C1738 C 0.0066 0.24449 0.73303 0.0
C1739 C 0.0168 0.25221 0.71157 0.0
C1740 C 0.02969 0.24699 0.7001 0.0
C1741 C 0.02794 0.22554 0.6945 0.0
C1742 C 0.04069 0.22044 0.68394 0.0
C1743 C 0.05497 0.23679 0.67876 0.0
C1744 C 0.0565 0.25828 0.68414 0.0
C1745 C 0.04389 0.26341 0.69476 0.0
H1746 H 0.06479 0.23281 0.67057 0.0
H1747 H 0.94214 0.27957 0.7739 0.0
H1748 H 0.54791 0.34156 0.47326 0.0
H1749 H 0.52044 0.31371 0.48055 0.0
H1750 H 0.57016 0.26068 0.4762 0.0
H1751 H 0.59753 0.28836 0.46854 0.0
H1752 H 0.5337 0.24998 0.46437 0.0
H1753 H 0.54829 0.27657 0.50528 0.0
H1754 H 0.5532 0.30468 0.52195 0.0
H1755 H 0.48425 0.3264 0.51739 0.0
H1756 H 0.47899 0.29864 0.50055 0.0
H1757 H 0.45748 0.16602 0.4798 0.0
H1758 H 0.48823 0.19132 0.48587 0.0
H1759 H 0.44463 0.24907 0.48047 0.0
H1760 H 0.41371 0.22396 0.47434 0.0
H1761 H 0.48013 0.25453 0.49976 0.0
H1762 H 0.469 0.23358 0.45647 0.0
H1763 H 0.46301 0.20518 0.44002 0.0
H1764 H 0.52608 0.1732 0.44945 0.0
H1765 H 0.53218 0.20118 0.46614 0.0
C1766 C 0.5532 0.32406 0.47414 0.0
C1767 C 0.57485 0.31715 0.47018 0.0
C1768 C 0.53747 0.30813 0.47838 0.0
C1769 C 0.5432 0.28505 0.47896 0.0
C1770 C 0.5653 0.27836 0.47579 0.0
C1771 C 0.58094 0.29423 0.47141 0.0
C1772 C 0.52545 0.26768 0.48128 0.0
C1773 C 0.52243 0.25073 0.4723 0.0
C1774 C 0.51024 0.2689 0.49144 0.0
C1775 C 0.5133 0.28561 0.50158 0.0
C1776 C 0.53421 0.28745 0.50776 0.0
C1777 C 0.53705 0.30331 0.51725 0.0
C1778 C 0.51906 0.31734 0.52071 0.0
C1779 C 0.49817 0.31552 0.5147 0.0
C1780 C 0.49524 0.2997 0.50519 0.0
C1781 C 0.45409 0.18402 0.48034 0.0
C1782 C 0.43329 0.19301 0.47626 0.0
C1783 C 0.47171 0.19845 0.48385 0.0
C1784 C 0.46875 0.22202 0.4834 0.0
C1785 C 0.44722 0.23091 0.48085 0.0
C1786 C 0.42961 0.2165 0.47725 0.0
C1787 C 0.48874 0.23711 0.4829 0.0
C1788 C 0.49192 0.25365 0.49206 0.0
C1789 C 0.50418 0.23566 0.47291 0.0
C1790 C 0.50092 0.21929 0.46263 0.0
C1791 C 0.48151 0.2204 0.45508 0.0
C1792 C 0.47809 0.20439 0.44572 0.0
C1793 C 0.49412 0.18736 0.44372 0.0
C1794 C 0.51365 0.18637 0.45103 0.0
C1795 C 0.5171 0.2023 0.46044 0.0
H1796 H 0.49143 0.17495 0.43648 0.0
H1797 H 0.5213 0.32961 0.52806 0.0
H1798 H 0.42092 0.8026 0.22208 0.0
H1799 H 0.45061 0.77624 0.22836 0.0
H1800 H 0.50165 0.82362 0.21616 0.0
H1801 H 0.47207 0.84991 0.2096 0.0
H1802 H 0.50862 0.78384 0.20615 0.0
H1803 H 0.49479 0.81 0.24722 0.0
H1804 H 0.47205 0.82014 0.26556 0.0
H1805 H 0.449 0.75137 0.26868 0.0
H1806 H 0.47136 0.74086 0.25025 0.0
H1807 H 0.59637 0.71008 0.22128 0.0
H1808 H 0.57295 0.74309 0.22607 0.0
H1809 H 0.51397 0.70026 0.2288 0.0
H1810 H 0.53716 0.66716 0.22384 0.0
H1811 H 0.51473 0.74064 0.24548 0.0
H1812 H 0.52263 0.71709 0.20244 0.0
H1813 H 0.54548 0.70604 0.18427 0.0
H1814 H 0.57931 0.77043 0.18503 0.0
H1815 H 0.55698 0.78166 0.2034 0.0
C1816 C 0.43846 0.80765 0.22095 0.0
C1817 C 0.44408 0.8283 0.21521 0.0
C1818 C 0.45545 0.79257 0.22462 0.0
C1819 C 0.47839 0.79796 0.22277 0.0
C1820 C 0.48406 0.81907 0.21764 0.0
C1821 C 0.4671 0.83409 0.21391 0.0
C1822 C 0.49624 0.78066 0.22489 0.0
C1823 C 0.51027 0.77484 0.21487 0.0
C1824 C 0.49809 0.76846 0.23616 0.0
C1825 C 0.48465 0.77468 0.24728 0.0
C1826 C 0.48474 0.79707 0.25176 0.0
C1827 C 0.47194 0.80287 0.26219 0.0
C1828 C 0.45905 0.78642 0.26827 0.0
C1829 C 0.45899 0.7641 0.26396 0.0
C1830 C 0.47175 0.7582 0.25353 0.0
C1831 C 0.57859 0.70753 0.22337 0.0
C1832 C 0.5685 0.68609 0.22197 0.0
C1833 C 0.56525 0.72643 0.2261 0.0
C1834 C 0.54175 0.72406 0.22763 0.0
C1835 C 0.53209 0.70237 0.22765 0.0
C1836 C 0.54535 0.68351 0.22474 0.0
C1837 C 0.52683 0.7441 0.22678 0.0
C1838 C 0.5133 0.75017 0.23692 0.0
C1839 C 0.52532 0.75657 0.21562 0.0
C1840 C 0.53837 0.75009 0.2044 0.0
C1841 C 0.53509 0.72881 0.1988 0.0
C1842 C 0.54793 0.72252 0.18847 0.0
C1843 C 0.56391 0.73748 0.18354 0.0
C1844 C 0.56698 0.75882 0.18889 0.0
C1845 C 0.55425 0.76516 0.19927 0.0
H1846 H 0.57388 0.73255 0.17556 0.0
H1847 H 0.44915 0.79095 0.27635 0.0
H1848 H 0.95624 0.34054 0.52632 0.0
H1849 H 0.98316 0.3117 0.5197 0.0
H1850 H 0.93198 0.26014 0.52439 0.0
H1851 H 0.90516 0.28887 0.53149 0.0
H1852 H 0.96768 0.24825 0.53615 0.0
H1853 H 0.95517 0.27513 0.49509 0.0
H1854 H 0.95147 0.30336 0.47837 0.0
H1855 H 0.02075 0.32346 0.48363 0.0
H1856 H 0.0248 0.29557 0.5005 0.0
H1857 H 0.04248 0.16211 0.51995 0.0
H1858 H 0.01215 0.18858 0.51475 0.0
H1859 H 0.0573 0.24483 0.52103 0.0
H1860 H 0.08778 0.21853 0.52636 0.0
H1861 H 0.02254 0.2515 0.50131 0.0
H1862 H 0.0318 0.22935 0.54453 0.0
H1863 H 0.03612 0.20059 0.56096 0.0
H1864 H 0.97195 0.17146 0.551 0.0
H1865 H 0.96749 0.19981 0.53434 0.0
C1866 C 0.95051 0.32314 0.52567 0.0
C1867 C 0.92859 0.31699 0.52954 0.0
C1868 C 0.96594 0.30663 0.52181 0.0
C1869 C 0.95963 0.28368 0.52147 0.0
C1870 C 0.9373 0.2777 0.52461 0.0
C1871 C 0.92196 0.29416 0.52865 0.0
C1872 C 0.97697 0.2658 0.51934 0.0
C1873 C 0.97924 0.24873 0.52833 0.0
C1874 C 0.99254 0.26661 0.50932 0.0
C1875 C 0.99023 0.28334 0.49913 0.0
C1876 C 0.96958 0.28568 0.49274 0.0
C1877 C 0.96743 0.3016 0.48322 0.0
C1878 C 0.98585 0.31522 0.47995 0.0
C1879 C 0.00649 0.3129 0.48617 0.0
C1880 C 0.00873 0.29701 0.4957 0.0
C1881 C 0.04625 0.18006 0.51983 0.0
C1882 C 0.06745 0.18822 0.52382 0.0
C1883 C 0.02887 0.19516 0.51684 0.0
C1884 C 0.03246 0.2186 0.51766 0.0
C1885 C 0.05423 0.22677 0.52033 0.0
C1886 C 0.07158 0.2117 0.52346 0.0
C1887 C 0.01292 0.23428 0.51806 0.0
C1888 C 0.01048 0.25092 0.50889 0.0
C1889 C 0.99709 0.23315 0.52788 0.0
C1890 C 0.99944 0.21651 0.53811 0.0
C1891 C 0.01869 0.21671 0.54579 0.0
C1892 C 0.02117 0.2005 0.55515 0.0
C1893 C 0.00435 0.18417 0.557 0.0
C1894 C 0.98499 0.18409 0.54953 0.0
C1895 C 0.98248 0.20022 0.54014 0.0
H1896 H 0.0063 0.17162 0.56424 0.0
H1897 H 0.98415 0.32755 0.47258 0.0
H1898 H 0.4459 0.16828 0.30789 0.0
H1899 H 0.47485 0.1953 0.30152 0.0
H1900 H 0.4396 0.20607 0.26695 0.0
H1901 H 0.40988 0.17978 0.27359 0.0
H1902 H 0.50459 0.20037 0.28454 0.0
H1903 H 0.44457 0.2605 0.25807 0.0
H1904 H 0.40391 0.27043 0.2574 0.0
H1905 H 0.39666 0.25089 0.29553 0.0
H1906 H 0.43727 0.2411 0.29645 0.0
H1907 H 0.57629 0.29206 0.2685 0.0
H1908 H 0.54823 0.26198 0.26536 0.0
H1909 H 0.50227 0.29622 0.29022 0.0
H1910 H 0.52947 0.32656 0.2929 0.0
H1911 H 0.47853 0.27774 0.27361 0.0
H1912 H 0.54036 0.25232 0.29963 0.0
H1913 H 0.58036 0.24386 0.30444 0.0
H1914 H 0.58292 0.19672 0.27416 0.0
H1915 H 0.54298 0.20513 0.26909 0.0
C1916 C 0.44444 0.17616 0.29886 0.0
C1917 C 0.42549 0.17208 0.29129 0.0
C1918 C 0.46107 0.1916 0.2952 0.0
C1919 C 0.45928 0.20304 0.28383 0.0
C1920 C 0.44111 0.19787 0.27589 0.0
C1921 C 0.42418 0.18278 0.27967 0.0
C1922 C 0.47557 0.22146 0.2808 0.0
C1923 C 0.49889 0.21723 0.28203 0.0
C1924 C 0.46821 0.24359 0.27767 0.0
C1925 C 0.44386 0.2498 0.27726 0.0
C1926 C 0.43428 0.25839 0.26631 0.0
C1927 C 0.41126 0.26398 0.26588 0.0
C1928 C 0.39769 0.2612 0.2764 0.0
C1929 C 0.40715 0.25295 0.28738 0.0
C1930 C 0.43016 0.24736 0.28785 0.0
C1931 C 0.56002 0.29336 0.27309 0.0
C1932 C 0.55527 0.31162 0.28106 0.0
C1933 C 0.54403 0.27609 0.27134 0.0
C1934 C 0.52327 0.27654 0.27776 0.0
C1935 C 0.5181 0.2954 0.28514 0.0
C1936 C 0.53381 0.31277 0.28672 0.0
C1937 C 0.50753 0.25683 0.27773 0.0
C1938 C 0.48429 0.26077 0.27585 0.0
C1939 C 0.51488 0.23469 0.28084 0.0
C1940 C 0.53882 0.22955 0.28389 0.0
C1941 C 0.54951 0.24026 0.29396 0.0
C1942 C 0.57216 0.23546 0.29673 0.0
C1943 C 0.5842 0.21982 0.28958 0.0
C1944 C 0.57359 0.20888 0.27967 0.0
C1945 C 0.55096 0.21365 0.27684 0.0
H1946 H 0.60173 0.21613 0.29174 0.0
H1947 H 0.37987 0.26549 0.27606 0.0
H1948 H 0.46339 0.83458 0.02295 0.0
H1949 H 0.49348 0.80768 0.01796 0.0
H1950 H 0.44432 0.75357 0.01647 0.0
H1951 H 0.41433 0.78026 0.02191 0.0
H1952 H 0.47583 0.74303 0.03178 0.0
H1953 H 0.47584 0.77156 0.99042 0.0
H1954 H 0.47676 0.80046 0.97394 0.0
H1955 H 0.54256 0.82216 0.9861 0.0
H1956 H 0.54191 0.7936 0.00278 0.0
H1957 H 0.5545 0.65855 0.02098 0.0
H1958 H 0.52663 0.68577 0.01346 0.0
H1959 H 0.56911 0.74091 0.02554 0.0
H1960 H 0.59718 0.71384 0.03319 0.0
H1961 H 0.54071 0.74925 0.00268 0.0
H1962 H 0.53686 0.72498 0.04583 0.0
H1963 H 0.53667 0.69542 0.062 0.0
H1964 H 0.47726 0.66566 0.04576 0.0
H1965 H 0.47739 0.69483 0.02935 0.0
C1966 C 0.45891 0.81707 0.02121 0.0
C1967 C 0.43656 0.80946 0.02296 0.0
C1968 C 0.47614 0.80169 0.01831 0.0
C1969 C 0.47121 0.77854 0.01685 0.0
C1970 C 0.44858 0.7713 0.01764 0.0
C1971 C 0.43144 0.78658 0.02073 0.0
C1972 C 0.48975 0.76155 0.01628 0.0
C1973 C 0.48967 0.74419 0.02519 0.0
C1974 C 0.50826 0.76333 0.00795 0.0
C1975 C 0.50874 0.78053 -0.00208 0.0
C1976 C 0.49043 0.78261 0.98965 0.0
C1977 C 0.49092 0.79891 0.98025 0.0
C1978 C 0.50968 0.81317 0.97898 0.0
C1979 C 0.52803 0.81111 0.98709 0.0
C1980 C 0.52762 0.79485 0.99651 0.0
C1981 C 0.55833 0.67645 0.02172 0.0
C1982 C 0.57785 0.68401 0.02797 0.0
C1983 C 0.54239 0.69198 0.01735 0.0
C1984 C 0.54576 0.71527 0.01909 0.0
C1985 C 0.56628 0.72296 0.0241 0.0
C1986 C 0.5822 0.70744 0.02856 0.0
C1987 C 0.52637 0.73097 0.01804 0.0
C1988 C 0.52649 0.74807 0.00902 0.0
C1989 C 0.50778 0.72906 0.02624 0.0
C1990 C 0.50728 0.71191 0.03629 0.0
C1991 C 0.52385 0.71204 0.04566 0.0
C1992 C 0.52376 0.69537 0.05487 0.0
C1993 C 0.507 0.67864 0.05489 0.0
C1994 C 0.49026 0.67861 0.04572 0.0
C1995 C 0.49033 0.6952 0.03647 0.0
H1996 H 0.50697 0.66573 0.06202 0.0
H1997 H 0.51003 0.82578 0.9717 0.0
H1998 H 0.91631 0.70359 0.7732 0.0
H1999 H 0.94409 0.73183 0.76668 0.0
H2000 H 0.99563 0.68005 0.76493 0.0
H2001 H 0.96808 0.65187 0.77182 0.0
H2002 H 0.0086 0.71224 0.77949 0.0
H2003 H 0.97789 0.71057 0.73868 0.0
H2004 H 0.94812 0.71136 0.72266 0.0
H2005 H 0.92923 0.77857 0.73382 0.0
H2006 H 0.95867 0.77808 0.75003 0.0
H2007 H 0.09205 0.7943 0.7695 0.0
H2008 H 0.06724 0.76337 0.76295 0.0
H2009 H 0.00865 0.80527 0.76965 0.0
H2010 H 0.03321 0.83632 0.77613 0.0
H2011 H 0.00254 0.77573 0.74954 0.0
H2012 H 0.02688 0.77381 0.79248 0.0
H2013 H 0.05534 0.77358 0.80923 0.0
H2014 H 0.08485 0.71299 0.79424 0.0
H2015 H 0.05669 0.71304 0.77731 0.0
C2016 C 0.93339 0.69809 0.77106 0.0
C2017 C 0.94009 0.67557 0.77318 0.0
C2018 C 0.94928 0.71427 0.76728 0.0
C2019 C 0.97202 0.7081 0.76532 0.0
C2020 C 0.97824 0.68524 0.76645 0.0
C2021 C 0.96246 0.66915 0.77039 0.0
C2022 C 0.98979 0.72578 0.76402 0.0
C2023 C 0.00756 0.72573 0.77268 0.0
C2024 C 0.98814 0.74381 0.7554 0.0
C2025 C 0.97043 0.74422 0.74563 0.0
C2026 C 0.96729 0.72546 0.73778 0.0
C2027 C 0.95048 0.72587 0.72865 0.0
C2028 C 0.93677 0.74499 0.72724 0.0
C2029 C 0.93986 0.76377 0.73493 0.0
C2030 C 0.95664 0.76345 0.74408 0.0
C2031 C 0.07393 0.79718 0.76927 0.0
C2032 C 0.0646 0.81765 0.77358 0.0
C2033 C 0.05978 0.77946 0.76552 0.0
C2034 C 0.03612 0.78196 0.766 0.0
C2035 C 0.02686 0.803 0.76923 0.0
C2036 C 0.04095 0.82069 0.77302 0.0
C2037 C 0.02108 0.76197 0.76498 0.0
C2038 C 0.00379 0.76177 0.75604 0.0
C2039 C 0.02299 0.74368 0.77338 0.0
C2040 C 0.03988 0.74358 0.78356 0.0
C2041 C 0.03955 0.76055 0.79271 0.0
C2042 C 0.0556 0.76043 0.80224 0.0
C2043 C 0.07194 0.74332 0.80278 0.0
C2044 C 0.07222 0.72626 0.7938 0.0
C2045 C 0.05622 0.72631 0.78424 0.0
H2046 H 0.08433 0.74325 0.81017 0.0
H2047 H 0.92377 0.74527 0.72016 0.0
H2048 H 0.31681 0.3507 0.95808 0.0
H2049 H 0.28271 0.35471 0.97046 0.0
H2050 H 0.31861 0.39762 0.99619 0.0
H2051 H 0.35306 0.39411 0.98359 0.0
H2052 H 0.27419 0.34175 0.9929 0.0
H2053 H 0.28008 0.43501 0.00914 0.0
H2054 H 0.29578 0.47145 0.00192 0.0
H2055 H 0.29082 0.44903 0.96416 0.0
H2056 H 0.27482 0.4126 0.97114 0.0
H2057 H 0.19759 0.35821 0.04124 0.0
H2058 H 0.23191 0.36033 0.02881 0.0
H2059 H 0.19646 0.39958 0.00122 0.0
H2060 H 0.16184 0.39793 0.0138 0.0
H2061 H 0.23963 0.41523 0.00482 0.0
H2062 H 0.20369 0.34402 0.99674 0.0
H2063 H 0.18575 0.30759 0.00214 0.0
H2064 H 0.24709 0.2858 0.01992 0.0
H2065 H 0.2653 0.32225 0.01478 0.0
C2066 C 0.3176 0.36103 0.96636 0.0
C2067 C 0.33777 0.37205 0.96985 0.0
C2068 C 0.29801 0.36328 0.97344 0.0
C2069 C 0.29805 0.37653 0.98421 0.0
C2070 C 0.31812 0.38754 0.98781 0.0
C2071 C 0.33782 0.38542 0.98064 0.0
C2072 C 0.2771 0.37809 0.99176 0.0
C2073 C 0.26671 0.35784 0.99552 0.0
C2074 C 0.26708 0.39907 0.995 0.0
C2075 C 0.2765 0.42099 0.99068 0.0
C2076 C 0.28228 0.43789 -0.00071 0.0
C2077 C 0.29124 0.45854 0.99524 0.0
C2078 C 0.29437 0.46252 0.98259 0.0
C2079 C 0.28848 0.44589 0.97396 0.0
C2080 C 0.27949 0.42523 0.97796 0.0
C2081 C 0.197 0.36738 0.03256 0.0
C2082 C 0.17685 0.37765 0.02843 0.0
C2083 C 0.21669 0.36859 0.02547 0.0
C2084 C 0.21663 0.3798 0.01402 0.0
C2085 C 0.19682 0.3908 0.01004 0.0
C2086 C 0.17705 0.38975 0.0172 0.0
C2087 C 0.23697 0.3789 0.006 0.0
C2088 C 0.24723 0.3992 0.00219 0.0
C2089 C 0.24663 0.35795 0.00243 0.0
C2090 C 0.23579 0.33595 0.00547 0.0
C2091 C 0.2133 0.33152 0.00187 0.0
C2092 C 0.20309 0.31087 0.00488 0.0
C2093 C 0.21526 0.29441 0.01139 0.0
C2094 C 0.23768 0.29857 0.01489 0.0
C2095 C 0.24796 0.31922 0.01192 0.0
H2096 H 0.20733 0.27843 0.01371 0.0
H2097 H 0.30132 0.47851 0.97948 0.0
H2098 H 0.84682 0.08555 0.22668 0.0
H2099 H 0.84163 0.04834 0.23637 0.0
H2100 H 0.91359 0.036 0.23358 0.0
H2101 H 0.91865 0.07259 0.22349 0.0
H2102 H 0.89216 0.00126 0.22521 0.0
H2103 H 0.88505 0.04797 0.26177 0.0
H2104 H 0.86876 0.0784 0.27465 0.0
H2105 H 0.80346 0.04641 0.27296 0.0
H2106 H 0.81932 0.01591 0.25993 0.0
H2107 H 0.91588 0.91779 0.26999 0.0
H2108 H 0.91119 0.95244 0.2579 0.0
H2109 H 0.83903 0.94111 0.25629 0.0
H2110 H 0.84366 0.90596 0.26828 0.0
H2111 H 0.85373 0.98574 0.2652 0.0
H2112 H 0.86418 0.93581 0.2308 0.0
H2113 H 0.88268 0.90524 0.21896 0.0
H2114 H 0.94443 0.94368 0.21768 0.0
H2115 H 0.92641 0.97435 0.22967 0.0
C2116 C 0.86154 0.07502 0.22835 0.0
C2117 C 0.88312 0.08188 0.2243 0.0
C2118 C 0.85857 0.05376 0.23388 0.0
C2119 C 0.87722 0.03931 0.23569 0.0
C2120 C 0.8989 0.0467 0.23216 0.0
C2121 C 0.9018 0.06768 0.22646 0.0
C2122 C 0.87435 0.01603 0.24068 0.0
C2123 C 0.88388 0.99795 0.234 0.0
C2124 C 0.86285 0.0115 0.25194 0.0
C2125 C 0.8533 0.02982 0.25975 0.0
C2126 C 0.86717 0.04753 0.26406 0.0
C2127 C 0.85803 0.06477 0.2714 0.0
C2128 C 0.83507 0.06438 0.27458 0.0
C2129 C 0.82122 0.04671 0.27046 0.0
C2130 C 0.83028 0.02944 0.2631 0.0
C2131 C 0.89904 0.92247 0.2669 0.0
C2132 C 0.88012 0.90922 0.27007 0.0
C2133 C 0.8964 0.94223 0.25999 0.0
C2134 C 0.87477 0.94927 0.25623 0.0
C2135 C 0.85584 0.93586 0.25912 0.0
C2136 C 0.85853 0.91577 0.26587 0.0
C2137 C 0.87223 0.97133 0.24991 0.0
C2138 C 0.86165 0.98912 0.25631 0.0
C2139 C 0.88307 0.97569 0.23849 0.0
C2140 C 0.89396 0.95733 0.2312 0.0
C2141 C 0.88176 0.93768 0.22807 0.0
C2142 C 0.89215 0.92034 0.22132 0.0
C2143 C 0.91473 0.9225 0.21759 0.0
C2144 C 0.92694 0.94203 0.22058 0.0
C2145 C 0.91663 0.95941 0.22734 0.0
H2146 H 0.92275 0.90906 0.21236 0.0
H2147 H 0.82802 0.07774 0.28027 0.0
H2148 H 0.1809 0.64998 0.45658 0.0
H2149 H 0.21529 0.64242 0.46819 0.0
H2150 H 0.18093 0.59022 0.48892 0.0
H2151 H 0.14596 0.59773 0.47727 0.0
H2152 H 0.2064 0.61761 0.50377 0.0
H2153 H 0.21838 0.57426 0.46765 0.0
H2154 H 0.21901 0.56567 0.4453 0.0
H2155 H 0.26892 0.61756 0.43951 0.0
H2156 H 0.26834 0.62672 0.4618 0.0
H2157 H 0.33695 0.59428 0.51124 0.0
H2158 H 0.30123 0.58589 0.50052 0.0
H2159 H 0.27548 0.65168 0.51073 0.0
H2160 H 0.31066 0.66006 0.52152 0.0
H2161 H 0.27909 0.60522 0.48157 0.0
H2162 H 0.221 0.64911 0.51817 0.0
H2163 H 0.22027 0.65527 0.54077 0.0
H2164 H 0.26206 0.59655 0.54619 0.0
H2165 H 0.26277 0.58982 0.52364 0.0
C2166 C 0.18048 0.63687 0.4636 0.0
C2167 C 0.1606 0.6244 0.46594 0.0
C2168 C 0.20029 0.63247 0.47018 0.0
C2169 C 0.20079 0.61546 0.47923 0.0
C2170 C 0.18091 0.60328 0.48187 0.0
C2171 C 0.16097 0.60763 0.47522 0.0
C2172 C 0.2221 0.61125 0.48611 0.0
C2173 C 0.22227 0.61464 0.49896 0.0
C2174 C 0.24271 0.60671 0.47985 0.0
C2175 C 0.24324 0.60124 0.46641 0.0
C2176 C 0.22938 0.58395 0.4616 0.0
C2177 C 0.22975 0.57896 0.44894 0.0
C2178 C 0.24398 0.59107 0.44099 0.0
C2179 C 0.25791 0.60818 0.44569 0.0
C2180 C 0.2576 0.61325 0.45834 0.0
C2181 C 0.32373 0.60701 0.51111 0.0
C2182 C 0.32658 0.62775 0.51734 0.0
C2183 C 0.30333 0.60215 0.50502 0.0
C2184 C 0.28552 0.61794 0.5051 0.0
C2185 C 0.28876 0.639 0.51085 0.0
C2186 C 0.30898 0.64381 0.51695 0.0
C2187 C 0.26349 0.61285 0.49912 0.0
C2188 C 0.26319 0.6077 0.48644 0.0
C2189 C 0.24273 0.61534 0.50558 0.0
C2190 C 0.24202 0.61903 0.51919 0.0
C2191 C 0.2299 0.63741 0.52418 0.0
C2192 C 0.22952 0.64103 0.53699 0.0
C2193 C 0.24114 0.62634 0.54491 0.0
C2194 C 0.25311 0.60796 0.54004 0.0
C2195 C 0.25353 0.60425 0.52725 0.0
H2196 H 0.24085 0.62919 0.55481 0.0
H2197 H 0.24424 0.58719 0.43119 0.0
H2198 H 0.63303 0.09803 0.75998 0.0
H2199 H 0.64116 0.06342 0.74819 0.0
H2200 H 0.60756 0.02348 0.77615 0.0
H2201 H 0.59896 0.05786 0.78786 0.0
H2202 H 0.65252 0.00688 0.76752 0.0
H2203 H 0.57877 0.03206 0.75274 0.0
H2204 H 0.55248 0.0602 0.74386 0.0
H2205 H 0.59474 0.06616 0.71161 0.0
H2206 H 0.62146 0.03827 0.7204 0.0
H2207 H 0.6333 0.90123 0.73717 0.0
H2208 H 0.63366 0.9362 0.74943 0.0
H2209 H 0.64524 0.97505 0.71608 0.0
H2210 H 0.64334 0.94033 0.70384 0.0
H2211 H 0.61359 0.99359 0.72745 0.0
H2212 H 0.68633 0.96749 0.74052 0.0
H2213 H 0.71446 0.94066 0.7489 0.0
H2214 H 0.67808 0.93786 0.78333 0.0
H2215 H 0.64955 0.96446 0.77511 0.0
C2216 C 0.62737 0.08188 0.7636 0.0
C2217 C 0.61521 0.08068 0.7748 0.0
C2218 C 0.63206 0.06217 0.75689 0.0
C2219 C 0.625 0.041 0.76137 0.0
C2220 C 0.61322 0.0397 0.77261 0.0
C2221 C 0.60816 0.05938 0.77921 0.0
C2222 C 0.62907 0.02019 0.75411 0.0
C2223 C 0.64397 0.00378 0.75879 0.0
C2224 C 0.61834 0.01663 0.74259 0.0
C2225 C 0.60223 0.0333 0.73729 0.0
C2226 C 0.58256 0.03953 0.74381 0.0
C2227 C 0.56756 0.0554 0.73878 0.0
C2228 C 0.57198 0.06502 0.72719 0.0
C2229 C 0.59137 0.05873 0.7206 0.0
C2230 C 0.60643 0.04289 0.72559 0.0
C2231 C 0.63634 0.91725 0.73256 0.0
C2232 C 0.63823 0.91826 0.71962 0.0
C2233 C 0.63666 0.93723 0.73955 0.0
C2234 C 0.6396 0.95837 0.73371 0.0
C2235 C 0.64275 0.95905 0.72081 0.0
C2236 C 0.64178 0.93923 0.71383 0.0
C2237 C 0.63731 0.97991 0.74075 0.0
C2238 C 0.62254 0.99655 0.73608 0.0
C2239 C 0.64854 0.9838 0.75216 0.0
C2240 C 0.66568 0.96782 0.75715 0.0
C2241 C 0.68423 0.96103 0.74985 0.0
C2242 C 0.70026 0.94588 0.75457 0.0
C2243 C 0.69803 0.93751 0.76663 0.0
C2244 C 0.67978 0.94433 0.77399 0.0
C2245 C 0.66368 0.95947 0.76931 0.0
H2246 H 0.71046 0.92578 0.77027 0.0
H2247 H 0.56034 0.07729 0.72331 0.0
H2248 H 0.69179 0.62437 0.04499 0.0
H2249 H 0.72678 0.61868 0.03335 0.0
H2250 H 0.68803 0.61077 -0.00033 0.0
H2251 H 0.65277 0.61499 0.01155 0.0
H2252 H 0.72208 0.58405 -0.00147 0.0
H2253 H 0.71451 0.66255 0.00851 0.0
H2254 H 0.70898 0.69594 0.02191 0.0
H2255 H 0.76956 0.67943 0.04203 0.0
H2256 H 0.77529 0.64576 0.02885 0.0
H2257 H 0.80708 0.62787 0.95724 0.0
H2258 H 0.77354 0.62298 0.97027 0.0
H2259 H 0.81607 0.60417 0.00108 0.0
H2260 H 0.84988 0.60845 0.98796 0.0
H2261 H 0.78171 0.64248 0.00416 0.0
H2262 H 0.78933 0.5645 0.99134 0.0
H2263 H 0.79377 0.534 0.97592 0.0
H2264 H 0.7313 0.5537 0.95858 0.0
H2265 H 0.72666 0.58456 0.97379 0.0
C2266 C 0.69077 0.62119 0.03512 0.0
C2267 C 0.6697 0.62037 0.0291 0.0
C2268 C 0.71076 0.61807 0.02845 0.0
C2269 C 0.71013 0.615 0.01556 0.0
C2270 C 0.68898 0.61326 0.0096 0.0
C2271 C 0.66887 0.61572 0.01636 0.0
C2272 C 0.73151 0.61452 0.00828 0.0
C2273 C 0.735 0.59695 -0.00029 0.0
C2274 C 0.74856 0.63124 0.00985 0.0
C2275 C 0.7452 0.65151 0.01777 0.0
C2276 C 0.72657 0.66596 0.01585 0.0
C2277 C 0.72341 0.68494 0.0234 0.0
C2278 C 0.73887 0.68977 0.03284 0.0
C2279 C 0.75757 0.67565 0.03473 0.0
C2280 C 0.76079 0.65663 0.02722 0.0
C2281 C 0.80931 0.62255 0.96677 0.0
C2282 C 0.83108 0.61864 0.97162 0.0
C2283 C 0.79014 0.61965 0.97416 0.0
C2284 C 0.79243 0.61314 0.98657 0.0
C2285 C 0.81408 0.60909 0.99147 0.0
C2286 C 0.8333 0.61152 0.98399 0.0
C2287 C 0.77215 0.61205 0.99455 0.0
C2288 C 0.76884 0.62946 0.00316 0.0
C2289 C 0.75507 0.5956 0.99275 0.0
C2290 C 0.75776 0.57697 0.98364 0.0
C2291 C 0.77665 0.56247 0.98417 0.0
C2292 C 0.77917 0.54508 0.97548 0.0
C2293 C 0.76285 0.54195 0.96626 0.0
C2294 C 0.74394 0.55616 0.96573 0.0
C2295 C 0.74134 0.57359 0.97439 0.0
H2296 H 0.76484 0.52848 0.95954 0.0
H2297 H 0.7364 0.70447 0.03867 0.0
H2298 H 0.08112 0.92573 0.76851 0.0
H2299 H 0.08658 0.96056 0.75671 0.0
H2300 H 0.15828 0.94701 0.75429 0.0
H2301 H 0.15292 0.91176 0.76605 0.0
H2302 H 0.1461 0.99193 0.763 0.0
H2303 H 0.13107 0.94204 0.72909 0.0
H2304 H 0.11043 0.91214 0.71782 0.0
H2305 H 0.05038 0.95323 0.71763 0.0
H2306 H 0.07056 0.98326 0.72906 0.0
H2307 H 0.15541 0.08977 0.72288 0.0
H2308 H 0.15938 0.05291 0.73315 0.0
H2309 H 0.08668 0.04459 0.73255 0.0
H2310 H 0.08274 0.08084 0.72196 0.0
H2311 H 0.10575 0.00853 0.72371 0.0
H2312 H 0.11797 0.05578 0.75966 0.0
H2313 H 0.13684 0.08563 0.77189 0.0
H2314 H 0.20008 0.04997 0.76914 0.0
H2315 H 0.18163 0.02004 0.75677 0.0
C2316 C 0.09802 0.92998 0.76534 0.0
C2317 C 0.1166 0.91603 0.7682 0.0
C2318 C 0.1011 0.94986 0.75859 0.0
C2319 C 0.12281 0.95628 0.75465 0.0
C2320 C 0.1414 0.94226 0.75727 0.0
C2321 C 0.13828 0.9221 0.7639 0.0
C2322 C 0.12584 0.97817 0.74821 0.0
C2323 C 0.13773 0.99552 0.75426 0.0
C2324 C 0.11448 0.98281 0.73698 0.0
C2325 C 0.10231 0.96486 0.73 0.0
C2326 C 0.11342 0.94464 0.72672 0.0
C2327 C 0.10181 0.92768 0.72029 0.0
C2328 C 0.0791 0.93077 0.71702 0.0
C2329 C 0.06797 0.95086 0.72016 0.0
C2330 C 0.0795 0.96788 0.7266 0.0
C2331 C 0.14029 0.08022 0.72517 0.0
C2332 C 0.11878 0.08805 0.72156 0.0
C2333 C 0.14257 0.05917 0.73102 0.0
C2334 C 0.12332 0.04592 0.73358 0.0
C2335 C 0.10179 0.05437 0.73055 0.0
C2336 C 0.09955 0.07514 0.72455 0.0
C2337 C 0.12534 0.02268 0.73871 0.0
C2338 C 0.11445 0.00498 0.73236 0.0
C2339 C 0.13739 0.01784 0.74974 0.0
C2340 C 0.14849 0.03583 0.75716 0.0
C2341 C 0.13594 0.05441 0.76157 0.0
C2342 C 0.14655 0.07132 0.76855 0.0
C2343 C 0.16966 0.06974 0.77125 0.0
C2344 C 0.18219 0.0512 0.76702 0.0
C2345 C 0.17167 0.03425 0.76003 0.0
H2346 H 0.17784 0.08284 0.77665 0.0
H2347 H 0.07014 0.91761 0.71205 0.0
H2348 H 0.81328 0.37915 0.54277 0.0
H2349 H 0.77813 0.38395 0.53123 0.0
H2350 H 0.81609 0.38811 0.49709 0.0
H2351 H 0.85169 0.38451 0.50884 0.0
H2352 H 0.78096 0.41529 0.49581 0.0
H2353 H 0.79097 0.33782 0.5069 0.0
H2354 H 0.79825 0.30525 0.52065 0.0
H2355 H 0.73849 0.32106 0.54166 0.0
H2356 H 0.73102 0.35393 0.52814 0.0
H2357 H 0.69347 0.36674 0.45761 0.0
H2358 H 0.72788 0.37325 0.46969 0.0
H2359 H 0.68748 0.39476 0.50083 0.0
H2360 H 0.65272 0.38891 0.48861 0.0
H2361 H 0.7228 0.35623 0.50374 0.0
H2362 H 0.71284 0.43351 0.49015 0.0
H2363 H 0.70658 0.46329 0.4745 0.0
H2364 H 0.76776 0.44378 0.45576 0.0
H2365 H 0.7742 0.41363 0.47121 0.0
C2366 C 0.81414 0.38135 0.53281 0.0
C2367 C 0.83508 0.38114 0.52664 0.0
C2368 C 0.79404 0.384 0.52622 0.0
C2369 C 0.7944 0.38568 0.51325 0.0
C2370 C 0.81541 0.38664 0.50709 0.0
C2371 C 0.83569 0.38456 0.51377 0.0
C2372 C 0.77277 0.3852 0.50623 0.0
C2373 C 0.76835 0.40226 0.49748 0.0
C2374 C 0.75618 0.36827 0.50843 0.0
C2375 C 0.76057 0.34847 0.51658 0.0
C2376 C 0.77947 0.33445 0.51451 0.0
C2377 C 0.78362 0.31592 0.52225 0.0
C2378 C 0.76888 0.31113 0.53204 0.0
C2379 C 0.74992 0.32482 0.53409 0.0
C2380 C 0.74571 0.34339 0.52638 0.0
C2381 C 0.69188 0.373 0.46701 0.0
C2382 C 0.67043 0.37718 0.47223 0.0
C2383 C 0.71154 0.37683 0.47384 0.0
C2384 C 0.71012 0.38457 0.48608 0.0
C2385 C 0.6888 0.38891 0.49134 0.0
C2386 C 0.66904 0.38557 0.48439 0.0
C2387 C 0.73099 0.38641 0.49353 0.0
C2388 C 0.73534 0.36941 0.50224 0.0
C2389 C 0.74767 0.40299 0.49104 0.0
C2390 C 0.74388 0.42116 0.48177 0.0
C2391 C 0.72484 0.43542 0.48262 0.0
C2392 C 0.72129 0.4524 0.4738 0.0
C2393 C 0.73673 0.45539 0.46412 0.0
C2394 C 0.7558 0.44143 0.46326 0.0
C2395 C 0.75942 0.42441 0.47205 0.0
H2396 H 0.73395 0.46855 0.45731 0.0
H2397 H 0.77211 0.29677 0.53803 0.0
H2398 H 0.36485 0.09673 0.26443 0.0
H2399 H 0.3658 0.06226 0.25182 0.0
H2400 H 0.36866 0.02168 0.2851 0.0
H2401 H 0.36914 0.05607 0.29761 0.0
H2402 H 0.39659 0.00531 0.27027 0.0
H2403 H 0.31917 0.02738 0.26572 0.0
H2404 H 0.28713 0.0528 0.26103 0.0
H2405 H 0.31028 0.05945 0.22348 0.0
H2406 H 0.34264 0.03429 0.22798 0.0
H2407 H 0.37021 0.90125 0.23815 0.0
H2408 H 0.36486 0.93465 0.25142 0.0
H2409 H 0.38682 0.97798 0.22157 0.0
H2410 H 0.39271 0.94487 0.20839 0.0
H2411 H 0.34452 0.99129 0.23501 0.0
H2412 H 0.42341 0.96947 0.2412 0.0
H2413 H 0.45351 0.94225 0.24666 0.0
H2414 H 0.42376 0.93293 0.28263 0.0
H2415 H 0.39327 0.95987 0.2773 0.0
C2416 C 0.36559 0.08041 0.269 0.0
C2417 C 0.367 0.07902 0.28196 0.0
C2418 C 0.36597 0.0607 0.26181 0.0
C2419 C 0.36697 0.03925 0.26749 0.0
C2420 C 0.36798 0.03796 0.28047 0.0
C2421 C 0.36822 0.05762 0.28762 0.0
C2422 C 0.36795 0.01817 0.25997 0.0
C2423 C 0.38488 0.00217 0.26272 0.0
C2424 C 0.35292 0.01401 0.24998 0.0
C2425 C 0.33345 0.02911 0.24723 0.0
C2426 C 0.31752 0.03439 0.25649 0.0
C2427 C 0.29928 0.04873 0.25386 0.0
C2428 C 0.2967 0.05778 0.24198 0.0
C2429 C 0.31232 0.05245 0.23269 0.0
C2430 C 0.3306 0.03813 0.23527 0.0
C2431 C 0.37387 0.9179 0.23443 0.0
C2432 C 0.38202 0.92046 0.22227 0.0
C2433 C 0.37079 0.9369 0.242 0.0
C2434 C 0.37543 0.95867 0.23742 0.0
C2435 C 0.38311 0.96128 0.22522 0.0
C2436 C 0.38661 0.94234 0.21776 0.0
C2437 C 0.373 0.9788 0.2454 0.0
C2438 C 0.35593 0.99454 0.24269 0.0
C2439 C 0.38753 0.98253 0.25558 0.0
C2440 C 0.40593 0.96646 0.2588 0.0
C2441 C 0.42317 0.96145 0.25023 0.0
C2442 C 0.44032 0.94611 0.25331 0.0
C2443 C 0.44051 0.93581 0.26497 0.0
C2444 C 0.42357 0.94089 0.27359 0.0
C2445 C 0.40636 0.9562 0.27055 0.0
H2446 H 0.45381 0.92395 0.26734 0.0
H2447 H 0.28257 0.06888 0.23996 0.0
H2448 H 0.83516 0.90525 0.47944 0.0
H2449 H 0.79792 0.91091 0.48905 0.0
H2450 H 0.78435 0.83929 0.48593 0.0
H2451 H 0.82109 0.83366 0.4761 0.0
H2452 H 0.75034 0.86248 0.47684 0.0
H2453 H 0.79575 0.866 0.51408 0.0
H2454 H 0.82607 0.88077 0.52758 0.0
H2455 H 0.79562 0.94683 0.52674 0.0
H2456 H 0.76525 0.93249 0.51311 0.0
H2457 H 0.66572 0.83637 0.52037 0.0
H2458 H 0.70057 0.84186 0.50853 0.0
H2459 H 0.68956 0.91409 0.50856 0.0
H2460 H 0.65414 0.90864 0.52028 0.0
H2461 H 0.73408 0.89828 0.51746 0.0
H2462 H 0.68523 0.89179 0.48246 0.0
H2463 H 0.65466 0.87519 0.46981 0.0
H2464 H 0.6917 0.81276 0.46717 0.0
H2465 H 0.72236 0.82886 0.47996 0.0
C2466 C 0.8244 0.89067 0.48104 0.0
C2467 C 0.83098 0.86903 0.47695 0.0
C2468 C 0.8031 0.89393 0.48651 0.0
C2469 C 0.78827 0.87553 0.48814 0.0
C2470 C 0.79538 0.85378 0.48463 0.0
C2471 C 0.81645 0.85056 0.47907 0.0
C2472 C 0.76485 0.87878 0.49286 0.0
C2473 C 0.74683 0.87021 0.48576 0.0
C2474 C 0.76015 0.88962 0.50428 0.0
C2475 C 0.7784 0.89825 0.51245 0.0
C2476 C 0.79563 0.88372 0.51669 0.0
C2477 C 0.8128 0.892 0.52438 0.0
C2478 C 0.81282 0.91474 0.52798 0.0
C2479 C 0.79562 0.92923 0.52392 0.0
C2480 C 0.77842 0.92104 0.51622 0.0
C2481 C 0.67049 0.8534 0.51766 0.0
C2482 C 0.65727 0.87209 0.52121 0.0
C2483 C 0.69037 0.8565 0.5109 0.0
C2484 C 0.69758 0.87837 0.50771 0.0
C2485 C 0.68418 0.8971 0.51095 0.0
C2486 C 0.66394 0.89395 0.51754 0.0
C2487 C 0.71985 0.88126 0.50162 0.0
C2488 C 0.73762 0.89098 0.50843 0.0
C2489 C 0.72441 0.87126 0.49 0.0
C2490 C 0.70605 0.86151 0.48224 0.0
C2491 C 0.68679 0.87446 0.47926 0.0
C2492 C 0.66945 0.86515 0.47205 0.0
C2493 C 0.67122 0.84293 0.4677 0.0
C2494 C 0.69035 0.82998 0.47054 0.0
C2495 C 0.70773 0.8392 0.47776 0.0
H2496 H 0.65778 0.83575 0.46212 0.0
H2497 H 0.82612 0.92112 0.53394 0.0
H2498 H 0.42053 0.58463 0.71705 0.0
H2499 H 0.41591 0.54774 0.72688 0.0
H2500 H 0.3446 0.561 0.73207 0.0
H2501 H 0.34929 0.59844 0.72253 0.0
H2502 H 0.3611 0.53837 0.7514 0.0
H2503 H 0.36265 0.52848 0.70776 0.0
H2504 H 0.37678 0.53303 0.6864 0.0
H2505 H 0.43871 0.49935 0.69627 0.0
H2506 H 0.4251 0.4949 0.71775 0.0
H2507 H 0.34642 0.41915 0.76316 0.0
H2508 H 0.34214 0.45488 0.75169 0.0
H2509 H 0.41484 0.46204 0.75021 0.0
H2510 H 0.41922 0.42678 0.76184 0.0
H2511 H 0.39101 0.47302 0.72748 0.0
H2512 H 0.3896 0.488 0.77199 0.0
H2513 H 0.37412 0.48321 0.79306 0.0
H2514 H 0.30907 0.50656 0.78059 0.0
H2515 H 0.32412 0.51118 0.75938 0.0
C2516 C 0.40392 0.57986 0.72045 0.0
C2517 C 0.38522 0.59432 0.7189 0.0
C2518 C 0.40126 0.5587 0.72599 0.0
C2519 C 0.37977 0.55132 0.72985 0.0
C2520 C 0.3613 0.56626 0.72903 0.0
C2521 C 0.36401 0.58766 0.72362 0.0
C2522 C 0.37672 0.52774 0.7343 0.0
C2523 C 0.36722 0.52405 0.74606 0.0
C2524 C 0.38466 0.50899 0.72733 0.0
C2525 C 0.3929 0.51149 0.7144 0.0
C2526 C 0.37935 0.52217 0.7054 0.0
C2527 C 0.38726 0.52472 0.69327 0.0
C2528 C 0.40864 0.51652 0.68999 0.0
C2529 C 0.42215 0.50571 0.69883 0.0
C2530 C 0.41433 0.50314 0.71098 0.0
C2531 C 0.36146 0.42812 0.76014 0.0
C2532 C 0.38316 0.4203 0.76341 0.0
C2533 C 0.35898 0.44854 0.75367 0.0
C2534 C 0.37819 0.46109 0.75022 0.0
C2535 C 0.39984 0.45257 0.75282 0.0
C2536 C 0.40231 0.43247 0.75947 0.0
C2537 C 0.37603 0.48386 0.74465 0.0
C2538 C 0.38451 0.48735 0.73268 0.0
C2539 C 0.36688 0.50233 0.75135 0.0
C2540 C 0.35789 0.49964 0.76408 0.0
C2541 C 0.37194 0.4919 0.77372 0.0
C2542 C 0.36326 0.48926 0.78569 0.0
C2543 C 0.3406 0.4945 0.78815 0.0
C2544 C 0.3266 0.50246 0.77866 0.0
C2545 C 0.3352 0.50509 0.76667 0.0
H2546 H 0.33391 0.49246 0.79743 0.0
H2547 H 0.41474 0.51851 0.68059 0.0
H2548 H 0.8341 0.1736 0.02023 0.0
H2549 H 0.79666 0.16659 0.01151 0.0
H2550 H 0.8107 0.09489 0.01032 0.0
H2551 H 0.84862 0.10187 0.01887 0.0
H2552 H 0.78561 0.10869 0.99032 0.0
H2553 H 0.78101 0.11519 0.03412 0.0
H2554 H 0.78824 0.13209 0.05463 0.0
H2555 H 0.75248 0.19228 0.0438 0.0
H2556 H 0.74533 0.17589 0.02314 0.0
H2557 H 0.6658 0.09484 0.98105 0.0
H2558 H 0.70203 0.09029 0.99202 0.0
H2559 H 0.70968 0.16292 0.99345 0.0
H2560 H 0.67387 0.16756 0.98244 0.0
H2561 H 0.72278 0.14063 0.01547 0.0
H2562 H 0.73345 0.13536 0.97063 0.0
H2563 H 0.72656 0.11815 0.95014 0.0
H2564 H 0.7506 0.05405 0.96363 0.0
H2565 H 0.75734 0.07085 0.98425 0.0
C2566 C 0.82942 0.15637 0.0179 0.0
C2567 C 0.84418 0.13825 0.02038 0.0
C2568 C 0.80797 0.15237 0.01298 0.0
C2569 C 0.80068 0.13016 0.01063 0.0
C2570 C 0.81594 0.11214 0.01221 0.0
C2571 C 0.83761 0.11616 0.01704 0.0
C2572 C 0.77672 0.126 0.00721 0.0
C2573 C 0.77184 0.11522 0.99594 0.0
C2574 C 0.75874 0.13448 0.01457 0.0
C2575 C 0.76274 0.14434 0.02705 0.0
C2576 C 0.7748 0.13209 0.03608 0.0
C2577 C 0.77888 0.14157 0.04774 0.0
C2578 C 0.77085 0.16326 0.05051 0.0
C2579 C 0.75869 0.17548 0.04164 0.0
C2580 C 0.75459 0.16609 0.02996 0.0
C2581 C 0.67498 0.1098 0.98399 0.0
C2582 C 0.66715 0.13156 0.98085 0.0
C2583 C 0.69568 0.10717 0.99017 0.0
C2584 C 0.70857 0.12628 0.99341 0.0
C2585 C 0.69998 0.14798 0.99101 0.0
C2586 C 0.67956 0.1506 0.9847 0.0
C2587 C 0.73179 0.12406 -0.00159 0.0
C2588 C 0.73653 0.13362 0.01 0.0
C2589 C 0.74956 0.11429 0.9914 0.0
C2590 C 0.74561 0.10427 0.97901 0.0
C2591 C 0.73707 0.11755 0.96925 0.0
C2592 C 0.73323 0.10788 0.95761 0.0
C2593 C 0.73806 0.085 0.9556 0.0
C2594 C 0.74681 0.07176 0.96521 0.0
C2595 C 0.75065 0.08134 0.97687 0.0
H2596 H 0.73509 0.07755 0.94658 0.0
H2597 H 0.77404 0.17058 0.05954 0.0
H2598 H 0.09224 0.57991 0.26495 0.0
H2599 H 0.09728 0.54367 0.2545 0.0
H2600 H 0.1699 0.55073 0.2573 0.0
H2601 H 0.16489 0.58768 0.26752 0.0
H2602 H 0.15679 0.52951 0.23547 0.0
H2603 H 0.14371 0.52013 0.27864 0.0
H2604 H 0.12476 0.52666 0.2987 0.0
H2605 H 0.0628 0.49937 0.28411 0.0
H2606 H 0.08127 0.493 0.2639 0.0
H2607 H 0.1578 0.4084 0.22355 0.0
H2608 H 0.16539 0.44408 0.23452 0.0
H2609 H 0.09413 0.4603 0.23344 0.0
H2610 H 0.08646 0.42505 0.22245 0.0
H2611 H 0.11485 0.4677 0.25667 0.0
H2612 H 0.12765 0.48281 0.21268 0.0
H2613 H 0.14701 0.47658 0.19271 0.0
H2614 H 0.21105 0.4923 0.20956 0.0
H2615 H 0.19207 0.49832 0.22968 0.0
C2616 C 0.1093 0.57398 0.2631 0.0
C2617 C 0.12818 0.58638 0.26715 0.0
C2618 C 0.11216 0.55325 0.25718 0.0
C2619 C 0.13394 0.54424 0.25548 0.0
C2620 C 0.15295 0.55734 0.25865 0.0
C2621 C 0.15008 0.57841 0.26444 0.0
C2622 C 0.13633 0.52049 0.25126 0.0
C2623 C 0.14806 0.51588 0.24024 0.0
C2624 C 0.12501 0.50269 0.25753 0.0
C2625 C 0.11387 0.50618 0.26973 0.0
C2626 C 0.12601 0.51563 0.27969 0.0
C2627 C 0.11535 0.5193 0.29109 0.0
C2628 C 0.09258 0.51345 0.29267 0.0
C2629 C 0.08044 0.50388 0.28287 0.0
C2630 C 0.091 0.5002 0.27145 0.0
C2631 C 0.14375 0.41947 0.2258 0.0
C2632 C 0.12154 0.41399 0.22211 0.0
C2633 C 0.14814 0.43985 0.23199 0.0
C2634 C 0.13032 0.45481 0.23469 0.0
C2635 C 0.10809 0.44895 0.23142 0.0
C2636 C 0.10375 0.42883 0.22511 0.0
C2637 C 0.13448 0.47695 0.24065 0.0
C2638 C 0.12404 0.48122 0.25206 0.0
C2639 C 0.14715 0.49428 0.2348 0.0
C2640 C 0.1585 0.49071 0.22271 0.0
C2641 C 0.14589 0.48472 0.21215 0.0
C2642 C 0.15678 0.48128 0.2008 0.0
C2643 C 0.18026 0.48396 0.19988 0.0
C2644 C 0.19287 0.49017 0.21029 0.0
C2645 C 0.18206 0.49361 0.22167 0.0
H2646 H 0.18866 0.48129 0.19108 0.0
H2647 H 0.08436 0.51632 0.3015 0.0
H2648 H 0.15156 0.129 0.50486 0.0
H2649 H 0.18809 0.12491 0.49419 0.0
H2650 H 0.22246 0.12497 0.52955 0.0
H2651 H 0.18629 0.13074 0.54002 0.0
H2652 H 0.24405 0.15058 0.51599 0.0
H2653 H 0.21577 0.07572 0.50945 0.0
H2654 H 0.18855 0.0463 0.50298 0.0
H2655 H 0.19181 0.07036 0.46547 0.0
H2656 H 0.21883 0.10012 0.47174 0.0
H2657 H 0.3515 0.12016 0.48921 0.0
H2658 H 0.31561 0.11365 0.50033 0.0
H2659 H 0.27843 0.14042 0.4692 0.0
H2660 H 0.31397 0.14752 0.45826 0.0
H2661 H 0.26004 0.09811 0.48117 0.0
H2662 H 0.28618 0.17534 0.48958 0.0
H2663 H 0.31472 0.20292 0.49676 0.0
H2664 H 0.31678 0.17033 0.53233 0.0
H2665 H 0.28847 0.14235 0.52527 0.0
C2666 C 0.16698 0.12795 0.51028 0.0
C2667 C 0.16627 0.13032 0.5232 0.0
C2668 C 0.18784 0.12542 0.50422 0.0
C2669 C 0.20818 0.12438 0.51105 0.0
C2670 C 0.20716 0.12589 0.52403 0.0
C2671 C 0.18649 0.12912 0.53001 0.0
C2672 C 0.23066 0.12336 0.50477 0.0
C2673 C 0.24754 0.1387 0.50856 0.0
C2674 C 0.23539 0.10818 0.49492 0.0
C2675 C 0.21918 0.09028 0.4911 0.0
C2676 C 0.21056 0.07484 0.49984 0.0
C2677 C 0.19519 0.05808 0.4962 0.0
C2678 C 0.18842 0.05649 0.48383 0.0
C2679 C 0.19705 0.07162 0.47505 0.0
C2680 C 0.21242 0.08842 0.47864 0.0
C2681 C 0.33563 0.12442 0.48473 0.0
C2682 C 0.33548 0.13457 0.47296 0.0
C2683 C 0.31522 0.12067 0.49105 0.0
C2684 C 0.29447 0.12654 0.48553 0.0
C2685 C 0.29428 0.13569 0.47356 0.0
C2686 C 0.3146 0.13991 0.46739 0.0
C2687 C 0.27299 0.12509 0.49254 0.0
C2688 C 0.25639 0.10954 0.48879 0.0
C2689 C 0.2686 0.13969 0.5026 0.0
C2690 C 0.28545 0.15661 0.50686 0.0
C2691 C 0.29288 0.17394 0.49889 0.0
C2692 C 0.30898 0.18966 0.50294 0.0
C2693 C 0.31761 0.18833 0.51498 0.0
C2694 C 0.31011 0.17131 0.523 0.0
C2695 C 0.29404 0.15553 0.51898 0.0
H2696 H 0.33007 0.20052 0.5181 0.0
H2697 H 0.17651 0.04351 0.48103 0.0
H2698 H 0.64724 0.40096 0.26165 0.0
H2699 H 0.65147 0.43647 0.25 0.0
H2700 H 0.5805 0.4509 0.25546 0.0
H2701 H 0.57625 0.4158 0.26725 0.0
H2702 H 0.59765 0.46128 0.23107 0.0
H2703 H 0.61526 0.47262 0.27488 0.0
H2704 H 0.63679 0.46463 0.29397 0.0
H2705 H 0.69886 0.48196 0.27545 0.0
H2706 H 0.67769 0.48975 0.25618 0.0
H2707 H 0.57731 0.57594 0.2253 0.0
H2708 H 0.58115 0.53804 0.23401 0.0
H2709 H 0.654 0.54375 0.23212 0.0
H2710 H 0.65022 0.58221 0.22371 0.0
H2711 H 0.64185 0.52127 0.25243 0.0
H2712 H 0.62485 0.51518 0.20959 0.0
H2713 H 0.60446 0.52289 0.1901 0.0
H2714 H 0.54356 0.49481 0.20557 0.0
H2715 H 0.56349 0.48723 0.22523 0.0
C2716 C 0.63245 0.41145 0.26009 0.0
C2717 C 0.61144 0.40573 0.26539 0.0
C2718 C 0.63492 0.43175 0.25352 0.0
C2719 C 0.61633 0.44632 0.252 0.0
C2720 C 0.59504 0.43985 0.25656 0.0
C2721 C 0.59265 0.41984 0.2633 0.0
C2722 C 0.61912 0.46915 0.24658 0.0
C2723 C 0.60727 0.47444 0.23572 0.0
C2724 C 0.63227 0.48605 0.25248 0.0
C2725 C 0.64494 0.48147 0.26406 0.0
C2726 C 0.63352 0.47452 0.27485 0.0
C2727 C 0.64565 0.47007 0.28571 0.0
C2728 C 0.66919 0.47271 0.28591 0.0
C2729 C 0.68063 0.47987 0.27527 0.0
C2730 C 0.66858 0.48431 0.26438 0.0
C2731 C 0.59416 0.56929 0.22693 0.0
C2732 C 0.61347 0.58192 0.22371 0.0
C2733 C 0.59634 0.54755 0.23182 0.0
C2734 C 0.61785 0.53778 0.23334 0.0
C2735 C 0.63723 0.55088 0.23089 0.0
C2736 C 0.63505 0.57286 0.22614 0.0
C2737 C 0.6198 0.51366 0.23707 0.0
C2738 C 0.63256 0.50809 0.2476 0.0
C2739 C 0.6077 0.49639 0.23076 0.0
C2740 C 0.59565 0.50076 0.21892 0.0
C2741 C 0.60707 0.51077 0.20886 0.0
C2742 C 0.5956 0.51511 0.19778 0.0
C2743 C 0.57272 0.50938 0.1966 0.0
C2744 C 0.56128 0.49925 0.2065 0.0
C2745 C 0.57267 0.4949 0.21761 0.0
H2746 H 0.56387 0.51275 0.18801 0.0
H2747 H 0.67855 0.46926 0.29433 0.0
H2748 H 0.15767 0.89759 0.97685 0.0
H2749 H 0.19436 0.90165 0.98736 0.0
H2750 H 0.20348 0.82919 0.98626 0.0
H2751 H 0.16717 0.82502 0.97563 0.0
H2752 H 0.21595 0.85023 0.00925 0.0
H2753 H 0.22695 0.85843 0.96466 0.0
H2754 H 0.21987 0.87654 0.94443 0.0
H2755 H 0.24226 0.94045 0.95897 0.0
H2756 H 0.24917 0.92275 0.97935 0.0
H2757 H 0.32899 0.82423 0.01626 0.0
H2758 H 0.2917 0.82855 0.00683 0.0
H2759 H 0.30133 0.90095 0.00507 0.0
H2760 H 0.33918 0.89662 0.01423 0.0
H2761 H 0.27813 0.88609 0.9852 0.0
H2762 H 0.27166 0.87815 0.02885 0.0
H2763 H 0.27855 0.8613 0.04941 0.0
H2764 H 0.24686 0.79943 0.03767 0.0
H2765 H 0.24008 0.81579 0.01696 0.0
C2766 C 0.16731 0.88252 0.97908 0.0
C2767 C 0.15965 0.86099 0.97538 0.0
C2768 C 0.18828 0.88488 0.985 0.0
C2769 C 0.20164 0.86573 0.98746 0.0
C2770 C 0.1934 0.84416 0.98442 0.0
C2771 C 0.17269 0.84182 0.97833 0.0
C2772 C 0.2248 0.86795 0.99252 0.0
C2773 C 0.22958 0.858 0.00401 0.0
C2774 C 0.24235 0.87876 0.98581 0.0
C2775 C 0.2383 0.88934 0.97356 0.0
C2776 C 0.23016 0.87639 0.96357 0.0
C2777 C 0.22622 0.88656 0.95207 0.0
C2778 C 0.23054 0.90965 0.95043 0.0
C2779 C 0.23888 0.92258 0.96027 0.0
C2780 C 0.24281 0.91249 0.97179 0.0
C2781 C 0.32337 0.84104 0.01364 0.0
C2782 C 0.33685 0.86012 0.0161 0.0
C2783 C 0.302 0.8435 0.00833 0.0
C2784 C 0.29346 0.86513 0.00563 0.0
C2785 C 0.30752 0.88412 0.00722 0.0
C2786 C 0.32915 0.88162 0.0124 0.0
C2787 C 0.26947 0.86773 0.0018 0.0
C2788 C 0.26449 0.87863 0.99057 0.0
C2789 C 0.25163 0.85805 0.00884 0.0
C2790 C 0.2555 0.84816 0.02132 0.0
C2791 C 0.26629 0.8609 0.03062 0.0
C2792 C 0.27016 0.85144 0.04231 0.0
C2793 C 0.26318 0.8293 0.04484 0.0
C2794 C 0.25227 0.81658 0.03569 0.0
C2795 C 0.24838 0.82595 0.02398 0.0
H2796 H 0.2662 0.822 0.05389 0.0
H2797 H 0.22749 0.9175 0.94152 0.0
H2798 H 0.90569 0.41891 0.72135 0.0
H2799 H 0.9023 0.45299 0.73397 0.0
H2800 H 0.83142 0.43886 0.74002 0.0
H2801 H 0.8348 0.40417 0.72745 0.0
H2802 H 0.84324 0.4849 0.73092 0.0
H2803 H 0.86094 0.43346 0.76368 0.0
H2804 H 0.88187 0.4024 0.7738 0.0
H2805 H 0.94335 0.44118 0.77186 0.0
H2806 H 0.92286 0.47235 0.76155 0.0
H2807 H 0.84597 0.5836 0.77068 0.0
H2808 H 0.83803 0.54685 0.76105 0.0
H2809 H 0.90987 0.53352 0.7587 0.0
H2810 H 0.91776 0.56965 0.76874 0.0
H2811 H 0.8899 0.4989 0.76837 0.0
H2812 H 0.87501 0.54687 0.73285 0.0
H2813 H 0.85597 0.57782 0.72155 0.0
H2814 H 0.79145 0.54596 0.72755 0.0
H2815 H 0.8101 0.51495 0.73901 0.0
C2816 C 0.88943 0.42287 0.72548 0.0
C2817 C 0.87049 0.40895 0.72342 0.0
C2818 C 0.88753 0.44231 0.7327 0.0
C2819 C 0.86663 0.44836 0.7379 0.0
C2820 C 0.84769 0.43436 0.73607 0.0
C2821 C 0.84968 0.41456 0.72899 0.0
C2822 C 0.86486 0.46995 0.74475 0.0
C2823 C 0.85295 0.48794 0.73929 0.0
C2824 C 0.87797 0.47385 0.75548 0.0
C2825 C 0.89036 0.45521 0.76179 0.0
C2826 C 0.87895 0.43531 0.76533 0.0
C2827 C 0.89074 0.41769 0.77112 0.0
C2828 C 0.91393 0.41981 0.77346 0.0
C2829 C 0.92538 0.43957 0.77004 0.0
C2830 C 0.91368 0.45723 0.76425 0.0
C2831 C 0.86003 0.57297 0.76788 0.0
C2832 C 0.88248 0.57939 0.77049 0.0
C2833 C 0.85549 0.55197 0.76239 0.0
C2834 C 0.87336 0.53735 0.75917 0.0
C2835 C 0.89579 0.54436 0.76122 0.0
C2836 C 0.9003 0.56507 0.7669 0.0
C2837 C 0.86903 0.51425 0.75427 0.0
C2838 C 0.87978 0.49592 0.76014 0.0
C2839 C 0.8551 0.51015 0.74382 0.0
C2840 C 0.84391 0.52875 0.73692 0.0
C2841 C 0.85674 0.54657 0.73184 0.0
C2842 C 0.84603 0.5641 0.72539 0.0
C2843 C 0.82251 0.5639 0.72387 0.0
C2844 C 0.80966 0.54612 0.72876 0.0
C2845 C 0.82029 0.52856 0.73522 0.0
H2846 H 0.81424 0.57749 0.71887 0.0
H2847 H 0.92303 0.40614 0.77793 0.0
H2848 H 0.11456 0.34812 0.07921 0.0
H2849 H 0.10245 0.33169 0.09872 0.0
H2850 H 0.0374 0.36438 0.09513 0.0
H2851 H 0.04926 0.38059 0.07523 0.0
H2852 H 0.06021 0.37454 0.11682 0.0
H2853 H 0.03697 0.30871 0.09581 0.0
H2854 H 0.03904 0.27755 0.08065 0.0
H2855 H 0.09824 0.25138 0.09882 0.0
H2856 H 0.09679 0.28256 0.11398 0.0
H2857 H 0.0669 0.3438 0.17869 0.0
H2858 H 0.0478 0.34126 0.15861 0.0
H2859 H 0.10678 0.30831 0.14322 0.0
H2860 H 0.12536 0.30989 0.1634 0.0
H2861 H 0.07047 0.29517 0.13092 0.0
H2862 H 0.10154 0.36823 0.14495 0.0
H2863 H 0.1033 0.40055 0.15943 0.0
H2864 H 0.03257 0.41383 0.15341 0.0
H2865 H 0.03039 0.38139 0.139 0.0
C2866 C 0.09747 0.35139 0.08232 0.0
C2867 C 0.08289 0.36564 0.07562 0.0
C2868 C 0.0905 0.34185 0.09349 0.0
C2869 C 0.0689 0.34653 0.09826 0.0
C2870 C 0.05404 0.36034 0.0915 0.0
C2871 C 0.0609 0.36966 0.08019 0.0
C2872 C 0.06367 0.33976 0.11112 0.0
C2873 C 0.06158 0.35709 0.11991 0.0
C2874 C 0.06581 0.31703 0.11509 0.0
C2875 C 0.06675 0.29805 0.10605 0.0
C2876 C 0.05052 0.29639 0.09655 0.0
C2877 C 0.05157 0.2787 0.08795 0.0
C2878 C 0.06876 0.26249 0.08877 0.0
C2879 C 0.08491 0.26392 0.0982 0.0
C2880 C 0.08395 0.28158 0.10682 0.0
C2881 C 0.07552 0.33559 0.17107 0.0
C2882 C 0.09782 0.32768 0.1724 0.0
C2883 C 0.06456 0.33401 0.15963 0.0
C2884 C 0.07615 0.32528 0.14931 0.0
C2885 C 0.09753 0.31526 0.15101 0.0
C2886 C 0.10822 0.31629 0.16253 0.0
C2887 C 0.06831 0.33011 0.13654 0.0
C2888 C 0.06799 0.31247 0.12781 0.0
C2889 C 0.06436 0.35265 0.13254 0.0
C2890 C 0.06574 0.37229 0.14105 0.0
C2891 C 0.08637 0.37802 0.14676 0.0
C2892 C 0.08744 0.39633 0.15496 0.0
C2893 C 0.06804 0.40919 0.15737 0.0
C2894 C 0.04756 0.40381 0.15156 0.0
C2895 C 0.04639 0.38547 0.14338 0.0
H2896 H 0.06889 0.42336 0.16372 0.0
H2897 H 0.06955 0.24882 0.0821 0.0
H2898 H 0.94843 0.86896 0.42331 0.0
H2899 H 0.95482 0.85464 0.40231 0.0
H2900 H 0.88804 0.82489 0.40228 0.0
H2901 H 0.88152 0.83905 0.42317 0.0
H2902 H 0.92001 0.79898 0.38893 0.0
H2903 H 0.89376 0.8777 0.3926 0.0
H2904 H 0.89756 0.91706 0.40001 0.0
H2905 H 0.96236 0.92246 0.3821 0.0
H2906 H 0.95903 0.883 0.37472 0.0
H2907 H 0.86524 0.80926 0.33153 0.0
H2908 H 0.88066 0.80674 0.35247 0.0
H2909 H 0.93902 0.84569 0.34106 0.0
H2910 H 0.92318 0.84887 0.32025 0.0
H2911 H 0.92196 0.86423 0.35996 0.0
H2912 H 0.943 0.7887 0.35142 0.0
H2913 H 0.9392 0.74951 0.34383 0.0
H2914 H 0.88617 0.7371 0.37023 0.0
H2915 H 0.8894 0.77632 0.37787 0.0
C2916 C 0.93529 0.85897 0.41892 0.0
C2917 C 0.9143 0.85548 0.4248 0.0
C2918 C 0.93903 0.85071 0.40696 0.0
C2919 C 0.92178 0.83895 0.40072 0.0
C2920 C 0.90157 0.83387 0.40696 0.0
C2921 C 0.89782 0.84212 0.41889 0.0
C2922 C 0.92302 0.83517 0.3872 0.0
C2923 C 0.92055 0.81314 0.38252 0.0
C2924 C 0.92439 0.85364 0.3789 0.0
C2925 C 0.92628 0.87738 0.38325 0.0
C2926 C 0.90888 0.88725 0.39032 0.0
C2927 C 0.91094 0.90957 0.3945 0.0
C2928 C 0.93022 0.92223 0.39156 0.0
C2929 C 0.94746 0.91262 0.3844 0.0
C2930 C 0.9455 0.89029 0.38021 0.0
C2931 C 0.88157 0.8169 0.33345 0.0
C2932 C 0.89278 0.8297 0.32437 0.0
C2933 C 0.8905 0.81528 0.3454 0.0
C2934 C 0.91111 0.82594 0.34837 0.0
C2935 C 0.92304 0.83744 0.33903 0.0
C2936 C 0.91389 0.83942 0.32715 0.0
C2937 C 0.91834 0.82793 0.3615 0.0
C2938 C 0.92225 0.84978 0.36618 0.0
C2939 C 0.91843 0.80921 0.36972 0.0
C2940 C 0.91639 0.78554 0.36519 0.0
C2941 C 0.93042 0.77768 0.35556 0.0
C2942 C 0.92838 0.75544 0.35125 0.0
C2943 C 0.91244 0.74083 0.35653 0.0
C2944 C 0.89852 0.74843 0.36615 0.0
C2945 C 0.90048 0.77066 0.37049 0.0
H2946 H 0.91089 0.72362 0.35318 0.0
H2947 H 0.93179 0.93951 0.39481 0.0
H2948 H 0.41115 0.6474 0.66518 0.0
H2949 H 0.4237 0.65428 0.64407 0.0
H2950 H 0.3872 0.71759 0.64358 0.0
H2951 H 0.37465 0.71092 0.66491 0.0
H2952 H 0.3746 0.68928 0.62516 0.0
H2953 H 0.44383 0.71873 0.64008 0.0
H2954 H 0.47818 0.7207 0.65303 0.0
H2955 H 0.50215 0.65837 0.63727 0.0
H2956 H 0.46778 0.6558 0.62436 0.0
H2957 H 0.39504 0.67984 0.56183 0.0
H2958 H 0.3992 0.69867 0.58187 0.0
H2959 H 0.43656 0.64107 0.59567 0.0
H2960 H 0.43303 0.62258 0.57549 0.0
H2961 H 0.45096 0.67882 0.60674 0.0
H2962 H 0.37772 0.644 0.59775 0.0
H2963 H 0.34271 0.63915 0.58552 0.0
H2964 H 0.32599 0.70921 0.59117 0.0
H2965 H 0.36109 0.71451 0.6033 0.0
C2966 C 0.40626 0.6631 0.66076 0.0
C2967 C 0.39181 0.67856 0.66672 0.0
C2968 C 0.4136 0.66709 0.64868 0.0
C2969 C 0.40657 0.68656 0.6423 0.0
C2970 C 0.39295 0.70255 0.6484 0.0
C2971 C 0.38574 0.69865 0.66055 0.0
C2972 C 0.41048 0.68808 0.62879 0.0
C2973 C 0.39136 0.68778 0.62109 0.0
C2974 C 0.43232 0.6856 0.62355 0.0
C2975 C 0.45314 0.68705 0.63126 0.0
C2976 C 0.45634 0.70535 0.63943 0.0
C2977 C 0.47584 0.70659 0.64676 0.0
C2978 C 0.49233 0.68967 0.64598 0.0
C2979 C 0.48937 0.67148 0.63785 0.0
C2980 C 0.46989 0.67015 0.63051 0.0
C2981 C 0.40432 0.67134 0.5691 0.0
C2982 C 0.41303 0.64946 0.56732 0.0
C2983 C 0.40687 0.68218 0.58051 0.0
C2984 C 0.41761 0.67098 0.59037 0.0
C2985 C 0.42809 0.64999 0.58821 0.0
C2986 C 0.42595 0.63936 0.57672 0.0
C2987 C 0.41502 0.67922 0.60325 0.0
C2988 C 0.43431 0.68123 0.61079 0.0
C2989 C 0.39329 0.68294 0.60846 0.0
C2990 C 0.37212 0.67972 0.60128 0.0
C2991 C 0.36662 0.65839 0.59632 0.0
C2992 C 0.34678 0.65556 0.58941 0.0
C2993 C 0.33218 0.67388 0.58754 0.0
C2994 C 0.33735 0.69505 0.5926 0.0
C2995 C 0.35721 0.69798 0.59949 0.0
H2996 H 0.31682 0.67166 0.58219 0.0
H2997 H 0.50741 0.69065 0.65166 0.0
H2998 H 0.61635 0.20119 0.82609 0.0
H2999 H 0.60616 0.207 0.84781 0.0
H3000 H 0.56772 0.1449 0.84753 0.0
H3001 H 0.57812 0.13868 0.82591 0.0
H3002 H 0.55034 0.18347 0.86411 0.0
H3003 H 0.61718 0.1364 0.85412 0.0
H3004 H 0.65352 0.13051 0.84328 0.0
H3005 H 0.68057 0.19052 0.86023 0.0
H3006 H 0.6442 0.19692 0.87103 0.0
H3007 H 0.56033 0.12563 0.92104 0.0
H3008 H 0.55622 0.14161 0.90034 0.0
H3009 H 0.61311 0.18591 0.9071 0.0
H3010 H 0.61802 0.16917 0.92751 0.0
H3011 H 0.62037 0.16444 0.88737 0.0
H3012 H 0.55763 0.20691 0.90145 0.0
H3013 H 0.52163 0.21487 0.91219 0.0
H3014 H 0.48707 0.16773 0.88852 0.0
H3015 H 0.52289 0.15944 0.87762 0.0
C3016 C 0.60519 0.18908 0.83053 0.0
C3017 C 0.59841 0.16923 0.82435 0.0
C3018 C 0.59926 0.19254 0.84291 0.0
C3019 C 0.58629 0.17632 0.84922 0.0
C3020 C 0.57761 0.15767 0.84275 0.0
C3021 C 0.58376 0.15405 0.83041 0.0
C3022 C 0.58598 0.17608 0.86289 0.0
C3023 C 0.56555 0.17936 0.86928 0.0
C3024 C 0.60601 0.17133 0.86955 0.0
C3025 C 0.62795 0.16728 0.86325 0.0
C3026 C 0.63083 0.14842 0.85545 0.0
C3027 C 0.65143 0.14497 0.84933 0.0
C3028 C 0.66933 0.16017 0.85103 0.0
C3029 C 0.66668 0.1788 0.8589 0.0
C3030 C 0.64609 0.18234 0.86502 0.0
C3031 C 0.57173 0.13905 0.9182 0.0
C3032 C 0.5897 0.14592 0.92588 0.0
C3033 C 0.56919 0.14838 0.90639 0.0
C3034 C 0.58429 0.16508 0.90215 0.0
C3035 C 0.60129 0.173 0.91015 0.0
C3036 C 0.60408 0.16339 0.92185 0.0
C3037 C 0.58457 0.17163 0.88887 0.0
C3038 C 0.6051 0.16925 0.88242 0.0
C3039 C 0.56466 0.17756 0.88228 0.0
C3040 C 0.54301 0.18245 0.88876 0.0
C3041 C 0.54239 0.19813 0.89858 0.0
C3042 C 0.522 0.20275 0.90468 0.0
C3043 C 0.50209 0.19175 0.90107 0.0
C3044 C 0.50251 0.17622 0.8913 0.0
C3045 C 0.52284 0.17163 0.88513 0.0
H3046 H 0.48635 0.19528 0.90585 0.0
H3047 H 0.68526 0.15748 0.84629 0.0
H3048 H 0.10415 0.63039 0.3243 0.0
H3049 H 0.08373 0.63623 0.3435 0.0
H3050 H 0.08279 0.70842 0.33683 0.0
H3051 H 0.10457 0.70257 0.3177 0.0
H3052 H 0.09366 0.70324 0.35875 0.0
H3053 H 0.03159 0.67562 0.33797 0.0
H3054 H 0.00846 0.65287 0.32361 0.0
H3055 H 0.02081 0.59337 0.34548 0.0
H3056 H 0.04436 0.61561 0.35987 0.0
H3057 H 0.03841 0.6406 0.41697 0.0
H3058 H 0.03208 0.65878 0.39676 0.0
H3059 H 0.10449 0.66238 0.39118 0.0
H3060 H 0.11075 0.64531 0.41126 0.0
H3061 H 0.04002 0.64576 0.37503 0.0
H3062 H 0.12285 0.70256 0.37471 0.0
H3063 H 0.14172 0.72909 0.38899 0.0
H3064 H 0.07945 0.73811 0.40898 0.0
H3065 H 0.06003 0.71194 0.3947 0.0
C3066 C 0.09936 0.6475 0.32682 0.0
C3067 C 0.10606 0.66603 0.31957 0.0
C3068 C 0.08735 0.65084 0.33776 0.0
C3069 C 0.08114 0.67275 0.34155 0.0
C3070 C 0.08725 0.69134 0.3341 0.0
C3071 C 0.09976 0.688 0.32322 0.0
C3072 C 0.07101 0.6759 0.35405 0.0
C3073 C 0.0816 0.69097 0.36227 0.0
C3074 C 0.05407 0.66105 0.3586 0.0
C3075 C 0.03973 0.64739 0.35006 0.0
C3076 C 0.02946 0.65767 0.33971 0.0
C3077 C 0.01627 0.64484 0.33156 0.0
C3078 C 0.01314 0.6217 0.33364 0.0
C3079 C 0.02319 0.61133 0.3439 0.0
C3080 C 0.03642 0.62406 0.35209 0.0
C3081 C 0.0529 0.64563 0.41145 0.0
C3082 C 0.07507 0.64168 0.41571 0.0
C3083 C 0.04928 0.65605 0.39995 0.0
C3084 C 0.06779 0.66254 0.39254 0.0
C3085 C 0.08987 0.65846 0.39686 0.0
C3086 C 0.09347 0.64842 0.40834 0.0
C3087 C 0.06472 0.67123 0.37973 0.0
C3088 C 0.05142 0.6586 0.37146 0.0
C3089 C 0.07831 0.68911 0.37511 0.0
C3090 C 0.08993 0.70526 0.38358 0.0
C3091 C 0.11307 0.71038 0.38205 0.0
C3092 C 0.1239 0.72531 0.39018 0.0
C3093 C 0.11179 0.73528 0.39988 0.0
C3094 C 0.08881 0.73036 0.40146 0.0
C3095 C 0.07789 0.71545 0.39336 0.0
H3096 H 0.12022 0.74681 0.40617 0.0
H3097 H 0.00293 0.61179 0.32731 0.0
H3098 H 0.61479 0.86683 0.66497 0.0
H3099 H 0.59438 0.85934 0.64594 0.0
H3100 H 0.5943 0.78772 0.65412 0.0
H3101 H 0.61561 0.79521 0.67326 0.0
H3102 H 0.60485 0.79271 0.63143 0.0
H3103 H 0.5434 0.81739 0.65352 0.0
H3104 H 0.52062 0.83905 0.66853 0.0
H3105 H 0.52816 0.89903 0.64639 0.0
H3106 H 0.55139 0.87791 0.63136 0.0
H3107 H 0.54296 0.85459 0.57485 0.0
H3108 H 0.53881 0.83529 0.59489 0.0
H3109 H 0.61171 0.83315 0.59853 0.0
H3110 H 0.6158 0.85118 0.57852 0.0
H3111 H 0.54757 0.84764 0.61627 0.0
H3112 H 0.63273 0.7941 0.61486 0.0
H3113 H 0.65152 0.76812 0.60025 0.0
H3114 H 0.58831 0.75697 0.58151 0.0
H3115 H 0.569 0.78256 0.59614 0.0
C3116 C 0.61022 0.84949 0.66283 0.0
C3117 C 0.61676 0.83161 0.6706 0.0
C3118 C 0.5983 0.84521 0.65198 0.0
C3119 C 0.59222 0.82299 0.64872 0.0
C3120 C 0.5986 0.80501 0.65651 0.0
C3121 C 0.61083 0.8093 0.66739 0.0
C3122 C 0.58135 0.81902 0.63652 0.0
C3123 C 0.59204 0.80439 0.62811 0.0
C3124 C 0.5634 0.83299 0.63236 0.0
C3125 C 0.54913 0.84596 0.64125 0.0
C3126 C 0.54028 0.83522 0.65185 0.0
C3127 C 0.52729 0.84742 0.66038 0.0
C3128 C 0.52291 0.8704 0.6584 0.0
C3129 C 0.53151 0.88121 0.64789 0.0
C3130 C 0.54455 0.8691 0.63933 0.0
C3131 C 0.55803 0.84961 0.5799 0.0
C3132 C 0.57971 0.85431 0.57513 0.0
C3133 C 0.55566 0.83854 0.59131 0.0
C3134 C 0.57493 0.83221 0.59816 0.0
C3135 C 0.59652 0.83692 0.59329 0.0
C3136 C 0.59888 0.84755 0.58186 0.0
C3137 C 0.5731 0.82332 0.61101 0.0
C3138 C 0.55977 0.83531 0.61957 0.0
C3139 C 0.58776 0.80604 0.61535 0.0
C3140 C 0.59936 0.79028 0.60665 0.0
C3141 C 0.62274 0.78593 0.60773 0.0
C3142 C 0.63351 0.77131 0.59941 0.0
C3143 C 0.62112 0.7609 0.58996 0.0
C3144 C 0.5979 0.76506 0.58883 0.0
C3145 C 0.58704 0.77964 0.59712 0.0
H3146 H 0.6295 0.74961 0.58352 0.0
H3147 H 0.51286 0.87982 0.66503 0.0
H3148 H 0.38351 0.30939 0.82084 0.0
H3149 H 0.39845 0.30479 0.84184 0.0
H3150 H 0.42574 0.37255 0.84054 0.0
H3151 H 0.41107 0.37724 0.81957 0.0
H3152 H 0.45352 0.3428 0.85374 0.0
H3153 H 0.37375 0.36464 0.85154 0.0
H3154 H 0.33404 0.35931 0.84499 0.0
H3155 H 0.33225 0.2947 0.86328 0.0
H3156 H 0.37208 0.29956 0.8698 0.0
H3157 H 0.4434 0.39272 0.91298 0.0
H3158 H 0.44615 0.37939 0.89157 0.0
H3159 H 0.41205 0.3174 0.90182 0.0
H3160 H 0.40868 0.3311 0.92309 0.0
H3161 H 0.39067 0.33598 0.88406 0.0
H3162 H 0.4681 0.31834 0.89038 0.0
H3163 H 0.50759 0.32403 0.89715 0.0
H3164 H 0.51458 0.37964 0.87178 0.0
H3165 H 0.47502 0.37453 0.86497 0.0
C3166 C 0.39306 0.32316 0.82494 0.0
C3167 C 0.39586 0.34379 0.81862 0.0
C3168 C 0.40165 0.32046 0.83691 0.0
C3169 C 0.41297 0.33843 0.84276 0.0
C3170 C 0.41711 0.35846 0.83615 0.0
C3171 C 0.40859 0.36115 0.82419 0.0
C3172 C 0.41767 0.33774 0.8562 0.0
C3173 C 0.43988 0.34127 0.86044 0.0
C3174 C 0.39988 0.33516 0.86487 0.0
C3175 C 0.37593 0.33233 0.86102 0.0
C3176 C 0.36493 0.34923 0.85409 0.0
C3177 C 0.3424 0.34631 0.85039 0.0
C3178 C 0.33066 0.32665 0.85368 0.0
C3179 C 0.34139 0.3099 0.86071 0.0
C3180 C 0.36393 0.31272 0.86441 0.0
C3181 C 0.43701 0.37604 0.91068 0.0
C3182 C 0.42534 0.36314 0.91953 0.0
C3183 C 0.43872 0.36833 0.89847 0.0
C3184 C 0.42928 0.34736 0.89506 0.0
C3185 C 0.41927 0.33371 0.9042 0.0
C3186 C 0.41719 0.34161 0.91633 0.0
C3187 C 0.42662 0.3414 0.88179 0.0
C3188 C 0.40462 0.33681 0.87752 0.0
C3189 C 0.44465 0.34295 0.87317 0.0
C3190 C 0.4685 0.34611 0.87721 0.0
C3191 C 0.47799 0.3319 0.8863 0.0
C3192 C 0.50041 0.335 0.89014 0.0
C3193 C 0.51358 0.3522 0.88491 0.0
C3194 C 0.50436 0.36632 0.87582 0.0
C3195 C 0.48195 0.3633 0.87195 0.0
H3196 H 0.53093 0.35458 0.8879 0.0
H3197 H 0.31322 0.32441 0.85082 0.0
H3198 H 0.91483 0.13871 0.1721 0.0
H3199 H 0.92843 0.14676 0.15128 0.0
H3200 H 0.88977 0.20875 0.15074 0.0
H3201 H 0.8763 0.20102 0.17178 0.0
H3202 H 0.87967 0.17925 0.1316 0.0
H3203 H 0.94511 0.21315 0.14905 0.0
H3204 H 0.97808 0.21656 0.16295 0.0
H3205 H 0.00799 0.15751 0.14645 0.0
H3206 H 0.97503 0.15351 0.13257 0.0
H3207 H 0.90605 0.18381 0.06897 0.0
H3208 H 0.90713 0.1983 0.09013 0.0
H3209 H 0.94775 0.14102 0.10125 0.0
H3210 H 0.94727 0.12681 0.07998 0.0
H3211 H 0.95814 0.17765 0.11502 0.0
H3212 H 0.88989 0.13838 0.1021 0.0
H3213 H 0.85654 0.13207 0.08876 0.0
H3214 H 0.83163 0.19847 0.09763 0.0
H3215 H 0.86504 0.20528 0.1109 0.0
C3216 C 0.90963 0.15434 0.16773 0.0
C3217 C 0.89441 0.16917 0.1736 0.0
C3218 C 0.91754 0.15899 0.15582 0.0
C3219 C 0.91024 0.17844 0.14953 0.0
C3220 C 0.89572 0.19374 0.15551 0.0
C3221 C 0.88801 0.18924 0.16751 0.0
C3222 C 0.91517 0.18084 0.13616 0.0
C3223 C 0.89682 0.17962 0.12796 0.0
C3224 C 0.93757 0.18065 0.13149 0.0
C3225 C 0.95749 0.18296 0.1398 0.0
C3226 C 0.95862 0.20077 0.14845 0.0
C3227 C 0.97734 0.20283 0.15631 0.0
C3228 C 0.9951 0.18724 0.15559 0.0
C3229 C 0.99421 0.16958 0.14699 0.0
C3230 C 0.97553 0.16743 0.13911 0.0
C3231 C 0.91554 0.17452 0.07586 0.0
C3232 C 0.92603 0.15385 0.07293 0.0
C3233 C 0.91625 0.18289 0.08794 0.0
C3234 C 0.92698 0.1704 0.09732 0.0
C3235 C 0.93926 0.15086 0.09417 0.0
C3236 C 0.93889 0.1427 0.08202 0.0
C3237 C 0.92263 0.17562 0.11053 0.0
C3238 C 0.94102 0.17806 0.11868 0.0
C3239 C 0.90024 0.17657 0.11525 0.0
C3240 C 0.88008 0.17245 0.10735 0.0
C3241 C 0.87737 0.15168 0.10113 0.0
C3242 C 0.85846 0.14801 0.09359 0.0
C3243 C 0.84202 0.16489 0.09231 0.0
C3244 C 0.84442 0.18544 0.09861 0.0
C3245 C 0.86333 0.18922 0.10613 0.0
H3246 H 0.82738 0.16202 0.08647 0.0
H3247 H 0.00958 0.18887 0.16169 0.0
H3248 H 0.87773 0.68446 0.82932 0.0
H3249 H 0.89395 0.68667 0.85003 0.0
H3250 H 0.95025 0.64513 0.83825 0.0
H3251 H 0.93343 0.64211 0.81765 0.0
H3252 H 0.93307 0.62709 0.85697 0.0
H3253 H 0.95718 0.70164 0.84958 0.0
H3254 H 0.95585 0.74124 0.84237 0.0
H3255 H 0.90227 0.75553 0.86815 0.0
H3256 H 0.90301 0.71594 0.87539 0.0
H3257 H 0.95385 0.62107 0.92142 0.0
H3258 H 0.96241 0.63502 0.90057 0.0
H3259 H 0.89562 0.66439 0.89822 0.0
H3260 H 0.8868 0.65031 0.91887 0.0
H3261 H 0.93089 0.69116 0.88667 0.0
H3262 H 0.90171 0.61286 0.88838 0.0
H3263 H 0.90389 0.57313 0.8954 0.0
H3264 H 0.97048 0.56714 0.87965 0.0
H3265 H 0.96877 0.60696 0.87268 0.0
C3266 C 0.89384 0.67626 0.83108 0.0
C3267 C 0.90408 0.6627 0.82199 0.0
C3268 C 0.90327 0.67771 0.84291 0.0
C3269 C 0.92343 0.66613 0.84574 0.0
C3270 C 0.93461 0.65409 0.83632 0.0
C3271 C 0.92492 0.65224 0.82457 0.0
C3272 C 0.93048 0.66343 0.85887 0.0
C3273 C 0.93337 0.64128 0.86335 0.0
C3274 C 0.93072 0.68181 0.86731 0.0
C3275 C 0.93012 0.70573 0.86301 0.0
C3276 C 0.945 0.71317 0.85366 0.0
C3277 C 0.94436 0.73564 0.84957 0.0
C3278 C 0.92898 0.75089 0.85479 0.0
C3279 C 0.9142 0.7437 0.86412 0.0
C3280 C 0.91476 0.72125 0.86824 0.0
C3281 C 0.94112 0.63085 0.91655 0.0
C3282 C 0.91955 0.63439 0.92176 0.0
C3283 C 0.94611 0.6389 0.90469 0.0
C3284 C 0.92962 0.65068 0.8979 0.0
C3285 C 0.90863 0.65549 0.90338 0.0
C3286 C 0.90356 0.64729 0.91517 0.0
C3287 C 0.93262 0.65499 0.88453 0.0
C3288 C 0.9315 0.67729 0.88009 0.0
C3289 C 0.93431 0.63684 0.87605 0.0
C3290 C 0.93524 0.61291 0.88017 0.0
C3291 C 0.91687 0.6031 0.88651 0.0
C3292 C 0.91801 0.58057 0.89046 0.0
C3293 C 0.93734 0.56764 0.88801 0.0
C3294 C 0.95555 0.57719 0.88157 0.0
C3295 C 0.9545 0.59973 0.87762 0.0
H3296 H 0.93819 0.5502 0.89108 0.0
H3297 H 0.92851 0.76827 0.85161 0.0
H3298 H 0.09187 0.18063 0.56558 0.0
H3299 H 0.08807 0.19784 0.58608 0.0
H3300 H 0.05475 0.13744 0.59938 0.0
H3301 H 0.05792 0.1205 0.57875 0.0
H3302 H 0.03981 0.17455 0.61186 0.0
H3303 H 0.1126 0.14183 0.6 0.0
H3304 H 0.1463 0.13848 0.58658 0.0
H3305 H 0.16243 0.20841 0.59313 0.0
H3306 H 0.12861 0.21223 0.60646 0.0
H3307 H 0.08674 0.14128 0.66853 0.0
H3308 H 0.07131 0.14898 0.64807 0.0
H3309 H 0.10615 0.21321 0.64725 0.0
H3310 H 0.12155 0.20574 0.66792 0.0
H3311 H 0.11769 0.18561 0.62816 0.0
H3312 H 0.04961 0.21372 0.64518 0.0
H3313 H 0.01642 0.21512 0.65903 0.0
H3314 H 0.99203 0.15247 0.64385 0.0
H3315 H 0.02513 0.1506 0.62993 0.0
C3316 C 0.08341 0.17121 0.57283 0.0
C3317 C 0.07585 0.149 0.57077 0.0
C3318 C 0.08107 0.18112 0.5845 0.0
C3319 C 0.07171 0.16866 0.59434 0.0
C3320 C 0.06214 0.14731 0.59194 0.0
C3321 C 0.06407 0.13759 0.58018 0.0
C3322 C 0.07534 0.17591 0.60733 0.0
C3323 C 0.05679 0.17708 0.61546 0.0
C3324 C 0.09749 0.17975 0.61194 0.0
C3325 C 0.11797 0.17739 0.60408 0.0
C3326 C 0.12328 0.15651 0.59852 0.0
C3327 C 0.14239 0.15453 0.59093 0.0
C3328 C 0.15646 0.17324 0.58897 0.0
C3329 C 0.15148 0.19395 0.59463 0.0
C3330 C 0.13235 0.19604 0.6022 0.0
C3331 C 0.09065 0.15734 0.6642 0.0
C3332 C 0.10556 0.1728 0.66981 0.0
C3333 C 0.08166 0.16179 0.6525 0.0
C3334 C 0.08748 0.18173 0.64618 0.0
C3335 C 0.10137 0.19778 0.65203 0.0
C3336 C 0.11023 0.19342 0.6638 0.0
C3337 C 0.08223 0.18365 0.63282 0.0
C3338 C 0.10057 0.18398 0.62457 0.0
C3339 C 0.05996 0.18099 0.62819 0.0
C3340 C 0.03993 0.18199 0.63652 0.0
C3341 C 0.03725 0.20015 0.64484 0.0
C3342 C 0.01843 0.20105 0.6527 0.0
C3343 C 0.00217 0.18386 0.65235 0.0
C3344 C 0.00464 0.16578 0.6441 0.0
C3345 C 0.02339 0.16484 0.63619 0.0
H3346 H 0.98763 0.18456 0.65846 0.0
H3347 H 0.17124 0.17168 0.58309 0.0
H3348 H 0.56461 0.38556 0.41483 0.0
H3349 H 0.56188 0.36939 0.39408 0.0
H3350 H 0.59878 0.3103 0.40636 0.0
H3351 H 0.60223 0.32694 0.42699 0.0
H3352 H 0.61841 0.3261 0.38751 0.0
H3353 H 0.54196 0.30769 0.3954 0.0
H3354 H 0.50262 0.31279 0.40257 0.0
H3355 H 0.49273 0.36563 0.37576 0.0
H3356 H 0.53211 0.3611 0.36854 0.0
H3357 H 0.62081 0.29665 0.32371 0.0
H3358 H 0.60848 0.29259 0.34528 0.0
H3359 H 0.58211 0.36072 0.34466 0.0
H3360 H 0.59455 0.36506 0.32329 0.0
H3361 H 0.55424 0.32974 0.35789 0.0
H3362 H 0.63395 0.35283 0.35457 0.0
H3363 H 0.6734 0.34735 0.34759 0.0
H3364 H 0.67598 0.28329 0.36642 0.0
H3365 H 0.63641 0.2883 0.37338 0.0
C3366 C 0.57167 0.3689 0.41315 0.0
C3367 C 0.58407 0.35769 0.42238 0.0
C3368 C 0.56995 0.35954 0.4013 0.0
C3369 C 0.58008 0.33854 0.39862 0.0
C3370 C 0.59099 0.32659 0.40816 0.0
C3371 C 0.5931 0.33617 0.41993 0.0
C3372 C 0.58229 0.33089 0.38558 0.0
C3373 C 0.60417 0.3262 0.38114 0.0
C3374 C 0.56385 0.33127 0.37718 0.0
C3375 C 0.54008 0.3341 0.38146 0.0
C3376 C 0.53146 0.32051 0.39108 0.0
C3377 C 0.50913 0.32328 0.39515 0.0
C3378 C 0.49519 0.33954 0.38963 0.0
C3379 C 0.50354 0.35303 0.38002 0.0
C3380 C 0.52586 0.35034 0.37592 0.0
C3381 C 0.61213 0.31066 0.32813 0.0
C3382 C 0.60874 0.33123 0.3218 0.0
C3383 C 0.60501 0.30825 0.34041 0.0
C3384 C 0.59441 0.32637 0.34652 0.0
C3385 C 0.59007 0.34648 0.34005 0.0
C3386 C 0.59729 0.34896 0.32783 0.0
C3387 C 0.59027 0.32564 0.36 0.0
C3388 C 0.56815 0.32887 0.36444 0.0
C3389 C 0.6084 0.32372 0.36847 0.0
C3390 C 0.63218 0.3208 0.36435 0.0
C3391 C 0.64289 0.3375 0.35714 0.0
C3392 C 0.66527 0.3345 0.3532 0.0
C3393 C 0.67717 0.31495 0.35653 0.0
C3394 C 0.66673 0.2984 0.36383 0.0
C3395 C 0.64433 0.30131 0.36777 0.0
H3396 H 0.69449 0.31265 0.35347 0.0
H3397 H 0.47791 0.34166 0.39279 0.0
H3398 H 0.4375 0.88062 0.07615 0.0
H3399 H 0.44033 0.86648 0.09733 0.0
H3400 H 0.40417 0.80588 0.08674 0.0
H3401 H 0.40065 0.82043 0.06567 0.0
H3402 H 0.38443 0.82313 0.1052 0.0
H3403 H 0.46093 0.80481 0.09767 0.0
H3404 H 0.50019 0.80952 0.09028 0.0
H3405 H 0.50986 0.86491 0.11551 0.0
H3406 H 0.47055 0.86079 0.12293 0.0
H3407 H 0.38187 0.80117 0.16979 0.0
H3408 H 0.39472 0.79441 0.14852 0.0
H3409 H 0.42077 0.8626 0.14668 0.0
H3410 H 0.40787 0.86958 0.16775 0.0
H3411 H 0.44874 0.83044 0.13453 0.0
H3412 H 0.36871 0.85308 0.13716 0.0
H3413 H 0.32935 0.8479 0.14437 0.0
H3414 H 0.32754 0.78178 0.12779 0.0
H3415 H 0.36702 0.78651 0.12062 0.0
C3416 C 0.43059 0.86407 0.0783 0.0
C3417 C 0.41841 0.85184 0.06937 0.0
C3418 C 0.43238 0.85587 0.0904 0.0
C3419 C 0.42253 0.83501 0.09366 0.0
C3420 C 0.41177 0.82207 0.08447 0.0
C3421 C 0.40962 0.83047 0.07245 0.0
C3422 C 0.4205 0.82854 0.1069 0.0
C3423 C 0.3987 0.82402 0.11152 0.0
C3424 C 0.43899 0.82991 0.11524 0.0
C3425 C 0.4627 0.83253 0.11082 0.0
C3426 C 0.47136 0.81811 0.10158 0.0
C3427 C 0.49364 0.82065 0.0974 0.0
C3428 C 0.5075 0.83751 0.10241 0.0
C3429 C 0.49911 0.85185 0.11164 0.0
C3430 C 0.47683 0.84938 0.11585 0.0
C3431 C 0.39065 0.81461 0.16492 0.0
C3432 C 0.39372 0.83597 0.17043 0.0
C3433 C 0.39805 0.81067 0.1528 0.0
C3434 C 0.40863 0.82804 0.14606 0.0
C3435 C 0.41281 0.84893 0.15179 0.0
C3436 C 0.40531 0.85292 0.16383 0.0
C3437 C 0.41274 0.82577 0.13262 0.0
C3438 C 0.43479 0.82875 0.12804 0.0
C3439 C 0.39458 0.82277 0.12426 0.0
C3440 C 0.37085 0.82002 0.12851 0.0
C3441 C 0.35995 0.83738 0.13514 0.0
C3442 C 0.33763 0.83454 0.13921 0.0
C3443 C 0.32598 0.81449 0.13658 0.0
C3444 C 0.33661 0.79728 0.12985 0.0
C3445 C 0.35894 0.80003 0.12578 0.0
H3446 H 0.30869 0.81232 0.13973 0.0
H3447 H 0.52475 0.83946 0.09916 0.0
H3448 H 0.88555 0.2914 0.67275 0.0
H3449 H 0.90684 0.2855 0.65343 0.0
H3450 H 0.90516 0.35755 0.64651 0.0
H3451 H 0.88486 0.36348 0.66575 0.0
H3452 H 0.89671 0.2914 0.63088 0.0
H3453 H 0.9472 0.37821 0.63224 0.0
H3454 H 0.96956 0.39948 0.64759 0.0
H3455 H 0.97934 0.3388 0.66887 0.0
H3456 H 0.9574 0.31701 0.65353 0.0
H3457 H 0.88326 0.35401 0.58002 0.0
H3458 H 0.88855 0.33433 0.59943 0.0
H3459 H 0.96121 0.33783 0.59484 0.0
H3460 H 0.95586 0.35863 0.5753 0.0
H3461 H 0.95251 0.34875 0.61675 0.0
H3462 H 0.93269 0.28452 0.59531 0.0
H3463 H 0.91387 0.25959 0.58016 0.0
H3464 H 0.85057 0.26783 0.59926 0.0
H3465 H 0.86884 0.29311 0.61441 0.0
C3466 C 0.88994 0.30592 0.6671 0.0
C3467 C 0.88369 0.32792 0.67075 0.0
C3468 C 0.90217 0.30255 0.65612 0.0
C3469 C 0.90821 0.32113 0.64867 0.0
C3470 C 0.90159 0.343 0.6523 0.0
C3471 C 0.8897 0.34637 0.66326 0.0
C3472 C 0.91936 0.31812 0.63646 0.0
C3473 C 0.90922 0.3036 0.62779 0.0
C3474 C 0.93694 0.33283 0.63257 0.0
C3475 C 0.95064 0.34591 0.64167 0.0
C3476 C 0.95434 0.36929 0.64009 0.0
C3477 C 0.96689 0.38148 0.64883 0.0
C3478 C 0.97587 0.3705 0.65919 0.0
C3479 C 0.97236 0.34729 0.66084 0.0
C3480 C 0.95985 0.33502 0.65213 0.0
C3481 C 0.90041 0.35032 0.58299 0.0
C3482 C 0.91915 0.35782 0.57613 0.0
C3483 C 0.90344 0.33875 0.59408 0.0
C3484 C 0.9253 0.33391 0.59849 0.0
C3485 C 0.94417 0.34111 0.59156 0.0
C3486 C 0.94111 0.35305 0.58045 0.0
C3487 C 0.92773 0.32402 0.61107 0.0
C3488 C 0.94067 0.33588 0.61984 0.0
C3489 C 0.91353 0.30609 0.61508 0.0
C3490 C 0.90224 0.2907 0.60606 0.0
C3491 C 0.91474 0.28109 0.59627 0.0
C3492 C 0.90415 0.2669 0.58767 0.0
C3493 C 0.88105 0.2621 0.58876 0.0
C3494 C 0.86848 0.27149 0.59846 0.0
C3495 C 0.87898 0.28572 0.60708 0.0
H3496 H 0.87288 0.25112 0.58209 0.0
H3497 H 0.98555 0.37998 0.66595 0.0
H3498 H 0.37062 0.20428 0.32678 0.0
H3499 H 0.38659 0.21355 0.34725 0.0
H3500 H 0.37989 0.1436 0.35823 0.0
H3501 H 0.36447 0.13419 0.3379 0.0
H3502 H 0.36216 0.17764 0.37547 0.0
H3503 H 0.4282 0.15759 0.35018 0.0
H3504 H 0.45289 0.16346 0.33202 0.0
H3505 H 0.46652 0.23154 0.3439 0.0
H3506 H 0.4416 0.22614 0.36206 0.0
H3507 H 0.44488 0.13587 0.41786 0.0
H3508 H 0.44193 0.15189 0.39703 0.0
H3509 H 0.40518 0.20909 0.41168 0.0
H3510 H 0.40779 0.19292 0.43248 0.0
H3511 H 0.44449 0.19157 0.38146 0.0
H3512 H 0.35536 0.20768 0.3982 0.0
H3513 H 0.3309 0.19923 0.41621 0.0
H3514 H 0.36379 0.13485 0.42077 0.0
H3515 H 0.38817 0.14283 0.40269 0.0
C3516 C 0.37246 0.19098 0.33362 0.0
C3517 C 0.36634 0.16853 0.33082 0.0
C3518 C 0.38162 0.19627 0.34524 0.0
C3519 C 0.38434 0.17922 0.35416 0.0
C3520 C 0.37784 0.15695 0.35142 0.0
C3521 C 0.36911 0.1516 0.33982 0.0
C3522 C 0.39407 0.18404 0.36645 0.0
C3523 C 0.38004 0.18125 0.37679 0.0
C3524 C 0.41742 0.18853 0.36809 0.0
C3525 C 0.43284 0.19156 0.35738 0.0
C3526 C 0.43633 0.17386 0.34887 0.0
C3527 C 0.45038 0.17709 0.33858 0.0
C3528 C 0.46119 0.1979 0.33677 0.0
C3529 C 0.45809 0.21546 0.3453 0.0
C3530 C 0.44402 0.21231 0.35559 0.0
C3531 C 0.43708 0.15235 0.4167 0.0
C3532 C 0.42571 0.16275 0.4266 0.0
C3533 C 0.43554 0.16159 0.40481 0.0
C3534 C 0.42279 0.18134 0.40281 0.0
C3535 C 0.41478 0.19363 0.41304 0.0
C3536 C 0.416 0.18423 0.42488 0.0
C3537 C 0.41254 0.18498 0.39047 0.0
C3538 C 0.42643 0.18906 0.38014 0.0
C3539 C 0.389 0.1814 0.38875 0.0
C3540 C 0.37366 0.17594 0.3992 0.0
C3541 C 0.35722 0.19167 0.40301 0.0
C3542 C 0.34341 0.18697 0.41323 0.0
C3543 C 0.34584 0.16655 0.41965 0.0
C3544 C 0.36194 0.15068 0.4158 0.0
C3545 C 0.37573 0.15526 0.40556 0.0
H3546 H 0.33523 0.163 0.42761 0.0
H3547 H 0.47202 0.20039 0.32879 0.0
H3548 H 0.62713 0.68874 0.16597 0.0
H3549 H 0.6089 0.69446 0.14597 0.0
H3550 H 0.54894 0.66023 0.1593 0.0
H3551 H 0.56757 0.65382 0.17919 0.0
H3552 H 0.562 0.6406 0.13991 0.0
H3553 H 0.54761 0.71684 0.14842 0.0
H3554 H 0.55405 0.75566 0.15602 0.0
H3555 H 0.60685 0.765 0.12912 0.0
H3556 H 0.60099 0.72613 0.12143 0.0
H3557 H 0.54308 0.63517 0.07559 0.0
H3558 H 0.53415 0.65137 0.09592 0.0
H3559 H 0.60301 0.67507 0.09932 0.0
H3560 H 0.61213 0.65884 0.07923 0.0
H3561 H 0.57054 0.70468 0.11053 0.0
H3562 H 0.5913 0.62332 0.10898 0.0
H3563 H 0.58478 0.58416 0.10179 0.0
H3564 H 0.51715 0.58603 0.1165 0.0
H3565 H 0.52325 0.62532 0.12365 0.0
C3566 C 0.60986 0.68293 0.16472 0.0
C3567 C 0.599 0.67024 0.17397 0.0
C3568 C 0.5993 0.68642 0.15331 0.0
C3569 C 0.57747 0.67777 0.15107 0.0
C3570 C 0.56585 0.66688 0.16075 0.0
C3571 C 0.57659 0.66303 0.17208 0.0
C3572 C 0.56884 0.67641 0.13816 0.0
C3573 C 0.56305 0.6549 0.13361 0.0
C3574 C 0.57024 0.69493 0.12984 0.0
C3575 C 0.57385 0.71847 0.13434 0.0
C3576 C 0.56069 0.7271 0.14415 0.0
C3577 C 0.56423 0.74914 0.14847 0.0
C3578 C 0.58086 0.76278 0.14306 0.0
C3579 C 0.59395 0.75442 0.13329 0.0
C3580 C 0.59048 0.73239 0.12892 0.0
C3581 C 0.55619 0.64424 0.08056 0.0
C3582 C 0.57842 0.6454 0.07588 0.0
C3583 C 0.551 0.65362 0.09212 0.0
C3584 C 0.56797 0.66429 0.09912 0.0
C3585 C 0.58964 0.66705 0.09402 0.0
C3586 C 0.59487 0.65759 0.08254 0.0
C3587 C 0.56478 0.66887 0.11248 0.0
C3588 C 0.56846 0.69083 0.11704 0.0
C3589 C 0.56117 0.65088 0.12089 0.0
C3590 C 0.55762 0.62726 0.1167 0.0
C3591 C 0.57501 0.61539 0.11061 0.0
C3592 C 0.5714 0.59319 0.10655 0.0
C3593 C 0.55054 0.58264 0.10865 0.0
C3594 C 0.53328 0.59424 0.11485 0.0
C3595 C 0.53679 0.61647 0.11891 0.0
H3596 H 0.54777 0.56545 0.10551 0.0
H3597 H 0.58359 0.77983 0.14644 0.0
H3598 H 0.12884 0.81202 0.82811 0.0
H3599 H 0.11278 0.80808 0.84883 0.0
H3600 H 0.05614 0.85009 0.83816 0.0
H3601 H 0.0726 0.85468 0.81759 0.0
H3602 H 0.07408 0.8664 0.85759 0.0
H3603 H 0.04994 0.79289 0.84669 0.0
H3604 H 0.05266 0.75451 0.83783 0.0
H3605 H 0.10366 0.73707 0.86456 0.0
H3606 H 0.10161 0.7755 0.87343 0.0
H3607 H 0.04457 0.86733 0.92036 0.0
H3608 H 0.03891 0.8549 0.89896 0.0
H3609 H 0.10404 0.82175 0.89949 0.0
H3610 H 0.10982 0.83396 0.92083 0.0
H3611 H 0.07181 0.79865 0.88479 0.0
H3612 H 0.10179 0.87532 0.89094 0.0
H3613 H 0.09988 0.91414 0.89936 0.0
H3614 H 0.03643 0.92487 0.88075 0.0
H3615 H 0.03786 0.88598 0.87236 0.0
C3616 C 0.11273 0.82003 0.83012 0.0
C3617 C 0.10221 0.83407 0.82133 0.0
C3618 C 0.10344 0.81761 0.84194 0.0
C3619 C 0.08317 0.82874 0.84507 0.0
C3620 C 0.07186 0.84146 0.83599 0.0
C3621 C 0.08136 0.8442 0.82424 0.0
C3622 C 0.07576 0.82989 0.85819 0.0
C3623 C 0.07287 0.85146 0.86342 0.0
C3624 C 0.07454 0.81048 0.86589 0.0
C3625 C 0.07568 0.78718 0.8607 0.0
C3626 C 0.06185 0.78094 0.85064 0.0
C3627 C 0.06326 0.75916 0.84561 0.0
C3628 C 0.07833 0.74337 0.85062 0.0
C3629 C 0.09199 0.74932 0.86069 0.0
C3630 C 0.09068 0.7711 0.86573 0.0
C3631 C 0.05746 0.85695 0.91602 0.0
C3632 C 0.07781 0.85193 0.92221 0.0
C3633 C 0.05414 0.84978 0.90382 0.0
C3634 C 0.07117 0.83763 0.89763 0.0
C3635 C 0.09066 0.83104 0.90413 0.0
C3636 C 0.094 0.83818 0.91631 0.0
C3637 C 0.07064 0.83507 0.88401 0.0
C3638 C 0.07221 0.81336 0.87877 0.0
C3639 C 0.07054 0.8543 0.8762 0.0
C3640 C 0.06979 0.87771 0.88116 0.0
C3641 C 0.08737 0.88592 0.88872 0.0
C3642 C 0.08638 0.90793 0.89348 0.0
C3643 C 0.06801 0.92194 0.89062 0.0
C3644 C 0.05062 0.91399 0.88298 0.0
C3645 C 0.05151 0.89197 0.87822 0.0
H3646 H 0.06727 0.93897 0.89431 0.0
H3647 H 0.07941 0.72651 0.84672 0.0
loop_
_geom_bond_atom_site_label_1
_geom_bond_atom_site_label_2
_geom_bond_distance
_geom_bond_site_symmetry_2
_ccdc_geom_bond_type
Mg0 O1 2.028 . S
Mg0 O7 1.986 . S
Mg0 O9 2.114 . S
Mg0 O10 2.251 . S
Mg0 O13 2.010 . S
O1 Mg0 2.028 . S
O1 C4 1.250 . S
O2 Mg3 2.028 . S
O2 C4 1.248 . S
Mg3 O2 2.028 . S
Mg3 O8 2.032 . S
Mg3 O10 2.079 . S
C4 O1 1.250 . S
C4 O2 1.248 . S
C5 O6 1.264 . S
C5 O13 1.249 . S
O6 C5 1.264 . S
O7 Mg0 1.986 . S
O7 C11 1.246 . S
O8 Mg3 2.032 . S
O8 C11 1.259 . S
O9 Mg0 2.114 . S
O9 C12 1.252 . S
O10 Mg0 2.251 . S
O10 Mg3 2.079 . S
O10 C12 1.273 . S
C11 O7 1.246 . S
C11 O8 1.259 . S
C12 O9 1.252 . S
C12 O10 1.273 . S
O13 Mg0 2.010 . S
O13 C5 1.249 . S
Mg14 O15 2.028 . S
Mg14 O21 1.986 . S
Mg14 O23 2.114 . S
Mg14 O24 2.251 . S
Mg14 O27 2.010 . S
O15 Mg14 2.028 . S
O15 C18 1.250 . S
O16 Mg17 2.028 . S
O16 C18 1.248 . S
Mg17 O16 2.028 . S
Mg17 O22 2.032 . S
Mg17 O24 2.079 . S
C18 O15 1.250 . S
C18 O16 1.248 . S
C19 O20 1.264 . S
C19 O27 1.249 . S
O20 C19 1.264 . S
O21 Mg14 1.986 . S
O21 C25 1.246 . S
O22 Mg17 2.032 . S
O22 C25 1.259 . S
O23 Mg14 2.114 . S
O23 C26 1.252 . S
O24 Mg14 2.251 . S
O24 Mg17 2.079 . S
O24 C26 1.273 . S
C25 O21 1.246 . S
C25 O22 1.259 . S
C26 O23 1.252 . S
C26 O24 1.273 . S
O27 Mg14 2.010 . S
O27 C19 1.249 . S
Mg28 O29 2.028 . S
Mg28 O35 1.986 . S
Mg28 O37 2.114 . S
Mg28 O38 2.251 . S
Mg28 O41 2.010 . S
O29 Mg28 2.028 . S
O29 C32 1.250 . S
O30 Mg31 2.028 . S
O30 C32 1.248 . S
Mg31 O30 2.028 . S
Mg31 O36 2.032 . S
Mg31 O38 2.079 . S
C32 O29 1.250 . S
C32 O30 1.248 . S
C33 O34 1.264 . S
C33 O41 1.249 . S
O34 C33 1.264 . S
O35 Mg28 1.986 . S
O35 C39 1.246 . S
O36 Mg31 2.032 . S
O36 C39 1.259 . S
O37 Mg28 2.114 . S
O37 C40 1.252 . S
O38 Mg28 2.251 . S
O38 Mg31 2.079 . S
O38 C40 1.273 . S
C39 O35 1.246 . S
C39 O36 1.259 . S
C40 O37 1.252 . S
C40 O38 1.273 . S
O41 Mg28 2.010 . S
O41 C33 1.249 . S
Mg42 O43 2.028 . S
Mg42 O49 1.986 . S
Mg42 O51 2.114 . S
Mg42 O52 2.251 . S
Mg42 O55 2.010 . S
O43 Mg42 2.028 . S
O43 C46 1.250 . S
O44 Mg45 2.028 . S
O44 C46 1.248 . S
Mg45 O44 2.028 . S
Mg45 O50 2.032 . S
Mg45 O52 2.079 . S
C46 O43 1.250 . S
C46 O44 1.248 . S
C47 O48 1.264 . S
C47 O55 1.249 . S
O48 C47 1.264 . S
O49 Mg42 1.986 . S
O49 C53 1.246 . S
O50 Mg45 2.032 . S
O50 C53 1.259 . S
O51 Mg42 2.114 . S
O51 C54 1.252 . S
O52 Mg42 2.251 . S
O52 Mg45 2.079 . S
O52 C54 1.273 . S
C53 O49 1.246 . S
C53 O50 1.259 . S
C54 O51 1.252 . S
C54 O52 1.273 . S
O55 Mg42 2.010 . S
O55 C47 1.249 . S
Mg56 O57 2.028 . S
Mg56 O63 1.986 . S
Mg56 O65 2.114 . S
Mg56 O66 2.251 . S
Mg56 O69 2.010 . S
O57 Mg56 2.028 . S
O57 C60 1.250 . S
O58 Mg59 2.028 . S
O58 C60 1.248 . S
Mg59 O58 2.028 . S
Mg59 O64 2.032 . S
Mg59 O66 2.079 . S
C60 O57 1.250 . S
C60 O58 1.248 . S
C61 O62 1.264 . S
C61 O69 1.249 . S
O62 C61 1.264 . S
O63 Mg56 1.986 . S
O63 C67 1.246 . S
O64 Mg59 2.032 . S
O64 C67 1.259 . S
O65 Mg56 2.114 . S
O65 C68 1.252 . S
O66 Mg56 2.251 . S
O66 Mg59 2.079 . S
O66 C68 1.273 . S
C67 O63 1.246 . S
C67 O64 1.259 . S
C68 O65 1.252 . S
C68 O66 1.273 . S
O69 Mg56 2.010 . S
O69 C61 1.249 . S
Mg70 O71 2.028 . S
Mg70 O77 1.986 . S
Mg70 O79 2.114 . S
Mg70 O80 2.251 . S
Mg70 O83 2.010 . S
O71 Mg70 2.028 . S
O71 C74 1.250 . S
O72 Mg73 2.028 . S
O72 C74 1.248 . S
Mg73 O72 2.028 . S
Mg73 O78 2.032 . S
Mg73 O80 2.079 . S
C74 O71 1.250 . S
C74 O72 1.248 . S
C75 O76 1.264 . S
C75 O83 1.249 . S
O76 C75 1.264 . S
O77 Mg70 1.986 . S
O77 C81 1.246 . S
O78 Mg73 2.032 . S
O78 C81 1.259 . S
O79 Mg70 2.114 . S
O79 C82 1.252 . S
O80 Mg70 2.251 . S
O80 Mg73 2.079 . S
O80 C82 1.273 . S
C81 O77 1.246 . S
C81 O78 1.259 . S
C82 O79 1.252 . S
C82 O80 1.273 . S
O83 Mg70 2.010 . S
O83 C75 1.249 . S
Mg84 O85 2.028 . S
Mg84 O91 1.986 . S
Mg84 O93 2.114 . S
Mg84 O94 2.251 . S
Mg84 O97 2.010 . S
O85 Mg84 2.028 . S
O85 C88 1.250 . S
O86 Mg87 2.028 . S
O86 C88 1.248 . S
Mg87 O86 2.028 . S
Mg87 O92 2.032 . S
Mg87 O94 2.079 . S
C88 O85 1.250 . S
C88 O86 1.248 . S
C89 O90 1.264 . S
C89 O97 1.249 . S
O90 C89 1.264 . S
O91 Mg84 1.986 . S
O91 C95 1.246 . S
O92 Mg87 2.032 . S
O92 C95 1.259 . S
O93 Mg84 2.114 . S
O93 C96 1.252 . S
O94 Mg84 2.251 . S
O94 Mg87 2.079 . S
O94 C96 1.273 . S
C95 O91 1.246 . S
C95 O92 1.259 . S
C96 O93 1.252 . S
C96 O94 1.273 . S
O97 Mg84 2.010 . S
O97 C89 1.249 . S
Mg98 O99 2.028 . S
Mg98 O105 1.986 . S
Mg98 O107 2.114 . S
Mg98 O108 2.251 . S
Mg98 O111 2.010 . S
O99 Mg98 2.028 . S
O99 C102 1.250 . S
O100 Mg101 2.028 . S
O100 C102 1.248 . S
Mg101 O100 2.028 . S
Mg101 O106 2.032 . S
Mg101 O108 2.079 . S
C102 O99 1.250 . S
C102 O100 1.248 . S
C103 O104 1.264 . S
C103 O111 1.249 . S
O104 C103 1.264 . S
O105 Mg98 1.986 . S
O105 C109 1.246 . S
O106 Mg101 2.032 . S
O106 C109 1.259 . S
O107 Mg98 2.114 . S
O107 C110 1.252 . S
O108 Mg98 2.251 . S
O108 Mg101 2.079 . S
O108 C110 1.273 . S
C109 O105 1.246 . S
C109 O106 1.259 . S
C110 O107 1.252 . S
C110 O108 1.273 . S
O111 Mg98 2.010 . S
O111 C103 1.249 . S
Mg112 O113 2.028 . S
Mg112 O119 1.986 . S
Mg112 O121 2.114 . S
Mg112 O122 2.251 . S
Mg112 O125 2.010 . S
O113 Mg112 2.028 . S
O113 C116 1.250 . S
O114 Mg115 2.028 . S
O114 C116 1.248 . S
Mg115 O114 2.028 . S
Mg115 O120 2.032 . S
Mg115 O122 2.079 . S
C116 O113 1.250 . S
C116 O114 1.248 . S
C117 O118 1.264 . S
C117 O125 1.249 . S
O118 C117 1.264 . S
O119 Mg112 1.986 . S
O119 C123 1.246 . S
O120 Mg115 2.032 . S
O120 C123 1.259 . S
O121 Mg112 2.114 . S
O121 C124 1.252 . S
O122 Mg112 2.251 . S
O122 Mg115 2.079 . S
O122 C124 1.273 . S
C123 O119 1.246 . S
C123 O120 1.259 . S
C124 O121 1.252 . S
C124 O122 1.273 . S
O125 Mg112 2.010 . S
O125 C117 1.249 . S
Mg126 O127 2.028 . S
Mg126 O133 1.986 . S
Mg126 O135 2.114 . S
Mg126 O136 2.251 . S
Mg126 O139 2.010 . S
O127 Mg126 2.028 . S
O127 C130 1.250 . S
O128 Mg129 2.028 . S
O128 C130 1.248 . S
Mg129 O128 2.028 . S
Mg129 O134 2.032 . S
Mg129 O136 2.079 . S
C130 O127 1.250 . S
C130 O128 1.248 . S
C131 O132 1.264 . S
C131 O139 1.249 . S
O132 C131 1.264 . S
O133 Mg126 1.986 . S
O133 C137 1.246 . S
O134 Mg129 2.032 . S
O134 C137 1.259 . S
O135 Mg126 2.114 . S
O135 C138 1.252 . S
O136 Mg126 2.251 . S
O136 Mg129 2.079 . S
O136 C138 1.273 . S
C137 O133 1.246 . S
C137 O134 1.259 . S
C138 O135 1.252 . S
C138 O136 1.273 . S
O139 Mg126 2.010 . S
O139 C131 1.249 . S
Mg140 O141 2.028 . S
Mg140 O147 1.986 . S
Mg140 O149 2.114 . S
Mg140 O150 2.251 . S
Mg140 O153 2.010 . S
O141 Mg140 2.028 . S
O141 C144 1.250 . S
O142 Mg143 2.028 . S
O142 C144 1.248 . S
Mg143 O142 2.028 . S
Mg143 O148 2.032 . S
Mg143 O150 2.079 . S
C144 O141 1.250 . S
C144 O142 1.248 . S
C145 O146 1.264 . S
C145 O153 1.249 . S
O146 C145 1.264 . S
O147 Mg140 1.986 . S
O147 C151 1.246 . S
O148 Mg143 2.032 . S
O148 C151 1.259 . S
O149 Mg140 2.114 . S
O149 C152 1.252 . S
O150 Mg140 2.251 . S
O150 Mg143 2.079 . S
O150 C152 1.273 . S
C151 O147 1.246 . S
C151 O148 1.259 . S
C152 O149 1.252 . S
C152 O150 1.273 . S
O153 Mg140 2.010 . S
O153 C145 1.249 . S
Mg154 O155 2.028 . S
Mg154 O161 1.986 . S
Mg154 O163 2.114 . S
Mg154 O164 2.251 . S
Mg154 O167 2.010 . S
O155 Mg154 2.028 . S
O155 C158 1.250 . S
O156 Mg157 2.028 . S
O156 C158 1.248 . S
Mg157 O156 2.028 . S
Mg157 O162 2.032 . S
Mg157 O164 2.079 . S
C158 O155 1.250 . S
C158 O156 1.248 . S
C159 O160 1.264 . S
C159 O167 1.249 . S
O160 C159 1.264 . S
O161 Mg154 1.986 . S
O161 C165 1.246 . S
O162 Mg157 2.032 . S
O162 C165 1.259 . S
O163 Mg154 2.114 . S
O163 C166 1.252 . S
O164 Mg154 2.251 . S
O164 Mg157 2.079 . S
O164 C166 1.273 . S
C165 O161 1.246 . S
C165 O162 1.259 . S
C166 O163 1.252 . S
C166 O164 1.273 . S
O167 Mg154 2.010 . S
O167 C159 1.249 . S
Mg168 O169 2.028 . S
Mg168 O175 1.986 . S
Mg168 O177 2.114 . S
Mg168 O178 2.251 . S
Mg168 O181 2.010 . S
O169 Mg168 2.028 . S
O169 C172 1.250 . S
O170 Mg171 2.028 . S
O170 C172 1.248 . S
Mg171 O170 2.028 . S
Mg171 O176 2.032 . S
Mg171 O178 2.079 . S
C172 O169 1.250 . S
C172 O170 1.248 . S
C173 O174 1.264 . S
C173 O181 1.249 . S
O174 C173 1.264 . S
O175 Mg168 1.986 . S
O175 C179 1.246 . S
O176 Mg171 2.032 . S
O176 C179 1.259 . S
O177 Mg168 2.114 . S
O177 C180 1.252 . S
O178 Mg168 2.251 . S
O178 Mg171 2.079 . S
O178 C180 1.273 . S
C179 O175 1.246 . S
C179 O176 1.259 . S
C180 O177 1.252 . S
C180 O178 1.273 . S
O181 Mg168 2.010 . S
O181 C173 1.249 . S
Mg182 O183 2.028 . S
Mg182 O189 1.986 . S
Mg182 O191 2.114 . S
Mg182 O192 2.251 . S
Mg182 O195 2.010 . S
O183 Mg182 2.028 . S
O183 C186 1.250 . S
O184 Mg185 2.028 . S
O184 C186 1.248 . S
Mg185 O184 2.028 . S
Mg185 O190 2.032 . S
Mg185 O192 2.079 . S
C186 O183 1.250 . S
C186 O184 1.248 . S
C187 O188 1.264 . S
C187 O195 1.249 . S
O188 C187 1.264 . S
O189 Mg182 1.986 . S
O189 C193 1.246 . S
O190 Mg185 2.032 . S
O190 C193 1.259 . S
O191 Mg182 2.114 . S
O191 C194 1.252 . S
O192 Mg182 2.251 . S
O192 Mg185 2.079 . S
O192 C194 1.273 . S
C193 O189 1.246 . S
C193 O190 1.259 . S
C194 O191 1.252 . S
C194 O192 1.273 . S
O195 Mg182 2.010 . S
O195 C187 1.249 . S
Mg196 O197 2.028 . S
Mg196 O203 1.986 . S
Mg196 O205 2.114 . S
Mg196 O206 2.251 . S
Mg196 O209 2.010 . S
O197 Mg196 2.028 . S
O197 C200 1.250 . S
O198 Mg199 2.028 . S
O198 C200 1.248 . S
Mg199 O198 2.028 . S
Mg199 O204 2.032 . S
Mg199 O206 2.079 . S
C200 O197 1.250 . S
C200 O198 1.248 . S
C201 O202 1.264 . S
C201 O209 1.249 . S
O202 C201 1.264 . S
O203 Mg196 1.986 . S
O203 C207 1.246 . S
O204 Mg199 2.032 . S
O204 C207 1.259 . S
O205 Mg196 2.114 . S
O205 C208 1.252 . S
O206 Mg196 2.251 . S
O206 Mg199 2.079 . S
O206 C208 1.273 . S
C207 O203 1.246 . S
C207 O204 1.259 . S
C208 O205 1.252 . S
C208 O206 1.273 . S
O209 Mg196 2.010 . S
O209 C201 1.249 . S
Mg210 O211 2.028 . S
Mg210 O217 1.986 . S
Mg210 O219 2.114 . S
Mg210 O220 2.251 . S
Mg210 O223 2.010 . S
O211 Mg210 2.028 . S
O211 C214 1.250 . S
O212 Mg213 2.028 . S
O212 C214 1.248 . S
Mg213 O212 2.028 . S
Mg213 O218 2.032 . S
Mg213 O220 2.079 . S
C214 O211 1.250 . S
C214 O212 1.248 . S
C215 O216 1.264 . S
C215 O223 1.249 . S
O216 C215 1.264 . S
O217 Mg210 1.986 . S
O217 C221 1.246 . S
O218 Mg213 2.032 . S
O218 C221 1.259 . S
O219 Mg210 2.114 . S
O219 C222 1.252 . S
O220 Mg210 2.251 . S
O220 Mg213 2.079 . S
O220 C222 1.273 . S
C221 O217 1.246 . S
C221 O218 1.259 . S
C222 O219 1.252 . S
C222 O220 1.273 . S
O223 Mg210 2.010 . S
O223 C215 1.249 . S
Mg224 O225 2.028 . S
Mg224 O231 1.986 . S
Mg224 O233 2.114 . S
Mg224 O234 2.251 . S
Mg224 O237 2.010 . S
O225 Mg224 2.028 . S
O225 C228 1.250 . S
O226 Mg227 2.028 . S
O226 C228 1.248 . S
Mg227 O226 2.028 . S
Mg227 O232 2.032 . S
Mg227 O234 2.079 . S
C228 O225 1.250 . S
C228 O226 1.248 . S
C229 O230 1.264 . S
C229 O237 1.249 . S
O230 C229 1.264 . S
O231 Mg224 1.986 . S
O231 C235 1.246 . S
O232 Mg227 2.032 . S
O232 C235 1.259 . S
O233 Mg224 2.114 . S
O233 C236 1.252 . S
O234 Mg224 2.251 . S
O234 Mg227 2.079 . S
O234 C236 1.273 . S
C235 O231 1.246 . S
C235 O232 1.259 . S
C236 O233 1.252 . S
C236 O234 1.273 . S
O237 Mg224 2.010 . S
O237 C229 1.249 . S
Mg238 O239 2.028 . S
Mg238 O245 1.986 . S
Mg238 O247 2.114 . S
Mg238 O248 2.251 . S
Mg238 O251 2.010 . S
O239 Mg238 2.028 . S
O239 C242 1.250 . S
O240 Mg241 2.028 . S
O240 C242 1.248 . S
Mg241 O240 2.028 . S
Mg241 O246 2.032 . S
Mg241 O248 2.079 . S
C242 O239 1.250 . S
C242 O240 1.248 . S
C243 O244 1.264 . S
C243 O251 1.249 . S
O244 C243 1.264 . S
O245 Mg238 1.986 . S
O245 C249 1.246 . S
O246 Mg241 2.032 . S
O246 C249 1.259 . S
O247 Mg238 2.114 . S
O247 C250 1.252 . S
O248 Mg238 2.251 . S
O248 Mg241 2.079 . S
O248 C250 1.273 . S
C249 O245 1.246 . S
C249 O246 1.259 . S
C250 O247 1.252 . S
C250 O248 1.273 . S
O251 Mg238 2.010 . S
O251 C243 1.249 . S
Mg252 O253 2.028 . S
Mg252 O259 1.986 . S
Mg252 O261 2.114 . S
Mg252 O262 2.251 . S
Mg252 O265 2.010 . S
O253 Mg252 2.028 . S
O253 C256 1.250 . S
O254 Mg255 2.028 . S
O254 C256 1.248 . S
Mg255 O254 2.028 . S
Mg255 O260 2.032 . S
Mg255 O262 2.079 . S
C256 O253 1.250 . S
C256 O254 1.248 . S
C257 O258 1.264 . S
C257 O265 1.249 . S
O258 C257 1.264 . S
O259 Mg252 1.986 . S
O259 C263 1.246 . S
O260 Mg255 2.032 . S
O260 C263 1.259 . S
O261 Mg252 2.114 . S
O261 C264 1.252 . S
O262 Mg252 2.251 . S
O262 Mg255 2.079 . S
O262 C264 1.273 . S
C263 O259 1.246 . S
C263 O260 1.259 . S
C264 O261 1.252 . S
C264 O262 1.273 . S
O265 Mg252 2.010 . S
O265 C257 1.249 . S
Mg266 O267 2.028 . S
Mg266 O273 1.986 . S
Mg266 O275 2.114 . S
Mg266 O276 2.251 . S
Mg266 O279 2.010 . S
O267 Mg266 2.028 . S
O267 C270 1.250 . S
O268 Mg269 2.028 . S
O268 C270 1.248 . S
Mg269 O268 2.028 . S
Mg269 O274 2.032 . S
Mg269 O276 2.079 . S
C270 O267 1.250 . S
C270 O268 1.248 . S
C271 O272 1.264 . S
C271 O279 1.249 . S
O272 C271 1.264 . S
O273 Mg266 1.986 . S
O273 C277 1.246 . S
O274 Mg269 2.032 . S
O274 C277 1.259 . S
O275 Mg266 2.114 . S
O275 C278 1.252 . S
O276 Mg266 2.251 . S
O276 Mg269 2.079 . S
O276 C278 1.273 . S
C277 O273 1.246 . S
C277 O274 1.259 . S
C278 O275 1.252 . S
C278 O276 1.273 . S
O279 Mg266 2.010 . S
O279 C271 1.249 . S
Mg280 O281 2.028 . S
Mg280 O287 1.986 . S
Mg280 O289 2.114 . S
Mg280 O290 2.251 . S
Mg280 O293 2.010 . S
O281 Mg280 2.028 . S
O281 C284 1.250 . S
O282 Mg283 2.028 . S
O282 C284 1.248 . S
Mg283 O282 2.028 . S
Mg283 O288 2.032 . S
Mg283 O290 2.079 . S
C284 O281 1.250 . S
C284 O282 1.248 . S
C285 O286 1.264 . S
C285 O293 1.249 . S
O286 C285 1.264 . S
O287 Mg280 1.986 . S
O287 C291 1.246 . S
O288 Mg283 2.032 . S
O288 C291 1.259 . S
O289 Mg280 2.114 . S
O289 C292 1.252 . S
O290 Mg280 2.251 . S
O290 Mg283 2.079 . S
O290 C292 1.273 . S
C291 O287 1.246 . S
C291 O288 1.259 . S
C292 O289 1.252 . S
C292 O290 1.273 . S
O293 Mg280 2.010 . S
O293 C285 1.249 . S
Mg294 O295 2.028 . S
Mg294 O301 1.986 . S
Mg294 O303 2.114 . S
Mg294 O304 2.251 . S
Mg294 O307 2.010 . S
O295 Mg294 2.028 . S
O295 C298 1.250 . S
O296 Mg297 2.028 . S
O296 C298 1.248 . S
Mg297 O296 2.028 . S
Mg297 O302 2.032 . S
Mg297 O304 2.079 . S
C298 O295 1.250 . S
C298 O296 1.248 . S
C299 O300 1.264 . S
C299 O307 1.249 . S
O300 C299 1.264 . S
O301 Mg294 1.986 . S
O301 C305 1.246 . S
O302 Mg297 2.032 . S
O302 C305 1.259 . S
O303 Mg294 2.114 . S
O303 C306 1.252 . S
O304 Mg294 2.251 . S
O304 Mg297 2.079 . S
O304 C306 1.273 . S
C305 O301 1.246 . S
C305 O302 1.259 . S
C306 O303 1.252 . S
C306 O304 1.273 . S
O307 Mg294 2.010 . S
O307 C299 1.249 . S
Mg308 O309 2.028 . S
Mg308 O315 1.986 . S
Mg308 O317 2.114 . S
Mg308 O318 2.251 . S
Mg308 O321 2.010 . S
O309 Mg308 2.028 . S
O309 C312 1.250 . S
O310 Mg311 2.028 . S
O310 C312 1.248 . S
Mg311 O310 2.028 . S
Mg311 O316 2.032 . S
Mg311 O318 2.079 . S
C312 O309 1.250 . S
C312 O310 1.248 . S
C313 O314 1.264 . S
C313 O321 1.249 . S
O314 C313 1.264 . S
O315 Mg308 1.986 . S
O315 C319 1.246 . S
O316 Mg311 2.032 . S
O316 C319 1.259 . S
O317 Mg308 2.114 . S
O317 C320 1.252 . S
O318 Mg308 2.251 . S
O318 Mg311 2.079 . S
O318 C320 1.273 . S
C319 O315 1.246 . S
C319 O316 1.259 . S
C320 O317 1.252 . S
C320 O318 1.273 . S
O321 Mg308 2.010 . S
O321 C313 1.249 . S
Mg322 O323 2.028 . S
Mg322 O329 1.986 . S
Mg322 O331 2.114 . S
Mg322 O332 2.251 . S
Mg322 O335 2.010 . S
O323 Mg322 2.028 . S
O323 C326 1.250 . S
O324 Mg325 2.028 . S
O324 C326 1.248 . S
Mg325 O324 2.028 . S
Mg325 O330 2.032 . S
Mg325 O332 2.079 . S
C326 O323 1.250 . S
C326 O324 1.248 . S
C327 O328 1.264 . S
C327 O335 1.249 . S
O328 C327 1.264 . S
O329 Mg322 1.986 . S
O329 C333 1.246 . S
O330 Mg325 2.032 . S
O330 C333 1.259 . S
O331 Mg322 2.114 . S
O331 C334 1.252 . S
O332 Mg322 2.251 . S
O332 Mg325 2.079 . S
O332 C334 1.273 . S
C333 O329 1.246 . S
C333 O330 1.259 . S
C334 O331 1.252 . S
C334 O332 1.273 . S
O335 Mg322 2.010 . S
O335 C327 1.249 . S
Mg336 O337 2.028 . S
Mg336 O343 1.986 . S
Mg336 O345 2.114 . S
Mg336 O346 2.251 . S
Mg336 O349 2.010 . S
O337 Mg336 2.028 . S
O337 C340 1.250 . S
O338 Mg339 2.028 . S
O338 C340 1.248 . S
Mg339 O338 2.028 . S
Mg339 O344 2.032 . S
Mg339 O346 2.079 . S
C340 O337 1.250 . S
C340 O338 1.248 . S
C341 O342 1.264 . S
C341 O349 1.249 . S
O342 C341 1.264 . S
O343 Mg336 1.986 . S
O343 C347 1.246 . S
O344 Mg339 2.032 . S
O344 C347 1.259 . S
O345 Mg336 2.114 . S
O345 C348 1.252 . S
O346 Mg336 2.251 . S
O346 Mg339 2.079 . S
O346 C348 1.273 . S
C347 O343 1.246 . S
C347 O344 1.259 . S
C348 O345 1.252 . S
C348 O346 1.273 . S
O349 Mg336 2.010 . S
O349 C341 1.249 . S
Mg350 O351 2.028 . S
Mg350 O357 1.986 . S
Mg350 O359 2.114 . S
Mg350 O360 2.251 . S
Mg350 O363 2.010 . S
O351 Mg350 2.028 . S
O351 C354 1.250 . S
O352 Mg353 2.028 . S
O352 C354 1.248 . S
Mg353 O352 2.028 . S
Mg353 O358 2.032 . S
Mg353 O360 2.079 . S
C354 O351 1.250 . S
C354 O352 1.248 . S
C355 O356 1.264 . S
C355 O363 1.249 . S
O356 C355 1.264 . S
O357 Mg350 1.986 . S
O357 C361 1.246 . S
O358 Mg353 2.032 . S
O358 C361 1.259 . S
O359 Mg350 2.114 . S
O359 C362 1.252 . S
O360 Mg350 2.251 . S
O360 Mg353 2.079 . S
O360 C362 1.273 . S
C361 O357 1.246 . S
C361 O358 1.259 . S
C362 O359 1.252 . S
C362 O360 1.273 . S
O363 Mg350 2.010 . S
O363 C355 1.249 . S
Mg364 O365 2.028 . S
Mg364 O371 1.986 . S
Mg364 O373 2.114 . S
Mg364 O374 2.251 . S
Mg364 O377 2.010 . S
O365 Mg364 2.028 . S
O365 C368 1.250 . S
O366 Mg367 2.028 . S
O366 C368 1.248 . S
Mg367 O366 2.028 . S
Mg367 O372 2.032 . S
Mg367 O374 2.079 . S
C368 O365 1.250 . S
C368 O366 1.248 . S
C369 O370 1.264 . S
C369 O377 1.249 . S
O370 C369 1.264 . S
O371 Mg364 1.986 . S
O371 C375 1.246 . S
O372 Mg367 2.032 . S
O372 C375 1.259 . S
O373 Mg364 2.114 . S
O373 C376 1.252 . S
O374 Mg364 2.251 . S
O374 Mg367 2.079 . S
O374 C376 1.273 . S
C375 O371 1.246 . S
C375 O372 1.259 . S
C376 O373 1.252 . S
C376 O374 1.273 . S
O377 Mg364 2.010 . S
O377 C369 1.249 . S
Mg378 O379 2.028 . S
Mg378 O385 1.986 . S
Mg378 O387 2.114 . S
Mg378 O388 2.251 . S
Mg378 O391 2.010 . S
O379 Mg378 2.028 . S
O379 C382 1.250 . S
O380 Mg381 2.028 . S
O380 C382 1.248 . S
Mg381 O380 2.028 . S
Mg381 O386 2.032 . S
Mg381 O388 2.079 . S
C382 O379 1.250 . S
C382 O380 1.248 . S
C383 O384 1.264 . S
C383 O391 1.249 . S
O384 C383 1.264 . S
O385 Mg378 1.986 . S
O385 C389 1.246 . S
O386 Mg381 2.032 . S
O386 C389 1.259 . S
O387 Mg378 2.114 . S
O387 C390 1.252 . S
O388 Mg378 2.251 . S
O388 Mg381 2.079 . S
O388 C390 1.273 . S
C389 O385 1.246 . S
C389 O386 1.259 . S
C390 O387 1.252 . S
C390 O388 1.273 . S
O391 Mg378 2.010 . S
O391 C383 1.249 . S
Mg392 O393 2.028 . S
Mg392 O399 1.986 . S
Mg392 O401 2.114 . S
Mg392 O402 2.251 . S
Mg392 O405 2.010 . S
O393 Mg392 2.028 . S
O393 C396 1.250 . S
O394 Mg395 2.028 . S
O394 C396 1.248 . S
Mg395 O394 2.028 . S
Mg395 O400 2.032 . S
Mg395 O402 2.079 . S
C396 O393 1.250 . S
C396 O394 1.248 . S
C397 O398 1.264 . S
C397 O405 1.249 . S
O398 C397 1.264 . S
O399 Mg392 1.986 . S
O399 C403 1.246 . S
O400 Mg395 2.032 . S
O400 C403 1.259 . S
O401 Mg392 2.114 . S
O401 C404 1.252 . S
O402 Mg392 2.251 . S
O402 Mg395 2.079 . S
O402 C404 1.273 . S
C403 O399 1.246 . S
C403 O400 1.259 . S
C404 O401 1.252 . S
C404 O402 1.273 . S
O405 Mg392 2.010 . S
O405 C397 1.249 . S
Mg406 O407 2.028 . S
Mg406 O413 1.986 . S
Mg406 O415 2.114 . S
Mg406 O416 2.251 . S
Mg406 O419 2.010 . S
O407 Mg406 2.028 . S
O407 C410 1.250 . S
O408 Mg409 2.028 . S
O408 C410 1.248 . S
Mg409 O408 2.028 . S
Mg409 O414 2.032 . S
Mg409 O416 2.079 . S
C410 O407 1.250 . S
C410 O408 1.248 . S
C411 O412 1.264 . S
C411 O419 1.249 . S
O412 C411 1.264 . S
O413 Mg406 1.986 . S
O413 C417 1.246 . S
O414 Mg409 2.032 . S
O414 C417 1.259 . S
O415 Mg406 2.114 . S
O415 C418 1.252 . S
O416 Mg406 2.251 . S
O416 Mg409 2.079 . S
O416 C418 1.273 . S
C417 O413 1.246 . S
C417 O414 1.259 . S
C418 O415 1.252 . S
C418 O416 1.273 . S
O419 Mg406 2.010 . S
O419 C411 1.249 . S
Mg420 O421 2.028 . S
Mg420 O427 1.986 . S
Mg420 O429 2.114 . S
Mg420 O430 2.251 . S
Mg420 O433 2.010 . S
O421 Mg420 2.028 . S
O421 C424 1.250 . S
O422 Mg423 2.028 . S
O422 C424 1.248 . S
Mg423 O422 2.028 . S
Mg423 O428 2.032 . S
Mg423 O430 2.079 . S
C424 O421 1.250 . S
C424 O422 1.248 . S
C425 O426 1.264 . S
C425 O433 1.249 . S
O426 C425 1.264 . S
O427 Mg420 1.986 . S
O427 C431 1.246 . S
O428 Mg423 2.032 . S
O428 C431 1.259 . S
O429 Mg420 2.114 . S
O429 C432 1.252 . S
O430 Mg420 2.251 . S
O430 Mg423 2.079 . S
O430 C432 1.273 . S
C431 O427 1.246 . S
C431 O428 1.259 . S
C432 O429 1.252 . S
C432 O430 1.273 . S
O433 Mg420 2.010 . S
O433 C425 1.249 . S
Mg434 O435 2.028 . S
Mg434 O441 1.986 . S
Mg434 O443 2.114 . S
Mg434 O444 2.251 . S
Mg434 O447 2.010 . S
O435 Mg434 2.028 . S
O435 C438 1.250 . S
O436 Mg437 2.028 . S
O436 C438 1.248 . S
Mg437 O436 2.028 . S
Mg437 O442 2.032 . S
Mg437 O444 2.079 . S
C438 O435 1.250 . S
C438 O436 1.248 . S
C439 O440 1.264 . S
C439 O447 1.249 . S
O440 C439 1.264 . S
O441 Mg434 1.986 . S
O441 C445 1.246 . S
O442 Mg437 2.032 . S
O442 C445 1.259 . S
O443 Mg434 2.114 . S
O443 C446 1.252 . S
O444 Mg434 2.251 . S
O444 Mg437 2.079 . S
O444 C446 1.273 . S
C445 O441 1.246 . S
C445 O442 1.259 . S
C446 O443 1.252 . S
C446 O444 1.273 . S
O447 Mg434 2.010 . S
O447 C439 1.249 . S
H448 C466 0.951 . S
H449 C468 0.951 1_554 S
H450 C470 0.950 . S
H451 C471 0.950 . S
H452 C473 0.950 . S
H453 C476 0.950 . S
H454 C477 0.950 . S
H455 C479 0.909 1_554 S
H456 C480 0.960 1_554 S
H457 C481 0.951 . S
H458 C483 0.951 1_556 S
H459 C485 0.950 . S
H460 C486 0.950 . S
H461 C488 0.950 . S
H462 C491 0.950 . S
H463 C492 0.950 . S
H464 C494 0.909 1_556 S
H465 C495 0.960 1_556 S
C466 H448 0.951 . S
C466 C467 1.366 . S
C466 C468 1.388 . S
C467 C466 1.366 . S
C467 C471 1.385 . S
C468 H449 0.951 1_556 S
C468 C466 1.388 . S
C468 C469 1.366 . S
C469 C468 1.366 . S
C469 C470 1.414 . S
C469 C472 1.499 . S
C470 H450 0.950 . S
C470 C469 1.414 . S
C470 C471 1.374 . S
C471 H451 0.950 . S
C471 C467 1.385 . S
C471 C470 1.374 . S
C472 C469 1.499 . S
C472 C473 1.373 . S
C472 C474 1.389 1_655 S
C473 H452 0.950 . S
C473 C472 1.373 . S
C473 C489 1.377 1_556 S
C474 C472 1.389 1_455 S
C474 C475 1.524 . S
C474 C488 1.377 1_556 S
C475 C474 1.524 . S
C475 C476 1.397 . S
C475 C480 1.357 . S
C476 H453 0.950 . S
C476 C475 1.397 . S
C476 C477 1.334 . S
C477 H454 0.950 . S
C477 C476 1.334 . S
C477 C478 1.287 . S
C478 C477 1.287 . S
C478 C479 1.524 . S
C478 H497 0.913 . S
C479 H455 0.909 1_556 S
C479 C478 1.524 . S
C479 C480 1.412 . S
C480 H456 0.960 1_556 S
C480 C475 1.357 . S
C480 C479 1.412 . S
C481 H457 0.951 . S
C481 C482 1.366 . S
C481 C483 1.388 . S
C482 C481 1.366 . S
C482 C486 1.385 . S
C483 H458 0.951 1_554 S
C483 C481 1.388 . S
C483 C484 1.366 . S
C484 C483 1.366 . S
C484 C485 1.414 . S
C484 C487 1.499 . S
C485 H459 0.950 . S
C485 C484 1.414 . S
C485 C486 1.374 . S
C486 H460 0.950 . S
C486 C482 1.385 . S
C486 C485 1.374 . S
C487 C484 1.499 . S
C487 C488 1.373 . S
C487 C489 1.389 1_455 S
C488 H461 0.950 . S
C488 C474 1.377 1_554 S
C488 C487 1.373 . S
C489 C473 1.377 1_554 S
C489 C487 1.389 1_655 S
C489 C490 1.524 . S
C490 C489 1.524 . S
C490 C491 1.397 . S
C490 C495 1.357 . S
C491 H462 0.950 . S
C491 C490 1.397 . S
C491 C492 1.334 . S
C492 H463 0.950 . S
C492 C491 1.334 . S
C492 C493 1.287 . S
C493 C492 1.287 . S
C493 C494 1.524 . S
C493 H496 0.999 . S
C494 H464 0.909 1_554 S
C494 C493 1.524 . S
C494 C495 1.412 . S
C495 H465 0.960 1_554 S
C495 C490 1.357 . S
C495 C494 1.412 . S
H496 C493 0.999 . S
H497 C478 0.913 . S
H498 C516 0.951 . S
H499 C518 0.951 . S
H500 C520 0.950 . S
H501 C521 0.950 . S
H502 C523 0.950 . S
H503 C526 0.950 . S
H504 C527 0.950 . S
H505 C529 0.950 . S
H506 C530 0.950 . S
H507 C531 0.951 . S
H508 C533 0.951 . S
H509 C535 0.950 . S
H510 C536 0.950 . S
H511 C538 0.950 . S
H512 C541 0.950 . S
H513 C542 0.950 . S
H514 C544 0.950 . S
H515 C545 0.950 . S
C516 H498 0.951 . S
C516 C517 1.366 . S
C516 C518 1.388 . S
C517 C516 1.366 . S
C517 C521 1.385 . S
C518 H499 0.951 . S
C518 C516 1.388 . S
C518 C519 1.366 . S
C519 C518 1.366 . S
C519 C520 1.414 . S
C519 C522 1.499 . S
C520 H500 0.950 . S
C520 C519 1.414 . S
C520 C521 1.374 . S
C521 H501 0.950 . S
C521 C517 1.385 . S
C521 C520 1.374 . S
C522 C519 1.499 . S
C522 C523 1.373 . S
C522 C524 1.389 . S
C523 H502 0.950 . S
C523 C522 1.373 . S
C523 C539 1.377 . S
C524 C522 1.389 . S
C524 C525 1.524 . S
C524 C538 1.377 . S
C525 C524 1.524 . S
C525 C526 1.397 . S
C525 C530 1.363 . S
C526 H503 0.950 . S
C526 C525 1.397 . S
C526 C527 1.334 . S
C527 H504 0.950 . S
C527 C526 1.334 . S
C527 C528 1.287 . S
C528 C527 1.287 . S
C528 C529 1.524 . S
C528 H547 0.913 . S
C529 H505 0.950 . S
C529 C528 1.524 . S
C529 C530 1.415 . S
C530 H506 0.950 . S
C530 C525 1.363 . S
C530 C529 1.415 . S
C531 H507 0.951 . S
C531 C532 1.366 . S
C531 C533 1.388 . S
C532 C531 1.366 . S
C532 C536 1.385 . S
C533 H508 0.951 . S
C533 C531 1.388 . S
C533 C534 1.366 . S
C534 C533 1.366 . S
C534 C535 1.414 . S
C534 C537 1.499 . S
C535 H509 0.950 . S
C535 C534 1.414 . S
C535 C536 1.374 . S
C536 H510 0.950 . S
C536 C532 1.385 . S
C536 C535 1.374 . S
C537 C534 1.499 . S
C537 C538 1.373 . S
C537 C539 1.389 . S
C538 H511 0.950 . S
C538 C524 1.377 . S
C538 C537 1.373 . S
C539 C523 1.377 . S
C539 C537 1.389 . S
C539 C540 1.524 . S
C540 C539 1.524 . S
C540 C541 1.397 . S
C540 C545 1.363 . S
C541 H512 0.950 . S
C541 C540 1.397 . S
C541 C542 1.334 . S
C542 H513 0.950 . S
C542 C541 1.334 . S
C542 C543 1.287 . S
C543 C542 1.287 . S
C543 C544 1.524 . S
C543 H546 0.999 . S
C544 H514 0.950 . S
C544 C543 1.524 . S
C544 C545 1.415 . S
C545 H515 0.950 . S
C545 C540 1.363 . S
C545 C544 1.415 . S
H546 C543 0.999 . S
H547 C528 0.913 . S
H548 C566 0.951 . S
H549 C568 0.951 . S
H550 C570 0.950 . S
H551 C571 0.950 . S
H552 C573 0.950 . S
H553 C576 0.950 . S
H554 C577 0.950 . S
H555 C579 0.950 . S
H556 C580 0.950 . S
H557 C581 0.951 . S
H558 C583 0.951 . S
H559 C585 0.950 . S
H560 C586 0.950 . S
H561 C588 0.950 . S
H562 C591 0.950 . S
H563 C592 0.950 . S
H564 C594 0.950 . S
H565 C595 0.950 . S
C566 H548 0.951 . S
C566 C567 1.366 . S
C566 C568 1.388 . S
C567 C566 1.366 . S
C567 C571 1.385 . S
C568 H549 0.951 . S
C568 C566 1.388 . S
C568 C569 1.366 . S
C569 C568 1.366 . S
C569 C570 1.414 . S
C569 C572 1.499 . S
C570 H550 0.950 . S
C570 C569 1.414 . S
C570 C571 1.374 . S
C571 H551 0.950 . S
C571 C567 1.385 . S
C571 C570 1.374 . S
C572 C569 1.499 . S
C572 C573 1.373 . S
C572 C574 1.389 . S
C573 H552 0.950 . S
C573 C572 1.373 . S
C573 C589 1.377 . S
C574 C572 1.389 . S
C574 C575 1.524 . S
C574 C588 1.377 . S
C575 C574 1.524 . S
C575 C576 1.397 . S
C575 C580 1.363 . S
C576 H553 0.950 . S
C576 C575 1.397 . S
C576 C577 1.334 . S
C577 H554 0.950 . S
C577 C576 1.334 . S
C577 C578 1.287 . S
C578 C577 1.287 . S
C578 C579 1.524 . S
C578 H597 0.913 . S
C579 H555 0.950 . S
C579 C578 1.524 . S
C579 C580 1.415 . S
C580 H556 0.950 . S
C580 C575 1.363 . S
C580 C579 1.415 . S
C581 H557 0.951 . S
C581 C582 1.366 . S
C581 C583 1.388 . S
C582 C581 1.366 . S
C582 C586 1.385 . S
C583 H558 0.951 . S
C583 C581 1.388 . S
C583 C584 1.366 . S
C584 C583 1.366 . S
C584 C585 1.414 . S
C584 C587 1.499 . S
C585 H559 0.950 . S
C585 C584 1.414 . S
C585 C586 1.374 . S
C586 H560 0.950 . S
C586 C582 1.385 . S
C586 C585 1.374 . S
C587 C584 1.499 . S
C587 C588 1.373 . S
C587 C589 1.389 . S
C588 H561 0.950 . S
C588 C574 1.377 . S
C588 C587 1.373 . S
C589 C573 1.377 . S
C589 C587 1.389 . S
C589 C590 1.524 . S
C590 C589 1.524 . S
C590 C591 1.397 . S
C590 C595 1.363 . S
C591 H562 0.950 . S
C591 C590 1.397 . S
C591 C592 1.334 . S
C592 H563 0.950 . S
C592 C591 1.334 . S
C592 C593 1.287 . S
C593 C592 1.287 . S
C593 C594 1.524 . S
C593 H596 0.999 . S
C594 H564 0.950 . S
C594 C593 1.524 . S
C594 C595 1.415 . S
C595 H565 0.950 . S
C595 C590 1.363 . S
C595 C594 1.415 . S
H596 C593 0.999 . S
H597 C578 0.913 . S
H598 C616 0.951 . S
H599 C618 0.951 . S
H600 C620 0.950 . S
H601 C621 0.950 . S
H602 C623 0.950 . S
H603 C626 0.950 . S
H604 C627 0.950 . S
H605 C629 0.950 . S
H606 C630 0.950 . S
H607 C631 0.951 . S
H608 C633 0.951 . S
H609 C635 0.950 . S
H610 C636 0.950 . S
H611 C638 0.950 . S
H612 C641 0.950 . S
H613 C642 0.950 . S
H614 C644 0.950 . S
H615 C645 0.950 . S
C616 H598 0.951 . S
C616 C617 1.366 . S
C616 C618 1.388 . S
C617 C616 1.366 . S
C617 C621 1.385 . S
C618 H599 0.951 . S
C618 C616 1.388 . S
C618 C619 1.366 . S
C619 C618 1.366 . S
C619 C620 1.414 . S
C619 C622 1.499 . S
C620 H600 0.950 . S
C620 C619 1.414 . S
C620 C621 1.374 . S
C621 H601 0.950 . S
C621 C617 1.385 . S
C621 C620 1.374 . S
C622 C619 1.499 . S
C622 C623 1.373 . S
C622 C624 1.389 . S
C623 H602 0.950 . S
C623 C622 1.373 . S
C623 C639 1.377 . S
C624 C622 1.389 . S
C624 C625 1.524 . S
C624 C638 1.377 . S
C625 C624 1.524 . S
C625 C626 1.397 . S
C625 C630 1.363 . S
C626 H603 0.950 . S
C626 C625 1.397 . S
C626 C627 1.334 . S
C627 H604 0.950 . S
C627 C626 1.334 . S
C627 C628 1.287 . S
C628 C627 1.287 . S
C628 C629 1.524 . S
C628 H647 0.913 . S
C629 H605 0.950 . S
C629 C628 1.524 . S
C629 C630 1.415 . S
C630 H606 0.950 . S
C630 C625 1.363 . S
C630 C629 1.415 . S
C631 H607 0.951 . S
C631 C632 1.366 . S
C631 C633 1.388 . S
C632 C631 1.366 . S
C632 C636 1.385 . S
C633 H608 0.951 . S
C633 C631 1.388 . S
C633 C634 1.366 . S
C634 C633 1.366 . S
C634 C635 1.414 . S
C634 C637 1.499 . S
C635 H609 0.950 . S
C635 C634 1.414 . S
C635 C636 1.374 . S
C636 H610 0.950 . S
C636 C632 1.385 . S
C636 C635 1.374 . S
C637 C634 1.499 . S
C637 C638 1.373 . S
C637 C639 1.389 . S
C638 H611 0.950 . S
C638 C624 1.377 . S
C638 C637 1.373 . S
C639 C623 1.377 . S
C639 C637 1.389 . S
C639 C640 1.524 . S
C640 C639 1.524 . S
C640 C641 1.397 . S
C640 C645 1.363 . S
C641 H612 0.950 . S
C641 C640 1.397 . S
C641 C642 1.334 . S
C642 H613 0.950 . S
C642 C641 1.334 . S
C642 C643 1.287 . S
C643 C642 1.287 . S
C643 C644 1.524 . S
C643 H646 0.999 . S
C644 H614 0.950 . S
C644 C643 1.524 . S
C644 C645 1.415 . S
C645 H615 0.950 . S
C645 C640 1.363 . S
C645 C644 1.415 . S
H646 C643 0.999 . S
H647 C628 0.913 . S
H648 C666 0.951 . S
H649 C668 0.951 . S
H650 C670 0.950 . S
H651 C671 0.950 . S
H652 C673 0.950 . S
H653 C676 0.950 . S
H654 C677 0.950 . S
H655 C679 0.950 . S
H656 C680 0.950 . S
H657 C681 0.951 . S
H658 C683 0.951 . S
H659 C685 0.950 . S
H660 C686 0.950 . S
H661 C688 0.950 . S
H662 C691 0.950 . S
H663 C692 0.950 . S
H664 C694 0.950 . S
H665 C695 0.950 . S
C666 H648 0.951 . S
C666 C667 1.366 . S
C666 C668 1.388 . S
C667 C666 1.366 . S
C667 C671 1.385 . S
C668 H649 0.951 . S
C668 C666 1.388 . S
C668 C669 1.366 . S
C669 C668 1.366 . S
C669 C670 1.414 . S
C669 C672 1.499 . S
C670 H650 0.950 . S
C670 C669 1.414 . S
C670 C671 1.374 . S
C671 H651 0.950 . S
C671 C667 1.385 . S
C671 C670 1.374 . S
C672 C669 1.499 . S
C672 C673 1.373 . S
C672 C674 1.389 . S
C673 H652 0.950 . S
C673 C672 1.373 . S
C673 C689 1.377 1_655 S
C674 C672 1.389 . S
C674 C675 1.524 . S
C674 C688 1.377 1_655 S
C675 C674 1.524 . S
C675 C676 1.397 . S
C675 C680 1.363 . S
C676 H653 0.950 . S
C676 C675 1.397 . S
C676 C677 1.334 . S
C677 H654 0.950 . S
C677 C676 1.334 . S
C677 C678 1.287 . S
C678 C677 1.287 . S
C678 C679 1.524 . S
C678 H697 0.913 . S
C679 H655 0.950 . S
C679 C678 1.524 . S
C679 C680 1.415 . S
C680 H656 0.950 . S
C680 C675 1.363 . S
C680 C679 1.415 . S
C681 H657 0.951 . S
C681 C682 1.366 . S
C681 C683 1.388 . S
C682 C681 1.366 . S
C682 C686 1.385 . S
C683 H658 0.951 . S
C683 C681 1.388 . S
C683 C684 1.366 . S
C684 C683 1.366 . S
C684 C685 1.414 . S
C684 C687 1.499 . S
C685 H659 0.950 . S
C685 C684 1.414 . S
C685 C686 1.374 . S
C686 H660 0.950 . S
C686 C682 1.385 . S
C686 C685 1.374 . S
C687 C684 1.499 . S
C687 C688 1.373 . S
C687 C689 1.389 . S
C688 H661 0.950 . S
C688 C674 1.377 1_455 S
C688 C687 1.373 . S
C689 C673 1.377 1_455 S
C689 C687 1.389 . S
C689 C690 1.524 . S
C690 C689 1.524 . S
C690 C691 1.397 . S
C690 C695 1.363 . S
C691 H662 0.950 . S
C691 C690 1.397 . S
C691 C692 1.334 . S
C692 H663 0.950 . S
C692 C691 1.334 . S
C692 C693 1.287 . S
C693 C692 1.287 . S
C693 C694 1.524 . S
C693 H696 0.999 . S
C694 H664 0.950 . S
C694 C693 1.524 . S
C694 C695 1.415 . S
C695 H665 0.950 . S
C695 C690 1.363 . S
C695 C694 1.415 . S
H696 C693 0.999 . S
H697 C678 0.913 . S
H698 C716 0.951 . S
H699 C718 0.951 . S
H700 C720 0.950 . S
H701 C721 0.950 . S
H702 C723 0.950 . S
H703 C726 0.950 . S
H704 C727 0.950 . S
H705 C729 0.950 . S
H706 C730 0.950 . S
H707 C731 0.951 . S
H708 C733 0.951 . S
H709 C735 0.950 . S
H710 C736 0.950 . S
H711 C738 0.950 . S
H712 C741 0.950 . S
H713 C742 0.950 . S
H714 C744 0.950 . S
H715 C745 0.950 . S
C716 H698 0.951 . S
C716 C717 1.366 . S
C716 C718 1.388 . S
C717 C716 1.366 . S
C717 C721 1.385 . S
C718 H699 0.951 . S
C718 C716 1.388 . S
C718 C719 1.366 . S
C719 C718 1.366 . S
C719 C720 1.414 . S
C719 C722 1.499 . S
C720 H700 0.950 . S
C720 C719 1.414 . S
C720 C721 1.374 . S
C721 H701 0.950 . S
C721 C717 1.385 . S
C721 C720 1.374 . S
C722 C719 1.499 . S
C722 C723 1.373 . S
C722 C724 1.389 . S
C723 H702 0.950 . S
C723 C722 1.373 . S
C723 C739 1.377 . S
C724 C722 1.389 . S
C724 C725 1.524 . S
C724 C738 1.377 . S
C725 C724 1.524 . S
C725 C726 1.397 . S
C725 C730 1.363 . S
C726 H703 0.950 . S
C726 C725 1.397 . S
C726 C727 1.334 . S
C727 H704 0.950 . S
C727 C726 1.334 . S
C727 C728 1.287 . S
C728 C727 1.287 . S
C728 C729 1.524 . S
C728 H747 0.913 . S
C729 H705 0.950 . S
C729 C728 1.524 . S
C729 C730 1.415 . S
C730 H706 0.950 . S
C730 C725 1.363 . S
C730 C729 1.415 . S
C731 H707 0.951 . S
C731 C732 1.366 . S
C731 C733 1.388 . S
C732 C731 1.366 . S
C732 C736 1.385 . S
C733 H708 0.951 . S
C733 C731 1.388 . S
C733 C734 1.366 . S
C734 C733 1.366 . S
C734 C735 1.414 . S
C734 C737 1.499 . S
C735 H709 0.950 . S
C735 C734 1.414 . S
C735 C736 1.374 . S
C736 H710 0.950 . S
C736 C732 1.385 . S
C736 C735 1.374 . S
C737 C734 1.499 . S
C737 C738 1.373 . S
C737 C739 1.389 . S
C738 H711 0.950 . S
C738 C724 1.377 . S
C738 C737 1.373 . S
C739 C723 1.377 . S
C739 C737 1.389 . S
C739 C740 1.524 . S
C740 C739 1.524 . S
C740 C741 1.397 . S
C740 C745 1.363 . S
C741 H712 0.950 . S
C741 C740 1.397 . S
C741 C742 1.334 . S
C742 H713 0.950 . S
C742 C741 1.334 . S
C742 C743 1.287 . S
C743 C742 1.287 . S
C743 C744 1.524 . S
C743 H746 0.999 . S
C744 H714 0.950 . S
C744 C743 1.524 . S
C744 C745 1.415 . S
C745 H715 0.950 . S
C745 C740 1.363 . S
C745 C744 1.415 . S
H746 C743 0.999 . S
H747 C728 0.913 . S
H748 C766 0.951 . S
H749 C768 0.951 . S
H750 C770 0.950 . S
H751 C771 0.950 . S
H752 C773 0.950 . S
H753 C776 0.950 . S
H754 C777 0.950 . S
H755 C779 0.950 . S
H756 C780 0.950 . S
H757 C781 0.951 . S
H758 C783 0.951 . S
H759 C785 0.950 . S
H760 C786 0.950 . S
H761 C788 0.950 . S
H762 C791 0.950 . S
H763 C792 0.950 . S
H764 C794 0.950 . S
H765 C795 0.950 . S
C766 H748 0.951 . S
C766 C767 1.366 . S
C766 C768 1.388 . S
C767 C766 1.366 . S
C767 C771 1.385 . S
C768 H749 0.951 . S
C768 C766 1.388 . S
C768 C769 1.366 . S
C769 C768 1.366 . S
C769 C770 1.414 . S
C769 C772 1.499 . S
C770 H750 0.950 . S
C770 C769 1.414 . S
C770 C771 1.374 . S
C771 H751 0.950 . S
C771 C767 1.385 . S
C771 C770 1.374 . S
C772 C769 1.499 . S
C772 C773 1.373 1_556 S
C772 C774 1.389 . S
C773 H752 0.950 . S
C773 C772 1.373 1_554 S
C773 C789 1.377 . S
C774 C772 1.389 . S
C774 C775 1.524 . S
C774 C788 1.377 . S
C775 C774 1.524 . S
C775 C776 1.397 . S
C775 C780 1.363 . S
C776 H753 0.950 . S
C776 C775 1.397 . S
C776 C777 1.334 . S
C777 H754 0.950 . S
C777 C776 1.334 . S
C777 C778 1.287 . S
C778 C777 1.287 . S
C778 C779 1.524 . S
C778 H797 0.913 . S
C779 H755 0.950 . S
C779 C778 1.524 . S
C779 C780 1.415 . S
C780 H756 0.950 . S
C780 C775 1.363 . S
C780 C779 1.415 . S
C781 H757 0.951 . S
C781 C782 1.366 . S
C781 C783 1.388 . S
C782 C781 1.366 . S
C782 C786 1.385 . S
C783 H758 0.951 . S
C783 C781 1.388 . S
C783 C784 1.366 . S
C784 C783 1.366 . S
C784 C785 1.414 . S
C784 C787 1.499 . S
C785 H759 0.950 . S
C785 C784 1.414 . S
C785 C786 1.374 . S
C786 H760 0.950 . S
C786 C782 1.385 . S
C786 C785 1.374 . S
C787 C784 1.499 . S
C787 C788 1.373 1_554 S
C787 C789 1.389 . S
C788 H761 0.950 . S
C788 C774 1.377 . S
C788 C787 1.373 1_556 S
C789 C773 1.377 . S
C789 C787 1.389 . S
C789 C790 1.524 . S
C790 C789 1.524 . S
C790 C791 1.397 . S
C790 C795 1.363 . S
C791 H762 0.950 . S
C791 C790 1.397 . S
C791 C792 1.334 . S
C792 H763 0.950 . S
C792 C791 1.334 . S
C792 C793 1.287 . S
C793 C792 1.287 . S
C793 C794 1.524 . S
C793 H796 0.999 . S
C794 H764 0.950 . S
C794 C793 1.524 . S
C794 C795 1.415 . S
C795 H765 0.950 . S
C795 C790 1.363 . S
C795 C794 1.415 . S
H796 C793 0.999 . S
H797 C778 0.913 . S
H798 C816 0.951 . S
H799 C818 0.951 . S
H800 C820 0.950 . S
H801 C821 0.950 . S
H802 C823 0.950 . S
H803 C826 0.950 . S
H804 C827 0.950 . S
H805 C829 0.950 . S
H806 C830 0.950 . S
H807 C831 0.951 . S
H808 C833 0.951 . S
H809 C835 0.950 . S
H810 C836 0.950 . S
H811 C838 0.950 . S
H812 C841 0.950 . S
H813 C842 0.950 . S
H814 C844 0.950 . S
H815 C845 0.950 . S
C816 H798 0.951 . S
C816 C817 1.366 . S
C816 C818 1.388 . S
C817 C816 1.366 . S
C817 C821 1.385 . S
C818 H799 0.951 . S
C818 C816 1.388 . S
C818 C819 1.366 . S
C819 C818 1.366 . S
C819 C820 1.414 . S
C819 C822 1.499 . S
C820 H800 0.950 . S
C820 C819 1.414 . S
C820 C821 1.374 . S
C821 H801 0.950 . S
C821 C817 1.385 . S
C821 C820 1.374 . S
C822 C819 1.499 . S
C822 C823 1.373 . S
C822 C824 1.389 . S
C823 H802 0.950 . S
C823 C822 1.373 . S
C823 C839 1.377 . S
C824 C822 1.389 . S
C824 C825 1.524 . S
C824 C838 1.377 . S
C825 C824 1.524 . S
C825 C826 1.397 . S
C825 C830 1.363 . S
C826 H803 0.950 . S
C826 C825 1.397 . S
C826 C827 1.334 . S
C827 H804 0.950 . S
C827 C826 1.334 . S
C827 C828 1.287 . S
C828 C827 1.287 . S
C828 C829 1.524 . S
C828 H847 0.913 . S
C829 H805 0.950 . S
C829 C828 1.524 . S
C829 C830 1.415 . S
C830 H806 0.950 . S
C830 C825 1.363 . S
C830 C829 1.415 . S
C831 H807 0.951 . S
C831 C832 1.366 . S
C831 C833 1.388 . S
C832 C831 1.366 . S
C832 C836 1.385 . S
C833 H808 0.951 . S
C833 C831 1.388 . S
C833 C834 1.366 . S
C834 C833 1.366 . S
C834 C835 1.414 . S
C834 C837 1.499 . S
C835 H809 0.950 . S
C835 C834 1.414 . S
C835 C836 1.374 . S
C836 H810 0.950 . S
C836 C832 1.385 . S
C836 C835 1.374 . S
C837 C834 1.499 . S
C837 C838 1.373 . S
C837 C839 1.389 . S
C838 H811 0.950 . S
C838 C824 1.377 . S
C838 C837 1.373 . S
C839 C823 1.377 . S
C839 C837 1.389 . S
C839 C840 1.524 . S
C840 C839 1.524 . S
C840 C841 1.397 . S
C840 C845 1.363 . S
C841 H812 0.950 . S
C841 C840 1.397 . S
C841 C842 1.334 . S
C842 H813 0.950 . S
C842 C841 1.334 . S
C842 C843 1.287 . S
C843 C842 1.287 . S
C843 C844 1.524 . S
C843 H846 0.999 . S
C844 H814 0.950 . S
C844 C843 1.524 . S
C844 C845 1.415 . S
C845 H815 0.950 . S
C845 C840 1.363 . S
C845 C844 1.415 . S
H846 C843 0.999 . S
H847 C828 0.913 . S
H848 C866 0.951 . S
H849 C868 0.951 . S
H850 C870 0.950 . S
H851 C871 0.950 . S
H852 C873 0.950 . S
H853 C876 0.950 . S
H854 C877 0.950 . S
H855 C879 0.950 . S
H856 C880 0.950 . S
H857 C881 0.951 . S
H858 C883 0.951 . S
H859 C885 0.950 . S
H860 C886 0.950 . S
H861 C888 0.950 . S
H862 C891 0.950 . S
H863 C892 0.950 . S
H864 C894 0.950 . S
H865 C895 0.950 . S
C866 H848 0.951 . S
C866 C867 1.366 . S
C866 C868 1.388 . S
C867 C866 1.366 . S
C867 C871 1.385 . S
C868 H849 0.951 . S
C868 C866 1.388 . S
C868 C869 1.366 . S
C869 C868 1.366 . S
C869 C870 1.414 . S
C869 C872 1.499 . S
C870 H850 0.950 . S
C870 C869 1.414 . S
C870 C871 1.374 . S
C871 H851 0.950 . S
C871 C867 1.385 . S
C871 C870 1.374 . S
C872 C869 1.499 . S
C872 C873 1.373 . S
C872 C874 1.389 . S
C873 H852 0.950 . S
C873 C872 1.373 . S
C873 C889 1.377 . S
C874 C872 1.389 . S
C874 C875 1.524 . S
C874 C888 1.377 . S
C875 C874 1.524 . S
C875 C876 1.397 . S
C875 C880 1.363 . S
C876 H853 0.950 . S
C876 C875 1.397 . S
C876 C877 1.334 . S
C877 H854 0.950 . S
C877 C876 1.334 . S
C877 C878 1.287 . S
C878 C877 1.287 . S
C878 C879 1.524 . S
C878 H897 0.913 . S
C879 H855 0.950 . S
C879 C878 1.524 . S
C879 C880 1.415 . S
C880 H856 0.950 . S
C880 C875 1.363 . S
C880 C879 1.415 . S
C881 H857 0.951 . S
C881 C882 1.366 . S
C881 C883 1.388 . S
C882 C881 1.366 . S
C882 C886 1.385 . S
C883 H858 0.951 . S
C883 C881 1.388 . S
C883 C884 1.366 . S
C884 C883 1.366 . S
C884 C885 1.414 . S
C884 C887 1.499 . S
C885 H859 0.950 . S
C885 C884 1.414 . S
C885 C886 1.374 . S
C886 H860 0.950 . S
C886 C882 1.385 . S
C886 C885 1.374 . S
C887 C884 1.499 . S
C887 C888 1.373 . S
C887 C889 1.389 . S
C888 H861 0.950 . S
C888 C874 1.377 . S
C888 C887 1.373 . S
C889 C873 1.377 . S
C889 C887 1.389 . S
C889 C890 1.524 . S
C890 C889 1.524 . S
C890 C891 1.397 . S
C890 C895 1.363 . S
C891 H862 0.950 . S
C891 C890 1.397 . S
C891 C892 1.334 . S
C892 H863 0.950 . S
C892 C891 1.334 . S
C892 C893 1.287 . S
C893 C892 1.287 . S
C893 C894 1.524 . S
C893 H896 0.999 . S
C894 H864 0.950 . S
C894 C893 1.524 . S
C894 C895 1.415 . S
C895 H865 0.950 . S
C895 C890 1.363 . S
C895 C894 1.415 . S
H896 C893 0.999 . S
H897 C878 0.913 . S
H898 C916 0.951 . S
H899 C918 0.951 . S
H900 C920 0.950 . S
H901 C921 0.950 . S
H902 C923 0.950 . S
H903 C926 0.950 . S
H904 C927 0.950 . S
H905 C929 0.950 . S
H906 C930 0.950 . S
H907 C931 0.951 . S
H908 C933 0.951 . S
H909 C935 0.950 . S
H910 C936 0.950 . S
H911 C938 0.950 . S
H912 C941 0.950 . S
H913 C942 0.950 . S
H914 C944 0.950 . S
H915 C945 0.950 . S
C916 H898 0.951 . S
C916 C917 1.366 . S
C916 C918 1.388 . S
C917 C916 1.366 . S
C917 C921 1.385 . S
C918 H899 0.951 . S
C918 C916 1.388 . S
C918 C919 1.366 . S
C919 C918 1.366 . S
C919 C920 1.414 . S
C919 C922 1.499 . S
C920 H900 0.950 . S
C920 C919 1.414 . S
C920 C921 1.374 . S
C921 H901 0.950 . S
C921 C917 1.385 . S
C921 C920 1.374 . S
C922 C919 1.499 . S
C922 C923 1.373 . S
C922 C924 1.389 . S
C923 H902 0.950 . S
C923 C922 1.373 . S
C923 C939 1.377 . S
C924 C922 1.389 . S
C924 C925 1.524 . S
C924 C938 1.377 . S
C925 C924 1.524 . S
C925 C926 1.397 . S
C925 C930 1.363 . S
C926 H903 0.950 . S
C926 C925 1.397 . S
C926 C927 1.334 . S
C927 H904 0.950 . S
C927 C926 1.334 . S
C927 C928 1.287 . S
C928 C927 1.287 . S
C928 C929 1.524 . S
C928 H947 0.913 . S
C929 H905 0.950 . S
C929 C928 1.524 . S
C929 C930 1.415 . S
C930 H906 0.950 . S
C930 C925 1.363 . S
C930 C929 1.415 . S
C931 H907 0.951 . S
C931 C932 1.366 . S
C931 C933 1.388 . S
C932 C931 1.366 . S
C932 C936 1.385 . S
C933 H908 0.951 . S
C933 C931 1.388 . S
C933 C934 1.366 . S
C934 C933 1.366 . S
C934 C935 1.414 . S
C934 C937 1.499 . S
C935 H909 0.950 . S
C935 C934 1.414 . S
C935 C936 1.374 . S
C936 H910 0.950 . S
C936 C932 1.385 . S
C936 C935 1.374 . S
C937 C934 1.499 . S
C937 C938 1.373 . S
C937 C939 1.389 . S
C938 H911 0.950 . S
C938 C924 1.377 . S
C938 C937 1.373 . S
C939 C923 1.377 . S
C939 C937 1.389 . S
C939 C940 1.524 . S
C940 C939 1.524 . S
C940 C941 1.397 . S
C940 C945 1.363 . S
C941 H912 0.950 . S
C941 C940 1.397 . S
C941 C942 1.334 . S
C942 H913 0.950 . S
C942 C941 1.334 . S
C942 C943 1.287 . S
C943 C942 1.287 . S
C943 C944 1.524 . S
C943 H946 0.999 . S
C944 H914 0.950 . S
C944 C943 1.524 . S
C944 C945 1.415 . S
C945 H915 0.950 . S
C945 C940 1.363 . S
C945 C944 1.415 . S
H946 C943 0.999 . S
H947 C928 0.913 . S
H948 C966 0.951 . S
H949 C968 0.951 . S
H950 C970 0.950 . S
H951 C971 0.950 . S
H952 C973 0.950 . S
H953 C976 0.950 . S
H954 C977 0.950 . S
H955 C979 0.950 . S
H956 C980 0.950 . S
H957 C981 0.951 . S
H958 C983 0.951 . S
H959 C985 0.950 . S
H960 C986 0.950 . S
H961 C988 0.950 . S
H962 C991 0.950 . S
H963 C992 0.950 . S
H964 C994 0.950 . S
H965 C995 0.950 . S
C966 H948 0.951 . S
C966 C967 1.366 . S
C966 C968 1.388 . S
C967 C966 1.366 . S
C967 C971 1.385 . S
C968 H949 0.951 . S
C968 C966 1.388 . S
C968 C969 1.366 . S
C969 C968 1.366 . S
C969 C970 1.414 . S
C969 C972 1.499 . S
C970 H950 0.950 . S
C970 C969 1.414 . S
C970 C971 1.374 . S
C971 H951 0.950 . S
C971 C967 1.385 . S
C971 C970 1.374 . S
C972 C969 1.499 . S
C972 C973 1.373 . S
C972 C974 1.389 . S
C973 H952 0.950 . S
C973 C972 1.373 . S
C973 C989 1.377 . S
C974 C972 1.389 . S
C974 C975 1.524 . S
C974 C988 1.377 . S
C975 C974 1.524 . S
C975 C976 1.397 . S
C975 C980 1.363 . S
C976 H953 0.950 . S
C976 C975 1.397 . S
C976 C977 1.334 . S
C977 H954 0.950 . S
C977 C976 1.334 . S
C977 C978 1.287 . S
C978 C977 1.287 . S
C978 C979 1.524 . S
C978 H997 0.913 . S
C979 H955 0.950 . S
C979 C978 1.524 . S
C979 C980 1.415 . S
C980 H956 0.950 . S
C980 C975 1.363 . S
C980 C979 1.415 . S
C981 H957 0.951 . S
C981 C982 1.366 . S
C981 C983 1.388 . S
C982 C981 1.366 . S
C982 C986 1.385 . S
C983 H958 0.951 . S
C983 C981 1.388 . S
C983 C984 1.366 . S
C984 C983 1.366 . S
C984 C985 1.414 . S
C984 C987 1.499 . S
C985 H959 0.950 . S
C985 C984 1.414 . S
C985 C986 1.374 . S
C986 H960 0.950 . S
C986 C982 1.385 . S
C986 C985 1.374 . S
C987 C984 1.499 . S
C987 C988 1.373 . S
C987 C989 1.389 . S
C988 H961 0.950 . S
C988 C974 1.377 . S
C988 C987 1.373 . S
C989 C973 1.377 . S
C989 C987 1.389 . S
C989 C990 1.524 . S
C990 C989 1.524 . S
C990 C991 1.397 . S
C990 C995 1.363 . S
C991 H962 0.950 . S
C991 C990 1.397 . S
C991 C992 1.334 . S
C992 H963 0.950 . S
C992 C991 1.334 . S
C992 C993 1.287 . S
C993 C992 1.287 . S
C993 C994 1.524 . S
C993 H996 0.999 . S
C994 H964 0.950 . S
C994 C993 1.524 . S
C994 C995 1.415 . S
C995 H965 0.950 . S
C995 C990 1.363 . S
C995 C994 1.415 . S
H996 C993 0.999 . S
H997 C978 0.913 . S
H998 C1016 0.951 . S
H999 C1018 0.951 . S
H1000 C1020 0.950 . S
H1001 C1021 0.950 . S
H1002 C1023 0.950 . S
H1003 C1026 0.950 . S
H1004 C1027 0.950 . S
H1005 C1029 0.950 . S
H1006 C1030 0.950 . S
H1007 C1031 0.951 . S
H1008 C1033 0.951 . S
H1009 C1035 0.950 . S
H1010 C1036 0.950 . S
H1011 C1038 0.950 . S
H1012 C1041 0.950 . S
H1013 C1042 0.950 . S
H1014 C1044 0.950 . S
H1015 C1045 0.950 . S
C1016 H998 0.951 . S
C1016 C1017 1.366 . S
C1016 C1018 1.388 . S
C1017 C1016 1.366 . S
C1017 C1021 1.385 . S
C1018 H999 0.951 . S
C1018 C1016 1.388 . S
C1018 C1019 1.366 . S
C1019 C1018 1.366 . S
C1019 C1020 1.414 . S
C1019 C1022 1.499 . S
C1020 H1000 0.950 . S
C1020 C1019 1.414 . S
C1020 C1021 1.374 . S
C1021 H1001 0.950 . S
C1021 C1017 1.385 . S
C1021 C1020 1.374 . S
C1022 C1019 1.499 . S
C1022 C1023 1.373 . S
C1022 C1024 1.389 . S
C1023 H1002 0.950 . S
C1023 C1022 1.373 . S
C1023 C1039 1.377 . S
C1024 C1022 1.389 . S
C1024 C1025 1.524 . S
C1024 C1038 1.377 . S
C1025 C1024 1.524 . S
C1025 C1026 1.397 . S
C1025 C1030 1.363 . S
C1026 H1003 0.950 . S
C1026 C1025 1.397 . S
C1026 C1027 1.334 . S
C1027 H1004 0.950 . S
C1027 C1026 1.334 . S
C1027 C1028 1.287 . S
C1028 C1027 1.287 . S
C1028 C1029 1.524 . S
C1028 H1047 0.913 . S
C1029 H1005 0.950 . S
C1029 C1028 1.524 . S
C1029 C1030 1.415 . S
C1030 H1006 0.950 . S
C1030 C1025 1.363 . S
C1030 C1029 1.415 . S
C1031 H1007 0.951 . S
C1031 C1032 1.366 . S
C1031 C1033 1.388 . S
C1032 C1031 1.366 . S
C1032 C1036 1.385 . S
C1033 H1008 0.951 . S
C1033 C1031 1.388 . S
C1033 C1034 1.366 . S
C1034 C1033 1.366 . S
C1034 C1035 1.414 . S
C1034 C1037 1.499 . S
C1035 H1009 0.950 . S
C1035 C1034 1.414 . S
C1035 C1036 1.374 . S
C1036 H1010 0.950 . S
C1036 C1032 1.385 . S
C1036 C1035 1.374 . S
C1037 C1034 1.499 . S
C1037 C1038 1.373 . S
C1037 C1039 1.389 . S
C1038 H1011 0.950 . S
C1038 C1024 1.377 . S
C1038 C1037 1.373 . S
C1039 C1023 1.377 . S
C1039 C1037 1.389 . S
C1039 C1040 1.524 . S
C1040 C1039 1.524 . S
C1040 C1041 1.397 . S
C1040 C1045 1.363 . S
C1041 H1012 0.950 . S
C1041 C1040 1.397 . S
C1041 C1042 1.334 . S
C1042 H1013 0.950 . S
C1042 C1041 1.334 . S
C1042 C1043 1.287 . S
C1043 C1042 1.287 . S
C1043 C1044 1.524 . S
C1043 H1046 0.999 . S
C1044 H1014 0.950 . S
C1044 C1043 1.524 . S
C1044 C1045 1.415 . S
C1045 H1015 0.950 . S
C1045 C1040 1.363 . S
C1045 C1044 1.415 . S
H1046 C1043 0.999 . S
H1047 C1028 0.913 . S
H1048 C1066 0.951 . S
H1049 C1068 0.951 . S
H1050 C1070 0.950 . S
H1051 C1071 0.950 . S
H1052 C1073 0.950 . S
H1053 C1076 0.950 . S
H1054 C1077 0.950 . S
H1055 C1079 0.950 . S
H1056 C1080 0.950 . S
H1057 C1081 0.951 . S
H1058 C1083 0.951 . S
H1059 C1085 0.950 . S
H1060 C1086 0.950 . S
H1061 C1088 0.950 . S
H1062 C1091 0.950 . S
H1063 C1092 0.950 . S
H1064 C1094 0.950 . S
H1065 C1095 0.950 . S
C1066 H1048 0.951 . S
C1066 C1067 1.366 . S
C1066 C1068 1.388 . S
C1067 C1066 1.366 . S
C1067 C1071 1.385 . S
C1068 H1049 0.951 . S
C1068 C1066 1.388 . S
C1068 C1069 1.366 . S
C1069 C1068 1.366 . S
C1069 C1070 1.414 . S
C1069 C1072 1.499 . S
C1070 H1050 0.950 . S
C1070 C1069 1.414 . S
C1070 C1071 1.374 . S
C1071 H1051 0.950 . S
C1071 C1067 1.385 . S
C1071 C1070 1.374 . S
C1072 C1069 1.499 . S
C1072 C1073 1.373 1_565 S
C1072 C1074 1.389 . S
C1073 H1052 0.950 . S
C1073 C1072 1.373 1_545 S
C1073 C1089 1.377 . S
C1074 C1072 1.389 . S
C1074 C1075 1.524 . S
C1074 C1088 1.377 . S
C1075 C1074 1.524 . S
C1075 C1076 1.397 . S
C1075 C1080 1.363 . S
C1076 H1053 0.950 . S
C1076 C1075 1.397 . S
C1076 C1077 1.334 . S
C1077 H1054 0.950 . S
C1077 C1076 1.334 . S
C1077 C1078 1.287 . S
C1078 C1077 1.287 . S
C1078 C1079 1.524 . S
C1078 H1097 0.913 . S
C1079 H1055 0.950 . S
C1079 C1078 1.524 . S
C1079 C1080 1.415 . S
C1080 H1056 0.950 . S
C1080 C1075 1.363 . S
C1080 C1079 1.415 . S
C1081 H1057 0.951 . S
C1081 C1082 1.366 . S
C1081 C1083 1.388 . S
C1082 C1081 1.366 . S
C1082 C1086 1.385 . S
C1083 H1058 0.951 . S
C1083 C1081 1.388 . S
C1083 C1084 1.366 . S
C1084 C1083 1.366 . S
C1084 C1085 1.414 . S
C1084 C1087 1.499 . S
C1085 H1059 0.950 . S
C1085 C1084 1.414 . S
C1085 C1086 1.374 . S
C1086 H1060 0.950 . S
C1086 C1082 1.385 . S
C1086 C1085 1.374 . S
C1087 C1084 1.499 . S
C1087 C1088 1.373 1_545 S
C1087 C1089 1.389 . S
C1088 H1061 0.950 . S
C1088 C1074 1.377 . S
C1088 C1087 1.373 1_565 S
C1089 C1073 1.377 . S
C1089 C1087 1.389 . S
C1089 C1090 1.524 . S
C1090 C1089 1.524 . S
C1090 C1091 1.397 . S
C1090 C1095 1.363 . S
C1091 H1062 0.950 . S
C1091 C1090 1.397 . S
C1091 C1092 1.334 . S
C1092 H1063 0.950 . S
C1092 C1091 1.334 . S
C1092 C1093 1.287 . S
C1093 C1092 1.287 . S
C1093 C1094 1.524 . S
C1093 H1096 0.999 . S
C1094 H1064 0.950 . S
C1094 C1093 1.524 . S
C1094 C1095 1.415 . S
C1095 H1065 0.950 . S
C1095 C1090 1.363 . S
C1095 C1094 1.415 . S
H1096 C1093 0.999 . S
H1097 C1078 0.913 . S
H1098 C1116 0.951 . S
H1099 C1118 0.951 . S
H1100 C1120 0.950 1_554 S
H1101 C1121 0.968 . S
H1102 C1123 0.950 . S
H1103 C1126 0.950 1_565 S
H1104 C1127 0.950 . S
H1105 C1129 0.950 . S
H1106 C1130 0.950 . S
H1107 C1131 0.951 . S
H1108 C1133 0.951 . S
H1109 C1135 0.950 1_556 S
H1110 C1136 0.968 . S
H1111 C1138 0.950 . S
H1112 C1141 0.950 1_545 S
H1113 C1142 0.950 . S
H1114 C1144 0.950 . S
H1115 C1145 0.950 . S
C1116 H1098 0.951 . S
C1116 C1117 1.366 . S
C1116 C1118 1.388 . S
C1117 C1116 1.366 . S
C1117 C1121 1.385 . S
C1118 H1099 0.951 . S
C1118 C1116 1.388 . S
C1118 C1119 1.366 . S
C1119 C1118 1.366 . S
C1119 C1120 1.414 . S
C1119 C1122 1.499 . S
C1120 H1100 0.950 1_556 S
C1120 C1119 1.414 . S
C1120 C1121 1.374 . S
C1121 H1101 0.968 . S
C1121 C1117 1.385 . S
C1121 C1120 1.374 . S
C1122 C1119 1.499 . S
C1122 C1123 1.373 1_456 S
C1122 C1124 1.389 1_565 S
C1123 H1102 0.950 . S
C1123 C1122 1.373 1_654 S
C1123 C1139 1.377 . S
C1124 C1122 1.389 1_545 S
C1124 C1125 1.524 . S
C1124 C1138 1.377 . S
C1125 C1124 1.524 . S
C1125 C1126 1.397 . S
C1125 C1130 1.363 . S
C1126 H1103 0.950 1_545 S
C1126 C1125 1.397 . S
C1126 C1127 1.334 . S
C1127 H1104 0.950 . S
C1127 C1126 1.334 . S
C1127 C1128 1.287 . S
C1128 C1127 1.287 . S
C1128 C1129 1.524 . S
C1128 H1147 0.913 . S
C1129 H1105 0.950 . S
C1129 C1128 1.524 . S
C1129 C1130 1.415 . S
C1130 H1106 0.950 . S
C1130 C1125 1.363 . S
C1130 C1129 1.415 . S
C1131 H1107 0.951 . S
C1131 C1132 1.366 . S
C1131 C1133 1.388 . S
C1132 C1131 1.366 . S
C1132 C1136 1.385 . S
C1133 H1108 0.951 . S
C1133 C1131 1.388 . S
C1133 C1134 1.366 . S
C1134 C1133 1.366 . S
C1134 C1135 1.414 . S
C1134 C1137 1.499 . S
C1135 H1109 0.950 1_554 S
C1135 C1134 1.414 . S
C1135 C1136 1.374 . S
C1136 H1110 0.968 . S
C1136 C1132 1.385 . S
C1136 C1135 1.374 . S
C1137 C1134 1.499 . S
C1137 C1138 1.373 1_654 S
C1137 C1139 1.389 1_545 S
C1138 H1111 0.950 . S
C1138 C1124 1.377 . S
C1138 C1137 1.373 1_456 S
C1139 C1123 1.377 . S
C1139 C1137 1.389 1_565 S
C1139 C1140 1.524 . S
C1140 C1139 1.524 . S
C1140 C1141 1.397 . S
C1140 C1145 1.363 . S
C1141 H1112 0.950 1_565 S
C1141 C1140 1.397 . S
C1141 C1142 1.334 . S
C1142 H1113 0.950 . S
C1142 C1141 1.334 . S
C1142 C1143 1.287 . S
C1143 C1142 1.287 . S
C1143 C1144 1.524 . S
C1143 H1146 0.999 . S
C1144 H1114 0.950 . S
C1144 C1143 1.524 . S
C1144 C1145 1.415 . S
C1145 H1115 0.950 . S
C1145 C1140 1.363 . S
C1145 C1144 1.415 . S
H1146 C1143 0.999 . S
H1147 C1128 0.913 . S
H1148 C1166 0.951 . S
H1149 C1168 0.951 . S
H1150 C1170 0.950 . S
H1151 C1171 0.950 . S
H1152 C1173 0.950 . S
H1153 C1176 0.950 . S
H1154 C1177 0.950 . S
H1155 C1179 0.950 . S
H1156 C1180 0.950 . S
H1157 C1181 0.951 . S
H1158 C1183 0.951 . S
H1159 C1185 0.950 . S
H1160 C1186 0.950 . S
H1161 C1188 0.950 . S
H1162 C1191 0.950 . S
H1163 C1192 0.950 . S
H1164 C1194 0.950 . S
H1165 C1195 0.950 . S
C1166 H1148 0.951 . S
C1166 C1167 1.366 . S
C1166 C1168 1.388 . S
C1167 C1166 1.366 . S
C1167 C1171 1.385 . S
C1168 H1149 0.951 . S
C1168 C1166 1.388 . S
C1168 C1169 1.366 . S
C1169 C1168 1.366 . S
C1169 C1170 1.414 . S
C1169 C1172 1.499 . S
C1170 H1150 0.950 . S
C1170 C1169 1.414 . S
C1170 C1171 1.374 . S
C1171 H1151 0.950 . S
C1171 C1167 1.385 . S
C1171 C1170 1.374 . S
C1172 C1169 1.499 . S
C1172 C1173 1.373 1_556 S
C1172 C1174 1.350 1_545 S
C1173 H1152 0.950 . S
C1173 C1172 1.373 1_554 S
C1173 C1189 1.414 . S
C1174 C1172 1.350 1_565 S
C1174 C1175 1.529 . S
C1174 C1188 1.414 . S
C1175 C1174 1.529 . S
C1175 C1176 1.397 1_565 S
C1175 C1180 1.363 . S
C1176 H1153 0.950 . S
C1176 C1175 1.397 1_545 S
C1176 C1177 1.334 . S
C1177 H1154 0.950 . S
C1177 C1176 1.334 . S
C1177 C1178 1.287 1_545 S
C1178 C1177 1.287 1_565 S
C1178 C1179 1.524 . S
C1178 H1197 0.913 . S
C1179 H1155 0.950 . S
C1179 C1178 1.524 . S
C1179 C1180 1.415 . S
C1180 H1156 0.950 . S
C1180 C1175 1.363 . S
C1180 C1179 1.415 . S
C1181 H1157 0.951 . S
C1181 C1182 1.366 . S
C1181 C1183 1.388 . S
C1182 C1181 1.366 . S
C1182 C1186 1.385 . S
C1183 H1158 0.951 . S
C1183 C1181 1.388 . S
C1183 C1184 1.366 . S
C1184 C1183 1.366 . S
C1184 C1185 1.414 . S
C1184 C1187 1.499 . S
C1185 H1159 0.950 . S
C1185 C1184 1.414 . S
C1185 C1186 1.374 . S
C1186 H1160 0.950 . S
C1186 C1182 1.385 . S
C1186 C1185 1.374 . S
C1187 C1184 1.499 . S
C1187 C1188 1.373 1_554 S
C1187 C1189 1.350 1_565 S
C1188 H1161 0.950 . S
C1188 C1174 1.414 . S
C1188 C1187 1.373 1_556 S
C1189 C1173 1.414 . S
C1189 C1187 1.350 1_545 S
C1189 C1190 1.529 . S
C1190 C1189 1.529 . S
C1190 C1191 1.397 1_545 S
C1190 C1195 1.363 . S
C1191 H1162 0.950 . S
C1191 C1190 1.397 1_565 S
C1191 C1192 1.334 . S
C1192 H1163 0.950 . S
C1192 C1191 1.334 . S
C1192 C1193 1.287 1_565 S
C1193 C1192 1.287 1_545 S
C1193 C1194 1.524 . S
C1193 H1196 0.999 . S
C1194 H1164 0.950 . S
C1194 C1193 1.524 . S
C1194 C1195 1.415 . S
C1195 H1165 0.950 . S
C1195 C1190 1.363 . S
C1195 C1194 1.415 . S
H1196 C1193 0.999 . S
H1197 C1178 0.913 . S
H1198 C1216 0.951 . S
H1199 C1218 0.951 . S
H1200 C1220 0.950 . S
H1201 C1221 0.950 . S
H1202 C1223 0.950 . S
H1203 C1226 0.950 . S
H1204 C1227 0.950 . S
H1205 C1229 0.950 . S
H1206 C1230 0.950 . S
H1207 C1231 0.951 . S
H1208 C1233 0.951 . S
H1209 C1235 0.950 . S
H1210 C1236 0.950 . S
H1211 C1238 0.950 . S
H1212 C1241 0.950 . S
H1213 C1242 0.950 . S
H1214 C1244 0.950 . S
H1215 C1245 0.950 . S
C1216 H1198 0.951 . S
C1216 C1217 1.366 . S
C1216 C1218 1.388 . S
C1217 C1216 1.366 . S
C1217 C1221 1.385 . S
C1218 H1199 0.951 . S
C1218 C1216 1.388 . S
C1218 C1219 1.366 . S
C1219 C1218 1.366 . S
C1219 C1220 1.414 . S
C1219 C1222 1.499 . S
C1220 H1200 0.950 . S
C1220 C1219 1.414 . S
C1220 C1221 1.374 . S
C1221 H1201 0.950 . S
C1221 C1217 1.385 . S
C1221 C1220 1.374 . S
C1222 C1219 1.499 . S
C1222 C1223 1.373 . S
C1222 C1224 1.389 . S
C1223 H1202 0.950 . S
C1223 C1222 1.373 . S
C1223 C1239 1.377 1_445 S
C1224 C1222 1.389 . S
C1224 C1225 1.524 . S
C1224 C1238 1.377 1_445 S
C1225 C1224 1.524 . S
C1225 C1226 1.397 . S
C1225 C1230 1.363 . S
C1226 H1203 0.950 . S
C1226 C1225 1.397 . S
C1226 C1227 1.334 . S
C1227 H1204 0.950 . S
C1227 C1226 1.334 . S
C1227 C1228 1.287 . S
C1228 C1227 1.287 . S
C1228 C1229 1.524 . S
C1228 H1247 0.913 . S
C1229 H1205 0.950 . S
C1229 C1228 1.524 . S
C1229 C1230 1.415 . S
C1230 H1206 0.950 . S
C1230 C1225 1.363 . S
C1230 C1229 1.415 . S
C1231 H1207 0.951 . S
C1231 C1232 1.366 . S
C1231 C1233 1.388 . S
C1232 C1231 1.366 . S
C1232 C1236 1.385 . S
C1233 H1208 0.951 . S
C1233 C1231 1.388 . S
C1233 C1234 1.366 . S
C1234 C1233 1.366 . S
C1234 C1235 1.414 . S
C1234 C1237 1.499 . S
C1235 H1209 0.950 . S
C1235 C1234 1.414 . S
C1235 C1236 1.374 . S
C1236 H1210 0.950 . S
C1236 C1232 1.385 . S
C1236 C1235 1.374 . S
C1237 C1234 1.499 . S
C1237 C1238 1.373 . S
C1237 C1239 1.389 . S
C1238 H1211 0.950 . S
C1238 C1224 1.377 1_665 S
C1238 C1237 1.373 . S
C1239 C1223 1.377 1_665 S
C1239 C1237 1.389 . S
C1239 C1240 1.524 . S
C1240 C1239 1.524 . S
C1240 C1241 1.397 . S
C1240 C1245 1.363 . S
C1241 H1212 0.950 . S
C1241 C1240 1.397 . S
C1241 C1242 1.334 . S
C1242 H1213 0.950 . S
C1242 C1241 1.334 . S
C1242 C1243 1.287 . S
C1243 C1242 1.287 . S
C1243 C1244 1.524 . S
C1243 H1246 0.999 . S
C1244 H1214 0.950 . S
C1244 C1243 1.524 . S
C1244 C1245 1.415 . S
C1245 H1215 0.950 . S
C1245 C1240 1.363 . S
C1245 C1244 1.415 . S
H1246 C1243 0.999 . S
H1247 C1228 0.913 . S
H1248 C1266 0.951 . S
H1249 C1268 0.951 . S
H1250 C1270 0.950 . S
H1251 C1271 0.950 . S
H1252 C1273 0.950 . S
H1253 C1276 0.950 . S
H1254 C1277 0.950 . S
H1255 C1279 0.950 . S
H1256 C1280 0.950 . S
H1257 C1281 0.951 . S
H1258 C1283 0.951 . S
H1259 C1285 0.950 . S
H1260 C1286 0.950 . S
H1261 C1288 0.950 . S
H1262 C1291 0.949 1_554 S
H1263 C1292 0.950 . S
H1264 C1294 0.950 . S
H1265 C1295 0.950 . S
C1266 H1248 0.951 . S
C1266 C1267 1.366 . S
C1266 C1268 1.388 . S
C1267 C1266 1.366 . S
C1267 C1271 1.385 . S
C1268 H1249 0.951 . S
C1268 C1266 1.388 . S
C1268 C1269 1.366 . S
C1269 C1268 1.366 . S
C1269 C1270 1.414 . S
C1269 C1272 1.499 . S
C1270 H1250 0.950 . S
C1270 C1269 1.414 . S
C1270 C1271 1.374 . S
C1271 H1251 0.950 . S
C1271 C1267 1.385 . S
C1271 C1270 1.374 . S
C1272 C1269 1.499 . S
C1272 C1273 1.373 . S
C1272 C1274 1.393 1_655 S
C1273 H1252 0.950 . S
C1273 C1272 1.373 . S
C1273 C1289 1.373 . S
C1274 C1272 1.393 1_455 S
C1274 C1275 1.524 . S
C1274 C1288 1.373 . S
C1275 C1274 1.524 . S
C1275 C1276 1.389 1_455 S
C1275 C1280 1.370 . S
C1276 H1253 0.950 . S
C1276 C1275 1.389 1_655 S
C1276 C1277 1.334 . S
C1277 H1254 0.950 . S
C1277 C1276 1.334 . S
C1277 C1278 1.287 . S
C1278 C1277 1.287 . S
C1278 C1279 1.524 1_655 S
C1278 H1297 0.913 . S
C1279 H1255 0.950 . S
C1279 C1278 1.524 1_455 S
C1279 C1280 1.415 . S
C1280 H1256 0.950 . S
C1280 C1275 1.370 . S
C1280 C1279 1.415 . S
C1281 H1257 0.951 . S
C1281 C1282 1.366 . S
C1281 C1283 1.388 . S
C1282 C1281 1.366 . S
C1282 C1286 1.385 . S
C1283 H1258 0.951 . S
C1283 C1281 1.388 . S
C1283 C1284 1.366 . S
C1284 C1283 1.366 . S
C1284 C1285 1.414 . S
C1284 C1287 1.499 . S
C1285 H1259 0.950 . S
C1285 C1284 1.414 . S
C1285 C1286 1.374 . S
C1286 H1260 0.950 . S
C1286 C1282 1.385 . S
C1286 C1285 1.374 . S
C1287 C1284 1.499 . S
C1287 C1288 1.373 . S
C1287 C1289 1.393 1_455 S
C1288 H1261 0.950 . S
C1288 C1274 1.373 . S
C1288 C1287 1.373 . S
C1289 C1273 1.373 . S
C1289 C1287 1.393 1_655 S
C1289 C1290 1.524 . S
C1290 C1289 1.524 . S
C1290 C1291 1.389 1_654 S
C1290 C1295 1.370 . S
C1291 H1262 0.949 1_556 S
C1291 C1290 1.389 1_456 S
C1291 C1292 1.335 . S
C1292 H1263 0.950 . S
C1292 C1291 1.335 . S
C1292 C1293 1.287 . S
C1293 C1292 1.287 . S
C1293 C1294 1.524 1_455 S
C1293 H1296 0.999 . S
C1294 H1264 0.950 . S
C1294 C1293 1.524 1_655 S
C1294 C1295 1.415 1_556 S
C1295 H1265 0.950 . S
C1295 C1290 1.370 . S
C1295 C1294 1.415 1_554 S
H1296 C1293 0.999 . S
H1297 C1278 0.913 . S
H1298 C1316 0.951 . S
H1299 C1318 0.951 . S
H1300 C1320 0.950 . S
H1301 C1321 0.950 . S
H1302 C1323 0.950 . S
H1303 C1326 0.950 . S
H1304 C1327 0.950 . S
H1305 C1329 0.950 . S
H1306 C1330 0.950 . S
H1307 C1331 0.951 . S
H1308 C1333 0.951 . S
H1309 C1335 0.950 . S
H1310 C1336 0.950 . S
H1311 C1338 0.950 . S
H1312 C1341 0.950 . S
H1313 C1342 0.950 . S
H1314 C1344 0.950 . S
H1315 C1345 0.950 . S
C1316 H1298 0.951 . S
C1316 C1317 1.366 . S
C1316 C1318 1.388 . S
C1317 C1316 1.366 . S
C1317 C1321 1.385 . S
C1318 H1299 0.951 . S
C1318 C1316 1.388 . S
C1318 C1319 1.366 . S
C1319 C1318 1.366 . S
C1319 C1320 1.414 . S
C1319 C1322 1.499 . S
C1320 H1300 0.950 . S
C1320 C1319 1.414 . S
C1320 C1321 1.374 . S
C1321 H1301 0.950 . S
C1321 C1317 1.385 . S
C1321 C1320 1.374 . S
C1322 C1319 1.499 . S
C1322 C1323 1.360 1_455 S
C1322 C1324 1.389 . S
C1323 H1302 0.950 . S
C1323 C1322 1.360 1_655 S
C1323 C1339 1.389 . S
C1324 C1322 1.389 . S
C1324 C1325 1.524 . S
C1324 C1338 1.389 . S
C1325 C1324 1.524 . S
C1325 C1326 1.397 . S
C1325 C1330 1.363 . S
C1326 H1303 0.950 . S
C1326 C1325 1.397 . S
C1326 C1327 1.334 . S
C1327 H1304 0.950 . S
C1327 C1326 1.334 . S
C1327 C1328 1.287 . S
C1328 C1327 1.287 . S
C1328 C1329 1.524 . S
C1328 H1347 0.913 . S
C1329 H1305 0.950 . S
C1329 C1328 1.524 . S
C1329 C1330 1.415 . S
C1330 H1306 0.950 . S
C1330 C1325 1.363 . S
C1330 C1329 1.415 . S
C1331 H1307 0.951 . S
C1331 C1332 1.366 . S
C1331 C1333 1.388 . S
C1332 C1331 1.366 . S
C1332 C1336 1.385 . S
C1333 H1308 0.951 . S
C1333 C1331 1.388 . S
C1333 C1334 1.366 . S
C1334 C1333 1.366 . S
C1334 C1335 1.414 . S
C1334 C1337 1.499 . S
C1335 H1309 0.950 . S
C1335 C1334 1.414 . S
C1335 C1336 1.374 . S
C1336 H1310 0.950 . S
C1336 C1332 1.385 . S
C1336 C1335 1.374 . S
C1337 C1334 1.499 . S
C1337 C1338 1.360 1_655 S
C1337 C1339 1.389 . S
C1338 H1311 0.950 . S
C1338 C1324 1.389 . S
C1338 C1337 1.360 1_455 S
C1339 C1323 1.389 . S
C1339 C1337 1.389 . S
C1339 C1340 1.524 . S
C1340 C1339 1.524 . S
C1340 C1341 1.397 . S
C1340 C1345 1.363 . S
C1341 H1312 0.950 . S
C1341 C1340 1.397 . S
C1341 C1342 1.334 . S
C1342 H1313 0.950 . S
C1342 C1341 1.334 . S
C1342 C1343 1.287 . S
C1343 C1342 1.287 . S
C1343 C1344 1.524 . S
C1343 H1346 0.999 . S
C1344 H1314 0.950 . S
C1344 C1343 1.524 . S
C1344 C1345 1.415 . S
C1345 H1315 0.950 . S
C1345 C1340 1.363 . S
C1345 C1344 1.415 . S
H1346 C1343 0.999 . S
H1347 C1328 0.913 . S
H1348 C1366 0.951 . S
H1349 C1368 0.951 . S
H1350 C1370 0.950 . S
H1351 C1371 0.950 . S
H1352 C1373 0.950 . S
H1353 C1376 0.950 . S
H1354 C1377 0.950 . S
H1355 C1379 0.950 . S
H1356 C1380 0.950 . S
H1357 C1381 0.951 . S
H1358 C1383 0.951 . S
H1359 C1385 0.950 . S
H1360 C1386 0.950 . S
H1361 C1388 0.950 . S
H1362 C1391 0.950 . S
H1363 C1392 0.950 . S
H1364 C1394 0.950 . S
H1365 C1395 0.950 . S
C1366 H1348 0.951 . S
C1366 C1367 1.366 . S
C1366 C1368 1.388 . S
C1367 C1366 1.366 . S
C1367 C1371 1.385 . S
C1368 H1349 0.951 . S
C1368 C1366 1.388 . S
C1368 C1369 1.366 . S
C1369 C1368 1.366 . S
C1369 C1370 1.414 . S
C1369 C1372 1.499 . S
C1370 H1350 0.950 . S
C1370 C1369 1.414 . S
C1370 C1371 1.374 . S
C1371 H1351 0.950 . S
C1371 C1367 1.385 . S
C1371 C1370 1.374 . S
C1372 C1369 1.499 . S
C1372 C1373 1.373 . S
C1372 C1374 1.389 . S
C1373 H1352 0.950 . S
C1373 C1372 1.373 . S
C1373 C1389 1.377 . S
C1374 C1372 1.389 . S
C1374 C1375 1.524 . S
C1374 C1388 1.377 . S
C1375 C1374 1.524 . S
C1375 C1376 1.397 . S
C1375 C1380 1.363 . S
C1376 H1353 0.950 . S
C1376 C1375 1.397 . S
C1376 C1377 1.334 . S
C1377 H1354 0.950 . S
C1377 C1376 1.334 . S
C1377 C1378 1.287 . S
C1378 C1377 1.287 . S
C1378 C1379 1.524 . S
C1378 H1397 0.913 . S
C1379 H1355 0.950 . S
C1379 C1378 1.524 . S
C1379 C1380 1.415 . S
C1380 H1356 0.950 . S
C1380 C1375 1.363 . S
C1380 C1379 1.415 . S
C1381 H1357 0.951 . S
C1381 C1382 1.366 . S
C1381 C1383 1.388 . S
C1382 C1381 1.366 . S
C1382 C1386 1.385 . S
C1383 H1358 0.951 . S
C1383 C1381 1.388 . S
C1383 C1384 1.366 . S
C1384 C1383 1.366 . S
C1384 C1385 1.414 . S
C1384 C1387 1.499 . S
C1385 H1359 0.950 . S
C1385 C1384 1.414 . S
C1385 C1386 1.374 . S
C1386 H1360 0.950 . S
C1386 C1382 1.385 . S
C1386 C1385 1.374 . S
C1387 C1384 1.499 . S
C1387 C1388 1.373 . S
C1387 C1389 1.389 . S
C1388 H1361 0.950 . S
C1388 C1374 1.377 . S
C1388 C1387 1.373 . S
C1389 C1373 1.377 . S
C1389 C1387 1.389 . S
C1389 C1390 1.524 . S
C1390 C1389 1.524 . S
C1390 C1391 1.397 . S
C1390 C1395 1.363 . S
C1391 H1362 0.950 . S
C1391 C1390 1.397 . S
C1391 C1392 1.334 . S
C1392 H1363 0.950 . S
C1392 C1391 1.334 . S
C1392 C1393 1.287 . S
C1393 C1392 1.287 . S
C1393 C1394 1.524 . S
C1393 H1396 0.999 . S
C1394 H1364 0.950 . S
C1394 C1393 1.524 . S
C1394 C1395 1.415 . S
C1395 H1365 0.950 . S
C1395 C1390 1.363 . S
C1395 C1394 1.415 . S
H1396 C1393 0.999 . S
H1397 C1378 0.913 . S
H1398 C1416 0.951 . S
H1399 C1418 0.951 . S
H1400 C1420 0.950 . S
H1401 C1421 0.950 . S
H1402 C1423 0.950 . S
H1403 C1426 0.950 . S
H1404 C1427 0.950 . S
H1405 C1429 0.950 . S
H1406 C1430 0.950 . S
H1407 C1431 0.951 . S
H1408 C1433 0.951 . S
H1409 C1435 0.950 . S
H1410 C1436 0.950 . S
H1411 C1438 0.950 . S
H1412 C1441 0.950 . S
H1413 C1442 0.950 . S
H1414 C1444 0.950 . S
H1415 C1445 0.950 . S
C1416 H1398 0.951 . S
C1416 C1417 1.366 . S
C1416 C1418 1.388 . S
C1417 C1416 1.366 . S
C1417 C1421 1.385 . S
C1418 H1399 0.951 . S
C1418 C1416 1.388 . S
C1418 C1419 1.366 . S
C1419 C1418 1.366 . S
C1419 C1420 1.414 . S
C1419 C1422 1.499 . S
C1420 H1400 0.950 . S
C1420 C1419 1.414 . S
C1420 C1421 1.374 . S
C1421 H1401 0.950 . S
C1421 C1417 1.385 . S
C1421 C1420 1.374 . S
C1422 C1419 1.499 . S
C1422 C1423 1.373 . S
C1422 C1424 1.389 . S
C1423 H1402 0.950 . S
C1423 C1422 1.373 . S
C1423 C1439 1.377 . S
C1424 C1422 1.389 . S
C1424 C1425 1.524 . S
C1424 C1438 1.377 . S
C1425 C1424 1.524 . S
C1425 C1426 1.397 . S
C1425 C1430 1.363 . S
C1426 H1403 0.950 . S
C1426 C1425 1.397 . S
C1426 C1427 1.334 . S
C1427 H1404 0.950 . S
C1427 C1426 1.334 . S
C1427 C1428 1.287 . S
C1428 C1427 1.287 . S
C1428 C1429 1.524 . S
C1428 H1447 0.913 . S
C1429 H1405 0.950 . S
C1429 C1428 1.524 . S
C1429 C1430 1.415 . S
C1430 H1406 0.950 . S
C1430 C1425 1.363 . S
C1430 C1429 1.415 . S
C1431 H1407 0.951 . S
C1431 C1432 1.366 . S
C1431 C1433 1.388 . S
C1432 C1431 1.366 . S
C1432 C1436 1.385 . S
C1433 H1408 0.951 . S
C1433 C1431 1.388 . S
C1433 C1434 1.366 . S
C1434 C1433 1.366 . S
C1434 C1435 1.414 . S
C1434 C1437 1.499 . S
C1435 H1409 0.950 . S
C1435 C1434 1.414 . S
C1435 C1436 1.374 . S
C1436 H1410 0.950 . S
C1436 C1432 1.385 . S
C1436 C1435 1.374 . S
C1437 C1434 1.499 . S
C1437 C1438 1.373 . S
C1437 C1439 1.389 . S
C1438 H1411 0.950 . S
C1438 C1424 1.377 . S
C1438 C1437 1.373 . S
C1439 C1423 1.377 . S
C1439 C1437 1.389 . S
C1439 C1440 1.524 . S
C1440 C1439 1.524 . S
C1440 C1441 1.397 . S
C1440 C1445 1.363 . S
C1441 H1412 0.950 . S
C1441 C1440 1.397 . S
C1441 C1442 1.334 . S
C1442 H1413 0.950 . S
C1442 C1441 1.334 . S
C1442 C1443 1.287 . S
C1443 C1442 1.287 . S
C1443 C1444 1.524 . S
C1443 H1446 0.999 . S
C1444 H1414 0.950 . S
C1444 C1443 1.524 . S
C1444 C1445 1.415 . S
C1445 H1415 0.950 . S
C1445 C1440 1.363 . S
C1445 C1444 1.415 . S
H1446 C1443 0.999 . S
H1447 C1428 0.913 . S
H1448 C1466 0.951 . S
H1449 C1468 0.951 . S
H1450 C1470 0.950 . S
H1451 C1471 0.950 . S
H1452 C1473 0.950 . S
H1453 C1476 0.950 . S
H1454 C1477 0.950 . S
H1455 C1479 0.950 . S
H1456 C1480 0.950 . S
H1457 C1481 0.951 . S
H1458 C1483 0.951 . S
H1459 C1485 0.950 . S
H1460 C1486 0.950 . S
H1461 C1488 0.950 . S
H1462 C1491 0.950 . S
H1463 C1492 0.950 . S
H1464 C1494 0.950 . S
H1465 C1495 0.950 . S
C1466 H1448 0.951 . S
C1466 C1467 1.366 . S
C1466 C1468 1.388 . S
C1467 C1466 1.366 . S
C1467 C1471 1.385 . S
C1468 H1449 0.951 . S
C1468 C1466 1.388 . S
C1468 C1469 1.366 . S
C1469 C1468 1.366 . S
C1469 C1470 1.414 . S
C1469 C1472 1.499 . S
C1470 H1450 0.950 . S
C1470 C1469 1.414 . S
C1470 C1471 1.374 . S
C1471 H1451 0.950 . S
C1471 C1467 1.385 . S
C1471 C1470 1.374 . S
C1472 C1469 1.499 . S
C1472 C1473 1.373 . S
C1472 C1474 1.389 . S
C1473 H1452 0.950 . S
C1473 C1472 1.373 . S
C1473 C1489 1.377 1_655 S
C1474 C1472 1.389 . S
C1474 C1475 1.524 . S
C1474 C1488 1.377 1_655 S
C1475 C1474 1.524 . S
C1475 C1476 1.397 . S
C1475 C1480 1.363 1_655 S
C1476 H1453 0.950 . S
C1476 C1475 1.397 . S
C1476 C1477 1.334 . S
C1477 H1454 0.950 . S
C1477 C1476 1.334 . S
C1477 C1478 1.287 . S
C1478 C1477 1.287 . S
C1478 C1479 1.524 1_655 S
C1478 H1497 0.913 . S
C1479 H1455 0.950 . S
C1479 C1478 1.524 1_455 S
C1479 C1480 1.415 . S
C1480 H1456 0.950 . S
C1480 C1475 1.363 1_455 S
C1480 C1479 1.415 . S
C1481 H1457 0.951 . S
C1481 C1482 1.366 . S
C1481 C1483 1.388 . S
C1482 C1481 1.366 . S
C1482 C1486 1.385 . S
C1483 H1458 0.951 . S
C1483 C1481 1.388 . S
C1483 C1484 1.366 . S
C1484 C1483 1.366 . S
C1484 C1485 1.414 . S
C1484 C1487 1.499 . S
C1485 H1459 0.950 . S
C1485 C1484 1.414 . S
C1485 C1486 1.374 . S
C1486 H1460 0.950 . S
C1486 C1482 1.385 . S
C1486 C1485 1.374 . S
C1487 C1484 1.499 . S
C1487 C1488 1.373 . S
C1487 C1489 1.389 . S
C1488 H1461 0.950 . S
C1488 C1474 1.377 1_455 S
C1488 C1487 1.373 . S
C1489 C1473 1.377 1_455 S
C1489 C1487 1.389 . S
C1489 C1490 1.524 . S
C1490 C1489 1.524 . S
C1490 C1491 1.397 . S
C1490 C1495 1.363 1_455 S
C1491 H1462 0.950 . S
C1491 C1490 1.397 . S
C1491 C1492 1.334 . S
C1492 H1463 0.950 . S
C1492 C1491 1.334 . S
C1492 C1493 1.287 . S
C1493 C1492 1.287 . S
C1493 C1494 1.524 1_455 S
C1493 H1496 0.999 . S
C1494 H1464 0.950 . S
C1494 C1493 1.524 1_655 S
C1494 C1495 1.415 . S
C1495 H1465 0.950 . S
C1495 C1490 1.363 1_655 S
C1495 C1494 1.415 . S
H1496 C1493 0.999 . S
H1497 C1478 0.913 . S
H1498 C1516 0.951 . S
H1499 C1518 0.951 . S
H1500 C1520 0.950 . S
H1501 C1521 0.950 . S
H1502 C1523 0.950 . S
H1503 C1526 0.950 . S
H1504 C1527 0.950 . S
H1505 C1529 0.950 . S
H1506 C1530 0.950 . S
H1507 C1531 0.951 . S
H1508 C1533 0.951 . S
H1509 C1535 0.950 . S
H1510 C1536 0.950 . S
H1511 C1538 0.950 . S
H1512 C1541 0.950 . S
H1513 C1542 0.950 . S
H1514 C1544 0.950 . S
H1515 C1545 0.950 . S
C1516 H1498 0.951 . S
C1516 C1517 1.366 . S
C1516 C1518 1.388 . S
C1517 C1516 1.366 . S
C1517 C1521 1.385 . S
C1518 H1499 0.951 . S
C1518 C1516 1.388 . S
C1518 C1519 1.366 . S
C1519 C1518 1.366 . S
C1519 C1520 1.414 . S
C1519 C1522 1.499 . S
C1520 H1500 0.950 . S
C1520 C1519 1.414 . S
C1520 C1521 1.374 . S
C1521 H1501 0.950 . S
C1521 C1517 1.385 . S
C1521 C1520 1.374 . S
C1522 C1519 1.499 . S
C1522 C1523 1.373 . S
C1522 C1524 1.389 . S
C1523 H1502 0.950 . S
C1523 C1522 1.373 . S
C1523 C1539 1.377 . S
C1524 C1522 1.389 . S
C1524 C1525 1.524 . S
C1524 C1538 1.377 . S
C1525 C1524 1.524 . S
C1525 C1526 1.397 . S
C1525 C1530 1.363 . S
C1526 H1503 0.950 . S
C1526 C1525 1.397 . S
C1526 C1527 1.334 . S
C1527 H1504 0.950 . S
C1527 C1526 1.334 . S
C1527 C1528 1.287 . S
C1528 C1527 1.287 . S
C1528 C1529 1.524 . S
C1528 H1547 0.913 . S
C1529 H1505 0.950 . S
C1529 C1528 1.524 . S
C1529 C1530 1.415 . S
C1530 H1506 0.950 . S
C1530 C1525 1.363 . S
C1530 C1529 1.415 . S
C1531 H1507 0.951 . S
C1531 C1532 1.366 . S
C1531 C1533 1.388 . S
C1532 C1531 1.366 . S
C1532 C1536 1.385 . S
C1533 H1508 0.951 . S
C1533 C1531 1.388 . S
C1533 C1534 1.366 . S
C1534 C1533 1.366 . S
C1534 C1535 1.414 . S
C1534 C1537 1.499 . S
C1535 H1509 0.950 . S
C1535 C1534 1.414 . S
C1535 C1536 1.374 . S
C1536 H1510 0.950 . S
C1536 C1532 1.385 . S
C1536 C1535 1.374 . S
C1537 C1534 1.499 . S
C1537 C1538 1.373 . S
C1537 C1539 1.389 . S
C1538 H1511 0.950 . S
C1538 C1524 1.377 . S
C1538 C1537 1.373 . S
C1539 C1523 1.377 . S
C1539 C1537 1.389 . S
C1539 C1540 1.524 . S
C1540 C1539 1.524 . S
C1540 C1541 1.397 . S
C1540 C1545 1.363 . S
C1541 H1512 0.950 . S
C1541 C1540 1.397 . S
C1541 C1542 1.334 . S
C1542 H1513 0.950 . S
C1542 C1541 1.334 . S
C1542 C1543 1.287 . S
C1543 C1542 1.287 . S
C1543 C1544 1.524 . S
C1543 H1546 0.999 . S
C1544 H1514 0.950 . S
C1544 C1543 1.524 . S
C1544 C1545 1.415 . S
C1545 H1515 0.950 . S
C1545 C1540 1.363 . S
C1545 C1544 1.415 . S
H1546 C1543 0.999 . S
H1547 C1528 0.913 . S
H1548 C1566 0.951 . S
H1549 C1568 0.951 . S
H1550 C1570 0.950 . S
H1551 C1571 0.950 . S
H1552 C1573 0.950 . S
H1553 C1576 0.950 . S
H1554 C1577 0.950 . S
H1555 C1579 0.950 . S
H1556 C1580 0.950 . S
H1557 C1581 0.951 . S
H1558 C1583 0.951 . S
H1559 C1585 0.950 . S
H1560 C1586 0.950 . S
H1561 C1588 0.950 . S
H1562 C1591 0.966 . S
H1563 C1592 0.950 . S
H1564 C1594 0.950 . S
H1565 C1595 0.950 . S
C1566 H1548 0.951 . S
C1566 C1567 1.366 . S
C1566 C1568 1.388 . S
C1567 C1566 1.366 . S
C1567 C1571 1.385 . S
C1568 H1549 0.951 . S
C1568 C1566 1.388 . S
C1568 C1569 1.366 . S
C1569 C1568 1.366 . S
C1569 C1570 1.414 . S
C1569 C1572 1.499 . S
C1570 H1550 0.950 . S
C1570 C1569 1.414 . S
C1570 C1571 1.374 . S
C1571 H1551 0.950 . S
C1571 C1567 1.385 . S
C1571 C1570 1.374 . S
C1572 C1569 1.499 . S
C1572 C1573 1.373 . S
C1572 C1574 1.389 . S
C1573 H1552 0.950 . S
C1573 C1572 1.373 . S
C1573 C1589 1.377 . S
C1574 C1572 1.389 . S
C1574 C1575 1.524 . S
C1574 C1588 1.377 . S
C1575 C1574 1.524 . S
C1575 C1576 1.397 . S
C1575 C1580 1.363 . S
C1576 H1553 0.950 . S
C1576 C1575 1.397 . S
C1576 C1577 1.334 . S
C1577 H1554 0.950 . S
C1577 C1576 1.334 . S
C1577 C1578 1.287 . S
C1578 C1577 1.287 . S
C1578 C1579 1.524 . S
C1578 H1597 0.913 . S
C1579 H1555 0.950 . S
C1579 C1578 1.524 . S
C1579 C1580 1.415 . S
C1580 H1556 0.950 . S
C1580 C1575 1.363 . S
C1580 C1579 1.415 . S
C1581 H1557 0.951 . S
C1581 C1582 1.366 . S
C1581 C1583 1.388 . S
C1582 C1581 1.366 . S
C1582 C1586 1.385 . S
C1583 H1558 0.951 . S
C1583 C1581 1.388 . S
C1583 C1584 1.366 . S
C1584 C1583 1.366 . S
C1584 C1585 1.414 . S
C1584 C1587 1.499 . S
C1585 H1559 0.950 . S
C1585 C1584 1.414 . S
C1585 C1586 1.374 . S
C1586 H1560 0.950 . S
C1586 C1582 1.385 . S
C1586 C1585 1.374 . S
C1587 C1584 1.499 . S
C1587 C1588 1.373 . S
C1587 C1589 1.389 . S
C1588 H1561 0.950 . S
C1588 C1574 1.377 . S
C1588 C1587 1.373 . S
C1589 C1573 1.377 . S
C1589 C1587 1.389 . S
C1589 C1590 1.524 . S
C1590 C1589 1.524 . S
C1590 C1591 1.450 . S
C1590 C1595 1.363 . S
C1591 H1562 0.966 . S
C1591 C1590 1.450 . S
C1591 C1592 1.270 1_556 S
C1592 H1563 0.950 . S
C1592 C1591 1.270 1_554 S
C1592 C1593 1.287 . S
C1593 C1592 1.287 . S
C1593 C1594 1.524 . S
C1593 H1596 0.999 . S
C1594 H1564 0.950 . S
C1594 C1593 1.524 . S
C1594 C1595 1.415 1_554 S
C1595 H1565 0.950 . S
C1595 C1590 1.363 . S
C1595 C1594 1.415 1_556 S
H1596 C1593 0.999 . S
H1597 C1578 0.913 . S
H1598 C1616 0.951 . S
H1599 C1618 0.951 . S
H1600 C1620 0.950 . S
H1601 C1621 0.950 . S
H1602 C1623 0.950 . S
H1603 C1626 0.950 . S
H1604 C1627 0.950 . S
H1605 C1629 0.950 . S
H1606 C1630 0.950 . S
H1607 C1631 0.951 . S
H1608 C1633 0.951 . S
H1609 C1635 0.950 . S
H1610 C1636 0.950 . S
H1611 C1638 0.950 . S
H1612 C1641 0.950 . S
H1613 C1642 0.950 . S
H1614 C1644 0.950 . S
H1615 C1645 0.950 . S
C1616 H1598 0.951 . S
C1616 C1617 1.366 . S
C1616 C1618 1.388 . S
C1617 C1616 1.366 . S
C1617 C1621 1.385 . S
C1618 H1599 0.951 . S
C1618 C1616 1.388 . S
C1618 C1619 1.366 . S
C1619 C1618 1.366 . S
C1619 C1620 1.414 . S
C1619 C1622 1.499 . S
C1620 H1600 0.950 . S
C1620 C1619 1.414 . S
C1620 C1621 1.374 . S
C1621 H1601 0.950 . S
C1621 C1617 1.385 . S
C1621 C1620 1.374 . S
C1622 C1619 1.499 . S
C1622 C1623 1.373 1_455 S
C1622 C1624 1.389 . S
C1623 H1602 0.950 . S
C1623 C1622 1.373 1_655 S
C1623 C1639 1.377 . S
C1624 C1622 1.389 . S
C1624 C1625 1.524 . S
C1624 C1638 1.377 . S
C1625 C1624 1.524 . S
C1625 C1626 1.397 . S
C1625 C1630 1.363 . S
C1626 H1603 0.950 . S
C1626 C1625 1.397 . S
C1626 C1627 1.334 . S
C1627 H1604 0.950 . S
C1627 C1626 1.334 . S
C1627 C1628 1.287 . S
C1628 C1627 1.287 . S
C1628 C1629 1.524 . S
C1628 H1647 0.913 . S
C1629 H1605 0.950 . S
C1629 C1628 1.524 . S
C1629 C1630 1.415 . S
C1630 H1606 0.950 . S
C1630 C1625 1.363 . S
C1630 C1629 1.415 . S
C1631 H1607 0.951 . S
C1631 C1632 1.366 . S
C1631 C1633 1.388 . S
C1632 C1631 1.366 . S
C1632 C1636 1.385 . S
C1633 H1608 0.951 . S
C1633 C1631 1.388 . S
C1633 C1634 1.366 . S
C1634 C1633 1.366 . S
C1634 C1635 1.414 . S
C1634 C1637 1.499 . S
C1635 H1609 0.950 . S
C1635 C1634 1.414 . S
C1635 C1636 1.374 . S
C1636 H1610 0.950 . S
C1636 C1632 1.385 . S
C1636 C1635 1.374 . S
C1637 C1634 1.499 . S
C1637 C1638 1.373 1_655 S
C1637 C1639 1.389 . S
C1638 H1611 0.950 . S
C1638 C1624 1.377 . S
C1638 C1637 1.373 1_455 S
C1639 C1623 1.377 . S
C1639 C1637 1.389 . S
C1639 C1640 1.524 . S
C1640 C1639 1.524 . S
C1640 C1641 1.397 . S
C1640 C1645 1.363 . S
C1641 H1612 0.950 . S
C1641 C1640 1.397 . S
C1641 C1642 1.334 . S
C1642 H1613 0.950 . S
C1642 C1641 1.334 . S
C1642 C1643 1.287 . S
C1643 C1642 1.287 . S
C1643 C1644 1.524 . S
C1643 H1646 0.999 . S
C1644 H1614 0.950 . S
C1644 C1643 1.524 . S
C1644 C1645 1.415 . S
C1645 H1615 0.950 . S
C1645 C1640 1.363 . S
C1645 C1644 1.415 . S
H1646 C1643 0.999 . S
H1647 C1628 0.913 . S
H1648 C1666 0.951 . S
H1649 C1668 0.951 . S
H1650 C1670 0.950 . S
H1651 C1671 0.950 . S
H1652 C1673 0.952 . S
H1653 C1676 0.950 . S
H1654 C1677 0.950 . S
H1655 C1679 0.950 . S
H1656 C1680 0.950 . S
H1657 C1681 0.951 . S
H1658 C1683 0.951 . S
H1659 C1685 0.950 . S
H1660 C1686 0.950 . S
H1661 C1688 0.952 . S
H1662 C1691 0.946 1_556 S
H1663 C1692 0.950 . S
H1664 C1694 0.950 . S
H1665 C1695 0.950 . S
C1666 H1648 0.951 . S
C1666 C1667 1.366 . S
C1666 C1668 1.388 . S
C1667 C1666 1.366 . S
C1667 C1671 1.385 . S
C1668 H1649 0.951 . S
C1668 C1666 1.388 . S
C1668 C1669 1.366 . S
C1669 C1668 1.366 . S
C1669 C1670 1.414 . S
C1669 C1672 1.499 . S
C1670 H1650 0.950 . S
C1670 C1669 1.414 . S
C1670 C1671 1.374 . S
C1671 H1651 0.950 . S
C1671 C1667 1.385 . S
C1671 C1670 1.374 . S
C1672 C1669 1.499 . S
C1672 C1673 1.402 . S
C1672 C1674 1.389 . S
C1673 H1652 0.952 . S
C1673 C1672 1.402 . S
C1673 C1689 1.348 1_655 S
C1674 C1672 1.389 . S
C1674 C1675 1.524 . S
C1674 C1688 1.348 1_655 S
C1675 C1674 1.524 . S
C1675 C1676 1.397 . S
C1675 C1680 1.363 . S
C1676 H1653 0.950 . S
C1676 C1675 1.397 . S
C1676 C1677 1.334 . S
C1677 H1654 0.950 . S
C1677 C1676 1.334 . S
C1677 C1678 1.287 . S
C1678 C1677 1.287 . S
C1678 C1679 1.524 . S
C1678 H1697 0.913 . S
C1679 H1655 0.950 . S
C1679 C1678 1.524 . S
C1679 C1680 1.415 . S
C1680 H1656 0.950 . S
C1680 C1675 1.363 . S
C1680 C1679 1.415 . S
C1681 H1657 0.951 . S
C1681 C1682 1.366 . S
C1681 C1683 1.388 . S
C1682 C1681 1.366 . S
C1682 C1686 1.385 . S
C1683 H1658 0.951 . S
C1683 C1681 1.388 . S
C1683 C1684 1.366 . S
C1684 C1683 1.366 . S
C1684 C1685 1.414 . S
C1684 C1687 1.499 . S
C1685 H1659 0.950 . S
C1685 C1684 1.414 . S
C1685 C1686 1.374 . S
C1686 H1660 0.950 . S
C1686 C1682 1.385 . S
C1686 C1685 1.374 . S
C1687 C1684 1.499 . S
C1687 C1688 1.402 . S
C1687 C1689 1.389 . S
C1688 H1661 0.952 . S
C1688 C1674 1.348 1_455 S
C1688 C1687 1.402 . S
C1689 C1673 1.348 1_455 S
C1689 C1687 1.389 . S
C1689 C1690 1.524 . S
C1690 C1689 1.524 . S
C1690 C1691 1.392 1_556 S
C1690 C1695 1.363 . S
C1691 H1662 0.946 1_554 S
C1691 C1690 1.392 1_554 S
C1691 C1692 1.343 . S
C1692 H1663 0.950 . S
C1692 C1691 1.343 . S
C1692 C1693 1.287 . S
C1693 C1692 1.287 . S
C1693 C1694 1.524 . S
C1693 H1696 0.999 . S
C1694 H1664 0.950 . S
C1694 C1693 1.524 . S
C1694 C1695 1.415 1_554 S
C1695 H1665 0.950 . S
C1695 C1690 1.363 . S
C1695 C1694 1.415 1_556 S
H1696 C1693 0.999 . S
H1697 C1678 0.913 . S
H1698 C1716 0.951 . S
H1699 C1718 0.951 . S
H1700 C1720 0.950 . S
H1701 C1721 0.950 . S
H1702 C1723 0.950 . S
H1703 C1726 0.950 . S
H1704 C1727 0.950 . S
H1705 C1729 0.950 . S
H1706 C1730 0.950 . S
H1707 C1731 0.951 . S
H1708 C1733 0.951 . S
H1709 C1735 0.950 . S
H1710 C1736 0.950 . S
H1711 C1738 0.950 . S
H1712 C1741 0.950 . S
H1713 C1742 0.950 . S
H1714 C1744 0.950 . S
H1715 C1745 0.950 . S
C1716 H1698 0.951 . S
C1716 C1717 1.366 . S
C1716 C1718 1.388 . S
C1717 C1716 1.366 . S
C1717 C1721 1.385 . S
C1718 H1699 0.951 . S
C1718 C1716 1.388 . S
C1718 C1719 1.366 . S
C1719 C1718 1.366 . S
C1719 C1720 1.414 . S
C1719 C1722 1.499 . S
C1720 H1700 0.950 . S
C1720 C1719 1.414 . S
C1720 C1721 1.374 . S
C1721 H1701 0.950 . S
C1721 C1717 1.385 . S
C1721 C1720 1.374 . S
C1722 C1719 1.499 . S
C1722 C1723 1.360 1_655 S
C1722 C1724 1.389 . S
C1723 H1702 0.950 . S
C1723 C1722 1.360 1_455 S
C1723 C1739 1.389 . S
C1724 C1722 1.389 . S
C1724 C1725 1.524 . S
C1724 C1738 1.389 . S
C1725 C1724 1.524 . S
C1725 C1726 1.397 . S
C1725 C1730 1.363 . S
C1726 H1703 0.950 . S
C1726 C1725 1.397 . S
C1726 C1727 1.334 . S
C1727 H1704 0.950 . S
C1727 C1726 1.334 . S
C1727 C1728 1.287 . S
C1728 C1727 1.287 . S
C1728 C1729 1.524 . S
C1728 H1747 0.913 . S
C1729 H1705 0.950 . S
C1729 C1728 1.524 . S
C1729 C1730 1.415 . S
C1730 H1706 0.950 . S
C1730 C1725 1.363 . S
C1730 C1729 1.415 . S
C1731 H1707 0.951 . S
C1731 C1732 1.366 . S
C1731 C1733 1.388 . S
C1732 C1731 1.366 . S
C1732 C1736 1.385 . S
C1733 H1708 0.951 . S
C1733 C1731 1.388 . S
C1733 C1734 1.366 . S
C1734 C1733 1.366 . S
C1734 C1735 1.414 . S
C1734 C1737 1.499 . S
C1735 H1709 0.950 . S
C1735 C1734 1.414 . S
C1735 C1736 1.374 . S
C1736 H1710 0.950 . S
C1736 C1732 1.385 . S
C1736 C1735 1.374 . S
C1737 C1734 1.499 . S
C1737 C1738 1.360 1_455 S
C1737 C1739 1.389 . S
C1738 H1711 0.950 . S
C1738 C1724 1.389 . S
C1738 C1737 1.360 1_655 S
C1739 C1723 1.389 . S
C1739 C1737 1.389 . S
C1739 C1740 1.524 . S
C1740 C1739 1.524 . S
C1740 C1741 1.397 . S
C1740 C1745 1.363 . S
C1741 H1712 0.950 . S
C1741 C1740 1.397 . S
C1741 C1742 1.334 . S
C1742 H1713 0.950 . S
C1742 C1741 1.334 . S
C1742 C1743 1.287 . S
C1743 C1742 1.287 . S
C1743 C1744 1.524 . S
C1743 H1746 0.999 . S
C1744 H1714 0.950 . S
C1744 C1743 1.524 . S
C1744 C1745 1.415 . S
C1745 H1715 0.950 . S
C1745 C1740 1.363 . S
C1745 C1744 1.415 . S
H1746 C1743 0.999 . S
H1747 C1728 0.913 . S
H1748 C1766 0.951 . S
H1749 C1768 0.951 . S
H1750 C1770 0.950 . S
H1751 C1771 0.950 . S
H1752 C1773 0.950 . S
H1753 C1776 0.950 . S
H1754 C1777 0.950 . S
H1755 C1779 0.950 . S
H1756 C1780 0.950 . S
H1757 C1781 0.951 . S
H1758 C1783 0.951 . S
H1759 C1785 0.950 . S
H1760 C1786 0.950 . S
H1761 C1788 0.950 . S
H1762 C1791 0.950 . S
H1763 C1792 0.950 . S
H1764 C1794 0.950 . S
H1765 C1795 0.950 . S
C1766 H1748 0.951 . S
C1766 C1767 1.366 . S
C1766 C1768 1.388 . S
C1767 C1766 1.366 . S
C1767 C1771 1.385 . S
C1768 H1749 0.951 . S
C1768 C1766 1.388 . S
C1768 C1769 1.366 . S
C1769 C1768 1.366 . S
C1769 C1770 1.414 . S
C1769 C1772 1.499 . S
C1770 H1750 0.950 . S
C1770 C1769 1.414 . S
C1770 C1771 1.374 . S
C1771 H1751 0.950 . S
C1771 C1767 1.385 . S
C1771 C1770 1.374 . S
C1772 C1769 1.499 . S
C1772 C1773 1.373 . S
C1772 C1774 1.389 . S
C1773 H1752 0.950 . S
C1773 C1772 1.373 . S
C1773 C1789 1.377 . S
C1774 C1772 1.389 . S
C1774 C1775 1.524 . S
C1774 C1788 1.377 . S
C1775 C1774 1.524 . S
C1775 C1776 1.397 . S
C1775 C1780 1.363 . S
C1776 H1753 0.950 . S
C1776 C1775 1.397 . S
C1776 C1777 1.334 . S
C1777 H1754 0.950 . S
C1777 C1776 1.334 . S
C1777 C1778 1.287 . S
C1778 C1777 1.287 . S
C1778 C1779 1.524 . S
C1778 H1797 0.913 . S
C1779 H1755 0.950 . S
C1779 C1778 1.524 . S
C1779 C1780 1.415 . S
C1780 H1756 0.950 . S
C1780 C1775 1.363 . S
C1780 C1779 1.415 . S
C1781 H1757 0.951 . S
C1781 C1782 1.366 . S
C1781 C1783 1.388 . S
C1782 C1781 1.366 . S
C1782 C1786 1.385 . S
C1783 H1758 0.951 . S
C1783 C1781 1.388 . S
C1783 C1784 1.366 . S
C1784 C1783 1.366 . S
C1784 C1785 1.414 . S
C1784 C1787 1.499 . S
C1785 H1759 0.950 . S
C1785 C1784 1.414 . S
C1785 C1786 1.374 . S
C1786 H1760 0.950 . S
C1786 C1782 1.385 . S
C1786 C1785 1.374 . S
C1787 C1784 1.499 . S
C1787 C1788 1.373 . S
C1787 C1789 1.389 . S
C1788 H1761 0.950 . S
C1788 C1774 1.377 . S
C1788 C1787 1.373 . S
C1789 C1773 1.377 . S
C1789 C1787 1.389 . S
C1789 C1790 1.524 . S
C1790 C1789 1.524 . S
C1790 C1791 1.397 . S
C1790 C1795 1.363 . S
C1791 H1762 0.950 . S
C1791 C1790 1.397 . S
C1791 C1792 1.334 . S
C1792 H1763 0.950 . S
C1792 C1791 1.334 . S
C1792 C1793 1.287 . S
C1793 C1792 1.287 . S
C1793 C1794 1.524 . S
C1793 H1796 0.999 . S
C1794 H1764 0.950 . S
C1794 C1793 1.524 . S
C1794 C1795 1.415 . S
C1795 H1765 0.950 . S
C1795 C1790 1.363 . S
C1795 C1794 1.415 . S
H1796 C1793 0.999 . S
H1797 C1778 0.913 . S
H1798 C1816 0.951 . S
H1799 C1818 0.951 . S
H1800 C1820 0.950 . S
H1801 C1821 0.950 . S
H1802 C1823 0.950 . S
H1803 C1826 0.950 . S
H1804 C1827 0.950 . S
H1805 C1829 0.950 . S
H1806 C1830 0.950 . S
H1807 C1831 0.951 . S
H1808 C1833 0.951 . S
H1809 C1835 0.950 . S
H1810 C1836 0.950 . S
H1811 C1838 0.950 . S
H1812 C1841 0.950 . S
H1813 C1842 0.950 . S
H1814 C1844 0.950 . S
H1815 C1845 0.950 . S
C1816 H1798 0.951 . S
C1816 C1817 1.366 . S
C1816 C1818 1.388 . S
C1817 C1816 1.366 . S
C1817 C1821 1.385 . S
C1818 H1799 0.951 . S
C1818 C1816 1.388 . S
C1818 C1819 1.366 . S
C1819 C1818 1.366 . S
C1819 C1820 1.414 . S
C1819 C1822 1.499 . S
C1820 H1800 0.950 . S
C1820 C1819 1.414 . S
C1820 C1821 1.374 . S
C1821 H1801 0.950 . S
C1821 C1817 1.385 . S
C1821 C1820 1.374 . S
C1822 C1819 1.499 . S
C1822 C1823 1.373 . S
C1822 C1824 1.389 . S
C1823 H1802 0.950 . S
C1823 C1822 1.373 . S
C1823 C1839 1.377 . S
C1824 C1822 1.389 . S
C1824 C1825 1.524 . S
C1824 C1838 1.377 . S
C1825 C1824 1.524 . S
C1825 C1826 1.397 . S
C1825 C1830 1.363 . S
C1826 H1803 0.950 . S
C1826 C1825 1.397 . S
C1826 C1827 1.334 . S
C1827 H1804 0.950 . S
C1827 C1826 1.334 . S
C1827 C1828 1.287 . S
C1828 C1827 1.287 . S
C1828 C1829 1.524 . S
C1828 H1847 0.913 . S
C1829 H1805 0.950 . S
C1829 C1828 1.524 . S
C1829 C1830 1.415 . S
C1830 H1806 0.950 . S
C1830 C1825 1.363 . S
C1830 C1829 1.415 . S
C1831 H1807 0.951 . S
C1831 C1832 1.366 . S
C1831 C1833 1.388 . S
C1832 C1831 1.366 . S
C1832 C1836 1.385 . S
C1833 H1808 0.951 . S
C1833 C1831 1.388 . S
C1833 C1834 1.366 . S
C1834 C1833 1.366 . S
C1834 C1835 1.414 . S
C1834 C1837 1.499 . S
C1835 H1809 0.950 . S
C1835 C1834 1.414 . S
C1835 C1836 1.374 . S
C1836 H1810 0.950 . S
C1836 C1832 1.385 . S
C1836 C1835 1.374 . S
C1837 C1834 1.499 . S
C1837 C1838 1.373 . S
C1837 C1839 1.389 . S
C1838 H1811 0.950 . S
C1838 C1824 1.377 . S
C1838 C1837 1.373 . S
C1839 C1823 1.377 . S
C1839 C1837 1.389 . S
C1839 C1840 1.524 . S
C1840 C1839 1.524 . S
C1840 C1841 1.397 . S
C1840 C1845 1.363 . S
C1841 H1812 0.950 . S
C1841 C1840 1.397 . S
C1841 C1842 1.334 . S
C1842 H1813 0.950 . S
C1842 C1841 1.334 . S
C1842 C1843 1.287 . S
C1843 C1842 1.287 . S
C1843 C1844 1.524 . S
C1843 H1846 0.999 . S
C1844 H1814 0.950 . S
C1844 C1843 1.524 . S
C1844 C1845 1.415 . S
C1845 H1815 0.950 . S
C1845 C1840 1.363 . S
C1845 C1844 1.415 . S
H1846 C1843 0.999 . S
H1847 C1828 0.913 . S
H1848 C1866 0.951 . S
H1849 C1868 0.951 . S
H1850 C1870 0.950 . S
H1851 C1871 0.950 . S
H1852 C1873 0.950 . S
H1853 C1876 0.950 1_655 S
H1854 C1877 0.950 . S
H1855 C1879 0.950 . S
H1856 C1880 0.950 . S
H1857 C1881 0.951 . S
H1858 C1883 0.951 . S
H1859 C1885 0.950 . S
H1860 C1886 0.950 . S
H1861 C1888 0.950 . S
H1862 C1891 0.950 1_455 S
H1863 C1892 0.950 . S
H1864 C1894 0.950 . S
H1865 C1895 0.950 . S
C1866 H1848 0.951 . S
C1866 C1867 1.366 . S
C1866 C1868 1.388 . S
C1867 C1866 1.366 . S
C1867 C1871 1.385 . S
C1868 H1849 0.951 . S
C1868 C1866 1.388 . S
C1868 C1869 1.366 . S
C1869 C1868 1.366 . S
C1869 C1870 1.414 . S
C1869 C1872 1.499 . S
C1870 H1850 0.950 . S
C1870 C1869 1.414 . S
C1870 C1871 1.374 . S
C1871 H1851 0.950 . S
C1871 C1867 1.385 . S
C1871 C1870 1.374 . S
C1872 C1869 1.499 . S
C1872 C1873 1.373 . S
C1872 C1874 1.389 1_655 S
C1873 H1852 0.950 . S
C1873 C1872 1.373 . S
C1873 C1889 1.377 . S
C1874 C1872 1.389 1_455 S
C1874 C1875 1.524 . S
C1874 C1888 1.377 . S
C1875 C1874 1.524 . S
C1875 C1876 1.397 . S
C1875 C1880 1.363 . S
C1876 H1853 0.950 1_455 S
C1876 C1875 1.397 . S
C1876 C1877 1.334 . S
C1877 H1854 0.950 . S
C1877 C1876 1.334 . S
C1877 C1878 1.287 . S
C1878 C1877 1.287 . S
C1878 C1879 1.524 . S
C1878 H1897 0.913 . S
C1879 H1855 0.950 . S
C1879 C1878 1.524 . S
C1879 C1880 1.415 . S
C1880 H1856 0.950 . S
C1880 C1875 1.363 . S
C1880 C1879 1.415 . S
C1881 H1857 0.951 . S
C1881 C1882 1.366 . S
C1881 C1883 1.388 . S
C1882 C1881 1.366 . S
C1882 C1886 1.385 . S
C1883 H1858 0.951 . S
C1883 C1881 1.388 . S
C1883 C1884 1.366 . S
C1884 C1883 1.366 . S
C1884 C1885 1.414 . S
C1884 C1887 1.499 . S
C1885 H1859 0.950 . S
C1885 C1884 1.414 . S
C1885 C1886 1.374 . S
C1886 H1860 0.950 . S
C1886 C1882 1.385 . S
C1886 C1885 1.374 . S
C1887 C1884 1.499 . S
C1887 C1888 1.373 . S
C1887 C1889 1.389 1_455 S
C1888 H1861 0.950 . S
C1888 C1874 1.377 . S
C1888 C1887 1.373 . S
C1889 C1873 1.377 . S
C1889 C1887 1.389 1_655 S
C1889 C1890 1.524 . S
C1890 C1889 1.524 . S
C1890 C1891 1.397 . S
C1890 C1895 1.363 . S
C1891 H1862 0.950 1_655 S
C1891 C1890 1.397 . S
C1891 C1892 1.334 . S
C1892 H1863 0.950 . S
C1892 C1891 1.334 . S
C1892 C1893 1.287 . S
C1893 C1892 1.287 . S
C1893 C1894 1.524 . S
C1893 H1896 0.999 . S
C1894 H1864 0.950 . S
C1894 C1893 1.524 . S
C1894 C1895 1.415 . S
C1895 H1865 0.950 . S
C1895 C1890 1.363 . S
C1895 C1894 1.415 . S
H1896 C1893 0.999 . S
H1897 C1878 0.913 . S
H1898 C1916 0.951 . S
H1899 C1918 0.951 . S
H1900 C1920 0.950 . S
H1901 C1921 0.950 . S
H1902 C1923 0.950 . S
H1903 C1926 0.950 . S
H1904 C1927 0.950 . S
H1905 C1929 0.950 . S
H1906 C1930 0.950 . S
H1907 C1931 0.951 . S
H1908 C1933 0.951 . S
H1909 C1935 0.950 . S
H1910 C1936 0.950 . S
H1911 C1938 0.950 . S
H1912 C1941 0.950 . S
H1913 C1942 0.950 . S
H1914 C1944 0.950 . S
H1915 C1945 0.950 . S
C1916 H1898 0.951 . S
C1916 C1917 1.366 . S
C1916 C1918 1.388 . S
C1917 C1916 1.366 . S
C1917 C1921 1.385 . S
C1918 H1899 0.951 . S
C1918 C1916 1.388 . S
C1918 C1919 1.366 . S
C1919 C1918 1.366 . S
C1919 C1920 1.414 . S
C1919 C1922 1.499 . S
C1920 H1900 0.950 . S
C1920 C1919 1.414 . S
C1920 C1921 1.374 . S
C1921 H1901 0.950 . S
C1921 C1917 1.385 . S
C1921 C1920 1.374 . S
C1922 C1919 1.499 . S
C1922 C1923 1.373 . S
C1922 C1924 1.389 . S
C1923 H1902 0.950 . S
C1923 C1922 1.373 . S
C1923 C1939 1.377 . S
C1924 C1922 1.389 . S
C1924 C1925 1.524 . S
C1924 C1938 1.377 . S
C1925 C1924 1.524 . S
C1925 C1926 1.397 . S
C1925 C1930 1.363 . S
C1926 H1903 0.950 . S
C1926 C1925 1.397 . S
C1926 C1927 1.334 . S
C1927 H1904 0.950 . S
C1927 C1926 1.334 . S
C1927 C1928 1.287 . S
C1928 C1927 1.287 . S
C1928 C1929 1.524 . S
C1928 H1947 0.913 . S
C1929 H1905 0.950 . S
C1929 C1928 1.524 . S
C1929 C1930 1.415 . S
C1930 H1906 0.950 . S
C1930 C1925 1.363 . S
C1930 C1929 1.415 . S
C1931 H1907 0.951 . S
C1931 C1932 1.366 . S
C1931 C1933 1.388 . S
C1932 C1931 1.366 . S
C1932 C1936 1.385 . S
C1933 H1908 0.951 . S
C1933 C1931 1.388 . S
C1933 C1934 1.366 . S
C1934 C1933 1.366 . S
C1934 C1935 1.414 . S
C1934 C1937 1.499 . S
C1935 H1909 0.950 . S
C1935 C1934 1.414 . S
C1935 C1936 1.374 . S
C1936 H1910 0.950 . S
C1936 C1932 1.385 . S
C1936 C1935 1.374 . S
C1937 C1934 1.499 . S
C1937 C1938 1.373 . S
C1937 C1939 1.389 . S
C1938 H1911 0.950 . S
C1938 C1924 1.377 . S
C1938 C1937 1.373 . S
C1939 C1923 1.377 . S
C1939 C1937 1.389 . S
C1939 C1940 1.524 . S
C1940 C1939 1.524 . S
C1940 C1941 1.397 . S
C1940 C1945 1.363 . S
C1941 H1912 0.950 . S
C1941 C1940 1.397 . S
C1941 C1942 1.334 . S
C1942 H1913 0.950 . S
C1942 C1941 1.334 . S
C1942 C1943 1.287 . S
C1943 C1942 1.287 . S
C1943 C1944 1.524 . S
C1943 H1946 0.999 . S
C1944 H1914 0.950 . S
C1944 C1943 1.524 . S
C1944 C1945 1.415 . S
C1945 H1915 0.950 . S
C1945 C1940 1.363 . S
C1945 C1944 1.415 . S
H1946 C1943 0.999 . S
H1947 C1928 0.913 . S
H1948 C1966 0.951 . S
H1949 C1968 0.951 . S
H1950 C1970 0.950 . S
H1951 C1971 0.950 . S
H1952 C1973 0.950 . S
H1953 C1976 0.945 1_554 S
H1954 C1977 0.950 . S
H1955 C1979 0.950 . S
H1956 C1980 0.974 . S
H1957 C1981 0.951 . S
H1958 C1983 0.951 . S
H1959 C1985 0.950 . S
H1960 C1986 0.950 . S
H1961 C1988 0.950 . S
H1962 C1991 0.950 . S
H1963 C1992 0.950 . S
H1964 C1994 0.950 . S
H1965 C1995 0.950 . S
C1966 H1948 0.951 . S
C1966 C1967 1.366 . S
C1966 C1968 1.388 . S
C1967 C1966 1.366 . S
C1967 C1971 1.385 . S
C1968 H1949 0.951 . S
C1968 C1966 1.388 . S
C1968 C1969 1.366 . S
C1969 C1968 1.366 . S
C1969 C1970 1.414 . S
C1969 C1972 1.499 . S
C1970 H1950 0.950 . S
C1970 C1969 1.414 . S
C1970 C1971 1.374 . S
C1971 H1951 0.950 . S
C1971 C1967 1.385 . S
C1971 C1970 1.374 . S
C1972 C1969 1.499 . S
C1972 C1973 1.373 . S
C1972 C1974 1.389 . S
C1973 H1952 0.950 . S
C1973 C1972 1.373 . S
C1973 C1989 1.377 . S
C1974 C1972 1.389 . S
C1974 C1975 1.524 . S
C1974 C1988 1.377 . S
C1975 C1974 1.524 . S
C1975 C1976 1.392 1_554 S
C1975 C1980 1.383 . S
C1976 H1953 0.945 1_556 S
C1976 C1975 1.392 1_556 S
C1976 C1977 1.343 . S
C1977 H1954 0.950 . S
C1977 C1976 1.343 . S
C1977 C1978 1.287 . S
C1978 C1977 1.287 . S
C1978 C1979 1.524 . S
C1978 H1997 0.913 . S
C1979 H1955 0.950 . S
C1979 C1978 1.524 . S
C1979 C1980 1.373 1_556 S
C1980 H1956 0.974 . S
C1980 C1975 1.383 . S
C1980 C1979 1.373 1_554 S
C1981 H1957 0.951 . S
C1981 C1982 1.366 . S
C1981 C1983 1.388 . S
C1982 C1981 1.366 . S
C1982 C1986 1.385 . S
C1983 H1958 0.951 . S
C1983 C1981 1.388 . S
C1983 C1984 1.366 . S
C1984 C1983 1.366 . S
C1984 C1985 1.414 . S
C1984 C1987 1.499 . S
C1985 H1959 0.950 . S
C1985 C1984 1.414 . S
C1985 C1986 1.374 . S
C1986 H1960 0.950 . S
C1986 C1982 1.385 . S
C1986 C1985 1.374 . S
C1987 C1984 1.499 . S
C1987 C1988 1.373 . S
C1987 C1989 1.389 . S
C1988 H1961 0.950 . S
C1988 C1974 1.377 . S
C1988 C1987 1.373 . S
C1989 C1973 1.377 . S
C1989 C1987 1.389 . S
C1989 C1990 1.524 . S
C1990 C1989 1.524 . S
C1990 C1991 1.397 . S
C1990 C1995 1.363 . S
C1991 H1962 0.950 . S
C1991 C1990 1.397 . S
C1991 C1992 1.334 . S
C1992 H1963 0.950 . S
C1992 C1991 1.334 . S
C1992 C1993 1.287 . S
C1993 C1992 1.287 . S
C1993 C1994 1.524 . S
C1993 H1996 0.999 . S
C1994 H1964 0.950 . S
C1994 C1993 1.524 . S
C1994 C1995 1.415 . S
C1995 H1965 0.950 . S
C1995 C1990 1.363 . S
C1995 C1994 1.415 . S
H1996 C1993 0.999 . S
H1997 C1978 0.913 . S
H1998 C2016 0.951 . S
H1999 C2018 0.951 . S
H2000 C2020 0.950 . S
H2001 C2021 0.950 . S
H2002 C2023 0.950 . S
H2003 C2026 0.950 . S
H2004 C2027 0.950 . S
H2005 C2029 0.950 . S
H2006 C2030 0.950 . S
H2007 C2031 0.951 . S
H2008 C2033 0.951 . S
H2009 C2035 0.950 . S
H2010 C2036 0.950 . S
H2011 C2038 0.950 . S
H2012 C2041 0.950 . S
H2013 C2042 0.950 . S
H2014 C2044 0.950 . S
H2015 C2045 0.950 . S
C2016 H1998 0.951 . S
C2016 C2017 1.366 . S
C2016 C2018 1.388 . S
C2017 C2016 1.366 . S
C2017 C2021 1.385 . S
C2018 H1999 0.951 . S
C2018 C2016 1.388 . S
C2018 C2019 1.366 . S
C2019 C2018 1.366 . S
C2019 C2020 1.414 . S
C2019 C2022 1.499 . S
C2020 H2000 0.950 . S
C2020 C2019 1.414 . S
C2020 C2021 1.374 . S
C2021 H2001 0.950 . S
C2021 C2017 1.385 . S
C2021 C2020 1.374 . S
C2022 C2019 1.499 . S
C2022 C2023 1.373 1_655 S
C2022 C2024 1.389 . S
C2023 H2002 0.950 . S
C2023 C2022 1.373 1_455 S
C2023 C2039 1.377 . S
C2024 C2022 1.389 . S
C2024 C2025 1.524 . S
C2024 C2038 1.377 . S
C2025 C2024 1.524 . S
C2025 C2026 1.397 . S
C2025 C2030 1.363 . S
C2026 H2003 0.950 . S
C2026 C2025 1.397 . S
C2026 C2027 1.334 . S
C2027 H2004 0.950 . S
C2027 C2026 1.334 . S
C2027 C2028 1.287 . S
C2028 C2027 1.287 . S
C2028 C2029 1.524 . S
C2028 H2047 0.913 . S
C2029 H2005 0.950 . S
C2029 C2028 1.524 . S
C2029 C2030 1.415 . S
C2030 H2006 0.950 . S
C2030 C2025 1.363 . S
C2030 C2029 1.415 . S
C2031 H2007 0.951 . S
C2031 C2032 1.366 . S
C2031 C2033 1.388 . S
C2032 C2031 1.366 . S
C2032 C2036 1.385 . S
C2033 H2008 0.951 . S
C2033 C2031 1.388 . S
C2033 C2034 1.366 . S
C2034 C2033 1.366 . S
C2034 C2035 1.414 . S
C2034 C2037 1.499 . S
C2035 H2009 0.950 . S
C2035 C2034 1.414 . S
C2035 C2036 1.374 . S
C2036 H2010 0.950 . S
C2036 C2032 1.385 . S
C2036 C2035 1.374 . S
C2037 C2034 1.499 . S
C2037 C2038 1.373 1_455 S
C2037 C2039 1.389 . S
C2038 H2011 0.950 . S
C2038 C2024 1.377 . S
C2038 C2037 1.373 1_655 S
C2039 C2023 1.377 . S
C2039 C2037 1.389 . S
C2039 C2040 1.524 . S
C2040 C2039 1.524 . S
C2040 C2041 1.397 . S
C2040 C2045 1.363 . S
C2041 H2012 0.950 . S
C2041 C2040 1.397 . S
C2041 C2042 1.334 . S
C2042 H2013 0.950 . S
C2042 C2041 1.334 . S
C2042 C2043 1.287 . S
C2043 C2042 1.287 . S
C2043 C2044 1.524 . S
C2043 H2046 0.999 . S
C2044 H2014 0.950 . S
C2044 C2043 1.524 . S
C2044 C2045 1.415 . S
C2045 H2015 0.950 . S
C2045 C2040 1.363 . S
C2045 C2044 1.415 . S
H2046 C2043 0.999 . S
H2047 C2028 0.913 . S
H2048 C2066 0.951 . S
H2049 C2068 0.951 . S
H2050 C2070 0.892 1_554 S
H2051 C2071 0.931 1_554 S
H2052 C2073 0.950 . S
H2053 C2076 0.950 1_554 S
H2054 C2077 0.950 . S
H2055 C2079 0.950 . S
H2056 C2080 0.950 . S
H2057 C2081 0.951 . S
H2058 C2083 0.951 . S
H2059 C2085 0.892 1_556 S
H2060 C2086 0.931 1_556 S
H2061 C2088 0.950 . S
H2062 C2091 0.950 1_556 S
H2063 C2092 0.950 . S
H2064 C2094 0.950 . S
H2065 C2095 0.950 . S
C2066 H2048 0.951 . S
C2066 C2067 1.366 . S
C2066 C2068 1.388 . S
C2067 C2066 1.366 . S
C2067 C2071 1.385 . S
C2068 H2049 0.951 . S
C2068 C2066 1.388 . S
C2068 C2069 1.366 . S
C2069 C2068 1.366 . S
C2069 C2070 1.452 . S
C2069 C2072 1.499 . S
C2070 H2050 0.892 1_556 S
C2070 C2069 1.452 . S
C2070 C2071 1.396 . S
C2071 H2051 0.931 1_556 S
C2071 C2067 1.385 . S
C2071 C2070 1.396 . S
C2072 C2069 1.499 . S
C2072 C2073 1.373 1_556 S
C2072 C2074 1.389 . S
C2073 H2052 0.950 . S
C2073 C2072 1.373 1_554 S
C2073 C2089 1.377 . S
C2074 C2072 1.389 . S
C2074 C2075 1.524 . S
C2074 C2088 1.377 . S
C2075 C2074 1.524 . S
C2075 C2076 1.397 . S
C2075 C2080 1.363 . S
C2076 H2053 0.950 1_556 S
C2076 C2075 1.397 . S
C2076 C2077 1.334 . S
C2077 H2054 0.950 . S
C2077 C2076 1.334 . S
C2077 C2078 1.287 . S
C2078 C2077 1.287 . S
C2078 C2079 1.524 . S
C2078 H2097 0.913 . S
C2079 H2055 0.950 . S
C2079 C2078 1.524 . S
C2079 C2080 1.415 . S
C2080 H2056 0.950 . S
C2080 C2075 1.363 . S
C2080 C2079 1.415 . S
C2081 H2057 0.951 . S
C2081 C2082 1.366 . S
C2081 C2083 1.388 . S
C2082 C2081 1.366 . S
C2082 C2086 1.385 . S
C2083 H2058 0.951 . S
C2083 C2081 1.388 . S
C2083 C2084 1.366 . S
C2084 C2083 1.366 . S
C2084 C2085 1.452 . S
C2084 C2087 1.499 . S
C2085 H2059 0.892 1_554 S
C2085 C2084 1.452 . S
C2085 C2086 1.396 . S
C2086 H2060 0.931 1_554 S
C2086 C2082 1.385 . S
C2086 C2085 1.396 . S
C2087 C2084 1.499 . S
C2087 C2088 1.373 1_554 S
C2087 C2089 1.389 . S
C2088 H2061 0.950 . S
C2088 C2074 1.377 . S
C2088 C2087 1.373 1_556 S
C2089 C2073 1.377 . S
C2089 C2087 1.389 . S
C2089 C2090 1.524 . S
C2090 C2089 1.524 . S
C2090 C2091 1.397 . S
C2090 C2095 1.363 . S
C2091 H2062 0.950 1_554 S
C2091 C2090 1.397 . S
C2091 C2092 1.334 . S
C2092 H2063 0.950 . S
C2092 C2091 1.334 . S
C2092 C2093 1.287 . S
C2093 C2092 1.287 . S
C2093 C2094 1.524 . S
C2093 H2096 0.999 . S
C2094 H2064 0.950 . S
C2094 C2093 1.524 . S
C2094 C2095 1.415 . S
C2095 H2065 0.950 . S
C2095 C2090 1.363 . S
C2095 C2094 1.415 . S
H2096 C2093 0.999 . S
H2097 C2078 0.913 . S
H2098 C2116 0.951 . S
H2099 C2118 0.951 . S
H2100 C2120 0.950 . S
H2101 C2121 0.950 . S
H2102 C2123 0.950 . S
H2103 C2126 0.950 . S
H2104 C2127 0.950 . S
H2105 C2129 0.950 . S
H2106 C2130 0.950 . S
H2107 C2131 0.951 . S
H2108 C2133 0.951 . S
H2109 C2135 0.950 . S
H2110 C2136 0.950 . S
H2111 C2138 0.950 . S
H2112 C2141 0.950 . S
H2113 C2142 0.950 . S
H2114 C2144 0.950 . S
H2115 C2145 0.950 . S
C2116 H2098 0.951 . S
C2116 C2117 1.366 . S
C2116 C2118 1.388 . S
C2117 C2116 1.366 . S
C2117 C2121 1.385 . S
C2118 H2099 0.951 . S
C2118 C2116 1.388 . S
C2118 C2119 1.366 . S
C2119 C2118 1.366 . S
C2119 C2120 1.414 . S
C2119 C2122 1.499 . S
C2120 H2100 0.950 . S
C2120 C2119 1.414 . S
C2120 C2121 1.374 . S
C2121 H2101 0.950 . S
C2121 C2117 1.385 . S
C2121 C2120 1.374 . S
C2122 C2119 1.499 . S
C2122 C2123 1.373 . S
C2122 C2124 1.389 . S
C2123 H2102 0.950 . S
C2123 C2122 1.373 . S
C2123 C2139 1.377 1_545 S
C2124 C2122 1.389 . S
C2124 C2125 1.524 . S
C2124 C2138 1.377 1_545 S
C2125 C2124 1.524 . S
C2125 C2126 1.397 . S
C2125 C2130 1.363 . S
C2126 H2103 0.950 . S
C2126 C2125 1.397 . S
C2126 C2127 1.334 . S
C2127 H2104 0.950 . S
C2127 C2126 1.334 . S
C2127 C2128 1.287 . S
C2128 C2127 1.287 . S
C2128 C2129 1.524 . S
C2128 H2147 0.913 . S
C2129 H2105 0.950 . S
C2129 C2128 1.524 . S
C2129 C2130 1.415 . S
C2130 H2106 0.950 . S
C2130 C2125 1.363 . S
C2130 C2129 1.415 . S
C2131 H2107 0.951 . S
C2131 C2132 1.366 . S
C2131 C2133 1.388 . S
C2132 C2131 1.366 . S
C2132 C2136 1.385 . S
C2133 H2108 0.951 . S
C2133 C2131 1.388 . S
C2133 C2134 1.366 . S
C2134 C2133 1.366 . S
C2134 C2135 1.414 . S
C2134 C2137 1.499 . S
C2135 H2109 0.950 . S
C2135 C2134 1.414 . S
C2135 C2136 1.374 . S
C2136 H2110 0.950 . S
C2136 C2132 1.385 . S
C2136 C2135 1.374 . S
C2137 C2134 1.499 . S
C2137 C2138 1.373 . S
C2137 C2139 1.389 . S
C2138 H2111 0.950 . S
C2138 C2124 1.377 1_565 S
C2138 C2137 1.373 . S
C2139 C2123 1.377 1_565 S
C2139 C2137 1.389 . S
C2139 C2140 1.524 . S
C2140 C2139 1.524 . S
C2140 C2141 1.397 . S
C2140 C2145 1.363 . S
C2141 H2112 0.950 . S
C2141 C2140 1.397 . S
C2141 C2142 1.334 . S
C2142 H2113 0.950 . S
C2142 C2141 1.334 . S
C2142 C2143 1.287 . S
C2143 C2142 1.287 . S
C2143 C2144 1.524 . S
C2143 H2146 0.999 . S
C2144 H2114 0.950 . S
C2144 C2143 1.524 . S
C2144 C2145 1.415 . S
C2145 H2115 0.950 . S
C2145 C2140 1.363 . S
C2145 C2144 1.415 . S
H2146 C2143 0.999 . S
H2147 C2128 0.913 . S
H2148 C2166 0.951 . S
H2149 C2168 0.951 . S
H2150 C2170 0.950 . S
H2151 C2171 0.950 . S
H2152 C2173 0.950 . S
H2153 C2176 0.950 . S
H2154 C2177 0.950 . S
H2155 C2179 0.950 . S
H2156 C2180 0.950 . S
H2157 C2181 0.951 . S
H2158 C2183 0.951 . S
H2159 C2185 0.950 . S
H2160 C2186 0.950 . S
H2161 C2188 0.950 . S
H2162 C2191 0.950 . S
H2163 C2192 0.950 . S
H2164 C2194 0.950 . S
H2165 C2195 0.950 . S
C2166 H2148 0.951 . S
C2166 C2167 1.366 . S
C2166 C2168 1.388 . S
C2167 C2166 1.366 . S
C2167 C2171 1.385 . S
C2168 H2149 0.951 . S
C2168 C2166 1.388 . S
C2168 C2169 1.366 . S
C2169 C2168 1.366 . S
C2169 C2170 1.414 . S
C2169 C2172 1.499 . S
C2170 H2150 0.950 . S
C2170 C2169 1.414 . S
C2170 C2171 1.374 . S
C2171 H2151 0.950 . S
C2171 C2167 1.385 . S
C2171 C2170 1.374 . S
C2172 C2169 1.499 . S
C2172 C2173 1.373 . S
C2172 C2174 1.389 . S
C2173 H2152 0.950 . S
C2173 C2172 1.373 . S
C2173 C2189 1.377 . S
C2174 C2172 1.389 . S
C2174 C2175 1.524 . S
C2174 C2188 1.377 . S
C2175 C2174 1.524 . S
C2175 C2176 1.397 . S
C2175 C2180 1.363 . S
C2176 H2153 0.950 . S
C2176 C2175 1.397 . S
C2176 C2177 1.334 . S
C2177 H2154 0.950 . S
C2177 C2176 1.334 . S
C2177 C2178 1.287 . S
C2178 C2177 1.287 . S
C2178 C2179 1.524 . S
C2178 H2197 0.913 . S
C2179 H2155 0.950 . S
C2179 C2178 1.524 . S
C2179 C2180 1.415 . S
C2180 H2156 0.950 . S
C2180 C2175 1.363 . S
C2180 C2179 1.415 . S
C2181 H2157 0.951 . S
C2181 C2182 1.366 . S
C2181 C2183 1.388 . S
C2182 C2181 1.366 . S
C2182 C2186 1.385 . S
C2183 H2158 0.951 . S
C2183 C2181 1.388 . S
C2183 C2184 1.366 . S
C2184 C2183 1.366 . S
C2184 C2185 1.414 . S
C2184 C2187 1.499 . S
C2185 H2159 0.950 . S
C2185 C2184 1.414 . S
C2185 C2186 1.374 . S
C2186 H2160 0.950 . S
C2186 C2182 1.385 . S
C2186 C2185 1.374 . S
C2187 C2184 1.499 . S
C2187 C2188 1.373 . S
C2187 C2189 1.389 . S
C2188 H2161 0.950 . S
C2188 C2174 1.377 . S
C2188 C2187 1.373 . S
C2189 C2173 1.377 . S
C2189 C2187 1.389 . S
C2189 C2190 1.524 . S
C2190 C2189 1.524 . S
C2190 C2191 1.397 . S
C2190 C2195 1.363 . S
C2191 H2162 0.950 . S
C2191 C2190 1.397 . S
C2191 C2192 1.334 . S
C2192 H2163 0.950 . S
C2192 C2191 1.334 . S
C2192 C2193 1.287 . S
C2193 C2192 1.287 . S
C2193 C2194 1.524 . S
C2193 H2196 0.999 . S
C2194 H2164 0.950 . S
C2194 C2193 1.524 . S
C2194 C2195 1.415 . S
C2195 H2165 0.950 . S
C2195 C2190 1.363 . S
C2195 C2194 1.415 . S
H2196 C2193 0.999 . S
H2197 C2178 0.913 . S
H2198 C2216 0.951 . S
H2199 C2218 0.951 . S
H2200 C2220 0.950 . S
H2201 C2221 0.950 . S
H2202 C2223 0.950 . S
H2203 C2226 0.950 . S
H2204 C2227 0.950 . S
H2205 C2229 0.950 . S
H2206 C2230 0.950 . S
H2207 C2231 0.951 . S
H2208 C2233 0.951 . S
H2209 C2235 0.950 . S
H2210 C2236 0.950 . S
H2211 C2238 0.950 . S
H2212 C2241 0.950 . S
H2213 C2242 0.950 . S
H2214 C2244 0.950 . S
H2215 C2245 0.950 . S
C2216 H2198 0.951 . S
C2216 C2217 1.366 . S
C2216 C2218 1.388 . S
C2217 C2216 1.366 . S
C2217 C2221 1.385 . S
C2218 H2199 0.951 . S
C2218 C2216 1.388 . S
C2218 C2219 1.366 . S
C2219 C2218 1.366 . S
C2219 C2220 1.414 . S
C2219 C2222 1.499 . S
C2220 H2200 0.950 . S
C2220 C2219 1.414 . S
C2220 C2221 1.374 . S
C2221 H2201 0.950 . S
C2221 C2217 1.385 . S
C2221 C2220 1.374 . S
C2222 C2219 1.499 . S
C2222 C2223 1.373 . S
C2222 C2224 1.389 . S
C2223 H2202 0.950 . S
C2223 C2222 1.373 . S
C2223 C2239 1.377 1_545 S
C2224 C2222 1.389 . S
C2224 C2225 1.524 . S
C2224 C2238 1.377 1_545 S
C2225 C2224 1.524 . S
C2225 C2226 1.397 . S
C2225 C2230 1.363 . S
C2226 H2203 0.950 . S
C2226 C2225 1.397 . S
C2226 C2227 1.334 . S
C2227 H2204 0.950 . S
C2227 C2226 1.334 . S
C2227 C2228 1.287 . S
C2228 C2227 1.287 . S
C2228 C2229 1.524 . S
C2228 H2247 0.913 . S
C2229 H2205 0.950 . S
C2229 C2228 1.524 . S
C2229 C2230 1.415 . S
C2230 H2206 0.950 . S
C2230 C2225 1.363 . S
C2230 C2229 1.415 . S
C2231 H2207 0.951 . S
C2231 C2232 1.366 . S
C2231 C2233 1.388 . S
C2232 C2231 1.366 . S
C2232 C2236 1.385 . S
C2233 H2208 0.951 . S
C2233 C2231 1.388 . S
C2233 C2234 1.366 . S
C2234 C2233 1.366 . S
C2234 C2235 1.414 . S
C2234 C2237 1.499 . S
C2235 H2209 0.950 . S
C2235 C2234 1.414 . S
C2235 C2236 1.374 . S
C2236 H2210 0.950 . S
C2236 C2232 1.385 . S
C2236 C2235 1.374 . S
C2237 C2234 1.499 . S
C2237 C2238 1.373 . S
C2237 C2239 1.389 . S
C2238 H2211 0.950 . S
C2238 C2224 1.377 1_565 S
C2238 C2237 1.373 . S
C2239 C2223 1.377 1_565 S
C2239 C2237 1.389 . S
C2239 C2240 1.524 . S
C2240 C2239 1.524 . S
C2240 C2241 1.397 . S
C2240 C2245 1.363 . S
C2241 H2212 0.950 . S
C2241 C2240 1.397 . S
C2241 C2242 1.334 . S
C2242 H2213 0.950 . S
C2242 C2241 1.334 . S
C2242 C2243 1.287 . S
C2243 C2242 1.287 . S
C2243 C2244 1.524 . S
C2243 H2246 0.999 . S
C2244 H2214 0.950 . S
C2244 C2243 1.524 . S
C2244 C2245 1.415 . S
C2245 H2215 0.950 . S
C2245 C2240 1.363 . S
C2245 C2244 1.415 . S
H2246 C2243 0.999 . S
H2247 C2228 0.913 . S
H2248 C2266 0.951 . S
H2249 C2268 0.951 . S
H2250 C2270 0.895 1_556 S
H2251 C2271 0.913 1_556 S
H2252 C2273 0.950 . S
H2253 C2276 0.950 . S
H2254 C2277 0.950 . S
H2255 C2279 0.950 . S
H2256 C2280 0.950 . S
H2257 C2281 0.951 . S
H2258 C2283 0.951 . S
H2259 C2285 0.895 1_554 S
H2260 C2286 0.913 1_554 S
H2261 C2288 0.950 . S
H2262 C2291 0.950 . S
H2263 C2292 0.950 . S
H2264 C2294 0.950 . S
H2265 C2295 0.950 . S
C2266 H2248 0.951 . S
C2266 C2267 1.366 . S
C2266 C2268 1.388 . S
C2267 C2266 1.366 . S
C2267 C2271 1.385 . S
C2268 H2249 0.951 . S
C2268 C2266 1.388 . S
C2268 C2269 1.366 . S
C2269 C2268 1.366 . S
C2269 C2270 1.451 . S
C2269 C2272 1.499 . S
C2270 H2250 0.895 1_554 S
C2270 C2269 1.451 . S
C2270 C2271 1.394 . S
C2271 H2251 0.913 1_554 S
C2271 C2267 1.385 . S
C2271 C2270 1.394 . S
C2272 C2269 1.499 . S
C2272 C2273 1.373 1_554 S
C2272 C2274 1.389 . S
C2273 H2252 0.950 . S
C2273 C2272 1.373 1_556 S
C2273 C2289 1.377 . S
C2274 C2272 1.389 . S
C2274 C2275 1.524 . S
C2274 C2288 1.377 . S
C2275 C2274 1.524 . S
C2275 C2276 1.397 . S
C2275 C2280 1.363 . S
C2276 H2253 0.950 . S
C2276 C2275 1.397 . S
C2276 C2277 1.334 . S
C2277 H2254 0.950 . S
C2277 C2276 1.334 . S
C2277 C2278 1.287 . S
C2278 C2277 1.287 . S
C2278 C2279 1.524 . S
C2278 H2297 0.913 . S
C2279 H2255 0.950 . S
C2279 C2278 1.524 . S
C2279 C2280 1.415 . S
C2280 H2256 0.950 . S
C2280 C2275 1.363 . S
C2280 C2279 1.415 . S
C2281 H2257 0.951 . S
C2281 C2282 1.366 . S
C2281 C2283 1.388 . S
C2282 C2281 1.366 . S
C2282 C2286 1.385 . S
C2283 H2258 0.951 . S
C2283 C2281 1.388 . S
C2283 C2284 1.366 . S
C2284 C2283 1.366 . S
C2284 C2285 1.451 . S
C2284 C2287 1.499 . S
C2285 H2259 0.895 1_556 S
C2285 C2284 1.451 . S
C2285 C2286 1.394 . S
C2286 H2260 0.913 1_556 S
C2286 C2282 1.385 . S
C2286 C2285 1.394 . S
C2287 C2284 1.499 . S
C2287 C2288 1.373 1_556 S
C2287 C2289 1.389 . S
C2288 H2261 0.950 . S
C2288 C2274 1.377 . S
C2288 C2287 1.373 1_554 S
C2289 C2273 1.377 . S
C2289 C2287 1.389 . S
C2289 C2290 1.524 . S
C2290 C2289 1.524 . S
C2290 C2291 1.397 . S
C2290 C2295 1.363 . S
C2291 H2262 0.950 . S
C2291 C2290 1.397 . S
C2291 C2292 1.334 . S
C2292 H2263 0.950 . S
C2292 C2291 1.334 . S
C2292 C2293 1.287 . S
C2293 C2292 1.287 . S
C2293 C2294 1.524 . S
C2293 H2296 0.999 . S
C2294 H2264 0.950 . S
C2294 C2293 1.524 . S
C2294 C2295 1.415 . S
C2295 H2265 0.950 . S
C2295 C2290 1.363 . S
C2295 C2294 1.415 . S
H2296 C2293 0.999 . S
H2297 C2278 0.913 . S
H2298 C2316 0.951 . S
H2299 C2318 0.951 . S
H2300 C2320 0.950 . S
H2301 C2321 0.950 . S
H2302 C2323 0.950 . S
H2303 C2326 0.950 . S
H2304 C2327 0.950 . S
H2305 C2329 0.950 . S
H2306 C2330 0.950 . S
H2307 C2331 0.951 . S
H2308 C2333 0.951 . S
H2309 C2335 0.950 . S
H2310 C2336 0.950 . S
H2311 C2338 0.950 . S
H2312 C2341 0.950 . S
H2313 C2342 0.950 . S
H2314 C2344 0.950 . S
H2315 C2345 0.950 . S
C2316 H2298 0.951 . S
C2316 C2317 1.366 . S
C2316 C2318 1.388 . S
C2317 C2316 1.366 . S
C2317 C2321 1.385 . S
C2318 H2299 0.951 . S
C2318 C2316 1.388 . S
C2318 C2319 1.366 . S
C2319 C2318 1.366 . S
C2319 C2320 1.414 . S
C2319 C2322 1.499 . S
C2320 H2300 0.950 . S
C2320 C2319 1.414 . S
C2320 C2321 1.374 . S
C2321 H2301 0.950 . S
C2321 C2317 1.385 . S
C2321 C2320 1.374 . S
C2322 C2319 1.499 . S
C2322 C2323 1.373 . S
C2322 C2324 1.389 . S
C2323 H2302 0.950 . S
C2323 C2322 1.373 . S
C2323 C2339 1.377 1_565 S
C2324 C2322 1.389 . S
C2324 C2325 1.524 . S
C2324 C2338 1.377 1_565 S
C2325 C2324 1.524 . S
C2325 C2326 1.397 . S
C2325 C2330 1.363 . S
C2326 H2303 0.950 . S
C2326 C2325 1.397 . S
C2326 C2327 1.334 . S
C2327 H2304 0.950 . S
C2327 C2326 1.334 . S
C2327 C2328 1.287 . S
C2328 C2327 1.287 . S
C2328 C2329 1.524 . S
C2328 H2347 0.913 . S
C2329 H2305 0.950 . S
C2329 C2328 1.524 . S
C2329 C2330 1.415 . S
C2330 H2306 0.950 . S
C2330 C2325 1.363 . S
C2330 C2329 1.415 . S
C2331 H2307 0.951 . S
C2331 C2332 1.366 . S
C2331 C2333 1.388 . S
C2332 C2331 1.366 . S
C2332 C2336 1.385 . S
C2333 H2308 0.951 . S
C2333 C2331 1.388 . S
C2333 C2334 1.366 . S
C2334 C2333 1.366 . S
C2334 C2335 1.414 . S
C2334 C2337 1.499 . S
C2335 H2309 0.950 . S
C2335 C2334 1.414 . S
C2335 C2336 1.374 . S
C2336 H2310 0.950 . S
C2336 C2332 1.385 . S
C2336 C2335 1.374 . S
C2337 C2334 1.499 . S
C2337 C2338 1.373 . S
C2337 C2339 1.389 . S
C2338 H2311 0.950 . S
C2338 C2324 1.377 1_545 S
C2338 C2337 1.373 . S
C2339 C2323 1.377 1_545 S
C2339 C2337 1.389 . S
C2339 C2340 1.524 . S
C2340 C2339 1.524 . S
C2340 C2341 1.397 . S
C2340 C2345 1.363 . S
C2341 H2312 0.950 . S
C2341 C2340 1.397 . S
C2341 C2342 1.334 . S
C2342 H2313 0.950 . S
C2342 C2341 1.334 . S
C2342 C2343 1.287 . S
C2343 C2342 1.287 . S
C2343 C2344 1.524 . S
C2343 H2346 0.999 . S
C2344 H2314 0.950 . S
C2344 C2343 1.524 . S
C2344 C2345 1.415 . S
C2345 H2315 0.950 . S
C2345 C2340 1.363 . S
C2345 C2344 1.415 . S
H2346 C2343 0.999 . S
H2347 C2328 0.913 . S
H2348 C2366 0.951 . S
H2349 C2368 0.951 . S
H2350 C2370 0.950 . S
H2351 C2371 0.950 . S
H2352 C2373 0.950 . S
H2353 C2376 0.950 . S
H2354 C2377 0.950 . S
H2355 C2379 0.950 . S
H2356 C2380 0.950 . S
H2357 C2381 0.951 . S
H2358 C2383 0.951 . S
H2359 C2385 0.950 . S
H2360 C2386 0.950 . S
H2361 C2388 0.950 . S
H2362 C2391 0.950 . S
H2363 C2392 0.950 . S
H2364 C2394 0.950 . S
H2365 C2395 0.950 . S
C2366 H2348 0.951 . S
C2366 C2367 1.366 . S
C2366 C2368 1.388 . S
C2367 C2366 1.366 . S
C2367 C2371 1.385 . S
C2368 H2349 0.951 . S
C2368 C2366 1.388 . S
C2368 C2369 1.366 . S
C2369 C2368 1.366 . S
C2369 C2370 1.414 . S
C2369 C2372 1.499 . S
C2370 H2350 0.950 . S
C2370 C2369 1.414 . S
C2370 C2371 1.374 . S
C2371 H2351 0.950 . S
C2371 C2367 1.385 . S
C2371 C2370 1.374 . S
C2372 C2369 1.499 . S
C2372 C2373 1.373 . S
C2372 C2374 1.389 . S
C2373 H2352 0.950 . S
C2373 C2372 1.373 . S
C2373 C2389 1.377 . S
C2374 C2372 1.389 . S
C2374 C2375 1.524 . S
C2374 C2388 1.377 . S
C2375 C2374 1.524 . S
C2375 C2376 1.397 . S
C2375 C2380 1.363 . S
C2376 H2353 0.950 . S
C2376 C2375 1.397 . S
C2376 C2377 1.334 . S
C2377 H2354 0.950 . S
C2377 C2376 1.334 . S
C2377 C2378 1.287 . S
C2378 C2377 1.287 . S
C2378 C2379 1.524 . S
C2378 H2397 0.913 . S
C2379 H2355 0.950 . S
C2379 C2378 1.524 . S
C2379 C2380 1.415 . S
C2380 H2356 0.950 . S
C2380 C2375 1.363 . S
C2380 C2379 1.415 . S
C2381 H2357 0.951 . S
C2381 C2382 1.366 . S
C2381 C2383 1.388 . S
C2382 C2381 1.366 . S
C2382 C2386 1.385 . S
C2383 H2358 0.951 . S
C2383 C2381 1.388 . S
C2383 C2384 1.366 . S
C2384 C2383 1.366 . S
C2384 C2385 1.414 . S
C2384 C2387 1.499 . S
C2385 H2359 0.950 . S
C2385 C2384 1.414 . S
C2385 C2386 1.374 . S
C2386 H2360 0.950 . S
C2386 C2382 1.385 . S
C2386 C2385 1.374 . S
C2387 C2384 1.499 . S
C2387 C2388 1.373 . S
C2387 C2389 1.389 . S
C2388 H2361 0.950 . S
C2388 C2374 1.377 . S
C2388 C2387 1.373 . S
C2389 C2373 1.377 . S
C2389 C2387 1.389 . S
C2389 C2390 1.524 . S
C2390 C2389 1.524 . S
C2390 C2391 1.397 . S
C2390 C2395 1.363 . S
C2391 H2362 0.950 . S
C2391 C2390 1.397 . S
C2391 C2392 1.334 . S
C2392 H2363 0.950 . S
C2392 C2391 1.334 . S
C2392 C2393 1.287 . S
C2393 C2392 1.287 . S
C2393 C2394 1.524 . S
C2393 H2396 0.999 . S
C2394 H2364 0.950 . S
C2394 C2393 1.524 . S
C2394 C2395 1.415 . S
C2395 H2365 0.950 . S
C2395 C2390 1.363 . S
C2395 C2394 1.415 . S
H2396 C2393 0.999 . S
H2397 C2378 0.913 . S
H2398 C2416 0.951 . S
H2399 C2418 0.951 . S
H2400 C2420 0.950 . S
H2401 C2421 0.950 . S
H2402 C2423 0.950 . S
H2403 C2426 0.950 . S
H2404 C2427 0.950 . S
H2405 C2429 0.950 . S
H2406 C2430 0.950 . S
H2407 C2431 0.951 . S
H2408 C2433 0.951 . S
H2409 C2435 0.950 . S
H2410 C2436 0.950 . S
H2411 C2438 0.950 . S
H2412 C2441 0.950 . S
H2413 C2442 0.950 . S
H2414 C2444 0.950 . S
H2415 C2445 0.950 . S
C2416 H2398 0.951 . S
C2416 C2417 1.366 . S
C2416 C2418 1.388 . S
C2417 C2416 1.366 . S
C2417 C2421 1.385 . S
C2418 H2399 0.951 . S
C2418 C2416 1.388 . S
C2418 C2419 1.366 . S
C2419 C2418 1.366 . S
C2419 C2420 1.414 . S
C2419 C2422 1.499 . S
C2420 H2400 0.950 . S
C2420 C2419 1.414 . S
C2420 C2421 1.374 . S
C2421 H2401 0.950 . S
C2421 C2417 1.385 . S
C2421 C2420 1.374 . S
C2422 C2419 1.499 . S
C2422 C2423 1.373 . S
C2422 C2424 1.389 . S
C2423 H2402 0.950 . S
C2423 C2422 1.373 . S
C2423 C2439 1.377 1_545 S
C2424 C2422 1.389 . S
C2424 C2425 1.524 . S
C2424 C2438 1.377 1_545 S
C2425 C2424 1.524 . S
C2425 C2426 1.397 . S
C2425 C2430 1.363 . S
C2426 H2403 0.950 . S
C2426 C2425 1.397 . S
C2426 C2427 1.334 . S
C2427 H2404 0.950 . S
C2427 C2426 1.334 . S
C2427 C2428 1.287 . S
C2428 C2427 1.287 . S
C2428 C2429 1.524 . S
C2428 H2447 0.913 . S
C2429 H2405 0.950 . S
C2429 C2428 1.524 . S
C2429 C2430 1.415 . S
C2430 H2406 0.950 . S
C2430 C2425 1.363 . S
C2430 C2429 1.415 . S
C2431 H2407 0.951 . S
C2431 C2432 1.366 . S
C2431 C2433 1.388 . S
C2432 C2431 1.366 . S
C2432 C2436 1.385 . S
C2433 H2408 0.951 . S
C2433 C2431 1.388 . S
C2433 C2434 1.366 . S
C2434 C2433 1.366 . S
C2434 C2435 1.414 . S
C2434 C2437 1.499 . S
C2435 H2409 0.950 . S
C2435 C2434 1.414 . S
C2435 C2436 1.374 . S
C2436 H2410 0.950 . S
C2436 C2432 1.385 . S
C2436 C2435 1.374 . S
C2437 C2434 1.499 . S
C2437 C2438 1.373 . S
C2437 C2439 1.389 . S
C2438 H2411 0.950 . S
C2438 C2424 1.377 1_565 S
C2438 C2437 1.373 . S
C2439 C2423 1.377 1_565 S
C2439 C2437 1.389 . S
C2439 C2440 1.524 . S
C2440 C2439 1.524 . S
C2440 C2441 1.397 . S
C2440 C2445 1.363 . S
C2441 H2412 0.950 . S
C2441 C2440 1.397 . S
C2441 C2442 1.334 . S
C2442 H2413 0.950 . S
C2442 C2441 1.334 . S
C2442 C2443 1.287 . S
C2443 C2442 1.287 . S
C2443 C2444 1.524 . S
C2443 H2446 0.999 . S
C2444 H2414 0.950 . S
C2444 C2443 1.524 . S
C2444 C2445 1.415 . S
C2445 H2415 0.950 . S
C2445 C2440 1.363 . S
C2445 C2444 1.415 . S
H2446 C2443 0.999 . S
H2447 C2428 0.913 . S
H2448 C2466 0.951 . S
H2449 C2468 0.951 . S
H2450 C2470 0.950 . S
H2451 C2471 0.950 . S
H2452 C2473 0.950 . S
H2453 C2476 0.950 . S
H2454 C2477 0.950 . S
H2455 C2479 0.950 . S
H2456 C2480 0.950 . S
H2457 C2481 0.951 . S
H2458 C2483 0.951 . S
H2459 C2485 0.950 . S
H2460 C2486 0.950 . S
H2461 C2488 0.950 . S
H2462 C2491 0.950 . S
H2463 C2492 0.950 . S
H2464 C2494 0.950 . S
H2465 C2495 0.950 . S
C2466 H2448 0.951 . S
C2466 C2467 1.366 . S
C2466 C2468 1.388 . S
C2467 C2466 1.366 . S
C2467 C2471 1.385 . S
C2468 H2449 0.951 . S
C2468 C2466 1.388 . S
C2468 C2469 1.366 . S
C2469 C2468 1.366 . S
C2469 C2470 1.414 . S
C2469 C2472 1.499 . S
C2470 H2450 0.950 . S
C2470 C2469 1.414 . S
C2470 C2471 1.374 . S
C2471 H2451 0.950 . S
C2471 C2467 1.385 . S
C2471 C2470 1.374 . S
C2472 C2469 1.499 . S
C2472 C2473 1.373 . S
C2472 C2474 1.389 . S
C2473 H2452 0.950 . S
C2473 C2472 1.373 . S
C2473 C2489 1.377 . S
C2474 C2472 1.389 . S
C2474 C2475 1.524 . S
C2474 C2488 1.377 . S
C2475 C2474 1.524 . S
C2475 C2476 1.397 . S
C2475 C2480 1.363 . S
C2476 H2453 0.950 . S
C2476 C2475 1.397 . S
C2476 C2477 1.334 . S
C2477 H2454 0.950 . S
C2477 C2476 1.334 . S
C2477 C2478 1.287 . S
C2478 C2477 1.287 . S
C2478 C2479 1.524 . S
C2478 H2497 0.913 . S
C2479 H2455 0.950 . S
C2479 C2478 1.524 . S
C2479 C2480 1.415 . S
C2480 H2456 0.950 . S
C2480 C2475 1.363 . S
C2480 C2479 1.415 . S
C2481 H2457 0.951 . S
C2481 C2482 1.366 . S
C2481 C2483 1.388 . S
C2482 C2481 1.366 . S
C2482 C2486 1.385 . S
C2483 H2458 0.951 . S
C2483 C2481 1.388 . S
C2483 C2484 1.366 . S
C2484 C2483 1.366 . S
C2484 C2485 1.414 . S
C2484 C2487 1.499 . S
C2485 H2459 0.950 . S
C2485 C2484 1.414 . S
C2485 C2486 1.374 . S
C2486 H2460 0.950 . S
C2486 C2482 1.385 . S
C2486 C2485 1.374 . S
C2487 C2484 1.499 . S
C2487 C2488 1.373 . S
C2487 C2489 1.389 . S
C2488 H2461 0.950 . S
C2488 C2474 1.377 . S
C2488 C2487 1.373 . S
C2489 C2473 1.377 . S
C2489 C2487 1.389 . S
C2489 C2490 1.524 . S
C2490 C2489 1.524 . S
C2490 C2491 1.397 . S
C2490 C2495 1.363 . S
C2491 H2462 0.950 . S
C2491 C2490 1.397 . S
C2491 C2492 1.334 . S
C2492 H2463 0.950 . S
C2492 C2491 1.334 . S
C2492 C2493 1.287 . S
C2493 C2492 1.287 . S
C2493 C2494 1.524 . S
C2493 H2496 0.999 . S
C2494 H2464 0.950 . S
C2494 C2493 1.524 . S
C2494 C2495 1.415 . S
C2495 H2465 0.950 . S
C2495 C2490 1.363 . S
C2495 C2494 1.415 . S
H2496 C2493 0.999 . S
H2497 C2478 0.913 . S
H2498 C2516 0.951 . S
H2499 C2518 0.951 . S
H2500 C2520 0.950 . S
H2501 C2521 0.950 . S
H2502 C2523 0.950 . S
H2503 C2526 0.950 . S
H2504 C2527 0.950 . S
H2505 C2529 0.950 . S
H2506 C2530 0.950 . S
H2507 C2531 0.951 . S
H2508 C2533 0.951 . S
H2509 C2535 0.950 . S
H2510 C2536 0.950 . S
H2511 C2538 0.950 . S
H2512 C2541 0.950 . S
H2513 C2542 0.950 . S
H2514 C2544 0.950 . S
H2515 C2545 0.950 . S
C2516 H2498 0.951 . S
C2516 C2517 1.366 . S
C2516 C2518 1.388 . S
C2517 C2516 1.366 . S
C2517 C2521 1.385 . S
C2518 H2499 0.951 . S
C2518 C2516 1.388 . S
C2518 C2519 1.366 . S
C2519 C2518 1.366 . S
C2519 C2520 1.414 . S
C2519 C2522 1.499 . S
C2520 H2500 0.950 . S
C2520 C2519 1.414 . S
C2520 C2521 1.374 . S
C2521 H2501 0.950 . S
C2521 C2517 1.385 . S
C2521 C2520 1.374 . S
C2522 C2519 1.499 . S
C2522 C2523 1.373 . S
C2522 C2524 1.389 . S
C2523 H2502 0.950 . S
C2523 C2522 1.373 . S
C2523 C2539 1.377 . S
C2524 C2522 1.389 . S
C2524 C2525 1.524 . S
C2524 C2538 1.377 . S
C2525 C2524 1.524 . S
C2525 C2526 1.397 . S
C2525 C2530 1.363 . S
C2526 H2503 0.950 . S
C2526 C2525 1.397 . S
C2526 C2527 1.334 . S
C2527 H2504 0.950 . S
C2527 C2526 1.334 . S
C2527 C2528 1.287 . S
C2528 C2527 1.287 . S
C2528 C2529 1.524 . S
C2528 H2547 0.913 . S
C2529 H2505 0.950 . S
C2529 C2528 1.524 . S
C2529 C2530 1.415 . S
C2530 H2506 0.950 . S
C2530 C2525 1.363 . S
C2530 C2529 1.415 . S
C2531 H2507 0.951 . S
C2531 C2532 1.366 . S
C2531 C2533 1.388 . S
C2532 C2531 1.366 . S
C2532 C2536 1.385 . S
C2533 H2508 0.951 . S
C2533 C2531 1.388 . S
C2533 C2534 1.366 . S
C2534 C2533 1.366 . S
C2534 C2535 1.414 . S
C2534 C2537 1.499 . S
C2535 H2509 0.950 . S
C2535 C2534 1.414 . S
C2535 C2536 1.374 . S
C2536 H2510 0.950 . S
C2536 C2532 1.385 . S
C2536 C2535 1.374 . S
C2537 C2534 1.499 . S
C2537 C2538 1.373 . S
C2537 C2539 1.389 . S
C2538 H2511 0.950 . S
C2538 C2524 1.377 . S
C2538 C2537 1.373 . S
C2539 C2523 1.377 . S
C2539 C2537 1.389 . S
C2539 C2540 1.524 . S
C2540 C2539 1.524 . S
C2540 C2541 1.397 . S
C2540 C2545 1.363 . S
C2541 H2512 0.950 . S
C2541 C2540 1.397 . S
C2541 C2542 1.334 . S
C2542 H2513 0.950 . S
C2542 C2541 1.334 . S
C2542 C2543 1.287 . S
C2543 C2542 1.287 . S
C2543 C2544 1.524 . S
C2543 H2546 0.999 . S
C2544 H2514 0.950 . S
C2544 C2543 1.524 . S
C2544 C2545 1.415 . S
C2545 H2515 0.950 . S
C2545 C2540 1.363 . S
C2545 C2544 1.415 . S
H2546 C2543 0.999 . S
H2547 C2528 0.913 . S
H2548 C2566 0.951 . S
H2549 C2568 0.951 . S
H2550 C2570 0.950 . S
H2551 C2571 0.950 . S
H2552 C2573 0.950 . S
H2553 C2576 0.950 . S
H2554 C2577 0.950 . S
H2555 C2579 0.950 . S
H2556 C2580 0.950 . S
H2557 C2581 0.951 . S
H2558 C2583 0.951 . S
H2559 C2585 0.950 . S
H2560 C2586 0.950 . S
H2561 C2588 0.950 . S
H2562 C2591 0.950 . S
H2563 C2592 0.950 . S
H2564 C2594 0.950 . S
H2565 C2595 0.950 . S
C2566 H2548 0.951 . S
C2566 C2567 1.366 . S
C2566 C2568 1.388 . S
C2567 C2566 1.366 . S
C2567 C2571 1.385 . S
C2568 H2549 0.951 . S
C2568 C2566 1.388 . S
C2568 C2569 1.366 . S
C2569 C2568 1.366 . S
C2569 C2570 1.414 . S
C2569 C2572 1.499 . S
C2570 H2550 0.950 . S
C2570 C2569 1.414 . S
C2570 C2571 1.374 . S
C2571 H2551 0.950 . S
C2571 C2567 1.385 . S
C2571 C2570 1.374 . S
C2572 C2569 1.499 . S
C2572 C2573 1.373 1_554 S
C2572 C2574 1.389 . S
C2573 H2552 0.950 . S
C2573 C2572 1.373 1_556 S
C2573 C2589 1.377 . S
C2574 C2572 1.389 . S
C2574 C2575 1.524 . S
C2574 C2588 1.377 . S
C2575 C2574 1.524 . S
C2575 C2576 1.397 . S
C2575 C2580 1.363 . S
C2576 H2553 0.950 . S
C2576 C2575 1.397 . S
C2576 C2577 1.334 . S
C2577 H2554 0.950 . S
C2577 C2576 1.334 . S
C2577 C2578 1.287 . S
C2578 C2577 1.287 . S
C2578 C2579 1.524 . S
C2578 H2597 0.913 . S
C2579 H2555 0.950 . S
C2579 C2578 1.524 . S
C2579 C2580 1.415 . S
C2580 H2556 0.950 . S
C2580 C2575 1.363 . S
C2580 C2579 1.415 . S
C2581 H2557 0.951 . S
C2581 C2582 1.366 . S
C2581 C2583 1.388 . S
C2582 C2581 1.366 . S
C2582 C2586 1.385 . S
C2583 H2558 0.951 . S
C2583 C2581 1.388 . S
C2583 C2584 1.366 . S
C2584 C2583 1.366 . S
C2584 C2585 1.414 . S
C2584 C2587 1.499 . S
C2585 H2559 0.950 . S
C2585 C2584 1.414 . S
C2585 C2586 1.374 . S
C2586 H2560 0.950 . S
C2586 C2582 1.385 . S
C2586 C2585 1.374 . S
C2587 C2584 1.499 . S
C2587 C2588 1.373 1_556 S
C2587 C2589 1.389 . S
C2588 H2561 0.950 . S
C2588 C2574 1.377 . S
C2588 C2587 1.373 1_554 S
C2589 C2573 1.377 . S
C2589 C2587 1.389 . S
C2589 C2590 1.524 . S
C2590 C2589 1.524 . S
C2590 C2591 1.397 . S
C2590 C2595 1.363 . S
C2591 H2562 0.950 . S
C2591 C2590 1.397 . S
C2591 C2592 1.334 . S
C2592 H2563 0.950 . S
C2592 C2591 1.334 . S
C2592 C2593 1.287 . S
C2593 C2592 1.287 . S
C2593 C2594 1.524 . S
C2593 H2596 0.999 . S
C2594 H2564 0.950 . S
C2594 C2593 1.524 . S
C2594 C2595 1.415 . S
C2595 H2565 0.950 . S
C2595 C2590 1.363 . S
C2595 C2594 1.415 . S
H2596 C2593 0.999 . S
H2597 C2578 0.913 . S
H2598 C2616 0.951 . S
H2599 C2618 0.951 . S
H2600 C2620 0.950 . S
H2601 C2621 0.950 . S
H2602 C2623 0.950 . S
H2603 C2626 0.950 . S
H2604 C2627 0.950 . S
H2605 C2629 0.950 . S
H2606 C2630 0.950 . S
H2607 C2631 0.951 . S
H2608 C2633 0.951 . S
H2609 C2635 0.950 . S
H2610 C2636 0.950 . S
H2611 C2638 0.950 . S
H2612 C2641 0.950 . S
H2613 C2642 0.950 . S
H2614 C2644 0.950 . S
H2615 C2645 0.950 . S
C2616 H2598 0.951 . S
C2616 C2617 1.366 . S
C2616 C2618 1.388 . S
C2617 C2616 1.366 . S
C2617 C2621 1.385 . S
C2618 H2599 0.951 . S
C2618 C2616 1.388 . S
C2618 C2619 1.366 . S
C2619 C2618 1.366 . S
C2619 C2620 1.414 . S
C2619 C2622 1.499 . S
C2620 H2600 0.950 . S
C2620 C2619 1.414 . S
C2620 C2621 1.374 . S
C2621 H2601 0.950 . S
C2621 C2617 1.385 . S
C2621 C2620 1.374 . S
C2622 C2619 1.499 . S
C2622 C2623 1.373 . S
C2622 C2624 1.389 . S
C2623 H2602 0.950 . S
C2623 C2622 1.373 . S
C2623 C2639 1.377 . S
C2624 C2622 1.389 . S
C2624 C2625 1.524 . S
C2624 C2638 1.377 . S
C2625 C2624 1.524 . S
C2625 C2626 1.397 . S
C2625 C2630 1.363 . S
C2626 H2603 0.950 . S
C2626 C2625 1.397 . S
C2626 C2627 1.334 . S
C2627 H2604 0.950 . S
C2627 C2626 1.334 . S
C2627 C2628 1.287 . S
C2628 C2627 1.287 . S
C2628 C2629 1.524 . S
C2628 H2647 0.913 . S
C2629 H2605 0.950 . S
C2629 C2628 1.524 . S
C2629 C2630 1.415 . S
C2630 H2606 0.950 . S
C2630 C2625 1.363 . S
C2630 C2629 1.415 . S
C2631 H2607 0.951 . S
C2631 C2632 1.366 . S
C2631 C2633 1.388 . S
C2632 C2631 1.366 . S
C2632 C2636 1.385 . S
C2633 H2608 0.951 . S
C2633 C2631 1.388 . S
C2633 C2634 1.366 . S
C2634 C2633 1.366 . S
C2634 C2635 1.414 . S
C2634 C2637 1.499 . S
C2635 H2609 0.950 . S
C2635 C2634 1.414 . S
C2635 C2636 1.374 . S
C2636 H2610 0.950 . S
C2636 C2632 1.385 . S
C2636 C2635 1.374 . S
C2637 C2634 1.499 . S
C2637 C2638 1.373 . S
C2637 C2639 1.389 . S
C2638 H2611 0.950 . S
C2638 C2624 1.377 . S
C2638 C2637 1.373 . S
C2639 C2623 1.377 . S
C2639 C2637 1.389 . S
C2639 C2640 1.524 . S
C2640 C2639 1.524 . S
C2640 C2641 1.397 . S
C2640 C2645 1.363 . S
C2641 H2612 0.950 . S
C2641 C2640 1.397 . S
C2641 C2642 1.334 . S
C2642 H2613 0.950 . S
C2642 C2641 1.334 . S
C2642 C2643 1.287 . S
C2643 C2642 1.287 . S
C2643 C2644 1.524 . S
C2643 H2646 0.999 . S
C2644 H2614 0.950 . S
C2644 C2643 1.524 . S
C2644 C2645 1.415 . S
C2645 H2615 0.950 . S
C2645 C2640 1.363 . S
C2645 C2644 1.415 . S
H2646 C2643 0.999 . S
H2647 C2628 0.913 . S
H2648 C2666 0.951 . S
H2649 C2668 0.951 . S
H2650 C2670 0.950 . S
H2651 C2671 0.950 . S
H2652 C2673 0.950 . S
H2653 C2676 0.950 . S
H2654 C2677 0.950 . S
H2655 C2679 0.950 . S
H2656 C2680 0.950 . S
H2657 C2681 0.951 . S
H2658 C2683 0.951 . S
H2659 C2685 0.950 . S
H2660 C2686 0.950 . S
H2661 C2688 0.950 . S
H2662 C2691 0.950 . S
H2663 C2692 0.950 . S
H2664 C2694 0.950 . S
H2665 C2695 0.950 . S
C2666 H2648 0.951 . S
C2666 C2667 1.366 . S
C2666 C2668 1.388 . S
C2667 C2666 1.366 . S
C2667 C2671 1.385 . S
C2668 H2649 0.951 . S
C2668 C2666 1.388 . S
C2668 C2669 1.366 . S
C2669 C2668 1.366 . S
C2669 C2670 1.414 . S
C2669 C2672 1.499 . S
C2670 H2650 0.950 . S
C2670 C2669 1.414 . S
C2670 C2671 1.374 . S
C2671 H2651 0.950 . S
C2671 C2667 1.385 . S
C2671 C2670 1.374 . S
C2672 C2669 1.499 . S
C2672 C2673 1.373 . S
C2672 C2674 1.389 . S
C2673 H2652 0.950 . S
C2673 C2672 1.373 . S
C2673 C2689 1.377 . S
C2674 C2672 1.389 . S
C2674 C2675 1.524 . S
C2674 C2688 1.377 . S
C2675 C2674 1.524 . S
C2675 C2676 1.397 . S
C2675 C2680 1.363 . S
C2676 H2653 0.950 . S
C2676 C2675 1.397 . S
C2676 C2677 1.334 . S
C2677 H2654 0.950 . S
C2677 C2676 1.334 . S
C2677 C2678 1.287 . S
C2678 C2677 1.287 . S
C2678 C2679 1.524 . S
C2678 H2697 0.913 . S
C2679 H2655 0.950 . S
C2679 C2678 1.524 . S
C2679 C2680 1.415 . S
C2680 H2656 0.950 . S
C2680 C2675 1.363 . S
C2680 C2679 1.415 . S
C2681 H2657 0.951 . S
C2681 C2682 1.366 . S
C2681 C2683 1.388 . S
C2682 C2681 1.366 . S
C2682 C2686 1.385 . S
C2683 H2658 0.951 . S
C2683 C2681 1.388 . S
C2683 C2684 1.366 . S
C2684 C2683 1.366 . S
C2684 C2685 1.414 . S
C2684 C2687 1.499 . S
C2685 H2659 0.950 . S
C2685 C2684 1.414 . S
C2685 C2686 1.374 . S
C2686 H2660 0.950 . S
C2686 C2682 1.385 . S
C2686 C2685 1.374 . S
C2687 C2684 1.499 . S
C2687 C2688 1.373 . S
C2687 C2689 1.389 . S
C2688 H2661 0.950 . S
C2688 C2674 1.377 . S
C2688 C2687 1.373 . S
C2689 C2673 1.377 . S
C2689 C2687 1.389 . S
C2689 C2690 1.524 . S
C2690 C2689 1.524 . S
C2690 C2691 1.397 . S
C2690 C2695 1.363 . S
C2691 H2662 0.950 . S
C2691 C2690 1.397 . S
C2691 C2692 1.334 . S
C2692 H2663 0.950 . S
C2692 C2691 1.334 . S
C2692 C2693 1.287 . S
C2693 C2692 1.287 . S
C2693 C2694 1.524 . S
C2693 H2696 0.999 . S
C2694 H2664 0.950 . S
C2694 C2693 1.524 . S
C2694 C2695 1.415 . S
C2695 H2665 0.950 . S
C2695 C2690 1.363 . S
C2695 C2694 1.415 . S
H2696 C2693 0.999 . S
H2697 C2678 0.913 . S
H2698 C2716 0.951 . S
H2699 C2718 0.951 . S
H2700 C2720 0.950 . S
H2701 C2721 0.950 . S
H2702 C2723 0.950 . S
H2703 C2726 0.950 . S
H2704 C2727 0.950 . S
H2705 C2729 0.950 . S
H2706 C2730 0.950 . S
H2707 C2731 0.951 . S
H2708 C2733 0.951 . S
H2709 C2735 0.950 . S
H2710 C2736 0.950 . S
H2711 C2738 0.950 . S
H2712 C2741 0.950 . S
H2713 C2742 0.950 . S
H2714 C2744 0.950 . S
H2715 C2745 0.950 . S
C2716 H2698 0.951 . S
C2716 C2717 1.366 . S
C2716 C2718 1.388 . S
C2717 C2716 1.366 . S
C2717 C2721 1.385 . S
C2718 H2699 0.951 . S
C2718 C2716 1.388 . S
C2718 C2719 1.366 . S
C2719 C2718 1.366 . S
C2719 C2720 1.414 . S
C2719 C2722 1.499 . S
C2720 H2700 0.950 . S
C2720 C2719 1.414 . S
C2720 C2721 1.374 . S
C2721 H2701 0.950 . S
C2721 C2717 1.385 . S
C2721 C2720 1.374 . S
C2722 C2719 1.499 . S
C2722 C2723 1.373 . S
C2722 C2724 1.389 . S
C2723 H2702 0.950 . S
C2723 C2722 1.373 . S
C2723 C2739 1.377 . S
C2724 C2722 1.389 . S
C2724 C2725 1.524 . S
C2724 C2738 1.377 . S
C2725 C2724 1.524 . S
C2725 C2726 1.397 . S
C2725 C2730 1.363 . S
C2726 H2703 0.950 . S
C2726 C2725 1.397 . S
C2726 C2727 1.334 . S
C2727 H2704 0.950 . S
C2727 C2726 1.334 . S
C2727 C2728 1.287 . S
C2728 C2727 1.287 . S
C2728 C2729 1.524 . S
C2728 H2747 0.913 . S
C2729 H2705 0.950 . S
C2729 C2728 1.524 . S
C2729 C2730 1.415 . S
C2730 H2706 0.950 . S
C2730 C2725 1.363 . S
C2730 C2729 1.415 . S
C2731 H2707 0.951 . S
C2731 C2732 1.366 . S
C2731 C2733 1.388 . S
C2732 C2731 1.366 . S
C2732 C2736 1.385 . S
C2733 H2708 0.951 . S
C2733 C2731 1.388 . S
C2733 C2734 1.366 . S
C2734 C2733 1.366 . S
C2734 C2735 1.414 . S
C2734 C2737 1.499 . S
C2735 H2709 0.950 . S
C2735 C2734 1.414 . S
C2735 C2736 1.374 . S
C2736 H2710 0.950 . S
C2736 C2732 1.385 . S
C2736 C2735 1.374 . S
C2737 C2734 1.499 . S
C2737 C2738 1.373 . S
C2737 C2739 1.389 . S
C2738 H2711 0.950 . S
C2738 C2724 1.377 . S
C2738 C2737 1.373 . S
C2739 C2723 1.377 . S
C2739 C2737 1.389 . S
C2739 C2740 1.524 . S
C2740 C2739 1.524 . S
C2740 C2741 1.397 . S
C2740 C2745 1.363 . S
C2741 H2712 0.950 . S
C2741 C2740 1.397 . S
C2741 C2742 1.334 . S
C2742 H2713 0.950 . S
C2742 C2741 1.334 . S
C2742 C2743 1.287 . S
C2743 C2742 1.287 . S
C2743 C2744 1.524 . S
C2743 H2746 0.999 . S
C2744 H2714 0.950 . S
C2744 C2743 1.524 . S
C2744 C2745 1.415 . S
C2745 H2715 0.950 . S
C2745 C2740 1.363 . S
C2745 C2744 1.415 . S
H2746 C2743 0.999 . S
H2747 C2728 0.913 . S
H2748 C2766 0.951 . S
H2749 C2768 0.951 . S
H2750 C2770 0.950 . S
H2751 C2771 0.950 . S
H2752 C2773 0.950 . S
H2753 C2776 0.950 . S
H2754 C2777 0.950 . S
H2755 C2779 0.950 . S
H2756 C2780 0.950 . S
H2757 C2781 0.951 . S
H2758 C2783 0.951 . S
H2759 C2785 0.950 . S
H2760 C2786 0.950 . S
H2761 C2788 0.950 . S
H2762 C2791 0.950 . S
H2763 C2792 0.950 . S
H2764 C2794 0.950 . S
H2765 C2795 0.950 . S
C2766 H2748 0.951 . S
C2766 C2767 1.366 . S
C2766 C2768 1.388 . S
C2767 C2766 1.366 . S
C2767 C2771 1.385 . S
C2768 H2749 0.951 . S
C2768 C2766 1.388 . S
C2768 C2769 1.366 . S
C2769 C2768 1.366 . S
C2769 C2770 1.414 . S
C2769 C2772 1.499 . S
C2770 H2750 0.950 . S
C2770 C2769 1.414 . S
C2770 C2771 1.374 . S
C2771 H2751 0.950 . S
C2771 C2767 1.385 . S
C2771 C2770 1.374 . S
C2772 C2769 1.499 . S
C2772 C2773 1.373 1_556 S
C2772 C2774 1.389 . S
C2773 H2752 0.950 . S
C2773 C2772 1.373 1_554 S
C2773 C2789 1.377 . S
C2774 C2772 1.389 . S
C2774 C2775 1.524 . S
C2774 C2788 1.377 . S
C2775 C2774 1.524 . S
C2775 C2776 1.397 . S
C2775 C2780 1.363 . S
C2776 H2753 0.950 . S
C2776 C2775 1.397 . S
C2776 C2777 1.334 . S
C2777 H2754 0.950 . S
C2777 C2776 1.334 . S
C2777 C2778 1.287 . S
C2778 C2777 1.287 . S
C2778 C2779 1.524 . S
C2778 H2797 0.913 . S
C2779 H2755 0.950 . S
C2779 C2778 1.524 . S
C2779 C2780 1.415 . S
C2780 H2756 0.950 . S
C2780 C2775 1.363 . S
C2780 C2779 1.415 . S
C2781 H2757 0.951 . S
C2781 C2782 1.366 . S
C2781 C2783 1.388 . S
C2782 C2781 1.366 . S
C2782 C2786 1.385 . S
C2783 H2758 0.951 . S
C2783 C2781 1.388 . S
C2783 C2784 1.366 . S
C2784 C2783 1.366 . S
C2784 C2785 1.414 . S
C2784 C2787 1.499 . S
C2785 H2759 0.950 . S
C2785 C2784 1.414 . S
C2785 C2786 1.374 . S
C2786 H2760 0.950 . S
C2786 C2782 1.385 . S
C2786 C2785 1.374 . S
C2787 C2784 1.499 . S
C2787 C2788 1.373 1_554 S
C2787 C2789 1.389 . S
C2788 H2761 0.950 . S
C2788 C2774 1.377 . S
C2788 C2787 1.373 1_556 S
C2789 C2773 1.377 . S
C2789 C2787 1.389 . S
C2789 C2790 1.524 . S
C2790 C2789 1.524 . S
C2790 C2791 1.397 . S
C2790 C2795 1.363 . S
C2791 H2762 0.950 . S
C2791 C2790 1.397 . S
C2791 C2792 1.334 . S
C2792 H2763 0.950 . S
C2792 C2791 1.334 . S
C2792 C2793 1.287 . S
C2793 C2792 1.287 . S
C2793 C2794 1.524 . S
C2793 H2796 0.999 . S
C2794 H2764 0.950 . S
C2794 C2793 1.524 . S
C2794 C2795 1.415 . S
C2795 H2765 0.950 . S
C2795 C2790 1.363 . S
C2795 C2794 1.415 . S
H2796 C2793 0.999 . S
H2797 C2778 0.913 . S
H2798 C2816 0.951 . S
H2799 C2818 0.951 . S
H2800 C2820 0.950 . S
H2801 C2821 0.950 . S
H2802 C2823 0.950 . S
H2803 C2826 0.950 . S
H2804 C2827 0.950 . S
H2805 C2829 0.950 . S
H2806 C2830 0.950 . S
H2807 C2831 0.951 . S
H2808 C2833 0.951 . S
H2809 C2835 0.950 . S
H2810 C2836 0.950 . S
H2811 C2838 0.950 . S
H2812 C2841 0.950 . S
H2813 C2842 0.950 . S
H2814 C2844 0.950 . S
H2815 C2845 0.950 . S
C2816 H2798 0.951 . S
C2816 C2817 1.366 . S
C2816 C2818 1.388 . S
C2817 C2816 1.366 . S
C2817 C2821 1.385 . S
C2818 H2799 0.951 . S
C2818 C2816 1.388 . S
C2818 C2819 1.366 . S
C2819 C2818 1.366 . S
C2819 C2820 1.414 . S
C2819 C2822 1.499 . S
C2820 H2800 0.950 . S
C2820 C2819 1.414 . S
C2820 C2821 1.374 . S
C2821 H2801 0.950 . S
C2821 C2817 1.385 . S
C2821 C2820 1.374 . S
C2822 C2819 1.499 . S
C2822 C2823 1.373 . S
C2822 C2824 1.389 . S
C2823 H2802 0.950 . S
C2823 C2822 1.373 . S
C2823 C2839 1.377 . S
C2824 C2822 1.389 . S
C2824 C2825 1.524 . S
C2824 C2838 1.377 . S
C2825 C2824 1.524 . S
C2825 C2826 1.397 . S
C2825 C2830 1.363 . S
C2826 H2803 0.950 . S
C2826 C2825 1.397 . S
C2826 C2827 1.334 . S
C2827 H2804 0.950 . S
C2827 C2826 1.334 . S
C2827 C2828 1.287 . S
C2828 C2827 1.287 . S
C2828 C2829 1.524 . S
C2828 H2847 0.913 . S
C2829 H2805 0.950 . S
C2829 C2828 1.524 . S
C2829 C2830 1.415 . S
C2830 H2806 0.950 . S
C2830 C2825 1.363 . S
C2830 C2829 1.415 . S
C2831 H2807 0.951 . S
C2831 C2832 1.366 . S
C2831 C2833 1.388 . S
C2832 C2831 1.366 . S
C2832 C2836 1.385 . S
C2833 H2808 0.951 . S
C2833 C2831 1.388 . S
C2833 C2834 1.366 . S
C2834 C2833 1.366 . S
C2834 C2835 1.414 . S
C2834 C2837 1.499 . S
C2835 H2809 0.950 . S
C2835 C2834 1.414 . S
C2835 C2836 1.374 . S
C2836 H2810 0.950 . S
C2836 C2832 1.385 . S
C2836 C2835 1.374 . S
C2837 C2834 1.499 . S
C2837 C2838 1.373 . S
C2837 C2839 1.389 . S
C2838 H2811 0.950 . S
C2838 C2824 1.377 . S
C2838 C2837 1.373 . S
C2839 C2823 1.377 . S
C2839 C2837 1.389 . S
C2839 C2840 1.524 . S
C2840 C2839 1.524 . S
C2840 C2841 1.397 . S
C2840 C2845 1.363 . S
C2841 H2812 0.950 . S
C2841 C2840 1.397 . S
C2841 C2842 1.334 . S
C2842 H2813 0.950 . S
C2842 C2841 1.334 . S
C2842 C2843 1.287 . S
C2843 C2842 1.287 . S
C2843 C2844 1.524 . S
C2843 H2846 0.999 . S
C2844 H2814 0.950 . S
C2844 C2843 1.524 . S
C2844 C2845 1.415 . S
C2845 H2815 0.950 . S
C2845 C2840 1.363 . S
C2845 C2844 1.415 . S
H2846 C2843 0.999 . S
H2847 C2828 0.913 . S
H2848 C2866 0.951 . S
H2849 C2868 0.951 . S
H2850 C2870 0.950 . S
H2851 C2871 0.950 . S
H2852 C2873 0.950 . S
H2853 C2876 0.950 . S
H2854 C2877 0.950 . S
H2855 C2879 0.950 . S
H2856 C2880 0.950 . S
H2857 C2881 0.951 . S
H2858 C2883 0.951 . S
H2859 C2885 0.950 . S
H2860 C2886 0.950 . S
H2861 C2888 0.950 . S
H2862 C2891 0.950 . S
H2863 C2892 0.950 . S
H2864 C2894 0.950 . S
H2865 C2895 0.950 . S
C2866 H2848 0.951 . S
C2866 C2867 1.366 . S
C2866 C2868 1.388 . S
C2867 C2866 1.366 . S
C2867 C2871 1.385 . S
C2868 H2849 0.951 . S
C2868 C2866 1.388 . S
C2868 C2869 1.366 . S
C2869 C2868 1.366 . S
C2869 C2870 1.414 . S
C2869 C2872 1.499 . S
C2870 H2850 0.950 . S
C2870 C2869 1.414 . S
C2870 C2871 1.374 . S
C2871 H2851 0.950 . S
C2871 C2867 1.385 . S
C2871 C2870 1.374 . S
C2872 C2869 1.499 . S
C2872 C2873 1.373 . S
C2872 C2874 1.389 . S
C2873 H2852 0.950 . S
C2873 C2872 1.373 . S
C2873 C2889 1.377 . S
C2874 C2872 1.389 . S
C2874 C2875 1.524 . S
C2874 C2888 1.377 . S
C2875 C2874 1.524 . S
C2875 C2876 1.397 . S
C2875 C2880 1.363 . S
C2876 H2853 0.950 . S
C2876 C2875 1.397 . S
C2876 C2877 1.334 . S
C2877 H2854 0.950 . S
C2877 C2876 1.334 . S
C2877 C2878 1.287 . S
C2878 C2877 1.287 . S
C2878 C2879 1.524 . S
C2878 H2897 0.913 . S
C2879 H2855 0.950 . S
C2879 C2878 1.524 . S
C2879 C2880 1.415 . S
C2880 H2856 0.950 . S
C2880 C2875 1.363 . S
C2880 C2879 1.415 . S
C2881 H2857 0.951 . S
C2881 C2882 1.366 . S
C2881 C2883 1.388 . S
C2882 C2881 1.366 . S
C2882 C2886 1.385 . S
C2883 H2858 0.951 . S
C2883 C2881 1.388 . S
C2883 C2884 1.366 . S
C2884 C2883 1.366 . S
C2884 C2885 1.414 . S
C2884 C2887 1.499 . S
C2885 H2859 0.950 . S
C2885 C2884 1.414 . S
C2885 C2886 1.374 . S
C2886 H2860 0.950 . S
C2886 C2882 1.385 . S
C2886 C2885 1.374 . S
C2887 C2884 1.499 . S
C2887 C2888 1.373 . S
C2887 C2889 1.389 . S
C2888 H2861 0.950 . S
C2888 C2874 1.377 . S
C2888 C2887 1.373 . S
C2889 C2873 1.377 . S
C2889 C2887 1.389 . S
C2889 C2890 1.524 . S
C2890 C2889 1.524 . S
C2890 C2891 1.397 . S
C2890 C2895 1.363 . S
C2891 H2862 0.950 . S
C2891 C2890 1.397 . S
C2891 C2892 1.334 . S
C2892 H2863 0.950 . S
C2892 C2891 1.334 . S
C2892 C2893 1.287 . S
C2893 C2892 1.287 . S
C2893 C2894 1.524 . S
C2893 H2896 0.999 . S
C2894 H2864 0.950 . S
C2894 C2893 1.524 . S
C2894 C2895 1.415 . S
C2895 H2865 0.950 . S
C2895 C2890 1.363 . S
C2895 C2894 1.415 . S
H2896 C2893 0.999 . S
H2897 C2878 0.913 . S
H2898 C2916 0.951 . S
H2899 C2918 0.951 . S
H2900 C2920 0.950 . S
H2901 C2921 0.950 . S
H2902 C2923 0.950 . S
H2903 C2926 0.950 . S
H2904 C2927 0.950 . S
H2905 C2929 0.950 . S
H2906 C2930 0.950 . S
H2907 C2931 0.951 . S
H2908 C2933 0.951 . S
H2909 C2935 0.950 . S
H2910 C2936 0.950 . S
H2911 C2938 0.950 . S
H2912 C2941 0.950 . S
H2913 C2942 0.950 . S
H2914 C2944 0.950 . S
H2915 C2945 0.950 . S
C2916 H2898 0.951 . S
C2916 C2917 1.366 . S
C2916 C2918 1.388 . S
C2917 C2916 1.366 . S
C2917 C2921 1.385 . S
C2918 H2899 0.951 . S
C2918 C2916 1.388 . S
C2918 C2919 1.366 . S
C2919 C2918 1.366 . S
C2919 C2920 1.414 . S
C2919 C2922 1.499 . S
C2920 H2900 0.950 . S
C2920 C2919 1.414 . S
C2920 C2921 1.374 . S
C2921 H2901 0.950 . S
C2921 C2917 1.385 . S
C2921 C2920 1.374 . S
C2922 C2919 1.499 . S
C2922 C2923 1.373 . S
C2922 C2924 1.389 . S
C2923 H2902 0.950 . S
C2923 C2922 1.373 . S
C2923 C2939 1.377 . S
C2924 C2922 1.389 . S
C2924 C2925 1.524 . S
C2924 C2938 1.377 . S
C2925 C2924 1.524 . S
C2925 C2926 1.397 . S
C2925 C2930 1.363 . S
C2926 H2903 0.950 . S
C2926 C2925 1.397 . S
C2926 C2927 1.334 . S
C2927 H2904 0.950 . S
C2927 C2926 1.334 . S
C2927 C2928 1.287 . S
C2928 C2927 1.287 . S
C2928 C2929 1.524 . S
C2928 H2947 0.913 . S
C2929 H2905 0.950 . S
C2929 C2928 1.524 . S
C2929 C2930 1.415 . S
C2930 H2906 0.950 . S
C2930 C2925 1.363 . S
C2930 C2929 1.415 . S
C2931 H2907 0.951 . S
C2931 C2932 1.366 . S
C2931 C2933 1.388 . S
C2932 C2931 1.366 . S
C2932 C2936 1.385 . S
C2933 H2908 0.951 . S
C2933 C2931 1.388 . S
C2933 C2934 1.366 . S
C2934 C2933 1.366 . S
C2934 C2935 1.414 . S
C2934 C2937 1.499 . S
C2935 H2909 0.950 . S
C2935 C2934 1.414 . S
C2935 C2936 1.374 . S
C2936 H2910 0.950 . S
C2936 C2932 1.385 . S
C2936 C2935 1.374 . S
C2937 C2934 1.499 . S
C2937 C2938 1.373 . S
C2937 C2939 1.389 . S
C2938 H2911 0.950 . S
C2938 C2924 1.377 . S
C2938 C2937 1.373 . S
C2939 C2923 1.377 . S
C2939 C2937 1.389 . S
C2939 C2940 1.524 . S
C2940 C2939 1.524 . S
C2940 C2941 1.397 . S
C2940 C2945 1.363 . S
C2941 H2912 0.950 . S
C2941 C2940 1.397 . S
C2941 C2942 1.334 . S
C2942 H2913 0.950 . S
C2942 C2941 1.334 . S
C2942 C2943 1.287 . S
C2943 C2942 1.287 . S
C2943 C2944 1.524 . S
C2943 H2946 0.999 . S
C2944 H2914 0.950 . S
C2944 C2943 1.524 . S
C2944 C2945 1.415 . S
C2945 H2915 0.950 . S
C2945 C2940 1.363 . S
C2945 C2944 1.415 . S
H2946 C2943 0.999 . S
H2947 C2928 0.913 . S
H2948 C2966 0.951 . S
H2949 C2968 0.951 . S
H2950 C2970 0.950 . S
H2951 C2971 0.950 . S
H2952 C2973 0.950 . S
H2953 C2976 0.950 . S
H2954 C2977 0.950 . S
H2955 C2979 0.950 . S
H2956 C2980 0.950 . S
H2957 C2981 0.951 . S
H2958 C2983 0.951 . S
H2959 C2985 0.950 . S
H2960 C2986 0.950 . S
H2961 C2988 0.950 . S
H2962 C2991 0.950 . S
H2963 C2992 0.950 . S
H2964 C2994 0.950 . S
H2965 C2995 0.950 . S
C2966 H2948 0.951 . S
C2966 C2967 1.366 . S
C2966 C2968 1.388 . S
C2967 C2966 1.366 . S
C2967 C2971 1.385 . S
C2968 H2949 0.951 . S
C2968 C2966 1.388 . S
C2968 C2969 1.366 . S
C2969 C2968 1.366 . S
C2969 C2970 1.414 . S
C2969 C2972 1.499 . S
C2970 H2950 0.950 . S
C2970 C2969 1.414 . S
C2970 C2971 1.374 . S
C2971 H2951 0.950 . S
C2971 C2967 1.385 . S
C2971 C2970 1.374 . S
C2972 C2969 1.499 . S
C2972 C2973 1.373 . S
C2972 C2974 1.389 . S
C2973 H2952 0.950 . S
C2973 C2972 1.373 . S
C2973 C2989 1.377 . S
C2974 C2972 1.389 . S
C2974 C2975 1.524 . S
C2974 C2988 1.377 . S
C2975 C2974 1.524 . S
C2975 C2976 1.397 . S
C2975 C2980 1.363 . S
C2976 H2953 0.950 . S
C2976 C2975 1.397 . S
C2976 C2977 1.334 . S
C2977 H2954 0.950 . S
C2977 C2976 1.334 . S
C2977 C2978 1.287 . S
C2978 C2977 1.287 . S
C2978 C2979 1.524 . S
C2978 H2997 0.913 . S
C2979 H2955 0.950 . S
C2979 C2978 1.524 . S
C2979 C2980 1.415 . S
C2980 H2956 0.950 . S
C2980 C2975 1.363 . S
C2980 C2979 1.415 . S
C2981 H2957 0.951 . S
C2981 C2982 1.366 . S
C2981 C2983 1.388 . S
C2982 C2981 1.366 . S
C2982 C2986 1.385 . S
C2983 H2958 0.951 . S
C2983 C2981 1.388 . S
C2983 C2984 1.366 . S
C2984 C2983 1.366 . S
C2984 C2985 1.414 . S
C2984 C2987 1.499 . S
C2985 H2959 0.950 . S
C2985 C2984 1.414 . S
C2985 C2986 1.374 . S
C2986 H2960 0.950 . S
C2986 C2982 1.385 . S
C2986 C2985 1.374 . S
C2987 C2984 1.499 . S
C2987 C2988 1.373 . S
C2987 C2989 1.389 . S
C2988 H2961 0.950 . S
C2988 C2974 1.377 . S
C2988 C2987 1.373 . S
C2989 C2973 1.377 . S
C2989 C2987 1.389 . S
C2989 C2990 1.524 . S
C2990 C2989 1.524 . S
C2990 C2991 1.397 . S
C2990 C2995 1.363 . S
C2991 H2962 0.950 . S
C2991 C2990 1.397 . S
C2991 C2992 1.334 . S
C2992 H2963 0.950 . S
C2992 C2991 1.334 . S
C2992 C2993 1.287 . S
C2993 C2992 1.287 . S
C2993 C2994 1.524 . S
C2993 H2996 0.999 . S
C2994 H2964 0.950 . S
C2994 C2993 1.524 . S
C2994 C2995 1.415 . S
C2995 H2965 0.950 . S
C2995 C2990 1.363 . S
C2995 C2994 1.415 . S
H2996 C2993 0.999 . S
H2997 C2978 0.913 . S
H2998 C3016 0.951 . S
H2999 C3018 0.951 . S
H3000 C3020 0.950 . S
H3001 C3021 0.950 . S
H3002 C3023 0.950 . S
H3003 C3026 0.950 . S
H3004 C3027 0.950 . S
H3005 C3029 0.950 . S
H3006 C3030 0.950 . S
H3007 C3031 0.951 . S
H3008 C3033 0.951 . S
H3009 C3035 0.950 . S
H3010 C3036 0.950 . S
H3011 C3038 0.950 . S
H3012 C3041 0.950 . S
H3013 C3042 0.950 . S
H3014 C3044 0.950 . S
H3015 C3045 0.950 . S
C3016 H2998 0.951 . S
C3016 C3017 1.366 . S
C3016 C3018 1.388 . S
C3017 C3016 1.366 . S
C3017 C3021 1.385 . S
C3018 H2999 0.951 . S
C3018 C3016 1.388 . S
C3018 C3019 1.366 . S
C3019 C3018 1.366 . S
C3019 C3020 1.414 . S
C3019 C3022 1.499 . S
C3020 H3000 0.950 . S
C3020 C3019 1.414 . S
C3020 C3021 1.374 . S
C3021 H3001 0.950 . S
C3021 C3017 1.385 . S
C3021 C3020 1.374 . S
C3022 C3019 1.499 . S
C3022 C3023 1.373 . S
C3022 C3024 1.389 . S
C3023 H3002 0.950 . S
C3023 C3022 1.373 . S
C3023 C3039 1.377 . S
C3024 C3022 1.389 . S
C3024 C3025 1.524 . S
C3024 C3038 1.377 . S
C3025 C3024 1.524 . S
C3025 C3026 1.397 . S
C3025 C3030 1.363 . S
C3026 H3003 0.950 . S
C3026 C3025 1.397 . S
C3026 C3027 1.334 . S
C3027 H3004 0.950 . S
C3027 C3026 1.334 . S
C3027 C3028 1.287 . S
C3028 C3027 1.287 . S
C3028 C3029 1.524 . S
C3028 H3047 0.913 . S
C3029 H3005 0.950 . S
C3029 C3028 1.524 . S
C3029 C3030 1.415 . S
C3030 H3006 0.950 . S
C3030 C3025 1.363 . S
C3030 C3029 1.415 . S
C3031 H3007 0.951 . S
C3031 C3032 1.366 . S
C3031 C3033 1.388 . S
C3032 C3031 1.366 . S
C3032 C3036 1.385 . S
C3033 H3008 0.951 . S
C3033 C3031 1.388 . S
C3033 C3034 1.366 . S
C3034 C3033 1.366 . S
C3034 C3035 1.414 . S
C3034 C3037 1.499 . S
C3035 H3009 0.950 . S
C3035 C3034 1.414 . S
C3035 C3036 1.374 . S
C3036 H3010 0.950 . S
C3036 C3032 1.385 . S
C3036 C3035 1.374 . S
C3037 C3034 1.499 . S
C3037 C3038 1.373 . S
C3037 C3039 1.389 . S
C3038 H3011 0.950 . S
C3038 C3024 1.377 . S
C3038 C3037 1.373 . S
C3039 C3023 1.377 . S
C3039 C3037 1.389 . S
C3039 C3040 1.524 . S
C3040 C3039 1.524 . S
C3040 C3041 1.397 . S
C3040 C3045 1.363 . S
C3041 H3012 0.950 . S
C3041 C3040 1.397 . S
C3041 C3042 1.334 . S
C3042 H3013 0.950 . S
C3042 C3041 1.334 . S
C3042 C3043 1.287 . S
C3043 C3042 1.287 . S
C3043 C3044 1.524 . S
C3043 H3046 0.999 . S
C3044 H3014 0.950 . S
C3044 C3043 1.524 . S
C3044 C3045 1.415 . S
C3045 H3015 0.950 . S
C3045 C3040 1.363 . S
C3045 C3044 1.415 . S
H3046 C3043 0.999 . S
H3047 C3028 0.913 . S
H3048 C3066 0.951 . S
H3049 C3068 0.951 . S
H3050 C3070 0.950 . S
H3051 C3071 0.950 . S
H3052 C3073 0.950 . S
H3053 C3076 0.950 . S
H3054 C3077 0.950 . S
H3055 C3079 0.950 . S
H3056 C3080 0.950 . S
H3057 C3081 0.951 . S
H3058 C3083 0.951 . S
H3059 C3085 0.950 . S
H3060 C3086 0.950 . S
H3061 C3088 0.950 . S
H3062 C3091 0.950 . S
H3063 C3092 0.950 . S
H3064 C3094 0.950 . S
H3065 C3095 0.950 . S
C3066 H3048 0.951 . S
C3066 C3067 1.366 . S
C3066 C3068 1.388 . S
C3067 C3066 1.366 . S
C3067 C3071 1.385 . S
C3068 H3049 0.951 . S
C3068 C3066 1.388 . S
C3068 C3069 1.366 . S
C3069 C3068 1.366 . S
C3069 C3070 1.414 . S
C3069 C3072 1.499 . S
C3070 H3050 0.950 . S
C3070 C3069 1.414 . S
C3070 C3071 1.374 . S
C3071 H3051 0.950 . S
C3071 C3067 1.385 . S
C3071 C3070 1.374 . S
C3072 C3069 1.499 . S
C3072 C3073 1.373 . S
C3072 C3074 1.389 . S
C3073 H3052 0.950 . S
C3073 C3072 1.373 . S
C3073 C3089 1.377 . S
C3074 C3072 1.389 . S
C3074 C3075 1.524 . S
C3074 C3088 1.377 . S
C3075 C3074 1.524 . S
C3075 C3076 1.397 . S
C3075 C3080 1.363 . S
C3076 H3053 0.950 . S
C3076 C3075 1.397 . S
C3076 C3077 1.334 . S
C3077 H3054 0.950 . S
C3077 C3076 1.334 . S
C3077 C3078 1.287 . S
C3078 C3077 1.287 . S
C3078 C3079 1.524 . S
C3078 H3097 0.913 . S
C3079 H3055 0.950 . S
C3079 C3078 1.524 . S
C3079 C3080 1.415 . S
C3080 H3056 0.950 . S
C3080 C3075 1.363 . S
C3080 C3079 1.415 . S
C3081 H3057 0.951 . S
C3081 C3082 1.366 . S
C3081 C3083 1.388 . S
C3082 C3081 1.366 . S
C3082 C3086 1.385 . S
C3083 H3058 0.951 . S
C3083 C3081 1.388 . S
C3083 C3084 1.366 . S
C3084 C3083 1.366 . S
C3084 C3085 1.414 . S
C3084 C3087 1.499 . S
C3085 H3059 0.950 . S
C3085 C3084 1.414 . S
C3085 C3086 1.374 . S
C3086 H3060 0.950 . S
C3086 C3082 1.385 . S
C3086 C3085 1.374 . S
C3087 C3084 1.499 . S
C3087 C3088 1.373 . S
C3087 C3089 1.389 . S
C3088 H3061 0.950 . S
C3088 C3074 1.377 . S
C3088 C3087 1.373 . S
C3089 C3073 1.377 . S
C3089 C3087 1.389 . S
C3089 C3090 1.524 . S
C3090 C3089 1.524 . S
C3090 C3091 1.397 . S
C3090 C3095 1.363 . S
C3091 H3062 0.950 . S
C3091 C3090 1.397 . S
C3091 C3092 1.334 . S
C3092 H3063 0.950 . S
C3092 C3091 1.334 . S
C3092 C3093 1.287 . S
C3093 C3092 1.287 . S
C3093 C3094 1.524 . S
C3093 H3096 0.999 . S
C3094 H3064 0.950 . S
C3094 C3093 1.524 . S
C3094 C3095 1.415 . S
C3095 H3065 0.950 . S
C3095 C3090 1.363 . S
C3095 C3094 1.415 . S
H3096 C3093 0.999 . S
H3097 C3078 0.913 . S
H3098 C3116 0.951 . S
H3099 C3118 0.951 . S
H3100 C3120 0.950 . S
H3101 C3121 0.950 . S
H3102 C3123 0.950 . S
H3103 C3126 0.950 . S
H3104 C3127 0.950 . S
H3105 C3129 0.950 . S
H3106 C3130 0.950 . S
H3107 C3131 0.951 . S
H3108 C3133 0.951 . S
H3109 C3135 0.950 . S
H3110 C3136 0.950 . S
H3111 C3138 0.950 . S
H3112 C3141 0.950 . S
H3113 C3142 0.950 . S
H3114 C3144 0.950 . S
H3115 C3145 0.950 . S
C3116 H3098 0.951 . S
C3116 C3117 1.366 . S
C3116 C3118 1.388 . S
C3117 C3116 1.366 . S
C3117 C3121 1.385 . S
C3118 H3099 0.951 . S
C3118 C3116 1.388 . S
C3118 C3119 1.366 . S
C3119 C3118 1.366 . S
C3119 C3120 1.414 . S
C3119 C3122 1.499 . S
C3120 H3100 0.950 . S
C3120 C3119 1.414 . S
C3120 C3121 1.374 . S
C3121 H3101 0.950 . S
C3121 C3117 1.385 . S
C3121 C3120 1.374 . S
C3122 C3119 1.499 . S
C3122 C3123 1.373 . S
C3122 C3124 1.389 . S
C3123 H3102 0.950 . S
C3123 C3122 1.373 . S
C3123 C3139 1.377 . S
C3124 C3122 1.389 . S
C3124 C3125 1.524 . S
C3124 C3138 1.377 . S
C3125 C3124 1.524 . S
C3125 C3126 1.397 . S
C3125 C3130 1.363 . S
C3126 H3103 0.950 . S
C3126 C3125 1.397 . S
C3126 C3127 1.334 . S
C3127 H3104 0.950 . S
C3127 C3126 1.334 . S
C3127 C3128 1.287 . S
C3128 C3127 1.287 . S
C3128 C3129 1.524 . S
C3128 H3147 0.913 . S
C3129 H3105 0.950 . S
C3129 C3128 1.524 . S
C3129 C3130 1.415 . S
C3130 H3106 0.950 . S
C3130 C3125 1.363 . S
C3130 C3129 1.415 . S
C3131 H3107 0.951 . S
C3131 C3132 1.366 . S
C3131 C3133 1.388 . S
C3132 C3131 1.366 . S
C3132 C3136 1.385 . S
C3133 H3108 0.951 . S
C3133 C3131 1.388 . S
C3133 C3134 1.366 . S
C3134 C3133 1.366 . S
C3134 C3135 1.414 . S
C3134 C3137 1.499 . S
C3135 H3109 0.950 . S
C3135 C3134 1.414 . S
C3135 C3136 1.374 . S
C3136 H3110 0.950 . S
C3136 C3132 1.385 . S
C3136 C3135 1.374 . S
C3137 C3134 1.499 . S
C3137 C3138 1.373 . S
C3137 C3139 1.389 . S
C3138 H3111 0.950 . S
C3138 C3124 1.377 . S
C3138 C3137 1.373 . S
C3139 C3123 1.377 . S
C3139 C3137 1.389 . S
C3139 C3140 1.524 . S
C3140 C3139 1.524 . S
C3140 C3141 1.397 . S
C3140 C3145 1.363 . S
C3141 H3112 0.950 . S
C3141 C3140 1.397 . S
C3141 C3142 1.334 . S
C3142 H3113 0.950 . S
C3142 C3141 1.334 . S
C3142 C3143 1.287 . S
C3143 C3142 1.287 . S
C3143 C3144 1.524 . S
C3143 H3146 0.999 . S
C3144 H3114 0.950 . S
C3144 C3143 1.524 . S
C3144 C3145 1.415 . S
C3145 H3115 0.950 . S
C3145 C3140 1.363 . S
C3145 C3144 1.415 . S
H3146 C3143 0.999 . S
H3147 C3128 0.913 . S
H3148 C3166 0.951 . S
H3149 C3168 0.951 . S
H3150 C3170 0.950 . S
H3151 C3171 0.950 . S
H3152 C3173 0.950 . S
H3153 C3176 0.950 . S
H3154 C3177 0.950 . S
H3155 C3179 0.950 . S
H3156 C3180 0.950 . S
H3157 C3181 0.951 . S
H3158 C3183 0.951 . S
H3159 C3185 0.950 . S
H3160 C3186 0.950 . S
H3161 C3188 0.950 . S
H3162 C3191 0.950 . S
H3163 C3192 0.950 . S
H3164 C3194 0.950 . S
H3165 C3195 0.950 . S
C3166 H3148 0.951 . S
C3166 C3167 1.366 . S
C3166 C3168 1.388 . S
C3167 C3166 1.366 . S
C3167 C3171 1.385 . S
C3168 H3149 0.951 . S
C3168 C3166 1.388 . S
C3168 C3169 1.366 . S
C3169 C3168 1.366 . S
C3169 C3170 1.414 . S
C3169 C3172 1.499 . S
C3170 H3150 0.950 . S
C3170 C3169 1.414 . S
C3170 C3171 1.374 . S
C3171 H3151 0.950 . S
C3171 C3167 1.385 . S
C3171 C3170 1.374 . S
C3172 C3169 1.499 . S
C3172 C3173 1.373 . S
C3172 C3174 1.389 . S
C3173 H3152 0.950 . S
C3173 C3172 1.373 . S
C3173 C3189 1.377 . S
C3174 C3172 1.389 . S
C3174 C3175 1.524 . S
C3174 C3188 1.377 . S
C3175 C3174 1.524 . S
C3175 C3176 1.397 . S
C3175 C3180 1.363 . S
C3176 H3153 0.950 . S
C3176 C3175 1.397 . S
C3176 C3177 1.334 . S
C3177 H3154 0.950 . S
C3177 C3176 1.334 . S
C3177 C3178 1.287 . S
C3178 C3177 1.287 . S
C3178 C3179 1.524 . S
C3178 H3197 0.913 . S
C3179 H3155 0.950 . S
C3179 C3178 1.524 . S
C3179 C3180 1.415 . S
C3180 H3156 0.950 . S
C3180 C3175 1.363 . S
C3180 C3179 1.415 . S
C3181 H3157 0.951 . S
C3181 C3182 1.366 . S
C3181 C3183 1.388 . S
C3182 C3181 1.366 . S
C3182 C3186 1.385 . S
C3183 H3158 0.951 . S
C3183 C3181 1.388 . S
C3183 C3184 1.366 . S
C3184 C3183 1.366 . S
C3184 C3185 1.414 . S
C3184 C3187 1.499 . S
C3185 H3159 0.950 . S
C3185 C3184 1.414 . S
C3185 C3186 1.374 . S
C3186 H3160 0.950 . S
C3186 C3182 1.385 . S
C3186 C3185 1.374 . S
C3187 C3184 1.499 . S
C3187 C3188 1.373 . S
C3187 C3189 1.389 . S
C3188 H3161 0.950 . S
C3188 C3174 1.377 . S
C3188 C3187 1.373 . S
C3189 C3173 1.377 . S
C3189 C3187 1.389 . S
C3189 C3190 1.524 . S
C3190 C3189 1.524 . S
C3190 C3191 1.397 . S
C3190 C3195 1.363 . S
C3191 H3162 0.950 . S
C3191 C3190 1.397 . S
C3191 C3192 1.334 . S
C3192 H3163 0.950 . S
C3192 C3191 1.334 . S
C3192 C3193 1.287 . S
C3193 C3192 1.287 . S
C3193 C3194 1.524 . S
C3193 H3196 0.999 . S
C3194 H3164 0.950 . S
C3194 C3193 1.524 . S
C3194 C3195 1.415 . S
C3195 H3165 0.950 . S
C3195 C3190 1.363 . S
C3195 C3194 1.415 . S
H3196 C3193 0.999 . S
H3197 C3178 0.913 . S
H3198 C3216 0.951 . S
H3199 C3218 0.951 . S
H3200 C3220 0.950 . S
H3201 C3221 0.950 . S
H3202 C3223 0.950 . S
H3203 C3226 0.950 . S
H3204 C3227 0.950 . S
H3205 C3229 0.950 . S
H3206 C3230 0.950 . S
H3207 C3231 0.951 . S
H3208 C3233 0.951 . S
H3209 C3235 0.950 . S
H3210 C3236 0.950 . S
H3211 C3238 0.950 . S
H3212 C3241 0.950 . S
H3213 C3242 0.950 . S
H3214 C3244 0.950 . S
H3215 C3245 0.950 . S
C3216 H3198 0.951 . S
C3216 C3217 1.366 . S
C3216 C3218 1.388 . S
C3217 C3216 1.366 . S
C3217 C3221 1.385 . S
C3218 H3199 0.951 . S
C3218 C3216 1.388 . S
C3218 C3219 1.366 . S
C3219 C3218 1.366 . S
C3219 C3220 1.414 . S
C3219 C3222 1.499 . S
C3220 H3200 0.950 . S
C3220 C3219 1.414 . S
C3220 C3221 1.374 . S
C3221 H3201 0.950 . S
C3221 C3217 1.385 . S
C3221 C3220 1.374 . S
C3222 C3219 1.499 . S
C3222 C3223 1.373 . S
C3222 C3224 1.389 . S
C3223 H3202 0.950 . S
C3223 C3222 1.373 . S
C3223 C3239 1.377 . S
C3224 C3222 1.389 . S
C3224 C3225 1.524 . S
C3224 C3238 1.377 . S
C3225 C3224 1.524 . S
C3225 C3226 1.397 . S
C3225 C3230 1.363 . S
C3226 H3203 0.950 . S
C3226 C3225 1.397 . S
C3226 C3227 1.334 . S
C3227 H3204 0.950 . S
C3227 C3226 1.334 . S
C3227 C3228 1.287 . S
C3228 C3227 1.287 . S
C3228 C3229 1.524 . S
C3228 H3247 0.913 . S
C3229 H3205 0.950 . S
C3229 C3228 1.524 . S
C3229 C3230 1.415 . S
C3230 H3206 0.950 . S
C3230 C3225 1.363 . S
C3230 C3229 1.415 . S
C3231 H3207 0.951 . S
C3231 C3232 1.366 . S
C3231 C3233 1.388 . S
C3232 C3231 1.366 . S
C3232 C3236 1.385 . S
C3233 H3208 0.951 . S
C3233 C3231 1.388 . S
C3233 C3234 1.366 . S
C3234 C3233 1.366 . S
C3234 C3235 1.414 . S
C3234 C3237 1.499 . S
C3235 H3209 0.950 . S
C3235 C3234 1.414 . S
C3235 C3236 1.374 . S
C3236 H3210 0.950 . S
C3236 C3232 1.385 . S
C3236 C3235 1.374 . S
C3237 C3234 1.499 . S
C3237 C3238 1.373 . S
C3237 C3239 1.389 . S
C3238 H3211 0.950 . S
C3238 C3224 1.377 . S
C3238 C3237 1.373 . S
C3239 C3223 1.377 . S
C3239 C3237 1.389 . S
C3239 C3240 1.524 . S
C3240 C3239 1.524 . S
C3240 C3241 1.397 . S
C3240 C3245 1.363 . S
C3241 H3212 0.950 . S
C3241 C3240 1.397 . S
C3241 C3242 1.334 . S
C3242 H3213 0.950 . S
C3242 C3241 1.334 . S
C3242 C3243 1.287 . S
C3243 C3242 1.287 . S
C3243 C3244 1.524 . S
C3243 H3246 0.999 . S
C3244 H3214 0.950 . S
C3244 C3243 1.524 . S
C3244 C3245 1.415 . S
C3245 H3215 0.950 . S
C3245 C3240 1.363 . S
C3245 C3244 1.415 . S
H3246 C3243 0.999 . S
H3247 C3228 0.913 . S
H3248 C3266 0.951 . S
H3249 C3268 0.951 . S
H3250 C3270 0.950 . S
H3251 C3271 0.950 . S
H3252 C3273 0.950 . S
H3253 C3276 0.950 . S
H3254 C3277 0.950 . S
H3255 C3279 0.950 . S
H3256 C3280 0.950 . S
H3257 C3281 0.951 . S
H3258 C3283 0.951 . S
H3259 C3285 0.950 . S
H3260 C3286 0.950 . S
H3261 C3288 0.950 . S
H3262 C3291 0.950 . S
H3263 C3292 0.950 . S
H3264 C3294 0.950 . S
H3265 C3295 0.950 . S
C3266 H3248 0.951 . S
C3266 C3267 1.366 . S
C3266 C3268 1.388 . S
C3267 C3266 1.366 . S
C3267 C3271 1.385 . S
C3268 H3249 0.951 . S
C3268 C3266 1.388 . S
C3268 C3269 1.366 . S
C3269 C3268 1.366 . S
C3269 C3270 1.414 . S
C3269 C3272 1.499 . S
C3270 H3250 0.950 . S
C3270 C3269 1.414 . S
C3270 C3271 1.374 . S
C3271 H3251 0.950 . S
C3271 C3267 1.385 . S
C3271 C3270 1.374 . S
C3272 C3269 1.499 . S
C3272 C3273 1.373 . S
C3272 C3274 1.389 . S
C3273 H3252 0.950 . S
C3273 C3272 1.373 . S
C3273 C3289 1.377 . S
C3274 C3272 1.389 . S
C3274 C3275 1.524 . S
C3274 C3288 1.377 . S
C3275 C3274 1.524 . S
C3275 C3276 1.397 . S
C3275 C3280 1.363 . S
C3276 H3253 0.950 . S
C3276 C3275 1.397 . S
C3276 C3277 1.334 . S
C3277 H3254 0.950 . S
C3277 C3276 1.334 . S
C3277 C3278 1.287 . S
C3278 C3277 1.287 . S
C3278 C3279 1.524 . S
C3278 H3297 0.913 . S
C3279 H3255 0.950 . S
C3279 C3278 1.524 . S
C3279 C3280 1.415 . S
C3280 H3256 0.950 . S
C3280 C3275 1.363 . S
C3280 C3279 1.415 . S
C3281 H3257 0.951 . S
C3281 C3282 1.366 . S
C3281 C3283 1.388 . S
C3282 C3281 1.366 . S
C3282 C3286 1.385 . S
C3283 H3258 0.951 . S
C3283 C3281 1.388 . S
C3283 C3284 1.366 . S
C3284 C3283 1.366 . S
C3284 C3285 1.414 . S
C3284 C3287 1.499 . S
C3285 H3259 0.950 . S
C3285 C3284 1.414 . S
C3285 C3286 1.374 . S
C3286 H3260 0.950 . S
C3286 C3282 1.385 . S
C3286 C3285 1.374 . S
C3287 C3284 1.499 . S
C3287 C3288 1.373 . S
C3287 C3289 1.389 . S
C3288 H3261 0.950 . S
C3288 C3274 1.377 . S
C3288 C3287 1.373 . S
C3289 C3273 1.377 . S
C3289 C3287 1.389 . S
C3289 C3290 1.524 . S
C3290 C3289 1.524 . S
C3290 C3291 1.397 . S
C3290 C3295 1.363 . S
C3291 H3262 0.950 . S
C3291 C3290 1.397 . S
C3291 C3292 1.334 . S
C3292 H3263 0.950 . S
C3292 C3291 1.334 . S
C3292 C3293 1.287 . S
C3293 C3292 1.287 . S
C3293 C3294 1.524 . S
C3293 H3296 0.999 . S
C3294 H3264 0.950 . S
C3294 C3293 1.524 . S
C3294 C3295 1.415 . S
C3295 H3265 0.950 . S
C3295 C3290 1.363 . S
C3295 C3294 1.415 . S
H3296 C3293 0.999 . S
H3297 C3278 0.913 . S
H3298 C3316 0.951 . S
H3299 C3318 0.951 . S
H3300 C3320 0.950 . S
H3301 C3321 0.950 . S
H3302 C3323 0.950 . S
H3303 C3326 0.950 . S
H3304 C3327 0.950 . S
H3305 C3329 0.950 . S
H3306 C3330 0.950 . S
H3307 C3331 0.951 . S
H3308 C3333 0.951 . S
H3309 C3335 0.950 . S
H3310 C3336 0.950 . S
H3311 C3338 0.950 . S
H3312 C3341 0.950 . S
H3313 C3342 0.950 . S
H3314 C3344 0.950 . S
H3315 C3345 0.950 . S
C3316 H3298 0.951 . S
C3316 C3317 1.366 . S
C3316 C3318 1.388 . S
C3317 C3316 1.366 . S
C3317 C3321 1.385 . S
C3318 H3299 0.951 . S
C3318 C3316 1.388 . S
C3318 C3319 1.366 . S
C3319 C3318 1.366 . S
C3319 C3320 1.414 . S
C3319 C3322 1.499 . S
C3320 H3300 0.950 . S
C3320 C3319 1.414 . S
C3320 C3321 1.374 . S
C3321 H3301 0.950 . S
C3321 C3317 1.385 . S
C3321 C3320 1.374 . S
C3322 C3319 1.499 . S
C3322 C3323 1.373 . S
C3322 C3324 1.389 . S
C3323 H3302 0.950 . S
C3323 C3322 1.373 . S
C3323 C3339 1.377 . S
C3324 C3322 1.389 . S
C3324 C3325 1.524 . S
C3324 C3338 1.377 . S
C3325 C3324 1.524 . S
C3325 C3326 1.397 . S
C3325 C3330 1.363 . S
C3326 H3303 0.950 . S
C3326 C3325 1.397 . S
C3326 C3327 1.334 . S
C3327 H3304 0.950 . S
C3327 C3326 1.334 . S
C3327 C3328 1.287 . S
C3328 C3327 1.287 . S
C3328 C3329 1.524 . S
C3328 H3347 0.913 . S
C3329 H3305 0.950 . S
C3329 C3328 1.524 . S
C3329 C3330 1.415 . S
C3330 H3306 0.950 . S
C3330 C3325 1.363 . S
C3330 C3329 1.415 . S
C3331 H3307 0.951 . S
C3331 C3332 1.366 . S
C3331 C3333 1.388 . S
C3332 C3331 1.366 . S
C3332 C3336 1.385 . S
C3333 H3308 0.951 . S
C3333 C3331 1.388 . S
C3333 C3334 1.366 . S
C3334 C3333 1.366 . S
C3334 C3335 1.414 . S
C3334 C3337 1.499 . S
C3335 H3309 0.950 . S
C3335 C3334 1.414 . S
C3335 C3336 1.374 . S
C3336 H3310 0.950 . S
C3336 C3332 1.385 . S
C3336 C3335 1.374 . S
C3337 C3334 1.499 . S
C3337 C3338 1.373 . S
C3337 C3339 1.389 . S
C3338 H3311 0.950 . S
C3338 C3324 1.377 . S
C3338 C3337 1.373 . S
C3339 C3323 1.377 . S
C3339 C3337 1.389 . S
C3339 C3340 1.524 . S
C3340 C3339 1.524 . S
C3340 C3341 1.397 . S
C3340 C3345 1.363 . S
C3341 H3312 0.950 . S
C3341 C3340 1.397 . S
C3341 C3342 1.334 . S
C3342 H3313 0.950 . S
C3342 C3341 1.334 . S
C3342 C3343 1.287 . S
C3343 C3342 1.287 . S
C3343 C3344 1.524 . S
C3343 H3346 0.999 . S
C3344 H3314 0.950 . S
C3344 C3343 1.524 . S
C3344 C3345 1.415 . S
C3345 H3315 0.950 . S
C3345 C3340 1.363 . S
C3345 C3344 1.415 . S
H3346 C3343 0.999 . S
H3347 C3328 0.913 . S
H3348 C3366 0.951 . S
H3349 C3368 0.951 . S
H3350 C3370 0.950 . S
H3351 C3371 0.950 . S
H3352 C3373 0.950 . S
H3353 C3376 0.950 . S
H3354 C3377 0.950 . S
H3355 C3379 0.950 . S
H3356 C3380 0.950 . S
H3357 C3381 0.951 . S
H3358 C3383 0.951 . S
H3359 C3385 0.950 . S
H3360 C3386 0.950 . S
H3361 C3388 0.950 . S
H3362 C3391 0.950 . S
H3363 C3392 0.950 . S
H3364 C3394 0.950 . S
H3365 C3395 0.950 . S
C3366 H3348 0.951 . S
C3366 C3367 1.366 . S
C3366 C3368 1.388 . S
C3367 C3366 1.366 . S
C3367 C3371 1.385 . S
C3368 H3349 0.951 . S
C3368 C3366 1.388 . S
C3368 C3369 1.366 . S
C3369 C3368 1.366 . S
C3369 C3370 1.414 . S
C3369 C3372 1.499 . S
C3370 H3350 0.950 . S
C3370 C3369 1.414 . S
C3370 C3371 1.374 . S
C3371 H3351 0.950 . S
C3371 C3367 1.385 . S
C3371 C3370 1.374 . S
C3372 C3369 1.499 . S
C3372 C3373 1.373 . S
C3372 C3374 1.389 . S
C3373 H3352 0.950 . S
C3373 C3372 1.373 . S
C3373 C3389 1.377 . S
C3374 C3372 1.389 . S
C3374 C3375 1.524 . S
C3374 C3388 1.377 . S
C3375 C3374 1.524 . S
C3375 C3376 1.397 . S
C3375 C3380 1.363 . S
C3376 H3353 0.950 . S
C3376 C3375 1.397 . S
C3376 C3377 1.334 . S
C3377 H3354 0.950 . S
C3377 C3376 1.334 . S
C3377 C3378 1.287 . S
C3378 C3377 1.287 . S
C3378 C3379 1.524 . S
C3378 H3397 0.913 . S
C3379 H3355 0.950 . S
C3379 C3378 1.524 . S
C3379 C3380 1.415 . S
C3380 H3356 0.950 . S
C3380 C3375 1.363 . S
C3380 C3379 1.415 . S
C3381 H3357 0.951 . S
C3381 C3382 1.366 . S
C3381 C3383 1.388 . S
C3382 C3381 1.366 . S
C3382 C3386 1.385 . S
C3383 H3358 0.951 . S
C3383 C3381 1.388 . S
C3383 C3384 1.366 . S
C3384 C3383 1.366 . S
C3384 C3385 1.414 . S
C3384 C3387 1.499 . S
C3385 H3359 0.950 . S
C3385 C3384 1.414 . S
C3385 C3386 1.374 . S
C3386 H3360 0.950 . S
C3386 C3382 1.385 . S
C3386 C3385 1.374 . S
C3387 C3384 1.499 . S
C3387 C3388 1.373 . S
C3387 C3389 1.389 . S
C3388 H3361 0.950 . S
C3388 C3374 1.377 . S
C3388 C3387 1.373 . S
C3389 C3373 1.377 . S
C3389 C3387 1.389 . S
C3389 C3390 1.524 . S
C3390 C3389 1.524 . S
C3390 C3391 1.397 . S
C3390 C3395 1.363 . S
C3391 H3362 0.950 . S
C3391 C3390 1.397 . S
C3391 C3392 1.334 . S
C3392 H3363 0.950 . S
C3392 C3391 1.334 . S
C3392 C3393 1.287 . S
C3393 C3392 1.287 . S
C3393 C3394 1.524 . S
C3393 H3396 0.999 . S
C3394 H3364 0.950 . S
C3394 C3393 1.524 . S
C3394 C3395 1.415 . S
C3395 H3365 0.950 . S
C3395 C3390 1.363 . S
C3395 C3394 1.415 . S
H3396 C3393 0.999 . S
H3397 C3378 0.913 . S
H3398 C3416 0.951 . S
H3399 C3418 0.951 . S
H3400 C3420 0.950 . S
H3401 C3421 0.950 . S
H3402 C3423 0.950 . S
H3403 C3426 0.950 . S
H3404 C3427 0.950 . S
H3405 C3429 0.950 . S
H3406 C3430 0.950 . S
H3407 C3431 0.951 . S
H3408 C3433 0.951 . S
H3409 C3435 0.950 . S
H3410 C3436 0.950 . S
H3411 C3438 0.950 . S
H3412 C3441 0.950 . S
H3413 C3442 0.950 . S
H3414 C3444 0.950 . S
H3415 C3445 0.950 . S
C3416 H3398 0.951 . S
C3416 C3417 1.366 . S
C3416 C3418 1.388 . S
C3417 C3416 1.366 . S
C3417 C3421 1.385 . S
C3418 H3399 0.951 . S
C3418 C3416 1.388 . S
C3418 C3419 1.366 . S
C3419 C3418 1.366 . S
C3419 C3420 1.414 . S
C3419 C3422 1.499 . S
C3420 H3400 0.950 . S
C3420 C3419 1.414 . S
C3420 C3421 1.374 . S
C3421 H3401 0.950 . S
C3421 C3417 1.385 . S
C3421 C3420 1.374 . S
C3422 C3419 1.499 . S
C3422 C3423 1.373 . S
C3422 C3424 1.389 . S
C3423 H3402 0.950 . S
C3423 C3422 1.373 . S
C3423 C3439 1.377 . S
C3424 C3422 1.389 . S
C3424 C3425 1.524 . S
C3424 C3438 1.377 . S
C3425 C3424 1.524 . S
C3425 C3426 1.397 . S
C3425 C3430 1.363 . S
C3426 H3403 0.950 . S
C3426 C3425 1.397 . S
C3426 C3427 1.334 . S
C3427 H3404 0.950 . S
C3427 C3426 1.334 . S
C3427 C3428 1.287 . S
C3428 C3427 1.287 . S
C3428 C3429 1.524 . S
C3428 H3447 0.913 . S
C3429 H3405 0.950 . S
C3429 C3428 1.524 . S
C3429 C3430 1.415 . S
C3430 H3406 0.950 . S
C3430 C3425 1.363 . S
C3430 C3429 1.415 . S
C3431 H3407 0.951 . S
C3431 C3432 1.366 . S
C3431 C3433 1.388 . S
C3432 C3431 1.366 . S
C3432 C3436 1.385 . S
C3433 H3408 0.951 . S
C3433 C3431 1.388 . S
C3433 C3434 1.366 . S
C3434 C3433 1.366 . S
C3434 C3435 1.414 . S
C3434 C3437 1.499 . S
C3435 H3409 0.950 . S
C3435 C3434 1.414 . S
C3435 C3436 1.374 . S
C3436 H3410 0.950 . S
C3436 C3432 1.385 . S
C3436 C3435 1.374 . S
C3437 C3434 1.499 . S
C3437 C3438 1.373 . S
C3437 C3439 1.389 . S
C3438 H3411 0.950 . S
C3438 C3424 1.377 . S
C3438 C3437 1.373 . S
C3439 C3423 1.377 . S
C3439 C3437 1.389 . S
C3439 C3440 1.524 . S
C3440 C3439 1.524 . S
C3440 C3441 1.397 . S
C3440 C3445 1.363 . S
C3441 H3412 0.950 . S
C3441 C3440 1.397 . S
C3441 C3442 1.334 . S
C3442 H3413 0.950 . S
C3442 C3441 1.334 . S
C3442 C3443 1.287 . S
C3443 C3442 1.287 . S
C3443 C3444 1.524 . S
C3443 H3446 0.999 . S
C3444 H3414 0.950 . S
C3444 C3443 1.524 . S
C3444 C3445 1.415 . S
C3445 H3415 0.950 . S
C3445 C3440 1.363 . S
C3445 C3444 1.415 . S
H3446 C3443 0.999 . S
H3447 C3428 0.913 . S
H3448 C3466 0.951 . S
H3449 C3468 0.951 . S
H3450 C3470 0.950 . S
H3451 C3471 0.950 . S
H3452 C3473 0.950 . S
H3453 C3476 0.950 . S
H3454 C3477 0.950 . S
H3455 C3479 0.950 . S
H3456 C3480 0.950 . S
H3457 C3481 0.951 . S
H3458 C3483 0.951 . S
H3459 C3485 0.950 . S
H3460 C3486 0.950 . S
H3461 C3488 0.950 . S
H3462 C3491 0.950 . S
H3463 C3492 0.950 . S
H3464 C3494 0.950 . S
H3465 C3495 0.950 . S
C3466 H3448 0.951 . S
C3466 C3467 1.366 . S
C3466 C3468 1.388 . S
C3467 C3466 1.366 . S
C3467 C3471 1.385 . S
C3468 H3449 0.951 . S
C3468 C3466 1.388 . S
C3468 C3469 1.366 . S
C3469 C3468 1.366 . S
C3469 C3470 1.414 . S
C3469 C3472 1.499 . S
C3470 H3450 0.950 . S
C3470 C3469 1.414 . S
C3470 C3471 1.374 . S
C3471 H3451 0.950 . S
C3471 C3467 1.385 . S
C3471 C3470 1.374 . S
C3472 C3469 1.499 . S
C3472 C3473 1.373 . S
C3472 C3474 1.389 . S
C3473 H3452 0.950 . S
C3473 C3472 1.373 . S
C3473 C3489 1.377 . S
C3474 C3472 1.389 . S
C3474 C3475 1.524 . S
C3474 C3488 1.377 . S
C3475 C3474 1.524 . S
C3475 C3476 1.397 . S
C3475 C3480 1.363 . S
C3476 H3453 0.950 . S
C3476 C3475 1.397 . S
C3476 C3477 1.334 . S
C3477 H3454 0.950 . S
C3477 C3476 1.334 . S
C3477 C3478 1.287 . S
C3478 C3477 1.287 . S
C3478 C3479 1.524 . S
C3478 H3497 0.913 . S
C3479 H3455 0.950 . S
C3479 C3478 1.524 . S
C3479 C3480 1.415 . S
C3480 H3456 0.950 . S
C3480 C3475 1.363 . S
C3480 C3479 1.415 . S
C3481 H3457 0.951 . S
C3481 C3482 1.366 . S
C3481 C3483 1.388 . S
C3482 C3481 1.366 . S
C3482 C3486 1.385 . S
C3483 H3458 0.951 . S
C3483 C3481 1.388 . S
C3483 C3484 1.366 . S
C3484 C3483 1.366 . S
C3484 C3485 1.414 . S
C3484 C3487 1.499 . S
C3485 H3459 0.950 . S
C3485 C3484 1.414 . S
C3485 C3486 1.374 . S
C3486 H3460 0.950 . S
C3486 C3482 1.385 . S
C3486 C3485 1.374 . S
C3487 C3484 1.499 . S
C3487 C3488 1.373 . S
C3487 C3489 1.389 . S
C3488 H3461 0.950 . S
C3488 C3474 1.377 . S
C3488 C3487 1.373 . S
C3489 C3473 1.377 . S
C3489 C3487 1.389 . S
C3489 C3490 1.524 . S
C3490 C3489 1.524 . S
C3490 C3491 1.397 . S
C3490 C3495 1.363 . S
C3491 H3462 0.950 . S
C3491 C3490 1.397 . S
C3491 C3492 1.334 . S
C3492 H3463 0.950 . S
C3492 C3491 1.334 . S
C3492 C3493 1.287 . S
C3493 C3492 1.287 . S
C3493 C3494 1.524 . S
C3493 H3496 0.999 . S
C3494 H3464 0.950 . S
C3494 C3493 1.524 . S
C3494 C3495 1.415 . S
C3495 H3465 0.950 . S
C3495 C3490 1.363 . S
C3495 C3494 1.415 . S
H3496 C3493 0.999 . S
H3497 C3478 0.913 . S
H3498 C3516 0.951 . S
H3499 C3518 0.951 . S
H3500 C3520 0.950 . S
H3501 C3521 0.950 . S
H3502 C3523 0.950 . S
H3503 C3526 0.950 . S
H3504 C3527 0.950 . S
H3505 C3529 0.950 . S
H3506 C3530 0.950 . S
H3507 C3531 0.951 . S
H3508 C3533 0.951 . S
H3509 C3535 0.950 . S
H3510 C3536 0.950 . S
H3511 C3538 0.950 . S
H3512 C3541 0.950 . S
H3513 C3542 0.950 . S
H3514 C3544 0.950 . S
H3515 C3545 0.950 . S
C3516 H3498 0.951 . S
C3516 C3517 1.366 . S
C3516 C3518 1.388 . S
C3517 C3516 1.366 . S
C3517 C3521 1.385 . S
C3518 H3499 0.951 . S
C3518 C3516 1.388 . S
C3518 C3519 1.366 . S
C3519 C3518 1.366 . S
C3519 C3520 1.414 . S
C3519 C3522 1.499 . S
C3520 H3500 0.950 . S
C3520 C3519 1.414 . S
C3520 C3521 1.374 . S
C3521 H3501 0.950 . S
C3521 C3517 1.385 . S
C3521 C3520 1.374 . S
C3522 C3519 1.499 . S
C3522 C3523 1.373 . S
C3522 C3524 1.389 . S
C3523 H3502 0.950 . S
C3523 C3522 1.373 . S
C3523 C3539 1.377 . S
C3524 C3522 1.389 . S
C3524 C3525 1.524 . S
C3524 C3538 1.377 . S
C3525 C3524 1.524 . S
C3525 C3526 1.397 . S
C3525 C3530 1.363 . S
C3526 H3503 0.950 . S
C3526 C3525 1.397 . S
C3526 C3527 1.334 . S
C3527 H3504 0.950 . S
C3527 C3526 1.334 . S
C3527 C3528 1.287 . S
C3528 C3527 1.287 . S
C3528 C3529 1.524 . S
C3528 H3547 0.913 . S
C3529 H3505 0.950 . S
C3529 C3528 1.524 . S
C3529 C3530 1.415 . S
C3530 H3506 0.950 . S
C3530 C3525 1.363 . S
C3530 C3529 1.415 . S
C3531 H3507 0.951 . S
C3531 C3532 1.366 . S
C3531 C3533 1.388 . S
C3532 C3531 1.366 . S
C3532 C3536 1.385 . S
C3533 H3508 0.951 . S
C3533 C3531 1.388 . S
C3533 C3534 1.366 . S
C3534 C3533 1.366 . S
C3534 C3535 1.414 . S
C3534 C3537 1.499 . S
C3535 H3509 0.950 . S
C3535 C3534 1.414 . S
C3535 C3536 1.374 . S
C3536 H3510 0.950 . S
C3536 C3532 1.385 . S
C3536 C3535 1.374 . S
C3537 C3534 1.499 . S
C3537 C3538 1.373 . S
C3537 C3539 1.389 . S
C3538 H3511 0.950 . S
C3538 C3524 1.377 . S
C3538 C3537 1.373 . S
C3539 C3523 1.377 . S
C3539 C3537 1.389 . S
C3539 C3540 1.524 . S
C3540 C3539 1.524 . S
C3540 C3541 1.397 . S
C3540 C3545 1.363 . S
C3541 H3512 0.950 . S
C3541 C3540 1.397 . S
C3541 C3542 1.334 . S
C3542 H3513 0.950 . S
C3542 C3541 1.334 . S
C3542 C3543 1.287 . S
C3543 C3542 1.287 . S
C3543 C3544 1.524 . S
C3543 H3546 0.999 . S
C3544 H3514 0.950 . S
C3544 C3543 1.524 . S
C3544 C3545 1.415 . S
C3545 H3515 0.950 . S
C3545 C3540 1.363 . S
C3545 C3544 1.415 . S
H3546 C3543 0.999 . S
H3547 C3528 0.913 . S
H3548 C3566 0.951 . S
H3549 C3568 0.951 . S
H3550 C3570 0.950 . S
H3551 C3571 0.950 . S
H3552 C3573 0.950 . S
H3553 C3576 0.950 . S
H3554 C3577 0.950 . S
H3555 C3579 0.950 . S
H3556 C3580 0.950 . S
H3557 C3581 0.951 . S
H3558 C3583 0.951 . S
H3559 C3585 0.950 . S
H3560 C3586 0.950 . S
H3561 C3588 0.950 . S
H3562 C3591 0.950 . S
H3563 C3592 0.950 . S
H3564 C3594 0.950 . S
H3565 C3595 0.950 . S
C3566 H3548 0.951 . S
C3566 C3567 1.366 . S
C3566 C3568 1.388 . S
C3567 C3566 1.366 . S
C3567 C3571 1.385 . S
C3568 H3549 0.951 . S
C3568 C3566 1.388 . S
C3568 C3569 1.366 . S
C3569 C3568 1.366 . S
C3569 C3570 1.414 . S
C3569 C3572 1.499 . S
C3570 H3550 0.950 . S
C3570 C3569 1.414 . S
C3570 C3571 1.374 . S
C3571 H3551 0.950 . S
C3571 C3567 1.385 . S
C3571 C3570 1.374 . S
C3572 C3569 1.499 . S
C3572 C3573 1.373 . S
C3572 C3574 1.389 . S
C3573 H3552 0.950 . S
C3573 C3572 1.373 . S
C3573 C3589 1.377 . S
C3574 C3572 1.389 . S
C3574 C3575 1.524 . S
C3574 C3588 1.377 . S
C3575 C3574 1.524 . S
C3575 C3576 1.397 . S
C3575 C3580 1.363 . S
C3576 H3553 0.950 . S
C3576 C3575 1.397 . S
C3576 C3577 1.334 . S
C3577 H3554 0.950 . S
C3577 C3576 1.334 . S
C3577 C3578 1.287 . S
C3578 C3577 1.287 . S
C3578 C3579 1.524 . S
C3578 H3597 0.913 . S
C3579 H3555 0.950 . S
C3579 C3578 1.524 . S
C3579 C3580 1.415 . S
C3580 H3556 0.950 . S
C3580 C3575 1.363 . S
C3580 C3579 1.415 . S
C3581 H3557 0.951 . S
C3581 C3582 1.366 . S
C3581 C3583 1.388 . S
C3582 C3581 1.366 . S
C3582 C3586 1.385 . S
C3583 H3558 0.951 . S
C3583 C3581 1.388 . S
C3583 C3584 1.366 . S
C3584 C3583 1.366 . S
C3584 C3585 1.414 . S
C3584 C3587 1.499 . S
C3585 H3559 0.950 . S
C3585 C3584 1.414 . S
C3585 C3586 1.374 . S
C3586 H3560 0.950 . S
C3586 C3582 1.385 . S
C3586 C3585 1.374 . S
C3587 C3584 1.499 . S
C3587 C3588 1.373 . S
C3587 C3589 1.389 . S
C3588 H3561 0.950 . S
C3588 C3574 1.377 . S
C3588 C3587 1.373 . S
C3589 C3573 1.377 . S
C3589 C3587 1.389 . S
C3589 C3590 1.524 . S
C3590 C3589 1.524 . S
C3590 C3591 1.397 . S
C3590 C3595 1.363 . S
C3591 H3562 0.950 . S
C3591 C3590 1.397 . S
C3591 C3592 1.334 . S
C3592 H3563 0.950 . S
C3592 C3591 1.334 . S
C3592 C3593 1.287 . S
C3593 C3592 1.287 . S
C3593 C3594 1.524 . S
C3593 H3596 0.999 . S
C3594 H3564 0.950 . S
C3594 C3593 1.524 . S
C3594 C3595 1.415 . S
C3595 H3565 0.950 . S
C3595 C3590 1.363 . S
C3595 C3594 1.415 . S
H3596 C3593 0.999 . S
H3597 C3578 0.913 . S
H3598 C3616 0.951 . S
H3599 C3618 0.951 . S
H3600 C3620 0.950 . S
H3601 C3621 0.950 . S
H3602 C3623 0.950 . S
H3603 C3626 0.950 . S
H3604 C3627 0.950 . S
H3605 C3629 0.950 . S
H3606 C3630 0.950 . S
H3607 C3631 0.951 . S
H3608 C3633 0.951 . S
H3609 C3635 0.950 . S
H3610 C3636 0.950 . S
H3611 C3638 0.950 . S
H3612 C3641 0.950 . S
H3613 C3642 0.950 . S
H3614 C3644 0.950 . S
H3615 C3645 0.950 . S
C3616 H3598 0.951 . S
C3616 C3617 1.366 . S
C3616 C3618 1.388 . S
C3617 C3616 1.366 . S
C3617 C3621 1.385 . S
C3618 H3599 0.951 . S
C3618 C3616 1.388 . S
C3618 C3619 1.366 . S
C3619 C3618 1.366 . S
C3619 C3620 1.414 . S
C3619 C3622 1.499 . S
C3620 H3600 0.950 . S
C3620 C3619 1.414 . S
C3620 C3621 1.374 . S
C3621 H3601 0.950 . S
C3621 C3617 1.385 . S
C3621 C3620 1.374 . S
C3622 C3619 1.499 . S
C3622 C3623 1.373 . S
C3622 C3624 1.389 . S
C3623 H3602 0.950 . S
C3623 C3622 1.373 . S
C3623 C3639 1.377 . S
C3624 C3622 1.389 . S
C3624 C3625 1.524 . S
C3624 C3638 1.377 . S
C3625 C3624 1.524 . S
C3625 C3626 1.397 . S
C3625 C3630 1.363 . S
C3626 H3603 0.950 . S
C3626 C3625 1.397 . S
C3626 C3627 1.334 . S
C3627 H3604 0.950 . S
C3627 C3626 1.334 . S
C3627 C3628 1.287 . S
C3628 C3627 1.287 . S
C3628 C3629 1.524 . S
C3628 H3647 0.913 . S
C3629 H3605 0.950 . S
C3629 C3628 1.524 . S
C3629 C3630 1.415 . S
C3630 H3606 0.950 . S
C3630 C3625 1.363 . S
C3630 C3629 1.415 . S
C3631 H3607 0.951 . S
C3631 C3632 1.366 . S
C3631 C3633 1.388 . S
C3632 C3631 1.366 . S
C3632 C3636 1.385 . S
C3633 H3608 0.951 . S
C3633 C3631 1.388 . S
C3633 C3634 1.366 . S
C3634 C3633 1.366 . S
C3634 C3635 1.414 . S
C3634 C3637 1.499 . S
C3635 H3609 0.950 . S
C3635 C3634 1.414 . S
C3635 C3636 1.374 . S
C3636 H3610 0.950 . S
C3636 C3632 1.385 . S
C3636 C3635 1.374 . S
C3637 C3634 1.499 . S
C3637 C3638 1.373 . S
C3637 C3639 1.389 . S
C3638 H3611 0.950 . S
C3638 C3624 1.377 . S
C3638 C3637 1.373 . S
C3639 C3623 1.377 . S
C3639 C3637 1.389 . S
C3639 C3640 1.524 . S
C3640 C3639 1.524 . S
C3640 C3641 1.397 . S
C3640 C3645 1.363 . S
C3641 H3612 0.950 . S
C3641 C3640 1.397 . S
C3641 C3642 1.334 . S
C3642 H3613 0.950 . S
C3642 C3641 1.334 . S
C3642 C3643 1.287 . S
C3643 C3642 1.287 . S
C3643 C3644 1.524 . S
C3643 H3646 0.999 . S
C3644 H3614 0.950 . S
C3644 C3643 1.524 . S
C3644 C3645 1.415 . S
C3645 H3615 0.950 . S
C3645 C3640 1.363 . S
C3645 C3644 1.415 . S
H3646 C3643 0.999 . S
H3647 C3628 0.913 . S
C467 C117 1.211 . S
C482 C5 1.211 . S
C517 C355 1.211 . S
C532 C19 1.211 . S
C567 C145 1.213 . S
C582 C33 1.213 . S
C617 C383 1.212 . S
C632 C47 1.212 . S
C667 C173 1.211 . S
C682 C61 1.211 . S
C717 C75 1.213 . S
C732 C411 1.213 . S
C767 C89 1.213 . S
C782 C201 1.213 . S
C817 C103 1.211 . S
C832 C439 1.211 . S
C867 C243 1.213 . S
C882 C131 1.213 . S
C917 C271 1.212 . S
C932 C159 1.212 . S
C967 C187 1.211 . S
C982 C299 1.211 . S
C1017 C215 1.211 . S
C1032 C327 1.211 . S
C1067 C229 1.211 . S
C1082 C341 1.211 . S
C1117 C369 1.213 . S
C1132 C257 1.213 . S
C1167 C285 1.212 . S
C1182 C397 1.212 . S
C1217 C425 1.211 . S
C1232 C313 1.211 . S
C1267 C256 1.202 . S
C1282 C4 1.201 . S
C1317 C270 1.201 . S
C1332 C18 1.200 . S
C1367 C32 1.202 . S
C1382 C228 1.201 . S
C1417 C46 1.202 . S
C1432 C242 1.201 . S
C1467 C312 1.202 . S
C1482 C60 1.201 . S
C1517 C74 1.201 . S
C1532 C326 1.200 . S
C1567 C284 1.202 . S
C1582 C88 1.201 . S
C1617 C298 1.201 . S
C1632 C102 1.201 . S
C1667 C116 1.202 . S
C1682 C368 1.201 . S
C1717 C382 1.200 . S
C1732 C130 1.201 . S
C1767 C144 1.201 . S
C1782 C340 1.201 . S
C1817 C158 1.201 . S
C1832 C354 1.202 . S
C1867 C172 1.201 . S
C1882 C424 1.201 . S
C1917 C186 1.201 . S
C1932 C438 1.201 . S
C1967 C396 1.201 . S
C1982 C200 1.202 . S
C2017 C410 1.201 . S
C2032 C214 1.201 . S
C2067 C95 1.329 . S
C2082 C11 1.330 . S
C2117 C109 1.329 . S
C2132 C25 1.330 . S
C2167 C67 1.329 . S
C2182 C39 1.330 . S
C2217 C53 1.330 . S
C2232 C81 1.329 . S
C2267 C207 1.330 . S
C2282 C123 1.329 . S
C2317 C221 1.330 . S
C2332 C137 1.329 . S
C2367 C179 1.330 . S
C2382 C151 1.329 . S
C2417 C193 1.330 . S
C2432 C165 1.330 . S
C2467 C319 1.329 . S
C2482 C235 1.329 . S
C2517 C333 1.330 . S
C2532 C249 1.330 . S
C2567 C263 1.330 . S
C2582 C291 1.330 . S
C2617 C277 1.330 . S
C2632 C305 1.330 . S
C2667 C431 1.329 . S
C2682 C347 1.330 . S
C2717 C445 1.330 . S
C2732 C361 1.330 . S
C2767 C375 1.330 . S
C2782 C403 1.330 . S
C2817 C389 1.330 . S
C2832 C417 1.329 . S
C2867 C12 1.515 . S
C2882 C306 1.515 . S
C2917 C320 1.515 . S
C2932 C26 1.515 . S
C2967 C334 1.515 . S
C2982 C40 1.515 . S
C3017 C54 1.515 . S
C3032 C292 1.515 . S
C3067 C278 1.515 . S
C3082 C68 1.515 . S
C3117 C82 1.515 . S
C3132 C236 1.515 . S
C3167 C250 1.515 . S
C3182 C96 1.515 . S
C3217 C110 1.515 . S
C3232 C264 1.515 . S
C3267 C418 1.515 . S
C3282 C124 1.515 . S
C3317 C432 1.515 . S
C3332 C138 1.515 . S
C3367 C152 1.515 . S
C3382 C446 1.515 . S
C3417 C404 1.515 . S
C3432 C166 1.515 . S
C3467 C390 1.515 . S
C3482 C180 1.515 . S
C3517 C194 1.515 . S
C3532 C348 1.515 . S
C3567 C362 1.515 . S
C3582 C208 1.515 . S
C3617 C222 1.515 . S
C3632 C376 1.515 . S
