# Generated by pormake.
# Topology wkt, (7)-cn, num edge types: 1
# Building blocks:
#     Node 0, Type 0, BuildingBlock: NUHQUE_clean_sbu_2, # of connection points: 7
#     Node 1, Type 0, BuildingBlock: NUHQUE_clean_sbu_2, # of connection points: 7
#     Node 2, Type 0, BuildingBlock: NUHQUE_clean_sbu_2, # of connection points: 7
#     Node 3, Type 0, BuildingBlock: NUHQUE_clean_sbu_2, # of connection points: 7
#     Node 4, Type 0, BuildingBlock: NUHQUE_clean_sbu_2, # of connection points: 7
#     Node 5, Type 0, BuildingBlock: NUHQUE_clean_sbu_2, # of connection points: 7
#     Node 6, Type 0, BuildingBlock: NUHQUE_clean_sbu_2, # of connection points: 7
#     Node 7, Type 0, BuildingBlock: NUHQUE_clean_sbu_2, # of connection points: 7
#     Node 8, Type 0, BuildingBlock: NUHQUE_clean_sbu_2, # of connection points: 7
#     Node 9, Type 0, BuildingBlock: NUHQUE_clean_sbu_2, # of connection points: 7
#     Node 10, Type 0, BuildingBlock: NUHQUE_clean_sbu_2, # of connection points: 7
#     Node 11, Type 0, BuildingBlock: NUHQUE_clean_sbu_2, # of connection points: 7
#     Edge 12, Type (0, 0), BuildingBlock: TEMPAE_clean_linker_10, # of connection points: 2
#     Edge 13, Type (0, 0), BuildingBlock: TEMPAE_clean_linker_10, # of connection points: 2
#     Edge 14, Type (0, 0), BuildingBlock: TEMPAE_clean_linker_10, # of connection points: 2
#     Edge 15, Type (0, 0), BuildingBlock: TEMPAE_clean_linker_10, # of connection points: 2
#     Edge 16, Type (0, 0), BuildingBlock: TEMPAE_clean_linker_10, # of connection points: 2
#     Edge 17, Type (0, 0), BuildingBlock: TEMPAE_clean_linker_10, # of connection points: 2
#     Edge 18, Type (0, 0), BuildingBlock: TEMPAE_clean_linker_10, # of connection points: 2
#     Edge 19, Type (0, 0), BuildingBlock: TEMPAE_clean_linker_10, # of connection points: 2
#     Edge 20, Type (0, 0), BuildingBlock: TEMPAE_clean_linker_10, # of connection points: 2
#     Edge 21, Type (0, 0), BuildingBlock: TEMPAE_clean_linker_10, # of connection points: 2
#     Edge 22, Type (0, 0), BuildingBlock: TEMPAE_clean_linker_10, # of connection points: 2
#     Edge 23, Type (0, 0), BuildingBlock: TEMPAE_clean_linker_10, # of connection points: 2
#     Edge 24, Type (0, 0), BuildingBlock: TEMPAE_clean_linker_10, # of connection points: 2
#     Edge 25, Type (0, 0), BuildingBlock: TEMPAE_clean_linker_10, # of connection points: 2
#     Edge 26, Type (0, 0), BuildingBlock: TEMPAE_clean_linker_10, # of connection points: 2
#     Edge 27, Type (0, 0), BuildingBlock: TEMPAE_clean_linker_10, # of connection points: 2
#     Edge 28, Type (0, 0), BuildingBlock: TEMPAE_clean_linker_10, # of connection points: 2
#     Edge 29, Type (0, 0), BuildingBlock: TEMPAE_clean_linker_10, # of connection points: 2
#     Edge 30, Type (0, 0), BuildingBlock: TEMPAE_clean_linker_10, # of connection points: 2
#     Edge 31, Type (0, 0), BuildingBlock: TEMPAE_clean_linker_10, # of connection points: 2
#     Edge 32, Type (0, 0), BuildingBlock: TEMPAE_clean_linker_10, # of connection points: 2
#     Edge 33, Type (0, 0), BuildingBlock: TEMPAE_clean_linker_10, # of connection points: 2
#     Edge 34, Type (0, 0), BuildingBlock: TEMPAE_clean_linker_10, # of connection points: 2
#     Edge 35, Type (0, 0), BuildingBlock: TEMPAE_clean_linker_10, # of connection points: 2
#     Edge 36, Type (0, 0), BuildingBlock: TEMPAE_clean_linker_10, # of connection points: 2
#     Edge 37, Type (0, 0), BuildingBlock: TEMPAE_clean_linker_10, # of connection points: 2
#     Edge 38, Type (0, 0), BuildingBlock: TEMPAE_clean_linker_10, # of connection points: 2
#     Edge 39, Type (0, 0), BuildingBlock: TEMPAE_clean_linker_10, # of connection points: 2
#     Edge 40, Type (0, 0), BuildingBlock: TEMPAE_clean_linker_10, # of connection points: 2
#     Edge 41, Type (0, 0), BuildingBlock: TEMPAE_clean_linker_10, # of connection points: 2
#     Edge 42, Type (0, 0), BuildingBlock: TEMPAE_clean_linker_10, # of connection points: 2
#     Edge 43, Type (0, 0), BuildingBlock: TEMPAE_clean_linker_10, # of connection points: 2
#     Edge 44, Type (0, 0), BuildingBlock: TEMPAE_clean_linker_10, # of connection points: 2
#     Edge 45, Type (0, 0), BuildingBlock: TEMPAE_clean_linker_10, # of connection points: 2
#     Edge 46, Type (0, 0), BuildingBlock: TEMPAE_clean_linker_10, # of connection points: 2
#     Edge 47, Type (0, 0), BuildingBlock: TEMPAE_clean_linker_10, # of connection points: 2
#     Edge 48, Type (0, 0), BuildingBlock: TEMPAE_clean_linker_10, # of connection points: 2
#     Edge 49, Type (0, 0), BuildingBlock: TEMPAE_clean_linker_10, # of connection points: 2
#     Edge 50, Type (0, 0), BuildingBlock: TEMPAE_clean_linker_10, # of connection points: 2
#     Edge 51, Type (0, 0), BuildingBlock: TEMPAE_clean_linker_10, # of connection points: 2
#     Edge 52, Type (0, 0), BuildingBlock: TEMPAE_clean_linker_10, # of connection points: 2
#     Edge 53, Type (0, 0), BuildingBlock: TEMPAE_clean_linker_10, # of connection points: 2
# Relax obj value: 0.266
# Max RMSD: 0.278
# Mean RMSD: 0.278
data_MOF--net-wkt--node1-NUHQUE_clean_sbu_2--edge1-TEMPAE_clean_linker_10
_symmetry_space_group_name_H-M    P1
_symmetry_Int_Tables_number       1
_symmetry_cell_setting            triclinic
loop_
_symmetry_equiv_pos_as_xyz
'x, y, z'
_cell_length_a     31.353466
_cell_length_b     31.373351
_cell_length_c     73.951871
_cell_angle_alpha  89.967129
_cell_angle_beta   90.276983
_cell_angle_gamma 119.93306
loop_
_atom_site_label
_atom_site_type_symbol
_atom_site_fract_x
_atom_site_fract_y
_atom_site_fract_z
_atom_type_partial_charge
O0 O 0.42353 0.48811 0.02834 0.0
Tb1 Tb 0.45611 0.5363 0.0049 0.0
Eu2 Eu 0.40288 0.43379 -0.0197 0.0
C3 C 0.37875 0.44985 0.02853 0.0
O4 O 0.35395 0.43482 0.01342 0.0
C5 C 0.35036 0.50297 -0.01394 0.0
O6 O 0.42693 0.46821 0.95316 0.0
C7 C 0.35559 0.33841 -0.01934 0.0
C8 C 0.44756 0.51623 0.95285 0.0
O9 O 0.45218 0.53967 0.96803 0.0
C10 C 0.52248 0.49639 -0.01266 0.0
C11 C 0.36621 0.29731 -0.01806 0.0
C12 C 0.36438 0.27564 -0.00122 0.0
C13 C 0.37358 0.23632 0.00023 0.0
C14 C 0.38431 0.21811 -0.01542 0.0
C15 C 0.38681 0.23954 0.96758 0.0
C16 C 0.37736 0.27891 0.96643 0.0
O17 O 0.39151 0.53815 -0.00659 0.0
O18 O 0.3457 0.45996 -0.01849 0.0
O19 O 0.49877 0.58531 0.02704 0.0
O20 O 0.48134 0.61489 0.00425 0.0
C21 C 0.5035 0.62515 0.01983 0.0
O22 O 0.48266 0.45254 -0.01404 0.0
O23 O 0.51837 0.53512 -0.00857 0.0
O24 O 0.36784 0.36434 0.96561 0.0
O25 O 0.36408 0.36543 -0.00469 0.0
H26 H 0.35547 0.28914 0.01085 0.0
H27 H 0.3915 0.18781 -0.01429 0.0
H28 H 0.37987 0.29608 0.95347 0.0
O29 O 0.95999 0.34919 0.19358 0.0
Tb30 Tb 0.93397 0.38688 0.17593 0.0
Eu31 Eu 0.9688 0.35146 0.14148 0.0
C32 C 0.93944 0.30105 0.19401 0.0
O33 O 0.90731 0.2746 0.18149 0.0
C34 C 0.85332 0.29271 0.15326 0.0
O35 O 0.94503 0.35211 0.11319 0.0
C36 C 1.02666 0.31592 0.14672 0.0
C37 C 0.91037 0.36367 0.11144 0.0
O38 O 0.89292 0.37311 0.12606 0.0
C39 C 1.0297 0.466 0.15411 0.0
C40 C 0.07915 0.33075 0.14949 0.0
C41 C 0.09639 0.33072 0.16706 0.0
C42 C 0.14468 0.34063 0.17 0.0
C43 C 0.17622 0.35091 0.15524 0.0
C44 C 0.16003 0.35168 0.13755 0.0
C45 C 0.11128 0.34136 0.13478 0.0
O46 O 0.86305 0.33111 0.1635 0.0
O47 O 0.8893 0.29035 0.1451 0.0
O48 O 0.90685 0.39454 0.20203 0.0
O49 O 0.91212 0.44207 0.1805 0.0
C50 C 0.90005 0.43064 0.19733 0.0
O51 O 1.01588 0.4352 0.14037 0.0
O52 O 1.0064 0.45164 0.16967 0.0
O53 O 1.01255 0.32143 0.13048 0.0
O54 O 1.00498 0.32595 0.15998 0.0
H55 H 1.07187 0.32169 0.17851 0.0
H56 H 0.2138 0.35939 0.15761 0.0
H57 H 0.09816 0.34056 0.12113 0.0
O58 O 0.63655 0.92257 0.35093 0.0
Tb59 Tb 0.57363 0.91437 0.33546 0.0
Eu60 Eu 0.65646 0.95375 0.30539 0.0
C61 C 0.63474 0.88275 0.35757 0.0
O62 O 0.59682 0.83977 0.35336 0.0
C63 C 0.5828 0.83503 0.31167 0.0
O64 O 0.67574 0.97037 0.27623 0.0
C65 C 0.73658 1.00025 0.32434 0.0
C66 C 0.67923 0.93841 0.26585 0.0
O67 O 0.67957 0.90059 0.27333 0.0
C68 C 0.59914 1.01332 0.31382 0.0
C69 C 0.78072 1.04924 0.32528 0.0
C70 C 0.80406 0.06763 0.34197 0.0
C71 C 0.84868 0.11256 0.34293 0.0
C72 C 0.86993 0.13845 0.32686 0.0
C73 C 0.84624 0.12077 0.31016 0.0
C74 C 0.80141 0.07639 0.30948 0.0
O75 O 0.55258 0.84564 0.32042 0.0
O76 O 0.62558 0.87062 0.30598 0.0
O77 O 0.54528 0.89615 0.36284 0.0
O78 O 0.49682 0.89074 0.3416 0.0
C79 C 0.50076 0.88566 0.35886 0.0
O80 O 0.61943 1.00016 0.301 0.0
O81 O 0.58607 0.98868 0.32918 0.0
O82 O 0.73256 0.97468 0.30973 0.0
O83 O 0.69467 0.99638 0.32949 0.0
H84 H 0.78728 1.04692 0.35417 0.0
H85 H 0.90476 0.17264 0.32731 0.0
H86 H 0.78331 0.06234 0.29655 0.0
O87 O 0.75262 0.60432 0.50873 0.0
Tb88 Tb 0.70949 0.5505 0.48791 0.0
Eu89 Eu 0.77016 0.65933 0.48082 0.0
C90 C 0.77838 0.59267 0.51973 0.0
O91 O 0.7766 0.5503 0.5173 0.0
C92 C 0.81752 0.58539 0.47802 0.0
O93 O 0.74289 0.64218 0.45238 0.0
C94 C 0.81931 0.75347 0.48605 0.0
C95 C 0.76487 0.63009 0.4401 0.0
O96 O 0.80663 0.63185 0.44396 0.0
C97 C 0.65231 0.60111 0.4789 0.0
C98 C 0.81024 0.79554 0.48645 0.0
C99 C 0.81116 0.81783 0.50301 0.0
C100 C 0.80266 0.85773 0.50372 0.0
C101 C 0.79332 0.87555 0.48762 0.0
C102 C 0.79231 0.85374 0.4709 0.0
C103 C 0.80115 0.81402 0.47044 0.0
O104 O 0.77218 0.54837 0.47615 0.0
O105 O 0.82483 0.62964 0.48238 0.0
O106 O 0.66971 0.51347 0.51218 0.0
O107 O 0.67055 0.47026 0.49019 0.0
C108 C 0.65484 0.46907 0.50656 0.0
O109 O 0.68958 0.63702 0.48787 0.0
O110 O 0.65898 0.56579 0.47264 0.0
O111 O 0.81593 0.73279 0.47022 0.0
O112 O 0.80084 0.72154 0.49941 0.0
H113 H 0.81876 0.80427 0.5154 0.0
H114 H 0.78611 0.90593 0.48812 0.0
H115 H 0.79964 0.79676 0.45758 0.0
O116 O 0.18674 0.74393 0.68145 0.0
Tb117 Tb 0.20785 0.6994 0.6653 0.0
Eu118 Eu 0.15996 0.74938 0.64148 0.0
C119 C 0.22216 0.78481 0.68865 0.0
O120 O 0.26813 0.79787 0.68525 0.0
C121 C 0.27846 0.79855 0.64649 0.0
O122 O 0.1826 0.73506 0.61451 0.0
C123 C 0.11241 0.79705 0.64141 0.0
C124 C 0.1979 0.70307 0.61478 0.0
O125 O 0.19718 0.68218 0.63019 0.0
C126 C 0.0986 0.62934 0.65068 0.0
C127 C 1.06053 0.78546 0.64313 0.0
C128 C 1.04122 0.78499 0.66027 0.0
C129 C 0.99221 0.77349 0.66227 0.0
C130 C 0.96216 0.76312 0.64688 0.0
C131 C 0.98049 0.76286 0.62954 0.0
C132 C 1.02993 0.77449 0.62784 0.0
O133 O 0.27035 0.75349 0.64892 0.0
O134 O 0.24091 0.80643 0.64763 0.0
O135 O 0.23325 0.69335 0.69209 0.0
O136 O 0.24081 0.6534 0.67033 0.0
C137 C 0.24813 0.66305 0.68751 0.0
O138 O 0.09771 0.66921 0.6454 0.0
O139 O 0.13902 0.63269 0.65757 0.0
O140 O 0.12488 0.78334 0.62642 0.0
O141 O 0.13266 0.79057 0.65606 0.0
H142 H 1.06428 0.79348 0.67222 0.0
H143 H 0.92427 0.75424 0.64851 0.0
H144 H 1.04424 0.77357 0.61463 0.0
O145 O 0.54518 0.18279 0.84486 0.0
Tb146 Tb 0.5976 0.19569 0.82329 0.0
Eu147 Eu 0.48888 0.14782 0.8154 0.0
C148 C 0.55598 0.21968 0.856 0.0
O149 O 0.5966 0.26165 0.85317 0.0
C150 C 0.56023 0.26686 0.81438 0.0
O151 O 0.51674 0.15703 0.78723 0.0
C152 C 0.39371 0.10424 0.81629 0.0
C153 C 0.51818 0.19107 0.77655 0.0
O154 O 0.50103 0.21945 0.78197 0.0
C155 C 0.54651 0.08594 0.81471 0.0
C156 C 0.35036 0.05394 0.81639 0.0
C157 C 0.32699 1.03293 0.8328 0.0
C158 C 0.28529 0.98578 0.83328 0.0
C159 C 0.26583 0.9599 0.81705 0.0
C160 C 0.28897 0.98015 0.80054 0.0
C161 C 0.33119 1.02707 0.80027 0.0
O162 O 0.59511 0.25698 0.81004 0.0
O163 O 0.51836 0.23075 0.82086 0.0
O164 O 0.64014 0.20216 0.84735 0.0
O165 O 0.67816 0.23865 0.82342 0.0
C166 C 0.68302 0.22979 0.84026 0.0
O167 O 0.50718 0.08599 0.82121 0.0
O168 O 0.58466 0.12817 0.81017 0.0
O169 O 0.41907 0.11935 0.80122 0.0
O170 O 0.42152 0.11849 0.83097 0.0
H171 H 0.34126 0.05328 0.84532 0.0
H172 H 0.23412 0.92312 0.81732 0.0
H173 H 0.34885 1.04244 0.78746 0.0
O174 O 0.62607 0.73568 0.77058 0.0
Tb175 Tb 0.56579 0.68341 0.78746 0.0
Eu176 Eu 0.66974 0.73764 0.80716 0.0
C177 C 0.61668 0.76645 0.76163 0.0
O178 O 0.57326 0.76255 0.76377 0.0
C179 C 0.59749 0.78555 0.80405 0.0
O180 O 0.64167 0.71972 0.83546 0.0
C181 C 0.76509 0.78658 0.80654 0.0
C182 C 0.59412 0.69294 0.83794 0.0
O183 O 0.56468 0.67777 0.8239 0.0
C184 C 0.60909 0.6174 0.80088 0.0
C185 C 0.80617 0.77586 0.80591 0.0
C186 C 0.82697 0.7755 0.78921 0.0
C187 C 0.86534 0.76497 0.78811 0.0
C188 C 0.88351 0.75488 0.80397 0.0
C189 C 0.86328 0.75488 0.82098 0.0
C190 C 0.82503 0.76623 0.82176 0.0
O191 O 0.55983 0.74046 0.80272 0.0
O192 O 0.64271 0.79315 0.80196 0.0
O193 O 0.53356 0.65748 0.76081 0.0
O194 O 0.48659 0.64879 0.78289 0.0
C195 C 0.48831 0.64103 0.76571 0.0
O196 O 0.65254 0.65811 0.80145 0.0
O197 O 0.56903 0.62024 0.79849 0.0
O198 O 0.7396 0.77598 0.82159 0.0
O199 O 0.7375 0.77605 0.79187 0.0
H200 H 0.81338 0.78359 0.77692 0.0
H201 H 0.91203 0.74511 0.80289 0.0
H202 H 0.80981 0.76745 0.83474 0.0
O203 O 0.96101 0.59017 0.93381 0.0
Tb204 Tb 0.95023 0.52564 0.94884 0.0
Eu205 Eu 0.99212 0.62072 0.9722 0.0
C206 C 0.92525 0.58161 0.92232 0.0
O207 O 0.8864 0.5373 0.92189 0.0
C208 C 0.87327 0.54893 0.96537 0.0
O209 O 0.96491 0.58615 -0.0008 0.0
C210 C 1.03555 0.71581 0.97216 0.0
C211 C 0.9448 0.53823 -0.0002 0.0
O212 O 0.94626 0.5146 -0.01455 0.0
C213 C 1.05447 0.56177 0.9672 0.0
C214 C 0.08551 0.75961 0.97133 0.0
C215 C 0.10327 0.78377 0.95476 0.0
C216 C 0.14957 0.82632 0.95366 0.0
C217 C 0.17838 0.84529 0.96933 0.0
C218 C 0.16155 0.82155 -0.01395 0.0
C219 C 0.11485 0.77886 -0.01305 0.0
O220 O 0.88203 0.51247 0.96246 0.0
O221 O 0.91065 0.59464 0.96514 0.0
O222 O 0.95628 0.50574 0.92119 0.0
O223 O 0.91056 0.44927 0.93962 0.0
C224 C 0.92769 0.4588 0.92322 0.0
O225 O 1.05621 0.60409 0.97051 0.0
O226 O 1.0136 0.52421 0.961 0.0
O227 O 1.02297 0.68958 -0.01288 0.0
O228 O 1.01924 0.68888 0.95733 0.0
H229 H 0.08083 0.76982 0.94265 0.0
H230 H 0.21464 0.87759 0.96835 0.0
H231 H 0.10126 0.76098 -0.00013 0.0
O232 O 0.40614 0.91342 0.10045 0.0
Tb233 Tb 0.4364 0.88838 0.12205 0.0
Eu234 Eu 0.38796 0.9384 0.14707 0.0
C235 C 0.36016 0.90367 0.09994 0.0
O236 O 0.33181 0.88278 0.11387 0.0
C237 C 0.33145 0.81671 0.14083 0.0
O238 O 0.42774 0.93663 0.17217 0.0
C239 C 0.34068 0.98633 0.14899 0.0
C240 C 0.44369 0.90508 0.17239 0.0
O241 O 0.43023 0.87253 0.15937 0.0
C242 C 0.50203 0.99271 0.13758 0.0
C243 C 0.35119 1.03755 0.14617 0.0
C244 C 0.35271 0.05572 0.12864 0.0
C245 C 0.36269 0.10412 0.12595 0.0
C246 C 0.37196 0.13494 0.141 0.0
C247 C 0.37113 0.11774 0.15868 0.0
C248 C 0.35944 0.06851 0.16107 0.0
O249 O 0.36966 0.82169 0.13155 0.0
O250 O 0.33047 0.85553 0.14739 0.0
O251 O 0.47945 0.88702 0.09919 0.0
O252 O 0.46192 0.83531 0.12039 0.0
C253 C 0.48438 0.85073 0.10504 0.0
O254 O 0.4623 0.99643 0.13527 0.0
O255 O 0.49627 0.94828 0.13765 0.0
O256 O 0.36075 0.97781 0.16325 0.0
O257 O 0.341 0.96229 0.13444 0.0
H258 H 0.34571 1.03219 0.11697 0.0
H259 H 0.38174 0.17288 0.13878 0.0
H260 H 0.35711 0.05421 0.17459 0.0
O261 O 0.52985 0.38127 0.27047 0.0
Tb262 Tb 0.58874 0.42636 0.28938 0.0
Eu263 Eu 0.48327 0.36982 0.30728 0.0
C264 C 0.54146 0.35947 0.25778 0.0
O265 O 0.58598 0.36532 0.25782 0.0
C266 C 0.55286 0.31803 0.30181 0.0
O267 O 0.51627 0.40169 0.33455 0.0
C268 C 0.38801 0.32178 0.30907 0.0
C269 C 0.56388 0.42176 0.33706 0.0
O270 O 0.59101 0.41885 0.32433 0.0
C271 C 0.54048 0.48653 0.30115 0.0
C272 C 0.3473 0.33307 0.30932 0.0
C273 C 0.32342 0.33213 0.2931 0.0
C274 C 0.28541 0.34329 0.29288 0.0
C275 C 0.27092 0.35553 0.30904 0.0
C276 C 0.29414 0.35676 0.32555 0.0
C277 C 0.33191 0.34468 0.32555 0.0
O278 O 0.59173 0.36232 0.30008 0.0
O279 O 0.50808 0.31261 0.30194 0.0
O280 O 0.62648 0.46394 0.2647 0.0
O281 O 0.66863 0.46219 0.287 0.0
C282 C 0.67062 0.47743 0.27049 0.0
O283 O 0.49931 0.44586 0.29692 0.0
O284 O 0.5802 0.48316 0.30356 0.0
O285 O 0.41661 0.33383 0.32345 0.0
O286 O 0.41237 0.33033 0.29378 0.0
H287 H 0.33432 0.32264 0.28051 0.0
H288 H 0.24287 0.36606 0.30852 0.0
H289 H 0.34949 0.34451 0.33817 0.0
O290 O 0.21397 0.52931 0.43915 0.0
Tb291 Tb 0.22561 0.58549 0.45903 0.0
Eu292 Eu 0.18075 0.47909 0.46978 0.0
C293 C 0.24507 0.54284 0.42557 0.0
O294 O 0.28071 0.58883 0.42466 0.0
C295 C 0.30112 0.55226 0.46783 0.0
O296 O 0.18558 0.51395 0.4965 0.0
C297 C 0.13699 0.38418 0.47289 0.0
C298 C 0.22355 0.52923 0.50736 0.0
O299 O 0.25983 0.52138 0.50345 0.0
C300 C 0.11863 0.53416 0.46911 0.0
C301 C 0.08707 0.34063 0.47477 0.0
C302 C 1.06308 0.31213 0.45945 0.0
C303 C 1.01641 0.2699 0.46078 0.0
C304 C 0.99384 0.25604 0.47778 0.0
C305 C 1.01701 0.28392 0.49334 0.0
C306 C 1.06386 0.3261 0.49173 0.0
O307 O 0.29278 0.58935 0.46965 0.0
O308 O 0.26355 0.50743 0.46468 0.0
O309 O 0.21765 0.62156 0.43521 0.0
O310 O 0.26641 0.66547 0.45618 0.0
C311 C 0.24828 0.6662 0.44038 0.0
O312 O 0.11987 0.49676 0.46133 0.0
O313 O 0.16085 0.57082 0.47467 0.0
O314 O 0.15499 0.41436 0.48677 0.0
O315 O 0.148 0.40699 0.45716 0.0
H316 H 0.08053 0.3234 0.44635 0.0
H317 H 0.95763 0.22379 0.47885 0.0
H318 H 0.08224 0.34742 0.5037 0.0
O319 O 0.75241 0.18972 0.60309 0.0
Tb320 Tb 0.69937 0.20436 0.61651 0.0
Eu321 Eu 0.74985 0.16056 0.64203 0.0
C322 C 0.78635 0.22629 0.59355 0.0
O323 O 0.78673 0.26834 0.59324 0.0
C324 C 0.79803 0.27887 0.6349 0.0
O325 O 0.73289 0.18477 0.66826 0.0
C326 C 0.80143 0.11697 0.64429 0.0
C327 C 0.70221 0.2017 0.66725 0.0
O328 O 0.68384 0.20265 0.65144 0.0
C329 C 0.63051 0.09729 0.63236 0.0
C330 C 0.79517 0.06687 0.6431 0.0
C331 C 0.79938 1.04841 0.62627 0.0
C332 C 0.79481 1.00176 0.62486 0.0
C333 C 0.78611 0.97319 0.64046 0.0
C334 C 0.78112 0.9905 0.65741 0.0
C335 C 0.78635 1.03771 0.65864 0.0
O336 O 0.75318 0.27063 0.6315 0.0
O337 O 0.806 0.24128 0.63518 0.0
O338 O 0.68446 0.21128 0.5882 0.0
O339 O 0.65965 0.24208 0.60838 0.0
C340 C 0.66091 0.23475 0.59114 0.0
O341 O 0.67089 0.09637 0.63698 0.0
O342 O 0.63346 0.1379 0.62606 0.0
O343 O 0.78372 0.12783 0.6586 0.0
O344 O 0.7952 0.13546 0.62915 0.0
H345 H 0.80664 0.07044 0.61416 0.0
H346 H 0.78223 0.93697 0.63931 0.0
H347 H 0.78235 1.05121 0.67165 0.0
C348 C 0.55297 0.68379 0.0442 0.0
C349 C 0.51956 0.67098 0.02982 0.0
C350 C 0.56038 0.72143 0.05623 0.0
C351 C 0.53175 0.74454 0.05422 0.0
C352 C 0.5006 0.73397 0.03894 0.0
C353 C 0.49572 0.69787 0.02667 0.0
C354 C 0.59613 0.73391 0.07174 0.0
C355 C 0.46858 0.75699 0.0365 0.0
C356 C 0.48183 0.77409 0.09566 0.0
C357 C 0.50371 0.82513 0.09425 0.0
C358 C 0.49248 0.74743 0.08311 0.0
C359 C 0.52749 0.77294 0.06938 0.0
C360 C 0.55314 0.82496 0.06903 0.0
C361 C 0.53993 0.85054 0.08123 0.0
C362 C 0.46333 0.69188 0.08371 0.0
C363 C 0.59256 0.85351 0.05523 0.0
H364 H 0.57181 0.66316 0.04643 0.0
H365 H 0.46983 0.6877 0.01552 0.0
H366 H 0.61593 0.77405 0.07453 0.0
H367 H 0.57577 0.71487 0.08414 0.0
H368 H 0.6235 0.72213 0.06895 0.0
H369 H 0.44851 0.7468 0.02337 0.0
H370 H 0.44117 0.74477 0.04756 0.0
H371 H 0.49106 0.7976 0.03726 0.0
H372 H 0.45367 0.75467 0.10575 0.0
H373 H 0.55713 0.89024 0.08035 0.0
H374 H 0.48846 0.67663 0.08439 0.0
H375 H 0.44105 0.67757 0.07115 0.0
H376 H 0.43814 0.67792 0.09548 0.0
H377 H 0.61498 0.83578 0.05262 0.0
H378 H 0.61733 0.89202 0.05971 0.0
H379 H 0.57519 0.85459 0.04227 0.0
C380 C 0.84568 0.42232 0.22269 0.0
C381 C 0.87649 0.45103 0.20873 0.0
C382 C 0.81807 0.43807 0.23248 0.0
C383 C 0.82303 0.4846 0.22863 0.0
C384 C 0.85669 0.51521 0.21531 0.0
C385 C 0.88232 0.49747 0.20517 0.0
C386 C 0.78174 0.40371 0.24629 0.0
C387 C 0.86453 0.56579 0.21133 0.0
C388 C 0.70551 0.48211 0.24025 0.0
C389 C 0.71332 0.49367 0.25867 0.0
C390 C 0.7429 0.48338 0.22962 0.0
C391 C 0.78941 0.49824 0.23759 0.0
C392 C 0.79923 0.51639 0.25553 0.0
C393 C 0.76054 0.51283 0.26607 0.0
C394 C 0.73068 0.46315 0.2106 0.0
C395 C 0.84926 0.53524 0.26409 0.0
H396 H 0.84125 0.38633 0.22536 0.0
H397 H 0.90667 0.51978 0.19443 0.0
H398 H 0.79025 0.42153 0.25979 0.0
H399 H 0.74395 0.39519 0.24256 0.0
H400 H 0.78205 0.36855 0.24742 0.0
H401 H 0.90076 0.58948 0.20484 0.0
H402 H 0.83549 0.56263 0.20189 0.0
H403 H 0.86238 0.58417 0.22383 0.0
H404 H 0.66889 0.46745 0.23454 0.0
H405 H 0.7666 0.52249 0.2803 0.0
H406 H 0.72906 0.42699 0.21014 0.0
H407 H 0.75965 0.48794 0.20107 0.0
H408 H 0.69473 0.45798 0.20585 0.0
H409 H 0.85363 0.50368 0.2683 0.0
H410 H 0.85405 0.55807 0.27624 0.0
H411 H 0.87887 0.55737 0.25429 0.0
C412 C 0.26832 0.69933 0.40947 0.0
C413 C 0.26991 0.70827 0.42806 0.0
C414 C 0.30061 0.73621 0.39776 0.0
C415 C 0.33361 0.78338 0.40485 0.0
C416 C 0.32976 0.79438 0.42311 0.0
C417 C 0.29871 0.75613 0.43472 0.0
C418 C 0.3036 0.72284 0.37837 0.0
C419 C 0.36173 0.84534 0.43073 0.0
C420 C 0.4615 0.83678 0.38604 0.0
C421 C 0.45993 0.86476 0.37164 0.0
C422 C 0.4209 0.8113 0.3973 0.0
C423 C 0.37862 0.81598 0.39455 0.0
C424 C 0.37836 0.8473 0.38081 0.0
C425 C 0.41876 0.8704 0.36913 0.0
C426 C 0.42234 0.77711 0.41142 0.0
C427 C 0.33519 0.85528 0.37792 0.0
H428 H 0.24553 0.66227 0.40431 0.0
H429 H 0.29901 0.76311 0.44909 0.0
H430 H 0.30263 0.74997 0.36903 0.0
H431 H 0.339 0.7236 0.37623 0.0
H432 H 0.27306 0.68564 0.37471 0.0
H433 H 0.34605 0.85081 0.44337 0.0
H434 H 0.39883 0.85099 0.43388 0.0
H435 H 0.36617 0.87367 0.42073 0.0
H436 H 0.49355 0.83256 0.38787 0.0
H437 H 0.41809 0.89273 0.35805 0.0
H438 H 0.39183 0.73901 0.40902 0.0
H439 H 0.41728 0.78832 0.42509 0.0
H440 H 0.4576 0.77677 0.41134 0.0
H441 H 0.31017 0.82899 0.36757 0.0
H442 H 0.34773 0.89297 0.37278 0.0
H443 H 0.314 0.84976 0.39053 0.0
C444 C 0.65009 0.43546 0.53696 0.0
C445 C 0.6366 0.42679 0.5187 0.0
C446 C 0.64368 0.3971 0.54826 0.0
C447 C 0.62095 0.34861 0.54127 0.0
C448 C 0.60231 0.33899 0.52336 0.0
C449 C 0.61168 0.37863 0.51203 0.0
C450 C 0.66558 0.40935 0.56709 0.0
C451 C 0.57514 0.28741 0.51583 0.0
C452 C 0.67513 0.27635 0.56177 0.0
C453 C 0.64539 0.25655 0.57696 0.0
C454 C 0.66588 0.30438 0.54935 0.0
C455 C 0.62442 0.31043 0.55184 0.0
C456 C 0.59152 0.28622 0.56624 0.0
C457 C 0.60328 0.26066 0.57904 0.0
C458 C 0.70286 0.33089 0.53453 0.0
C459 C 0.54541 0.28935 0.56867 0.0
H460 H 0.66948 0.47289 0.54206 0.0
H461 H 0.60079 0.3721 0.49791 0.0
H462 H 0.63732 0.38723 0.57729 0.0
H463 H 0.69536 0.40011 0.56827 0.0
H464 H 0.68121 0.44888 0.57049 0.0
H465 H 0.55158 0.28474 0.50412 0.0
H466 H 0.60199 0.27666 0.51113 0.0
H467 H 0.55181 0.2607 0.52632 0.0
H468 H 0.70768 0.27289 0.56029 0.0
H469 H 0.57996 0.24441 0.59073 0.0
H470 H 0.72005 0.37124 0.53649 0.0
H471 H 0.68437 0.32189 0.52115 0.0
H472 H 0.73251 0.32128 0.53431 0.0
H473 H 0.55462 0.32425 0.57561 0.0
H474 H 0.5179 0.25849 0.57703 0.0
H475 H 0.52848 0.28893 0.5554 0.0
C476 C 0.29857 0.67546 0.71474 0.0
C477 C 0.27438 0.64694 0.69956 0.0
C478 C 0.3288 0.66456 0.72536 0.0
C479 C 0.33327 0.623 0.72101 0.0
C480 C 0.30609 0.59204 0.70641 0.0
C481 C 0.2776 0.60506 0.69554 0.0
C482 C 0.35812 0.69921 0.74057 0.0
C483 C 0.3084 0.54634 0.70188 0.0
C484 C 0.45704 0.64314 0.73529 0.0
C485 C 0.44721 0.62599 0.75309 0.0
C486 C 0.41924 0.6391 0.72405 0.0
C487 C 0.37048 0.61575 0.73068 0.0
C488 C 0.35977 0.59347 0.74796 0.0
C489 C 0.39864 0.59985 0.75919 0.0
C490 C 0.43239 0.66438 0.70588 0.0
C491 C 0.30785 0.56621 0.75508 0.0
H492 H 0.2959 0.70787 0.71776 0.0
H493 H 0.25823 0.58279 0.68386 0.0
H494 H 0.35006 0.67893 0.75353 0.0
H495 H 0.39808 0.71538 0.73796 0.0
H496 H 0.35004 0.72969 0.74218 0.0
H497 H 0.27763 0.52122 0.69285 0.0
H498 H 0.34351 0.55677 0.69492 0.0
H499 H 0.30731 0.52616 0.71437 0.0
H500 H 0.49479 0.66333 0.73063 0.0
H501 H 0.39124 0.58602 0.77293 0.0
H502 H 0.42723 0.6969 0.70626 0.0
H503 H 0.40787 0.63946 0.69514 0.0
H504 H 0.47115 0.67697 0.7021 0.0
H505 H 0.297 0.59301 0.75978 0.0
H506 H 0.30443 0.54208 0.76664 0.0
H507 H 0.28161 0.54348 0.74428 0.0
C508 C 0.72332 0.27322 0.86818 0.0
C509 C 0.72769 0.25708 0.85107 0.0
C510 C 0.76498 0.30423 0.87833 0.0
C511 C 0.81212 0.31715 0.87156 0.0
C512 C 0.81657 0.29833 0.85469 0.0
C513 C 0.77403 0.26948 0.84432 0.0
C514 C 0.75832 0.32501 0.89588 0.0
C515 C 0.86573 0.30926 0.84726 0.0
C516 C 0.90269 0.43885 0.89136 0.0
C517 C 0.9098 0.42357 0.90831 0.0
C518 C 0.87486 0.40424 0.87808 0.0
C519 C 0.85574 0.35367 0.88178 0.0
C520 C 0.86939 0.33899 0.89786 0.0
C521 C 0.89506 0.37415 0.91131 0.0
C522 C 0.86115 0.42143 0.86109 0.0
C523 C 0.85301 0.28571 0.90151 0.0
H524 H 0.68722 0.26374 0.87323 0.0
H525 H 0.77699 0.25649 0.83105 0.0
H526 H 0.77157 0.31206 0.9074 0.0
H527 H 0.78027 0.36579 0.89571 0.0
H528 H 0.71925 0.31401 0.89839 0.0
H529 H 0.86215 0.27683 0.83985 0.0
H530 H 0.87867 0.33991 0.83743 0.0
H531 H 0.89405 0.31966 0.85801 0.0
H532 H 0.91485 0.47741 0.88909 0.0
H533 H 0.90195 0.36281 0.92434 0.0
H534 H 0.82107 0.40836 0.86109 0.0
H535 H 0.86903 0.4057 0.849 0.0
H536 H 0.88138 0.46216 0.85987 0.0
H537 H 0.81453 0.26662 0.90645 0.0
H538 H 0.87648 0.28194 0.91197 0.0
H539 H 0.85409 0.26696 0.88893 0.0
C540 C 0.48574 0.16961 0.8772 0.0
C541 C 0.52398 0.21537 0.87141 0.0
C542 C 0.4577 0.16602 0.89257 0.0
C543 C 0.46812 0.20924 0.90223 0.0
C544 C 0.50575 0.25553 0.89606 0.0
C545 C 0.53317 0.25797 0.88081 0.0
C546 C 0.41788 0.116 0.89873 0.0
C547 C 0.51772 0.30266 0.90576 0.0
C548 C 0.38031 0.2209 0.93426 0.0
C549 C 0.40227 0.22334 0.95111 0.0
C550 C 0.39932 0.21295 0.91825 0.0
C551 C 0.44113 0.20694 0.91909 0.0
C552 C 0.46129 0.20587 0.93616 0.0
C553 C 0.44177 0.21426 0.95194 0.0
C554 C 0.37661 0.21428 0.90036 0.0
C555 C 0.50564 0.19919 0.93768 0.0
H556 H 0.47841 0.13656 0.86998 0.0
H557 H 0.56226 0.29357 0.87633 0.0
H558 H 0.42846 0.1071 0.91194 0.0
H559 H 0.38284 0.11596 0.90077 0.0
H560 H 0.41141 0.08656 0.8889 0.0
H561 H 0.54685 0.33579 0.89881 0.0
H562 H 0.48429 0.30613 0.90675 0.0
H563 H 0.53035 0.30201 0.91974 0.0
H564 H 0.34909 0.22677 0.93351 0.0
H565 H 0.45924 0.21632 0.96485 0.0
H566 H 0.37125 0.18326 0.89161 0.0
H567 H 0.40185 0.24885 0.89318 0.0
H568 H 0.34062 0.21259 0.90208 0.0
H569 H 0.50073 0.16799 0.92914 0.0
H570 H 0.51265 0.19246 0.95185 0.0
H571 H 0.53867 0.23278 0.93273 0.0
C572 C 0.22522 0.34316 0.12099 0.0
C573 C 0.19421 0.36342 0.12205 0.0
C574 C 0.25825 0.35464 0.10658 0.0
C575 C 0.26034 0.38719 0.0929 0.0
C576 C 0.22917 0.40777 0.0939 0.0
C577 C 0.19649 0.39561 0.10844 0.0
C578 C 0.29062 0.3317 0.10593 0.0
C579 C 0.2303 0.44269 0.07959 0.0
C580 C 0.37089 0.45542 0.06206 0.0
C581 C 0.35283 0.42928 0.04581 0.0
C582 C 0.34202 0.44086 0.07779 0.0
C583 C 0.29417 0.39906 0.07725 0.0
C584 C 0.27712 0.37079 0.0612 0.0
C585 C 0.3066 0.38627 0.04569 0.0
C586 C 0.36163 0.47182 0.09467 0.0
C587 C 0.22657 0.3257 0.06009 0.0
H588 H 0.22326 0.3178 0.13135 0.0
H589 H 0.17316 0.41192 0.10929 0.0
H590 H 0.2825 0.30909 0.0935 0.0
H591 H 0.32989 0.36084 0.10532 0.0
H592 H 0.28537 0.30803 0.11785 0.0
H593 H 0.20413 0.45596 0.08246 0.0
H594 H 0.26792 0.47497 0.0786 0.0
H595 H 0.22095 0.42418 0.0662 0.0
H596 H 0.40653 0.48872 0.06227 0.0
H597 H 0.29253 0.36561 0.03323 0.0
H598 H 0.35703 0.44829 0.10654 0.0
H599 H 0.34034 0.4907 0.09735 0.0
H600 H 0.40115 0.50011 0.09347 0.0
H601 H 0.2208 0.30064 0.07157 0.0
H602 H 0.22076 0.30511 0.04725 0.0
H603 H 0.19816 0.33683 0.06105 0.0
C604 C 0.83936 0.16017 0.28196 0.0
C605 C 0.86791 0.14869 0.29337 0.0
C606 C 0.85869 0.18607 0.26586 0.0
C607 C 0.90756 0.20006 0.26091 0.0
C608 C 0.9366 0.18839 0.27235 0.0
C609 C 0.91649 0.16314 0.28859 0.0
C610 C 0.82676 0.19855 0.25419 0.0
C611 C 0.98846 0.20191 0.26731 0.0
C612 C 0.92458 0.2259 0.21082 0.0
C613 C 0.94326 0.27685 0.21059 0.0
C614 C 0.91703 0.20068 0.22722 0.0
C615 C 0.92758 0.22705 0.24371 0.0
C616 C 0.95045 0.27897 0.24347 0.0
C617 C 0.95851 0.30334 0.22686 0.0
C618 C 0.89396 0.14542 0.22691 0.0
C619 C 0.96195 0.30845 0.26074 0.0
H620 H 0.80193 0.14928 0.28577 0.0
H621 H 0.93835 0.15379 0.29739 0.0
H622 H 0.84535 0.23886 0.25194 0.0
H623 H 0.821 0.18074 0.24075 0.0
H624 H 0.79018 0.18642 0.26031 0.0
H625 H 1.00635 0.19064 0.2778 0.0
H626 H 0.98808 0.184 0.25433 0.0
H627 H 1.01123 0.24218 0.26524 0.0
H628 H 0.9134 0.20533 0.19824 0.0
H629 H 0.97318 0.34279 0.2268 0.0
H630 H 0.85454 0.1283 0.23061 0.0
H631 H 0.912 0.13317 0.23694 0.0
H632 H 0.89632 0.13164 0.21333 0.0
H633 H 0.9271 0.30255 0.2668 0.0
H634 H 0.98615 0.34848 0.25834 0.0
H635 H 0.97997 0.29619 0.27076 0.0
C636 C 0.70352 0.93092 0.37972 0.0
C637 C 0.66928 0.88571 0.37194 0.0
C638 C 0.73079 0.93275 0.39517 0.0
C639 C 0.72328 0.88833 0.40305 0.0
C640 C 0.69086 0.84288 0.39461 0.0
C641 C 0.6645 0.84218 0.37915 0.0
C642 C 0.76548 0.98208 0.40355 0.0
C643 C 0.68197 0.79461 0.40243 0.0
C644 C 0.8061 0.87737 0.43813 0.0
C645 C 0.77891 0.86998 0.45399 0.0
C646 C 0.7903 0.8869 0.42157 0.0
C647 C 0.74584 0.88819 0.42083 0.0
C648 C 0.71966 0.88329 0.43698 0.0
C649 C 0.73664 0.87446 0.45338 0.0
C650 C 0.81998 0.89339 0.40474 0.0
C651 C 0.67209 0.88445 0.43679 0.0
H652 H 0.70768 0.96479 0.37418 0.0
H653 H 0.63858 0.80709 0.37313 0.0
H654 H 0.74661 0.98905 0.41485 0.0
H655 H 0.79876 0.98291 0.40917 0.0
H656 H 0.77705 1.0124 0.39361 0.0
H657 H 0.6578 0.76275 0.39366 0.0
H658 H 0.71739 0.79528 0.40441 0.0
H659 H 0.66443 0.78887 0.41589 0.0
H660 H 0.83923 0.87466 0.43861 0.0
H661 H 0.71538 0.86853 0.46559 0.0
H662 H 0.82589 0.92648 0.39719 0.0
H663 H 0.79939 0.8612 0.39569 0.0
H664 H 0.85633 0.89703 0.40789 0.0
H665 H 0.6583 0.88403 0.45064 0.0
H666 H 0.64355 0.85201 0.42928 0.0
H667 H 0.67718 0.9178 0.42968 0.0
C668 C 0.84388 0.61662 0.54306 0.0
C669 C 0.8088 0.62538 0.53465 0.0
C670 C 0.87119 0.64441 0.558 0.0
C671 C 0.86308 0.68185 0.5649 0.0
C672 C 0.8287 0.69196 0.55618 0.0
C673 C 0.80201 0.66364 0.54108 0.0
C674 C 0.908 0.63283 0.56666 0.0
C675 C 0.81891 0.73147 0.56314 0.0
C676 C 0.89945 0.70689 0.61437 0.0
C677 C 0.94751 0.74707 0.61332 0.0
C678 C 0.87012 0.68753 0.5988 0.0
C679 C 0.88942 0.7084 0.5817 0.0
C680 C 0.93677 0.75065 0.58065 0.0
C681 C 0.96512 0.7696 0.59647 0.0
C682 C 0.81963 0.64272 0.60055 0.0
C683 C 0.95875 0.77403 0.5627 0.0
H684 H 0.8498 0.58752 0.53805 0.0
H685 H 0.77488 0.6705 0.53465 0.0
H686 H 0.94466 0.66656 0.56752 0.0
H687 H 0.89642 0.61946 0.58066 0.0
H688 H 0.91179 0.60438 0.55906 0.0
H689 H 0.79552 0.73863 0.5537 0.0
H690 H 0.79999 0.72 0.57637 0.0
H691 H 0.85398 0.76631 0.5654 0.0
H692 H 0.88548 0.68884 0.62724 0.0
H693 H 1.00177 0.80131 0.59555 0.0
H694 H 0.82013 0.61017 0.59494 0.0
H695 H 0.79216 0.6476 0.59268 0.0
H696 H 0.80745 0.63493 0.61485 0.0
H697 H 0.9676 0.74924 0.55491 0.0
H698 H 0.99299 0.81009 0.56435 0.0
H699 H 0.93199 0.7794 0.55456 0.0
C700 C 0.19148 0.78645 0.71929 0.0
C701 C 0.21266 0.81094 0.70313 0.0
C702 C 0.19638 0.81307 0.7352 0.0
C703 C 0.22194 0.8652 0.73468 0.0
C704 C 0.23884 0.88963 0.71791 0.0
C705 C 0.23494 0.8622 0.70238 0.0
C706 C 0.17881 0.78553 0.75282 0.0
C707 C 0.26478 0.94499 0.71661 0.0
C708 C 0.22443 0.9369 0.77668 0.0
C709 C 0.27116 0.95083 0.78374 0.0
C710 C 0.20772 0.90921 0.76062 0.0
C711 C 0.23805 0.89413 0.75181 0.0
C712 C 0.28493 0.90745 0.75919 0.0
C713 C 0.30114 0.93622 0.77493 0.0
C714 C 0.15815 0.89682 0.75293 0.0
C715 C 0.31804 0.89124 0.7505 0.0
H716 H 0.17516 0.74679 0.71988 0.0
H717 H 0.25166 0.881 0.68985 0.0
H718 H 0.21105 0.7902 0.76073 0.0
H719 H 0.15983 0.80043 0.76109 0.0
H720 H 0.15344 0.74557 0.75063 0.0
H721 H 0.26738 0.95753 0.70239 0.0
H722 H 0.24535 0.9598 0.7247 0.0
H723 H 0.30263 0.96084 0.72215 0.0
H724 H 0.20141 0.94841 0.78358 0.0
H725 H 0.33708 0.94674 0.78055 0.0
H726 H 0.13435 0.8564 0.75157 0.0
H727 H 0.16282 0.91264 0.73917 0.0
H728 H 0.13894 0.91108 0.76146 0.0
H729 H 0.29804 0.85067 0.74883 0.0
H730 H 0.35198 0.9022 0.75856 0.0
H731 H 0.32895 0.90764 0.73683 0.0
C732 C 0.84577 0.7112 0.85095 0.0
C733 C 0.87996 0.74012 0.83767 0.0
C734 C 0.85973 0.69326 0.86591 0.0
C735 C 0.90899 0.7035 0.86758 0.0
C736 C 0.94424 0.73441 0.85472 0.0
C737 C 0.9294 0.75254 0.84 0.0
C738 C 0.82096 0.66094 0.8794 0.0
C739 C 0.9971 0.7462 0.85596 0.0
C740 C 0.94213 0.66519 0.91223 0.0
C741 C 0.92997 0.61683 0.90815 0.0
C742 C 0.9376 0.69509 0.89895 0.0
C743 C 0.92137 0.67617 0.88125 0.0
C744 C 0.91233 0.6284 0.87692 0.0
C745 C 0.91618 0.59925 0.89045 0.0
C746 C 0.94719 0.74558 0.90419 0.0
C747 C 0.89603 0.60692 0.85819 0.0
H748 H 0.80738 0.70064 0.8493 0.0
H749 H 0.95647 0.7757 0.83011 0.0
H750 H 0.8127 0.62238 0.87782 0.0
H751 H 0.83455 0.67264 0.89342 0.0
H752 H 0.78618 0.66176 0.87757 0.0
H753 H 1.02121 0.77561 0.84636 0.0
H754 H 1.01167 0.7579 0.86987 0.0
H755 H 0.99913 0.71266 0.85284 0.0
H756 H 0.95235 0.67857 0.92598 0.0
H757 H 0.90707 0.56187 0.88729 0.0
H758 H 0.91158 0.74493 0.90526 0.0
H759 H 0.9692 0.773 0.8937 0.0
H760 H 0.96676 0.75781 0.91738 0.0
H761 H 0.85853 0.60068 0.85542 0.0
H762 H 0.89532 0.57135 0.85659 0.0
H763 H 0.92096 0.63296 0.84785 0.0
C764 C 0.2899 0.90071 0.08289 0.0
C765 C 0.33759 0.90735 0.0828 0.0
C766 C 0.26356 0.89376 0.06674 0.0
C767 C 0.28539 0.89328 0.05009 0.0
C768 C 0.3349 0.90383 0.04981 0.0
C769 C 0.36053 0.9109 0.06619 0.0
C770 C 0.21111 0.88334 0.06764 0.0
C771 C 0.35964 0.90407 0.03232 0.0
C772 C 0.19816 0.80772 0.01404 0.0
C773 C 0.19337 0.84044 0.00243 0.0
C774 C 0.22836 0.82465 0.02945 0.0
C775 C 0.25451 0.87566 0.03342 0.0
C776 C 0.25009 0.90902 0.02173 0.0
C777 C 0.21959 0.891 0.00635 0.0
C778 C 0.23218 0.78781 0.04152 0.0
C779 C 0.27711 0.96359 0.02558 0.0
H780 H 0.27215 0.89859 0.09567 0.0
H781 H 0.39743 0.91618 0.066 0.0
H782 H 0.20456 0.90541 0.05745 0.0
H783 H 0.18564 0.84397 0.06449 0.0
H784 H 0.20182 0.89139 0.08122 0.0
H785 H 0.39988 0.9193 0.03409 0.0
H786 H 0.34331 0.86588 0.02712 0.0
H787 H 0.3535 0.92592 0.02189 0.0
H788 H 0.1787 0.76873 0.01092 0.0
H789 H 0.21573 0.91645 -0.00249 0.0
H790 H 0.21934 0.78944 0.05533 0.0
H791 H 0.27115 0.79701 0.0427 0.0
H792 H 0.21005 0.74954 0.03638 0.0
H793 H 0.26423 0.97084 0.03855 0.0
H794 H 0.27153 0.98487 0.01474 0.0
H795 H 0.31713 0.97737 0.02708 0.0
C796 C 0.45784 0.29544 0.24689 0.0
C797 C 0.50706 0.32986 0.24326 0.0
C798 C 0.42812 0.26112 0.23359 0.0
C799 C 0.44814 0.26224 0.21631 0.0
C800 C 0.49672 0.29958 0.21229 0.0
C801 C 0.5257 0.33247 0.22589 0.0
C802 C 0.3767 0.22167 0.23846 0.0
C803 C 0.51931 0.30294 0.19397 0.0
C804 C 0.41375 0.14806 0.18865 0.0
C805 C 0.38568 0.15182 0.17454 0.0
C806 C 0.43121 0.18184 0.20299 0.0
C807 C 0.42152 0.22134 0.20311 0.0
C808 C 0.39175 0.22453 0.18932 0.0
C809 C 0.37391 0.18956 0.17526 0.0
C810 C 0.46241 0.17671 0.21752 0.0
C811 C 0.38084 0.26624 0.18891 0.0
H812 H 0.4436 0.29331 0.26039 0.0
H813 H 0.56372 0.35951 0.22306 0.0
H814 H 0.35042 0.21609 0.22738 0.0
H815 H 0.37617 0.18634 0.24044 0.0
H816 H 0.36379 0.23063 0.2511 0.0
H817 H 0.55508 0.33748 0.19238 0.0
H818 H 0.52557 0.27139 0.19213 0.0
H819 H 0.494 0.30099 0.18305 0.0
H820 H 0.42399 0.11981 0.18819 0.0
H821 H 0.35149 0.19238 0.16466 0.0
H822 H 0.44973 0.18023 0.23113 0.0
H823 H 0.50118 0.2066 0.21612 0.0
H824 H 0.46146 0.14088 0.21672 0.0
H825 H 0.36843 0.27121 0.20237 0.0
H826 H 0.35225 0.26017 0.17869 0.0
H827 H 0.41497 0.301 0.1856 0.0
C828 C 0.22964 0.45955 0.41615 0.0
C829 C 0.24209 0.50776 0.41165 0.0
C830 C 0.23358 0.4286 0.40329 0.0
C831 C 0.24928 0.44617 0.38549 0.0
C832 C 0.25928 0.49401 0.38073 0.0
C833 C 0.25623 0.52438 0.39393 0.0
C834 C 0.2235 0.37825 0.40901 0.0
C835 C 0.27486 0.51384 0.36182 0.0
C836 C 0.31762 0.40359 0.35498 0.0
C837 C 0.28098 0.37379 0.34243 0.0
C838 C 0.30688 0.42445 0.36983 0.0
C839 C 0.25858 0.41645 0.37201 0.0
C840 C 0.22091 0.38465 0.35994 0.0
C841 C 0.23243 0.36328 0.34544 0.0
C842 C 0.34797 0.45731 0.38262 0.0
C843 C 0.16904 0.37547 0.36168 0.0
H844 H 0.21932 0.44695 0.42993 0.0
H845 H 0.26556 0.56162 0.39042 0.0
H846 H 0.19927 0.34996 0.39905 0.0
H847 H 0.25868 0.37784 0.4095 0.0
H848 H 0.20607 0.36788 0.42255 0.0
H849 H 0.27693 0.54996 0.35993 0.0
H850 H 0.31158 0.51837 0.35893 0.0
H851 H 0.24862 0.48751 0.35174 0.0
H852 H 0.35536 0.4126 0.35281 0.0
H853 H 0.20347 0.33931 0.33616 0.0
H854 H 0.33594 0.44794 0.39686 0.0
H855 H 0.35783 0.49615 0.38045 0.0
H856 H 0.38149 0.45434 0.38059 0.0
H857 H 0.15582 0.36529 0.37576 0.0
H858 H 0.14296 0.34591 0.35244 0.0
H859 H 0.16851 0.40976 0.35844 0.0
C860 C 0.80849 0.22103 0.56213 0.0
C861 C 0.81745 0.21915 0.58056 0.0
C862 C 0.84305 0.22592 0.54917 0.0
C863 C 0.88808 0.22981 0.55485 0.0
C864 C 0.89612 0.22524 0.57348 0.0
C865 C 0.86053 0.22002 0.58619 0.0
C866 C 0.83264 0.23018 0.52948 0.0
C867 C 0.94355 0.22919 0.58008 0.0
C868 C 0.96175 0.22069 0.516 0.0
C869 C 0.99042 0.27028 0.51093 0.0
C870 C 0.93048 0.2069 0.53106 0.0
C871 C 0.92797 0.24359 0.54135 0.0
C872 C 0.95941 0.29386 0.53708 0.0
C873 C 0.99011 0.30657 0.52191 0.0
C874 C 0.89794 0.15296 0.53524 0.0
C875 C 0.95825 0.33422 0.5478 0.0
H876 H 0.77529 0.22103 0.55792 0.0
H877 H 0.86765 0.21954 0.60053 0.0
H878 H 0.85809 0.26805 0.52466 0.0
H879 H 0.83908 0.2046 0.52113 0.0
H880 H 0.79425 0.22206 0.5272 0.0
H881 H 0.94075 0.21666 0.5943 0.0
H882 H 0.95425 0.20723 0.57142 0.0
H883 H 0.97346 0.26811 0.57931 0.0
H884 H 0.96257 0.19244 0.50783 0.0
H885 H 1.01183 0.34492 0.51809 0.0
H886 H 0.85936 0.1414 0.53148 0.0
H887 H 0.89852 0.14612 0.54994 0.0
H888 H 0.90924 0.12958 0.52773 0.0
H889 H 0.92293 0.33337 0.54522 0.0
H890 H 0.9889 0.37126 0.54415 0.0
H891 H 0.96038 0.32847 0.56251 0.0
C892 C 0.72931 0.90878 0.67216 0.0
C893 C 0.76713 0.95792 0.67353 0.0
C894 C 0.71234 0.8784 0.68743 0.0
C895 C 0.73375 0.89747 0.70457 0.0
C896 C 0.77363 0.94627 0.70592 0.0
C897 C 0.78966 0.97606 0.6904 0.0
C898 C 0.66943 0.82675 0.68538 0.0
C899 C 0.79785 0.96775 0.7239 0.0
C900 C 0.64239 0.84044 0.74261 0.0
C901 C 0.65186 0.80376 0.7489 0.0
C902 C 0.67056 0.87277 0.72887 0.0
C903 C 0.7095 0.86858 0.72114 0.0
C904 C 0.72137 0.83366 0.72818 0.0
C905 C 0.69229 0.8015 0.74203 0.0
C906 C 0.6567 0.90961 0.72194 0.0
C907 C 0.76315 0.82863 0.7205 0.0
H908 H 0.71136 0.89462 0.65922 0.0
H909 H 0.81939 1.01379 0.6915 0.0
H910 H 0.67774 0.80001 0.69203 0.0
H911 H 0.63661 0.82403 0.69212 0.0
H912 H 0.66002 0.81596 0.67097 0.0
H913 H 0.83269 1.00324 0.72231 0.0
H914 H 0.77248 0.97419 0.73237 0.0
H915 H 0.80575 0.94167 0.7313 0.0
H916 H 0.61174 0.84306 0.74806 0.0
H917 H 0.7 0.77346 0.74694 0.0
H918 H 0.64258 0.89998 0.70787 0.0
H919 H 0.68944 0.94702 0.72166 0.0
H920 H 0.62797 0.91069 0.73034 0.0
H921 H 0.75252 0.81121 0.70694 0.0
H922 H 0.77266 0.8057 0.72923 0.0
H923 H 0.7964 0.8653 0.71877 0.0
C924 C 0.48182 0.59426 0.9358 0.0
C925 C 0.46742 0.54419 0.93618 0.0
C926 C 0.50289 0.62235 0.92033 0.0
C927 C 0.50986 0.59967 0.90504 0.0
C928 C 0.49504 0.54904 0.90526 0.0
C929 C 0.47366 0.5217 0.92089 0.0
C930 C 0.51788 0.67621 0.92037 0.0
C931 C 0.5022 0.52394 0.88907 0.0
C932 C 0.52313 0.6538 0.85864 0.0
C933 C 0.57388 0.67508 0.85593 0.0
C934 C 0.50192 0.63069 0.87494 0.0
C935 C 0.53238 0.62874 0.88867 0.0
C936 C 0.58394 0.65219 0.88634 0.0
C937 C 0.60424 0.67546 0.86993 0.0
C938 C 0.4468 0.60656 0.87716 0.0
C939 C 0.61729 0.65065 0.90082 0.0
H940 H 0.47669 0.61162 0.94762 0.0
H941 H 0.46269 0.48301 0.92124 0.0
H942 H 0.558 0.69901 0.91793 0.0
H943 H 0.49885 0.68393 0.90925 0.0
H944 H 0.50916 0.68792 0.93335 0.0
H945 H 0.48883 0.48432 0.89154 0.0
H946 H 0.48232 0.52723 0.87719 0.0
H947 H 0.5418 0.54225 0.88554 0.0
H948 H 0.49973 0.65408 0.84785 0.0
H949 H 0.64353 0.69196 0.86779 0.0
H950 H 0.43781 0.61871 0.88996 0.0
H951 H 0.43059 0.56608 0.87794 0.0
H952 H 0.42903 0.61504 0.86576 0.0
H953 H 0.61076 0.66363 0.91392 0.0
H954 H 0.65684 0.67355 0.89734 0.0
H955 H 0.60886 0.61215 0.90279 0.0
C956 C 0.86109 0.38788 0.0921 0.0
C957 C 0.89808 0.37535 0.09367 0.0
C958 C 0.85608 0.40939 0.07627 0.0
C959 C 0.88923 0.41877 0.06196 0.0
C960 C 0.92354 0.40196 0.06287 0.0
C961 C 0.92731 0.38003 0.07875 0.0
C962 C 0.81804 0.42545 0.07547 0.0
C963 C 0.95918 0.41092 0.04769 0.0
C964 C 0.88556 0.46129 0.015 0.0
C965 C 0.92256 0.51069 0.01629 0.0
C966 C 0.87005 0.43146 0.03034 0.0
C967 C 0.89318 0.45164 0.04707 0.0
C968 C 0.9272 0.50265 0.04868 0.0
C969 C 0.94125 0.53188 0.03316 0.0
C970 C 0.83227 0.37766 0.0283 0.0
C971 C 0.95236 0.5254 0.06642 0.0
H972 H 0.83771 0.3833 0.10355 0.0
H973 H 0.95546 0.36971 0.07987 0.0
H974 H 0.83587 0.46527 0.07865 0.0
H975 H 0.80156 0.41983 0.06176 0.0
H976 H 0.78816 0.40523 0.08542 0.0
H977 H 0.9809 0.39224 0.05003 0.0
H978 H 0.93919 0.39779 0.03465 0.0
H979 H 0.98513 0.451 0.04637 0.0
H980 H 0.87023 0.44543 0.00189 0.0
H981 H 0.96951 0.5703 0.03405 0.0
H982 H 0.80731 0.36421 0.04012 0.0
H983 H 0.85127 0.35589 0.02751 0.0
H984 H 0.80988 0.37062 0.01581 0.0
H985 H 0.92499 0.51424 0.07744 0.0
H986 H 0.97355 0.56621 0.06579 0.0
H987 H 0.97811 0.51205 0.07001 0.0
C988 C 0.52433 0.91001 0.17647 0.0
C989 C 0.48527 0.91365 0.18396 0.0
C990 C 0.56498 0.91848 0.187 0.0
C991 C 0.56506 0.92806 0.20565 0.0
C992 C 0.52582 0.93225 0.21326 0.0
C993 C 0.48672 0.92603 0.20216 0.0
C994 C 0.60722 0.91629 0.17821 0.0
C995 C 0.52436 0.94174 0.23321 0.0
C996 C 0.62805 0.88958 0.24005 0.0
C997 C 0.66304 0.93543 0.24702 0.0
C998 C 0.59774 0.88646 0.22557 0.0
C999 C 0.6041 0.93028 0.21759 0.0
C1000 C 0.64391 0.97633 0.22298 0.0
C1001 C 0.67255 0.97846 0.23792 0.0
C1002 C 0.55547 0.83663 0.22026 0.0
C1003 C 0.6535 1.02362 0.2141 0.0
H1004 H 0.52348 0.90121 0.16225 0.0
H1005 H 0.4565 0.92906 0.20782 0.0
H1006 H 0.64307 0.94632 0.18329 0.0
H1007 H 0.60521 0.8809 0.18158 0.0
H1008 H 0.60632 0.91913 0.16325 0.0
H1009 H 0.49085 0.94318 0.23698 0.0
H1010 H 0.52539 0.91229 0.2412 0.0
H1011 H 0.55715 0.97709 0.2371 0.0
H1012 H 0.62056 0.85628 0.24712 0.0
H1013 H 0.69999 1.01393 0.24327 0.0
H1014 H 0.55367 0.83184 0.20538 0.0
H1015 H 0.52031 0.83381 0.2246 0.0
H1016 H 0.55846 0.80607 0.22656 0.0
H1017 H 0.69179 0.05376 0.2166 0.0
H1018 H 0.628 1.03508 0.21971 0.0
H1019 H 0.64698 1.01868 0.1993 0.0
C1020 C 0.57281 0.44302 0.36979 0.0
C1021 C 0.58842 0.45603 0.35197 0.0
C1022 C 0.60023 0.47429 0.38408 0.0
C1023 C 0.64295 0.51979 0.38016 0.0
C1024 C 0.65659 0.53431 0.36205 0.0
C1025 C 0.62959 0.50175 0.34816 0.0
C1026 C 0.58508 0.45758 0.4033 0.0
C1027 C 0.70078 0.58333 0.35735 0.0
C1028 C 0.69902 0.61358 0.41777 0.0
C1029 C 0.73767 0.60636 0.42346 0.0
C1030 C 0.66823 0.58625 0.40343 0.0
C1031 C 0.67589 0.55032 0.39492 0.0
C1032 C 0.71553 0.54364 0.40036 0.0
C1033 C 0.74639 0.57223 0.41449 0.0
C1034 C 0.62704 0.59513 0.39765 0.0
C1035 C 0.72445 0.50526 0.39163 0.0
H1036 H 0.54076 0.40756 0.37256 0.0
H1037 H 0.64101 0.51189 0.33426 0.0
H1038 H 0.61365 0.45196 0.41 0.0
H1039 H 0.58219 0.4862 0.4111 0.0
H1040 H 0.54931 0.42268 0.404 0.0
H1041 H 0.70251 0.59141 0.34266 0.0
H1042 H 0.69997 0.61343 0.36493 0.0
H1043 H 0.73498 0.58339 0.36132 0.0
H1044 H 0.69234 0.64009 0.42473 0.0
H1045 H 0.77591 0.56625 0.41903 0.0
H1046 H 0.59102 0.56224 0.4007 0.0
H1047 H 0.62829 0.60122 0.38283 0.0
H1048 H 0.62884 0.62735 0.40463 0.0
H1049 H 0.69126 0.46838 0.39302 0.0
H1050 H 0.75636 0.50416 0.3977 0.0
H1051 H 0.73126 0.51281 0.37696 0.0
C1052 C 0.22743 0.6523 0.59983 0.0
C1053 C 0.21279 0.68772 0.59837 0.0
C1054 C 0.23581 0.63189 0.58447 0.0
C1055 C 0.23014 0.64792 0.56725 0.0
C1056 C 0.21903 0.68632 0.56565 0.0
C1057 C 0.21009 0.70569 0.58133 0.0
C1058 C 0.24694 0.5905 0.58671 0.0
C1059 C 0.21378 0.70485 0.5474 0.0
C1060 C 0.27128 0.5989 0.52845 0.0
C1061 C 0.2263 0.5588 0.52302 0.0
C1062 C 0.27302 0.63002 0.54237 0.0
C1063 C 0.22893 0.61948 0.55122 0.0
C1064 C 0.18351 0.57876 0.54578 0.0
C1065 C 0.18273 0.54923 0.53155 0.0
C1066 C 0.32175 0.674 0.54759 0.0
C1067 C 0.13585 0.56568 0.55522 0.0
H1068 H 0.23033 0.63876 0.61301 0.0
H1069 H 0.1994 0.73354 0.5802 0.0
H1070 H 0.21509 0.5556 0.58184 0.0
H1071 H 0.27922 0.59738 0.57849 0.0
H1072 H 0.2544 0.58548 0.60103 0.0
H1073 H 0.21358 0.74007 0.5485 0.0
H1074 H 0.24413 0.7102 0.53832 0.0
H1075 H 0.17872 0.67719 0.54097 0.0
H1076 H 0.30476 0.60671 0.52147 0.0
H1077 H 0.14798 0.51822 0.52719 0.0
H1078 H 0.33168 0.66964 0.56161 0.0
H1079 H 0.31889 0.70786 0.54733 0.0
H1080 H 0.35194 0.6791 0.53844 0.0
H1081 H 0.13843 0.55788 0.5697 0.0
H1082 H 0.10372 0.53301 0.54912 0.0
H1083 H 0.12902 0.59709 0.55465 0.0
C1084 C 0.57927 0.2487 0.75463 0.0
C1085 C 0.54475 0.20057 0.75957 0.0
C1086 C 0.61045 0.25738 0.73988 0.0
C1087 C 0.60551 0.2169 0.72975 0.0
C1088 C 0.56916 0.16836 0.73434 0.0
C1089 C 0.5397 0.16078 0.74943 0.0
C1090 C 0.64968 0.30942 0.73557 0.0
C1091 C 0.56183 0.12433 0.7235 0.0
C1092 C 0.64534 0.22471 0.68158 0.0
C1093 C 0.68384 0.21441 0.68343 0.0
C1094 C 0.62161 0.22934 0.69673 0.0
C1095 C 0.63746 0.2244 0.7141 0.0
C1096 C 0.67916 0.21851 0.71612 0.0
C1097 C 0.70174 0.21309 0.70067 0.0
C1098 C 0.57684 0.23495 0.69404 0.0
C1099 C 0.69772 0.21444 0.73455 0.0
H1100 H 0.58347 0.27925 0.76281 0.0
H1101 H 0.51288 0.12363 0.75343 0.0
H1102 H 0.68656 0.31325 0.73746 0.0
H1103 H 0.64688 0.31811 0.72123 0.0
H1104 H 0.64715 0.33686 0.74432 0.0
H1105 H 0.53028 0.08938 0.72843 0.0
H1106 H 0.55531 0.12898 0.70906 0.0
H1107 H 0.5955 0.1212 0.72423 0.0
H1108 H 0.63172 0.22648 0.66826 0.0
H1109 H 0.73205 0.20597 0.70211 0.0
H1110 H 0.578 0.26341 0.70324 0.0
H1111 H 0.54325 0.19967 0.69734 0.0
H1112 H 0.57346 0.24491 0.6799 0.0
H1113 H 0.69875 0.24262 0.74388 0.0
H1114 H 0.73506 0.21874 0.73389 0.0
H1115 H 0.67228 0.17781 0.74039 0.0
C1116 C 0.33517 0.14313 0.10255 0.0
C1117 C 0.36444 0.12268 0.10734 0.0
C1118 C 0.33572 0.15987 0.08486 0.0
C1119 C 0.36727 0.15727 0.07179 0.0
C1120 C 0.39726 0.13703 0.07664 0.0
C1121 C 0.39501 0.11942 0.0943 0.0
C1122 C 0.30237 0.18016 0.08015 0.0
C1123 C 0.43232 0.13473 0.06329 0.0
C1124 C 0.34233 0.16511 0.0217 0.0
C1125 C 0.3731 0.21536 0.01829 0.0
C1126 C 0.33988 0.14561 0.03906 0.0
C1127 C 0.36985 0.17698 0.05319 0.0
C1128 C 0.40194 0.22754 0.04962 0.0
C1129 C 0.40271 0.24619 0.03228 0.0
C1130 C 0.30451 0.09172 0.04237 0.0
C1131 C 0.43546 0.262 0.06412 0.0
H1132 H 0.31121 0.14523 0.1126 0.0
H1133 H 0.41787 0.10387 0.09805 0.0
H1134 H 0.3247 0.21936 0.07621 0.0
H1135 H 0.27883 0.16 0.06838 0.0
H1136 H 0.2783 0.1774 0.0916 0.0
H1137 H 0.4536 0.11853 0.06927 0.0
H1138 H 0.41173 0.11245 0.05135 0.0
H1139 H 0.45855 0.17227 0.05837 0.0
H1140 H 0.31923 0.14134 0.01089 0.0
H1141 H 0.4268 0.285 0.02959 0.0
H1142 H 0.27846 0.08752 0.05326 0.0
H1143 H 0.32489 0.07324 0.04703 0.0
H1144 H 0.28307 0.07253 0.03006 0.0
H1145 H 0.41322 0.26429 0.0753 0.0
H1146 H 0.46003 0.2997 0.05891 0.0
H1147 H 0.45851 0.24764 0.06993 0.0
C1148 C 0.29126 0.37419 0.26145 0.0
C1149 C 0.26219 0.34386 0.27551 0.0
C1150 C 0.27034 0.37422 0.24466 0.0
C1151 C 0.21933 0.34222 0.24176 0.0
C1152 C 0.18971 0.31168 0.25599 0.0
C1153 C 0.2115 0.3133 0.27282 0.0
C1154 C 0.30293 0.40819 0.22998 0.0
C1155 C 0.13539 0.27639 0.2533 0.0
C1156 C 0.1592 0.36939 0.20209 0.0
C1157 C 0.1621 0.33979 0.18854 0.0
C1158 C 0.17724 0.37024 0.21958 0.0
C1159 C 0.19755 0.33987 0.22363 0.0
C1160 C 0.19919 0.30883 0.21008 0.0
C1161 C 0.18196 0.30963 0.19261 0.0
C1162 C 0.17588 0.40462 0.23354 0.0
C1163 C 0.21956 0.27512 0.21398 0.0
H1164 H 0.33043 0.39806 0.26366 0.0
H1165 H 0.18923 0.28971 0.28373 0.0
H1166 H 0.30415 0.38629 0.21843 0.0
H1167 H 0.28762 0.43106 0.22484 0.0
H1168 H 0.34118 0.43292 0.23479 0.0
H1169 H 0.11742 0.25573 0.26582 0.0
H1170 H 0.11654 0.29656 0.24885 0.0
H1171 H 0.12998 0.24965 0.24247 0.0
H1172 H 0.14397 0.39284 0.19885 0.0
H1173 H 0.18366 0.28638 0.18212 0.0
H1174 H 0.21393 0.43159 0.23788 0.0
H1175 H 0.15579 0.38374 0.24572 0.0
H1176 H 0.15793 0.42505 0.22832 0.0
H1177 H 0.25932 0.29722 0.21732 0.0
H1178 H 0.21501 0.25085 0.20232 0.0
H1179 H 0.20088 0.25181 0.2259 0.0
C1180 C 1.01692 0.23386 0.43052 0.0
C1181 C 0.99063 0.24144 0.44425 0.0
C1182 C 0.99379 0.21026 0.41432 0.0
C1183 C 0.94296 0.19308 0.4119 0.0
C1184 C 0.91576 0.19882 0.42595 0.0
C1185 C 0.94 0.22333 0.44189 0.0
C1186 C 1.024 0.20488 0.3996 0.0
C1187 C 0.86135 0.18042 0.42393 0.0
C1188 C 0.89442 0.18336 0.36418 0.0
C1189 C 0.8729 0.13283 0.36065 0.0
C1190 C 0.91767 0.20337 0.38074 0.0
C1191 C 0.91895 0.17202 0.39424 0.0
C1192 C 0.89721 0.12095 0.39084 0.0
C1193 C 0.87446 0.10195 0.37407 0.0
C1194 C 0.9408 0.25811 0.38381 0.0
C1195 C 0.89741 0.08629 0.40497 0.0
H1196 H 1.05581 0.24681 0.43237 0.0
H1197 H 0.91944 0.22954 0.45228 0.0
H1198 H 1.00738 0.16573 0.39554 0.0
H1199 H 1.02411 0.22575 0.38746 0.0
H1200 H 1.06271 0.21852 0.40388 0.0
H1201 H 0.84482 0.18441 0.43662 0.0
H1202 H 0.85522 0.20123 0.41307 0.0
H1203 H 0.84169 0.14109 0.41988 0.0
H1204 H 0.89259 0.20734 0.35403 0.0
H1205 H 0.85834 0.06293 0.3714 0.0
H1206 H 0.98038 0.27411 0.38723 0.0
H1207 H 0.92298 0.26526 0.39543 0.0
H1208 H 0.93753 0.27752 0.37177 0.0
H1209 H 0.93475 0.10085 0.41086 0.0
H1210 H 0.88508 1.04904 0.39937 0.0
H1211 H 0.87241 0.08284 0.41615 0.0
C1212 C 0.83037 0.93093 0.52401 0.0
C1213 C 0.80244 0.87993 0.5214 0.0
C1214 C 0.8309 0.95215 0.5408 0.0
C1215 C 0.80201 0.92165 0.55516 0.0
C1216 C 0.77339 0.87014 0.55251 0.0
C1217 C 0.77431 0.84988 0.53571 0.0
C1218 C 0.86263 1.00711 0.54321 0.0
C1219 C 0.74134 0.83646 0.56735 0.0
C1220 C 0.83099 0.9657 0.60394 0.0
C1221 C 0.79755 0.98221 0.60695 0.0
C1222 C 0.83365 0.94693 0.587 0.0
C1223 C 0.80122 0.94351 0.57294 0.0
C1224 C 0.7672 0.95996 0.57599 0.0
C1225 C 0.76618 0.97964 0.59291 0.0
C1226 C 0.87114 0.93078 0.58415 0.0
C1227 C 0.73126 0.9559 0.5615 0.0
H1228 H 0.85246 0.95412 0.51299 0.0
H1229 H 0.75235 0.81047 0.53364 0.0
H1230 H 0.83936 1.0234 0.54659 0.0
H1231 H 0.88861 1.01527 0.55466 0.0
H1232 H 0.88409 1.02545 0.53088 0.0
H1233 H 0.72068 0.79735 0.56299 0.0
H1234 H 0.76423 0.83945 0.57929 0.0
H1235 H 0.71459 0.84769 0.57176 0.0
H1236 H 0.85544 0.96805 0.6148 0.0
H1237 H 0.74005 0.99208 0.59534 0.0
H1238 H 0.89468 0.95037 0.57239 0.0
H1239 H 0.85223 0.89087 0.58103 0.0
H1240 H 0.8951 0.93789 0.5962 0.0
H1241 H 0.75142 0.97674 0.54932 0.0
H1242 H 0.70695 0.97006 0.56609 0.0
H1243 H 0.70794 0.91687 0.55737 0.0
C1244 C 0.93509 0.79385 0.76626 0.0
C1245 C 0.8851 0.76337 0.77013 0.0
C1246 C 0.95313 0.79564 0.74874 0.0
C1247 C 0.92047 0.76539 0.73494 0.0
C1248 C 0.87023 0.73341 0.739 0.0
C1249 C 0.85307 0.7332 0.7565 0.0
C1250 C 1.0068 0.83076 0.74488 0.0
C1251 C 0.83449 0.69968 0.72483 0.0
C1252 C 0.95195 0.79972 0.68546 0.0
C1253 C 0.97238 0.77059 0.68065 0.0
C1254 C 0.93553 0.79895 0.70318 0.0
C1255 C 0.93862 0.76739 0.71621 0.0
C1256 C 0.95837 0.73718 0.71125 0.0
C1257 C 0.97553 0.73958 0.69358 0.0
C1258 C 0.91546 0.83232 0.70803 0.0
C1259 C 0.96109 0.70209 0.72457 0.0
H1260 H 0.95968 0.81745 0.7768 0.0
H1261 H 0.81443 0.70944 0.75957 0.0
H1262 H 1.02458 0.81034 0.73965 0.0
H1263 H 1.01011 0.85719 0.73424 0.0
H1264 H 1.0273 0.85176 0.75709 0.0
H1265 H 0.79728 0.67514 0.73044 0.0
H1266 H 0.83113 0.72173 0.71377 0.0
H1267 H 0.84837 0.67661 0.71875 0.0
H1268 H 0.94992 0.82395 0.67546 0.0
H1269 H 0.9911 0.71683 0.68978 0.0
H1270 H 0.93679 0.8565 0.7195 0.0
H1271 H 0.87669 0.81012 0.7125 0.0
H1272 H 0.91694 0.85572 0.6965 0.0
H1273 H 0.98456 0.72279 0.73627 0.0
H1274 H 0.97627 0.6802 0.71842 0.0
H1275 H 0.92384 0.67645 0.72988 0.0
C1276 C 0.18483 0.90031 0.93367 0.0
C1277 C 0.16818 0.85012 0.93595 0.0
C1278 C 0.20209 0.92301 0.91684 0.0
C1279 C 0.20365 0.89493 0.90213 0.0
C1280 C 0.18702 0.84422 0.90442 0.0
C1281 C 0.16902 0.82232 0.92128 0.0
C1282 C 0.21869 0.97696 0.9148 0.0
C1283 C 0.18912 0.81333 0.88917 0.0
C1284 C 0.21324 0.94073 0.85392 0.0
C1285 C 0.26395 0.96278 0.85089 0.0
C1286 C 0.19306 0.91912 0.87067 0.0
C1287 C 0.22436 0.91891 0.88451 0.0
C1288 C 0.27556 0.94086 0.88143 0.0
C1289 C 0.29476 0.96282 0.86469 0.0
C1290 C 0.13838 0.8967 0.87358 0.0
C1291 C 0.31001 0.94057 0.89572 0.0
H1292 H 0.1837 0.92161 0.94502 0.0
H1293 H 0.15643 0.78353 0.92313 0.0
H1294 H 0.25837 0.99774 0.91136 0.0
H1295 H 0.19835 0.98227 0.90352 0.0
H1296 H 0.21289 0.99295 0.92731 0.0
H1297 H 0.17465 0.77439 0.89319 0.0
H1298 H 0.16749 0.81424 0.87742 0.0
H1299 H 0.22772 0.82871 0.88462 0.0
H1300 H 0.18951 0.94102 0.84327 0.0
H1301 H 0.33393 0.97935 0.86226 0.0
H1302 H 0.13155 0.91367 0.88557 0.0
H1303 H 0.12162 0.85679 0.87636 0.0
H1304 H 0.11945 0.90155 0.86169 0.0
H1305 H 0.30812 0.95946 0.90811 0.0
H1306 H 0.34884 0.95898 0.8911 0.0
H1307 H 0.29859 0.90212 0.89951 0.0
C1308 C 0.78731 0.50106 -0.02062 0.0
C1309 C 0.82098 0.53924 0.96814 0.0
C1310 C 0.73926 0.49351 -0.01719 0.0
C1311 C 0.72255 0.52331 0.97424 0.0
C1312 C 0.75611 0.561 0.96245 0.0
C1313 C 0.80465 0.56913 0.95992 0.0
C1314 C 0.70669 0.45415 -0.00397 0.0
C1315 C 0.7406 0.59279 0.95228 0.0
C1316 C 0.58104 0.47368 0.97138 0.0
C1317 C 0.57342 0.50259 -0.01586 0.0
C1318 C 0.62874 0.48043 0.96785 0.0
C1319 C 0.67074 0.51571 -0.02224 0.0
C1320 C 0.66292 0.54413 -0.00903 0.0
C1321 C 0.61519 0.53805 -0.00633 0.0
C1322 C 0.63428 0.45032 0.95313 0.0
C1323 C 0.70511 0.58088 0.0025 0.0
H1324 H 0.79916 0.47789 -0.01397 0.0
H1325 H 0.82976 0.59858 0.95112 0.0
H1326 H 0.69502 0.4705 0.00689 0.0
H1327 H 0.67287 0.42596 -0.0109 0.0
H1328 H 0.72544 0.43569 0.00232 0.0
H1329 H 0.76883 0.61737 0.94242 0.0
H1330 H 0.70556 0.56936 0.94492 0.0
H1331 H 0.73388 0.61582 0.96193 0.0
H1332 H 0.54968 0.44645 0.96372 0.0
H1333 H 0.61041 0.5606 0.00365 0.0
H1334 H 0.64819 0.42695 0.95894 0.0
H1335 H 0.66176 0.47505 0.94311 0.0
H1336 H 0.599 0.42624 0.94599 0.0
H1337 H 0.7238 0.56284 0.00913 0.0
H1338 H 0.69286 0.59743 0.0131 0.0
H1339 H 0.73272 0.61084 -0.00609 0.0
C1340 C 0.23983 0.75825 0.14676 0.0
C1341 C 0.28717 0.76542 0.14333 0.0
C1342 C 0.19783 0.71044 0.1483 0.0
C1343 C 0.20251 0.66769 0.14691 0.0
C1344 C 0.25037 0.67478 0.14376 0.0
C1345 C 0.2915 0.72295 0.14178 0.0
C1346 C 0.14805 0.7057 0.15116 0.0
C1347 C 0.25834 0.63125 0.14258 0.0
C1348 C 0.09991 0.54545 0.1675 0.0
C1349 C 1.0735 0.51785 0.15222 0.0
C1350 C 0.14171 0.59335 0.16597 0.0
C1351 C 0.15768 0.61591 0.14874 0.0
C1352 C 0.13065 0.58851 0.13329 0.0
C1353 C 0.08979 0.5401 0.13517 0.0
C1354 C 0.16935 0.61964 0.18289 0.0
C1355 C 0.14467 0.61056 0.11464 0.0
H1356 H 0.23528 0.7902 0.14782 0.0
H1357 H 0.32747 0.72733 0.1392 0.0
H1358 H 0.12251 0.68312 0.14017 0.0
H1359 H 0.13211 0.68645 0.16408 0.0
H1360 H 0.14989 0.74199 0.15146 0.0
H1361 H 0.29775 0.6425 0.14084 0.0
H1362 H 0.24454 0.6087 0.15502 0.0
H1363 H 0.23714 0.60744 0.13103 0.0
H1364 H 0.08847 0.52914 0.18077 0.0
H1365 H 1.07005 0.51984 0.12319 0.0
H1366 H 0.16882 0.65451 0.1845 0.0
H1367 H 0.20847 0.62935 0.18178 0.0
H1368 H 0.15353 0.59703 0.19523 0.0
H1369 H 0.14509 0.64613 0.11422 0.0
H1370 H 0.11897 0.58591 0.10404 0.0
H1371 H 0.18235 0.61831 0.11136 0.0
C1372 C 0.5194 0.22485 0.3015 0.0
C1373 C 0.55957 0.27312 0.30315 0.0
C1374 C 0.52531 0.18274 0.30257 0.0
C1375 C 0.57255 0.18793 0.30564 0.0
C1376 C 0.61321 0.23657 0.30733 0.0
C1377 C 0.60637 0.27805 0.30595 0.0
C1378 C 0.48064 0.13237 0.30036 0.0
C1379 C 0.66426 0.24493 0.31082 0.0
C1380 C 0.58025 0.07808 0.32632 0.0
C1381 C 0.59213 0.05783 0.31145 0.0
C1382 C 0.57421 0.11993 0.32463 0.0
C1383 C 0.57921 0.1428 0.30756 0.0
C1384 C 0.59077 0.12233 0.29243 0.0
C1385 C 0.59743 0.08083 0.29456 0.0
C1386 C 0.56279 0.14 0.34131 0.0
C1387 C 0.59589 0.1442 0.27386 0.0
H1388 H 0.48301 0.2198 0.29921 0.0
H1389 H 0.638 0.31464 0.30728 0.0
H1390 H 0.48667 0.11227 0.28923 0.0
H1391 H 0.47469 0.11069 0.31289 0.0
H1392 H 0.44677 0.13408 0.29737 0.0
H1393 H 0.6922 0.28461 0.31182 0.0
H1394 H 0.66471 0.22659 0.3236 0.0
H1395 H 0.67502 0.22825 0.29981 0.0
H1396 H 0.57617 0.06147 0.33952 0.0
H1397 H 0.60642 0.06609 0.28287 0.0
H1398 H 0.52716 0.13901 0.33954 0.0
H1399 H 0.59149 0.17903 0.34337 0.0
H1400 H 0.56079 0.11895 0.35367 0.0
H1401 H 0.56162 0.14431 0.27013 0.0
H1402 H 0.60358 0.12368 0.26335 0.0
H1403 H 0.62618 0.18301 0.27388 0.0
C1404 C 0.39427 0.60565 0.46419 0.0
C1405 C 0.35318 0.56076 0.4694 0.0
C1406 C 0.44309 0.6137 0.46525 0.0
C1407 C 0.45228 0.57684 0.47237 0.0
C1408 C 0.41088 0.53178 0.47796 0.0
C1409 C 0.36232 0.52403 0.47611 0.0
C1410 C 0.48495 0.66161 0.45839 0.0
C1411 C 0.41788 0.49164 0.48616 0.0
C1412 C 0.57209 0.57411 0.46185 0.0
C1413 C 0.60242 0.59767 0.47694 0.0
C1414 C 0.52442 0.56852 0.45996 0.0
C1415 C 0.50471 0.58505 0.4738 0.0
C1416 C 0.53519 0.60875 0.48912 0.0
C1417 C 0.58355 0.61551 0.49034 0.0
C1418 C 0.4951 0.54479 0.44301 0.0
C1419 C 0.51618 0.62588 0.50456 0.0
H1420 H 0.38816 0.63434 0.45883 0.0
H1421 H 0.33134 0.48929 0.48033 0.0
H1422 H 0.51103 0.68168 0.46957 0.0
H1423 H 0.50569 0.65423 0.44791 0.0
H1424 H 0.47198 0.68576 0.4525 0.0
H1425 H 0.38269 0.46002 0.49087 0.0
H1426 H 0.43443 0.4781 0.47608 0.0
H1427 H 0.44376 0.50644 0.4978 0.0
H1428 H 0.58594 0.56033 0.45129 0.0
H1429 H 0.60603 0.63334 0.50215 0.0
H1430 H 0.48206 0.56856 0.43687 0.0
H1431 H 0.46207 0.50923 0.44641 0.0
H1432 H 0.51687 0.5379 0.43281 0.0
H1433 H 0.50633 0.65329 0.49968 0.0
H1434 H 0.54354 0.64265 0.51569 0.0
H1435 H 0.48216 0.59431 0.51004 0.0
C1436 C 0.88739 0.34454 0.62964 0.0
C1437 C 0.84094 0.331 0.63696 0.0
C1438 C 0.92809 0.3931 0.63132 0.0
C1439 C 0.92373 0.4296 0.64125 0.0
C1440 C 0.87696 0.41584 0.64888 0.0
C1441 C 0.83627 0.3675 0.64634 0.0
C1442 C 0.97588 0.40543 0.62225 0.0
C1443 C 0.87005 0.45201 0.66012 0.0
C1444 C 1.04476 0.53947 0.65999 0.0
C1445 C 1.05299 0.57875 0.64854 0.0
C1446 C 1.00278 0.49178 0.65807 0.0
C1447 C 0.96807 0.48148 0.64389 0.0
C1448 C 0.9765 0.52092 0.63215 0.0
C1449 C 1.01793 0.56875 0.63478 0.0
C1450 C 0.99544 0.45229 0.6714 0.0
C1451 C 0.94224 0.51234 0.61645 0.0
H1452 H 0.89173 0.31719 0.6222 0.0
H1453 H 0.80095 0.35781 0.65219 0.0
H1454 H 0.98829 0.43831 0.61354 0.0
H1455 H 1.0049 0.41456 0.63261 0.0
H1456 H 0.97256 0.37457 0.61384 0.0
H1457 H 0.83226 0.43561 0.66569 0.0
H1458 H 0.8968 0.46543 0.67152 0.0
H1459 H 0.87748 0.48446 0.65185 0.0
H1460 H 1.07101 0.54618 0.67074 0.0
H1461 H 1.02362 0.59817 0.62566 0.0
H1462 H 0.99744 0.42219 0.66433 0.0
H1463 H 0.95833 0.4361 0.67753 0.0
H1464 H 1.02346 0.46656 0.68239 0.0
H1465 H 0.95416 0.54602 0.60821 0.0
H1466 H 0.90449 0.49965 0.62143 0.0
H1467 H 0.94034 0.48286 0.6076 0.0
C1468 C 0.60985 0.86825 0.7936 0.0
C1469 C 0.58859 0.82863 0.80579 0.0
C1470 C 0.6005 0.90813 0.7946 0.0
C1471 C 0.57102 0.9105 0.80872 0.0
C1472 C 0.55025 0.87086 0.82128 0.0
C1473 C 0.55819 0.8302 0.8194 0.0
C1474 C 0.62196 0.9476 0.78032 0.0
C1475 C 0.52045 0.87187 0.83706 0.0
C1476 C 0.59276 1.04019 0.82075 0.0
C1477 C 0.5506 1.03979 0.81388 0.0
C1478 C 0.59896 0.99841 0.81966 0.0
C1479 C 0.56335 0.95491 0.81068 0.0
C1480 C 0.52088 0.95455 0.80348 0.0
C1481 C 0.51456 0.99626 0.8055 0.0
C1482 C 0.64386 1.00089 0.82829 0.0
C1483 C 0.48266 0.91051 0.7931 0.0
H1484 H 0.63299 0.86748 0.78292 0.0
H1485 H 0.54162 0.80007 0.82895 0.0
H1486 H 0.5929 0.9541 0.7746 0.0
H1487 H 0.65044 0.98267 0.78644 0.0
H1488 H 0.63902 0.93783 0.76911 0.0
H1489 H 0.50859 0.83966 0.84611 0.0
H1490 H 0.5425 0.90598 0.84507 0.0
H1491 H 0.48728 0.87237 0.83211 0.0
H1492 H 0.62094 0.07335 0.82728 0.0
H1493 H 0.48214 0.99542 0.79989 0.0
H1494 H 0.66772 0.99882 0.81771 0.0
H1495 H 0.63273 0.96902 0.83744 0.0
H1496 H 0.66586 1.03531 0.83616 0.0
H1497 H 0.45286 0.91633 0.78767 0.0
H1498 H 0.46598 0.87766 0.80195 0.0
H1499 H 0.50032 0.90235 0.78167 0.0
C1500 C 0.6386 0.55926 0.81248 0.0
C1501 C 0.60433 0.56685 0.80267 0.0
C1502 C 0.63252 0.51143 0.81483 0.0
C1503 C 0.59197 0.46946 0.80672 0.0
C1504 C 0.55798 0.47725 0.79647 0.0
C1505 C 0.56405 0.5251 0.79485 0.0
C1506 C 0.66916 0.50571 0.82635 0.0
C1507 C 0.51502 0.43485 0.78701 0.0
C1508 C 0.60013 0.35111 0.7992 0.0
C1509 C 0.56856 0.31872 0.8125 0.0
C1510 C 0.60766 0.39947 0.79708 0.0
C1511 C 0.58475 0.41762 0.80897 0.0
C1512 C 0.55377 0.38536 0.82272 0.0
C1513 C 0.54544 0.33654 0.82409 0.0
C1514 C 0.63966 0.43094 0.78183 0.0
C1515 C 0.52953 0.40257 0.83617 0.0
H1516 H 0.66966 0.59067 0.81878 0.0
H1517 H 0.53727 0.52991 0.78714 0.0
H1518 H 0.64978 0.47958 0.83753 0.0
H1519 H 0.68759 0.49002 0.81817 0.0
H1520 H 0.69775 0.54124 0.83222 0.0
H1521 H 0.49336 0.44695 0.77872 0.0
H1522 H 0.52838 0.41556 0.7781 0.0
H1523 H 0.49022 0.40779 0.79712 0.0
H1524 H 0.61827 0.33822 0.79009 0.0
H1525 H 0.52143 0.31249 0.83458 0.0
H1526 H 0.67177 0.46456 0.78734 0.0
H1527 H 0.61863 0.44297 0.77317 0.0
H1528 H 0.65329 0.41118 0.77327 0.0
H1529 H 0.55761 0.43722 0.84271 0.0
H1530 H 0.50955 0.37479 0.84684 0.0
H1531 H 0.50307 0.4106 0.8291 0.0
C1532 C 0.13134 0.57599 -0.01502 0.0
C1533 C 0.09941 0.55562 0.97002 0.0
C1534 C 0.17155 0.56754 -0.01195 0.0
C1535 C 0.18234 0.53971 0.9755 0.0
C1536 C 0.15093 0.52036 0.9601 0.0
C1537 C 0.10979 0.5275 0.95782 0.0
C1538 C 0.20187 0.58753 0.00506 0.0
C1539 C 0.16106 0.49233 0.9458 0.0
C1540 C 0.3143 0.55639 0.97563 0.0
C1541 C 0.30736 0.51211 -0.01683 0.0
C1542 C 0.27444 0.56539 0.9728 0.0
C1543 C 0.22585 0.53052 -0.02159 0.0
C1544 C 0.219 0.48626 -0.01351 0.0
C1545 C 0.25912 0.47722 -0.01164 0.0
C1546 C 0.28436 0.61215 0.96344 0.0
C1547 C 0.16916 0.44847 -0.0065 0.0
H1548 H 0.12393 0.59733 -0.00531 0.0
H1549 H 0.08599 0.5116 0.94613 0.0
H1550 H 0.20252 0.55728 0.01262 0.0
H1551 H 0.24045 0.61462 0.00157 0.0
H1552 H 0.1874 0.60567 0.01405 0.0
H1553 H 0.13609 0.48309 0.93394 0.0
H1554 H 0.19968 0.51433 0.94112 0.0
H1555 H 0.15652 0.45768 0.95155 0.0
H1556 H 0.35105 0.58377 0.97148 0.0
H1557 H 0.2529 0.44314 -0.00558 0.0
H1558 H 0.27673 0.63519 0.97275 0.0
H1559 H 0.2594 0.60332 0.9516 0.0
H1560 H 0.32302 0.63405 0.95875 0.0
H1561 H 0.15485 0.46618 0.00277 0.0
H1562 H 0.17034 0.41814 0.00082 0.0
H1563 H 0.14269 0.43246 -0.0179 0.0
C1564 C 0.78684 0.21916 0.13572 0.0
C1565 C 0.80069 0.2505 0.15092 0.0
C1566 C 0.73834 0.17868 0.13348 0.0
C1567 C 0.70195 0.1674 0.14694 0.0
C1568 C 0.7158 0.19876 0.16237 0.0
C1569 C 0.76428 0.23988 0.16404 0.0
C1570 C 0.72603 0.14782 0.11656 0.0
C1571 C 0.67956 0.18826 0.17741 0.0
C1572 C 0.56317 0.08509 0.13487 0.0
C1573 C 0.55279 1.03775 0.14021 0.0
C1574 C 0.61096 0.12704 0.13688 0.0
C1575 C 0.65001 0.12271 0.14492 0.0
C1576 C 0.63933 0.07511 0.15069 0.0
C1577 C 0.59162 1.03363 0.14809 0.0
C1578 C 0.61984 0.17614 0.1301 0.0
C1579 C 0.6784 0.06786 0.15981 0.0
H1580 H 0.81402 0.22657 0.12538 0.0
H1581 H 0.77405 0.26306 0.17595 0.0
H1582 H 0.71583 0.10956 0.12013 0.0
H1583 H 0.69376 0.14627 0.10966 0.0
H1584 H 0.75724 0.1624 0.10692 0.0
H1585 H 0.69557 0.21552 0.18858 0.0
H1586 H 0.64654 0.18847 0.17208 0.0
H1587 H 0.66704 0.15103 0.18298 0.0
H1588 H 0.53403 0.08929 0.12874 0.0
H1589 H 0.5846 0.99775 0.15246 0.0
H1590 H 0.64949 0.19064 0.11983 0.0
H1591 H 0.63247 0.20308 0.14137 0.0
H1592 H 0.5863 0.17377 0.12397 0.0
H1593 H 0.7103 0.07968 0.15068 0.0
H1594 H 0.66457 1.02895 0.16371 0.0
H1595 H 0.69196 0.09112 0.17214 0.0
C1596 C 0.59366 0.76904 0.29559 0.0
C1597 C 0.57073 0.78192 0.30918 0.0
C1598 C 0.58632 0.72066 0.29395 0.0
C1599 C 0.55628 0.68336 0.3065 0.0
C1600 C 0.5328 0.69606 0.32022 0.0
C1601 C 0.53971 0.74447 0.32124 0.0
C1602 C 0.6114 0.70964 0.27879 0.0
C1603 C 0.50147 0.65879 0.33427 0.0
C1604 C 0.50782 0.54561 0.29482 0.0
C1605 C 0.54307 0.53615 0.30289 0.0
C1606 C 0.51159 0.59274 0.29584 0.0
C1607 C 0.55088 0.63198 0.30558 0.0
C1608 C 0.58579 0.62211 0.31414 0.0
C1609 C 0.58187 0.57513 0.3125 0.0
C1610 C 0.47381 0.60081 0.28612 0.0
C1611 C 0.62767 0.66138 0.32511 0.0
H1612 H 0.61771 0.79707 0.28612 0.0
H1613 H 0.52215 0.75348 0.33198 0.0
H1614 H 0.63885 0.70075 0.28445 0.0
H1615 H 0.58406 0.67697 0.27105 0.0
H1616 H 0.63045 0.74107 0.26933 0.0
H1617 H 0.48497 0.6736 0.34389 0.0
H1618 H 0.47144 0.62556 0.32765 0.0
H1619 H 0.52417 0.64696 0.34202 0.0
H1620 H 0.4777 0.51635 0.2873 0.0
H1621 H 0.60931 0.56881 0.31897 0.0
H1622 H 0.4923 0.63062 0.27601 0.0
H1623 H 0.45508 0.61283 0.29585 0.0
H1624 H 0.44557 0.56711 0.27909 0.0
H1625 H 0.65233 0.69232 0.31619 0.0
H1626 H 0.64977 0.64733 0.33199 0.0
H1627 H 0.61319 0.67636 0.33548 0.0
C1628 C 1.03517 0.51868 0.45719 0.0
C1629 C 1.07215 0.53768 0.47059 0.0
C1630 C 0.99383 0.52597 0.45787 0.0
C1631 C 0.98756 0.55139 0.47267 0.0
C1632 C 1.0241 0.56916 0.48652 0.0
C1633 C 1.06594 0.56305 0.48513 0.0
C1634 C 0.95742 0.50757 0.44241 0.0
C1635 C 1.01905 0.59473 0.50297 0.0
C1636 C 0.90628 0.61261 0.46922 0.0
C1637 C 0.86079 0.57656 0.47627 0.0
C1638 C 0.94686 0.60444 0.4675 0.0
C1639 C 0.94339 0.55977 0.47365 0.0
C1640 C 0.8977 0.52363 0.4811 0.0
C1641 C 0.85713 0.53198 0.48197 0.0
C1642 C 0.99356 0.64372 0.4589 0.0
C1643 C 0.8919 0.47629 0.48859 0.0
H1644 H 1.03945 0.49957 0.44575 0.0
H1645 H 0.09386 0.57789 0.49565 0.0
H1646 H 0.92027 0.48065 0.44741 0.0
H1647 H 0.9549 0.53868 0.4364 0.0
H1648 H 0.96777 0.48978 0.43165 0.0
H1649 H 1.02126 0.62981 0.49893 0.0
H1650 H 0.98252 0.57156 0.50928 0.0
H1651 H 1.04811 0.60285 0.51324 0.0
H1652 H 0.90992 0.64711 0.46467 0.0
H1653 H 0.82265 0.50389 0.48764 0.0
H1654 H 1.0044 0.62771 0.44766 0.0
H1655 H 1.02397 0.65857 0.46896 0.0
H1656 H 0.98958 0.67465 0.45354 0.0
H1657 H 0.89784 0.45541 0.47776 0.0
H1658 H 0.85491 0.45254 0.49451 0.0
H1659 H 0.92016 0.48454 0.49919 0.0
C1660 C 0.36706 0.83635 0.6352 0.0
C1661 C 0.33062 0.84144 0.64441 0.0
C1662 C 0.41573 0.87661 0.63297 0.0
C1663 C 0.4299 0.92342 0.64072 0.0
C1664 C 0.39343 0.92827 0.65044 0.0
C1665 C 0.34457 0.88797 0.65183 0.0
C1666 C 0.45187 0.86918 0.62196 0.0
C1667 C 0.40614 0.97616 0.65959 0.0
C1668 C 0.56941 1.01657 0.64794 0.0
C1669 C 0.5799 1.05166 0.63425 0.0
C1670 C 0.52127 0.97543 0.65032 0.0
C1671 C 0.48211 0.96735 0.63837 0.0
C1672 C 0.49299 1.00206 0.62425 0.0
C1673 C 0.54089 1.04375 0.6226 0.0
C1674 C 0.51206 0.94114 0.66598 0.0
C1675 C 0.45388 0.99509 0.6107 0.0
H1676 H 0.35716 0.80096 0.62931 0.0
H1677 H 0.31735 0.89267 0.65917 0.0
H1678 H 0.46604 0.89605 0.61069 0.0
H1679 H 0.4839 0.87599 0.63046 0.0
H1680 H 0.43515 0.83145 0.61624 0.0
H1681 H 0.37517 0.97328 0.66777 0.0
H1682 H 0.43865 0.98804 0.66855 0.0
H1683 H 0.41608 1.00532 0.64931 0.0
H1684 H 0.59861 1.02205 0.65721 0.0
H1685 H 0.548 0.07005 0.61189 0.0
H1686 H 0.49905 0.90332 0.66094 0.0
H1687 H 0.48257 0.93963 0.67468 0.0
H1688 H 0.54555 0.95274 0.67439 0.0
H1689 H 0.43745 0.95796 0.6045 0.0
H1690 H 0.46861 1.02304 0.59977 0.0
H1691 H 0.42383 0.99749 0.6176 0.0
loop_
_geom_bond_atom_site_label_1
_geom_bond_atom_site_label_2
_geom_bond_distance
_geom_bond_site_symmetry_2
_ccdc_geom_bond_type
O0 Tb1 2.292 . S
O0 C3 1.255 . S
Tb1 O0 2.292 . S
Tb1 O17 2.326 . S
Tb1 O19 2.500 . S
Tb1 O20 2.473 . S
Tb1 O23 2.324 . S
Eu2 O6 2.292 . S
Eu2 C7 2.861 . S
Eu2 O18 2.324 1_556 S
Eu2 O22 2.326 1_556 S
Eu2 O24 2.500 . S
Eu2 O25 2.473 1_556 S
C3 O0 1.255 . S
C3 O4 1.247 . S
O4 C3 1.247 . S
C5 O17 1.242 . S
C5 O18 1.258 . S
O6 Eu2 2.292 . S
O6 C8 1.255 . S
C7 Eu2 2.861 . S
C7 C11 1.491 1_556 S
C7 O24 1.308 . S
C7 O25 1.235 1_556 S
C8 O6 1.255 . S
C8 O9 1.247 . S
O9 C8 1.247 . S
C10 O22 1.242 . S
C10 O23 1.258 . S
C11 C7 1.491 1_554 S
C11 C12 1.379 . S
C11 C16 1.392 1_554 S
C12 C11 1.379 . S
C12 C13 1.404 . S
C12 H26 0.929 . S
C13 C12 1.404 . S
C13 C14 1.389 . S
C14 C13 1.389 . S
C14 C15 1.362 1_554 S
C14 H27 0.931 . S
C15 C14 1.362 1_556 S
C15 C16 1.402 . S
C16 C11 1.392 1_556 S
C16 C15 1.402 . S
C16 H28 0.929 . S
O17 Tb1 2.326 . S
O17 C5 1.242 . S
O18 Eu2 2.324 1_554 S
O18 C5 1.258 . S
O19 Tb1 2.500 . S
O19 C21 1.273 . S
O20 Tb1 2.473 . S
O20 C21 1.257 . S
C21 O19 1.273 . S
C21 O20 1.257 . S
O22 Eu2 2.326 1_554 S
O22 C10 1.242 . S
O23 Tb1 2.324 . S
O23 C10 1.258 . S
O24 Eu2 2.500 . S
O24 C7 1.308 . S
O25 Eu2 2.473 1_554 S
O25 C7 1.235 1_554 S
H26 C12 0.929 . S
H27 C14 0.931 . S
H28 C16 0.929 . S
O29 Tb30 2.292 . S
O29 C32 1.255 . S
Tb30 O29 2.292 . S
Tb30 O46 2.326 . S
Tb30 O48 2.500 . S
Tb30 O49 2.473 . S
Tb30 O52 2.324 . S
Eu31 O35 2.292 . S
Eu31 C36 2.852 . S
Eu31 O47 2.324 . S
Eu31 O51 2.326 . S
Eu31 O53 2.500 . S
Eu31 O54 2.473 . S
C32 O29 1.255 . S
C32 O33 1.247 . S
O33 C32 1.247 . S
C34 O46 1.242 . S
C34 O47 1.258 . S
O35 Eu31 2.292 . S
O35 C37 1.255 . S
C36 Eu31 2.852 . S
C36 C40 1.503 1_655 S
C36 O53 1.273 . S
C36 O54 1.257 . S
C37 O35 1.255 . S
C37 O38 1.247 . S
O38 C37 1.247 . S
C39 O51 1.242 . S
C39 O52 1.258 . S
C40 C36 1.503 1_455 S
C40 C41 1.379 . S
C40 C45 1.392 . S
C41 C40 1.379 . S
C41 C42 1.404 . S
C41 H55 0.929 1_455 S
C42 C41 1.404 . S
C42 C43 1.389 . S
C43 C42 1.389 . S
C43 C44 1.399 . S
C43 H56 0.931 . S
C44 C43 1.399 . S
C44 C45 1.390 . S
C45 C40 1.392 . S
C45 C44 1.390 . S
C45 H57 0.929 . S
O46 Tb30 2.326 . S
O46 C34 1.242 . S
O47 Eu31 2.324 . S
O47 C34 1.258 . S
O48 Tb30 2.500 . S
O48 C50 1.273 . S
O49 Tb30 2.473 . S
O49 C50 1.257 . S
C50 O48 1.273 . S
C50 O49 1.257 . S
O51 Eu31 2.326 . S
O51 C39 1.242 . S
O52 Tb30 2.324 . S
O52 C39 1.258 . S
O53 Eu31 2.500 . S
O53 C36 1.273 . S
O54 Eu31 2.473 . S
O54 C36 1.257 . S
H55 C41 0.929 1_655 S
H56 C43 0.931 . S
H57 C45 0.929 . S
O58 Tb59 2.292 . S
O58 C61 1.255 . S
Tb59 O58 2.292 . S
Tb59 O75 2.326 . S
Tb59 O77 2.500 . S
Tb59 O78 2.473 . S
Tb59 O81 2.324 . S
Eu60 O64 2.292 . S
Eu60 C65 2.852 . S
Eu60 O76 2.324 . S
Eu60 O80 2.326 . S
Eu60 O82 2.500 . S
Eu60 O83 2.473 . S
C61 O58 1.255 . S
C61 O62 1.247 . S
O62 C61 1.247 . S
C63 O75 1.242 . S
C63 O76 1.258 . S
O64 Eu60 2.292 . S
O64 C66 1.255 . S
C65 Eu60 2.852 . S
C65 C69 1.503 1_565 S
C65 O82 1.273 . S
C65 O83 1.257 . S
C66 O64 1.255 . S
C66 O67 1.247 . S
O67 C66 1.247 . S
C68 O80 1.242 . S
C68 O81 1.258 . S
C69 C65 1.503 1_545 S
C69 C70 1.379 . S
C69 C74 1.392 . S
C70 C69 1.379 . S
C70 C71 1.404 . S
C70 H84 0.929 1_545 S
C71 C70 1.404 . S
C71 C72 1.389 . S
C72 C71 1.389 . S
C72 C73 1.399 . S
C72 H85 0.931 . S
C73 C72 1.399 . S
C73 C74 1.390 . S
C74 C69 1.392 . S
C74 C73 1.390 . S
C74 H86 0.929 . S
O75 Tb59 2.326 . S
O75 C63 1.242 . S
O76 Eu60 2.324 . S
O76 C63 1.258 . S
O77 Tb59 2.500 . S
O77 C79 1.273 . S
O78 Tb59 2.473 . S
O78 C79 1.257 . S
C79 O77 1.273 . S
C79 O78 1.257 . S
O80 Eu60 2.326 . S
O80 C68 1.242 . S
O81 Tb59 2.324 . S
O81 C68 1.258 . S
O82 Eu60 2.500 . S
O82 C65 1.273 . S
O83 Eu60 2.473 . S
O83 C65 1.257 . S
H84 C70 0.929 1_565 S
H85 C72 0.931 . S
H86 C74 0.929 . S
O87 Tb88 2.292 . S
O87 C90 1.255 . S
Tb88 O87 2.292 . S
Tb88 O104 2.326 . S
Tb88 O106 2.500 . S
Tb88 O107 2.473 . S
Tb88 O110 2.324 . S
Eu89 O93 2.292 . S
Eu89 C94 2.852 . S
Eu89 O105 2.324 . S
Eu89 O109 2.326 . S
Eu89 O111 2.500 . S
Eu89 O112 2.473 . S
C90 O87 1.255 . S
C90 O91 1.247 . S
O91 C90 1.247 . S
C92 O104 1.242 . S
C92 O105 1.258 . S
O93 Eu89 2.292 . S
O93 C95 1.255 . S
C94 Eu89 2.852 . S
C94 C98 1.503 . S
C94 O111 1.273 . S
C94 O112 1.257 . S
C95 O93 1.255 . S
C95 O96 1.247 . S
O96 C95 1.247 . S
C97 O109 1.242 . S
C97 O110 1.258 . S
C98 C94 1.503 . S
C98 C99 1.379 . S
C98 C103 1.392 . S
C99 C98 1.379 . S
C99 C100 1.404 . S
C99 H113 0.929 . S
C100 C99 1.404 . S
C100 C101 1.389 . S
C101 C100 1.389 . S
C101 C102 1.399 . S
C101 H114 0.931 . S
C102 C101 1.399 . S
C102 C103 1.390 . S
C103 C98 1.392 . S
C103 C102 1.390 . S
C103 H115 0.929 . S
O104 Tb88 2.326 . S
O104 C92 1.242 . S
O105 Eu89 2.324 . S
O105 C92 1.258 . S
O106 Tb88 2.500 . S
O106 C108 1.273 . S
O107 Tb88 2.473 . S
O107 C108 1.257 . S
C108 O106 1.273 . S
C108 O107 1.257 . S
O109 Eu89 2.326 . S
O109 C97 1.242 . S
O110 Tb88 2.324 . S
O110 C97 1.258 . S
O111 Eu89 2.500 . S
O111 C94 1.273 . S
O112 Eu89 2.473 . S
O112 C94 1.257 . S
H113 C99 0.929 . S
H114 C101 0.931 . S
H115 C103 0.929 . S
O116 Tb117 2.292 . S
O116 C119 1.255 . S
Tb117 O116 2.292 . S
Tb117 O133 2.326 . S
Tb117 O135 2.500 . S
Tb117 O136 2.473 . S
Tb117 O139 2.324 . S
Eu118 O122 2.292 . S
Eu118 C123 2.852 . S
Eu118 O134 2.324 . S
Eu118 O138 2.326 . S
Eu118 O140 2.500 . S
Eu118 O141 2.473 . S
C119 O116 1.255 . S
C119 O120 1.247 . S
O120 C119 1.247 . S
C121 O133 1.242 . S
C121 O134 1.258 . S
O122 Eu118 2.292 . S
O122 C124 1.255 . S
C123 Eu118 2.852 . S
C123 C127 1.503 1_455 S
C123 O140 1.273 . S
C123 O141 1.257 . S
C124 O122 1.255 . S
C124 O125 1.247 . S
O125 C124 1.247 . S
C126 O138 1.242 . S
C126 O139 1.258 . S
C127 C123 1.503 1_655 S
C127 C128 1.379 . S
C127 C132 1.392 . S
C128 C127 1.379 . S
C128 C129 1.404 . S
C128 H142 0.929 1_655 S
C129 C128 1.404 . S
C129 C130 1.389 . S
C130 C129 1.389 . S
C130 C131 1.399 . S
C130 H143 0.931 . S
C131 C130 1.399 . S
C131 C132 1.390 . S
C132 C127 1.392 . S
C132 C131 1.390 . S
C132 H144 0.929 . S
O133 Tb117 2.326 . S
O133 C121 1.242 . S
O134 Eu118 2.324 . S
O134 C121 1.258 . S
O135 Tb117 2.500 . S
O135 C137 1.273 . S
O136 Tb117 2.473 . S
O136 C137 1.257 . S
C137 O135 1.273 . S
C137 O136 1.257 . S
O138 Eu118 2.326 . S
O138 C126 1.242 . S
O139 Tb117 2.324 . S
O139 C126 1.258 . S
O140 Eu118 2.500 . S
O140 C123 1.273 . S
O141 Eu118 2.473 . S
O141 C123 1.257 . S
H142 C128 0.929 1_455 S
H143 C130 0.931 . S
H144 C132 0.929 . S
O145 Tb146 2.292 . S
O145 C148 1.255 . S
Tb146 O145 2.292 . S
Tb146 O162 2.326 . S
Tb146 O164 2.500 . S
Tb146 O165 2.473 . S
Tb146 O168 2.324 . S
Eu147 O151 2.292 . S
Eu147 C152 2.852 . S
Eu147 O163 2.324 . S
Eu147 O167 2.326 . S
Eu147 O169 2.500 . S
Eu147 O170 2.473 . S
C148 O145 1.255 . S
C148 O149 1.247 . S
O149 C148 1.247 . S
C150 O162 1.242 . S
C150 O163 1.258 . S
O151 Eu147 2.292 . S
O151 C153 1.255 . S
C152 Eu147 2.852 . S
C152 C156 1.503 1_545 S
C152 O169 1.273 . S
C152 O170 1.257 . S
C153 O151 1.255 . S
C153 O154 1.247 . S
O154 C153 1.247 . S
C155 O167 1.242 . S
C155 O168 1.258 . S
C156 C152 1.503 1_565 S
C156 C157 1.379 . S
C156 C161 1.392 . S
C157 C156 1.379 . S
C157 C158 1.404 . S
C157 H171 0.929 1_565 S
C158 C157 1.404 . S
C158 C159 1.389 . S
C159 C158 1.389 . S
C159 C160 1.399 . S
C159 H172 0.931 . S
C160 C159 1.399 . S
C160 C161 1.390 . S
C161 C156 1.392 . S
C161 C160 1.390 . S
C161 H173 0.929 . S
O162 Tb146 2.326 . S
O162 C150 1.242 . S
O163 Eu147 2.324 . S
O163 C150 1.258 . S
O164 Tb146 2.500 . S
O164 C166 1.273 . S
O165 Tb146 2.473 . S
O165 C166 1.257 . S
C166 O164 1.273 . S
C166 O165 1.257 . S
O167 Eu147 2.326 . S
O167 C155 1.242 . S
O168 Tb146 2.324 . S
O168 C155 1.258 . S
O169 Eu147 2.500 . S
O169 C152 1.273 . S
O170 Eu147 2.473 . S
O170 C152 1.257 . S
H171 C157 0.929 1_545 S
H172 C159 0.931 . S
H173 C161 0.929 . S
O174 Tb175 2.292 . S
O174 C177 1.255 . S
Tb175 O174 2.292 . S
Tb175 O191 2.326 . S
Tb175 O193 2.500 . S
Tb175 O194 2.473 . S
Tb175 O197 2.324 . S
Eu176 O180 2.292 . S
Eu176 C181 2.852 . S
Eu176 O192 2.324 . S
Eu176 O196 2.326 . S
Eu176 O198 2.500 . S
Eu176 O199 2.473 . S
C177 O174 1.255 . S
C177 O178 1.247 . S
O178 C177 1.247 . S
C179 O191 1.242 . S
C179 O192 1.258 . S
O180 Eu176 2.292 . S
O180 C182 1.255 . S
C181 Eu176 2.852 . S
C181 C185 1.503 . S
C181 O198 1.273 . S
C181 O199 1.257 . S
C182 O180 1.255 . S
C182 O183 1.247 . S
O183 C182 1.247 . S
C184 O196 1.242 . S
C184 O197 1.258 . S
C185 C181 1.503 . S
C185 C186 1.379 . S
C185 C190 1.392 . S
C186 C185 1.379 . S
C186 C187 1.404 . S
C186 H200 0.929 . S
C187 C186 1.404 . S
C187 C188 1.389 . S
C188 C187 1.389 . S
C188 C189 1.399 . S
C188 H201 0.931 . S
C189 C188 1.399 . S
C189 C190 1.390 . S
C190 C185 1.392 . S
C190 C189 1.390 . S
C190 H202 0.929 . S
O191 Tb175 2.326 . S
O191 C179 1.242 . S
O192 Eu176 2.324 . S
O192 C179 1.258 . S
O193 Tb175 2.500 . S
O193 C195 1.273 . S
O194 Tb175 2.473 . S
O194 C195 1.257 . S
C195 O193 1.273 . S
C195 O194 1.257 . S
O196 Eu176 2.326 . S
O196 C184 1.242 . S
O197 Tb175 2.324 . S
O197 C184 1.258 . S
O198 Eu176 2.500 . S
O198 C181 1.273 . S
O199 Eu176 2.473 . S
O199 C181 1.257 . S
H200 C186 0.929 . S
H201 C188 0.931 . S
H202 C190 0.929 . S
O203 Tb204 2.292 . S
O203 C206 1.255 . S
Tb204 O203 2.292 . S
Tb204 O220 2.326 . S
Tb204 O222 2.500 . S
Tb204 O223 2.473 . S
Tb204 O226 2.324 . S
Eu205 O209 2.292 . S
Eu205 C210 2.852 1_554 S
Eu205 O221 2.324 1_554 S
Eu205 O225 2.326 1_554 S
Eu205 O227 2.500 . S
Eu205 O228 2.473 1_554 S
C206 O203 1.255 . S
C206 O207 1.247 . S
O207 C206 1.247 . S
C208 O220 1.242 . S
C208 O221 1.258 . S
O209 Eu205 2.292 . S
O209 C211 1.255 . S
C210 Eu205 2.852 1_556 S
C210 C214 1.503 1_655 S
C210 O227 1.273 1_556 S
C210 O228 1.257 . S
C211 O209 1.255 . S
C211 O212 1.247 . S
O212 C211 1.247 . S
C213 O225 1.242 . S
C213 O226 1.258 . S
C214 C210 1.503 1_455 S
C214 C215 1.379 . S
C214 C219 1.392 1_556 S
C215 C214 1.379 . S
C215 C216 1.404 . S
C215 H229 0.929 1_455 S
C216 C215 1.404 . S
C216 C217 1.389 . S
C217 C216 1.389 . S
C217 C218 1.399 . S
C217 H230 0.931 . S
C218 C217 1.399 . S
C218 C219 1.390 1_556 S
C219 C214 1.392 1_554 S
C219 C218 1.390 1_554 S
C219 H231 0.929 . S
O220 Tb204 2.326 . S
O220 C208 1.242 . S
O221 Eu205 2.324 1_556 S
O221 C208 1.258 . S
O222 Tb204 2.500 . S
O222 C224 1.273 . S
O223 Tb204 2.473 . S
O223 C224 1.257 . S
C224 O222 1.273 . S
C224 O223 1.257 . S
O225 Eu205 2.326 1_556 S
O225 C213 1.242 . S
O226 Tb204 2.324 . S
O226 C213 1.258 . S
O227 Eu205 2.500 . S
O227 C210 1.273 1_554 S
O228 Eu205 2.473 1_556 S
O228 C210 1.257 . S
H229 C215 0.929 1_655 S
H230 C217 0.931 . S
H231 C219 0.929 . S
O232 Tb233 2.292 . S
O232 C235 1.255 . S
Tb233 O232 2.292 . S
Tb233 O249 2.326 . S
Tb233 O251 2.500 . S
Tb233 O252 2.473 . S
Tb233 O255 2.324 . S
Eu234 O238 2.292 . S
Eu234 C239 2.852 . S
Eu234 O250 2.324 . S
Eu234 O254 2.326 . S
Eu234 O256 2.500 . S
Eu234 O257 2.473 . S
C235 O232 1.255 . S
C235 O236 1.247 . S
O236 C235 1.247 . S
C237 O249 1.242 . S
C237 O250 1.258 . S
O238 Eu234 2.292 . S
O238 C240 1.255 . S
C239 Eu234 2.852 . S
C239 C243 1.503 1_565 S
C239 O256 1.273 . S
C239 O257 1.257 . S
C240 O238 1.255 . S
C240 O241 1.247 . S
O241 C240 1.247 . S
C242 O254 1.242 . S
C242 O255 1.258 . S
C243 C239 1.503 1_545 S
C243 C244 1.379 . S
C243 C248 1.392 . S
C244 C243 1.379 . S
C244 C245 1.404 . S
C244 H258 0.929 1_545 S
C245 C244 1.404 . S
C245 C246 1.389 . S
C246 C245 1.389 . S
C246 C247 1.399 . S
C246 H259 0.931 . S
C247 C246 1.399 . S
C247 C248 1.390 . S
C248 C243 1.392 . S
C248 C247 1.390 . S
C248 H260 0.929 . S
O249 Tb233 2.326 . S
O249 C237 1.242 . S
O250 Eu234 2.324 . S
O250 C237 1.258 . S
O251 Tb233 2.500 . S
O251 C253 1.273 . S
O252 Tb233 2.473 . S
O252 C253 1.257 . S
C253 O251 1.273 . S
C253 O252 1.257 . S
O254 Eu234 2.326 . S
O254 C242 1.242 . S
O255 Tb233 2.324 . S
O255 C242 1.258 . S
O256 Eu234 2.500 . S
O256 C239 1.273 . S
O257 Eu234 2.473 . S
O257 C239 1.257 . S
H258 C244 0.929 1_565 S
H259 C246 0.931 . S
H260 C248 0.929 . S
O261 Tb262 2.292 . S
O261 C264 1.255 . S
Tb262 O261 2.292 . S
Tb262 O278 2.326 . S
Tb262 O280 2.500 . S
Tb262 O281 2.473 . S
Tb262 O284 2.324 . S
Eu263 O267 2.292 . S
Eu263 C268 2.852 . S
Eu263 O279 2.324 . S
Eu263 O283 2.326 . S
Eu263 O285 2.500 . S
Eu263 O286 2.473 . S
C264 O261 1.255 . S
C264 O265 1.247 . S
O265 C264 1.247 . S
C266 O278 1.242 . S
C266 O279 1.258 . S
O267 Eu263 2.292 . S
O267 C269 1.255 . S
C268 Eu263 2.852 . S
C268 C272 1.503 . S
C268 O285 1.273 . S
C268 O286 1.257 . S
C269 O267 1.255 . S
C269 O270 1.247 . S
O270 C269 1.247 . S
C271 O283 1.242 . S
C271 O284 1.258 . S
C272 C268 1.503 . S
C272 C273 1.379 . S
C272 C277 1.392 . S
C273 C272 1.379 . S
C273 C274 1.404 . S
C273 H287 0.929 . S
C274 C273 1.404 . S
C274 C275 1.389 . S
C275 C274 1.389 . S
C275 C276 1.399 . S
C275 H288 0.931 . S
C276 C275 1.399 . S
C276 C277 1.390 . S
C277 C272 1.392 . S
C277 C276 1.390 . S
C277 H289 0.929 . S
O278 Tb262 2.326 . S
O278 C266 1.242 . S
O279 Eu263 2.324 . S
O279 C266 1.258 . S
O280 Tb262 2.500 . S
O280 C282 1.273 . S
O281 Tb262 2.473 . S
O281 C282 1.257 . S
C282 O280 1.273 . S
C282 O281 1.257 . S
O283 Eu263 2.326 . S
O283 C271 1.242 . S
O284 Tb262 2.324 . S
O284 C271 1.258 . S
O285 Eu263 2.500 . S
O285 C268 1.273 . S
O286 Eu263 2.473 . S
O286 C268 1.257 . S
H287 C273 0.929 . S
H288 C275 0.931 . S
H289 C277 0.929 . S
O290 Tb291 2.292 . S
O290 C293 1.255 . S
Tb291 O290 2.292 . S
Tb291 O307 2.326 . S
Tb291 O309 2.500 . S
Tb291 O310 2.473 . S
Tb291 O313 2.324 . S
Eu292 O296 2.292 . S
Eu292 C297 2.852 . S
Eu292 O308 2.324 . S
Eu292 O312 2.326 . S
Eu292 O314 2.500 . S
Eu292 O315 2.473 . S
C293 O290 1.255 . S
C293 O294 1.247 . S
O294 C293 1.247 . S
C295 O307 1.242 . S
C295 O308 1.258 . S
O296 Eu292 2.292 . S
O296 C298 1.255 . S
C297 Eu292 2.852 . S
C297 C301 1.503 1_455 S
C297 O314 1.273 . S
C297 O315 1.257 . S
C298 O296 1.255 . S
C298 O299 1.247 . S
O299 C298 1.247 . S
C300 O312 1.242 . S
C300 O313 1.258 . S
C301 C297 1.503 1_655 S
C301 C302 1.379 . S
C301 C306 1.392 . S
C302 C301 1.379 . S
C302 C303 1.404 . S
C302 H316 0.929 1_655 S
C303 C302 1.404 . S
C303 C304 1.389 . S
C304 C303 1.389 . S
C304 C305 1.399 . S
C304 H317 0.931 . S
C305 C304 1.399 . S
C305 C306 1.390 . S
C306 C301 1.392 . S
C306 C305 1.390 . S
C306 H318 0.929 . S
O307 Tb291 2.326 . S
O307 C295 1.242 . S
O308 Eu292 2.324 . S
O308 C295 1.258 . S
O309 Tb291 2.500 . S
O309 C311 1.273 . S
O310 Tb291 2.473 . S
O310 C311 1.257 . S
C311 O309 1.273 . S
C311 O310 1.257 . S
O312 Eu292 2.326 . S
O312 C300 1.242 . S
O313 Tb291 2.324 . S
O313 C300 1.258 . S
O314 Eu292 2.500 . S
O314 C297 1.273 . S
O315 Eu292 2.473 . S
O315 C297 1.257 . S
H316 C302 0.929 1_455 S
H317 C304 0.931 . S
H318 C306 0.929 . S
O319 Tb320 2.292 . S
O319 C322 1.255 . S
Tb320 O319 2.292 . S
Tb320 O336 2.326 . S
Tb320 O338 2.500 . S
Tb320 O339 2.473 . S
Tb320 O342 2.324 . S
Eu321 O325 2.292 . S
Eu321 C326 2.852 . S
Eu321 O337 2.324 . S
Eu321 O341 2.326 . S
Eu321 O343 2.500 . S
Eu321 O344 2.473 . S
C322 O319 1.255 . S
C322 O323 1.247 . S
O323 C322 1.247 . S
C324 O336 1.242 . S
C324 O337 1.258 . S
O325 Eu321 2.292 . S
O325 C327 1.255 . S
C326 Eu321 2.852 . S
C326 C330 1.503 1_545 S
C326 O343 1.273 . S
C326 O344 1.257 . S
C327 O325 1.255 . S
C327 O328 1.247 . S
O328 C327 1.247 . S
C329 O341 1.242 . S
C329 O342 1.258 . S
C330 C326 1.503 1_565 S
C330 C331 1.379 . S
C330 C335 1.392 . S
C331 C330 1.379 . S
C331 C332 1.404 . S
C331 H345 0.929 1_565 S
C332 C331 1.404 . S
C332 C333 1.389 . S
C333 C332 1.389 . S
C333 C334 1.399 . S
C333 H346 0.931 . S
C334 C333 1.399 . S
C334 C335 1.390 . S
C335 C330 1.392 . S
C335 C334 1.390 . S
C335 H347 0.929 . S
O336 Tb320 2.326 . S
O336 C324 1.242 . S
O337 Eu321 2.324 . S
O337 C324 1.258 . S
O338 Tb320 2.500 . S
O338 C340 1.273 . S
O339 Tb320 2.473 . S
O339 C340 1.257 . S
C340 O338 1.273 . S
C340 O339 1.257 . S
O341 Eu321 2.326 . S
O341 C329 1.242 . S
O342 Tb320 2.324 . S
O342 C329 1.258 . S
O343 Eu321 2.500 . S
O343 C326 1.273 . S
O344 Eu321 2.473 . S
O344 C326 1.257 . S
H345 C331 0.929 1_545 S
H346 C333 0.931 . S
H347 C335 0.929 . S
C348 C349 1.391 . S
C348 C350 1.394 . S
C348 H364 0.931 . S
C349 C348 1.391 . S
C349 C353 1.376 . S
C350 C348 1.394 . S
C350 C351 1.369 . S
C350 C354 1.531 . S
C351 C350 1.369 . S
C351 C352 1.410 . S
C351 C359 1.503 . S
C352 C351 1.410 . S
C352 C353 1.392 . S
C352 C355 1.511 . S
C353 C349 1.376 . S
C353 C352 1.392 . S
C353 H365 0.929 . S
C354 C350 1.531 . S
C354 H366 0.960 . S
C354 H367 0.962 . S
C354 H368 0.960 . S
C355 C352 1.511 . S
C355 H369 0.961 . S
C355 H370 0.961 . S
C355 H371 0.961 . S
C356 C357 1.370 . S
C356 C358 1.363 . S
C356 H372 0.931 . S
C357 C356 1.370 . S
C357 C361 1.408 . S
C358 C356 1.363 . S
C358 C359 1.370 . S
C358 C362 1.524 . S
C359 C351 1.503 . S
C359 C358 1.370 . S
C359 C360 1.403 . S
C360 C359 1.403 . S
C360 C361 1.404 . S
C360 C363 1.539 . S
C361 C357 1.408 . S
C361 C360 1.404 . S
C361 H373 0.930 . S
C362 C358 1.524 . S
C362 H374 0.956 . S
C362 H375 0.961 . S
C362 H376 0.961 . S
C363 C360 1.539 . S
C363 H377 0.958 . S
C363 H378 0.961 . S
C363 H379 0.960 . S
H364 C348 0.931 . S
H365 C353 0.929 . S
H366 C354 0.960 . S
H367 C354 0.962 . S
H368 C354 0.960 . S
H369 C355 0.961 . S
H370 C355 0.961 . S
H371 C355 0.961 . S
H372 C356 0.931 . S
H373 C361 0.930 . S
H374 C362 0.956 . S
H375 C362 0.961 . S
H376 C362 0.961 . S
H377 C363 0.958 . S
H378 C363 0.961 . S
H379 C363 0.960 . S
C380 C381 1.391 . S
C380 C382 1.394 . S
C380 H396 0.931 . S
C381 C380 1.391 . S
C381 C385 1.376 . S
C382 C380 1.394 . S
C382 C383 1.369 . S
C382 C386 1.531 . S
C383 C382 1.369 . S
C383 C384 1.410 . S
C383 C391 1.503 . S
C384 C383 1.410 . S
C384 C385 1.392 . S
C384 C387 1.511 . S
C385 C381 1.376 . S
C385 C384 1.392 . S
C385 H397 0.929 . S
C386 C382 1.531 . S
C386 H398 0.960 . S
C386 H399 0.962 . S
C386 H400 0.960 . S
C387 C384 1.511 . S
C387 H401 0.961 . S
C387 H402 0.961 . S
C387 H403 0.961 . S
C388 C389 1.370 . S
C388 C390 1.363 . S
C388 H404 0.931 . S
C389 C388 1.370 . S
C389 C393 1.408 . S
C390 C388 1.363 . S
C390 C391 1.370 . S
C390 C394 1.524 . S
C391 C383 1.503 . S
C391 C390 1.370 . S
C391 C392 1.403 . S
C392 C391 1.403 . S
C392 C393 1.404 . S
C392 C395 1.539 . S
C393 C389 1.408 . S
C393 C392 1.404 . S
C393 H405 0.930 . S
C394 C390 1.524 . S
C394 H406 0.956 . S
C394 H407 0.961 . S
C394 H408 0.961 . S
C395 C392 1.539 . S
C395 H409 0.958 . S
C395 H410 0.961 . S
C395 H411 0.960 . S
H396 C380 0.931 . S
H397 C385 0.929 . S
H398 C386 0.960 . S
H399 C386 0.962 . S
H400 C386 0.960 . S
H401 C387 0.961 . S
H402 C387 0.961 . S
H403 C387 0.961 . S
H404 C388 0.931 . S
H405 C393 0.930 . S
H406 C394 0.956 . S
H407 C394 0.961 . S
H408 C394 0.961 . S
H409 C395 0.958 . S
H410 C395 0.961 . S
H411 C395 0.960 . S
C412 C413 1.391 . S
C412 C414 1.394 . S
C412 H428 0.931 . S
C413 C412 1.391 . S
C413 C417 1.376 . S
C414 C412 1.394 . S
C414 C415 1.369 . S
C414 C418 1.531 . S
C415 C414 1.369 . S
C415 C416 1.410 . S
C415 C423 1.503 . S
C416 C415 1.410 . S
C416 C417 1.392 . S
C416 C419 1.511 . S
C417 C413 1.376 . S
C417 C416 1.392 . S
C417 H429 0.929 . S
C418 C414 1.531 . S
C418 H430 0.960 . S
C418 H431 0.962 . S
C418 H432 0.960 . S
C419 C416 1.511 . S
C419 H433 0.961 . S
C419 H434 0.961 . S
C419 H435 0.961 . S
C420 C421 1.370 . S
C420 C422 1.363 . S
C420 H436 0.931 . S
C421 C420 1.370 . S
C421 C425 1.408 . S
C422 C420 1.363 . S
C422 C423 1.370 . S
C422 C426 1.524 . S
C423 C415 1.503 . S
C423 C422 1.370 . S
C423 C424 1.403 . S
C424 C423 1.403 . S
C424 C425 1.404 . S
C424 C427 1.539 . S
C425 C421 1.408 . S
C425 C424 1.404 . S
C425 H437 0.930 . S
C426 C422 1.524 . S
C426 H438 0.956 . S
C426 H439 0.961 . S
C426 H440 0.961 . S
C427 C424 1.539 . S
C427 H441 0.958 . S
C427 H442 0.961 . S
C427 H443 0.960 . S
H428 C412 0.931 . S
H429 C417 0.929 . S
H430 C418 0.960 . S
H431 C418 0.962 . S
H432 C418 0.960 . S
H433 C419 0.961 . S
H434 C419 0.961 . S
H435 C419 0.961 . S
H436 C420 0.931 . S
H437 C425 0.930 . S
H438 C426 0.956 . S
H439 C426 0.961 . S
H440 C426 0.961 . S
H441 C427 0.958 . S
H442 C427 0.961 . S
H443 C427 0.960 . S
C444 C445 1.391 . S
C444 C446 1.394 . S
C444 H460 0.931 . S
C445 C444 1.391 . S
C445 C449 1.376 . S
C446 C444 1.394 . S
C446 C447 1.369 . S
C446 C450 1.531 . S
C447 C446 1.369 . S
C447 C448 1.410 . S
C447 C455 1.503 . S
C448 C447 1.410 . S
C448 C449 1.392 . S
C448 C451 1.511 . S
C449 C445 1.376 . S
C449 C448 1.392 . S
C449 H461 0.929 . S
C450 C446 1.531 . S
C450 H462 0.960 . S
C450 H463 0.962 . S
C450 H464 0.960 . S
C451 C448 1.511 . S
C451 H465 0.961 . S
C451 H466 0.961 . S
C451 H467 0.961 . S
C452 C453 1.370 . S
C452 C454 1.363 . S
C452 H468 0.931 . S
C453 C452 1.370 . S
C453 C457 1.408 . S
C454 C452 1.363 . S
C454 C455 1.370 . S
C454 C458 1.524 . S
C455 C447 1.503 . S
C455 C454 1.370 . S
C455 C456 1.403 . S
C456 C455 1.403 . S
C456 C457 1.404 . S
C456 C459 1.539 . S
C457 C453 1.408 . S
C457 C456 1.404 . S
C457 H469 0.930 . S
C458 C454 1.524 . S
C458 H470 0.956 . S
C458 H471 0.961 . S
C458 H472 0.961 . S
C459 C456 1.539 . S
C459 H473 0.958 . S
C459 H474 0.961 . S
C459 H475 0.960 . S
H460 C444 0.931 . S
H461 C449 0.929 . S
H462 C450 0.960 . S
H463 C450 0.962 . S
H464 C450 0.960 . S
H465 C451 0.961 . S
H466 C451 0.961 . S
H467 C451 0.961 . S
H468 C452 0.931 . S
H469 C457 0.930 . S
H470 C458 0.956 . S
H471 C458 0.961 . S
H472 C458 0.961 . S
H473 C459 0.958 . S
H474 C459 0.961 . S
H475 C459 0.960 . S
C476 C477 1.391 . S
C476 C478 1.394 . S
C476 H492 0.931 . S
C477 C476 1.391 . S
C477 C481 1.376 . S
C478 C476 1.394 . S
C478 C479 1.369 . S
C478 C482 1.531 . S
C479 C478 1.369 . S
C479 C480 1.410 . S
C479 C487 1.503 . S
C480 C479 1.410 . S
C480 C481 1.392 . S
C480 C483 1.511 . S
C481 C477 1.376 . S
C481 C480 1.392 . S
C481 H493 0.929 . S
C482 C478 1.531 . S
C482 H494 0.960 . S
C482 H495 0.962 . S
C482 H496 0.960 . S
C483 C480 1.511 . S
C483 H497 0.961 . S
C483 H498 0.961 . S
C483 H499 0.961 . S
C484 C485 1.370 . S
C484 C486 1.363 . S
C484 H500 0.931 . S
C485 C484 1.370 . S
C485 C489 1.408 . S
C486 C484 1.363 . S
C486 C487 1.370 . S
C486 C490 1.524 . S
C487 C479 1.503 . S
C487 C486 1.370 . S
C487 C488 1.403 . S
C488 C487 1.403 . S
C488 C489 1.404 . S
C488 C491 1.539 . S
C489 C485 1.408 . S
C489 C488 1.404 . S
C489 H501 0.930 . S
C490 C486 1.524 . S
C490 H502 0.956 . S
C490 H503 0.961 . S
C490 H504 0.961 . S
C491 C488 1.539 . S
C491 H505 0.958 . S
C491 H506 0.961 . S
C491 H507 0.960 . S
H492 C476 0.931 . S
H493 C481 0.929 . S
H494 C482 0.960 . S
H495 C482 0.962 . S
H496 C482 0.960 . S
H497 C483 0.961 . S
H498 C483 0.961 . S
H499 C483 0.961 . S
H500 C484 0.931 . S
H501 C489 0.930 . S
H502 C490 0.956 . S
H503 C490 0.961 . S
H504 C490 0.961 . S
H505 C491 0.958 . S
H506 C491 0.961 . S
H507 C491 0.960 . S
C508 C509 1.391 . S
C508 C510 1.394 . S
C508 H524 0.931 . S
C509 C508 1.391 . S
C509 C513 1.376 . S
C510 C508 1.394 . S
C510 C511 1.369 . S
C510 C514 1.531 . S
C511 C510 1.369 . S
C511 C512 1.410 . S
C511 C519 1.503 . S
C512 C511 1.410 . S
C512 C513 1.392 . S
C512 C515 1.511 . S
C513 C509 1.376 . S
C513 C512 1.392 . S
C513 H525 0.929 . S
C514 C510 1.531 . S
C514 H526 0.960 . S
C514 H527 0.962 . S
C514 H528 0.960 . S
C515 C512 1.511 . S
C515 H529 0.961 . S
C515 H530 0.961 . S
C515 H531 0.961 . S
C516 C517 1.370 . S
C516 C518 1.363 . S
C516 H532 0.931 . S
C517 C516 1.370 . S
C517 C521 1.408 . S
C518 C516 1.363 . S
C518 C519 1.370 . S
C518 C522 1.524 . S
C519 C511 1.503 . S
C519 C518 1.370 . S
C519 C520 1.403 . S
C520 C519 1.403 . S
C520 C521 1.404 . S
C520 C523 1.539 . S
C521 C517 1.408 . S
C521 C520 1.404 . S
C521 H533 0.930 . S
C522 C518 1.524 . S
C522 H534 0.956 . S
C522 H535 0.961 . S
C522 H536 0.961 . S
C523 C520 1.539 . S
C523 H537 0.958 . S
C523 H538 0.961 . S
C523 H539 0.960 . S
H524 C508 0.931 . S
H525 C513 0.929 . S
H526 C514 0.960 . S
H527 C514 0.962 . S
H528 C514 0.960 . S
H529 C515 0.961 . S
H530 C515 0.961 . S
H531 C515 0.961 . S
H532 C516 0.931 . S
H533 C521 0.930 . S
H534 C522 0.956 . S
H535 C522 0.961 . S
H536 C522 0.961 . S
H537 C523 0.958 . S
H538 C523 0.961 . S
H539 C523 0.960 . S
C540 C541 1.391 . S
C540 C542 1.394 . S
C540 H556 0.931 . S
C541 C540 1.391 . S
C541 C545 1.376 . S
C542 C540 1.394 . S
C542 C543 1.369 . S
C542 C546 1.531 . S
C543 C542 1.369 . S
C543 C544 1.410 . S
C543 C551 1.503 . S
C544 C543 1.410 . S
C544 C545 1.392 . S
C544 C547 1.511 . S
C545 C541 1.376 . S
C545 C544 1.392 . S
C545 H557 0.929 . S
C546 C542 1.531 . S
C546 H558 0.960 . S
C546 H559 0.962 . S
C546 H560 0.960 . S
C547 C544 1.511 . S
C547 H561 0.961 . S
C547 H562 0.961 . S
C547 H563 0.961 . S
C548 C549 1.370 . S
C548 C550 1.363 . S
C548 H564 0.931 . S
C549 C548 1.370 . S
C549 C553 1.408 1_556 S
C550 C548 1.363 . S
C550 C551 1.370 . S
C550 C554 1.524 . S
C551 C543 1.503 . S
C551 C550 1.370 . S
C551 C552 1.403 . S
C552 C551 1.403 . S
C552 C553 1.404 1_556 S
C552 C555 1.539 . S
C553 C549 1.408 1_554 S
C553 C552 1.404 1_554 S
C553 H565 0.930 . S
C554 C550 1.524 . S
C554 H566 0.956 . S
C554 H567 0.961 . S
C554 H568 0.961 . S
C555 C552 1.539 . S
C555 H569 0.958 . S
C555 H570 0.961 1_556 S
C555 H571 0.960 . S
H556 C540 0.931 . S
H557 C545 0.929 . S
H558 C546 0.960 . S
H559 C546 0.962 . S
H560 C546 0.960 . S
H561 C547 0.961 . S
H562 C547 0.961 . S
H563 C547 0.961 . S
H564 C548 0.931 . S
H565 C553 0.930 . S
H566 C554 0.956 . S
H567 C554 0.961 . S
H568 C554 0.961 . S
H569 C555 0.958 . S
H570 C555 0.961 1_554 S
H571 C555 0.960 . S
C572 C573 1.391 . S
C572 C574 1.394 . S
C572 H588 0.931 . S
C573 C572 1.391 . S
C573 C577 1.376 . S
C574 C572 1.394 . S
C574 C575 1.369 . S
C574 C578 1.531 . S
C575 C574 1.369 . S
C575 C576 1.410 . S
C575 C583 1.503 . S
C576 C575 1.410 . S
C576 C577 1.392 . S
C576 C579 1.511 . S
C577 C573 1.376 . S
C577 C576 1.392 . S
C577 H589 0.929 . S
C578 C574 1.531 . S
C578 H590 0.960 . S
C578 H591 0.962 . S
C578 H592 0.960 . S
C579 C576 1.511 . S
C579 H593 0.961 . S
C579 H594 0.961 . S
C579 H595 0.961 . S
C580 C581 1.370 . S
C580 C582 1.363 . S
C580 H596 0.931 . S
C581 C580 1.370 . S
C581 C585 1.408 . S
C582 C580 1.363 . S
C582 C583 1.370 . S
C582 C586 1.524 . S
C583 C575 1.503 . S
C583 C582 1.370 . S
C583 C584 1.403 . S
C584 C583 1.403 . S
C584 C585 1.404 . S
C584 C587 1.539 . S
C585 C581 1.408 . S
C585 C584 1.404 . S
C585 H597 0.930 . S
C586 C582 1.524 . S
C586 H598 0.956 . S
C586 H599 0.961 . S
C586 H600 0.961 . S
C587 C584 1.539 . S
C587 H601 0.958 . S
C587 H602 0.961 . S
C587 H603 0.960 . S
H588 C572 0.931 . S
H589 C577 0.929 . S
H590 C578 0.960 . S
H591 C578 0.962 . S
H592 C578 0.960 . S
H593 C579 0.961 . S
H594 C579 0.961 . S
H595 C579 0.961 . S
H596 C580 0.931 . S
H597 C585 0.930 . S
H598 C586 0.956 . S
H599 C586 0.961 . S
H600 C586 0.961 . S
H601 C587 0.958 . S
H602 C587 0.961 . S
H603 C587 0.960 . S
C604 C605 1.391 . S
C604 C606 1.394 . S
C604 H620 0.931 . S
C605 C604 1.391 . S
C605 C609 1.376 . S
C606 C604 1.394 . S
C606 C607 1.369 . S
C606 C610 1.531 . S
C607 C606 1.369 . S
C607 C608 1.410 . S
C607 C615 1.503 . S
C608 C607 1.410 . S
C608 C609 1.392 . S
C608 C611 1.511 . S
C609 C605 1.376 . S
C609 C608 1.392 . S
C609 H621 0.929 . S
C610 C606 1.531 . S
C610 H622 0.960 . S
C610 H623 0.962 . S
C610 H624 0.960 . S
C611 C608 1.511 . S
C611 H625 0.961 . S
C611 H626 0.961 . S
C611 H627 0.961 . S
C612 C613 1.370 . S
C612 C614 1.363 . S
C612 H628 0.931 . S
C613 C612 1.370 . S
C613 C617 1.408 . S
C614 C612 1.363 . S
C614 C615 1.370 . S
C614 C618 1.524 . S
C615 C607 1.503 . S
C615 C614 1.370 . S
C615 C616 1.403 . S
C616 C615 1.403 . S
C616 C617 1.404 . S
C616 C619 1.539 . S
C617 C613 1.408 . S
C617 C616 1.404 . S
C617 H629 0.930 . S
C618 C614 1.524 . S
C618 H630 0.956 . S
C618 H631 0.961 . S
C618 H632 0.961 . S
C619 C616 1.539 . S
C619 H633 0.958 . S
C619 H634 0.961 . S
C619 H635 0.960 . S
H620 C604 0.931 . S
H621 C609 0.929 . S
H622 C610 0.960 . S
H623 C610 0.962 . S
H624 C610 0.960 . S
H625 C611 0.961 . S
H626 C611 0.961 . S
H627 C611 0.961 . S
H628 C612 0.931 . S
H629 C617 0.930 . S
H630 C618 0.956 . S
H631 C618 0.961 . S
H632 C618 0.961 . S
H633 C619 0.958 . S
H634 C619 0.961 . S
H635 C619 0.960 . S
C636 C637 1.391 . S
C636 C638 1.394 . S
C636 H652 0.931 . S
C637 C636 1.391 . S
C637 C641 1.376 . S
C638 C636 1.394 . S
C638 C639 1.369 . S
C638 C642 1.531 . S
C639 C638 1.369 . S
C639 C640 1.410 . S
C639 C647 1.503 . S
C640 C639 1.410 . S
C640 C641 1.392 . S
C640 C643 1.511 . S
C641 C637 1.376 . S
C641 C640 1.392 . S
C641 H653 0.929 . S
C642 C638 1.531 . S
C642 H654 0.960 . S
C642 H655 0.962 . S
C642 H656 0.960 . S
C643 C640 1.511 . S
C643 H657 0.961 . S
C643 H658 0.961 . S
C643 H659 0.961 . S
C644 C645 1.370 . S
C644 C646 1.363 . S
C644 H660 0.931 . S
C645 C644 1.370 . S
C645 C649 1.408 . S
C646 C644 1.363 . S
C646 C647 1.370 . S
C646 C650 1.524 . S
C647 C639 1.503 . S
C647 C646 1.370 . S
C647 C648 1.403 . S
C648 C647 1.403 . S
C648 C649 1.404 . S
C648 C651 1.539 . S
C649 C645 1.408 . S
C649 C648 1.404 . S
C649 H661 0.930 . S
C650 C646 1.524 . S
C650 H662 0.956 . S
C650 H663 0.961 . S
C650 H664 0.961 . S
C651 C648 1.539 . S
C651 H665 0.958 . S
C651 H666 0.961 . S
C651 H667 0.960 . S
H652 C636 0.931 . S
H653 C641 0.929 . S
H654 C642 0.960 . S
H655 C642 0.962 . S
H656 C642 0.960 . S
H657 C643 0.961 . S
H658 C643 0.961 . S
H659 C643 0.961 . S
H660 C644 0.931 . S
H661 C649 0.930 . S
H662 C650 0.956 . S
H663 C650 0.961 . S
H664 C650 0.961 . S
H665 C651 0.958 . S
H666 C651 0.961 . S
H667 C651 0.960 . S
C668 C669 1.391 . S
C668 C670 1.394 . S
C668 H684 0.931 . S
C669 C668 1.391 . S
C669 C673 1.376 . S
C670 C668 1.394 . S
C670 C671 1.369 . S
C670 C674 1.531 . S
C671 C670 1.369 . S
C671 C672 1.410 . S
C671 C679 1.503 . S
C672 C671 1.410 . S
C672 C673 1.392 . S
C672 C675 1.511 . S
C673 C669 1.376 . S
C673 C672 1.392 . S
C673 H685 0.929 . S
C674 C670 1.531 . S
C674 H686 0.960 . S
C674 H687 0.962 . S
C674 H688 0.960 . S
C675 C672 1.511 . S
C675 H689 0.961 . S
C675 H690 0.961 . S
C675 H691 0.961 . S
C676 C677 1.370 . S
C676 C678 1.363 . S
C676 H692 0.931 . S
C677 C676 1.370 . S
C677 C681 1.408 . S
C678 C676 1.363 . S
C678 C679 1.370 . S
C678 C682 1.524 . S
C679 C671 1.503 . S
C679 C678 1.370 . S
C679 C680 1.403 . S
C680 C679 1.403 . S
C680 C681 1.404 . S
C680 C683 1.539 . S
C681 C677 1.408 . S
C681 C680 1.404 . S
C681 H693 0.930 . S
C682 C678 1.524 . S
C682 H694 0.956 . S
C682 H695 0.961 . S
C682 H696 0.961 . S
C683 C680 1.539 . S
C683 H697 0.958 . S
C683 H698 0.961 . S
C683 H699 0.960 . S
H684 C668 0.931 . S
H685 C673 0.929 . S
H686 C674 0.960 . S
H687 C674 0.962 . S
H688 C674 0.960 . S
H689 C675 0.961 . S
H690 C675 0.961 . S
H691 C675 0.961 . S
H692 C676 0.931 . S
H693 C681 0.930 . S
H694 C682 0.956 . S
H695 C682 0.961 . S
H696 C682 0.961 . S
H697 C683 0.958 . S
H698 C683 0.961 . S
H699 C683 0.960 . S
C700 C701 1.391 . S
C700 C702 1.394 . S
C700 H716 0.931 . S
C701 C700 1.391 . S
C701 C705 1.376 . S
C702 C700 1.394 . S
C702 C703 1.369 . S
C702 C706 1.531 . S
C703 C702 1.369 . S
C703 C704 1.410 . S
C703 C711 1.503 . S
C704 C703 1.410 . S
C704 C705 1.392 . S
C704 C707 1.511 . S
C705 C701 1.376 . S
C705 C704 1.392 . S
C705 H717 0.929 . S
C706 C702 1.531 . S
C706 H718 0.960 . S
C706 H719 0.962 . S
C706 H720 0.960 . S
C707 C704 1.511 . S
C707 H721 0.961 . S
C707 H722 0.961 . S
C707 H723 0.961 . S
C708 C709 1.370 . S
C708 C710 1.363 . S
C708 H724 0.931 . S
C709 C708 1.370 . S
C709 C713 1.408 . S
C710 C708 1.363 . S
C710 C711 1.370 . S
C710 C714 1.524 . S
C711 C703 1.503 . S
C711 C710 1.370 . S
C711 C712 1.403 . S
C712 C711 1.403 . S
C712 C713 1.404 . S
C712 C715 1.539 . S
C713 C709 1.408 . S
C713 C712 1.404 . S
C713 H725 0.930 . S
C714 C710 1.524 . S
C714 H726 0.956 . S
C714 H727 0.961 . S
C714 H728 0.961 . S
C715 C712 1.539 . S
C715 H729 0.958 . S
C715 H730 0.961 . S
C715 H731 0.960 . S
H716 C700 0.931 . S
H717 C705 0.929 . S
H718 C706 0.960 . S
H719 C706 0.962 . S
H720 C706 0.960 . S
H721 C707 0.961 . S
H722 C707 0.961 . S
H723 C707 0.961 . S
H724 C708 0.931 . S
H725 C713 0.930 . S
H726 C714 0.956 . S
H727 C714 0.961 . S
H728 C714 0.961 . S
H729 C715 0.958 . S
H730 C715 0.961 . S
H731 C715 0.960 . S
C732 C733 1.391 . S
C732 C734 1.394 . S
C732 H748 0.931 . S
C733 C732 1.391 . S
C733 C737 1.376 . S
C734 C732 1.394 . S
C734 C735 1.369 . S
C734 C738 1.531 . S
C735 C734 1.369 . S
C735 C736 1.410 . S
C735 C743 1.503 . S
C736 C735 1.410 . S
C736 C737 1.392 . S
C736 C739 1.511 . S
C737 C733 1.376 . S
C737 C736 1.392 . S
C737 H749 0.929 . S
C738 C734 1.531 . S
C738 H750 0.960 . S
C738 H751 0.962 . S
C738 H752 0.960 . S
C739 C736 1.511 . S
C739 H753 0.961 . S
C739 H754 0.961 . S
C739 H755 0.961 . S
C740 C741 1.370 . S
C740 C742 1.363 . S
C740 H756 0.931 . S
C741 C740 1.370 . S
C741 C745 1.408 . S
C742 C740 1.363 . S
C742 C743 1.370 . S
C742 C746 1.524 . S
C743 C735 1.503 . S
C743 C742 1.370 . S
C743 C744 1.403 . S
C744 C743 1.403 . S
C744 C745 1.404 . S
C744 C747 1.539 . S
C745 C741 1.408 . S
C745 C744 1.404 . S
C745 H757 0.930 . S
C746 C742 1.524 . S
C746 H758 0.956 . S
C746 H759 0.961 . S
C746 H760 0.961 . S
C747 C744 1.539 . S
C747 H761 0.958 . S
C747 H762 0.961 . S
C747 H763 0.960 . S
H748 C732 0.931 . S
H749 C737 0.929 . S
H750 C738 0.960 . S
H751 C738 0.962 . S
H752 C738 0.960 . S
H753 C739 0.961 . S
H754 C739 0.961 . S
H755 C739 0.961 . S
H756 C740 0.931 . S
H757 C745 0.930 . S
H758 C746 0.956 . S
H759 C746 0.961 . S
H760 C746 0.961 . S
H761 C747 0.958 . S
H762 C747 0.961 . S
H763 C747 0.960 . S
C764 C765 1.391 . S
C764 C766 1.394 . S
C764 H780 0.931 . S
C765 C764 1.391 . S
C765 C769 1.376 . S
C766 C764 1.394 . S
C766 C767 1.369 . S
C766 C770 1.531 . S
C767 C766 1.369 . S
C767 C768 1.410 . S
C767 C775 1.503 . S
C768 C767 1.410 . S
C768 C769 1.392 . S
C768 C771 1.511 . S
C769 C765 1.376 . S
C769 C768 1.392 . S
C769 H781 0.929 . S
C770 C766 1.531 . S
C770 H782 0.960 . S
C770 H783 0.962 . S
C770 H784 0.960 . S
C771 C768 1.511 . S
C771 H785 0.961 . S
C771 H786 0.961 . S
C771 H787 0.961 . S
C772 C773 1.370 . S
C772 C774 1.363 . S
C772 H788 0.931 1_554 S
C773 C772 1.370 . S
C773 C777 1.408 . S
C774 C772 1.363 . S
C774 C775 1.370 . S
C774 C778 1.524 . S
C775 C767 1.503 . S
C775 C774 1.370 . S
C775 C776 1.403 . S
C776 C775 1.403 . S
C776 C777 1.404 . S
C776 C779 1.539 . S
C777 C773 1.408 . S
C777 C776 1.404 . S
C777 H789 0.930 . S
C778 C774 1.524 . S
C778 H790 0.956 . S
C778 H791 0.961 . S
C778 H792 0.961 . S
C779 C776 1.539 . S
C779 H793 0.958 . S
C779 H794 0.961 . S
C779 H795 0.960 . S
H780 C764 0.931 . S
H781 C769 0.929 . S
H782 C770 0.960 . S
H783 C770 0.962 . S
H784 C770 0.960 . S
H785 C771 0.961 . S
H786 C771 0.961 . S
H787 C771 0.961 . S
H788 C772 0.931 1_556 S
H789 C777 0.930 . S
H790 C778 0.956 . S
H791 C778 0.961 . S
H792 C778 0.961 . S
H793 C779 0.958 . S
H794 C779 0.961 . S
H795 C779 0.960 . S
C796 C797 1.391 . S
C796 C798 1.394 . S
C796 H812 0.931 . S
C797 C796 1.391 . S
C797 C801 1.376 . S
C798 C796 1.394 . S
C798 C799 1.369 . S
C798 C802 1.531 . S
C799 C798 1.369 . S
C799 C800 1.410 . S
C799 C807 1.503 . S
C800 C799 1.410 . S
C800 C801 1.392 . S
C800 C803 1.511 . S
C801 C797 1.376 . S
C801 C800 1.392 . S
C801 H813 0.929 . S
C802 C798 1.531 . S
C802 H814 0.960 . S
C802 H815 0.962 . S
C802 H816 0.960 . S
C803 C800 1.511 . S
C803 H817 0.961 . S
C803 H818 0.961 . S
C803 H819 0.961 . S
C804 C805 1.370 . S
C804 C806 1.363 . S
C804 H820 0.931 . S
C805 C804 1.370 . S
C805 C809 1.408 . S
C806 C804 1.363 . S
C806 C807 1.370 . S
C806 C810 1.524 . S
C807 C799 1.503 . S
C807 C806 1.370 . S
C807 C808 1.403 . S
C808 C807 1.403 . S
C808 C809 1.404 . S
C808 C811 1.539 . S
C809 C805 1.408 . S
C809 C808 1.404 . S
C809 H821 0.930 . S
C810 C806 1.524 . S
C810 H822 0.956 . S
C810 H823 0.961 . S
C810 H824 0.961 . S
C811 C808 1.539 . S
C811 H825 0.958 . S
C811 H826 0.961 . S
C811 H827 0.960 . S
H812 C796 0.931 . S
H813 C801 0.929 . S
H814 C802 0.960 . S
H815 C802 0.962 . S
H816 C802 0.960 . S
H817 C803 0.961 . S
H818 C803 0.961 . S
H819 C803 0.961 . S
H820 C804 0.931 . S
H821 C809 0.930 . S
H822 C810 0.956 . S
H823 C810 0.961 . S
H824 C810 0.961 . S
H825 C811 0.958 . S
H826 C811 0.961 . S
H827 C811 0.960 . S
C828 C829 1.391 . S
C828 C830 1.394 . S
C828 H844 0.931 . S
C829 C828 1.391 . S
C829 C833 1.376 . S
C830 C828 1.394 . S
C830 C831 1.369 . S
C830 C834 1.531 . S
C831 C830 1.369 . S
C831 C832 1.410 . S
C831 C839 1.503 . S
C832 C831 1.410 . S
C832 C833 1.392 . S
C832 C835 1.511 . S
C833 C829 1.376 . S
C833 C832 1.392 . S
C833 H845 0.929 . S
C834 C830 1.531 . S
C834 H846 0.960 . S
C834 H847 0.962 . S
C834 H848 0.960 . S
C835 C832 1.511 . S
C835 H849 0.961 . S
C835 H850 0.961 . S
C835 H851 0.961 . S
C836 C837 1.370 . S
C836 C838 1.363 . S
C836 H852 0.931 . S
C837 C836 1.370 . S
C837 C841 1.408 . S
C838 C836 1.363 . S
C838 C839 1.370 . S
C838 C842 1.524 . S
C839 C831 1.503 . S
C839 C838 1.370 . S
C839 C840 1.403 . S
C840 C839 1.403 . S
C840 C841 1.404 . S
C840 C843 1.539 . S
C841 C837 1.408 . S
C841 C840 1.404 . S
C841 H853 0.930 . S
C842 C838 1.524 . S
C842 H854 0.956 . S
C842 H855 0.961 . S
C842 H856 0.961 . S
C843 C840 1.539 . S
C843 H857 0.958 . S
C843 H858 0.961 . S
C843 H859 0.960 . S
H844 C828 0.931 . S
H845 C833 0.929 . S
H846 C834 0.960 . S
H847 C834 0.962 . S
H848 C834 0.960 . S
H849 C835 0.961 . S
H850 C835 0.961 . S
H851 C835 0.961 . S
H852 C836 0.931 . S
H853 C841 0.930 . S
H854 C842 0.956 . S
H855 C842 0.961 . S
H856 C842 0.961 . S
H857 C843 0.958 . S
H858 C843 0.961 . S
H859 C843 0.960 . S
C860 C861 1.391 . S
C860 C862 1.394 . S
C860 H876 0.931 . S
C861 C860 1.391 . S
C861 C865 1.376 . S
C862 C860 1.394 . S
C862 C863 1.369 . S
C862 C866 1.531 . S
C863 C862 1.369 . S
C863 C864 1.410 . S
C863 C871 1.503 . S
C864 C863 1.410 . S
C864 C865 1.392 . S
C864 C867 1.511 . S
C865 C861 1.376 . S
C865 C864 1.392 . S
C865 H877 0.929 . S
C866 C862 1.531 . S
C866 H878 0.960 . S
C866 H879 0.962 . S
C866 H880 0.960 . S
C867 C864 1.511 . S
C867 H881 0.961 . S
C867 H882 0.961 . S
C867 H883 0.961 . S
C868 C869 1.370 . S
C868 C870 1.363 . S
C868 H884 0.931 . S
C869 C868 1.370 . S
C869 C873 1.408 . S
C870 C868 1.363 . S
C870 C871 1.370 . S
C870 C874 1.524 . S
C871 C863 1.503 . S
C871 C870 1.370 . S
C871 C872 1.403 . S
C872 C871 1.403 . S
C872 C873 1.404 . S
C872 C875 1.539 . S
C873 C869 1.408 . S
C873 C872 1.404 . S
C873 H885 0.930 . S
C874 C870 1.524 . S
C874 H886 0.956 . S
C874 H887 0.961 . S
C874 H888 0.961 . S
C875 C872 1.539 . S
C875 H889 0.958 . S
C875 H890 0.961 . S
C875 H891 0.960 . S
H876 C860 0.931 . S
H877 C865 0.929 . S
H878 C866 0.960 . S
H879 C866 0.962 . S
H880 C866 0.960 . S
H881 C867 0.961 . S
H882 C867 0.961 . S
H883 C867 0.961 . S
H884 C868 0.931 . S
H885 C873 0.930 . S
H886 C874 0.956 . S
H887 C874 0.961 . S
H888 C874 0.961 . S
H889 C875 0.958 . S
H890 C875 0.961 . S
H891 C875 0.960 . S
C892 C893 1.391 . S
C892 C894 1.394 . S
C892 H908 0.931 . S
C893 C892 1.391 . S
C893 C897 1.376 . S
C894 C892 1.394 . S
C894 C895 1.369 . S
C894 C898 1.531 . S
C895 C894 1.369 . S
C895 C896 1.410 . S
C895 C903 1.503 . S
C896 C895 1.410 . S
C896 C897 1.392 . S
C896 C899 1.511 . S
C897 C893 1.376 . S
C897 C896 1.392 . S
C897 H909 0.929 . S
C898 C894 1.531 . S
C898 H910 0.960 . S
C898 H911 0.962 . S
C898 H912 0.960 . S
C899 C896 1.511 . S
C899 H913 0.961 . S
C899 H914 0.961 . S
C899 H915 0.961 . S
C900 C901 1.370 . S
C900 C902 1.363 . S
C900 H916 0.931 . S
C901 C900 1.370 . S
C901 C905 1.408 . S
C902 C900 1.363 . S
C902 C903 1.370 . S
C902 C906 1.524 . S
C903 C895 1.503 . S
C903 C902 1.370 . S
C903 C904 1.403 . S
C904 C903 1.403 . S
C904 C905 1.404 . S
C904 C907 1.539 . S
C905 C901 1.408 . S
C905 C904 1.404 . S
C905 H917 0.930 . S
C906 C902 1.524 . S
C906 H918 0.956 . S
C906 H919 0.961 . S
C906 H920 0.961 . S
C907 C904 1.539 . S
C907 H921 0.958 . S
C907 H922 0.961 . S
C907 H923 0.960 . S
H908 C892 0.931 . S
H909 C897 0.929 . S
H910 C898 0.960 . S
H911 C898 0.962 . S
H912 C898 0.960 . S
H913 C899 0.961 . S
H914 C899 0.961 . S
H915 C899 0.961 . S
H916 C900 0.931 . S
H917 C905 0.930 . S
H918 C906 0.956 . S
H919 C906 0.961 . S
H920 C906 0.961 . S
H921 C907 0.958 . S
H922 C907 0.961 . S
H923 C907 0.960 . S
C924 C925 1.391 . S
C924 C926 1.394 . S
C924 H940 0.931 . S
C925 C924 1.391 . S
C925 C929 1.376 . S
C926 C924 1.394 . S
C926 C927 1.369 . S
C926 C930 1.531 . S
C927 C926 1.369 . S
C927 C928 1.410 . S
C927 C935 1.503 . S
C928 C927 1.410 . S
C928 C929 1.392 . S
C928 C931 1.511 . S
C929 C925 1.376 . S
C929 C928 1.392 . S
C929 H941 0.929 . S
C930 C926 1.531 . S
C930 H942 0.960 . S
C930 H943 0.962 . S
C930 H944 0.960 . S
C931 C928 1.511 . S
C931 H945 0.961 . S
C931 H946 0.961 . S
C931 H947 0.961 . S
C932 C933 1.370 . S
C932 C934 1.363 . S
C932 H948 0.931 . S
C933 C932 1.370 . S
C933 C937 1.408 . S
C934 C932 1.363 . S
C934 C935 1.370 . S
C934 C938 1.524 . S
C935 C927 1.503 . S
C935 C934 1.370 . S
C935 C936 1.403 . S
C936 C935 1.403 . S
C936 C937 1.404 . S
C936 C939 1.539 . S
C937 C933 1.408 . S
C937 C936 1.404 . S
C937 H949 0.930 . S
C938 C934 1.524 . S
C938 H950 0.956 . S
C938 H951 0.961 . S
C938 H952 0.961 . S
C939 C936 1.539 . S
C939 H953 0.958 . S
C939 H954 0.961 . S
C939 H955 0.960 . S
H940 C924 0.931 . S
H941 C929 0.929 . S
H942 C930 0.960 . S
H943 C930 0.962 . S
H944 C930 0.960 . S
H945 C931 0.961 . S
H946 C931 0.961 . S
H947 C931 0.961 . S
H948 C932 0.931 . S
H949 C937 0.930 . S
H950 C938 0.956 . S
H951 C938 0.961 . S
H952 C938 0.961 . S
H953 C939 0.958 . S
H954 C939 0.961 . S
H955 C939 0.960 . S
C956 C957 1.391 . S
C956 C958 1.394 . S
C956 H972 0.931 . S
C957 C956 1.391 . S
C957 C961 1.376 . S
C958 C956 1.394 . S
C958 C959 1.369 . S
C958 C962 1.531 . S
C959 C958 1.369 . S
C959 C960 1.410 . S
C959 C967 1.503 . S
C960 C959 1.410 . S
C960 C961 1.392 . S
C960 C963 1.511 1_655 S
C961 C957 1.376 . S
C961 C960 1.392 . S
C961 H973 0.929 . S
C962 C958 1.531 . S
C962 H974 0.960 . S
C962 H975 0.962 . S
C962 H976 0.960 . S
C963 C960 1.511 1_455 S
C963 H977 0.961 . S
C963 H978 0.961 1_455 S
C963 H979 0.961 . S
C964 C965 1.370 . S
C964 C966 1.363 . S
C964 H980 0.931 . S
C965 C964 1.370 . S
C965 C969 1.408 . S
C966 C964 1.363 . S
C966 C967 1.370 . S
C966 C970 1.524 . S
C967 C959 1.503 . S
C967 C966 1.370 . S
C967 C968 1.403 . S
C968 C967 1.403 . S
C968 C969 1.404 . S
C968 C971 1.539 1_655 S
C969 C965 1.408 . S
C969 C968 1.404 . S
C969 H981 0.930 . S
C970 C966 1.524 . S
C970 H982 0.956 . S
C970 H983 0.961 . S
C970 H984 0.961 . S
C971 C968 1.539 1_455 S
C971 H985 0.978 . S
C971 H986 0.961 . S
C971 H987 0.960 . S
H972 C956 0.931 . S
H973 C961 0.929 . S
H974 C962 0.960 . S
H975 C962 0.962 . S
H976 C962 0.960 . S
H977 C963 0.961 . S
H978 C963 0.961 1_655 S
H979 C963 0.961 . S
H980 C964 0.931 . S
H981 C969 0.930 . S
H982 C970 0.956 . S
H983 C970 0.961 . S
H984 C970 0.961 . S
H985 C971 0.978 . S
H986 C971 0.961 . S
H987 C971 0.960 . S
C988 C989 1.391 . S
C988 C990 1.394 . S
C988 H1004 0.931 . S
C989 C988 1.391 . S
C989 C993 1.376 . S
C990 C988 1.394 . S
C990 C991 1.369 . S
C990 C994 1.531 . S
C991 C990 1.369 . S
C991 C992 1.410 . S
C991 C999 1.503 . S
C992 C991 1.410 . S
C992 C993 1.392 . S
C992 C995 1.511 . S
C993 C989 1.376 . S
C993 C992 1.392 . S
C993 H1005 0.929 . S
C994 C990 1.531 . S
C994 H1006 0.960 . S
C994 H1007 0.962 . S
C994 H1008 0.960 1_565 S
C995 C992 1.511 . S
C995 H1009 0.961 . S
C995 H1010 0.961 . S
C995 H1011 0.961 . S
C996 C997 1.370 . S
C996 C998 1.363 . S
C996 H1012 0.931 . S
C997 C996 1.370 . S
C997 C1001 1.408 . S
C998 C996 1.363 . S
C998 C999 1.370 . S
C998 C1002 1.524 . S
C999 C991 1.503 . S
C999 C998 1.370 . S
C999 C1000 1.403 . S
C1000 C999 1.403 . S
C1000 C1001 1.404 . S
C1000 C1003 1.539 1_565 S
C1001 C997 1.408 . S
C1001 C1000 1.404 . S
C1001 H1013 0.930 1_565 S
C1002 C998 1.524 . S
C1002 H1014 0.956 . S
C1002 H1015 0.961 . S
C1002 H1016 0.961 . S
C1003 C1000 1.539 1_545 S
C1003 H1017 0.958 . S
C1003 H1018 0.961 . S
C1003 H1019 0.960 . S
H1004 C988 0.931 . S
H1005 C993 0.929 . S
H1006 C994 0.960 . S
H1007 C994 0.962 . S
H1008 C994 0.960 1_545 S
H1009 C995 0.961 . S
H1010 C995 0.961 . S
H1011 C995 0.961 . S
H1012 C996 0.931 . S
H1013 C1001 0.930 1_545 S
H1014 C1002 0.956 . S
H1015 C1002 0.961 . S
H1016 C1002 0.961 . S
H1017 C1003 0.958 . S
H1018 C1003 0.961 . S
H1019 C1003 0.960 . S
C1020 C1021 1.391 . S
C1020 C1022 1.394 . S
C1020 H1036 0.931 . S
C1021 C1020 1.391 . S
C1021 C1025 1.376 . S
C1022 C1020 1.394 . S
C1022 C1023 1.369 . S
C1022 C1026 1.531 . S
C1023 C1022 1.369 . S
C1023 C1024 1.410 . S
C1023 C1031 1.503 . S
C1024 C1023 1.410 . S
C1024 C1025 1.392 . S
C1024 C1027 1.511 . S
C1025 C1021 1.376 . S
C1025 C1024 1.392 . S
C1025 H1037 0.929 . S
C1026 C1022 1.531 . S
C1026 H1038 0.960 . S
C1026 H1039 0.962 . S
C1026 H1040 0.960 . S
C1027 C1024 1.511 . S
C1027 H1041 0.961 . S
C1027 H1042 0.961 . S
C1027 H1043 0.961 . S
C1028 C1029 1.370 . S
C1028 C1030 1.363 . S
C1028 H1044 0.931 . S
C1029 C1028 1.370 . S
C1029 C1033 1.408 . S
C1030 C1028 1.363 . S
C1030 C1031 1.370 . S
C1030 C1034 1.524 . S
C1031 C1023 1.503 . S
C1031 C1030 1.370 . S
C1031 C1032 1.403 . S
C1032 C1031 1.403 . S
C1032 C1033 1.404 . S
C1032 C1035 1.539 . S
C1033 C1029 1.408 . S
C1033 C1032 1.404 . S
C1033 H1045 0.930 . S
C1034 C1030 1.524 . S
C1034 H1046 0.956 . S
C1034 H1047 0.961 . S
C1034 H1048 0.961 . S
C1035 C1032 1.539 . S
C1035 H1049 0.958 . S
C1035 H1050 0.961 . S
C1035 H1051 0.960 . S
H1036 C1020 0.931 . S
H1037 C1025 0.929 . S
H1038 C1026 0.960 . S
H1039 C1026 0.962 . S
H1040 C1026 0.960 . S
H1041 C1027 0.961 . S
H1042 C1027 0.961 . S
H1043 C1027 0.961 . S
H1044 C1028 0.931 . S
H1045 C1033 0.930 . S
H1046 C1034 0.956 . S
H1047 C1034 0.961 . S
H1048 C1034 0.961 . S
H1049 C1035 0.958 . S
H1050 C1035 0.961 . S
H1051 C1035 0.960 . S
C1052 C1053 1.391 . S
C1052 C1054 1.394 . S
C1052 H1068 0.931 . S
C1053 C1052 1.391 . S
C1053 C1057 1.376 . S
C1054 C1052 1.394 . S
C1054 C1055 1.369 . S
C1054 C1058 1.531 . S
C1055 C1054 1.369 . S
C1055 C1056 1.410 . S
C1055 C1063 1.503 . S
C1056 C1055 1.410 . S
C1056 C1057 1.392 . S
C1056 C1059 1.511 1_455 S
C1057 C1053 1.376 . S
C1057 C1056 1.392 . S
C1057 H1069 0.929 1_455 S
C1058 C1054 1.531 . S
C1058 H1070 0.960 . S
C1058 H1071 0.962 . S
C1058 H1072 0.960 . S
C1059 C1056 1.511 1_655 S
C1059 H1073 0.961 . S
C1059 H1074 0.961 . S
C1059 H1075 0.961 . S
C1060 C1061 1.370 . S
C1060 C1062 1.363 . S
C1060 H1076 0.931 . S
C1061 C1060 1.370 . S
C1061 C1065 1.408 . S
C1062 C1060 1.363 . S
C1062 C1063 1.370 . S
C1062 C1066 1.524 . S
C1063 C1055 1.503 . S
C1063 C1062 1.370 . S
C1063 C1064 1.403 . S
C1064 C1063 1.403 . S
C1064 C1065 1.404 . S
C1064 C1067 1.539 . S
C1065 C1061 1.408 . S
C1065 C1064 1.404 . S
C1065 H1077 0.930 . S
C1066 C1062 1.524 . S
C1066 H1078 0.956 . S
C1066 H1079 0.961 . S
C1066 H1080 0.961 . S
C1067 C1064 1.539 . S
C1067 H1081 0.958 . S
C1067 H1082 0.961 . S
C1067 H1083 0.960 . S
H1068 C1052 0.931 . S
H1069 C1057 0.929 1_655 S
H1070 C1058 0.960 . S
H1071 C1058 0.962 . S
H1072 C1058 0.960 . S
H1073 C1059 0.961 . S
H1074 C1059 0.961 . S
H1075 C1059 0.961 . S
H1076 C1060 0.931 . S
H1077 C1065 0.930 . S
H1078 C1066 0.956 . S
H1079 C1066 0.961 . S
H1080 C1066 0.961 . S
H1081 C1067 0.958 . S
H1082 C1067 0.961 . S
H1083 C1067 0.960 . S
C1084 C1085 1.391 . S
C1084 C1086 1.394 . S
C1084 H1100 0.931 . S
C1085 C1084 1.391 . S
C1085 C1089 1.376 . S
C1086 C1084 1.394 . S
C1086 C1087 1.369 . S
C1086 C1090 1.531 . S
C1087 C1086 1.369 . S
C1087 C1088 1.410 . S
C1087 C1095 1.503 . S
C1088 C1087 1.410 . S
C1088 C1089 1.392 . S
C1088 C1091 1.511 1_545 S
C1089 C1085 1.376 . S
C1089 C1088 1.392 . S
C1089 H1101 0.929 1_545 S
C1090 C1086 1.531 . S
C1090 H1102 0.960 . S
C1090 H1103 0.962 . S
C1090 H1104 0.960 . S
C1091 C1088 1.511 1_565 S
C1091 H1105 0.961 . S
C1091 H1106 0.961 . S
C1091 H1107 0.961 . S
C1092 C1093 1.370 . S
C1092 C1094 1.363 . S
C1092 H1108 0.931 . S
C1093 C1092 1.370 . S
C1093 C1097 1.408 . S
C1094 C1092 1.363 . S
C1094 C1095 1.370 . S
C1094 C1098 1.524 . S
C1095 C1087 1.503 . S
C1095 C1094 1.370 . S
C1095 C1096 1.403 . S
C1096 C1095 1.403 . S
C1096 C1097 1.404 . S
C1096 C1099 1.539 . S
C1097 C1093 1.408 . S
C1097 C1096 1.404 . S
C1097 H1109 0.930 . S
C1098 C1094 1.524 . S
C1098 H1110 0.956 . S
C1098 H1111 0.961 . S
C1098 H1112 0.961 . S
C1099 C1096 1.539 . S
C1099 H1113 0.958 . S
C1099 H1114 0.961 . S
C1099 H1115 0.960 . S
H1100 C1084 0.931 . S
H1101 C1089 0.929 1_565 S
H1102 C1090 0.960 . S
H1103 C1090 0.962 . S
H1104 C1090 0.960 . S
H1105 C1091 0.961 . S
H1106 C1091 0.961 . S
H1107 C1091 0.961 . S
H1108 C1092 0.931 . S
H1109 C1097 0.930 . S
H1110 C1098 0.956 . S
H1111 C1098 0.961 . S
H1112 C1098 0.961 . S
H1113 C1099 0.958 . S
H1114 C1099 0.961 . S
H1115 C1099 0.960 . S
C1116 C1117 1.391 . S
C1116 C1118 1.394 . S
C1116 H1132 0.931 . S
C1117 C1116 1.391 . S
C1117 C1121 1.376 . S
C1118 C1116 1.394 . S
C1118 C1119 1.369 . S
C1118 C1122 1.531 . S
C1119 C1118 1.369 . S
C1119 C1120 1.410 . S
C1119 C1127 1.503 . S
C1120 C1119 1.410 . S
C1120 C1121 1.392 . S
C1120 C1123 1.511 . S
C1121 C1117 1.376 . S
C1121 C1120 1.392 . S
C1121 H1133 0.929 . S
C1122 C1118 1.531 . S
C1122 H1134 0.960 . S
C1122 H1135 0.962 . S
C1122 H1136 0.960 . S
C1123 C1120 1.511 . S
C1123 H1137 0.961 . S
C1123 H1138 0.961 . S
C1123 H1139 0.961 . S
C1124 C1125 1.370 . S
C1124 C1126 1.363 . S
C1124 H1140 0.931 . S
C1125 C1124 1.370 . S
C1125 C1129 1.408 . S
C1126 C1124 1.363 . S
C1126 C1127 1.370 . S
C1126 C1130 1.524 . S
C1127 C1119 1.503 . S
C1127 C1126 1.370 . S
C1127 C1128 1.403 . S
C1128 C1127 1.403 . S
C1128 C1129 1.404 . S
C1128 C1131 1.539 . S
C1129 C1125 1.408 . S
C1129 C1128 1.404 . S
C1129 H1141 0.930 . S
C1130 C1126 1.524 . S
C1130 H1142 0.956 . S
C1130 H1143 0.961 . S
C1130 H1144 0.961 . S
C1131 C1128 1.539 . S
C1131 H1145 0.958 . S
C1131 H1146 0.961 . S
C1131 H1147 0.960 . S
H1132 C1116 0.931 . S
H1133 C1121 0.929 . S
H1134 C1122 0.960 . S
H1135 C1122 0.962 . S
H1136 C1122 0.960 . S
H1137 C1123 0.961 . S
H1138 C1123 0.961 . S
H1139 C1123 0.961 . S
H1140 C1124 0.931 . S
H1141 C1129 0.930 . S
H1142 C1130 0.956 . S
H1143 C1130 0.961 . S
H1144 C1130 0.961 . S
H1145 C1131 0.958 . S
H1146 C1131 0.961 . S
H1147 C1131 0.960 . S
C1148 C1149 1.391 . S
C1148 C1150 1.394 . S
C1148 H1164 0.931 . S
C1149 C1148 1.391 . S
C1149 C1153 1.376 . S
C1150 C1148 1.394 . S
C1150 C1151 1.369 . S
C1150 C1154 1.531 . S
C1151 C1150 1.369 . S
C1151 C1152 1.410 . S
C1151 C1159 1.503 . S
C1152 C1151 1.410 . S
C1152 C1153 1.392 . S
C1152 C1155 1.511 . S
C1153 C1149 1.376 . S
C1153 C1152 1.392 . S
C1153 H1165 0.929 . S
C1154 C1150 1.531 . S
C1154 H1166 0.960 . S
C1154 H1167 0.962 . S
C1154 H1168 0.960 . S
C1155 C1152 1.511 . S
C1155 H1169 0.961 . S
C1155 H1170 0.961 . S
C1155 H1171 0.961 . S
C1156 C1157 1.370 . S
C1156 C1158 1.363 . S
C1156 H1172 0.931 . S
C1157 C1156 1.370 . S
C1157 C1161 1.408 . S
C1158 C1156 1.363 . S
C1158 C1159 1.370 . S
C1158 C1162 1.524 . S
C1159 C1151 1.503 . S
C1159 C1158 1.370 . S
C1159 C1160 1.403 . S
C1160 C1159 1.403 . S
C1160 C1161 1.404 . S
C1160 C1163 1.539 . S
C1161 C1157 1.408 . S
C1161 C1160 1.404 . S
C1161 H1173 0.930 . S
C1162 C1158 1.524 . S
C1162 H1174 0.956 . S
C1162 H1175 0.961 . S
C1162 H1176 0.961 . S
C1163 C1160 1.539 . S
C1163 H1177 0.958 . S
C1163 H1178 0.961 . S
C1163 H1179 0.960 . S
H1164 C1148 0.931 . S
H1165 C1153 0.929 . S
H1166 C1154 0.960 . S
H1167 C1154 0.962 . S
H1168 C1154 0.960 . S
H1169 C1155 0.961 . S
H1170 C1155 0.961 . S
H1171 C1155 0.961 . S
H1172 C1156 0.931 . S
H1173 C1161 0.930 . S
H1174 C1162 0.956 . S
H1175 C1162 0.961 . S
H1176 C1162 0.961 . S
H1177 C1163 0.958 . S
H1178 C1163 0.961 . S
H1179 C1163 0.960 . S
C1180 C1181 1.391 . S
C1180 C1182 1.394 . S
C1180 H1196 0.931 . S
C1181 C1180 1.391 . S
C1181 C1185 1.376 . S
C1182 C1180 1.394 . S
C1182 C1183 1.369 . S
C1182 C1186 1.531 . S
C1183 C1182 1.369 . S
C1183 C1184 1.410 . S
C1183 C1191 1.503 . S
C1184 C1183 1.410 . S
C1184 C1185 1.392 . S
C1184 C1187 1.511 . S
C1185 C1181 1.376 . S
C1185 C1184 1.392 . S
C1185 H1197 0.929 . S
C1186 C1182 1.531 . S
C1186 H1198 0.960 . S
C1186 H1199 0.962 . S
C1186 H1200 0.960 . S
C1187 C1184 1.511 . S
C1187 H1201 0.961 . S
C1187 H1202 0.961 . S
C1187 H1203 0.961 . S
C1188 C1189 1.370 . S
C1188 C1190 1.363 . S
C1188 H1204 0.931 . S
C1189 C1188 1.370 . S
C1189 C1193 1.408 . S
C1190 C1188 1.363 . S
C1190 C1191 1.370 . S
C1190 C1194 1.524 . S
C1191 C1183 1.503 . S
C1191 C1190 1.370 . S
C1191 C1192 1.403 . S
C1192 C1191 1.403 . S
C1192 C1193 1.404 . S
C1192 C1195 1.539 . S
C1193 C1189 1.408 . S
C1193 C1192 1.404 . S
C1193 H1205 0.930 . S
C1194 C1190 1.524 . S
C1194 H1206 0.956 . S
C1194 H1207 0.961 . S
C1194 H1208 0.961 . S
C1195 C1192 1.539 . S
C1195 H1209 0.958 . S
C1195 H1210 0.961 . S
C1195 H1211 0.960 . S
H1196 C1180 0.931 . S
H1197 C1185 0.929 . S
H1198 C1186 0.960 . S
H1199 C1186 0.962 . S
H1200 C1186 0.960 . S
H1201 C1187 0.961 . S
H1202 C1187 0.961 . S
H1203 C1187 0.961 . S
H1204 C1188 0.931 . S
H1205 C1193 0.930 . S
H1206 C1194 0.956 . S
H1207 C1194 0.961 . S
H1208 C1194 0.961 . S
H1209 C1195 0.958 . S
H1210 C1195 0.961 . S
H1211 C1195 0.960 . S
C1212 C1213 1.391 . S
C1212 C1214 1.394 . S
C1212 H1228 0.931 . S
C1213 C1212 1.391 . S
C1213 C1217 1.376 . S
C1214 C1212 1.394 . S
C1214 C1215 1.369 . S
C1214 C1218 1.531 . S
C1215 C1214 1.369 . S
C1215 C1216 1.410 . S
C1215 C1223 1.503 . S
C1216 C1215 1.410 . S
C1216 C1217 1.392 . S
C1216 C1219 1.511 . S
C1217 C1213 1.376 . S
C1217 C1216 1.392 . S
C1217 H1229 0.929 . S
C1218 C1214 1.531 . S
C1218 H1230 0.960 . S
C1218 H1231 0.962 . S
C1218 H1232 0.960 . S
C1219 C1216 1.511 . S
C1219 H1233 0.961 . S
C1219 H1234 0.961 . S
C1219 H1235 0.961 . S
C1220 C1221 1.370 . S
C1220 C1222 1.363 . S
C1220 H1236 0.931 . S
C1221 C1220 1.370 . S
C1221 C1225 1.408 . S
C1222 C1220 1.363 . S
C1222 C1223 1.370 . S
C1222 C1226 1.524 . S
C1223 C1215 1.503 . S
C1223 C1222 1.370 . S
C1223 C1224 1.403 . S
C1224 C1223 1.403 . S
C1224 C1225 1.404 . S
C1224 C1227 1.539 . S
C1225 C1221 1.408 . S
C1225 C1224 1.404 . S
C1225 H1237 0.930 . S
C1226 C1222 1.524 . S
C1226 H1238 0.956 . S
C1226 H1239 0.961 . S
C1226 H1240 0.961 . S
C1227 C1224 1.539 . S
C1227 H1241 0.958 . S
C1227 H1242 0.961 . S
C1227 H1243 0.960 . S
H1228 C1212 0.931 . S
H1229 C1217 0.929 . S
H1230 C1218 0.960 . S
H1231 C1218 0.962 . S
H1232 C1218 0.960 . S
H1233 C1219 0.961 . S
H1234 C1219 0.961 . S
H1235 C1219 0.961 . S
H1236 C1220 0.931 . S
H1237 C1225 0.930 . S
H1238 C1226 0.956 . S
H1239 C1226 0.961 . S
H1240 C1226 0.961 . S
H1241 C1227 0.958 . S
H1242 C1227 0.961 . S
H1243 C1227 0.960 . S
C1244 C1245 1.391 . S
C1244 C1246 1.394 . S
C1244 H1260 0.931 . S
C1245 C1244 1.391 . S
C1245 C1249 1.376 . S
C1246 C1244 1.394 . S
C1246 C1247 1.369 . S
C1246 C1250 1.531 . S
C1247 C1246 1.369 . S
C1247 C1248 1.410 . S
C1247 C1255 1.503 . S
C1248 C1247 1.410 . S
C1248 C1249 1.392 . S
C1248 C1251 1.511 . S
C1249 C1245 1.376 . S
C1249 C1248 1.392 . S
C1249 H1261 0.929 . S
C1250 C1246 1.531 . S
C1250 H1262 0.960 . S
C1250 H1263 0.962 . S
C1250 H1264 0.960 . S
C1251 C1248 1.511 . S
C1251 H1265 0.961 . S
C1251 H1266 0.961 . S
C1251 H1267 0.961 . S
C1252 C1253 1.370 . S
C1252 C1254 1.363 . S
C1252 H1268 0.931 . S
C1253 C1252 1.370 . S
C1253 C1257 1.408 . S
C1254 C1252 1.363 . S
C1254 C1255 1.370 . S
C1254 C1258 1.524 . S
C1255 C1247 1.503 . S
C1255 C1254 1.370 . S
C1255 C1256 1.403 . S
C1256 C1255 1.403 . S
C1256 C1257 1.404 . S
C1256 C1259 1.539 . S
C1257 C1253 1.408 . S
C1257 C1256 1.404 . S
C1257 H1269 0.930 . S
C1258 C1254 1.524 . S
C1258 H1270 0.956 . S
C1258 H1271 0.961 . S
C1258 H1272 0.961 . S
C1259 C1256 1.539 . S
C1259 H1273 0.958 . S
C1259 H1274 0.961 . S
C1259 H1275 0.960 . S
H1260 C1244 0.931 . S
H1261 C1249 0.929 . S
H1262 C1250 0.960 . S
H1263 C1250 0.962 . S
H1264 C1250 0.960 . S
H1265 C1251 0.961 . S
H1266 C1251 0.961 . S
H1267 C1251 0.961 . S
H1268 C1252 0.931 . S
H1269 C1257 0.930 . S
H1270 C1258 0.956 . S
H1271 C1258 0.961 . S
H1272 C1258 0.961 . S
H1273 C1259 0.958 . S
H1274 C1259 0.961 . S
H1275 C1259 0.960 . S
C1276 C1277 1.391 . S
C1276 C1278 1.394 . S
C1276 H1292 0.931 . S
C1277 C1276 1.391 . S
C1277 C1281 1.376 . S
C1278 C1276 1.394 . S
C1278 C1279 1.369 . S
C1278 C1282 1.531 . S
C1279 C1278 1.369 . S
C1279 C1280 1.410 . S
C1279 C1287 1.503 . S
C1280 C1279 1.410 . S
C1280 C1281 1.392 . S
C1280 C1283 1.511 . S
C1281 C1277 1.376 . S
C1281 C1280 1.392 . S
C1281 H1293 0.929 . S
C1282 C1278 1.531 . S
C1282 H1294 0.960 . S
C1282 H1295 0.962 . S
C1282 H1296 0.960 . S
C1283 C1280 1.511 . S
C1283 H1297 0.961 . S
C1283 H1298 0.961 . S
C1283 H1299 0.961 . S
C1284 C1285 1.370 . S
C1284 C1286 1.363 . S
C1284 H1300 0.931 . S
C1285 C1284 1.370 . S
C1285 C1289 1.408 . S
C1286 C1284 1.363 . S
C1286 C1287 1.370 . S
C1286 C1290 1.524 . S
C1287 C1279 1.503 . S
C1287 C1286 1.370 . S
C1287 C1288 1.403 . S
C1288 C1287 1.403 . S
C1288 C1289 1.404 . S
C1288 C1291 1.539 . S
C1289 C1285 1.408 . S
C1289 C1288 1.404 . S
C1289 H1301 0.930 . S
C1290 C1286 1.524 . S
C1290 H1302 0.956 . S
C1290 H1303 0.961 . S
C1290 H1304 0.961 . S
C1291 C1288 1.539 . S
C1291 H1305 0.958 . S
C1291 H1306 0.961 . S
C1291 H1307 0.960 . S
H1292 C1276 0.931 . S
H1293 C1281 0.929 . S
H1294 C1282 0.960 . S
H1295 C1282 0.962 . S
H1296 C1282 0.960 . S
H1297 C1283 0.961 . S
H1298 C1283 0.961 . S
H1299 C1283 0.961 . S
H1300 C1284 0.931 . S
H1301 C1289 0.930 . S
H1302 C1290 0.956 . S
H1303 C1290 0.961 . S
H1304 C1290 0.961 . S
H1305 C1291 0.958 . S
H1306 C1291 0.961 . S
H1307 C1291 0.960 . S
C1308 C1309 1.391 . S
C1308 C1310 1.394 1_556 S
C1308 H1324 0.932 . S
C1309 C1308 1.391 . S
C1309 C1313 1.376 . S
C1310 C1308 1.394 1_554 S
C1310 C1311 1.369 1_554 S
C1310 C1314 1.531 . S
C1311 C1310 1.369 1_556 S
C1311 C1312 1.410 . S
C1311 C1319 1.503 1_556 S
C1312 C1311 1.410 . S
C1312 C1313 1.392 . S
C1312 C1315 1.511 . S
C1313 C1309 1.376 . S
C1313 C1312 1.392 . S
C1313 H1325 0.929 . S
C1314 C1310 1.531 . S
C1314 H1326 0.960 . S
C1314 H1327 0.962 . S
C1314 H1328 0.960 . S
C1315 C1312 1.511 . S
C1315 H1329 0.961 . S
C1315 H1330 0.961 . S
C1315 H1331 0.961 . S
C1316 C1317 1.370 1_556 S
C1316 C1318 1.363 . S
C1316 H1332 0.931 . S
C1317 C1316 1.370 1_554 S
C1317 C1321 1.408 . S
C1318 C1316 1.363 . S
C1318 C1319 1.370 1_556 S
C1318 C1322 1.524 . S
C1319 C1311 1.503 1_554 S
C1319 C1318 1.370 1_554 S
C1319 C1320 1.403 . S
C1320 C1319 1.403 . S
C1320 C1321 1.404 . S
C1320 C1323 1.539 . S
C1321 C1317 1.408 . S
C1321 C1320 1.404 . S
C1321 H1333 0.930 . S
C1322 C1318 1.524 . S
C1322 H1334 0.956 . S
C1322 H1335 0.961 . S
C1322 H1336 0.961 . S
C1323 C1320 1.539 . S
C1323 H1337 0.958 . S
C1323 H1338 0.961 . S
C1323 H1339 0.960 . S
H1324 C1308 0.932 . S
H1325 C1313 0.929 . S
H1326 C1314 0.960 . S
H1327 C1314 0.962 . S
H1328 C1314 0.960 . S
H1329 C1315 0.961 . S
H1330 C1315 0.961 . S
H1331 C1315 0.961 . S
H1332 C1316 0.931 . S
H1333 C1321 0.930 . S
H1334 C1322 0.956 . S
H1335 C1322 0.961 . S
H1336 C1322 0.961 . S
H1337 C1323 0.958 . S
H1338 C1323 0.961 . S
H1339 C1323 0.960 . S
C1340 C1341 1.391 . S
C1340 C1342 1.394 . S
C1340 H1356 0.931 . S
C1341 C1340 1.391 . S
C1341 C1345 1.376 . S
C1342 C1340 1.394 . S
C1342 C1343 1.369 . S
C1342 C1346 1.531 . S
C1343 C1342 1.369 . S
C1343 C1344 1.410 . S
C1343 C1351 1.503 . S
C1344 C1343 1.410 . S
C1344 C1345 1.392 . S
C1344 C1347 1.511 . S
C1345 C1341 1.376 . S
C1345 C1344 1.392 . S
C1345 H1357 0.929 . S
C1346 C1342 1.531 . S
C1346 H1358 0.960 . S
C1346 H1359 0.962 . S
C1346 H1360 0.960 . S
C1347 C1344 1.511 . S
C1347 H1361 0.961 . S
C1347 H1362 0.961 . S
C1347 H1363 0.961 . S
C1348 C1349 1.370 . S
C1348 C1350 1.363 . S
C1348 H1364 0.931 . S
C1349 C1348 1.370 . S
C1349 C1353 1.408 . S
C1350 C1348 1.363 . S
C1350 C1351 1.370 . S
C1350 C1354 1.524 . S
C1351 C1343 1.503 . S
C1351 C1350 1.370 . S
C1351 C1352 1.403 . S
C1352 C1351 1.403 . S
C1352 C1353 1.404 . S
C1352 C1355 1.539 . S
C1353 C1349 1.408 . S
C1353 C1352 1.404 . S
C1353 H1365 0.930 . S
C1354 C1350 1.524 . S
C1354 H1366 0.956 . S
C1354 H1367 0.961 . S
C1354 H1368 0.961 . S
C1355 C1352 1.539 . S
C1355 H1369 0.958 . S
C1355 H1370 0.961 . S
C1355 H1371 0.960 . S
H1356 C1340 0.931 . S
H1357 C1345 0.929 . S
H1358 C1346 0.960 . S
H1359 C1346 0.962 . S
H1360 C1346 0.960 . S
H1361 C1347 0.961 . S
H1362 C1347 0.961 . S
H1363 C1347 0.961 . S
H1364 C1348 0.931 . S
H1365 C1353 0.930 . S
H1366 C1354 0.956 . S
H1367 C1354 0.961 . S
H1368 C1354 0.961 . S
H1369 C1355 0.958 . S
H1370 C1355 0.961 . S
H1371 C1355 0.960 . S
C1372 C1373 1.391 . S
C1372 C1374 1.394 . S
C1372 H1388 0.931 . S
C1373 C1372 1.391 . S
C1373 C1377 1.376 . S
C1374 C1372 1.394 . S
C1374 C1375 1.369 . S
C1374 C1378 1.531 . S
C1375 C1374 1.369 . S
C1375 C1376 1.410 . S
C1375 C1383 1.503 . S
C1376 C1375 1.410 . S
C1376 C1377 1.392 . S
C1376 C1379 1.511 . S
C1377 C1373 1.376 . S
C1377 C1376 1.392 . S
C1377 H1389 0.929 . S
C1378 C1374 1.531 . S
C1378 H1390 0.960 . S
C1378 H1391 0.962 . S
C1378 H1392 0.960 . S
C1379 C1376 1.511 . S
C1379 H1393 0.961 . S
C1379 H1394 0.961 . S
C1379 H1395 0.961 . S
C1380 C1381 1.370 . S
C1380 C1382 1.363 . S
C1380 H1396 0.931 . S
C1381 C1380 1.370 . S
C1381 C1385 1.408 . S
C1382 C1380 1.363 . S
C1382 C1383 1.370 . S
C1382 C1386 1.524 . S
C1383 C1375 1.503 . S
C1383 C1382 1.370 . S
C1383 C1384 1.403 . S
C1384 C1383 1.403 . S
C1384 C1385 1.404 . S
C1384 C1387 1.539 . S
C1385 C1381 1.408 . S
C1385 C1384 1.404 . S
C1385 H1397 0.930 . S
C1386 C1382 1.524 . S
C1386 H1398 0.956 . S
C1386 H1399 0.961 . S
C1386 H1400 0.961 . S
C1387 C1384 1.539 . S
C1387 H1401 0.958 . S
C1387 H1402 0.961 . S
C1387 H1403 0.960 . S
H1388 C1372 0.931 . S
H1389 C1377 0.929 . S
H1390 C1378 0.960 . S
H1391 C1378 0.962 . S
H1392 C1378 0.960 . S
H1393 C1379 0.961 . S
H1394 C1379 0.961 . S
H1395 C1379 0.961 . S
H1396 C1380 0.931 . S
H1397 C1385 0.930 . S
H1398 C1386 0.956 . S
H1399 C1386 0.961 . S
H1400 C1386 0.961 . S
H1401 C1387 0.958 . S
H1402 C1387 0.961 . S
H1403 C1387 0.960 . S
C1404 C1405 1.391 . S
C1404 C1406 1.394 . S
C1404 H1420 0.931 . S
C1405 C1404 1.391 . S
C1405 C1409 1.376 . S
C1406 C1404 1.394 . S
C1406 C1407 1.369 . S
C1406 C1410 1.531 . S
C1407 C1406 1.369 . S
C1407 C1408 1.410 . S
C1407 C1415 1.503 . S
C1408 C1407 1.410 . S
C1408 C1409 1.392 . S
C1408 C1411 1.511 . S
C1409 C1405 1.376 . S
C1409 C1408 1.392 . S
C1409 H1421 0.929 . S
C1410 C1406 1.531 . S
C1410 H1422 0.960 . S
C1410 H1423 0.962 . S
C1410 H1424 0.960 . S
C1411 C1408 1.511 . S
C1411 H1425 0.961 . S
C1411 H1426 0.961 . S
C1411 H1427 0.961 . S
C1412 C1413 1.370 . S
C1412 C1414 1.363 . S
C1412 H1428 0.931 . S
C1413 C1412 1.370 . S
C1413 C1417 1.408 . S
C1414 C1412 1.363 . S
C1414 C1415 1.370 . S
C1414 C1418 1.524 . S
C1415 C1407 1.503 . S
C1415 C1414 1.370 . S
C1415 C1416 1.403 . S
C1416 C1415 1.403 . S
C1416 C1417 1.404 . S
C1416 C1419 1.539 . S
C1417 C1413 1.408 . S
C1417 C1416 1.404 . S
C1417 H1429 0.930 . S
C1418 C1414 1.524 . S
C1418 H1430 0.956 . S
C1418 H1431 0.961 . S
C1418 H1432 0.961 . S
C1419 C1416 1.539 . S
C1419 H1433 0.958 . S
C1419 H1434 0.961 . S
C1419 H1435 0.960 . S
H1420 C1404 0.931 . S
H1421 C1409 0.929 . S
H1422 C1410 0.960 . S
H1423 C1410 0.962 . S
H1424 C1410 0.960 . S
H1425 C1411 0.961 . S
H1426 C1411 0.961 . S
H1427 C1411 0.961 . S
H1428 C1412 0.931 . S
H1429 C1417 0.930 . S
H1430 C1418 0.956 . S
H1431 C1418 0.961 . S
H1432 C1418 0.961 . S
H1433 C1419 0.958 . S
H1434 C1419 0.961 . S
H1435 C1419 0.960 . S
C1436 C1437 1.391 . S
C1436 C1438 1.394 . S
C1436 H1452 0.931 . S
C1437 C1436 1.391 . S
C1437 C1441 1.376 . S
C1438 C1436 1.394 . S
C1438 C1439 1.369 . S
C1438 C1442 1.531 . S
C1439 C1438 1.369 . S
C1439 C1440 1.410 . S
C1439 C1447 1.503 . S
C1440 C1439 1.410 . S
C1440 C1441 1.392 . S
C1440 C1443 1.511 . S
C1441 C1437 1.376 . S
C1441 C1440 1.392 . S
C1441 H1453 0.929 . S
C1442 C1438 1.531 . S
C1442 H1454 0.960 . S
C1442 H1455 0.962 . S
C1442 H1456 0.960 . S
C1443 C1440 1.511 . S
C1443 H1457 0.961 . S
C1443 H1458 0.961 . S
C1443 H1459 0.961 . S
C1444 C1445 1.370 . S
C1444 C1446 1.363 . S
C1444 H1460 0.931 . S
C1445 C1444 1.370 . S
C1445 C1449 1.408 . S
C1446 C1444 1.363 . S
C1446 C1447 1.370 . S
C1446 C1450 1.524 . S
C1447 C1439 1.503 . S
C1447 C1446 1.370 . S
C1447 C1448 1.403 . S
C1448 C1447 1.403 . S
C1448 C1449 1.404 . S
C1448 C1451 1.539 . S
C1449 C1445 1.408 . S
C1449 C1448 1.404 . S
C1449 H1461 0.930 . S
C1450 C1446 1.524 . S
C1450 H1462 0.956 . S
C1450 H1463 0.961 . S
C1450 H1464 0.961 . S
C1451 C1448 1.539 . S
C1451 H1465 0.958 . S
C1451 H1466 0.961 . S
C1451 H1467 0.960 . S
H1452 C1436 0.931 . S
H1453 C1441 0.929 . S
H1454 C1442 0.960 . S
H1455 C1442 0.962 . S
H1456 C1442 0.960 . S
H1457 C1443 0.961 . S
H1458 C1443 0.961 . S
H1459 C1443 0.961 . S
H1460 C1444 0.931 . S
H1461 C1449 0.930 . S
H1462 C1450 0.956 . S
H1463 C1450 0.961 . S
H1464 C1450 0.961 . S
H1465 C1451 0.958 . S
H1466 C1451 0.961 . S
H1467 C1451 0.960 . S
C1468 C1469 1.391 . S
C1468 C1470 1.394 . S
C1468 H1484 0.931 . S
C1469 C1468 1.391 . S
C1469 C1473 1.376 . S
C1470 C1468 1.394 . S
C1470 C1471 1.369 . S
C1470 C1474 1.531 . S
C1471 C1470 1.369 . S
C1471 C1472 1.410 . S
C1471 C1479 1.503 . S
C1472 C1471 1.410 . S
C1472 C1473 1.392 . S
C1472 C1475 1.511 . S
C1473 C1469 1.376 . S
C1473 C1472 1.392 . S
C1473 H1485 0.929 . S
C1474 C1470 1.531 . S
C1474 H1486 0.960 . S
C1474 H1487 0.962 . S
C1474 H1488 0.960 . S
C1475 C1472 1.511 . S
C1475 H1489 0.961 . S
C1475 H1490 0.961 . S
C1475 H1491 0.961 . S
C1476 C1477 1.370 . S
C1476 C1478 1.363 . S
C1476 H1492 0.931 . S
C1477 C1476 1.370 . S
C1477 C1481 1.408 . S
C1478 C1476 1.363 . S
C1478 C1479 1.370 . S
C1478 C1482 1.524 . S
C1479 C1471 1.503 . S
C1479 C1478 1.370 . S
C1479 C1480 1.403 . S
C1480 C1479 1.403 . S
C1480 C1481 1.404 . S
C1480 C1483 1.539 . S
C1481 C1477 1.408 . S
C1481 C1480 1.404 . S
C1481 H1493 0.930 . S
C1482 C1478 1.524 . S
C1482 H1494 0.956 . S
C1482 H1495 0.961 . S
C1482 H1496 0.961 . S
C1483 C1480 1.539 . S
C1483 H1497 0.958 . S
C1483 H1498 0.961 . S
C1483 H1499 0.960 . S
H1484 C1468 0.931 . S
H1485 C1473 0.929 . S
H1486 C1474 0.960 . S
H1487 C1474 0.962 . S
H1488 C1474 0.960 . S
H1489 C1475 0.961 . S
H1490 C1475 0.961 . S
H1491 C1475 0.961 . S
H1492 C1476 0.931 . S
H1493 C1481 0.930 . S
H1494 C1482 0.956 . S
H1495 C1482 0.961 . S
H1496 C1482 0.961 . S
H1497 C1483 0.958 . S
H1498 C1483 0.961 . S
H1499 C1483 0.960 . S
C1500 C1501 1.391 . S
C1500 C1502 1.394 . S
C1500 H1516 0.931 . S
C1501 C1500 1.391 . S
C1501 C1505 1.376 . S
C1502 C1500 1.394 . S
C1502 C1503 1.369 . S
C1502 C1506 1.531 . S
C1503 C1502 1.369 . S
C1503 C1504 1.410 . S
C1503 C1511 1.503 . S
C1504 C1503 1.410 . S
C1504 C1505 1.392 . S
C1504 C1507 1.511 . S
C1505 C1501 1.376 . S
C1505 C1504 1.392 . S
C1505 H1517 0.929 . S
C1506 C1502 1.531 . S
C1506 H1518 0.960 . S
C1506 H1519 0.962 . S
C1506 H1520 0.960 . S
C1507 C1504 1.511 . S
C1507 H1521 0.961 . S
C1507 H1522 0.961 . S
C1507 H1523 0.961 . S
C1508 C1509 1.370 . S
C1508 C1510 1.363 . S
C1508 H1524 0.931 . S
C1509 C1508 1.370 . S
C1509 C1513 1.408 . S
C1510 C1508 1.363 . S
C1510 C1511 1.370 . S
C1510 C1514 1.524 . S
C1511 C1503 1.503 . S
C1511 C1510 1.370 . S
C1511 C1512 1.403 . S
C1512 C1511 1.403 . S
C1512 C1513 1.404 . S
C1512 C1515 1.539 . S
C1513 C1509 1.408 . S
C1513 C1512 1.404 . S
C1513 H1525 0.930 . S
C1514 C1510 1.524 . S
C1514 H1526 0.956 . S
C1514 H1527 0.961 . S
C1514 H1528 0.961 . S
C1515 C1512 1.539 . S
C1515 H1529 0.958 . S
C1515 H1530 0.961 . S
C1515 H1531 0.960 . S
H1516 C1500 0.931 . S
H1517 C1505 0.929 . S
H1518 C1506 0.960 . S
H1519 C1506 0.962 . S
H1520 C1506 0.960 . S
H1521 C1507 0.961 . S
H1522 C1507 0.961 . S
H1523 C1507 0.961 . S
H1524 C1508 0.931 . S
H1525 C1513 0.930 . S
H1526 C1514 0.956 . S
H1527 C1514 0.961 . S
H1528 C1514 0.961 . S
H1529 C1515 0.958 . S
H1530 C1515 0.961 . S
H1531 C1515 0.960 . S
C1532 C1533 1.391 1_554 S
C1532 C1534 1.394 . S
C1532 H1548 0.931 . S
C1533 C1532 1.391 1_556 S
C1533 C1537 1.376 . S
C1534 C1532 1.394 . S
C1534 C1535 1.355 1_554 S
C1534 C1538 1.531 . S
C1535 C1534 1.355 1_556 S
C1535 C1536 1.431 . S
C1535 C1543 1.497 1_556 S
C1536 C1535 1.431 . S
C1536 C1537 1.392 . S
C1536 C1539 1.511 . S
C1537 C1533 1.376 . S
C1537 C1536 1.392 . S
C1537 H1549 0.929 . S
C1538 C1534 1.531 . S
C1538 H1550 0.960 . S
C1538 H1551 0.962 . S
C1538 H1552 0.960 . S
C1539 C1536 1.511 . S
C1539 H1553 0.961 . S
C1539 H1554 0.961 . S
C1539 H1555 0.961 . S
C1540 C1541 1.370 . S
C1540 C1542 1.365 1_554 S
C1540 H1556 0.931 . S
C1541 C1540 1.370 . S
C1541 C1545 1.408 . S
C1542 C1540 1.365 1_556 S
C1542 C1543 1.372 1_556 S
C1542 C1546 1.521 . S
C1543 C1535 1.497 1_554 S
C1543 C1542 1.372 1_554 S
C1543 C1544 1.403 . S
C1544 C1543 1.403 . S
C1544 C1545 1.404 . S
C1544 C1547 1.539 . S
C1545 C1541 1.408 . S
C1545 C1544 1.404 . S
C1545 H1557 0.930 . S
C1546 C1542 1.521 . S
C1546 H1558 0.956 . S
C1546 H1559 0.961 . S
C1546 H1560 0.961 . S
C1547 C1544 1.539 . S
C1547 H1561 0.958 . S
C1547 H1562 0.961 . S
C1547 H1563 0.960 . S
H1548 C1532 0.931 . S
H1549 C1537 0.929 . S
H1550 C1538 0.960 . S
H1551 C1538 0.962 . S
H1552 C1538 0.960 . S
H1553 C1539 0.961 . S
H1554 C1539 0.961 . S
H1555 C1539 0.961 . S
H1556 C1540 0.931 . S
H1557 C1545 0.930 . S
H1558 C1546 0.956 . S
H1559 C1546 0.961 . S
H1560 C1546 0.961 . S
H1561 C1547 0.958 . S
H1562 C1547 0.961 . S
H1563 C1547 0.960 . S
C1564 C1565 1.391 . S
C1564 C1566 1.394 . S
C1564 H1580 0.931 . S
C1565 C1564 1.391 . S
C1565 C1569 1.376 . S
C1566 C1564 1.394 . S
C1566 C1567 1.369 . S
C1566 C1570 1.531 . S
C1567 C1566 1.369 . S
C1567 C1568 1.410 . S
C1567 C1575 1.503 . S
C1568 C1567 1.410 . S
C1568 C1569 1.392 . S
C1568 C1571 1.511 . S
C1569 C1565 1.376 . S
C1569 C1568 1.392 . S
C1569 H1581 0.929 . S
C1570 C1566 1.531 . S
C1570 H1582 0.960 . S
C1570 H1583 0.962 . S
C1570 H1584 0.960 . S
C1571 C1568 1.511 . S
C1571 H1585 0.961 . S
C1571 H1586 0.961 . S
C1571 H1587 0.961 . S
C1572 C1573 1.370 . S
C1572 C1574 1.363 . S
C1572 H1588 0.931 . S
C1573 C1572 1.370 . S
C1573 C1577 1.408 . S
C1574 C1572 1.363 . S
C1574 C1575 1.370 . S
C1574 C1578 1.524 . S
C1575 C1567 1.503 . S
C1575 C1574 1.370 . S
C1575 C1576 1.403 . S
C1576 C1575 1.403 . S
C1576 C1577 1.404 . S
C1576 C1579 1.539 . S
C1577 C1573 1.408 . S
C1577 C1576 1.404 . S
C1577 H1589 0.930 1_545 S
C1578 C1574 1.524 . S
C1578 H1590 0.956 . S
C1578 H1591 0.961 . S
C1578 H1592 0.961 . S
C1579 C1576 1.539 . S
C1579 H1593 0.958 . S
C1579 H1594 0.961 . S
C1579 H1595 0.960 . S
H1580 C1564 0.931 . S
H1581 C1569 0.929 . S
H1582 C1570 0.960 . S
H1583 C1570 0.962 . S
H1584 C1570 0.960 . S
H1585 C1571 0.961 . S
H1586 C1571 0.961 . S
H1587 C1571 0.961 . S
H1588 C1572 0.931 . S
H1589 C1577 0.930 1_565 S
H1590 C1578 0.956 . S
H1591 C1578 0.961 . S
H1592 C1578 0.961 . S
H1593 C1579 0.958 . S
H1594 C1579 0.961 . S
H1595 C1579 0.960 . S
C1596 C1597 1.391 . S
C1596 C1598 1.394 . S
C1596 H1612 0.931 . S
C1597 C1596 1.391 . S
C1597 C1601 1.376 . S
C1598 C1596 1.394 . S
C1598 C1599 1.369 . S
C1598 C1602 1.531 . S
C1599 C1598 1.369 . S
C1599 C1600 1.410 . S
C1599 C1607 1.503 . S
C1600 C1599 1.410 . S
C1600 C1601 1.392 . S
C1600 C1603 1.511 . S
C1601 C1597 1.376 . S
C1601 C1600 1.392 . S
C1601 H1613 0.929 . S
C1602 C1598 1.531 . S
C1602 H1614 0.960 . S
C1602 H1615 0.962 . S
C1602 H1616 0.960 . S
C1603 C1600 1.511 . S
C1603 H1617 0.961 . S
C1603 H1618 0.961 . S
C1603 H1619 0.961 . S
C1604 C1605 1.370 . S
C1604 C1606 1.363 . S
C1604 H1620 0.931 . S
C1605 C1604 1.370 . S
C1605 C1609 1.408 . S
C1606 C1604 1.363 . S
C1606 C1607 1.370 . S
C1606 C1610 1.524 . S
C1607 C1599 1.503 . S
C1607 C1606 1.370 . S
C1607 C1608 1.403 . S
C1608 C1607 1.403 . S
C1608 C1609 1.404 . S
C1608 C1611 1.539 . S
C1609 C1605 1.408 . S
C1609 C1608 1.404 . S
C1609 H1621 0.930 . S
C1610 C1606 1.524 . S
C1610 H1622 0.956 . S
C1610 H1623 0.961 . S
C1610 H1624 0.961 . S
C1611 C1608 1.539 . S
C1611 H1625 0.958 . S
C1611 H1626 0.961 . S
C1611 H1627 0.960 . S
H1612 C1596 0.931 . S
H1613 C1601 0.929 . S
H1614 C1602 0.960 . S
H1615 C1602 0.962 . S
H1616 C1602 0.960 . S
H1617 C1603 0.961 . S
H1618 C1603 0.961 . S
H1619 C1603 0.961 . S
H1620 C1604 0.931 . S
H1621 C1609 0.930 . S
H1622 C1610 0.956 . S
H1623 C1610 0.961 . S
H1624 C1610 0.961 . S
H1625 C1611 0.958 . S
H1626 C1611 0.961 . S
H1627 C1611 0.960 . S
C1628 C1629 1.391 . S
C1628 C1630 1.394 . S
C1628 H1644 0.931 . S
C1629 C1628 1.391 . S
C1629 C1633 1.376 . S
C1630 C1628 1.394 . S
C1630 C1631 1.369 . S
C1630 C1634 1.531 . S
C1631 C1630 1.369 . S
C1631 C1632 1.410 . S
C1631 C1639 1.503 . S
C1632 C1631 1.410 . S
C1632 C1633 1.392 . S
C1632 C1635 1.511 . S
C1633 C1629 1.376 . S
C1633 C1632 1.392 . S
C1633 H1645 0.929 1_655 S
C1634 C1630 1.531 . S
C1634 H1646 0.960 . S
C1634 H1647 0.962 . S
C1634 H1648 0.960 . S
C1635 C1632 1.511 . S
C1635 H1649 0.961 . S
C1635 H1650 0.961 . S
C1635 H1651 0.961 . S
C1636 C1637 1.370 . S
C1636 C1638 1.363 . S
C1636 H1652 0.931 . S
C1637 C1636 1.370 . S
C1637 C1641 1.408 . S
C1638 C1636 1.363 . S
C1638 C1639 1.370 . S
C1638 C1642 1.524 . S
C1639 C1631 1.503 . S
C1639 C1638 1.370 . S
C1639 C1640 1.403 . S
C1640 C1639 1.403 . S
C1640 C1641 1.404 . S
C1640 C1643 1.539 . S
C1641 C1637 1.408 . S
C1641 C1640 1.404 . S
C1641 H1653 0.930 . S
C1642 C1638 1.524 . S
C1642 H1654 0.956 . S
C1642 H1655 0.961 . S
C1642 H1656 0.961 . S
C1643 C1640 1.539 . S
C1643 H1657 0.958 . S
C1643 H1658 0.961 . S
C1643 H1659 0.960 . S
H1644 C1628 0.931 . S
H1645 C1633 0.929 1_455 S
H1646 C1634 0.960 . S
H1647 C1634 0.962 . S
H1648 C1634 0.960 . S
H1649 C1635 0.961 . S
H1650 C1635 0.961 . S
H1651 C1635 0.961 . S
H1652 C1636 0.931 . S
H1653 C1641 0.930 . S
H1654 C1642 0.956 . S
H1655 C1642 0.961 . S
H1656 C1642 0.961 . S
H1657 C1643 0.958 . S
H1658 C1643 0.961 . S
H1659 C1643 0.960 . S
C1660 C1661 1.391 . S
C1660 C1662 1.394 . S
C1660 H1676 0.931 . S
C1661 C1660 1.391 . S
C1661 C1665 1.376 . S
C1662 C1660 1.394 . S
C1662 C1663 1.369 . S
C1662 C1666 1.531 . S
C1663 C1662 1.369 . S
C1663 C1664 1.410 . S
C1663 C1671 1.503 . S
C1664 C1663 1.410 . S
C1664 C1665 1.392 . S
C1664 C1667 1.511 . S
C1665 C1661 1.376 . S
C1665 C1664 1.392 . S
C1665 H1677 0.929 . S
C1666 C1662 1.531 . S
C1666 H1678 0.960 . S
C1666 H1679 0.962 . S
C1666 H1680 0.960 . S
C1667 C1664 1.511 . S
C1667 H1681 0.961 . S
C1667 H1682 0.961 . S
C1667 H1683 0.961 . S
C1668 C1669 1.370 . S
C1668 C1670 1.363 . S
C1668 H1684 0.931 . S
C1669 C1668 1.370 . S
C1669 C1673 1.408 . S
C1670 C1668 1.363 . S
C1670 C1671 1.370 . S
C1670 C1674 1.524 . S
C1671 C1663 1.503 . S
C1671 C1670 1.370 . S
C1671 C1672 1.403 . S
C1672 C1671 1.403 . S
C1672 C1673 1.404 . S
C1672 C1675 1.539 . S
C1673 C1669 1.408 . S
C1673 C1672 1.404 . S
C1673 H1685 0.930 . S
C1674 C1670 1.524 . S
C1674 H1686 0.956 . S
C1674 H1687 0.961 . S
C1674 H1688 0.961 . S
C1675 C1672 1.539 . S
C1675 H1689 0.958 . S
C1675 H1690 0.961 . S
C1675 H1691 0.960 . S
H1676 C1660 0.931 . S
H1677 C1665 0.929 . S
H1678 C1666 0.960 . S
H1679 C1666 0.962 . S
H1680 C1666 0.960 . S
H1681 C1667 0.961 . S
H1682 C1667 0.961 . S
H1683 C1667 0.961 . S
H1684 C1668 0.931 . S
H1685 C1673 0.930 . S
H1686 C1674 0.956 . S
H1687 C1674 0.961 . S
H1688 C1674 0.961 . S
H1689 C1675 0.958 . S
H1690 C1675 0.961 . S
H1691 C1675 0.960 . S
C349 C21 1.496 . S
C357 C253 1.458 . S
C381 C50 1.423 . S
C389 C282 1.490 . S
C413 C311 1.441 . S
C421 C79 1.481 . S
C445 C108 1.444 . S
C453 C340 1.479 . S
C477 C137 1.453 . S
C485 C195 1.476 . S
C509 C166 1.432 . S
C517 C224 1.485 . S
C541 C148 0.444 . S
C549 C15 0.533 . S
C573 C44 0.499 . S
C581 C3 0.461 . S
C605 C73 0.573 . S
C613 C32 0.448 . S
C637 C61 0.429 . S
C645 C102 0.511 . S
C669 C90 0.433 . S
C677 C131 0.458 . S
C701 C119 0.481 . S
C709 C160 0.521 . S
C733 C189 0.569 . S
C741 C206 0.445 . S
C765 C235 0.429 . S
C773 C218 0.459 1_554 S
C797 C264 0.425 . S
C805 C247 0.461 . S
C829 C293 0.421 . S
C837 C276 0.465 . S
C861 C322 0.486 . S
C869 C305 0.512 . S
C893 C334 0.443 . S
C901 C177 0.432 . S
C925 C8 0.552 . S
C933 C182 0.536 . S
C957 C37 0.632 . S
C965 C211 0.576 . S
C989 C240 0.626 . S
C997 C66 0.584 . S
C1021 C269 0.453 . S
C1029 C95 0.512 . S
C1053 C124 0.600 . S
C1061 C298 0.558 . S
C1085 C153 0.597 . S
C1093 C327 0.556 . S
C1117 C245 1.629 . S
C1125 C13 1.658 . S
C1149 C274 1.668 . S
C1157 C42 1.659 . S
C1181 C303 1.644 . S
C1189 C71 1.661 . S
C1213 C100 1.616 . S
C1221 C332 1.651 . S
C1245 C187 1.621 . S
C1253 C129 1.639 . S
C1277 C216 1.614 . S
C1285 C158 1.643 . S
C1309 C208 3.136 . S
C1317 C10 3.273 . S
C1341 C237 3.143 . S
C1349 C39 3.274 1_455 S
C1373 C266 3.157 . S
C1381 C68 3.273 1_545 S
C1405 C295 3.140 . S
C1413 C97 3.275 . S
C1437 C324 3.151 . S
C1445 C126 3.274 1_655 S
C1469 C179 3.148 . S
C1477 C155 3.274 1_565 S
C1501 C184 3.264 . S
C1509 C150 3.156 . S
C1533 C213 3.264 1_455 S
C1541 C5 3.155 . S
C1565 C34 3.147 . S
C1573 C242 3.272 1_545 S
C1597 C63 3.155 . S
C1605 C271 3.272 . S
C1629 C300 3.268 1_655 S
C1637 C92 3.154 . S
C1661 C121 3.140 . S
C1669 C329 3.272 1_565 S
