# Generated by pormake.
# Topology whz, (6)-cn, num edge types: 1
# Building blocks:
#     Node 0, Type 0, BuildingBlock: MIFKUJ_clean_sbu_0, # of connection points: 6
#     Node 1, Type 0, BuildingBlock: MIFKUJ_clean_sbu_0, # of connection points: 6
#     Node 2, Type 0, BuildingBlock: MIFKUJ_clean_sbu_0, # of connection points: 6
#     Node 3, Type 0, BuildingBlock: MIFKUJ_clean_sbu_0, # of connection points: 6
#     Node 4, Type 0, BuildingBlock: MIFKUJ_clean_sbu_0, # of connection points: 6
#     Node 5, Type 0, BuildingBlock: MIFKUJ_clean_sbu_0, # of connection points: 6
#     Node 6, Type 0, BuildingBlock: MIFKUJ_clean_sbu_0, # of connection points: 6
#     Node 7, Type 0, BuildingBlock: MIFKUJ_clean_sbu_0, # of connection points: 6
#     Node 8, Type 0, BuildingBlock: MIFKUJ_clean_sbu_0, # of connection points: 6
#     Node 9, Type 0, BuildingBlock: MIFKUJ_clean_sbu_0, # of connection points: 6
#     Node 10, Type 0, BuildingBlock: MIFKUJ_clean_sbu_0, # of connection points: 6
#     Node 11, Type 0, BuildingBlock: MIFKUJ_clean_sbu_0, # of connection points: 6
#     Node 12, Type 0, BuildingBlock: MIFKUJ_clean_sbu_0, # of connection points: 6
#     Node 13, Type 0, BuildingBlock: MIFKUJ_clean_sbu_0, # of connection points: 6
#     Node 14, Type 0, BuildingBlock: MIFKUJ_clean_sbu_0, # of connection points: 6
#     Node 15, Type 0, BuildingBlock: MIFKUJ_clean_sbu_0, # of connection points: 6
#     Edge 16, Type (0, 0), BuildingBlock: XUDNAN_clean_linker_2, # of connection points: 2
#     Edge 17, Type (0, 0), BuildingBlock: XUDNAN_clean_linker_2, # of connection points: 2
#     Edge 18, Type (0, 0), BuildingBlock: XUDNAN_clean_linker_2, # of connection points: 2
#     Edge 19, Type (0, 0), BuildingBlock: XUDNAN_clean_linker_2, # of connection points: 2
#     Edge 20, Type (0, 0), BuildingBlock: XUDNAN_clean_linker_2, # of connection points: 2
#     Edge 21, Type (0, 0), BuildingBlock: XUDNAN_clean_linker_2, # of connection points: 2
#     Edge 22, Type (0, 0), BuildingBlock: XUDNAN_clean_linker_2, # of connection points: 2
#     Edge 23, Type (0, 0), BuildingBlock: XUDNAN_clean_linker_2, # of connection points: 2
#     Edge 24, Type (0, 0), BuildingBlock: XUDNAN_clean_linker_2, # of connection points: 2
#     Edge 25, Type (0, 0), BuildingBlock: XUDNAN_clean_linker_2, # of connection points: 2
#     Edge 26, Type (0, 0), BuildingBlock: XUDNAN_clean_linker_2, # of connection points: 2
#     Edge 27, Type (0, 0), BuildingBlock: XUDNAN_clean_linker_2, # of connection points: 2
#     Edge 28, Type (0, 0), BuildingBlock: XUDNAN_clean_linker_2, # of connection points: 2
#     Edge 29, Type (0, 0), BuildingBlock: XUDNAN_clean_linker_2, # of connection points: 2
#     Edge 30, Type (0, 0), BuildingBlock: XUDNAN_clean_linker_2, # of connection points: 2
#     Edge 31, Type (0, 0), BuildingBlock: XUDNAN_clean_linker_2, # of connection points: 2
#     Edge 32, Type (0, 0), BuildingBlock: XUDNAN_clean_linker_2, # of connection points: 2
#     Edge 33, Type (0, 0), BuildingBlock: XUDNAN_clean_linker_2, # of connection points: 2
#     Edge 34, Type (0, 0), BuildingBlock: XUDNAN_clean_linker_2, # of connection points: 2
#     Edge 35, Type (0, 0), BuildingBlock: XUDNAN_clean_linker_2, # of connection points: 2
#     Edge 36, Type (0, 0), BuildingBlock: XUDNAN_clean_linker_2, # of connection points: 2
#     Edge 37, Type (0, 0), BuildingBlock: XUDNAN_clean_linker_2, # of connection points: 2
#     Edge 38, Type (0, 0), BuildingBlock: XUDNAN_clean_linker_2, # of connection points: 2
#     Edge 39, Type (0, 0), BuildingBlock: XUDNAN_clean_linker_2, # of connection points: 2
#     Edge 40, Type (0, 0), BuildingBlock: XUDNAN_clean_linker_2, # of connection points: 2
#     Edge 41, Type (0, 0), BuildingBlock: XUDNAN_clean_linker_2, # of connection points: 2
#     Edge 42, Type (0, 0), BuildingBlock: XUDNAN_clean_linker_2, # of connection points: 2
#     Edge 43, Type (0, 0), BuildingBlock: XUDNAN_clean_linker_2, # of connection points: 2
#     Edge 44, Type (0, 0), BuildingBlock: XUDNAN_clean_linker_2, # of connection points: 2
#     Edge 45, Type (0, 0), BuildingBlock: XUDNAN_clean_linker_2, # of connection points: 2
#     Edge 46, Type (0, 0), BuildingBlock: XUDNAN_clean_linker_2, # of connection points: 2
#     Edge 47, Type (0, 0), BuildingBlock: XUDNAN_clean_linker_2, # of connection points: 2
#     Edge 48, Type (0, 0), BuildingBlock: XUDNAN_clean_linker_2, # of connection points: 2
#     Edge 49, Type (0, 0), BuildingBlock: XUDNAN_clean_linker_2, # of connection points: 2
#     Edge 50, Type (0, 0), BuildingBlock: XUDNAN_clean_linker_2, # of connection points: 2
#     Edge 51, Type (0, 0), BuildingBlock: XUDNAN_clean_linker_2, # of connection points: 2
#     Edge 52, Type (0, 0), BuildingBlock: XUDNAN_clean_linker_2, # of connection points: 2
#     Edge 53, Type (0, 0), BuildingBlock: XUDNAN_clean_linker_2, # of connection points: 2
#     Edge 54, Type (0, 0), BuildingBlock: XUDNAN_clean_linker_2, # of connection points: 2
#     Edge 55, Type (0, 0), BuildingBlock: XUDNAN_clean_linker_2, # of connection points: 2
#     Edge 56, Type (0, 0), BuildingBlock: XUDNAN_clean_linker_2, # of connection points: 2
#     Edge 57, Type (0, 0), BuildingBlock: XUDNAN_clean_linker_2, # of connection points: 2
#     Edge 58, Type (0, 0), BuildingBlock: XUDNAN_clean_linker_2, # of connection points: 2
#     Edge 59, Type (0, 0), BuildingBlock: XUDNAN_clean_linker_2, # of connection points: 2
#     Edge 60, Type (0, 0), BuildingBlock: XUDNAN_clean_linker_2, # of connection points: 2
#     Edge 61, Type (0, 0), BuildingBlock: XUDNAN_clean_linker_2, # of connection points: 2
#     Edge 62, Type (0, 0), BuildingBlock: XUDNAN_clean_linker_2, # of connection points: 2
#     Edge 63, Type (0, 0), BuildingBlock: XUDNAN_clean_linker_2, # of connection points: 2
# Relax obj value: 0.375
# Max RMSD: 0.248
# Mean RMSD: 0.248
data_MOF--net-whz--node1-MIFKUJ_clean_sbu_0--edge1-XUDNAN_clean_linker_2
_symmetry_space_group_name_H-M    P1
_symmetry_Int_Tables_number       1
_symmetry_cell_setting            triclinic
loop_
_symmetry_equiv_pos_as_xyz
'x, y, z'
_cell_length_a     36.929981
_cell_length_b     36.903812
_cell_length_c     57.237253
_cell_angle_alpha  89.90847
_cell_angle_beta   89.838388
_cell_angle_gamma 90.023188
loop_
_atom_site_label
_atom_site_type_symbol
_atom_site_fract_x
_atom_site_fract_y
_atom_site_fract_z
_atom_type_partial_charge
Zn0 Zn 0.23998 0.09428 0.1214 0.0
Zn1 Zn 0.32135 0.14439 0.16154 0.0
C2 C 0.17204 0.06989 0.13437 0.0
O3 O 0.18902 0.04 0.1285 0.0
C4 C 0.38 0.19219 0.15688 0.0
O5 O 0.36289 0.20508 0.17523 0.0
O6 O 0.23569 0.07309 0.08827 0.0
O7 O 0.26645 0.14415 0.12179 0.0
O8 O 0.28008 0.17738 0.15262 0.0
C9 C 0.23209 0.09324 0.07028 0.0
O10 O 0.23438 0.12854 0.07278 0.0
O11 O 0.18843 0.10008 0.13264 0.0
C12 C 0.33051 0.14943 0.21607 0.0
O13 O 0.34879 0.13446 0.23323 0.0
O14 O 0.33478 0.1366 0.19562 0.0
O15 O 0.30437 0.09836 0.14752 0.0
O16 O 0.26199 0.05844 0.14511 0.0
O17 O 0.36675 0.16481 0.14639 0.0
C18 C 0.25951 0.17104 0.13517 0.0
C19 C 0.28805 0.0716 0.15669 0.0
Zn20 Zn 0.65175 0.50081 0.36796 0.0
Zn21 Zn 0.58667 0.55664 0.40103 0.0
C22 C 0.67288 0.42944 0.38629 0.0
O23 O 0.64929 0.43545 0.40306 0.0
C24 C 0.5542 0.62327 0.39541 0.0
O25 O 0.52871 0.59987 0.39018 0.0
O26 O 0.66082 0.51418 0.33366 0.0
O27 O 0.59912 0.48401 0.37124 0.0
O28 O 0.56725 0.53466 0.37205 0.0
C29 C 0.65312 0.48747 0.32046 0.0
O30 O 0.63856 0.45851 0.33002 0.0
O31 O 0.67904 0.45394 0.37115 0.0
C32 C 0.55635 0.56181 0.44469 0.0
O33 O 0.58396 0.58414 0.44639 0.0
O34 O 0.55018 0.54624 0.42536 0.0
O35 O 0.62909 0.53253 0.41655 0.0
O36 O 0.67483 0.53542 0.39197 0.0
O37 O 0.5859 0.61163 0.39988 0.0
C38 C 0.56922 0.50074 0.3693 0.0
C39 C 0.662 0.53916 0.41246 0.0
Zn40 Zn 0.25339 0.91417 0.61841 0.0
Zn41 Zn 0.17809 0.84781 0.65567 0.0
C42 C 0.31639 0.93471 0.64683 0.0
O43 O 0.29255 0.94041 0.6635 0.0
C44 C 0.12261 0.79775 0.64651 0.0
O45 O 0.15125 0.77677 0.64544 0.0
O46 O 0.25058 0.92615 0.58321 0.0
O47 O 0.24691 0.85773 0.62132 0.0
O48 O 0.21099 0.8163 0.63783 0.0
C49 C 0.27114 0.90463 0.57183 0.0
O50 O 0.28945 0.88019 0.58362 0.0
O51 O 0.30562 0.92389 0.62694 0.0
C52 C 0.1771 0.81989 0.70262 0.0
O53 O 0.14651 0.80454 0.69648 0.0
O54 O 0.19394 0.84002 0.68832 0.0
O55 O 0.19257 0.89562 0.64366 0.0
O56 O 0.2218 0.94555 0.64155 0.0
O57 O 0.12641 0.8314 0.65067 0.0
C58 C 0.2381 0.82467 0.62521 0.0
C59 C 0.19846 0.92654 0.65234 0.0
Zn60 Zn 0.83243 0.49972 0.86418 0.0
Zn61 Zn 0.88597 0.42115 0.90668 0.0
C62 C 0.82378 0.57545 0.88222 0.0
O63 O 0.84691 0.56818 0.89899 0.0
C64 C 0.93525 0.36104 0.90335 0.0
O65 O 0.95814 0.38561 0.9109 0.0
O66 O 0.8253 0.49202 0.82881 0.0
O67 O 0.88741 0.49669 0.87269 0.0
O68 O 0.92084 0.45578 0.89215 0.0
C69 C 0.84645 0.51418 0.81839 0.0
O70 O 0.86945 0.53255 0.83125 0.0
O71 O 0.81631 0.55143 0.86713 0.0
C72 C 0.90932 0.41892 0.95471 0.0
O73 O 0.91532 0.38413 0.95211 0.0
O74 O 0.8888 0.43511 0.94036 0.0
O75 O 0.84083 0.43597 0.89194 0.0
O76 O 0.79827 0.47496 0.88767 0.0
O77 O 0.90227 0.36974 0.90004 0.0
C78 C 0.9178 0.48503 0.88042 0.0
C79 C 0.81305 0.45115 0.90041 0.0
Zn80 Zn 0.66982 0.83795 0.85429 0.0
Zn81 Zn 0.75584 0.89672 0.88545 0.0
C82 C 0.61107 0.78876 0.85226 0.0
O83 O 0.63709 0.76957 0.84289 0.0
C84 C 0.81817 0.93688 0.86966 0.0
O85 O 0.79847 0.96487 0.87588 0.0
O86 O 0.69132 0.80847 0.82882 0.0
O87 O 0.66963 0.88769 0.84093 0.0
O88 O 0.71951 0.90895 0.85824 0.0
C89 C 0.68162 0.81119 0.80769 0.0
O90 O 0.65726 0.83515 0.80139 0.0
O91 O 0.61845 0.81948 0.8612 0.0
C92 C 0.77051 0.91365 0.93133 0.0
O93 O 0.79464 0.88905 0.92557 0.0
O94 O 0.74914 0.92535 0.91559 0.0
O95 O 0.75757 0.8441 0.89616 0.0
O96 O 0.70656 0.84185 0.87887 0.0
O97 O 0.80573 0.90519 0.87243 0.0
C98 C 0.69424 0.91174 0.84298 0.0
C99 C 0.73176 0.82482 0.88904 0.0
Zn100 Zn 0.39286 0.42836 0.61609 0.0
Zn101 Zn 0.33447 0.50756 0.63678 0.0
C102 C 0.43773 0.36372 0.62246 0.0
O103 O 0.46121 0.38634 0.63157 0.0
C104 C 0.30072 0.57261 0.61732 0.0
O105 O 0.28724 0.54931 0.6025 0.0
O106 O 0.42565 0.4501 0.5929 0.0
O107 O 0.34464 0.43486 0.5999 0.0
O108 O 0.30977 0.48098 0.61046 0.0
C109 C 0.42449 0.44298 0.57127 0.0
O110 O 0.40222 0.41795 0.56355 0.0
O111 O 0.40668 0.37531 0.61641 0.0
C112 C 0.3369 0.51084 0.68489 0.0
O113 O 0.35682 0.53818 0.67767 0.0
O114 O 0.32264 0.49013 0.66972 0.0
O115 O 0.38798 0.5107 0.6332 0.0
O116 O 0.40659 0.45691 0.64497 0.0
O117 O 0.31977 0.56101 0.63424 0.0
C118 C 0.31607 0.45376 0.59748 0.0
C119 C 0.4129 0.49029 0.64089 0.0
Zn120 Zn 0.81724 0.14348 0.36226 0.0
Zn121 Zn 0.73197 0.10181 0.38579 0.0
C122 C 0.87268 0.19714 0.36102 0.0
O123 O 0.84411 0.21822 0.36143 0.0
C124 C 0.66626 0.06579 0.37064 0.0
O125 O 0.688 0.03903 0.36493 0.0
O126 O 0.79127 0.15953 0.33358 0.0
O127 O 0.81663 0.08912 0.35936 0.0
O128 O 0.75773 0.07744 0.35837 0.0
C129 C 0.80569 0.17229 0.31516 0.0
O130 O 0.84097 0.17586 0.31366 0.0
O131 O 0.86855 0.16292 0.36093 0.0
C132 C 0.73136 0.09804 0.43639 0.0
O133 O 0.72369 0.13255 0.43372 0.0
O134 O 0.73907 0.07931 0.41832 0.0
O135 O 0.7349 0.15619 0.38532 0.0
O136 O 0.79302 0.16709 0.39012 0.0
O137 O 0.67935 0.09431 0.37963 0.0
C138 C 0.78962 0.07277 0.35039 0.0
C139 C 0.76047 0.17819 0.38927 0.0
Zn140 Zn 0.09526 0.5628 0.09749 0.0
Zn141 Zn 0.1553 0.48673 0.13439 0.0
C142 C 0.05654 0.62728 0.10806 0.0
O143 O 0.03679 0.60469 0.12044 0.0
C144 C 0.18729 0.4206 0.11655 0.0
O145 O 0.20669 0.44355 0.10424 0.0
O146 O 0.08589 0.54184 0.06632 0.0
O147 O 0.14103 0.54838 0.11071 0.0
O148 O 0.18484 0.51083 0.10814 0.0
C149 C 0.08079 0.55906 0.04743 0.0
O150 O 0.0873 0.59401 0.04636 0.0
O151 O 0.08434 0.61578 0.0973 0.0
C152 C 0.15666 0.48271 0.182 0.0
O153 O 0.13093 0.46052 0.17518 0.0
O154 O 0.1736 0.50077 0.16655 0.0
O155 O 0.09875 0.49504 0.13419 0.0
O156 O 0.06128 0.53523 0.1175 0.0
O157 O 0.16379 0.43256 0.1309 0.0
C158 C 0.16826 0.53742 0.09951 0.0
C159 C 0.0669 0.5077 0.13043 0.0
Zn160 Zn 0.73736 0.58428 0.62075 0.0
Zn161 Zn 0.81942 0.64611 0.65283 0.0
C162 C 0.6706 0.55196 0.63646 0.0
O163 O 0.69065 0.52275 0.63851 0.0
C164 C 0.88041 0.69095 0.65029 0.0
O165 O 0.85657 0.71355 0.65913 0.0
O166 O 0.74069 0.57114 0.58588 0.0
O167 O 0.75031 0.63843 0.62436 0.0
O168 O 0.78762 0.68144 0.63627 0.0
C169 C 0.72282 0.59357 0.57345 0.0
O170 O 0.70577 0.62011 0.5841 0.0
O171 O 0.68505 0.5812 0.6294 0.0
C172 C 0.82586 0.66515 0.70305 0.0
O173 O 0.86014 0.67297 0.69967 0.0
O174 O 0.80659 0.65318 0.68646 0.0
O175 O 0.80123 0.59849 0.6419 0.0
O176 O 0.76602 0.55224 0.64434 0.0
O177 O 0.87103 0.65861 0.64562 0.0
C178 C 0.75818 0.67191 0.62655 0.0
C179 C 0.79243 0.56986 0.65278 0.0
Zn180 Zn 0.15561 0.98421 0.86643 0.0
Zn181 Zn 0.1027 0.0673 0.90312 0.0
C182 C 0.18845 0.92077 0.88716 0.0
O183 O 0.21062 0.94489 0.89602 0.0
C184 C 0.04735 0.11962 0.89976 0.0
O185 O 0.02866 0.08934 0.90027 0.0
O186 O 0.17971 0.989 0.83419 0.0
O187 O 0.10081 0.98857 0.86314 0.0
O188 O 0.07407 0.03349 0.88287 0.0
C189 C 0.16421 0.0029 0.81642 0.0
O190 O 0.13452 0.02184 0.81954 0.0
O191 O 0.16313 0.93099 0.87363 0.0
C192 C 0.08576 0.06789 0.95256 0.0
O193 O 0.09382 0.10255 0.95184 0.0
O194 O 0.09102 0.04835 0.93469 0.0
O195 O 0.15494 0.06333 0.89516 0.0
O196 O 0.17645 0.0083 0.89586 0.0
O197 O 0.08176 0.11813 0.90057 0.0
C198 C 0.07274 0.00637 0.86918 0.0
C199 C 0.17287 0.03899 0.90564 0.0
Zn200 Zn 0.75434 0.40573 0.11785 0.0
Zn201 Zn 0.68253 0.3403 0.15066 0.0
C202 C 0.81429 0.4427 0.14219 0.0
O203 O 0.78884 0.45719 0.15523 0.0
C204 C 0.61901 0.30602 0.1422 0.0
O205 O 0.64503 0.28233 0.13882 0.0
O206 O 0.74854 0.42066 0.08347 0.0
O207 O 0.75859 0.35029 0.12076 0.0
O208 O 0.70486 0.32368 0.12056 0.0
C209 C 0.76333 0.40174 0.0674 0.0
O210 O 0.77905 0.37106 0.0731 0.0
O211 O 0.80546 0.42147 0.12569 0.0
C212 C 0.67278 0.30331 0.19487 0.0
O213 O 0.64156 0.32024 0.19582 0.0
O214 O 0.69315 0.30659 0.17709 0.0
O215 O 0.71118 0.38313 0.16075 0.0
O216 O 0.71956 0.4326 0.14091 0.0
O217 O 0.62744 0.33847 0.14769 0.0
C218 C 0.73909 0.32193 0.11909 0.0
C219 C 0.70521 0.41656 0.15837 0.0
Zn220 Zn 0.33838 0.00668 0.37181 0.0
Zn221 Zn 0.38989 0.92186 0.40721 0.0
C222 C 0.3038 0.06788 0.38146 0.0
O223 O 0.28064 0.04109 0.37931 0.0
C224 C 0.43657 0.86029 0.39666 0.0
O225 O 0.45446 0.8843 0.38421 0.0
O226 O 0.31388 0.00897 0.33956 0.0
O227 O 0.39002 0.98744 0.36648 0.0
O228 O 0.42412 0.95598 0.39173 0.0
C229 C 0.32951 0.00074 0.32038 0.0
O230 O 0.36112 0.98447 0.32094 0.0
O231 O 0.33743 0.06043 0.38063 0.0
C232 C 0.41511 0.92719 0.45374 0.0
O233 O 0.4242 0.89301 0.45141 0.0
O234 O 0.39251 0.94095 0.43964 0.0
O235 O 0.34367 0.93399 0.39224 0.0
O236 O 0.30924 0.98058 0.39763 0.0
O237 O 0.40714 0.8695 0.40664 0.0
C238 C 0.41947 0.98235 0.37761 0.0
C239 C 0.31982 0.94973 0.40447 0.0
Zn240 Zn 0.17431 0.34213 0.35045 0.0
Zn241 Zn 0.25365 0.39831 0.38794 0.0
C242 C 0.12051 0.28737 0.35136 0.0
O243 O 0.14439 0.27065 0.33821 0.0
C244 C 0.3179 0.42592 0.3645 0.0
O245 O 0.29546 0.439 0.34888 0.0
O246 O 0.19162 0.32223 0.31938 0.0
O247 O 0.16848 0.39547 0.34884 0.0
O248 O 0.22376 0.4161 0.35815 0.0
C249 C 0.17485 0.31599 0.30033 0.0
O250 O 0.14042 0.32436 0.2984 0.0
O251 O 0.12809 0.31811 0.35998 0.0
C252 C 0.26422 0.41297 0.43353 0.0
O253 O 0.28862 0.38884 0.42747 0.0
O254 O 0.24231 0.42452 0.41808 0.0
O255 O 0.25709 0.34436 0.39633 0.0
O256 O 0.21257 0.33949 0.37304 0.0
O257 O 0.30577 0.40907 0.3821 0.0
C258 C 0.19502 0.417 0.34546 0.0
C259 C 0.23473 0.32405 0.38634 0.0
Zn260 Zn 0.8991 0.92352 0.10728 0.0
Zn261 Zn 0.83886 -0.00178 0.13859 0.0
C262 C 0.94716 0.86782 0.11306 0.0
O263 O 0.96794 0.89666 0.11216 0.0
C264 C 0.82167 0.07043 0.11911 0.0
O265 O 0.83418 0.05963 0.09877 0.0
O266 O 0.92693 0.93873 0.07934 0.0
O267 O 0.84929 0.93149 0.09529 0.0
O268 O 0.81456 0.9745 0.11036 0.0
C269 C 0.91987 0.94071 0.0577 0.0
O270 O 0.88972 0.92714 0.04935 0.0
O271 O 0.91301 0.87169 0.11234 0.0
C272 C 0.83353 0.00827 0.18592 0.0
O273 O 0.85618 0.03291 0.17804 0.0
O274 O 0.82096 0.98511 0.17147 0.0
O275 O 0.89331 0.00485 0.1403 0.0
O276 O 0.92512 0.95685 0.12904 0.0
O277 O 0.82132 0.0488 0.13633 0.0
C278 C 0.82007 0.9495 0.09546 0.0
C279 C 0.92297 0.98773 0.13859 0.0
Zn280 Zn 0.30723 0.64737 0.8498 0.0
Zn281 Zn 0.24004 0.58056 0.88877 0.0
C282 C 0.37306 0.67627 0.86545 0.0
O283 O 0.35039 0.69892 0.87536 0.0
C284 C 0.16773 0.5629 0.86675 0.0
O285 O 0.18203 0.55813 0.84593 0.0
O286 O 0.29818 0.6705 0.82014 0.0
O287 O 0.28451 0.60096 0.85427 0.0
O288 O 0.26572 0.54853 0.8636 0.0
C289 C 0.32262 0.67717 0.80523 0.0
O290 O 0.35531 0.66383 0.80735 0.0
O291 O 0.36069 0.64824 0.85538 0.0
C292 C 0.22537 0.58733 0.93497 0.0
O293 O 0.20492 0.61062 0.92373 0.0
O294 O 0.2466 0.56702 0.92318 0.0
O295 O 0.24534 0.63732 0.88813 0.0
O296 O 0.28129 0.67861 0.87175 0.0
O297 O 0.18762 0.57135 0.88396 0.0
C298 C 0.28138 0.56824 0.84857 0.0
C299 C 0.25495 0.6703 0.88495 0.0
Zn300 Zn 0.59709 0.06774 0.59961 0.0
Zn301 Zn 0.65307 0.98861 0.63798 0.0
C302 C 0.54791 0.12423 0.59609 0.0
O303 O 0.52983 0.09562 0.58901 0.0
C304 C 0.6734 0.91682 0.62063 0.0
O305 O 0.68862 0.93487 0.60343 0.0
O306 O 0.5874 0.04693 0.56829 0.0
O307 O 0.64621 0.05529 0.61032 0.0
O308 O 0.68019 0.00766 0.60944 0.0
C309 C 0.5863 0.06287 0.54869 0.0
O310 O 0.59536 0.09722 0.54724 0.0
O311 O 0.58085 0.12034 0.60211 0.0
C312 C 0.65605 0.99202 0.68648 0.0
O313 O 0.62735 0.9719 0.68266 0.0
O314 O 0.67377 0.0044 0.66912 0.0
O315 O 0.59802 -0.00248 0.63769 0.0
O316 O 0.56356 0.03867 0.61969 0.0
O317 O 0.65766 0.93405 0.63699 0.0
C318 C 0.66863 0.03574 0.59918 0.0
C319 C 0.56722 0.0116 0.63327 0.0
H320 H 0.33391 0.19449 0.25329 0.0
H321 H 0.2691 0.17013 0.19269 0.0
H322 H 0.22466 0.21669 0.2043 0.0
H323 H 0.26013 0.1981 0.2905 0.0
H324 H 0.27845 0.23271 0.30922 0.0
H325 H 0.30845 0.20303 0.29356 0.0
H326 H 0.34051 0.25856 0.27457 0.0
H327 H 0.31076 0.28839 0.29047 0.0
H328 H 0.31388 0.29177 0.25911 0.0
H329 H 0.1833 0.26154 0.22618 0.0
H330 H 0.15032 0.29806 0.25588 0.0
H331 H 0.24256 0.28892 0.30233 0.0
C332 C 0.31095 0.19968 0.24204 0.0
C333 C 0.30575 0.17982 0.22133 0.0
C334 C 0.27473 0.18662 0.20762 0.0
C335 C 0.24905 0.21268 0.2144 0.0
C336 C 0.25473 0.23141 0.23519 0.0
C337 C 0.28502 0.22505 0.24878 0.0
C338 C 0.28301 0.24485 0.27175 0.0
C339 C 0.28247 0.21808 0.29246 0.0
C340 C 0.31388 0.27254 0.27409 0.0
C341 C 0.24699 0.26337 0.26905 0.0
C342 C 0.23079 0.25561 0.24793 0.0
C343 C 0.19602 0.26807 0.24266 0.0
C344 C 0.17746 0.28863 0.25964 0.0
C345 C 0.19394 0.29637 0.28146 0.0
C346 C 0.22925 0.28389 0.28582 0.0
H347 H 0.43624 0.43209 0.52433 0.0
H348 H 0.45984 0.50539 0.58173 0.0
H349 H 0.49337 0.5452 0.55495 0.0
H350 H 0.52334 0.44112 0.4964 0.0
H351 H 0.50548 0.43914 0.46716 0.0
H352 H 0.48228 0.41628 0.49064 0.0
H353 H 0.42371 0.45111 0.48054 0.0
H354 H 0.44654 0.47507 0.45737 0.0
H355 H 0.42404 0.49999 0.48017 0.0
H356 H 0.52517 0.57648 0.52285 0.0
H357 H 0.55562 0.59662 0.48666 0.0
H358 H 0.51142 0.50367 0.44996 0.0
C359 C 0.44848 0.45651 0.53122 0.0
C360 C 0.44548 0.46565 0.55507 0.0
C361 C 0.46196 0.49774 0.56351 0.0
C362 C 0.48093 0.52066 0.54845 0.0
C363 C 0.48333 0.51102 0.52506 0.0
C364 C 0.46785 0.47966 0.51644 0.0
C365 C 0.47555 0.47531 0.49062 0.0
C366 C 0.498 0.44093 0.48594 0.0
C367 C 0.44035 0.47537 0.47635 0.0
C368 C 0.49756 0.50922 0.48621 0.0
C369 C 0.50169 0.52939 0.50633 0.0
C370 C 0.52204 0.56112 0.50689 0.0
C371 C 0.53918 0.57232 0.48631 0.0
C372 C 0.53562 0.55179 0.46558 0.0
C373 C 0.51416 0.52015 0.4655 0.0
H374 H 0.1799 0.75051 0.71748 0.0
H375 H 0.22192 0.85828 0.73071 0.0
H376 H 0.26851 0.83232 0.75686 0.0
H377 H 0.19575 0.71177 0.77544 0.0
H378 H 0.20884 0.66858 0.76343 0.0
H379 H 0.177 0.69666 0.74806 0.0
H380 H 0.2191 0.69427 0.71103 0.0
H381 H 0.25022 0.66628 0.72719 0.0
H382 H 0.26584 0.70777 0.71413 0.0
H383 H 0.3134 0.79403 0.77862 0.0
H384 H 0.34641 0.74621 0.80045 0.0
H385 H 0.27442 0.66524 0.77196 0.0
C386 C 0.19801 0.7687 0.72662 0.0
C387 C 0.19738 0.80626 0.72253 0.0
C388 C 0.22213 0.82936 0.73402 0.0
C389 C 0.24876 0.81488 0.74861 0.0
C390 C 0.25018 0.77742 0.75113 0.0
C391 C 0.22505 0.75468 0.74083 0.0
C392 C 0.23318 0.71536 0.74567 0.0
C393 C 0.20184 0.69704 0.75896 0.0
C394 C 0.24256 0.69472 0.72313 0.0
C395 C 0.26626 0.7197 0.76065 0.0
C396 C 0.27627 0.75552 0.76323 0.0
C397 C 0.30605 0.76582 0.77658 0.0
C398 C 0.325 0.73863 0.7885 0.0
C399 C 0.31354 0.70222 0.78683 0.0
C400 C 0.28457 0.69266 0.77241 0.0
H401 H 0.92613 0.42802 1.00098 0.0
H402 H 0.95827 0.45807 0.93075 0.0
H403 H 0.00617 0.49775 0.94646 0.0
H404 H 0.93901 0.51472 0.02664 0.0
H405 H 0.95775 0.49856 0.05371 0.0
H406 H 0.9263 0.47075 0.03774 0.0
H407 H 0.97165 0.41849 0.03669 0.0
H408 H 0.00535 0.4444 0.05211 0.0
H409 H 0.016 0.42513 0.02411 0.0
H410 H 0.04795 0.53735 0.96987 0.0
H411 H 0.08517 0.56858 0.99988 0.0
H412 H 0.02719 0.51049 0.05429 0.0
C413 C 0.94334 0.44302 0.98904 0.0
C414 C 0.93831 0.44087 0.96476 0.0
C415 C 0.96137 0.46037 0.94946 0.0
C416 C 0.98861 0.48285 0.95818 0.0
C417 C 0.99238 0.4854 0.98225 0.0
C418 C 0.9707 0.46572 0.99748 0.0
C419 C 0.98086 0.47297 0.02256 0.0
C420 C 0.94909 0.49025 0.03595 0.0
C421 C 0.99421 0.43817 0.03458 0.0
C422 C 0.01146 0.49967 0.01899 0.0
C423 C 0.01755 0.50685 0.99565 0.0
C424 C 0.04379 0.53165 0.98824 0.0
C425 C 0.0647 0.54925 0.00528 0.0
C426 C 0.05944 0.54124 0.02918 0.0
C427 C 0.03236 0.51637 0.03603 0.0
H428 H 0.73237 0.82236 0.77433 0.0
H429 H 0.66384 0.74029 0.80574 0.0
H430 H 0.6962 0.69272 0.78373 0.0
H431 H 0.73948 0.77772 0.71623 0.0
H432 H 0.78563 0.79264 0.71257 0.0
H433 H 0.75425 0.81962 0.72926 0.0
H434 H 0.79878 0.81789 0.76408 0.0
H435 H 0.82967 0.78959 0.74797 0.0
H436 H 0.81265 0.77481 0.77597 0.0
H437 H 0.73733 0.65437 0.75976 0.0
H438 H 0.78135 0.6277 0.73194 0.0
H439 H 0.82469 0.73461 0.71757 0.0
C440 C 0.7234 0.79453 0.77578 0.0
C441 C 0.69543 0.7847 0.7912 0.0
C442 C 0.6851 0.74804 0.79368 0.0
C443 C 0.70337 0.72093 0.78137 0.0
C444 C 0.7318 0.73126 0.76682 0.0
C445 C 0.74136 0.76718 0.76363 0.0
C446 C 0.77342 0.77091 0.74737 0.0
C447 C 0.76254 0.79142 0.72503 0.0
C448 C 0.80553 0.78938 0.75959 0.0
C449 C 0.78105 0.73136 0.74247 0.0
C450 C 0.75654 0.70898 0.75373 0.0
C451 C 0.75688 0.67148 0.75095 0.0
C452 C 0.78206 0.65656 0.7354 0.0
C453 C 0.80672 0.67917 0.72338 0.0
C454 C 0.80687 0.71681 0.72736 0.0
H455 H 0.73589 0.3107 0.21835 0.0
H456 H 0.63735 0.24712 0.21533 0.0
H457 H 0.66163 0.20569 0.24563 0.0
H458 H 0.79851 0.24212 0.22574 0.0
H459 H 0.82615 0.26473 0.24717 0.0
H460 H 0.80042 0.29094 0.22653 0.0
H461 H 0.76847 0.32541 0.26016 0.0
H462 H 0.79493 0.30009 0.28095 0.0
H463 H 0.74625 0.30015 0.28304 0.0
H464 H 0.69819 0.1692 0.27355 0.0
H465 H 0.74178 0.14342 0.3017 0.0
H466 H 0.81613 0.23183 0.28745 0.0
C467 C 0.71943 0.2882 0.22435 0.0
C468 C 0.6851 0.28144 0.21458 0.0
C469 C 0.66376 0.25236 0.2228 0.0
C470 C 0.67736 0.22879 0.23986 0.0
C471 C 0.71181 0.23553 0.24876 0.0
C472 C 0.73217 0.26508 0.2418 0.0
C473 C 0.76798 0.26663 0.25459 0.0
C474 C 0.80016 0.26604 0.23748 0.0
C475 C 0.76949 0.30004 0.27063 0.0
C476 C 0.76554 0.232 0.26871 0.0
C477 C 0.73271 0.21478 0.26528 0.0
C478 C 0.72383 0.18256 0.27659 0.0
C479 C 0.7487 0.16811 0.29243 0.0
C480 C 0.78207 0.1857 0.29656 0.0
C481 C 0.79091 0.21767 0.28427 0.0
H482 H 0.93945 0.93612 0.01092 0.0
H483 H 0.94828 0.00296 0.07272 0.0
H484 H 0.99289 0.04192 0.05291 0.0
H485 H 0.02822 0.93795 0.99018 0.0
H486 H 0.01763 0.94592 0.95987 0.0
H487 H 0.98545 0.92312 0.97843 0.0
H488 H 0.93789 0.9697 0.96663 0.0
H489 H 0.96906 -0.00262 0.94997 0.0
H490 H 0.94416 0.01688 0.97365 0.0
H491 H 0.03985 0.0706 0.02852 0.0
H492 H 0.08084 0.09307 0.99739 0.0
H493 H 0.03953 0.0104 0.95054 0.0
C494 C 0.95088 0.95897 0.02019 0.0
C495 C 0.94229 0.96552 0.0438 0.0
C496 C 0.95661 -0.00367 0.05517 0.0
C497 C 0.98154 0.01881 0.04405 0.0
C498 C 0.99124 0.01067 0.02131 0.0
C499 C 0.97571 0.98224 0.00919 0.0
C500 C 0.98916 0.98168 0.98425 0.0
C501 C 0.00613 0.94498 0.97782 0.0
C502 C 0.95817 0.99189 0.96764 0.0
C503 C 0.01718 0.01169 0.98516 0.0
C504 C 0.01719 0.0287 0.00656 0.0
C505 C 0.04007 0.05774 0.01154 0.0
C506 C 0.06332 0.07018 0.99388 0.0
C507 C 0.06368 0.05318 0.97178 0.0
C508 C 0.04042 0.02346 0.96747 0.0
H509 H 0.44981 0.91875 0.49558 0.0
H510 H 0.44061 0.99015 0.43558 0.0
H511 H 0.48911 0.02882 0.45124 0.0
H512 H 0.46249 0.99016 0.53739 0.0
H513 H 0.49359 0.96398 0.55486 0.0
H514 H 0.45946 0.94139 0.53791 0.0
H515 H 0.51039 0.90342 0.51834 0.0
H516 H 0.54413 0.92722 0.53504 0.0
H517 H 0.54711 0.92629 0.50361 0.0
H518 H 0.53686 0.061 0.47383 0.0
H519 H 0.57631 0.08795 0.50401 0.0
H520 H 0.55351 -0.00347 0.54968 0.0
C521 C 0.458 0.94265 0.4859 0.0
C522 C 0.44132 0.95178 0.46461 0.0
C523 C 0.45263 0.98312 0.45222 0.0
C524 C 0.48046 0.005 0.4608 0.0
C525 C 0.49644 0.99535 0.48187 0.0
C526 C 0.48534 0.96524 0.49444 0.0
C527 C 0.50516 0.96252 0.51744 0.0
C528 C 0.47854 0.96468 0.5381 0.0
C529 C 0.52807 0.9278 0.51865 0.0
C530 C 0.52878 0.99602 0.51588 0.0
C531 C 0.52375 0.01428 0.49509 0.0
C532 C 0.54125 0.04692 0.49018 0.0
C533 C 0.56361 0.062 0.50738 0.0
C534 C 0.56799 0.04443 0.52916 0.0
C535 C 0.55106 0.01054 0.53311 0.0
H536 H 0.19803 0.09641 0.93174 0.0
H537 H 0.15983 0.98568 0.93775 0.0
H538 H 0.16978 0.98749 0.9804 0.0
H539 H 0.26978 0.08555 0.97387 0.0
H540 H 0.26574 0.13082 0.98534 0.0
H541 H 0.25357 0.1217 0.95546 0.0
H542 H 0.18957 0.14833 0.96278 0.0
H543 H 0.20162 0.15775 0.99263 0.0
H544 H 0.16226 0.13058 0.98632 0.0
H545 H 0.18586 0.00084 0.02267 0.0
H546 H 0.2058 0.02508 0.06083 0.0
H547 H 0.23532 0.12644 0.02729 0.0
C548 C 0.19152 0.0727 0.9421 0.0
C549 C 0.17814 0.04092 0.93139 0.0
C550 C 0.17038 0.01024 0.94552 0.0
C551 C 0.17583 0.01105 0.9698 0.0
C552 C 0.18972 0.04253 0.97979 0.0
C553 C 0.19761 0.07275 0.96638 0.0
C554 C 0.21399 0.1025 0.98128 0.0
C555 C 0.25308 0.11062 0.97352 0.0
C556 C 0.19044 0.13682 0.98072 0.0
C557 C 0.21328 0.08468 0.0052 0.0
C558 C 0.19941 0.04998 0.00397 0.0
C559 C 0.19676 0.028 0.02379 0.0
C560 C 0.20835 0.04194 0.0454 0.0
C561 C 0.22223 0.07766 0.04714 0.0
C562 C 0.22475 0.09909 0.02664 0.0
H563 H 0.65984 0.42773 0.29345 0.0
H564 H 0.66805 0.54484 0.29037 0.0
H565 H 0.68147 0.5409 0.24779 0.0
H566 H 0.73291 0.40977 0.25283 0.0
H567 H 0.71067 0.37035 0.2411 0.0
H568 H 0.70281 0.3834 0.27096 0.0
H569 H 0.63367 0.38531 0.2631 0.0
H570 H 0.64154 0.37236 0.23325 0.0
H571 H 0.61655 0.41312 0.23967 0.0
H572 H 0.69319 0.52217 0.2042 0.0
H573 H 0.70391 0.49121 0.16621 0.0
H574 H 0.68598 0.38749 0.2002 0.0
C575 C 0.66431 0.45271 0.28391 0.0
C576 C 0.66245 0.48665 0.2952 0.0
C577 C 0.66922 0.51853 0.28205 0.0
C578 C 0.67681 0.5165 0.25787 0.0
C579 C 0.67792 0.48238 0.24725 0.0
C580 C 0.67217 0.45112 0.26009 0.0
C581 C 0.67517 0.41757 0.24516 0.0
C582 C 0.70729 0.3939 0.25297 0.0
C583 C 0.6396 0.39584 0.2453 0.0
C584 C 0.68227 0.43466 0.22161 0.0
C585 C 0.68429 0.47198 0.22295 0.0
C586 C 0.69157 0.49295 0.20307 0.0
C587 C 0.69741 0.47518 0.18152 0.0
C588 C 0.69565 0.43687 0.18003 0.0
C589 C 0.68742 0.4168 0.20045 0.0
H590 H 0.26335 0.9627 0.54071 0.0
H591 H 0.28877 0.84796 0.54442 0.0
H592 H 0.30193 0.8474 0.50237 0.0
H593 H 0.22152 0.96078 0.48226 0.0
H594 H 0.24083 0.00352 0.47336 0.0
H595 H 0.23112 0.99509 0.50377 0.0
H596 H 0.29776 0.00969 0.51414 0.0
H597 H 0.30763 0.01797 0.48376 0.0
H598 H 0.33374 0.98515 0.49985 0.0
H599 H 0.31607 0.85874 0.46094 0.0
H600 H 0.32795 0.8814 0.42114 0.0
H601 H 0.29346 0.98895 0.44234 0.0
C602 C 0.27101 0.9374 0.53252 0.0
C603 C 0.27492 0.90531 0.54595 0.0
C604 C 0.28569 0.8729 0.53462 0.0
C605 C 0.29322 0.87225 0.51068 0.0
C606 C 0.28999 0.90426 0.49803 0.0
C607 C 0.27899 0.93628 0.50837 0.0
C608 C 0.27912 0.96693 0.49051 0.0
C609 C 0.24086 0.98249 0.48729 0.0
C610 C 0.30617 -0.00331 0.49749 0.0
C611 C 0.2918 0.94693 0.46869 0.0
C612 C 0.29801 0.91084 0.47361 0.0
C613 C 0.31099 0.88689 0.45676 0.0
C614 C 0.31772 0.90002 0.4342 0.0
C615 C 0.31145 0.93681 0.4285 0.0
C616 C 0.29813 0.96055 0.44604 0.0
H617 H 0.76574 0.5226 0.68694 0.0
H618 H 0.8534 0.59773 0.67219 0.0
H619 H 0.87529 0.591 0.71242 0.0
H620 H 0.7476 0.54678 0.74584 0.0
H621 H 0.74201 0.50121 0.75669 0.0
H622 H 0.73243 0.51132 0.72655 0.0
H623 H 0.77756 0.46167 0.71343 0.0
H624 H 0.78715 0.4513 0.74358 0.0
H625 H 0.82352 0.46294 0.7239 0.0
H626 H 0.88608 0.57997 0.75392 0.0
H627 H 0.88961 0.56066 0.79467 0.0
H628 H 0.7979 0.48852 0.78435 0.0
C629 C 0.78969 0.53741 0.69217 0.0
C630 C 0.80715 0.56179 0.67649 0.0
C631 C 0.83884 0.5799 0.68393 0.0
C632 C 0.85165 0.5761 0.70679 0.0
C633 C 0.83329 0.553 0.72197 0.0
C634 C 0.80352 0.53321 0.71499 0.0
C635 C 0.79021 0.50906 0.73493 0.0
C636 C 0.75071 0.51763 0.74138 0.0
C637 C 0.79488 0.46885 0.72858 0.0
C638 C 0.81615 0.51985 0.75441 0.0
C639 C 0.84079 0.54508 0.74623 0.0
C640 C 0.86726 0.55989 0.7605 0.0
C641 C 0.86896 0.5486 0.78376 0.0
C642 C 0.84423 0.52276 0.79294 0.0
C643 C 0.81743 0.50805 0.77792 0.0
H644 H 0.81492 0.89229 0.06554 0.0
H645 H 0.7762 0.0019 0.07629 0.0
H646 H 0.75282 0.00302 0.03583 0.0
H647 H 0.84916 0.9048 0.01099 0.0
H648 H 0.83657 0.86104 0.99974 0.0
H649 H 0.84365 0.86676 0.03054 0.0
H650 H 0.77885 0.84184 0.03857 0.0
H651 H 0.772 0.83635 0.0076 0.0
H652 H 0.74057 0.8629 0.02456 0.0
H653 H 0.74201 0.99495 0.99174 0.0
H654 H 0.74302 0.97722 0.94984 0.0
H655 H 0.79068 0.87406 0.96891 0.0
C656 C 0.80025 0.91604 0.05973 0.0
C657 C 0.79707 0.94684 0.07425 0.0
C658 C 0.77832 0.97766 0.06573 0.0
C659 C 0.76519 0.97864 0.04265 0.0
C660 C 0.77053 0.94842 0.02841 0.0
C661 C 0.78709 0.91743 0.03684 0.0
C662 C 0.79257 0.88972 0.0177 0.0
C663 C 0.83287 0.88006 0.01459 0.0
C664 C 0.76963 0.85569 0.02239 0.0
C665 C 0.77835 0.91058 0.99693 0.0
C666 C 0.76501 0.9441 0.00335 0.0
C667 C 0.75192 0.96852 0.98666 0.0
C668 C 0.75265 0.95833 0.96291 0.0
C669 C 0.76709 0.9244 0.95615 0.0
C670 C 0.77965 0.9003 0.9735 0.0
H671 H 0.28619 0.60206 0.80586 0.0
H672 H 0.3066 0.49959 0.84036 0.0
H673 H 0.32046 0.47142 0.80207 0.0
H674 H 0.24176 0.56342 0.75528 0.0
H675 H 0.25984 0.59753 0.73597 0.0
H676 H 0.25219 0.60765 0.76639 0.0
H677 H 0.3233 0.62559 0.76995 0.0
H678 H 0.32574 0.61675 0.73911 0.0
H679 H 0.35575 0.59379 0.75905 0.0
H680 H 0.33115 0.45425 0.75836 0.0
H681 H 0.34077 0.45242 0.71521 0.0
H682 H 0.31179 0.56581 0.71073 0.0
C683 C 0.29462 0.574 0.80547 0.0
C684 C 0.29586 0.55318 0.82623 0.0
C685 C 0.30576 0.51615 0.82473 0.0
C686 C 0.31345 0.49985 0.80301 0.0
C687 C 0.31081 0.52082 0.78277 0.0
C688 C 0.30181 0.5572 0.7839 0.0
C689 C 0.29987 0.5737 0.75969 0.0
C690 C 0.26117 0.5864 0.754 0.0
C691 C 0.32776 0.60429 0.75675 0.0
C692 C 0.31005 0.54154 0.74488 0.0
C693 C 0.31597 0.51094 0.75824 0.0
C694 C 0.3264 0.47818 0.74786 0.0
C695 C 0.33163 0.47725 0.72338 0.0
C696 C 0.32688 0.50901 0.70983 0.0
C697 C 0.31552 0.54116 0.72076 0.0
H698 H 0.72717 0.13131 0.47913 0.0
H699 H 0.72088 0.02571 0.44618 0.0
H700 H 0.70264 -0.00142 0.48402 0.0
H701 H 0.763 0.09739 0.53523 0.0
H702 H 0.73856 0.13087 0.55187 0.0
H703 H 0.75311 0.14096 0.52249 0.0
H704 H 0.687 0.1568 0.5116 0.0
H705 H 0.67181 0.14577 0.54068 0.0
H706 H 0.65187 0.12347 0.51583 0.0
H707 H 0.68213 0.98368 0.52537 0.0
H708 H 0.66611 0.98114 0.56729 0.0
H709 H 0.68482 0.09668 0.57328 0.0
C710 C 0.72241 0.10238 0.4799 0.0
C711 C 0.72543 0.08067 0.4596 0.0
C712 C 0.71904 0.0429 0.46146 0.0
C713 C 0.70842 0.02729 0.48288 0.0
C714 C 0.7047 0.04971 0.50238 0.0
C715 C 0.71214 0.08633 0.50116 0.0
C716 C 0.70637 0.10447 0.52467 0.0
C717 C 0.74239 0.1193 0.53412 0.0
C718 C 0.67754 0.1344 0.52309 0.0
C719 C 0.69315 0.07268 0.53919 0.0
C720 C 0.69275 0.04123 0.52604 0.0
C721 C 0.68248 0.00814 0.53577 0.0
C722 C 0.67336 0.00698 0.5596 0.0
C723 C 0.67403 0.03874 0.57351 0.0
C724 C 0.6835 0.07211 0.563 0.0
H725 H 0.16944 0.39107 0.30534 0.0
H726 H 0.22105 0.4862 0.33416 0.0
H727 H 0.21753 0.51609 0.29497 0.0
H728 H 0.21824 0.39649 0.24896 0.0
H729 H 0.18002 0.37506 0.23511 0.0
H730 H 0.19036 0.36568 0.26519 0.0
H731 H 0.12262 0.38462 0.2748 0.0
H732 H 0.11539 0.39635 0.24472 0.0
H733 H 0.10826 0.42976 0.26721 0.0
H734 H 0.20648 0.5341 0.25018 0.0
H735 H 0.1905 0.53694 0.20786 0.0
H736 H 0.14817 0.42765 0.21205 0.0
C737 C 0.18005 0.4182 0.30357 0.0
C738 C 0.19508 0.43644 0.32279 0.0
C739 C 0.20927 0.47178 0.31958 0.0
C740 C 0.20731 0.48886 0.29742 0.0
C741 C 0.19194 0.46971 0.27876 0.0
C742 C 0.17915 0.43484 0.28185 0.0
C743 C 0.16541 0.4185 0.25952 0.0
C744 C 0.18991 0.38707 0.25169 0.0
C745 C 0.12557 0.40664 0.26171 0.0
C746 C 0.16976 0.45024 0.24342 0.0
C747 C 0.18594 0.47952 0.25427 0.0
C748 C 0.19377 0.51118 0.24174 0.0
C749 C 0.18472 0.51257 0.21774 0.0
C750 C 0.16764 0.48264 0.20682 0.0
C751 C 0.16043 0.4513 0.21996 0.0
H752 H 0.7281 0.53317 0.54441 0.0
H753 H 0.71232 0.64969 0.54391 0.0
H754 H 0.7043 0.6485 0.50132 0.0
H755 H 0.7745 0.52742 0.48609 0.0
H756 H 0.75194 0.48583 0.47838 0.0
H757 H 0.76165 0.49563 0.50858 0.0
H758 H 0.69386 0.48753 0.51909 0.0
H759 H 0.68416 0.47733 0.48904 0.0
H760 H 0.66028 0.51351 0.50355 0.0
H761 H 0.69325 0.63535 0.45964 0.0
H762 H 0.6738 0.60966 0.42184 0.0
H763 H 0.69347 0.50144 0.44819 0.0
C764 C 0.72388 0.55845 0.53519 0.0
C765 C 0.72135 0.59163 0.54752 0.0
C766 C 0.71463 0.624 0.5349 0.0
C767 C 0.71022 0.62366 0.51063 0.0
C768 C 0.71246 0.59069 0.49898 0.0
C769 C 0.71886 0.55855 0.51075 0.0
C770 C 0.71638 0.52658 0.49406 0.0
C771 C 0.75332 0.50775 0.49164 0.0
C772 C 0.6869 0.49967 0.5019 0.0
C773 C 0.70611 0.54578 0.47146 0.0
C774 C 0.70509 0.58286 0.47463 0.0
C775 C 0.69466 0.60641 0.45677 0.0
C776 C 0.68401 0.59168 0.43528 0.0
C777 C 0.68352 0.55381 0.43189 0.0
C778 C 0.6951 0.53059 0.45011 0.0
H779 H 0.19056 0.03414 0.77554 0.0
H780 H 0.14998 0.93373 0.80505 0.0
H781 H 0.15059 0.90574 0.76584 0.0
H782 H 0.14336 0.0284 0.72034 0.0
H783 H 0.1802 0.04598 0.70301 0.0
H784 H 0.17538 0.05935 0.73314 0.0
H785 H 0.24057 0.03737 0.74181 0.0
H786 H 0.24578 0.02445 0.71165 0.0
H787 H 0.25333 0.9916 0.73448 0.0
H788 H 0.14312 0.89413 0.7226 0.0
H789 H 0.15074 0.88913 0.68001 0.0
H790 H 0.21322 0.98833 0.67914 0.0
C791 C 0.18237 0.00613 0.77368 0.0
C792 C 0.17011 0.986 0.79326 0.0
C793 C 0.15951 0.94947 0.79026 0.0
C794 C 0.15943 0.93349 0.76804 0.0
C795 C 0.17077 0.95418 0.74899 0.0
C796 C 0.18344 0.98917 0.75161 0.0
C797 C 0.19623 0.00427 0.7282 0.0
C798 C 0.17239 0.03642 0.72074 0.0
C799 C 0.23638 0.01503 0.7291 0.0
C800 C 0.18992 0.97183 0.71229 0.0
C801 C 0.17312 0.94423 0.72452 0.0
C802 C 0.15863 0.91431 0.71315 0.0
C803 C 0.16375 0.91127 0.68895 0.0
C804 C 0.18618 0.93584 0.67659 0.0
C805 C 0.19797 0.96765 0.6883 0.0
H806 H 0.7849 0.36433 0.02817 0.0
H807 H 0.74987 0.47063 0.05138 0.0
H808 H 0.75992 0.49465 0.01154 0.0
H809 H 0.85502 0.39342 0.98992 0.0
H810 H 0.84628 0.35986 0.96773 0.0
H811 H 0.83539 0.35039 0.9978 0.0
H812 H 0.76905 0.33653 0.98668 0.0
H813 H 0.77965 0.34533 0.95645 0.0
H814 H 0.74339 0.36967 0.97054 0.0
H815 H 0.77434 0.50727 0.96921 0.0
H816 H 0.79012 0.50746 0.92731 0.0
H817 H 0.81671 0.39312 0.93116 0.0
C818 C 0.7791 0.39264 0.02487 0.0
C819 C 0.76649 0.41558 0.043 0.0
C820 C 0.75924 0.45242 0.03783 0.0
C821 C 0.76505 0.46636 0.01524 0.0
C822 C 0.77787 0.44309 0.99788 0.0
C823 C 0.7845 0.40694 1.00236 0.0
C824 C 0.79781 0.38764 0.98052 0.0
C825 C 0.8359 0.37192 0.98421 0.0
C826 C 0.77087 0.35804 0.97311 0.0
C827 C 0.79824 0.41871 0.96308 0.0
C828 C 0.78641 0.4504 0.97349 0.0
C829 C 0.78354 0.4826 0.96091 0.0
C830 C 0.79247 0.48238 0.93705 0.0
C831 C 0.80456 0.45028 0.92588 0.0
C832 C 0.80772 0.41809 0.93921 0.0
H833 H 0.32093 0.01648 0.18087 0.0
H834 H 0.25317 0.11096 0.18963 0.0
H835 H 0.25509 0.10316 0.23271 0.0
H836 H 0.27516 0.96623 0.22885 0.0
H837 H 0.3159 0.94266 0.23707 0.0
H838 H 0.30908 0.95615 0.20712 0.0
H839 H 0.37008 0.99092 0.20768 0.0
H840 H 0.37703 0.97762 0.23759 0.0
H841 H 0.3777 0.02495 0.22971 0.0
H842 H 0.2674 0.08613 0.2751 0.0
H843 H 0.28568 0.05956 0.313 0.0
H844 H 0.34268 0.97385 0.27644 0.0
C845 C 0.30677 0.03557 0.19196 0.0
C846 C 0.28851 0.06558 0.18223 0.0
C847 C 0.26882 0.08905 0.19705 0.0
C848 C 0.26936 0.08443 0.22143 0.0
C849 C 0.28869 0.05528 0.23066 0.0
C850 C 0.30634 0.03076 0.21634 0.0
C851 C 0.32352 0.00069 0.23061 0.0
C852 C 0.30481 0.96428 0.22561 0.0
C853 C 0.36452 -0.00155 0.22614 0.0
C854 C 0.31505 0.01345 0.25521 0.0
C855 C 0.2943 0.04461 0.25488 0.0
C856 C 0.28321 0.06144 0.27552 0.0
C857 C 0.29357 0.04604 0.29699 0.0
C858 C 0.31528 0.01438 0.29773 0.0
C859 C 0.32594 -0.00205 0.27648 0.0
H860 H 0.31896 0.3973 0.56638 0.0
H861 H 0.2654 0.50011 0.57856 0.0
H862 H 0.24381 0.5007 0.538 0.0
H863 H 0.35018 0.41294 0.51148 0.0
H864 H 0.34084 0.3686 0.49977 0.0
H865 H 0.3486 0.37401 0.53054 0.0
H866 H 0.28659 0.34404 0.53989 0.0
H867 H 0.27896 0.33787 0.50905 0.0
H868 H 0.24609 0.36169 0.52655 0.0
H869 H 0.23465 0.4934 0.49405 0.0
H870 H 0.23399 0.47513 0.45225 0.0
H871 H 0.29088 0.37623 0.47039 0.0
C872 C 0.30177 0.41945 0.56081 0.0
C873 C 0.29469 0.44911 0.5757 0.0
C874 C 0.27199 0.47743 0.56755 0.0
C875 C 0.25939 0.47796 0.54445 0.0
C876 C 0.26853 0.44922 0.5299 0.0
C877 C 0.28831 0.41997 0.538 0.0
C878 C 0.29531 0.39285 0.51879 0.0
C879 C 0.33615 0.38679 0.51492 0.0
C880 C 0.27556 0.35699 0.52388 0.0
C881 C 0.27825 0.41238 0.4984 0.0
C882 C 0.26245 0.44465 0.50504 0.0
C883 C 0.24629 0.46779 0.48875 0.0
C884 C 0.24601 0.45728 0.4651 0.0
C885 C 0.26221 0.42424 0.45818 0.0
C886 C 0.27827 0.40168 0.47513 0.0
H887 H 0.85592 0.05705 0.21842 0.0
H888 H 0.78513 0.96413 0.20989 0.0
H889 H 0.76646 0.96963 0.25148 0.0
H890 H 0.88714 0.03785 0.27529 0.0
H891 H 0.88713 0.08454 0.28453 0.0
H892 H 0.89368 0.07358 0.25418 0.0
H893 H 0.83936 0.11456 0.24281 0.0
H894 H 0.83333 0.12607 0.27311 0.0
H895 H 0.7961 0.10751 0.25675 0.0
H896 H 0.7546 0.98742 0.29433 0.0
H897 H 0.75238 0.01377 0.33415 0.0
H898 H 0.8337 0.09266 0.31407 0.0
C899 C 0.83655 0.03762 0.22518 0.0
C900 C 0.82215 0.00993 0.21084 0.0
C901 C 0.79668 0.98542 0.22053 0.0
C902 C 0.78588 0.98845 0.24411 0.0
C903 C 0.80078 0.01614 0.25771 0.0
C904 C 0.82556 0.04028 0.24848 0.0
C905 C 0.83772 0.06775 0.26646 0.0
C906 C 0.87886 0.06578 0.27034 0.0
C907 C 0.82591 0.10623 0.25936 0.0
C908 C 0.81694 0.05463 0.28768 0.0
C909 C 0.79515 0.02533 0.28222 0.0
C910 C 0.77198 0.00997 0.2988 0.0
C911 C 0.77101 0.02497 0.3214 0.0
C912 C 0.79367 0.0545 0.32742 0.0
C913 C 0.81699 0.06929 0.31026 0.0
H914 H 0.19453 0.49893 0.06176 0.0
H915 H 0.16016 0.60602 0.08373 0.0
H916 H 0.17607 0.63035 0.04483 0.0
H917 H 0.26919 0.52471 0.02469 0.0
H918 H 0.25941 0.49215 1.00212 0.0
H919 H 0.2468 0.48273 0.03196 0.0
H920 H 0.18022 0.47284 0.0194 0.0
H921 H 0.19268 0.4818 0.98949 0.0
H922 H 0.15722 0.50781 0.00319 0.0
H923 H 0.19615 0.64353 0.00469 0.0
H924 H 0.21166 0.64413 0.96291 0.0
H925 H 0.23083 0.52813 0.96491 0.0
C926 C 0.19063 0.52753 0.05834 0.0
C927 C 0.1766 0.55087 0.07579 0.0
C928 C 0.171 0.58787 0.0706 0.0
C929 C 0.18015 0.60192 0.04863 0.0
C930 C 0.1943 0.57844 0.0319 0.0
C931 C 0.19885 0.5419 0.03621 0.0
C932 C 0.2121 0.52238 0.01441 0.0
C933 C 0.24908 0.50444 0.01855 0.0
C934 C 0.18387 0.49457 0.00613 0.0
C935 C 0.21512 0.5539 0.99739 0.0
C936 C 0.20482 0.58591 0.00806 0.0
C937 C 0.20419 0.61868 0.9961 0.0
C938 C 0.21312 0.61872 0.97238 0.0
C939 C 0.22254 0.58623 0.96072 0.0
C940 C 0.22435 0.55344 0.9735 0.0
H941 H 0.69668 0.94147 0.70778 0.0
H942 H 0.6441 0.04463 0.71908 0.0
H943 H 0.65749 0.04033 0.76151 0.0
H944 H 0.65948 0.90045 0.75463 0.0
H945 H 0.69745 0.8726 0.76254 0.0
H946 H 0.69204 0.8869 0.73279 0.0
H947 H 0.7554 0.91638 0.73228 0.0
H948 H 0.7624 0.90091 0.7618 0.0
H949 H 0.76761 0.94828 0.75475 0.0
H950 H 0.66789 0.01924 0.80345 0.0
H951 H 0.67377 0.98342 0.84011 0.0
H952 H 0.71958 0.89457 0.80071 0.0
C953 C 0.68956 0.96386 0.71912 0.0
C954 C 0.67049 0.9939 0.71032 0.0
C955 C 0.65976 0.02197 0.7256 0.0
C956 C 0.6672 0.01965 0.74966 0.0
C957 C 0.68542 0.98909 0.75802 0.0
C958 C 0.69674 0.96185 0.74306 0.0
C959 C 0.71126 0.92963 0.75641 0.0
C960 C 0.68872 0.89541 0.75128 0.0
C961 C 0.75157 0.92346 0.75099 0.0
C962 C 0.70578 0.9425 0.78124 0.0
C963 C 0.69116 0.97698 0.78196 0.0
C964 C 0.68031 0.99269 0.80309 0.0
C965 C 0.68387 0.97236 0.82384 0.0
C966 C 0.69816 0.93688 0.82315 0.0
C967 C 0.70982 0.92222 0.80168 0.0
H968 H 0.42437 0.23565 0.18282 0.0
H969 H 0.41481 0.18532 0.11464 0.0
H970 H 0.47321 0.2129 0.10284 0.0
H971 H 0.4654 0.31948 0.1651 0.0
H972 H 0.49573 0.3214 0.1897 0.0
H973 H 0.45277 0.29862 0.19244 0.0
H974 H 0.4854 0.24012 0.20585 0.0
H975 H 0.52845 0.26274 0.20327 0.0
H976 H 0.52053 0.22103 0.18776 0.0
H977 H 0.53314 0.24427 0.09894 0.0
H978 H 0.59199 0.27529 0.10348 0.0
H979 H 0.563 0.30578 0.17416 0.0
C980 C 0.43436 0.23069 0.16531 0.0
C981 C 0.41486 0.2086 0.14953 0.0
C982 C 0.42924 0.20219 0.12697 0.0
C983 C 0.46232 0.21783 0.12012 0.0
C984 C 0.48078 0.23955 0.1361 0.0
C985 C 0.4675 0.24571 0.1583 0.0
C986 C 0.49357 0.2685 0.17255 0.0
C987 C 0.4758 0.30412 0.1804 0.0
C988 C 0.50784 0.24681 0.1936 0.0
C989 C 0.52324 0.27516 0.15465 0.0
C990 C 0.51533 0.25793 0.13381 0.0
C991 C 0.53936 0.25828 0.11503 0.0
C992 C 0.57257 0.27615 0.1177 0.0
C993 C 0.58135 0.2939 0.13881 0.0
C994 C 0.55624 0.29369 0.1575 0.0
H995 H 0.55045 0.68224 0.36668 0.0
H996 H 0.52982 0.64579 0.4374 0.0
H997 H 0.49833 0.7035 0.44608 0.0
H998 H 0.5649 0.77945 0.38109 0.0
H999 H 0.54268 0.79451 0.35481 0.0
H1000 H 0.56641 0.75186 0.35514 0.0
H1001 H 0.50808 0.71943 0.34115 0.0
H1002 H 0.48398 0.76182 0.34117 0.0
H1003 H 0.46697 0.72408 0.35795 0.0
H1004 H 0.462 0.76154 0.44512 0.0
H1005 H 0.43114 0.81954 0.43647 0.0
H1006 H 0.47882 0.82013 0.36716 0.0
C1007 C 0.54043 0.68714 0.38419 0.0
C1008 C 0.54317 0.66026 0.40159 0.0
C1009 C 0.52864 0.66668 0.42409 0.0
C1010 C 0.5105 0.69918 0.42909 0.0
C1011 C 0.50736 0.72496 0.41137 0.0
C1012 C 0.52257 0.71964 0.38952 0.0
C1013 C 0.51419 0.75103 0.37333 0.0
C1014 C 0.54913 0.77036 0.36565 0.0
C1015 C 0.492 0.73832 0.35215 0.0
C1016 C 0.49163 0.77466 0.38935 0.0
C1017 C 0.48756 0.75892 0.41113 0.0
C1018 C 0.46559 0.77443 0.42827 0.0
C1019 C 0.44793 0.80719 0.42315 0.0
C1020 C 0.45282 0.82436 0.40121 0.0
C1021 C 0.47498 0.80778 0.38416 0.0
H1022 H 0.92242 0.73245 0.67879 0.0
H1023 H 0.92162 0.67681 0.61213 0.0
H1024 H 0.98324 0.69982 0.6037 0.0
H1025 H 0.97035 0.81152 0.6628 0.0
H1026 H -0.00237 0.81353 0.68884 0.0
H1027 H 0.95362 0.79258 0.68982 0.0
H1028 H 0.98203 0.73359 0.70596 0.0
H1029 H 0.02616 0.75441 0.70518 0.0
H1030 H 0.01848 0.71224 0.69016 0.0
H1031 H 0.04372 0.72875 0.60229 0.0
H1032 H 0.10188 0.76045 0.60853 0.0
H1033 H 0.06437 0.79738 0.67624 0.0
C1034 C 0.93538 0.72524 0.66245 0.0
C1035 C 0.91756 0.7032 0.64593 0.0
C1036 C 0.93518 0.6936 0.62492 0.0
C1037 C 0.96998 0.70661 0.62 0.0
C1038 C 0.98687 0.72846 0.63654 0.0
C1039 C 0.9705 0.73727 0.65752 0.0
C1040 C 0.99541 0.75989 0.67266 0.0
C1041 C 0.97821 0.79657 0.67887 0.0
C1042 C 0.00616 0.73878 0.6948 0.0
C1043 C 0.02744 0.76427 0.65627 0.0
C1044 C 0.02208 0.7453 0.63573 0.0
C1045 C 0.04823 0.74386 0.6182 0.0
C1046 C 0.08099 0.76197 0.62182 0.0
C1047 C 0.08689 0.78179 0.64254 0.0
C1048 C 0.05983 0.78315 0.65997 0.0
H1049 H 0.98943 0.32483 0.92618 0.0
H1050 H 0.90888 0.31271 0.87172 0.0
H1051 H 0.93013 0.25017 0.86452 0.0
H1052 H 0.06125 0.27425 0.90037 0.0
H1053 H 0.07505 0.25262 0.92717 0.0
H1054 H 0.05376 0.29648 0.928 0.0
H1055 H 0.00485 0.27167 0.95628 0.0
H1056 H 0.02602 0.22769 0.95558 0.0
H1057 H 0.9789 0.23235 0.94808 0.0
H1058 H 0.95898 0.18925 0.8636 0.0
H1059 H 0.99384 0.13275 0.86895 0.0
H1060 H 0.05665 0.1837 0.92372 0.0
C1061 C 0.97646 0.309 0.91266 0.0
C1062 C 0.94767 0.32354 0.89935 0.0
C1063 C 0.93087 0.30194 0.88212 0.0
C1064 C 0.94282 0.2665 0.87788 0.0
C1065 C 0.97121 0.25291 0.8913 0.0
C1066 C 0.98764 0.27329 0.90849 0.0
C1067 C 0.01659 0.25154 0.92103 0.0
C1068 C 0.05388 0.26982 0.919 0.0
C1069 C 0.00596 0.24546 0.94676 0.0
C1070 C 0.0151 0.21634 0.90739 0.0
C1071 C 0.9882 0.21761 0.89063 0.0
C1072 C 0.98025 0.18797 0.87653 0.0
C1073 C 0.00016 0.15607 0.87968 0.0
C1074 C 0.02816 0.15424 0.89642 0.0
C1075 C 0.03588 0.1848 0.91041 0.0
H1076 H 0.55251 0.79429 0.88245 0.0
H1077 H 0.58616 0.75346 0.8147 0.0
H1078 H 0.52791 0.72218 0.81033 0.0
H1079 H 0.51007 0.71584 0.90127 0.0
H1080 H 0.47226 0.73695 0.91583 0.0
H1081 H 0.5144 0.76106 0.91282 0.0
H1082 H 0.48161 0.81417 0.89215 0.0
H1083 H 0.43916 0.7906 0.89554 0.0
H1084 H 0.45383 0.80513 0.86696 0.0
H1085 H 0.47232 0.68693 0.81592 0.0
H1086 H 0.41562 0.65755 0.82827 0.0
H1087 H 0.41392 0.72348 0.89102 0.0
C1088 C 0.547 0.77963 0.86647 0.0
C1089 C 0.57377 0.77591 0.84901 0.0
C1090 C 0.56606 0.75615 0.82842 0.0
C1091 C 0.53305 0.73838 0.82571 0.0
C1092 C 0.50788 0.74083 0.84369 0.0
C1093 C 0.51388 0.76154 0.86345 0.0
C1094 C 0.48268 0.75767 0.88057 0.0
C1095 C 0.49565 0.74195 0.904 0.0
C1096 C 0.46316 0.79406 0.884 0.0
C1097 C 0.45912 0.73077 0.86759 0.0
C1098 C 0.47438 0.72134 0.84643 0.0
C1099 C 0.45949 0.69472 0.83218 0.0
C1100 C 0.42741 0.67798 0.83943 0.0
C1101 C 0.41011 0.68869 0.8604 0.0
C1102 C 0.42645 0.71509 0.87478 0.0
H1103 H 0.49038 0.32133 0.64286 0.0
H1104 H 0.41133 0.32275 0.58688 0.0
H1105 H 0.43273 0.26289 0.57369 0.0
H1106 H 0.56254 0.27764 0.61251 0.0
H1107 H 0.57621 0.24965 0.63678 0.0
H1108 H 0.55477 0.29271 0.64205 0.0
H1109 H 0.50561 0.26114 0.66721 0.0
H1110 H 0.52703 0.21799 0.66212 0.0
H1111 H 0.47995 0.22425 0.65496 0.0
H1112 H 0.46227 0.20381 0.56624 0.0
H1113 H 0.49669 0.14666 0.56583 0.0
H1114 H 0.55719 0.18174 0.62662 0.0
C1115 C 0.47753 0.30888 0.6279 0.0
C1116 C 0.44911 0.32663 0.61592 0.0
C1117 C 0.43282 0.30948 0.59649 0.0
C1118 C 0.44494 0.27558 0.58877 0.0
C1119 C 0.47306 0.25889 0.60085 0.0
C1120 C 0.4889 0.27462 0.62018 0.0
C1121 C 0.51781 0.25 0.63041 0.0
C1122 C 0.55504 0.26863 0.63042 0.0
C1123 C 0.50695 0.23761 0.65514 0.0
C1124 C 0.51662 0.21863 0.61326 0.0
C1125 C 0.49029 0.22435 0.59653 0.0
C1126 C 0.48298 0.199 0.57921 0.0
C1127 C 0.50268 0.16663 0.57912 0.0
C1128 C 0.52975 0.15994 0.59604 0.0
C1129 C 0.53708 0.18647 0.61323 0.0
H1130 H 0.07525 0.26319 0.3861 0.0
H1131 H 0.08136 0.28851 0.31222 0.0
H1132 H 0.01718 0.27186 0.30751 0.0
H1133 H 0.02193 0.18428 0.37941 0.0
H1134 H 0.9949 0.19082 0.40534 0.0
H1135 H 0.04014 0.2089 0.4039 0.0
H1136 H 0.01585 0.27298 0.41322 0.0
H1137 H 0.97043 0.25527 0.41487 0.0
H1138 H 0.98066 0.29224 0.39533 0.0
H1139 H 0.95395 0.25192 0.31027 0.0
H1140 H 0.89457 0.22472 0.31976 0.0
H1141 H 0.9295 0.20648 0.39106 0.0
C1142 C 0.0627 0.26539 0.36907 0.0
C1143 C 0.08264 0.27705 0.34945 0.0
C1144 C 0.0661 0.27947 0.32732 0.0
C1145 C 0.02975 0.2703 0.32453 0.0
C1146 C 0.01066 0.25836 0.34405 0.0
C1147 C 0.02643 0.25554 0.36587 0.0
C1148 C 0.00025 0.23925 0.38343 0.0
C1149 C 0.0152 0.20369 0.39361 0.0
C1150 C 0.99127 0.26657 0.40286 0.0
C1151 C 0.96776 0.23255 0.36784 0.0
C1152 C 0.97426 0.24464 0.34535 0.0
C1153 C 0.94846 0.24211 0.32776 0.0
C1154 C 0.915 0.22653 0.33324 0.0
C1155 C 0.90812 0.21307 0.35592 0.0
C1156 C 0.93464 0.21619 0.3735 0.0
H1157 H 0.0213 0.66946 0.13974 0.0
H1158 H 0.06407 0.66895 0.06907 0.0
H1159 H 0.0392 0.73036 0.06259 0.0
H1160 H 0.93956 0.71561 0.12941 0.0
H1161 H 0.9412 0.74264 0.1556 0.0
H1162 H 0.96297 0.69902 0.15487 0.0
H1163 H 0.0239 0.72835 0.16689 0.0
H1164 H 0.00221 0.77205 0.16797 0.0
H1165 H 0.04175 0.76552 0.14994 0.0
H1166 H 0.00816 0.79017 0.06337 0.0
H1167 H 0.97652 0.84761 0.07228 0.0
H1168 H 0.95494 0.81005 0.14273 0.0
C1169 C 0.02553 0.68246 0.12297 0.0
C1170 C 0.04441 0.66476 0.10487 0.0
C1171 C 0.04986 0.68242 0.08319 0.0
C1172 C 0.03571 0.7171 0.07932 0.0
C1173 C 0.01685 0.73374 0.09748 0.0
C1174 C 0.01228 0.71734 0.119 0.0
C1175 C 0.99198 0.74165 0.1358 0.0
C1176 C 0.95683 0.72364 0.14441 0.0
C1177 C 0.01641 0.75254 0.15636 0.0
C1178 C 0.98439 0.77368 0.12003 0.0
C1179 C -0.00072 0.7686 0.09806 0.0
C1180 C -0.00353 0.79455 0.0805 0.0
C1181 C 0.97846 0.82688 0.08565 0.0
C1182 C 0.96333 0.83263 0.10802 0.0
C1183 C 0.966 0.80576 0.12541 0.0
H1184 H 0.21582 0.21791 0.15877 0.0
H1185 H 0.26198 0.19637 0.0905 0.0
H1186 H 0.24174 0.25646 0.07683 0.0
H1187 H 0.13577 0.2735 0.13531 0.0
H1188 H 0.13718 0.30303 0.16034 0.0
H1189 H 0.14944 0.25595 0.16334 0.0
H1190 H 0.21104 0.27522 0.1808 0.0
H1191 H 0.1995 0.3222 0.17741 0.0
H1192 H 0.24037 0.30482 0.16427 0.0
H1193 H 0.22864 0.32215 0.0734 0.0
H1194 H 0.21544 0.38714 0.07838 0.0
H1195 H 0.17333 0.36584 0.14791 0.0
C1196 C 0.22031 0.22543 0.1407 0.0
C1197 C 0.24008 0.20255 0.12559 0.0
C1198 C 0.24622 0.21326 0.10217 0.0
C1199 C 0.23499 0.24741 0.0943 0.0
C1200 C 0.21679 0.26999 0.1099 0.0
C1201 C 0.20845 0.2591 0.13241 0.0
C1202 C 0.1905 0.28944 0.14603 0.0
C1203 C 0.15087 0.27991 0.15158 0.0
C1204 C 0.21165 0.29844 0.16843 0.0
C1205 C 0.19275 0.31988 0.12828 0.0
C1206 C 0.20763 0.3079 0.10748 0.0
C1207 C 0.2159 0.33164 0.0893 0.0
C1208 C 0.20857 0.36854 0.09237 0.0
C1209 C 0.19294 0.38135 0.1134 0.0
C1210 C 0.18451 0.3566 0.13146 0.0
H1211 H 0.36772 0.44115 0.39809 0.0
H1212 H 0.35578 0.41936 0.32412 0.0
H1213 H 0.4217 0.42781 0.3185 0.0
H1214 H 0.4263 0.5132 0.39107 0.0
H1215 H 0.45399 0.50435 0.41633 0.0
H1216 H 0.4076 0.48955 0.41592 0.0
H1217 H 0.42748 0.42406 0.42454 0.0
H1218 H 0.47437 0.43773 0.42488 0.0
H1219 H 0.45979 0.40205 0.40564 0.0
H1220 H 0.48745 0.443 0.32029 0.0
H1221 H 0.54757 0.47002 0.32859 0.0
H1222 H 0.51547 0.48751 0.40053 0.0
C1223 C 0.37927 0.43753 0.38083 0.0
C1224 C 0.35711 0.42965 0.36145 0.0
C1225 C 0.37261 0.42568 0.33905 0.0
C1226 C 0.40995 0.43005 0.33578 0.0
C1227 C 0.43114 0.43875 0.35509 0.0
C1228 C 0.41636 0.44276 0.37718 0.0
C1229 C 0.4442 0.45671 0.39436 0.0
C1230 C 0.43231 0.49311 0.40503 0.0
C1231 C 0.45189 0.42845 0.41348 0.0
C1232 C 0.47649 0.46124 0.37825 0.0
C1233 C 0.46872 0.4496 0.35587 0.0
C1234 C 0.494 0.45194 0.33777 0.0
C1235 C 0.52795 0.46722 0.34258 0.0
C1236 C 0.53574 0.48051 0.36512 0.0
C1237 C 0.50994 0.47717 0.3832 0.0
H1238 H 0.27851 0.77979 0.65113 0.0
H1239 H 0.24195 0.79923 0.58051 0.0
H1240 H 0.26085 0.73708 0.56942 0.0
H1241 H 0.35673 0.71655 0.63631 0.0
H1242 H 0.3472 0.68928 0.66175 0.0
H1243 H 0.33858 0.73735 0.66231 0.0
H1244 H 0.27175 0.72493 0.6741 0.0
H1245 H 0.28051 0.67697 0.67363 0.0
H1246 H 0.24447 0.69564 0.65619 0.0
H1247 H 0.27151 0.66979 0.56868 0.0
H1248 H 0.27979 0.60468 0.57663 0.0
H1249 H 0.31068 0.6292 0.64797 0.0
C1250 C 0.27649 0.77153 0.63303 0.0
C1251 C 0.25993 0.79436 0.61644 0.0
C1252 C 0.2558 0.7824 0.59317 0.0
C1253 C 0.26617 0.74707 0.58684 0.0
C1254 C 0.28087 0.72446 0.60399 0.0
C1255 C 0.28683 0.73655 0.6265 0.0
C1256 C 0.29901 0.706 0.64236 0.0
C1257 C 0.33769 0.7127 0.6512 0.0
C1258 C 0.27234 0.70055 0.66277 0.0
C1259 C 0.29772 0.67446 0.62557 0.0
C1260 C 0.28729 0.68567 0.6035 0.0
C1261 C 0.28062 0.6609 0.5857 0.0
C1262 C 0.28507 0.62391 0.59049 0.0
C1263 C 0.29618 0.61187 0.61289 0.0
C1264 C 0.30281 0.63761 0.63057 0.0
H1265 H 0.96468 0.49658 0.84359 0.0
H1266 H 0.94395 0.52359 0.91603 0.0
H1267 H 0.00417 0.55207 0.91885 0.0
H1268 H 0.05258 0.47106 0.84875 0.0
H1269 H 0.07011 0.49145 0.8224 0.0
H1270 H 0.02308 0.4791 0.82422 0.0
H1271 H 0.00424 0.5449 0.81411 0.0
H1272 H 0.05138 0.55728 0.81184 0.0
H1273 H 0.02177 0.5819 0.83121 0.0
H1274 H 0.06816 0.56737 0.91631 0.0
H1275 H 0.13249 0.5754 0.90756 0.0
H1276 H 0.11418 0.54052 0.83601 0.0
C1277 C 0.9725 0.50982 0.85967 0.0
C1278 C 0.94985 0.50848 0.87957 0.0
C1279 C 0.961 0.5249 0.90062 0.0
C1280 C 0.99509 0.54104 0.90237 0.0
C1281 C 0.0175 0.54082 0.8828 0.0
C1282 C 0.0066 0.52645 0.86165 0.0
C1283 C 0.03728 0.52798 0.84389 0.0
C1284 C 0.04628 0.49013 0.83427 0.0
C1285 C 0.02812 0.55459 0.82409 0.0
C1286 C 0.06766 0.54268 0.85897 0.0
C1287 C 0.05521 0.55052 0.88119 0.0
C1288 C 0.07813 0.56224 0.89883 0.0
C1289 C 0.11478 0.56649 0.89365 0.0
C1290 C 0.12846 0.55886 0.871 0.0
C1291 C 0.10447 0.54697 0.85338 0.0
H1292 H 0.78461 0.78411 0.91012 0.0
H1293 H 0.68986 0.77526 0.86654 0.0
H1294 H 0.70346 0.71057 0.85933 0.0
H1295 H 0.84328 0.72641 0.8799 0.0
H1296 H 0.86248 0.70524 0.90542 0.0
H1297 H 0.84493 0.75065 0.90721 0.0
H1298 H 0.80233 0.73143 0.94108 0.0
H1299 H 0.82008 0.686 0.93955 0.0
H1300 H 0.77205 0.69364 0.9371 0.0
H1301 H 0.73099 0.64915 0.8543 0.0
H1302 H 0.76476 0.59178 0.85581 0.0
H1303 H 0.83884 0.63844 0.90636 0.0
C1304 C 0.76653 0.7685 0.89919 0.0
C1305 C 0.73674 0.78501 0.8878 0.0
C1306 C 0.7134 0.7634 0.8743 0.0
C1307 C 0.72086 0.72664 0.87042 0.0
C1308 C 0.75119 0.71159 0.88113 0.0
C1309 C 0.77306 0.73152 0.89581 0.0
C1310 C 0.80326 0.7084 0.90582 0.0
C1311 C 0.8407 0.72359 0.89917 0.0
C1312 C 0.79918 0.70465 0.93247 0.0
C1313 C 0.79581 0.67273 0.89367 0.0
C1314 C 0.76566 0.67529 0.87949 0.0
C1315 C 0.75424 0.64657 0.86565 0.0
C1316 C 0.77378 0.61414 0.86657 0.0
C1317 C 0.80433 0.61048 0.88135 0.0
C1318 C 0.81542 0.64026 0.89508 0.0
H1319 H 0.6292 0.49201 0.64609 0.0
H1320 H 0.6227 0.60839 0.63543 0.0
H1321 H 0.55622 0.60523 0.63856 0.0
H1322 H 0.55483 0.4691 0.61195 0.0
H1323 H 0.53882 0.43291 0.63048 0.0
H1324 H 0.58614 0.44458 0.6302 0.0
H1325 H 0.58473 0.45454 0.67502 0.0
H1326 H 0.53743 0.44245 0.67552 0.0
H1327 H 0.55197 0.48522 0.68743 0.0
H1328 H 0.4912 0.58912 0.63928 0.0
H1329 H 0.43078 0.56162 0.63822 0.0
H1330 H 0.47832 0.45503 0.64823 0.0
C1331 C 0.61384 0.51692 0.64484 0.0
C1332 C 0.63113 0.55043 0.64051 0.0
C1333 C 0.61006 0.58239 0.63874 0.0
C1334 C 0.57228 0.5809 0.64055 0.0
C1335 C 0.55604 0.5473 0.64428 0.0
C1336 C 0.57606 0.51592 0.64657 0.0
C1337 C 0.5517 0.48306 0.64914 0.0
C1338 C 0.55827 0.45582 0.62925 0.0
C1339 C 0.55676 0.46526 0.67321 0.0
C1340 C 0.5148 0.50075 0.64717 0.0
C1341 C 0.51811 0.53788 0.64464 0.0
C1342 C 0.48821 0.56015 0.64152 0.0
C1343 C 0.45395 0.54411 0.64086 0.0
C1344 C 0.44966 0.50604 0.6432 0.0
C1345 C 0.4806 0.48416 0.64662 0.0
H1346 H 0.72707 0.22499 0.41973 0.0
H1347 H 0.7744 0.21801 0.35059 0.0
H1348 H 0.75679 0.28089 0.34247 0.0
H1349 H 0.65079 0.27986 0.40402 0.0
H1350 H 0.65166 0.30716 0.4301 0.0
H1351 H 0.66851 0.26137 0.43083 0.0
H1352 H 0.73014 0.28439 0.44645 0.0
H1353 H 0.71338 0.33024 0.44588 0.0
H1354 H 0.7544 0.31883 0.43043 0.0
H1355 H 0.73363 0.34357 0.34138 0.0
H1356 H 0.70743 0.40403 0.34759 0.0
H1357 H 0.67474 0.37258 0.41775 0.0
C1358 C 0.73416 0.23709 0.40308 0.0
C1359 C 0.75297 0.21701 0.38593 0.0
C1360 C 0.76103 0.23318 0.36414 0.0
C1361 C 0.75083 0.26887 0.35931 0.0
C1362 C 0.73255 0.28812 0.37656 0.0
C1363 C 0.72441 0.27305 0.39807 0.0
C1364 C 0.70464 0.30012 0.41345 0.0
C1365 C 0.66664 0.28629 0.41997 0.0
C1366 C 0.72698 0.30891 0.43535 0.0
C1367 C 0.70274 0.33248 0.39708 0.0
C1368 C 0.71906 0.32479 0.37592 0.0
C1369 C 0.72099 0.3501 0.35793 0.0
C1370 C 0.70614 0.38445 0.36169 0.0
C1371 C 0.68937 0.39322 0.38325 0.0
C1372 C 0.68752 0.36673 0.40113 0.0
H1373 H 0.87354 0.42192 0.11627 0.0
H1374 H 0.84262 0.48177 0.17843 0.0
H1375 H 0.90683 0.49624 0.18573 0.0
H1376 H 0.96126 0.38666 0.13861 0.0
H1377 H 0.98325 0.39241 0.11069 0.0
H1378 H 0.9355 0.38243 0.11205 0.0
H1379 H 0.92195 0.43942 0.08727 0.0
H1380 H 0.96941 0.44987 0.08599 0.0
H1381 H 0.93798 0.48301 0.09703 0.0
H1382 H 0.97337 0.50927 0.18428 0.0
H1383 H 0.03601 0.52427 0.17205 0.0
H1384 H 0.02379 0.45686 0.1108 0.0
C1385 C 0.8803 0.43752 0.13167 0.0
C1386 C 0.85299 0.4505 0.14688 0.0
C1387 C 0.86301 0.47139 0.16657 0.0
C1388 C 0.89948 0.47953 0.17097 0.0
C1389 C 0.92572 0.46643 0.1556 0.0
C1390 C 0.91657 0.44596 0.13629 0.0
C1391 C 0.94946 0.43831 0.12121 0.0
C1392 C 0.95786 0.39753 0.12061 0.0
C1393 C 0.94434 0.45358 0.09642 0.0
C1394 C 0.9783 0.45889 0.13453 0.0
C1395 C 0.96422 0.47418 0.15465 0.0
C1396 C 0.98492 0.49678 0.16887 0.0
C1397 C 0.0205 0.50497 0.16193 0.0
C1398 C 0.03484 0.49067 0.14099 0.0
C1399 C 0.01376 0.46683 0.1274 0.0
H1400 H 0.7632 0.72667 0.59476 0.0
H1401 H 0.69533 0.68213 0.64947 0.0
H1402 H 0.66018 0.73909 0.65072 0.0
H1403 H 0.77331 0.80971 0.61445 0.0
H1404 H 0.76905 0.83471 0.58751 0.0
H1405 H 0.78362 0.78832 0.5869 0.0
H1406 H 0.73132 0.77171 0.55885 0.0
H1407 H 0.71696 0.81842 0.55889 0.0
H1408 H 0.6854 0.78311 0.56663 0.0
H1409 H 0.64272 0.80425 0.65241 0.0
H1410 H 0.63759 0.87084 0.65036 0.0
H1411 H 0.71371 0.87241 0.59244 0.0
C1412 C 0.73969 0.72843 0.60606 0.0
C1413 C 0.73131 0.70012 0.62173 0.0
C1414 C 0.70132 0.70336 0.63694 0.0
C1415 C 0.6814 0.73565 0.63784 0.0
C1416 C 0.69124 0.76385 0.62288 0.0
C1417 C 0.71882 0.76011 0.60663 0.0
C1418 C 0.72553 0.79538 0.59371 0.0
C1419 C 0.76522 0.80774 0.5958 0.0
C1420 C 0.71412 0.79195 0.56799 0.0
C1421 C 0.70008 0.82028 0.60686 0.0
C1422 C 0.68004 0.80144 0.6233 0.0
C1423 C 0.65736 0.81913 0.63909 0.0
C1424 C 0.65486 0.85701 0.63792 0.0
C1425 C 0.67502 0.8768 0.62112 0.0
C1426 C 0.69753 0.85801 0.60525 0.0
H1427 H 0.86869 0.96158 0.8992 0.0
H1428 H 0.85401 0.92188 0.82876 0.0
H1429 H 0.91945 0.93243 0.82048 0.0
H1430 H 0.92647 0.03044 0.88928 0.0
H1431 H 0.95683 0.02352 0.91335 0.0
H1432 H 0.9105 0.00876 0.91563 0.0
H1433 H 0.9293 0.94433 0.92518 0.0
H1434 H 0.97724 0.95359 0.92254 0.0
H1435 H 0.95698 0.91886 0.90515 0.0
H1436 H 0.98729 0.95113 0.82023 0.0
H1437 H 0.04897 0.97553 0.82807 0.0
H1438 H 0.01602 0.00223 0.89868 0.0
C1439 C 0.87937 0.95516 0.88204 0.0
C1440 C 0.85672 0.94171 0.86443 0.0
C1441 C 0.87134 0.93261 0.84233 0.0
C1442 C 0.90833 0.93839 0.83755 0.0
C1443 C 0.93009 0.95237 0.85531 0.0
C1444 C 0.91604 0.96 0.8772 0.0
C1445 C 0.94462 0.97423 0.89348 0.0
C1446 C 0.93397 0.0114 0.90354 0.0
C1447 C 0.95242 0.9462 0.91277 0.0
C1448 C 0.97618 0.977 0.87686 0.0
C1449 C 0.96802 0.96305 0.85512 0.0
C1450 C 0.99382 0.96215 0.83721 0.0
C1451 C 0.02864 0.97611 0.84174 0.0
C1452 C 0.03672 0.9915 0.86375 0.0
C1453 C 0.01019 0.99154 0.88146 0.0
H1454 H 0.81641 0.12612 0.08689 0.0
H1455 H 0.79976 0.09981 0.16024 0.0
H1456 H 0.78153 0.16247 0.16795 0.0
H1457 H 0.85075 0.21812 0.09707 0.0
H1458 H 0.82845 0.23703 0.07189 0.0
H1459 H 0.84259 0.19027 0.07179 0.0
H1460 H 0.77713 0.17008 0.06225 0.0
H1461 H 0.7628 0.21669 0.06212 0.0
H1462 H 0.7404 0.18437 0.0809 0.0
H1463 H 0.76858 0.22767 0.16873 0.0
H1464 H 0.75092 0.29094 0.16096 0.0
H1465 H 0.76741 0.27476 0.08683 0.0
C1466 C 0.80901 0.13364 0.10455 0.0
C1467 C 0.80981 0.10809 0.12296 0.0
C1468 C 0.79963 0.11887 0.14583 0.0
C1469 C 0.78939 0.15449 0.15047 0.0
C1470 C 0.78933 0.17907 0.13209 0.0
C1471 C 0.79833 0.16924 0.10952 0.0
C1472 C 0.79421 0.20105 0.09292 0.0
C1473 C 0.83119 0.21227 0.08282 0.0
C1474 C 0.76699 0.19252 0.0734 0.0
C1475 C 0.77989 0.22961 0.10959 0.0
C1476 C 0.77869 0.21652 0.13221 0.0
C1477 C 0.76842 0.23801 0.15102 0.0
C1478 C 0.75784 0.27363 0.14648 0.0
C1479 C 0.756 0.28669 0.12334 0.0
C1480 C 0.768 0.26486 0.10465 0.0
H1481 H 0.48276 0.95702 0.35996 0.0
H1482 H 0.42719 0.05473 0.38151 0.0
H1483 H 0.48427 0.0895 0.37746 0.0
H1484 H 0.56007 0.96868 0.38929 0.0
H1485 H 0.59095 0.95245 0.36721 0.0
H1486 H 0.54487 0.93688 0.36753 0.0
H1487 H 0.53609 0.95863 0.32486 0.0
H1488 H 0.58251 0.97379 0.32415 0.0
H1489 H 0.54648 0.00488 0.31721 0.0
H1490 H 0.54857 0.11025 0.3778 0.0
H1491 H 0.61485 0.11731 0.37956 0.0
H1492 H 0.62822 0.00633 0.35597 0.0
C1493 C 0.48259 0.98598 0.363 0.0
C1494 C 0.4511 0.00355 0.37085 0.0
C1495 C 0.45132 0.04124 0.37511 0.0
C1496 C 0.48349 0.06107 0.37288 0.0
C1497 C 0.51462 0.04276 0.36574 0.0
C1498 C 0.51422 0.00625 0.36028 0.0
C1499 C 0.55173 0.99248 0.35456 0.0
C1500 C 0.56252 0.96078 0.37062 0.0
C1501 C 0.55435 0.98182 0.32865 0.0
C1502 C 0.57373 0.02614 0.35948 0.0
C1503 C 0.55176 0.05504 0.36545 0.0
C1504 C 0.56602 0.08814 0.37258 0.0
C1505 C 0.60372 0.09178 0.37365 0.0
C1506 C 0.62671 0.06239 0.36778 0.0
C1507 C 0.61138 0.02939 0.36028 0.0
H1508 H 0.29186 0.28337 0.40244 0.0
H1509 H 0.18306 0.2753 0.37507 0.0
H1510 H 0.18946 0.20899 0.37212 0.0
H1511 H 0.33233 0.21952 0.36748 0.0
H1512 H 0.36112 0.1994 0.38934 0.0
H1513 H 0.34674 0.24577 0.39231 0.0
H1514 H 0.31935 0.23231 0.43304 0.0
H1515 H 0.33469 0.18609 0.43062 0.0
H1516 H 0.28763 0.19554 0.43641 0.0
H1517 H 0.20977 0.14713 0.36707 0.0
H1518 H 0.23892 0.08797 0.36533 0.0
H1519 H 0.33574 0.13253 0.3975 0.0
C1520 C 0.26918 0.26747 0.39628 0.0
C1521 C 0.23711 0.28432 0.38822 0.0
C1522 C 0.20803 0.26281 0.38043 0.0
C1523 C 0.21141 0.22521 0.37896 0.0
C1524 C 0.24399 0.20958 0.38582 0.0
C1525 C 0.27211 0.22967 0.3949 0.0
C1526 C 0.30459 0.20572 0.40022 0.0
C1527 C 0.33818 0.21835 0.38651 0.0
C1528 C 0.31199 0.20486 0.42664 0.0
C1529 C 0.29078 0.16927 0.39159 0.0
C1530 C 0.25561 0.17258 0.38359 0.0
C1531 C 0.23689 0.14383 0.37386 0.0
C1532 C 0.25385 0.11024 0.37297 0.0
C1533 C 0.28932 0.10526 0.38177 0.0
C1534 C 0.30846 0.13541 0.39086 0.0
H1535 H 0.97299 0.00855 0.10721 0.0
H1536 H 0.95011 0.00865 0.18124 0.0
H1537 H 0.01066 0.03608 0.18868 0.0
H1538 H 0.06198 0.98584 0.10723 0.0
H1539 H 0.07592 0.01652 0.08437 0.0
H1540 H 0.03004 0.00043 0.0854 0.0
H1541 H 0.00498 0.06814 0.08777 0.0
H1542 H 0.05166 0.08144 0.08384 0.0
H1543 H 0.02572 0.09838 0.1082 0.0
H1544 H 0.07684 0.05812 0.1874 0.0
H1545 H 0.14091 0.07261 0.17765 0.0
H1546 H 0.11734 0.05997 0.10412 0.0
C1547 C 0.98043 0.01509 0.12487 0.0
C1548 C 0.95717 0.00669 0.14361 0.0
C1549 C 0.96774 0.01517 0.16667 0.0
C1550 C 0.00193 0.03077 0.17098 0.0
C1551 C 0.02448 0.03855 0.15193 0.0
C1552 C 0.01371 0.03154 0.12929 0.0
C1553 C 0.04271 0.04165 0.11175 0.0
C1554 C 0.05328 0.00917 0.0963 0.0
C1555 C 0.03061 0.07429 0.09697 0.0
C1556 C 0.07282 0.05243 0.12807 0.0
C1557 C 0.06166 0.05161 0.15118 0.0
C1558 C 0.08555 0.05948 0.16935 0.0
C1559 C 0.12173 0.06783 0.16371 0.0
C1560 C 0.13341 0.06795 0.14017 0.0
C1561 C 0.10862 0.06064 0.12221 0.0
H1562 H 0.17466 0.86183 0.85966 0.0
H1563 H 0.21378 0.89321 0.92802 0.0
H1564 H 0.22433 0.82886 0.9379 0.0
H1565 H 0.13259 0.77439 0.87601 0.0
H1566 H 0.14851 0.75219 0.8499 0.0
H1567 H 0.13863 0.80002 0.84944 0.0
H1568 H 0.20344 0.81374 0.83437 0.0
H1569 H 0.21329 0.76607 0.83438 0.0
H1570 H 0.2418 0.7968 0.85044 0.0
H1571 H 0.23642 0.76185 0.93891 0.0
H1572 H 0.25584 0.69934 0.92897 0.0
H1573 H 0.21044 0.712 0.85985 0.0
C1574 C 0.18456 0.85496 0.8769 0.0
C1575 C 0.19289 0.88223 0.89325 0.0
C1576 C 0.20704 0.87254 0.91534 0.0
C1577 C 0.21283 0.83608 0.92116 0.0
C1578 C 0.20462 0.80968 0.90462 0.0
C1579 C 0.19121 0.81873 0.88281 0.0
C1580 C 0.18923 0.78589 0.86708 0.0
C1581 C 0.14989 0.77764 0.86021 0.0
C1582 C 0.21338 0.79093 0.8453 0.0
C1583 C 0.20414 0.75707 0.88329 0.0
C1584 C 0.21224 0.77111 0.90503 0.0
C1585 C 0.22948 0.7503 0.92214 0.0
C1586 C 0.2401 0.71476 0.91649 0.0
C1587 C 0.23346 0.70072 0.89395 0.0
C1588 C 0.21438 0.72177 0.87751 0.0
H1589 H 0.37148 0.93135 0.61482 0.0
H1590 H 0.34941 0.95516 0.68771 0.0
H1591 H 0.41404 0.97002 0.6936 0.0
H1592 H 0.46411 0.89422 0.62196 0.0
H1593 H 0.47959 0.91584 0.59548 0.0
H1594 H 0.43307 0.90162 0.59819 0.0
H1595 H 0.41326 0.96632 0.58779 0.0
H1596 H 0.45895 0.98313 0.58686 0.0
H1597 H 0.42659 0.00366 0.60617 0.0
H1598 H 0.48082 0.98657 0.69069 0.0
H1599 H 0.54157 0.00843 0.67816 0.0
H1600 H 0.51796 0.97657 0.60707 0.0
C1601 C 0.3803 0.93887 0.63218 0.0
C1602 C 0.3554 0.94172 0.65086 0.0
C1603 C 0.36802 0.95252 0.67316 0.0
C1604 C 0.40474 0.9608 0.67671 0.0
C1605 C 0.42853 0.95803 0.65783 0.0
C1606 C 0.4167 0.94738 0.63599 0.0
C1607 C 0.44645 0.95065 0.61791 0.0
C1608 C 0.45639 0.91336 0.6078 0.0
C1609 C 0.43564 0.97749 0.59854 0.0
C1610 C 0.47672 0.96553 0.63282 0.0
C1611 C 0.46625 0.96891 0.65593 0.0
C1612 C 0.48939 0.98365 0.6727 0.0
C1613 C 0.52376 0.99591 0.66551 0.0
C1614 C 0.53409 0.99387 0.64177 0.0
C1615 C 0.51056 0.97802 0.62538 0.0
loop_
_geom_bond_atom_site_label_1
_geom_bond_atom_site_label_2
_geom_bond_distance
_geom_bond_site_symmetry_2
_ccdc_geom_bond_type
Zn0 O6 1.969 . S
Zn0 O7 1.965 . S
Zn0 O11 2.024 . S
Zn0 O16 1.969 . S
Zn1 O8 1.969 . S
Zn1 O14 1.969 . S
Zn1 O15 1.965 . S
Zn1 O17 2.024 . S
C2 O3 1.229 . S
C2 O11 1.058 . S
O3 C2 1.229 . S
C4 O5 1.229 . S
C4 O17 1.058 . S
O5 C4 1.229 . S
O6 Zn0 1.969 . S
O6 C9 1.267 . S
O7 Zn0 1.965 . S
O7 C18 1.260 . S
O8 Zn1 1.969 . S
O8 C18 1.258 . S
C9 O6 1.267 . S
C9 O10 1.228 . S
O10 C9 1.228 . S
O11 Zn0 2.024 . S
O11 C2 1.058 . S
C12 O13 1.228 . S
C12 O14 1.267 . S
O13 C12 1.228 . S
O14 Zn1 1.969 . S
O14 C12 1.267 . S
O15 Zn1 1.965 . S
O15 C19 1.260 . S
O16 Zn0 1.969 . S
O16 C19 1.258 . S
O17 Zn1 2.024 . S
O17 C4 1.058 . S
C18 O7 1.260 . S
C18 O8 1.258 . S
C19 O15 1.260 . S
C19 O16 1.258 . S
Zn20 O26 1.969 . S
Zn20 O27 1.965 . S
Zn20 O31 2.024 . S
Zn20 O36 1.969 . S
Zn21 O28 1.969 . S
Zn21 O34 1.969 . S
Zn21 O35 1.965 . S
Zn21 O37 2.024 . S
C22 O23 1.229 . S
C22 O31 1.058 . S
O23 C22 1.229 . S
C24 O25 1.229 . S
C24 O37 1.058 . S
O25 C24 1.229 . S
O26 Zn20 1.969 . S
O26 C29 1.267 . S
O27 Zn20 1.965 . S
O27 C38 1.260 . S
O28 Zn21 1.969 . S
O28 C38 1.258 . S
C29 O26 1.267 . S
C29 O30 1.228 . S
O30 C29 1.228 . S
O31 Zn20 2.024 . S
O31 C22 1.058 . S
C32 O33 1.228 . S
C32 O34 1.267 . S
O33 C32 1.228 . S
O34 Zn21 1.969 . S
O34 C32 1.267 . S
O35 Zn21 1.965 . S
O35 C39 1.260 . S
O36 Zn20 1.969 . S
O36 C39 1.258 . S
O37 Zn21 2.024 . S
O37 C24 1.058 . S
C38 O27 1.260 . S
C38 O28 1.258 . S
C39 O35 1.260 . S
C39 O36 1.258 . S
Zn40 O46 1.969 . S
Zn40 O47 1.965 . S
Zn40 O51 2.024 . S
Zn40 O56 1.969 . S
Zn41 O48 1.969 . S
Zn41 O54 1.969 . S
Zn41 O55 1.965 . S
Zn41 O57 2.024 . S
C42 O43 1.229 . S
C42 O51 1.058 . S
O43 C42 1.229 . S
C44 O45 1.229 . S
C44 O57 1.058 . S
O45 C44 1.229 . S
O46 Zn40 1.969 . S
O46 C49 1.267 . S
O47 Zn40 1.965 . S
O47 C58 1.260 . S
O48 Zn41 1.969 . S
O48 C58 1.258 . S
C49 O46 1.267 . S
C49 O50 1.228 . S
O50 C49 1.228 . S
O51 Zn40 2.024 . S
O51 C42 1.058 . S
C52 O53 1.228 . S
C52 O54 1.267 . S
O53 C52 1.228 . S
O54 Zn41 1.969 . S
O54 C52 1.267 . S
O55 Zn41 1.965 . S
O55 C59 1.260 . S
O56 Zn40 1.969 . S
O56 C59 1.258 . S
O57 Zn41 2.024 . S
O57 C44 1.058 . S
C58 O47 1.260 . S
C58 O48 1.258 . S
C59 O55 1.260 . S
C59 O56 1.258 . S
Zn60 O66 1.969 . S
Zn60 O67 1.965 . S
Zn60 O71 2.024 . S
Zn60 O76 1.969 . S
Zn61 O68 1.969 . S
Zn61 O74 1.969 . S
Zn61 O75 1.965 . S
Zn61 O77 2.024 . S
C62 O63 1.229 . S
C62 O71 1.058 . S
O63 C62 1.229 . S
C64 O65 1.229 . S
C64 O77 1.058 . S
O65 C64 1.229 . S
O66 Zn60 1.969 . S
O66 C69 1.267 . S
O67 Zn60 1.965 . S
O67 C78 1.260 . S
O68 Zn61 1.969 . S
O68 C78 1.258 . S
C69 O66 1.267 . S
C69 O70 1.228 . S
O70 C69 1.228 . S
O71 Zn60 2.024 . S
O71 C62 1.058 . S
C72 O73 1.228 . S
C72 O74 1.267 . S
O73 C72 1.228 . S
O74 Zn61 1.969 . S
O74 C72 1.267 . S
O75 Zn61 1.965 . S
O75 C79 1.260 . S
O76 Zn60 1.969 . S
O76 C79 1.258 . S
O77 Zn61 2.024 . S
O77 C64 1.058 . S
C78 O67 1.260 . S
C78 O68 1.258 . S
C79 O75 1.260 . S
C79 O76 1.258 . S
Zn80 O86 1.969 . S
Zn80 O87 1.965 . S
Zn80 O91 2.024 . S
Zn80 O96 1.969 . S
Zn81 O88 1.969 . S
Zn81 O94 1.969 . S
Zn81 O95 1.965 . S
Zn81 O97 2.024 . S
C82 O83 1.229 . S
C82 O91 1.058 . S
O83 C82 1.229 . S
C84 O85 1.229 . S
C84 O97 1.058 . S
O85 C84 1.229 . S
O86 Zn80 1.969 . S
O86 C89 1.267 . S
O87 Zn80 1.965 . S
O87 C98 1.260 . S
O88 Zn81 1.969 . S
O88 C98 1.258 . S
C89 O86 1.267 . S
C89 O90 1.228 . S
O90 C89 1.228 . S
O91 Zn80 2.024 . S
O91 C82 1.058 . S
C92 O93 1.228 . S
C92 O94 1.267 . S
O93 C92 1.228 . S
O94 Zn81 1.969 . S
O94 C92 1.267 . S
O95 Zn81 1.965 . S
O95 C99 1.260 . S
O96 Zn80 1.969 . S
O96 C99 1.258 . S
O97 Zn81 2.024 . S
O97 C84 1.058 . S
C98 O87 1.260 . S
C98 O88 1.258 . S
C99 O95 1.260 . S
C99 O96 1.258 . S
Zn100 O106 1.969 . S
Zn100 O107 1.965 . S
Zn100 O111 2.024 . S
Zn100 O116 1.969 . S
Zn101 O108 1.969 . S
Zn101 O114 1.969 . S
Zn101 O115 1.965 . S
Zn101 O117 2.024 . S
C102 O103 1.229 . S
C102 O111 1.058 . S
O103 C102 1.229 . S
C104 O105 1.229 . S
C104 O117 1.058 . S
O105 C104 1.229 . S
O106 Zn100 1.969 . S
O106 C109 1.267 . S
O107 Zn100 1.965 . S
O107 C118 1.260 . S
O108 Zn101 1.969 . S
O108 C118 1.258 . S
C109 O106 1.267 . S
C109 O110 1.228 . S
O110 C109 1.228 . S
O111 Zn100 2.024 . S
O111 C102 1.058 . S
C112 O113 1.228 . S
C112 O114 1.267 . S
O113 C112 1.228 . S
O114 Zn101 1.969 . S
O114 C112 1.267 . S
O115 Zn101 1.965 . S
O115 C119 1.260 . S
O116 Zn100 1.969 . S
O116 C119 1.258 . S
O117 Zn101 2.024 . S
O117 C104 1.058 . S
C118 O107 1.260 . S
C118 O108 1.258 . S
C119 O115 1.260 . S
C119 O116 1.258 . S
Zn120 O126 1.969 . S
Zn120 O127 1.965 . S
Zn120 O131 2.024 . S
Zn120 O136 1.969 . S
Zn121 O128 1.969 . S
Zn121 O134 1.969 . S
Zn121 O135 1.965 . S
Zn121 O137 2.024 . S
C122 O123 1.229 . S
C122 O131 1.058 . S
O123 C122 1.229 . S
C124 O125 1.229 . S
C124 O137 1.058 . S
O125 C124 1.229 . S
O126 Zn120 1.969 . S
O126 C129 1.267 . S
O127 Zn120 1.965 . S
O127 C138 1.260 . S
O128 Zn121 1.969 . S
O128 C138 1.258 . S
C129 O126 1.267 . S
C129 O130 1.228 . S
O130 C129 1.228 . S
O131 Zn120 2.024 . S
O131 C122 1.058 . S
C132 O133 1.228 . S
C132 O134 1.267 . S
O133 C132 1.228 . S
O134 Zn121 1.969 . S
O134 C132 1.267 . S
O135 Zn121 1.965 . S
O135 C139 1.260 . S
O136 Zn120 1.969 . S
O136 C139 1.258 . S
O137 Zn121 2.024 . S
O137 C124 1.058 . S
C138 O127 1.260 . S
C138 O128 1.258 . S
C139 O135 1.260 . S
C139 O136 1.258 . S
Zn140 O146 1.969 . S
Zn140 O147 1.965 . S
Zn140 O151 2.024 . S
Zn140 O156 1.969 . S
Zn141 O148 1.969 . S
Zn141 O154 1.969 . S
Zn141 O155 1.965 . S
Zn141 O157 2.024 . S
C142 O143 1.229 . S
C142 O151 1.058 . S
O143 C142 1.229 . S
C144 O145 1.229 . S
C144 O157 1.058 . S
O145 C144 1.229 . S
O146 Zn140 1.969 . S
O146 C149 1.267 . S
O147 Zn140 1.965 . S
O147 C158 1.260 . S
O148 Zn141 1.969 . S
O148 C158 1.258 . S
C149 O146 1.267 . S
C149 O150 1.228 . S
O150 C149 1.228 . S
O151 Zn140 2.024 . S
O151 C142 1.058 . S
C152 O153 1.228 . S
C152 O154 1.267 . S
O153 C152 1.228 . S
O154 Zn141 1.969 . S
O154 C152 1.267 . S
O155 Zn141 1.965 . S
O155 C159 1.260 . S
O156 Zn140 1.969 . S
O156 C159 1.258 . S
O157 Zn141 2.024 . S
O157 C144 1.058 . S
C158 O147 1.260 . S
C158 O148 1.258 . S
C159 O155 1.260 . S
C159 O156 1.258 . S
Zn160 O166 1.969 . S
Zn160 O167 1.965 . S
Zn160 O171 2.024 . S
Zn160 O176 1.969 . S
Zn161 O168 1.969 . S
Zn161 O174 1.969 . S
Zn161 O175 1.965 . S
Zn161 O177 2.024 . S
C162 O163 1.229 . S
C162 O171 1.058 . S
O163 C162 1.229 . S
C164 O165 1.229 . S
C164 O177 1.058 . S
O165 C164 1.229 . S
O166 Zn160 1.969 . S
O166 C169 1.267 . S
O167 Zn160 1.965 . S
O167 C178 1.260 . S
O168 Zn161 1.969 . S
O168 C178 1.258 . S
C169 O166 1.267 . S
C169 O170 1.228 . S
O170 C169 1.228 . S
O171 Zn160 2.024 . S
O171 C162 1.058 . S
C172 O173 1.228 . S
C172 O174 1.267 . S
O173 C172 1.228 . S
O174 Zn161 1.969 . S
O174 C172 1.267 . S
O175 Zn161 1.965 . S
O175 C179 1.260 . S
O176 Zn160 1.969 . S
O176 C179 1.258 . S
O177 Zn161 2.024 . S
O177 C164 1.058 . S
C178 O167 1.260 . S
C178 O168 1.258 . S
C179 O175 1.260 . S
C179 O176 1.258 . S
Zn180 O186 1.969 1_565 S
Zn180 O187 1.965 1_565 S
Zn180 O191 2.024 . S
Zn180 O196 1.969 1_565 S
Zn181 O188 1.969 . S
Zn181 O194 1.969 . S
Zn181 O195 1.965 . S
Zn181 O197 2.024 . S
C182 O183 1.229 . S
C182 O191 1.058 . S
O183 C182 1.229 . S
C184 O185 1.229 . S
C184 O197 1.058 . S
O185 C184 1.229 . S
O186 Zn180 1.969 1_545 S
O186 C189 1.267 1_545 S
O187 Zn180 1.965 1_545 S
O187 C198 1.260 . S
O188 Zn181 1.969 . S
O188 C198 1.258 . S
C189 O186 1.267 1_565 S
C189 O190 1.228 . S
O190 C189 1.228 . S
O191 Zn180 2.024 . S
O191 C182 1.058 . S
C192 O193 1.228 . S
C192 O194 1.267 . S
O193 C192 1.228 . S
O194 Zn181 1.969 . S
O194 C192 1.267 . S
O195 Zn181 1.965 . S
O195 C199 1.260 . S
O196 Zn180 1.969 1_545 S
O196 C199 1.258 . S
O197 Zn181 2.024 . S
O197 C184 1.058 . S
C198 O187 1.260 . S
C198 O188 1.258 . S
C199 O195 1.260 . S
C199 O196 1.258 . S
Zn200 O206 1.969 . S
Zn200 O207 1.965 . S
Zn200 O211 2.024 . S
Zn200 O216 1.969 . S
Zn201 O208 1.969 . S
Zn201 O214 1.969 . S
Zn201 O215 1.965 . S
Zn201 O217 2.024 . S
C202 O203 1.229 . S
C202 O211 1.058 . S
O203 C202 1.229 . S
C204 O205 1.229 . S
C204 O217 1.058 . S
O205 C204 1.229 . S
O206 Zn200 1.969 . S
O206 C209 1.267 . S
O207 Zn200 1.965 . S
O207 C218 1.260 . S
O208 Zn201 1.969 . S
O208 C218 1.258 . S
C209 O206 1.267 . S
C209 O210 1.228 . S
O210 C209 1.228 . S
O211 Zn200 2.024 . S
O211 C202 1.058 . S
C212 O213 1.228 . S
C212 O214 1.267 . S
O213 C212 1.228 . S
O214 Zn201 1.969 . S
O214 C212 1.267 . S
O215 Zn201 1.965 . S
O215 C219 1.260 . S
O216 Zn200 1.969 . S
O216 C219 1.258 . S
O217 Zn201 2.024 . S
O217 C204 1.058 . S
C218 O207 1.260 . S
C218 O208 1.258 . S
C219 O215 1.260 . S
C219 O216 1.258 . S
Zn220 O226 1.969 1_545 S
Zn220 O227 1.965 1_545 S
Zn220 O231 2.024 . S
Zn220 O236 1.969 1_545 S
Zn221 O228 1.969 . S
Zn221 O234 1.969 . S
Zn221 O235 1.965 . S
Zn221 O237 2.024 . S
C222 O223 1.229 . S
C222 O231 1.058 . S
O223 C222 1.229 . S
C224 O225 1.229 . S
C224 O237 1.058 . S
O225 C224 1.229 . S
O226 Zn220 1.969 1_565 S
O226 C229 1.267 1_565 S
O227 Zn220 1.965 1_565 S
O227 C238 1.260 . S
O228 Zn221 1.969 . S
O228 C238 1.258 . S
C229 O226 1.267 1_545 S
C229 O230 1.228 . S
O230 C229 1.228 . S
O231 Zn220 2.024 . S
O231 C222 1.058 . S
C232 O233 1.228 . S
C232 O234 1.267 . S
O233 C232 1.228 . S
O234 Zn221 1.969 . S
O234 C232 1.267 . S
O235 Zn221 1.965 . S
O235 C239 1.260 . S
O236 Zn220 1.969 1_565 S
O236 C239 1.258 . S
O237 Zn221 2.024 . S
O237 C224 1.058 . S
C238 O227 1.260 . S
C238 O228 1.258 . S
C239 O235 1.260 . S
C239 O236 1.258 . S
Zn240 O246 1.969 . S
Zn240 O247 1.965 . S
Zn240 O251 2.024 . S
Zn240 O256 1.969 . S
Zn241 O248 1.969 . S
Zn241 O254 1.969 . S
Zn241 O255 1.965 . S
Zn241 O257 2.024 . S
C242 O243 1.229 . S
C242 O251 1.058 . S
O243 C242 1.229 . S
C244 O245 1.229 . S
C244 O257 1.058 . S
O245 C244 1.229 . S
O246 Zn240 1.969 . S
O246 C249 1.267 . S
O247 Zn240 1.965 . S
O247 C258 1.260 . S
O248 Zn241 1.969 . S
O248 C258 1.258 . S
C249 O246 1.267 . S
C249 O250 1.228 . S
O250 C249 1.228 . S
O251 Zn240 2.024 . S
O251 C242 1.058 . S
C252 O253 1.228 . S
C252 O254 1.267 . S
O253 C252 1.228 . S
O254 Zn241 1.969 . S
O254 C252 1.267 . S
O255 Zn241 1.965 . S
O255 C259 1.260 . S
O256 Zn240 1.969 . S
O256 C259 1.258 . S
O257 Zn241 2.024 . S
O257 C244 1.058 . S
C258 O247 1.260 . S
C258 O248 1.258 . S
C259 O255 1.260 . S
C259 O256 1.258 . S
Zn260 O266 1.969 . S
Zn260 O267 1.965 . S
Zn260 O271 2.024 . S
Zn260 O276 1.969 . S
Zn261 O268 1.969 1_545 S
Zn261 O274 1.969 1_545 S
Zn261 O275 1.965 1_545 S
Zn261 O277 2.024 . S
C262 O263 1.229 . S
C262 O271 1.058 . S
O263 C262 1.229 . S
C264 O265 1.229 . S
C264 O277 1.058 . S
O265 C264 1.229 . S
O266 Zn260 1.969 . S
O266 C269 1.267 . S
O267 Zn260 1.965 . S
O267 C278 1.260 . S
O268 Zn261 1.969 1_565 S
O268 C278 1.258 . S
C269 O266 1.267 . S
C269 O270 1.228 . S
O270 C269 1.228 . S
O271 Zn260 2.024 . S
O271 C262 1.058 . S
C272 O273 1.228 . S
C272 O274 1.267 1_545 S
O273 C272 1.228 . S
O274 Zn261 1.969 1_565 S
O274 C272 1.267 1_565 S
O275 Zn261 1.965 1_565 S
O275 C279 1.260 . S
O276 Zn260 1.969 . S
O276 C279 1.258 . S
O277 Zn261 2.024 . S
O277 C264 1.058 . S
C278 O267 1.260 . S
C278 O268 1.258 . S
C279 O275 1.260 . S
C279 O276 1.258 . S
Zn280 O286 1.969 . S
Zn280 O287 1.965 . S
Zn280 O291 2.024 . S
Zn280 O296 1.969 . S
Zn281 O288 1.969 . S
Zn281 O294 1.969 . S
Zn281 O295 1.965 . S
Zn281 O297 2.024 . S
C282 O283 1.229 . S
C282 O291 1.058 . S
O283 C282 1.229 . S
C284 O285 1.229 . S
C284 O297 1.058 . S
O285 C284 1.229 . S
O286 Zn280 1.969 . S
O286 C289 1.267 . S
O287 Zn280 1.965 . S
O287 C298 1.260 . S
O288 Zn281 1.969 . S
O288 C298 1.258 . S
C289 O286 1.267 . S
C289 O290 1.228 . S
O290 C289 1.228 . S
O291 Zn280 2.024 . S
O291 C282 1.058 . S
C292 O293 1.228 . S
C292 O294 1.267 . S
O293 C292 1.228 . S
O294 Zn281 1.969 . S
O294 C292 1.267 . S
O295 Zn281 1.965 . S
O295 C299 1.260 . S
O296 Zn280 1.969 . S
O296 C299 1.258 . S
O297 Zn281 2.024 . S
O297 C284 1.058 . S
C298 O287 1.260 . S
C298 O288 1.258 . S
C299 O295 1.260 . S
C299 O296 1.258 . S
Zn300 O306 1.969 . S
Zn300 O307 1.965 . S
Zn300 O311 2.024 . S
Zn300 O316 1.969 . S
Zn301 O308 1.969 1_565 S
Zn301 O314 1.969 1_565 S
Zn301 O315 1.965 1_565 S
Zn301 O317 2.024 . S
C302 O303 1.229 . S
C302 O311 1.058 . S
O303 C302 1.229 . S
C304 O305 1.229 . S
C304 O317 1.058 . S
O305 C304 1.229 . S
O306 Zn300 1.969 . S
O306 C309 1.267 . S
O307 Zn300 1.965 . S
O307 C318 1.260 . S
O308 Zn301 1.969 1_545 S
O308 C318 1.258 . S
C309 O306 1.267 . S
C309 O310 1.228 . S
O310 C309 1.228 . S
O311 Zn300 2.024 . S
O311 C302 1.058 . S
C312 O313 1.228 . S
C312 O314 1.267 1_565 S
O313 C312 1.228 . S
O314 Zn301 1.969 1_545 S
O314 C312 1.267 1_545 S
O315 Zn301 1.965 1_545 S
O315 C319 1.260 . S
O316 Zn300 1.969 . S
O316 C319 1.258 . S
O317 Zn301 2.024 . S
O317 C304 1.058 . S
C318 O307 1.260 . S
C318 O308 1.258 . S
C319 O315 1.260 . S
C319 O316 1.258 . S
H320 C332 0.930 . S
H321 C334 0.930 . S
H322 C335 0.930 . S
H323 C339 0.959 . S
H324 C339 0.959 . S
H325 C339 0.961 . S
H326 C340 0.960 . S
H327 C340 0.961 . S
H328 C340 0.959 . S
H329 C343 0.929 . S
H330 C344 0.931 . S
H331 C346 0.930 . S
C332 H320 0.930 . S
C332 C333 1.399 . S
C332 C337 1.399 . S
C333 C332 1.399 . S
C333 C334 1.376 . S
C334 H321 0.930 . S
C334 C333 1.376 . S
C334 C335 1.388 . S
C335 H322 0.930 . S
C335 C334 1.388 . S
C335 C336 1.390 . S
C336 C335 1.390 . S
C336 C337 1.394 . S
C336 C342 1.465 . S
C337 C332 1.399 . S
C337 C336 1.394 . S
C337 C338 1.516 . S
C338 C337 1.516 . S
C338 C339 1.502 . S
C338 C340 1.561 . S
C338 C341 1.526 . S
C339 H323 0.959 . S
C339 H324 0.959 . S
C339 H325 0.961 . S
C339 C338 1.502 . S
C340 H326 0.960 . S
C340 H327 0.961 . S
C340 H328 0.959 . S
C340 C338 1.561 . S
C341 C338 1.526 . S
C341 C342 1.396 . S
C341 C346 1.390 . S
C342 C336 1.465 . S
C342 C341 1.396 . S
C342 C343 1.399 . S
C343 H329 0.929 . S
C343 C342 1.399 . S
C343 C344 1.385 . S
C344 H330 0.931 . S
C344 C343 1.385 . S
C344 C345 1.389 . S
C345 C344 1.389 . S
C345 C346 1.387 . S
C346 H331 0.930 . S
C346 C341 1.390 . S
C346 C345 1.387 . S
H347 C359 0.930 . S
H348 C361 0.930 . S
H349 C362 0.930 . S
H350 C366 0.959 . S
H351 C366 0.959 . S
H352 C366 0.961 . S
H353 C367 0.960 . S
H354 C367 0.961 . S
H355 C367 0.959 . S
H356 C370 0.929 . S
H357 C371 0.931 . S
H358 C373 0.930 . S
C359 H347 0.930 . S
C359 C360 1.399 . S
C359 C364 1.399 . S
C360 C359 1.399 . S
C360 C361 1.376 . S
C361 H348 0.930 . S
C361 C360 1.376 . S
C361 C362 1.388 . S
C362 H349 0.930 . S
C362 C361 1.388 . S
C362 C363 1.390 . S
C363 C362 1.390 . S
C363 C364 1.394 . S
C363 C369 1.465 . S
C364 C359 1.399 . S
C364 C363 1.394 . S
C364 C365 1.516 . S
C365 C364 1.516 . S
C365 C366 1.502 . S
C365 C367 1.561 . S
C365 C368 1.526 . S
C366 H350 0.959 . S
C366 H351 0.959 . S
C366 H352 0.961 . S
C366 C365 1.502 . S
C367 H353 0.960 . S
C367 H354 0.961 . S
C367 H355 0.959 . S
C367 C365 1.561 . S
C368 C365 1.526 . S
C368 C369 1.396 . S
C368 C373 1.390 . S
C369 C363 1.465 . S
C369 C368 1.396 . S
C369 C370 1.399 . S
C370 H356 0.929 . S
C370 C369 1.399 . S
C370 C371 1.385 . S
C371 H357 0.931 . S
C371 C370 1.385 . S
C371 C372 1.389 . S
C372 C371 1.389 . S
C372 C373 1.387 . S
C373 H358 0.930 . S
C373 C368 1.390 . S
C373 C372 1.387 . S
H374 C386 0.930 . S
H375 C388 0.930 . S
H376 C389 0.930 . S
H377 C393 0.959 . S
H378 C393 0.959 . S
H379 C393 0.961 . S
H380 C394 0.960 . S
H381 C394 0.961 . S
H382 C394 0.959 . S
H383 C397 0.929 . S
H384 C398 0.931 . S
H385 C400 0.930 . S
C386 H374 0.930 . S
C386 C387 1.399 . S
C386 C391 1.399 . S
C387 C386 1.399 . S
C387 C388 1.376 . S
C388 H375 0.930 . S
C388 C387 1.376 . S
C388 C389 1.388 . S
C389 H376 0.930 . S
C389 C388 1.388 . S
C389 C390 1.390 . S
C390 C389 1.390 . S
C390 C391 1.394 . S
C390 C396 1.465 . S
C391 C386 1.399 . S
C391 C390 1.394 . S
C391 C392 1.516 . S
C392 C391 1.516 . S
C392 C393 1.502 . S
C392 C394 1.561 . S
C392 C395 1.526 . S
C393 H377 0.959 . S
C393 H378 0.959 . S
C393 H379 0.961 . S
C393 C392 1.502 . S
C394 H380 0.960 . S
C394 H381 0.961 . S
C394 H382 0.959 . S
C394 C392 1.561 . S
C395 C392 1.526 . S
C395 C396 1.396 . S
C395 C400 1.390 . S
C396 C390 1.465 . S
C396 C395 1.396 . S
C396 C397 1.399 . S
C397 H383 0.929 . S
C397 C396 1.399 . S
C397 C398 1.385 . S
C398 H384 0.931 . S
C398 C397 1.385 . S
C398 C399 1.389 . S
C399 C398 1.389 . S
C399 C400 1.387 . S
C400 H385 0.930 . S
C400 C395 1.390 . S
C400 C399 1.387 . S
H401 C413 0.930 . S
H402 C415 0.930 . S
H403 C416 0.919 1_455 S
H404 C420 0.959 . S
H405 C420 0.959 . S
H406 C420 0.961 . S
H407 C421 0.960 . S
H408 C421 0.956 1_455 S
H409 C421 0.959 1_455 S
H410 C424 0.929 . S
H411 C425 0.931 . S
H412 C427 0.930 . S
C413 H401 0.930 . S
C413 C414 1.399 . S
C413 C418 1.399 . S
C414 C413 1.399 . S
C414 C415 1.376 . S
C415 H402 0.930 . S
C415 C414 1.376 . S
C415 C416 1.400 . S
C416 H403 0.919 1_655 S
C416 C415 1.400 . S
C416 C417 1.390 . S
C417 C416 1.390 . S
C417 C418 1.393 . S
C417 C423 1.466 1_655 S
C418 C413 1.399 . S
C418 C417 1.393 . S
C418 C419 1.516 1_556 S
C419 C418 1.516 1_554 S
C419 C420 1.502 . S
C419 C421 1.561 . S
C419 C422 1.526 1_655 S
C420 H404 0.959 . S
C420 H405 0.959 . S
C420 H406 0.961 . S
C420 C419 1.502 . S
C421 H407 0.960 . S
C421 H408 0.956 1_655 S
C421 H409 0.959 1_655 S
C421 C419 1.561 . S
C422 C419 1.526 1_455 S
C422 C423 1.396 1_554 S
C422 C427 1.390 . S
C423 C417 1.466 1_455 S
C423 C422 1.396 1_556 S
C423 C424 1.399 . S
C424 H410 0.929 . S
C424 C423 1.399 . S
C424 C425 1.385 1_556 S
C425 H411 0.931 . S
C425 C424 1.385 1_554 S
C425 C426 1.389 . S
C426 C425 1.389 . S
C426 C427 1.387 . S
C427 H412 0.930 . S
C427 C422 1.390 . S
C427 C426 1.387 . S
H428 C440 0.930 . S
H429 C442 0.930 . S
H430 C443 0.930 . S
H431 C447 0.959 . S
H432 C447 0.959 . S
H433 C447 0.961 . S
H434 C448 0.960 . S
H435 C448 0.961 . S
H436 C448 0.959 . S
H437 C451 0.929 . S
H438 C452 0.931 . S
H439 C454 0.930 . S
C440 H428 0.930 . S
C440 C441 1.399 . S
C440 C445 1.399 . S
C441 C440 1.399 . S
C441 C442 1.376 . S
C442 H429 0.930 . S
C442 C441 1.376 . S
C442 C443 1.388 . S
C443 H430 0.930 . S
C443 C442 1.388 . S
C443 C444 1.390 . S
C444 C443 1.390 . S
C444 C445 1.394 . S
C444 C450 1.465 . S
C445 C440 1.399 . S
C445 C444 1.394 . S
C445 C446 1.516 . S
C446 C445 1.516 . S
C446 C447 1.502 . S
C446 C448 1.561 . S
C446 C449 1.526 . S
C447 H431 0.959 . S
C447 H432 0.959 . S
C447 H433 0.961 . S
C447 C446 1.502 . S
C448 H434 0.960 . S
C448 H435 0.961 . S
C448 H436 0.959 . S
C448 C446 1.561 . S
C449 C446 1.526 . S
C449 C450 1.396 . S
C449 C454 1.390 . S
C450 C444 1.465 . S
C450 C449 1.396 . S
C450 C451 1.399 . S
C451 H437 0.929 . S
C451 C450 1.399 . S
C451 C452 1.385 . S
C452 H438 0.931 . S
C452 C451 1.385 . S
C452 C453 1.389 . S
C453 C452 1.389 . S
C453 C454 1.387 . S
C454 H439 0.930 . S
C454 C449 1.390 . S
C454 C453 1.387 . S
H455 C467 0.930 . S
H456 C469 0.930 . S
H457 C470 0.930 . S
H458 C474 0.959 . S
H459 C474 0.959 . S
H460 C474 0.961 . S
H461 C475 0.960 . S
H462 C475 0.961 . S
H463 C475 0.959 . S
H464 C478 0.929 . S
H465 C479 0.931 . S
H466 C481 0.930 . S
C467 H455 0.930 . S
C467 C468 1.399 . S
C467 C472 1.399 . S
C468 C467 1.399 . S
C468 C469 1.376 . S
C469 H456 0.930 . S
C469 C468 1.376 . S
C469 C470 1.388 . S
C470 H457 0.930 . S
C470 C469 1.388 . S
C470 C471 1.390 . S
C471 C470 1.390 . S
C471 C472 1.394 . S
C471 C477 1.465 . S
C472 C467 1.399 . S
C472 C471 1.394 . S
C472 C473 1.516 . S
C473 C472 1.516 . S
C473 C474 1.502 . S
C473 C475 1.561 . S
C473 C476 1.526 . S
C474 H458 0.959 . S
C474 H459 0.959 . S
C474 H460 0.961 . S
C474 C473 1.502 . S
C475 H461 0.960 . S
C475 H462 0.961 . S
C475 H463 0.959 . S
C475 C473 1.561 . S
C476 C473 1.526 . S
C476 C477 1.396 . S
C476 C481 1.390 . S
C477 C471 1.465 . S
C477 C476 1.396 . S
C477 C478 1.399 . S
C478 H464 0.929 . S
C478 C477 1.399 . S
C478 C479 1.385 . S
C479 H465 0.931 . S
C479 C478 1.385 . S
C479 C480 1.389 . S
C480 C479 1.389 . S
C480 C481 1.387 . S
C481 H466 0.930 . S
C481 C476 1.390 . S
C481 C480 1.387 . S
H482 C494 0.930 . S
H483 C496 0.930 . S
H484 C497 0.930 . S
H485 C501 0.957 . S
H486 C501 0.958 . S
H487 C501 0.963 1_655 S
H488 C502 0.960 . S
H489 C502 0.961 . S
H490 C502 0.959 1_545 S
H491 C505 0.929 . S
H492 C506 0.931 . S
H493 C508 0.930 . S
C494 H482 0.930 . S
C494 C495 1.399 . S
C494 C499 1.399 . S
C495 C494 1.399 . S
C495 C496 1.376 . S
C496 H483 0.930 . S
C496 C495 1.376 . S
C496 C497 1.388 1_565 S
C497 H484 0.930 . S
C497 C496 1.388 1_545 S
C497 C498 1.390 . S
C498 C497 1.390 . S
C498 C499 1.394 1_545 S
C498 C504 1.465 1_655 S
C499 C494 1.399 . S
C499 C498 1.394 1_565 S
C499 C500 1.516 1_554 S
C500 C499 1.516 1_556 S
C500 C501 1.503 1_655 S
C500 C502 1.561 . S
C500 C503 1.526 1_665 S
C501 H485 0.957 . S
C501 H486 0.958 . S
C501 H487 0.963 1_455 S
C501 C500 1.503 1_455 S
C502 H488 0.960 . S
C502 H489 0.961 . S
C502 H490 0.959 1_565 S
C502 C500 1.561 . S
C503 C500 1.526 1_445 S
C503 C504 1.396 1_556 S
C503 C508 1.390 . S
C504 C498 1.465 1_455 S
C504 C503 1.396 1_554 S
C504 C505 1.399 . S
C505 H491 0.929 . S
C505 C504 1.399 . S
C505 C506 1.385 1_554 S
C506 H492 0.931 . S
C506 C505 1.385 1_556 S
C506 C507 1.389 . S
C507 C506 1.389 . S
C507 C508 1.387 . S
C508 H493 0.930 . S
C508 C503 1.390 . S
C508 C507 1.387 . S
H509 C521 0.930 . S
H510 C523 0.930 . S
H511 C524 0.949 . S
H512 C528 0.959 . S
H513 C528 0.959 . S
H514 C528 0.961 . S
H515 C529 0.960 . S
H516 C529 0.961 . S
H517 C529 0.959 . S
H518 C532 0.929 . S
H519 C533 0.931 . S
H520 C535 0.930 . S
C521 H509 0.930 . S
C521 C522 1.399 . S
C521 C526 1.399 . S
C522 C521 1.399 . S
C522 C523 1.376 . S
C523 H510 0.930 . S
C523 C522 1.376 . S
C523 C524 1.372 1_565 S
C524 H511 0.949 . S
C524 C523 1.372 1_545 S
C524 C525 1.388 1_545 S
C525 C524 1.388 1_565 S
C525 C526 1.394 . S
C525 C531 1.465 1_565 S
C526 C521 1.399 . S
C526 C525 1.394 . S
C526 C527 1.516 . S
C527 C526 1.516 . S
C527 C528 1.502 . S
C527 C529 1.561 . S
C527 C530 1.526 1_565 S
C528 H512 0.959 . S
C528 H513 0.959 . S
C528 H514 0.961 . S
C528 C527 1.502 . S
C529 H515 0.960 . S
C529 H516 0.961 . S
C529 H517 0.959 . S
C529 C527 1.561 . S
C530 C527 1.526 1_545 S
C530 C531 1.396 . S
C530 C535 1.390 . S
C531 C525 1.465 1_545 S
C531 C530 1.396 . S
C531 C532 1.399 . S
C532 H518 0.929 . S
C532 C531 1.399 . S
C532 C533 1.385 . S
C533 H519 0.931 . S
C533 C532 1.385 . S
C533 C534 1.389 . S
C534 C533 1.389 . S
C534 C535 1.387 . S
C535 H520 0.930 . S
C535 C530 1.390 . S
C535 C534 1.387 . S
H536 C548 0.930 . S
H537 C550 0.930 . S
H538 C551 0.930 . S
H539 C555 0.959 . S
H540 C555 0.959 . S
H541 C555 0.961 . S
H542 C556 0.960 . S
H543 C556 0.961 . S
H544 C556 0.959 . S
H545 C559 0.929 . S
H546 C560 0.931 . S
H547 C562 0.930 . S
C548 H536 0.930 . S
C548 C549 1.399 . S
C548 C553 1.399 . S
C549 C548 1.399 . S
C549 C550 1.376 . S
C550 H537 0.930 . S
C550 C549 1.376 . S
C550 C551 1.388 . S
C551 H538 0.930 . S
C551 C550 1.388 . S
C551 C552 1.390 . S
C552 C551 1.390 . S
C552 C553 1.394 . S
C552 C558 1.465 1_556 S
C553 C548 1.399 . S
C553 C552 1.394 . S
C553 C554 1.516 . S
C554 C553 1.516 . S
C554 C555 1.502 . S
C554 C556 1.561 . S
C554 C557 1.526 1_556 S
C555 H539 0.959 . S
C555 H540 0.959 . S
C555 H541 0.961 . S
C555 C554 1.502 . S
C556 H542 0.960 . S
C556 H543 0.961 . S
C556 H544 0.959 . S
C556 C554 1.561 . S
C557 C554 1.526 1_554 S
C557 C558 1.396 . S
C557 C562 1.390 . S
C558 C552 1.465 1_554 S
C558 C557 1.396 . S
C558 C559 1.399 . S
C559 H545 0.929 . S
C559 C558 1.399 . S
C559 C560 1.385 . S
C560 H546 0.931 . S
C560 C559 1.385 . S
C560 C561 1.389 . S
C561 C560 1.389 . S
C561 C562 1.387 . S
C562 H547 0.930 . S
C562 C557 1.390 . S
C562 C561 1.387 . S
H563 C575 0.930 . S
H564 C577 0.930 . S
H565 C578 0.930 . S
H566 C582 0.959 . S
H567 C582 0.959 . S
H568 C582 0.961 . S
H569 C583 0.960 . S
H570 C583 0.961 . S
H571 C583 0.959 . S
H572 C586 0.929 . S
H573 C587 0.931 . S
H574 C589 0.930 . S
C575 H563 0.930 . S
C575 C576 1.399 . S
C575 C580 1.399 . S
C576 C575 1.399 . S
C576 C577 1.376 . S
C577 H564 0.930 . S
C577 C576 1.376 . S
C577 C578 1.388 . S
C578 H565 0.930 . S
C578 C577 1.388 . S
C578 C579 1.390 . S
C579 C578 1.390 . S
C579 C580 1.394 . S
C579 C585 1.465 . S
C580 C575 1.399 . S
C580 C579 1.394 . S
C580 C581 1.516 . S
C581 C580 1.516 . S
C581 C582 1.502 . S
C581 C583 1.561 . S
C581 C584 1.526 . S
C582 H566 0.959 . S
C582 H567 0.959 . S
C582 H568 0.961 . S
C582 C581 1.502 . S
C583 H569 0.960 . S
C583 H570 0.961 . S
C583 H571 0.959 . S
C583 C581 1.561 . S
C584 C581 1.526 . S
C584 C585 1.396 . S
C584 C589 1.390 . S
C585 C579 1.465 . S
C585 C584 1.396 . S
C585 C586 1.399 . S
C586 H572 0.929 . S
C586 C585 1.399 . S
C586 C587 1.385 . S
C587 H573 0.931 . S
C587 C586 1.385 . S
C587 C588 1.389 . S
C588 C587 1.389 . S
C588 C589 1.387 . S
C589 H574 0.930 . S
C589 C584 1.390 . S
C589 C588 1.387 . S
H590 C602 0.930 . S
H591 C604 0.930 . S
H592 C605 0.930 . S
H593 C609 0.959 . S
H594 C609 0.959 1_545 S
H595 C609 0.961 1_545 S
H596 C610 0.960 . S
H597 C610 0.961 . S
H598 C610 0.959 . S
H599 C613 0.929 . S
H600 C614 0.931 . S
H601 C616 0.930 . S
C602 H590 0.930 . S
C602 C603 1.399 . S
C602 C607 1.399 . S
C603 C602 1.399 . S
C603 C604 1.376 . S
C604 H591 0.930 . S
C604 C603 1.376 . S
C604 C605 1.388 . S
C605 H592 0.930 . S
C605 C604 1.388 . S
C605 C606 1.390 . S
C606 C605 1.390 . S
C606 C607 1.394 . S
C606 C612 1.465 . S
C607 C602 1.399 . S
C607 C606 1.394 . S
C607 C608 1.516 . S
C608 C607 1.516 . S
C608 C609 1.502 . S
C608 C610 1.561 1_565 S
C608 C611 1.526 . S
C609 H593 0.959 . S
C609 H594 0.959 1_565 S
C609 H595 0.961 1_565 S
C609 C608 1.502 . S
C610 H596 0.960 . S
C610 H597 0.961 . S
C610 H598 0.959 . S
C610 C608 1.561 1_545 S
C611 C608 1.526 . S
C611 C612 1.396 . S
C611 C616 1.390 . S
C612 C606 1.465 . S
C612 C611 1.396 . S
C612 C613 1.399 . S
C613 H599 0.929 . S
C613 C612 1.399 . S
C613 C614 1.385 . S
C614 H600 0.931 . S
C614 C613 1.385 . S
C614 C615 1.389 . S
C615 C614 1.389 . S
C615 C616 1.387 . S
C616 H601 0.930 . S
C616 C611 1.390 . S
C616 C615 1.387 . S
H617 C629 0.930 . S
H618 C631 0.930 . S
H619 C632 0.930 . S
H620 C636 0.959 . S
H621 C636 0.959 . S
H622 C636 0.961 . S
H623 C637 0.960 . S
H624 C637 0.961 . S
H625 C637 0.959 . S
H626 C640 0.929 . S
H627 C641 0.931 . S
H628 C643 0.930 . S
C629 H617 0.930 . S
C629 C630 1.399 . S
C629 C634 1.399 . S
C630 C629 1.399 . S
C630 C631 1.376 . S
C631 H618 0.930 . S
C631 C630 1.376 . S
C631 C632 1.388 . S
C632 H619 0.930 . S
C632 C631 1.388 . S
C632 C633 1.390 . S
C633 C632 1.390 . S
C633 C634 1.394 . S
C633 C639 1.465 . S
C634 C629 1.399 . S
C634 C633 1.394 . S
C634 C635 1.516 . S
C635 C634 1.516 . S
C635 C636 1.502 . S
C635 C637 1.561 . S
C635 C638 1.526 . S
C636 H620 0.959 . S
C636 H621 0.959 . S
C636 H622 0.961 . S
C636 C635 1.502 . S
C637 H623 0.960 . S
C637 H624 0.961 . S
C637 H625 0.959 . S
C637 C635 1.561 . S
C638 C635 1.526 . S
C638 C639 1.396 . S
C638 C643 1.390 . S
C639 C633 1.465 . S
C639 C638 1.396 . S
C639 C640 1.399 . S
C640 H626 0.929 . S
C640 C639 1.399 . S
C640 C641 1.385 . S
C641 H627 0.931 . S
C641 C640 1.385 . S
C641 C642 1.389 . S
C642 C641 1.389 . S
C642 C643 1.387 . S
C643 H628 0.930 . S
C643 C638 1.390 . S
C643 C642 1.387 . S
H644 C656 0.930 . S
H645 C658 0.930 1_545 S
H646 C659 0.930 1_545 S
H647 C663 0.959 1_556 S
H648 C663 0.959 1_556 S
H649 C663 0.961 . S
H650 C664 0.960 . S
H651 C664 0.961 . S
H652 C664 0.959 . S
H653 C667 0.928 1_545 S
H654 C668 0.931 . S
H655 C670 0.930 . S
C656 H644 0.930 . S
C656 C657 1.399 . S
C656 C661 1.399 . S
C657 C656 1.399 . S
C657 C658 1.376 . S
C658 H645 0.930 1_565 S
C658 C657 1.376 . S
C658 C659 1.388 . S
C659 H646 0.930 1_565 S
C659 C658 1.388 . S
C659 C660 1.390 . S
C660 C659 1.390 . S
C660 C661 1.394 . S
C660 C666 1.465 1_554 S
C661 C656 1.399 . S
C661 C660 1.394 . S
C661 C662 1.516 . S
C662 C661 1.516 . S
C662 C663 1.502 . S
C662 C664 1.561 . S
C662 C665 1.526 1_554 S
C663 H647 0.959 1_554 S
C663 H648 0.959 1_554 S
C663 H649 0.961 . S
C663 C662 1.502 . S
C664 H650 0.960 . S
C664 H651 0.961 . S
C664 H652 0.959 . S
C664 C662 1.561 . S
C665 C662 1.526 1_556 S
C665 C666 1.396 . S
C665 C670 1.390 . S
C666 C660 1.465 1_556 S
C666 C665 1.396 . S
C666 C667 1.399 . S
C667 H653 0.928 1_565 S
C667 C666 1.399 . S
C667 C668 1.385 . S
C668 H654 0.931 . S
C668 C667 1.385 . S
C668 C669 1.389 . S
C669 C668 1.389 . S
C669 C670 1.387 . S
C670 H655 0.930 . S
C670 C665 1.390 . S
C670 C669 1.387 . S
H671 C683 0.930 . S
H672 C685 0.930 . S
H673 C686 0.930 . S
H674 C690 0.959 . S
H675 C690 0.959 . S
H676 C690 0.961 . S
H677 C691 0.960 . S
H678 C691 0.961 . S
H679 C691 0.959 . S
H680 C694 0.929 . S
H681 C695 0.931 . S
H682 C697 0.930 . S
C683 H671 0.930 . S
C683 C684 1.399 . S
C683 C688 1.399 . S
C684 C683 1.399 . S
C684 C685 1.376 . S
C685 H672 0.930 . S
C685 C684 1.376 . S
C685 C686 1.388 . S
C686 H673 0.930 . S
C686 C685 1.388 . S
C686 C687 1.390 . S
C687 C686 1.390 . S
C687 C688 1.394 . S
C687 C693 1.465 . S
C688 C683 1.399 . S
C688 C687 1.394 . S
C688 C689 1.516 . S
C689 C688 1.516 . S
C689 C690 1.502 . S
C689 C691 1.561 . S
C689 C692 1.526 . S
C690 H674 0.959 . S
C690 H675 0.959 . S
C690 H676 0.961 . S
C690 C689 1.502 . S
C691 H677 0.960 . S
C691 H678 0.961 . S
C691 H679 0.959 . S
C691 C689 1.561 . S
C692 C689 1.526 . S
C692 C693 1.396 . S
C692 C697 1.390 . S
C693 C687 1.465 . S
C693 C692 1.396 . S
C693 C694 1.399 . S
C694 H680 0.929 . S
C694 C693 1.399 . S
C694 C695 1.385 . S
C695 H681 0.931 . S
C695 C694 1.385 . S
C695 C696 1.389 . S
C696 C695 1.389 . S
C696 C697 1.387 . S
C697 H682 0.930 . S
C697 C692 1.390 . S
C697 C696 1.387 . S
H698 C710 0.930 . S
H699 C712 0.930 . S
H700 C713 0.930 . S
H701 C717 0.959 . S
H702 C717 0.959 . S
H703 C717 0.961 . S
H704 C718 0.960 . S
H705 C718 0.961 . S
H706 C718 0.959 . S
H707 C721 0.929 1_565 S
H708 C722 0.931 1_565 S
H709 C724 0.930 . S
C710 H698 0.930 . S
C710 C711 1.399 . S
C710 C715 1.399 . S
C711 C710 1.399 . S
C711 C712 1.376 . S
C712 H699 0.930 . S
C712 C711 1.376 . S
C712 C713 1.388 . S
C713 H700 0.930 . S
C713 C712 1.388 . S
C713 C714 1.390 . S
C714 C713 1.390 . S
C714 C715 1.394 . S
C714 C720 1.465 . S
C715 C710 1.399 . S
C715 C714 1.394 . S
C715 C716 1.516 . S
C716 C715 1.516 . S
C716 C717 1.502 . S
C716 C718 1.561 . S
C716 C719 1.526 . S
C717 H701 0.959 . S
C717 H702 0.959 . S
C717 H703 0.961 . S
C717 C716 1.502 . S
C718 H704 0.960 . S
C718 H705 0.961 . S
C718 H706 0.959 . S
C718 C716 1.561 . S
C719 C716 1.526 . S
C719 C720 1.396 . S
C719 C724 1.390 . S
C720 C714 1.465 . S
C720 C719 1.396 . S
C720 C721 1.399 . S
C721 H707 0.929 1_545 S
C721 C720 1.399 . S
C721 C722 1.385 . S
C722 H708 0.931 1_545 S
C722 C721 1.385 . S
C722 C723 1.389 . S
C723 C722 1.389 . S
C723 C724 1.387 . S
C724 H709 0.930 . S
C724 C719 1.390 . S
C724 C723 1.387 . S
H725 C737 0.930 . S
H726 C739 0.930 . S
H727 C740 0.930 . S
H728 C744 0.959 . S
H729 C744 0.959 . S
H730 C744 0.961 . S
H731 C745 0.960 . S
H732 C745 0.961 . S
H733 C745 0.959 . S
H734 C748 0.929 . S
H735 C749 0.931 . S
H736 C751 0.930 . S
C737 H725 0.930 . S
C737 C738 1.399 . S
C737 C742 1.399 . S
C738 C737 1.399 . S
C738 C739 1.376 . S
C739 H726 0.930 . S
C739 C738 1.376 . S
C739 C740 1.388 . S
C740 H727 0.930 . S
C740 C739 1.388 . S
C740 C741 1.390 . S
C741 C740 1.390 . S
C741 C742 1.394 . S
C741 C747 1.465 . S
C742 C737 1.399 . S
C742 C741 1.394 . S
C742 C743 1.516 . S
C743 C742 1.516 . S
C743 C744 1.502 . S
C743 C745 1.561 . S
C743 C746 1.526 . S
C744 H728 0.959 . S
C744 H729 0.959 . S
C744 H730 0.961 . S
C744 C743 1.502 . S
C745 H731 0.960 . S
C745 H732 0.961 . S
C745 H733 0.959 . S
C745 C743 1.561 . S
C746 C743 1.526 . S
C746 C747 1.396 . S
C746 C751 1.390 . S
C747 C741 1.465 . S
C747 C746 1.396 . S
C747 C748 1.399 . S
C748 H734 0.929 . S
C748 C747 1.399 . S
C748 C749 1.385 . S
C749 H735 0.931 . S
C749 C748 1.385 . S
C749 C750 1.389 . S
C750 C749 1.389 . S
C750 C751 1.387 . S
C751 H736 0.930 . S
C751 C746 1.390 . S
C751 C750 1.387 . S
H752 C764 0.930 . S
H753 C766 0.930 . S
H754 C767 0.930 . S
H755 C771 0.959 . S
H756 C771 0.959 . S
H757 C771 0.961 . S
H758 C772 0.960 . S
H759 C772 0.961 . S
H760 C772 0.959 . S
H761 C775 0.929 . S
H762 C776 0.931 . S
H763 C778 0.930 . S
C764 H752 0.930 . S
C764 C765 1.399 . S
C764 C769 1.399 . S
C765 C764 1.399 . S
C765 C766 1.376 . S
C766 H753 0.930 . S
C766 C765 1.376 . S
C766 C767 1.388 . S
C767 H754 0.930 . S
C767 C766 1.388 . S
C767 C768 1.390 . S
C768 C767 1.390 . S
C768 C769 1.394 . S
C768 C774 1.465 . S
C769 C764 1.399 . S
C769 C768 1.394 . S
C769 C770 1.516 . S
C770 C769 1.516 . S
C770 C771 1.502 . S
C770 C772 1.561 . S
C770 C773 1.526 . S
C771 H755 0.959 . S
C771 H756 0.959 . S
C771 H757 0.961 . S
C771 C770 1.502 . S
C772 H758 0.960 . S
C772 H759 0.961 . S
C772 H760 0.959 . S
C772 C770 1.561 . S
C773 C770 1.526 . S
C773 C774 1.396 . S
C773 C778 1.390 . S
C774 C768 1.465 . S
C774 C773 1.396 . S
C774 C775 1.399 . S
C775 H761 0.929 . S
C775 C774 1.399 . S
C775 C776 1.385 . S
C776 H762 0.931 . S
C776 C775 1.385 . S
C776 C777 1.389 . S
C777 C776 1.389 . S
C777 C778 1.387 . S
C778 H763 0.930 . S
C778 C773 1.390 . S
C778 C777 1.387 . S
H779 C791 0.930 . S
H780 C793 0.930 . S
H781 C794 0.930 . S
H782 C798 0.959 . S
H783 C798 0.959 . S
H784 C798 0.961 . S
H785 C799 0.960 . S
H786 C799 0.961 . S
H787 C799 0.959 . S
H788 C802 0.929 . S
H789 C803 0.931 . S
H790 C805 0.930 . S
C791 H779 0.930 . S
C791 C792 1.399 1_545 S
C791 C796 1.399 1_545 S
C792 C791 1.399 1_565 S
C792 C793 1.376 . S
C793 H780 0.930 . S
C793 C792 1.376 . S
C793 C794 1.388 . S
C794 H781 0.930 . S
C794 C793 1.388 . S
C794 C795 1.390 . S
C795 C794 1.390 . S
C795 C796 1.394 . S
C795 C801 1.465 . S
C796 C791 1.399 1_565 S
C796 C795 1.394 . S
C796 C797 1.510 1_565 S
C797 C796 1.510 1_545 S
C797 C798 1.512 . S
C797 C799 1.570 . S
C797 C800 1.511 1_545 S
C798 H782 0.959 . S
C798 H783 0.959 . S
C798 H784 0.961 . S
C798 C797 1.512 . S
C799 H785 0.960 . S
C799 H786 0.961 . S
C799 H787 0.959 . S
C799 C797 1.570 . S
C800 C797 1.511 1_565 S
C800 C801 1.396 . S
C800 C805 1.390 . S
C801 C795 1.465 . S
C801 C800 1.396 . S
C801 C802 1.399 . S
C802 H788 0.929 . S
C802 C801 1.399 . S
C802 C803 1.385 . S
C803 H789 0.931 . S
C803 C802 1.385 . S
C803 C804 1.389 . S
C804 C803 1.389 . S
C804 C805 1.387 . S
C805 H790 0.930 . S
C805 C800 1.390 . S
C805 C804 1.387 . S
H806 C818 0.930 . S
H807 C820 0.930 . S
H808 C821 0.930 . S
H809 C825 0.959 . S
H810 C825 0.959 . S
H811 C825 0.961 1_554 S
H812 C826 0.960 . S
H813 C826 0.961 . S
H814 C826 0.959 . S
H815 C829 0.929 . S
H816 C830 0.931 . S
H817 C832 0.930 . S
C818 H806 0.930 . S
C818 C819 1.399 . S
C818 C823 1.399 . S
C819 C818 1.399 . S
C819 C820 1.376 . S
C820 H807 0.930 . S
C820 C819 1.376 . S
C820 C821 1.388 . S
C821 H808 0.930 . S
C821 C820 1.388 . S
C821 C822 1.390 . S
C822 C821 1.390 . S
C822 C823 1.394 . S
C822 C828 1.465 1_554 S
C823 C818 1.399 . S
C823 C822 1.394 . S
C823 C824 1.516 1_554 S
C824 C823 1.516 1_556 S
C824 C825 1.502 . S
C824 C826 1.561 . S
C824 C827 1.526 . S
C825 H809 0.959 . S
C825 H810 0.959 . S
C825 H811 0.961 1_556 S
C825 C824 1.502 . S
C826 H812 0.960 . S
C826 H813 0.961 . S
C826 H814 0.959 . S
C826 C824 1.561 . S
C827 C824 1.526 . S
C827 C828 1.396 . S
C827 C832 1.390 . S
C828 C822 1.465 1_556 S
C828 C827 1.396 . S
C828 C829 1.399 . S
C829 H815 0.929 . S
C829 C828 1.399 . S
C829 C830 1.385 . S
C830 H816 0.931 . S
C830 C829 1.385 . S
C830 C831 1.389 . S
C831 C830 1.389 . S
C831 C832 1.387 . S
C832 H817 0.930 . S
C832 C827 1.390 . S
C832 C831 1.387 . S
H833 C845 0.930 . S
H834 C847 0.930 . S
H835 C848 0.930 . S
H836 C852 0.959 . S
H837 C852 0.959 . S
H838 C852 0.961 . S
H839 C853 0.960 . S
H840 C853 0.961 . S
H841 C853 0.959 1_545 S
H842 C856 0.929 . S
H843 C857 0.931 . S
H844 C859 0.930 . S
C845 H833 0.930 . S
C845 C846 1.399 . S
C845 C850 1.399 . S
C846 C845 1.399 . S
C846 C847 1.376 . S
C847 H834 0.930 . S
C847 C846 1.376 . S
C847 C848 1.388 . S
C848 H835 0.930 . S
C848 C847 1.388 . S
C848 C849 1.390 . S
C849 C848 1.390 . S
C849 C850 1.394 . S
C849 C855 1.465 . S
C850 C845 1.399 . S
C850 C849 1.394 . S
C850 C851 1.516 . S
C851 C850 1.516 . S
C851 C852 1.502 1_545 S
C851 C853 1.561 1_545 S
C851 C854 1.526 . S
C852 H836 0.959 . S
C852 H837 0.959 . S
C852 H838 0.961 . S
C852 C851 1.502 1_565 S
C853 H839 0.960 . S
C853 H840 0.961 . S
C853 H841 0.959 1_565 S
C853 C851 1.561 1_565 S
C854 C851 1.526 . S
C854 C855 1.396 . S
C854 C859 1.390 1_545 S
C855 C849 1.465 . S
C855 C854 1.396 . S
C855 C856 1.399 . S
C856 H842 0.929 . S
C856 C855 1.399 . S
C856 C857 1.385 . S
C857 H843 0.931 . S
C857 C856 1.385 . S
C857 C858 1.389 . S
C858 C857 1.389 . S
C858 C859 1.387 1_545 S
C859 H844 0.930 . S
C859 C854 1.390 1_565 S
C859 C858 1.387 1_565 S
H860 C872 0.930 . S
H861 C874 0.930 . S
H862 C875 0.930 . S
H863 C879 0.959 . S
H864 C879 0.959 . S
H865 C879 0.961 . S
H866 C880 0.960 . S
H867 C880 0.961 . S
H868 C880 0.959 . S
H869 C883 0.929 . S
H870 C884 0.931 . S
H871 C886 0.930 . S
C872 H860 0.930 . S
C872 C873 1.399 . S
C872 C877 1.399 . S
C873 C872 1.399 . S
C873 C874 1.376 . S
C874 H861 0.930 . S
C874 C873 1.376 . S
C874 C875 1.388 . S
C875 H862 0.930 . S
C875 C874 1.388 . S
C875 C876 1.390 . S
C876 C875 1.390 . S
C876 C877 1.394 . S
C876 C882 1.465 . S
C877 C872 1.399 . S
C877 C876 1.394 . S
C877 C878 1.516 . S
C878 C877 1.516 . S
C878 C879 1.502 . S
C878 C880 1.561 . S
C878 C881 1.526 . S
C879 H863 0.959 . S
C879 H864 0.959 . S
C879 H865 0.961 . S
C879 C878 1.502 . S
C880 H866 0.960 . S
C880 H867 0.961 . S
C880 H868 0.959 . S
C880 C878 1.561 . S
C881 C878 1.526 . S
C881 C882 1.396 . S
C881 C886 1.390 . S
C882 C876 1.465 . S
C882 C881 1.396 . S
C882 C883 1.399 . S
C883 H869 0.929 . S
C883 C882 1.399 . S
C883 C884 1.385 . S
C884 H870 0.931 . S
C884 C883 1.385 . S
C884 C885 1.389 . S
C885 C884 1.389 . S
C885 C886 1.387 . S
C886 H871 0.930 . S
C886 C881 1.390 . S
C886 C885 1.387 . S
H887 C899 0.930 . S
H888 C901 0.930 . S
H889 C902 0.930 . S
H890 C906 0.959 . S
H891 C906 0.959 . S
H892 C906 0.961 . S
H893 C907 0.960 . S
H894 C907 0.961 . S
H895 C907 0.959 . S
H896 C910 0.929 . S
H897 C911 0.931 . S
H898 C913 0.930 . S
C899 H887 0.930 . S
C899 C900 1.399 . S
C899 C904 1.399 . S
C900 C899 1.399 . S
C900 C901 1.376 1_545 S
C901 H888 0.930 . S
C901 C900 1.376 1_565 S
C901 C902 1.388 . S
C902 H889 0.930 . S
C902 C901 1.388 . S
C902 C903 1.390 1_565 S
C903 C902 1.390 1_545 S
C903 C904 1.394 . S
C903 C909 1.465 . S
C904 C899 1.399 . S
C904 C903 1.394 . S
C904 C905 1.516 . S
C905 C904 1.516 . S
C905 C906 1.502 . S
C905 C907 1.561 . S
C905 C908 1.526 . S
C906 H890 0.959 . S
C906 H891 0.959 . S
C906 H892 0.961 . S
C906 C905 1.502 . S
C907 H893 0.960 . S
C907 H894 0.961 . S
C907 H895 0.959 . S
C907 C905 1.561 . S
C908 C905 1.526 . S
C908 C909 1.396 . S
C908 C913 1.390 . S
C909 C903 1.465 . S
C909 C908 1.396 . S
C909 C910 1.399 . S
C910 H896 0.929 . S
C910 C909 1.399 . S
C910 C911 1.385 . S
C911 H897 0.931 . S
C911 C910 1.385 . S
C911 C912 1.389 . S
C912 C911 1.389 . S
C912 C913 1.387 . S
C913 H898 0.930 . S
C913 C908 1.390 . S
C913 C912 1.387 . S
H914 C926 0.930 . S
H915 C928 0.930 . S
H916 C929 0.930 . S
H917 C933 0.959 . S
H918 C933 0.960 1_556 S
H919 C933 0.961 . S
H920 C934 0.960 1_554 S
H921 C934 0.961 . S
H922 C934 0.959 . S
H923 C937 0.929 . S
H924 C938 0.931 . S
H925 C940 0.930 . S
C926 H914 0.930 . S
C926 C927 1.399 . S
C926 C931 1.399 . S
C927 C926 1.399 . S
C927 C928 1.376 . S
C928 H915 0.930 . S
C928 C927 1.376 . S
C928 C929 1.388 . S
C929 H916 0.930 . S
C929 C928 1.388 . S
C929 C930 1.390 . S
C930 C929 1.390 . S
C930 C931 1.394 . S
C930 C936 1.465 1_554 S
C931 C926 1.399 . S
C931 C930 1.394 . S
C931 C932 1.516 . S
C932 C931 1.516 . S
C932 C933 1.502 . S
C932 C934 1.561 1_554 S
C932 C935 1.526 1_554 S
C933 H917 0.959 . S
C933 H918 0.960 1_554 S
C933 H919 0.961 . S
C933 C932 1.502 . S
C934 H920 0.960 1_556 S
C934 H921 0.961 . S
C934 H922 0.959 . S
C934 C932 1.561 1_556 S
C935 C932 1.526 1_556 S
C935 C936 1.396 . S
C935 C940 1.390 . S
C936 C930 1.465 1_556 S
C936 C935 1.396 . S
C936 C937 1.399 . S
C937 H923 0.929 . S
C937 C936 1.399 . S
C937 C938 1.385 . S
C938 H924 0.931 . S
C938 C937 1.385 . S
C938 C939 1.389 . S
C939 C938 1.389 . S
C939 C940 1.387 . S
C940 H925 0.930 . S
C940 C935 1.390 . S
C940 C939 1.387 . S
H941 C953 0.930 . S
H942 C955 0.930 . S
H943 C956 0.930 . S
H944 C960 0.959 . S
H945 C960 0.959 . S
H946 C960 0.961 . S
H947 C961 0.960 . S
H948 C961 0.961 . S
H949 C961 0.959 . S
H950 C964 0.929 1_545 S
H951 C965 0.931 . S
H952 C967 0.930 . S
C953 H941 0.930 . S
C953 C954 1.399 . S
C953 C958 1.399 . S
C954 C953 1.399 . S
C954 C955 1.376 1_565 S
C955 H942 0.930 . S
C955 C954 1.376 1_545 S
C955 C956 1.388 . S
C956 H943 0.930 . S
C956 C955 1.388 . S
C956 C957 1.390 1_545 S
C957 C956 1.390 1_565 S
C957 C958 1.394 . S
C957 C963 1.465 . S
C958 C953 1.399 . S
C958 C957 1.394 . S
C958 C959 1.516 . S
C959 C958 1.516 . S
C959 C960 1.502 . S
C959 C961 1.561 . S
C959 C962 1.526 . S
C960 H944 0.959 . S
C960 H945 0.959 . S
C960 H946 0.961 . S
C960 C959 1.502 . S
C961 H947 0.960 . S
C961 H948 0.961 . S
C961 H949 0.959 . S
C961 C959 1.561 . S
C962 C959 1.526 . S
C962 C963 1.396 . S
C962 C967 1.390 . S
C963 C957 1.465 . S
C963 C962 1.396 . S
C963 C964 1.399 . S
C964 H950 0.929 1_565 S
C964 C963 1.399 . S
C964 C965 1.385 . S
C965 H951 0.931 . S
C965 C964 1.385 . S
C965 C966 1.389 . S
C966 C965 1.389 . S
C966 C967 1.387 . S
C967 H952 0.930 . S
C967 C962 1.390 . S
C967 C966 1.387 . S
H968 C980 0.930 . S
H969 C982 0.930 . S
H970 C983 0.930 . S
H971 C987 0.959 . S
H972 C987 0.959 . S
H973 C987 0.961 . S
H974 C988 0.960 . S
H975 C988 0.961 . S
H976 C988 0.959 . S
H977 C991 0.929 . S
H978 C992 0.931 . S
H979 C994 0.930 . S
C980 H968 0.930 . S
C980 C981 1.399 . S
C980 C985 1.399 . S
C981 C980 1.399 . S
C981 C982 1.376 . S
C982 H969 0.930 . S
C982 C981 1.376 . S
C982 C983 1.388 . S
C983 H970 0.930 . S
C983 C982 1.388 . S
C983 C984 1.390 . S
C984 C983 1.390 . S
C984 C985 1.394 . S
C984 C990 1.465 . S
C985 C980 1.399 . S
C985 C984 1.394 . S
C985 C986 1.516 . S
C986 C985 1.516 . S
C986 C987 1.502 . S
C986 C988 1.561 . S
C986 C989 1.526 . S
C987 H971 0.959 . S
C987 H972 0.959 . S
C987 H973 0.961 . S
C987 C986 1.502 . S
C988 H974 0.960 . S
C988 H975 0.961 . S
C988 H976 0.959 . S
C988 C986 1.561 . S
C989 C986 1.526 . S
C989 C990 1.396 . S
C989 C994 1.390 . S
C990 C984 1.465 . S
C990 C989 1.396 . S
C990 C991 1.399 . S
C991 H977 0.929 . S
C991 C990 1.399 . S
C991 C992 1.385 . S
C992 H978 0.931 . S
C992 C991 1.385 . S
C992 C993 1.389 . S
C993 C992 1.389 . S
C993 C994 1.387 . S
C994 H979 0.930 . S
C994 C989 1.390 . S
C994 C993 1.387 . S
H995 C1007 0.930 . S
H996 C1009 0.930 . S
H997 C1010 0.930 . S
H998 C1014 0.959 . S
H999 C1014 0.959 . S
H1000 C1014 0.961 . S
H1001 C1015 0.960 . S
H1002 C1015 0.961 . S
H1003 C1015 0.959 . S
H1004 C1018 0.929 . S
H1005 C1019 0.931 . S
H1006 C1021 0.930 . S
C1007 H995 0.930 . S
C1007 C1008 1.399 . S
C1007 C1012 1.399 . S
C1008 C1007 1.399 . S
C1008 C1009 1.376 . S
C1009 H996 0.930 . S
C1009 C1008 1.376 . S
C1009 C1010 1.388 . S
C1010 H997 0.930 . S
C1010 C1009 1.388 . S
C1010 C1011 1.390 . S
C1011 C1010 1.390 . S
C1011 C1012 1.394 . S
C1011 C1017 1.465 . S
C1012 C1007 1.399 . S
C1012 C1011 1.394 . S
C1012 C1013 1.516 . S
C1013 C1012 1.516 . S
C1013 C1014 1.502 . S
C1013 C1015 1.561 . S
C1013 C1016 1.526 . S
C1014 H998 0.959 . S
C1014 H999 0.959 . S
C1014 H1000 0.961 . S
C1014 C1013 1.502 . S
C1015 H1001 0.960 . S
C1015 H1002 0.961 . S
C1015 H1003 0.959 . S
C1015 C1013 1.561 . S
C1016 C1013 1.526 . S
C1016 C1017 1.396 . S
C1016 C1021 1.390 . S
C1017 C1011 1.465 . S
C1017 C1016 1.396 . S
C1017 C1018 1.399 . S
C1018 H1004 0.929 . S
C1018 C1017 1.399 . S
C1018 C1019 1.385 . S
C1019 H1005 0.931 . S
C1019 C1018 1.385 . S
C1019 C1020 1.389 . S
C1020 C1019 1.389 . S
C1020 C1021 1.387 . S
C1021 H1006 0.930 . S
C1021 C1016 1.390 . S
C1021 C1020 1.387 . S
H1022 C1034 0.930 . S
H1023 C1036 0.930 . S
H1024 C1037 0.930 . S
H1025 C1041 0.959 . S
H1026 C1041 0.960 1_455 S
H1027 C1041 0.961 . S
H1028 C1042 0.960 1_655 S
H1029 C1042 0.961 . S
H1030 C1042 0.959 . S
H1031 C1045 0.929 . S
H1032 C1046 0.931 . S
H1033 C1048 0.930 . S
C1034 H1022 0.930 . S
C1034 C1035 1.399 . S
C1034 C1039 1.399 . S
C1035 C1034 1.399 . S
C1035 C1036 1.376 . S
C1036 H1023 0.930 . S
C1036 C1035 1.376 . S
C1036 C1037 1.388 . S
C1037 H1024 0.930 . S
C1037 C1036 1.388 . S
C1037 C1038 1.390 . S
C1038 C1037 1.390 . S
C1038 C1039 1.394 . S
C1038 C1044 1.465 1_655 S
C1039 C1034 1.399 . S
C1039 C1038 1.394 . S
C1039 C1040 1.516 . S
C1040 C1039 1.516 . S
C1040 C1041 1.502 . S
C1040 C1042 1.561 1_655 S
C1040 C1043 1.526 1_655 S
C1041 H1025 0.959 . S
C1041 H1026 0.960 1_655 S
C1041 H1027 0.961 . S
C1041 C1040 1.502 . S
C1042 H1028 0.960 1_455 S
C1042 H1029 0.961 . S
C1042 H1030 0.959 . S
C1042 C1040 1.561 1_455 S
C1043 C1040 1.526 1_455 S
C1043 C1044 1.396 . S
C1043 C1048 1.390 . S
C1044 C1038 1.465 1_455 S
C1044 C1043 1.396 . S
C1044 C1045 1.399 . S
C1045 H1031 0.929 . S
C1045 C1044 1.399 . S
C1045 C1046 1.385 . S
C1046 H1032 0.931 . S
C1046 C1045 1.385 . S
C1046 C1047 1.389 . S
C1047 C1046 1.389 . S
C1047 C1048 1.387 . S
C1048 H1033 0.930 . S
C1048 C1043 1.390 . S
C1048 C1047 1.387 . S
H1049 C1061 0.930 . S
H1050 C1063 0.930 . S
H1051 C1064 0.930 . S
H1052 C1068 0.959 . S
H1053 C1068 0.959 . S
H1054 C1068 0.961 . S
H1055 C1069 0.959 1_655 S
H1056 C1069 0.965 . S
H1057 C1069 0.952 1_655 S
H1058 C1072 0.929 . S
H1059 C1073 0.931 . S
H1060 C1075 0.930 . S
C1061 H1049 0.930 . S
C1061 C1062 1.399 . S
C1061 C1066 1.399 . S
C1062 C1061 1.399 . S
C1062 C1063 1.376 . S
C1063 H1050 0.930 . S
C1063 C1062 1.376 . S
C1063 C1064 1.388 . S
C1064 H1051 0.930 . S
C1064 C1063 1.388 . S
C1064 C1065 1.390 . S
C1065 C1064 1.390 . S
C1065 C1066 1.394 . S
C1065 C1071 1.465 . S
C1066 C1061 1.399 . S
C1066 C1065 1.394 . S
C1066 C1067 1.516 1_655 S
C1067 C1066 1.516 1_455 S
C1067 C1068 1.502 . S
C1067 C1069 1.565 . S
C1067 C1070 1.526 . S
C1068 H1052 0.959 . S
C1068 H1053 0.959 . S
C1068 H1054 0.961 . S
C1068 C1067 1.502 . S
C1069 H1055 0.959 1_455 S
C1069 H1056 0.965 . S
C1069 H1057 0.952 1_455 S
C1069 C1067 1.565 . S
C1070 C1067 1.526 . S
C1070 C1071 1.396 1_455 S
C1070 C1075 1.390 . S
C1071 C1065 1.465 . S
C1071 C1070 1.396 1_655 S
C1071 C1072 1.399 . S
C1072 H1058 0.929 . S
C1072 C1071 1.399 . S
C1072 C1073 1.385 1_655 S
C1073 H1059 0.931 . S
C1073 C1072 1.385 1_455 S
C1073 C1074 1.389 . S
C1074 C1073 1.389 . S
C1074 C1075 1.387 . S
C1075 H1060 0.930 . S
C1075 C1070 1.390 . S
C1075 C1074 1.387 . S
H1076 C1088 0.930 . S
H1077 C1090 0.930 . S
H1078 C1091 0.930 . S
H1079 C1095 0.959 . S
H1080 C1095 0.959 . S
H1081 C1095 0.961 . S
H1082 C1096 0.960 . S
H1083 C1096 0.961 . S
H1084 C1096 0.959 . S
H1085 C1099 0.929 . S
H1086 C1100 0.931 . S
H1087 C1102 0.930 . S
C1088 H1076 0.930 . S
C1088 C1089 1.399 . S
C1088 C1093 1.399 . S
C1089 C1088 1.399 . S
C1089 C1090 1.376 . S
C1090 H1077 0.930 . S
C1090 C1089 1.376 . S
C1090 C1091 1.388 . S
C1091 H1078 0.930 . S
C1091 C1090 1.388 . S
C1091 C1092 1.390 . S
C1092 C1091 1.390 . S
C1092 C1093 1.394 . S
C1092 C1098 1.465 . S
C1093 C1088 1.399 . S
C1093 C1092 1.394 . S
C1093 C1094 1.516 . S
C1094 C1093 1.516 . S
C1094 C1095 1.502 . S
C1094 C1096 1.561 . S
C1094 C1097 1.526 . S
C1095 H1079 0.959 . S
C1095 H1080 0.959 . S
C1095 H1081 0.961 . S
C1095 C1094 1.502 . S
C1096 H1082 0.960 . S
C1096 H1083 0.961 . S
C1096 H1084 0.959 . S
C1096 C1094 1.561 . S
C1097 C1094 1.526 . S
C1097 C1098 1.396 . S
C1097 C1102 1.390 . S
C1098 C1092 1.465 . S
C1098 C1097 1.396 . S
C1098 C1099 1.399 . S
C1099 H1085 0.929 . S
C1099 C1098 1.399 . S
C1099 C1100 1.385 . S
C1100 H1086 0.931 . S
C1100 C1099 1.385 . S
C1100 C1101 1.389 . S
C1101 C1100 1.389 . S
C1101 C1102 1.387 . S
C1102 H1087 0.930 . S
C1102 C1097 1.390 . S
C1102 C1101 1.387 . S
H1103 C1115 0.930 . S
H1104 C1117 0.930 . S
H1105 C1118 0.930 . S
H1106 C1122 0.959 . S
H1107 C1122 0.959 . S
H1108 C1122 0.961 . S
H1109 C1123 0.960 . S
H1110 C1123 0.961 . S
H1111 C1123 0.959 . S
H1112 C1126 0.929 . S
H1113 C1127 0.931 . S
H1114 C1129 0.930 . S
C1115 H1103 0.930 . S
C1115 C1116 1.399 . S
C1115 C1120 1.399 . S
C1116 C1115 1.399 . S
C1116 C1117 1.376 . S
C1117 H1104 0.930 . S
C1117 C1116 1.376 . S
C1117 C1118 1.388 . S
C1118 H1105 0.930 . S
C1118 C1117 1.388 . S
C1118 C1119 1.390 . S
C1119 C1118 1.390 . S
C1119 C1120 1.394 . S
C1119 C1125 1.465 . S
C1120 C1115 1.399 . S
C1120 C1119 1.394 . S
C1120 C1121 1.516 . S
C1121 C1120 1.516 . S
C1121 C1122 1.502 . S
C1121 C1123 1.561 . S
C1121 C1124 1.526 . S
C1122 H1106 0.959 . S
C1122 H1107 0.959 . S
C1122 H1108 0.961 . S
C1122 C1121 1.502 . S
C1123 H1109 0.960 . S
C1123 H1110 0.961 . S
C1123 H1111 0.959 . S
C1123 C1121 1.561 . S
C1124 C1121 1.526 . S
C1124 C1125 1.396 . S
C1124 C1129 1.390 . S
C1125 C1119 1.465 . S
C1125 C1124 1.396 . S
C1125 C1126 1.399 . S
C1126 H1112 0.929 . S
C1126 C1125 1.399 . S
C1126 C1127 1.385 . S
C1127 H1113 0.931 . S
C1127 C1126 1.385 . S
C1127 C1128 1.389 . S
C1128 C1127 1.389 . S
C1128 C1129 1.387 . S
C1129 H1114 0.930 . S
C1129 C1124 1.390 . S
C1129 C1128 1.387 . S
H1130 C1142 0.930 . S
H1131 C1144 0.930 . S
H1132 C1145 0.930 . S
H1133 C1149 0.959 . S
H1134 C1149 0.959 1_655 S
H1135 C1149 0.961 . S
H1136 C1150 0.960 1_455 S
H1137 C1150 0.961 . S
H1138 C1150 0.959 . S
H1139 C1153 0.929 . S
H1140 C1154 0.931 . S
H1141 C1156 0.930 . S
C1142 H1130 0.930 . S
C1142 C1143 1.399 . S
C1142 C1147 1.399 . S
C1143 C1142 1.399 . S
C1143 C1144 1.376 . S
C1144 H1131 0.930 . S
C1144 C1143 1.376 . S
C1144 C1145 1.388 . S
C1145 H1132 0.930 . S
C1145 C1144 1.388 . S
C1145 C1146 1.390 . S
C1146 C1145 1.390 . S
C1146 C1147 1.394 . S
C1146 C1152 1.465 1_455 S
C1147 C1142 1.399 . S
C1147 C1146 1.394 . S
C1147 C1148 1.516 . S
C1148 C1147 1.516 . S
C1148 C1149 1.502 . S
C1148 C1150 1.561 1_455 S
C1148 C1151 1.526 1_455 S
C1149 H1133 0.959 . S
C1149 H1134 0.959 1_455 S
C1149 H1135 0.961 . S
C1149 C1148 1.502 . S
C1150 H1136 0.960 1_655 S
C1150 H1137 0.961 . S
C1150 H1138 0.959 . S
C1150 C1148 1.561 1_655 S
C1151 C1148 1.526 1_655 S
C1151 C1152 1.396 . S
C1151 C1156 1.390 . S
C1152 C1146 1.465 1_655 S
C1152 C1151 1.396 . S
C1152 C1153 1.399 . S
C1153 H1139 0.929 . S
C1153 C1152 1.399 . S
C1153 C1154 1.385 . S
C1154 H1140 0.931 . S
C1154 C1153 1.385 . S
C1154 C1155 1.389 . S
C1155 C1154 1.389 . S
C1155 C1156 1.387 . S
C1156 H1141 0.930 . S
C1156 C1151 1.390 . S
C1156 C1155 1.387 . S
H1157 C1169 0.930 . S
H1158 C1171 0.930 . S
H1159 C1172 0.930 . S
H1160 C1176 0.959 . S
H1161 C1176 0.959 . S
H1162 C1176 0.961 . S
H1163 C1177 0.960 . S
H1164 C1177 0.961 . S
H1165 C1177 0.959 . S
H1166 C1180 0.929 1_455 S
H1167 C1181 0.931 . S
H1168 C1183 0.930 . S
C1169 H1157 0.930 . S
C1169 C1170 1.399 . S
C1169 C1174 1.399 . S
C1170 C1169 1.399 . S
C1170 C1171 1.376 . S
C1171 H1158 0.930 . S
C1171 C1170 1.376 . S
C1171 C1172 1.388 . S
C1172 H1159 0.930 . S
C1172 C1171 1.388 . S
C1172 C1173 1.390 . S
C1173 C1172 1.390 . S
C1173 C1174 1.394 . S
C1173 C1179 1.465 1_455 S
C1174 C1169 1.399 . S
C1174 C1173 1.394 . S
C1174 C1175 1.516 1_455 S
C1175 C1174 1.516 1_655 S
C1175 C1176 1.502 . S
C1175 C1177 1.561 1_655 S
C1175 C1178 1.526 . S
C1176 H1160 0.959 . S
C1176 H1161 0.959 . S
C1176 H1162 0.961 . S
C1176 C1175 1.502 . S
C1177 H1163 0.960 . S
C1177 H1164 0.961 . S
C1177 H1165 0.959 . S
C1177 C1175 1.561 1_455 S
C1178 C1175 1.526 . S
C1178 C1179 1.396 . S
C1178 C1183 1.390 . S
C1179 C1173 1.465 1_655 S
C1179 C1178 1.396 . S
C1179 C1180 1.399 . S
C1180 H1166 0.929 1_655 S
C1180 C1179 1.399 . S
C1180 C1181 1.385 . S
C1181 H1167 0.931 . S
C1181 C1180 1.385 . S
C1181 C1182 1.389 . S
C1182 C1181 1.389 . S
C1182 C1183 1.387 . S
C1183 H1168 0.930 . S
C1183 C1178 1.390 . S
C1183 C1182 1.387 . S
H1184 C1196 0.930 . S
H1185 C1198 0.930 . S
H1186 C1199 0.930 . S
H1187 C1203 0.959 . S
H1188 C1203 0.959 . S
H1189 C1203 0.961 . S
H1190 C1204 0.960 . S
H1191 C1204 0.961 . S
H1192 C1204 0.959 . S
H1193 C1207 0.929 . S
H1194 C1208 0.931 . S
H1195 C1210 0.930 . S
C1196 H1184 0.930 . S
C1196 C1197 1.399 . S
C1196 C1201 1.399 . S
C1197 C1196 1.399 . S
C1197 C1198 1.376 . S
C1198 H1185 0.930 . S
C1198 C1197 1.376 . S
C1198 C1199 1.388 . S
C1199 H1186 0.930 . S
C1199 C1198 1.388 . S
C1199 C1200 1.390 . S
C1200 C1199 1.390 . S
C1200 C1201 1.394 . S
C1200 C1206 1.465 . S
C1201 C1196 1.399 . S
C1201 C1200 1.394 . S
C1201 C1202 1.516 . S
C1202 C1201 1.516 . S
C1202 C1203 1.502 . S
C1202 C1204 1.561 . S
C1202 C1205 1.526 . S
C1203 H1187 0.959 . S
C1203 H1188 0.959 . S
C1203 H1189 0.961 . S
C1203 C1202 1.502 . S
C1204 H1190 0.960 . S
C1204 H1191 0.961 . S
C1204 H1192 0.959 . S
C1204 C1202 1.561 . S
C1205 C1202 1.526 . S
C1205 C1206 1.396 . S
C1205 C1210 1.390 . S
C1206 C1200 1.465 . S
C1206 C1205 1.396 . S
C1206 C1207 1.399 . S
C1207 H1193 0.929 . S
C1207 C1206 1.399 . S
C1207 C1208 1.385 . S
C1208 H1194 0.931 . S
C1208 C1207 1.385 . S
C1208 C1209 1.389 . S
C1209 C1208 1.389 . S
C1209 C1210 1.387 . S
C1210 H1195 0.930 . S
C1210 C1205 1.390 . S
C1210 C1209 1.387 . S
H1211 C1223 0.930 . S
H1212 C1225 0.930 . S
H1213 C1226 0.930 . S
H1214 C1230 0.959 . S
H1215 C1230 0.959 . S
H1216 C1230 0.961 . S
H1217 C1231 0.960 . S
H1218 C1231 0.961 . S
H1219 C1231 0.959 . S
H1220 C1234 0.929 . S
H1221 C1235 0.931 . S
H1222 C1237 0.930 . S
C1223 H1211 0.930 . S
C1223 C1224 1.399 . S
C1223 C1228 1.399 . S
C1224 C1223 1.399 . S
C1224 C1225 1.376 . S
C1225 H1212 0.930 . S
C1225 C1224 1.376 . S
C1225 C1226 1.388 . S
C1226 H1213 0.930 . S
C1226 C1225 1.388 . S
C1226 C1227 1.390 . S
C1227 C1226 1.390 . S
C1227 C1228 1.394 . S
C1227 C1233 1.465 . S
C1228 C1223 1.399 . S
C1228 C1227 1.394 . S
C1228 C1229 1.516 . S
C1229 C1228 1.516 . S
C1229 C1230 1.502 . S
C1229 C1231 1.561 . S
C1229 C1232 1.526 . S
C1230 H1214 0.959 . S
C1230 H1215 0.959 . S
C1230 H1216 0.961 . S
C1230 C1229 1.502 . S
C1231 H1217 0.960 . S
C1231 H1218 0.961 . S
C1231 H1219 0.959 . S
C1231 C1229 1.561 . S
C1232 C1229 1.526 . S
C1232 C1233 1.396 . S
C1232 C1237 1.390 . S
C1233 C1227 1.465 . S
C1233 C1232 1.396 . S
C1233 C1234 1.399 . S
C1234 H1220 0.929 . S
C1234 C1233 1.399 . S
C1234 C1235 1.385 . S
C1235 H1221 0.931 . S
C1235 C1234 1.385 . S
C1235 C1236 1.389 . S
C1236 C1235 1.389 . S
C1236 C1237 1.387 . S
C1237 H1222 0.930 . S
C1237 C1232 1.390 . S
C1237 C1236 1.387 . S
H1238 C1250 0.930 . S
H1239 C1252 0.930 . S
H1240 C1253 0.930 . S
H1241 C1257 0.959 . S
H1242 C1257 0.959 . S
H1243 C1257 0.961 . S
H1244 C1258 0.960 . S
H1245 C1258 0.961 . S
H1246 C1258 0.959 . S
H1247 C1261 0.929 . S
H1248 C1262 0.931 . S
H1249 C1264 0.930 . S
C1250 H1238 0.930 . S
C1250 C1251 1.399 . S
C1250 C1255 1.399 . S
C1251 C1250 1.399 . S
C1251 C1252 1.376 . S
C1252 H1239 0.930 . S
C1252 C1251 1.376 . S
C1252 C1253 1.388 . S
C1253 H1240 0.930 . S
C1253 C1252 1.388 . S
C1253 C1254 1.390 . S
C1254 C1253 1.390 . S
C1254 C1255 1.394 . S
C1254 C1260 1.465 . S
C1255 C1250 1.399 . S
C1255 C1254 1.394 . S
C1255 C1256 1.516 . S
C1256 C1255 1.516 . S
C1256 C1257 1.502 . S
C1256 C1258 1.561 . S
C1256 C1259 1.526 . S
C1257 H1241 0.959 . S
C1257 H1242 0.959 . S
C1257 H1243 0.961 . S
C1257 C1256 1.502 . S
C1258 H1244 0.960 . S
C1258 H1245 0.961 . S
C1258 H1246 0.959 . S
C1258 C1256 1.561 . S
C1259 C1256 1.526 . S
C1259 C1260 1.396 . S
C1259 C1264 1.390 . S
C1260 C1254 1.465 . S
C1260 C1259 1.396 . S
C1260 C1261 1.399 . S
C1261 H1247 0.929 . S
C1261 C1260 1.399 . S
C1261 C1262 1.385 . S
C1262 H1248 0.931 . S
C1262 C1261 1.385 . S
C1262 C1263 1.389 . S
C1263 C1262 1.389 . S
C1263 C1264 1.387 . S
C1264 H1249 0.930 . S
C1264 C1259 1.390 . S
C1264 C1263 1.387 . S
H1265 C1277 0.930 . S
H1266 C1279 0.930 . S
H1267 C1280 0.930 . S
H1268 C1284 0.959 . S
H1269 C1284 0.959 . S
H1270 C1284 0.961 . S
H1271 C1285 0.960 . S
H1272 C1285 0.961 . S
H1273 C1285 0.959 . S
H1274 C1288 0.929 . S
H1275 C1289 0.931 . S
H1276 C1291 0.930 . S
C1277 H1265 0.930 . S
C1277 C1278 1.399 . S
C1277 C1282 1.399 1_655 S
C1278 C1277 1.399 . S
C1278 C1279 1.376 . S
C1279 H1266 0.930 . S
C1279 C1278 1.376 . S
C1279 C1280 1.388 1_655 S
C1280 H1267 0.930 . S
C1280 C1279 1.388 1_455 S
C1280 C1281 1.390 . S
C1281 C1280 1.390 . S
C1281 C1282 1.394 . S
C1281 C1287 1.465 . S
C1282 C1277 1.399 1_455 S
C1282 C1281 1.394 . S
C1282 C1283 1.516 . S
C1283 C1282 1.516 . S
C1283 C1284 1.502 . S
C1283 C1285 1.561 . S
C1283 C1286 1.526 . S
C1284 H1268 0.959 . S
C1284 H1269 0.959 . S
C1284 H1270 0.961 . S
C1284 C1283 1.502 . S
C1285 H1271 0.960 . S
C1285 H1272 0.961 . S
C1285 H1273 0.959 . S
C1285 C1283 1.561 . S
C1286 C1283 1.526 . S
C1286 C1287 1.396 . S
C1286 C1291 1.390 . S
C1287 C1281 1.465 . S
C1287 C1286 1.396 . S
C1287 C1288 1.399 . S
C1288 H1274 0.929 . S
C1288 C1287 1.399 . S
C1288 C1289 1.385 . S
C1289 H1275 0.931 . S
C1289 C1288 1.385 . S
C1289 C1290 1.389 . S
C1290 C1289 1.389 . S
C1290 C1291 1.387 . S
C1291 H1276 0.930 . S
C1291 C1286 1.390 . S
C1291 C1290 1.387 . S
H1292 C1304 0.930 . S
H1293 C1306 0.930 . S
H1294 C1307 0.930 . S
H1295 C1311 0.959 . S
H1296 C1311 0.959 . S
H1297 C1311 0.961 . S
H1298 C1312 0.960 . S
H1299 C1312 0.961 . S
H1300 C1312 0.959 . S
H1301 C1315 0.929 . S
H1302 C1316 0.931 . S
H1303 C1318 0.930 . S
C1304 H1292 0.930 . S
C1304 C1305 1.399 . S
C1304 C1309 1.399 . S
C1305 C1304 1.399 . S
C1305 C1306 1.376 . S
C1306 H1293 0.930 . S
C1306 C1305 1.376 . S
C1306 C1307 1.388 . S
C1307 H1294 0.930 . S
C1307 C1306 1.388 . S
C1307 C1308 1.390 . S
C1308 C1307 1.390 . S
C1308 C1309 1.394 . S
C1308 C1314 1.465 . S
C1309 C1304 1.399 . S
C1309 C1308 1.394 . S
C1309 C1310 1.516 . S
C1310 C1309 1.516 . S
C1310 C1311 1.502 . S
C1310 C1312 1.561 . S
C1310 C1313 1.526 . S
C1311 H1295 0.959 . S
C1311 H1296 0.959 . S
C1311 H1297 0.961 . S
C1311 C1310 1.502 . S
C1312 H1298 0.960 . S
C1312 H1299 0.961 . S
C1312 H1300 0.959 . S
C1312 C1310 1.561 . S
C1313 C1310 1.526 . S
C1313 C1314 1.396 . S
C1313 C1318 1.390 . S
C1314 C1308 1.465 . S
C1314 C1313 1.396 . S
C1314 C1315 1.399 . S
C1315 H1301 0.929 . S
C1315 C1314 1.399 . S
C1315 C1316 1.385 . S
C1316 H1302 0.931 . S
C1316 C1315 1.385 . S
C1316 C1317 1.389 . S
C1317 C1316 1.389 . S
C1317 C1318 1.387 . S
C1318 H1303 0.930 . S
C1318 C1313 1.390 . S
C1318 C1317 1.387 . S
H1319 C1331 0.930 . S
H1320 C1333 0.930 . S
H1321 C1334 0.930 . S
H1322 C1338 0.959 . S
H1323 C1338 0.959 . S
H1324 C1338 0.961 . S
H1325 C1339 0.960 . S
H1326 C1339 0.961 . S
H1327 C1339 0.959 . S
H1328 C1342 0.929 . S
H1329 C1343 0.931 . S
H1330 C1345 0.930 . S
C1331 H1319 0.930 . S
C1331 C1332 1.399 . S
C1331 C1336 1.399 . S
C1332 C1331 1.399 . S
C1332 C1333 1.376 . S
C1333 H1320 0.930 . S
C1333 C1332 1.376 . S
C1333 C1334 1.388 . S
C1334 H1321 0.930 . S
C1334 C1333 1.388 . S
C1334 C1335 1.390 . S
C1335 C1334 1.390 . S
C1335 C1336 1.394 . S
C1335 C1341 1.465 . S
C1336 C1331 1.399 . S
C1336 C1335 1.394 . S
C1336 C1337 1.516 . S
C1337 C1336 1.516 . S
C1337 C1338 1.502 . S
C1337 C1339 1.561 . S
C1337 C1340 1.526 . S
C1338 H1322 0.959 . S
C1338 H1323 0.959 . S
C1338 H1324 0.961 . S
C1338 C1337 1.502 . S
C1339 H1325 0.960 . S
C1339 H1326 0.961 . S
C1339 H1327 0.959 . S
C1339 C1337 1.561 . S
C1340 C1337 1.526 . S
C1340 C1341 1.396 . S
C1340 C1345 1.390 . S
C1341 C1335 1.465 . S
C1341 C1340 1.396 . S
C1341 C1342 1.399 . S
C1342 H1328 0.929 . S
C1342 C1341 1.399 . S
C1342 C1343 1.385 . S
C1343 H1329 0.931 . S
C1343 C1342 1.385 . S
C1343 C1344 1.389 . S
C1344 C1343 1.389 . S
C1344 C1345 1.387 . S
C1345 H1330 0.930 . S
C1345 C1340 1.390 . S
C1345 C1344 1.387 . S
H1346 C1358 0.930 . S
H1347 C1360 0.930 . S
H1348 C1361 0.930 . S
H1349 C1365 0.959 . S
H1350 C1365 0.959 . S
H1351 C1365 0.961 . S
H1352 C1366 0.960 . S
H1353 C1366 0.961 . S
H1354 C1366 0.959 . S
H1355 C1369 0.929 . S
H1356 C1370 0.931 . S
H1357 C1372 0.930 . S
C1358 H1346 0.930 . S
C1358 C1359 1.399 . S
C1358 C1363 1.399 . S
C1359 C1358 1.399 . S
C1359 C1360 1.376 . S
C1360 H1347 0.930 . S
C1360 C1359 1.376 . S
C1360 C1361 1.388 . S
C1361 H1348 0.930 . S
C1361 C1360 1.388 . S
C1361 C1362 1.390 . S
C1362 C1361 1.390 . S
C1362 C1363 1.394 . S
C1362 C1368 1.465 . S
C1363 C1358 1.399 . S
C1363 C1362 1.394 . S
C1363 C1364 1.516 . S
C1364 C1363 1.516 . S
C1364 C1365 1.502 . S
C1364 C1366 1.561 . S
C1364 C1367 1.526 . S
C1365 H1349 0.959 . S
C1365 H1350 0.959 . S
C1365 H1351 0.961 . S
C1365 C1364 1.502 . S
C1366 H1352 0.960 . S
C1366 H1353 0.961 . S
C1366 H1354 0.959 . S
C1366 C1364 1.561 . S
C1367 C1364 1.526 . S
C1367 C1368 1.396 . S
C1367 C1372 1.390 . S
C1368 C1362 1.465 . S
C1368 C1367 1.396 . S
C1368 C1369 1.399 . S
C1369 H1355 0.929 . S
C1369 C1368 1.399 . S
C1369 C1370 1.385 . S
C1370 H1356 0.931 . S
C1370 C1369 1.385 . S
C1370 C1371 1.389 . S
C1371 C1370 1.389 . S
C1371 C1372 1.387 . S
C1372 H1357 0.930 . S
C1372 C1367 1.390 . S
C1372 C1371 1.387 . S
H1373 C1385 0.930 . S
H1374 C1387 0.930 . S
H1375 C1388 0.930 . S
H1376 C1392 0.959 . S
H1377 C1392 0.959 . S
H1378 C1392 0.961 . S
H1379 C1393 0.960 . S
H1380 C1393 0.961 . S
H1381 C1393 0.959 . S
H1382 C1396 0.929 . S
H1383 C1397 0.931 . S
H1384 C1399 0.930 . S
C1385 H1373 0.930 . S
C1385 C1386 1.399 . S
C1385 C1390 1.399 . S
C1386 C1385 1.399 . S
C1386 C1387 1.376 . S
C1387 H1374 0.930 . S
C1387 C1386 1.376 . S
C1387 C1388 1.388 . S
C1388 H1375 0.930 . S
C1388 C1387 1.388 . S
C1388 C1389 1.390 . S
C1389 C1388 1.390 . S
C1389 C1390 1.394 . S
C1389 C1395 1.465 . S
C1390 C1385 1.399 . S
C1390 C1389 1.394 . S
C1390 C1391 1.516 . S
C1391 C1390 1.516 . S
C1391 C1392 1.502 . S
C1391 C1393 1.561 . S
C1391 C1394 1.526 . S
C1392 H1376 0.959 . S
C1392 H1377 0.959 . S
C1392 H1378 0.961 . S
C1392 C1391 1.502 . S
C1393 H1379 0.960 . S
C1393 H1380 0.961 . S
C1393 H1381 0.959 . S
C1393 C1391 1.561 . S
C1394 C1391 1.526 . S
C1394 C1395 1.396 . S
C1394 C1399 1.390 1_655 S
C1395 C1389 1.465 . S
C1395 C1394 1.396 . S
C1395 C1396 1.399 . S
C1396 H1382 0.929 . S
C1396 C1395 1.399 . S
C1396 C1397 1.385 1_655 S
C1397 H1383 0.931 . S
C1397 C1396 1.385 1_455 S
C1397 C1398 1.389 . S
C1398 C1397 1.389 . S
C1398 C1399 1.387 . S
C1399 H1384 0.930 . S
C1399 C1394 1.390 1_455 S
C1399 C1398 1.387 . S
H1400 C1412 0.930 . S
H1401 C1414 0.930 . S
H1402 C1415 0.930 . S
H1403 C1419 0.959 . S
H1404 C1419 0.959 . S
H1405 C1419 0.961 . S
H1406 C1420 0.960 . S
H1407 C1420 0.961 . S
H1408 C1420 0.959 . S
H1409 C1423 0.929 . S
H1410 C1424 0.931 . S
H1411 C1426 0.930 . S
C1412 H1400 0.930 . S
C1412 C1413 1.399 . S
C1412 C1417 1.399 . S
C1413 C1412 1.399 . S
C1413 C1414 1.376 . S
C1414 H1401 0.930 . S
C1414 C1413 1.376 . S
C1414 C1415 1.388 . S
C1415 H1402 0.930 . S
C1415 C1414 1.388 . S
C1415 C1416 1.390 . S
C1416 C1415 1.390 . S
C1416 C1417 1.394 . S
C1416 C1422 1.465 . S
C1417 C1412 1.399 . S
C1417 C1416 1.394 . S
C1417 C1418 1.516 . S
C1418 C1417 1.516 . S
C1418 C1419 1.502 . S
C1418 C1420 1.561 . S
C1418 C1421 1.526 . S
C1419 H1403 0.959 . S
C1419 H1404 0.959 . S
C1419 H1405 0.961 . S
C1419 C1418 1.502 . S
C1420 H1406 0.960 . S
C1420 H1407 0.961 . S
C1420 H1408 0.959 . S
C1420 C1418 1.561 . S
C1421 C1418 1.526 . S
C1421 C1422 1.396 . S
C1421 C1426 1.390 . S
C1422 C1416 1.465 . S
C1422 C1421 1.396 . S
C1422 C1423 1.399 . S
C1423 H1409 0.929 . S
C1423 C1422 1.399 . S
C1423 C1424 1.385 . S
C1424 H1410 0.931 . S
C1424 C1423 1.385 . S
C1424 C1425 1.389 . S
C1425 C1424 1.389 . S
C1425 C1426 1.387 . S
C1426 H1411 0.930 . S
C1426 C1421 1.390 . S
C1426 C1425 1.387 . S
H1427 C1439 0.930 . S
H1428 C1441 0.930 . S
H1429 C1442 0.930 . S
H1430 C1446 0.949 1_545 S
H1431 C1446 0.954 1_545 S
H1432 C1446 0.963 . S
H1433 C1447 0.960 . S
H1434 C1447 0.961 . S
H1435 C1447 0.959 . S
H1436 C1450 0.929 . S
H1437 C1451 0.931 . S
H1438 C1453 0.930 . S
C1439 H1427 0.930 . S
C1439 C1440 1.399 . S
C1439 C1444 1.399 . S
C1440 C1439 1.399 . S
C1440 C1441 1.376 . S
C1441 H1428 0.930 . S
C1441 C1440 1.376 . S
C1441 C1442 1.388 . S
C1442 H1429 0.930 . S
C1442 C1441 1.388 . S
C1442 C1443 1.390 . S
C1443 C1442 1.390 . S
C1443 C1444 1.394 . S
C1443 C1449 1.465 . S
C1444 C1439 1.399 . S
C1444 C1443 1.394 . S
C1444 C1445 1.516 . S
C1445 C1444 1.516 . S
C1445 C1446 1.515 . S
C1445 C1447 1.561 . S
C1445 C1448 1.526 . S
C1446 H1430 0.949 1_565 S
C1446 H1431 0.954 1_565 S
C1446 H1432 0.963 . S
C1446 C1445 1.515 . S
C1447 H1433 0.960 . S
C1447 H1434 0.961 . S
C1447 H1435 0.959 . S
C1447 C1445 1.561 . S
C1448 C1445 1.526 . S
C1448 C1449 1.396 . S
C1448 C1453 1.390 1_655 S
C1449 C1443 1.465 . S
C1449 C1448 1.396 . S
C1449 C1450 1.399 . S
C1450 H1436 0.929 . S
C1450 C1449 1.399 . S
C1450 C1451 1.385 1_655 S
C1451 H1437 0.931 . S
C1451 C1450 1.385 1_455 S
C1451 C1452 1.389 . S
C1452 C1451 1.389 . S
C1452 C1453 1.387 . S
C1453 H1438 0.930 . S
C1453 C1448 1.390 1_455 S
C1453 C1452 1.387 . S
H1454 C1466 0.930 . S
H1455 C1468 0.930 . S
H1456 C1469 0.930 . S
H1457 C1473 0.959 . S
H1458 C1473 0.959 . S
H1459 C1473 0.961 . S
H1460 C1474 0.960 . S
H1461 C1474 0.961 . S
H1462 C1474 0.959 . S
H1463 C1477 0.929 . S
H1464 C1478 0.931 . S
H1465 C1480 0.930 . S
C1466 H1454 0.930 . S
C1466 C1467 1.399 . S
C1466 C1471 1.399 . S
C1467 C1466 1.399 . S
C1467 C1468 1.376 . S
C1468 H1455 0.930 . S
C1468 C1467 1.376 . S
C1468 C1469 1.388 . S
C1469 H1456 0.930 . S
C1469 C1468 1.388 . S
C1469 C1470 1.390 . S
C1470 C1469 1.390 . S
C1470 C1471 1.394 . S
C1470 C1476 1.465 . S
C1471 C1466 1.399 . S
C1471 C1470 1.394 . S
C1471 C1472 1.516 . S
C1472 C1471 1.516 . S
C1472 C1473 1.502 . S
C1472 C1474 1.561 . S
C1472 C1475 1.526 . S
C1473 H1457 0.959 . S
C1473 H1458 0.959 . S
C1473 H1459 0.961 . S
C1473 C1472 1.502 . S
C1474 H1460 0.960 . S
C1474 H1461 0.961 . S
C1474 H1462 0.959 . S
C1474 C1472 1.561 . S
C1475 C1472 1.526 . S
C1475 C1476 1.396 . S
C1475 C1480 1.390 . S
C1476 C1470 1.465 . S
C1476 C1475 1.396 . S
C1476 C1477 1.399 . S
C1477 H1463 0.929 . S
C1477 C1476 1.399 . S
C1477 C1478 1.385 . S
C1478 H1464 0.931 . S
C1478 C1477 1.385 . S
C1478 C1479 1.389 . S
C1479 C1478 1.389 . S
C1479 C1480 1.387 . S
C1480 H1465 0.930 . S
C1480 C1475 1.390 . S
C1480 C1479 1.387 . S
H1481 C1493 0.930 . S
H1482 C1495 0.930 . S
H1483 C1496 0.930 . S
H1484 C1500 0.959 . S
H1485 C1500 0.959 . S
H1486 C1500 0.961 . S
H1487 C1501 0.960 1_565 S
H1488 C1501 0.961 1_565 S
H1489 C1501 0.959 . S
H1490 C1504 0.929 . S
H1491 C1505 0.931 . S
H1492 C1507 0.930 . S
C1493 H1481 0.930 . S
C1493 C1494 1.399 1_565 S
C1493 C1498 1.399 1_565 S
C1494 C1493 1.399 1_545 S
C1494 C1495 1.376 . S
C1495 H1482 0.930 . S
C1495 C1494 1.376 . S
C1495 C1496 1.388 . S
C1496 H1483 0.930 . S
C1496 C1495 1.388 . S
C1496 C1497 1.390 . S
C1497 C1496 1.390 . S
C1497 C1498 1.394 . S
C1497 C1503 1.465 . S
C1498 C1493 1.399 1_545 S
C1498 C1497 1.394 . S
C1498 C1499 1.516 . S
C1499 C1498 1.516 . S
C1499 C1500 1.502 1_545 S
C1499 C1501 1.561 . S
C1499 C1502 1.526 . S
C1500 H1484 0.959 . S
C1500 H1485 0.959 . S
C1500 H1486 0.961 . S
C1500 C1499 1.502 1_565 S
C1501 H1487 0.960 1_545 S
C1501 H1488 0.961 1_545 S
C1501 H1489 0.959 . S
C1501 C1499 1.561 . S
C1502 C1499 1.526 . S
C1502 C1503 1.396 . S
C1502 C1507 1.390 . S
C1503 C1497 1.465 . S
C1503 C1502 1.396 . S
C1503 C1504 1.399 . S
C1504 H1490 0.929 . S
C1504 C1503 1.399 . S
C1504 C1505 1.385 . S
C1505 H1491 0.931 . S
C1505 C1504 1.385 . S
C1505 C1506 1.389 . S
C1506 C1505 1.389 . S
C1506 C1507 1.387 . S
C1507 H1492 0.930 . S
C1507 C1502 1.390 . S
C1507 C1506 1.387 . S
H1508 C1520 0.930 . S
H1509 C1522 0.930 . S
H1510 C1523 0.930 . S
H1511 C1527 0.959 . S
H1512 C1527 0.959 . S
H1513 C1527 0.961 . S
H1514 C1528 0.960 . S
H1515 C1528 0.961 . S
H1516 C1528 0.959 . S
H1517 C1531 0.929 . S
H1518 C1532 0.931 . S
H1519 C1534 0.930 . S
C1520 H1508 0.930 . S
C1520 C1521 1.399 . S
C1520 C1525 1.399 . S
C1521 C1520 1.399 . S
C1521 C1522 1.376 . S
C1522 H1509 0.930 . S
C1522 C1521 1.376 . S
C1522 C1523 1.388 . S
C1523 H1510 0.930 . S
C1523 C1522 1.388 . S
C1523 C1524 1.390 . S
C1524 C1523 1.390 . S
C1524 C1525 1.394 . S
C1524 C1530 1.465 . S
C1525 C1520 1.399 . S
C1525 C1524 1.394 . S
C1525 C1526 1.516 . S
C1526 C1525 1.516 . S
C1526 C1527 1.502 . S
C1526 C1528 1.561 . S
C1526 C1529 1.526 . S
C1527 H1511 0.959 . S
C1527 H1512 0.959 . S
C1527 H1513 0.961 . S
C1527 C1526 1.502 . S
C1528 H1514 0.960 . S
C1528 H1515 0.961 . S
C1528 H1516 0.959 . S
C1528 C1526 1.561 . S
C1529 C1526 1.526 . S
C1529 C1530 1.396 . S
C1529 C1534 1.390 . S
C1530 C1524 1.465 . S
C1530 C1529 1.396 . S
C1530 C1531 1.399 . S
C1531 H1517 0.929 . S
C1531 C1530 1.399 . S
C1531 C1532 1.385 . S
C1532 H1518 0.931 . S
C1532 C1531 1.385 . S
C1532 C1533 1.389 . S
C1533 C1532 1.389 . S
C1533 C1534 1.387 . S
C1534 H1519 0.930 . S
C1534 C1529 1.390 . S
C1534 C1533 1.387 . S
H1535 C1547 0.930 . S
H1536 C1549 0.930 . S
H1537 C1550 0.930 . S
H1538 C1554 0.959 1_565 S
H1539 C1554 0.959 . S
H1540 C1554 0.961 . S
H1541 C1555 0.960 . S
H1542 C1555 0.961 . S
H1543 C1555 0.959 . S
H1544 C1558 0.929 . S
H1545 C1559 0.931 . S
H1546 C1561 0.930 . S
C1547 H1535 0.930 . S
C1547 C1548 1.399 . S
C1547 C1552 1.399 1_655 S
C1548 C1547 1.399 . S
C1548 C1549 1.376 . S
C1549 H1536 0.930 . S
C1549 C1548 1.376 . S
C1549 C1550 1.388 1_655 S
C1550 H1537 0.930 . S
C1550 C1549 1.388 1_455 S
C1550 C1551 1.390 . S
C1551 C1550 1.390 . S
C1551 C1552 1.394 . S
C1551 C1557 1.465 . S
C1552 C1547 1.399 1_455 S
C1552 C1551 1.394 . S
C1552 C1553 1.516 . S
C1553 C1552 1.516 . S
C1553 C1554 1.502 . S
C1553 C1555 1.561 . S
C1553 C1556 1.526 . S
C1554 H1538 0.959 1_545 S
C1554 H1539 0.959 . S
C1554 H1540 0.961 . S
C1554 C1553 1.502 . S
C1555 H1541 0.960 . S
C1555 H1542 0.961 . S
C1555 H1543 0.959 . S
C1555 C1553 1.561 . S
C1556 C1553 1.526 . S
C1556 C1557 1.396 . S
C1556 C1561 1.390 . S
C1557 C1551 1.465 . S
C1557 C1556 1.396 . S
C1557 C1558 1.399 . S
C1558 H1544 0.929 . S
C1558 C1557 1.399 . S
C1558 C1559 1.385 . S
C1559 H1545 0.931 . S
C1559 C1558 1.385 . S
C1559 C1560 1.389 . S
C1560 C1559 1.389 . S
C1560 C1561 1.387 . S
C1561 H1546 0.930 . S
C1561 C1556 1.390 . S
C1561 C1560 1.387 . S
H1562 C1574 0.930 . S
H1563 C1576 0.930 . S
H1564 C1577 0.930 . S
H1565 C1581 0.959 . S
H1566 C1581 0.959 . S
H1567 C1581 0.961 . S
H1568 C1582 0.960 . S
H1569 C1582 0.961 . S
H1570 C1582 0.959 . S
H1571 C1585 0.929 . S
H1572 C1586 0.931 . S
H1573 C1588 0.930 . S
C1574 H1562 0.930 . S
C1574 C1575 1.399 . S
C1574 C1579 1.399 . S
C1575 C1574 1.399 . S
C1575 C1576 1.376 . S
C1576 H1563 0.930 . S
C1576 C1575 1.376 . S
C1576 C1577 1.388 . S
C1577 H1564 0.930 . S
C1577 C1576 1.388 . S
C1577 C1578 1.390 . S
C1578 C1577 1.390 . S
C1578 C1579 1.394 . S
C1578 C1584 1.465 . S
C1579 C1574 1.399 . S
C1579 C1578 1.394 . S
C1579 C1580 1.516 . S
C1580 C1579 1.516 . S
C1580 C1581 1.502 . S
C1580 C1582 1.561 . S
C1580 C1583 1.526 . S
C1581 H1565 0.959 . S
C1581 H1566 0.959 . S
C1581 H1567 0.961 . S
C1581 C1580 1.502 . S
C1582 H1568 0.960 . S
C1582 H1569 0.961 . S
C1582 H1570 0.959 . S
C1582 C1580 1.561 . S
C1583 C1580 1.526 . S
C1583 C1584 1.396 . S
C1583 C1588 1.390 . S
C1584 C1578 1.465 . S
C1584 C1583 1.396 . S
C1584 C1585 1.399 . S
C1585 H1571 0.929 . S
C1585 C1584 1.399 . S
C1585 C1586 1.385 . S
C1586 H1572 0.931 . S
C1586 C1585 1.385 . S
C1586 C1587 1.389 . S
C1587 C1586 1.389 . S
C1587 C1588 1.387 . S
C1588 H1573 0.930 . S
C1588 C1583 1.390 . S
C1588 C1587 1.387 . S
H1589 C1601 0.930 . S
H1590 C1603 0.930 . S
H1591 C1604 0.930 . S
H1592 C1608 0.959 . S
H1593 C1608 0.959 . S
H1594 C1608 0.961 . S
H1595 C1609 0.960 . S
H1596 C1609 0.961 . S
H1597 C1609 0.959 . S
H1598 C1612 0.929 1_545 S
H1599 C1613 0.931 . S
H1600 C1615 0.930 . S
C1601 H1589 0.930 . S
C1601 C1602 1.399 . S
C1601 C1606 1.399 . S
C1602 C1601 1.399 . S
C1602 C1603 1.376 . S
C1603 H1590 0.930 . S
C1603 C1602 1.376 . S
C1603 C1604 1.388 . S
C1604 H1591 0.930 . S
C1604 C1603 1.388 . S
C1604 C1605 1.390 . S
C1605 C1604 1.390 . S
C1605 C1606 1.394 . S
C1605 C1611 1.465 . S
C1606 C1601 1.399 . S
C1606 C1605 1.394 . S
C1606 C1607 1.516 . S
C1607 C1606 1.516 . S
C1607 C1608 1.502 . S
C1607 C1609 1.561 . S
C1607 C1610 1.526 . S
C1608 H1592 0.959 . S
C1608 H1593 0.959 . S
C1608 H1594 0.961 . S
C1608 C1607 1.502 . S
C1609 H1595 0.960 . S
C1609 H1596 0.961 . S
C1609 H1597 0.959 . S
C1609 C1607 1.561 . S
C1610 C1607 1.526 . S
C1610 C1611 1.396 . S
C1610 C1615 1.390 . S
C1611 C1605 1.465 . S
C1611 C1610 1.396 . S
C1611 C1612 1.399 . S
C1612 H1598 0.929 1_565 S
C1612 C1611 1.399 . S
C1612 C1613 1.385 1_565 S
C1613 H1599 0.931 . S
C1613 C1612 1.385 1_545 S
C1613 C1614 1.389 1_545 S
C1614 C1613 1.389 1_565 S
C1614 C1615 1.387 . S
C1615 H1600 0.930 . S
C1615 C1610 1.390 . S
C1615 C1614 1.387 . S
C333 C12 0.172 . S
C345 C249 0.428 . S
C360 C109 0.215 . S
C372 C32 0.420 . S
C387 C52 0.340 . S
C399 C289 0.270 . S
C414 C72 0.211 . S
C426 C149 0.421 . S
C441 C89 0.211 . S
C453 C172 0.384 . S
C468 C212 0.385 . S
C480 C129 0.293 . S
C495 C269 0.192 . S
C507 C192 0.426 . S
C522 C232 0.176 . S
C534 C309 0.428 . S
C549 C199 1.663 . S
C561 C9 1.677 . S
C576 C29 1.711 . S
C588 C219 1.728 . S
C603 C49 1.641 . S
C615 C239 1.721 . S
C630 C179 1.720 . S
C642 C69 1.642 . S
C657 C278 1.692 . S
C669 C92 1.721 . S
C684 C298 1.743 . S
C696 C112 1.702 . S
C711 C132 1.671 . S
C723 C318 1.660 . S
C738 C258 1.730 . S
C750 C152 1.725 . S
C765 C169 1.641 . S
C777 C39 1.718 . S
C792 C189 1.662 . S
C804 C59 1.673 . S
C819 C209 1.724 . S
C831 C79 1.675 . S
C846 C19 1.688 . S
C858 C229 1.648 . S
C873 C118 1.695 . S
C885 C252 1.723 . S
C900 C272 1.720 . S
C912 C138 1.691 . S
C927 C158 1.712 . S
C939 C292 1.650 . S
C954 C312 1.721 . S
C966 C98 1.736 . S
C981 C4 1.965 . S
C993 C204 1.947 . S
C1008 C24 1.905 . S
C1020 C224 1.923 . S
C1035 C164 1.965 . S
C1047 C44 1.948 . S
C1062 C64 1.964 . S
C1074 C184 1.941 . S
C1089 C82 1.914 . S
C1101 C282 1.916 . S
C1116 C102 1.937 . S
C1128 C302 1.906 . S
C1143 C242 1.928 . S
C1155 C122 1.907 . S
C1170 C142 1.928 . S
C1182 C262 1.908 . S
C1197 C18 1.366 . S
C1209 C144 1.415 . S
C1224 C244 1.441 . S
C1236 C38 1.416 . S
C1251 C58 1.376 . S
C1263 C104 1.422 . S
C1278 C78 1.344 . S
C1290 C284 1.375 . S
C1305 C99 1.325 . S
C1317 C62 1.366 . S
C1332 C162 1.433 . S
C1344 C119 1.396 . S
C1359 C139 1.315 . S
C1371 C22 1.363 . S
C1386 C202 1.397 . S
C1398 C159 1.374 . S
C1413 C178 1.367 . S
C1425 C304 1.390 . S
C1440 C84 1.441 . S
C1452 C198 1.416 1_565 S
C1467 C264 1.364 . S
C1479 C218 1.315 . S
C1494 C238 1.399 1_545 S
C1506 C124 1.415 . S
C1521 C259 1.330 . S
C1533 C222 1.368 . S
C1548 C279 1.417 1_545 S
C1560 C2 1.438 . S
C1575 C182 1.407 . S
C1587 C299 1.386 . S
C1602 C42 1.407 . S
C1614 C319 1.386 1_565 S
