# Generated by pormake.
# Topology qtz-x, (6)-cn, num edge types: 1
# Building blocks:
#     Node 0, Type 0, BuildingBlock: BETFEN_clean_sbu_0, # of connection points: 6
#     Node 1, Type 0, BuildingBlock: BETFEN_clean_sbu_0, # of connection points: 6
#     Node 2, Type 0, BuildingBlock: BETFEN_clean_sbu_0, # of connection points: 6
#     Edge 3, Type (0, 0), BuildingBlock: FUNLAD_clean_linker_1, # of connection points: 2
#     Edge 4, Type (0, 0), BuildingBlock: FUNLAD_clean_linker_1, # of connection points: 2
#     Edge 5, Type (0, 0), BuildingBlock: FUNLAD_clean_linker_1, # of connection points: 2
#     Edge 6, Type (0, 0), BuildingBlock: FUNLAD_clean_linker_1, # of connection points: 2
#     Edge 7, Type (0, 0), BuildingBlock: FUNLAD_clean_linker_1, # of connection points: 2
#     Edge 8, Type (0, 0), BuildingBlock: FUNLAD_clean_linker_1, # of connection points: 2
#     Edge 9, Type (0, 0), BuildingBlock: FUNLAD_clean_linker_1, # of connection points: 2
#     Edge 10, Type (0, 0), BuildingBlock: FUNLAD_clean_linker_1, # of connection points: 2
#     Edge 11, Type (0, 0), BuildingBlock: FUNLAD_clean_linker_1, # of connection points: 2
# Relax obj value: 0.224
# Max RMSD: 0.259
# Mean RMSD: 0.236
data_MOF--net-qtz-x--node1-BETFEN_clean_sbu_0--edge1-FUNLAD_clean_linker_1
_symmetry_space_group_name_H-M    P1
_symmetry_Int_Tables_number       1
_symmetry_cell_setting            triclinic
loop_
_symmetry_equiv_pos_as_xyz
'x, y, z'
_cell_length_a     15.684805
_cell_length_b     15.656288
_cell_length_c     55.992092
_cell_angle_alpha  69.647804
_cell_angle_beta   113.64172
_cell_angle_gamma 121.7784
loop_
_atom_site_label
_atom_site_type_symbol
_atom_site_fract_x
_atom_site_fract_y
_atom_site_fract_z
_atom_type_partial_charge
Pr0 Pr 0.99159 0.63401 0.18962 0.0
Pr1 Pr 0.19743 0.74905 0.17774 0.0
C2 C 0.84224 0.49847 0.21477 0.0
C3 C 0.8357 0.4783 0.24213 0.0
C4 C 0.8871 0.55789 0.25658 0.0
C5 C 0.88275 0.53785 0.28262 0.0
C6 C 0.82841 0.43773 0.29509 0.0
C7 C 0.77743 0.35791 0.28061 0.0
C8 C 0.78124 0.37816 0.25445 0.0
C9 C 0.06465 0.84455 0.18118 0.0
C10 C 0.21315 0.70157 0.23968 0.0
C11 C 0.3577 0.87874 0.1564 0.0
C12 C 0.37509 0.88103 0.13233 0.0
C13 C 0.30644 0.79953 0.11844 0.0
C14 C 0.3224 0.79931 0.09572 0.0
C15 C 0.40704 0.88064 0.08642 0.0
C16 C 0.47565 0.96287 0.10034 0.0
C17 C 0.45941 0.96299 0.12316 0.0
C18 C 0.12188 0.53769 0.18586 0.0
C19 C 0.98156 0.68949 0.1264 0.0
O20 O 0.90827 0.47688 0.21246 0.0
O21 O 0.84334 0.58413 0.19958 0.0
O22 O 0.12045 0.79868 0.19426 0.0
O23 O 0.9674 0.78119 0.1726 0.0
O24 O 0.26586 0.76289 0.22219 0.0
O25 O 0.11251 0.64002 0.23222 0.0
O26 O 0.28091 0.89788 0.15252 0.0
O27 O 0.35836 0.80077 0.17523 0.0
O28 O 0.06752 0.58481 0.17273 0.0
O29 O 0.21892 0.60008 0.19475 0.0
O30 O 0.92464 0.63094 0.14346 0.0
O31 O 0.0829 0.74636 0.13474 0.0
H32 H 0.93102 0.63574 0.24775 0.0
H33 H 0.92279 0.60099 0.29316 0.0
H34 H 0.73276 0.28 0.28915 0.0
H35 H 0.74144 0.31539 0.24381 0.0
H36 H 0.24098 0.73544 0.12535 0.0
H37 H 0.26863 0.73499 0.08546 0.0
H38 H 0.54317 0.02581 0.09417 0.0
H39 H 0.51322 0.02625 0.13378 0.0
Pr40 Pr 0.82886 0.14104 0.55138 0.0
Pr41 Pr 0.71088 0.92783 0.54363 0.0
C42 C 0.91183 0.3235 0.56529 0.0
C43 C 0.9429 0.36515 0.58895 0.0
C44 C 0.04068 0.44879 0.59527 0.0
C45 C 0.07353 0.48771 0.61808 0.0
C46 C 1.00883 0.44456 0.63488 0.0
C47 C 0.91018 0.36078 0.62835 0.0
C48 C 0.87786 0.32123 0.60567 0.0
C49 C 0.95513 0.06557 0.5508 0.0
C50 C 0.78798 0.95584 0.60445 0.0
C51 C 0.623 0.7543 0.52474 0.0
C52 C 0.56843 0.72868 0.4976 0.0
C53 C 0.459 0.68468 0.48847 0.0
C54 C 0.40772 0.66895 0.46222 0.0
C55 C 0.46406 0.69543 0.44445 0.0
C56 C 0.57358 0.73705 0.45376 0.0
C57 C 0.62493 0.75308 0.48001 0.0
C58 C 0.58501 0.00406 0.54381 0.0
C59 C 0.76247 0.11473 0.49091 0.0
O60 O 0.81208 0.27071 0.55493 0.0
O61 O 0.96811 0.28459 0.56551 0.0
O62 O 0.88564 0.01746 0.56308 0.0
O63 O 0.96101 0.15481 0.5384 0.0
O64 O 0.77108 0.8947 0.58997 0.0
O65 O 0.79703 0.04893 0.59341 0.0
O66 O 0.72306 0.81563 0.52979 0.0
O67 O 0.57502 0.77387 0.53507 0.0
O68 O 0.65462 0.05155 0.53158 0.0
O69 O 0.57848 0.91466 0.55629 0.0
O70 O 0.78814 0.1807 0.50507 0.0
O71 O 0.7401 0.01863 0.50178 0.0
H72 H 0.09216 0.48352 0.58265 0.0
H73 H 0.14986 0.55193 0.62259 0.0
H74 H 0.85794 0.32385 0.64074 0.0
H75 H 0.80239 0.2558 0.60138 0.0
H76 H 0.41286 0.66448 0.50146 0.0
H77 H 0.32348 0.63711 0.45569 0.0
H78 H 0.6207 0.76071 0.44076 0.0
H79 H 0.70931 0.7871 0.48627 0.0
Pr80 Pr 0.79051 0.84926 0.85921 0.0
Pr81 Pr 0.93813 0.77771 0.86913 0.0
C82 C 0.64033 0.88657 0.85865 0.0
C83 C 0.60614 0.89259 0.8786 0.0
C84 C 0.57527 0.96793 0.87351 0.0
C85 C 0.55119 -0.01964 0.89316 0.0
C86 C 0.55642 0.91683 0.91806 0.0
C87 C 0.58646 0.84055 0.92302 0.0
C88 C 0.61121 0.82867 0.90345 0.0
C89 C 0.98409 0.01 0.85294 0.0
C90 C 0.92409 0.80369 0.92206 0.0
C91 C 0.08107 0.73848 0.86636 0.0
C92 C 0.07488 0.69669 0.84566 0.0
C93 C 0.97722 0.64632 0.82848 0.0
C94 C 0.96974 0.61407 0.80716 0.0
C95 C 0.05964 0.63225 0.8024 0.0
C96 C 0.15772 0.68099 0.82001 0.0
C97 C 0.16512 0.7134 0.84146 0.0
C98 C 0.744 0.61594 0.87438 0.0
C99 C 0.8055 0.82595 0.8059 0.0
O100 O 0.62442 0.79638 0.85813 0.0
O101 O 0.73169 0.9586 0.85594 0.0
O102 O 0.9727 0.93597 0.87221 0.0
O103 O 0.89526 0.00173 0.8363 0.0
O104 O 0.9901 0.80902 0.91202 0.0
O105 O 0.83526 0.80459 0.90628 0.0
O106 O 0.08551 0.82929 0.85866 0.0
O107 O 1.01552 0.676 0.88062 0.0
O108 O 0.75627 0.69151 0.85553 0.0
O109 O 0.83239 0.62277 0.89096 0.0
O110 O 0.74379 0.82987 0.81548 0.0
O111 O 0.88912 0.81506 0.82199 0.0
H112 H 0.57206 0.0186 0.85452 0.0
H113 H 0.52932 0.04027 0.88899 0.0
H114 H 0.59481 0.79246 0.94227 0.0
H115 H 0.6367 0.77117 0.90796 0.0
H116 H 0.9066 0.63362 0.83124 0.0
H117 H 0.89332 0.57661 0.79401 0.0
H118 H 0.22874 0.69437 0.81742 0.0
H119 H 0.24112 0.75269 0.8545 0.0
H120 H 0.18062 -0.00443 0.19256 0.0
C121 C 0.09929 0.95092 0.18282 0.0
H122 H 0.95001 0.94514 0.16541 0.0
H123 H 1.03441 0.27239 0.22389 0.0
H124 H 0.9172 0.11656 0.24603 0.0
H125 H 0.86574 0.94873 0.23776 0.0
H126 H 0.93165 0.93567 0.20741 0.0
C127 C 1.03223 -0.00884 0.17411 0.0
C128 C 0.06417 0.09366 0.17886 0.0
C129 C 1.02347 0.10043 0.19631 0.0
C130 C 0.05218 0.1975 0.20086 0.0
C131 C 1.01326 0.20118 0.21916 0.0
C132 C 0.94635 0.11217 0.23216 0.0
C133 C 0.91744 0.01768 0.22752 0.0
C134 C 0.95561 0.01135 0.20994 0.0
H135 H 1.00515 0.38745 0.17406 0.0
C136 C 0.0865 0.43145 0.18392 0.0
H137 H 0.23529 0.43608 0.20133 0.0
H138 H 0.14999 0.10941 0.14256 0.0
H139 H 0.26706 0.26526 0.12038 0.0
H140 H 0.31851 0.4331 0.12864 0.0
H141 H 0.25274 0.44616 0.15903 0.0
C142 C 0.15301 0.39061 0.19254 0.0
C143 C 0.12047 0.28816 0.18763 0.0
C144 C 0.16104 0.2814 0.17015 0.0
C145 C 0.13233 0.18432 0.16561 0.0
C146 C 0.17117 0.18064 0.14729 0.0
C147 C 0.23798 0.26965 0.13426 0.0
C148 C 0.26689 0.36415 0.1389 0.0
C149 C 0.22881 0.37048 0.1565 0.0
H150 H 0.51655 0.11235 0.52863 0.0
C151 C 0.50934 0.03911 0.54097 0.0
H152 H 0.42321 0.90737 0.56472 0.0
H153 H 0.26955 0.2262 0.56726 0.0
H154 H 0.4503 0.32679 0.58915 0.0
H155 H 0.5868 0.28311 0.59389 0.0
H156 H 0.54369 0.13929 0.57657 0.0
C157 C 0.43191 -0.01808 0.55305 0.0
C158 C 0.35044 0.01191 0.54955 0.0
C159 C 0.37663 0.09603 0.55998 0.0
C160 C 0.29727 0.12034 0.55759 0.0
C161 C 0.32626 0.20458 0.56832 0.0
C162 C 0.42977 0.26278 0.58106 0.0
C163 C 0.50664 0.23824 0.58371 0.0
C164 C 0.4808 0.1557 0.57348 0.0
H165 H 1.02433 0.958 0.56586 0.0
C166 C 1.03154 0.03143 0.55366 0.0
H167 H 0.11827 0.16422 0.53026 0.0
H168 H 0.27204 0.84517 0.5276 0.0
H169 H 0.09132 0.74447 0.50574 0.0
H170 H 0.95488 0.78842 0.50087 0.0
H171 H 0.99796 0.93253 0.51804 0.0
C172 C 0.1095 0.08945 0.54176 0.0
C173 C 0.19111 0.05972 0.54519 0.0
C174 C 0.16496 0.97563 0.53474 0.0
C175 C 0.2443 0.95127 0.53716 0.0
C176 C 0.21533 0.86688 0.5265 0.0
C177 C 0.11185 0.80861 0.51377 0.0
C178 C 1.03501 0.83329 0.51105 0.0
C179 C 0.06083 0.91599 0.52121 0.0
H180 H 0.07861 0.16478 0.83425 0.0
C181 C 0.08319 0.10358 0.85077 0.0
H182 H 0.1821 0.0571 0.88485 0.0
H183 H 0.51572 0.44288 0.81739 0.0
H184 H 0.43354 0.33163 0.78531 0.0
H185 H 0.2788 0.16604 0.78972 0.0
H186 H 0.20526 0.1104 0.82626 0.0
C187 C 0.17682 0.11669 0.86798 0.0
C188 C 0.2738 0.21549 0.86564 0.0
C189 C 0.3162 0.24752 0.8441 0.0
C190 C 0.40651 0.34304 0.8417 0.0
C191 C 0.44738 0.37168 0.82017 0.0
C192 C 0.40121 0.30834 0.80164 0.0
C193 C 0.31397 0.21515 0.8041 0.0
C194 C 0.27192 0.18455 0.82507 0.0
H195 H 0.64956 0.46104 0.8928 0.0
C196 C 0.64503 0.52158 0.87606 0.0
H197 H 0.54622 0.56452 0.84101 0.0
H198 H 0.21888 0.17494 0.9104 0.0
H199 H 0.303 0.28427 0.94303 0.0
H200 H 0.4541 0.45258 0.93787 0.0
H201 H 0.52307 0.51187 0.90031 0.0
C202 C 0.55172 0.50642 0.85838 0.0
C203 C 0.45559 0.40671 0.86093 0.0
C204 C 0.41364 0.37415 0.88261 0.0
C205 C 0.32423 0.27796 0.8852 0.0
C206 C 0.28591 0.24714 0.90734 0.0
C207 C 0.3333 0.30931 0.92621 0.0
C208 C 0.41851 0.40395 0.92334 0.0
C209 C 0.458 0.43668 0.90176 0.0
H210 H 0.55486 0.01415 0.93838 0.0
C211 C 0.5375 0.93643 0.93904 0.0
H212 H 0.48074 0.78428 0.95958 0.0
H213 H 0.62676 0.8979 0.07122 0.0
H214 H 0.74015 0.82594 0.07738 0.0
H215 H 0.7441 0.78266 0.03958 0.0
H216 H 0.63465 0.81065 0.9955 0.0
C217 C 0.50037 0.86278 0.95868 0.0
C218 C 0.49569 0.88767 0.98126 0.0
C219 C 0.56051 0.87082 1.0069 0.0
C220 C 0.55835 0.89574 1.02867 0.0
C221 C 0.62442 0.87903 0.05405 0.0
C222 C 0.69025 0.83827 0.05784 0.0
C223 C 0.69251 0.81394 0.03656 0.0
C224 C 0.62893 0.83019 1.01134 0.0
H225 H 0.3843 0.79846 0.05769 0.0
C226 C 0.42344 0.87353 0.06304 0.0
H227 H 0.51677 0.03113 0.05107 0.0
H228 H 0.35237 0.91842 0.93532 0.0
H229 H 0.24088 -0.00816 0.92936 0.0
H230 H 0.24574 0.04544 0.96649 0.0
H231 H 0.35944 0.02164 1.01045 0.0
C232 C 0.48121 0.95364 0.0478 0.0
C233 C 0.49137 0.93728 1.02472 0.0
C234 C 0.42792 0.95576 0.99907 0.0
C235 C 0.42831 0.92887 0.97736 0.0
C236 C 0.35868 0.94146 0.9523 0.0
C237 C 0.29367 -0.01704 0.9486 0.0
C238 C 0.29592 0.01249 0.96961 0.0
C239 C 0.36157 -0.00143 0.99466 0.0
H240 H 0.74597 0.08807 0.4528 0.0
C241 C 0.76171 0.14604 0.46254 0.0
H242 H 0.79943 0.30036 0.45808 0.0
H243 H 0.99383 0.4624 0.36218 0.0
H244 H 0.14039 0.55204 0.39623 0.0
H245 H 0.12809 0.51175 0.44171 0.0
H246 H 0.968 0.38274 0.4533 0.0
C247 C 0.78064 0.24075 0.44847 0.0
C248 C 0.7852 0.26872 0.42023 0.0
C249 C 0.87926 0.34513 0.41353 0.0
C250 C 0.88649 0.36844 0.38714 0.0
C251 C 0.98268 0.44282 0.38155 0.0
C252 C 0.06811 0.49445 0.40102 0.0
C253 C 0.06109 0.47191 0.42662 0.0
C254 C 0.96835 0.39781 0.43296 0.0
H255 H 0.83631 0.485 0.32933 0.0
C256 C 0.82337 0.42061 0.32266 0.0
H257 H 0.79528 0.26634 0.33399 0.0
H258 H 0.58753 0.13153 0.42454 0.0
H259 H 0.43872 0.04583 0.3901 0.0
H260 H 0.45231 0.08323 0.34485 0.0
H261 H 0.61497 0.20655 0.33377 0.0
C262 C 0.80758 0.33178 0.33997 0.0
C263 C 0.79924 0.31588 0.36721 0.0
C264 C 0.70407 0.24238 0.37368 0.0
C265 C 0.69664 0.21959 0.4 0.0
C266 C 0.59905 0.14896 0.4053 0.0
C267 C 0.51245 0.09998 0.3856 0.0
C268 C 0.52003 0.12119 0.36011 0.0
C269 C 0.6142 0.19184 0.35407 0.0
H270 H 0.71704 0.85697 0.76435 0.0
C271 C 0.78275 0.84087 0.77652 0.0
H272 H 0.90654 0.82288 0.77605 0.0
H273 H 0.68664 0.74401 0.65599 0.0
H274 H 0.65546 0.57278 0.67949 0.0
H275 H 0.70307 0.5345 0.72829 0.0
H276 H 0.77878 0.66719 0.75387 0.0
C277 C 0.84194 0.84111 0.7643 0.0
C278 C 0.82247 0.86704 0.73454 0.0
C279 C 0.78346 0.79053 0.71967 0.0
C280 C 0.76223 0.81428 0.69137 0.0
C281 C 0.71221 0.73291 0.67734 0.0
C282 C 0.69212 0.6335 0.69062 0.0
C283 C 0.71856 0.61185 0.7181 0.0
C284 C 0.76237 0.68881 0.73254 0.0
H285 H 0.84252 0.87353 0.64367 0.0
C286 C 0.80326 0.92147 0.63369 0.0
H287 H 0.72902 -0.00682 0.63738 0.0
H288 H 0.90342 0.034 0.75659 0.0
H289 H 0.9432 0.20714 0.73366 0.0
H290 H 0.91833 0.25111 0.68548 0.0
H291 H 0.85157 0.12254 0.65966 0.0
C292 C 0.76912 0.94589 0.64791 0.0
C293 C 0.7886 0.91708 0.67783 0.0
C294 C 0.83031 -0.00592 0.69297 0.0
C295 C 0.84608 0.96893 0.72108 0.0
C296 C 0.88805 0.04794 0.73532 0.0
C297 C 0.91233 0.14818 0.72243 0.0
C298 C 0.89805 0.17288 0.69527 0.0
C299 C 0.8586 0.0976 0.68065 0.0
H300 H 1.02312 0.79058 0.96335 0.0
C301 C 0.9499 0.7932 0.95147 0.0
H302 H 0.81223 0.78452 0.95227 0.0
H303 H 0.8161 0.54506 0.06974 0.0
H304 H 0.66176 0.42308 0.04399 0.0
H305 H 0.61877 0.45718 0.99526 0.0
H306 H 0.7311 0.61294 0.972 0.0
C307 C 0.88691 0.78496 0.96397 0.0
C308 C 0.91146 0.7682 0.99387 0.0
C309 C 0.84323 0.67833 1.00749 0.0
C310 C 0.86635 0.66001 0.03582 0.0
C311 C 0.80023 0.56586 0.04848 0.0
C312 C 0.71166 0.49427 0.03389 0.0
C313 C 0.68758 0.51335 1.00646 0.0
C314 C 0.75267 0.60355 0.99334 0.0
H315 H 0.85296 0.68039 0.08894 0.0
C316 C 0.93333 0.69264 0.09712 0.0
H317 H 0.06916 0.72345 0.08994 0.0
H318 H 0.05129 0.95542 0.9747 0.0
H319 H 0.20362 0.07996 1.00028 0.0
H320 H 0.24512 0.04814 0.04891 0.0
H321 H 0.13299 0.89348 0.07228 0.0
C322 C 0.98956 0.71326 0.08086 0.0
C323 C 0.95613 0.73348 0.05081 0.0
C324 C 1.02271 0.8248 0.03703 0.0
C325 C 1.00014 0.84236 1.00878 0.0
C326 C 0.06643 0.93609 0.99599 0.0
C327 C 0.15389 0.00886 1.01043 0.0
C328 C 0.17712 -0.0089 0.03782 0.0
C329 C 0.11221 0.90109 0.05101 0.0
H330 H 0.35207 0.73011 0.2741 0.0
C331 C 0.2683 0.70377 0.26812 0.0
H332 H 0.13609 0.65494 0.28017 0.0
H333 H 0.3021 0.49703 0.40087 0.0
H334 H 0.14786 0.34543 0.38618 0.0
H335 H 0.04993 0.3463 0.339 0.0
H336 H 0.10634 0.49785 0.30617 0.0
C337 C 0.21969 0.68012 0.28629 0.0
C338 C 0.27593 0.68283 0.31513 0.0
C339 C 0.24077 0.59361 0.33424 0.0
C340 C 0.2963 0.59343 0.36161 0.0
C341 C 0.2617 0.50211 0.37998 0.0
C342 C 0.17364 0.41425 0.3718 0.0
C343 C 0.11856 0.41472 0.34523 0.0
C344 C 0.15164 0.50276 0.32658 0.0
H345 H 0.32715 0.6761 0.40932 0.0
C346 C 0.40604 0.6842 0.41617 0.0
H347 H 0.52303 0.6916 0.40447 0.0
H348 H 0.35267 0.87424 0.28519 0.0
H349 H 0.51007 0.02349 0.29984 0.0
H350 H 0.61448 0.0178 0.34652 0.0
H351 H 0.55859 0.86485 0.37909 0.0
C352 C 0.44497 0.68417 0.39863 0.0
C353 C 0.38619 0.68277 0.37 0.0
C354 C 0.42111 0.77197 0.35099 0.0
C355 C 0.3643 0.77317 0.32371 0.0
C356 C 0.39645 0.86643 0.30573 0.0
C357 C 0.48597 0.95336 0.31396 0.0
C358 C 0.54434 0.95044 0.34027 0.0
C359 C 0.5117 0.86172 0.35874 0.0
H360 H 0.96787 0.54702 0.76917 0.0
C361 C 0.04625 0.59926 0.77876 0.0
H362 H 0.20202 0.68763 0.77569 0.0
H363 H 0.09559 0.37328 0.70665 0.0
H364 H 0.19257 0.31197 0.74875 0.0
H365 H 0.24727 0.38198 0.78863 0.0
H366 H 0.20761 0.51486 0.78651 0.0
C367 C 0.12248 0.63427 0.76749 0.0
C368 C 0.09811 0.5999 0.74293 0.0
C369 C 0.12467 0.52452 0.74429 0.0
C370 C 0.09196 0.48369 0.72132 0.0
C371 C 0.11821 0.40709 0.72341 0.0
C372 C 0.17394 0.37117 0.74748 0.0
C373 C 0.20495 0.41057 0.76992 0.0
C374 C 0.1813 0.48665 0.76845 0.0
H375 H 0.13155 0.53831 0.66541 0.0
C376 C 0.04867 0.48748 0.65924 0.0
H377 H 0.90405 0.4252 0.66734 0.0
H378 H 0.04587 0.75292 0.73301 0.0
H379 H 0.94905 0.81486 0.69098 0.0
H380 H 0.88607 0.73932 0.65145 0.0
H381 H 0.92285 0.60445 0.65356 0.0
C382 C 0.98803 0.46922 0.67364 0.0
C383 C 1.03165 0.5179 0.69715 0.0
C384 C 1.00792 0.59563 0.69566 0.0
C385 C 0.0423 0.6376 0.71851 0.0
C386 C 1.01991 0.71705 0.71634 0.0
C387 C 0.96449 0.75342 0.69232 0.0
C388 C 0.92943 0.71127 0.67007 0.0
C389 C 0.95079 0.63347 0.67158 0.0
loop_
_geom_bond_atom_site_label_1
_geom_bond_atom_site_label_2
_geom_bond_distance
_geom_bond_site_symmetry_2
_ccdc_geom_bond_type
Pr0 C2 2.880 . S
Pr0 O20 2.562 . S
Pr0 O21 2.490 . S
Pr0 O22 2.695 1_655 S
Pr0 O23 2.512 . S
Pr0 O25 2.437 1_655 S
Pr0 O28 2.436 . S
Pr0 O30 2.438 . S
Pr1 C11 2.880 . S
Pr1 O22 2.436 . S
Pr1 O24 2.438 . S
Pr1 O26 2.562 . S
Pr1 O27 2.490 . S
Pr1 O28 2.695 1_455 S
Pr1 O29 2.512 . S
Pr1 O31 2.437 1_455 S
C2 Pr0 2.880 . S
C2 C3 1.491 . S
C2 O20 1.254 . S
C2 O21 1.225 . S
C3 C2 1.491 . S
C3 C4 1.392 . S
C3 C8 1.356 . S
C4 C3 1.392 . S
C4 C5 1.368 . S
C4 H32 0.929 . S
C5 C4 1.368 . S
C5 C6 1.386 . S
C5 H33 0.929 . S
C6 C5 1.386 . S
C6 C7 1.373 . S
C7 C6 1.373 . S
C7 C8 1.409 . S
C7 H34 0.931 . S
C8 C3 1.356 . S
C8 C7 1.409 . S
C8 H35 0.930 . S
C9 O22 1.270 1_655 S
C9 O23 1.248 . S
C10 O24 1.267 . S
C10 O25 1.278 . S
C11 Pr1 2.880 . S
C11 C12 1.491 . S
C11 O26 1.254 . S
C11 O27 1.225 . S
C12 C11 1.491 . S
C12 C13 1.392 . S
C12 C17 1.356 . S
C13 C12 1.392 . S
C13 C14 1.368 . S
C13 H36 0.929 . S
C14 C13 1.368 . S
C14 C15 1.386 . S
C14 H37 0.929 . S
C15 C14 1.386 . S
C15 C16 1.377 . S
C16 C15 1.377 . S
C16 C17 1.409 . S
C16 H38 0.927 1_565 S
C17 C12 1.356 . S
C17 C16 1.409 . S
C17 H39 0.930 . S
C18 O28 1.270 1_455 S
C18 O29 1.248 . S
C19 O30 1.267 . S
C19 O31 1.278 . S
O20 Pr0 2.562 . S
O20 C2 1.254 . S
O21 Pr0 2.490 . S
O21 C2 1.225 . S
O22 Pr0 2.695 1_455 S
O22 Pr1 2.436 . S
O22 C9 1.270 1_455 S
O23 Pr0 2.512 . S
O23 C9 1.248 . S
O24 Pr1 2.438 . S
O24 C10 1.267 . S
O25 Pr0 2.437 1_455 S
O25 C10 1.278 . S
O26 Pr1 2.562 . S
O26 C11 1.254 . S
O27 Pr1 2.490 . S
O27 C11 1.225 . S
O28 Pr0 2.436 . S
O28 Pr1 2.695 1_655 S
O28 C18 1.270 1_655 S
O29 Pr1 2.512 . S
O29 C18 1.248 . S
O30 Pr0 2.438 . S
O30 C19 1.267 . S
O31 Pr1 2.437 1_655 S
O31 C19 1.278 . S
H32 C4 0.929 . S
H33 C5 0.929 . S
H34 C7 0.931 . S
H35 C8 0.930 . S
H36 C13 0.929 . S
H37 C14 0.929 . S
H38 C16 0.927 1_545 S
H39 C17 0.930 . S
Pr40 C42 2.880 . S
Pr40 O60 2.562 . S
Pr40 O61 2.490 . S
Pr40 O62 2.695 1_545 S
Pr40 O63 2.512 . S
Pr40 O65 2.437 . S
Pr40 O68 2.436 . S
Pr40 O70 2.438 . S
Pr41 C51 2.880 . S
Pr41 O62 2.436 . S
Pr41 O64 2.438 . S
Pr41 O66 2.562 . S
Pr41 O67 2.490 . S
Pr41 O68 2.695 1_565 S
Pr41 O69 2.512 . S
Pr41 O71 2.437 1_565 S
C42 Pr40 2.880 . S
C42 C43 1.491 . S
C42 O60 1.254 . S
C42 O61 1.225 . S
C43 C42 1.491 . S
C43 C44 1.392 1_655 S
C43 C48 1.356 . S
C44 C43 1.392 1_455 S
C44 C45 1.368 . S
C44 H72 0.929 . S
C45 C44 1.368 . S
C45 C46 1.386 1_455 S
C45 H73 0.929 . S
C46 C45 1.386 1_655 S
C46 C47 1.373 . S
C47 C46 1.373 . S
C47 C48 1.409 . S
C47 H74 0.931 . S
C48 C43 1.356 . S
C48 C47 1.409 . S
C48 H75 0.930 . S
C49 O62 1.270 1_545 S
C49 O63 1.248 . S
C50 O64 1.267 . S
C50 O65 1.278 1_565 S
C51 Pr41 2.880 . S
C51 C52 1.491 . S
C51 O66 1.254 . S
C51 O67 1.225 . S
C52 C51 1.491 . S
C52 C53 1.392 . S
C52 C57 1.356 . S
C53 C52 1.392 . S
C53 C54 1.368 . S
C53 H76 0.929 . S
C54 C53 1.368 . S
C54 C55 1.386 . S
C54 H77 0.929 . S
C55 C54 1.386 . S
C55 C56 1.373 . S
C56 C55 1.373 . S
C56 C57 1.409 . S
C56 H78 0.931 . S
C57 C52 1.356 . S
C57 C56 1.409 . S
C57 H79 0.930 . S
C58 O68 1.270 1_565 S
C58 O69 1.248 . S
C59 O70 1.267 . S
C59 O71 1.278 . S
O60 Pr40 2.562 . S
O60 C42 1.254 . S
O61 Pr40 2.490 . S
O61 C42 1.225 . S
O62 Pr40 2.695 1_565 S
O62 Pr41 2.436 . S
O62 C49 1.270 1_565 S
O63 Pr40 2.512 . S
O63 C49 1.248 . S
O64 Pr41 2.438 . S
O64 C50 1.267 . S
O65 Pr40 2.437 . S
O65 C50 1.278 1_545 S
O66 Pr41 2.562 . S
O66 C51 1.254 . S
O67 Pr41 2.490 . S
O67 C51 1.225 . S
O68 Pr40 2.436 . S
O68 Pr41 2.695 1_545 S
O68 C58 1.270 1_545 S
O69 Pr41 2.512 . S
O69 C58 1.248 . S
O70 Pr40 2.438 . S
O70 C59 1.267 . S
O71 Pr41 2.437 1_545 S
O71 C59 1.278 . S
H72 C44 0.929 . S
H73 C45 0.929 . S
H74 C47 0.931 . S
H75 C48 0.930 . S
H76 C53 0.929 . S
H77 C54 0.929 . S
H78 C56 0.931 . S
H79 C57 0.930 . S
Pr80 C82 2.880 1_565 S
Pr80 O100 2.562 . S
Pr80 O101 2.490 1_565 S
Pr80 O102 2.696 . S
Pr80 O103 2.512 1_565 S
Pr80 O105 2.437 . S
Pr80 O108 2.436 . S
Pr80 O110 2.438 . S
Pr81 C91 2.880 . S
Pr81 O102 2.434 . S
Pr81 O104 2.438 . S
Pr81 O106 2.562 1_655 S
Pr81 O107 2.490 . S
Pr81 O108 2.695 . S
Pr81 O109 2.512 . S
Pr81 O111 2.437 . S
C82 Pr80 2.880 1_545 S
C82 C83 1.491 . S
C82 O100 1.254 1_545 S
C82 O101 1.225 . S
C83 C82 1.491 . S
C83 C84 1.392 . S
C83 C88 1.356 1_545 S
C84 C83 1.392 . S
C84 C85 1.368 . S
C84 H112 0.929 . S
C85 C84 1.368 . S
C85 C86 1.386 . S
C85 H113 0.929 . S
C86 C85 1.386 . S
C86 C87 1.373 1_545 S
C87 C86 1.373 1_565 S
C87 C88 1.409 . S
C87 H114 0.931 . S
C88 C83 1.356 1_565 S
C88 C87 1.409 . S
C88 H115 0.930 . S
C89 O102 1.271 1_445 S
C89 O103 1.248 1_455 S
C90 O104 1.267 . S
C90 O105 1.278 . S
C91 Pr81 2.880 . S
C91 C92 1.491 1_655 S
C91 O106 1.254 1_655 S
C91 O107 1.225 . S
C92 C91 1.491 1_455 S
C92 C93 1.392 1_455 S
C92 C97 1.356 . S
C93 C92 1.392 1_655 S
C93 C94 1.368 1_655 S
C93 H116 0.929 . S
C94 C93 1.368 1_455 S
C94 C95 1.386 . S
C94 H117 0.929 1_455 S
C95 C94 1.386 . S
C95 C96 1.373 . S
C96 C95 1.373 . S
C96 C97 1.409 . S
C96 H118 0.931 . S
C97 C92 1.356 . S
C97 C96 1.409 . S
C97 H119 0.930 . S
C98 O108 1.270 . S
C98 O109 1.248 . S
C99 O110 1.267 . S
C99 O111 1.278 . S
O100 Pr80 2.562 . S
O100 C82 1.254 1_565 S
O101 Pr80 2.490 1_545 S
O101 C82 1.225 . S
O102 Pr80 2.696 . S
O102 Pr81 2.434 . S
O102 C89 1.271 1_665 S
O103 Pr80 2.512 1_545 S
O103 C89 1.248 1_655 S
O104 Pr81 2.438 . S
O104 C90 1.267 . S
O105 Pr80 2.437 . S
O105 C90 1.278 . S
O106 Pr81 2.562 1_455 S
O106 C91 1.254 1_455 S
O107 Pr81 2.490 . S
O107 C91 1.225 . S
O108 Pr80 2.436 . S
O108 Pr81 2.695 . S
O108 C98 1.270 . S
O109 Pr81 2.512 . S
O109 C98 1.248 . S
O110 Pr80 2.438 . S
O110 C99 1.267 . S
O111 Pr81 2.437 . S
O111 C99 1.278 . S
H112 C84 0.929 . S
H113 C85 0.929 . S
H114 C87 0.931 . S
H115 C88 0.930 . S
H116 C93 0.929 . S
H117 C94 0.929 1_655 S
H118 C96 0.931 . S
H119 C97 0.930 . S
H120 C121 0.951 . S
C121 H120 0.951 . S
C121 C127 1.265 1_465 S
H122 C127 0.950 1_565 S
H123 C131 0.949 . S
H124 C132 0.950 . S
H125 C133 0.951 . S
H126 C134 0.942 1_565 S
C127 C121 1.265 1_645 S
C127 H122 0.950 1_545 S
C127 C128 1.478 . S
C128 C127 1.478 . S
C128 C129 1.397 . S
C128 C145 1.394 1_655 S
C129 C128 1.397 . S
C129 C130 1.438 . S
C129 C134 1.433 . S
C130 C129 1.438 . S
C130 C131 1.428 . S
C130 C143 1.394 1_655 S
C131 H123 0.949 . S
C131 C130 1.428 . S
C131 C132 1.345 . S
C132 H124 0.950 . S
C132 C131 1.345 . S
C132 C133 1.424 1_545 S
C133 H125 0.951 . S
C133 C132 1.424 1_565 S
C133 C134 1.352 1_565 S
C134 H126 0.942 1_545 S
C134 C129 1.433 . S
C134 C133 1.352 1_545 S
H135 C136 0.951 . S
C136 H135 0.951 . S
C136 C142 1.265 1_655 S
H137 C142 0.950 . S
H138 C146 0.949 . S
H139 C147 0.950 . S
H140 C148 0.951 . S
H141 C149 0.951 . S
C142 C136 1.265 1_455 S
C142 H137 0.950 . S
C142 C143 1.478 . S
C143 C130 1.394 1_455 S
C143 C142 1.478 . S
C143 C144 1.397 . S
C144 C143 1.397 . S
C144 C145 1.438 . S
C144 C149 1.429 . S
C145 C128 1.394 1_455 S
C145 C144 1.438 . S
C145 C146 1.428 . S
C146 H138 0.949 . S
C146 C145 1.428 . S
C146 C147 1.345 . S
C147 H139 0.950 . S
C147 C146 1.345 . S
C147 C148 1.424 . S
C148 H140 0.951 . S
C148 C147 1.424 . S
C148 C149 1.347 . S
C149 H141 0.951 . S
C149 C144 1.429 . S
C149 C148 1.347 . S
H150 C151 0.951 1_565 S
C151 H150 0.951 1_545 S
C151 C157 1.265 . S
H152 C157 0.950 . S
H153 C161 0.949 . S
H154 C162 0.950 . S
H155 C163 0.951 . S
H156 C164 0.951 . S
C157 C151 1.265 . S
C157 H152 0.950 . S
C157 C158 1.478 . S
C158 C157 1.478 . S
C158 C159 1.397 . S
C158 C175 1.394 1_545 S
C159 C158 1.397 . S
C159 C160 1.438 . S
C159 C164 1.429 . S
C160 C159 1.438 . S
C160 C161 1.428 . S
C160 C173 1.394 . S
C161 H153 0.949 . S
C161 C160 1.428 . S
C161 C162 1.345 . S
C162 H154 0.950 . S
C162 C161 1.345 . S
C162 C163 1.424 . S
C163 H155 0.951 . S
C163 C162 1.424 . S
C163 C164 1.347 . S
C164 H156 0.951 . S
C164 C159 1.429 . S
C164 C163 1.347 . S
H165 C166 0.951 . S
C166 H165 0.951 . S
C166 C172 1.259 1_545 S
H167 C172 0.950 1_655 S
H168 C176 0.949 . S
H169 C177 0.950 . S
H170 C178 0.951 1_655 S
H171 C179 0.951 1_655 S
C172 C166 1.259 1_565 S
C172 H167 0.950 1_455 S
C172 C173 1.484 1_565 S
C173 C160 1.394 . S
C173 C172 1.484 1_545 S
C173 C174 1.397 1_545 S
C174 C173 1.397 1_565 S
C174 C175 1.438 . S
C174 C179 1.429 . S
C175 C158 1.394 1_565 S
C175 C174 1.438 . S
C175 C176 1.428 . S
C176 H168 0.949 . S
C176 C175 1.428 . S
C176 C177 1.345 . S
C177 H169 0.950 . S
C177 C176 1.345 . S
C177 C178 1.424 . S
C178 H170 0.951 1_455 S
C178 C177 1.424 . S
C178 C179 1.347 . S
C179 H171 0.951 1_455 S
C179 C174 1.429 . S
C179 C178 1.347 . S
H180 C181 0.951 . S
C181 H180 0.951 . S
C181 C187 1.265 . S
H182 C187 0.950 . S
H183 C191 0.949 . S
H184 C192 0.950 . S
H185 C193 0.951 . S
H186 C194 0.951 . S
C187 C181 1.265 . S
C187 H182 0.950 . S
C187 C188 1.478 . S
C188 C187 1.478 . S
C188 C189 1.397 . S
C188 C205 1.394 . S
C189 C188 1.397 . S
C189 C190 1.438 . S
C189 C194 1.429 . S
C190 C189 1.438 . S
C190 C191 1.428 . S
C190 C203 1.394 . S
C191 H183 0.949 . S
C191 C190 1.428 . S
C191 C192 1.345 . S
C192 H184 0.950 . S
C192 C191 1.345 . S
C192 C193 1.424 . S
C193 H185 0.951 . S
C193 C192 1.424 . S
C193 C194 1.347 . S
C194 H186 0.951 . S
C194 C189 1.429 . S
C194 C193 1.347 . S
H195 C196 0.951 . S
C196 H195 0.951 . S
C196 C202 1.265 . S
H197 C202 0.950 . S
H198 C206 0.949 . S
H199 C207 0.950 . S
H200 C208 0.951 . S
H201 C209 0.951 . S
C202 C196 1.265 . S
C202 H197 0.950 . S
C202 C203 1.478 . S
C203 C190 1.394 . S
C203 C202 1.478 . S
C203 C204 1.397 . S
C204 C203 1.397 . S
C204 C205 1.438 . S
C204 C209 1.429 . S
C205 C188 1.394 . S
C205 C204 1.438 . S
C205 C206 1.428 . S
C206 H198 0.949 . S
C206 C205 1.428 . S
C206 C207 1.345 . S
C207 H199 0.950 . S
C207 C206 1.345 . S
C207 C208 1.424 . S
C208 H200 0.951 . S
C208 C207 1.424 . S
C208 C209 1.347 . S
C209 H201 0.951 . S
C209 C204 1.429 . S
C209 C208 1.347 . S
H210 C211 0.951 . S
C211 H210 0.951 . S
C211 C217 1.265 . S
H212 C217 0.950 1_565 S
H213 C221 0.949 . S
H214 C222 0.950 . S
H215 C223 0.951 . S
H216 C224 0.951 . S
C217 C211 1.265 . S
C217 H212 0.950 1_545 S
C217 C218 1.478 . S
C218 C217 1.478 . S
C218 C219 1.397 1_545 S
C218 C235 1.394 . S
C219 C218 1.397 1_565 S
C219 C220 1.438 . S
C219 C224 1.429 . S
C220 C219 1.438 . S
C220 C221 1.428 1_556 S
C220 C233 1.394 1_565 S
C221 H213 0.949 . S
C221 C220 1.428 1_554 S
C221 C222 1.345 . S
C222 H214 0.950 . S
C222 C221 1.345 . S
C222 C223 1.424 . S
C223 H215 0.951 . S
C223 C222 1.424 . S
C223 C224 1.347 1_554 S
C224 H216 0.951 . S
C224 C219 1.429 . S
C224 C223 1.347 1_556 S
H225 C226 0.951 . S
C226 H225 0.951 . S
C226 C232 1.265 1_565 S
H227 C232 0.950 . S
H228 C236 0.949 . S
H229 C237 0.950 . S
H230 C238 0.951 . S
H231 C239 0.951 . S
C232 C226 1.265 1_545 S
C232 H227 0.950 . S
C232 C233 1.478 1_554 S
C233 C220 1.394 1_545 S
C233 C232 1.478 1_556 S
C233 C234 1.397 . S
C234 C233 1.397 . S
C234 C235 1.438 . S
C234 C239 1.429 . S
C235 C218 1.394 . S
C235 C234 1.438 . S
C235 C236 1.428 . S
C236 H228 0.949 . S
C236 C235 1.428 . S
C236 C237 1.345 . S
C237 H229 0.950 . S
C237 C236 1.345 . S
C237 C238 1.424 . S
C238 H230 0.951 . S
C238 C237 1.424 . S
C238 C239 1.347 . S
C239 H231 0.951 . S
C239 C234 1.429 . S
C239 C238 1.347 . S
H240 C241 0.951 . S
C241 H240 0.951 . S
C241 C247 1.265 . S
H242 C247 0.950 . S
H243 C251 0.949 . S
H244 C252 0.950 . S
H245 C253 0.951 . S
H246 C254 0.951 . S
C247 C241 1.265 . S
C247 H242 0.950 . S
C247 C248 1.478 . S
C248 C247 1.478 . S
C248 C249 1.397 . S
C248 C265 1.394 . S
C249 C248 1.397 . S
C249 C250 1.438 . S
C249 C254 1.429 . S
C250 C249 1.438 . S
C250 C251 1.428 . S
C250 C263 1.394 . S
C251 H243 0.949 . S
C251 C250 1.428 . S
C251 C252 1.345 . S
C252 H244 0.950 . S
C252 C251 1.345 . S
C252 C253 1.424 . S
C253 H245 0.951 . S
C253 C252 1.424 . S
C253 C254 1.347 . S
C254 H246 0.951 . S
C254 C249 1.429 . S
C254 C253 1.347 . S
H255 C256 0.951 . S
C256 H255 0.951 . S
C256 C262 1.265 . S
H257 C262 0.950 . S
H258 C266 0.949 . S
H259 C267 0.950 . S
H260 C268 0.951 1_565 S
H261 C269 0.951 . S
C262 C256 1.265 . S
C262 H257 0.950 . S
C262 C263 1.478 . S
C263 C250 1.394 . S
C263 C262 1.478 . S
C263 C264 1.397 . S
C264 C263 1.397 . S
C264 C265 1.438 . S
C264 C269 1.429 . S
C265 C248 1.394 . S
C265 C264 1.438 . S
C265 C266 1.428 . S
C266 H258 0.949 . S
C266 C265 1.428 . S
C266 C267 1.345 1_545 S
C267 H259 0.950 . S
C267 C266 1.345 1_565 S
C267 C268 1.424 1_565 S
C268 H260 0.951 1_545 S
C268 C267 1.424 1_545 S
C268 C269 1.347 . S
C269 H261 0.951 . S
C269 C264 1.429 . S
C269 C268 1.347 . S
H270 C271 0.951 . S
C271 H270 0.951 . S
C271 C277 1.265 . S
H272 C277 0.950 . S
H273 C281 0.949 . S
H274 C282 0.950 . S
H275 C283 0.951 . S
H276 C284 0.951 . S
C277 C271 1.265 . S
C277 H272 0.950 . S
C277 C278 1.478 . S
C278 C277 1.478 . S
C278 C279 1.397 . S
C278 C295 1.394 1_565 S
C279 C278 1.397 . S
C279 C280 1.438 . S
C279 C284 1.429 . S
C280 C279 1.438 . S
C280 C281 1.428 . S
C280 C293 1.394 . S
C281 H273 0.949 . S
C281 C280 1.428 . S
C281 C282 1.345 . S
C282 H274 0.950 . S
C282 C281 1.345 . S
C282 C283 1.424 . S
C283 H275 0.951 . S
C283 C282 1.424 . S
C283 C284 1.347 . S
C284 H276 0.951 . S
C284 C279 1.429 . S
C284 C283 1.347 . S
H285 C286 0.951 . S
C286 H285 0.951 . S
C286 C292 1.265 . S
H287 C292 0.950 . S
H288 C296 0.949 . S
H289 C297 0.950 . S
H290 C298 0.951 . S
H291 C299 0.951 . S
C292 C286 1.265 . S
C292 H287 0.950 . S
C292 C293 1.478 . S
C293 C280 1.394 . S
C293 C292 1.478 . S
C293 C294 1.397 1_565 S
C294 C293 1.397 1_545 S
C294 C295 1.438 . S
C294 C299 1.429 . S
C295 C278 1.394 1_545 S
C295 C294 1.438 . S
C295 C296 1.428 . S
C296 H288 0.949 . S
C296 C295 1.428 . S
C296 C297 1.345 . S
C297 H289 0.950 . S
C297 C296 1.345 . S
C297 C298 1.424 . S
C298 H290 0.951 . S
C298 C297 1.424 . S
C298 C299 1.347 . S
C299 H291 0.951 . S
C299 C294 1.429 . S
C299 C298 1.347 . S
H300 C301 0.951 . S
C301 H300 0.951 . S
C301 C307 1.265 . S
H302 C307 0.950 . S
H303 C311 0.949 . S
H304 C312 0.950 . S
H305 C313 0.951 . S
H306 C314 0.951 . S
C307 C301 1.265 . S
C307 H302 0.950 . S
C307 C308 1.478 . S
C308 C307 1.478 . S
C308 C309 1.397 . S
C308 C325 1.394 . S
C309 C308 1.397 . S
C309 C310 1.396 1_556 S
C309 C314 1.429 . S
C310 C309 1.396 1_554 S
C310 C311 1.446 . S
C310 C323 1.416 . S
C311 H303 0.949 . S
C311 C310 1.446 . S
C311 C312 1.345 1_554 S
C312 H304 0.950 . S
C312 C311 1.345 1_556 S
C312 C313 1.424 . S
C313 H305 0.951 . S
C313 C312 1.424 . S
C313 C314 1.347 . S
C314 H306 0.951 . S
C314 C309 1.429 . S
C314 C313 1.347 . S
H315 C316 0.951 . S
C316 H315 0.951 . S
C316 C322 1.265 . S
H317 C322 0.950 . S
H318 C326 0.949 . S
H319 C327 0.950 1_545 S
H320 C328 0.951 . S
H321 C329 0.951 . S
C322 C316 1.265 . S
C322 H317 0.950 . S
C322 C323 1.478 . S
C323 C310 1.416 . S
C323 C322 1.478 . S
C323 C324 1.397 . S
C324 C323 1.397 . S
C324 C325 1.438 1_554 S
C324 C329 1.429 1_655 S
C325 C308 1.394 . S
C325 C324 1.438 1_556 S
C325 C326 1.428 1_655 S
C326 H318 0.949 . S
C326 C325 1.428 1_455 S
C326 C327 1.345 . S
C327 H319 0.950 1_565 S
C327 C326 1.345 . S
C327 C328 1.424 1_556 S
C328 H320 0.951 . S
C328 C327 1.424 1_554 S
C328 C329 1.347 . S
C329 H321 0.951 . S
C329 C324 1.429 1_455 S
C329 C328 1.347 . S
H330 C331 0.951 . S
C331 H330 0.951 . S
C331 C337 1.265 . S
H332 C337 0.950 . S
H333 C341 0.949 . S
H334 C342 0.950 . S
H335 C343 0.951 1_655 S
H336 C344 0.951 . S
C337 C331 1.265 . S
C337 H332 0.950 . S
C337 C338 1.478 . S
C338 C337 1.478 . S
C338 C339 1.397 . S
C338 C355 1.394 . S
C339 C338 1.397 . S
C339 C340 1.438 . S
C339 C344 1.429 . S
C340 C339 1.438 . S
C340 C341 1.428 . S
C340 C353 1.394 . S
C341 H333 0.949 . S
C341 C340 1.428 . S
C341 C342 1.345 . S
C342 H334 0.950 . S
C342 C341 1.345 . S
C342 C343 1.424 . S
C343 H335 0.951 1_455 S
C343 C342 1.424 . S
C343 C344 1.347 . S
C344 H336 0.951 . S
C344 C339 1.429 . S
C344 C343 1.347 . S
H345 C346 0.951 . S
C346 H345 0.951 . S
C346 C352 1.265 . S
H347 C352 0.950 . S
H348 C356 0.949 . S
H349 C357 0.950 . S
H350 C358 0.951 . S
H351 C359 0.951 . S
C352 C346 1.265 . S
C352 H347 0.950 . S
C352 C353 1.478 . S
C353 C340 1.394 . S
C353 C352 1.478 . S
C353 C354 1.397 . S
C354 C353 1.397 . S
C354 C355 1.438 . S
C354 C359 1.429 . S
C355 C338 1.394 . S
C355 C354 1.438 . S
C355 C356 1.428 . S
C356 H348 0.949 . S
C356 C355 1.428 . S
C356 C357 1.345 . S
C357 H349 0.950 . S
C357 C356 1.345 . S
C357 C358 1.424 . S
C358 H350 0.951 . S
C358 C357 1.424 . S
C358 C359 1.347 . S
C359 H351 0.951 . S
C359 C354 1.429 . S
C359 C358 1.347 . S
H360 C361 0.951 . S
C361 H360 0.951 . S
C361 C367 1.265 . S
H362 C367 0.950 . S
H363 C371 0.949 . S
H364 C372 0.950 . S
H365 C373 0.951 . S
H366 C374 0.951 . S
C367 C361 1.265 . S
C367 H362 0.950 . S
C367 C368 1.478 . S
C368 C367 1.478 . S
C368 C369 1.397 . S
C368 C385 1.394 1_455 S
C369 C368 1.397 . S
C369 C370 1.438 . S
C369 C374 1.429 . S
C370 C369 1.438 . S
C370 C371 1.428 . S
C370 C383 1.394 . S
C371 H363 0.949 . S
C371 C370 1.428 . S
C371 C372 1.345 . S
C372 H364 0.950 . S
C372 C371 1.345 . S
C372 C373 1.424 . S
C373 H365 0.951 . S
C373 C372 1.424 . S
C373 C374 1.347 . S
C374 H366 0.951 . S
C374 C369 1.429 . S
C374 C373 1.347 . S
H375 C376 0.951 . S
C376 H375 0.951 . S
C376 C382 1.265 1_455 S
H377 C382 0.950 . S
H378 C386 0.949 . S
H379 C387 0.950 . S
H380 C388 0.951 . S
H381 C389 0.951 . S
C382 C376 1.265 1_655 S
C382 H377 0.950 . S
C382 C383 1.478 1_655 S
C383 C370 1.394 . S
C383 C382 1.478 1_455 S
C383 C384 1.397 1_455 S
C384 C383 1.397 1_655 S
C384 C385 1.438 . S
C384 C389 1.429 . S
C385 C368 1.394 1_655 S
C385 C384 1.438 . S
C385 C386 1.428 . S
C386 H378 0.949 . S
C386 C385 1.428 . S
C386 C387 1.345 . S
C387 H379 0.950 . S
C387 C386 1.345 . S
C387 C388 1.424 . S
C388 H380 0.951 . S
C388 C387 1.424 . S
C388 C389 1.347 . S
C389 H381 0.951 . S
C389 C384 1.429 . S
C389 C388 1.347 . S
C121 C9 1.531 1_455 S
C136 C18 1.531 1_655 S
C151 C58 1.594 1_545 S
C166 C49 1.594 1_455 S
C181 C89 1.267 . S
C196 C98 1.267 . S
C211 C86 1.007 . S
C226 C15 0.943 . S
C241 C59 1.926 . S
C256 C6 1.888 . S
C271 C99 2.395 . S
C286 C50 2.388 . S
C301 C90 2.329 . S
C316 C19 2.297 . S
C331 C10 1.701 . S
C346 C55 1.581 . S
C361 C95 0.877 . S
C376 C46 0.966 1_455 S
