# Generated by pormake.
# Topology uma, (4)-cn, num edge types: 1
# Building blocks:
#     Node 0, Type 0, BuildingBlock: MUDLON_clean_sbu_0, # of connection points: 4
#     Node 1, Type 0, BuildingBlock: MUDLON_clean_sbu_0, # of connection points: 4
#     Node 2, Type 0, BuildingBlock: MUDLON_clean_sbu_0, # of connection points: 4
#     Node 3, Type 0, BuildingBlock: MUDLON_clean_sbu_0, # of connection points: 4
#     Node 4, Type 0, BuildingBlock: MUDLON_clean_sbu_0, # of connection points: 4
#     Node 5, Type 0, BuildingBlock: MUDLON_clean_sbu_0, # of connection points: 4
#     Node 6, Type 0, BuildingBlock: MUDLON_clean_sbu_0, # of connection points: 4
#     Node 7, Type 0, BuildingBlock: MUDLON_clean_sbu_0, # of connection points: 4
#     Node 8, Type 0, BuildingBlock: MUDLON_clean_sbu_0, # of connection points: 4
#     Node 9, Type 0, BuildingBlock: MUDLON_clean_sbu_0, # of connection points: 4
#     Node 10, Type 0, BuildingBlock: MUDLON_clean_sbu_0, # of connection points: 4
#     Node 11, Type 0, BuildingBlock: MUDLON_clean_sbu_0, # of connection points: 4
#     Node 12, Type 0, BuildingBlock: MUDLON_clean_sbu_0, # of connection points: 4
#     Node 13, Type 0, BuildingBlock: MUDLON_clean_sbu_0, # of connection points: 4
#     Node 14, Type 0, BuildingBlock: MUDLON_clean_sbu_0, # of connection points: 4
#     Node 15, Type 0, BuildingBlock: MUDLON_clean_sbu_0, # of connection points: 4
#     Node 16, Type 0, BuildingBlock: MUDLON_clean_sbu_0, # of connection points: 4
#     Node 17, Type 0, BuildingBlock: MUDLON_clean_sbu_0, # of connection points: 4
#     Node 18, Type 0, BuildingBlock: MUDLON_clean_sbu_0, # of connection points: 4
#     Node 19, Type 0, BuildingBlock: MUDLON_clean_sbu_0, # of connection points: 4
#     Node 20, Type 0, BuildingBlock: MUDLON_clean_sbu_0, # of connection points: 4
#     Node 21, Type 0, BuildingBlock: MUDLON_clean_sbu_0, # of connection points: 4
#     Node 22, Type 0, BuildingBlock: MUDLON_clean_sbu_0, # of connection points: 4
#     Node 23, Type 0, BuildingBlock: MUDLON_clean_sbu_0, # of connection points: 4
#     Node 24, Type 0, BuildingBlock: MUDLON_clean_sbu_0, # of connection points: 4
#     Node 25, Type 0, BuildingBlock: MUDLON_clean_sbu_0, # of connection points: 4
#     Node 26, Type 0, BuildingBlock: MUDLON_clean_sbu_0, # of connection points: 4
#     Node 27, Type 0, BuildingBlock: MUDLON_clean_sbu_0, # of connection points: 4
#     Node 28, Type 0, BuildingBlock: MUDLON_clean_sbu_0, # of connection points: 4
#     Node 29, Type 0, BuildingBlock: MUDLON_clean_sbu_0, # of connection points: 4
#     Node 30, Type 0, BuildingBlock: MUDLON_clean_sbu_0, # of connection points: 4
#     Node 31, Type 0, BuildingBlock: MUDLON_clean_sbu_0, # of connection points: 4
#     Node 32, Type 0, BuildingBlock: MUDLON_clean_sbu_0, # of connection points: 4
#     Node 33, Type 0, BuildingBlock: MUDLON_clean_sbu_0, # of connection points: 4
#     Node 34, Type 0, BuildingBlock: MUDLON_clean_sbu_0, # of connection points: 4
#     Node 35, Type 0, BuildingBlock: MUDLON_clean_sbu_0, # of connection points: 4
#     Edge 36, Type (0, 0), BuildingBlock: OJICUG_clean_linker_0, # of connection points: 2
#     Edge 37, Type (0, 0), BuildingBlock: OJICUG_clean_linker_0, # of connection points: 2
#     Edge 38, Type (0, 0), BuildingBlock: OJICUG_clean_linker_0, # of connection points: 2
#     Edge 39, Type (0, 0), BuildingBlock: OJICUG_clean_linker_0, # of connection points: 2
#     Edge 40, Type (0, 0), BuildingBlock: OJICUG_clean_linker_0, # of connection points: 2
#     Edge 41, Type (0, 0), BuildingBlock: OJICUG_clean_linker_0, # of connection points: 2
#     Edge 42, Type (0, 0), BuildingBlock: OJICUG_clean_linker_0, # of connection points: 2
#     Edge 43, Type (0, 0), BuildingBlock: OJICUG_clean_linker_0, # of connection points: 2
#     Edge 44, Type (0, 0), BuildingBlock: OJICUG_clean_linker_0, # of connection points: 2
#     Edge 45, Type (0, 0), BuildingBlock: OJICUG_clean_linker_0, # of connection points: 2
#     Edge 46, Type (0, 0), BuildingBlock: OJICUG_clean_linker_0, # of connection points: 2
#     Edge 47, Type (0, 0), BuildingBlock: OJICUG_clean_linker_0, # of connection points: 2
#     Edge 48, Type (0, 0), BuildingBlock: OJICUG_clean_linker_0, # of connection points: 2
#     Edge 49, Type (0, 0), BuildingBlock: OJICUG_clean_linker_0, # of connection points: 2
#     Edge 50, Type (0, 0), BuildingBlock: OJICUG_clean_linker_0, # of connection points: 2
#     Edge 51, Type (0, 0), BuildingBlock: OJICUG_clean_linker_0, # of connection points: 2
#     Edge 52, Type (0, 0), BuildingBlock: OJICUG_clean_linker_0, # of connection points: 2
#     Edge 53, Type (0, 0), BuildingBlock: OJICUG_clean_linker_0, # of connection points: 2
#     Edge 54, Type (0, 0), BuildingBlock: OJICUG_clean_linker_0, # of connection points: 2
#     Edge 55, Type (0, 0), BuildingBlock: OJICUG_clean_linker_0, # of connection points: 2
#     Edge 56, Type (0, 0), BuildingBlock: OJICUG_clean_linker_0, # of connection points: 2
#     Edge 57, Type (0, 0), BuildingBlock: OJICUG_clean_linker_0, # of connection points: 2
#     Edge 58, Type (0, 0), BuildingBlock: OJICUG_clean_linker_0, # of connection points: 2
#     Edge 59, Type (0, 0), BuildingBlock: OJICUG_clean_linker_0, # of connection points: 2
#     Edge 60, Type (0, 0), BuildingBlock: OJICUG_clean_linker_0, # of connection points: 2
#     Edge 61, Type (0, 0), BuildingBlock: OJICUG_clean_linker_0, # of connection points: 2
#     Edge 62, Type (0, 0), BuildingBlock: OJICUG_clean_linker_0, # of connection points: 2
#     Edge 63, Type (0, 0), BuildingBlock: OJICUG_clean_linker_0, # of connection points: 2
#     Edge 64, Type (0, 0), BuildingBlock: OJICUG_clean_linker_0, # of connection points: 2
#     Edge 65, Type (0, 0), BuildingBlock: OJICUG_clean_linker_0, # of connection points: 2
#     Edge 66, Type (0, 0), BuildingBlock: OJICUG_clean_linker_0, # of connection points: 2
#     Edge 67, Type (0, 0), BuildingBlock: OJICUG_clean_linker_0, # of connection points: 2
#     Edge 68, Type (0, 0), BuildingBlock: OJICUG_clean_linker_0, # of connection points: 2
#     Edge 69, Type (0, 0), BuildingBlock: OJICUG_clean_linker_0, # of connection points: 2
#     Edge 70, Type (0, 0), BuildingBlock: OJICUG_clean_linker_0, # of connection points: 2
#     Edge 71, Type (0, 0), BuildingBlock: OJICUG_clean_linker_0, # of connection points: 2
#     Edge 72, Type (0, 0), BuildingBlock: OJICUG_clean_linker_0, # of connection points: 2
#     Edge 73, Type (0, 0), BuildingBlock: OJICUG_clean_linker_0, # of connection points: 2
#     Edge 74, Type (0, 0), BuildingBlock: OJICUG_clean_linker_0, # of connection points: 2
#     Edge 75, Type (0, 0), BuildingBlock: OJICUG_clean_linker_0, # of connection points: 2
#     Edge 76, Type (0, 0), BuildingBlock: OJICUG_clean_linker_0, # of connection points: 2
#     Edge 77, Type (0, 0), BuildingBlock: OJICUG_clean_linker_0, # of connection points: 2
#     Edge 78, Type (0, 0), BuildingBlock: OJICUG_clean_linker_0, # of connection points: 2
#     Edge 79, Type (0, 0), BuildingBlock: OJICUG_clean_linker_0, # of connection points: 2
#     Edge 80, Type (0, 0), BuildingBlock: OJICUG_clean_linker_0, # of connection points: 2
#     Edge 81, Type (0, 0), BuildingBlock: OJICUG_clean_linker_0, # of connection points: 2
#     Edge 82, Type (0, 0), BuildingBlock: OJICUG_clean_linker_0, # of connection points: 2
#     Edge 83, Type (0, 0), BuildingBlock: OJICUG_clean_linker_0, # of connection points: 2
#     Edge 84, Type (0, 0), BuildingBlock: OJICUG_clean_linker_0, # of connection points: 2
#     Edge 85, Type (0, 0), BuildingBlock: OJICUG_clean_linker_0, # of connection points: 2
#     Edge 86, Type (0, 0), BuildingBlock: OJICUG_clean_linker_0, # of connection points: 2
#     Edge 87, Type (0, 0), BuildingBlock: OJICUG_clean_linker_0, # of connection points: 2
#     Edge 88, Type (0, 0), BuildingBlock: OJICUG_clean_linker_0, # of connection points: 2
#     Edge 89, Type (0, 0), BuildingBlock: OJICUG_clean_linker_0, # of connection points: 2
#     Edge 90, Type (0, 0), BuildingBlock: OJICUG_clean_linker_0, # of connection points: 2
#     Edge 91, Type (0, 0), BuildingBlock: OJICUG_clean_linker_0, # of connection points: 2
#     Edge 92, Type (0, 0), BuildingBlock: OJICUG_clean_linker_0, # of connection points: 2
#     Edge 93, Type (0, 0), BuildingBlock: OJICUG_clean_linker_0, # of connection points: 2
#     Edge 94, Type (0, 0), BuildingBlock: OJICUG_clean_linker_0, # of connection points: 2
#     Edge 95, Type (0, 0), BuildingBlock: OJICUG_clean_linker_0, # of connection points: 2
#     Edge 96, Type (0, 0), BuildingBlock: OJICUG_clean_linker_0, # of connection points: 2
#     Edge 97, Type (0, 0), BuildingBlock: OJICUG_clean_linker_0, # of connection points: 2
#     Edge 98, Type (0, 0), BuildingBlock: OJICUG_clean_linker_0, # of connection points: 2
#     Edge 99, Type (0, 0), BuildingBlock: OJICUG_clean_linker_0, # of connection points: 2
#     Edge 100, Type (0, 0), BuildingBlock: OJICUG_clean_linker_0, # of connection points: 2
#     Edge 101, Type (0, 0), BuildingBlock: OJICUG_clean_linker_0, # of connection points: 2
#     Edge 102, Type (0, 0), BuildingBlock: OJICUG_clean_linker_0, # of connection points: 2
#     Edge 103, Type (0, 0), BuildingBlock: OJICUG_clean_linker_0, # of connection points: 2
#     Edge 104, Type (0, 0), BuildingBlock: OJICUG_clean_linker_0, # of connection points: 2
#     Edge 105, Type (0, 0), BuildingBlock: OJICUG_clean_linker_0, # of connection points: 2
#     Edge 106, Type (0, 0), BuildingBlock: OJICUG_clean_linker_0, # of connection points: 2
#     Edge 107, Type (0, 0), BuildingBlock: OJICUG_clean_linker_0, # of connection points: 2
# Relax obj value: 0.095
# Max RMSD: 0.080
# Mean RMSD: 0.076
data_MOF--net-uma--node1-MUDLON_clean_sbu_0--edge1-OJICUG_clean_linker_0
_symmetry_space_group_name_H-M    P1
_symmetry_Int_Tables_number       1
_symmetry_cell_setting            triclinic
loop_
_symmetry_equiv_pos_as_xyz
'x, y, z'
_cell_length_a     55.900737
_cell_length_b     56.237056
_cell_length_c     30.381573
_cell_angle_alpha  90.020816
_cell_angle_beta   89.849535
_cell_angle_gamma 119.94469
loop_
_atom_site_label
_atom_site_type_symbol
_atom_site_fract_x
_atom_site_fract_y
_atom_site_fract_z
_atom_type_partial_charge
Mg0 Mg 0.14824 0.42772 0.01608 0.0
C1 C 0.13913 0.39969 0.9305 0.0
O2 O 0.15745 0.42529 0.92139 0.0
C3 C 0.14383 0.44374 0.10157 0.0
O4 O 0.16051 0.46539 0.078 0.0
C5 C 0.213 0.45922 0.99375 0.0
O6 O 0.20785 0.47047 0.9599 0.0
O7 O 0.19331 0.44363 0.01951 0.0
O8 O 0.13086 0.39339 0.97015 0.0
O9 O 0.12707 0.45118 1.00353 0.0
C10 C 0.1045 0.43984 0.98196 0.0
O11 O 0.10184 0.42317 0.94971 0.0
O12 O 0.13506 0.42008 0.08465 0.0
Mg13 Mg 0.69142 0.75007 1.00765 0.0
C14 C 0.70574 0.70744 0.98623 0.0
O15 O 0.72909 0.73086 0.98457 0.0
C16 C 0.65836 0.77974 0.0204 0.0
O17 O 0.66597 0.77978 0.06127 0.0
C18 C 0.70237 0.73384 0.09884 0.0
O19 O 0.71723 0.72616 0.07587 0.0
O20 O 0.69323 0.74803 0.08006 0.0
O21 O 0.68345 0.70821 0.99172 0.0
O22 O 0.72662 0.77722 0.96508 0.0
C23 C 0.72214 0.76834 0.92554 0.0
O24 O 0.69907 0.74555 0.91687 0.0
O25 O 0.66324 0.766 0.99176 0.0
Mg26 Mg 0.35929 0.93729 1.0076 0.0
C27 C 0.34888 0.95171 0.91977 0.0
O28 O 0.36953 0.94714 0.91391 0.0
C29 C 0.34828 0.92809 0.10434 0.0
O30 O 0.33889 0.90284 0.09058 0.0
C31 C 0.32232 0.87766 0.97575 0.0
O32 O 0.31831 0.89015 0.94248 0.0
O33 O 0.34059 0.89209 1.00429 0.0
O34 O 0.33884 0.94906 0.95836 0.0
O35 O 0.40304 0.96689 0.99452 0.0
C36 C 0.41855 0.9809 0.02635 0.0
O37 O 0.41116 0.97148 0.06657 0.0
O38 O 0.35507 0.94698 0.07588 0.0
Mg39 Mg 0.45442 0.13869 0.02553 0.0
C40 C 0.43493 0.12815 0.11757 0.0
O41 O 0.46035 0.13272 0.12015 0.0
C42 C 0.44092 0.14433 0.93184 0.0
O43 O 0.44943 0.16944 0.94559 0.0
C44 C 0.47809 0.19934 0.05086 0.0
O45 O 0.4652 0.18821 0.08789 0.0
O46 O 0.47996 0.18395 0.02179 0.0
O47 O 0.42542 0.12894 0.07985 0.0
O48 O 0.47078 0.11077 0.03593 0.0
C49 C 0.47256 0.09752 1.00316 0.0
O50 O 0.47283 0.10673 0.96334 0.0
O51 O 0.43642 0.12595 0.96019 0.0
Mg52 Mg 0.95759 0.336 0.0351 0.0
C53 C 0.99957 0.39236 0.06721 0.0
O54 O 1.00048 0.37985 0.10312 0.0
C55 C 0.90429 0.29166 0.99723 0.0
O56 O 0.92295 0.29375 0.96872 0.0
C57 C 0.97048 0.35416 0.94673 0.0
O58 O 0.95248 0.36074 0.96182 0.0
O59 O 0.97644 0.33931 0.97083 0.0
O60 O 0.97768 0.38066 0.044 0.0
O61 O 0.97079 0.3201 0.0893 0.0
C62 C 0.99423 0.32179 0.09279 0.0
O63 O 1.01215 0.33261 0.06045 0.0
O64 O 0.91221 0.30846 0.02943 0.0
Mg65 Mg 0.78054 0.64297 1.00488 0.0
C66 C 0.79089 0.66717 0.09551 0.0
O67 O 0.77897 0.64064 0.10285 0.0
C68 C 0.7593 0.62756 0.91456 0.0
O69 O 0.75607 0.60491 0.93262 0.0
C70 C 0.8168 0.61674 0.02829 0.0
O71 O 0.79949 0.60569 0.06133 0.0
O72 O 0.81278 0.63135 1.00053 0.0
O73 O 0.79482 0.67554 0.05564 0.0
O74 O 0.73908 0.61187 0.02692 0.0
C75 C 0.71609 0.61183 0.02746 0.0
O76 O 0.69412 0.58958 0.04173 0.0
O77 O 0.77143 0.6497 0.93693 0.0
Mg78 Mg 0.98148 0.63582 1.01145 0.0
C79 C 1.00469 0.59692 0.02801 0.0
O80 O 1.00299 0.57297 0.03335 0.0
C81 C 0.91908 0.61306 0.02778 0.0
O82 O 0.92292 0.59844 0.0577 0.0
C83 C 1.00203 0.62966 0.92434 0.0
O84 O 0.98638 0.60422 0.9376 0.0
O85 O 1.00384 0.64899 0.94858 0.0
O86 O 0.98267 0.59852 0.02886 0.0
O87 O 1.00047 0.66619 0.06387 0.0
C88 C 0.99186 0.65925 0.10324 0.0
O89 O 0.97179 0.63413 0.11087 0.0
O90 O 0.9393 0.62908 1.00322 0.0
Mg91 Mg 0.44611 0.33006 0.02476 0.0
C92 C 0.4061 0.32509 0.1012 0.0
O93 O 0.40571 0.34628 0.08388 0.0
C94 C 0.41402 0.32737 0.94411 0.0
O95 O 0.41093 0.34553 0.96684 0.0
C96 C 0.475 0.29699 1.00436 0.0
O97 O 0.46505 0.29631 0.96496 0.0
O98 O 0.47299 0.31214 0.03373 0.0
O99 O 0.4193 0.315 0.08219 0.0
O100 O 0.46255 0.37414 0.01329 0.0
C101 C 0.46219 0.39139 0.04008 0.0
O102 O 0.46039 0.38615 0.08247 0.0
O103 O 0.42448 0.31447 0.96301 0.0
Mg104 Mg 0.7602 0.13001 0.99887 0.0
C105 C 0.7781 0.12426 0.08592 0.0
O106 O 0.76746 0.14032 0.09098 0.0
C107 C 0.74821 0.10366 0.9081 0.0
O108 O 0.73158 0.08142 0.93035 0.0
C109 C 0.8054 0.18632 0.98538 0.0
O110 O 0.81081 0.17036 0.96079 0.0
O111 O 0.78295 0.17529 1.00757 0.0
O112 O 0.77875 0.11566 0.04738 0.0
O113 O 0.71495 0.10264 1.00295 0.0
C114 C 0.70467 0.08203 0.02893 0.0
O115 O 0.71973 0.08202 0.062 0.0
O116 O 0.7656 0.1249 0.92904 0.0
Mg117 Mg 0.65468 0.93106 0.99509 0.0
C118 C 0.67415 0.93986 0.90314 0.0
O119 O 0.64756 0.92234 0.89993 0.0
C120 C 0.64767 0.94273 0.08495 0.0
O121 O 0.62298 0.92995 0.06721 0.0
C122 C 0.6494 0.87479 0.97557 0.0
O123 O 0.66779 0.88987 0.94578 0.0
O124 O 0.63857 0.88582 0.99922 0.0
O125 O 0.68458 0.94756 0.94136 0.0
O126 O 0.63085 0.95265 0.98749 0.0
C127 C 0.63897 0.97342 0.9621 0.0
O128 O 0.64837 0.97251 0.9229 0.0
O129 O 0.66827 0.94581 0.06221 0.0
Mg130 Mg 0.16445 0.74024 1.00741 0.0
C131 C 0.15406 0.75787 0.92561 0.0
O132 O 0.16319 0.74085 0.91734 0.0
C133 C 0.15732 0.71777 0.09467 0.0
O134 O 0.16486 0.70367 0.0694 0.0
C135 C 0.22642 0.77466 0.02029 0.0
O136 O 0.21801 0.77409 0.06089 0.0
O137 O 0.20874 0.75937 0.99165 0.0
O138 O 0.15186 0.76328 0.96563 0.0
O139 O 0.13227 0.69805 0.99233 0.0
C140 C 0.10988 0.69615 1.0067 0.0
O141 O 0.1107 0.71847 0.02173 0.0
O142 O 0.15736 0.73866 0.07824 0.0
Mg143 Mg 0.34851 0.42701 0.02131 0.0
C144 C 0.40298 0.44286 0.97736 0.0
O145 O 0.38781 0.42893 0.94364 0.0
C146 C 0.31765 0.46039 1.00322 0.0
O147 O 0.33684 0.47382 0.97346 0.0
C148 C 0.37306 0.43304 0.10684 0.0
O149 O 0.38231 0.45794 0.09131 0.0
O150 O 0.35433 0.41291 0.08536 0.0
O151 O 0.39259 0.45219 1.00514 0.0
O152 O 0.33125 0.39488 0.97175 0.0
C153 C 0.32598 0.40165 0.93458 0.0
O154 O 0.33021 0.42663 0.92943 0.0
O155 O 0.31939 0.44281 0.02751 0.0
Mg156 Mg 0.84401 0.76559 0.33667 0.0
C157 C 0.82539 0.74182 0.24519 0.0
O158 O 0.83388 0.76792 0.23852 0.0
C159 C 0.83756 0.77769 0.42885 0.0
O160 O 0.85703 0.80103 0.41243 0.0
C161 C 0.90211 0.78167 0.30389 0.0
O162 O 0.88999 0.77938 0.26589 0.0
O163 O 0.88844 0.77873 0.3391 0.0
O164 O 0.82638 0.7339 0.28424 0.0
O165 O 0.83301 0.79695 0.31969 0.0
C166 C 0.80999 0.79677 0.32269 0.0
O167 O 0.80979 0.81928 0.31184 0.0
O168 O 0.82789 0.75634 0.40458 0.0
Mg169 Mg 0.34868 0.08944 0.36665 0.0
C170 C 0.34198 1.0345 0.34139 0.0
O171 O 0.36067 0.05006 0.31228 0.0
C172 C 0.3225 0.12342 0.39679 0.0
O173 O 0.32894 0.11746 0.4352 0.0
C174 C 0.37322 0.07705 0.44453 0.0
O175 O 0.38445 0.06942 0.41363 0.0
O176 O 0.36253 0.09161 0.43394 0.0
O177 O 0.32944 0.0445 0.36302 0.0
O178 O 0.37959 0.10603 0.3145 0.0
C179 C 0.36987 0.10638 0.27675 0.0
O180 O 0.34349 0.09841 0.27358 0.0
O181 O 0.32601 0.11243 0.36243 0.0
Mg182 Mg 1.02717 0.27665 0.34906 0.0
C183 C 1.0251 0.29182 0.25672 0.0
O184 O 1.04563 0.28674 0.25686 0.0
C185 C 1.00775 0.27522 0.44206 0.0
O186 O 0.98919 0.25037 0.42968 0.0
C187 C 0.9861 0.21704 0.3231 0.0
O188 O 0.98709 0.22889 0.28537 0.0
O189 O 1.00275 0.23141 0.35355 0.0
O190 O 1.01225 0.28944 0.29264 0.0
O191 O 0.0722 0.29997 0.341 0.0
C192 C 0.08711 0.31182 0.37453 0.0
O193 O 0.07701 0.30217 0.41375 0.0
O194 O 1.02332 0.29209 0.41293 0.0
Mg195 Mg 0.13325 0.46907 0.37034 0.0
C196 C 0.1097 0.46069 0.46027 0.0
O197 O 0.13468 0.465 0.46789 0.0
C198 C 0.12049 0.46918 0.27422 0.0
O199 O 0.13102 0.49542 0.28276 0.0
C200 C 0.159 0.53059 0.39201 0.0
O201 O 0.14754 0.52073 0.43045 0.0
O202 O 0.15893 0.51409 0.36308 0.0
O203 O 0.10248 0.46101 0.42066 0.0
O204 O 0.14913 0.44159 0.387 0.0
C205 C 0.15236 0.42832 0.3557 0.0
O206 O 0.15586 0.43832 0.31563 0.0
O207 O 0.11559 0.45277 0.30606 0.0
Mg208 Mg 0.65019 0.65508 0.35165 0.0
C209 C 0.70473 0.69876 0.35772 0.0
O210 O 0.70394 0.67609 0.34468 0.0
C211 C 0.58823 0.61978 0.33621 0.0
O212 O 0.59767 0.61967 0.29661 0.0
C213 C 0.65596 0.68014 0.266 0.0
O214 O 0.64546 0.6912 0.29223 0.0
O215 O 0.65847 0.66023 0.28074 0.0
O216 O 0.68187 0.69747 0.36769 0.0
O217 O 0.66492 0.63306 0.39317 0.0
C218 C 0.64851 0.61275 0.41699 0.0
O219 O 0.62186 0.60103 0.4097 0.0
O220 O 0.60529 0.63528 0.36546 0.0
Mg221 Mg 0.41625 0.9731 0.36596 0.0
C222 C 0.42836 1.00434 0.44733 0.0
O223 O 0.41962 0.9789 0.4596 0.0
C224 C 0.39266 0.95074 0.28057 0.0
O225 O 0.38843 0.92972 0.30508 0.0
C226 C 0.46295 0.96414 0.33358 0.0
O227 O 0.45576 0.97135 0.29703 0.0
O228 O 0.44951 0.96226 0.36869 0.0
O229 O 0.42979 1.00962 0.40629 0.0
O230 O 0.37717 0.94321 0.39742 0.0
C231 C 0.35542 0.94475 0.40494 0.0
O232 O 0.33557 0.92539 0.42861 0.0
O233 O 0.40601 0.97467 0.29717 0.0
Mg234 Mg 0.62461 0.97899 0.35213 0.0
C235 C 0.67039 0.97288 0.39587 0.0
O236 O 0.67096 0.9906 0.42459 0.0
C237 C 0.56712 0.9647 0.32663 0.0
O238 O 0.58173 0.97668 0.29122 0.0
C239 C 0.63843 0.96553 0.26526 0.0
O240 O 0.63296 0.94411 0.28954 0.0
O241 O 0.63555 0.98478 0.28196 0.0
O242 O 0.64888 0.95971 0.37217 0.0
O243 O 0.64092 1.01602 0.39182 0.0
C244 C 0.6304 1.01166 0.43027 0.0
O245 O 0.61083 0.9867 0.4404 0.0
O246 O 0.57912 0.96027 0.35867 0.0
Mg247 Mg 0.13345 0.66435 0.35826 0.0
C248 C 0.07679 0.63754 0.41124 0.0
O249 O 0.06738 0.64886 0.38354 0.0
C250 C 0.118 0.67775 0.27069 0.0
O251 O 0.11051 0.69165 0.2964 0.0
C252 C 0.16077 0.63015 0.34194 0.0
O253 O 0.15003 0.62874 0.30296 0.0
O254 O 0.16016 0.64658 0.37034 0.0
O255 O 0.10056 0.64034 0.40519 0.0
O256 O 0.14792 0.70834 0.36832 0.0
C257 C 0.13242 0.71495 0.38959 0.0
O258 O 0.11395 0.69695 0.41662 0.0
O259 O 0.1244 0.66106 0.28806 0.0
Mg260 Mg 0.43631 0.46519 0.35141 0.0
C261 C 0.43479 0.42383 0.41975 0.0
O262 O 0.41257 0.40607 0.39844 0.0
C263 C 0.42016 0.42798 0.27226 0.0
O264 O 0.40388 0.40945 0.30093 0.0
C265 C 0.48334 0.52315 0.37709 0.0
O266 O 0.48243 0.51036 0.41378 0.0
O267 O 0.4652 0.51009 0.34757 0.0
O268 O 0.44866 0.4484 0.40579 0.0
O269 O 0.39112 0.44732 0.35186 0.0
C270 C 0.37551 0.4318 0.38249 0.0
O271 O 0.38553 0.43549 0.42256 0.0
O272 O 0.43945 0.4509 0.28639 0.0
Mg273 Mg 0.33513 0.28111 0.36135 0.0
C274 C 0.36006 0.28319 0.2732 0.0
O275 O 0.34349 0.25664 0.27754 0.0
C276 C 0.35841 0.31578 0.44214 0.0
O277 O 0.36203 0.33552 0.41513 0.0
C278 C 0.31426 0.22225 0.39354 0.0
O279 O 0.31814 0.23477 0.43156 0.0
O280 O 0.31698 0.23584 0.35843 0.0
O281 O 0.36261 0.29893 0.30511 0.0
O282 O 0.31136 0.30267 0.36325 0.0
C283 C 0.31536 0.32006 0.33309 0.0
O284 O 0.32357 0.31657 0.29429 0.0
O285 O 0.35391 0.29303 0.42594 0.0
Mg286 Mg 0.82115 0.08028 0.33495 0.0
C287 C 0.81319 0.08967 0.24053 0.0
O288 O 0.82936 0.07905 0.23664 0.0
C289 C 0.78197 0.07635 0.40551 0.0
O290 O 0.76476 0.0674 0.37219 0.0
C291 C 0.88214 0.1189 0.35996 0.0
O292 O 0.87118 0.11775 0.39877 0.0
O293 O 0.86656 0.10374 0.32909 0.0
O294 O 0.80566 0.09253 0.27885 0.0
O295 O 0.79834 1.03554 0.34168 0.0
C296 C 0.77669 1.02161 0.31874 0.0
O297 O 0.77474 1.03177 0.28089 0.0
O298 O 0.8078 0.08783 0.39786 0.0
Mg299 Mg 1.04734 0.76398 0.33425 0.0
C300 C 0.11201 0.79746 0.31133 0.0
O301 O 0.13297 0.81951 0.29427 0.0
C302 C 1.00529 0.78002 0.30255 0.0
O303 O 1.01495 0.77767 0.26432 0.0
C304 C 0.07318 0.77522 0.42176 0.0
O305 O 0.0852 0.79922 0.40204 0.0
O306 O 1.05432 0.75464 0.40132 0.0
O307 O 0.08815 0.79546 0.30984 0.0
O308 O 1.0316 0.73025 0.28657 0.0
C309 C 1.0405 0.73642 0.24717 0.0
O310 O 0.05917 0.76191 0.23817 0.0
O311 O 1.01594 0.77682 0.3375 0.0
Mg312 Mg 0.47804 0.11674 0.66753 0.0
C313 C 0.46064 0.08817 0.58135 0.0
O314 O 0.47237 0.1141 0.56977 0.0
C315 C 0.473 0.132 0.75654 0.0
O316 O 0.49197 0.15453 0.73729 0.0
C317 C 0.53828 0.1377 0.63779 0.0
O318 O 0.5292 0.14296 0.60133 0.0
O319 O 0.52195 0.12804 0.67063 0.0
O320 O 0.45863 0.0822 0.62217 0.0
O321 O 0.4707 0.14868 0.64044 0.0
C322 C 0.44768 0.14823 0.63706 0.0
O323 O 0.44704 0.1684 0.61637 0.0
O324 O 0.46235 0.10972 0.73475 0.0
Mg325 Mg 1.00346 0.40992 0.68622 0.0
C326 C 1.00966 0.36195 0.66364 0.0
O327 O 1.03275 0.38298 0.64956 0.0
C328 C 0.97697 0.44518 0.69921 0.0
O329 O 0.98734 0.44661 0.7385 0.0
C330 C 1.01839 0.39781 0.77655 0.0
O331 O 1.02854 0.38526 0.75314 0.0
O332 O 1.01038 0.41264 0.757 0.0
O333 O 0.99016 0.36614 0.67563 0.0
O334 O 1.03915 0.43292 0.64381 0.0
C335 C 1.03247 0.43377 0.60404 0.0
O336 O 1.00617 0.42307 0.59448 0.0
O337 O 0.97782 0.4287 0.67115 0.0
Mg338 Mg 0.65076 0.58957 0.69002 0.0
C339 C 0.67619 0.60359 0.59581 0.0
O340 O 0.69604 0.62579 0.61435 0.0
C341 C 0.69901 0.61787 0.7538 0.0
O342 O 0.69765 0.6392 0.73949 0.0
C343 C 0.60932 0.52926 0.6965 0.0
O344 O 0.63106 0.52884 0.68095 0.0
O345 O 0.61144 0.55241 0.70534 0.0
O346 O 0.65733 0.58536 0.62 0.0
O347 O 0.64914 0.62744 0.69673 0.0
C348 C 0.64775 0.64084 0.66402 0.0
O349 O 0.64252 0.62952 0.62482 0.0
O350 O 0.68298 0.59436 0.73693 0.0
Mg351 Mg 0.76588 0.80795 0.66156 0.0
C352 C 0.77221 0.81802 0.76136 0.0
O353 O 0.76902 0.83888 0.75061 0.0
C354 C 0.78518 0.78178 0.59204 0.0
O355 O 0.76221 0.76004 0.60481 0.0
C356 C 0.78372 0.8697 0.65954 0.0
O357 O 0.80724 0.87277 0.67391 0.0
O358 O 0.76381 0.84558 0.65172 0.0
O359 O 0.77455 0.80375 0.73077 0.0
O360 O 0.72569 0.77128 0.6509 0.0
C361 C 0.71022 0.75788 0.68315 0.0
O362 O 0.71661 0.76859 0.72273 0.0
O363 O 0.79289 0.8046 0.6116 0.0
Mg364 Mg 0.30058 1.00123 0.68175 0.0
C365 C 0.34718 0.05745 0.70609 0.0
O366 O 0.35178 0.04297 0.73522 0.0
C367 C 0.23998 0.96744 0.65392 0.0
O368 O 0.25153 0.97482 0.61487 0.0
C369 C 0.3375 1.01216 0.60373 0.0
O370 O 0.35605 1.01877 0.63481 0.0
O371 O 0.31204 0.99939 0.61414 0.0
O372 O 0.32441 0.04608 0.68513 0.0
O373 O 0.3164 0.98502 0.73176 0.0
C374 C 0.30648 0.98301 0.77026 0.0
O375 O 0.28752 0.99001 0.77628 0.0
O376 O 0.25514 0.97744 0.68785 0.0
Mg377 Mg 0.07884 0.29414 0.70043 0.0
C378 C 0.09075 0.32111 0.78845 0.0
O379 O 0.07214 0.29562 0.79765 0.0
C380 C 1.04929 0.28234 0.61717 0.0
O381 O 1.03889 0.25879 0.63808 0.0
C382 C 0.11815 0.27355 0.72764 0.0
O383 O 0.10791 0.27393 0.76642 0.0
O384 O 0.10839 0.27907 0.69377 0.0
O385 O 0.09812 0.32762 0.74848 0.0
O386 O 1.03746 0.2658 0.72743 0.0
C387 C 1.01525 0.26725 0.72771 0.0
O388 O 0.99293 0.24662 0.74484 0.0
O389 O 0.0695 0.30337 0.63459 0.0
Mg390 Mg 0.2848 0.30769 0.69355 0.0
C391 C 0.33628 0.31046 0.70189 0.0
O392 O 0.33979 0.3353 0.69849 0.0
C393 C 0.22482 0.27983 0.72499 0.0
O394 O 0.2373 0.2846 0.76321 0.0
C395 C 0.30227 0.30401 0.6066 0.0
O396 O 0.2892 0.27906 0.62303 0.0
O397 O 0.30154 0.32314 0.628 0.0
O398 O 0.31171 0.29034 0.70615 0.0
O399 O 0.29569 0.33819 0.74505 0.0
C400 C 0.29896 0.33066 0.78302 0.0
O401 O 0.29604 0.30612 0.78757 0.0
O402 O 0.23924 0.28481 0.69005 0.0
Mg403 Mg 0.75899 1.00911 0.65847 0.0
C404 C 0.73859 0.98834 0.74537 0.0
O405 O 0.76558 1.00334 0.7484 0.0
C406 C 0.73941 1.02352 0.57332 0.0
O407 O 0.72696 1.03253 0.59948 0.0
C408 C 0.76476 0.96207 0.64579 0.0
O409 O 0.74019 0.95666 0.63249 0.0
O410 O 0.7814 0.98634 0.65936 0.0
O411 O 0.72748 0.98602 0.70784 0.0
O412 O 0.77541 0.05293 0.67257 0.0
C413 C 0.7568 0.05737 0.68818 0.0
O414 O 0.73421 1.0364 0.70384 0.0
O415 O 0.74926 1.00925 0.58921 0.0
Mg416 Mg 0.1041 0.80619 0.68876 0.0
C417 C 0.12156 0.80105 0.77908 0.0
O418 O 0.11306 0.81875 0.78558 0.0
C419 C 0.09754 0.77422 0.60538 0.0
O420 O 0.0802 0.75378 0.63041 0.0
C421 C 0.13546 0.8659 0.6591 0.0
O422 O 0.12653 0.85375 0.62089 0.0
O423 O 0.12664 0.85139 0.69397 0.0
O424 O 0.12064 0.79197 0.74035 0.0
O425 O 1.05884 0.77982 0.6894 0.0
C426 C 1.04729 0.76025 0.71717 0.0
O427 O 0.06091 0.76137 0.75299 0.0
O428 O 0.11289 0.79756 0.62289 0.0
Mg429 Mg 0.99883 0.60416 0.66894 0.0
C430 C 1.03346 0.60623 0.58795 0.0
O431 O 1.04071 0.5918 0.61288 0.0
C432 C 1.03499 0.63904 0.74348 0.0
O433 O 1.03588 0.65917 0.72031 0.0
C434 C 0.97273 0.54203 0.64881 0.0
O435 O 0.97997 0.55078 0.60823 0.0
O436 O 0.97507 0.55919 0.67841 0.0
O437 O 1.01758 0.61423 0.60362 0.0
O438 O 0.98158 0.63112 0.6821 0.0
C439 C 0.98676 0.65054 0.6552 0.0
O440 O 0.99426 0.64868 0.61491 0.0
O441 O 1.02673 0.61596 0.72482 0.0
Mg442 Mg 0.45934 0.37083 0.67481 0.0
C443 C 0.46278 0.39693 0.58844 0.0
O444 O 0.48863 0.40402 0.59589 0.0
C445 C 0.44013 0.34684 0.76134 0.0
O446 O 0.45817 0.33964 0.74912 0.0
C447 C 0.50326 0.42829 0.69818 0.0
O448 O 0.48063 0.42963 0.70353 0.0
O449 O 0.501 0.40534 0.68739 0.0
O450 O 0.44465 0.38309 0.61748 0.0
O451 O 0.45817 0.3321 0.65901 0.0
C452 C 0.43612 0.30876 0.66184 0.0
O453 O 0.43751 0.28627 0.65733 0.0
O454 O 0.43558 0.36207 0.73575 0.0
Mg455 Mg 0.68353 0.11985 0.65758 0.0
C456 C 0.7478 0.15154 0.63303 0.0
O457 O 0.76982 0.17378 0.61884 0.0
C458 C 0.64269 0.13852 0.63353 0.0
O459 O 0.65334 0.13917 0.59464 0.0
C460 C 0.71196 0.12394 0.74191 0.0
O461 O 0.72433 0.14936 0.72753 0.0
O462 O 0.69161 0.10567 0.72015 0.0
O463 O 0.72478 0.15143 0.63393 0.0
O464 O 0.66559 0.08811 0.60666 0.0
C465 C 0.67456 0.09408 0.5673 0.0
O466 O 0.69439 0.11912 0.55837 0.0
O467 O 0.6526 0.13282 0.66702 0.0
C468 C 1.05092 0.42421 0.07045 0.0
C469 C 1.02638 0.41191 0.04572 0.0
H470 H 0.09504 0.44381 0.06971 0.0
C471 C 1.02849 0.41454 0.99959 0.0
H472 H 1.05016 0.42292 0.10605 0.0
C473 C 1.0543 0.4259 0.97865 0.0
C474 C 0.07868 0.43574 1.00337 0.0
H475 H 1.01016 0.40592 0.97943 0.0
H476 H 1.055 0.42537 0.94303 0.0
C477 C 0.07677 0.43627 0.04953 0.0
C478 C 0.68673 0.63351 1.01153 0.0
C479 C 0.71307 0.63575 0.01327 0.0
H480 H 0.6634 0.65411 1.00153 0.0
C481 C 0.73602 0.66123 1.00302 0.0
H482 H 0.66833 0.61426 0.01924 0.0
C483 C 0.73315 0.68369 0.99175 0.0
C484 C 0.70711 0.68182 0.99154 0.0
H485 H 0.75648 0.6645 1.00482 0.0
H486 H 0.75176 0.70295 0.9849 0.0
C487 C 0.68378 0.65631 1.00105 0.0
C488 C 0.45803 0.05083 0.9721 0.0
C489 C 0.46556 0.06841 1.00886 0.0
H490 H 0.43742 1.00935 0.9486 0.0
C491 C 0.46197 0.05685 0.05106 0.0
H492 H 0.46061 0.05894 0.93902 0.0
C493 C 0.44892 1.02831 0.05648 0.0
C494 C 0.43882 1.01061 0.01987 0.0
H495 H 0.46768 0.06971 0.08009 0.0
H496 H 0.44501 1.02014 0.08965 0.0
C497 C 0.44468 1.02228 0.97754 0.0
C498 C 0.07619 0.6473 0.98364 0.0
C499 C 0.08386 0.6697 1.01202 0.0
H500 H 1.04444 0.60644 0.96602 0.0
C501 C 0.06575 0.66729 0.04621 0.0
H502 H 0.08979 0.64855 0.95717 0.0
C503 C 1.04036 0.64341 0.0514 0.0
C504 C 1.03199 0.62165 0.02197 0.0
H505 H 0.07132 0.68384 0.06948 0.0
H506 H 1.02746 0.64165 0.07916 0.0
C507 C 1.05033 0.62336 0.98862 0.0
C508 C 0.45011 0.41269 0.97751 0.0
C509 C 0.45455 0.41157 0.02289 0.0
H510 H 0.43057 0.42378 0.92746 0.0
C511 C 0.44692 0.42621 0.05186 0.0
H512 H 0.45599 0.40203 0.95401 0.0
C513 C 0.43258 0.43909 0.03639 0.0
C514 C 0.42523 0.43731 0.99171 0.0
H515 H 0.45022 0.42608 0.08696 0.0
H516 H 0.42541 0.44853 0.06004 0.0
C517 C 0.43549 0.42525 0.96218 0.0
C518 C 0.65644 1.02403 0.95394 0.0
C519 C 0.6484 1.0011 0.98148 0.0
H520 H 0.67936 0.06786 0.9477 0.0
C521 C 0.65414 1.00572 0.02669 0.0
H522 H 0.6521 1.02128 0.919 0.0
C523 C 0.67034 1.03242 0.04301 0.0
C524 C 0.68086 0.05525 0.01462 0.0
H525 H 0.64817 0.98871 0.04893 0.0
H526 H 0.67624 1.03499 0.07737 0.0
C527 C 0.67215 0.05081 0.97045 0.0
C528 C 0.75956 0.7742 0.34458 0.0
C529 C 0.78345 0.77219 0.33678 0.0
H530 H 0.71577 0.75276 0.35777 0.0
C531 C 0.78097 0.74625 0.34011 0.0
H532 H 0.76045 0.79385 0.34242 0.0
C533 C 0.75573 0.72303 0.34962 0.0
C534 C 0.73168 0.72472 0.3554 0.0
H535 H 0.79809 0.74332 0.33386 0.0
H536 H 0.755 0.70341 0.35076 0.0
C537 C 0.73391 0.75071 0.35375 0.0
C538 C 0.34315 0.98149 0.41752 0.0
C539 C 0.35187 0.96769 0.38873 0.0
H540 H 0.3324 1.013 0.42504 0.0
C541 C 0.35399 0.97391 0.34376 0.0
H542 H 0.34049 0.97654 0.45229 0.0
C543 C 0.34969 0.9949 0.32811 0.0
C544 C 0.34196 1.00944 0.35697 0.0
H545 H 0.35798 0.9619 0.3205 0.0
H546 H 0.35246 0.99979 0.29331 0.0
C547 C 0.33815 1.0021 0.40181 0.0
C548 C 0.11955 0.35773 0.40783 0.0
C549 C 0.11014 0.34068 0.37042 0.0
H550 H 0.14048 0.39889 0.43271 0.0
C551 C 0.11951 0.35273 0.32879 0.0
H552 H 0.11293 0.34923 0.44052 0.0
C553 C 0.13564 0.38129 0.3244 0.0
C554 C 0.14251 0.39852 0.3615 0.0
H555 H 0.11288 0.34027 0.29929 0.0
H556 H 0.14089 0.38987 0.29154 0.0
C557 C 0.13539 0.38632 0.40341 0.0
C558 C 0.72115 0.99068 0.40572 0.0
C559 C 0.69736 0.97699 0.37947 0.0
H560 H 0.7653 1.01442 0.40736 0.0
C561 C 0.70066 0.97258 0.33481 0.0
H562 H 0.7194 0.99414 0.44036 0.0
C563 C 0.72696 0.9849 0.3156 0.0
C564 C 0.75061 1.00128 0.34088 0.0
H565 H 0.68296 0.96184 0.31364 0.0
H566 H 0.72861 0.98334 0.2803 0.0
C567 C 0.74752 1.00233 0.38672 0.0
C568 C 0.09554 0.74996 0.34203 0.0
C569 C 0.11717 0.77641 0.33231 0.0
H570 H 0.08334 0.7105 0.36952 0.0
C571 C 0.14442 0.78256 0.34172 0.0
H572 H 0.07466 0.74376 0.3331 0.0
C573 C 0.14969 0.76286 0.3607 0.0
C574 C 0.12777 0.73686 0.37192 0.0
H575 H 0.16179 0.8026 0.33415 0.0
H576 H 0.1708 0.76797 0.36682 0.0
C577 C 0.10065 0.73072 0.36261 0.0
C578 C 0.34595 0.39684 0.32569 0.0
C579 C 0.35186 0.40433 0.37025 0.0
H580 H 0.32944 0.36407 0.2788 0.0
C581 C 0.33875 0.38369 0.40234 0.0
H582 H 0.35496 0.41217 0.29995 0.0
C583 C 0.32347 0.35596 0.3901 0.0
C584 C 0.32157 0.34828 0.34557 0.0
H585 H 0.34217 0.38868 0.43702 0.0
H586 H 0.31553 0.34051 0.41575 0.0
C587 C 0.33121 0.36912 0.31348 0.0
C588 C 0.39247 0.10053 0.71726 0.0
C589 C 0.37117 0.08286 0.68885 0.0
H590 H 0.43242 0.13651 0.72268 0.0
C591 C 0.3749 0.08759 0.6432 0.0
H592 H 0.39009 0.09762 0.75258 0.0
C593 C 0.39999 0.10856 0.62628 0.0
C594 C 0.42162 0.12545 0.65475 0.0
H595 H 0.35889 0.07435 0.62047 0.0
H596 H 0.40262 0.11135 0.59096 0.0
C597 C 0.41709 0.12212 0.70028 0.0
C598 C 0.98598 0.31177 0.68598 0.0
C599 C 1.0101 0.33671 0.6769 0.0
H600 H 0.96871 0.2701 0.70806 0.0
C601 C 1.03575 0.33843 0.68415 0.0
H602 H 0.96588 0.30983 0.68125 0.0
C603 C 1.03734 0.31618 0.70084 0.0
C604 C 1.01354 0.29102 0.70925 0.0
H605 H 1.05489 0.35745 0.67866 0.0
H606 H 1.05736 0.31917 0.70797 0.0
C607 C 0.98769 0.28908 0.70156 0.0
C608 C 0.6784 0.71143 0.71497 0.0
C609 C 0.68928 0.72845 0.67777 0.0
H610 H 0.65658 0.67031 0.73985 0.0
C611 C 0.68267 0.71639 0.63577 0.0
H612 H 0.68297 0.72 0.74785 0.0
C613 C 0.66723 0.68783 0.6312 0.0
C614 C 0.65837 0.67073 0.66855 0.0
H615 H 0.69058 0.7289 0.60642 0.0
H616 H 0.6638 0.67917 0.59842 0.0
C617 C 0.66326 0.68288 0.71042 0.0
C618 C 0.40094 0.32192 0.64485 0.0
C619 C 0.40924 0.30684 0.67078 0.0
H620 H 0.37126 0.33468 0.63452 0.0
C621 C 0.3917 0.2901 0.70473 0.0
H622 H 0.41316 0.33336 0.61678 0.0
C623 C 0.36702 0.29003 0.71429 0.0
C624 C 0.35979 0.3067 0.68991 0.0
H625 H 0.39757 0.27792 0.72476 0.0
H626 H 0.35429 0.27795 0.74164 0.0
C627 C 0.37671 0.32216 0.65459 0.0
C628 C 0.77931 0.10824 0.67101 0.0
C629 C 0.75566 0.08229 0.67589 0.0
H630 H 0.79529 0.15076 0.6548 0.0
C631 C 0.72981 0.0794 0.6661 0.0
H632 H 0.79957 0.11105 0.67778 0.0
C633 C 0.72754 0.10159 0.65141 0.0
C634 C 0.75065 0.12779 0.64798 0.0
H635 H 0.71112 0.05959 0.66824 0.0
H636 H 0.70756 0.09791 0.64234 0.0
C637 C 0.77678 0.13088 0.65766 0.0
C638 C 1.01255 0.71091 0.73281 0.0
C639 C 1.02416 0.73305 0.70299 0.0
H640 H 0.99059 0.66727 0.74135 0.0
C641 C 1.01735 0.72755 0.65816 0.0
H642 H 1.01698 0.71436 0.76767 0.0
C643 C 1.00259 0.70043 0.64293 0.0
C644 C 0.99387 0.6782 0.67224 0.0
H645 H 1.02554 0.74403 0.63422 0.0
H646 H 0.99991 0.69695 0.60777 0.0
C647 C 0.99734 0.6838 0.71766 0.0
C648 C 0.27079 0.44746 0.03452 0.0
C649 C 0.29213 0.4627 1.00417 0.0
H650 H 0.22943 0.43459 0.05541 0.0
C651 C 0.28786 0.47846 0.97244 0.0
H652 H 0.27326 0.43511 0.05948 0.0
C653 C 0.26258 0.47807 0.96996 0.0
C654 C 0.24087 0.462 0.99925 0.0
H655 H 0.30375 0.49047 0.94848 0.0
H656 H 0.25984 0.48984 0.94427 0.0
C657 C 0.24556 0.44717 0.03216 0.0
C658 C 0.65377 0.80982 0.9634 0.0
C659 C 0.65001 0.80015 1.00696 0.0
H660 H 0.65639 0.84086 0.91945 0.0
C661 C 0.64195 0.81305 0.03888 0.0
H662 H 0.66006 0.80056 0.93796 0.0
C663 C 0.63946 0.83605 0.0281 0.0
C664 C 0.64543 0.847 0.98529 0.0
H665 H 0.63882 0.80615 0.07277 0.0
H666 H 0.6347 0.84631 0.05397 0.0
C667 C 0.65174 0.83305 0.95283 0.0
C668 C 0.27424 0.81262 0.03859 0.0
C669 C 0.25407 0.79748 1.00667 0.0
H670 H 0.31202 0.84941 0.05376 0.0
C671 C 0.25904 0.80702 0.96296 0.0
H672 H 0.27116 0.80581 0.07253 0.0
C673 C 0.28235 0.83226 0.95229 0.0
C674 C 0.30146 0.84841 0.98491 0.0
H675 H 0.24399 0.79597 0.9375 0.0
H676 H 0.28462 0.83979 0.91886 0.0
C677 C 0.29775 0.83766 0.02778 0.0
C678 C 0.48559 0.25978 0.9841 0.0
C679 C 0.48232 0.27574 0.01674 0.0
H680 H 0.48767 0.22358 0.96916 0.0
C681 C 0.48223 0.26856 0.06111 0.0
H682 H 0.48594 0.2648 0.9496 0.0
C683 C 0.4829 0.2447 0.07231 0.0
C684 C 0.48402 0.22758 0.03949 0.0
H685 H 0.4798 0.28033 0.08718 0.0
H686 H 0.48105 0.23891 0.10668 0.0
C687 C 0.48664 0.23611 0.99535 0.0
C688 C 0.86744 0.25359 0.95342 0.0
C689 C 0.87568 0.26781 0.99358 0.0
H690 H 0.83863 0.21721 0.91951 0.0
C691 C 0.85785 0.25678 0.03016 0.0
H692 H 0.88036 0.26153 0.92438 0.0
C693 C 0.83343 0.23101 0.0272 0.0
C694 C 0.8266 0.21597 0.98766 0.0
H695 H 0.86361 0.26717 0.06164 0.0
H696 H 0.82101 0.2221 0.05646 0.0
C697 C 0.84339 0.22811 0.95056 0.0
C698 C 0.87092 0.59682 0.0557 0.0
C699 C 0.89212 0.61246 0.02536 0.0
H700 H 0.83075 0.5858 0.08037 0.0
C701 C 0.88764 0.6284 0.9943 0.0
H702 H 0.87353 0.58426 0.0801 0.0
C703 C 0.86292 0.62919 0.99436 0.0
C704 C 0.84208 0.61417 0.02561 0.0
H705 H 0.90344 0.64067 0.97038 0.0
H706 H 0.86044 0.64211 0.97051 0.0
C707 C 0.8463 0.59771 0.05589 0.0
C708 C 0.94183 0.78206 0.3445 0.0
C709 C 0.93007 0.78441 0.30496 0.0
H710 H 0.97481 0.77893 0.37501 0.0
C711 C 0.94447 0.78743 0.2654 0.0
H712 H 0.93135 0.77969 0.3756 0.0
C713 C 0.96927 0.78698 0.26506 0.0
C714 C 0.98051 0.7835 0.30426 0.0
H715 H 0.93622 0.78944 0.23429 0.0
H716 H 0.97927 0.78867 0.2337 0.0
C717 C 0.96677 0.78161 0.34416 0.0
C718 C 0.31524 0.18325 0.35296 0.0
C719 C 0.31154 0.19441 0.39222 0.0
H720 H 0.3214 0.15194 0.32329 0.0
C721 C 0.30822 0.18001 0.43173 0.0
H722 H 0.31793 0.19375 0.32191 0.0
C723 C 0.31025 0.15618 0.43252 0.0
C724 C 0.31561 0.14587 0.39383 0.0
H725 H 0.30514 0.18775 0.46261 0.0
H726 H 0.30864 0.14642 0.46398 0.0
C727 C 0.31723 0.15923 0.35376 0.0
C728 C 0.92871 0.15662 0.38497 0.0
C729 C 0.91099 0.14104 0.35049 0.0
H730 H 0.96658 0.19242 0.40352 0.0
C731 C 0.92008 0.14885 0.3069 0.0
H732 H 0.92249 0.15115 0.41895 0.0
C733 C 0.94529 0.1727 0.29806 0.0
C734 C 0.96225 0.18919 0.33254 0.0
H735 H 0.90706 0.13739 0.27949 0.0
H736 H 0.95094 0.17883 0.2641 0.0
C737 C 0.95411 0.18029 0.37611 0.0
C738 C 0.16626 0.57719 0.4119 0.0
C739 C 0.16596 0.55901 0.37967 0.0
H740 H 0.16548 0.61423 0.42547 0.0
C741 C 0.16848 0.56692 0.33522 0.0
H742 H 0.16453 0.57188 0.44648 0.0
C743 C 0.16883 0.59117 0.32317 0.0
C744 C 0.16698 0.60828 0.35524 0.0
H745 H 0.1684 0.55356 0.30948 0.0
H746 H 0.16909 0.59576 0.28849 0.0
C747 C 0.16691 0.60159 0.39985 0.0
C748 C 0.54004 0.58398 0.31452 0.0
C749 C 0.55942 0.5983 0.34791 0.0
H750 H 0.50075 0.54953 0.29742 0.0
C751 C 0.552 0.58945 0.39167 0.0
H752 H 0.54498 0.59023 0.28044 0.0
C753 C 0.52668 0.56583 0.40136 0.0
C754 C 0.50792 0.55064 0.36764 0.0
H755 H 0.56638 0.59985 0.41823 0.0
H756 H 0.52226 0.55888 0.43519 0.0
C757 C 0.51457 0.5606 0.32427 0.0
C758 C 0.49996 0.9605 0.29276 0.0
C759 C 0.48767 0.96043 0.33325 0.0
H760 H 0.53398 0.96135 0.25914 0.0
C761 C 0.50036 0.95866 0.37221 0.0
H762 H 0.49076 0.9615 0.26199 0.0
C763 C 0.5255 0.95844 0.3705 0.0
C764 C 0.53841 0.96004 0.32982 0.0
H765 H 0.49148 0.95852 0.40399 0.0
H766 H 0.53542 0.95832 0.40101 0.0
C767 C 0.52487 0.96034 0.29109 0.0
C768 C 0.60143 0.1339 0.67559 0.0
C769 C 0.61751 0.14121 0.63692 0.0
H770 H 0.56384 0.12701 0.70637 0.0
C771 C 0.60815 0.14919 0.5999 0.0
H772 H 0.60795 0.12759 0.70471 0.0
C773 C 0.58298 0.14893 0.60087 0.0
C774 C 0.56629 0.14055 0.63884 0.0
H775 H 0.61998 0.15507 0.56959 0.0
H776 H 0.57629 0.15463 0.57127 0.0
C777 C 0.57608 0.1335 0.6765 0.0
C778 C 0.96887 0.4726 0.64131 0.0
C779 C 0.96992 0.4665 0.68591 0.0
H780 H 0.96867 0.50106 0.59457 0.0
C781 C 0.9679 0.4835 0.71802 0.0
H782 H 0.97041 0.46003 0.61568 0.0
C783 C 0.96683 0.50701 0.70596 0.0
C784 C 0.96791 0.5143 0.66141 0.0
H785 H 0.96846 0.47937 0.75271 0.0
H786 H 0.96668 0.52026 0.73172 0.0
C787 C 0.96795 0.49624 0.62922 0.0
C788 C 0.5582 0.50332 0.71228 0.0
C789 C 0.58244 0.5032 0.70031 0.0
H790 H 0.51437 0.4799 0.72119 0.0
C791 C 0.58058 0.47791 0.68994 0.0
H792 H 0.55881 0.52236 0.72051 0.0
C793 C 0.55506 0.45349 0.69036 0.0
C794 C 0.53071 0.45372 0.70109 0.0
H795 H 0.59881 0.47698 0.68067 0.0
H796 H 0.55437 0.43453 0.68134 0.0
C797 C 0.53267 0.47891 0.71262 0.0
C798 C 0.75124 0.91311 0.63229 0.0
C799 C 0.77112 0.93934 0.6473 0.0
H800 H 0.73954 0.87092 0.62434 0.0
C801 C 0.79584 0.94277 0.66506 0.0
H802 H 0.73195 0.90959 0.61825 0.0
C803 C 0.80023 0.92029 0.66842 0.0
C804 C 0.77995 0.89394 0.65427 0.0
H805 H 0.81155 0.96264 0.67698 0.0
H806 H 0.81932 0.92348 0.6828 0.0
C807 C 0.75555 0.89078 0.63581 0.0
C808 C 0.17496 0.90553 0.69904 0.0
C809 C 0.15947 0.89445 0.66036 0.0
H810 H 0.21246 0.9374 0.72763 0.0
C811 C 0.16918 0.90963 0.62111 0.0
H812 H 0.16817 0.89444 0.72988 0.0
C813 C 0.19453 0.93415 0.6198 0.0
C814 C 0.21096 0.94431 0.65772 0.0
H815 H 0.15779 0.90194 0.59071 0.0
H816 H 0.20178 0.94452 0.58847 0.0
C817 C 0.20042 0.9302 0.69774 0.0
C818 C 0.17996 0.26724 0.76235 0.0
C819 C 0.19556 0.27358 0.72332 0.0
H820 H 0.14342 0.26189 0.79416 0.0
C821 C 0.18394 0.27688 0.68432 0.0
H822 H 0.18808 0.26437 0.79298 0.0
C823 C 0.15813 0.27554 0.68502 0.0
C824 C 0.14332 0.27079 0.72471 0.0
H825 H 0.19536 0.28182 0.65364 0.0
H826 H 0.15036 0.27939 0.65483 0.0
C827 C 0.15424 0.26583 0.76303 0.0
C828 C 0.12956 0.4795 0.19428 0.0
C829 C 0.12125 0.46027 0.22855 0.0
H830 H 0.14314 0.48922 0.12778 0.0
C831 C 0.11755 0.43403 0.21951 0.0
H832 H 0.13237 0.49977 0.19983 0.0
C833 C 0.12377 0.42788 0.17767 0.0
C834 C 0.13403 0.44799 0.14455 0.0
H835 H 0.11112 0.4187 0.24523 0.0
H836 H 0.12178 0.40797 0.1719 0.0
C837 C 0.13598 0.47349 0.15296 0.0
C838 C 0.68525 0.68716 0.19867 0.0
C839 C 0.66753 0.69329 0.22274 0.0
H840 H 0.71065 0.69558 0.1414 0.0
C841 C 0.66233 0.71377 0.20659 0.0
H842 H 0.68999 0.6718 0.21041 0.0
C843 C 0.67426 0.72755 0.16716 0.0
C844 C 0.69187 0.72136 0.14292 0.0
H845 H 0.64891 0.71918 0.22439 0.0
H846 H 0.66939 0.74283 0.15545 0.0
C847 C 0.69734 0.70109 0.15933 0.0
C848 C 0.37417 0.96201 0.16487 0.0
C849 C 0.35668 0.93479 0.15102 0.0
H850 H 0.39951 0.98856 0.21679 0.0
C851 C 0.34996 0.91337 0.18105 0.0
H852 H 0.37985 0.979 0.14246 0.0
C853 C 0.36145 0.9188 0.22304 0.0
C854 C 0.37987 0.94583 0.23639 0.0
H855 H 0.33649 0.89218 0.17167 0.0
H856 H 0.35616 0.90161 0.24481 0.0
C857 C 0.38562 0.96749 0.20727 0.0
C858 C 0.43924 0.11374 0.8697 0.0
C859 C 0.44462 0.13964 0.88485 0.0
H860 H 0.4439 0.09085 0.81692 0.0
C861 C 0.45734 0.16217 0.85608 0.0
H862 H 0.42947 0.09594 0.89104 0.0
C863 C 0.46611 0.15935 0.81442 0.0
C864 C 0.462 0.13384 0.8 0.0
H865 H 0.46175 0.1824 0.8664 0.0
H866 H 0.47654 0.17739 0.79369 0.0
C867 C 0.44766 0.11083 0.82743 0.0
C868 C 1.00161 0.35771 0.88366 0.0
C869 C 0.98494 0.36642 0.90475 0.0
H870 H 1.0257 0.36109 0.82645 0.0
C871 C 0.98211 0.38764 0.88556 0.0
H872 H 1.0045 0.34168 0.89796 0.0
C873 C 0.99452 0.39904 0.8453 0.0
C874 C 1.00991 0.38936 0.82282 0.0
H875 H 0.96991 0.39532 0.90134 0.0
H876 H 0.99107 0.41473 0.83104 0.0
C877 C 1.01391 0.36901 0.8429 0.0
C878 C 0.73244 0.60091 0.8484 0.0
C879 C 0.74635 0.6261 0.87109 0.0
H880 H 0.70681 0.57852 0.79382 0.0
C881 C 0.74607 0.64896 0.85311 0.0
H882 H 0.73224 0.58283 0.86113 0.0
C883 C 0.7315 0.64645 0.81421 0.0
C884 C 0.71676 0.621 0.79241 0.0
H885 H 0.75648 0.66862 0.86966 0.0
H886 H 0.73119 0.66437 0.80193 0.0
C887 C 0.71782 0.59839 0.80966 0.0
C888 C 1.01872 0.61388 0.86069 0.0
C889 C 1.01591 0.63485 0.8809 0.0
H890 H 1.02787 0.5991 0.80188 0.0
C891 C 1.02433 0.65937 0.85767 0.0
H892 H 1.013 0.59495 0.87805 0.0
C893 C 1.03297 0.6618 0.81367 0.0
C894 C 1.03342 0.63977 0.79227 0.0
H895 H 1.02267 0.676 0.87254 0.0
H896 H 1.03757 0.68025 0.79572 0.0
C897 C 1.02747 0.61634 0.81701 0.0
C898 C 0.42023 0.31091 0.87097 0.0
C899 C 0.41353 0.328 0.89536 0.0
H900 H 0.43362 0.30345 0.80924 0.0
C901 C 0.41107 0.34868 0.87313 0.0
H902 H 0.42196 0.29459 0.88683 0.0
C903 C 0.4178 0.35379 0.82833 0.0
C904 C 0.4272 0.33838 0.80529 0.0
H905 H 0.40581 0.36215 0.89091 0.0
H906 H 0.41747 0.37092 0.81266 0.0
C907 C 0.42706 0.3161 0.82649 0.0
C908 C 0.71731 0.08609 0.84177 0.0
C909 C 0.74147 0.10674 0.86195 0.0
H910 H 0.68887 0.07527 0.788 0.0
C911 C 0.75691 0.13197 0.84012 0.0
H912 H 0.70488 0.06639 0.85766 0.0
C913 C 0.74755 0.1371 0.80067 0.0
C914 C 0.72256 0.11712 0.78183 0.0
H915 H 0.77567 0.14829 0.85448 0.0
H916 H 0.75964 0.15711 0.78555 0.0
C917 C 0.70798 0.09122 0.80201 0.0
C918 C 0.66542 0.94935 0.16217 0.0
C919 C 0.6504 0.95392 0.12974 0.0
H920 H 0.67299 0.94927 0.23135 0.0
C921 C 0.63447 0.96595 0.14175 0.0
H922 H 0.6776 0.93988 0.15378 0.0
C923 C 0.63249 0.97211 0.18572 0.0
C924 C 0.64563 0.96541 0.21858 0.0
H925 H 0.62254 0.96952 0.1173 0.0
H926 H 0.61905 0.98014 0.19429 0.0
C927 C 0.66268 0.95464 0.20642 0.0
C928 C 0.13673 0.67395 0.1977 0.0
C929 C 0.12531 0.68626 0.22411 0.0
H930 H 0.15607 0.67447 0.13676 0.0
C931 C 0.1239 0.70887 0.20718 0.0
H932 H 0.13826 0.65661 0.20966 0.0
C933 C 0.13443 0.71937 0.16529 0.0
C934 C 0.14651 0.70744 0.13944 0.0
H935 H 0.11532 0.71895 0.22672 0.0
H936 H 0.13322 0.73688 0.1533 0.0
C937 C 0.14718 0.68439 0.15594 0.0
C938 C 0.42446 0.44919 0.19838 0.0
C939 C 0.41068 0.42628 0.22614 0.0
H940 H 0.42322 0.46923 0.13962 0.0
C941 C 0.3855 0.40389 0.2118 0.0
H942 H 0.44398 0.4667 0.20796 0.0
C943 C 0.37345 0.40535 0.1721 0.0
C944 C 0.38631 0.42931 0.14639 0.0
H945 H 0.37442 0.3858 0.23222 0.0
H946 H 0.35359 0.38832 0.16264 0.0
C947 C 0.41236 0.45075 0.15926 0.0
C948 C 0.78943 0.75539 0.52828 0.0
C949 C 0.80011 0.78 0.55254 0.0
H950 H 0.79273 0.7352 0.47042 0.0
C951 C 0.8242 0.80311 0.53712 0.0
H952 H 0.7709 0.73712 0.5391 0.0
C953 C 0.83675 0.80191 0.49784 0.0
C954 C 0.82555 0.7776 0.47276 0.0
H955 H 0.83306 0.82235 0.55486 0.0
H956 H 0.85495 0.82037 0.48662 0.0
C957 C 0.80196 0.75422 0.48885 0.0
C958 C 0.34071 0.05649 0.50806 0.0
C959 C 0.36523 0.06178 0.48673 0.0
H960 H 0.31218 1.03567 0.56053 0.0
C961 C 0.37993 0.04944 0.50312 0.0
H962 H 0.32854 0.06518 0.49581 0.0
C963 C 0.37073 1.0328 0.54076 0.0
C964 C 0.34603 1.02725 0.56155 0.0
H965 H 0.39844 0.05262 0.48667 0.0
H966 H 0.3827 1.02403 0.55344 0.0
C967 C 0.33102 0.03911 0.54462 0.0
C968 C 1.01119 0.26143 0.56249 0.0
C969 C 1.03711 0.28345 0.57452 0.0
H970 H 0.98123 0.24202 0.5118 0.0
C971 C 1.05129 0.30514 0.54462 0.0
H972 H 0.99937 0.24468 0.58512 0.0
C973 C 1.04072 0.30364 0.5022 0.0
C974 C 1.01577 0.28046 0.48913 0.0
H975 H 0.07113 0.32254 0.55317 0.0
H976 H 1.05285 0.31991 0.47899 0.0
C977 C 1.00063 0.25999 0.52044 0.0
C978 C 0.34416 0.33671 0.50284 0.0
C979 C 0.34943 0.31597 0.48811 0.0
H980 H 0.32488 0.34926 0.55185 0.0
C981 C 0.34157 0.29298 0.51511 0.0
H982 H 0.35 0.35477 0.48297 0.0
C983 C 0.32686 0.28968 0.5539 0.0
C984 C 0.31982 0.30939 0.56706 0.0
H985 H 0.34551 0.27674 0.50519 0.0
H986 H 0.32043 0.27121 0.57307 0.0
C987 C 0.32955 0.33349 0.5421 0.0
C988 C 0.73371 0.04408 0.5032 0.0
C989 C 0.74946 1.03666 0.52986 0.0
H990 H 0.73157 0.06233 0.44219 0.0
C991 C 0.77638 0.04407 0.51657 0.0
H992 H 0.71301 0.03892 0.513 0.0
C993 C 0.78738 0.05849 0.47752 0.0
C994 C 0.77147 0.06519 0.44999 0.0
H995 H 0.78925 0.03915 0.53684 0.0
H996 H 0.80807 0.06344 0.4681 0.0
C997 C 0.74444 0.05775 0.46307 0.0
C998 C 0.07213 0.74896 0.53727 0.0
C999 C 0.09426 0.77223 0.55689 0.0
H1000 H 1.04798 0.73157 0.47896 0.0
C1001 C 0.11094 0.7951 0.5304 0.0
H1002 H 1.05885 0.73097 0.55675 0.0
C1003 C 0.10456 0.79548 0.48614 0.0
C1004 C 0.08139 0.77299 0.46719 0.0
H1005 H 0.12825 0.81329 0.54428 0.0
H1006 H 0.11736 0.81387 0.46716 0.0
C1007 C 0.06577 0.74933 0.49276 0.0
C1008 C 0.13589 0.3872 0.85064 0.0
C1009 C 0.12707 0.37937 0.89438 0.0
H1010 H 0.13135 0.3751 0.78287 0.0
C1011 C 0.1062 0.3523 0.90284 0.0
H1012 H 0.1519 0.40793 0.8429 0.0
C1013 C 0.09442 0.33351 0.86835 0.0
C1014 C 0.1032 0.34135 0.82459 0.0
H1015 H 0.09885 0.34562 0.93607 0.0
H1016 H 0.07836 0.3128 0.8761 0.0
C1017 C 0.12408 0.36841 0.81613 0.0
C1018 C 0.75242 0.81116 0.88232 0.0
C1019 C 0.74128 0.78285 0.88869 0.0
H1020 H 0.7711 0.84468 0.83651 0.0
C1021 C 0.74452 0.76733 0.85539 0.0
H1022 H 0.74996 0.82351 0.90733 0.0
C1023 C 0.75696 0.7794 0.81529 0.0
C1024 C 0.76583 0.80719 0.80713 0.0
H1025 H 0.73611 0.74544 0.85953 0.0
H1026 H 0.7577 0.76642 0.7896 0.0
C1027 C 0.76438 0.82319 0.84168 0.0
C1028 C 0.31571 0.96463 0.88681 0.0
C1029 C 0.33757 0.9593 0.88163 0.0
H1030 H 0.28871 0.97619 0.85573 0.0
C1031 C 0.34878 0.96135 0.83932 0.0
H1032 H 0.30659 0.96319 0.91889 0.0
C1033 C 0.33853 0.96873 0.80308 0.0
C1034 C 0.31683 0.97429 0.80828 0.0
H1035 H 0.36562 0.95735 0.83408 0.0
H1036 H 0.34778 0.9703 0.77106 0.0
C1037 C 0.30547 0.97206 0.85053 0.0
C1038 C 0.4298 0.12331 0.19961 0.0
C1039 C 0.41837 0.12314 0.15827 0.0
H1040 H 0.42364 0.11838 0.26939 0.0
C1041 C 0.39119 0.11826 0.15648 0.0
H1042 H 0.45074 0.12709 0.20224 0.0
C1043 C 0.37569 0.11333 0.19508 0.0
C1044 C 0.38702 0.11319 0.23636 0.0
H1045 H 0.3818 0.11809 0.12525 0.0
H1046 H 0.3547 0.10937 0.19243 0.0
C1047 C 0.41432 0.11842 0.2382 0.0
C1048 C 1.03379 0.30549 0.17731 0.0
C1049 C 1.01702 0.29951 0.21498 0.0
H1050 H 1.03982 0.31721 0.10934 0.0
C1051 C 0.99252 0.30059 0.21197 0.0
H1052 H 1.05283 0.30487 0.17847 0.0
C1053 C 0.98494 0.30742 0.17211 0.0
C1054 C 1.00182 0.31358 0.1345 0.0
H1055 H 0.97912 0.29602 0.2403 0.0
H1056 H 0.96595 0.30816 0.17094 0.0
C1057 C 1.02635 0.31257 0.1376 0.0
C1058 C 0.81802 0.73248 0.16379 0.0
C1059 C 0.81607 0.72255 0.20706 0.0
H1060 H 0.81183 0.72306 0.09479 0.0
C1061 C 0.8056 0.6943 0.2131 0.0
H1062 H 0.82601 0.75413 0.15777 0.0
C1063 C 0.79739 0.67649 0.17688 0.0
C1064 C 0.79956 0.68644 0.13358 0.0
H1065 H 0.80377 0.6859 0.24581 0.0
H1066 H 0.78947 0.65485 0.18293 0.0
C1067 C 0.80996 0.71468 0.12753 0.0
C1068 C 1.00651 0.68953 0.21846 0.0
C1069 C 1.02883 0.71604 0.21101 0.0
H1070 H 0.97728 0.65088 0.19033 0.0
C1071 C 1.03931 0.72348 0.16794 0.0
H1072 H 0.99793 0.68314 0.25118 0.0
C1073 C 1.02747 0.70504 0.13302 0.0
C1074 C 1.00482 0.67871 0.1403 0.0
H1075 H 1.05657 0.74371 0.16097 0.0
H1076 H 1.03598 0.71153 0.10028 0.0
C1077 C 0.99464 0.67107 0.1835 0.0
C1078 C 0.37971 0.3213 0.21758 0.0
C1079 C 0.37284 0.29453 0.22997 0.0
H1080 H 0.39493 0.35176 0.16652 0.0
C1081 C 0.37648 0.27785 0.19945 0.0
H1082 H 0.3768 0.33452 0.24029 0.0
C1083 C 0.38703 0.28776 0.15753 0.0
C1084 C 0.39363 0.31438 0.14487 0.0
H1085 H 0.37125 0.2571 0.20801 0.0
H1086 H 0.38987 0.27447 0.1349 0.0
C1087 C 0.38975 0.33105 0.17522 0.0
C1088 C 0.80944 0.0919 0.15842 0.0
C1089 C 0.80408 0.09826 0.20084 0.0
H1090 H 0.80536 0.09497 0.08872 0.0
C1091 C 0.79019 0.11317 0.20492 0.0
H1092 H 0.82007 0.08039 0.15413 0.0
C1093 C 0.78201 0.12168 0.16752 0.0
C1094 C 0.78729 0.1153 0.12509 0.0
H1095 H 0.78578 0.11846 0.23704 0.0
H1096 H 0.77138 0.13317 0.17201 0.0
C1097 C 0.80102 0.10023 0.12091 0.0
C1098 C 0.69339 0.95748 0.78296 0.0
C1099 C 0.72198 0.97541 0.78543 0.0
H1100 H 0.65594 0.93202 0.81816 0.0
C1101 C 0.73484 0.98115 0.82693 0.0
H1102 H 0.68289 0.95261 0.75153 0.0
C1103 C 0.71943 0.96946 0.86516 0.0
C1104 C 0.69083 0.95163 0.86274 0.0
H1105 H 0.75687 0.99491 0.83004 0.0
H1106 H 0.72993 0.97451 0.89659 0.0
C1107 C 0.678 0.94564 0.8212 0.0
C1108 C 0.13993 0.77208 0.8097 0.0
C1109 C 0.13055 0.79072 0.8167 0.0
H1110 H 0.15471 0.74725 0.83843 0.0
C1111 C 0.12926 0.7989 0.86005 0.0
H1112 H 0.14118 0.76535 0.7768 0.0
C1113 C 0.13696 0.78841 0.89567 0.0
C1114 C 0.14618 0.76962 0.88856 0.0
H1115 H 0.12207 0.81323 0.86656 0.0
H1116 H 0.1356 0.79492 0.92869 0.0
C1117 C 0.14769 0.7617 0.84517 0.0
C1118 C 0.30718 0.37442 0.81825 0.0
C1119 C 0.3054 0.34871 0.82184 0.0
H1120 H 0.3148 0.41116 0.85112 0.0
C1121 C 0.30971 0.34019 0.86316 0.0
H1122 H 0.30388 0.38154 0.78695 0.0
C1123 C 0.31593 0.35713 0.90001 0.0
C1124 C 0.31796 0.38295 0.89634 0.0
H1125 H 0.30846 0.32046 0.86709 0.0
H1126 H 0.31944 0.35009 0.93123 0.0
C1127 C 0.31337 0.39135 0.85511 0.0
C1128 C 0.06346 0.45011 0.48957 0.0
C1129 C 0.09046 0.45551 0.49735 0.0
H1130 H 1.02414 0.43936 0.51721 0.0
C1131 C 0.09883 0.45547 0.541 0.0
H1132 H 1.05641 0.45015 0.45641 0.0
C1133 C 0.08034 0.44938 0.57599 0.0
C1134 C 1.05308 0.44315 0.56802 0.0
H1135 H 0.11956 0.4597 0.54817 0.0
H1136 H 0.0872 0.44885 0.6091 0.0
C1137 C 1.04498 0.44399 0.5245 0.0
C1138 C 0.69091 0.6242 0.52018 0.0
C1139 C 0.67197 0.60273 0.54733 0.0
H1140 H 0.69867 0.64396 0.45726 0.0
C1141 C 0.64717 0.58225 0.52861 0.0
H1142 H 0.71028 0.64024 0.53336 0.0
C1143 C 0.64042 0.58447 0.48504 0.0
C1144 C 0.65841 0.60708 0.45894 0.0
H1145 H 0.63213 0.56528 0.54834 0.0
H1146 H 0.62043 0.5692 0.47258 0.0
C1147 C 0.68427 0.62628 0.4764 0.0
C1148 C 0.43972 0.03888 0.55861 0.0
C1149 C 0.45175 0.06667 0.54701 0.0
H1150 H 0.42277 0.99754 0.53633 0.0
C1151 C 0.45606 0.0739 0.50211 0.0
H1152 H 0.43617 1.0326 0.59281 0.0
C1153 C 0.44845 0.05376 0.46956 0.0
C1154 C 0.43635 1.02597 0.48122 0.0
H1155 H 0.46539 0.09515 0.49198 0.0
H1156 H 0.45206 0.05999 0.43533 0.0
C1157 C 0.43208 1.01878 0.52611 0.0
C1158 C 0.66398 0.0594 0.4561 0.0
C1159 C 0.64131 1.03325 0.46456 0.0
H1160 H 0.6923 0.09911 0.48193 0.0
C1161 C 0.62959 1.02737 0.507 0.0
H1162 H 0.6736 0.06452 0.42388 0.0
C1163 C 0.64036 0.04709 0.54029 0.0
C1164 C 0.66307 0.0732 0.53195 0.0
H1165 H 0.61214 1.00741 0.51473 0.0
H1166 H 0.63087 0.04181 0.5726 0.0
C1167 C 0.67472 0.07919 0.48944 0.0
C1168 C 0.06205 0.60546 0.5248 0.0
C1169 C 1.04306 0.61261 0.54161 0.0
H1170 H 0.0872 0.60732 0.47027 0.0
C1171 C 1.03341 0.62599 0.51371 0.0
H1172 H 0.06974 0.59495 0.54519 0.0
C1173 C 1.04321 0.63284 0.47045 0.0
C1174 C 0.06303 0.62665 0.45427 0.0
H1175 H 1.01858 0.63159 0.52549 0.0
H1176 H 1.03604 0.64391 0.45032 0.0
C1177 C 0.07197 0.61246 0.48172 0.0
C1178 C 0.42202 0.39402 0.48696 0.0
C1179 C 0.44201 0.41632 0.46234 0.0
H1180 H 0.41265 0.37072 0.54683 0.0
C1181 C 0.46861 0.4323 0.47985 0.0
H1182 H 0.40131 0.38149 0.47441 0.0
C1183 C 0.47519 0.42597 0.5209 0.0
C1184 C 0.45516 0.4039 0.54579 0.0
H1185 H 0.48442 0.44966 0.46172 0.0
H1186 H 0.49596 0.43855 0.53334 0.0
C1187 C 0.42844 0.38803 0.52855 0.0
loop_
_geom_bond_atom_site_label_1
_geom_bond_atom_site_label_2
_geom_bond_distance
_geom_bond_site_symmetry_2
_ccdc_geom_bond_type
Mg0 O7 2.141 . S
Mg0 O8 2.048 1_554 S
Mg0 O9 2.048 . S
Mg0 O12 2.141 . S
C1 O2 1.313 . S
C1 O8 1.195 . S
O2 C1 1.313 . S
C3 O4 1.245 . S
C3 O12 1.289 . S
O4 C3 1.245 . S
C5 O6 1.245 . S
C5 O7 1.289 1_556 S
O6 C5 1.245 . S
O7 Mg0 2.141 . S
O7 C5 1.289 1_554 S
O8 Mg0 2.048 1_556 S
O8 C1 1.195 . S
O9 Mg0 2.048 . S
O9 C10 1.195 1_554 S
C10 O9 1.195 1_556 S
C10 O11 1.313 . S
O11 C10 1.313 . S
O12 Mg0 2.141 . S
O12 C3 1.289 . S
Mg13 O20 2.141 1_556 S
Mg13 O21 2.048 . S
Mg13 O22 2.048 . S
Mg13 O25 2.141 . S
C14 O15 1.313 1_556 S
C14 O21 1.195 . S
O15 C14 1.313 1_554 S
C16 O17 1.245 . S
C16 O25 1.289 1_554 S
O17 C16 1.245 . S
C18 O19 1.245 . S
C18 O20 1.289 . S
O19 C18 1.245 . S
O20 Mg13 2.141 1_554 S
O20 C18 1.289 . S
O21 Mg13 2.048 . S
O21 C14 1.195 . S
O22 Mg13 2.048 . S
O22 C23 1.195 . S
C23 O22 1.195 . S
C23 O24 1.313 . S
O24 C23 1.313 . S
O25 Mg13 2.141 . S
O25 C16 1.289 1_556 S
Mg26 O33 2.141 . S
Mg26 O34 2.048 1_554 S
Mg26 O35 2.048 . S
Mg26 O38 2.141 . S
C27 O28 1.313 . S
C27 O34 1.195 . S
O28 C27 1.313 . S
C29 O30 1.245 . S
C29 O38 1.289 . S
O30 C29 1.245 . S
C31 O32 1.245 . S
C31 O33 1.289 1_556 S
O32 C31 1.245 . S
O33 Mg26 2.141 . S
O33 C31 1.289 1_554 S
O34 Mg26 2.048 1_556 S
O34 C27 1.195 . S
O35 Mg26 2.048 . S
O35 C36 1.195 1_554 S
C36 O35 1.195 1_556 S
C36 O37 1.313 . S
O37 C36 1.313 . S
O38 Mg26 2.141 . S
O38 C29 1.289 . S
Mg39 O46 2.141 . S
Mg39 O47 2.048 1_556 S
Mg39 O48 2.048 . S
Mg39 O51 2.141 . S
C40 O41 1.313 . S
C40 O47 1.195 . S
O41 C40 1.313 . S
C42 O43 1.245 . S
C42 O51 1.289 . S
O43 C42 1.245 . S
C44 O45 1.245 . S
C44 O46 1.289 1_554 S
O45 C44 1.245 . S
O46 Mg39 2.141 . S
O46 C44 1.289 1_556 S
O47 Mg39 2.048 1_554 S
O47 C40 1.195 . S
O48 Mg39 2.048 . S
O48 C49 1.195 1_556 S
C49 O48 1.195 1_554 S
C49 O50 1.313 . S
O50 C49 1.313 . S
O51 Mg39 2.141 . S
O51 C42 1.289 . S
Mg52 O59 2.141 1_554 S
Mg52 O60 2.048 . S
Mg52 O61 2.048 . S
Mg52 O64 2.141 . S
C53 O54 1.313 1_554 S
C53 O60 1.195 . S
O54 C53 1.313 1_556 S
C55 O56 1.245 . S
C55 O64 1.289 1_556 S
O56 C55 1.245 . S
C57 O58 1.245 . S
C57 O59 1.289 . S
O58 C57 1.245 . S
O59 Mg52 2.141 1_556 S
O59 C57 1.289 . S
O60 Mg52 2.048 . S
O60 C53 1.195 . S
O61 Mg52 2.048 . S
O61 C62 1.195 . S
C62 O61 1.195 . S
C62 O63 1.313 . S
O63 C62 1.313 . S
O64 Mg52 2.141 . S
O64 C55 1.289 1_554 S
Mg65 O72 2.141 . S
Mg65 O73 2.048 1_556 S
Mg65 O74 2.048 . S
Mg65 O77 2.141 . S
C66 O67 1.313 . S
C66 O73 1.195 . S
O67 C66 1.313 . S
C68 O69 1.245 . S
C68 O77 1.289 . S
O69 C68 1.245 . S
C70 O71 1.245 . S
C70 O72 1.289 1_554 S
O71 C70 1.245 . S
O72 Mg65 2.141 . S
O72 C70 1.289 1_556 S
O73 Mg65 2.048 1_554 S
O73 C66 1.195 . S
O74 Mg65 2.048 . S
O74 C75 1.195 1_556 S
C75 O74 1.195 1_554 S
C75 O76 1.313 . S
O76 C75 1.313 . S
O77 Mg65 2.141 . S
O77 C68 1.289 . S
Mg78 O85 2.141 . S
Mg78 O86 2.048 . S
Mg78 O87 2.048 1_556 S
Mg78 O90 2.141 . S
C79 O80 1.313 . S
C79 O86 1.195 1_554 S
O80 C79 1.313 . S
C81 O82 1.245 . S
C81 O90 1.289 1_554 S
O82 C81 1.245 . S
C83 O84 1.245 . S
C83 O85 1.289 . S
O84 C83 1.245 . S
O85 Mg78 2.141 . S
O85 C83 1.289 . S
O86 Mg78 2.048 . S
O86 C79 1.195 1_556 S
O87 Mg78 2.048 1_554 S
O87 C88 1.195 . S
C88 O87 1.195 . S
C88 O89 1.313 . S
O89 C88 1.313 . S
O90 Mg78 2.141 . S
O90 C81 1.289 1_556 S
Mg91 O98 2.141 . S
Mg91 O99 2.048 . S
Mg91 O100 2.048 . S
Mg91 O103 2.141 1_554 S
C92 O93 1.313 . S
C92 O99 1.195 . S
O93 C92 1.313 . S
C94 O95 1.245 . S
C94 O103 1.289 . S
O95 C94 1.245 . S
C96 O97 1.245 . S
C96 O98 1.289 1_556 S
O97 C96 1.245 . S
O98 Mg91 2.141 . S
O98 C96 1.289 1_554 S
O99 Mg91 2.048 . S
O99 C92 1.195 . S
O100 Mg91 2.048 . S
O100 C101 1.195 . S
C101 O100 1.195 . S
C101 O102 1.313 1_554 S
O102 C101 1.313 1_556 S
O103 Mg91 2.141 1_556 S
O103 C94 1.289 . S
Mg104 O111 2.141 . S
Mg104 O112 2.048 . S
Mg104 O113 2.048 . S
Mg104 O116 2.141 1_554 S
C105 O106 1.313 . S
C105 O112 1.195 . S
O106 C105 1.313 . S
C107 O108 1.245 . S
C107 O116 1.289 . S
O108 C107 1.245 . S
C109 O110 1.245 . S
C109 O111 1.289 1_556 S
O110 C109 1.245 . S
O111 Mg104 2.141 . S
O111 C109 1.289 1_554 S
O112 Mg104 2.048 . S
O112 C105 1.195 . S
O113 Mg104 2.048 . S
O113 C114 1.195 . S
C114 O113 1.195 . S
C114 O115 1.313 1_554 S
O115 C114 1.313 1_556 S
O116 Mg104 2.141 1_556 S
O116 C107 1.289 . S
Mg117 O124 2.141 . S
Mg117 O125 2.048 . S
Mg117 O126 2.048 . S
Mg117 O129 2.141 1_556 S
C118 O119 1.313 . S
C118 O125 1.195 . S
O119 C118 1.313 . S
C120 O121 1.245 . S
C120 O129 1.289 . S
O121 C120 1.245 . S
C122 O123 1.245 . S
C122 O124 1.289 1_554 S
O123 C122 1.245 . S
O124 Mg117 2.141 . S
O124 C122 1.289 1_556 S
O125 Mg117 2.048 . S
O125 C118 1.195 . S
O126 Mg117 2.048 . S
O126 C127 1.195 . S
C127 O126 1.195 . S
C127 O128 1.313 1_556 S
O128 C127 1.313 1_554 S
O129 Mg117 2.141 1_554 S
O129 C120 1.289 . S
Mg130 O137 2.141 . S
Mg130 O138 2.048 . S
Mg130 O139 2.048 . S
Mg130 O142 2.141 1_556 S
C131 O132 1.313 . S
C131 O138 1.195 . S
O132 C131 1.313 . S
C133 O134 1.245 . S
C133 O142 1.289 . S
O134 C133 1.245 . S
C135 O136 1.245 . S
C135 O137 1.289 1_554 S
O136 C135 1.245 . S
O137 Mg130 2.141 . S
O137 C135 1.289 1_556 S
O138 Mg130 2.048 . S
O138 C131 1.195 . S
O139 Mg130 2.048 . S
O139 C140 1.195 . S
C140 O139 1.195 . S
C140 O141 1.313 1_556 S
O141 C140 1.313 1_554 S
O142 Mg130 2.141 1_554 S
O142 C133 1.289 . S
Mg143 O150 2.141 . S
Mg143 O151 2.048 . S
Mg143 O152 2.048 1_554 S
Mg143 O155 2.141 . S
C144 O145 1.313 . S
C144 O151 1.195 1_556 S
O145 C144 1.313 . S
C146 O147 1.245 . S
C146 O155 1.289 1_556 S
O147 C146 1.245 . S
C148 O149 1.245 . S
C148 O150 1.289 . S
O149 C148 1.245 . S
O150 Mg143 2.141 . S
O150 C148 1.289 . S
O151 Mg143 2.048 . S
O151 C144 1.195 1_554 S
O152 Mg143 2.048 1_556 S
O152 C153 1.195 . S
C153 O152 1.195 . S
C153 O154 1.313 . S
O154 C153 1.313 . S
O155 Mg143 2.141 . S
O155 C146 1.289 1_554 S
Mg156 O163 2.141 . S
Mg156 O164 2.048 . S
Mg156 O165 2.048 . S
Mg156 O168 2.141 . S
C157 O158 1.313 . S
C157 O164 1.195 . S
O158 C157 1.313 . S
C159 O160 1.245 . S
C159 O168 1.289 . S
O160 C159 1.245 . S
C161 O162 1.245 . S
C161 O163 1.289 . S
O162 C161 1.245 . S
O163 Mg156 2.141 . S
O163 C161 1.289 . S
O164 Mg156 2.048 . S
O164 C157 1.195 . S
O165 Mg156 2.048 . S
O165 C166 1.195 . S
C166 O165 1.195 . S
C166 O167 1.313 . S
O167 C166 1.313 . S
O168 Mg156 2.141 . S
O168 C159 1.289 . S
Mg169 O176 2.141 . S
Mg169 O177 2.048 1_545 S
Mg169 O178 2.048 . S
Mg169 O181 2.141 . S
C170 O171 1.313 1_565 S
C170 O177 1.195 . S
O171 C170 1.313 1_545 S
C172 O173 1.245 . S
C172 O181 1.289 . S
O173 C172 1.245 . S
C174 O175 1.245 . S
C174 O176 1.289 . S
O175 C174 1.245 . S
O176 Mg169 2.141 . S
O176 C174 1.289 . S
O177 Mg169 2.048 1_565 S
O177 C170 1.195 . S
O178 Mg169 2.048 . S
O178 C179 1.195 . S
C179 O178 1.195 . S
C179 O180 1.313 . S
O180 C179 1.313 . S
O181 Mg169 2.141 . S
O181 C172 1.289 . S
Mg182 O189 2.141 . S
Mg182 O190 2.048 . S
Mg182 O191 2.048 . S
Mg182 O194 2.141 . S
C183 O184 1.313 . S
C183 O190 1.195 . S
O184 C183 1.313 . S
C185 O186 1.245 1_655 S
C185 O194 1.289 . S
O186 C185 1.245 1_455 S
C187 O188 1.245 . S
C187 O189 1.289 . S
O188 C187 1.245 . S
O189 Mg182 2.141 . S
O189 C187 1.289 . S
O190 Mg182 2.048 . S
O190 C183 1.195 . S
O191 Mg182 2.048 . S
O191 C192 1.195 1_655 S
C192 O191 1.195 1_455 S
C192 O193 1.313 . S
O193 C192 1.313 . S
O194 Mg182 2.141 . S
O194 C185 1.289 . S
Mg195 O202 2.141 . S
Mg195 O203 2.048 . S
Mg195 O204 2.048 . S
Mg195 O207 2.141 . S
C196 O197 1.313 . S
C196 O203 1.195 . S
O197 C196 1.313 . S
C198 O199 1.245 . S
C198 O207 1.289 . S
O199 C198 1.245 . S
C200 O201 1.245 . S
C200 O202 1.289 . S
O201 C200 1.245 . S
O202 Mg195 2.141 . S
O202 C200 1.289 . S
O203 Mg195 2.048 . S
O203 C196 1.195 . S
O204 Mg195 2.048 . S
O204 C205 1.195 . S
C205 O204 1.195 . S
C205 O206 1.313 . S
O206 C205 1.313 . S
O207 Mg195 2.141 . S
O207 C198 1.289 . S
Mg208 O215 2.141 . S
Mg208 O216 2.048 . S
Mg208 O217 2.048 . S
Mg208 O220 2.141 . S
C209 O210 1.313 . S
C209 O216 1.195 . S
O210 C209 1.313 . S
C211 O212 1.245 . S
C211 O220 1.289 . S
O212 C211 1.245 . S
C213 O214 1.245 . S
C213 O215 1.289 . S
O214 C213 1.245 . S
O215 Mg208 2.141 . S
O215 C213 1.289 . S
O216 Mg208 2.048 . S
O216 C209 1.195 . S
O217 Mg208 2.048 . S
O217 C218 1.195 . S
C218 O217 1.195 . S
C218 O219 1.313 . S
O219 C218 1.313 . S
O220 Mg208 2.141 . S
O220 C211 1.289 . S
Mg221 O228 2.141 . S
Mg221 O229 2.048 . S
Mg221 O230 2.048 . S
Mg221 O233 2.141 . S
C222 O223 1.313 . S
C222 O229 1.195 . S
O223 C222 1.313 . S
C224 O225 1.245 . S
C224 O233 1.289 . S
O225 C224 1.245 . S
C226 O227 1.245 . S
C226 O228 1.289 . S
O227 C226 1.245 . S
O228 Mg221 2.141 . S
O228 C226 1.289 . S
O229 Mg221 2.048 . S
O229 C222 1.195 . S
O230 Mg221 2.048 . S
O230 C231 1.195 . S
C231 O230 1.195 . S
C231 O232 1.313 . S
O232 C231 1.313 . S
O233 Mg221 2.141 . S
O233 C224 1.289 . S
Mg234 O241 2.141 . S
Mg234 O242 2.048 . S
Mg234 O243 2.048 . S
Mg234 O246 2.141 . S
C235 O236 1.313 . S
C235 O242 1.195 . S
O236 C235 1.313 . S
C237 O238 1.245 . S
C237 O246 1.289 . S
O238 C237 1.245 . S
C239 O240 1.245 . S
C239 O241 1.289 . S
O240 C239 1.245 . S
O241 Mg234 2.141 . S
O241 C239 1.289 . S
O242 Mg234 2.048 . S
O242 C235 1.195 . S
O243 Mg234 2.048 . S
O243 C244 1.195 . S
C244 O243 1.195 . S
C244 O245 1.313 . S
O245 C244 1.313 . S
O246 Mg234 2.141 . S
O246 C237 1.289 . S
Mg247 O254 2.141 . S
Mg247 O255 2.048 . S
Mg247 O256 2.048 . S
Mg247 O259 2.141 . S
C248 O249 1.313 . S
C248 O255 1.195 . S
O249 C248 1.313 . S
C250 O251 1.245 . S
C250 O259 1.289 . S
O251 C250 1.245 . S
C252 O253 1.245 . S
C252 O254 1.289 . S
O253 C252 1.245 . S
O254 Mg247 2.141 . S
O254 C252 1.289 . S
O255 Mg247 2.048 . S
O255 C248 1.195 . S
O256 Mg247 2.048 . S
O256 C257 1.195 . S
C257 O256 1.195 . S
C257 O258 1.313 . S
O258 C257 1.313 . S
O259 Mg247 2.141 . S
O259 C250 1.289 . S
Mg260 O267 2.141 . S
Mg260 O268 2.048 . S
Mg260 O269 2.048 . S
Mg260 O272 2.141 . S
C261 O262 1.313 . S
C261 O268 1.195 . S
O262 C261 1.313 . S
C263 O264 1.245 . S
C263 O272 1.289 . S
O264 C263 1.245 . S
C265 O266 1.245 . S
C265 O267 1.289 . S
O266 C265 1.245 . S
O267 Mg260 2.141 . S
O267 C265 1.289 . S
O268 Mg260 2.048 . S
O268 C261 1.195 . S
O269 Mg260 2.048 . S
O269 C270 1.195 . S
C270 O269 1.195 . S
C270 O271 1.313 . S
O271 C270 1.313 . S
O272 Mg260 2.141 . S
O272 C263 1.289 . S
Mg273 O280 2.141 . S
Mg273 O281 2.048 . S
Mg273 O282 2.048 . S
Mg273 O285 2.141 . S
C274 O275 1.313 . S
C274 O281 1.195 . S
O275 C274 1.313 . S
C276 O277 1.245 . S
C276 O285 1.289 . S
O277 C276 1.245 . S
C278 O279 1.245 . S
C278 O280 1.289 . S
O279 C278 1.245 . S
O280 Mg273 2.141 . S
O280 C278 1.289 . S
O281 Mg273 2.048 . S
O281 C274 1.195 . S
O282 Mg273 2.048 . S
O282 C283 1.195 . S
C283 O282 1.195 . S
C283 O284 1.313 . S
O284 C283 1.313 . S
O285 Mg273 2.141 . S
O285 C276 1.289 . S
Mg286 O293 2.141 . S
Mg286 O294 2.048 . S
Mg286 O295 2.048 1_545 S
Mg286 O298 2.141 . S
C287 O288 1.313 . S
C287 O294 1.195 . S
O288 C287 1.313 . S
C289 O290 1.245 . S
C289 O298 1.289 . S
O290 C289 1.245 . S
C291 O292 1.245 . S
C291 O293 1.289 . S
O292 C291 1.245 . S
O293 Mg286 2.141 . S
O293 C291 1.289 . S
O294 Mg286 2.048 . S
O294 C287 1.195 . S
O295 Mg286 2.048 1_565 S
O295 C296 1.195 . S
C296 O295 1.195 . S
C296 O297 1.313 1_565 S
O297 C296 1.313 1_545 S
O298 Mg286 2.141 . S
O298 C289 1.289 . S
Mg299 O306 2.141 . S
Mg299 O307 2.048 . S
Mg299 O308 2.048 . S
Mg299 O311 2.141 . S
C300 O301 1.313 . S
C300 O307 1.195 1_455 S
O301 C300 1.313 . S
C302 O303 1.245 . S
C302 O311 1.289 . S
O303 C302 1.245 . S
C304 O305 1.245 1_655 S
C304 O306 1.289 . S
O305 C304 1.245 1_455 S
O306 Mg299 2.141 . S
O306 C304 1.289 . S
O307 Mg299 2.048 . S
O307 C300 1.195 1_655 S
O308 Mg299 2.048 . S
O308 C309 1.195 . S
C309 O308 1.195 . S
C309 O310 1.313 . S
O310 C309 1.313 . S
O311 Mg299 2.141 . S
O311 C302 1.289 . S
Mg312 O319 2.141 . S
Mg312 O320 2.048 . S
Mg312 O321 2.048 . S
Mg312 O324 2.141 . S
C313 O314 1.313 . S
C313 O320 1.195 . S
O314 C313 1.313 . S
C315 O316 1.245 . S
C315 O324 1.289 . S
O316 C315 1.245 . S
C317 O318 1.245 . S
C317 O319 1.289 . S
O318 C317 1.245 . S
O319 Mg312 2.141 . S
O319 C317 1.289 . S
O320 Mg312 2.048 . S
O320 C313 1.195 . S
O321 Mg312 2.048 . S
O321 C322 1.195 . S
C322 O321 1.195 . S
C322 O323 1.313 . S
O323 C322 1.313 . S
O324 Mg312 2.141 . S
O324 C315 1.289 . S
Mg325 O332 2.141 . S
Mg325 O333 2.048 . S
Mg325 O334 2.048 . S
Mg325 O337 2.141 . S
C326 O327 1.313 . S
C326 O333 1.195 . S
O327 C326 1.313 . S
C328 O329 1.245 . S
C328 O337 1.289 . S
O329 C328 1.245 . S
C330 O331 1.245 . S
C330 O332 1.289 . S
O331 C330 1.245 . S
O332 Mg325 2.141 . S
O332 C330 1.289 . S
O333 Mg325 2.048 . S
O333 C326 1.195 . S
O334 Mg325 2.048 . S
O334 C335 1.195 . S
C335 O334 1.195 . S
C335 O336 1.313 . S
O336 C335 1.313 . S
O337 Mg325 2.141 . S
O337 C328 1.289 . S
Mg338 O345 2.141 . S
Mg338 O346 2.048 . S
Mg338 O347 2.048 . S
Mg338 O350 2.141 . S
C339 O340 1.313 . S
C339 O346 1.195 . S
O340 C339 1.313 . S
C341 O342 1.245 . S
C341 O350 1.289 . S
O342 C341 1.245 . S
C343 O344 1.245 . S
C343 O345 1.289 . S
O344 C343 1.245 . S
O345 Mg338 2.141 . S
O345 C343 1.289 . S
O346 Mg338 2.048 . S
O346 C339 1.195 . S
O347 Mg338 2.048 . S
O347 C348 1.195 . S
C348 O347 1.195 . S
C348 O349 1.313 . S
O349 C348 1.313 . S
O350 Mg338 2.141 . S
O350 C341 1.289 . S
Mg351 O358 2.141 . S
Mg351 O359 2.048 . S
Mg351 O360 2.048 . S
Mg351 O363 2.141 . S
C352 O353 1.313 . S
C352 O359 1.195 . S
O353 C352 1.313 . S
C354 O355 1.245 . S
C354 O363 1.289 . S
O355 C354 1.245 . S
C356 O357 1.245 . S
C356 O358 1.289 . S
O357 C356 1.245 . S
O358 Mg351 2.141 . S
O358 C356 1.289 . S
O359 Mg351 2.048 . S
O359 C352 1.195 . S
O360 Mg351 2.048 . S
O360 C361 1.195 . S
C361 O360 1.195 . S
C361 O362 1.313 . S
O362 C361 1.313 . S
O363 Mg351 2.141 . S
O363 C354 1.289 . S
Mg364 O371 2.141 . S
Mg364 O372 2.048 1_565 S
Mg364 O373 2.048 . S
Mg364 O376 2.141 . S
C365 O366 1.313 1_545 S
C365 O372 1.195 . S
O366 C365 1.313 1_565 S
C367 O368 1.245 . S
C367 O376 1.289 . S
O368 C367 1.245 . S
C369 O370 1.245 . S
C369 O371 1.289 . S
O370 C369 1.245 . S
O371 Mg364 2.141 . S
O371 C369 1.289 . S
O372 Mg364 2.048 1_545 S
O372 C365 1.195 . S
O373 Mg364 2.048 . S
O373 C374 1.195 . S
C374 O373 1.195 . S
C374 O375 1.313 . S
O375 C374 1.313 . S
O376 Mg364 2.141 . S
O376 C367 1.289 . S
Mg377 O384 2.141 . S
Mg377 O385 2.048 . S
Mg377 O386 2.048 . S
Mg377 O389 2.141 . S
C378 O379 1.313 . S
C378 O385 1.195 . S
O379 C378 1.313 . S
C380 O381 1.245 1_455 S
C380 O389 1.289 . S
O381 C380 1.245 1_655 S
C382 O383 1.245 . S
C382 O384 1.289 . S
O383 C382 1.245 . S
O384 Mg377 2.141 . S
O384 C382 1.289 . S
O385 Mg377 2.048 . S
O385 C378 1.195 . S
O386 Mg377 2.048 . S
O386 C387 1.195 1_455 S
C387 O386 1.195 1_655 S
C387 O388 1.313 . S
O388 C387 1.313 . S
O389 Mg377 2.141 . S
O389 C380 1.289 . S
Mg390 O397 2.141 . S
Mg390 O398 2.048 . S
Mg390 O399 2.048 . S
Mg390 O402 2.141 . S
C391 O392 1.313 . S
C391 O398 1.195 . S
O392 C391 1.313 . S
C393 O394 1.245 . S
C393 O402 1.289 . S
O394 C393 1.245 . S
C395 O396 1.245 . S
C395 O397 1.289 . S
O396 C395 1.245 . S
O397 Mg390 2.141 . S
O397 C395 1.289 . S
O398 Mg390 2.048 . S
O398 C391 1.195 . S
O399 Mg390 2.048 . S
O399 C400 1.195 . S
C400 O399 1.195 . S
C400 O401 1.313 . S
O401 C400 1.313 . S
O402 Mg390 2.141 . S
O402 C393 1.289 . S
Mg403 O410 2.141 . S
Mg403 O411 2.048 . S
Mg403 O412 2.048 1_565 S
Mg403 O415 2.141 . S
C404 O405 1.313 . S
C404 O411 1.195 . S
O405 C404 1.313 . S
C406 O407 1.245 . S
C406 O415 1.289 . S
O407 C406 1.245 . S
C408 O409 1.245 . S
C408 O410 1.289 . S
O409 C408 1.245 . S
O410 Mg403 2.141 . S
O410 C408 1.289 . S
O411 Mg403 2.048 . S
O411 C404 1.195 . S
O412 Mg403 2.048 1_545 S
O412 C413 1.195 . S
C413 O412 1.195 . S
C413 O414 1.313 1_545 S
O414 C413 1.313 1_565 S
O415 Mg403 2.141 . S
O415 C406 1.289 . S
Mg416 O423 2.141 . S
Mg416 O424 2.048 . S
Mg416 O425 2.048 1_455 S
Mg416 O428 2.141 . S
C417 O418 1.313 . S
C417 O424 1.195 . S
O418 C417 1.313 . S
C419 O420 1.245 . S
C419 O428 1.289 . S
O420 C419 1.245 . S
C421 O422 1.245 . S
C421 O423 1.289 . S
O422 C421 1.245 . S
O423 Mg416 2.141 . S
O423 C421 1.289 . S
O424 Mg416 2.048 . S
O424 C417 1.195 . S
O425 Mg416 2.048 1_655 S
O425 C426 1.195 . S
C426 O425 1.195 . S
C426 O427 1.313 1_655 S
O427 C426 1.313 1_455 S
O428 Mg416 2.141 . S
O428 C419 1.289 . S
Mg429 O436 2.141 . S
Mg429 O437 2.048 . S
Mg429 O438 2.048 . S
Mg429 O441 2.141 . S
C430 O431 1.313 . S
C430 O437 1.195 . S
O431 C430 1.313 . S
C432 O433 1.245 . S
C432 O441 1.289 . S
O433 C432 1.245 . S
C434 O435 1.245 . S
C434 O436 1.289 . S
O435 C434 1.245 . S
O436 Mg429 2.141 . S
O436 C434 1.289 . S
O437 Mg429 2.048 . S
O437 C430 1.195 . S
O438 Mg429 2.048 . S
O438 C439 1.195 . S
C439 O438 1.195 . S
C439 O440 1.313 . S
O440 C439 1.313 . S
O441 Mg429 2.141 . S
O441 C432 1.289 . S
Mg442 O449 2.141 . S
Mg442 O450 2.048 . S
Mg442 O451 2.048 . S
Mg442 O454 2.141 . S
C443 O444 1.313 . S
C443 O450 1.195 . S
O444 C443 1.313 . S
C445 O446 1.245 . S
C445 O454 1.289 . S
O446 C445 1.245 . S
C447 O448 1.245 . S
C447 O449 1.289 . S
O448 C447 1.245 . S
O449 Mg442 2.141 . S
O449 C447 1.289 . S
O450 Mg442 2.048 . S
O450 C443 1.195 . S
O451 Mg442 2.048 . S
O451 C452 1.195 . S
C452 O451 1.195 . S
C452 O453 1.313 . S
O453 C452 1.313 . S
O454 Mg442 2.141 . S
O454 C445 1.289 . S
Mg455 O462 2.141 . S
Mg455 O463 2.048 . S
Mg455 O464 2.048 . S
Mg455 O467 2.141 . S
C456 O457 1.313 . S
C456 O463 1.195 . S
O457 C456 1.313 . S
C458 O459 1.245 . S
C458 O467 1.289 . S
O459 C458 1.245 . S
C460 O461 1.245 . S
C460 O462 1.289 . S
O461 C460 1.245 . S
O462 Mg455 2.141 . S
O462 C460 1.289 . S
O463 Mg455 2.048 . S
O463 C456 1.195 . S
O464 Mg455 2.048 . S
O464 C465 1.195 . S
C465 O464 1.195 . S
C465 O466 1.313 . S
O466 C465 1.313 . S
O467 Mg455 2.141 . S
O467 C458 1.289 . S
C468 C469 1.387 . S
C468 H472 0.950 . S
C468 C477 1.390 1_655 S
C469 C468 1.387 . S
C469 C471 1.387 1_554 S
H470 C477 0.950 . S
C471 C469 1.387 1_556 S
C471 C473 1.390 1_655 S
C471 H475 0.950 . S
H472 C468 0.950 . S
C473 C471 1.390 1_455 S
C473 C474 1.387 . S
C473 H476 0.950 . S
C474 C473 1.387 . S
C474 C477 1.387 1_556 S
H475 C471 0.950 . S
H476 C473 0.950 . S
C477 C468 1.390 1_455 S
C477 H470 0.950 . S
C477 C474 1.387 1_554 S
C478 C479 1.387 . S
C478 H482 0.950 . S
C478 C487 1.390 . S
C479 C478 1.387 . S
C479 C481 1.387 1_554 S
H480 C487 0.950 . S
C481 C479 1.387 1_556 S
C481 C483 1.390 . S
C481 H485 0.950 . S
H482 C478 0.950 . S
C483 C481 1.390 . S
C483 C484 1.387 . S
C483 H486 0.950 . S
C484 C483 1.387 . S
C484 C487 1.387 1_556 S
H485 C481 0.950 . S
H486 C483 0.950 . S
C487 C478 1.390 . S
C487 H480 0.950 . S
C487 C484 1.387 1_554 S
C488 C489 1.387 . S
C488 H492 0.950 . S
C488 C497 1.390 1_544 S
C489 C488 1.387 . S
C489 C491 1.387 . S
H490 C497 0.950 . S
C491 C489 1.387 . S
C491 C493 1.390 1_544 S
C491 H495 0.950 . S
H492 C488 0.950 . S
C493 C491 1.390 1_566 S
C493 C494 1.388 . S
C493 H496 0.950 . S
C494 C493 1.388 . S
C494 C497 1.388 . S
H495 C491 0.950 . S
H496 C493 0.950 . S
C497 C488 1.390 1_566 S
C497 H490 0.950 . S
C497 C494 1.388 . S
C498 C499 1.387 . S
C498 H502 0.950 . S
C498 C507 1.390 1_455 S
C499 C498 1.387 . S
C499 C501 1.387 1_556 S
H500 C507 0.950 . S
C501 C499 1.387 1_554 S
C501 C503 1.390 1_455 S
C501 H505 0.950 . S
H502 C498 0.950 . S
C503 C501 1.390 1_655 S
C503 C504 1.387 . S
C503 H506 0.950 . S
C504 C503 1.387 . S
C504 C507 1.387 1_554 S
H505 C501 0.950 . S
H506 C503 0.950 . S
C507 C498 1.390 1_655 S
C507 H500 0.950 . S
C507 C504 1.387 1_556 S
C508 C509 1.387 1_556 S
C508 H512 0.950 . S
C508 C517 1.390 . S
C509 C508 1.387 1_554 S
C509 C511 1.387 . S
H510 C517 0.950 . S
C511 C509 1.387 . S
C511 C513 1.390 . S
C511 H515 0.950 . S
H512 C508 0.950 . S
C513 C511 1.390 . S
C513 C514 1.387 1_554 S
C513 H516 0.950 . S
C514 C513 1.387 1_556 S
C514 C517 1.387 . S
H515 C511 0.950 . S
H516 C513 0.950 . S
C517 C508 1.390 . S
C517 H510 0.950 . S
C517 C514 1.387 . S
C518 C519 1.387 . S
C518 H522 0.950 . S
C518 C527 1.390 1_566 S
C519 C518 1.387 . S
C519 C521 1.387 . S
H520 C527 0.950 . S
C521 C519 1.387 . S
C521 C523 1.390 1_566 S
C521 H525 0.950 . S
H522 C518 0.950 . S
C523 C521 1.390 1_544 S
C523 C524 1.388 . S
C523 H526 0.950 . S
C524 C523 1.388 . S
C524 C527 1.388 . S
H525 C521 0.950 . S
H526 C523 0.950 . S
C527 C518 1.390 1_544 S
C527 H520 0.950 . S
C527 C524 1.388 . S
C528 C529 1.387 . S
C528 H532 0.950 . S
C528 C537 1.390 . S
C529 C528 1.387 . S
C529 C531 1.387 . S
H530 C537 0.950 . S
C531 C529 1.387 . S
C531 C533 1.390 . S
C531 H535 0.950 . S
H532 C528 0.950 . S
C533 C531 1.390 . S
C533 C534 1.387 . S
C533 H536 0.950 . S
C534 C533 1.387 . S
C534 C537 1.387 . S
H535 C531 0.950 . S
H536 C533 0.950 . S
C537 C528 1.390 . S
C537 H530 0.950 . S
C537 C534 1.387 . S
C538 C539 1.387 . S
C538 H542 0.950 . S
C538 C547 1.390 . S
C539 C538 1.387 . S
C539 C541 1.387 . S
H540 C547 0.950 . S
C541 C539 1.387 . S
C541 C543 1.390 . S
C541 H545 0.950 . S
H542 C538 0.950 . S
C543 C541 1.390 . S
C543 C544 1.387 . S
C543 H546 0.950 . S
C544 C543 1.387 . S
C544 C547 1.387 . S
H545 C541 0.950 . S
H546 C543 0.950 . S
C547 C538 1.390 . S
C547 H540 0.950 . S
C547 C544 1.387 . S
C548 C549 1.387 . S
C548 H552 0.950 . S
C548 C557 1.390 . S
C549 C548 1.387 . S
C549 C551 1.387 . S
H550 C557 0.950 . S
C551 C549 1.387 . S
C551 C553 1.390 . S
C551 H555 0.950 1_455 S
H552 C548 0.950 . S
C553 C551 1.390 . S
C553 C554 1.387 . S
C553 H556 0.950 . S
C554 C553 1.387 . S
C554 C557 1.387 . S
H555 C551 0.950 1_655 S
H556 C553 0.950 . S
C557 C548 1.390 . S
C557 H550 0.950 . S
C557 C554 1.387 . S
C558 C559 1.387 . S
C558 H562 0.950 . S
C558 C567 1.390 . S
C559 C558 1.387 . S
C559 C561 1.387 . S
H560 C567 0.950 . S
C561 C559 1.387 . S
C561 C563 1.390 . S
C561 H565 0.950 . S
H562 C558 0.950 . S
C563 C561 1.390 . S
C563 C564 1.387 . S
C563 H566 0.950 . S
C564 C563 1.387 . S
C564 C567 1.387 . S
H565 C561 0.950 . S
H566 C563 0.950 . S
C567 C558 1.390 . S
C567 H560 0.950 . S
C567 C564 1.387 . S
C568 C569 1.387 . S
C568 H572 0.950 . S
C568 C577 1.390 . S
C569 C568 1.387 . S
C569 C571 1.387 . S
H570 C577 0.950 . S
C571 C569 1.387 . S
C571 C573 1.390 . S
C571 H575 0.950 . S
H572 C568 0.950 . S
C573 C571 1.390 . S
C573 C574 1.387 . S
C573 H576 0.950 . S
C574 C573 1.387 . S
C574 C577 1.387 . S
H575 C571 0.950 . S
H576 C573 0.950 . S
C577 C568 1.390 . S
C577 H570 0.950 . S
C577 C574 1.387 . S
C578 C579 1.387 . S
C578 H582 0.950 . S
C578 C587 1.390 . S
C579 C578 1.387 . S
C579 C581 1.387 . S
H580 C587 0.950 . S
C581 C579 1.387 . S
C581 C583 1.390 . S
C581 H585 0.950 . S
H582 C578 0.950 . S
C583 C581 1.390 . S
C583 C584 1.387 . S
C583 H586 0.950 . S
C584 C583 1.387 . S
C584 C587 1.387 . S
H585 C581 0.950 . S
H586 C583 0.950 . S
C587 C578 1.390 . S
C587 H580 0.950 . S
C587 C584 1.387 . S
C588 C589 1.387 . S
C588 H592 0.950 . S
C588 C597 1.390 . S
C589 C588 1.387 . S
C589 C591 1.387 . S
H590 C597 0.950 . S
C591 C589 1.387 . S
C591 C593 1.390 . S
C591 H595 0.950 . S
H592 C588 0.950 . S
C593 C591 1.390 . S
C593 C594 1.387 . S
C593 H596 0.950 . S
C594 C593 1.387 . S
C594 C597 1.387 . S
H595 C591 0.950 . S
H596 C593 0.950 . S
C597 C588 1.390 . S
C597 H590 0.950 . S
C597 C594 1.387 . S
C598 C599 1.387 . S
C598 H602 0.950 . S
C598 C607 1.390 . S
C599 C598 1.387 . S
C599 C601 1.387 . S
H600 C607 0.950 . S
C601 C599 1.387 . S
C601 C603 1.390 . S
C601 H605 0.950 . S
H602 C598 0.950 . S
C603 C601 1.390 . S
C603 C604 1.387 . S
C603 H606 0.950 . S
C604 C603 1.387 . S
C604 C607 1.387 . S
H605 C601 0.950 . S
H606 C603 0.950 . S
C607 C598 1.390 . S
C607 H600 0.950 . S
C607 C604 1.387 . S
C608 C609 1.387 . S
C608 H612 0.950 . S
C608 C617 1.390 . S
C609 C608 1.387 . S
C609 C611 1.387 . S
H610 C617 0.950 . S
C611 C609 1.387 . S
C611 C613 1.390 . S
C611 H615 0.950 . S
H612 C608 0.950 . S
C613 C611 1.390 . S
C613 C614 1.387 . S
C613 H616 0.950 . S
C614 C613 1.387 . S
C614 C617 1.387 . S
H615 C611 0.950 . S
H616 C613 0.950 . S
C617 C608 1.390 . S
C617 H610 0.950 . S
C617 C614 1.387 . S
C618 C619 1.387 . S
C618 H622 0.950 . S
C618 C627 1.390 . S
C619 C618 1.387 . S
C619 C621 1.387 . S
H620 C627 0.950 . S
C621 C619 1.387 . S
C621 C623 1.390 . S
C621 H625 0.950 . S
H622 C618 0.950 . S
C623 C621 1.390 . S
C623 C624 1.387 . S
C623 H626 0.950 . S
C624 C623 1.387 . S
C624 C627 1.387 . S
H625 C621 0.950 . S
H626 C623 0.950 . S
C627 C618 1.390 . S
C627 H620 0.950 . S
C627 C624 1.387 . S
C628 C629 1.387 . S
C628 H632 0.950 . S
C628 C637 1.390 . S
C629 C628 1.387 . S
C629 C631 1.387 . S
H630 C637 0.950 . S
C631 C629 1.387 . S
C631 C633 1.390 . S
C631 H635 0.952 . S
H632 C628 0.950 . S
C633 C631 1.390 . S
C633 C634 1.387 . S
C633 H636 0.950 . S
C634 C633 1.387 . S
C634 C637 1.387 . S
H635 C631 0.952 . S
H636 C633 0.950 . S
C637 C628 1.390 . S
C637 H630 0.950 . S
C637 C634 1.387 . S
C638 C639 1.387 . S
C638 H642 0.950 . S
C638 C647 1.390 . S
C639 C638 1.387 . S
C639 C641 1.387 . S
H640 C647 0.950 . S
C641 C639 1.387 . S
C641 C643 1.390 . S
C641 H645 0.950 . S
H642 C638 0.950 . S
C643 C641 1.390 . S
C643 C644 1.387 . S
C643 H646 0.950 . S
C644 C643 1.387 . S
C644 C647 1.387 . S
H645 C641 0.950 . S
H646 C643 0.950 . S
C647 C638 1.390 . S
C647 H640 0.950 . S
C647 C644 1.387 . S
C648 C649 1.387 1_554 S
C648 H652 0.950 . S
C648 C657 1.390 . S
C649 C648 1.387 1_556 S
C649 C651 1.387 . S
H650 C657 0.950 . S
C651 C649 1.387 . S
C651 C653 1.390 . S
C651 H655 0.950 . S
H652 C648 0.950 . S
C653 C651 1.390 . S
C653 C654 1.387 . S
C653 H656 0.950 . S
C654 C653 1.387 . S
C654 C657 1.387 1_556 S
H655 C651 0.950 . S
H656 C653 0.950 . S
C657 C648 1.390 . S
C657 H650 0.950 . S
C657 C654 1.387 1_554 S
C658 C659 1.387 . S
C658 H662 0.950 . S
C658 C667 1.390 . S
C659 C658 1.387 . S
C659 C661 1.387 1_556 S
H660 C667 0.950 . S
C661 C659 1.387 1_554 S
C661 C663 1.390 . S
C661 H665 0.950 . S
H662 C658 0.950 . S
C663 C661 1.390 . S
C663 C664 1.387 1_554 S
C663 H666 0.950 . S
C664 C663 1.387 1_556 S
C664 C667 1.387 . S
H665 C661 0.950 . S
H666 C663 0.950 . S
C667 C658 1.390 . S
C667 H660 0.950 . S
C667 C664 1.387 . S
C668 C669 1.387 1_554 S
C668 H672 0.950 . S
C668 C677 1.390 . S
C669 C668 1.387 1_556 S
C669 C671 1.387 . S
H670 C677 0.950 . S
C671 C669 1.387 . S
C671 C673 1.390 . S
C671 H675 0.950 . S
H672 C668 0.950 . S
C673 C671 1.390 . S
C673 C674 1.387 . S
C673 H676 0.950 . S
C674 C673 1.387 . S
C674 C677 1.387 1_556 S
H675 C671 0.950 . S
H676 C673 0.950 . S
C677 C668 1.390 . S
C677 H670 0.950 . S
C677 C674 1.387 1_554 S
C678 C679 1.387 1_556 S
C678 H682 0.950 . S
C678 C687 1.390 . S
C679 C678 1.387 1_554 S
C679 C681 1.387 . S
H680 C687 0.950 . S
C681 C679 1.387 . S
C681 C683 1.390 . S
C681 H685 0.950 . S
H682 C678 0.950 . S
C683 C681 1.390 . S
C683 C684 1.387 . S
C683 H686 0.950 . S
C684 C683 1.387 . S
C684 C687 1.387 1_554 S
H685 C681 0.950 . S
H686 C683 0.950 . S
C687 C678 1.390 . S
C687 H680 0.950 . S
C687 C684 1.387 1_556 S
C688 C689 1.387 1_556 S
C688 H692 0.950 . S
C688 C697 1.390 . S
C689 C688 1.387 1_554 S
C689 C691 1.387 . S
H690 C697 0.950 . S
C691 C689 1.387 . S
C691 C693 1.390 . S
C691 H695 0.950 . S
H692 C688 0.950 . S
C693 C691 1.390 . S
C693 C694 1.387 . S
C693 H696 0.950 . S
C694 C693 1.387 . S
C694 C697 1.387 1_554 S
H695 C691 0.950 . S
H696 C693 0.950 . S
C697 C688 1.390 . S
C697 H690 0.950 . S
C697 C694 1.387 1_556 S
C698 C699 1.387 . S
C698 H702 0.950 . S
C698 C707 1.390 . S
C699 C698 1.387 . S
C699 C701 1.387 1_554 S
H700 C707 0.950 . S
C701 C699 1.387 1_556 S
C701 C703 1.390 . S
C701 H705 0.950 . S
H702 C698 0.950 . S
C703 C701 1.390 . S
C703 C704 1.387 1_556 S
C703 H706 0.950 . S
C704 C703 1.387 1_554 S
C704 C707 1.387 . S
H705 C701 0.950 . S
H706 C703 0.950 . S
C707 C698 1.390 . S
C707 H700 0.950 . S
C707 C704 1.387 . S
C708 C709 1.387 . S
C708 H712 0.950 . S
C708 C717 1.390 . S
C709 C708 1.387 . S
C709 C711 1.387 . S
H710 C717 0.950 . S
C711 C709 1.387 . S
C711 C713 1.390 . S
C711 H715 0.950 . S
H712 C708 0.950 . S
C713 C711 1.390 . S
C713 C714 1.387 . S
C713 H716 0.950 . S
C714 C713 1.387 . S
C714 C717 1.387 . S
H715 C711 0.950 . S
H716 C713 0.950 . S
C717 C708 1.390 . S
C717 H710 0.950 . S
C717 C714 1.387 . S
C718 C719 1.387 . S
C718 H722 0.950 . S
C718 C727 1.390 . S
C719 C718 1.387 . S
C719 C721 1.387 . S
H720 C727 0.950 . S
C721 C719 1.387 . S
C721 C723 1.390 . S
C721 H725 0.950 . S
H722 C718 0.950 . S
C723 C721 1.390 . S
C723 C724 1.387 . S
C723 H726 0.950 . S
C724 C723 1.387 . S
C724 C727 1.387 . S
H725 C721 0.950 . S
H726 C723 0.950 . S
C727 C718 1.390 . S
C727 H720 0.950 . S
C727 C724 1.387 . S
C728 C729 1.387 . S
C728 H732 0.950 . S
C728 C737 1.390 . S
C729 C728 1.387 . S
C729 C731 1.387 . S
H730 C737 0.950 . S
C731 C729 1.387 . S
C731 C733 1.390 . S
C731 H735 0.950 . S
H732 C728 0.950 . S
C733 C731 1.390 . S
C733 C734 1.387 . S
C733 H736 0.950 . S
C734 C733 1.387 . S
C734 C737 1.387 . S
H735 C731 0.950 . S
H736 C733 0.950 . S
C737 C728 1.390 . S
C737 H730 0.950 . S
C737 C734 1.387 . S
C738 C739 1.387 . S
C738 H742 0.950 . S
C738 C747 1.390 . S
C739 C738 1.387 . S
C739 C741 1.387 . S
H740 C747 0.950 . S
C741 C739 1.387 . S
C741 C743 1.390 . S
C741 H745 0.950 . S
H742 C738 0.950 . S
C743 C741 1.390 . S
C743 C744 1.387 . S
C743 H746 0.950 . S
C744 C743 1.387 . S
C744 C747 1.387 . S
H745 C741 0.950 . S
H746 C743 0.950 . S
C747 C738 1.390 . S
C747 H740 0.950 . S
C747 C744 1.387 . S
C748 C749 1.387 . S
C748 H752 0.950 . S
C748 C757 1.390 . S
C749 C748 1.387 . S
C749 C751 1.387 . S
H750 C757 0.950 . S
C751 C749 1.387 . S
C751 C753 1.390 . S
C751 H755 0.950 . S
H752 C748 0.950 . S
C753 C751 1.390 . S
C753 C754 1.387 . S
C753 H756 0.950 . S
C754 C753 1.387 . S
C754 C757 1.387 . S
H755 C751 0.950 . S
H756 C753 0.950 . S
C757 C748 1.390 . S
C757 H750 0.950 . S
C757 C754 1.387 . S
C758 C759 1.387 . S
C758 H762 0.950 . S
C758 C767 1.390 . S
C759 C758 1.387 . S
C759 C761 1.387 . S
H760 C767 0.950 . S
C761 C759 1.387 . S
C761 C763 1.390 . S
C761 H765 0.950 . S
H762 C758 0.950 . S
C763 C761 1.390 . S
C763 C764 1.387 . S
C763 H766 0.950 . S
C764 C763 1.387 . S
C764 C767 1.387 . S
H765 C761 0.950 . S
H766 C763 0.950 . S
C767 C758 1.390 . S
C767 H760 0.950 . S
C767 C764 1.387 . S
C768 C769 1.387 . S
C768 H772 0.950 . S
C768 C777 1.390 . S
C769 C768 1.387 . S
C769 C771 1.387 . S
H770 C777 0.950 . S
C771 C769 1.387 . S
C771 C773 1.390 . S
C771 H775 0.950 . S
H772 C768 0.950 . S
C773 C771 1.390 . S
C773 C774 1.387 . S
C773 H776 0.950 . S
C774 C773 1.387 . S
C774 C777 1.387 . S
H775 C771 0.950 . S
H776 C773 0.950 . S
C777 C768 1.390 . S
C777 H770 0.950 . S
C777 C774 1.387 . S
C778 C779 1.387 . S
C778 H782 0.950 . S
C778 C787 1.390 . S
C779 C778 1.387 . S
C779 C781 1.387 . S
H780 C787 0.950 . S
C781 C779 1.387 . S
C781 C783 1.390 . S
C781 H785 0.950 . S
H782 C778 0.950 . S
C783 C781 1.390 . S
C783 C784 1.387 . S
C783 H786 0.950 . S
C784 C783 1.387 . S
C784 C787 1.387 . S
H785 C781 0.950 . S
H786 C783 0.950 . S
C787 C778 1.390 . S
C787 H780 0.950 . S
C787 C784 1.387 . S
C788 C789 1.387 . S
C788 H792 0.950 . S
C788 C797 1.390 . S
C789 C788 1.387 . S
C789 C791 1.387 . S
H790 C797 0.950 . S
C791 C789 1.387 . S
C791 C793 1.390 . S
C791 H795 0.950 . S
H792 C788 0.950 . S
C793 C791 1.390 . S
C793 C794 1.387 . S
C793 H796 0.950 . S
C794 C793 1.387 . S
C794 C797 1.387 . S
H795 C791 0.950 . S
H796 C793 0.950 . S
C797 C788 1.390 . S
C797 H790 0.950 . S
C797 C794 1.387 . S
C798 C799 1.387 . S
C798 H802 0.950 . S
C798 C807 1.390 . S
C799 C798 1.387 . S
C799 C801 1.387 . S
H800 C807 0.950 . S
C801 C799 1.387 . S
C801 C803 1.390 . S
C801 H805 0.950 . S
H802 C798 0.950 . S
C803 C801 1.390 . S
C803 C804 1.387 . S
C803 H806 0.950 . S
C804 C803 1.387 . S
C804 C807 1.387 . S
H805 C801 0.950 . S
H806 C803 0.950 . S
C807 C798 1.390 . S
C807 H800 0.950 . S
C807 C804 1.387 . S
C808 C809 1.387 . S
C808 H812 0.950 . S
C808 C817 1.390 . S
C809 C808 1.387 . S
C809 C811 1.387 . S
H810 C817 0.950 . S
C811 C809 1.387 . S
C811 C813 1.390 . S
C811 H815 0.950 . S
H812 C808 0.950 . S
C813 C811 1.390 . S
C813 C814 1.387 . S
C813 H816 0.950 . S
C814 C813 1.387 . S
C814 C817 1.387 . S
H815 C811 0.950 . S
H816 C813 0.950 . S
C817 C808 1.390 . S
C817 H810 0.950 . S
C817 C814 1.387 . S
C818 C819 1.387 . S
C818 H822 0.950 . S
C818 C827 1.390 . S
C819 C818 1.387 . S
C819 C821 1.387 . S
H820 C827 0.950 . S
C821 C819 1.387 . S
C821 C823 1.390 . S
C821 H825 0.950 . S
H822 C818 0.950 . S
C823 C821 1.390 . S
C823 C824 1.387 . S
C823 H826 0.950 . S
C824 C823 1.387 . S
C824 C827 1.387 . S
H825 C821 0.950 . S
H826 C823 0.950 . S
C827 C818 1.390 . S
C827 H820 0.950 . S
C827 C824 1.387 . S
C828 C829 1.387 . S
C828 H832 0.950 . S
C828 C837 1.390 . S
C829 C828 1.387 . S
C829 C831 1.387 . S
H830 C837 0.950 . S
C831 C829 1.387 . S
C831 C833 1.390 . S
C831 H835 0.950 . S
H832 C828 0.950 . S
C833 C831 1.390 . S
C833 C834 1.387 . S
C833 H836 0.950 . S
C834 C833 1.387 . S
C834 C837 1.387 . S
H835 C831 0.950 . S
H836 C833 0.950 . S
C837 C828 1.390 . S
C837 H830 0.950 . S
C837 C834 1.387 . S
C838 C839 1.387 . S
C838 H842 0.950 . S
C838 C847 1.390 . S
C839 C838 1.387 . S
C839 C841 1.387 . S
H840 C847 0.950 . S
C841 C839 1.387 . S
C841 C843 1.390 . S
C841 H845 0.950 . S
H842 C838 0.950 . S
C843 C841 1.390 . S
C843 C844 1.387 . S
C843 H846 0.950 . S
C844 C843 1.387 . S
C844 C847 1.387 . S
H845 C841 0.950 . S
H846 C843 0.950 . S
C847 C838 1.390 . S
C847 H840 0.950 . S
C847 C844 1.387 . S
C848 C849 1.387 . S
C848 H852 0.950 . S
C848 C857 1.390 . S
C849 C848 1.387 . S
C849 C851 1.387 . S
H850 C857 0.950 . S
C851 C849 1.387 . S
C851 C853 1.390 . S
C851 H855 0.950 . S
H852 C848 0.950 . S
C853 C851 1.390 . S
C853 C854 1.387 . S
C853 H856 0.950 . S
C854 C853 1.387 . S
C854 C857 1.387 . S
H855 C851 0.950 . S
H856 C853 0.950 . S
C857 C848 1.390 . S
C857 H850 0.950 . S
C857 C854 1.387 . S
C858 C859 1.387 . S
C858 H862 0.950 . S
C858 C867 1.390 . S
C859 C858 1.387 . S
C859 C861 1.387 . S
H860 C867 0.950 . S
C861 C859 1.387 . S
C861 C863 1.390 . S
C861 H865 0.950 . S
H862 C858 0.950 . S
C863 C861 1.390 . S
C863 C864 1.387 . S
C863 H866 0.950 . S
C864 C863 1.387 . S
C864 C867 1.387 . S
H865 C861 0.950 . S
H866 C863 0.950 . S
C867 C858 1.390 . S
C867 H860 0.950 . S
C867 C864 1.387 . S
C868 C869 1.387 . S
C868 H872 0.950 . S
C868 C877 1.390 . S
C869 C868 1.387 . S
C869 C871 1.387 . S
H870 C877 0.950 . S
C871 C869 1.387 . S
C871 C873 1.390 . S
C871 H875 0.950 . S
H872 C868 0.950 . S
C873 C871 1.390 . S
C873 C874 1.387 . S
C873 H876 0.950 . S
C874 C873 1.387 . S
C874 C877 1.387 . S
H875 C871 0.950 . S
H876 C873 0.950 . S
C877 C868 1.390 . S
C877 H870 0.950 . S
C877 C874 1.387 . S
C878 C879 1.387 . S
C878 H882 0.950 . S
C878 C887 1.390 . S
C879 C878 1.387 . S
C879 C881 1.387 . S
H880 C887 0.950 . S
C881 C879 1.387 . S
C881 C883 1.390 . S
C881 H885 0.950 . S
H882 C878 0.950 . S
C883 C881 1.390 . S
C883 C884 1.387 . S
C883 H886 0.950 . S
C884 C883 1.387 . S
C884 C887 1.387 . S
H885 C881 0.950 . S
H886 C883 0.950 . S
C887 C878 1.390 . S
C887 H880 0.950 . S
C887 C884 1.387 . S
C888 C889 1.387 . S
C888 H892 0.950 . S
C888 C897 1.390 . S
C889 C888 1.387 . S
C889 C891 1.387 . S
H890 C897 0.950 . S
C891 C889 1.387 . S
C891 C893 1.390 . S
C891 H895 0.950 . S
H892 C888 0.950 . S
C893 C891 1.390 . S
C893 C894 1.387 . S
C893 H896 0.950 . S
C894 C893 1.387 . S
C894 C897 1.387 . S
H895 C891 0.950 . S
H896 C893 0.950 . S
C897 C888 1.390 . S
C897 H890 0.950 . S
C897 C894 1.387 . S
C898 C899 1.387 . S
C898 H902 0.950 . S
C898 C907 1.390 . S
C899 C898 1.387 . S
C899 C901 1.387 . S
H900 C907 0.950 . S
C901 C899 1.387 . S
C901 C903 1.390 . S
C901 H905 0.950 . S
H902 C898 0.950 . S
C903 C901 1.390 . S
C903 C904 1.387 . S
C903 H906 0.950 . S
C904 C903 1.387 . S
C904 C907 1.387 . S
H905 C901 0.950 . S
H906 C903 0.950 . S
C907 C898 1.390 . S
C907 H900 0.950 . S
C907 C904 1.387 . S
C908 C909 1.387 . S
C908 H912 0.950 . S
C908 C917 1.390 . S
C909 C908 1.387 . S
C909 C911 1.387 . S
H910 C917 0.950 . S
C911 C909 1.387 . S
C911 C913 1.390 . S
C911 H915 0.950 . S
H912 C908 0.950 . S
C913 C911 1.390 . S
C913 C914 1.387 . S
C913 H916 0.950 . S
C914 C913 1.387 . S
C914 C917 1.387 . S
H915 C911 0.950 . S
H916 C913 0.950 . S
C917 C908 1.390 . S
C917 H910 0.950 . S
C917 C914 1.387 . S
C918 C919 1.387 . S
C918 H922 0.950 . S
C918 C927 1.390 . S
C919 C918 1.387 . S
C919 C921 1.387 . S
H920 C927 0.950 . S
C921 C919 1.387 . S
C921 C923 1.390 . S
C921 H925 0.950 . S
H922 C918 0.950 . S
C923 C921 1.390 . S
C923 C924 1.387 . S
C923 H926 0.950 . S
C924 C923 1.387 . S
C924 C927 1.387 . S
H925 C921 0.950 . S
H926 C923 0.950 . S
C927 C918 1.390 . S
C927 H920 0.950 . S
C927 C924 1.387 . S
C928 C929 1.387 . S
C928 H932 0.950 . S
C928 C937 1.390 . S
C929 C928 1.387 . S
C929 C931 1.387 . S
H930 C937 0.950 . S
C931 C929 1.387 . S
C931 C933 1.390 . S
C931 H935 0.950 . S
H932 C928 0.950 . S
C933 C931 1.390 . S
C933 C934 1.387 . S
C933 H936 0.950 . S
C934 C933 1.387 . S
C934 C937 1.387 . S
H935 C931 0.950 . S
H936 C933 0.950 . S
C937 C928 1.390 . S
C937 H930 0.950 . S
C937 C934 1.387 . S
C938 C939 1.387 . S
C938 H942 0.950 . S
C938 C947 1.390 . S
C939 C938 1.387 . S
C939 C941 1.387 . S
H940 C947 0.950 . S
C941 C939 1.387 . S
C941 C943 1.390 . S
C941 H945 0.950 . S
H942 C938 0.950 . S
C943 C941 1.390 . S
C943 C944 1.387 . S
C943 H946 0.950 . S
C944 C943 1.387 . S
C944 C947 1.387 . S
H945 C941 0.950 . S
H946 C943 0.950 . S
C947 C938 1.390 . S
C947 H940 0.950 . S
C947 C944 1.387 . S
C948 C949 1.387 . S
C948 H952 0.950 . S
C948 C957 1.390 . S
C949 C948 1.387 . S
C949 C951 1.387 . S
H950 C957 0.950 . S
C951 C949 1.387 . S
C951 C953 1.390 . S
C951 H955 0.950 . S
H952 C948 0.950 . S
C953 C951 1.390 . S
C953 C954 1.387 . S
C953 H956 0.950 . S
C954 C953 1.387 . S
C954 C957 1.387 . S
H955 C951 0.950 . S
H956 C953 0.950 . S
C957 C948 1.390 . S
C957 H950 0.950 . S
C957 C954 1.387 . S
C958 C959 1.387 . S
C958 H962 0.950 . S
C958 C967 1.390 1_545 S
C959 C958 1.387 . S
C959 C961 1.387 . S
H960 C967 0.950 . S
C961 C959 1.387 . S
C961 C963 1.390 1_545 S
C961 H965 0.950 . S
H962 C958 0.950 . S
C963 C961 1.390 1_565 S
C963 C964 1.387 . S
C963 H966 0.950 . S
C964 C963 1.387 . S
C964 C967 1.387 . S
H965 C961 0.950 . S
H966 C963 0.950 . S
C967 C958 1.390 1_565 S
C967 H960 0.950 . S
C967 C964 1.387 . S
C968 C969 1.387 1_655 S
C968 H972 0.950 . S
C968 C977 1.390 . S
C969 C968 1.387 1_455 S
C969 C971 1.387 . S
H970 C977 0.950 . S
C971 C969 1.387 . S
C971 C973 1.390 . S
C971 H975 0.950 . S
H972 C968 0.950 . S
C973 C971 1.390 . S
C973 C974 1.387 1_455 S
C973 H976 0.950 . S
C974 C973 1.387 1_655 S
C974 C977 1.387 . S
H975 C971 0.950 . S
H976 C973 0.950 . S
C977 C968 1.390 . S
C977 H970 0.950 . S
C977 C974 1.387 . S
C978 C979 1.387 . S
C978 H982 0.950 . S
C978 C987 1.390 . S
C979 C978 1.387 . S
C979 C981 1.387 . S
H980 C987 0.950 . S
C981 C979 1.387 . S
C981 C983 1.390 . S
C981 H985 0.950 . S
H982 C978 0.950 . S
C983 C981 1.390 . S
C983 C984 1.387 . S
C983 H986 0.950 . S
C984 C983 1.387 . S
C984 C987 1.387 . S
H985 C981 0.950 . S
H986 C983 0.950 . S
C987 C978 1.390 . S
C987 H980 0.950 . S
C987 C984 1.387 . S
C988 C989 1.387 . S
C988 H992 0.950 . S
C988 C997 1.390 1_565 S
C989 C988 1.387 . S
C989 C991 1.387 . S
H990 C997 0.950 . S
C991 C989 1.387 . S
C991 C993 1.390 1_565 S
C991 H995 0.950 . S
H992 C988 0.950 . S
C993 C991 1.390 1_545 S
C993 C994 1.387 . S
C993 H996 0.950 . S
C994 C993 1.387 . S
C994 C997 1.387 . S
H995 C991 0.950 . S
H996 C993 0.950 . S
C997 C988 1.390 1_545 S
C997 H990 0.950 . S
C997 C994 1.387 . S
C998 C999 1.387 1_655 S
C998 H1002 0.950 . S
C998 C1007 1.390 . S
C999 C998 1.387 1_455 S
C999 C1001 1.387 . S
H1000 C1007 0.950 . S
C1001 C999 1.387 . S
C1001 C1003 1.390 . S
C1001 H1005 0.950 . S
H1002 C998 0.950 . S
C1003 C1001 1.390 . S
C1003 C1004 1.387 1_455 S
C1003 H1006 0.950 . S
C1004 C1003 1.387 1_655 S
C1004 C1007 1.387 . S
H1005 C1001 0.950 . S
H1006 C1003 0.950 . S
C1007 C998 1.390 . S
C1007 H1000 0.950 . S
C1007 C1004 1.387 . S
C1008 C1009 1.387 . S
C1008 H1012 0.950 . S
C1008 C1017 1.390 . S
C1009 C1008 1.387 . S
C1009 C1011 1.387 . S
H1010 C1017 0.950 . S
C1011 C1009 1.387 . S
C1011 C1013 1.390 . S
C1011 H1015 0.950 . S
H1012 C1008 0.950 . S
C1013 C1011 1.390 . S
C1013 C1014 1.387 . S
C1013 H1016 0.950 . S
C1014 C1013 1.387 . S
C1014 C1017 1.387 . S
H1015 C1011 0.950 . S
H1016 C1013 0.950 . S
C1017 C1008 1.390 . S
C1017 H1010 0.950 . S
C1017 C1014 1.387 . S
C1018 C1019 1.387 . S
C1018 H1022 0.950 . S
C1018 C1027 1.390 . S
C1019 C1018 1.387 . S
C1019 C1021 1.387 . S
H1020 C1027 0.950 . S
C1021 C1019 1.387 . S
C1021 C1023 1.390 . S
C1021 H1025 0.950 . S
H1022 C1018 0.950 . S
C1023 C1021 1.390 . S
C1023 C1024 1.387 . S
C1023 H1026 0.950 . S
C1024 C1023 1.387 . S
C1024 C1027 1.387 . S
H1025 C1021 0.950 . S
H1026 C1023 0.950 . S
C1027 C1018 1.390 . S
C1027 H1020 0.950 . S
C1027 C1024 1.387 . S
C1028 C1029 1.387 . S
C1028 H1032 0.950 . S
C1028 C1037 1.390 . S
C1029 C1028 1.387 . S
C1029 C1031 1.387 . S
H1030 C1037 0.950 . S
C1031 C1029 1.387 . S
C1031 C1033 1.390 . S
C1031 H1035 0.950 . S
H1032 C1028 0.950 . S
C1033 C1031 1.390 . S
C1033 C1034 1.387 . S
C1033 H1036 0.950 . S
C1034 C1033 1.387 . S
C1034 C1037 1.387 . S
H1035 C1031 0.950 . S
H1036 C1033 0.950 . S
C1037 C1028 1.390 . S
C1037 H1030 0.950 . S
C1037 C1034 1.387 . S
C1038 C1039 1.387 . S
C1038 H1042 0.950 . S
C1038 C1047 1.390 . S
C1039 C1038 1.387 . S
C1039 C1041 1.387 . S
H1040 C1047 0.950 . S
C1041 C1039 1.387 . S
C1041 C1043 1.390 . S
C1041 H1045 0.950 . S
H1042 C1038 0.950 . S
C1043 C1041 1.390 . S
C1043 C1044 1.387 . S
C1043 H1046 0.950 . S
C1044 C1043 1.387 . S
C1044 C1047 1.387 . S
H1045 C1041 0.950 . S
H1046 C1043 0.950 . S
C1047 C1038 1.390 . S
C1047 H1040 0.950 . S
C1047 C1044 1.387 . S
C1048 C1049 1.387 . S
C1048 H1052 0.950 . S
C1048 C1057 1.390 . S
C1049 C1048 1.387 . S
C1049 C1051 1.387 . S
H1050 C1057 0.950 . S
C1051 C1049 1.387 . S
C1051 C1053 1.390 . S
C1051 H1055 0.950 . S
H1052 C1048 0.950 . S
C1053 C1051 1.390 . S
C1053 C1054 1.387 . S
C1053 H1056 0.950 . S
C1054 C1053 1.387 . S
C1054 C1057 1.387 . S
H1055 C1051 0.950 . S
H1056 C1053 0.950 . S
C1057 C1048 1.390 . S
C1057 H1050 0.950 . S
C1057 C1054 1.387 . S
C1058 C1059 1.387 . S
C1058 H1062 0.950 . S
C1058 C1067 1.390 . S
C1059 C1058 1.387 . S
C1059 C1061 1.387 . S
H1060 C1067 0.950 . S
C1061 C1059 1.387 . S
C1061 C1063 1.390 . S
C1061 H1065 0.950 . S
H1062 C1058 0.950 . S
C1063 C1061 1.390 . S
C1063 C1064 1.387 . S
C1063 H1066 0.950 . S
C1064 C1063 1.387 . S
C1064 C1067 1.387 . S
H1065 C1061 0.950 . S
H1066 C1063 0.950 . S
C1067 C1058 1.390 . S
C1067 H1060 0.950 . S
C1067 C1064 1.387 . S
C1068 C1069 1.387 . S
C1068 H1072 0.950 . S
C1068 C1077 1.390 . S
C1069 C1068 1.387 . S
C1069 C1071 1.387 . S
H1070 C1077 0.950 . S
C1071 C1069 1.387 . S
C1071 C1073 1.390 . S
C1071 H1075 0.950 . S
H1072 C1068 0.950 . S
C1073 C1071 1.390 . S
C1073 C1074 1.387 . S
C1073 H1076 0.950 . S
C1074 C1073 1.387 . S
C1074 C1077 1.387 . S
H1075 C1071 0.950 . S
H1076 C1073 0.950 . S
C1077 C1068 1.390 . S
C1077 H1070 0.950 . S
C1077 C1074 1.387 . S
C1078 C1079 1.387 . S
C1078 H1082 0.950 . S
C1078 C1087 1.390 . S
C1079 C1078 1.387 . S
C1079 C1081 1.387 . S
H1080 C1087 0.950 . S
C1081 C1079 1.387 . S
C1081 C1083 1.390 . S
C1081 H1085 0.950 . S
H1082 C1078 0.950 . S
C1083 C1081 1.390 . S
C1083 C1084 1.387 . S
C1083 H1086 0.950 . S
C1084 C1083 1.387 . S
C1084 C1087 1.387 . S
H1085 C1081 0.950 . S
H1086 C1083 0.950 . S
C1087 C1078 1.390 . S
C1087 H1080 0.950 . S
C1087 C1084 1.387 . S
C1088 C1089 1.387 . S
C1088 H1092 0.950 . S
C1088 C1097 1.390 . S
C1089 C1088 1.387 . S
C1089 C1091 1.387 . S
H1090 C1097 0.950 . S
C1091 C1089 1.387 . S
C1091 C1093 1.390 . S
C1091 H1095 0.950 . S
H1092 C1088 0.950 . S
C1093 C1091 1.390 . S
C1093 C1094 1.387 . S
C1093 H1096 0.950 . S
C1094 C1093 1.387 . S
C1094 C1097 1.387 . S
H1095 C1091 0.950 . S
H1096 C1093 0.950 . S
C1097 C1088 1.390 . S
C1097 H1090 0.950 . S
C1097 C1094 1.387 . S
C1098 C1099 1.387 . S
C1098 H1102 0.950 . S
C1098 C1107 1.390 . S
C1099 C1098 1.387 . S
C1099 C1101 1.387 . S
H1100 C1107 0.950 . S
C1101 C1099 1.387 . S
C1101 C1103 1.390 . S
C1101 H1105 0.950 . S
H1102 C1098 0.950 . S
C1103 C1101 1.390 . S
C1103 C1104 1.387 . S
C1103 H1106 0.950 . S
C1104 C1103 1.387 . S
C1104 C1107 1.387 . S
H1105 C1101 0.950 . S
H1106 C1103 0.950 . S
C1107 C1098 1.390 . S
C1107 H1100 0.950 . S
C1107 C1104 1.387 . S
C1108 C1109 1.387 . S
C1108 H1112 0.950 . S
C1108 C1117 1.390 . S
C1109 C1108 1.387 . S
C1109 C1111 1.387 . S
H1110 C1117 0.950 . S
C1111 C1109 1.387 . S
C1111 C1113 1.390 . S
C1111 H1115 0.950 . S
H1112 C1108 0.950 . S
C1113 C1111 1.390 . S
C1113 C1114 1.387 . S
C1113 H1116 0.950 . S
C1114 C1113 1.387 . S
C1114 C1117 1.387 . S
H1115 C1111 0.950 . S
H1116 C1113 0.950 . S
C1117 C1108 1.390 . S
C1117 H1110 0.950 . S
C1117 C1114 1.387 . S
C1118 C1119 1.387 . S
C1118 H1122 0.950 . S
C1118 C1127 1.390 . S
C1119 C1118 1.387 . S
C1119 C1121 1.387 . S
H1120 C1127 0.950 . S
C1121 C1119 1.387 . S
C1121 C1123 1.390 . S
C1121 H1125 0.950 . S
H1122 C1118 0.950 . S
C1123 C1121 1.390 . S
C1123 C1124 1.387 . S
C1123 H1126 0.950 . S
C1124 C1123 1.387 . S
C1124 C1127 1.387 . S
H1125 C1121 0.950 . S
H1126 C1123 0.950 . S
C1127 C1118 1.390 . S
C1127 H1120 0.950 . S
C1127 C1124 1.387 . S
C1128 C1129 1.387 . S
C1128 H1132 0.950 . S
C1128 C1137 1.390 1_455 S
C1129 C1128 1.387 . S
C1129 C1131 1.387 . S
H1130 C1137 0.950 . S
C1131 C1129 1.387 . S
C1131 C1133 1.390 1_455 S
C1131 H1135 0.950 . S
H1132 C1128 0.950 . S
C1133 C1131 1.390 1_655 S
C1133 C1134 1.387 . S
C1133 H1136 0.950 . S
C1134 C1133 1.387 . S
C1134 C1137 1.387 . S
H1135 C1131 0.950 . S
H1136 C1133 0.950 . S
C1137 C1128 1.390 1_655 S
C1137 H1130 0.950 . S
C1137 C1134 1.387 . S
C1138 C1139 1.387 . S
C1138 H1142 0.950 . S
C1138 C1147 1.390 . S
C1139 C1138 1.387 . S
C1139 C1141 1.387 . S
H1140 C1147 0.950 . S
C1141 C1139 1.387 . S
C1141 C1143 1.390 . S
C1141 H1145 0.950 . S
H1142 C1138 0.950 . S
C1143 C1141 1.390 . S
C1143 C1144 1.387 . S
C1143 H1146 0.950 . S
C1144 C1143 1.387 . S
C1144 C1147 1.387 . S
H1145 C1141 0.950 . S
H1146 C1143 0.950 . S
C1147 C1138 1.390 . S
C1147 H1140 0.950 . S
C1147 C1144 1.387 . S
C1148 C1149 1.387 . S
C1148 H1152 0.950 . S
C1148 C1157 1.390 1_545 S
C1149 C1148 1.387 . S
C1149 C1151 1.387 . S
H1150 C1157 0.950 . S
C1151 C1149 1.387 . S
C1151 C1153 1.390 1_545 S
C1151 H1155 0.950 . S
H1152 C1148 0.950 . S
C1153 C1151 1.390 1_565 S
C1153 C1154 1.387 . S
C1153 H1156 0.950 . S
C1154 C1153 1.387 . S
C1154 C1157 1.387 . S
H1155 C1151 0.950 . S
H1156 C1153 0.950 . S
C1157 C1148 1.390 1_565 S
C1157 H1150 0.950 . S
C1157 C1154 1.387 . S
C1158 C1159 1.387 . S
C1158 H1162 0.950 . S
C1158 C1167 1.390 1_565 S
C1159 C1158 1.387 . S
C1159 C1161 1.387 . S
H1160 C1167 0.950 . S
C1161 C1159 1.387 . S
C1161 C1163 1.390 1_565 S
C1161 H1165 0.950 . S
H1162 C1158 0.950 . S
C1163 C1161 1.390 1_545 S
C1163 C1164 1.387 . S
C1163 H1166 0.950 . S
C1164 C1163 1.387 . S
C1164 C1167 1.387 . S
H1165 C1161 0.950 . S
H1166 C1163 0.950 . S
C1167 C1158 1.390 1_545 S
C1167 H1160 0.950 . S
C1167 C1164 1.387 . S
C1168 C1169 1.410 . S
C1168 H1172 0.949 . S
C1168 C1177 1.367 1_655 S
C1169 C1168 1.410 . S
C1169 C1171 1.387 . S
H1170 C1177 0.950 . S
C1171 C1169 1.387 . S
C1171 C1173 1.370 1_655 S
C1171 H1175 0.950 . S
H1172 C1168 0.949 . S
C1173 C1171 1.370 1_455 S
C1173 C1174 1.406 . S
C1173 H1176 0.949 . S
C1174 C1173 1.406 . S
C1174 C1177 1.387 . S
H1175 C1171 0.950 . S
H1176 C1173 0.949 . S
C1177 C1168 1.367 1_455 S
C1177 H1170 0.950 . S
C1177 C1174 1.387 . S
C1178 C1179 1.387 . S
C1178 H1182 0.950 . S
C1178 C1187 1.390 . S
C1179 C1178 1.387 . S
C1179 C1181 1.387 . S
H1180 C1187 0.950 . S
C1181 C1179 1.387 . S
C1181 C1183 1.390 . S
C1181 H1185 0.950 . S
H1182 C1178 0.950 . S
C1183 C1181 1.390 . S
C1183 C1184 1.387 . S
C1183 H1186 0.950 . S
C1184 C1183 1.387 . S
C1184 C1187 1.387 . S
H1185 C1181 0.950 . S
H1186 C1183 0.950 . S
C1187 C1178 1.390 . S
C1187 H1180 0.950 . S
C1187 C1184 1.387 . S
C469 C53 1.277 . S
C474 C10 1.305 . S
C479 C75 1.306 . S
C484 C14 1.274 . S
C489 C49 1.309 . S
C494 C36 1.305 . S
C499 C140 1.274 . S
C504 C79 1.305 . S
C509 C101 1.277 . S
C514 C144 1.304 . S
C519 C127 1.276 . S
C524 C114 1.276 . S
C529 C166 1.373 . S
C534 C209 1.330 . S
C539 C231 1.373 . S
C544 C170 1.332 . S
C549 C192 1.373 . S
C554 C205 1.373 . S
C559 C235 1.372 . S
C564 C296 1.335 . S
C569 C300 1.372 . S
C574 C257 1.331 . S
C579 C270 1.330 . S
C584 C283 1.332 . S
C589 C365 1.335 . S
C594 C322 1.372 . S
C599 C326 1.330 . S
C604 C387 1.373 . S
C609 C361 1.373 . S
C614 C348 1.372 . S
C619 C452 1.329 . S
C624 C391 1.374 . S
C629 C413 1.332 . S
C634 C456 1.373 . S
C639 C426 1.332 . S
C644 C439 1.331 . S
C649 C146 1.704 . S
C654 C5 1.704 . S
C659 C16 1.658 1_556 S
C664 C122 1.660 1_556 S
C669 C135 1.658 1_556 S
C674 C31 1.704 . S
C679 C96 1.658 1_554 S
C684 C44 1.704 . S
C689 C55 1.660 1_554 S
C694 C109 1.658 1_554 S
C699 C81 1.704 . S
C704 C70 1.704 . S
C709 C161 1.757 . S
C714 C302 1.757 . S
C719 C278 1.708 . S
C724 C172 1.706 . S
C729 C291 1.705 . S
C734 C187 1.757 . S
C739 C200 1.745 . S
C744 C252 1.695 . S
C749 C211 1.695 . S
C754 C265 1.693 . S
C759 C226 1.746 . S
C764 C237 1.746 . S
C769 C458 1.746 . S
C774 C317 1.746 . S
C779 C328 1.693 . S
C784 C434 1.695 . S
C789 C343 1.745 . S
C794 C447 1.693 . S
C799 C408 1.706 . S
C804 C356 1.757 . S
C809 C421 1.708 . S
C814 C367 1.705 . S
C819 C393 1.757 . S
C824 C382 1.757 . S
C829 C198 1.584 . S
C834 C3 1.586 . S
C839 C213 1.527 . S
C844 C18 1.541 . S
C849 C29 1.589 . S
C854 C224 1.580 . S
C859 C42 1.589 . S
C864 C315 1.580 . S
C869 C57 1.545 . S
C874 C330 1.523 . S
C879 C68 1.589 . S
C884 C341 1.581 . S
C889 C83 1.589 . S
C894 C432 1.524 . S
C899 C94 1.544 . S
C904 C445 1.524 . S
C909 C107 1.542 . S
C914 C460 1.581 . S
C919 C120 1.545 . S
C924 C239 1.580 . S
C929 C250 1.525 . S
C934 C133 1.542 . S
C939 C263 1.527 . S
C944 C148 1.586 . S
C949 C354 1.836 . S
C954 C159 1.835 . S
C959 C174 1.783 . S
C964 C369 1.783 . S
C969 C380 1.836 . S
C974 C185 1.836 . S
C979 C276 1.783 . S
C984 C395 1.836 . S
C989 C406 1.783 . S
C994 C289 1.783 . S
C999 C419 1.783 . S
C1004 C304 1.836 . S
C1009 C1 2.091 . S
C1014 C378 2.099 . S
C1019 C23 2.008 . S
C1024 C352 2.100 . S
C1029 C27 2.092 . S
C1034 C374 2.014 . S
C1039 C40 2.091 . S
C1044 C179 2.013 . S
C1049 C183 2.098 . S
C1054 C62 2.010 . S
C1059 C157 2.098 . S
C1064 C66 2.094 . S
C1069 C309 2.097 . S
C1074 C88 2.093 . S
C1079 C274 2.010 . S
C1084 C92 2.008 . S
C1089 C287 2.009 . S
C1094 C105 2.008 . S
C1099 C404 2.011 . S
C1104 C118 2.009 . S
C1109 C417 2.011 . S
C1114 C131 2.010 . S
C1119 C400 2.097 . S
C1124 C153 2.093 . S
C1129 C196 1.897 . S
C1134 C335 1.801 . S
C1139 C339 1.898 . S
C1144 C218 1.802 . S
C1149 C313 1.899 . S
C1154 C222 1.899 . S
C1159 C244 1.899 . S
C1164 C465 1.899 . S
C1169 C430 1.803 . S
C1174 C248 1.803 . S
C1179 C261 1.804 . S
C1184 C443 1.805 . S
