# Generated by pormake.
# Topology ure, (4)-cn, num edge types: 1
# Building blocks:
#     Node 0, Type 0, BuildingBlock: GALJAG_clean_sbu_0, # of connection points: 4
#     Node 1, Type 0, BuildingBlock: GALJAG_clean_sbu_0, # of connection points: 4
#     Node 2, Type 0, BuildingBlock: GALJAG_clean_sbu_0, # of connection points: 4
#     Node 3, Type 0, BuildingBlock: GALJAG_clean_sbu_0, # of connection points: 4
#     Node 4, Type 0, BuildingBlock: GALJAG_clean_sbu_0, # of connection points: 4
#     Node 5, Type 0, BuildingBlock: GALJAG_clean_sbu_0, # of connection points: 4
#     Node 6, Type 0, BuildingBlock: GALJAG_clean_sbu_0, # of connection points: 4
#     Node 7, Type 0, BuildingBlock: GALJAG_clean_sbu_0, # of connection points: 4
#     Node 8, Type 0, BuildingBlock: GALJAG_clean_sbu_0, # of connection points: 4
#     Node 9, Type 0, BuildingBlock: GALJAG_clean_sbu_0, # of connection points: 4
#     Node 10, Type 0, BuildingBlock: GALJAG_clean_sbu_0, # of connection points: 4
#     Node 11, Type 0, BuildingBlock: GALJAG_clean_sbu_0, # of connection points: 4
#     Node 12, Type 0, BuildingBlock: GALJAG_clean_sbu_0, # of connection points: 4
#     Node 13, Type 0, BuildingBlock: GALJAG_clean_sbu_0, # of connection points: 4
#     Node 14, Type 0, BuildingBlock: GALJAG_clean_sbu_0, # of connection points: 4
#     Node 15, Type 0, BuildingBlock: GALJAG_clean_sbu_0, # of connection points: 4
#     Edge 16, Type (0, 0), BuildingBlock: XIVTED_clean_linker_0, # of connection points: 2
#     Edge 17, Type (0, 0), BuildingBlock: XIVTED_clean_linker_0, # of connection points: 2
#     Edge 18, Type (0, 0), BuildingBlock: XIVTED_clean_linker_0, # of connection points: 2
#     Edge 19, Type (0, 0), BuildingBlock: XIVTED_clean_linker_0, # of connection points: 2
#     Edge 20, Type (0, 0), BuildingBlock: XIVTED_clean_linker_0, # of connection points: 2
#     Edge 21, Type (0, 0), BuildingBlock: XIVTED_clean_linker_0, # of connection points: 2
#     Edge 22, Type (0, 0), BuildingBlock: XIVTED_clean_linker_0, # of connection points: 2
#     Edge 23, Type (0, 0), BuildingBlock: XIVTED_clean_linker_0, # of connection points: 2
#     Edge 24, Type (0, 0), BuildingBlock: XIVTED_clean_linker_0, # of connection points: 2
#     Edge 25, Type (0, 0), BuildingBlock: XIVTED_clean_linker_0, # of connection points: 2
#     Edge 26, Type (0, 0), BuildingBlock: XIVTED_clean_linker_0, # of connection points: 2
#     Edge 27, Type (0, 0), BuildingBlock: XIVTED_clean_linker_0, # of connection points: 2
#     Edge 28, Type (0, 0), BuildingBlock: XIVTED_clean_linker_0, # of connection points: 2
#     Edge 29, Type (0, 0), BuildingBlock: XIVTED_clean_linker_0, # of connection points: 2
#     Edge 30, Type (0, 0), BuildingBlock: XIVTED_clean_linker_0, # of connection points: 2
#     Edge 31, Type (0, 0), BuildingBlock: XIVTED_clean_linker_0, # of connection points: 2
#     Edge 32, Type (0, 0), BuildingBlock: XIVTED_clean_linker_0, # of connection points: 2
#     Edge 33, Type (0, 0), BuildingBlock: XIVTED_clean_linker_0, # of connection points: 2
#     Edge 34, Type (0, 0), BuildingBlock: XIVTED_clean_linker_0, # of connection points: 2
#     Edge 35, Type (0, 0), BuildingBlock: XIVTED_clean_linker_0, # of connection points: 2
#     Edge 36, Type (0, 0), BuildingBlock: XIVTED_clean_linker_0, # of connection points: 2
#     Edge 37, Type (0, 0), BuildingBlock: XIVTED_clean_linker_0, # of connection points: 2
#     Edge 38, Type (0, 0), BuildingBlock: XIVTED_clean_linker_0, # of connection points: 2
#     Edge 39, Type (0, 0), BuildingBlock: XIVTED_clean_linker_0, # of connection points: 2
#     Edge 40, Type (0, 0), BuildingBlock: XIVTED_clean_linker_0, # of connection points: 2
#     Edge 41, Type (0, 0), BuildingBlock: XIVTED_clean_linker_0, # of connection points: 2
#     Edge 42, Type (0, 0), BuildingBlock: XIVTED_clean_linker_0, # of connection points: 2
#     Edge 43, Type (0, 0), BuildingBlock: XIVTED_clean_linker_0, # of connection points: 2
#     Edge 44, Type (0, 0), BuildingBlock: XIVTED_clean_linker_0, # of connection points: 2
#     Edge 45, Type (0, 0), BuildingBlock: XIVTED_clean_linker_0, # of connection points: 2
#     Edge 46, Type (0, 0), BuildingBlock: XIVTED_clean_linker_0, # of connection points: 2
#     Edge 47, Type (0, 0), BuildingBlock: XIVTED_clean_linker_0, # of connection points: 2
# Relax obj value: 0.290
# Max RMSD: 0.221
# Mean RMSD: 0.173
data_MOF--net-ure--node1-GALJAG_clean_sbu_0--edge1-XIVTED_clean_linker_0
_symmetry_space_group_name_H-M    P1
_symmetry_Int_Tables_number       1
_symmetry_cell_setting            triclinic
loop_
_symmetry_equiv_pos_as_xyz
'x, y, z'
_cell_length_a     27.765411
_cell_length_b     32.440793
_cell_length_c     32.386052
_cell_angle_alpha  100.24564
_cell_angle_beta   96.225149
_cell_angle_gamma 96.215354
loop_
_atom_site_label
_atom_site_type_symbol
_atom_site_fract_x
_atom_site_fract_y
_atom_site_fract_z
_atom_type_partial_charge
In0 In 0.31166 0.30973 0.29579 0.0
O1 O 0.24972 0.25431 0.27793 0.0
O2 O 0.27474 0.28261 0.2286 0.0
C3 C 0.31524 0.30005 0.37711 0.0
C4 C 0.39879 0.29689 0.27005 0.0
C5 C 0.30057 0.39203 0.30008 0.0
O6 O 0.34587 0.28751 0.35338 0.0
O7 O 0.28104 0.31606 0.35937 0.0
O8 O 0.33554 0.37957 0.32055 0.0
O9 O 0.2701 0.3628 0.27742 0.0
C10 C 0.24667 0.25388 0.23867 0.0
O11 O 0.38287 0.33206 0.27271 0.0
O12 O 0.37032 0.26801 0.27939 0.0
In13 In 0.96163 0.98886 0.48972 0.0
O14 O 0.00674 0.98293 0.55154 0.0
O15 O 0.92979 0.979 0.54997 0.0
C16 C 0.96573 0.07222 0.48791 0.0
C17 C 0.03133 0.95167 0.45106 0.0
C18 C 0.87378 0.95486 0.44651 0.0
O19 O 0.95475 0.05705 0.51943 0.0
O20 O 0.97542 0.04554 0.45771 0.0
O21 O 0.89697 0.98842 0.4405 0.0
O22 O 0.89521 0.93779 0.47414 0.0
C23 C 0.97038 0.97823 0.57126 0.0
O24 O 0.98747 0.93481 0.44583 0.0
O25 O 0.04011 0.98669 0.47635 0.0
In26 In 0.37053 0.76639 0.7983 0.0
O27 O 0.29127 0.73941 0.77515 0.0
O28 O 0.30776 0.80504 0.8026 0.0
C29 C 0.41768 0.69843 0.79365 0.0
C30 C 0.39658 0.80315 0.73463 0.0
C31 C 0.3782 0.77981 0.88291 0.0
O32 O 0.37188 0.69614 0.78477 0.0
O33 O 0.4407 0.73541 0.80239 0.0
O34 O 0.39761 0.80757 0.86446 0.0
O35 O 0.35578 0.74706 0.8588 0.0
C36 C 0.27548 0.77433 0.78616 0.0
O37 O 0.41067 0.82052 0.77299 0.0
O38 O 0.37207 0.76706 0.72921 0.0
In39 In 0.47459 0.98821 0.01804 0.0
O40 O 0.44321 0.0031 0.95475 0.0
O41 O 0.45476 0.05182 0.00994 0.0
C42 C 0.49011 0.90708 0.00332 0.0
C43 C 0.56985 0.01841 0.02764 0.0
C44 C 0.40963 0.98639 0.07373 0.0
O45 O 0.46701 0.92255 0.97502 0.0
O46 O 0.504 0.93228 0.03798 0.0
O47 O 0.44904 0.01153 0.08131 0.0
O48 O 0.40225 0.96293 0.03745 0.0
C49 C 0.44247 0.04169 0.97043 0.0
O50 O 0.54789 0.01418 0.05918 0.0
O51 O 0.54356 0.00835 0.99227 0.0
In52 In 0.36111 0.77632 0.2721 0.0
O53 O 0.32075 0.7094 0.25033 0.0
O54 O 0.35786 0.7262 0.31315 0.0
C55 C 0.36874 0.78117 0.1906 0.0
C56 C 0.29327 0.81911 0.30765 0.0
C57 C 0.45602 0.80082 0.303 0.0
O58 O 0.37301 0.74796 0.20505 0.0
O59 O 0.35969 0.81192 0.21704 0.0
O60 O 0.42857 0.82604 0.29084 0.0
O61 O 0.43533 0.76377 0.30042 0.0
C62 C 0.33248 0.69793 0.28494 0.0
O63 O 0.33669 0.82247 0.32515 0.0
O64 O 0.2842 0.79442 0.27225 0.0
In65 In 0.43471 0.97465 0.4154 0.0
O66 O 0.45147 0.97634 0.48599 0.0
O67 O 0.38905 0.93521 0.45276 0.0
C68 C 0.44766 0.05995 0.42549 0.0
C69 C 0.5211 0.94795 0.39948 0.0
C70 C 0.36564 0.94983 0.34733 0.0
O71 O 0.43398 0.04142 0.45422 0.0
O72 O 0.4543 0.03559 0.3923 0.0
O73 O 0.40178 0.93031 0.35368 0.0
O74 O 0.36197 0.97952 0.37732 0.0
C75 C 0.41638 0.94873 0.48748 0.0
O76 O 0.48908 0.92582 0.41369 0.0
O77 O 0.50936 0.98288 0.39316 0.0
In78 In 0.408 0.33932 0.77623 0.0
O79 O 0.42088 0.2704 0.7705 0.0
O80 O 0.45045 0.31285 0.82754 0.0
C81 C 0.3876 0.32843 0.6913 0.0
C82 C 0.31929 0.34017 0.80316 0.0
C83 C 0.46737 0.41325 0.8026 0.0
O84 O 0.42617 0.31812 0.70892 0.0
O85 O 0.35984 0.34407 0.71644 0.0
O86 O 0.43817 0.39838 0.82507 0.0
O87 O 0.46884 0.38951 0.76752 0.0
C88 C 0.44307 0.27519 0.80745 0.0
O89 O 0.34234 0.3724 0.79419 0.0
O90 O 0.34093 0.30781 0.79852 0.0
In91 In 0.99329 0.96141 0.96197 0.0
O92 O 0.92812 0.99782 0.9551 0.0
O93 O 0.93443 0.96451 0.00587 0.0
C94 C 0.99057 0.95797 0.87789 0.0
C95 C 0.06031 0.01954 0.01531 0.0
C96 C -0.00199 0.87884 0.96306 0.0
O97 O 0.95324 0.94816 0.89493 0.0
O98 O 0.02957 0.96943 0.90331 0.0
O99 O 0.02881 0.9007 0.94719 0.0
O100 O 0.96605 0.89881 0.97922 0.0
C101 C 0.91045 0.9879 0.9868 0.0
O102 O 0.05029 0.98239 0.02122 0.0
O103 O 0.0384 0.02665 0.98172 0.0
In104 In 0.86686 0.27712 0.76015 0.0
O105 O 0.84686 0.31983 0.8184 0.0
O106 O 0.79425 0.30304 0.76372 0.0
C107 C 0.96167 0.30006 0.79246 0.0
C108 C 0.84635 0.19434 0.76262 0.0
C109 C 0.85596 0.28672 0.67859 0.0
O110 O 0.93575 0.32493 0.77763 0.0
O111 O 0.93972 0.26366 0.79126 0.0
O112 O 0.82896 0.2601 0.69258 0.0
O113 O 0.88894 0.30887 0.70578 0.0
C114 C 0.80487 0.32304 0.8012 0.0
O115 O 0.86888 0.20737 0.73464 0.0
O116 O 0.8349 0.22316 0.7901 0.0
In117 In 0.94861 0.47859 0.92018 0.0
O118 O 0.01757 0.46075 0.89222 0.0
O119 O 0.02341 0.48683 0.95806 0.0
C120 C 0.88824 0.45414 0.84634 0.0
C121 C 0.91905 0.43224 0.97651 0.0
C122 C 0.95994 0.56385 0.93327 0.0
O123 O 0.92407 0.43526 0.85571 0.0
O124 O 0.8812 0.48353 0.87522 0.0
O125 O 0.93785 0.5435 0.95704 0.0
O126 O 0.976 0.5412 0.90335 0.0
C127 C 0.04474 0.47206 0.92729 0.0
O128 O 0.90176 0.46586 0.97215 0.0
O129 O 0.94857 0.42116 0.95112 0.0
In130 In 0.90216 0.83081 0.27276 0.0
O131 O 0.90452 0.7602 0.26768 0.0
O132 O 0.94902 0.80156 0.31934 0.0
C133 C 0.88752 0.82255 0.18767 0.0
C134 C 0.8127 0.83526 0.29766 0.0
C135 C 0.95979 0.90464 0.30429 0.0
O136 O 0.92208 0.80749 0.2061 0.0
O137 O 0.86077 0.84099 0.21195 0.0
O138 O 0.92989 0.88762 0.32485 0.0
O139 O 0.96398 0.88237 0.26903 0.0
C140 C 0.9336 0.76388 0.30126 0.0
O141 O 0.83544 0.86461 0.28396 0.0
O142 O 0.83504 0.80366 0.29901 0.0
In143 In 0.97632 0.4659 0.50074 0.0
O144 O 0.05371 0.48671 0.53514 0.0
O145 O 0.04333 0.47016 0.46767 0.0
C146 C 0.91825 0.47357 0.56183 0.0
C147 C 0.94979 0.52394 0.4562 0.0
C148 C 0.9763 0.38218 0.49052 0.0
O149 O 0.96057 0.49399 0.56632 0.0
O150 O 0.90439 0.45041 0.52586 0.0
O151 O 0.95682 0.39864 0.46116 0.0
O152 O 0.99508 0.40787 0.52375 0.0
C153 C 0.07289 0.48221 0.50118 0.0
O154 O 0.94105 0.48477 0.44039 0.0
O155 O 0.96903 0.53273 0.49435 0.0
In156 In 0.50404 0.52058 1.00045 0.0
O157 O 0.52426 0.46497 0.95466 0.0
O158 O 0.58031 0.51514 0.98229 0.0
C159 C 0.40733 0.49342 0.98044 0.0
C160 C 0.5222 0.51145 0.08177 0.0
C161 C 0.51548 0.6016 0.98937 0.0
O162 O 0.43481 0.49817 0.95265 0.0
O163 O 0.42869 0.50187 0.01784 0.0
O164 O 0.53686 0.58946 0.02047 0.0
O165 O 0.48844 0.57274 0.96318 0.0
C166 C 0.56856 0.48001 0.95757 0.0
O167 O 0.50955 0.54474 0.07124 0.0
O168 O 0.52564 0.48222 0.0511 0.0
In169 In 0.82754 0.81494 0.79225 0.0
O170 O 0.90519 0.84153 0.78583 0.0
O171 O 0.89278 0.77848 0.79568 0.0
C172 C 0.80171 0.88726 0.77161 0.0
C173 C 0.771 0.75252 0.7349 0.0
C174 C 0.82933 0.81592 0.87604 0.0
O175 O 0.82858 0.86477 0.75089 0.0
O176 O 0.78569 0.87219 0.80159 0.0
O177 O 0.81624 0.78262 0.84858 0.0
O178 O 0.83966 0.84864 0.86119 0.0
C179 C 0.92304 0.80827 0.79032 0.0
O180 O 0.81465 0.7653 0.73181 0.0
O181 O 0.75474 0.7719 0.7668 0.0
In182 In 0.84318 0.25219 0.28363 0.0
O183 O 0.76474 0.22433 0.25776 0.0
O184 O 0.77982 0.29021 0.28476 0.0
C185 C 0.88979 0.18373 0.28211 0.0
C186 C 0.87004 0.28836 0.22004 0.0
C187 C 0.84727 0.27214 0.36809 0.0
O188 O 0.8439 0.18165 0.27463 0.0
O189 O 0.91297 0.22044 0.28764 0.0
O190 O 0.86752 0.29787 0.34793 0.0
O191 O 0.8262 0.23795 0.34562 0.0
C192 C 0.74832 0.25925 0.26719 0.0
O193 O 0.88985 0.30229 0.25785 0.0
O194 O 0.83941 0.25559 0.21473 0.0
In195 In 0.51643 0.45893 0.45818 0.0
O196 O 0.59228 0.49032 0.49343 0.0
O197 O 0.52889 0.50957 0.51782 0.0
C198 C 0.51175 0.37445 0.45301 0.0
C199 C 0.42301 0.46773 0.46817 0.0
C200 C 0.53864 0.47841 0.38413 0.0
O201 O 0.5352 0.40033 0.48441 0.0
O202 O 0.49215 0.3912 0.42437 0.0
O203 O 0.51447 0.50034 0.40836 0.0
O204 O 0.55362 0.44749 0.39805 0.0
C205 C 0.57475 0.51426 0.52156 0.0
O206 O 0.44358 0.48087 0.43925 0.0
O207 O 0.44939 0.44974 0.49174 0.0
H208 H 0.19694 0.18017 0.25074 0.0
H209 H 0.09414 0.09907 0.00581 0.0
H210 H 0.22822 0.25061 0.15351 0.0
H211 H 0.09512 0.01722 0.09722 0.0
H212 H 0.13835 0.15668 0.06037 0.0
H213 H 0.15292 0.12225 0.19606 0.0
C214 C 0.19412 0.18361 0.21794 0.0
C215 C 0.21623 0.22025 0.20663 0.0
C216 C 0.12919 0.12606 0.06847 0.0
C217 C 0.16626 0.1541 0.14396 0.0
C218 C 0.10406 0.09313 0.0373 0.0
C219 C 0.09109 0.05327 0.04698 0.0
C220 C 0.14095 0.11929 0.10981 0.0
C221 C 0.10467 0.0474 0.08836 0.0
C222 C 0.16932 0.15044 0.18673 0.0
C223 C 0.21173 0.22292 0.16363 0.0
N224 N 0.12857 0.08014 0.11835 0.0
N225 N 0.18724 0.19033 0.13389 0.0
H226 H 0.01932 0.88359 0.38592 0.0
H227 H 0.30557 0.87993 0.37946 0.0
H228 H 0.12961 0.97642 0.46558 0.0
H229 H 0.19533 0.80806 0.28122 0.0
H230 H 0.24165 0.91366 0.41357 0.0
H231 H 0.08334 0.85279 0.34924 0.0
C232 C 0.05704 0.89739 0.39572 0.0
C233 C 0.06934 0.93245 0.42887 0.0
C234 C 0.23147 0.89065 0.38444 0.0
C235 C 0.14259 0.89748 0.38729 0.0
C236 C 0.26791 0.8714 0.36501 0.0
C237 C 0.25559 0.84114 0.32758 0.0
C238 C 0.18238 0.87912 0.36653 0.0
C239 C 0.20632 0.83124 0.31011 0.0
C240 C 0.09351 0.87995 0.3747 0.0
C241 C 0.11865 0.94933 0.44019 0.0
N242 N 0.17143 0.84998 0.32991 0.0
N243 N 0.15354 0.93154 0.41956 0.0
H244 H 0.46655 0.97646 0.56683 0.0
H245 H 0.36306 0.77242 0.65167 0.0
H246 H 0.35518 0.87933 0.49508 0.0
H247 H 0.4438 0.88261 0.73516 0.0
H248 H 0.36637 0.80933 0.59268 0.0
H249 H 0.46336 0.94173 0.62795 0.0
C250 C 0.44108 0.94804 0.56408 0.0
C251 C 0.41106 0.9307 0.52582 0.0
C252 C 0.38347 0.82551 0.62384 0.0
C253 C 0.40787 0.89053 0.59532 0.0
C254 C 0.38192 0.80434 0.65758 0.0
C255 C 0.40319 0.82448 0.69849 0.0
C256 C 0.40676 0.86718 0.63078 0.0
C257 C 0.42701 0.8659 0.70412 0.0
C258 C 0.43938 0.92823 0.59894 0.0
C259 C 0.37887 0.89383 0.52397 0.0
N260 N 0.42817 0.88595 0.67059 0.0
N261 N 0.37841 0.87481 0.55811 0.0
H262 H 0.44038 0.12531 0.99871 0.0
H263 H 0.42579 0.19077 0.77235 0.0
H264 H 0.43233 0.03283 0.88367 0.0
H265 H 0.47519 0.2775 0.89046 0.0
H266 H 0.42343 0.13199 0.8107 0.0
H267 H 0.44431 0.18119 0.95764 0.0
C268 C 0.43876 0.1167 0.96465 0.0
C269 C 0.43619 0.07434 0.94457 0.0
C270 C 0.43532 0.16385 0.82806 0.0
C271 C 0.44147 0.13843 0.8973 0.0
C272 C 0.43699 0.19736 0.80621 0.0
C273 C 0.45055 0.23907 0.82832 0.0
C274 C 0.44671 0.17233 0.87229 0.0
C275 C 0.46447 0.24587 0.87215 0.0
C276 C 0.4415 0.1487 0.94125 0.0
C277 C 0.43419 0.0651 0.90035 0.0
N278 N 0.46166 0.2129 0.89273 0.0
N279 N 0.43706 0.09699 0.8781 0.0
H280 H 0.70829 0.32276 0.77527 0.0
H281 H 0.66787 0.49768 0.97072 0.0
H282 H 0.82319 0.37922 0.87662 0.0
H283 H 0.54972 0.41324 0.89103 0.0
H284 H 0.7264 0.46074 0.93186 0.0
H285 H 0.65068 0.36218 0.81258 0.0
C286 C 0.72138 0.34357 0.80536 0.0
C287 C 0.7704 0.34758 0.82311 0.0
C288 C 0.68768 0.4503 0.92295 0.0
C289 C 0.70486 0.39284 0.86577 0.0
C290 C 0.6543 0.47139 0.94498 0.0
C291 C 0.60401 0.45825 0.93414 0.0
C292 C 0.67053 0.41622 0.88953 0.0
C293 C 0.58827 0.4241 0.90057 0.0
C294 C 0.68848 0.36592 0.82667 0.0
C295 C 0.78554 0.37502 0.86208 0.0
N296 N 0.62147 0.40429 0.87933 0.0
N297 N 0.75283 0.39672 0.88214 0.0
H298 H 0.98178 0.38806 0.01494 0.0
H299 H 0.80325 0.29146 0.15381 0.0
H300 H 0.83875 0.42778 0.01887 0.0
H301 H 0.95319 0.33574 0.20661 0.0
H302 H 0.81434 0.32824 0.095 0.0
H303 H 0.97086 0.35507 0.07635 0.0
C304 C 0.94786 0.38942 0.0285 0.0
C305 C 0.91091 0.41042 0.01183 0.0
C306 C 0.8447 0.3299 0.11953 0.0
C307 C 0.89828 0.37257 0.08145 0.0
C308 C 0.83862 0.30878 0.15284 0.0
C309 C 0.87753 0.31054 0.18487 0.0
C310 C 0.8904 0.35185 0.1176 0.0
C311 C 0.92239 0.33373 0.18245 0.0
C312 C 0.94196 0.371 0.06367 0.0
C313 C 0.86797 0.4118 0.03085 0.0
N314 N 0.9279 0.35308 0.14891 0.0
N315 N 0.86251 0.3926 0.06447 0.0
H316 H 0.91761 0.51635 0.37122 0.0
H317 H 0.98397 0.76458 0.37869 0.0
H318 H 0.97017 0.60856 0.48503 0.0
H319 H 0.90225 0.68012 0.26952 0.0
H320 H 0.98771 0.70514 0.41527 0.0
H321 H 0.91717 0.57392 0.33099 0.0
C322 C 0.92853 0.54865 0.38777 0.0
C323 C 0.94385 0.55768 0.43152 0.0
C324 C 0.9692 0.6995 0.3832 0.0
C325 C 0.94442 0.6233 0.38582 0.0
C326 C 0.96742 0.73339 0.36219 0.0
C327 C 0.94259 0.7273 0.32109 0.0
C328 C 0.94609 0.65913 0.36297 0.0
C329 C 0.92168 0.68619 0.30127 0.0
C330 C 0.92854 0.58142 0.36482 0.0
C331 C 0.95802 0.60006 0.45136 0.0
N332 N 0.92367 0.65366 0.32248 0.0
N333 N 0.95819 0.63115 0.42838 0.0
H334 H 0.5428 0.56421 0.58709 0.0
H335 H 0.80274 0.70312 0.66872 0.0
H336 H 0.67405 0.53894 0.53243 0.0
H337 H 0.67461 0.71999 0.73104 0.0
H338 H 0.75625 0.64337 0.61838 0.0
H339 H 0.59047 0.6211 0.64001 0.0
C340 C 0.5818 0.57049 0.58636 0.0
C341 C 0.6045 0.54682 0.55519 0.0
C342 C 0.73824 0.66006 0.64304 0.0
C343 C 0.65937 0.61234 0.61572 0.0
C344 C 0.76471 0.69431 0.67176 0.0
C345 C 0.74244 0.71671 0.70407 0.0
C346 C 0.68893 0.6481 0.64641 0.0
C347 C 0.69318 0.70369 0.70657 0.0
C348 C 0.60899 0.60304 0.61663 0.0
C349 C 0.6551 0.55637 0.55587 0.0
N350 N 0.66803 0.67031 0.67804 0.0
N351 N 0.68081 0.58856 0.58553 0.0
H352 H 0.38165 0.26165 0.41975 0.0
H353 H 0.30998 0.3536 0.64776 0.0
H354 H 0.26535 0.3383 0.43856 0.0
H355 H 0.4374 0.29067 0.62943 0.0
H356 H 0.28991 0.34437 0.57112 0.0
H357 H 0.3987 0.2672 0.49627 0.0
C358 C 0.35956 0.27949 0.44003 0.0
C359 C 0.32215 0.29966 0.42285 0.0
C360 C 0.32223 0.33252 0.5838 0.0
C361 C 0.34165 0.30639 0.51047 0.0
C362 C 0.33372 0.33776 0.62757 0.0
C363 C 0.37545 0.32287 0.64495 0.0
C364 C 0.35253 0.31202 0.55714 0.0
C365 C 0.40492 0.30266 0.61732 0.0
C366 C 0.36941 0.28275 0.4837 0.0
C367 C 0.29439 0.3221 0.45051 0.0
N368 N 0.39286 0.29778 0.57474 0.0
N369 N 0.30484 0.32502 0.49301 0.0
H370 H 0.91081 0.93448 0.81763 0.0
H371 H 0.05402 0.98196 0.62586 0.0
H372 H 0.06502 0.97944 0.8335 0.0
H373 H 0.89685 0.96175 0.61807 0.0
H374 H 0.0602 0.97385 0.69999 0.0
H375 H 0.90718 0.93553 0.74212 0.0
C376 C 0.94385 0.94474 0.80527 0.0
C377 C 0.98826 0.95724 0.83196 0.0
C378 C 0.02439 0.97113 0.68201 0.0
C379 C 0.98379 0.95944 0.74565 0.0
C380 C 0.02083 0.9757 0.63971 0.0
C381 C 0.97485 0.97265 0.61582 0.0
C382 C 0.98165 0.96317 0.70045 0.0
C383 C 0.93304 0.96447 0.63535 0.0
C384 C 0.9416 0.94558 0.7622 0.0
C385 C 0.02998 0.96981 0.81407 0.0
N386 N 0.93745 0.96002 0.67648 0.0
N387 N 0.0267 0.9708 0.77204 0.0
H388 H 0.38494 0.71565 0.92437 0.0
H389 H 0.37521 0.85149 0.15427 0.0
H390 H 0.37966 0.85003 0.9457 0.0
H391 H 0.37545 0.71643 0.12631 0.0
H392 H 0.38324 0.85368 0.07981 0.0
H393 H 0.38763 0.71749 0.99983 0.0
C394 C 0.38445 0.74569 0.94519 0.0
C395 C 0.38245 0.78281 0.92901 0.0
C396 C 0.38118 0.82366 0.09005 0.0
C397 C 0.38441 0.78512 0.01573 0.0
C398 C 0.3766 0.82234 0.13241 0.0
C399 C 0.37407 0.78363 0.14625 0.0
C400 C 0.38268 0.78597 0.06147 0.0
C401 C 0.37696 0.74691 0.11694 0.0
C402 C 0.38595 0.74673 0.98832 0.0
C403 C 0.38165 0.82082 0.95719 0.0
N404 N 0.3808 0.74898 0.07596 0.0
N405 N 0.3824 0.82102 0.9994 0.0
H406 H 0.31587 0.00872 0.31751 0.0
H407 H 0.34715 0.91677 0.07852 0.0
H408 H 0.36109 0.88624 0.27854 0.0
H409 H 0.40193 0.04334 0.14478 0.0
H410 H 0.31198 0.90267 0.14198 0.0
H411 H 0.30472 0.01646 0.24342 0.0
C412 C 0.32126 0.98257 0.29328 0.0
C413 C 0.34045 0.94709 0.30418 0.0
C414 C 0.3306 0.93379 0.14201 0.0
C415 C 0.32742 0.95579 0.21977 0.0
C416 C 0.3507 0.94185 0.10603 0.0
C417 C 0.37854 0.98088 0.10701 0.0
C418 C 0.3372 0.96551 0.17846 0.0
C419 C 0.38145 0.01259 0.14307 0.0
C420 C 0.31519 0.98722 0.25108 0.0
C421 C 0.3468 0.91426 0.27144 0.0
N422 N 0.3614 0.0041 0.17756 0.0
N423 N 0.34121 0.9197 0.2306 0.0
H424 H 0.47194 0.3572 0.26209 0.0
H425 H 0.67119 0.19652 0.2417 0.0
H426 H 0.43876 0.2232 0.25745 0.0
H427 H 0.70686 0.33208 0.27578 0.0
H428 H 0.58425 0.20498 0.23477 0.0
H429 H 0.5568 0.3476 0.25427 0.0
C430 C 0.4824 0.32568 0.25884 0.0
C431 C 0.44849 0.29094 0.26063 0.0
C432 C 0.61117 0.23285 0.24348 0.0
C433 C 0.54527 0.27977 0.25189 0.0
C434 C 0.66069 0.22804 0.24735 0.0
C435 C 0.69607 0.26364 0.25971 0.0
C436 C 0.59718 0.27354 0.25179 0.0
C437 C 0.68065 0.30378 0.26656 0.0
C438 C 0.53084 0.32024 0.25457 0.0
C439 C 0.46392 0.25082 0.25641 0.0
N440 N 0.6323 0.30765 0.26267 0.0
N441 N 0.51132 0.24634 0.25245 0.0
H442 H 0.98102 0.34186 0.55655 0.0
H443 H 0.97561 0.11058 0.41981 0.0
H444 H 0.96857 0.3185 0.42022 0.0
H445 H 0.95671 0.13655 0.55206 0.0
H446 H 0.97683 0.18606 0.41842 0.0
H447 H 0.97683 0.2664 0.55484 0.0
C448 C 0.97779 0.32072 0.52616 0.0
C449 C 0.97507 0.33634 0.48844 0.0
C450 C 0.97238 0.17516 0.44768 0.0
C451 C 0.97044 0.24956 0.4862 0.0
C452 C 0.97183 0.13217 0.44855 0.0
C453 C 0.96638 0.11741 0.48623 0.0
C454 C 0.96802 0.20347 0.48488 0.0
C455 C 0.9612 0.1466 0.52241 0.0
C456 C 0.97509 0.27755 0.52519 0.0
C457 C 0.97062 0.30756 0.44997 0.0
N458 N 0.96241 0.18821 0.52087 0.0
N459 N 0.96854 0.26536 0.4498 0.0
H460 H 0.99632 0.86914 0.78375 0.0
H461 H 0.19823 0.71148 0.7673 0.0
H462 H 0.96773 0.73789 0.79304 0.0
H463 H 0.234 0.84718 0.7974 0.0
H464 H 0.11161 0.71977 0.7669 0.0
H465 H 0.08241 0.86103 0.7802 0.0
C466 C 0.00821 0.83868 0.78511 0.0
C467 C 0.97503 0.80414 0.78872 0.0
C468 C 0.13846 0.7477 0.77347 0.0
C469 C 0.07293 0.79449 0.78417 0.0
C470 C 0.18777 0.74299 0.77345 0.0
C471 C 0.22313 0.77871 0.78256 0.0
C472 C 0.1246 0.7884 0.78223 0.0
C473 C 0.20778 0.81883 0.79044 0.0
C474 C 0.05726 0.83405 0.78306 0.0
C475 C 0.9922 0.76529 0.79023 0.0
N476 N 0.15956 0.82262 0.7901 0.0
N477 N 0.04003 0.76145 0.78779 0.0
H478 H 0.47786 0.63667 0.92362 0.0
H479 H 0.5157 0.86513 0.06549 0.0
H480 H 0.56097 0.66878 0.04801 0.0
H481 H 0.4861 0.8483 0.92953 0.0
H482 H 0.5284 0.79157 0.05863 0.0
H483 H 0.47811 0.71239 0.92298 0.0
C484 C 0.49644 0.65964 0.95055 0.0
C485 C 0.51902 0.64654 0.98607 0.0
C486 C 0.51969 0.8039 0.03014 0.0
C487 C 0.51848 0.73254 0.986 0.0
C488 C 0.51231 0.84596 0.03404 0.0
C489 C 0.49943 0.8627 0.998 0.0
C490 C 0.51405 0.77805 0.98989 0.0
C491 C 0.49555 0.83635 0.95809 0.0
C492 C 0.49658 0.70271 0.95018 0.0
C493 C 0.54282 0.67745 0.0201 0.0
N494 N 0.50236 0.79498 0.95503 0.0
N495 N 0.54135 0.71893 0.01943 0.0
H496 H 0.75176 0.89354 0.28428 0.0
H497 H 0.52031 0.75431 0.33685 0.0
H498 H 0.7595 0.77941 0.33437 0.0
H499 H 0.51264 0.87239 0.29422 0.0
H500 H 0.60929 0.76755 0.34425 0.0
H501 H 0.66558 0.89036 0.29438 0.0
C502 C 0.7354 0.86806 0.29784 0.0
C503 C 0.76249 0.83639 0.30805 0.0
C504 C 0.58824 0.79083 0.3337 0.0
C505 C 0.66415 0.83263 0.31985 0.0
C506 C 0.53745 0.78332 0.32958 0.0
C507 C 0.50921 0.81202 0.31433 0.0
C508 C 0.6109 0.82701 0.32191 0.0
C509 C 0.53316 0.84926 0.3057 0.0
C510 C 0.68622 0.86623 0.30354 0.0
C511 C 0.7397 0.80425 0.32573 0.0
N512 N 0.58272 0.85539 0.30897 0.0
N513 N 0.69172 0.80304 0.33082 0.0
H514 H 0.45958 0.10475 0.36311 0.0
H515 H 0.52542 0.33013 0.51711 0.0
H516 H 0.45588 0.12069 0.49782 0.0
H517 H 0.48241 0.31377 0.38252 0.0
H518 H 0.50942 0.25318 0.51138 0.0
H519 H 0.47664 0.18123 0.3703 0.0
C520 C 0.46232 0.12441 0.39426 0.0
C521 C 0.45629 0.10638 0.42994 0.0
C522 C 0.50374 0.26652 0.48315 0.0
C523 C 0.47636 0.19408 0.43846 0.0
C524 C 0.51313 0.31031 0.48635 0.0
C525 C 0.50537 0.32822 0.45022 0.0
C526 C 0.48715 0.24062 0.44345 0.0
C527 C 0.4889 0.30124 0.41118 0.0
C528 C 0.47199 0.16809 0.39832 0.0
C529 C 0.46013 0.13338 0.4695 0.0
N530 N 0.48058 0.25883 0.40882 0.0
N531 N 0.47023 0.17597 0.47277 0.0
H532 H 0.26516 0.27545 0.82706 0.0
H533 H 0.01769 0.37548 0.79513 0.0
H534 H 0.25953 0.40219 0.80474 0.0
H535 H 0.02578 0.25043 0.82151 0.0
H536 H 0.10686 0.38998 0.80881 0.0
H537 H 0.1788 0.27004 0.83603 0.0
C538 C 0.24581 0.30234 0.82451 0.0
C539 C 0.26921 0.33904 0.81441 0.0
C540 C 0.08909 0.35963 0.8123 0.0
C541 C 0.17019 0.33296 0.82419 0.0
C542 C 0.03822 0.3513 0.8044 0.0
C543 C 0.01448 0.31143 0.8065 0.0
C544 C 0.11627 0.32783 0.8223 0.0
C545 C 0.0427 0.28141 0.81903 0.0
C546 C 0.19647 0.29925 0.82965 0.0
C547 C 0.24262 0.37311 0.81198 0.0
N548 N 0.09216 0.29006 0.82598 0.0
N549 N 0.19425 0.36902 0.81621 0.0
H550 H 0.03774 0.82292 0.90719 0.0
H551 H 0.92707 0.62062 0.99375 0.0
H552 H 0.95571 0.83074 0.01332 0.0
H553 H 0.00812 0.61311 0.88683 0.0
H554 H 0.93858 0.69778 0.00256 0.0
H555 H 0.0296 0.746 0.90061 0.0
C556 C 0.01845 0.8084 0.92938 0.0
C557 C -0.00292 0.83298 0.96073 0.0
C558 C 0.95393 0.67924 0.97722 0.0
C559 C 0.98733 0.74522 0.95334 0.0
C560 C 0.94734 0.63522 0.9722 0.0
C561 C 0.96665 0.61046 0.93952 0.0
C562 C 0.98009 0.69859 0.9494 0.0
C563 C 0.99258 0.63099 0.91246 0.0
C564 C 0.01354 0.76451 0.92549 0.0
C565 C 0.97206 0.81269 0.98837 0.0
N566 N -0.00148 0.67382 0.91799 0.0
N567 N 0.96779 0.76998 0.98403 0.0
H568 H 0.23758 0.42858 0.25056 0.0
H569 H 0.36367 0.66389 0.35273 0.0
H570 H 0.35804 0.45864 0.3515 0.0
H571 H 0.27474 0.63209 0.23088 0.0
H572 H 0.34993 0.58989 0.35966 0.0
H573 H 0.23927 0.50429 0.24966 0.0
C574 C 0.26396 0.45113 0.27283 0.0
C575 C 0.29779 0.4374 0.30109 0.0
C576 C 0.33316 0.59914 0.33151 0.0
C577 C 0.29984 0.52366 0.30033 0.0
C578 C 0.34085 0.64139 0.3276 0.0
C579 C 0.32062 0.65407 0.29102 0.0
C580 C 0.30481 0.5693 0.29872 0.0
C581 C 0.29127 0.62357 0.25949 0.0
C582 C 0.26501 0.49423 0.27221 0.0
C583 C 0.33129 0.46788 0.3292 0.0
N584 N 0.28438 0.58251 0.26397 0.0
N585 N 0.33152 0.50952 0.32806 0.0
H586 H 0.80183 0.15777 0.82115 0.0
H587 H 0.81967 0.92195 0.7031 0.0
H588 H 0.86239 0.12743 0.70393 0.0
H589 H 0.77274 0.95136 0.82643 0.0
H590 H 0.82559 0.99675 0.69892 0.0
H591 H 0.78257 0.0821 0.82043 0.0
C592 C 0.81099 0.13518 0.79524 0.0
C593 C 0.83402 0.14887 0.76269 0.0
C594 C 0.8134 0.98686 0.72671 0.0
C595 C 0.81181 0.06236 0.76147 0.0
C596 C 0.80978 0.94412 0.72899 0.0
C597 C 0.79619 0.93057 0.76533 0.0
C598 C 0.80314 0.01628 0.76097 0.0
C599 C 0.78348 0.96052 0.79785 0.0
C600 C 0.79991 0.09202 0.7948 0.0
C601 C 0.84489 0.11827 0.72981 0.0
N602 N 0.78775 0.00208 0.79511 0.0
N603 N 0.83379 0.07651 0.73009 0.0
H604 H 0.34271 0.48262 0.03606 0.0
H605 H 0.10413 0.45371 0.86568 0.0
H606 H 0.35047 0.47825 0.90298 0.0
H607 H 0.10518 0.48271 0.00108 0.0
H608 H 0.19284 0.45163 0.87662 0.0
H609 H 0.25398 0.47078 0.02148 0.0
C610 C 0.32568 0.47882 0.00365 0.0
C611 C 0.35392 0.48191 0.97075 0.0
C612 C 0.17347 0.45821 0.90384 0.0
C613 C 0.25207 0.46862 0.95379 0.0
C614 C 0.12298 0.4593 0.89762 0.0
C615 C 0.09749 0.46866 0.93253 0.0
C616 C 0.19824 0.46632 0.94524 0.0
C617 C 0.12347 0.47574 0.97326 0.0
C618 C 0.27495 0.47215 0.99534 0.0
C619 C 0.32991 0.4764 0.9293 0.0
N620 N 0.17234 0.47452 0.97845 0.0
N621 N 0.2802 0.47034 0.92198 0.0
H622 H 0.97912 0.16136 0.26342 0.0
H623 H 0.9434 0.96046 0.37287 0.0
H624 H 0.85382 0.12394 0.32248 0.0
H625 H 0.00938 0.95388 0.25767 0.0
H626 H 0.93886 0.0354 0.37464 0.0
H627 H 0.01463 0.09807 0.27873 0.0
C628 C 0.95938 0.13998 0.27978 0.0
C629 C 0.91311 0.14704 0.2909 0.0
C630 C 0.95595 0.01785 0.34984 0.0
C631 C 0.95405 0.07676 0.31009 0.0
C632 C 0.95882 0.97513 0.3489 0.0
C633 C 0.97548 0.95069 0.31442 0.0
C634 C 0.97056 0.03633 0.31645 0.0
C635 C 0.99541 0.97149 0.28442 0.0
C636 C 0.97965 0.10424 0.28863 0.0
C637 C 0.88908 0.11897 0.31252 0.0
N638 N 0.99143 0.01313 0.28556 0.0
N639 N 0.90987 0.08516 0.3215 0.0
H640 H 0.86536 0.97082 0.05399 0.0
H641 H 0.62006 0.05093 0.97107 0.0
H642 H 0.85091 0.03558 0.94873 0.0
H643 H 0.64029 0.00714 0.08915 0.0
H644 H 0.70735 0.05276 0.96698 0.0
H645 H 0.78588 0.98931 0.07145 0.0
C646 C 0.84563 0.98926 0.0348 0.0
C647 C 0.86441 0.00137 0.99962 0.0
C648 C 0.69303 0.04344 0.99422 0.0
C649 C 0.77367 0.02256 0.01934 0.0
C650 C 0.64321 0.04251 0.99659 0.0
C651 C 0.62311 0.02849 0.03029 0.0
C652 C 0.72282 0.02942 0.02536 0.0
C653 C 0.65454 0.01811 0.06264 0.0
C654 C 0.80038 0.99994 0.04488 0.0
C655 C 0.83755 0.02535 0.97594 0.0
N656 N 0.70287 0.01799 0.05898 0.0
N657 N 0.79332 0.0348 0.98599 0.0
H658 H 0.38795 0.64682 0.84436 0.0
H659 H 0.51268 0.45888 0.75084 0.0
H660 H 0.49836 0.66706 0.76369 0.0
H661 H 0.46578 0.47083 0.87462 0.0
H662 H 0.51679 0.53551 0.75669 0.0
H663 H 0.42027 0.58265 0.85697 0.0
C664 C 0.41923 0.63758 0.82939 0.0
C665 C 0.44013 0.66149 0.80242 0.0
C666 C 0.50719 0.52149 0.78314 0.0
C667 C 0.47737 0.58811 0.81652 0.0
C668 C 0.50497 0.47776 0.77989 0.0
C669 C 0.48734 0.45844 0.81177 0.0
C670 C 0.49102 0.54555 0.81818 0.0
C671 C 0.47831 0.48439 0.84885 0.0
C672 C 0.43804 0.60127 0.83694 0.0
C673 C 0.48115 0.64894 0.78438 0.0
N674 N 0.4789 0.52654 0.85057 0.0
N675 N 0.49791 0.61234 0.79097 0.0
H676 H 0.14554 0.48125 0.5651 0.0
H677 H 0.35955 0.50566 0.42179 0.0
H678 H 0.12032 0.4941 0.43442 0.0
H679 H 0.37186 0.44411 0.52947 0.0
H680 H 0.27503 0.51428 0.43209 0.0
H681 H 0.23296 0.48138 0.5591 0.0
C682 C 0.15856 0.48474 0.53541 0.0
C683 C 0.12592 0.48742 0.50011 0.0
C684 C 0.2963 0.49893 0.45346 0.0
C685 C 0.22504 0.48761 0.49308 0.0
C686 C 0.34436 0.49382 0.44747 0.0
C687 C 0.37236 0.47364 0.47446 0.0
C688 C 0.27647 0.48437 0.4871 0.0
C689 C 0.35132 0.45964 0.50781 0.0
C690 C 0.20821 0.4845 0.53192 0.0
C691 C 0.14439 0.49166 0.46227 0.0
N692 N 0.30452 0.46532 0.51326 0.0
N693 N 0.19279 0.49157 0.45971 0.0
H694 H 0.83793 0.88443 0.9401 0.0
H695 H 0.91642 0.7655 0.1249 0.0
H696 H 0.83563 0.74898 0.9163 0.0
H697 H 0.8395 0.87447 0.14578 0.0
H698 H 0.89984 0.7625 0.04811 0.0
H699 H 0.85134 0.88528 0.01623 0.0
C700 C 0.83986 0.85484 0.95092 0.0
C701 C 0.83508 0.81648 0.92196 0.0
C702 C 0.88663 0.78695 0.06966 0.0
C703 C 0.85128 0.8174 0.00873 0.0
C704 C 0.89627 0.78881 0.1133 0.0
C705 C 0.87915 0.82019 0.14152 0.0
C706 C 0.86091 0.81737 0.0545 0.0
C707 C 0.85308 0.84962 0.125 0.0
C708 C 0.8474 0.85536 0.99429 0.0
C709 C 0.83848 0.77912 0.93767 0.0
N710 N 0.84514 0.84775 0.08258 0.0
N711 N 0.8468 0.78051 0.98009 0.0
H712 H 0.51885 0.54741 0.35137 0.0
H713 H 0.54862 0.44303 0.1139 0.0
H714 H 0.56975 0.42622 0.31879 0.0
H715 H 0.51463 0.56987 0.15165 0.0
H716 H 0.55866 0.43623 0.18853 0.0
H717 H 0.51972 0.55659 0.27831 0.0
C718 C 0.53073 0.52291 0.32889 0.0
C719 C 0.5443 0.48604 0.34116 0.0
C720 C 0.5493 0.46562 0.18045 0.0
C721 C 0.54472 0.496 0.25711 0.0
C722 C 0.54351 0.46948 0.13789 0.0
C723 C 0.53054 0.507 0.12656 0.0
C724 C 0.54186 0.49947 0.21179 0.0
C725 C 0.52444 0.54031 0.15889 0.0
C726 C 0.53115 0.52811 0.28711 0.0
C727 C 0.55926 0.45525 0.31067 0.0
N728 N 0.52992 0.53568 0.19992 0.0
N729 N 0.55868 0.46076 0.26992 0.0
H730 H 0.86528 0.34765 0.42619 0.0
H731 H 0.79519 0.23508 0.61459 0.0
H732 H 0.82965 0.21294 0.41506 0.0
H733 H 0.90414 0.34509 0.63995 0.0
H734 H 0.79011 0.23619 0.53928 0.0
H735 H 0.86396 0.35604 0.50351 0.0
C736 C 0.85726 0.32002 0.43996 0.0
C737 C 0.84785 0.27956 0.41439 0.0
C738 C 0.81491 0.26026 0.56136 0.0
C739 C 0.84553 0.28891 0.50148 0.0
C740 C 0.81777 0.25972 0.60434 0.0
C741 C 0.85052 0.28975 0.63347 0.0
C742 C 0.84463 0.29126 0.54727 0.0
C743 C 0.87873 0.32112 0.61836 0.0
C744 C 0.85639 0.32482 0.4838 0.0
C745 C 0.83713 0.24474 0.43354 0.0
N746 N 0.87529 0.32103 0.57606 0.0
N747 N 0.83626 0.25023 0.47581 0.0
H748 H 0.91655 0.53638 0.62941 0.0
H749 H 0.88494 0.38767 0.78074 0.0
H750 H 0.85974 0.40641 0.57705 0.0
H751 H 0.84158 0.51186 0.81154 0.0
H752 H 0.87057 0.39084 0.70545 0.0
H753 H 0.88578 0.52837 0.69595 0.0
C754 C 0.89657 0.50646 0.63172 0.0
C755 C 0.89087 0.47192 0.59806 0.0
C756 C 0.86269 0.41678 0.72866 0.0
C757 C 0.85707 0.46212 0.67412 0.0
C758 C 0.87089 0.41494 0.77155 0.0
C759 C 0.86527 0.44975 0.80228 0.0
C760 C 0.85037 0.45425 0.7168 0.0
C761 C 0.84685 0.48445 0.78882 0.0
C762 C 0.87887 0.5019 0.66954 0.0
C763 C 0.86483 0.43373 0.60248 0.0
N764 N 0.84159 0.48645 0.74705 0.0
N765 N 0.85008 0.4294 0.64037 0.0
H766 H 0.82496 0.98126 0.38063 0.0
H767 H 0.56543 0.88616 0.43048 0.0
H768 H 0.80727 0.89591 0.46758 0.0
H769 H 0.58851 0.98374 0.35728 0.0
H770 H 0.65201 0.87654 0.43163 0.0
H771 H 0.73704 0.96873 0.35835 0.0
C772 C 0.80257 0.95935 0.39457 0.0
C773 C 0.82308 0.94036 0.42671 0.0
C774 C 0.6379 0.89969 0.41492 0.0
C775 C 0.72244 0.92637 0.40188 0.0
C776 C 0.58856 0.90506 0.41411 0.0
C777 C 0.57025 0.9364 0.3945 0.0
C778 C 0.66872 0.92569 0.39574 0.0
C779 C 0.60146 0.95975 0.3734 0.0
C780 C 0.75236 0.95232 0.38196 0.0
C781 C 0.79266 0.91163 0.44311 0.0
N782 N 0.64927 0.95422 0.37495 0.0
N783 N 0.74357 0.90604 0.43104 0.0
loop_
_geom_bond_atom_site_label_1
_geom_bond_atom_site_label_2
_geom_bond_distance
_geom_bond_site_symmetry_2
_ccdc_geom_bond_type
In0 O1 2.294 . S
In0 O2 2.326 . S
In0 O6 2.266 . S
In0 O7 2.326 . S
In0 O8 2.266 . S
In0 O9 2.326 . S
In0 O11 2.294 . S
In0 O12 2.326 . S
O1 In0 2.294 . S
O1 C10 1.240 . S
O2 In0 2.326 . S
O2 C10 1.252 . S
C3 O6 1.252 . S
C3 O7 1.260 . S
C4 O11 1.240 . S
C4 O12 1.252 . S
C5 O8 1.252 . S
C5 O9 1.260 . S
O6 In0 2.266 . S
O6 C3 1.252 . S
O7 In0 2.326 . S
O7 C3 1.260 . S
O8 In0 2.266 . S
O8 C5 1.252 . S
O9 In0 2.326 . S
O9 C5 1.260 . S
C10 O1 1.240 . S
C10 O2 1.252 . S
O11 In0 2.294 . S
O11 C4 1.240 . S
O12 In0 2.326 . S
O12 C4 1.252 . S
In13 O14 2.294 1_655 S
In13 O15 2.329 1_545 S
In13 O19 2.263 1_655 S
In13 O20 2.323 . S
In13 O21 2.267 1_545 S
In13 O22 2.324 . S
In13 O24 2.296 1_645 S
In13 O25 2.327 1_645 S
O14 In13 2.294 1_455 S
O14 C23 1.240 1_545 S
O15 In13 2.329 1_565 S
O15 C23 1.252 1_655 S
C16 O19 1.252 1_655 S
C16 O20 1.260 . S
C17 O24 1.240 . S
C17 O25 1.252 . S
C18 O21 1.245 1_545 S
C18 O22 1.266 . S
O19 In13 2.263 1_455 S
O19 C16 1.252 1_455 S
O20 In13 2.323 . S
O20 C16 1.260 . S
O21 In13 2.267 1_565 S
O21 C18 1.245 1_565 S
O22 In13 2.324 . S
O22 C18 1.266 . S
C23 O14 1.240 1_565 S
C23 O15 1.252 1_455 S
O24 In13 2.296 1_465 S
O24 C17 1.240 . S
O25 In13 2.327 1_465 S
O25 C17 1.252 . S
In26 O27 2.294 . S
In26 O28 2.326 . S
In26 O32 2.266 . S
In26 O33 2.326 . S
In26 O34 2.266 . S
In26 O35 2.326 . S
In26 O37 2.294 . S
In26 O38 2.326 . S
O27 In26 2.294 . S
O27 C36 1.240 . S
O28 In26 2.326 . S
O28 C36 1.252 . S
C29 O32 1.252 . S
C29 O33 1.260 . S
C30 O37 1.240 . S
C30 O38 1.252 . S
C31 O34 1.252 . S
C31 O35 1.260 . S
O32 In26 2.266 . S
O32 C29 1.252 . S
O33 In26 2.326 . S
O33 C29 1.260 . S
O34 In26 2.266 . S
O34 C31 1.252 . S
O35 In26 2.326 . S
O35 C31 1.260 . S
C36 O27 1.240 . S
C36 O28 1.252 . S
O37 In26 2.294 . S
O37 C30 1.240 . S
O38 In26 2.326 . S
O38 C30 1.252 . S
In39 O40 2.294 1_554 S
In39 O41 2.321 1_564 S
In39 O45 2.266 1_554 S
In39 O46 2.326 . S
In39 O47 2.266 . S
In39 O48 2.326 . S
In39 O50 2.294 . S
In39 O51 2.326 1_554 S
O40 In39 2.294 1_556 S
O40 C49 1.240 1_565 S
O41 In39 2.321 1_546 S
O41 C49 1.263 . S
C42 O45 1.252 1_554 S
C42 O46 1.260 . S
C43 O50 1.240 1_556 S
C43 O51 1.252 . S
C44 O47 1.252 . S
C44 O48 1.260 . S
O45 In39 2.266 1_556 S
O45 C42 1.252 1_556 S
O46 In39 2.326 . S
O46 C42 1.260 . S
O47 In39 2.266 . S
O47 C44 1.252 . S
O48 In39 2.326 . S
O48 C44 1.260 . S
C49 O40 1.240 1_545 S
C49 O41 1.263 . S
O50 In39 2.294 . S
O50 C43 1.240 1_554 S
O51 In39 2.326 1_556 S
O51 C43 1.252 . S
In52 O53 2.294 . S
In52 O54 2.326 . S
In52 O58 2.266 . S
In52 O59 2.326 . S
In52 O60 2.266 . S
In52 O61 2.326 . S
In52 O63 2.294 . S
In52 O64 2.326 . S
O53 In52 2.294 . S
O53 C62 1.240 . S
O54 In52 2.326 . S
O54 C62 1.252 . S
C55 O58 1.252 . S
C55 O59 1.260 . S
C56 O63 1.240 . S
C56 O64 1.252 . S
C57 O60 1.252 . S
C57 O61 1.260 . S
O58 In52 2.266 . S
O58 C55 1.252 . S
O59 In52 2.326 . S
O59 C55 1.260 . S
O60 In52 2.266 . S
O60 C57 1.252 . S
O61 In52 2.326 . S
O61 C57 1.260 . S
C62 O53 1.240 . S
C62 O54 1.252 . S
O63 In52 2.294 . S
O63 C56 1.240 . S
O64 In52 2.326 . S
O64 C56 1.252 . S
In65 O66 2.295 . S
In65 O67 2.326 1_545 S
In65 O71 2.266 . S
In65 O72 2.326 . S
In65 O73 2.266 1_545 S
In65 O74 2.326 . S
In65 O76 2.294 1_545 S
In65 O77 2.326 . S
O66 In65 2.295 . S
O66 C75 1.237 1_545 S
O67 In65 2.326 1_565 S
O67 C75 1.252 . S
C68 O71 1.252 . S
C68 O72 1.260 . S
C69 O76 1.240 1_545 S
C69 O77 1.252 . S
C70 O73 1.252 . S
C70 O74 1.260 1_565 S
O71 In65 2.266 . S
O71 C68 1.252 . S
O72 In65 2.326 . S
O72 C68 1.260 . S
O73 In65 2.266 1_565 S
O73 C70 1.252 . S
O74 In65 2.326 . S
O74 C70 1.260 1_545 S
C75 O66 1.237 1_565 S
C75 O67 1.252 . S
O76 In65 2.294 1_565 S
O76 C69 1.240 1_565 S
O77 In65 2.326 . S
O77 C69 1.252 . S
In78 O79 2.294 . S
In78 O80 2.326 . S
In78 O84 2.266 . S
In78 O85 2.326 . S
In78 O86 2.266 . S
In78 O87 2.326 . S
In78 O89 2.294 . S
In78 O90 2.326 . S
O79 In78 2.294 . S
O79 C88 1.240 . S
O80 In78 2.326 . S
O80 C88 1.252 . S
C81 O84 1.252 . S
C81 O85 1.260 . S
C82 O89 1.240 . S
C82 O90 1.252 . S
C83 O86 1.252 . S
C83 O87 1.260 . S
O84 In78 2.266 . S
O84 C81 1.252 . S
O85 In78 2.326 . S
O85 C81 1.260 . S
O86 In78 2.266 . S
O86 C83 1.252 . S
O87 In78 2.326 . S
O87 C83 1.260 . S
C88 O79 1.240 . S
C88 O80 1.252 . S
O89 In78 2.294 . S
O89 C82 1.240 . S
O90 In78 2.326 . S
O90 C82 1.252 . S
In91 O92 2.295 . S
In91 O93 2.327 . S
In91 O97 2.266 . S
In91 O98 2.325 1_655 S
In91 O99 2.266 1_655 S
In91 O100 2.326 . S
In91 O102 2.293 1_665 S
In91 O103 2.326 1_665 S
O92 In91 2.295 . S
O92 C101 1.240 . S
O93 In91 2.327 . S
O93 C101 1.252 . S
C94 O97 1.252 1_455 S
C94 O98 1.260 . S
C95 O102 1.240 . S
C95 O103 1.252 . S
C96 O99 1.252 . S
C96 O100 1.260 1_455 S
O97 In91 2.266 . S
O97 C94 1.252 1_655 S
O98 In91 2.325 1_455 S
O98 C94 1.260 . S
O99 In91 2.266 1_455 S
O99 C96 1.252 . S
O100 In91 2.326 . S
O100 C96 1.260 1_655 S
C101 O92 1.240 . S
C101 O93 1.252 . S
O102 In91 2.293 1_445 S
O102 C95 1.240 . S
O103 In91 2.326 1_445 S
O103 C95 1.252 . S
In104 O105 2.294 . S
In104 O106 2.326 . S
In104 O110 2.266 . S
In104 O111 2.326 . S
In104 O112 2.266 . S
In104 O113 2.326 . S
In104 O115 2.294 . S
In104 O116 2.326 . S
O105 In104 2.294 . S
O105 C114 1.240 . S
O106 In104 2.326 . S
O106 C114 1.252 . S
C107 O110 1.252 . S
C107 O111 1.260 . S
C108 O115 1.240 . S
C108 O116 1.252 . S
C109 O112 1.252 . S
C109 O113 1.260 . S
O110 In104 2.266 . S
O110 C107 1.252 . S
O111 In104 2.326 . S
O111 C107 1.260 . S
O112 In104 2.266 . S
O112 C109 1.252 . S
O113 In104 2.326 . S
O113 C109 1.260 . S
C114 O105 1.240 . S
C114 O106 1.252 . S
O115 In104 2.294 . S
O115 C108 1.240 . S
O116 In104 2.326 . S
O116 C108 1.252 . S
In117 O118 2.296 . S
In117 O119 2.327 1_556 S
In117 O123 2.266 . S
In117 O124 2.324 1_455 S
In117 O125 2.265 1_455 S
In117 O126 2.326 . S
In117 O128 2.293 1_455 S
In117 O129 2.326 1_455 S
O118 In117 2.296 . S
O118 C127 1.240 . S
O119 In117 2.327 1_554 S
O119 C127 1.252 1_554 S
C120 O123 1.252 1_655 S
C120 O124 1.260 . S
C121 O128 1.240 . S
C121 O129 1.252 . S
C122 O125 1.252 . S
C122 O126 1.260 1_655 S
O123 In117 2.266 . S
O123 C120 1.252 1_455 S
O124 In117 2.324 1_655 S
O124 C120 1.260 . S
O125 In117 2.265 1_655 S
O125 C122 1.252 . S
O126 In117 2.326 . S
O126 C122 1.260 1_455 S
C127 O118 1.240 . S
C127 O119 1.252 1_556 S
O128 In117 2.293 1_655 S
O128 C121 1.240 . S
O129 In117 2.326 1_655 S
O129 C121 1.252 . S
In130 O131 2.294 . S
In130 O132 2.326 . S
In130 O136 2.266 . S
In130 O137 2.326 . S
In130 O138 2.266 . S
In130 O139 2.326 . S
In130 O141 2.294 . S
In130 O142 2.326 . S
O131 In130 2.294 . S
O131 C140 1.240 . S
O132 In130 2.326 . S
O132 C140 1.252 . S
C133 O136 1.252 . S
C133 O137 1.260 . S
C134 O141 1.240 . S
C134 O142 1.252 . S
C135 O138 1.252 . S
C135 O139 1.260 . S
O136 In130 2.266 . S
O136 C133 1.252 . S
O137 In130 2.326 . S
O137 C133 1.260 . S
O138 In130 2.266 . S
O138 C135 1.252 . S
O139 In130 2.326 . S
O139 C135 1.260 . S
C140 O131 1.240 . S
C140 O132 1.252 . S
O141 In130 2.294 . S
O141 C134 1.240 . S
O142 In130 2.326 . S
O142 C134 1.252 . S
In143 O144 2.294 . S
In143 O145 2.326 . S
In143 O149 2.266 . S
In143 O150 2.326 1_455 S
In143 O151 2.266 1_455 S
In143 O152 2.326 . S
In143 O154 2.294 1_455 S
In143 O155 2.326 . S
O144 In143 2.294 . S
O144 C153 1.240 . S
O145 In143 2.326 . S
O145 C153 1.252 . S
C146 O149 1.252 1_655 S
C146 O150 1.260 . S
C147 O154 1.240 . S
C147 O155 1.252 1_655 S
C148 O151 1.252 . S
C148 O152 1.260 1_655 S
O149 In143 2.266 . S
O149 C146 1.252 1_455 S
O150 In143 2.326 1_655 S
O150 C146 1.260 . S
O151 In143 2.266 1_655 S
O151 C148 1.252 . S
O152 In143 2.326 . S
O152 C148 1.260 1_455 S
C153 O144 1.240 . S
C153 O145 1.252 . S
O154 In143 2.294 1_655 S
O154 C147 1.240 . S
O155 In143 2.326 . S
O155 C147 1.252 1_455 S
In156 O157 2.294 1_554 S
In156 O158 2.326 . S
In156 O162 2.266 1_554 S
In156 O163 2.326 . S
In156 O164 2.266 . S
In156 O165 2.326 1_554 S
In156 O167 2.294 . S
In156 O168 2.326 . S
O157 In156 2.294 1_556 S
O157 C166 1.240 . S
O158 In156 2.326 . S
O158 C166 1.252 1_554 S
C159 O162 1.252 1_554 S
C159 O163 1.260 . S
C160 O167 1.240 . S
C160 O168 1.252 . S
C161 O164 1.252 . S
C161 O165 1.260 1_554 S
O162 In156 2.266 1_556 S
O162 C159 1.252 1_556 S
O163 In156 2.326 . S
O163 C159 1.260 . S
O164 In156 2.266 . S
O164 C161 1.252 . S
O165 In156 2.326 1_556 S
O165 C161 1.260 1_556 S
C166 O157 1.240 . S
C166 O158 1.252 1_556 S
O167 In156 2.294 . S
O167 C160 1.240 . S
O168 In156 2.326 . S
O168 C160 1.252 . S
In169 O170 2.294 . S
In169 O171 2.326 . S
In169 O175 2.266 . S
In169 O176 2.326 . S
In169 O177 2.266 . S
In169 O178 2.326 . S
In169 O180 2.294 . S
In169 O181 2.326 . S
O170 In169 2.294 . S
O170 C179 1.240 . S
O171 In169 2.326 . S
O171 C179 1.252 . S
C172 O175 1.252 . S
C172 O176 1.260 . S
C173 O180 1.240 . S
C173 O181 1.252 . S
C174 O177 1.252 . S
C174 O178 1.260 . S
O175 In169 2.266 . S
O175 C172 1.252 . S
O176 In169 2.326 . S
O176 C172 1.260 . S
O177 In169 2.266 . S
O177 C174 1.252 . S
O178 In169 2.326 . S
O178 C174 1.260 . S
C179 O170 1.240 . S
C179 O171 1.252 . S
O180 In169 2.294 . S
O180 C173 1.240 . S
O181 In169 2.326 . S
O181 C173 1.252 . S
In182 O183 2.294 . S
In182 O184 2.326 . S
In182 O188 2.266 . S
In182 O189 2.326 . S
In182 O190 2.266 . S
In182 O191 2.326 . S
In182 O193 2.294 . S
In182 O194 2.326 . S
O183 In182 2.294 . S
O183 C192 1.240 . S
O184 In182 2.326 . S
O184 C192 1.252 . S
C185 O188 1.252 . S
C185 O189 1.260 . S
C186 O193 1.240 . S
C186 O194 1.252 . S
C187 O190 1.252 . S
C187 O191 1.260 . S
O188 In182 2.266 . S
O188 C185 1.252 . S
O189 In182 2.326 . S
O189 C185 1.260 . S
O190 In182 2.266 . S
O190 C187 1.252 . S
O191 In182 2.326 . S
O191 C187 1.260 . S
C192 O183 1.240 . S
C192 O184 1.252 . S
O193 In182 2.294 . S
O193 C186 1.240 . S
O194 In182 2.326 . S
O194 C186 1.252 . S
In195 O196 2.294 . S
In195 O197 2.326 . S
In195 O201 2.266 . S
In195 O202 2.326 . S
In195 O203 2.266 . S
In195 O204 2.326 . S
In195 O206 2.294 . S
In195 O207 2.326 . S
O196 In195 2.294 . S
O196 C205 1.240 . S
O197 In195 2.326 . S
O197 C205 1.252 . S
C198 O201 1.252 . S
C198 O202 1.260 . S
C199 O206 1.240 . S
C199 O207 1.252 . S
C200 O203 1.252 . S
C200 O204 1.260 . S
O201 In195 2.266 . S
O201 C198 1.252 . S
O202 In195 2.326 . S
O202 C198 1.260 . S
O203 In195 2.266 . S
O203 C200 1.252 . S
O204 In195 2.326 . S
O204 C200 1.260 . S
C205 O196 1.240 . S
C205 O197 1.252 . S
O206 In195 2.294 . S
O206 C199 1.240 . S
O207 In195 2.326 . S
O207 C199 1.252 . S
H208 C214 0.930 . S
H209 C218 0.930 1_556 S
H210 C223 0.929 . S
H211 C221 0.929 . S
H212 C216 0.929 . S
H213 C222 0.929 . S
C214 H208 0.930 . S
C214 C215 1.367 . S
C214 C222 1.378 . S
C215 C214 1.367 . S
C215 C223 1.433 . S
C216 H212 0.929 . S
C216 C218 1.378 . S
C216 C220 1.350 . S
C217 C220 1.463 . S
C217 C222 1.350 . S
C217 N225 1.427 . S
C218 H209 0.930 1_554 S
C218 C216 1.378 . S
C218 C219 1.367 . S
C219 C218 1.367 . S
C219 C221 1.433 . S
C220 C216 1.350 . S
C220 C217 1.463 . S
C220 N224 1.427 . S
C221 H211 0.929 . S
C221 C219 1.433 . S
C221 N224 1.384 . S
C222 H213 0.929 . S
C222 C214 1.378 . S
C222 C217 1.350 . S
C223 H210 0.929 . S
C223 C215 1.433 . S
C223 N225 1.384 . S
N224 C220 1.427 . S
N224 C221 1.384 . S
N225 C217 1.427 . S
N225 C223 1.384 . S
H226 C232 0.930 . S
H227 C236 0.930 . S
H228 C241 0.929 . S
H229 C239 0.929 . S
H230 C234 0.929 . S
H231 C240 0.929 . S
C232 H226 0.930 . S
C232 C233 1.367 . S
C232 C240 1.378 . S
C233 C232 1.367 . S
C233 C241 1.433 . S
C234 H230 0.929 . S
C234 C236 1.378 . S
C234 C238 1.350 . S
C235 C238 1.463 . S
C235 C240 1.350 . S
C235 N243 1.427 . S
C236 H227 0.930 . S
C236 C234 1.378 . S
C236 C237 1.367 . S
C237 C236 1.367 . S
C237 C239 1.433 . S
C238 C234 1.350 . S
C238 C235 1.463 . S
C238 N242 1.427 . S
C239 H229 0.929 . S
C239 C237 1.433 . S
C239 N242 1.384 . S
C240 H231 0.929 . S
C240 C232 1.378 . S
C240 C235 1.350 . S
C241 H228 0.929 . S
C241 C233 1.433 . S
C241 N243 1.384 . S
N242 C238 1.427 . S
N242 C239 1.384 . S
N243 C235 1.427 . S
N243 C241 1.384 . S
H244 C250 0.930 . S
H245 C254 0.930 . S
H246 C259 0.929 . S
H247 C257 0.929 . S
H248 C252 0.929 . S
H249 C258 0.929 . S
C250 H244 0.930 . S
C250 C251 1.367 . S
C250 C258 1.378 . S
C251 C250 1.367 . S
C251 C259 1.433 . S
C252 H248 0.929 . S
C252 C254 1.378 . S
C252 C256 1.350 . S
C253 C256 1.463 . S
C253 C258 1.350 . S
C253 N261 1.427 . S
C254 H245 0.930 . S
C254 C252 1.378 . S
C254 C255 1.367 . S
C255 C254 1.367 . S
C255 C257 1.433 . S
C256 C252 1.350 . S
C256 C253 1.463 . S
C256 N260 1.427 . S
C257 H247 0.929 . S
C257 C255 1.433 . S
C257 N260 1.384 . S
C258 H249 0.929 . S
C258 C250 1.378 . S
C258 C253 1.350 . S
C259 H246 0.929 . S
C259 C251 1.433 . S
C259 N261 1.384 . S
N260 C256 1.427 . S
N260 C257 1.384 . S
N261 C253 1.427 . S
N261 C259 1.384 . S
H262 C268 0.930 . S
H263 C272 0.930 . S
H264 C277 0.929 . S
H265 C275 0.929 . S
H266 C270 0.929 . S
H267 C276 0.929 . S
C268 H262 0.930 . S
C268 C269 1.367 . S
C268 C276 1.378 . S
C269 C268 1.367 . S
C269 C277 1.433 . S
C270 H266 0.929 . S
C270 C272 1.378 . S
C270 C274 1.350 . S
C271 C274 1.463 . S
C271 C276 1.350 . S
C271 N279 1.427 . S
C272 H263 0.930 . S
C272 C270 1.378 . S
C272 C273 1.367 . S
C273 C272 1.367 . S
C273 C275 1.433 . S
C274 C270 1.350 . S
C274 C271 1.463 . S
C274 N278 1.427 . S
C275 H265 0.929 . S
C275 C273 1.433 . S
C275 N278 1.384 . S
C276 H267 0.929 . S
C276 C268 1.378 . S
C276 C271 1.350 . S
C277 H264 0.929 . S
C277 C269 1.433 . S
C277 N279 1.384 . S
N278 C274 1.427 . S
N278 C275 1.384 . S
N279 C271 1.427 . S
N279 C277 1.384 . S
H280 C286 0.930 . S
H281 C290 0.930 1_554 S
H282 C295 0.929 . S
H283 C293 0.929 . S
H284 C288 0.929 . S
H285 C294 0.929 . S
C286 H280 0.930 . S
C286 C287 1.367 . S
C286 C294 1.378 . S
C287 C286 1.367 . S
C287 C295 1.433 . S
C288 H284 0.929 . S
C288 C290 1.378 . S
C288 C292 1.350 . S
C289 C292 1.463 . S
C289 C294 1.350 . S
C289 N297 1.427 . S
C290 H281 0.930 1_556 S
C290 C288 1.378 . S
C290 C291 1.367 . S
C291 C290 1.367 . S
C291 C293 1.433 . S
C292 C288 1.350 . S
C292 C289 1.463 . S
C292 N296 1.427 . S
C293 H283 0.929 . S
C293 C291 1.433 . S
C293 N296 1.384 . S
C294 H285 0.929 . S
C294 C286 1.378 . S
C294 C289 1.350 . S
C295 H282 0.929 . S
C295 C287 1.433 . S
C295 N297 1.384 . S
N296 C292 1.427 . S
N296 C293 1.384 . S
N297 C289 1.427 . S
N297 C295 1.384 . S
H298 C304 0.930 1_455 S
H299 C308 0.930 . S
H300 C313 0.929 . S
H301 C311 0.929 . S
H302 C306 0.929 . S
H303 C312 0.929 . S
C304 H298 0.930 1_655 S
C304 C305 1.367 . S
C304 C312 1.378 . S
C305 C304 1.367 . S
C305 C313 1.433 . S
C306 H302 0.929 . S
C306 C308 1.378 . S
C306 C310 1.350 . S
C307 C310 1.463 . S
C307 C312 1.350 . S
C307 N315 1.427 . S
C308 H299 0.930 . S
C308 C306 1.378 . S
C308 C309 1.367 . S
C309 C308 1.367 . S
C309 C311 1.433 . S
C310 C306 1.350 . S
C310 C307 1.463 . S
C310 N314 1.427 . S
C311 H301 0.929 . S
C311 C309 1.433 . S
C311 N314 1.384 . S
C312 H303 0.929 . S
C312 C304 1.378 . S
C312 C307 1.350 . S
C313 H300 0.929 . S
C313 C305 1.433 . S
C313 N315 1.384 . S
N314 C310 1.427 . S
N314 C311 1.384 . S
N315 C307 1.427 . S
N315 C313 1.384 . S
H316 C322 0.930 . S
H317 C326 0.930 . S
H318 C331 0.929 1_455 S
H319 C329 0.929 . S
H320 C324 0.929 . S
H321 C330 0.929 . S
C322 H316 0.930 . S
C322 C323 1.367 . S
C322 C330 1.378 . S
C323 C322 1.367 . S
C323 C331 1.433 . S
C324 H320 0.929 . S
C324 C326 1.378 . S
C324 C328 1.350 . S
C325 C328 1.463 . S
C325 C330 1.350 . S
C325 N333 1.427 . S
C326 H317 0.930 . S
C326 C324 1.378 . S
C326 C327 1.367 . S
C327 C326 1.367 . S
C327 C329 1.433 . S
C328 C324 1.350 . S
C328 C325 1.463 . S
C328 N332 1.427 . S
C329 H319 0.929 . S
C329 C327 1.433 . S
C329 N332 1.384 . S
C330 H321 0.929 . S
C330 C322 1.378 . S
C330 C325 1.350 . S
C331 H318 0.929 1_655 S
C331 C323 1.433 . S
C331 N333 1.384 . S
N332 C328 1.427 . S
N332 C329 1.384 . S
N333 C325 1.427 . S
N333 C331 1.384 . S
H334 C340 0.930 . S
H335 C344 0.930 . S
H336 C349 0.929 . S
H337 C347 0.929 . S
H338 C342 0.929 . S
H339 C348 0.929 . S
C340 H334 0.930 . S
C340 C341 1.367 . S
C340 C348 1.378 . S
C341 C340 1.367 . S
C341 C349 1.433 . S
C342 H338 0.929 . S
C342 C344 1.378 . S
C342 C346 1.350 . S
C343 C346 1.463 . S
C343 C348 1.350 . S
C343 N351 1.427 . S
C344 H335 0.930 . S
C344 C342 1.378 . S
C344 C345 1.367 . S
C345 C344 1.367 . S
C345 C347 1.433 . S
C346 C342 1.350 . S
C346 C343 1.463 . S
C346 N350 1.427 . S
C347 H337 0.929 . S
C347 C345 1.433 . S
C347 N350 1.384 . S
C348 H339 0.929 . S
C348 C340 1.378 . S
C348 C343 1.350 . S
C349 H336 0.929 . S
C349 C341 1.433 . S
C349 N351 1.384 . S
N350 C346 1.427 . S
N350 C347 1.384 . S
N351 C343 1.427 . S
N351 C349 1.384 . S
H352 C358 0.930 . S
H353 C362 0.930 . S
H354 C367 0.929 . S
H355 C365 0.929 . S
H356 C360 0.929 . S
H357 C366 0.929 . S
C358 H352 0.930 . S
C358 C359 1.367 . S
C358 C366 1.378 . S
C359 C358 1.367 . S
C359 C367 1.433 . S
C360 H356 0.929 . S
C360 C362 1.378 . S
C360 C364 1.350 . S
C361 C364 1.463 . S
C361 C366 1.350 . S
C361 N369 1.427 . S
C362 H353 0.930 . S
C362 C360 1.378 . S
C362 C363 1.367 . S
C363 C362 1.367 . S
C363 C365 1.433 . S
C364 C360 1.350 . S
C364 C361 1.463 . S
C364 N368 1.427 . S
C365 H355 0.929 . S
C365 C363 1.433 . S
C365 N368 1.384 . S
C366 H357 0.929 . S
C366 C358 1.378 . S
C366 C361 1.350 . S
C367 H354 0.929 . S
C367 C359 1.433 . S
C367 N369 1.384 . S
N368 C364 1.427 . S
N368 C365 1.384 . S
N369 C361 1.427 . S
N369 C367 1.384 . S
H370 C376 0.930 1_655 S
H371 C380 0.930 1_545 S
H372 C385 0.929 . S
H373 C383 0.929 . S
H374 C378 0.929 1_545 S
H375 C384 0.929 1_655 S
C376 H370 0.930 1_455 S
C376 C377 1.367 . S
C376 C384 1.378 . S
C377 C376 1.367 . S
C377 C385 1.433 1_565 S
C378 H374 0.929 1_565 S
C378 C380 1.378 . S
C378 C382 1.350 . S
C379 C382 1.463 . S
C379 C384 1.350 . S
C379 N387 1.410 1_565 S
C380 H371 0.930 1_565 S
C380 C378 1.378 . S
C380 C381 1.367 . S
C381 C380 1.367 . S
C381 C383 1.433 1_455 S
C382 C378 1.350 . S
C382 C379 1.463 . S
C382 N386 1.427 1_455 S
C383 H373 0.929 . S
C383 C381 1.433 1_655 S
C383 N386 1.384 . S
C384 H375 0.929 1_455 S
C384 C376 1.378 . S
C384 C379 1.350 . S
C385 H372 0.929 . S
C385 C377 1.433 1_545 S
C385 N387 1.380 . S
N386 C382 1.427 1_655 S
N386 C383 1.384 . S
N387 C379 1.410 1_545 S
N387 C385 1.380 . S
H388 C394 0.930 . S
H389 C398 0.930 . S
H390 C403 0.929 . S
H391 C401 0.929 . S
H392 C396 0.929 . S
H393 C402 0.929 1_554 S
C394 H388 0.930 . S
C394 C395 1.367 . S
C394 C402 1.378 . S
C395 C394 1.367 . S
C395 C403 1.433 . S
C396 H392 0.929 . S
C396 C398 1.378 . S
C396 C400 1.350 . S
C397 C400 1.463 . S
C397 C402 1.350 1_554 S
C397 N405 1.427 1_554 S
C398 H389 0.930 . S
C398 C396 1.378 . S
C398 C399 1.367 . S
C399 C398 1.367 . S
C399 C401 1.433 . S
C400 C396 1.350 . S
C400 C397 1.463 . S
C400 N404 1.427 . S
C401 H391 0.929 . S
C401 C399 1.433 . S
C401 N404 1.384 . S
C402 H393 0.929 1_556 S
C402 C394 1.378 . S
C402 C397 1.350 1_556 S
C403 H390 0.929 . S
C403 C395 1.433 . S
C403 N405 1.384 . S
N404 C400 1.427 . S
N404 C401 1.384 . S
N405 C397 1.427 1_556 S
N405 C403 1.384 . S
H406 C412 0.930 . S
H407 C416 0.930 . S
H408 C421 0.929 . S
H409 C419 0.929 . S
H410 C414 0.929 . S
H411 C420 0.929 . S
C412 H406 0.930 . S
C412 C413 1.367 1_545 S
C412 C420 1.378 . S
C413 C412 1.367 1_565 S
C413 C421 1.433 . S
C414 H410 0.929 . S
C414 C416 1.378 . S
C414 C418 1.350 . S
C415 C418 1.463 . S
C415 C420 1.350 1_565 S
C415 N423 1.427 . S
C416 H407 0.930 . S
C416 C414 1.378 . S
C416 C417 1.367 . S
C417 C416 1.367 . S
C417 C419 1.433 1_565 S
C418 C414 1.350 . S
C418 C415 1.463 . S
C418 N422 1.427 1_565 S
C419 H409 0.929 . S
C419 C417 1.433 1_545 S
C419 N422 1.384 . S
C420 H411 0.929 . S
C420 C412 1.378 . S
C420 C415 1.350 1_545 S
C421 H408 0.929 . S
C421 C413 1.433 . S
C421 N423 1.384 . S
N422 C418 1.427 1_545 S
N422 C419 1.384 . S
N423 C415 1.427 . S
N423 C421 1.384 . S
H424 C430 0.930 . S
H425 C434 0.930 . S
H426 C439 0.929 . S
H427 C437 0.929 . S
H428 C432 0.929 . S
H429 C438 0.929 . S
C430 H424 0.930 . S
C430 C431 1.367 . S
C430 C438 1.378 . S
C431 C430 1.367 . S
C431 C439 1.433 . S
C432 H428 0.929 . S
C432 C434 1.378 . S
C432 C436 1.350 . S
C433 C436 1.463 . S
C433 C438 1.350 . S
C433 N441 1.427 . S
C434 H425 0.930 . S
C434 C432 1.378 . S
C434 C435 1.367 . S
C435 C434 1.367 . S
C435 C437 1.433 . S
C436 C432 1.350 . S
C436 C433 1.463 . S
C436 N440 1.427 . S
C437 H427 0.929 . S
C437 C435 1.433 . S
C437 N440 1.384 . S
C438 H429 0.929 . S
C438 C430 1.378 . S
C438 C433 1.350 . S
C439 H426 0.929 . S
C439 C431 1.433 . S
C439 N441 1.384 . S
N440 C436 1.427 . S
N440 C437 1.384 . S
N441 C433 1.427 . S
N441 C439 1.384 . S
H442 C448 0.930 . S
H443 C452 0.930 . S
H444 C457 0.929 . S
H445 C455 0.929 . S
H446 C450 0.929 . S
H447 C456 0.929 . S
C448 H442 0.930 . S
C448 C449 1.367 . S
C448 C456 1.378 . S
C449 C448 1.367 . S
C449 C457 1.433 . S
C450 H446 0.929 . S
C450 C452 1.378 . S
C450 C454 1.350 1_455 S
C451 C454 1.463 . S
C451 C456 1.350 . S
C451 N459 1.427 . S
C452 H443 0.930 . S
C452 C450 1.378 . S
C452 C453 1.366 . S
C453 C452 1.366 . S
C453 C455 1.434 1_455 S
C454 C450 1.350 1_655 S
C454 C451 1.463 . S
C454 N458 1.427 . S
C455 H445 0.929 . S
C455 C453 1.434 1_655 S
C455 N458 1.384 . S
C456 H447 0.929 . S
C456 C448 1.378 . S
C456 C451 1.350 . S
C457 H444 0.929 . S
C457 C449 1.433 . S
C457 N459 1.384 . S
N458 C454 1.427 . S
N458 C455 1.384 . S
N459 C451 1.427 . S
N459 C457 1.384 . S
H460 C466 0.930 . S
H461 C470 0.930 . S
H462 C475 0.929 . S
H463 C473 0.929 . S
H464 C468 0.929 . S
H465 C474 0.929 . S
C466 H460 0.930 . S
C466 C467 1.367 . S
C466 C474 1.378 1_655 S
C467 C466 1.367 . S
C467 C475 1.433 . S
C468 H464 0.929 . S
C468 C470 1.378 . S
C468 C472 1.350 . S
C469 C472 1.463 . S
C469 C474 1.350 . S
C469 N477 1.427 . S
C470 H461 0.930 . S
C470 C468 1.378 . S
C470 C471 1.367 . S
C471 C470 1.367 . S
C471 C473 1.433 . S
C472 C468 1.350 . S
C472 C469 1.463 . S
C472 N476 1.427 . S
C473 H463 0.929 . S
C473 C471 1.433 . S
C473 N476 1.384 . S
C474 H465 0.929 . S
C474 C466 1.378 1_455 S
C474 C469 1.350 . S
C475 H462 0.929 . S
C475 C467 1.433 . S
C475 N477 1.384 1_655 S
N476 C472 1.427 . S
N476 C473 1.384 . S
N477 C469 1.427 . S
N477 C475 1.384 1_455 S
H478 C484 0.930 . S
H479 C488 0.930 . S
H480 C493 0.929 . S
H481 C491 0.929 . S
H482 C486 0.929 . S
H483 C492 0.929 . S
C484 H478 0.930 . S
C484 C485 1.367 1_556 S
C484 C492 1.378 . S
C485 C484 1.367 1_554 S
C485 C493 1.433 . S
C486 H482 0.929 . S
C486 C488 1.378 . S
C486 C490 1.350 . S
C487 C490 1.463 . S
C487 C492 1.350 1_554 S
C487 N495 1.427 . S
C488 H479 0.930 . S
C488 C486 1.378 . S
C488 C489 1.367 . S
C489 C488 1.367 . S
C489 C491 1.433 1_554 S
C490 C486 1.350 . S
C490 C487 1.463 . S
C490 N494 1.427 1_554 S
C491 H481 0.929 . S
C491 C489 1.433 1_556 S
C491 N494 1.384 . S
C492 H483 0.929 . S
C492 C484 1.378 . S
C492 C487 1.350 1_556 S
C493 H480 0.929 . S
C493 C485 1.433 . S
C493 N495 1.384 . S
N494 C490 1.427 1_556 S
N494 C491 1.384 . S
N495 C487 1.427 . S
N495 C493 1.384 . S
H496 C502 0.930 . S
H497 C506 0.930 . S
H498 C511 0.929 . S
H499 C509 0.929 . S
H500 C504 0.929 . S
H501 C510 0.929 . S
C502 H496 0.930 . S
C502 C503 1.367 . S
C502 C510 1.378 . S
C503 C502 1.367 . S
C503 C511 1.433 . S
C504 H500 0.929 . S
C504 C506 1.378 . S
C504 C508 1.350 . S
C505 C508 1.463 . S
C505 C510 1.350 . S
C505 N513 1.427 . S
C506 H497 0.930 . S
C506 C504 1.378 . S
C506 C507 1.367 . S
C507 C506 1.367 . S
C507 C509 1.433 . S
C508 C504 1.350 . S
C508 C505 1.463 . S
C508 N512 1.427 . S
C509 H499 0.929 . S
C509 C507 1.433 . S
C509 N512 1.384 . S
C510 H501 0.929 . S
C510 C502 1.378 . S
C510 C505 1.350 . S
C511 H498 0.929 . S
C511 C503 1.433 . S
C511 N513 1.384 . S
N512 C508 1.427 . S
N512 C509 1.384 . S
N513 C505 1.427 . S
N513 C511 1.384 . S
H514 C520 0.930 . S
H515 C524 0.930 . S
H516 C529 0.929 . S
H517 C527 0.929 . S
H518 C522 0.929 . S
H519 C528 0.929 . S
C520 H514 0.930 . S
C520 C521 1.367 . S
C520 C528 1.378 . S
C521 C520 1.367 . S
C521 C529 1.433 . S
C522 H518 0.929 . S
C522 C524 1.378 . S
C522 C526 1.350 . S
C523 C526 1.463 . S
C523 C528 1.350 . S
C523 N531 1.427 . S
C524 H515 0.930 . S
C524 C522 1.378 . S
C524 C525 1.367 . S
C525 C524 1.367 . S
C525 C527 1.433 . S
C526 C522 1.350 . S
C526 C523 1.463 . S
C526 N530 1.427 . S
C527 H517 0.929 . S
C527 C525 1.433 . S
C527 N530 1.384 . S
C528 H519 0.929 . S
C528 C520 1.378 . S
C528 C523 1.350 . S
C529 H516 0.929 . S
C529 C521 1.433 . S
C529 N531 1.384 . S
N530 C526 1.427 . S
N530 C527 1.384 . S
N531 C523 1.427 . S
N531 C529 1.384 . S
H532 C538 0.930 . S
H533 C542 0.930 . S
H534 C547 0.929 . S
H535 C545 0.929 1_655 S
H536 C540 0.929 . S
H537 C546 0.929 . S
C538 H532 0.930 . S
C538 C539 1.367 . S
C538 C546 1.378 . S
C539 C538 1.367 . S
C539 C547 1.433 . S
C540 H536 0.929 . S
C540 C542 1.378 . S
C540 C544 1.350 . S
C541 C544 1.463 . S
C541 C546 1.350 . S
C541 N549 1.427 . S
C542 H533 0.930 . S
C542 C540 1.378 . S
C542 C543 1.367 1_455 S
C543 C542 1.367 1_655 S
C543 C545 1.433 1_655 S
C544 C540 1.350 . S
C544 C541 1.463 . S
C544 N548 1.427 . S
C545 H535 0.929 1_455 S
C545 C543 1.433 1_455 S
C545 N548 1.384 . S
C546 H537 0.929 . S
C546 C538 1.378 . S
C546 C541 1.350 . S
C547 H534 0.929 . S
C547 C539 1.433 . S
C547 N549 1.384 . S
N548 C544 1.427 . S
N548 C545 1.384 . S
N549 C541 1.427 . S
N549 C547 1.384 . S
H550 C556 0.930 . S
H551 C560 0.930 . S
H552 C565 0.929 . S
H553 C563 0.929 . S
H554 C558 0.929 . S
H555 C564 0.929 . S
C556 H550 0.930 . S
C556 C557 1.367 . S
C556 C564 1.378 . S
C557 C556 1.367 . S
C557 C565 1.433 1_455 S
C558 H554 0.929 . S
C558 C560 1.378 . S
C558 C562 1.350 . S
C559 C562 1.463 1_455 S
C559 C564 1.350 . S
C559 N567 1.427 1_455 S
C560 H551 0.930 . S
C560 C558 1.378 . S
C560 C561 1.367 . S
C561 C560 1.367 . S
C561 C563 1.433 1_655 S
C562 C558 1.350 . S
C562 C559 1.463 1_655 S
C562 N566 1.427 1_655 S
C563 H553 0.929 . S
C563 C561 1.433 1_455 S
C563 N566 1.384 . S
C564 H555 0.929 . S
C564 C556 1.378 . S
C564 C559 1.350 . S
C565 H552 0.929 . S
C565 C557 1.433 1_655 S
C565 N567 1.384 . S
N566 C562 1.427 1_455 S
N566 C563 1.384 . S
N567 C559 1.427 1_655 S
N567 C565 1.384 . S
H568 C574 0.930 . S
H569 C578 0.930 . S
H570 C583 0.929 . S
H571 C581 0.929 . S
H572 C576 0.929 . S
H573 C582 0.929 . S
C574 H568 0.930 . S
C574 C575 1.367 . S
C574 C582 1.378 . S
C575 C574 1.367 . S
C575 C583 1.433 . S
C576 H572 0.929 . S
C576 C578 1.378 . S
C576 C580 1.350 . S
C577 C580 1.463 . S
C577 C582 1.350 . S
C577 N585 1.427 . S
C578 H569 0.930 . S
C578 C576 1.378 . S
C578 C579 1.367 . S
C579 C578 1.367 . S
C579 C581 1.433 . S
C580 C576 1.350 . S
C580 C577 1.463 . S
C580 N584 1.427 . S
C581 H571 0.929 . S
C581 C579 1.433 . S
C581 N584 1.384 . S
C582 H573 0.929 . S
C582 C574 1.378 . S
C582 C577 1.350 . S
C583 H570 0.929 . S
C583 C575 1.433 . S
C583 N585 1.384 . S
N584 C580 1.427 . S
N584 C581 1.384 . S
N585 C577 1.427 . S
N585 C583 1.384 . S
H586 C592 0.930 . S
H587 C596 0.930 . S
H588 C601 0.929 . S
H589 C599 0.929 . S
H590 C594 0.929 . S
H591 C600 0.929 . S
C592 H586 0.930 . S
C592 C593 1.367 . S
C592 C600 1.378 . S
C593 C592 1.367 . S
C593 C601 1.433 . S
C594 H590 0.929 . S
C594 C596 1.378 . S
C594 C598 1.350 1_565 S
C595 C598 1.463 . S
C595 C600 1.350 . S
C595 N603 1.427 . S
C596 H587 0.930 . S
C596 C594 1.378 . S
C596 C597 1.367 . S
C597 C596 1.367 . S
C597 C599 1.433 . S
C598 C594 1.350 1_545 S
C598 C595 1.463 . S
C598 N602 1.427 . S
C599 H589 0.929 . S
C599 C597 1.433 . S
C599 N602 1.384 1_565 S
C600 H591 0.929 . S
C600 C592 1.378 . S
C600 C595 1.350 . S
C601 H588 0.929 . S
C601 C593 1.433 . S
C601 N603 1.384 . S
N602 C598 1.427 . S
N602 C599 1.384 1_545 S
N603 C595 1.427 . S
N603 C601 1.384 . S
H604 C610 0.930 . S
H605 C614 0.930 . S
H606 C619 0.929 . S
H607 C617 0.929 . S
H608 C612 0.929 . S
H609 C618 0.929 . S
C610 H604 0.930 . S
C610 C611 1.367 . S
C610 C618 1.378 . S
C611 C610 1.367 . S
C611 C619 1.433 1_554 S
C612 H608 0.929 . S
C612 C614 1.378 . S
C612 C616 1.350 1_556 S
C613 C616 1.463 . S
C613 C618 1.350 . S
C613 N621 1.427 1_554 S
C614 H605 0.930 . S
C614 C612 1.378 . S
C614 C615 1.367 . S
C615 C614 1.367 . S
C615 C617 1.433 1_556 S
C616 C612 1.350 1_554 S
C616 C613 1.463 . S
C616 N620 1.427 . S
C617 H607 0.929 . S
C617 C615 1.433 1_554 S
C617 N620 1.384 . S
C618 H609 0.929 . S
C618 C610 1.378 . S
C618 C613 1.350 . S
C619 H606 0.929 . S
C619 C611 1.433 1_556 S
C619 N621 1.384 . S
N620 C616 1.427 . S
N620 C617 1.384 . S
N621 C613 1.427 1_556 S
N621 C619 1.384 . S
H622 C628 0.930 . S
H623 C632 0.930 . S
H624 C637 0.929 . S
H625 C635 0.929 . S
H626 C630 0.929 1_545 S
H627 C636 0.929 . S
C628 H622 0.930 . S
C628 C629 1.367 . S
C628 C636 1.378 . S
C629 C628 1.367 . S
C629 C637 1.433 . S
C630 H626 0.929 1_565 S
C630 C632 1.378 . S
C630 C634 1.350 1_565 S
C631 C634 1.463 . S
C631 C636 1.350 . S
C631 N639 1.427 . S
C632 H623 0.930 . S
C632 C630 1.378 . S
C632 C633 1.367 . S
C633 C632 1.367 . S
C633 C635 1.433 . S
C634 C630 1.350 1_545 S
C634 C631 1.463 . S
C634 N638 1.427 1_545 S
C635 H625 0.929 . S
C635 C633 1.433 . S
C635 N638 1.384 . S
C636 H627 0.929 . S
C636 C628 1.378 . S
C636 C631 1.350 . S
C637 H624 0.929 . S
C637 C629 1.433 . S
C637 N639 1.384 . S
N638 C634 1.427 1_565 S
N638 C635 1.384 . S
N639 C631 1.427 . S
N639 C637 1.384 . S
H640 C646 0.930 . S
H641 C650 0.930 . S
H642 C655 0.929 . S
H643 C653 0.929 . S
H644 C648 0.929 . S
H645 C654 0.929 . S
C646 H640 0.930 . S
C646 C647 1.367 1_554 S
C646 C654 1.378 . S
C647 C646 1.367 1_556 S
C647 C655 1.433 . S
C648 H644 0.929 . S
C648 C650 1.378 . S
C648 C652 1.350 . S
C649 C652 1.463 . S
C649 C654 1.350 1_556 S
C649 N657 1.427 . S
C650 H641 0.930 . S
C650 C648 1.378 . S
C650 C651 1.367 . S
C651 C650 1.367 . S
C651 C653 1.433 1_556 S
C652 C648 1.350 . S
C652 C649 1.463 . S
C652 N656 1.427 1_556 S
C653 H643 0.929 . S
C653 C651 1.433 1_554 S
C653 N656 1.384 . S
C654 H645 0.929 . S
C654 C646 1.378 . S
C654 C649 1.350 1_554 S
C655 H642 0.929 . S
C655 C647 1.433 . S
C655 N657 1.384 . S
N656 C652 1.427 1_554 S
N656 C653 1.384 . S
N657 C649 1.427 . S
N657 C655 1.384 . S
H658 C664 0.930 . S
H659 C668 0.930 . S
H660 C673 0.929 . S
H661 C671 0.929 . S
H662 C666 0.929 . S
H663 C672 0.929 . S
C664 H658 0.930 . S
C664 C665 1.367 . S
C664 C672 1.378 . S
C665 C664 1.367 . S
C665 C673 1.433 . S
C666 H662 0.929 . S
C666 C668 1.378 . S
C666 C670 1.350 . S
C667 C670 1.463 . S
C667 C672 1.350 . S
C667 N675 1.427 . S
C668 H659 0.930 . S
C668 C666 1.378 . S
C668 C669 1.367 . S
C669 C668 1.367 . S
C669 C671 1.433 . S
C670 C666 1.350 . S
C670 C667 1.463 . S
C670 N674 1.427 . S
C671 H661 0.929 . S
C671 C669 1.433 . S
C671 N674 1.384 . S
C672 H663 0.929 . S
C672 C664 1.378 . S
C672 C667 1.350 . S
C673 H660 0.929 . S
C673 C665 1.433 . S
C673 N675 1.384 . S
N674 C670 1.427 . S
N674 C671 1.384 . S
N675 C667 1.427 . S
N675 C673 1.384 . S
H676 C682 0.930 . S
H677 C686 0.930 . S
H678 C691 0.929 . S
H679 C689 0.929 . S
H680 C684 0.929 . S
H681 C690 0.929 . S
C682 H676 0.930 . S
C682 C683 1.367 . S
C682 C690 1.378 . S
C683 C682 1.367 . S
C683 C691 1.433 . S
C684 H680 0.929 . S
C684 C686 1.378 . S
C684 C688 1.350 . S
C685 C688 1.463 . S
C685 C690 1.350 . S
C685 N693 1.427 . S
C686 H677 0.930 . S
C686 C684 1.378 . S
C686 C687 1.367 . S
C687 C686 1.367 . S
C687 C689 1.433 . S
C688 C684 1.350 . S
C688 C685 1.463 . S
C688 N692 1.427 . S
C689 H679 0.929 . S
C689 C687 1.433 . S
C689 N692 1.384 . S
C690 H681 0.929 . S
C690 C682 1.378 . S
C690 C685 1.350 . S
C691 H678 0.929 . S
C691 C683 1.433 . S
C691 N693 1.384 . S
N692 C688 1.427 . S
N692 C689 1.384 . S
N693 C685 1.427 . S
N693 C691 1.384 . S
H694 C700 0.930 . S
H695 C704 0.930 . S
H696 C709 0.929 . S
H697 C707 0.929 . S
H698 C702 0.929 . S
H699 C708 0.929 1_554 S
C700 H694 0.930 . S
C700 C701 1.367 . S
C700 C708 1.378 . S
C701 C700 1.367 . S
C701 C709 1.433 . S
C702 H698 0.929 . S
C702 C704 1.378 . S
C702 C706 1.350 . S
C703 C706 1.463 . S
C703 C708 1.350 1_554 S
C703 N711 1.427 1_554 S
C704 H695 0.930 . S
C704 C702 1.378 . S
C704 C705 1.367 . S
C705 C704 1.367 . S
C705 C707 1.433 . S
C706 C702 1.350 . S
C706 C703 1.463 . S
C706 N710 1.427 . S
C707 H697 0.929 . S
C707 C705 1.433 . S
C707 N710 1.384 . S
C708 H699 0.929 1_556 S
C708 C700 1.378 . S
C708 C703 1.350 1_556 S
C709 H696 0.929 . S
C709 C701 1.433 . S
C709 N711 1.384 . S
N710 C706 1.427 . S
N710 C707 1.384 . S
N711 C703 1.427 1_556 S
N711 C709 1.384 . S
H712 C718 0.930 . S
H713 C722 0.930 . S
H714 C727 0.929 . S
H715 C725 0.929 . S
H716 C720 0.929 . S
H717 C726 0.929 . S
C718 H712 0.930 . S
C718 C719 1.367 . S
C718 C726 1.378 . S
C719 C718 1.367 . S
C719 C727 1.433 . S
C720 H716 0.929 . S
C720 C722 1.378 . S
C720 C724 1.350 . S
C721 C724 1.463 . S
C721 C726 1.350 . S
C721 N729 1.427 . S
C722 H713 0.930 . S
C722 C720 1.378 . S
C722 C723 1.367 . S
C723 C722 1.367 . S
C723 C725 1.433 . S
C724 C720 1.350 . S
C724 C721 1.463 . S
C724 N728 1.427 . S
C725 H715 0.929 . S
C725 C723 1.433 . S
C725 N728 1.384 . S
C726 H717 0.929 . S
C726 C718 1.378 . S
C726 C721 1.350 . S
C727 H714 0.929 . S
C727 C719 1.433 . S
C727 N729 1.384 . S
N728 C724 1.427 . S
N728 C725 1.384 . S
N729 C721 1.427 . S
N729 C727 1.384 . S
H730 C736 0.930 . S
H731 C740 0.930 . S
H732 C745 0.929 . S
H733 C743 0.929 . S
H734 C738 0.929 . S
H735 C744 0.929 . S
C736 H730 0.930 . S
C736 C737 1.367 . S
C736 C744 1.378 . S
C737 C736 1.367 . S
C737 C745 1.433 . S
C738 H734 0.929 . S
C738 C740 1.378 . S
C738 C742 1.350 . S
C739 C742 1.463 . S
C739 C744 1.350 . S
C739 N747 1.427 . S
C740 H731 0.930 . S
C740 C738 1.378 . S
C740 C741 1.367 . S
C741 C740 1.367 . S
C741 C743 1.433 . S
C742 C738 1.350 . S
C742 C739 1.463 . S
C742 N746 1.427 . S
C743 H733 0.929 . S
C743 C741 1.433 . S
C743 N746 1.384 . S
C744 H735 0.929 . S
C744 C736 1.378 . S
C744 C739 1.350 . S
C745 H732 0.929 . S
C745 C737 1.433 . S
C745 N747 1.384 . S
N746 C742 1.427 . S
N746 C743 1.384 . S
N747 C739 1.427 . S
N747 C745 1.384 . S
H748 C754 0.930 . S
H749 C758 0.930 . S
H750 C763 0.929 . S
H751 C761 0.929 . S
H752 C756 0.929 . S
H753 C762 0.929 . S
C754 H748 0.930 . S
C754 C755 1.367 . S
C754 C762 1.378 . S
C755 C754 1.367 . S
C755 C763 1.433 . S
C756 H752 0.929 . S
C756 C758 1.378 . S
C756 C760 1.350 . S
C757 C760 1.463 . S
C757 C762 1.350 . S
C757 N765 1.427 . S
C758 H749 0.930 . S
C758 C756 1.378 . S
C758 C759 1.367 . S
C759 C758 1.367 . S
C759 C761 1.433 . S
C760 C756 1.350 . S
C760 C757 1.463 . S
C760 N764 1.427 . S
C761 H751 0.929 . S
C761 C759 1.433 . S
C761 N764 1.384 . S
C762 H753 0.929 . S
C762 C754 1.378 . S
C762 C757 1.350 . S
C763 H750 0.929 . S
C763 C755 1.433 . S
C763 N765 1.384 . S
N764 C760 1.427 . S
N764 C761 1.384 . S
N765 C757 1.427 . S
N765 C763 1.384 . S
H766 C772 0.930 . S
H767 C776 0.930 . S
H768 C781 0.929 . S
H769 C779 0.929 . S
H770 C774 0.929 . S
H771 C780 0.929 . S
C772 H766 0.930 . S
C772 C773 1.388 . S
C772 C780 1.378 . S
C773 C772 1.388 . S
C773 C781 1.416 1_545 S
C774 H770 0.929 . S
C774 C776 1.378 . S
C774 C778 1.350 1_565 S
C775 C778 1.463 . S
C775 C780 1.350 . S
C775 N783 1.427 1_545 S
C776 H767 0.930 . S
C776 C774 1.378 . S
C776 C777 1.367 1_565 S
C777 C776 1.367 1_545 S
C777 C779 1.433 . S
C778 C774 1.350 1_545 S
C778 C775 1.463 . S
C778 N782 1.427 . S
C779 H769 0.929 . S
C779 C777 1.433 . S
C779 N782 1.384 . S
C780 H771 0.929 . S
C780 C772 1.378 . S
C780 C775 1.350 . S
C781 H768 0.929 . S
C781 C773 1.416 1_565 S
C781 N783 1.384 . S
N782 C778 1.427 . S
N782 C779 1.384 . S
N783 C775 1.427 1_565 S
N783 C781 1.384 . S
C215 C10 1.935 . S
C219 C95 1.938 1_554 S
C233 C17 1.920 . S
C237 C56 1.920 . S
C251 C75 1.952 . S
C255 C30 1.977 . S
C269 C49 1.962 . S
C273 C88 1.937 . S
C287 C114 1.892 . S
C291 C166 1.891 . S
C305 C121 1.960 1_554 S
C309 C186 1.981 . S
C323 C147 1.964 . S
C327 C140 1.941 . S
C341 C205 1.836 . S
C345 C173 1.833 . S
C359 C3 1.326 . S
C363 C81 1.336 . S
C377 C94 0.812 . S
C381 C23 0.808 . S
C395 C31 1.719 . S
C399 C55 1.723 . S
C413 C70 1.039 . S
C417 C44 1.084 . S
C431 C4 1.603 . S
C435 C192 1.609 . S
C449 C148 1.718 . S
C453 C16 1.720 1_455 S
C467 C179 1.510 . S
C471 C36 1.514 . S
C485 C161 1.684 . S
C489 C42 1.674 . S
C503 C134 1.199 . S
C507 C57 1.222 . S
C521 C68 1.320 . S
C525 C198 1.308 . S
C539 C82 1.125 . S
C543 C107 1.144 . S
C557 C96 1.308 . S
C561 C122 1.316 . S
C575 C5 0.851 . S
C579 C62 0.839 . S
C593 C108 0.881 . S
C597 C172 0.866 . S
C611 C159 1.003 . S
C615 C127 0.987 . S
C629 C185 1.087 . S
C633 C135 1.039 . S
C647 C101 1.370 . S
C651 C43 1.369 . S
C665 C29 1.129 . S
C669 C83 1.095 . S
C683 C153 1.535 . S
C687 C199 1.535 . S
C701 C174 1.314 . S
C705 C133 1.322 . S
C719 C200 0.805 . S
C723 C160 0.816 . S
C737 C187 1.715 . S
C741 C109 1.710 . S
C755 C146 1.081 . S
C759 C120 1.055 . S
C773 C18 1.176 . S
C777 C69 1.163 . S
