# Generated by pormake.
# Topology vcu, (8)-cn, num edge types: 1
# Building blocks:
#     Node 0, Type 0, BuildingBlock: TAGTUT_clean_sbu_3, # of connection points: 8
#     Node 1, Type 0, BuildingBlock: TAGTUT_clean_sbu_3, # of connection points: 8
#     Node 2, Type 0, BuildingBlock: TAGTUT_clean_sbu_3, # of connection points: 8
#     Node 3, Type 0, BuildingBlock: TAGTUT_clean_sbu_3, # of connection points: 8
#     Node 4, Type 0, BuildingBlock: TAGTUT_clean_sbu_3, # of connection points: 8
#     Node 5, Type 0, BuildingBlock: TAGTUT_clean_sbu_3, # of connection points: 8
#     Node 6, Type 0, BuildingBlock: TAGTUT_clean_sbu_3, # of connection points: 8
#     Node 7, Type 0, BuildingBlock: TAGTUT_clean_sbu_3, # of connection points: 8
#     Edge 8, Type (0, 0), BuildingBlock: UVAHIK_clean_linker_0, # of connection points: 2
#     Edge 9, Type (0, 0), BuildingBlock: UVAHIK_clean_linker_0, # of connection points: 2
#     Edge 10, Type (0, 0), BuildingBlock: UVAHIK_clean_linker_0, # of connection points: 2
#     Edge 11, Type (0, 0), BuildingBlock: UVAHIK_clean_linker_0, # of connection points: 2
#     Edge 12, Type (0, 0), BuildingBlock: UVAHIK_clean_linker_0, # of connection points: 2
#     Edge 13, Type (0, 0), BuildingBlock: UVAHIK_clean_linker_0, # of connection points: 2
#     Edge 14, Type (0, 0), BuildingBlock: UVAHIK_clean_linker_0, # of connection points: 2
#     Edge 15, Type (0, 0), BuildingBlock: UVAHIK_clean_linker_0, # of connection points: 2
#     Edge 16, Type (0, 0), BuildingBlock: UVAHIK_clean_linker_0, # of connection points: 2
#     Edge 17, Type (0, 0), BuildingBlock: UVAHIK_clean_linker_0, # of connection points: 2
#     Edge 18, Type (0, 0), BuildingBlock: UVAHIK_clean_linker_0, # of connection points: 2
#     Edge 19, Type (0, 0), BuildingBlock: UVAHIK_clean_linker_0, # of connection points: 2
#     Edge 20, Type (0, 0), BuildingBlock: UVAHIK_clean_linker_0, # of connection points: 2
#     Edge 21, Type (0, 0), BuildingBlock: UVAHIK_clean_linker_0, # of connection points: 2
#     Edge 22, Type (0, 0), BuildingBlock: UVAHIK_clean_linker_0, # of connection points: 2
#     Edge 23, Type (0, 0), BuildingBlock: UVAHIK_clean_linker_0, # of connection points: 2
#     Edge 24, Type (0, 0), BuildingBlock: UVAHIK_clean_linker_0, # of connection points: 2
#     Edge 25, Type (0, 0), BuildingBlock: UVAHIK_clean_linker_0, # of connection points: 2
#     Edge 26, Type (0, 0), BuildingBlock: UVAHIK_clean_linker_0, # of connection points: 2
#     Edge 27, Type (0, 0), BuildingBlock: UVAHIK_clean_linker_0, # of connection points: 2
#     Edge 28, Type (0, 0), BuildingBlock: UVAHIK_clean_linker_0, # of connection points: 2
#     Edge 29, Type (0, 0), BuildingBlock: UVAHIK_clean_linker_0, # of connection points: 2
#     Edge 30, Type (0, 0), BuildingBlock: UVAHIK_clean_linker_0, # of connection points: 2
#     Edge 31, Type (0, 0), BuildingBlock: UVAHIK_clean_linker_0, # of connection points: 2
#     Edge 32, Type (0, 0), BuildingBlock: UVAHIK_clean_linker_0, # of connection points: 2
#     Edge 33, Type (0, 0), BuildingBlock: UVAHIK_clean_linker_0, # of connection points: 2
#     Edge 34, Type (0, 0), BuildingBlock: UVAHIK_clean_linker_0, # of connection points: 2
#     Edge 35, Type (0, 0), BuildingBlock: UVAHIK_clean_linker_0, # of connection points: 2
#     Edge 36, Type (0, 0), BuildingBlock: UVAHIK_clean_linker_0, # of connection points: 2
#     Edge 37, Type (0, 0), BuildingBlock: UVAHIK_clean_linker_0, # of connection points: 2
#     Edge 38, Type (0, 0), BuildingBlock: UVAHIK_clean_linker_0, # of connection points: 2
#     Edge 39, Type (0, 0), BuildingBlock: UVAHIK_clean_linker_0, # of connection points: 2
# Relax obj value: 0.241
# Max RMSD: 0.292
# Mean RMSD: 0.290
data_MOF--net-vcu--node1-TAGTUT_clean_sbu_3--edge1-UVAHIK_clean_linker_0
_symmetry_space_group_name_H-M    P1
_symmetry_Int_Tables_number       1
_symmetry_cell_setting            triclinic
loop_
_symmetry_equiv_pos_as_xyz
'x, y, z'
_cell_length_a     23.22211
_cell_length_b     41.264326
_cell_length_c     63.644419
_cell_angle_alpha  89.885466
_cell_angle_beta   89.985207
_cell_angle_gamma 90.009522
loop_
_atom_site_label
_atom_site_type_symbol
_atom_site_fract_x
_atom_site_fract_y
_atom_site_fract_z
_atom_type_partial_charge
C0 C 0.38119 0.37373 0.34706 0.0
C1 C 0.54212 0.33479 0.3985 0.0
C2 C 0.40193 0.30338 0.43696 0.0
Mg3 Mg 0.25471 0.39701 0.3556 0.0
Mg4 Mg 0.21765 0.43159 0.40033 0.0
O5 O 0.24807 0.39494 0.3872 0.0
Mg6 Mg 0.32897 0.38265 0.39399 0.0
O7 O 0.41018 0.36758 0.39793 0.0
Mg8 Mg 0.40461 0.32301 0.3851 0.0
Mg9 Mg 0.44547 0.36931 0.42411 0.0
C10 C 0.2602 0.38954 0.4391 0.0
O11 O 0.35742 0.43349 0.40624 0.0
O12 O 0.15585 0.40321 0.3556 0.0
O13 O 0.42639 0.41968 0.42983 0.0
O14 O 0.26867 0.45341 0.3553 0.0
O15 O 0.13365 0.42705 0.38632 0.0
O16 O 0.26249 0.4726 0.38798 0.0
O17 O 0.30693 0.33194 0.38405 0.0
O18 O 0.24763 0.33982 0.35695 0.0
C19 C 0.27458 0.32071 0.3696 0.0
C20 C 0.11889 0.41455 0.36869 0.0
O21 O 0.29704 0.37414 0.42776 0.0
O22 O 0.50393 0.32105 0.38695 0.0
O23 O 0.2315 0.414 0.43218 0.0
O24 O 0.40034 0.29739 0.41728 0.0
O25 O 0.52906 0.35416 0.4135 0.0
O26 O 0.41105 0.33197 0.44371 0.0
O27 O 0.35158 0.39088 0.35976 0.0
O28 O 0.40765 0.34827 0.35326 0.0
C29 C 0.27442 0.47652 0.36859 0.0
C30 C 0.39371 0.44062 0.42084 0.0
C31 C 0.14438 0.06458 0.90859 0.0
C32 C 0.28588 0.01362 0.85879 0.0
C33 C 0.3748 0.10816 0.85884 0.0
Mg34 Mg 0.09381 0.13571 0.91333 0.0
Mg35 Mg 0.08991 0.18781 0.87458 0.0
O36 O 0.13574 0.16025 0.89072 0.0
Mg37 Mg 0.18142 0.12421 0.87766 0.0
O38 O 0.22677 0.08624 0.86737 0.0
Mg39 Mg 0.2754 0.07645 0.89248 0.0
Mg40 Mg 0.26103 0.08225 0.84087 0.0
C41 C 0.20714 0.18953 0.84882 0.0
O42 O 0.12373 0.11748 0.84874 0.0
O43 O 0.06485 0.18583 0.92627 0.0
O44 O 0.18519 0.09899 0.82384 0.0
O45 O 0.00718 0.13245 0.8942 0.0
O46 O 0.06653 0.22102 0.89923 0.0
O47 O 0.01352 0.16315 0.86546 0.0
O48 O 0.24408 0.12685 0.905 0.0
O49 O 0.18144 0.13832 0.93072 0.0
C50 C 0.23314 0.13314 0.92429 0.0
C51 C 0.05815 0.2145 0.91869 0.0
O52 O 0.22845 0.16426 0.85794 0.0
O53 O 0.29254 0.02616 0.87712 0.0
O54 O 0.15535 0.19946 0.85175 0.0
O55 O 0.35602 0.09875 0.87673 0.0
O56 O 0.27363 0.03071 0.84258 0.0
O57 O 0.34419 0.10589 0.84222 0.0
O58 O 0.12885 0.08947 0.89805 0.0
O59 O 0.19638 0.05468 0.90804 0.0
C60 C 0.98579 0.14329 0.87699 0.0
C61 C 0.13517 0.10895 0.82974 0.0
C62 C 0.78056 0.1715 0.62144 0.0
C63 C 0.61981 0.07779 0.62666 0.0
C64 C 0.77445 0.01634 0.6229 0.0
Mg65 Mg 0.90923 0.16563 0.60395 0.0
Mg66 Mg 0.94376 0.11695 0.5651 0.0
O67 O 0.90833 0.12102 0.59114 0.0
Mg68 Mg 0.82659 0.1083 0.59652 0.0
O69 O 0.74545 0.09815 0.60482 0.0
Mg70 Mg 0.75726 0.09557 0.63627 0.0
Mg71 Mg 0.71277 0.06134 0.59263 0.0
C72 C 0.88166 0.04831 0.56892 0.0
O73 O 0.79138 0.11683 0.56315 0.0
O74 O 0.00857 0.16367 0.60128 0.0
O75 O 0.72266 0.07826 0.56048 0.0
O76 O 0.9047 0.19092 0.57169 0.0
O77 O 0.02902 0.12714 0.57618 0.0
O78 O 0.916 0.15599 0.54543 0.0
O79 O 0.85302 0.09997 0.63037 0.0
O80 O 0.91303 0.14112 0.63582 0.0
C81 C 0.88493 0.11661 0.64258 0.0
C82 C 0.04477 0.14683 0.59063 0.0
O83 O 0.84836 0.0568 0.58411 0.0
O84 O 0.65862 0.09017 0.63857 0.0
O85 O 0.91607 0.06783 0.55945 0.0
O86 O 0.76932 0.03886 0.63664 0.0
O87 O 0.6315 0.06498 0.6088 0.0
O88 O 0.76052 0.02076 0.60376 0.0
O89 O 0.81046 0.15956 0.6065 0.0
O90 O 0.7536 0.15302 0.63454 0.0
C91 C 0.90704 0.18468 0.55205 0.0
C92 C 0.75239 0.10165 0.55265 0.0
C93 C 0.7357 0.39426 0.06284 0.0
C94 C 0.56153 0.31123 0.06666 0.0
C95 C 0.49007 0.37927 0.11061 0.0
Mg96 Mg 0.77662 0.44801 0.09715 0.0
Mg97 Mg 0.76557 0.43427 0.14822 0.0
O98 O 0.72908 0.43486 0.12193 0.0
Mg99 Mg 0.68499 0.39769 0.11004 0.0
O100 O 0.63995 0.36264 0.09571 0.0
Mg101 Mg 0.59722 0.38919 0.07425 0.0
Mg102 Mg 0.5933 0.33482 0.11157 0.0
C103 C 0.64071 0.40597 0.15882 0.0
O104 O 0.73314 0.35598 0.12787 0.0
O105 O 0.79259 0.49619 0.11529 0.0
O106 O 0.65941 0.32103 0.13364 0.0
O107 O 0.85788 0.42492 0.11139 0.0
O108 O 0.77853 0.48588 0.14965 0.0
O109 O 0.84803 0.41023 0.14488 0.0
O110 O 0.63106 0.43405 0.09127 0.0
O111 O 0.69678 0.47069 0.08261 0.0
C112 C 0.64534 0.45998 0.0816 0.0
C113 C 0.78814 0.50563 0.13449 0.0
O114 O 0.62797 0.40053 0.13946 0.0
O115 O 0.56947 0.34018 0.05974 0.0
O116 O 0.69115 0.41492 0.1649 0.0
O117 O 0.51148 0.39019 0.09347 0.0
O118 O 0.56821 0.30354 0.08604 0.0
O119 O 0.51784 0.35939 0.12209 0.0
O120 O 0.74732 0.39852 0.08231 0.0
O121 O 0.68396 0.38921 0.05648 0.0
C122 C 0.87809 0.41202 0.1281 0.0
C123 C 0.71177 0.33017 0.13636 0.0
C124 C 0.78085 0.64605 0.56342 0.0
C125 C 0.61699 0.7326 0.57757 0.0
C126 C 0.54094 0.65769 0.61528 0.0
Mg127 Mg 0.82057 0.58473 0.59228 0.0
Mg128 Mg 0.81517 0.58746 0.64435 0.0
O129 O 0.77655 0.59388 0.61881 0.0
Mg130 Mg 0.73539 0.63477 0.61092 0.0
O131 O 0.69203 0.67372 0.60059 0.0
Mg132 Mg 0.64534 0.65304 0.57772 0.0
Mg133 Mg 0.64868 0.69872 0.61959 0.0
C134 C 0.69779 0.62015 0.65989 0.0
O135 O 0.78965 0.67165 0.6305 0.0
O136 O 0.83651 0.53273 0.60598 0.0
O137 O 0.71986 0.70643 0.64116 0.0
O138 O 0.90569 0.60309 0.60712 0.0
O139 O 0.82516 0.53562 0.64104 0.0
O140 O 0.89852 0.61045 0.6417 0.0
O141 O 0.67571 0.60417 0.59049 0.0
O142 O 0.73592 0.5679 0.57697 0.0
C143 C 0.68574 0.5806 0.57808 0.0
C144 C 0.8339 0.51923 0.62422 0.0
O145 O 0.68294 0.62894 0.64124 0.0
O146 O 0.62191 0.70523 0.56815 0.0
O147 O 0.74678 0.60709 0.66416 0.0
O148 O 0.56184 0.65011 0.59738 0.0
O149 O 0.62467 0.73608 0.59738 0.0
O150 O 0.57006 0.67433 0.62838 0.0
O151 O 0.79402 0.63723 0.58211 0.0
O152 O 0.72927 0.65442 0.55869 0.0
C153 C 0.92749 0.61193 0.62466 0.0
C154 C 0.77229 0.69627 0.64133 0.0
C155 C 0.70683 0.88551 0.06217 0.0
C156 C 0.87772 0.79933 0.06921 0.0
C157 C 0.95059 0.86962 0.1111 0.0
Mg158 Mg 0.66791 0.94203 0.09513 0.0
Mg159 Mg 0.67705 0.93206 0.1467 0.0
O160 O 0.71381 0.92929 0.12047 0.0
Mg161 Mg 0.7559 0.89057 0.10951 0.0
O162 O 0.7995 0.85382 0.09622 0.0
Mg163 Mg 0.84456 0.87829 0.07433 0.0
Mg164 Mg 0.84492 0.82686 0.11319 0.0
C165 C 0.79599 0.89717 0.15863 0.0
O166 O 0.70461 0.85114 0.12804 0.0
O167 O 0.65445 0.99146 0.11186 0.0
O168 O 0.77718 0.81606 0.1354 0.0
O169 O 0.58441 0.92138 0.10941 0.0
O170 O 0.67033 0.98439 0.14646 0.0
O171 O 0.59236 0.91041 0.14356 0.0
O172 O 0.81296 0.92476 0.09026 0.0
O173 O 0.74966 0.96231 0.08084 0.0
C174 C 0.80052 0.95072 0.08028 0.0
C175 C 0.66099 0.00276 0.13054 0.0
O176 O 0.81063 0.8924 0.13936 0.0
O177 O 0.8712 0.82782 0.0613 0.0
O178 O 0.74674 0.90871 0.16414 0.0
O179 O 0.92956 0.87949 0.09366 0.0
O180 O 0.86937 0.79333 0.08877 0.0
O181 O 0.92198 0.85095 0.12316 0.0
O182 O 0.69509 0.89152 0.08144 0.0
O183 O 0.75833 0.8785 0.05631 0.0
C184 C 0.56299 0.91074 0.12659 0.0
C185 C 0.72512 0.82608 0.13764 0.0
C186 C 0.2607 0.84797 0.42805 0.0
C187 C 0.14125 0.75778 0.39886 0.0
C188 C 0.02187 0.82394 0.37675 0.0
Mg189 Mg 0.29659 0.90713 0.39812 0.0
Mg190 Mg 0.29656 0.90317 0.34654 0.0
O191 O 0.25528 0.89656 0.37149 0.0
Mg192 Mg 0.21643 0.85465 0.37946 0.0
O193 O 0.17391 0.81439 0.38962 0.0
Mg194 Mg 0.12541 0.83417 0.41548 0.0
Mg195 Mg 0.1404 0.79195 0.36447 0.0
C196 C 0.18279 0.86762 0.33002 0.0
O197 O 0.27725 0.82058 0.36094 0.0
O198 O 0.31248 0.95884 0.38416 0.0
O199 O 0.21009 0.79516 0.3417 0.0
O200 O 0.38498 0.88926 0.38499 0.0
O201 O 0.30423 0.95536 0.34906 0.0
O202 O 0.38015 0.88102 0.35045 0.0
O203 O 0.15351 0.88216 0.39906 0.0
O204 O 0.20787 0.92295 0.41068 0.0
C205 C 0.15925 0.90829 0.40971 0.0
C206 C 0.31117 0.97209 0.36584 0.0
O207 O 0.16611 0.8589 0.34849 0.0
O208 O 0.15769 0.78768 0.3993 0.0
O209 O 0.23135 0.88161 0.3264 0.0
O210 O 0.04316 0.831 0.39476 0.0
O211 O 0.13704 0.74543 0.38061 0.0
O212 O 0.05242 0.81132 0.36205 0.0
O213 O 0.27148 0.85502 0.40888 0.0
O214 O 0.21072 0.83822 0.43389 0.0
C215 C 0.40808 0.88009 0.36772 0.0
C216 C 0.26295 0.80052 0.34638 0.0
C217 C 0.30169 0.56005 0.90603 0.0
C218 C 0.16091 0.51304 0.85286 0.0
C219 C 0.06399 0.60444 0.8612 0.0
Mg220 Mg 0.34539 0.63149 0.91415 0.0
Mg221 Mg 0.34497 0.68649 0.87726 0.0
O222 O 0.30017 0.65779 0.89323 0.0
Mg223 Mg 0.25691 0.62232 0.87864 0.0
O224 O 0.21519 0.58461 0.86628 0.0
Mg225 Mg 0.16919 0.56956 0.89107 0.0
Mg226 Mg 0.17756 0.58542 0.84019 0.0
C227 C 0.2252 0.68917 0.85302 0.0
O228 O 0.31229 0.62322 0.84875 0.0
O229 O 0.37131 0.68076 0.92894 0.0
O230 O 0.24747 0.6098 0.8236 0.0
O231 O 0.43013 0.63231 0.8947 0.0
O232 O 0.36679 0.71802 0.90309 0.0
O233 O 0.42271 0.66375 0.86645 0.0
O234 O 0.19569 0.61898 0.90665 0.0
O235 O 0.25925 0.62941 0.93226 0.0
C236 C 0.2077 0.62323 0.92611 0.0
C237 C 0.37579 0.71015 0.92232 0.0
O238 O 0.2052 0.6632 0.86171 0.0
O239 O 0.15585 0.52186 0.87216 0.0
O240 O 0.27733 0.69897 0.85541 0.0
O241 O 0.08538 0.59148 0.87771 0.0
O242 O 0.16928 0.5334 0.83791 0.0
O243 O 0.09351 0.6072 0.84437 0.0
O244 O 0.31382 0.58656 0.89664 0.0
O245 O 0.2511 0.54811 0.90495 0.0
C246 C 0.45126 0.64391 0.87772 0.0
C247 C 0.29719 0.62035 0.82937 0.0
C248 C 0.01659 0.41744 0.38034 0.0
C249 C 0.05702 0.40826 0.36503 0.0
C250 C 0.96106 0.40482 0.37995 0.0
C251 C 0.8453 0.37014 0.35161 0.0
H252 H 0.81928 0.32032 0.40256 0.0
C253 C 0.62052 0.32108 0.37299 0.0
C254 C 0.60352 0.33072 0.39325 0.0
C255 C 0.67841 0.32274 0.36704 0.0
C256 C 0.82594 0.33397 0.3882 0.0
H257 H 0.06886 0.38131 0.33603 0.0
H258 H 0.97054 0.35976 0.33526 0.0
H259 H 0.91455 0.34269 0.39541 0.0
H260 H 0.63404 0.34723 0.42361 0.0
H261 H 0.73434 0.35019 0.4133 0.0
H262 H 0.75569 0.36328 0.34506 0.0
C263 C 0.98283 0.37629 0.34767 0.0
C264 C 0.8803 0.34668 0.38413 0.0
C265 C 0.03889 0.3887 0.34815 0.0
C266 C 0.64574 0.33988 0.40784 0.0
C267 C 0.70338 0.34131 0.40197 0.0
C268 C 0.79047 0.35766 0.3558 0.0
C269 C 0.94462 0.3832 0.3641 0.0
C270 C 0.88976 0.36575 0.3662 0.0
C271 C 0.72015 0.33367 0.38134 0.0
C272 C 0.77988 0.34051 0.37456 0.0
H273 H 0.02872 0.43274 0.39342 0.0
H274 H 0.93165 0.41075 0.3926 0.0
H275 H 0.85206 0.38478 0.33767 0.0
H276 H 0.58888 0.31389 0.3614 0.0
H277 H 0.69029 0.31645 0.3511 0.0
C278 C 0.46434 0.13138 0.87471 0.0
C279 C 0.43609 0.11778 0.85728 0.0
C280 C 0.52414 0.13553 0.8746 0.0
C281 C 0.65332 0.09816 0.85527 0.0
H282 H 0.73056 0.17909 0.86809 0.0
C283 C 0.89286 0.11277 0.88269 0.0
C284 C 0.92508 0.13581 0.87136 0.0
C285 C 0.83366 0.10914 0.87899 0.0
C286 C 0.70947 0.15635 0.86445 0.0
H287 H 0.44824 0.09851 0.82593 0.0
H288 H 0.55319 0.10501 0.82602 0.0
H289 H 0.62523 0.17776 0.86525 0.0
H290 H 0.92038 0.17207 0.84659 0.0
H291 H 0.8173 0.16619 0.84067 0.0
H292 H 0.73753 0.07654 0.85525 0.0
C293 C 0.52872 0.1128 0.8396 0.0
C294 C 0.64939 0.15561 0.86288 0.0
C295 C 0.4687 0.10939 0.83949 0.0
C296 C 0.89711 0.15416 0.8557 0.0
C297 C 0.83796 0.15095 0.85232 0.0
C298 C 0.71337 0.09875 0.85734 0.0
C299 C 0.55701 0.12543 0.85729 0.0
C300 C 0.62078 0.12654 0.85821 0.0
C301 C 0.80549 0.12886 0.86418 0.0
C302 C 0.74196 0.12789 0.86188 0.0
H303 H 0.44035 0.13795 0.88867 0.0
H304 H 0.54499 0.14528 0.88844 0.0
H305 H 0.63212 0.07539 0.85184 0.0
H306 H 0.91299 0.0982 0.89481 0.0
H307 H 0.80942 0.09191 0.88833 0.0
C308 C 0.14394 0.12423 0.58795 0.0
C309 C 0.10571 0.14632 0.5973 0.0
C310 C 0.19779 0.11856 0.59676 0.0
C311 C 0.31286 0.14943 0.62815 0.0
H312 H 0.34385 0.05829 0.63833 0.0
C313 C 0.54122 0.10518 0.64686 0.0
C314 C 0.55874 0.08113 0.63259 0.0
C315 C 0.48281 0.11238 0.64934 0.0
C316 C 0.33572 0.08384 0.63575 0.0
H317 H 0.09607 0.18173 0.62229 0.0
H318 H 0.1917 0.1722 0.63737 0.0
H319 H 0.24751 0.07541 0.6278 0.0
H320 H 0.52892 0.04388 0.6112 0.0
H321 H 0.42765 0.05641 0.61543 0.0
H322 H 0.40203 0.15766 0.63467 0.0
C323 C 0.17886 0.15896 0.62345 0.0
C324 C 0.28076 0.0936 0.62974 0.0
C325 C 0.12439 0.16442 0.61476 0.0
C326 C 0.51678 0.06275 0.62216 0.0
C327 C 0.45862 0.06976 0.62474 0.0
C328 C 0.36819 0.13963 0.634 0.0
C329 C 0.2149 0.13512 0.61493 0.0
C330 C 0.26961 0.12624 0.62507 0.0
C331 C 0.44112 0.09538 0.63779 0.0
C332 C 0.38063 0.10654 0.63696 0.0
H333 H 0.13136 0.11005 0.5744 0.0
H334 H 0.22563 0.10055 0.58968 0.0
H335 H 0.30495 0.17475 0.62465 0.0
H336 H 0.57264 0.11971 0.65518 0.0
H337 H 0.4704 0.13204 0.65964 0.0
C338 C 0.97264 0.40618 0.10976 0.0
C339 C 0.93992 0.40276 0.12825 0.0
C340 C 0.03241 0.4032 0.11022 0.0
C341 C 0.15633 0.37078 0.13803 0.0
H342 H 0.23642 0.44374 0.11292 0.0
C343 C 0.40524 0.37606 0.13509 0.0
C344 C 0.4296 0.38719 0.11615 0.0
C345 C 0.34636 0.37995 0.13907 0.0
C346 C 0.21493 0.42299 0.11981 0.0
H347 H 0.94452 0.39124 0.16149 0.0
H348 H 0.0497 0.38529 0.16211 0.0
H349 H 0.13169 0.44376 0.11456 0.0
H350 H 0.4112 0.4121 0.08687 0.0
H351 H 0.3089 0.41808 0.09348 0.0
H352 H 0.23934 0.34931 0.14251 0.0
C353 C 0.0285 0.39075 0.14736 0.0
C354 C 0.15488 0.4231 0.12081 0.0
C355 C 0.96835 0.3941 0.14698 0.0
C356 C 0.39408 0.40335 0.10166 0.0
C357 C 0.3352 0.40692 0.10553 0.0
C358 C 0.21658 0.37044 0.13676 0.0
C359 C 0.0611 0.39635 0.1291 0.0
C360 C 0.12494 0.39679 0.12961 0.0
C361 C 0.31028 0.3948 0.12413 0.0
C362 C 0.24664 0.39634 0.12731 0.0
H363 H 0.9524 0.41246 0.09497 0.0
H364 H 0.05645 0.407 0.09582 0.0
H365 H 0.1342 0.35017 0.14485 0.0
H366 H 0.43134 0.36359 0.14666 0.0
H367 H 0.32904 0.37089 0.15375 0.0
C368 C 0.45271 0.65934 0.6385 0.0
C369 C 0.47952 0.64994 0.61962 0.0
C370 C 0.39295 0.65597 0.64105 0.0
C371 C 0.26185 0.65506 0.60934 0.0
H372 H 0.18603 0.61628 0.65747 0.0
C373 C 0.02265 0.62007 0.60684 0.0
C374 C 0.98916 0.62166 0.62522 0.0
C375 C 0.08182 0.62604 0.60745 0.0
C376 C 0.20638 0.62774 0.64407 0.0
H377 H 0.4645 0.62796 0.5891 0.0
H378 H 0.36105 0.62252 0.59353 0.0
H379 H 0.29118 0.6205 0.6568 0.0
H380 H 0.9918 0.632 0.65861 0.0
H381 H 0.09507 0.6433 0.65958 0.0
H382 H 0.17789 0.66285 0.59662 0.0
C383 C 0.38607 0.63276 0.60626 0.0
C384 C 0.26666 0.62999 0.64368 0.0
C385 C 0.44555 0.63574 0.60381 0.0
C386 C 0.01624 0.63044 0.64415 0.0
C387 C 0.07562 0.63665 0.64474 0.0
C388 C 0.20182 0.6532 0.60983 0.0
C389 C 0.35889 0.64352 0.62468 0.0
C390 C 0.295 0.64305 0.62609 0.0
C391 C 0.10936 0.63414 0.62642 0.0
C392 C 0.17317 0.63888 0.62698 0.0
H393 H 0.47752 0.67028 0.65103 0.0
H394 H 0.3731 0.66437 0.65545 0.0
H395 H 0.28247 0.66588 0.59576 0.0
H396 H 0.00354 0.61329 0.59196 0.0
H397 H 0.1062 0.62329 0.59306 0.0
C398 C 0.47314 0.8923 0.14557 0.0
C399 C 0.50092 0.90189 0.1269 0.0
C400 C 0.41315 0.88816 0.14607 0.0
C401 C 0.28398 0.91856 0.12008 0.0
H402 H 0.20528 0.84266 0.14167 0.0
C403 C 0.04578 0.89433 0.10173 0.0
C404 C 0.0113 0.87764 0.11633 0.0
C405 C 0.1046 0.89866 0.10534 0.0
C406 C 0.2264 0.86434 0.13595 0.0
H407 H 0.4873 0.91294 0.09385 0.0
H408 H 0.38346 0.90613 0.09491 0.0
H409 H 0.31036 0.84587 0.14364 0.0
H410 H 0.01161 0.85351 0.14665 0.0
H411 H 0.11401 0.86203 0.15328 0.0
H412 H 0.20085 0.93742 0.11258 0.0
C413 C 0.40793 0.90211 0.10918 0.0
C414 C 0.28664 0.86604 0.13701 0.0
C415 C 0.46761 0.90585 0.10859 0.0
C416 C 0.03683 0.86647 0.13505 0.0
C417 C 0.09576 0.87106 0.13875 0.0
C418 C 0.22395 0.91709 0.11927 0.0
C419 C 0.37991 0.89393 0.12799 0.0
C420 C 0.31602 0.89287 0.12864 0.0
C421 C 0.13067 0.88675 0.12377 0.0
C422 C 0.19428 0.88964 0.12673 0.0
H423 H 0.49741 0.88897 0.15994 0.0
H424 H 0.39254 0.88174 0.16077 0.0
H425 H 0.3055 0.93983 0.11387 0.0
H426 H 0.02782 0.90316 0.08709 0.0
H427 H 0.12994 0.91038 0.09323 0.0
C428 C 0.92521 0.84071 0.39048 0.0
C429 C 0.95903 0.8296 0.37359 0.0
C430 C 0.86567 0.84412 0.38846 0.0
C431 C 0.74734 0.85419 0.35057 0.0
H432 H 0.65389 0.82351 0.39705 0.0
C433 C 0.49721 0.86055 0.34891 0.0
C434 C 0.46966 0.86988 0.36765 0.0
C435 C 0.55615 0.85314 0.34869 0.0
C436 C 0.67921 0.83254 0.38401 0.0
H437 H 0.95616 0.81445 0.34099 0.0
H438 H 0.8515 0.82073 0.33743 0.0
H439 H 0.75784 0.81618 0.39798 0.0
H440 H 0.4829 0.87807 0.40098 0.0
H441 H 0.58518 0.8657 0.40054 0.0
H442 H 0.66872 0.87122 0.33679 0.0
C443 C 0.87162 0.8266 0.35229 0.0
C444 C 0.73894 0.82825 0.38452 0.0
C445 C 0.93156 0.82292 0.35435 0.0
C446 C 0.50241 0.87093 0.38624 0.0
C447 C 0.56127 0.86362 0.386 0.0
C448 C 0.68743 0.85868 0.3501 0.0
C449 C 0.83789 0.83674 0.36946 0.0
C450 C 0.77391 0.83942 0.36797 0.0
C451 C 0.58918 0.85487 0.3672 0.0
C452 C 0.65258 0.84831 0.36696 0.0
H453 H 0.94451 0.84637 0.40552 0.0
H454 H 0.84127 0.85263 0.40187 0.0
H455 H 0.77303 0.86327 0.33763 0.0
H456 H 0.47343 0.85934 0.33429 0.0
H457 H 0.57581 0.84602 0.33397 0.0
C458 C 0.97426 0.6252 0.84321 0.0
C459 C 0.00187 0.6132 0.86132 0.0
C460 C 0.91427 0.62935 0.84286 0.0
C461 C 0.78467 0.59594 0.8673 0.0
H462 H 0.70625 0.67367 0.84852 0.0
C463 C 0.54651 0.61872 0.88632 0.0
C464 C 0.51201 0.6364 0.87223 0.0
C465 C 0.60535 0.61475 0.88262 0.0
C466 C 0.72733 0.65152 0.85345 0.0
H467 H 0.98793 0.59782 0.89361 0.0
H468 H 0.8841 0.60476 0.89282 0.0
H469 H 0.8114 0.67069 0.84668 0.0
H470 H 0.51223 0.66253 0.84261 0.0
H471 H 0.6149 0.65484 0.83586 0.0
H472 H 0.7014 0.57644 0.87391 0.0
C473 C 0.90868 0.61062 0.87885 0.0
C474 C 0.7876 0.64993 0.85247 0.0
C475 C 0.96837 0.60682 0.8793 0.0
C476 C 0.53754 0.64891 0.85386 0.0
C477 C 0.59656 0.64473 0.85008 0.0
C478 C 0.72463 0.59734 0.86805 0.0
C479 C 0.88081 0.62123 0.86052 0.0
C480 C 0.81688 0.62238 0.85984 0.0
C481 C 0.63145 0.62803 0.86459 0.0
C482 C 0.69509 0.62542 0.8616 0.0
H483 H -0.00132 0.63044 0.82911 0.0
H484 H 0.89384 0.63765 0.82853 0.0
H485 H 0.80605 0.57412 0.87269 0.0
H486 H 0.52856 0.60882 0.90068 0.0
H487 H 0.6307 0.60218 0.89435 0.0
C488 C 0.60888 0.40694 0.19617 0.0
C489 C 0.59465 0.40461 0.17479 0.0
C490 C 0.56587 0.40915 0.21129 0.0
C491 C 0.42257 0.38601 0.22413 0.0
H492 H 0.44578 0.44866 0.26873 0.0
C493 C 0.39513 0.3571 0.30986 0.0
C494 C 0.37979 0.3811 0.32442 0.0
C495 C 0.39778 0.36429 0.28853 0.0
C496 C 0.43723 0.43158 0.25621 0.0
H497 H 0.5239 0.40266 0.15257 0.0
H498 H 0.44821 0.40509 0.17936 0.0
H499 H 0.49879 0.45423 0.23596 0.0
H500 H 0.35185 0.43094 0.328 0.0
H501 H 0.35761 0.44375 0.29049 0.0
H502 H 0.36395 0.36206 0.245 0.0
C503 C 0.49295 0.40552 0.18417 0.0
C504 C 0.46801 0.43463 0.23754 0.0
C505 C 0.53622 0.40372 0.16893 0.0
C506 C 0.36417 0.41204 0.31712 0.0
C507 C 0.3673 0.41934 0.2957 0.0
C508 C 0.39186 0.38286 0.2429 0.0
C509 C 0.50766 0.40886 0.20541 0.0
C510 C 0.46337 0.41083 0.22191 0.0
C511 C 0.38552 0.39571 0.28127 0.0
C512 C 0.4016 0.40457 0.25954 0.0
H513 H 0.65335 0.40754 0.20129 0.0
H514 H 0.57818 0.41093 0.22767 0.0
H515 H 0.41817 0.36749 0.2122 0.0
H516 H 0.40652 0.33288 0.31498 0.0
H517 H 0.41288 0.34568 0.27789 0.0
C518 C 0.03001 0.11128 0.82054 0.0
C519 C 0.08777 0.10732 0.81432 0.0
C520 C 0.98524 0.1065 0.80618 0.0
C521 C 0.95449 0.06628 0.75594 0.0
H522 H 0.85693 0.13985 0.74311 0.0
C523 C 0.86284 0.08149 0.67374 0.0
C524 C 0.88175 0.11121 0.66542 0.0
C525 C 0.86232 0.07646 0.69547 0.0
C526 C 0.88289 0.11877 0.74675 0.0
H527 H 0.14366 0.09575 0.78799 0.0
H528 H 0.06606 0.08745 0.76317 0.0
H529 H 0.90982 0.13844 0.77627 0.0
H530 H 0.91111 0.15966 0.67326 0.0
H531 H 0.91143 0.15075 0.7108 0.0
H532 H 0.93252 0.04806 0.72567 0.0
C533 C 0.0553 0.09375 0.77922 0.0
C534 C 0.91284 0.1179 0.76576 0.0
C535 C 0.0998 0.09889 0.79341 0.0
C536 C 0.89724 0.13628 0.67916 0.0
C537 C 0.89629 0.13137 0.70076 0.0
C538 C 0.92472 0.06715 0.73697 0.0
C539 C 0.99769 0.0971 0.78552 0.0
C540 C 0.95193 0.09274 0.76974 0.0
C541 C 0.88016 0.10121 0.70916 0.0
C542 C 0.89205 0.09456 0.73157 0.0
H543 H 0.01925 0.11725 0.83658 0.0
H544 H 0.94107 0.10956 0.81129 0.0
H545 H 0.98368 0.04631 0.75895 0.0
H546 H 0.85037 0.06182 0.66348 0.0
H547 H 0.84985 0.05294 0.70154 0.0
C548 C 0.59819 0.63044 0.67316 0.0
C549 C 0.65687 0.62534 0.67729 0.0
C550 C 0.55938 0.63487 0.68961 0.0
C551 C 0.5496 0.65421 0.74626 0.0
H552 H 0.40567 0.60699 0.74234 0.0
C553 C 0.3984 0.62814 0.81674 0.0
C554 C 0.3389 0.62867 0.81277 0.0
C555 C 0.43756 0.63268 0.80032 0.0
C556 C 0.44525 0.62076 0.74355 0.0
H557 H 0.72107 0.62111 0.70193 0.0
H558 H 0.65301 0.62802 0.7307 0.0
H559 H 0.47318 0.60531 0.71324 0.0
H560 H 0.27362 0.63662 0.78892 0.0
H561 H 0.3418 0.64479 0.7604 0.0
H562 H 0.52174 0.66901 0.77689 0.0
C563 C 0.6372 0.62925 0.71471 0.0
C564 C 0.48393 0.61981 0.72686 0.0
C565 C 0.67605 0.62492 0.69823 0.0
C566 C 0.31926 0.63549 0.79238 0.0
C567 C 0.35825 0.64014 0.77604 0.0
C568 C 0.51081 0.65511 0.76303 0.0
C569 C 0.5784 0.63402 0.71057 0.0
C570 C 0.5366 0.6364 0.72805 0.0
C571 C 0.41771 0.63786 0.77972 0.0
C572 C 0.45832 0.63831 0.76182 0.0
H573 H 0.58196 0.63028 0.65724 0.0
H574 H 0.51436 0.63872 0.68592 0.0
H575 H 0.58967 0.6675 0.74752 0.0
H576 H 0.41473 0.62273 0.83229 0.0
H577 H 0.48319 0.6306 0.80358 0.0
C578 C 0.81763 0.8822 0.19577 0.0
C579 C 0.83716 0.88839 0.17527 0.0
C580 C 0.85655 0.8742 0.21162 0.0
C581 C 0.00747 0.88529 0.22572 0.0
H582 H 0.97398 0.8215 0.26892 0.0
C583 C 0.1677 0.86136 0.29157 0.0
C584 C 0.1447 0.86161 0.31197 0.0
C585 C 0.13162 0.85875 0.27422 0.0
C586 C 0.98371 0.83942 0.25698 0.0
H587 H 0.91254 0.89121 0.15526 0.0
H588 H 0.98055 0.87671 0.18287 0.0
H589 H 0.90787 0.82815 0.2393 0.0
H590 H 0.06628 0.85766 0.33032 0.0
H591 H 0.00282 0.85369 0.29986 0.0
H592 H 0.08233 0.8972 0.24349 0.0
C593 C 0.93516 0.8781 0.18668 0.0
C594 C 0.94599 0.84324 0.24007 0.0
C595 C 0.89622 0.88609 0.17084 0.0
C596 C 0.08514 0.85754 0.31476 0.0
C597 C 0.04888 0.85514 0.29733 0.0
C598 C 0.04504 0.88149 0.24256 0.0
C599 C 0.91573 0.87235 0.20726 0.0
C600 C 0.9573 0.86644 0.2244 0.0
C601 C 0.07176 0.85659 0.2769 0.0
C602 C 0.03334 0.85873 0.25845 0.0
H603 H 0.77225 0.8836 0.19962 0.0
H604 H 0.84045 0.87033 0.2274 0.0
H605 H 0.01676 0.90379 0.21411 0.0
H606 H 0.2136 0.86379 0.28895 0.0
H607 H 0.15051 0.8592 0.25865 0.0
C608 C 0.73828 0.14921 0.52909 0.0
C609 C 0.73129 0.11588 0.53278 0.0
C610 C 0.70194 0.16535 0.51509 0.0
C611 C 0.55385 0.1557 0.49523 0.0
H612 H 0.58692 0.2385 0.46906 0.0
C613 C 0.41024 0.24387 0.44367 0.0
C614 C 0.41097 0.2758 0.45149 0.0
C615 C 0.44143 0.21946 0.45383 0.0
C616 C 0.57729 0.21535 0.47634 0.0
H617 H 0.68715 0.07248 0.52234 0.0
H618 H 0.62546 0.10043 0.49722 0.0
H619 H 0.6662 0.20479 0.48148 0.0
H620 H 0.43664 0.30569 0.47796 0.0
H621 H 0.49136 0.26313 0.49539 0.0
H622 H 0.46457 0.16654 0.4896 0.0
C623 C 0.65691 0.11441 0.50591 0.0
C624 C 0.62256 0.19607 0.48347 0.0
C625 C 0.69278 0.09832 0.52011 0.0
C626 C 0.43587 0.28156 0.47129 0.0
C627 C 0.46752 0.25728 0.48126 0.0
C628 C 0.50855 0.17483 0.48773 0.0
C629 C 0.65861 0.14836 0.50422 0.0
C630 C 0.61143 0.16637 0.49353 0.0
C631 C 0.47328 0.22674 0.4719 0.0
C632 C 0.52006 0.20513 0.47876 0.0
H633 H 0.76765 0.16348 0.53853 0.0
H634 H 0.70479 0.1915 0.51424 0.0
H635 H 0.54341 0.13324 0.50318 0.0
H636 H 0.39073 0.23848 0.42861 0.0
H637 H 0.4451 0.19588 0.4465 0.0
C638 C 0.8343 0.37456 0.05407 0.0
C639 C 0.78306 0.38973 0.04773 0.0
C640 C 0.87364 0.36349 0.03909 0.0
C641 C 0.87251 0.33834 0.98324 0.0
H642 H 0.03335 0.31968 0.99424 0.0
C643 C 0.0133 0.26896 0.92425 0.0
C644 C 0.03806 0.24071 0.93273 0.0
C645 C 0.99011 0.29262 0.93742 0.0
C646 C 0.98853 0.32493 0.99098 0.0
H647 H 0.73554 0.40851 0.02111 0.0
H648 H 0.80574 0.39119 -0.00498 0.0
H649 H 0.97959 0.35426 0.01847 0.0
H650 H 0.06051 0.21594 0.96169 0.0
H651 H 0.02049 0.25764 0.98472 0.0
H652 H 0.88174 0.30914 0.95573 0.0
C653 C 0.81439 0.38613 0.01141 0.0
C654 C 0.95756 0.34457 0.00487 0.0
C655 C 0.77438 0.3964 0.02635 0.0
C656 C 0.04135 0.23731 0.95468 0.0
C657 C 0.01893 0.26126 0.96786 0.0
C658 C 0.90371 0.3193 0.96921 0.0
C659 C 0.86308 0.36804 0.01748 0.0
C660 C 0.89869 0.35095 0.00144 0.0
C661 C 0.99206 0.28877 0.95933 0.0
C662 C 0.9616 0.31186 0.97316 0.0
H663 H 0.84196 0.36905 0.07049 0.0
H664 H 0.91024 0.34956 0.04449 0.0
H665 H 0.82708 0.34185 0.9802 0.0
H666 H 0.01009 0.27236 0.90741 0.0
H667 H 0.96971 0.3137 0.93049 0.0
C668 C 0.91321 0.24416 0.54484 0.0
C669 C 0.91537 0.21212 0.53735 0.0
C670 C 0.9417 0.26897 0.53406 0.0
C671 C 0.0287 0.2866 0.48569 0.0
H672 H 0.12222 0.33636 0.52458 0.0
C673 C 0.24255 0.33997 0.46042 0.0
C674 C 0.23824 0.37383 0.4584 0.0
C675 C 0.20335 0.32305 0.47294 0.0
C676 C 0.09619 0.32264 0.51363 0.0
H677 H 0.94134 0.18207 0.51105 0.0
H678 H 0.99155 0.22472 0.49264 0.0
H679 H 0.04213 0.30381 0.53791 0.0
H680 H 0.19593 0.4168 0.47053 0.0
H681 H 0.12871 0.38702 0.49298 0.0
H682 H 0.08516 0.30419 0.46163 0.0
C683 C 0.96839 0.23103 0.50681 0.0
C684 C 0.0498 0.30434 0.52114 0.0
C685 C 0.93945 0.20635 0.51745 0.0
C686 C 0.19987 0.39069 0.47158 0.0
C687 C 0.16127 0.37372 0.48438 0.0
C688 C 0.07565 0.30434 0.4783 0.0
C689 C 0.97291 0.26217 0.51565 0.0
C690 C 0.01608 0.28557 0.50729 0.0
C691 C 0.1605 0.33977 0.48404 0.0
C692 C 0.1103 0.32197 0.49225 0.0
H693 H 0.89393 0.24959 0.55993 0.0
H694 H 0.94243 0.29298 0.5409 0.0
H695 H 0.00309 0.27312 0.4745 0.0
H696 H 0.27172 0.32618 0.45061 0.0
H697 H 0.20378 0.29679 0.47273 0.0
C698 C 0.55814 0.2879 0.03052 0.0
C699 C 0.54277 0.28601 0.0518 0.0
C700 C 0.538 0.26487 0.01626 0.0
C701 C 0.45853 0.18576 0.01276 0.0
H702 H 0.41344 0.22029 0.95851 0.0
C703 C 0.27192 0.14031 0.96063 0.0
C704 C 0.28155 0.13874 0.93886 0.0
C705 C 0.31535 0.15111 0.97407 0.0
C706 C 0.42674 0.21013 0.97345 0.0
H707 H 0.49527 0.25837 0.07502 0.0
H708 H 0.45734 0.21931 0.05009 0.0
H709 H 0.46723 0.25416 0.98261 0.0
H710 H 0.34541 0.14511 0.91425 0.0
H711 H 0.42067 0.16479 0.93777 0.0
H712 H 0.41347 0.14247 0.00385 0.0
C713 C 0.48665 0.23771 0.04436 0.0
C714 C 0.45787 0.22949 0.98731 0.0
C715 C 0.50795 0.2603 0.05868 0.0
C716 C 0.33658 0.14614 0.93095 0.0
C717 C 0.37965 0.15745 0.94436 0.0
C718 C 0.42625 0.16661 -0.00099 0.0
C719 C 0.50077 0.23991 0.02288 0.0
C720 C 0.47334 0.21783 0.00733 0.0
C721 C 0.36876 0.16092 0.96592 0.0
C722 C 0.40943 0.17887 0.97939 0.0
H723 H 0.58573 0.30723 0.02488 0.0
H724 H 0.55112 0.26694 -1e-05 0.0
H725 H 0.47075 0.17562 0.02781 0.0
H726 H 0.23009 0.13453 0.96718 0.0
H727 H 0.30591 0.15378 0.99065 0.0
C728 C 0.29448 0.84954 0.46539 0.0
C729 C 0.30685 0.85164 0.44382 0.0
C730 C 0.33898 0.84987 0.48013 0.0
C731 C 0.4848 0.82188 0.4836 0.0
H732 H 0.48014 0.85847 0.53964 0.0
C733 C 0.62776 0.76719 0.54597 0.0
C734 C 0.59959 0.76063 0.56496 0.0
C735 C 0.60523 0.78999 0.53203 0.0
C736 C 0.48211 0.84803 0.52406 0.0
H737 H 0.37529 0.85746 0.42088 0.0
H738 H 0.45279 0.85785 0.44662 0.0
H739 H 0.4124 0.87759 0.51293 0.0
H740 H 0.52844 0.77369 0.58515 0.0
H741 H 0.48645 0.81192 0.5603 0.0
H742 H 0.55046 0.79047 0.49471 0.0
C743 C 0.40872 0.85598 0.45209 0.0
C744 C 0.44354 0.85913 0.50878 0.0
C745 C 0.36428 0.85579 0.43737 0.0
C746 C 0.55076 0.77856 0.57053 0.0
C747 C 0.52707 0.80065 0.5563 0.0
C748 C 0.52257 0.81046 0.49887 0.0
C749 C 0.39658 0.85211 0.47355 0.0
C750 C 0.44353 0.84543 0.48861 0.0
C751 C 0.55274 0.80562 0.53648 0.0
C752 C 0.52056 0.82261 0.51951 0.0
H753 H 0.25062 0.84662 0.47087 0.0
H754 H 0.32847 0.84648 0.49658 0.0
H755 H 0.48525 0.81053 0.46827 0.0
H756 H 0.66609 0.75382 0.54159 0.0
H757 H 0.62733 0.79399 0.51728 0.0
C758 C 0.8947 0.7754 0.03354 0.0
C759 C 0.89826 0.77278 0.05553 0.0
C760 C 0.91811 0.75133 0.02067 0.0
C761 C 0.03639 0.69543 0.01992 0.0
H762 H 0.96219 0.65758 0.97124 0.0
C763 C 0.17046 0.62067 0.96282 0.0
C764 C 0.16051 0.62672 0.94143 0.0
C765 C 0.13011 0.63014 0.97787 0.0
C766 C 0.98377 0.66809 0.98467 0.0
H767 H 0.92769 0.74236 0.08125 0.0
H768 H 0.96984 0.70085 0.05871 0.0
H769 H 0.90647 0.69155 -0.00478 0.0
H770 H 0.09913 0.6454 0.91882 0.0
H771 H 0.03019 0.66348 0.94497 0.0
H772 H 0.11439 0.67438 0.00896 0.0
C773 C 0.94842 0.72138 0.05151 0.0
C774 C 0.95167 0.68737 -0.00157 0.0
C775 C 0.9242 0.74513 0.06437 0.0
C776 C 0.10783 0.64038 0.93523 0.0
C777 C 0.06809 0.65064 0.95031 0.0
C778 C 0.0687 0.67676 0.006 0.0
C779 C 0.94627 0.7245 0.02956 0.0
C780 C 0.97798 0.70152 0.01602 0.0
C781 C 0.07971 0.64677 0.9719 0.0
C782 C 0.04314 0.66318 0.98797 0.0
H783 H 0.87468 0.7963 0.02625 0.0
H784 H 0.91637 0.75439 0.00377 0.0
H785 H 0.05785 0.70643 0.03324 0.0
H786 H 0.21045 0.60972 0.96797 0.0
H787 H 0.13973 0.62562 0.99426 0.0
C788 C 0.10446 0.75818 0.4359 0.0
C789 C 0.11589 0.74125 0.41726 0.0
C790 C 0.07716 0.74267 0.45273 0.0
C791 C 0.98244 0.67264 0.46331 0.0
H792 H 0.00768 0.69706 0.52137 0.0
C793 C 0.88468 0.64597 0.55207 0.0
C794 C 0.82588 0.64857 0.54705 0.0
C795 C 0.92672 0.65178 0.53673 0.0
C796 C 0.00075 0.6895 0.50529 0.0
H797 H 0.11118 0.69434 0.40206 0.0
H798 H 0.06518 0.66708 0.43154 0.0
H799 H 0.07182 0.71776 0.49411 0.0
H800 H 0.76522 0.65793 0.52179 0.0
H801 H 0.83785 0.66839 0.49539 0.0
H802 H 0.9117 0.64429 0.47443 0.0
C803 C 0.07539 0.69258 0.43299 0.0
C804 C 0.037 0.70175 0.48961 0.0
C805 C 0.10196 0.70818 0.41611 0.0
C806 C 0.81007 0.65582 0.52626 0.0
C807 C 0.85186 0.66156 0.51101 0.0
C808 C 0.94658 0.66024 0.47896 0.0
C809 C 0.06148 0.70978 0.45136 0.0
C810 C 0.02739 0.69409 0.46837 0.0
C811 C 0.91067 0.6601 0.51609 0.0
C812 C 0.95424 0.66925 0.50005 0.0
H813 H 0.11515 0.7836 0.43734 0.0
H814 H 0.06661 0.75681 0.46652 0.0
H815 H 0.97326 0.66638 0.44714 0.0
H816 H 0.89828 0.64039 0.56795 0.0
H817 H 0.97172 0.65016 0.54107 0.0
C818 C 0.41289 0.72753 0.95748 0.0
C819 C 0.39307 0.73576 0.93731 0.0
C820 C 0.43262 0.75148 0.97116 0.0
C821 C 0.4951 0.83324 0.97022 0.0
H822 H 0.48551 0.82271 0.03066 0.0
C823 C 0.60159 0.88326 0.05322 0.0
C824 C 0.6595 0.8823 0.04676 0.0
C825 C 0.55763 0.87448 0.03933 0.0
C826 C 0.48769 0.82662 0.01384 0.0
H827 H 0.37587 0.77586 0.91608 0.0
H828 H 0.40951 0.81768 0.94011 0.0
H829 H 0.42629 0.7891 0.00798 0.0
H830 H 0.71615 0.87408 0.02016 0.0
H831 H 0.64025 0.85825 -0.00374 0.0
H832 H 0.55684 0.87059 0.97608 0.0
C833 C 0.41088 0.79262 0.94518 0.0
C834 C 0.45432 0.80694 0.00082 0.0
C835 C 0.39149 0.76863 0.93142 0.0
C836 C 0.67208 0.8748 0.02574 0.0
C837 C 0.62831 0.86598 0.01192 0.0
C838 C 0.52811 0.85311 0.98324 0.0
C839 C 0.43258 0.78428 0.96508 0.0
C840 C 0.45945 0.80909 0.97885 0.0
C841 C 0.57076 0.86462 0.01873 0.0
C842 C 0.52662 0.84907 0.00518 0.0
H843 H 0.41479 0.70247 0.96254 0.0
H844 H 0.44997 0.74405 0.9862 0.0
H845 H 0.50027 0.83559 0.95337 0.0
H846 H 0.59035 0.88924 0.06926 0.0
H847 H 0.51361 0.87422 0.04496 0.0
C848 C 0.30198 0.02373 0.34495 0.0
C849 C 0.31334 0.00806 0.36419 0.0
C850 C 0.29918 0.0576 0.34377 0.0
C851 C 0.34273 0.13224 0.3717 0.0
H852 H 0.2158 0.17235 0.34174 0.0
C853 C 0.28708 0.26548 0.38462 0.0
C854 C 0.27249 0.28495 0.36726 0.0
C855 C 0.29149 0.23196 0.38269 0.0
C856 C 0.25195 0.16158 0.34992 0.0
H857 H 0.33191 0.01607 0.39719 0.0
H858 H 0.32731 0.07495 0.39509 0.0
H859 H 0.227 0.11339 0.34116 0.0
H860 H 0.24886 0.2842 0.33435 0.0
H861 H 0.25687 0.22502 0.33086 0.0
H862 H 0.36777 0.18013 0.38054 0.0
C863 C 0.32077 0.06104 0.38088 0.0
C864 C 0.25837 0.12777 0.3496 0.0
C865 C 0.32321 0.0272 0.38209 0.0
C866 C 0.2601 0.26984 0.348 0.0
C867 C 0.26475 0.23598 0.34604 0.0
C868 C 0.33646 0.16591 0.37195 0.0
C869 C 0.30813 0.07667 0.36175 0.0
C870 C 0.30333 0.11268 0.36079 0.0
C871 C 0.28172 0.21674 0.3633 0.0
C872 C 0.29038 0.18102 0.36141 0.0
H873 H 0.29404 0.00985 0.33082 0.0
H874 H 0.29 0.06887 0.32876 0.0
H875 H 0.37852 0.1215 0.38011 0.0
H876 H 0.29579 0.27621 0.39981 0.0
H877 H 0.30291 0.21795 0.39649 0.0
C878 C 0.27926 0.23249 0.85141 0.0
C879 C 0.24461 0.21326 0.83841 0.0
C880 C 0.28713 0.26535 0.84679 0.0
C881 C 0.19857 0.32691 0.81979 0.0
H882 H 0.30265 0.38554 0.84831 0.0
C883 C 0.16355 0.4666 0.82738 0.0
C884 C 0.16738 0.47805 0.84815 0.0
C885 C 0.17922 0.43471 0.82253 0.0
C886 C 0.27338 0.3694 0.8402 0.0
H887 H 0.20031 0.2112 0.80859 0.0
H888 H 0.21848 0.26764 0.79946 0.0
H889 H 0.33066 0.32907 0.84323 0.0
H890 H 0.18958 0.46464 0.88015 0.0
H891 H 0.21736 0.40924 0.87157 0.0
H892 H 0.14149 0.3675 0.81683 0.0
C893 C 0.2364 0.25825 0.81394 0.0
C894 C 0.2893 0.337 0.8373 0.0
C895 C 0.22724 0.22562 0.81887 0.0
C896 C 0.18556 0.4566 0.86403 0.0
C897 C 0.20226 0.42499 0.8591 0.0
C898 C 0.18325 0.35941 0.82233 0.0
C899 C 0.2616 0.27919 0.82878 0.0
C900 C 0.25123 0.31495 0.82772 0.0
C901 C 0.20016 0.41393 0.83827 0.0
C902 C 0.21963 0.38066 0.83318 0.0
H903 H 0.29262 0.22359 0.86669 0.0
H904 H 0.30729 0.28032 0.85863 0.0
H905 H 0.16724 0.31089 0.81271 0.0
H906 H 0.14992 0.48254 0.81479 0.0
H907 H 0.17689 0.42663 0.80637 0.0
C908 C 0.84437 0.4641 0.60778 0.0
C909 C 0.83596 0.48326 0.62578 0.0
C910 C 0.84083 0.43029 0.60898 0.0
C911 C 0.77676 0.3646 0.64075 0.0
H912 H 0.88144 0.31027 0.60909 0.0
C913 C 0.77092 0.22275 0.64297 0.0
C914 C 0.78103 0.20727 0.62367 0.0
C915 C 0.77775 0.25651 0.64475 0.0
C916 C 0.85145 0.32507 0.61789 0.0
H917 H 0.81861 0.48151 0.65931 0.0
H918 H 0.81275 0.42263 0.66132 0.0
H919 H 0.89528 0.36873 0.60922 0.0
H920 H 0.80274 0.21529 0.59087 0.0
H921 H 0.81354 0.27338 0.59389 0.0
H922 H 0.73238 0.32082 0.64912 0.0
C923 C 0.82147 0.43383 0.64625 0.0
C924 C 0.85948 0.35862 0.61797 0.0
C925 C 0.82532 0.46763 0.64509 0.0
C926 C 0.79568 0.22629 0.6061 0.0
C927 C 0.80223 0.25971 0.60784 0.0
C928 C 0.76857 0.33094 0.64061 0.0
C929 C 0.82855 0.41475 0.62818 0.0
C930 C 0.82183 0.37887 0.62916 0.0
C931 C 0.79464 0.27526 0.62724 0.0
C932 C 0.80529 0.31081 0.62889 0.0
H933 H 0.85246 0.47521 0.59264 0.0
H934 H 0.84601 0.41634 0.59471 0.0
H935 H 0.74666 0.37954 0.6494 0.0
H936 H 0.75973 0.20873 0.65678 0.0
H937 H 0.77155 0.26775 0.65994 0.0
C938 C 0.68698 0.05691 0.11582 0.0
C939 C 0.6686 0.03823 0.13304 0.0
C940 C 0.7043 0.08902 0.11852 0.0
C941 C 0.74853 0.1484 0.16005 0.0
H942 H 0.72649 0.20953 0.11446 0.0
C943 C 0.72945 0.28804 0.16304 0.0
C944 C 0.74939 0.30506 0.14532 0.0
C945 C 0.73957 0.25476 0.16496 0.0
C946 C 0.7341 0.19258 0.12719 0.0
H947 H 0.65177 0.03914 0.16652 0.0
H948 H 0.67834 0.09593 0.17106 0.0
H949 H 0.69442 0.15412 0.11031 0.0
H950 H 0.80357 0.30217 0.11775 0.0
H951 H 0.82121 0.24405 0.12104 0.0
H952 H 0.78431 0.18835 0.17738 0.0
C953 C 0.68176 0.08539 0.15555 0.0
C954 C 0.71561 0.16065 0.12484 0.0
C955 C 0.6656 0.05291 0.15292 0.0
C956 C 0.78799 0.28967 0.13162 0.0
C957 C 0.79739 0.25627 0.13334 0.0
C958 C 0.76588 0.18073 0.16256 0.0
C959 C 0.70246 0.10376 0.13844 0.0
C960 C 0.72243 0.13797 0.14121 0.0
C961 C 0.76944 0.23822 0.14909 0.0
C962 C 0.75889 0.20308 0.1461 0.0
H963 H 0.69099 0.04626 0.10034 0.0
H964 H 0.72103 0.10182 0.10497 0.0
H965 H 0.75561 0.13168 0.17291 0.0
H966 H 0.69928 0.29938 0.17375 0.0
H967 H 0.71771 0.24148 0.17731 0.0
C968 C 0.86102 0.72912 0.63728 0.0
C969 C 0.81445 0.71954 0.64994 0.0
C970 C 0.88273 0.76071 0.63873 0.0
C971 C 0.8678 0.84045 0.66618 0.0
H972 H 0.83926 0.87173 0.6097 0.0
C973 C 0.78749 0.97083 0.6488 0.0
C974 C 0.79842 0.98446 0.62898 0.0
C975 C 0.80596 0.93926 0.65347 0.0
C976 C 0.84899 0.86381 0.62553 0.0
H977 H 0.76153 0.73307 0.67652 0.0
H978 H 0.79994 0.7877 0.67934 0.0
H979 H 0.85123 0.81442 0.61576 0.0
H980 H 0.84121 0.97696 0.59914 0.0
H981 H 0.8761 0.92303 0.60755 0.0
H982 H 0.86434 0.89008 0.67597 0.0
C983 C 0.81915 0.77138 0.66802 0.0
C984 C 0.85596 0.83066 0.629 0.0
C985 C 0.79719 0.73993 0.66647 0.0
C986 C 0.83109 0.96679 0.6144 0.0
C987 C 0.85079 0.93569 0.61923 0.0
C988 C 0.86165 0.87386 0.66266 0.0
C989 C 0.85868 0.78289 0.65305 0.0
C990 C 0.86397 0.81842 0.6494 0.0
C991 C 0.83692 0.92095 0.63855 0.0
C992 C 0.85062 0.88596 0.64232 0.0
H993 H 0.87532 0.71395 0.62442 0.0
H994 H 0.91418 0.76872 0.62727 0.0
H995 H 0.87394 0.83176 0.68209 0.0
H996 H 0.76245 0.98399 0.66034 0.0
H997 H 0.79379 0.92883 0.66844 0.0
C998 C 0.78607 0.55249 0.15954 0.0
C999 C 0.78249 0.54074 0.13883 0.0
C1000 C 0.76881 0.58414 0.16428 0.0
C1001 C 0.66946 0.64664 0.14644 0.0
H1002 H 0.76907 0.70799 0.17457 0.0
C1003 C 0.65389 0.78282 0.13492 0.0
C1004 C 0.68691 0.80277 0.14802 0.0
C1005 C 0.64738 0.74996 0.13975 0.0
C1006 C 0.73954 0.6911 0.16731 0.0
H1007 H 0.75997 0.55354 0.10676 0.0
H1008 H 0.7296 0.60859 0.11514 0.0
H1009 H 0.80039 0.65229 0.17027 0.0
H1010 H 0.72867 0.80621 0.17827 0.0
H1011 H 0.71289 0.74965 0.18769 0.0
H1012 H 0.60848 0.6852 0.14337 0.0
C1013 C 0.74556 0.5932 0.12766 0.0
C1014 C 0.75807 0.65916 0.16465 0.0
C1015 C 0.76378 0.56183 0.12284 0.0
C1016 C 0.70312 0.79118 0.16789 0.0
C1017 C 0.69536 0.75851 0.173 0.0
C1018 C 0.65035 0.67845 0.14943 0.0
C1019 C 0.74666 0.60437 0.14847 0.0
C1020 C 0.7241 0.63699 0.15355 0.0
C1021 C 0.6726 0.73689 0.15805 0.0
C1022 C 0.68603 0.70151 0.15921 0.0
H1023 H 0.80014 0.53683 0.17222 0.0
H1024 H 0.77046 0.59232 0.18043 0.0
H1025 H 0.64198 0.62971 0.13817 0.0
H1026 H 0.64131 0.79118 0.11943 0.0
H1027 H 0.62894 0.73443 0.12784 0.0
C1028 C 0.31483 0.53164 0.37606 0.0
C1029 C 0.29482 0.50878 0.3614 0.0
C1030 C 0.33068 0.5628 0.36962 0.0
C1031 C 0.29519 0.62242 0.3297 0.0
H1032 H 0.42292 0.67056 0.35342 0.0
C1033 C 0.29514 0.75879 0.32078 0.0
C1034 C 0.30403 0.77512 0.33984 0.0
C1035 C 0.31417 0.72687 0.31825 0.0
C1036 C 0.38695 0.65757 0.34665 0.0
H1037 H 0.27796 0.50043 0.32834 0.0
H1038 H 0.3046 0.55521 0.31716 0.0
H1039 H 0.4153 0.61228 0.35968 0.0
H1040 H 0.34637 0.77243 0.37011 0.0
H1041 H 0.3779 0.71684 0.3661 0.0
H1042 H 0.26418 0.66746 0.3179 0.0
C1043 C 0.30804 0.54887 0.33364 0.0
C1044 C 0.38273 0.62412 0.35021 0.0
C1045 C 0.29287 0.5175 0.34004 0.0
C1046 C 0.33901 0.76055 0.35518 0.0
C1047 C 0.35694 0.72837 0.35287 0.0
C1048 C 0.29891 0.65583 0.32638 0.0
C1049 C 0.32637 0.572 0.34841 0.0
C1050 C 0.336 0.60635 0.34219 0.0
C1051 C 0.34127 0.71039 0.33495 0.0
C1052 C 0.34402 0.67414 0.33526 0.0
H1053 H 0.31747 0.52564 0.39261 0.0
H1054 H 0.34408 0.58013 0.38142 0.0
H1055 H 0.25829 0.60952 0.32351 0.0
H1056 H 0.26865 0.76956 0.30861 0.0
H1057 H 0.30342 0.71435 0.30385 0.0
C1058 C 0.20482 0.73072 0.82634 0.0
C1059 C 0.18623 0.71369 0.84424 0.0
C1060 C 0.19512 0.76405 0.8247 0.0
C1061 C 0.20551 0.82494 0.86321 0.0
H1062 H 0.18728 0.88698 0.81795 0.0
C1063 C 0.26177 0.95985 0.87445 0.0
C1064 C 0.28031 0.97799 0.85702 0.0
C1065 C 0.24337 0.92786 0.87202 0.0
C1066 C 0.19344 0.8699 0.83068 0.0
H1067 H 0.13373 0.7164 0.87225 0.0
H1068 H 0.1167 0.77459 0.86941 0.0
H1069 H 0.15394 0.83121 0.81327 0.0
H1070 H 0.29759 0.97611 0.82359 0.0
H1071 H 0.26909 0.91961 0.81954 0.0
H1072 H 0.24867 0.8622 0.88014 0.0
C1073 C 0.13942 0.76242 0.85683 0.0
C1074 C 0.17342 0.83812 0.82806 0.0
C1075 C 0.14845 0.72898 0.85828 0.0
C1076 C 0.28347 0.96276 0.83733 0.0
C1077 C 0.26615 0.93049 0.83496 0.0
C1078 C 0.22656 0.85635 0.86567 0.0
C1079 C 0.16688 0.78053 0.84099 0.0
C1080 C 0.17937 0.81536 0.84431 0.0
C1081 C 0.24418 0.91287 0.85216 0.0
C1082 C 0.22117 0.87932 0.84943 0.0
H1083 H 0.23418 0.7194 0.81533 0.0
H1084 H 0.21646 0.77738 0.81225 0.0
H1085 H 0.21232 0.80763 0.87578 0.0
H1086 H 0.2578 0.97097 0.88979 0.0
H1087 H 0.2261 0.91548 0.88564 0.0
C1088 C 0.66135 0.5614 0.54195 0.0
C1089 C 0.64296 0.57308 0.56156 0.0
C1090 C 0.62213 0.55739 0.52554 0.0
C1091 C 0.53467 0.5715 0.49083 0.0
H1092 H 0.4081 0.51158 0.49887 0.0
C1093 C 0.4534 0.48882 0.42673 0.0
C1094 C 0.39941 0.47394 0.42848 0.0
C1095 C 0.46985 0.5128 0.44091 0.0
C1096 C 0.44193 0.52921 0.49634 0.0
H1097 H 0.56878 0.58893 0.5795 0.0
H1098 H 0.49958 0.58072 0.55084 0.0
H1099 H 0.46413 0.52934 0.52905 0.0
H1100 H 0.31781 0.4744 0.44482 0.0
H1101 H 0.34571 0.51723 0.46941 0.0
H1102 H 0.51363 0.57098 0.45812 0.0
C1103 C 0.54464 0.57529 0.54819 0.0
C1104 C 0.47432 0.53917 0.5137 0.0
C1105 C 0.58416 0.57992 0.56454 0.0
C1106 C 0.35946 0.48594 0.44304 0.0
C1107 C 0.3759 0.51005 0.45732 0.0
C1108 C 0.50177 0.56199 0.47352 0.0
C1109 C 0.56351 0.56444 0.52845 0.0
C1110 C 0.52253 0.55921 0.51094 0.0
C1111 C 0.43263 0.52223 0.45726 0.0
C1112 C 0.45675 0.53943 0.47589 0.0
H1113 H 0.70638 0.55621 0.53905 0.0
H1114 H 0.63762 0.5485 0.51056 0.0
H1115 H 0.57109 0.58748 0.48838 0.0
H1116 H 0.48514 0.47951 0.41581 0.0
H1117 H 0.51394 0.52128 0.4403 0.0
C1118 C 0.89505 0.95008 0.06106 0.0
C1119 C 0.84149 0.9647 0.06496 0.0
C1120 C 0.93008 0.96125 0.04472 0.0
C1121 C 0.95299 0.03057 0.00868 0.0
H1122 H 0.01672 0.96528 0.97159 0.0
C1123 C 0.05111 0.06375 0.92854 0.0
C1124 C 0.10539 0.05017 0.92441 0.0
C1125 C 0.01786 0.05238 0.9453 0.0
C1126 C -0.00052 0.98376 0.9819 0.0
H1127 H 0.78434 0.00383 0.05552 0.0
H1128 H 0.84494 0.02296 0.0271 0.0
H1129 H 0.96488 0.9486 0.00317 0.0
H1130 H 0.16565 0.01254 0.93383 0.0
H1131 H 0.10776 0.99288 0.96294 0.0
H1132 H 0.98726 0.06571 0.98733 0.0
C1133 C 0.86006 0.00292 0.03664 0.0
C1134 C 0.97014 0.97423 2e-05 0.0
C1135 C 0.82513 0.99177 0.05289 0.0
C1136 C 0.12425 0.02381 0.93666 0.0
C1137 C 0.09097 0.01237 0.95331 0.0
C1138 C 0.98219 0.04008 0.99054 0.0
C1139 C 0.91232 0.98739 0.03209 0.0
C1140 C 0.94642 0.99755 0.01356 0.0
C1141 C 0.03807 0.02702 0.95808 0.0
C1142 C 0.00557 0.01677 0.97695 0.0
H1143 H 0.90933 0.92954 0.07022 0.0
H1144 H 0.9707 0.94917 0.0418 0.0
H1145 H 0.93578 0.04909 0.01896 0.0
H1146 H 0.03489 0.08369 0.91924 0.0
H1147 H 0.97667 0.06371 0.94842 0.0
C1148 C 0.92534 0.9954 0.56111 0.0
C1149 C 0.87737 0.01591 0.55979 0.0
C1150 C 0.9364 0.97308 0.54514 0.0
C1151 C 0.9507 0.92842 0.5067 0.0
H1152 H 0.96356 0.98798 0.4596 0.0
C1153 C 0.06283 0.89941 0.42682 0.0
C1154 C 0.11249 0.91854 0.42418 0.0
C1155 C 0.02216 0.90687 0.44224 0.0
C1156 C 0.95939 0.97095 0.47249 0.0
H1157 H 0.79996 0.02705 0.54235 0.0
H1158 H 0.81946 0.98821 0.51426 0.0
H1159 H 0.90678 0.00325 0.49033 0.0
H1160 H 0.15595 0.96211 0.43486 0.0
H1161 H 0.08352 0.97581 0.46126 0.0
H1162 H 0.0052 0.89661 0.4889 0.0
C1163 C 0.84821 0.98909 0.52765 0.0
C1164 C 0.92653 0.97947 0.48998 0.0
C1165 C 0.83674 0.01103 0.54382 0.0
C1166 C 0.11861 0.94658 0.43653 0.0
C1167 C 0.07722 0.95448 0.45163 0.0
C1168 C 0.98263 0.91959 0.48895 0.0
C1169 C 0.90013 0.9716 0.5275 0.0
C1170 C 0.92331 0.95874 0.50752 0.0
C1171 C 0.02941 0.93427 0.45488 0.0
C1172 C 0.98865 0.94129 0.47205 0.0
H1173 H 0.95764 0.99922 0.57315 0.0
H1174 H 0.97684 0.95999 0.54538 0.0
H1175 H 0.94926 0.91219 0.52008 0.0
H1176 H 0.05581 0.87824 0.41736 0.0
H1177 H 0.98519 0.89117 0.44436 0.0
C1178 C 0.626 0.49896 0.05231 0.0
C1179 C 0.60627 0.47411 0.06566 0.0
C1180 C 0.59264 0.50937 0.03538 0.0
C1181 C 0.44587 0.5081 0.01312 0.0
H1182 H 0.52636 0.51784 0.96002 0.0
C1183 C 0.32318 0.52183 0.93552 0.0
C1184 C 0.34168 0.5467 0.92196 0.0
C1185 C 0.357 0.51231 0.95254 0.0
C1186 C 0.50339 0.51551 0.97477 0.0
H1187 H 0.53415 0.44247 0.0725 0.0
H1188 H 0.47621 0.46025 0.04276 0.0
H1189 H 0.58042 0.50449 0.99172 0.0
H1190 H 0.41232 0.5792 0.91479 0.0
H1191 H 0.47119 0.56288 0.94468 0.0
H1192 H 0.36882 0.519 -0.00386 0.0
C1193 C 0.51761 0.47163 0.04539 0.0
C1194 C 0.53432 0.50796 0.99293 0.0
C1195 C 0.551 0.46125 0.06238 0.0
C1196 C 0.39637 0.56042 0.9251 0.0
C1197 C 0.43028 0.55089 0.94217 0.0
C1198 C 0.41495 0.51563 -0.00505 0.0
C1199 C 0.53874 0.49524 0.03142 0.0
C1200 C 0.50587 0.50412 0.0123 0.0
C1201 C 0.4102 0.52733 0.95637 0.0
C1202 C 0.44335 0.51928 0.97557 0.0
H1203 H 0.6681 0.50974 0.05448 0.0
H1204 H 0.60951 0.52814 0.02517 0.0
H1205 H 0.42285 0.50574 0.02785 0.0
H1206 H 0.28157 0.51039 0.93348 0.0
H1207 H 0.34101 0.49353 0.96293 0.0
loop_
_geom_bond_atom_site_label_1
_geom_bond_atom_site_label_2
_geom_bond_distance
_geom_bond_site_symmetry_2
_ccdc_geom_bond_type
C0 O27 1.312 . S
C0 O28 1.208 . S
C1 O22 1.331 . S
C1 O25 1.244 . S
C2 O24 1.264 . S
C2 O26 1.273 . S
Mg3 O5 1.936 . S
Mg3 O12 2.081 . S
Mg3 O14 2.023 . S
Mg3 O18 2.031 . S
Mg3 O27 2.291 . S
Mg4 O5 1.963 . S
Mg4 O15 1.942 . S
Mg4 O16 1.955 . S
Mg4 O23 1.986 . S
O5 Mg3 1.936 . S
O5 Mg4 1.963 . S
O5 Mg6 1.915 . S
Mg6 O5 1.915 . S
Mg6 O7 1.915 . S
Mg6 O11 2.013 . S
Mg6 O17 2.114 . S
Mg6 O21 2.013 . S
Mg6 O27 2.114 . S
O7 Mg6 1.915 . S
O7 Mg8 1.936 . S
O7 Mg9 1.963 . S
Mg8 O7 1.936 . S
Mg8 O17 2.291 . S
Mg8 O22 2.081 . S
Mg8 O24 2.023 . S
Mg8 O28 2.031 . S
Mg9 O7 1.963 . S
Mg9 O13 1.986 . S
Mg9 O25 1.942 . S
Mg9 O26 1.955 . S
C10 O21 1.191 . S
C10 O23 1.307 . S
O11 Mg6 2.013 . S
O11 C30 1.191 . S
O12 Mg3 2.081 . S
O12 C20 1.331 . S
O13 Mg9 1.986 . S
O13 C30 1.307 . S
O14 Mg3 2.023 . S
O14 C29 1.264 . S
O15 Mg4 1.942 . S
O15 C20 1.244 . S
O16 Mg4 1.955 . S
O16 C29 1.273 . S
O17 Mg6 2.114 . S
O17 Mg8 2.291 . S
O17 C19 1.312 . S
O18 Mg3 2.031 . S
O18 C19 1.208 . S
C19 O17 1.312 . S
C19 O18 1.208 . S
C20 O12 1.331 . S
C20 O15 1.244 . S
O21 Mg6 2.013 . S
O21 C10 1.191 . S
O22 C1 1.331 . S
O22 Mg8 2.081 . S
O23 Mg4 1.986 . S
O23 C10 1.307 . S
O24 C2 1.264 . S
O24 Mg8 2.023 . S
O25 C1 1.244 . S
O25 Mg9 1.942 . S
O26 C2 1.273 . S
O26 Mg9 1.955 . S
O27 C0 1.312 . S
O27 Mg3 2.291 . S
O27 Mg6 2.114 . S
O28 C0 1.208 . S
O28 Mg8 2.031 . S
C29 O14 1.264 . S
C29 O16 1.273 . S
C30 O11 1.191 . S
C30 O13 1.307 . S
C31 O58 1.312 . S
C31 O59 1.208 . S
C32 O53 1.331 . S
C32 O56 1.244 . S
C33 O55 1.264 . S
C33 O57 1.273 . S
Mg34 O36 1.936 . S
Mg34 O43 2.081 1_455 S
Mg34 O45 2.023 1_455 S
Mg34 O49 2.031 . S
Mg34 O58 2.291 . S
Mg35 O36 1.963 . S
Mg35 O46 1.942 1_455 S
Mg35 O47 1.955 1_455 S
Mg35 O54 1.986 . S
O36 Mg34 1.936 . S
O36 Mg35 1.963 . S
O36 Mg37 1.915 . S
Mg37 O36 1.915 . S
Mg37 O38 1.915 . S
Mg37 O42 2.013 . S
Mg37 O48 2.114 . S
Mg37 O52 2.013 . S
Mg37 O58 2.114 . S
O38 Mg37 1.915 . S
O38 Mg39 1.936 . S
O38 Mg40 1.963 . S
Mg39 O38 1.936 . S
Mg39 O48 2.291 . S
Mg39 O53 2.081 . S
Mg39 O55 2.023 . S
Mg39 O59 2.031 . S
Mg40 O38 1.963 . S
Mg40 O44 1.986 . S
Mg40 O56 1.942 . S
Mg40 O57 1.955 . S
C41 O52 1.191 . S
C41 O54 1.307 . S
O42 Mg37 2.013 . S
O42 C61 1.191 . S
O43 Mg34 2.081 1_655 S
O43 C51 1.331 . S
O44 Mg40 1.986 . S
O44 C61 1.307 . S
O45 Mg34 2.023 1_655 S
O45 C60 1.264 . S
O46 Mg35 1.942 1_655 S
O46 C51 1.244 . S
O47 Mg35 1.955 1_655 S
O47 C60 1.273 . S
O48 Mg37 2.114 . S
O48 Mg39 2.291 . S
O48 C50 1.312 . S
O49 Mg34 2.031 . S
O49 C50 1.208 . S
C50 O48 1.312 . S
C50 O49 1.208 . S
C51 O43 1.331 . S
C51 O46 1.244 . S
O52 Mg37 2.013 . S
O52 C41 1.191 . S
O53 C32 1.331 . S
O53 Mg39 2.081 . S
O54 Mg35 1.986 . S
O54 C41 1.307 . S
O55 C33 1.264 . S
O55 Mg39 2.023 . S
O56 C32 1.244 . S
O56 Mg40 1.942 . S
O57 C33 1.273 . S
O57 Mg40 1.955 . S
O58 C31 1.312 . S
O58 Mg34 2.291 . S
O58 Mg37 2.114 . S
O59 C31 1.208 . S
O59 Mg39 2.031 . S
C60 O45 1.264 . S
C60 O47 1.273 . S
C61 O42 1.191 . S
C61 O44 1.307 . S
C62 O89 1.312 . S
C62 O90 1.208 . S
C63 O84 1.331 . S
C63 O87 1.244 . S
C64 O86 1.264 . S
C64 O88 1.273 . S
Mg65 O67 1.936 . S
Mg65 O74 2.081 1_655 S
Mg65 O76 2.023 . S
Mg65 O80 2.031 . S
Mg65 O89 2.291 . S
Mg66 O67 1.963 1_455 S
Mg66 O77 1.942 . S
Mg66 O78 1.955 1_455 S
Mg66 O85 1.986 1_455 S
O67 Mg65 1.936 . S
O67 Mg66 1.963 1_655 S
O67 Mg68 1.915 . S
Mg68 O67 1.915 . S
Mg68 O69 1.915 . S
Mg68 O73 2.013 . S
Mg68 O79 2.114 . S
Mg68 O83 2.013 . S
Mg68 O89 2.114 . S
O69 Mg68 1.915 . S
O69 Mg70 1.936 . S
O69 Mg71 1.963 . S
Mg70 O69 1.936 . S
Mg70 O79 2.291 . S
Mg70 O84 2.081 . S
Mg70 O86 2.023 . S
Mg70 O90 2.031 . S
Mg71 O69 1.963 . S
Mg71 O75 1.986 . S
Mg71 O87 1.942 . S
Mg71 O88 1.955 . S
C72 O83 1.191 . S
C72 O85 1.307 . S
O73 Mg68 2.013 . S
O73 C92 1.191 . S
O74 Mg65 2.081 1_455 S
O74 C82 1.331 . S
O75 Mg71 1.986 . S
O75 C92 1.307 . S
O76 Mg65 2.023 . S
O76 C91 1.264 . S
O77 Mg66 1.942 . S
O77 C82 1.244 . S
O78 Mg66 1.955 1_655 S
O78 C91 1.273 . S
O79 Mg68 2.114 . S
O79 Mg70 2.291 . S
O79 C81 1.312 . S
O80 Mg65 2.031 . S
O80 C81 1.208 . S
C81 O79 1.312 . S
C81 O80 1.208 . S
C82 O74 1.331 . S
C82 O77 1.244 . S
O83 Mg68 2.013 . S
O83 C72 1.191 . S
O84 C63 1.331 . S
O84 Mg70 2.081 . S
O85 Mg66 1.986 1_655 S
O85 C72 1.307 . S
O86 C64 1.264 . S
O86 Mg70 2.023 . S
O87 C63 1.244 . S
O87 Mg71 1.942 . S
O88 C64 1.273 . S
O88 Mg71 1.955 . S
O89 C62 1.312 . S
O89 Mg65 2.291 . S
O89 Mg68 2.114 . S
O90 C62 1.208 . S
O90 Mg70 2.031 . S
C91 O76 1.264 . S
C91 O78 1.273 . S
C92 O73 1.191 . S
C92 O75 1.307 . S
C93 O120 1.312 . S
C93 O121 1.208 . S
C94 O115 1.331 . S
C94 O118 1.244 . S
C95 O117 1.264 . S
C95 O119 1.273 . S
Mg96 O98 1.936 . S
Mg96 O105 2.081 . S
Mg96 O107 2.023 . S
Mg96 O111 2.031 . S
Mg96 O120 2.291 . S
Mg97 O98 1.963 . S
Mg97 O108 1.942 . S
Mg97 O109 1.955 . S
Mg97 O116 1.986 . S
O98 Mg96 1.936 . S
O98 Mg97 1.963 . S
O98 Mg99 1.915 . S
Mg99 O98 1.915 . S
Mg99 O100 1.915 . S
Mg99 O104 2.013 . S
Mg99 O110 2.114 . S
Mg99 O114 2.013 . S
Mg99 O120 2.114 . S
O100 Mg99 1.915 . S
O100 Mg101 1.936 . S
O100 Mg102 1.963 . S
Mg101 O100 1.936 . S
Mg101 O110 2.291 . S
Mg101 O115 2.081 . S
Mg101 O117 2.023 . S
Mg101 O121 2.031 . S
Mg102 O100 1.963 . S
Mg102 O106 1.986 . S
Mg102 O118 1.942 . S
Mg102 O119 1.955 . S
C103 O114 1.191 . S
C103 O116 1.307 . S
O104 Mg99 2.013 . S
O104 C123 1.191 . S
O105 Mg96 2.081 . S
O105 C113 1.331 . S
O106 Mg102 1.986 . S
O106 C123 1.307 . S
O107 Mg96 2.023 . S
O107 C122 1.264 . S
O108 Mg97 1.942 . S
O108 C113 1.244 . S
O109 Mg97 1.955 . S
O109 C122 1.273 . S
O110 Mg99 2.114 . S
O110 Mg101 2.291 . S
O110 C112 1.312 . S
O111 Mg96 2.031 . S
O111 C112 1.208 . S
C112 O110 1.312 . S
C112 O111 1.208 . S
C113 O105 1.331 . S
C113 O108 1.244 . S
O114 Mg99 2.013 . S
O114 C103 1.191 . S
O115 C94 1.331 . S
O115 Mg101 2.081 . S
O116 Mg97 1.986 . S
O116 C103 1.307 . S
O117 C95 1.264 . S
O117 Mg101 2.023 . S
O118 C94 1.244 . S
O118 Mg102 1.942 . S
O119 C95 1.273 . S
O119 Mg102 1.955 . S
O120 C93 1.312 . S
O120 Mg96 2.291 . S
O120 Mg99 2.114 . S
O121 C93 1.208 . S
O121 Mg101 2.031 . S
C122 O107 1.264 . S
C122 O109 1.273 . S
C123 O104 1.191 . S
C123 O106 1.307 . S
C124 O151 1.312 . S
C124 O152 1.208 . S
C125 O146 1.331 . S
C125 O149 1.244 . S
C126 O148 1.264 . S
C126 O150 1.273 . S
Mg127 O129 1.936 . S
Mg127 O136 2.081 . S
Mg127 O138 2.023 . S
Mg127 O142 2.031 . S
Mg127 O151 2.291 . S
Mg128 O129 1.963 . S
Mg128 O139 1.942 . S
Mg128 O140 1.955 . S
Mg128 O147 1.986 . S
O129 Mg127 1.936 . S
O129 Mg128 1.963 . S
O129 Mg130 1.915 . S
Mg130 O129 1.915 . S
Mg130 O131 1.915 . S
Mg130 O135 2.013 . S
Mg130 O141 2.114 . S
Mg130 O145 2.013 . S
Mg130 O151 2.114 . S
O131 Mg130 1.915 . S
O131 Mg132 1.936 . S
O131 Mg133 1.963 . S
Mg132 O131 1.936 . S
Mg132 O141 2.291 . S
Mg132 O146 2.081 . S
Mg132 O148 2.023 . S
Mg132 O152 2.031 . S
Mg133 O131 1.963 . S
Mg133 O137 1.986 . S
Mg133 O149 1.942 . S
Mg133 O150 1.955 . S
C134 O145 1.191 . S
C134 O147 1.307 . S
O135 Mg130 2.013 . S
O135 C154 1.191 . S
O136 Mg127 2.081 . S
O136 C144 1.331 . S
O137 Mg133 1.986 . S
O137 C154 1.307 . S
O138 Mg127 2.023 . S
O138 C153 1.264 . S
O139 Mg128 1.942 . S
O139 C144 1.244 . S
O140 Mg128 1.955 . S
O140 C153 1.273 . S
O141 Mg130 2.114 . S
O141 Mg132 2.291 . S
O141 C143 1.312 . S
O142 Mg127 2.031 . S
O142 C143 1.208 . S
C143 O141 1.312 . S
C143 O142 1.208 . S
C144 O136 1.331 . S
C144 O139 1.244 . S
O145 Mg130 2.013 . S
O145 C134 1.191 . S
O146 C125 1.331 . S
O146 Mg132 2.081 . S
O147 Mg128 1.986 . S
O147 C134 1.307 . S
O148 C126 1.264 . S
O148 Mg132 2.023 . S
O149 C125 1.244 . S
O149 Mg133 1.942 . S
O150 C126 1.273 . S
O150 Mg133 1.955 . S
O151 C124 1.312 . S
O151 Mg127 2.291 . S
O151 Mg130 2.114 . S
O152 C124 1.208 . S
O152 Mg132 2.031 . S
C153 O138 1.264 . S
C153 O140 1.273 . S
C154 O135 1.191 . S
C154 O137 1.307 . S
C155 O182 1.312 . S
C155 O183 1.208 . S
C156 O177 1.331 . S
C156 O180 1.244 . S
C157 O179 1.264 . S
C157 O181 1.273 . S
Mg158 O160 1.936 . S
Mg158 O167 2.081 . S
Mg158 O169 2.023 . S
Mg158 O173 2.031 . S
Mg158 O182 2.291 . S
Mg159 O160 1.963 . S
Mg159 O170 1.942 . S
Mg159 O171 1.955 . S
Mg159 O178 1.986 . S
O160 Mg158 1.936 . S
O160 Mg159 1.963 . S
O160 Mg161 1.915 . S
Mg161 O160 1.915 . S
Mg161 O162 1.915 . S
Mg161 O166 2.013 . S
Mg161 O172 2.114 . S
Mg161 O176 2.013 . S
Mg161 O182 2.114 . S
O162 Mg161 1.915 . S
O162 Mg163 1.936 . S
O162 Mg164 1.963 . S
Mg163 O162 1.936 . S
Mg163 O172 2.291 . S
Mg163 O177 2.081 1_655 S
Mg163 O179 2.023 1_655 S
Mg163 O183 2.031 . S
Mg164 O162 1.963 . S
Mg164 O168 1.986 . S
Mg164 O180 1.942 1_655 S
Mg164 O181 1.955 1_655 S
C165 O176 1.191 . S
C165 O178 1.307 . S
O166 Mg161 2.013 . S
O166 C185 1.191 . S
O167 Mg158 2.081 . S
O167 C175 1.331 . S
O168 Mg164 1.986 . S
O168 C185 1.307 . S
O169 Mg158 2.023 . S
O169 C184 1.264 . S
O170 Mg159 1.942 . S
O170 C175 1.244 . S
O171 Mg159 1.955 . S
O171 C184 1.273 . S
O172 Mg161 2.114 . S
O172 Mg163 2.291 . S
O172 C174 1.312 . S
O173 Mg158 2.031 . S
O173 C174 1.208 . S
C174 O172 1.312 . S
C174 O173 1.208 . S
C175 O167 1.331 . S
C175 O170 1.244 . S
O176 Mg161 2.013 . S
O176 C165 1.191 . S
O177 C156 1.331 . S
O177 Mg163 2.081 1_455 S
O178 Mg159 1.986 . S
O178 C165 1.307 . S
O179 C157 1.264 . S
O179 Mg163 2.023 1_455 S
O180 C156 1.244 . S
O180 Mg164 1.942 1_455 S
O181 C157 1.273 . S
O181 Mg164 1.955 1_455 S
O182 C155 1.312 . S
O182 Mg158 2.291 . S
O182 Mg161 2.114 . S
O183 C155 1.208 . S
O183 Mg163 2.031 . S
C184 O169 1.264 . S
C184 O171 1.273 . S
C185 O166 1.191 . S
C185 O168 1.307 . S
C186 O213 1.312 . S
C186 O214 1.208 . S
C187 O208 1.331 . S
C187 O211 1.244 . S
C188 O210 1.264 . S
C188 O212 1.273 . S
Mg189 O191 1.936 . S
Mg189 O198 2.081 . S
Mg189 O200 2.023 . S
Mg189 O204 2.031 . S
Mg189 O213 2.291 . S
Mg190 O191 1.963 . S
Mg190 O201 1.942 . S
Mg190 O202 1.955 . S
Mg190 O209 1.986 . S
O191 Mg189 1.936 . S
O191 Mg190 1.963 . S
O191 Mg192 1.915 . S
Mg192 O191 1.915 . S
Mg192 O193 1.915 . S
Mg192 O197 2.013 . S
Mg192 O203 2.114 . S
Mg192 O207 2.013 . S
Mg192 O213 2.114 . S
O193 Mg192 1.915 . S
O193 Mg194 1.936 . S
O193 Mg195 1.963 . S
Mg194 O193 1.936 . S
Mg194 O203 2.291 . S
Mg194 O208 2.081 1_455 S
Mg194 O210 2.023 1_455 S
Mg194 O214 2.031 . S
Mg195 O193 1.963 . S
Mg195 O199 1.986 . S
Mg195 O211 1.942 1_455 S
Mg195 O212 1.955 1_455 S
C196 O207 1.191 . S
C196 O209 1.307 . S
O197 Mg192 2.013 . S
O197 C216 1.191 . S
O198 Mg189 2.081 . S
O198 C206 1.331 . S
O199 Mg195 1.986 . S
O199 C216 1.307 . S
O200 Mg189 2.023 . S
O200 C215 1.264 . S
O201 Mg190 1.942 . S
O201 C206 1.244 . S
O202 Mg190 1.955 . S
O202 C215 1.273 . S
O203 Mg192 2.114 . S
O203 Mg194 2.291 . S
O203 C205 1.312 . S
O204 Mg189 2.031 . S
O204 C205 1.208 . S
C205 O203 1.312 . S
C205 O204 1.208 . S
C206 O198 1.331 . S
C206 O201 1.244 . S
O207 Mg192 2.013 . S
O207 C196 1.191 . S
O208 C187 1.331 . S
O208 Mg194 2.081 1_655 S
O209 Mg190 1.986 . S
O209 C196 1.307 . S
O210 C188 1.264 . S
O210 Mg194 2.023 1_655 S
O211 C187 1.244 . S
O211 Mg195 1.942 1_655 S
O212 C188 1.273 . S
O212 Mg195 1.955 1_655 S
O213 C186 1.312 . S
O213 Mg189 2.291 . S
O213 Mg192 2.114 . S
O214 C186 1.208 . S
O214 Mg194 2.031 . S
C215 O200 1.264 . S
C215 O202 1.273 . S
C216 O197 1.191 . S
C216 O199 1.307 . S
C217 O244 1.312 . S
C217 O245 1.208 . S
C218 O239 1.331 . S
C218 O242 1.244 . S
C219 O241 1.264 . S
C219 O243 1.273 . S
Mg220 O222 1.936 . S
Mg220 O229 2.081 . S
Mg220 O231 2.023 . S
Mg220 O235 2.031 . S
Mg220 O244 2.291 . S
Mg221 O222 1.963 . S
Mg221 O232 1.942 . S
Mg221 O233 1.955 . S
Mg221 O240 1.986 . S
O222 Mg220 1.936 . S
O222 Mg221 1.963 . S
O222 Mg223 1.915 . S
Mg223 O222 1.915 . S
Mg223 O224 1.915 . S
Mg223 O228 2.013 . S
Mg223 O234 2.114 . S
Mg223 O238 2.013 . S
Mg223 O244 2.114 . S
O224 Mg223 1.915 . S
O224 Mg225 1.936 . S
O224 Mg226 1.963 . S
Mg225 O224 1.936 . S
Mg225 O234 2.291 . S
Mg225 O239 2.081 . S
Mg225 O241 2.023 . S
Mg225 O245 2.031 . S
Mg226 O224 1.963 . S
Mg226 O230 1.986 . S
Mg226 O242 1.942 . S
Mg226 O243 1.955 . S
C227 O238 1.191 . S
C227 O240 1.307 . S
O228 Mg223 2.013 . S
O228 C247 1.191 . S
O229 Mg220 2.081 . S
O229 C237 1.331 . S
O230 Mg226 1.986 . S
O230 C247 1.307 . S
O231 Mg220 2.023 . S
O231 C246 1.264 . S
O232 Mg221 1.942 . S
O232 C237 1.244 . S
O233 Mg221 1.955 . S
O233 C246 1.273 . S
O234 Mg223 2.114 . S
O234 Mg225 2.291 . S
O234 C236 1.312 . S
O235 Mg220 2.031 . S
O235 C236 1.208 . S
C236 O234 1.312 . S
C236 O235 1.208 . S
C237 O229 1.331 . S
C237 O232 1.244 . S
O238 Mg223 2.013 . S
O238 C227 1.191 . S
O239 C218 1.331 . S
O239 Mg225 2.081 . S
O240 Mg221 1.986 . S
O240 C227 1.307 . S
O241 C219 1.264 . S
O241 Mg225 2.023 . S
O242 C218 1.244 . S
O242 Mg226 1.942 . S
O243 C219 1.273 . S
O243 Mg226 1.955 . S
O244 C217 1.312 . S
O244 Mg220 2.291 . S
O244 Mg223 2.114 . S
O245 C217 1.208 . S
O245 Mg225 2.031 . S
C246 O231 1.264 . S
C246 O233 1.273 . S
C247 O228 1.191 . S
C247 O230 1.307 . S
C248 C249 1.349 . S
C248 C250 1.327 . S
C248 H273 0.950 . S
C249 C248 1.349 . S
C249 C265 1.349 . S
C250 C248 1.327 . S
C250 C269 1.429 . S
C250 H274 0.950 . S
C251 C268 1.574 . S
C251 C270 1.368 . S
C251 H275 0.949 . S
H252 C256 0.949 . S
C253 C254 1.349 . S
C253 C255 1.327 . S
C253 H276 0.950 . S
C254 C253 1.349 . S
C254 C266 1.349 . S
C255 C253 1.327 . S
C255 C271 1.429 . S
C255 H277 0.950 . S
C256 H252 0.949 . S
C256 C264 1.574 . S
C256 C272 1.368 . S
H257 C265 0.950 . S
H258 C263 0.950 . S
H259 C264 0.949 . S
H260 C266 0.950 . S
H261 C267 0.950 . S
H262 C268 0.949 . S
C263 H258 0.950 . S
C263 C265 1.327 . S
C263 C269 1.429 . S
C264 C256 1.574 . S
C264 H259 0.949 . S
C264 C270 1.368 . S
C265 C249 1.349 . S
C265 H257 0.950 . S
C265 C263 1.327 . S
C266 C254 1.349 . S
C266 H260 0.950 . S
C266 C267 1.327 . S
C267 H261 0.950 . S
C267 C266 1.327 . S
C267 C271 1.429 . S
C268 C251 1.574 . S
C268 H262 0.949 . S
C268 C272 1.368 . S
C269 C250 1.429 . S
C269 C263 1.429 . S
C269 C270 1.523 1_455 S
C270 C251 1.368 . S
C270 C264 1.368 . S
C270 C269 1.523 1_655 S
C271 C255 1.429 . S
C271 C267 1.429 . S
C271 C272 1.523 . S
C272 C256 1.368 . S
C272 C268 1.368 . S
C272 C271 1.523 . S
H273 C248 0.950 . S
H274 C250 0.950 . S
H275 C251 0.949 . S
H276 C253 0.950 . S
H277 C255 0.950 . S
C278 C279 1.349 . S
C278 C280 1.327 . S
C278 H303 0.950 . S
C279 C278 1.349 . S
C279 C295 1.349 . S
C280 C278 1.327 . S
C280 C299 1.429 . S
C280 H304 0.950 . S
C281 C298 1.574 . S
C281 C300 1.368 . S
C281 H305 0.949 . S
H282 C286 0.949 . S
C283 C284 1.349 . S
C283 C285 1.327 . S
C283 H306 0.950 . S
C284 C283 1.349 . S
C284 C296 1.349 . S
C285 C283 1.327 . S
C285 C301 1.429 . S
C285 H307 0.950 . S
C286 H282 0.949 . S
C286 C294 1.574 . S
C286 C302 1.368 . S
H287 C295 0.950 . S
H288 C293 0.950 . S
H289 C294 0.949 . S
H290 C296 0.950 . S
H291 C297 0.950 . S
H292 C298 0.949 . S
C293 H288 0.950 . S
C293 C295 1.327 . S
C293 C299 1.429 . S
C294 C286 1.574 . S
C294 H289 0.949 . S
C294 C300 1.368 . S
C295 C279 1.349 . S
C295 H287 0.950 . S
C295 C293 1.327 . S
C296 C284 1.349 . S
C296 H290 0.950 . S
C296 C297 1.327 . S
C297 H291 0.950 . S
C297 C296 1.327 . S
C297 C301 1.429 . S
C298 C281 1.574 . S
C298 H292 0.949 . S
C298 C302 1.368 . S
C299 C280 1.429 . S
C299 C293 1.429 . S
C299 C300 1.523 . S
C300 C281 1.368 . S
C300 C294 1.368 . S
C300 C299 1.523 . S
C301 C285 1.429 . S
C301 C297 1.429 . S
C301 C302 1.523 . S
C302 C286 1.368 . S
C302 C298 1.368 . S
C302 C301 1.523 . S
H303 C278 0.950 . S
H304 C280 0.950 . S
H305 C281 0.949 . S
H306 C283 0.950 . S
H307 C285 0.950 . S
C308 C309 1.349 . S
C308 C310 1.327 . S
C308 H333 0.950 . S
C309 C308 1.349 . S
C309 C325 1.349 . S
C310 C308 1.327 . S
C310 C329 1.429 . S
C310 H334 0.950 . S
C311 C328 1.574 . S
C311 C330 1.368 . S
C311 H335 0.949 . S
H312 C316 0.949 . S
C313 C314 1.349 . S
C313 C315 1.327 . S
C313 H336 0.950 . S
C314 C313 1.349 . S
C314 C326 1.349 . S
C315 C313 1.327 . S
C315 C331 1.429 . S
C315 H337 0.950 . S
C316 H312 0.949 . S
C316 C324 1.574 . S
C316 C332 1.368 . S
H317 C325 0.950 . S
H318 C323 0.950 . S
H319 C324 0.949 . S
H320 C326 0.950 . S
H321 C327 0.950 . S
H322 C328 0.949 . S
C323 H318 0.950 . S
C323 C325 1.327 . S
C323 C329 1.429 . S
C324 C316 1.574 . S
C324 H319 0.949 . S
C324 C330 1.368 . S
C325 C309 1.349 . S
C325 H317 0.950 . S
C325 C323 1.327 . S
C326 C314 1.349 . S
C326 H320 0.950 . S
C326 C327 1.327 . S
C327 H321 0.950 . S
C327 C326 1.327 . S
C327 C331 1.429 . S
C328 C311 1.574 . S
C328 H322 0.949 . S
C328 C332 1.368 . S
C329 C310 1.429 . S
C329 C323 1.429 . S
C329 C330 1.523 . S
C330 C311 1.368 . S
C330 C324 1.368 . S
C330 C329 1.523 . S
C331 C315 1.429 . S
C331 C327 1.429 . S
C331 C332 1.523 . S
C332 C316 1.368 . S
C332 C328 1.368 . S
C332 C331 1.523 . S
H333 C308 0.950 . S
H334 C310 0.950 . S
H335 C311 0.949 . S
H336 C313 0.950 . S
H337 C315 0.950 . S
C338 C339 1.349 . S
C338 C340 1.327 . S
C338 H363 0.950 . S
C339 C338 1.349 . S
C339 C355 1.349 . S
C340 C338 1.327 . S
C340 C359 1.429 . S
C340 H364 0.950 . S
C341 C358 1.574 . S
C341 C360 1.368 . S
C341 H365 0.949 . S
H342 C346 0.949 . S
C343 C344 1.349 . S
C343 C345 1.327 . S
C343 H366 0.950 . S
C344 C343 1.349 . S
C344 C356 1.349 . S
C345 C343 1.327 . S
C345 C361 1.429 . S
C345 H367 0.950 . S
C346 H342 0.949 . S
C346 C354 1.574 . S
C346 C362 1.368 . S
H347 C355 0.950 . S
H348 C353 0.950 . S
H349 C354 0.949 . S
H350 C356 0.950 . S
H351 C357 0.950 . S
H352 C358 0.949 . S
C353 H348 0.950 . S
C353 C355 1.327 . S
C353 C359 1.429 . S
C354 C346 1.574 . S
C354 H349 0.949 . S
C354 C360 1.368 . S
C355 C339 1.349 . S
C355 H347 0.950 . S
C355 C353 1.327 . S
C356 C344 1.349 . S
C356 H350 0.950 . S
C356 C357 1.327 . S
C357 H351 0.950 . S
C357 C356 1.327 . S
C357 C361 1.429 . S
C358 C341 1.574 . S
C358 H352 0.949 . S
C358 C362 1.368 . S
C359 C340 1.429 . S
C359 C353 1.429 . S
C359 C360 1.523 1_655 S
C360 C341 1.368 . S
C360 C354 1.368 . S
C360 C359 1.523 1_455 S
C361 C345 1.429 . S
C361 C357 1.429 . S
C361 C362 1.523 . S
C362 C346 1.368 . S
C362 C358 1.368 . S
C362 C361 1.523 . S
H363 C338 0.950 . S
H364 C340 0.950 . S
H365 C341 0.949 . S
H366 C343 0.950 . S
H367 C345 0.950 . S
C368 C369 1.349 . S
C368 C370 1.327 . S
C368 H393 0.950 . S
C369 C368 1.349 . S
C369 C385 1.349 . S
C370 C368 1.327 . S
C370 C389 1.429 . S
C370 H394 0.950 . S
C371 C388 1.574 . S
C371 C390 1.368 . S
C371 H395 0.949 . S
H372 C376 0.949 . S
C373 C374 1.349 . S
C373 C375 1.327 . S
C373 H396 0.950 . S
C374 C373 1.349 . S
C374 C386 1.349 . S
C375 C373 1.327 . S
C375 C391 1.429 . S
C375 H397 0.950 . S
C376 H372 0.949 . S
C376 C384 1.574 . S
C376 C392 1.368 . S
H377 C385 0.950 . S
H378 C383 0.950 . S
H379 C384 0.949 . S
H380 C386 0.950 . S
H381 C387 0.950 . S
H382 C388 0.949 . S
C383 H378 0.950 . S
C383 C385 1.327 . S
C383 C389 1.429 . S
C384 C376 1.574 . S
C384 H379 0.949 . S
C384 C390 1.368 . S
C385 C369 1.349 . S
C385 H377 0.950 . S
C385 C383 1.327 . S
C386 C374 1.349 . S
C386 H380 0.950 . S
C386 C387 1.327 . S
C387 H381 0.950 . S
C387 C386 1.327 . S
C387 C391 1.429 . S
C388 C371 1.574 . S
C388 H382 0.949 . S
C388 C392 1.368 . S
C389 C370 1.429 . S
C389 C383 1.429 . S
C389 C390 1.523 . S
C390 C371 1.368 . S
C390 C384 1.368 . S
C390 C389 1.523 . S
C391 C375 1.429 . S
C391 C387 1.429 . S
C391 C392 1.523 1_655 S
C392 C376 1.368 . S
C392 C388 1.368 . S
C392 C391 1.523 1_455 S
H393 C368 0.950 . S
H394 C370 0.950 . S
H395 C371 0.949 . S
H396 C373 0.950 . S
H397 C375 0.950 . S
C398 C399 1.349 . S
C398 C400 1.327 . S
C398 H423 0.950 . S
C399 C398 1.349 . S
C399 C415 1.349 . S
C400 C398 1.327 . S
C400 C419 1.429 . S
C400 H424 0.950 . S
C401 C418 1.574 . S
C401 C420 1.368 . S
C401 H425 0.949 . S
H402 C406 0.949 . S
C403 C404 1.349 . S
C403 C405 1.327 . S
C403 H426 0.950 . S
C404 C403 1.349 . S
C404 C416 1.349 . S
C405 C403 1.327 . S
C405 C421 1.429 . S
C405 H427 0.950 . S
C406 H402 0.949 . S
C406 C414 1.574 . S
C406 C422 1.368 . S
H407 C415 0.950 . S
H408 C413 0.950 . S
H409 C414 0.949 . S
H410 C416 0.950 . S
H411 C417 0.950 . S
H412 C418 0.949 . S
C413 H408 0.950 . S
C413 C415 1.327 . S
C413 C419 1.429 . S
C414 C406 1.574 . S
C414 H409 0.949 . S
C414 C420 1.368 . S
C415 C399 1.349 . S
C415 H407 0.950 . S
C415 C413 1.327 . S
C416 C404 1.349 . S
C416 H410 0.950 . S
C416 C417 1.327 . S
C417 H411 0.950 . S
C417 C416 1.327 . S
C417 C421 1.429 . S
C418 C401 1.574 . S
C418 H412 0.949 . S
C418 C422 1.368 . S
C419 C400 1.429 . S
C419 C413 1.429 . S
C419 C420 1.523 . S
C420 C401 1.368 . S
C420 C414 1.368 . S
C420 C419 1.523 . S
C421 C405 1.429 . S
C421 C417 1.429 . S
C421 C422 1.523 . S
C422 C406 1.368 . S
C422 C418 1.368 . S
C422 C421 1.523 . S
H423 C398 0.950 . S
H424 C400 0.950 . S
H425 C401 0.949 . S
H426 C403 0.950 . S
H427 C405 0.950 . S
C428 C429 1.349 . S
C428 C430 1.327 . S
C428 H453 0.950 . S
C429 C428 1.349 . S
C429 C445 1.349 . S
C430 C428 1.327 . S
C430 C449 1.429 . S
C430 H454 0.950 . S
C431 C448 1.574 . S
C431 C450 1.368 . S
C431 H455 0.949 . S
H432 C436 0.949 . S
C433 C434 1.349 . S
C433 C435 1.327 . S
C433 H456 0.950 . S
C434 C433 1.349 . S
C434 C446 1.349 . S
C435 C433 1.327 . S
C435 C451 1.429 . S
C435 H457 0.950 . S
C436 H432 0.949 . S
C436 C444 1.574 . S
C436 C452 1.368 . S
H437 C445 0.950 . S
H438 C443 0.950 . S
H439 C444 0.949 . S
H440 C446 0.950 . S
H441 C447 0.950 . S
H442 C448 0.949 . S
C443 H438 0.950 . S
C443 C445 1.327 . S
C443 C449 1.429 . S
C444 C436 1.574 . S
C444 H439 0.949 . S
C444 C450 1.368 . S
C445 C429 1.349 . S
C445 H437 0.950 . S
C445 C443 1.327 . S
C446 C434 1.349 . S
C446 H440 0.950 . S
C446 C447 1.327 . S
C447 H441 0.950 . S
C447 C446 1.327 . S
C447 C451 1.429 . S
C448 C431 1.574 . S
C448 H442 0.949 . S
C448 C452 1.368 . S
C449 C430 1.429 . S
C449 C443 1.429 . S
C449 C450 1.523 . S
C450 C431 1.368 . S
C450 C444 1.368 . S
C450 C449 1.523 . S
C451 C435 1.429 . S
C451 C447 1.429 . S
C451 C452 1.523 . S
C452 C436 1.368 . S
C452 C448 1.368 . S
C452 C451 1.523 . S
H453 C428 0.950 . S
H454 C430 0.950 . S
H455 C431 0.949 . S
H456 C433 0.950 . S
H457 C435 0.950 . S
C458 C459 1.349 . S
C458 C460 1.327 . S
C458 H483 0.950 . S
C459 C458 1.349 . S
C459 C475 1.349 . S
C460 C458 1.327 . S
C460 C479 1.429 . S
C460 H484 0.950 . S
C461 C478 1.574 . S
C461 C480 1.368 . S
C461 H485 0.949 . S
H462 C466 0.949 . S
C463 C464 1.349 . S
C463 C465 1.327 . S
C463 H486 0.950 . S
C464 C463 1.349 . S
C464 C476 1.349 . S
C465 C463 1.327 . S
C465 C481 1.429 . S
C465 H487 0.950 . S
C466 H462 0.949 . S
C466 C474 1.574 . S
C466 C482 1.368 . S
H467 C475 0.950 . S
H468 C473 0.950 . S
H469 C474 0.949 . S
H470 C476 0.950 . S
H471 C477 0.950 . S
H472 C478 0.949 . S
C473 H468 0.950 . S
C473 C475 1.327 . S
C473 C479 1.429 . S
C474 C466 1.574 . S
C474 H469 0.949 . S
C474 C480 1.368 . S
C475 C459 1.349 . S
C475 H467 0.950 . S
C475 C473 1.327 . S
C476 C464 1.349 . S
C476 H470 0.950 . S
C476 C477 1.327 . S
C477 H471 0.950 . S
C477 C476 1.327 . S
C477 C481 1.429 . S
C478 C461 1.574 . S
C478 H472 0.949 . S
C478 C482 1.368 . S
C479 C460 1.429 . S
C479 C473 1.429 . S
C479 C480 1.523 1_455 S
C480 C461 1.368 . S
C480 C474 1.368 . S
C480 C479 1.523 1_655 S
C481 C465 1.429 . S
C481 C477 1.429 . S
C481 C482 1.523 . S
C482 C466 1.368 . S
C482 C478 1.368 . S
C482 C481 1.523 . S
H483 C458 0.950 . S
H484 C460 0.950 . S
H485 C461 0.949 . S
H486 C463 0.950 . S
H487 C465 0.950 . S
C488 C489 1.349 . S
C488 C490 1.327 . S
C488 H513 0.950 . S
C489 C488 1.349 . S
C489 C505 1.349 . S
C490 C488 1.327 . S
C490 C509 1.429 . S
C490 H514 0.950 . S
C491 C508 1.574 . S
C491 C510 1.368 . S
C491 H515 0.949 . S
H492 C496 0.949 . S
C493 C494 1.349 . S
C493 C495 1.327 . S
C493 H516 0.950 . S
C494 C493 1.349 . S
C494 C506 1.349 . S
C495 C493 1.327 . S
C495 C511 1.429 . S
C495 H517 0.950 . S
C496 H492 0.949 . S
C496 C504 1.574 . S
C496 C512 1.368 . S
H497 C505 0.950 . S
H498 C503 0.950 . S
H499 C504 0.949 . S
H500 C506 0.950 . S
H501 C507 0.950 . S
H502 C508 0.949 . S
C503 H498 0.950 . S
C503 C505 1.327 . S
C503 C509 1.429 . S
C504 C496 1.574 . S
C504 H499 0.949 . S
C504 C510 1.368 . S
C505 C489 1.349 . S
C505 H497 0.950 . S
C505 C503 1.327 . S
C506 C494 1.349 . S
C506 H500 0.950 . S
C506 C507 1.327 . S
C507 H501 0.950 . S
C507 C506 1.327 . S
C507 C511 1.429 . S
C508 C491 1.574 . S
C508 H502 0.949 . S
C508 C512 1.368 . S
C509 C490 1.429 . S
C509 C503 1.429 . S
C509 C510 1.523 . S
C510 C491 1.368 . S
C510 C504 1.368 . S
C510 C509 1.523 . S
C511 C495 1.429 . S
C511 C507 1.429 . S
C511 C512 1.523 . S
C512 C496 1.368 . S
C512 C508 1.368 . S
C512 C511 1.523 . S
H513 C488 0.950 . S
H514 C490 0.950 . S
H515 C491 0.949 . S
H516 C493 0.950 . S
H517 C495 0.950 . S
C518 C519 1.349 . S
C518 C520 1.327 . S
C518 H543 0.950 . S
C519 C518 1.349 . S
C519 C535 1.349 . S
C520 C518 1.327 . S
C520 C539 1.429 . S
C520 H544 0.950 . S
C521 C538 1.574 . S
C521 C540 1.368 1_655 S
C521 H545 0.949 . S
H522 C526 0.949 . S
C523 C524 1.349 . S
C523 C525 1.327 . S
C523 H546 0.950 . S
C524 C523 1.349 . S
C524 C536 1.349 . S
C525 C523 1.327 . S
C525 C541 1.429 . S
C525 H547 0.950 . S
C526 H522 0.949 . S
C526 C534 1.574 . S
C526 C542 1.368 1_455 S
H527 C535 0.950 1_655 S
H528 C533 0.950 . S
H529 C534 0.949 . S
H530 C536 0.950 1_455 S
H531 C537 0.947 1_455 S
H532 C538 0.949 . S
C533 H528 0.950 . S
C533 C535 1.327 1_655 S
C533 C539 1.429 1_655 S
C534 C526 1.574 . S
C534 H529 0.949 . S
C534 C540 1.368 . S
C535 C519 1.349 . S
C535 H527 0.950 1_455 S
C535 C533 1.327 1_455 S
C536 C524 1.349 . S
C536 H530 0.950 1_655 S
C536 C537 1.328 . S
C537 H531 0.947 1_655 S
C537 C536 1.328 . S
C537 C541 1.430 . S
C538 C521 1.574 . S
C538 H532 0.949 . S
C538 C542 1.368 . S
C539 C520 1.429 . S
C539 C533 1.429 1_455 S
C539 C540 1.523 . S
C540 C521 1.368 1_455 S
C540 C534 1.368 . S
C540 C539 1.523 . S
C541 C525 1.429 . S
C541 C537 1.430 . S
C541 C542 1.523 . S
C542 C526 1.368 1_655 S
C542 C538 1.368 . S
C542 C541 1.523 . S
H543 C518 0.950 . S
H544 C520 0.950 . S
H545 C521 0.949 . S
H546 C523 0.950 . S
H547 C525 0.950 . S
C548 C549 1.349 . S
C548 C550 1.327 . S
C548 H573 0.950 . S
C549 C548 1.349 . S
C549 C565 1.349 . S
C550 C548 1.327 . S
C550 C569 1.429 . S
C550 H574 0.950 . S
C551 C568 1.574 . S
C551 C570 1.368 . S
C551 H575 0.949 . S
H552 C556 0.949 . S
C553 C554 1.349 . S
C553 C555 1.327 . S
C553 H576 0.950 . S
C554 C553 1.349 . S
C554 C566 1.349 . S
C555 C553 1.327 . S
C555 C571 1.429 . S
C555 H577 0.950 . S
C556 H552 0.949 . S
C556 C564 1.574 . S
C556 C572 1.368 . S
H557 C565 0.950 . S
H558 C563 0.950 . S
H559 C564 0.949 . S
H560 C566 0.950 . S
H561 C567 0.950 . S
H562 C568 0.949 . S
C563 H558 0.950 . S
C563 C565 1.327 . S
C563 C569 1.429 . S
C564 C556 1.574 . S
C564 H559 0.949 . S
C564 C570 1.368 . S
C565 C549 1.349 . S
C565 H557 0.950 . S
C565 C563 1.327 . S
C566 C554 1.349 . S
C566 H560 0.950 . S
C566 C567 1.327 . S
C567 H561 0.950 . S
C567 C566 1.327 . S
C567 C571 1.429 . S
C568 C551 1.574 . S
C568 H562 0.949 . S
C568 C572 1.368 . S
C569 C550 1.429 . S
C569 C563 1.429 . S
C569 C570 1.523 . S
C570 C551 1.368 . S
C570 C564 1.368 . S
C570 C569 1.523 . S
C571 C555 1.429 . S
C571 C567 1.429 . S
C571 C572 1.523 . S
C572 C556 1.368 . S
C572 C568 1.368 . S
C572 C571 1.523 . S
H573 C548 0.950 . S
H574 C550 0.950 . S
H575 C551 0.949 . S
H576 C553 0.950 . S
H577 C555 0.950 . S
C578 C579 1.349 . S
C578 C580 1.327 . S
C578 H603 0.950 . S
C579 C578 1.349 . S
C579 C595 1.349 . S
C580 C578 1.327 . S
C580 C599 1.429 . S
C580 H604 0.950 . S
C581 C598 1.574 . S
C581 C600 1.368 1_455 S
C581 H605 0.949 . S
H582 C586 0.949 . S
C583 C584 1.349 . S
C583 C585 1.327 . S
C583 H606 0.950 . S
C584 C583 1.349 . S
C584 C596 1.349 . S
C585 C583 1.327 . S
C585 C601 1.429 . S
C585 H607 0.950 . S
C586 H582 0.949 . S
C586 C594 1.574 . S
C586 C602 1.368 1_655 S
H587 C595 0.950 1_455 S
H588 C593 0.950 . S
H589 C594 0.949 . S
H590 C596 0.950 1_655 S
H591 C597 0.950 . S
H592 C598 0.949 . S
C593 H588 0.950 . S
C593 C595 1.327 1_455 S
C593 C599 1.429 1_455 S
C594 C586 1.574 . S
C594 H589 0.949 . S
C594 C600 1.368 . S
C595 C579 1.349 . S
C595 H587 0.950 1_655 S
C595 C593 1.327 1_655 S
C596 C584 1.349 . S
C596 H590 0.950 1_455 S
C596 C597 1.327 1_455 S
C597 H591 0.950 . S
C597 C596 1.327 1_655 S
C597 C601 1.429 1_655 S
C598 C581 1.574 . S
C598 H592 0.949 . S
C598 C602 1.368 . S
C599 C580 1.429 . S
C599 C593 1.429 1_655 S
C599 C600 1.523 . S
C600 C581 1.368 1_655 S
C600 C594 1.368 . S
C600 C599 1.523 . S
C601 C585 1.429 . S
C601 C597 1.429 1_455 S
C601 C602 1.523 . S
C602 C586 1.368 1_455 S
C602 C598 1.368 . S
C602 C601 1.523 . S
H603 C578 0.950 . S
H604 C580 0.950 . S
H605 C581 0.949 . S
H606 C583 0.950 . S
H607 C585 0.950 . S
C608 C609 1.349 . S
C608 C610 1.327 . S
C608 H633 0.950 . S
C609 C608 1.349 . S
C609 C625 1.349 . S
C610 C608 1.327 . S
C610 C629 1.429 . S
C610 H634 0.950 . S
C611 C628 1.574 . S
C611 C630 1.368 . S
C611 H635 0.949 . S
H612 C616 0.949 . S
C613 C614 1.349 . S
C613 C615 1.327 . S
C613 H636 0.950 . S
C614 C613 1.349 . S
C614 C626 1.349 . S
C615 C613 1.327 . S
C615 C631 1.429 . S
C615 H637 0.950 . S
C616 H612 0.949 . S
C616 C624 1.574 . S
C616 C632 1.368 . S
H617 C625 0.950 . S
H618 C623 0.950 . S
H619 C624 0.949 . S
H620 C626 0.950 . S
H621 C627 0.950 . S
H622 C628 0.949 . S
C623 H618 0.950 . S
C623 C625 1.327 . S
C623 C629 1.429 . S
C624 C616 1.574 . S
C624 H619 0.949 . S
C624 C630 1.368 . S
C625 C609 1.349 . S
C625 H617 0.950 . S
C625 C623 1.327 . S
C626 C614 1.349 . S
C626 H620 0.950 . S
C626 C627 1.327 . S
C627 H621 0.950 . S
C627 C626 1.327 . S
C627 C631 1.429 . S
C628 C611 1.574 . S
C628 H622 0.949 . S
C628 C632 1.368 . S
C629 C610 1.429 . S
C629 C623 1.429 . S
C629 C630 1.523 . S
C630 C611 1.368 . S
C630 C624 1.368 . S
C630 C629 1.523 . S
C631 C615 1.429 . S
C631 C627 1.429 . S
C631 C632 1.523 . S
C632 C616 1.368 . S
C632 C628 1.368 . S
C632 C631 1.523 . S
H633 C608 0.950 . S
H634 C610 0.950 . S
H635 C611 0.949 . S
H636 C613 0.950 . S
H637 C615 0.950 . S
C638 C639 1.349 . S
C638 C640 1.327 . S
C638 H663 0.950 . S
C639 C638 1.349 . S
C639 C655 1.349 . S
C640 C638 1.327 . S
C640 C659 1.429 . S
C640 H664 0.950 . S
C641 C658 1.574 . S
C641 C660 1.368 1_556 S
C641 H665 0.949 . S
H642 C646 0.949 . S
C643 C644 1.349 . S
C643 C645 1.327 . S
C643 H666 0.950 . S
C644 C643 1.349 . S
C644 C656 1.349 1_655 S
C645 C643 1.327 . S
C645 C661 1.429 . S
C645 H667 0.950 . S
C646 H642 0.949 . S
C646 C654 1.574 1_556 S
C646 C662 1.368 . S
H647 C655 0.950 . S
H648 C653 0.950 . S
H649 C654 0.949 . S
H650 C656 0.950 . S
H651 C657 0.950 . S
H652 C658 0.949 . S
C653 H648 0.950 . S
C653 C655 1.327 . S
C653 C659 1.429 . S
C654 C646 1.574 1_554 S
C654 H649 0.949 . S
C654 C660 1.368 . S
C655 C639 1.349 . S
C655 H647 0.950 . S
C655 C653 1.327 . S
C656 C644 1.349 1_455 S
C656 H650 0.950 . S
C656 C657 1.327 1_455 S
C657 H651 0.950 . S
C657 C656 1.327 1_655 S
C657 C661 1.429 . S
C658 C641 1.574 . S
C658 H652 0.949 . S
C658 C662 1.368 . S
C659 C640 1.429 . S
C659 C653 1.429 . S
C659 C660 1.523 . S
C660 C641 1.368 1_554 S
C660 C654 1.368 . S
C660 C659 1.523 . S
C661 C645 1.429 . S
C661 C657 1.429 . S
C661 C662 1.523 . S
C662 C646 1.368 . S
C662 C658 1.368 . S
C662 C661 1.523 . S
H663 C638 0.950 . S
H664 C640 0.950 . S
H665 C641 0.949 . S
H666 C643 0.950 . S
H667 C645 0.950 . S
C668 C669 1.344 1_455 S
C668 C670 1.327 . S
C668 H693 0.950 . S
C669 C668 1.344 1_655 S
C669 C685 1.350 . S
C670 C668 1.327 . S
C670 C689 1.429 . S
C670 H694 0.950 . S
C671 C688 1.574 . S
C671 C690 1.368 . S
C671 H695 0.949 . S
H672 C676 0.949 . S
C673 C674 1.349 . S
C673 C675 1.327 . S
C673 H696 0.950 . S
C674 C673 1.349 . S
C674 C686 1.349 . S
C675 C673 1.327 . S
C675 C691 1.429 . S
C675 H697 0.950 . S
C676 H672 0.949 . S
C676 C684 1.574 . S
C676 C692 1.368 . S
H677 C685 0.950 . S
H678 C683 0.950 . S
H679 C684 0.949 . S
H680 C686 0.950 . S
H681 C687 0.950 . S
H682 C688 0.949 . S
C683 H678 0.950 . S
C683 C685 1.327 1_455 S
C683 C689 1.429 . S
C684 C676 1.574 . S
C684 H679 0.949 . S
C684 C690 1.368 . S
C685 C669 1.350 . S
C685 H677 0.950 . S
C685 C683 1.327 1_655 S
C686 C674 1.349 . S
C686 H680 0.950 . S
C686 C687 1.327 . S
C687 H681 0.950 . S
C687 C686 1.327 . S
C687 C691 1.429 . S
C688 C671 1.574 . S
C688 H682 0.949 . S
C688 C692 1.368 . S
C689 C670 1.429 . S
C689 C683 1.429 . S
C689 C690 1.523 . S
C690 C671 1.368 . S
C690 C684 1.368 . S
C690 C689 1.523 . S
C691 C675 1.429 . S
C691 C687 1.429 . S
C691 C692 1.523 . S
C692 C676 1.368 . S
C692 C688 1.368 . S
C692 C691 1.523 . S
H693 C668 0.950 . S
H694 C670 0.950 . S
H695 C671 0.949 . S
H696 C673 0.950 . S
H697 C675 0.950 . S
C698 C699 1.349 . S
C698 C700 1.327 . S
C698 H723 0.950 . S
C699 C698 1.349 . S
C699 C715 1.349 . S
C700 C698 1.327 . S
C700 C719 1.429 . S
C700 H724 0.950 . S
C701 C718 1.574 . S
C701 C720 1.368 . S
C701 H725 0.949 . S
H702 C706 0.949 . S
C703 C704 1.349 . S
C703 C705 1.327 . S
C703 H726 0.950 . S
C704 C703 1.349 . S
C704 C716 1.349 . S
C705 C703 1.327 . S
C705 C721 1.429 . S
C705 H727 0.950 . S
C706 H702 0.949 . S
C706 C714 1.579 . S
C706 C722 1.368 . S
H707 C715 0.950 . S
H708 C713 0.950 . S
H709 C714 0.951 . S
H710 C716 0.950 . S
H711 C717 0.950 . S
H712 C718 0.949 . S
C713 H708 0.950 . S
C713 C715 1.327 . S
C713 C719 1.429 . S
C714 C706 1.579 . S
C714 H709 0.951 . S
C714 C720 1.362 1_556 S
C715 C699 1.349 . S
C715 H707 0.950 . S
C715 C713 1.327 . S
C716 C704 1.349 . S
C716 H710 0.950 . S
C716 C717 1.327 . S
C717 H711 0.950 . S
C717 C716 1.327 . S
C717 C721 1.429 . S
C718 C701 1.574 . S
C718 H712 0.949 . S
C718 C722 1.368 1_554 S
C719 C700 1.429 . S
C719 C713 1.429 . S
C719 C720 1.523 . S
C720 C701 1.368 . S
C720 C714 1.362 1_554 S
C720 C719 1.523 . S
C721 C705 1.429 . S
C721 C717 1.429 . S
C721 C722 1.523 . S
C722 C706 1.368 . S
C722 C718 1.368 1_556 S
C722 C721 1.523 . S
H723 C698 0.950 . S
H724 C700 0.950 . S
H725 C701 0.949 . S
H726 C703 0.950 . S
H727 C705 0.950 . S
C728 C729 1.349 . S
C728 C730 1.327 . S
C728 H753 0.950 . S
C729 C728 1.349 . S
C729 C745 1.349 . S
C730 C728 1.327 . S
C730 C749 1.429 . S
C730 H754 0.950 . S
C731 C748 1.574 . S
C731 C750 1.368 . S
C731 H755 0.949 . S
H732 C736 0.949 . S
C733 C734 1.349 . S
C733 C735 1.327 . S
C733 H756 0.950 . S
C734 C733 1.349 . S
C734 C746 1.349 . S
C735 C733 1.327 . S
C735 C751 1.429 . S
C735 H757 0.950 . S
C736 H732 0.949 . S
C736 C744 1.574 . S
C736 C752 1.368 . S
H737 C745 0.950 . S
H738 C743 0.950 . S
H739 C744 0.949 . S
H740 C746 0.950 . S
H741 C747 0.950 . S
H742 C748 0.949 . S
C743 H738 0.950 . S
C743 C745 1.327 . S
C743 C749 1.429 . S
C744 C736 1.574 . S
C744 H739 0.949 . S
C744 C750 1.368 . S
C745 C729 1.349 . S
C745 H737 0.950 . S
C745 C743 1.327 . S
C746 C734 1.349 . S
C746 H740 0.950 . S
C746 C747 1.327 . S
C747 H741 0.950 . S
C747 C746 1.327 . S
C747 C751 1.429 . S
C748 C731 1.574 . S
C748 H742 0.949 . S
C748 C752 1.368 . S
C749 C730 1.429 . S
C749 C743 1.429 . S
C749 C750 1.523 . S
C750 C731 1.368 . S
C750 C744 1.368 . S
C750 C749 1.523 . S
C751 C735 1.429 . S
C751 C747 1.429 . S
C751 C752 1.523 . S
C752 C736 1.368 . S
C752 C748 1.368 . S
C752 C751 1.523 . S
H753 C728 0.950 . S
H754 C730 0.950 . S
H755 C731 0.949 . S
H756 C733 0.950 . S
H757 C735 0.950 . S
C758 C759 1.349 1_655 S
C758 C760 1.327 1_655 S
C758 H783 0.950 . S
C759 C758 1.349 1_455 S
C759 C775 1.349 . S
C760 C758 1.327 1_455 S
C760 C779 1.429 . S
C760 H784 0.950 . S
C761 C778 1.574 . S
C761 C780 1.368 . S
C761 H785 0.949 . S
H762 C766 0.949 . S
C763 C764 1.349 . S
C763 C765 1.327 . S
C763 H786 0.950 . S
C764 C763 1.349 . S
C764 C776 1.349 . S
C765 C763 1.327 . S
C765 C781 1.429 . S
C765 H787 0.950 . S
C766 H762 0.949 . S
C766 C774 1.574 1_556 S
C766 C782 1.368 . S
H767 C775 0.950 . S
H768 C773 0.950 . S
H769 C774 0.949 . S
H770 C776 0.950 . S
H771 C777 0.950 . S
H772 C778 0.949 . S
C773 H768 0.950 . S
C773 C775 1.327 . S
C773 C779 1.429 . S
C774 C766 1.574 1_554 S
C774 H769 0.949 . S
C774 C780 1.368 . S
C775 C759 1.349 . S
C775 H767 0.950 . S
C775 C773 1.327 . S
C776 C764 1.349 . S
C776 H770 0.950 . S
C776 C777 1.327 . S
C777 H771 0.950 . S
C777 C776 1.327 . S
C777 C781 1.429 . S
C778 C761 1.574 . S
C778 H772 0.949 . S
C778 C782 1.368 1_554 S
C779 C760 1.429 . S
C779 C773 1.429 . S
C779 C780 1.523 . S
C780 C761 1.368 . S
C780 C774 1.368 . S
C780 C779 1.523 . S
C781 C765 1.429 . S
C781 C777 1.429 . S
C781 C782 1.523 . S
C782 C766 1.368 . S
C782 C778 1.368 1_556 S
C782 C781 1.523 . S
H783 C758 0.950 . S
H784 C760 0.950 . S
H785 C761 0.949 . S
H786 C763 0.950 . S
H787 C765 0.950 . S
C788 C789 1.349 . S
C788 C790 1.327 . S
C788 H813 0.950 . S
C789 C788 1.349 . S
C789 C805 1.349 . S
C790 C788 1.327 . S
C790 C809 1.429 . S
C790 H814 0.950 . S
C791 C808 1.574 . S
C791 C810 1.368 . S
C791 H815 0.949 . S
H792 C796 0.949 . S
C793 C794 1.349 . S
C793 C795 1.327 . S
C793 H816 0.950 . S
C794 C793 1.349 . S
C794 C806 1.349 . S
C795 C793 1.327 . S
C795 C811 1.429 . S
C795 H817 0.950 . S
C796 H792 0.949 . S
C796 C804 1.574 . S
C796 C812 1.368 . S
H797 C805 0.950 . S
H798 C803 0.950 . S
H799 C804 0.949 . S
H800 C806 0.950 . S
H801 C807 0.950 . S
H802 C808 0.949 . S
C803 H798 0.950 . S
C803 C805 1.327 . S
C803 C809 1.429 . S
C804 C796 1.574 . S
C804 H799 0.949 . S
C804 C810 1.368 . S
C805 C789 1.349 . S
C805 H797 0.950 . S
C805 C803 1.327 . S
C806 C794 1.349 . S
C806 H800 0.950 . S
C806 C807 1.327 . S
C807 H801 0.950 . S
C807 C806 1.327 . S
C807 C811 1.429 . S
C808 C791 1.574 . S
C808 H802 0.949 . S
C808 C812 1.368 . S
C809 C790 1.429 . S
C809 C803 1.429 . S
C809 C810 1.523 . S
C810 C791 1.368 . S
C810 C804 1.368 . S
C810 C809 1.523 . S
C811 C795 1.429 . S
C811 C807 1.429 . S
C811 C812 1.523 . S
C812 C796 1.368 . S
C812 C808 1.368 . S
C812 C811 1.523 . S
H813 C788 0.950 . S
H814 C790 0.950 . S
H815 C791 0.949 . S
H816 C793 0.950 . S
H817 C795 0.950 . S
C818 C819 1.349 . S
C818 C820 1.327 . S
C818 H843 0.950 . S
C819 C818 1.349 . S
C819 C835 1.349 . S
C820 C818 1.327 . S
C820 C839 1.429 . S
C820 H844 0.950 . S
C821 C838 1.549 1_556 S
C821 C840 1.368 . S
C821 H845 0.949 . S
H822 C826 0.949 . S
C823 C824 1.349 . S
C823 C825 1.327 . S
C823 H846 0.950 . S
C824 C823 1.349 . S
C824 C836 1.349 . S
C825 C823 1.327 . S
C825 C841 1.429 . S
C825 H847 0.950 . S
C826 H822 0.949 . S
C826 C834 1.574 1_554 S
C826 C842 1.368 . S
H827 C835 0.950 . S
H828 C833 0.950 . S
H829 C834 0.949 . S
H830 C836 0.950 . S
H831 C837 0.950 . S
H832 C838 0.960 . S
C833 H828 0.950 . S
C833 C835 1.327 . S
C833 C839 1.429 . S
C834 C826 1.574 1_556 S
C834 H829 0.949 . S
C834 C840 1.368 . S
C835 C819 1.349 . S
C835 H827 0.950 . S
C835 C833 1.327 . S
C836 C824 1.349 . S
C836 H830 0.950 . S
C836 C837 1.327 . S
C837 H831 0.950 . S
C837 C836 1.327 . S
C837 C841 1.429 . S
C838 C821 1.549 1_554 S
C838 H832 0.960 . S
C838 C842 1.382 . S
C839 C820 1.429 . S
C839 C833 1.429 . S
C839 C840 1.523 . S
C840 C821 1.368 . S
C840 C834 1.368 . S
C840 C839 1.523 . S
C841 C825 1.429 . S
C841 C837 1.429 . S
C841 C842 1.523 . S
C842 C826 1.368 . S
C842 C838 1.382 . S
C842 C841 1.523 . S
H843 C818 0.950 . S
H844 C820 0.950 . S
H845 C821 0.949 . S
H846 C823 0.950 . S
H847 C825 0.950 . S
C848 C849 1.349 1_545 S
C848 C850 1.327 . S
C848 H873 0.950 . S
C849 C848 1.349 1_565 S
C849 C865 1.349 1_565 S
C850 C848 1.327 . S
C850 C869 1.429 . S
C850 H874 0.950 . S
C851 C868 1.574 . S
C851 C870 1.368 . S
C851 H875 0.949 . S
H852 C856 0.949 . S
C853 C854 1.349 . S
C853 C855 1.327 . S
C853 H876 0.950 . S
C854 C853 1.349 . S
C854 C866 1.349 . S
C855 C853 1.327 . S
C855 C871 1.429 . S
C855 H877 0.950 . S
C856 H852 0.949 . S
C856 C864 1.574 . S
C856 C872 1.368 . S
H857 C865 0.950 1_565 S
H858 C863 0.950 . S
H859 C864 0.949 . S
H860 C866 0.950 . S
H861 C867 0.950 . S
H862 C868 0.949 . S
C863 H858 0.950 . S
C863 C865 1.327 . S
C863 C869 1.429 . S
C864 C856 1.574 . S
C864 H859 0.949 . S
C864 C870 1.368 . S
C865 C849 1.349 1_545 S
C865 H857 0.950 1_545 S
C865 C863 1.327 . S
C866 C854 1.349 . S
C866 H860 0.950 . S
C866 C867 1.327 . S
C867 H861 0.950 . S
C867 C866 1.327 . S
C867 C871 1.429 . S
C868 C851 1.574 . S
C868 H862 0.949 . S
C868 C872 1.368 . S
C869 C850 1.429 . S
C869 C863 1.429 . S
C869 C870 1.523 . S
C870 C851 1.368 . S
C870 C864 1.368 . S
C870 C869 1.523 . S
C871 C855 1.429 . S
C871 C867 1.429 . S
C871 C872 1.523 . S
C872 C856 1.368 . S
C872 C868 1.368 . S
C872 C871 1.523 . S
H873 C848 0.950 . S
H874 C850 0.950 . S
H875 C851 0.949 . S
H876 C853 0.950 . S
H877 C855 0.950 . S
C878 C879 1.349 . S
C878 C880 1.327 . S
C878 H903 0.950 . S
C879 C878 1.349 . S
C879 C895 1.349 . S
C880 C878 1.327 . S
C880 C899 1.429 . S
C880 H904 0.950 . S
C881 C898 1.574 . S
C881 C900 1.368 . S
C881 H905 0.949 . S
H882 C886 0.949 . S
C883 C884 1.349 . S
C883 C885 1.327 . S
C883 H906 0.950 . S
C884 C883 1.349 . S
C884 C896 1.349 . S
C885 C883 1.327 . S
C885 C901 1.429 . S
C885 H907 0.950 . S
C886 H882 0.949 . S
C886 C894 1.574 . S
C886 C902 1.368 . S
H887 C895 0.950 . S
H888 C893 0.950 . S
H889 C894 0.949 . S
H890 C896 0.950 . S
H891 C897 0.950 . S
H892 C898 0.949 . S
C893 H888 0.950 . S
C893 C895 1.327 . S
C893 C899 1.429 . S
C894 C886 1.574 . S
C894 H889 0.949 . S
C894 C900 1.368 . S
C895 C879 1.349 . S
C895 H887 0.950 . S
C895 C893 1.327 . S
C896 C884 1.349 . S
C896 H890 0.950 . S
C896 C897 1.327 . S
C897 H891 0.950 . S
C897 C896 1.327 . S
C897 C901 1.429 . S
C898 C881 1.574 . S
C898 H892 0.949 . S
C898 C902 1.368 . S
C899 C880 1.429 . S
C899 C893 1.429 . S
C899 C900 1.523 . S
C900 C881 1.368 . S
C900 C894 1.368 . S
C900 C899 1.523 . S
C901 C885 1.429 . S
C901 C897 1.429 . S
C901 C902 1.523 . S
C902 C886 1.368 . S
C902 C898 1.368 . S
C902 C901 1.523 . S
H903 C878 0.950 . S
H904 C880 0.950 . S
H905 C881 0.949 . S
H906 C883 0.950 . S
H907 C885 0.950 . S
C908 C909 1.349 . S
C908 C910 1.327 . S
C908 H933 0.950 . S
C909 C908 1.349 . S
C909 C925 1.349 . S
C910 C908 1.327 . S
C910 C929 1.429 . S
C910 H934 0.950 . S
C911 C928 1.574 . S
C911 C930 1.368 . S
C911 H935 0.949 . S
H912 C916 0.949 . S
C913 C914 1.349 . S
C913 C915 1.327 . S
C913 H936 0.950 . S
C914 C913 1.349 . S
C914 C926 1.349 . S
C915 C913 1.327 . S
C915 C931 1.429 . S
C915 H937 0.950 . S
C916 H912 0.949 . S
C916 C924 1.574 . S
C916 C932 1.368 . S
H917 C925 0.950 . S
H918 C923 0.950 . S
H919 C924 0.949 . S
H920 C926 0.950 . S
H921 C927 0.950 . S
H922 C928 0.949 . S
C923 H918 0.950 . S
C923 C925 1.327 . S
C923 C929 1.429 . S
C924 C916 1.574 . S
C924 H919 0.949 . S
C924 C930 1.368 . S
C925 C909 1.349 . S
C925 H917 0.950 . S
C925 C923 1.327 . S
C926 C914 1.349 . S
C926 H920 0.950 . S
C926 C927 1.327 . S
C927 H921 0.950 . S
C927 C926 1.327 . S
C927 C931 1.429 . S
C928 C911 1.574 . S
C928 H922 0.949 . S
C928 C932 1.368 . S
C929 C910 1.429 . S
C929 C923 1.429 . S
C929 C930 1.523 . S
C930 C911 1.368 . S
C930 C924 1.368 . S
C930 C929 1.523 . S
C931 C915 1.429 . S
C931 C927 1.429 . S
C931 C932 1.523 . S
C932 C916 1.368 . S
C932 C928 1.368 . S
C932 C931 1.523 . S
H933 C908 0.950 . S
H934 C910 0.950 . S
H935 C911 0.949 . S
H936 C913 0.950 . S
H937 C915 0.950 . S
C938 C939 1.349 1_545 S
C938 C940 1.327 . S
C938 H963 0.950 1_545 S
C939 C938 1.349 1_565 S
C939 C955 1.349 1_565 S
C940 C938 1.327 . S
C940 C959 1.429 . S
C940 H964 0.950 . S
C941 C958 1.574 . S
C941 C960 1.368 . S
C941 H965 0.949 . S
H942 C946 0.949 . S
C943 C944 1.349 . S
C943 C945 1.327 . S
C943 H966 0.950 . S
C944 C943 1.349 . S
C944 C956 1.349 . S
C945 C943 1.327 . S
C945 C961 1.429 . S
C945 H967 0.950 . S
C946 H942 0.949 . S
C946 C954 1.574 . S
C946 C962 1.368 . S
H947 C955 0.950 . S
H948 C953 0.950 . S
H949 C954 0.949 . S
H950 C956 0.950 . S
H951 C957 0.950 . S
H952 C958 0.949 . S
C953 H948 0.950 . S
C953 C955 1.327 . S
C953 C959 1.429 . S
C954 C946 1.574 . S
C954 H949 0.949 . S
C954 C960 1.368 . S
C955 C939 1.349 1_545 S
C955 H947 0.950 . S
C955 C953 1.327 . S
C956 C944 1.349 . S
C956 H950 0.950 . S
C956 C957 1.327 . S
C957 H951 0.950 . S
C957 C956 1.327 . S
C957 C961 1.429 . S
C958 C941 1.574 . S
C958 H952 0.949 . S
C958 C962 1.368 . S
C959 C940 1.429 . S
C959 C953 1.429 . S
C959 C960 1.523 . S
C960 C941 1.368 . S
C960 C954 1.368 . S
C960 C959 1.523 . S
C961 C945 1.429 . S
C961 C957 1.429 . S
C961 C962 1.523 . S
C962 C946 1.368 . S
C962 C958 1.368 . S
C962 C961 1.523 . S
H963 C938 0.950 1_565 S
H964 C940 0.950 . S
H965 C941 0.949 . S
H966 C943 0.950 . S
H967 C945 0.950 . S
C968 C969 1.349 . S
C968 C970 1.327 . S
C968 H993 0.950 . S
C969 C968 1.349 . S
C969 C985 1.349 . S
C970 C968 1.327 . S
C970 C989 1.429 . S
C970 H994 0.950 . S
C971 C988 1.574 . S
C971 C990 1.368 . S
C971 H995 0.949 . S
H972 C976 0.949 . S
C973 C974 1.349 1_565 S
C973 C975 1.327 . S
C973 H996 0.950 1_565 S
C974 C973 1.349 1_545 S
C974 C986 1.349 1_545 S
C975 C973 1.327 . S
C975 C991 1.429 . S
C975 H997 0.950 . S
C976 H972 0.949 . S
C976 C984 1.574 . S
C976 C992 1.368 . S
H977 C985 0.950 . S
H978 C983 0.950 . S
H979 C984 0.949 . S
H980 C986 0.950 1_545 S
H981 C987 0.950 . S
H982 C988 0.949 . S
C983 H978 0.950 . S
C983 C985 1.327 . S
C983 C989 1.429 . S
C984 C976 1.574 . S
C984 H979 0.949 . S
C984 C990 1.368 . S
C985 C969 1.349 . S
C985 H977 0.950 . S
C985 C983 1.327 . S
C986 C974 1.349 1_565 S
C986 H980 0.950 1_565 S
C986 C987 1.327 . S
C987 H981 0.950 . S
C987 C986 1.327 . S
C987 C991 1.429 . S
C988 C971 1.574 . S
C988 H982 0.949 . S
C988 C992 1.368 . S
C989 C970 1.429 . S
C989 C983 1.429 . S
C989 C990 1.523 . S
C990 C971 1.368 . S
C990 C984 1.368 . S
C990 C989 1.523 . S
C991 C975 1.429 . S
C991 C987 1.429 . S
C991 C992 1.523 . S
C992 C976 1.368 . S
C992 C988 1.368 . S
C992 C991 1.523 . S
H993 C968 0.950 . S
H994 C970 0.950 . S
H995 C971 0.949 . S
H996 C973 0.950 1_545 S
H997 C975 0.950 . S
C998 C999 1.349 . S
C998 C1000 1.327 . S
C998 H1023 0.950 . S
C999 C998 1.349 . S
C999 C1015 1.349 . S
C1000 C998 1.327 . S
C1000 C1019 1.429 . S
C1000 H1024 0.950 . S
C1001 C1018 1.574 . S
C1001 C1020 1.368 . S
C1001 H1025 0.949 . S
H1002 C1006 0.949 . S
C1003 C1004 1.349 . S
C1003 C1005 1.327 . S
C1003 H1026 0.950 . S
C1004 C1003 1.349 . S
C1004 C1016 1.349 . S
C1005 C1003 1.327 . S
C1005 C1021 1.429 . S
C1005 H1027 0.950 . S
C1006 H1002 0.949 . S
C1006 C1014 1.574 . S
C1006 C1022 1.368 . S
H1007 C1015 0.950 . S
H1008 C1013 0.950 . S
H1009 C1014 0.949 . S
H1010 C1016 0.950 . S
H1011 C1017 0.950 . S
H1012 C1018 0.949 . S
C1013 H1008 0.950 . S
C1013 C1015 1.327 . S
C1013 C1019 1.429 . S
C1014 C1006 1.574 . S
C1014 H1009 0.949 . S
C1014 C1020 1.368 . S
C1015 C999 1.349 . S
C1015 H1007 0.950 . S
C1015 C1013 1.327 . S
C1016 C1004 1.349 . S
C1016 H1010 0.950 . S
C1016 C1017 1.327 . S
C1017 H1011 0.950 . S
C1017 C1016 1.327 . S
C1017 C1021 1.429 . S
C1018 C1001 1.574 . S
C1018 H1012 0.949 . S
C1018 C1022 1.368 . S
C1019 C1000 1.429 . S
C1019 C1013 1.429 . S
C1019 C1020 1.523 . S
C1020 C1001 1.368 . S
C1020 C1014 1.368 . S
C1020 C1019 1.523 . S
C1021 C1005 1.429 . S
C1021 C1017 1.429 . S
C1021 C1022 1.523 . S
C1022 C1006 1.368 . S
C1022 C1018 1.368 . S
C1022 C1021 1.523 . S
H1023 C998 0.950 . S
H1024 C1000 0.950 . S
H1025 C1001 0.949 . S
H1026 C1003 0.950 . S
H1027 C1005 0.950 . S
C1028 C1029 1.349 . S
C1028 C1030 1.327 . S
C1028 H1053 0.950 . S
C1029 C1028 1.349 . S
C1029 C1045 1.349 . S
C1030 C1028 1.327 . S
C1030 C1049 1.429 . S
C1030 H1054 0.950 . S
C1031 C1048 1.574 . S
C1031 C1050 1.368 . S
C1031 H1055 0.949 . S
H1032 C1036 0.949 . S
C1033 C1034 1.349 . S
C1033 C1035 1.327 . S
C1033 H1056 0.950 . S
C1034 C1033 1.349 . S
C1034 C1046 1.349 . S
C1035 C1033 1.327 . S
C1035 C1051 1.429 . S
C1035 H1057 0.950 . S
C1036 H1032 0.949 . S
C1036 C1044 1.574 . S
C1036 C1052 1.368 . S
H1037 C1045 0.950 . S
H1038 C1043 0.950 . S
H1039 C1044 0.949 . S
H1040 C1046 0.950 . S
H1041 C1047 0.950 . S
H1042 C1048 0.949 . S
C1043 H1038 0.950 . S
C1043 C1045 1.327 . S
C1043 C1049 1.429 . S
C1044 C1036 1.574 . S
C1044 H1039 0.949 . S
C1044 C1050 1.368 . S
C1045 C1029 1.349 . S
C1045 H1037 0.950 . S
C1045 C1043 1.327 . S
C1046 C1034 1.349 . S
C1046 H1040 0.950 . S
C1046 C1047 1.327 . S
C1047 H1041 0.950 . S
C1047 C1046 1.327 . S
C1047 C1051 1.429 . S
C1048 C1031 1.574 . S
C1048 H1042 0.949 . S
C1048 C1052 1.368 . S
C1049 C1030 1.429 . S
C1049 C1043 1.429 . S
C1049 C1050 1.523 . S
C1050 C1031 1.368 . S
C1050 C1044 1.368 . S
C1050 C1049 1.523 . S
C1051 C1035 1.429 . S
C1051 C1047 1.429 . S
C1051 C1052 1.523 . S
C1052 C1036 1.368 . S
C1052 C1048 1.368 . S
C1052 C1051 1.523 . S
H1053 C1028 0.950 . S
H1054 C1030 0.950 . S
H1055 C1031 0.949 . S
H1056 C1033 0.950 . S
H1057 C1035 0.950 . S
C1058 C1059 1.349 . S
C1058 C1060 1.327 . S
C1058 H1083 0.950 . S
C1059 C1058 1.349 . S
C1059 C1075 1.349 . S
C1060 C1058 1.327 . S
C1060 C1079 1.429 . S
C1060 H1084 0.950 . S
C1061 C1078 1.574 . S
C1061 C1080 1.368 . S
C1061 H1085 0.949 . S
H1062 C1066 0.949 . S
C1063 C1064 1.349 1_565 S
C1063 C1065 1.327 . S
C1063 H1086 0.950 1_565 S
C1064 C1063 1.349 1_545 S
C1064 C1076 1.349 1_545 S
C1065 C1063 1.327 . S
C1065 C1081 1.429 . S
C1065 H1087 0.950 . S
C1066 H1062 0.949 . S
C1066 C1074 1.574 . S
C1066 C1082 1.368 . S
H1067 C1075 0.950 . S
H1068 C1073 0.950 . S
H1069 C1074 0.949 . S
H1070 C1076 0.950 . S
H1071 C1077 0.950 . S
H1072 C1078 0.949 . S
C1073 H1068 0.950 . S
C1073 C1075 1.327 . S
C1073 C1079 1.429 . S
C1074 C1066 1.574 . S
C1074 H1069 0.949 . S
C1074 C1080 1.368 . S
C1075 C1059 1.349 . S
C1075 H1067 0.950 . S
C1075 C1073 1.327 . S
C1076 C1064 1.349 1_565 S
C1076 H1070 0.950 . S
C1076 C1077 1.327 . S
C1077 H1071 0.950 . S
C1077 C1076 1.327 . S
C1077 C1081 1.429 . S
C1078 C1061 1.574 . S
C1078 H1072 0.949 . S
C1078 C1082 1.368 . S
C1079 C1060 1.429 . S
C1079 C1073 1.429 . S
C1079 C1080 1.523 . S
C1080 C1061 1.368 . S
C1080 C1074 1.368 . S
C1080 C1079 1.523 . S
C1081 C1065 1.429 . S
C1081 C1077 1.429 . S
C1081 C1082 1.523 . S
C1082 C1066 1.368 . S
C1082 C1078 1.368 . S
C1082 C1081 1.523 . S
H1083 C1058 0.950 . S
H1084 C1060 0.950 . S
H1085 C1061 0.949 . S
H1086 C1063 0.950 1_545 S
H1087 C1065 0.950 . S
C1088 C1089 1.349 . S
C1088 C1090 1.327 . S
C1088 H1113 0.950 . S
C1089 C1088 1.349 . S
C1089 C1105 1.349 . S
C1090 C1088 1.327 . S
C1090 C1109 1.429 . S
C1090 H1114 0.950 . S
C1091 C1108 1.574 . S
C1091 C1110 1.368 . S
C1091 H1115 0.949 . S
H1092 C1096 0.949 . S
C1093 C1094 1.349 . S
C1093 C1095 1.327 . S
C1093 H1116 0.950 . S
C1094 C1093 1.349 . S
C1094 C1106 1.349 . S
C1095 C1093 1.327 . S
C1095 C1111 1.429 . S
C1095 H1117 0.950 . S
C1096 H1092 0.949 . S
C1096 C1104 1.574 . S
C1096 C1112 1.368 . S
H1097 C1105 0.950 . S
H1098 C1103 0.950 . S
H1099 C1104 0.949 . S
H1100 C1106 0.950 . S
H1101 C1107 0.950 . S
H1102 C1108 0.949 . S
C1103 H1098 0.950 . S
C1103 C1105 1.327 . S
C1103 C1109 1.429 . S
C1104 C1096 1.574 . S
C1104 H1099 0.949 . S
C1104 C1110 1.368 . S
C1105 C1089 1.349 . S
C1105 H1097 0.950 . S
C1105 C1103 1.327 . S
C1106 C1094 1.349 . S
C1106 H1100 0.950 . S
C1106 C1107 1.327 . S
C1107 H1101 0.950 . S
C1107 C1106 1.327 . S
C1107 C1111 1.429 . S
C1108 C1091 1.574 . S
C1108 H1102 0.949 . S
C1108 C1112 1.368 . S
C1109 C1090 1.429 . S
C1109 C1103 1.429 . S
C1109 C1110 1.523 . S
C1110 C1091 1.368 . S
C1110 C1104 1.368 . S
C1110 C1109 1.523 . S
C1111 C1095 1.429 . S
C1111 C1107 1.429 . S
C1111 C1112 1.523 . S
C1112 C1096 1.368 . S
C1112 C1108 1.368 . S
C1112 C1111 1.523 . S
H1113 C1088 0.950 . S
H1114 C1090 0.950 . S
H1115 C1091 0.949 . S
H1116 C1093 0.950 . S
H1117 C1095 0.950 . S
C1118 C1119 1.349 . S
C1118 C1120 1.327 . S
C1118 H1143 0.950 . S
C1119 C1118 1.349 . S
C1119 C1135 1.349 . S
C1120 C1118 1.327 . S
C1120 C1139 1.429 . S
C1120 H1144 0.950 . S
C1121 C1138 1.574 1_554 S
C1121 C1140 1.368 1_445 S
C1121 H1145 0.949 . S
H1122 C1126 0.949 . S
C1123 C1124 1.349 . S
C1123 C1125 1.327 . S
C1123 H1146 0.950 . S
C1124 C1123 1.349 . S
C1124 C1136 1.349 . S
C1125 C1123 1.327 . S
C1125 C1141 1.429 . S
C1125 H1147 0.950 . S
C1126 H1122 0.949 . S
C1126 C1134 1.574 1_556 S
C1126 C1142 1.368 1_665 S
H1127 C1135 0.950 1_455 S
H1128 C1133 0.950 . S
H1129 C1134 0.949 . S
H1130 C1136 0.950 1_655 S
H1131 C1137 0.950 . S
H1132 C1138 0.949 . S
C1133 H1128 0.950 . S
C1133 C1135 1.327 1_455 S
C1133 C1139 1.429 1_455 S
C1134 C1126 1.574 1_554 S
C1134 H1129 0.949 . S
C1134 C1140 1.368 . S
C1135 C1119 1.349 . S
C1135 H1127 0.950 1_655 S
C1135 C1133 1.327 1_655 S
C1136 C1124 1.349 . S
C1136 H1130 0.950 1_455 S
C1136 C1137 1.327 1_455 S
C1137 H1131 0.950 . S
C1137 C1136 1.327 1_655 S
C1137 C1141 1.429 1_655 S
C1138 C1121 1.574 1_556 S
C1138 H1132 0.949 . S
C1138 C1142 1.368 . S
C1139 C1120 1.429 . S
C1139 C1133 1.429 1_655 S
C1139 C1140 1.523 . S
C1140 C1121 1.368 1_665 S
C1140 C1134 1.368 . S
C1140 C1139 1.523 . S
C1141 C1125 1.429 . S
C1141 C1137 1.429 1_455 S
C1141 C1142 1.523 . S
C1142 C1126 1.368 1_445 S
C1142 C1138 1.368 . S
C1142 C1141 1.523 . S
H1143 C1118 0.950 . S
H1144 C1120 0.950 . S
H1145 C1121 0.949 . S
H1146 C1123 0.950 . S
H1147 C1125 0.950 . S
C1148 C1149 1.349 . S
C1148 C1150 1.327 . S
C1148 H1173 0.950 . S
C1149 C1148 1.349 . S
C1149 C1165 1.349 . S
C1150 C1148 1.327 . S
C1150 C1169 1.429 . S
C1150 H1174 0.950 1_655 S
C1151 C1168 1.574 . S
C1151 C1170 1.368 1_565 S
C1151 H1175 0.949 . S
H1152 C1156 0.949 . S
C1153 C1154 1.349 . S
C1153 C1155 1.327 . S
C1153 H1176 0.950 . S
C1154 C1153 1.349 . S
C1154 C1166 1.349 . S
C1155 C1153 1.327 . S
C1155 C1171 1.429 . S
C1155 H1177 0.950 1_455 S
C1156 H1152 0.949 . S
C1156 C1164 1.574 . S
C1156 C1172 1.368 1_545 S
H1157 C1165 0.950 . S
H1158 C1163 0.950 1_565 S
H1159 C1164 0.949 . S
H1160 C1166 0.950 . S
H1161 C1167 0.950 1_545 S
H1162 C1168 0.949 . S
C1163 H1158 0.950 1_545 S
C1163 C1165 1.327 . S
C1163 C1169 1.429 . S
C1164 C1156 1.574 . S
C1164 H1159 0.949 . S
C1164 C1170 1.368 1_455 S
C1165 C1149 1.349 . S
C1165 H1157 0.950 . S
C1165 C1163 1.327 . S
C1166 C1154 1.349 . S
C1166 H1160 0.950 . S
C1166 C1167 1.327 . S
C1167 H1161 0.950 1_565 S
C1167 C1166 1.327 . S
C1167 C1171 1.429 . S
C1168 C1151 1.574 . S
C1168 H1162 0.949 . S
C1168 C1172 1.368 1_655 S
C1169 C1150 1.429 . S
C1169 C1163 1.429 . S
C1169 C1170 1.523 . S
C1170 C1151 1.368 1_545 S
C1170 C1164 1.368 1_655 S
C1170 C1169 1.523 . S
C1171 C1155 1.429 . S
C1171 C1167 1.429 . S
C1171 C1172 1.523 . S
C1172 C1156 1.368 1_565 S
C1172 C1168 1.368 1_455 S
C1172 C1171 1.523 . S
H1173 C1148 0.950 . S
H1174 C1150 0.950 1_455 S
H1175 C1151 0.949 . S
H1176 C1153 0.950 . S
H1177 C1155 0.950 1_655 S
C1178 C1179 1.349 . S
C1178 C1180 1.327 . S
C1178 H1203 0.950 . S
C1179 C1178 1.349 . S
C1179 C1195 1.349 . S
C1180 C1178 1.327 . S
C1180 C1199 1.429 . S
C1180 H1204 0.950 . S
C1181 C1198 1.574 1_554 S
C1181 C1200 1.368 . S
C1181 H1205 0.949 . S
H1182 C1186 0.949 . S
C1183 C1184 1.349 . S
C1183 C1185 1.327 . S
C1183 H1206 0.950 . S
C1184 C1183 1.349 . S
C1184 C1196 1.349 . S
C1185 C1183 1.327 . S
C1185 C1201 1.429 . S
C1185 H1207 0.950 . S
C1186 H1182 0.949 . S
C1186 C1194 1.574 1_556 S
C1186 C1202 1.368 . S
H1187 C1195 0.950 . S
H1188 C1193 0.950 . S
H1189 C1194 0.949 . S
H1190 C1196 0.950 . S
H1191 C1197 0.950 . S
H1192 C1198 0.949 . S
C1193 H1188 0.950 . S
C1193 C1195 1.327 . S
C1193 C1199 1.429 . S
C1194 C1186 1.574 1_554 S
C1194 H1189 0.949 . S
C1194 C1200 1.368 . S
C1195 C1179 1.349 . S
C1195 H1187 0.950 . S
C1195 C1193 1.327 . S
C1196 C1184 1.349 . S
C1196 H1190 0.950 . S
C1196 C1197 1.327 . S
C1197 H1191 0.950 . S
C1197 C1196 1.327 . S
C1197 C1201 1.429 . S
C1198 C1181 1.574 1_556 S
C1198 H1192 0.949 . S
C1198 C1202 1.368 . S
C1199 C1180 1.429 . S
C1199 C1193 1.429 . S
C1199 C1200 1.523 . S
C1200 C1181 1.368 . S
C1200 C1194 1.368 . S
C1200 C1199 1.523 . S
C1201 C1185 1.429 . S
C1201 C1197 1.429 . S
C1201 C1202 1.523 . S
C1202 C1186 1.368 . S
C1202 C1198 1.368 . S
C1202 C1201 1.523 . S
H1203 C1178 0.950 . S
H1204 C1180 0.950 . S
H1205 C1181 0.949 . S
H1206 C1183 0.950 . S
H1207 C1185 0.950 . S
C249 C20 1.161 . S
C254 C1 1.169 . S
C279 C33 1.695 . S
C284 C60 1.699 . S
C309 C82 1.169 . S
C314 C63 1.161 . S
C339 C122 1.695 . S
C344 C95 1.699 . S
C369 C126 1.699 . S
C374 C153 1.694 . S
C399 C184 1.695 . S
C404 C157 1.700 . S
C429 C188 1.699 . S
C434 C215 1.694 . S
C459 C219 1.695 . S
C464 C246 1.700 . S
C489 C103 1.311 . S
C494 C0 1.299 . S
C519 C61 1.311 . S
C524 C81 1.299 . S
C549 C134 1.206 . S
C554 C247 1.205 . S
C579 C165 1.205 . S
C584 C196 1.206 . S
C609 C92 0.889 . S
C614 C2 0.863 . S
C639 C93 0.811 . S
C644 C51 0.793 . S
C669 C91 0.863 . S
C674 C10 0.889 . S
C699 C94 0.793 . S
C704 C50 0.811 . S
C729 C186 0.762 . S
C734 C125 0.758 . S
C759 C156 0.778 . S
C764 C236 0.789 . S
C789 C187 0.758 . S
C794 C124 0.762 . S
C819 C237 0.778 . S
C824 C155 0.789 . S
C849 C206 1.887 . S
C854 C19 1.918 . S
C879 C41 1.757 . S
C884 C218 1.805 . S
C909 C144 1.887 . S
C914 C62 1.918 . S
C939 C175 1.805 . S
C944 C123 1.757 . S
C969 C154 1.968 . S
C974 C64 2.007 . S
C999 C113 1.807 . S
C1004 C185 1.760 . S
C1029 C29 2.007 . S
C1034 C216 1.968 . S
C1059 C227 1.760 . S
C1064 C32 1.807 . S
C1089 C143 0.834 . S
C1094 C30 0.832 . S
C1119 C174 0.868 . S
C1124 C31 0.868 . S
C1149 C72 0.832 . S
C1154 C205 0.834 . S
C1179 C112 0.868 . S
C1184 C217 0.868 . S
