# Generated by pormake.
# Topology xfa, (7)-cn, num edge types: 1
# Building blocks:
#     Node 0, Type 0, BuildingBlock: HICVOG_clean_sbu_0, # of connection points: 7
#     Node 1, Type 0, BuildingBlock: HICVOG_clean_sbu_0, # of connection points: 7
#     Node 2, Type 0, BuildingBlock: HICVOG_clean_sbu_0, # of connection points: 7
#     Node 3, Type 0, BuildingBlock: HICVOG_clean_sbu_0, # of connection points: 7
#     Node 4, Type 0, BuildingBlock: HICVOG_clean_sbu_0, # of connection points: 7
#     Node 5, Type 0, BuildingBlock: HICVOG_clean_sbu_0, # of connection points: 7
#     Node 6, Type 0, BuildingBlock: HICVOG_clean_sbu_0, # of connection points: 7
#     Node 7, Type 0, BuildingBlock: HICVOG_clean_sbu_0, # of connection points: 7
#     Edge 8, Type (0, 0), BuildingBlock: KIFKEQ_clean_linker_1, # of connection points: 2
#     Edge 9, Type (0, 0), BuildingBlock: KIFKEQ_clean_linker_1, # of connection points: 2
#     Edge 10, Type (0, 0), BuildingBlock: KIFKEQ_clean_linker_1, # of connection points: 2
#     Edge 11, Type (0, 0), BuildingBlock: KIFKEQ_clean_linker_1, # of connection points: 2
#     Edge 12, Type (0, 0), BuildingBlock: KIFKEQ_clean_linker_1, # of connection points: 2
#     Edge 13, Type (0, 0), BuildingBlock: KIFKEQ_clean_linker_1, # of connection points: 2
#     Edge 14, Type (0, 0), BuildingBlock: KIFKEQ_clean_linker_1, # of connection points: 2
#     Edge 15, Type (0, 0), BuildingBlock: KIFKEQ_clean_linker_1, # of connection points: 2
#     Edge 16, Type (0, 0), BuildingBlock: KIFKEQ_clean_linker_1, # of connection points: 2
#     Edge 17, Type (0, 0), BuildingBlock: KIFKEQ_clean_linker_1, # of connection points: 2
#     Edge 18, Type (0, 0), BuildingBlock: KIFKEQ_clean_linker_1, # of connection points: 2
#     Edge 19, Type (0, 0), BuildingBlock: KIFKEQ_clean_linker_1, # of connection points: 2
#     Edge 20, Type (0, 0), BuildingBlock: KIFKEQ_clean_linker_1, # of connection points: 2
#     Edge 21, Type (0, 0), BuildingBlock: KIFKEQ_clean_linker_1, # of connection points: 2
#     Edge 22, Type (0, 0), BuildingBlock: KIFKEQ_clean_linker_1, # of connection points: 2
#     Edge 23, Type (0, 0), BuildingBlock: KIFKEQ_clean_linker_1, # of connection points: 2
#     Edge 24, Type (0, 0), BuildingBlock: KIFKEQ_clean_linker_1, # of connection points: 2
#     Edge 25, Type (0, 0), BuildingBlock: KIFKEQ_clean_linker_1, # of connection points: 2
#     Edge 26, Type (0, 0), BuildingBlock: KIFKEQ_clean_linker_1, # of connection points: 2
#     Edge 27, Type (0, 0), BuildingBlock: KIFKEQ_clean_linker_1, # of connection points: 2
#     Edge 28, Type (0, 0), BuildingBlock: KIFKEQ_clean_linker_1, # of connection points: 2
#     Edge 29, Type (0, 0), BuildingBlock: KIFKEQ_clean_linker_1, # of connection points: 2
#     Edge 30, Type (0, 0), BuildingBlock: KIFKEQ_clean_linker_1, # of connection points: 2
#     Edge 31, Type (0, 0), BuildingBlock: KIFKEQ_clean_linker_1, # of connection points: 2
#     Edge 32, Type (0, 0), BuildingBlock: KIFKEQ_clean_linker_1, # of connection points: 2
#     Edge 33, Type (0, 0), BuildingBlock: KIFKEQ_clean_linker_1, # of connection points: 2
#     Edge 34, Type (0, 0), BuildingBlock: KIFKEQ_clean_linker_1, # of connection points: 2
#     Edge 35, Type (0, 0), BuildingBlock: KIFKEQ_clean_linker_1, # of connection points: 2
# Relax obj value: 0.162
# Max RMSD: 0.220
# Mean RMSD: 0.210
data_MOF--net-xfa--node1-HICVOG_clean_sbu_0--edge1-KIFKEQ_clean_linker_1
_symmetry_space_group_name_H-M    P1
_symmetry_Int_Tables_number       1
_symmetry_cell_setting            triclinic
loop_
_symmetry_equiv_pos_as_xyz
'x, y, z'
_cell_length_a     46.079155
_cell_length_b     45.895669
_cell_length_c     17.876405
_cell_angle_alpha  90.165826
_cell_angle_beta   89.931741
_cell_angle_gamma 89.983475
loop_
_atom_site_label
_atom_site_type_symbol
_atom_site_fract_x
_atom_site_fract_y
_atom_site_fract_z
_atom_type_partial_charge
Zn0 Zn 0.10286 0.2926 0.35708 0.0
C1 C 0.14492 0.24429 0.20458 0.0
N2 N 0.1679 0.25199 0.24613 0.0
C3 C 0.15576 0.26438 0.30664 0.0
N4 N 0.12651 0.26502 0.30095 0.0
N5 N 0.11962 0.25137 0.2381 0.0
C6 C 0.08539 0.26048 0.06742 0.0
O7 O 0.08863 0.28304 0.11207 0.0
O8 O 0.10489 0.28432 0.46731 0.0
Zn9 Zn 0.08161 0.23761 0.20914 0.0
N10 N 0.1183 0.33101 0.33469 0.0
C11 C 0.11902 0.36718 0.23967 0.0
C12 C 0.11151 0.33947 0.26409 0.0
C13 C 0.13302 0.34913 0.38212 0.0
N14 N 0.13306 0.38547 0.28695 0.0
C15 C 0.14047 0.37738 0.3576 0.0
O16 O 0.04897 0.26446 0.23613 0.0
C17 C 0.04208 0.28527 0.27968 0.0
O18 O 0.06024 0.29606 0.32579 0.0
H19 H 0.09987 0.32479 0.22743 0.0
H20 H 0.13804 0.34203 0.43832 0.0
C21 C 0.04896 0.18525 0.24453 0.0
C22 C 0.04375 0.15908 0.28369 0.0
C23 C 0.08922 0.16462 0.34491 0.0
C24 C 0.09414 0.19043 0.30642 0.0
N25 N 0.07408 0.20023 0.25675 0.0
N26 N 0.06428 0.14969 0.33282 0.0
H27 H 0.03311 0.19416 0.20636 0.0
C28 C 0.08807 0.29793 0.51153 0.0
O29 O 0.07036 0.31763 0.48409 0.0
O30 O 0.08128 0.23553 0.09639 0.0
H31 H 0.1138 0.20265 0.31644 0.0
H32 H 0.1135 0.37424 0.18378 0.0
H33 H 0.10502 0.15657 0.38452 0.0
Zn34 Zn 0.31013 0.58059 0.46364 0.0
C35 C 0.29093 0.65803 0.55738 0.0
N36 N 0.30713 0.66785 0.50033 0.0
C37 C 0.31162 0.6438 0.45931 0.0
N38 N 0.29928 0.62006 0.49004 0.0
N39 N 0.28583 0.62908 0.55143 0.0
C40 C 0.27338 0.5857 0.75272 0.0
O41 O 0.27592 0.56176 0.71285 0.0
O42 O 0.31452 0.57881 0.35071 0.0
Zn43 Zn 0.25672 0.60822 0.60901 0.0
N44 N 0.3465 0.5717 0.51385 0.0
C45 C 0.38176 0.58595 0.60391 0.0
C46 C 0.35657 0.59166 0.56385 0.0
C47 C 0.36075 0.54602 0.50237 0.0
N48 N 0.39594 0.56044 0.59266 0.0
C49 C 0.38634 0.54008 0.54293 0.0
O50 O 0.24948 0.56623 0.57562 0.0
C51 C 0.25877 0.54606 0.53274 0.0
O52 O 0.2808 0.54976 0.4909 0.0
H53 H 0.34502 0.61179 0.5734 0.0
H54 H 0.35179 0.53034 0.46348 0.0
C55 C 0.20096 0.63915 0.63586 0.0
C56 C 0.174 0.64935 0.60927 0.0
C57 C 0.18758 0.63598 0.48572 0.0
C58 C 0.21401 0.62566 0.51206 0.0
N59 N 0.22016 0.62716 0.5863 0.0
N60 N 0.16818 0.64731 0.53481 0.0
H61 H 0.20615 0.63983 0.69487 0.0
C62 C 0.29101 0.57619 0.31396 0.0
O63 O 0.26643 0.57425 0.35091 0.0
O64 O 0.26546 0.6091 0.72059 0.0
H65 H 0.22947 0.61594 0.47382 0.0
H66 H 0.38996 0.60162 0.64398 0.0
H67 H 0.18234 0.63467 0.42684 0.0
Zn68 Zn 0.93778 0.75435 0.85593 0.0
C69 C 0.90335 0.81118 0.70891 0.0
N70 N 0.8793 0.80678 0.74947 0.0
C71 C 0.88883 0.79002 0.80578 0.0
N72 N 0.91761 0.78457 0.8 0.0
N73 N 0.92679 0.79825 0.73925 0.0
C74 C 0.96715 0.78895 0.5635 0.0
O75 O 0.96576 0.76424 0.60032 0.0
O76 O 0.9354 0.76061 0.96812 0.0
Zn77 Zn 0.96618 0.80875 0.71346 0.0
N78 N 0.9188 0.71837 0.8271 0.0
C79 C 0.90887 0.6883 0.72174 0.0
C80 C 0.9219 0.71276 0.75289 0.0
C81 C 0.90322 0.70022 0.87233 0.0
N82 N 0.89316 0.67036 0.76613 0.0
C83 C 0.88983 0.67537 0.84081 0.0
O84 O 0.99652 0.77942 0.74292 0.0
C85 C 1.00038 0.75762 0.78554 0.0
O86 O 0.98019 0.74793 0.82744 0.0
H87 H 0.93429 0.72749 0.71813 0.0
H88 H 0.90078 0.70543 0.93107 0.0
C89 C 0.99998 0.86038 0.74876 0.0
C90 C 1.00585 0.88638 0.78837 0.0
C91 C 0.96126 0.88084 0.85389 0.0
C92 C 0.95564 0.85525 0.81476 0.0
N93 N 0.97498 0.8455 0.76288 0.0
N94 N 0.98609 0.89568 0.83992 0.0
H95 H 1.0152 0.8516 0.70849 0.0
C96 C 0.95201 0.77912 0.9995 0.0
O97 O 0.96972 0.79454 0.95771 0.0
O98 O 0.96827 0.81265 0.60055 0.0
H99 H 0.93608 0.84315 0.82644 0.0
H100 H 0.91107 0.68365 0.66265 0.0
H101 H 0.94608 0.88881 0.89539 0.0
Zn102 Zn 0.78928 0.44063 0.11057 0.0
C103 C 0.7335 0.40267 0.96631 0.0
N104 N 0.73877 0.37908 0.00801 0.0
C105 C 0.75508 0.38974 0.06397 0.0
N106 N 0.75949 0.41877 0.05672 0.0
N107 N 0.74543 0.42691 0.99565 0.0
C108 C 0.75324 0.46697 0.81856 0.0
O109 O 0.77783 0.46691 0.85573 0.0
O110 O 0.78389 0.4379 0.22283 0.0
Zn111 Zn 0.73331 0.46567 0.96821 0.0
N112 N 0.82577 0.42324 0.07968 0.0
C113 C 0.85646 0.41735 0.97376 0.0
C114 C 0.83155 0.42868 0.00654 0.0
C115 C 0.84413 0.4068 0.12222 0.0
N116 N 0.87464 0.40086 0.01544 0.0
C117 C 0.86946 0.3951 0.08898 0.0
O118 O 0.76126 0.49707 0.99697 0.0
C119 C 0.78277 0.5028 0.03891 0.0
O120 O 0.79378 0.48366 0.08199 0.0
H121 H 0.81665 0.44166 0.97387 0.0
H122 H 0.83875 0.40246 0.18004 0.0
C123 C 0.68208 0.49941 0.00538 0.0
C124 C 0.65614 0.50513 0.04491 0.0
C125 C 0.66067 0.45927 0.10531 0.0
C126 C 0.68622 0.45379 0.06628 0.0
N127 N 0.69644 0.47384 0.01699 0.0
N128 N 0.64635 0.48467 0.09387 0.0
H129 H 0.69124 0.51519 0.96727 0.0
C130 C 0.76438 0.45324 0.25446 0.0
O131 O 0.74772 0.46986 0.2129 0.0
O132 O 0.72955 0.46704 0.85525 0.0
H133 H 0.69795 0.4338 0.0761 0.0
H134 H 0.86127 0.42146 0.9155 0.0
H135 H 0.65233 0.44353 0.14481 0.0
Zn136 Zn 0.60551 0.25528 0.39919 0.0
C137 C 0.64127 0.30908 0.55196 0.0
N138 N 0.66535 0.30433 0.5117 0.0
C139 C 0.65559 0.28848 0.4537 0.0
N140 N 0.62665 0.28379 0.45848 0.0
N141 N 0.61758 0.29728 0.5198 0.0
C142 C 0.57723 0.28484 0.68878 0.0
O143 O 0.57859 0.26189 0.64478 0.0
O144 O 0.60756 0.26372 0.28831 0.0
Zn145 Zn 0.57841 0.30882 0.546 0.0
N146 N 0.62243 0.21771 0.4224 0.0
C147 C 0.62593 0.1825 0.51933 0.0
C148 C 0.61733 0.20982 0.4944 0.0
C149 C 0.63643 0.19943 0.37393 0.0
N150 N 0.63928 0.16402 0.47109 0.0
C151 C 0.64496 0.17159 0.39896 0.0
O152 O 0.54693 0.28116 0.51358 0.0
C153 C 0.54281 0.25978 0.4695 0.0
O154 O 0.56301 0.25001 0.42776 0.0
H155 H 0.60613 0.22462 0.53178 0.0
H156 H 0.64001 0.20606 0.3166 0.0
C157 C 0.5452 0.36101 0.51271 0.0
C158 C 0.54013 0.38767 0.47573 0.0
C159 C 0.58676 0.38411 0.41939 0.0
C160 C 0.59153 0.35778 0.45558 0.0
N161 N 0.57082 0.34674 0.50174 0.0
N162 N 0.5613 0.3983 0.4301 0.0
H163 H 0.52886 0.35123 0.54812 0.0
C164 C 0.59048 0.2496 0.24579 0.0
O165 O 0.57352 0.22971 0.27544 0.0
O166 O 0.5763 0.30998 0.65904 0.0
H167 H 0.61152 0.3461 0.44592 0.0
H168 H 0.62176 0.17587 0.57636 0.0
H169 H 0.60306 0.39311 0.3825 0.0
Zn170 Zn 0.23469 0.08002 0.782 0.0
C171 C 0.2544 0.15755 0.69117 0.0
N172 N 0.23911 0.16736 0.7501 0.0
C173 C 0.23439 0.14308 0.78961 0.0
N174 N 0.24574 0.1193 0.75647 0.0
N175 N 0.25885 0.12844 0.69491 0.0
C176 C 0.26227 0.0944 0.49521 0.0
O177 O 0.24656 0.07686 0.53679 0.0
O178 O 0.23001 0.07866 0.89447 0.0
Zn179 Zn 0.28823 0.10762 0.63783 0.0
N180 N 0.19833 0.07128 0.73179 0.0
C181 C 0.16307 0.08526 0.64167 0.0
C182 C 0.18845 0.09094 0.68108 0.0
C183 C 0.18376 0.04593 0.74462 0.0
N184 N 0.14852 0.0601 0.65444 0.0
C185 C 0.15793 0.04004 0.70495 0.0
O186 O 0.29431 0.06498 0.6666 0.0
C187 C 0.28519 0.04505 0.71024 0.0
O188 O 0.26388 0.04924 0.75428 0.0
H189 H 0.20026 0.11083 0.67064 0.0
H190 H 0.19265 0.03051 0.78404 0.0
C191 C 0.34389 0.13883 0.61675 0.0
C192 C 0.37101 0.14821 0.64427 0.0
C193 C 0.35805 0.1314 0.76528 0.0
C194 C 0.33144 0.12192 0.73791 0.0
N195 N 0.32492 0.12551 0.66442 0.0
N196 N 0.37722 0.14405 0.7179 0.0
H197 H 0.33837 0.14119 0.55824 0.0
C198 C 0.25343 0.08129 0.93148 0.0
O199 O 0.27802 0.08362 0.89466 0.0
O200 O 0.28136 0.11032 0.52646 0.0
H201 H 0.31614 0.11122 0.77464 0.0
H202 H 0.15501 0.10068 0.60103 0.0
H203 H 0.3636 0.12844 0.82354 0.0
Zn204 Zn 0.43973 0.793 0.89764 0.0
C205 C 0.40364 0.73847 0.04805 0.0
N206 N 0.37971 0.74322 0.0074 0.0
C207 C 0.38959 0.75942 0.95037 0.0
N208 N 0.41846 0.76435 0.95613 0.0
N209 N 0.42738 0.75062 0.01702 0.0
C210 C 0.46738 0.76299 0.18654 0.0
O211 O 0.46588 0.78596 0.14298 0.0
O212 O 0.43817 0.78424 0.78678 0.0
Zn213 Zn 0.46655 0.73914 0.0433 0.0
N214 N 0.42232 0.83055 0.92002 0.0
C215 C 0.41772 0.86594 0.01677 0.0
C216 C 0.42669 0.83861 0.9923 0.0
C217 C 0.40868 0.84868 0.87079 0.0
N218 N 0.40474 0.88426 0.96782 0.0
C219 C 0.39978 0.87654 0.89537 0.0
O220 O 0.49802 0.76702 0.01198 0.0
C221 C 0.50222 0.78867 0.96915 0.0
O222 O 0.48212 0.79861 0.92752 0.0
H223 H 0.43762 0.82395 0.03028 0.0
H224 H 0.40569 0.84194 0.81325 0.0
C225 C 0.49948 0.6864 0.01085 0.0
C226 C 0.50451 0.65975 0.97332 0.0
C227 C 0.45872 0.6644 0.91342 0.0
C228 C 0.45398 0.6907 0.95014 0.0
N229 N 0.47429 0.70122 0.99829 0.0
N230 N 0.48375 0.64968 0.92565 0.0
H231 H 0.51552 0.69573 0.04796 0.0
C232 C 0.45538 0.79817 0.74431 0.0
O233 O 0.47238 0.81806 0.77395 0.0
O234 O 0.46846 0.73787 0.15631 0.0
H235 H 0.43433 0.70277 0.93936 0.0
H236 H 0.42131 0.87271 0.07403 0.0
H237 H 0.44273 0.65581 0.87496 0.0
Zn238 Zn 0.75709 0.93987 0.14665 0.0
C239 C 0.81235 0.90485 0.29671 0.0
N240 N 0.8074 0.88053 0.25715 0.0
C241 C 0.79101 0.89008 0.20023 0.0
N242 N 0.7862 0.91912 0.20488 0.0
N243 N 0.8001 0.92849 0.26521 0.0
C244 C 0.79239 0.96954 0.4403 0.0
O245 O 0.76765 0.96839 0.40392 0.0
O246 O 0.76435 0.93759 0.03487 0.0
Zn247 Zn 0.81133 0.96805 0.29 0.0
N248 N 0.72011 0.92209 0.17178 0.0
C249 C 0.68651 0.9163 0.27177 0.0
C250 C 0.71329 0.92566 0.24519 0.0
C251 C 0.70125 0.90891 0.12341 0.0
N252 N 0.66747 0.9038 0.22374 0.0
C253 C 0.67395 0.89966 0.15015 0.0
O254 O 0.78215 0.99874 0.2616 0.0
C255 C 0.76059 1.00264 0.2184 0.0
O256 O 0.7512 0.98242 0.17584 0.0
H257 H 0.72849 0.93625 0.28248 0.0
H258 H 0.707 0.90657 0.06498 0.0
C259 C 0.863 1.00149 0.25216 0.0
C260 C 0.88868 1.00697 0.21126 0.0
C261 C 0.8822 0.962 0.147 0.0
C262 C 0.85695 0.95677 0.18738 0.0
N263 N 0.84778 0.97649 0.23919 0.0
N264 N 0.89734 0.98682 0.15974 0.0
H265 H 0.85474 1.01702 0.2925 0.0
C266 C 0.78313 0.95399 0.00406 0.0
O267 O 0.79852 0.97166 0.04623 0.0
O268 O 0.81588 0.97032 0.40278 0.0
H269 H 0.84462 0.9372 0.17673 0.0
H270 H 0.68074 0.91925 0.32997 0.0
H271 H 0.88968 0.94651 0.10551 0.0
H272 H 0.12604 0.43392 0.3765 0.0
H273 H 0.18974 0.37011 0.4425 0.0
H274 H 0.15469 0.47235 0.43485 0.0
H275 H 0.21891 0.40891 0.50069 0.0
H276 H 0.20361 0.53457 0.5824 0.0
H277 H 0.17429 0.49128 0.55724 0.0
H278 H 0.24678 0.45156 0.44281 0.0
H279 H 0.27613 0.49479 0.46755 0.0
C280 C 0.14594 0.42807 0.40503 0.0
C281 C 0.15561 0.39904 0.40524 0.0
C282 C 0.16232 0.45007 0.4387 0.0
C283 C 0.18912 0.44372 0.47229 0.0
C284 C 0.19837 0.41447 0.47501 0.0
C285 C 0.1816 0.39225 0.44236 0.0
C286 C 0.2135 0.51643 0.55301 0.0
C287 C 0.24219 0.51833 0.5264 0.0
C288 C 0.19664 0.49166 0.5384 0.0
C289 C 0.20817 0.46803 0.49778 0.0
C290 C 0.23733 0.46926 0.47481 0.0
C291 C 0.25408 0.49417 0.48855 0.0
H292 H 1.01189 0.70133 0.82695 0.0
H293 H 0.05232 0.77782 0.73269 0.0
H294 H 0.05617 0.6734 0.80283 0.0
H295 H 0.09655 0.74993 0.70934 0.0
H296 H 0.11789 0.63294 0.61601 0.0
H297 H 0.07783 0.65847 0.67686 0.0
H298 H 0.13821 0.72062 0.77003 0.0
H299 H 0.17861 0.69448 0.70964 0.0
C300 C 0.03039 0.71236 0.80259 0.0
C301 C 0.02845 0.74176 0.78113 0.0
C302 C 0.05571 0.69632 0.78859 0.0
C303 C 0.07981 0.70946 0.75406 0.0
C304 C 0.07846 0.73926 0.73665 0.0
C305 C 0.05301 0.75518 0.74953 0.0
C306 C 0.12267 0.65157 0.65127 0.0
C307 C 0.15129 0.66167 0.65858 0.0
C308 C 0.09975 0.66615 0.68627 0.0
C309 C 0.10485 0.69159 0.72812 0.0
C310 C 0.13366 0.70109 0.73798 0.0
C311 C 0.15676 0.68605 0.70405 0.0
H312 H 0.75809 0.55257 0.98638 0.0
H313 H 0.83882 0.51878 0.07278 0.0
H314 H 0.78217 0.59786 0.95311 0.0
H315 H 0.86324 0.5641 0.03748 0.0
H316 H 0.89677 0.65654 0.98712 0.0
H317 H 0.86932 0.61785 0.05023 0.0
H318 H 0.81585 0.60779 0.85353 0.0
H319 H 0.84255 0.6463 0.79193 0.0
C320 C 0.78096 0.55494 0.9991 0.0
C321 C 0.79661 0.53187 0.03128 0.0
C322 C 0.79481 0.5809 0.97973 0.0
C323 C 0.82479 0.58445 0.99117 0.0
C324 C 0.84011 0.56217 0.02806 0.0
C325 C 0.82613 0.53614 0.04812 0.0
C326 C 0.87872 0.64648 0.95823 0.0
C327 C 0.87181 0.65459 0.88448 0.0
C328 C 0.8632 0.62411 0.99406 0.0
C329 C 0.84028 0.60973 0.95713 0.0
C330 C 0.83298 0.61861 0.88436 0.0
C331 C 0.84851 0.64061 0.84865 0.0
H332 H 0.99464 0.26181 0.21136 0.0
H333 H 0.02366 0.33952 0.32577 0.0
H334 H 0.94966 0.28615 0.17786 0.0
H335 H 0.97864 0.36425 0.29046 0.0
H336 H 0.88607 0.39674 0.23843 0.0
H337 H 0.9248 0.36818 0.29753 0.0
H338 H 0.9402 0.32376 0.08787 0.0
H339 H 0.9016 0.35141 0.03006 0.0
C340 C 0.9913 0.28403 0.23011 0.0
C341 C 1.01299 0.29881 0.27042 0.0
C342 C 0.9655 0.29805 0.21059 0.0
C343 C 0.9607 0.32737 0.23017 0.0
C344 C 0.98155 0.34164 0.27463 0.0
C345 C 1.00741 0.32748 0.2947 0.0
C346 C 0.89732 0.38041 0.20558 0.0
C347 C 0.89059 0.37632 0.12944 0.0
C348 C 0.91973 0.36427 0.23923 0.0
C349 C 0.93559 0.34354 0.19763 0.0
C350 C 0.92822 0.33909 0.1222 0.0
C351 C 0.90615 0.35522 0.08873 0.0
H352 H 0.6924 0.17892 0.30753 0.0
H353 H 0.6307 0.11487 0.3839 0.0
H354 H 0.72079 0.14011 0.24657 0.0
H355 H 0.65853 0.07643 0.32262 0.0
H356 H 0.7052 1.01406 0.17104 0.0
H357 H 0.67617 0.05752 0.19686 0.0
H358 H 0.74984 0.09774 0.30435 0.0
H359 H 0.7789 0.05431 0.27909 0.0
C360 C 0.6845 0.15671 0.30936 0.0
C361 C 0.65936 0.14983 0.35018 0.0
C362 C 0.70081 0.13451 0.27508 0.0
C363 C 0.69188 0.10522 0.27983 0.0
C364 C 0.66583 0.09876 0.31717 0.0
C365 C 0.64995 0.12075 0.35251 0.0
C366 C 0.71542 0.03237 0.19884 0.0
C367 C 0.74433 0.03055 0.22362 0.0
C368 C 0.69873 0.05723 0.21383 0.0
C369 C 0.71069 0.08099 0.2529 0.0
C370 C 0.74008 0.0799 0.2736 0.0
C371 C 0.75666 0.0549 0.25957 0.0
H372 H 0.42756 0.13329 0.63585 0.0
H373 H 0.36535 0.19461 0.54855 0.0
H374 H 0.46687 0.15999 0.57557 0.0
H375 H 0.40503 0.22193 0.48884 0.0
H376 H 0.49112 0.27958 0.52573 0.0
H377 H 0.44716 0.25133 0.54957 0.0
H378 H 0.48698 0.1758 0.44819 0.0
H379 H 0.53092 0.20406 0.4235 0.0
C380 C 0.42229 0.15219 0.60232 0.0
C381 C 0.39346 0.16183 0.59651 0.0
C382 C 0.44478 0.16743 0.56759 0.0
C383 C 0.43905 0.19307 0.52749 0.0
C384 C 0.41005 0.20224 0.51946 0.0
C385 C 0.38737 0.18654 0.55305 0.0
C386 C 0.49032 0.25711 0.50714 0.0
C387 C 0.51466 0.24404 0.47325 0.0
C388 C 0.46504 0.24099 0.52038 0.0
C389 C 0.46368 0.21132 0.50105 0.0
C390 C 0.48748 0.1986 0.46399 0.0
C391 C 0.5126 0.21484 0.44965 0.0
H392 H 0.34089 0.03361 0.66471 0.0
H393 H 0.26661 0.99348 0.77011 0.0
H394 H 0.36986 0.99025 0.69174 0.0
H395 H 0.29557 0.95015 0.79649 0.0
H396 H 0.35298 0.869 0.80196 0.0
H397 H 0.32501 0.90766 0.73987 0.0
H398 H 0.38677 0.97153 0.81815 0.0
H399 H 0.41417 0.93323 0.88061 0.0
C400 C 0.33054 1.01533 0.69212 0.0
C401 C 0.30147 1.01716 0.71582 0.0
C402 C 0.34719 0.99054 0.70784 0.0
C403 C 0.33503 0.96683 0.7465 0.0
C404 C 0.3055 0.96793 0.76608 0.0
C405 C 0.28897 0.99287 0.75139 0.0
C406 C 0.36088 0.89122 0.80405 0.0
C407 C 0.38575 0.89818 0.84583 0.0
C408 C 0.3448 0.91334 0.76911 0.0
C409 C 0.35369 0.94265 0.77415 0.0
C410 C 0.37949 0.94919 0.81246 0.0
C411 C 0.39514 0.92727 0.84846 0.0
H412 H 0.61747 0.91484 0.14126 0.0
H413 H 0.67961 0.8533 0.05339 0.0
H414 H 0.57818 0.88837 0.08006 0.0
H415 H 0.63996 0.82622 0.9927 0.0
H416 H 0.55376 0.7687 0.02537 0.0
H417 H 0.59763 0.79682 0.05112 0.0
H418 H 0.55809 0.87284 0.95285 0.0
H419 H 0.51422 0.8447 0.92627 0.0
C420 C 0.62274 0.89594 0.10741 0.0
C421 C 0.65156 0.8862 0.10171 0.0
C422 C 0.60026 0.88083 0.07215 0.0
C423 C 0.60594 0.85519 0.03158 0.0
C424 C 0.63494 0.84591 0.02368 0.0
C425 C 0.65762 0.86148 0.05783 0.0
C426 C 0.55459 0.79126 0.00789 0.0
C427 C 0.53034 0.80448 0.97425 0.0
C428 C 0.57984 0.80732 0.02225 0.0
C429 C 0.58128 0.83708 0.00432 0.0
C430 C 0.55755 0.84998 0.96763 0.0
C431 C 0.53246 0.8338 0.95217 0.0
H432 H 0.25224 0.1469 0.93219 0.0
H433 H 0.1757 0.14423 0.79403 0.0
H434 H 0.22366 0.16729 0.03501 0.0
H435 H 0.14698 0.16513 0.89697 0.0
H436 H 0.11867 0.19264 0.1631 0.0
H437 H 0.13592 0.15927 0.06467 0.0
H438 H 0.19931 0.22318 0.99734 0.0
H439 H 0.18193 0.25639 0.09408 0.0
C440 C 0.22897 0.14915 0.92544 0.0
C441 C 0.21594 0.14352 0.85624 0.0
C442 C 0.2127 0.16105 0.98381 0.0
C443 C 0.18327 0.16786 0.97324 0.0
C444 C 0.16956 0.15971 0.9064 0.0
C445 C 0.18592 0.14769 0.84789 0.0
C446 C 0.13548 0.19988 0.12548 0.0
C447 C 0.14885 0.22713 0.13567 0.0
C448 C 0.14552 0.18072 0.06983 0.0
C449 C 0.16924 0.18861 0.02496 0.0
C450 C 0.18125 0.21653 0.03222 0.0
C451 C 0.17116 0.23557 0.08701 0.0
H452 H 0.39522 0.68059 0.03583 0.0
H453 H 0.40759 0.74966 0.19635 0.0
H454 H 0.37945 0.64796 0.13615 0.0
H455 H 0.39303 0.71692 0.29716 0.0
H456 H 0.29963 0.64019 0.31162 0.0
H457 H 0.33149 0.6561 0.21021 0.0
H458 H 0.40133 0.66807 0.36814 0.0
H459 H 0.36942 0.65149 0.46922 0.0
C460 C 0.39601 0.68825 0.09319 0.0
C461 C 0.4035 0.71725 0.10914 0.0
C462 C 0.38685 0.66969 0.15032 0.0
C463 C 0.38514 0.67989 0.2243 0.0
C464 C 0.39468 0.70831 0.24082 0.0
C465 C 0.40331 0.727 0.1834 0.0
C466 C 0.32224 0.64464 0.32369 0.0
C467 C 0.33243 0.64389 0.39735 0.0
C468 C 0.34044 0.65395 0.26594 0.0
C469 C 0.36889 0.66327 0.28148 0.0
C470 C 0.37956 0.66086 0.35471 0.0
C471 C 0.36144 0.6512 0.41222 0.0
H472 H 0.89652 0.86934 0.72019 0.0
H473 H 0.90663 0.79944 0.56094 0.0
H474 H 0.88114 0.90202 0.61943 0.0
H475 H 0.89269 0.83222 0.4597 0.0
H476 H 0.8002 0.90812 0.44428 0.0
H477 H 0.83229 0.89338 0.54606 0.0
H478 H 0.90226 0.88148 0.38804 0.0
H479 H 0.87027 0.89766 0.28675 0.0
C480 C 0.89693 0.86148 0.66297 0.0
C481 C 0.90363 0.83225 0.64748 0.0
C482 C 0.88803 0.88008 0.60561 0.0
C483 C 0.88592 0.86967 0.53189 0.0
C484 C 0.8947 0.84097 0.51581 0.0
C485 C 0.90297 0.82225 0.57347 0.0
C486 C 0.82292 0.90421 0.4323 0.0
C487 C 0.83315 0.90499 0.35859 0.0
C488 C 0.84124 0.89549 0.49026 0.0
C489 C 0.86977 0.88635 0.47475 0.0
C490 C 0.88044 0.88863 0.40142 0.0
C491 C 0.86225 0.89799 0.34377 0.0
H492 H 0.63749 0.2969 0.69951 0.0
H493 H 0.6492 0.3671 0.54288 0.0
H494 H 0.65195 0.32906 0.80199 0.0
H495 H 0.66477 0.3992 0.64488 0.0
H496 H 0.67589 0.39342 0.9774 0.0
H497 H 0.64375 0.37719 0.87635 0.0
H498 H 0.7129 0.3908 0.71696 0.0
H499 H 0.7451 0.4058 0.81843 0.0
C500 C 0.6416 0.31967 0.68782 0.0
C501 C 0.64127 0.32991 0.61417 0.0
C502 C 0.65015 0.33805 0.7462 0.0
C503 C 0.65944 0.36664 0.7312 0.0
C504 C 0.65755 0.37732 0.65788 0.0
C505 C 0.64849 0.35907 0.59979 0.0
C506 C 0.68369 0.39404 0.92021 0.0
C507 C 0.71256 0.40171 0.90481 0.0
C508 C 0.66542 0.38464 0.86269 0.0
C509 C 0.6758 0.38291 0.78895 0.0
C510 C 0.70414 0.39249 0.77308 0.0
C511 C 0.72253 0.40134 0.83086 0.0
H512 H 0.12002 0.25677 0.58603 0.0
H513 H 0.05567 0.32407 0.62029 0.0
H514 H 0.11971 0.24643 0.72019 0.0
H515 H 0.05517 0.31351 0.75354 0.0
H516 H 0.08735 0.31186 0.99279 0.0
H517 H 0.08869 0.31973 0.85866 0.0
H518 H 0.08735 0.22673 0.8212 0.0
H519 H 0.08639 0.2187 0.95676 0.0
C520 C 0.10578 0.2693 0.62207 0.0
C521 C 0.08798 0.29137 0.59255 0.0
C522 C 0.10547 0.26323 0.69878 0.0
C523 C 0.08751 0.27923 0.74744 0.0
C524 C 0.06956 0.30108 0.71765 0.0
C525 C 0.06978 0.30706 0.64118 0.0
C526 C 0.08736 0.293 0.9562 0.0
C527 C 0.0865 0.26463 0.98546 0.0
C528 C 0.08797 0.29756 0.8792 0.0
C529 C 0.08782 0.27388 0.82931 0.0
C530 C 0.08755 0.24541 0.85835 0.0
C531 C 0.08679 0.24082 0.93583 0.0
H532 H 0.33439 0.59352 0.21787 0.0
H533 H 0.24668 0.56027 0.22245 0.0
H534 H 0.33166 0.59734 0.08098 0.0
H535 H 0.24457 0.563 0.08635 0.0
H536 H 0.27093 0.53813 0.84244 0.0
H537 H 0.27713 0.53597 0.97789 0.0
H538 H 0.2939 0.6284 0.98393 0.0
H539 H 0.28694 0.63087 0.84767 0.0
C540 C 0.31463 0.58696 0.18981 0.0
C541 C 0.29065 0.57685 0.23108 0.0
C542 C 0.31308 0.58921 0.11168 0.0
C543 C 0.28787 0.58052 0.07355 0.0
C544 C 0.26423 0.56981 0.1146 0.0
C545 C 0.26549 0.56827 0.19248 0.0
C546 C 0.27606 0.55802 0.87241 0.0
C547 C 0.27829 0.58471 0.83449 0.0
C548 C 0.27957 0.55674 0.94988 0.0
C549 C 0.28601 0.58199 0.99098 0.0
C550 C 0.28908 0.60862 0.95316 0.0
C551 C 0.28492 0.61004 0.87553 0.0
H552 H 0.96355 0.74179 0.471 0.0
H553 H 0.96501 0.83591 0.46834 0.0
H554 H 0.95829 0.74102 0.33573 0.0
H555 H 0.95933 0.83511 0.33222 0.0
H556 H 0.98404 0.81744 0.08297 0.0
H557 H 0.98674 0.82111 0.21894 0.0
H558 H 0.92274 0.75286 0.23917 0.0
H559 H 0.92027 0.7489 0.10318 0.0
C560 C 0.96275 0.76237 0.44158 0.0
C561 C 0.96485 0.78892 0.48064 0.0
C562 C 0.95947 0.76191 0.36391 0.0
C563 C 0.95822 0.78799 0.32303 0.0
C564 C 0.96048 0.81461 0.36194 0.0
C565 C 0.96371 0.81507 0.43993 0.0
C566 C 0.97041 0.80331 0.11636 0.0
C567 C 0.95213 0.78267 0.08208 0.0
C568 C 0.97184 0.80556 0.19439 0.0
C569 C 0.95513 0.78714 0.24005 0.0
C570 C 0.93627 0.76705 0.20568 0.0
C571 C 0.93475 0.76488 0.12767 0.0
H572 H 0.79645 0.4232 0.35764 0.0
H573 H 0.72428 0.48282 0.33835 0.0
H574 H 0.79226 0.42511 0.49364 0.0
H575 H 0.72038 0.48501 0.47432 0.0
H576 H 0.70679 0.46207 0.72281 0.0
H577 H 0.70808 0.45658 0.58663 0.0
H578 H 0.8017 0.46105 0.59135 0.0
H579 H 0.80047 0.46608 0.72669 0.0
C580 C 0.77964 0.43665 0.38233 0.0
C581 C 0.76087 0.45304 0.33701 0.0
C582 C 0.77732 0.43786 0.46035 0.0
C583 C 0.75613 0.45541 0.49498 0.0
C584 C 0.73681 0.47112 0.44956 0.0
C585 C 0.73918 0.46998 0.37153 0.0
C586 C 0.72762 0.462 0.69466 0.0
C587 C 0.75352 0.46463 0.73572 0.0
C588 C 0.72836 0.45888 0.61663 0.0
C589 C 0.75501 0.45826 0.57802 0.0
C590 C 0.78082 0.46095 0.61927 0.0
C591 C 0.78008 0.46409 0.69699 0.0
H592 H 0.6218 0.28962 0.16473 0.0
H593 H 0.5551 0.22396 0.14308 0.0
H594 H 0.61852 0.2994 0.0304 0.0
H595 H 0.55149 0.23407 0.01018 0.0
H596 H 0.57656 0.23383 0.7655 0.0
H597 H 0.58057 0.22647 0.89939 0.0
H598 H 0.58563 0.31956 0.93345 0.0
H599 H 0.58207 0.327 0.79804 0.0
C600 C 0.60642 0.27733 0.13145 0.0
C601 C 0.58885 0.25586 0.16459 0.0
C602 C 0.6044 0.28309 0.05463 0.0
C603 C 0.58484 0.26742 0.00946 0.0
C604 C 0.56713 0.24621 0.04301 0.0
C605 C 0.56913 0.24048 0.11944 0.0
C606 C 0.57843 0.25281 0.8013 0.0
C607 C 0.57877 0.28103 0.771 0.0
C608 C 0.5806 0.24857 0.8783 0.0
C609 C 0.58319 0.27242 0.92731 0.0
C610 C 0.58381 0.30071 0.89715 0.0
C611 C 0.58151 0.30499 0.81971 0.0
H612 H 0.2245 0.06215 0.41075 0.0
H613 H 0.29167 0.12745 0.39298 0.0
H614 H 0.22093 0.06014 0.27466 0.0
H615 H 0.28777 0.12574 0.25705 0.0
H616 H 0.30009 0.08603 0.02405 0.0
H617 H 0.30043 0.09088 0.15943 0.0
H618 H 0.20674 0.08777 0.16246 0.0
H619 H 0.20639 0.0825 0.02616 0.0
C620 C 0.23832 0.07628 0.37788 0.0
C621 C 0.25859 0.09474 0.4128 0.0
C622 C 0.23614 0.07525 0.29982 0.0
C623 C 0.25423 0.0926 0.25489 0.0
C624 C 0.27386 0.11171 0.28997 0.0
C625 C 0.27601 0.11279 0.36795 0.0
C626 C 0.27951 0.08633 0.05339 0.0
C627 C 0.25321 0.0837 0.01422 0.0
C628 C 0.27971 0.08936 0.13111 0.0
C629 C 0.25362 0.08986 0.17187 0.0
C630 C 0.22724 0.08719 0.1328 0.0
C631 C 0.22703 0.0842 0.05474 0.0
H632 H 0.46262 0.72078 0.29507 0.0
H633 H 0.4683 0.81395 0.26419 0.0
H634 H 0.45945 0.72814 0.43071 0.0
H635 H 0.46468 0.82123 0.39833 0.0
H636 H 0.49084 0.82351 0.64142 0.0
H637 H 0.49415 0.81338 0.50827 0.0
H638 H 0.42681 0.74842 0.52876 0.0
H639 H 0.42381 0.75822 0.66328 0.0
C640 C 0.46329 0.74277 0.31715 0.0
C641 C 0.46597 0.76676 0.26884 0.0
C642 C 0.46122 0.747 0.39473 0.0
C643 C 0.46202 0.77527 0.42541 0.0
C644 C 0.46452 0.79914 0.3768 0.0
C645 C 0.46647 0.79495 0.29967 0.0
C646 C 0.47669 0.80705 0.61779 0.0
C647 C 0.45695 0.7918 0.66305 0.0
C648 C 0.47852 0.80132 0.54123 0.0
C649 C 0.46061 0.78022 0.50768 0.0
C650 C 0.44107 0.76464 0.55299 0.0
C651 C 0.43922 0.77041 0.62992 0.0
H652 H 0.82168 0.98588 0.92116 0.0
H653 H 0.75303 0.92229 0.8999 0.0
H654 H 0.82537 0.98868 0.78516 0.0
H655 H 0.75699 0.92487 0.76401 0.0
H656 H 0.74567 0.96645 0.53343 0.0
H657 H 0.74521 0.96105 0.6686 0.0
H658 H 0.83893 0.96116 0.67096 0.0
H659 H 0.83943 0.96696 0.53483 0.0
C660 C 0.80754 0.9723 0.88755 0.0
C661 C 0.78685 0.95407 0.92153 0.0
C662 C 0.80979 0.9738 0.80952 0.0
C663 C 0.79132 0.9572 0.76362 0.0
C664 C 0.77122 0.93833 0.7977 0.0
C665 C 0.76905 0.93674 0.87567 0.0
C666 C 0.76624 0.96542 0.56255 0.0
C667 C 0.79259 0.96728 0.52315 0.0
C668 C 0.76596 0.96206 0.64017 0.0
C669 C 0.79202 0.96048 0.6807 0.0
C670 C 0.81846 0.96254 0.64149 0.0
C671 C 0.81875 0.96585 0.56351 0.0
H672 H 0.23085 0.14127 0.55999 0.0
H673 H 0.27226 0.21338 0.67203 0.0
H674 H 0.20889 0.17482 0.47123 0.0
H675 H 0.25002 0.24725 0.58283 0.0
H676 H 0.21106 0.2816 0.33561 0.0
H677 H 0.24295 0.25737 0.42604 0.0
H678 H 0.16859 0.21475 0.52324 0.0
H679 H 0.13696 0.23866 0.43351 0.0
C680 C 0.23692 0.16403 0.56248 0.0
C681 C 0.25383 0.17462 0.62177 0.0
C682 C 0.22367 0.18336 0.51299 0.0
C683 C 0.22728 0.21358 0.52167 0.0
C684 C 0.24682 0.22404 0.57547 0.0
C685 C 0.25986 0.20464 0.62564 0.0
C686 C 0.20142 0.26835 0.37912 0.0
C687 C 0.17146 0.26236 0.37815 0.0
C688 C 0.2197 0.2542 0.43 0.0
C689 C 0.20819 0.23368 0.47983 0.0
C690 C 0.17796 0.2302 0.48434 0.0
C691 C 0.15972 0.24453 0.43418 0.0
H692 H 0.40765 0.73727 0.81861 0.0
H693 H 0.33374 0.77606 0.92863 0.0
H694 H 0.37552 0.71481 0.72691 0.0
H695 H 0.30139 0.75343 0.83617 0.0
H696 H 0.274 0.71406 0.57793 0.0
H697 H 0.29579 0.74698 0.67062 0.0
H698 H 0.33395 0.67315 0.78207 0.0
H699 H 0.3123 0.64044 0.69009 0.0
C700 C 0.38477 0.74268 0.82019 0.0
C701 C 0.37326 0.75895 0.87979 0.0
C702 C 0.36629 0.72918 0.76887 0.0
C703 C 0.33606 0.73197 0.77588 0.0
C704 C 0.32465 0.75091 0.83008 0.0
C705 C 0.34317 0.76418 0.88211 0.0
C706 C 0.28559 0.70482 0.62493 0.0
C707 C 0.29096 0.67466 0.62779 0.0
C708 C 0.29837 0.72367 0.67713 0.0
C709 C 0.31695 0.71251 0.73205 0.0
C710 C 0.31985 0.68219 0.73956 0.0
C711 C 0.30683 0.66338 0.68804 0.0
H712 H 0.83288 0.77319 0.82539 0.0
H713 H 0.90634 0.81112 0.93841 0.0
H714 H 0.80027 0.79477 0.91919 0.0
H715 H 0.87413 0.83203 0.03218 0.0
H716 H 0.81254 0.90684 0.06764 0.0
H717 H 0.83296 0.87393 0.97458 0.0
H718 H 0.79479 0.80064 0.08846 0.0
H719 H 0.7737 0.83397 0.1816 0.0
C720 C 0.84217 0.7845 0.87294 0.0
C721 C 0.87224 0.78978 0.87597 0.0
C722 C 0.82351 0.79711 0.92586 0.0
C723 C 0.8348 0.81532 0.98173 0.0
C724 C 0.86501 0.81805 0.98924 0.0
C725 C 0.88358 0.80538 0.93677 0.0
C726 C 0.80651 0.88407 0.06964 0.0
C727 C 0.79075 0.8731 0.13045 0.0
C728 C 0.81892 0.8651 0.01759 0.0
C729 C 0.81576 0.83484 0.02553 0.0
C730 C 0.79746 0.82392 0.08149 0.0
C731 C 0.78513 0.84299 0.134 0.0
H732 H 0.71167 0.27225 0.43347 0.0
H733 H 0.63804 0.31027 0.32146 0.0
H734 H 0.74433 0.29511 0.34232 0.0
H735 H 0.67046 0.33285 0.23086 0.0
H736 H 0.73133 0.40765 0.1933 0.0
H737 H 0.70968 0.37504 0.28482 0.0
H738 H 0.75247 0.30181 0.18082 0.0
H739 H 0.77448 0.33478 0.08889 0.0
C740 C 0.70239 0.284 0.38675 0.0
C741 C 0.67228 0.289 0.38359 0.0
C742 C 0.72109 0.29739 0.33544 0.0
C743 C 0.70982 0.31619 0.28108 0.0
C744 C 0.67959 0.31863 0.27303 0.0
C745 C 0.66095 0.30505 0.3237 0.0
C746 C 0.73793 0.38502 0.19326 0.0
C747 C 0.75521 0.37389 0.13522 0.0
C748 C 0.72484 0.36618 0.24429 0.0
C749 C 0.72897 0.33594 0.23839 0.0
C750 C 0.7489 0.32506 0.18602 0.0
C751 C 0.76183 0.34396 0.13434 0.0
H752 H 1.01985 0.12168 0.38421 0.0
H753 H 1.00682 0.15542 0.16116 0.0
H754 H 0.97934 0.08862 0.36702 0.0
H755 H 0.9654 0.12306 0.14534 0.0
H756 H 0.92468 0.03194 0.10933 0.0
H757 H 0.95859 0.07172 0.12732 0.0
H758 H 0.92778 0.08298 0.35388 0.0
H759 H 0.89452 0.04223 0.33701 0.0
C760 C 1.00812 0.12241 0.33178 0.0
C761 C 1.01685 0.14135 0.27416 0.0
C762 C 0.98458 0.10359 0.32228 0.0
C763 C 0.96901 0.10306 0.25476 0.0
C764 C 0.97707 0.12265 0.19787 0.0
C765 C 1.0007 0.14154 0.20736 0.0
C766 C 0.92491 0.04295 0.16301 0.0
C767 C 0.90675 0.03364 0.22164 0.0
C768 C 0.94423 0.06607 0.17303 0.0
C769 C 0.94605 0.08064 0.24209 0.0
C770 C 0.9272 0.07206 0.30012 0.0
C771 C 0.9078 0.04884 0.29009 0.0
H772 H 0.50202 0.38992 0.59594 0.0
H773 H 0.51643 0.4247 0.37448 0.0
H774 H 0.46013 0.4219 0.61078 0.0
H775 H 0.47542 0.45726 0.39056 0.0
H776 H 0.39126 0.50421 0.41837 0.0
H777 H 0.42363 0.46263 0.40251 0.0
H778 H 0.45392 0.47356 0.62945 0.0
H779 H 0.42092 0.51425 0.64635 0.0
C780 C 0.49606 0.40392 0.54985 0.0
C781 C 0.51275 0.40465 0.48392 0.0
C782 C 0.47217 0.42254 0.55874 0.0
C783 C 0.46443 0.4423 0.50202 0.0
C784 C 0.48044 0.44214 0.43511 0.0
C785 C 0.50425 0.42362 0.42626 0.0
C786 C 0.4042 0.49732 0.4656 0.0
C787 C 0.4034 0.51274 0.53374 0.0
C788 C 0.42305 0.47362 0.45618 0.0
C789 C 0.44156 0.4648 0.51455 0.0
C790 C 0.43981 0.47945 0.58351 0.0
C791 C 0.42104 0.50307 0.5929 0.0
H792 H 0.12083 1.0149 0.60568 0.0
H793 H 0.15448 1.00421 0.82969 0.0
H794 H 0.0878 0.97454 0.62566 0.0
H795 H 0.12225 0.96287 0.84821 0.0
H796 H 0.03128 0.92333 0.88764 0.0
H797 H 0.07122 0.95672 0.86699 0.0
H798 H 0.08169 0.92313 0.64257 0.0
H799 H 0.04074 0.89049 0.66193 0.0
C800 C 0.12158 1.00369 0.65888 0.0
C801 C 0.14044 1.01306 0.71597 0.0
C802 C 0.10278 0.98023 0.66999 0.0
C803 C 0.10225 0.96539 0.73861 0.0
C804 C 0.12184 0.974 0.79489 0.0
C805 C 0.14066 0.99758 0.78383 0.0
C806 C 0.04214 0.92285 0.83387 0.0
C807 C 0.03256 0.90411 0.77655 0.0
C808 C 0.06536 0.94186 0.82234 0.0
C809 C 0.07975 0.94272 0.75307 0.0
C810 C 0.07091 0.92327 0.69642 0.0
C811 C 0.04757 0.90422 0.70792 0.0
H812 H 0.62013 0.53042 0.14677 0.0
H813 H 0.65249 0.54152 0.92151 0.0
H814 H 0.58751 0.57137 0.12949 0.0
H815 H 0.62054 0.58331 0.90544 0.0
H816 H 0.52884 0.62277 0.87232 0.0
H817 H 0.56902 0.58937 0.89002 0.0
H818 H 0.58203 0.62327 0.11314 0.0
H819 H 0.54094 0.65614 0.09651 0.0
C820 C 0.62067 0.54185 0.09386 0.0
C821 C 0.63901 0.53244 0.03558 0.0
C822 C 0.60212 0.56562 0.08428 0.0
C823 C 0.60128 0.58068 0.01601 0.0
C824 C 0.6204 0.57203 0.95855 0.0
C825 C 0.63903 0.54819 0.96814 0.0
C826 C 0.54035 0.62334 0.92511 0.0
C827 C 0.53144 0.64219 0.98297 0.0
C828 C 0.56368 0.60433 0.93493 0.0
C829 C 0.57882 0.60353 0.00305 0.0
C830 C 0.57067 0.62311 0.06015 0.0
C831 C 0.54725 0.64225 0.05027 0.0
loop_
_geom_bond_atom_site_label_1
_geom_bond_atom_site_label_2
_geom_bond_distance
_geom_bond_site_symmetry_2
_ccdc_geom_bond_type
Zn0 N4 2.020 . S
Zn0 O8 2.019 . S
Zn0 N10 2.119 . S
Zn0 O18 1.975 . S
C1 N2 1.334 . S
C1 N5 1.336 . S
N2 C1 1.334 . S
N2 C3 1.334 . S
C3 N2 1.334 . S
C3 N4 1.336 . S
N4 Zn0 2.020 . S
N4 C3 1.336 . S
N4 N5 1.354 . S
N5 C1 1.336 . S
N5 N4 1.354 . S
N5 Zn9 2.020 . S
C6 O7 1.244 . S
C6 O30 1.257 . S
O7 C6 1.244 . S
O8 Zn0 2.019 . S
O8 C28 1.257 . S
Zn9 N5 2.020 . S
Zn9 O16 1.975 . S
Zn9 N25 2.119 . S
Zn9 O30 2.019 . S
N10 Zn0 2.119 . S
N10 C12 1.334 . S
N10 C13 1.328 . S
C11 C12 1.391 . S
C11 N14 1.329 . S
C11 H32 0.930 . S
C12 N10 1.334 . S
C12 C11 1.391 . S
C12 H19 0.930 . S
C13 N10 1.328 . S
C13 C15 1.392 . S
C13 H20 0.930 . S
N14 C11 1.329 . S
N14 C15 1.331 . S
C15 C13 1.392 . S
C15 N14 1.331 . S
O16 Zn9 1.975 . S
O16 C17 1.252 . S
C17 O16 1.252 . S
C17 O18 1.252 . S
O18 Zn0 1.975 . S
O18 C17 1.252 . S
H19 C12 0.930 . S
H20 C13 0.930 . S
C21 C22 1.392 . S
C21 N25 1.328 1_655 S
C21 H27 0.930 . S
C22 C21 1.392 . S
C22 N26 1.331 . S
C23 C24 1.391 . S
C23 N26 1.329 . S
C23 H33 0.930 . S
C24 C23 1.391 . S
C24 N25 1.334 1_655 S
C24 H31 0.930 1_655 S
N25 Zn9 2.119 . S
N25 C21 1.328 1_455 S
N25 C24 1.334 1_455 S
N26 C22 1.331 . S
N26 C23 1.329 . S
H27 C21 0.930 . S
C28 O8 1.257 . S
C28 O29 1.244 . S
O29 C28 1.244 . S
O30 C6 1.257 . S
O30 Zn9 2.019 . S
H31 C24 0.930 1_455 S
H32 C11 0.930 . S
H33 C23 0.930 . S
Zn34 N38 2.020 . S
Zn34 O42 2.019 . S
Zn34 N44 2.119 . S
Zn34 O52 1.975 . S
C35 N36 1.334 . S
C35 N39 1.336 . S
N36 C35 1.334 . S
N36 C37 1.334 . S
C37 N36 1.334 . S
C37 N38 1.336 . S
N38 Zn34 2.020 . S
N38 C37 1.336 . S
N38 N39 1.354 . S
N39 C35 1.336 . S
N39 N38 1.354 . S
N39 Zn43 2.020 . S
C40 O41 1.244 . S
C40 O64 1.257 . S
O41 C40 1.244 . S
O42 Zn34 2.019 . S
O42 C62 1.257 . S
Zn43 N39 2.020 . S
Zn43 O50 1.975 . S
Zn43 N59 2.119 . S
Zn43 O64 2.019 . S
N44 Zn34 2.119 . S
N44 C46 1.334 . S
N44 C47 1.328 . S
C45 C46 1.391 . S
C45 N48 1.329 . S
C45 H66 0.930 . S
C46 N44 1.334 . S
C46 C45 1.391 . S
C46 H53 0.930 . S
C47 N44 1.328 . S
C47 C49 1.392 . S
C47 H54 0.930 . S
N48 C45 1.329 . S
N48 C49 1.331 . S
C49 C47 1.392 . S
C49 N48 1.331 . S
O50 Zn43 1.975 . S
O50 C51 1.252 . S
C51 O50 1.252 . S
C51 O52 1.252 . S
O52 Zn34 1.975 . S
O52 C51 1.252 . S
H53 C46 0.930 . S
H54 C47 0.930 . S
C55 C56 1.392 . S
C55 N59 1.328 . S
C55 H61 0.930 . S
C56 C55 1.392 . S
C56 N60 1.331 . S
C57 C58 1.391 . S
C57 N60 1.329 . S
C57 H67 0.930 . S
C58 C57 1.391 . S
C58 N59 1.334 . S
C58 H65 0.930 . S
N59 Zn43 2.119 . S
N59 C55 1.328 . S
N59 C58 1.334 . S
N60 C56 1.331 . S
N60 C57 1.329 . S
H61 C55 0.930 . S
C62 O42 1.257 . S
C62 O63 1.244 . S
O63 C62 1.244 . S
O64 C40 1.257 . S
O64 Zn43 2.019 . S
H65 C58 0.930 . S
H66 C45 0.930 . S
H67 C57 0.930 . S
Zn68 N72 2.020 . S
Zn68 O76 2.019 1_556 S
Zn68 N78 2.119 . S
Zn68 O86 1.975 . S
C69 N70 1.334 . S
C69 N73 1.336 . S
N70 C69 1.334 . S
N70 C71 1.334 . S
C71 N70 1.334 . S
C71 N72 1.336 . S
N72 Zn68 2.020 . S
N72 C71 1.336 . S
N72 N73 1.354 . S
N73 C69 1.336 . S
N73 N72 1.354 . S
N73 Zn77 2.020 . S
C74 O75 1.244 . S
C74 O98 1.257 . S
O75 C74 1.244 . S
O76 Zn68 2.019 1_554 S
O76 C96 1.257 . S
Zn77 N73 2.020 . S
Zn77 O84 1.975 . S
Zn77 N93 2.119 . S
Zn77 O98 2.019 . S
N78 Zn68 2.119 . S
N78 C80 1.334 . S
N78 C81 1.328 . S
C79 C80 1.391 . S
C79 N82 1.329 . S
C79 H100 0.930 . S
C80 N78 1.334 . S
C80 C79 1.391 . S
C80 H87 0.930 . S
C81 N78 1.328 . S
C81 C83 1.392 . S
C81 H88 0.930 . S
N82 C79 1.329 . S
N82 C83 1.331 . S
C83 C81 1.392 . S
C83 N82 1.331 . S
O84 Zn77 1.975 . S
O84 C85 1.252 . S
C85 O84 1.252 . S
C85 O86 1.252 . S
O86 Zn68 1.975 . S
O86 C85 1.252 . S
H87 C80 0.930 . S
H88 C81 0.930 . S
C89 C90 1.392 . S
C89 N93 1.328 1_455 S
C89 H95 0.930 . S
C90 C89 1.392 . S
C90 N94 1.331 . S
C91 C92 1.409 . S
C91 N94 1.329 . S
C91 H101 0.930 . S
C92 C91 1.409 . S
C92 N93 1.327 1_455 S
C92 H99 0.918 1_455 S
N93 Zn77 2.119 . S
N93 C89 1.328 1_655 S
N93 C92 1.327 1_655 S
N94 C90 1.331 . S
N94 C91 1.329 . S
H95 C89 0.930 . S
C96 O76 1.257 . S
C96 O97 1.244 . S
O97 C96 1.244 . S
O98 C74 1.257 . S
O98 Zn77 2.019 . S
H99 C92 0.918 1_655 S
H100 C79 0.930 . S
H101 C91 0.930 . S
Zn102 N106 2.020 . S
Zn102 O110 2.019 . S
Zn102 N112 2.119 . S
Zn102 O120 1.975 . S
C103 N104 1.334 . S
C103 N107 1.336 . S
N104 C103 1.334 . S
N104 C105 1.334 1_556 S
C105 N104 1.334 1_554 S
C105 N106 1.336 . S
N106 Zn102 2.020 . S
N106 C105 1.336 . S
N106 N107 1.354 1_554 S
N107 C103 1.336 . S
N107 N106 1.354 1_556 S
N107 Zn111 2.020 . S
C108 O109 1.244 . S
C108 O132 1.257 . S
O109 C108 1.244 . S
O110 Zn102 2.019 . S
O110 C130 1.257 . S
Zn111 N107 2.020 . S
Zn111 O118 1.975 . S
Zn111 N127 2.119 . S
Zn111 O132 2.019 . S
N112 Zn102 2.119 . S
N112 C114 1.334 1_554 S
N112 C115 1.328 . S
C113 C114 1.391 . S
C113 N116 1.329 1_556 S
C113 H134 0.930 . S
C114 N112 1.334 1_556 S
C114 C113 1.391 . S
C114 H121 0.930 . S
C115 N112 1.328 . S
C115 C117 1.392 . S
C115 H122 0.930 . S
N116 C113 1.329 1_554 S
N116 C117 1.331 . S
C117 C115 1.392 . S
C117 N116 1.331 . S
O118 Zn111 1.975 . S
O118 C119 1.245 1_556 S
C119 O118 1.245 1_554 S
C119 O120 1.259 . S
O120 Zn102 1.975 . S
O120 C119 1.259 . S
H121 C114 0.930 . S
H122 C115 0.930 . S
C123 C124 1.392 . S
C123 N127 1.328 . S
C123 H129 0.930 . S
C124 C123 1.392 . S
C124 N128 1.331 . S
C125 C126 1.391 . S
C125 N128 1.329 1_554 S
C125 H135 0.930 . S
C126 C125 1.391 . S
C126 N127 1.334 1_554 S
C126 H133 0.930 . S
N127 Zn111 2.119 . S
N127 C123 1.328 . S
N127 C126 1.334 1_556 S
N128 C124 1.331 . S
N128 C125 1.329 1_556 S
H129 C123 0.930 . S
C130 O110 1.257 . S
C130 O131 1.244 . S
O131 C130 1.244 . S
O132 C108 1.257 . S
O132 Zn111 2.019 . S
H133 C126 0.930 . S
H134 C113 0.930 . S
H135 C125 0.930 . S
Zn136 N140 2.020 . S
Zn136 O144 2.019 . S
Zn136 N146 2.119 . S
Zn136 O154 1.975 . S
C137 N138 1.334 . S
C137 N141 1.336 . S
N138 C137 1.334 . S
N138 C139 1.334 . S
C139 N138 1.334 . S
C139 N140 1.336 . S
N140 Zn136 2.020 . S
N140 C139 1.336 . S
N140 N141 1.354 . S
N141 C137 1.336 . S
N141 N140 1.354 . S
N141 Zn145 2.020 . S
C142 O143 1.244 . S
C142 O166 1.257 . S
O143 C142 1.244 . S
O144 Zn136 2.019 . S
O144 C164 1.257 . S
Zn145 N141 2.020 . S
Zn145 O152 1.975 . S
Zn145 N161 2.119 . S
Zn145 O166 2.019 . S
N146 Zn136 2.119 . S
N146 C148 1.334 . S
N146 C149 1.328 . S
C147 C148 1.391 . S
C147 N150 1.329 . S
C147 H168 0.930 . S
C148 N146 1.334 . S
C148 C147 1.391 . S
C148 H155 0.930 . S
C149 N146 1.328 . S
C149 C151 1.392 . S
C149 H156 0.930 . S
N150 C147 1.329 . S
N150 C151 1.331 . S
C151 C149 1.392 . S
C151 N150 1.331 . S
O152 Zn145 1.975 . S
O152 C153 1.252 . S
C153 O152 1.252 . S
C153 O154 1.252 . S
O154 Zn136 1.975 . S
O154 C153 1.252 . S
H155 C148 0.930 . S
H156 C149 0.930 . S
C157 C158 1.392 . S
C157 N161 1.328 . S
C157 H163 0.930 . S
C158 C157 1.392 . S
C158 N162 1.331 . S
C159 C160 1.391 . S
C159 N162 1.329 . S
C159 H169 0.930 . S
C160 C159 1.391 . S
C160 N161 1.334 . S
C160 H167 0.930 . S
N161 Zn145 2.119 . S
N161 C157 1.328 . S
N161 C160 1.334 . S
N162 C158 1.331 . S
N162 C159 1.329 . S
H163 C157 0.930 . S
C164 O144 1.257 . S
C164 O165 1.244 . S
O165 C164 1.244 . S
O166 C142 1.257 . S
O166 Zn145 2.019 . S
H167 C160 0.930 . S
H168 C147 0.930 . S
H169 C159 0.930 . S
Zn170 N174 2.020 . S
Zn170 O178 2.019 . S
Zn170 N180 2.119 . S
Zn170 O188 1.975 . S
C171 N172 1.334 . S
C171 N175 1.336 . S
N172 C171 1.334 . S
N172 C173 1.334 . S
C173 N172 1.334 . S
C173 N174 1.336 . S
N174 Zn170 2.020 . S
N174 C173 1.336 . S
N174 N175 1.354 . S
N175 C171 1.336 . S
N175 N174 1.354 . S
N175 Zn179 2.020 . S
C176 O177 1.244 . S
C176 O200 1.257 . S
O177 C176 1.244 . S
O178 Zn170 2.019 . S
O178 C198 1.257 . S
Zn179 N175 2.020 . S
Zn179 O186 1.975 . S
Zn179 N195 2.119 . S
Zn179 O200 2.019 . S
N180 Zn170 2.119 . S
N180 C182 1.334 1_545 S
N180 C183 1.328 1_545 S
C181 C182 1.391 . S
C181 N184 1.329 . S
C181 H202 0.930 . S
C182 N180 1.334 1_565 S
C182 C181 1.391 . S
C182 H189 0.930 1_565 S
C183 N180 1.328 1_565 S
C183 C185 1.392 . S
C183 H190 0.930 . S
N184 C181 1.329 . S
N184 C185 1.331 . S
C185 C183 1.392 . S
C185 N184 1.331 . S
O186 Zn179 1.975 . S
O186 C187 1.252 . S
C187 O186 1.252 . S
C187 O188 1.252 . S
O188 Zn170 1.975 . S
O188 C187 1.252 . S
H189 C182 0.930 1_545 S
H190 C183 0.930 . S
C191 C192 1.392 . S
C191 N195 1.328 . S
C191 H197 0.930 . S
C192 C191 1.392 . S
C192 N196 1.331 . S
C193 C194 1.391 . S
C193 N196 1.329 . S
C193 H203 0.930 . S
C194 C193 1.391 . S
C194 N195 1.334 . S
C194 H201 0.930 . S
N195 Zn179 2.119 . S
N195 C191 1.328 . S
N195 C194 1.334 . S
N196 C192 1.331 . S
N196 C193 1.329 . S
H197 C191 0.930 . S
C198 O178 1.257 . S
C198 O199 1.244 . S
O199 C198 1.244 . S
O200 C176 1.257 . S
O200 Zn179 2.019 . S
H201 C194 0.930 . S
H202 C181 0.930 . S
H203 C193 0.930 . S
Zn204 N208 2.020 . S
Zn204 O212 2.019 . S
Zn204 N214 2.119 . S
Zn204 O222 1.975 . S
C205 N206 1.334 . S
C205 N209 1.336 . S
N206 C205 1.334 . S
N206 C207 1.334 1_554 S
C207 N206 1.334 1_556 S
C207 N208 1.336 . S
N208 Zn204 2.020 . S
N208 C207 1.336 . S
N208 N209 1.354 1_556 S
N209 C205 1.336 . S
N209 N208 1.354 1_554 S
N209 Zn213 2.020 . S
C210 O211 1.244 . S
C210 O234 1.257 . S
O211 C210 1.244 . S
O212 Zn204 2.019 . S
O212 C232 1.257 . S
Zn213 N209 2.020 . S
Zn213 O220 1.975 . S
Zn213 N229 2.119 . S
Zn213 O234 2.019 . S
N214 Zn204 2.119 . S
N214 C216 1.334 1_556 S
N214 C217 1.328 . S
C215 C216 1.391 . S
C215 N218 1.329 1_554 S
C215 H236 0.930 . S
C216 N214 1.334 1_554 S
C216 C215 1.391 . S
C216 H223 0.930 . S
C217 N214 1.328 . S
C217 C219 1.392 . S
C217 H224 0.930 . S
N218 C215 1.329 1_556 S
N218 C219 1.331 . S
C219 C217 1.392 . S
C219 N218 1.331 . S
O220 Zn213 1.975 . S
O220 C221 1.245 1_554 S
C221 O220 1.245 1_556 S
C221 O222 1.259 . S
O222 Zn204 1.975 . S
O222 C221 1.259 . S
H223 C216 0.930 . S
H224 C217 0.930 . S
C225 C226 1.392 . S
C225 N229 1.328 . S
C225 H231 0.930 . S
C226 C225 1.392 . S
C226 N230 1.331 . S
C227 C228 1.391 . S
C227 N230 1.329 1_556 S
C227 H237 0.930 . S
C228 C227 1.391 . S
C228 N229 1.334 1_556 S
C228 H235 0.930 . S
N229 Zn213 2.119 . S
N229 C225 1.328 . S
N229 C228 1.334 1_554 S
N230 C226 1.331 . S
N230 C227 1.329 1_554 S
H231 C225 0.930 . S
C232 O212 1.257 . S
C232 O233 1.244 . S
O233 C232 1.244 . S
O234 C210 1.257 . S
O234 Zn213 2.019 . S
H235 C228 0.930 . S
H236 C215 0.930 . S
H237 C227 0.930 . S
Zn238 N242 2.020 . S
Zn238 O246 2.019 1_554 S
Zn238 N248 2.119 . S
Zn238 O256 1.975 . S
C239 N240 1.334 . S
C239 N243 1.336 . S
N240 C239 1.334 . S
N240 C241 1.334 . S
C241 N240 1.334 . S
C241 N242 1.336 . S
N242 Zn238 2.020 . S
N242 C241 1.336 . S
N242 N243 1.354 . S
N243 C239 1.336 . S
N243 N242 1.354 . S
N243 Zn247 2.020 . S
C244 O245 1.244 . S
C244 O268 1.257 . S
O245 C244 1.244 . S
O246 Zn238 2.019 1_556 S
O246 C266 1.257 . S
Zn247 N243 2.020 . S
Zn247 O254 1.975 . S
Zn247 N263 2.119 . S
Zn247 O268 2.019 . S
N248 Zn238 2.119 . S
N248 C250 1.334 . S
N248 C251 1.328 . S
C249 C250 1.391 . S
C249 N252 1.329 . S
C249 H270 0.930 . S
C250 N248 1.334 . S
C250 C249 1.391 . S
C250 H257 0.930 . S
C251 N248 1.328 . S
C251 C253 1.392 . S
C251 H258 0.930 . S
N252 C249 1.329 . S
N252 C253 1.331 . S
C253 C251 1.392 . S
C253 N252 1.331 . S
O254 Zn247 1.975 . S
O254 C255 1.252 . S
C255 O254 1.252 . S
C255 O256 1.252 . S
O256 Zn238 1.975 . S
O256 C255 1.252 . S
H257 C250 0.930 . S
H258 C251 0.930 . S
C259 C260 1.392 . S
C259 N263 1.328 1_545 S
C259 H265 0.930 . S
C260 C259 1.392 . S
C260 N264 1.331 . S
C261 C262 1.409 . S
C261 N264 1.329 . S
C261 H271 0.930 . S
C262 C261 1.409 . S
C262 N263 1.327 1_545 S
C262 H269 0.918 1_545 S
N263 Zn247 2.119 . S
N263 C259 1.328 1_565 S
N263 C262 1.327 1_565 S
N264 C260 1.331 . S
N264 C261 1.329 . S
H265 C259 0.930 . S
C266 O246 1.257 . S
C266 O267 1.244 . S
O267 C266 1.244 . S
O268 C244 1.257 . S
O268 Zn247 2.019 . S
H269 C262 0.918 1_565 S
H270 C249 0.930 . S
H271 C261 0.930 . S
H272 C280 0.950 . S
H273 C285 0.950 . S
H274 C282 0.950 . S
H275 C284 0.950 . S
H276 C286 0.950 . S
H277 C288 0.950 . S
H278 C290 0.950 . S
H279 C291 0.950 . S
C280 H272 0.950 . S
C280 C281 1.386 . S
C280 C282 1.391 . S
C281 C280 1.386 . S
C281 C285 1.393 . S
C282 H274 0.950 . S
C282 C280 1.391 . S
C282 C283 1.400 . S
C283 C282 1.400 . S
C283 C284 1.398 . S
C283 C289 1.491 . S
C284 H275 0.950 . S
C284 C283 1.398 . S
C284 C285 1.391 . S
C285 H273 0.950 . S
C285 C281 1.393 . S
C285 C284 1.391 . S
C286 H276 0.950 . S
C286 C287 1.386 . S
C286 C288 1.391 . S
C287 C286 1.386 . S
C287 C291 1.393 . S
C288 H277 0.950 . S
C288 C286 1.391 . S
C288 C289 1.400 . S
C289 C283 1.491 . S
C289 C288 1.400 . S
C289 C290 1.398 . S
C290 H278 0.950 . S
C290 C289 1.398 . S
C290 C291 1.391 . S
C291 H279 0.950 . S
C291 C287 1.393 . S
C291 C290 1.391 . S
H292 C300 0.950 . S
H293 C305 0.950 1_655 S
H294 C302 0.950 . S
H295 C304 0.950 . S
H296 C306 0.950 . S
H297 C308 0.950 . S
H298 C310 0.950 . S
H299 C311 0.950 . S
C300 H292 0.950 . S
C300 C301 1.386 . S
C300 C302 1.391 . S
C301 C300 1.386 . S
C301 C305 1.393 . S
C302 H294 0.950 . S
C302 C300 1.391 . S
C302 C303 1.400 . S
C303 C302 1.400 . S
C303 C304 1.398 . S
C303 C309 1.491 . S
C304 H295 0.950 . S
C304 C303 1.398 . S
C304 C305 1.391 . S
C305 H293 0.950 1_455 S
C305 C301 1.393 . S
C305 C304 1.391 . S
C306 H296 0.950 . S
C306 C307 1.386 . S
C306 C308 1.391 . S
C307 C306 1.386 . S
C307 C311 1.393 . S
C308 H297 0.950 . S
C308 C306 1.391 . S
C308 C309 1.400 . S
C309 C303 1.491 . S
C309 C308 1.400 . S
C309 C310 1.398 . S
C310 H298 0.950 . S
C310 C309 1.398 . S
C310 C311 1.391 . S
C311 H299 0.950 . S
C311 C307 1.393 . S
C311 C310 1.391 . S
H312 C320 0.950 . S
H313 C325 0.950 . S
H314 C322 0.950 . S
H315 C324 0.950 . S
H316 C326 0.950 . S
H317 C328 0.950 . S
H318 C330 0.950 1_554 S
H319 C331 0.950 . S
C320 H312 0.950 . S
C320 C321 1.386 1_554 S
C320 C322 1.391 . S
C321 C320 1.386 1_556 S
C321 C325 1.393 . S
C322 H314 0.950 . S
C322 C320 1.391 . S
C322 C323 1.400 1_554 S
C323 C322 1.400 1_556 S
C323 C324 1.398 . S
C323 C329 1.491 . S
C324 H315 0.950 . S
C324 C323 1.398 . S
C324 C325 1.391 . S
C325 H313 0.950 . S
C325 C321 1.393 . S
C325 C324 1.391 . S
C326 H316 0.950 . S
C326 C327 1.386 . S
C326 C328 1.391 . S
C327 C326 1.386 . S
C327 C331 1.393 . S
C328 H317 0.950 . S
C328 C326 1.391 . S
C328 C329 1.400 . S
C329 C323 1.491 . S
C329 C328 1.400 . S
C329 C330 1.398 . S
C330 H318 0.950 1_556 S
C330 C329 1.398 . S
C330 C331 1.391 . S
C331 H319 0.950 . S
C331 C327 1.393 . S
C331 C330 1.391 . S
H332 C340 0.950 . S
H333 C345 0.950 . S
H334 C342 0.950 . S
H335 C344 0.950 . S
H336 C346 0.950 . S
H337 C348 0.950 . S
H338 C350 0.950 . S
H339 C351 0.950 . S
C340 H332 0.950 . S
C340 C341 1.386 . S
C340 C342 1.391 . S
C341 C340 1.386 . S
C341 C345 1.393 . S
C342 H334 0.950 . S
C342 C340 1.391 . S
C342 C343 1.400 . S
C343 C342 1.400 . S
C343 C344 1.398 . S
C343 C349 1.491 . S
C344 H335 0.950 . S
C344 C343 1.398 . S
C344 C345 1.391 . S
C345 H333 0.950 . S
C345 C341 1.393 . S
C345 C344 1.391 . S
C346 H336 0.950 . S
C346 C347 1.386 . S
C346 C348 1.391 . S
C347 C346 1.386 . S
C347 C351 1.393 . S
C348 H337 0.950 . S
C348 C346 1.391 . S
C348 C349 1.400 . S
C349 C343 1.491 . S
C349 C348 1.400 . S
C349 C350 1.398 . S
C350 H338 0.950 . S
C350 C349 1.398 . S
C350 C351 1.391 . S
C351 H339 0.950 . S
C351 C347 1.393 . S
C351 C350 1.391 . S
H352 C360 0.950 . S
H353 C365 0.950 . S
H354 C362 0.950 . S
H355 C364 0.950 . S
H356 C366 0.950 1_565 S
H357 C368 0.950 . S
H358 C370 0.950 . S
H359 C371 0.950 . S
C360 H352 0.950 . S
C360 C361 1.386 . S
C360 C362 1.391 . S
C361 C360 1.386 . S
C361 C365 1.393 . S
C362 H354 0.950 . S
C362 C360 1.391 . S
C362 C363 1.400 . S
C363 C362 1.400 . S
C363 C364 1.398 . S
C363 C369 1.491 . S
C364 H355 0.950 . S
C364 C363 1.398 . S
C364 C365 1.391 . S
C365 H353 0.950 . S
C365 C361 1.393 . S
C365 C364 1.391 . S
C366 H356 0.950 1_545 S
C366 C367 1.386 . S
C366 C368 1.391 . S
C367 C366 1.386 . S
C367 C371 1.393 . S
C368 H357 0.950 . S
C368 C366 1.391 . S
C368 C369 1.400 . S
C369 C363 1.491 . S
C369 C368 1.400 . S
C369 C370 1.398 . S
C370 H358 0.950 . S
C370 C369 1.398 . S
C370 C371 1.391 . S
C371 H359 0.950 . S
C371 C367 1.393 . S
C371 C370 1.391 . S
H372 C380 0.950 . S
H373 C385 0.950 . S
H374 C382 0.950 . S
H375 C384 0.950 . S
H376 C386 0.950 . S
H377 C388 0.950 . S
H378 C390 0.950 . S
H379 C391 0.950 . S
C380 H372 0.950 . S
C380 C381 1.386 . S
C380 C382 1.391 . S
C381 C380 1.386 . S
C381 C385 1.393 . S
C382 H374 0.950 . S
C382 C380 1.391 . S
C382 C383 1.400 . S
C383 C382 1.400 . S
C383 C384 1.398 . S
C383 C389 1.491 . S
C384 H375 0.950 . S
C384 C383 1.398 . S
C384 C385 1.391 . S
C385 H373 0.950 . S
C385 C381 1.393 . S
C385 C384 1.391 . S
C386 H376 0.950 . S
C386 C387 1.386 . S
C386 C388 1.391 . S
C387 C386 1.386 . S
C387 C391 1.393 . S
C388 H377 0.950 . S
C388 C386 1.391 . S
C388 C389 1.400 . S
C389 C383 1.491 . S
C389 C388 1.400 . S
C389 C390 1.398 . S
C390 H378 0.950 . S
C390 C389 1.398 . S
C390 C391 1.391 . S
C391 H379 0.950 . S
C391 C387 1.393 . S
C391 C390 1.391 . S
H392 C400 0.950 . S
H393 C405 0.950 . S
H394 C402 0.950 . S
H395 C404 0.950 . S
H396 C406 0.950 . S
H397 C408 0.950 . S
H398 C410 0.950 . S
H399 C411 0.950 . S
C400 H392 0.950 . S
C400 C401 1.386 . S
C400 C402 1.391 . S
C401 C400 1.386 . S
C401 C405 1.393 . S
C402 H394 0.950 . S
C402 C400 1.391 . S
C402 C403 1.400 . S
C403 C402 1.400 . S
C403 C404 1.398 . S
C403 C409 1.491 . S
C404 H395 0.950 . S
C404 C403 1.398 . S
C404 C405 1.391 . S
C405 H393 0.950 . S
C405 C401 1.393 . S
C405 C404 1.391 . S
C406 H396 0.950 . S
C406 C407 1.386 . S
C406 C408 1.391 . S
C407 C406 1.386 . S
C407 C411 1.393 . S
C408 H397 0.950 . S
C408 C406 1.391 . S
C408 C409 1.400 . S
C409 C403 1.491 . S
C409 C408 1.400 . S
C409 C410 1.398 . S
C410 H398 0.950 . S
C410 C409 1.398 . S
C410 C411 1.391 . S
C411 H399 0.950 . S
C411 C407 1.393 . S
C411 C410 1.391 . S
H412 C420 0.950 . S
H413 C425 0.950 . S
H414 C422 0.950 . S
H415 C424 0.950 . S
H416 C426 0.950 . S
H417 C428 0.950 . S
H418 C430 0.950 . S
H419 C431 0.950 1_556 S
C420 H412 0.950 . S
C420 C421 1.386 . S
C420 C422 1.391 . S
C421 C420 1.386 . S
C421 C425 1.393 . S
C422 H414 0.950 . S
C422 C420 1.391 . S
C422 C423 1.400 . S
C423 C422 1.400 . S
C423 C424 1.398 . S
C423 C429 1.491 . S
C424 H415 0.950 . S
C424 C423 1.398 . S
C424 C425 1.391 . S
C425 H413 0.950 . S
C425 C421 1.393 . S
C425 C424 1.391 . S
C426 H416 0.950 . S
C426 C427 1.386 . S
C426 C428 1.391 . S
C427 C426 1.386 . S
C427 C431 1.393 . S
C428 H417 0.950 . S
C428 C426 1.391 . S
C428 C429 1.400 . S
C429 C423 1.491 . S
C429 C428 1.400 . S
C429 C430 1.398 . S
C430 H418 0.950 . S
C430 C429 1.398 . S
C430 C431 1.391 . S
C431 H419 0.950 1_554 S
C431 C427 1.393 . S
C431 C430 1.391 . S
H432 C440 0.950 . S
H433 C445 0.950 . S
H434 C442 0.950 1_554 S
H435 C444 0.950 . S
H436 C446 0.950 . S
H437 C448 0.950 1_556 S
H438 C450 0.950 . S
H439 C451 0.950 . S
C440 H432 0.950 . S
C440 C441 1.386 . S
C440 C442 1.391 . S
C441 C440 1.386 . S
C441 C445 1.393 . S
C442 H434 0.950 1_556 S
C442 C440 1.391 . S
C442 C443 1.400 . S
C443 C442 1.400 . S
C443 C444 1.398 . S
C443 C449 1.491 1_556 S
C444 H435 0.950 . S
C444 C443 1.398 . S
C444 C445 1.391 . S
C445 H433 0.950 . S
C445 C441 1.393 . S
C445 C444 1.391 . S
C446 H436 0.950 . S
C446 C447 1.386 . S
C446 C448 1.391 . S
C447 C446 1.386 . S
C447 C451 1.393 . S
C448 H437 0.950 1_554 S
C448 C446 1.391 . S
C448 C449 1.400 . S
C449 C443 1.491 1_554 S
C449 C448 1.400 . S
C449 C450 1.398 . S
C450 H438 0.950 . S
C450 C449 1.398 . S
C450 C451 1.391 . S
C451 H439 0.950 . S
C451 C447 1.393 . S
C451 C450 1.391 . S
H452 C460 0.950 . S
H453 C465 0.950 . S
H454 C462 0.950 . S
H455 C464 0.950 . S
H456 C466 0.950 . S
H457 C468 0.950 . S
H458 C470 0.950 . S
H459 C471 0.950 . S
C460 H452 0.950 . S
C460 C461 1.386 . S
C460 C462 1.391 . S
C461 C460 1.386 . S
C461 C465 1.393 . S
C462 H454 0.950 . S
C462 C460 1.391 . S
C462 C463 1.400 . S
C463 C462 1.400 . S
C463 C464 1.398 . S
C463 C469 1.491 . S
C464 H455 0.950 . S
C464 C463 1.398 . S
C464 C465 1.391 . S
C465 H453 0.950 . S
C465 C461 1.393 . S
C465 C464 1.391 . S
C466 H456 0.950 . S
C466 C467 1.386 . S
C466 C468 1.391 . S
C467 C466 1.386 . S
C467 C471 1.393 . S
C468 H457 0.950 . S
C468 C466 1.391 . S
C468 C469 1.400 . S
C469 C463 1.491 . S
C469 C468 1.400 . S
C469 C470 1.398 . S
C470 H458 0.950 . S
C470 C469 1.398 . S
C470 C471 1.391 . S
C471 H459 0.950 . S
C471 C467 1.393 . S
C471 C470 1.391 . S
H472 C480 0.950 . S
H473 C485 0.950 . S
H474 C482 0.950 . S
H475 C484 0.950 . S
H476 C486 0.950 . S
H477 C488 0.950 . S
H478 C490 0.950 . S
H479 C491 0.950 . S
C480 H472 0.950 . S
C480 C481 1.386 . S
C480 C482 1.391 . S
C481 C480 1.386 . S
C481 C485 1.393 . S
C482 H474 0.950 . S
C482 C480 1.391 . S
C482 C483 1.400 . S
C483 C482 1.400 . S
C483 C484 1.398 . S
C483 C489 1.491 . S
C484 H475 0.950 . S
C484 C483 1.398 . S
C484 C485 1.391 . S
C485 H473 0.950 . S
C485 C481 1.393 . S
C485 C484 1.391 . S
C486 H476 0.950 . S
C486 C487 1.386 . S
C486 C488 1.391 . S
C487 C486 1.386 . S
C487 C491 1.393 . S
C488 H477 0.950 . S
C488 C486 1.391 . S
C488 C489 1.400 . S
C489 C483 1.491 . S
C489 C488 1.400 . S
C489 C490 1.398 . S
C490 H478 0.950 . S
C490 C489 1.398 . S
C490 C491 1.391 . S
C491 H479 0.950 . S
C491 C487 1.393 . S
C491 C490 1.391 . S
H492 C500 0.950 . S
H493 C505 0.950 . S
H494 C502 0.950 . S
H495 C504 0.950 . S
H496 C506 0.950 . S
H497 C508 0.950 . S
H498 C510 0.950 . S
H499 C511 0.950 . S
C500 H492 0.950 . S
C500 C501 1.386 . S
C500 C502 1.391 . S
C501 C500 1.386 . S
C501 C505 1.393 . S
C502 H494 0.950 . S
C502 C500 1.391 . S
C502 C503 1.400 . S
C503 C502 1.400 . S
C503 C504 1.398 . S
C503 C509 1.491 . S
C504 H495 0.950 . S
C504 C503 1.398 . S
C504 C505 1.391 . S
C505 H493 0.950 . S
C505 C501 1.393 . S
C505 C504 1.391 . S
C506 H496 0.950 . S
C506 C507 1.386 . S
C506 C508 1.391 . S
C507 C506 1.386 . S
C507 C511 1.393 . S
C508 H497 0.950 . S
C508 C506 1.391 . S
C508 C509 1.400 . S
C509 C503 1.491 . S
C509 C508 1.400 . S
C509 C510 1.398 . S
C510 H498 0.950 . S
C510 C509 1.398 . S
C510 C511 1.391 . S
C511 H499 0.950 . S
C511 C507 1.393 . S
C511 C510 1.391 . S
H512 C520 0.950 . S
H513 C525 0.950 . S
H514 C522 0.950 . S
H515 C524 0.950 . S
H516 C526 0.950 1_554 S
H517 C528 0.950 . S
H518 C530 0.950 . S
H519 C531 0.950 . S
C520 H512 0.950 . S
C520 C521 1.386 . S
C520 C522 1.391 . S
C521 C520 1.386 . S
C521 C525 1.393 . S
C522 H514 0.950 . S
C522 C520 1.391 . S
C522 C523 1.400 . S
C523 C522 1.400 . S
C523 C524 1.398 . S
C523 C529 1.491 . S
C524 H515 0.950 . S
C524 C523 1.398 . S
C524 C525 1.391 . S
C525 H513 0.950 . S
C525 C521 1.393 . S
C525 C524 1.391 . S
C526 H516 0.950 1_556 S
C526 C527 1.386 1_556 S
C526 C528 1.391 . S
C527 C526 1.386 1_554 S
C527 C531 1.393 1_554 S
C528 H517 0.950 . S
C528 C526 1.391 . S
C528 C529 1.400 . S
C529 C523 1.491 . S
C529 C528 1.400 . S
C529 C530 1.398 . S
C530 H518 0.950 . S
C530 C529 1.398 . S
C530 C531 1.391 . S
C531 H519 0.950 . S
C531 C527 1.393 1_556 S
C531 C530 1.391 . S
H532 C540 0.950 . S
H533 C545 0.950 . S
H534 C542 0.950 . S
H535 C544 0.950 . S
H536 C546 0.950 . S
H537 C548 0.950 . S
H538 C550 0.950 . S
H539 C551 0.950 . S
C540 H532 0.950 . S
C540 C541 1.386 . S
C540 C542 1.391 . S
C541 C540 1.386 . S
C541 C545 1.393 . S
C542 H534 0.950 . S
C542 C540 1.391 . S
C542 C543 1.400 . S
C543 C542 1.400 . S
C543 C544 1.398 . S
C543 C549 1.491 . S
C544 H535 0.950 . S
C544 C543 1.398 . S
C544 C545 1.391 . S
C545 H533 0.950 . S
C545 C541 1.393 . S
C545 C544 1.391 . S
C546 H536 0.950 . S
C546 C547 1.386 . S
C546 C548 1.391 1_556 S
C547 C546 1.386 . S
C547 C551 1.393 . S
C548 H537 0.950 . S
C548 C546 1.391 1_554 S
C548 C549 1.400 . S
C549 C543 1.491 . S
C549 C548 1.400 . S
C549 C550 1.398 . S
C550 H538 0.950 . S
C550 C549 1.398 . S
C550 C551 1.391 1_554 S
C551 H539 0.950 . S
C551 C547 1.393 . S
C551 C550 1.391 1_556 S
H552 C560 0.950 . S
H553 C565 0.950 . S
H554 C562 0.950 . S
H555 C564 0.950 . S
H556 C566 0.950 . S
H557 C568 0.950 . S
H558 C570 0.950 . S
H559 C571 0.950 . S
C560 H552 0.950 . S
C560 C561 1.386 . S
C560 C562 1.391 . S
C561 C560 1.386 . S
C561 C565 1.393 . S
C562 H554 0.950 . S
C562 C560 1.391 . S
C562 C563 1.400 . S
C563 C562 1.400 . S
C563 C564 1.398 . S
C563 C569 1.491 . S
C564 H555 0.950 . S
C564 C563 1.398 . S
C564 C565 1.391 . S
C565 H553 0.950 . S
C565 C561 1.393 . S
C565 C564 1.391 . S
C566 H556 0.950 . S
C566 C567 1.386 . S
C566 C568 1.391 . S
C567 C566 1.386 . S
C567 C571 1.393 . S
C568 H557 0.950 . S
C568 C566 1.391 . S
C568 C569 1.400 . S
C569 C563 1.491 . S
C569 C568 1.400 . S
C569 C570 1.398 . S
C570 H558 0.950 . S
C570 C569 1.398 . S
C570 C571 1.391 . S
C571 H559 0.950 . S
C571 C567 1.393 . S
C571 C570 1.391 . S
H572 C580 0.950 . S
H573 C585 0.950 . S
H574 C582 0.950 . S
H575 C584 0.950 . S
H576 C586 0.950 . S
H577 C588 0.950 . S
H578 C590 0.950 . S
H579 C591 0.950 . S
C580 H572 0.950 . S
C580 C581 1.386 . S
C580 C582 1.391 . S
C581 C580 1.386 . S
C581 C585 1.393 . S
C582 H574 0.950 . S
C582 C580 1.391 . S
C582 C583 1.400 . S
C583 C582 1.400 . S
C583 C584 1.398 . S
C583 C589 1.491 . S
C584 H575 0.950 . S
C584 C583 1.398 . S
C584 C585 1.391 . S
C585 H573 0.950 . S
C585 C581 1.393 . S
C585 C584 1.391 . S
C586 H576 0.950 . S
C586 C587 1.386 . S
C586 C588 1.391 . S
C587 C586 1.386 . S
C587 C591 1.393 . S
C588 H577 0.950 . S
C588 C586 1.391 . S
C588 C589 1.400 . S
C589 C583 1.491 . S
C589 C588 1.400 . S
C589 C590 1.398 . S
C590 H578 0.950 . S
C590 C589 1.398 . S
C590 C591 1.391 . S
C591 H579 0.950 . S
C591 C587 1.393 . S
C591 C590 1.391 . S
H592 C600 0.950 . S
H593 C605 0.950 . S
H594 C602 0.950 . S
H595 C604 0.950 . S
H596 C606 0.950 . S
H597 C608 0.950 . S
H598 C610 0.950 . S
H599 C611 0.950 . S
C600 H592 0.950 . S
C600 C601 1.386 . S
C600 C602 1.391 1_554 S
C601 C600 1.386 . S
C601 C605 1.393 . S
C602 H594 0.950 . S
C602 C600 1.391 1_556 S
C602 C603 1.400 . S
C603 C602 1.400 . S
C603 C604 1.398 . S
C603 C609 1.491 . S
C604 H595 0.950 . S
C604 C603 1.398 . S
C604 C605 1.391 1_556 S
C605 H593 0.950 . S
C605 C601 1.393 . S
C605 C604 1.391 1_554 S
C606 H596 0.950 . S
C606 C607 1.386 . S
C606 C608 1.391 . S
C607 C606 1.386 . S
C607 C611 1.393 . S
C608 H597 0.950 . S
C608 C606 1.391 . S
C608 C609 1.400 . S
C609 C603 1.491 . S
C609 C608 1.400 . S
C609 C610 1.398 . S
C610 H598 0.950 . S
C610 C609 1.398 . S
C610 C611 1.391 . S
C611 H599 0.950 . S
C611 C607 1.393 . S
C611 C610 1.391 . S
H612 C620 0.950 . S
H613 C625 0.950 . S
H614 C622 0.950 . S
H615 C624 0.950 . S
H616 C626 0.950 1_556 S
H617 C628 0.950 . S
H618 C630 0.961 . S
H619 C631 0.933 1_565 S
C620 H612 0.950 . S
C620 C621 1.386 . S
C620 C622 1.391 . S
C621 C620 1.386 . S
C621 C625 1.393 . S
C622 H614 0.950 . S
C622 C620 1.391 . S
C622 C623 1.400 . S
C623 C622 1.400 . S
C623 C624 1.398 . S
C623 C629 1.491 . S
C624 H615 0.950 . S
C624 C623 1.398 . S
C624 C625 1.391 . S
C625 H613 0.950 . S
C625 C621 1.393 . S
C625 C624 1.391 . S
C626 H616 0.950 1_554 S
C626 C627 1.386 1_554 S
C626 C628 1.391 . S
C627 C626 1.386 1_556 S
C627 C631 1.393 1_556 S
C628 H617 0.950 . S
C628 C626 1.391 . S
C628 C629 1.400 . S
C629 C623 1.491 . S
C629 C628 1.400 . S
C629 C630 1.398 . S
C630 H618 0.961 . S
C630 C629 1.398 . S
C630 C631 1.391 . S
C631 H619 0.933 1_545 S
C631 C627 1.393 1_554 S
C631 C630 1.391 . S
H632 C640 0.950 . S
H633 C645 0.950 . S
H634 C642 0.950 . S
H635 C644 0.950 . S
H636 C646 0.950 . S
H637 C648 0.950 . S
H638 C650 0.950 . S
H639 C651 0.950 . S
C640 H632 0.950 . S
C640 C641 1.386 . S
C640 C642 1.391 . S
C641 C640 1.386 . S
C641 C645 1.393 . S
C642 H634 0.950 . S
C642 C640 1.391 . S
C642 C643 1.400 . S
C643 C642 1.400 . S
C643 C644 1.398 . S
C643 C649 1.491 . S
C644 H635 0.950 . S
C644 C643 1.398 . S
C644 C645 1.391 . S
C645 H633 0.950 . S
C645 C641 1.393 . S
C645 C644 1.391 . S
C646 H636 0.950 . S
C646 C647 1.386 . S
C646 C648 1.391 . S
C647 C646 1.386 . S
C647 C651 1.393 . S
C648 H637 0.950 . S
C648 C646 1.391 . S
C648 C649 1.400 . S
C649 C643 1.491 . S
C649 C648 1.400 . S
C649 C650 1.398 . S
C650 H638 0.950 . S
C650 C649 1.398 . S
C650 C651 1.391 . S
C651 H639 0.950 . S
C651 C647 1.393 . S
C651 C650 1.391 . S
H652 C660 0.950 . S
H653 C665 0.950 . S
H654 C662 0.950 . S
H655 C664 0.950 . S
H656 C666 0.950 . S
H657 C668 0.950 . S
H658 C670 0.950 . S
H659 C671 0.950 . S
C660 H652 0.950 . S
C660 C661 1.386 . S
C660 C662 1.391 . S
C661 C660 1.386 . S
C661 C665 1.393 . S
C662 H654 0.950 . S
C662 C660 1.391 . S
C662 C663 1.400 . S
C663 C662 1.400 . S
C663 C664 1.398 . S
C663 C669 1.491 . S
C664 H655 0.950 . S
C664 C663 1.398 . S
C664 C665 1.391 . S
C665 H653 0.950 . S
C665 C661 1.393 . S
C665 C664 1.391 . S
C666 H656 0.950 . S
C666 C667 1.386 . S
C666 C668 1.391 . S
C667 C666 1.386 . S
C667 C671 1.393 . S
C668 H657 0.950 . S
C668 C666 1.391 . S
C668 C669 1.400 . S
C669 C663 1.491 . S
C669 C668 1.400 . S
C669 C670 1.398 . S
C670 H658 0.950 . S
C670 C669 1.398 . S
C670 C671 1.391 . S
C671 H659 0.950 . S
C671 C667 1.393 . S
C671 C670 1.391 . S
H672 C680 0.950 . S
H673 C685 0.950 . S
H674 C682 0.950 . S
H675 C684 0.950 . S
H676 C686 0.950 . S
H677 C688 0.950 . S
H678 C690 0.950 . S
H679 C691 0.950 . S
C680 H672 0.950 . S
C680 C681 1.386 . S
C680 C682 1.391 . S
C681 C680 1.386 . S
C681 C685 1.393 . S
C682 H674 0.950 . S
C682 C680 1.391 . S
C682 C683 1.400 . S
C683 C682 1.400 . S
C683 C684 1.398 . S
C683 C689 1.491 . S
C684 H675 0.950 . S
C684 C683 1.398 . S
C684 C685 1.391 . S
C685 H673 0.950 . S
C685 C681 1.393 . S
C685 C684 1.391 . S
C686 H676 0.950 . S
C686 C687 1.386 . S
C686 C688 1.391 . S
C687 C686 1.386 . S
C687 C691 1.393 . S
C688 H677 0.950 . S
C688 C686 1.391 . S
C688 C689 1.400 . S
C689 C683 1.491 . S
C689 C688 1.400 . S
C689 C690 1.398 . S
C690 H678 0.950 . S
C690 C689 1.398 . S
C690 C691 1.391 . S
C691 H679 0.950 . S
C691 C687 1.393 . S
C691 C690 1.391 . S
H692 C700 0.950 . S
H693 C705 0.950 . S
H694 C702 0.950 . S
H695 C704 0.950 . S
H696 C706 0.950 . S
H697 C708 0.950 . S
H698 C710 0.950 . S
H699 C711 0.950 . S
C700 H692 0.950 . S
C700 C701 1.386 . S
C700 C702 1.391 . S
C701 C700 1.386 . S
C701 C705 1.393 . S
C702 H694 0.950 . S
C702 C700 1.391 . S
C702 C703 1.400 . S
C703 C702 1.400 . S
C703 C704 1.398 . S
C703 C709 1.491 . S
C704 H695 0.950 . S
C704 C703 1.398 . S
C704 C705 1.391 . S
C705 H693 0.950 . S
C705 C701 1.393 . S
C705 C704 1.391 . S
C706 H696 0.950 . S
C706 C707 1.386 . S
C706 C708 1.391 . S
C707 C706 1.386 . S
C707 C711 1.393 . S
C708 H697 0.950 . S
C708 C706 1.391 . S
C708 C709 1.400 . S
C709 C703 1.491 . S
C709 C708 1.400 . S
C709 C710 1.398 . S
C710 H698 0.950 . S
C710 C709 1.398 . S
C710 C711 1.391 . S
C711 H699 0.950 . S
C711 C707 1.393 . S
C711 C710 1.391 . S
H712 C720 0.950 . S
H713 C725 0.950 . S
H714 C722 0.950 . S
H715 C724 0.950 . S
H716 C726 0.950 . S
H717 C728 0.950 . S
H718 C730 0.950 . S
H719 C731 0.950 . S
C720 H712 0.950 . S
C720 C721 1.386 . S
C720 C722 1.391 . S
C721 C720 1.386 . S
C721 C725 1.393 . S
C722 H714 0.950 . S
C722 C720 1.391 . S
C722 C723 1.400 . S
C723 C722 1.400 . S
C723 C724 1.398 . S
C723 C729 1.491 1_556 S
C724 H715 0.950 . S
C724 C723 1.398 . S
C724 C725 1.391 . S
C725 H713 0.950 . S
C725 C721 1.393 . S
C725 C724 1.391 . S
C726 H716 0.950 . S
C726 C727 1.386 . S
C726 C728 1.391 . S
C727 C726 1.386 . S
C727 C731 1.393 . S
C728 H717 0.950 . S
C728 C726 1.391 . S
C728 C729 1.400 . S
C729 C723 1.491 1_554 S
C729 C728 1.400 . S
C729 C730 1.398 . S
C730 H718 0.950 . S
C730 C729 1.398 . S
C730 C731 1.391 . S
C731 H719 0.950 . S
C731 C727 1.393 . S
C731 C730 1.391 . S
H732 C740 0.950 . S
H733 C745 0.950 . S
H734 C742 0.950 . S
H735 C744 0.950 . S
H736 C746 0.950 . S
H737 C748 0.950 . S
H738 C750 0.950 . S
H739 C751 0.950 . S
C740 H732 0.950 . S
C740 C741 1.386 . S
C740 C742 1.391 . S
C741 C740 1.386 . S
C741 C745 1.393 . S
C742 H734 0.950 . S
C742 C740 1.391 . S
C742 C743 1.400 . S
C743 C742 1.400 . S
C743 C744 1.398 . S
C743 C749 1.491 . S
C744 H735 0.950 . S
C744 C743 1.398 . S
C744 C745 1.391 . S
C745 H733 0.950 . S
C745 C741 1.393 . S
C745 C744 1.391 . S
C746 H736 0.950 . S
C746 C747 1.386 . S
C746 C748 1.391 . S
C747 C746 1.386 . S
C747 C751 1.393 . S
C748 H737 0.950 . S
C748 C746 1.391 . S
C748 C749 1.400 . S
C749 C743 1.491 . S
C749 C748 1.400 . S
C749 C750 1.398 . S
C750 H738 0.950 . S
C750 C749 1.398 . S
C750 C751 1.391 . S
C751 H739 0.950 . S
C751 C747 1.393 . S
C751 C750 1.391 . S
H752 C760 0.950 . S
H753 C765 0.950 . S
H754 C762 0.950 . S
H755 C764 0.950 . S
H756 C766 0.950 . S
H757 C768 0.950 . S
H758 C770 0.950 . S
H759 C771 0.950 . S
C760 H752 0.950 . S
C760 C761 1.386 . S
C760 C762 1.391 . S
C761 C760 1.386 . S
C761 C765 1.393 . S
C762 H754 0.950 . S
C762 C760 1.391 . S
C762 C763 1.400 . S
C763 C762 1.400 . S
C763 C764 1.398 . S
C763 C769 1.491 . S
C764 H755 0.950 . S
C764 C763 1.398 . S
C764 C765 1.391 . S
C765 H753 0.950 . S
C765 C761 1.393 . S
C765 C764 1.391 . S
C766 H756 0.950 . S
C766 C767 1.386 . S
C766 C768 1.391 . S
C767 C766 1.386 . S
C767 C771 1.393 . S
C768 H757 0.950 . S
C768 C766 1.391 . S
C768 C769 1.400 . S
C769 C763 1.491 . S
C769 C768 1.400 . S
C769 C770 1.398 . S
C770 H758 0.950 . S
C770 C769 1.398 . S
C770 C771 1.391 . S
C771 H759 0.950 . S
C771 C767 1.393 . S
C771 C770 1.391 . S
H772 C780 0.950 . S
H773 C785 0.950 . S
H774 C782 0.950 . S
H775 C784 0.950 . S
H776 C786 0.950 . S
H777 C788 0.950 . S
H778 C790 0.950 . S
H779 C791 0.950 . S
C780 H772 0.950 . S
C780 C781 1.386 . S
C780 C782 1.391 . S
C781 C780 1.386 . S
C781 C785 1.393 . S
C782 H774 0.950 . S
C782 C780 1.391 . S
C782 C783 1.400 . S
C783 C782 1.400 . S
C783 C784 1.398 . S
C783 C789 1.491 . S
C784 H775 0.950 . S
C784 C783 1.398 . S
C784 C785 1.391 . S
C785 H773 0.950 . S
C785 C781 1.393 . S
C785 C784 1.391 . S
C786 H776 0.950 . S
C786 C787 1.386 . S
C786 C788 1.391 . S
C787 C786 1.386 . S
C787 C791 1.393 . S
C788 H777 0.950 . S
C788 C786 1.391 . S
C788 C789 1.400 . S
C789 C783 1.491 . S
C789 C788 1.400 . S
C789 C790 1.398 . S
C790 H778 0.950 . S
C790 C789 1.398 . S
C790 C791 1.391 . S
C791 H779 0.950 . S
C791 C787 1.393 . S
C791 C790 1.391 . S
H792 C800 0.950 . S
H793 C805 0.950 . S
H794 C802 0.950 . S
H795 C804 0.950 . S
H796 C806 0.950 . S
H797 C808 0.950 . S
H798 C810 0.950 . S
H799 C811 0.950 . S
C800 H792 0.950 . S
C800 C801 1.386 . S
C800 C802 1.391 . S
C801 C800 1.386 . S
C801 C805 1.393 . S
C802 H794 0.950 . S
C802 C800 1.391 . S
C802 C803 1.400 . S
C803 C802 1.400 . S
C803 C804 1.398 . S
C803 C809 1.491 . S
C804 H795 0.950 . S
C804 C803 1.398 . S
C804 C805 1.391 . S
C805 H793 0.950 . S
C805 C801 1.393 . S
C805 C804 1.391 . S
C806 H796 0.950 . S
C806 C807 1.386 . S
C806 C808 1.391 . S
C807 C806 1.386 . S
C807 C811 1.393 . S
C808 H797 0.950 . S
C808 C806 1.391 . S
C808 C809 1.400 . S
C809 C803 1.491 . S
C809 C808 1.400 . S
C809 C810 1.398 . S
C810 H798 0.950 . S
C810 C809 1.398 . S
C810 C811 1.391 . S
C811 H799 0.950 . S
C811 C807 1.393 . S
C811 C810 1.391 . S
H812 C820 0.950 . S
H813 C825 0.950 . S
H814 C822 0.950 . S
H815 C824 0.950 . S
H816 C826 0.950 . S
H817 C828 0.950 . S
H818 C830 0.950 . S
H819 C831 0.950 . S
C820 H812 0.950 . S
C820 C821 1.386 . S
C820 C822 1.391 . S
C821 C820 1.386 . S
C821 C825 1.393 . S
C822 H814 0.950 . S
C822 C820 1.391 . S
C822 C823 1.400 . S
C823 C822 1.400 . S
C823 C824 1.398 . S
C823 C829 1.491 1_556 S
C824 H815 0.950 . S
C824 C823 1.398 . S
C824 C825 1.391 . S
C825 H813 0.950 . S
C825 C821 1.393 . S
C825 C824 1.391 . S
C826 H816 0.950 . S
C826 C827 1.386 . S
C826 C828 1.391 . S
C827 C826 1.386 . S
C827 C831 1.393 . S
C828 H817 0.950 . S
C828 C826 1.391 . S
C828 C829 1.400 . S
C829 C823 1.491 1_554 S
C829 C828 1.400 . S
C829 C830 1.398 . S
C830 H818 0.950 . S
C830 C829 1.398 . S
C830 C831 1.391 . S
C831 H819 0.950 . S
C831 C827 1.393 . S
C831 C830 1.391 . S
C281 C15 1.686 . S
C287 C51 1.710 . S
C301 C85 1.635 1_455 S
C307 C56 1.555 . S
C321 C119 1.606 1_556 S
C327 C83 1.515 . S
C341 C17 1.765 1_655 S
C347 C117 1.767 . S
C361 C151 1.551 . S
C367 C255 1.634 1_545 S
C381 C192 1.692 . S
C387 C153 1.711 . S
C401 C187 1.768 1_565 S
C407 C219 1.773 . S
C421 C253 1.541 . S
C427 C221 1.599 1_554 S
C441 C173 2.603 . S
C447 C1 2.609 . S
C461 C205 2.397 . S
C467 C37 2.407 . S
C481 C69 2.620 . S
C487 C239 2.629 . S
C501 C137 2.396 . S
C507 C103 2.388 . S
C521 C28 1.179 . S
C527 C6 1.180 . S
C541 C62 1.184 . S
C547 C40 1.180 . S
C561 C74 1.184 . S
C567 C96 1.191 . S
C581 C130 1.191 . S
C587 C108 1.184 . S
C601 C164 1.180 . S
C607 C142 1.184 . S
C621 C176 1.174 . S
C627 C198 1.182 . S
C641 C210 1.190 . S
C647 C232 1.187 . S
C661 C266 1.186 . S
C667 C244 1.192 . S
C681 C171 1.277 . S
C687 C3 1.296 . S
C701 C207 1.404 . S
C707 C35 1.385 . S
C721 C71 1.218 . S
C727 C241 1.226 . S
C741 C139 1.420 . S
C747 C105 1.403 . S
C761 C22 1.475 . S
C767 C260 1.484 . S
C781 C158 1.452 . S
C787 C49 1.450 . S
C801 C185 1.479 . S
C807 C90 1.489 . S
C821 C124 1.809 . S
C827 C226 1.809 . S
