# Generated by pormake.
# Topology whz, (6)-cn, num edge types: 1
# Building blocks:
#     Node 0, Type 0, BuildingBlock: VOLQOD_clean_sbu_1, # of connection points: 6
#     Node 1, Type 0, BuildingBlock: VOLQOD_clean_sbu_1, # of connection points: 6
#     Node 2, Type 0, BuildingBlock: VOLQOD_clean_sbu_1, # of connection points: 6
#     Node 3, Type 0, BuildingBlock: VOLQOD_clean_sbu_1, # of connection points: 6
#     Node 4, Type 0, BuildingBlock: VOLQOD_clean_sbu_1, # of connection points: 6
#     Node 5, Type 0, BuildingBlock: VOLQOD_clean_sbu_1, # of connection points: 6
#     Node 6, Type 0, BuildingBlock: VOLQOD_clean_sbu_1, # of connection points: 6
#     Node 7, Type 0, BuildingBlock: VOLQOD_clean_sbu_1, # of connection points: 6
#     Node 8, Type 0, BuildingBlock: VOLQOD_clean_sbu_1, # of connection points: 6
#     Node 9, Type 0, BuildingBlock: VOLQOD_clean_sbu_1, # of connection points: 6
#     Node 10, Type 0, BuildingBlock: VOLQOD_clean_sbu_1, # of connection points: 6
#     Node 11, Type 0, BuildingBlock: VOLQOD_clean_sbu_1, # of connection points: 6
#     Node 12, Type 0, BuildingBlock: VOLQOD_clean_sbu_1, # of connection points: 6
#     Node 13, Type 0, BuildingBlock: VOLQOD_clean_sbu_1, # of connection points: 6
#     Node 14, Type 0, BuildingBlock: VOLQOD_clean_sbu_1, # of connection points: 6
#     Node 15, Type 0, BuildingBlock: VOLQOD_clean_sbu_1, # of connection points: 6
#     Edge 16, Type (0, 0), BuildingBlock: OJICUG_clean_linker_0, # of connection points: 2
#     Edge 17, Type (0, 0), BuildingBlock: OJICUG_clean_linker_0, # of connection points: 2
#     Edge 18, Type (0, 0), BuildingBlock: OJICUG_clean_linker_0, # of connection points: 2
#     Edge 19, Type (0, 0), BuildingBlock: OJICUG_clean_linker_0, # of connection points: 2
#     Edge 20, Type (0, 0), BuildingBlock: OJICUG_clean_linker_0, # of connection points: 2
#     Edge 21, Type (0, 0), BuildingBlock: OJICUG_clean_linker_0, # of connection points: 2
#     Edge 22, Type (0, 0), BuildingBlock: OJICUG_clean_linker_0, # of connection points: 2
#     Edge 23, Type (0, 0), BuildingBlock: OJICUG_clean_linker_0, # of connection points: 2
#     Edge 24, Type (0, 0), BuildingBlock: OJICUG_clean_linker_0, # of connection points: 2
#     Edge 25, Type (0, 0), BuildingBlock: OJICUG_clean_linker_0, # of connection points: 2
#     Edge 26, Type (0, 0), BuildingBlock: OJICUG_clean_linker_0, # of connection points: 2
#     Edge 27, Type (0, 0), BuildingBlock: OJICUG_clean_linker_0, # of connection points: 2
#     Edge 28, Type (0, 0), BuildingBlock: OJICUG_clean_linker_0, # of connection points: 2
#     Edge 29, Type (0, 0), BuildingBlock: OJICUG_clean_linker_0, # of connection points: 2
#     Edge 30, Type (0, 0), BuildingBlock: OJICUG_clean_linker_0, # of connection points: 2
#     Edge 31, Type (0, 0), BuildingBlock: OJICUG_clean_linker_0, # of connection points: 2
#     Edge 32, Type (0, 0), BuildingBlock: OJICUG_clean_linker_0, # of connection points: 2
#     Edge 33, Type (0, 0), BuildingBlock: OJICUG_clean_linker_0, # of connection points: 2
#     Edge 34, Type (0, 0), BuildingBlock: OJICUG_clean_linker_0, # of connection points: 2
#     Edge 35, Type (0, 0), BuildingBlock: OJICUG_clean_linker_0, # of connection points: 2
#     Edge 36, Type (0, 0), BuildingBlock: OJICUG_clean_linker_0, # of connection points: 2
#     Edge 37, Type (0, 0), BuildingBlock: OJICUG_clean_linker_0, # of connection points: 2
#     Edge 38, Type (0, 0), BuildingBlock: OJICUG_clean_linker_0, # of connection points: 2
#     Edge 39, Type (0, 0), BuildingBlock: OJICUG_clean_linker_0, # of connection points: 2
#     Edge 40, Type (0, 0), BuildingBlock: OJICUG_clean_linker_0, # of connection points: 2
#     Edge 41, Type (0, 0), BuildingBlock: OJICUG_clean_linker_0, # of connection points: 2
#     Edge 42, Type (0, 0), BuildingBlock: OJICUG_clean_linker_0, # of connection points: 2
#     Edge 43, Type (0, 0), BuildingBlock: OJICUG_clean_linker_0, # of connection points: 2
#     Edge 44, Type (0, 0), BuildingBlock: OJICUG_clean_linker_0, # of connection points: 2
#     Edge 45, Type (0, 0), BuildingBlock: OJICUG_clean_linker_0, # of connection points: 2
#     Edge 46, Type (0, 0), BuildingBlock: OJICUG_clean_linker_0, # of connection points: 2
#     Edge 47, Type (0, 0), BuildingBlock: OJICUG_clean_linker_0, # of connection points: 2
#     Edge 48, Type (0, 0), BuildingBlock: OJICUG_clean_linker_0, # of connection points: 2
#     Edge 49, Type (0, 0), BuildingBlock: OJICUG_clean_linker_0, # of connection points: 2
#     Edge 50, Type (0, 0), BuildingBlock: OJICUG_clean_linker_0, # of connection points: 2
#     Edge 51, Type (0, 0), BuildingBlock: OJICUG_clean_linker_0, # of connection points: 2
#     Edge 52, Type (0, 0), BuildingBlock: OJICUG_clean_linker_0, # of connection points: 2
#     Edge 53, Type (0, 0), BuildingBlock: OJICUG_clean_linker_0, # of connection points: 2
#     Edge 54, Type (0, 0), BuildingBlock: OJICUG_clean_linker_0, # of connection points: 2
#     Edge 55, Type (0, 0), BuildingBlock: OJICUG_clean_linker_0, # of connection points: 2
#     Edge 56, Type (0, 0), BuildingBlock: OJICUG_clean_linker_0, # of connection points: 2
#     Edge 57, Type (0, 0), BuildingBlock: OJICUG_clean_linker_0, # of connection points: 2
#     Edge 58, Type (0, 0), BuildingBlock: OJICUG_clean_linker_0, # of connection points: 2
#     Edge 59, Type (0, 0), BuildingBlock: OJICUG_clean_linker_0, # of connection points: 2
#     Edge 60, Type (0, 0), BuildingBlock: OJICUG_clean_linker_0, # of connection points: 2
#     Edge 61, Type (0, 0), BuildingBlock: OJICUG_clean_linker_0, # of connection points: 2
#     Edge 62, Type (0, 0), BuildingBlock: OJICUG_clean_linker_0, # of connection points: 2
#     Edge 63, Type (0, 0), BuildingBlock: OJICUG_clean_linker_0, # of connection points: 2
# Relax obj value: 0.426
# Max RMSD: 0.199
# Mean RMSD: 0.199
data_MOF--net-whz--node1-VOLQOD_clean_sbu_1--edge1-OJICUG_clean_linker_0
_symmetry_space_group_name_H-M    P1
_symmetry_Int_Tables_number       1
_symmetry_cell_setting            triclinic
loop_
_symmetry_equiv_pos_as_xyz
'x, y, z'
_cell_length_a     28.623267
_cell_length_b     28.667003
_cell_length_c     40.753671
_cell_angle_alpha  90.090614
_cell_angle_beta   89.996991
_cell_angle_gamma 89.775104
loop_
_atom_site_label
_atom_site_type_symbol
_atom_site_fract_x
_atom_site_fract_y
_atom_site_fract_z
_atom_type_partial_charge
O0 O 0.24492 0.12823 0.20317 0.0
Zn1 Zn 0.23214 0.13626 0.15616 0.0
O2 O 0.28471 0.11883 0.12989 0.0
Zn3 Zn 0.27223 0.05781 0.11178 0.0
Zn4 Zn 0.33352 0.12007 0.16187 0.0
Zn5 Zn 0.29884 0.16494 0.09767 0.0
O6 O 0.28617 0.05924 0.06193 0.0
O7 O 0.28762 0.13634 0.0539 0.0
O8 O 0.1763 0.09885 0.14753 0.0
O9 O 0.20306 0.04304 0.11467 0.0
O10 O 0.30195 0.00967 0.14329 0.0
O11 O 0.34091 0.05533 0.17843 0.0
O12 O 0.39215 0.14801 0.14454 0.0
O13 O 0.21822 0.20344 0.14982 0.0
O14 O 0.36629 0.18534 0.10034 0.0
O15 O 0.25889 0.22238 0.1052 0.0
C16 C 0.27557 0.15505 0.21496 0.0
C17 C 0.28602 0.09478 0.04272 0.0
C18 C 0.32633 0.01539 0.16938 0.0
C19 C 0.16999 0.0623 0.13066 0.0
C20 C 0.39893 0.17528 0.12039 0.0
C21 C 0.23052 0.23286 0.12823 0.0
O22 O 0.31357 0.16131 0.1995 0.0
O23 O 0.57714 0.48006 0.45061 0.0
Zn24 Zn 0.56833 0.47483 0.40267 0.0
O25 O 0.59086 0.52869 0.38037 0.0
Zn26 Zn 0.65252 0.51299 0.3643 0.0
Zn27 Zn 0.58904 0.57422 0.41478 0.0
Zn28 Zn 0.54724 0.54781 0.34715 0.0
O29 O 0.65236 0.52228 0.31351 0.0
O30 O 0.57639 0.53445 0.30362 0.0
O31 O 0.59914 0.4161 0.39029 0.0
O32 O 0.66669 0.44424 0.37299 0.0
O33 O 0.70054 0.54581 0.39405 0.0
O34 O 0.65445 0.58129 0.43096 0.0
O35 O 0.56039 0.63438 0.39975 0.0
O36 O 0.50042 0.4705 0.39666 0.0
O37 O 0.53189 0.61638 0.35067 0.0
O38 O 0.48501 0.5153 0.35349 0.0
C39 C 0.55141 0.5104 0.46422 0.0
C40 C 0.61796 0.52708 0.29342 0.0
C41 C 0.69477 0.56901 0.42068 0.0
C42 C 0.64148 0.41008 0.38217 0.0
C43 C 0.5381 0.64554 0.37385 0.0
C44 C 0.47184 0.4878 0.37621 0.0
O45 O 0.54742 0.55054 0.45126 0.0
O46 O 0.22522 0.82919 0.70453 0.0
Zn47 Zn 0.23631 0.82456 0.65687 0.0
O48 O 0.18251 0.84227 0.6316 0.0
Zn49 Zn 0.19385 0.90376 0.61384 0.0
Zn50 Zn 0.13496 0.83959 0.66449 0.0
Zn51 Zn 0.16697 0.79708 0.59872 0.0
O52 O 0.18166 0.90273 0.5637 0.0
O53 O 0.17922 0.82584 0.55484 0.0
O54 O 0.29145 0.86359 0.64875 0.0
O55 O 0.26242 0.92052 0.61795 0.0
O56 O 0.16197 0.95106 0.64485 0.0
O57 O 0.12709 0.90429 0.68135 0.0
O58 O 0.07589 0.81172 0.64789 0.0
O59 O 0.2501 0.75779 0.64883 0.0
O60 O 0.09913 0.77721 0.60184 0.0
O61 O 0.20556 0.73885 0.60602 0.0
C62 C 0.19486 0.80178 0.71602 0.0
C63 C 0.18187 0.86756 0.54409 0.0
C64 C 0.13913 0.94471 0.67154 0.0
C65 C 0.29629 0.90147 0.63317 0.0
C66 C 0.06769 0.78582 0.62318 0.0
C67 C 0.23548 0.72824 0.628 0.0
O68 O 0.15626 0.79685 0.70105 0.0
O69 O 0.88405 0.47832 0.95376 0.0
Zn70 Zn 0.88895 0.48722 0.90577 0.0
O71 O 0.87297 0.43241 0.88132 0.0
Zn72 Zn 0.8122 0.44311 0.8619 0.0
Zn73 Zn 0.8751 0.38627 0.91505 0.0
Zn74 Zn 0.91994 0.41573 0.84987 0.0
O75 O 0.81648 0.43041 0.81195 0.0
O76 O 0.89402 0.4298 0.80522 0.0
O77 O 0.84967 0.54134 0.89632 0.0
O78 O 0.79375 0.51157 0.86507 0.0
O79 O 0.76391 0.41105 0.89179 0.0
O80 O 0.8095 0.37895 0.93048 0.0
O81 O 0.90372 0.32654 0.89946 0.0
O82 O 0.95504 0.50189 0.89784 0.0
O83 O 0.93718 0.34744 0.8526 0.0
O84 O 0.97925 0.45133 0.85995 0.0
C85 C 0.91165 0.44851 0.96598 0.0
C86 C 0.85274 0.43179 0.79335 0.0
C87 C 0.76931 0.38968 0.91917 0.0
C88 C 0.81223 0.54576 0.88013 0.0
C89 C 0.92863 0.31693 0.87444 0.0
C90 C -0.01282 0.48445 0.88011 0.0
O91 O 0.91693 0.40933 0.95177 0.0
O92 O 0.7223 0.83087 0.81544 0.0
Zn93 Zn 0.73435 0.82566 0.86293 0.0
O94 O 0.68104 0.84282 0.88885 0.0
Zn95 Zn 0.69223 0.90409 0.90703 0.0
Zn96 Zn 0.6332 0.84035 0.85621 0.0
Zn97 Zn 0.66629 0.7972 0.9214 0.0
O98 O 0.67982 0.90265 0.95717 0.0
O99 O 0.67813 0.82565 0.96546 0.0
O100 O 0.78918 0.86494 0.87092 0.0
O101 O 0.76071 0.92085 0.90304 0.0
O102 O 0.66068 0.95158 0.87612 0.0
O103 O 0.62569 0.90506 0.83943 0.0
O104 O 0.5743 0.81275 0.87312 0.0
O105 O 0.74885 0.75892 0.87038 0.0
O106 O 0.59872 0.77697 0.91833 0.0
O107 O 0.70539 0.73943 0.91357 0.0
C108 C 0.69228 0.80281 0.80424 0.0
C109 C 0.68023 0.86728 0.97653 0.0
C110 C 0.63799 0.9454 0.84934 0.0
C111 C 0.79426 0.90233 0.88711 0.0
C112 C 0.56677 0.78617 0.89752 0.0
C113 C 0.73496 0.72916 0.89126 0.0
O114 O 0.65404 0.79737 0.81955 0.0
O115 O 0.38331 0.47449 0.56574 0.0
Zn116 Zn 0.38803 0.48514 0.61351 0.0
O117 O 0.37193 0.43098 0.6385 0.0
Zn118 Zn 0.31095 0.4419 0.6576 0.0
Zn119 Zn 0.3741 0.38377 0.60537 0.0
Zn120 Zn 0.41896 0.41543 0.67018 0.0
O121 O 0.31501 0.42993 0.70773 0.0
O122 O 0.39254 0.42973 0.71462 0.0
O123 O 0.34831 0.5393 0.62219 0.0
O124 O 0.29272 0.51036 0.65408 0.0
O125 O 0.26278 0.40943 0.62747 0.0
O126 O 0.30872 0.37584 0.58957 0.0
O127 O 0.40266 0.32464 0.62175 0.0
O128 O 0.45413 0.50062 0.62148 0.0
O129 O 0.4368 0.34732 0.66801 0.0
O130 O 0.47815 0.45138 0.66015 0.0
C131 C 0.41107 0.4444 0.55397 0.0
C132 C 0.3512 0.43161 0.72641 0.0
C133 C 0.26842 0.38714 0.60041 0.0
C134 C 0.31101 0.54412 0.63851 0.0
C135 C 0.42801 0.31604 0.6467 0.0
C136 C 0.48616 0.48397 0.63965 0.0
O137 O 0.41625 0.4056 0.56859 0.0
O138 O 0.71769 0.17858 0.33977 0.0
Zn139 Zn 0.71889 0.14708 0.38228 0.0
O140 O 0.78078 0.12525 0.39243 0.0
Zn141 Zn 0.77596 0.06176 0.40878 0.0
Zn142 Zn 0.82052 0.13174 0.35485 0.0
Zn143 Zn 0.80309 0.16821 0.42452 0.0
O144 O 0.78841 0.06272 0.45898 0.0
O145 O 0.7934 0.13938 0.46836 0.0
O146 O 0.67342 0.09629 0.37888 0.0
O147 O 0.70977 0.03755 0.40361 0.0
O148 O 0.81134 0.01796 0.37685 0.0
O149 O 0.82995 0.06784 0.3367 0.0
O150 O 0.8819 0.16187 0.36649 0.0
O151 O 0.6971 0.19652 0.41304 0.0
O152 O 0.87046 0.18431 0.41802 0.0
O153 O 0.76668 0.22803 0.4192 0.0
C154 C 0.7482 0.18756 0.31824 0.0
C155 C 0.79004 0.09761 0.47883 0.0
C156 C 0.82642 0.02647 0.34782 0.0
C157 C 0.6742 0.05467 0.38921 0.0
C158 C 0.89638 0.18123 0.39274 0.0
C159 C 0.72257 0.23236 0.41668 0.0
O160 O 0.79001 0.17263 0.32072 0.0
O161 O 0.08155 0.48849 0.06568 0.0
Zn162 Zn 0.07445 0.47683 0.11316 0.0
O163 O 0.09139 0.52991 0.13928 0.0
Zn164 Zn 0.15237 0.51749 0.15771 0.0
Zn165 Zn 0.08923 0.57739 0.1064 0.0
Zn166 Zn 0.04526 0.54548 0.17162 0.0
O167 O 0.14995 0.52948 0.20793 0.0
O168 O 0.07269 0.53173 0.21583 0.0
O169 O 0.1122 0.42096 0.12194 0.0
O170 O 0.16856 0.44862 0.15379 0.0
O171 O 0.20049 0.54879 0.12709 0.0
O172 O 0.15459 0.58425 0.09006 0.0
O173 O 0.06135 0.63675 0.12331 0.0
O174 O 0.00733 0.46407 0.11969 0.0
O175 O 0.02645 0.61389 0.16922 0.0
O176 O -0.0131 0.50788 0.16265 0.0
C177 C 0.05241 0.51768 0.05455 0.0
C178 C 0.11425 0.52891 0.2271 0.0
C179 C 0.19482 0.57163 0.10031 0.0
C180 C 0.14942 0.41522 0.13825 0.0
C181 C 0.03564 0.64534 0.14813 0.0
C182 C 0.97701 0.47857 0.1401 0.0
O183 O 0.04626 0.55593 0.06979 0.0
O184 O 0.72332 0.64425 0.69423 0.0
Zn185 Zn 0.72324 0.64061 0.64572 0.0
O186 O 0.78219 0.62162 0.62795 0.0
Zn187 Zn 0.77459 0.55789 0.61215 0.0
Zn188 Zn 0.82515 0.62791 0.66355 0.0
Zn189 Zn 0.80145 0.66536 0.59474 0.0
O190 O 0.78682 0.55801 0.56183 0.0
O191 O 0.79047 0.63454 0.55153 0.0
O192 O 0.67126 0.6009 0.63303 0.0
O193 O 0.70699 0.53632 0.61655 0.0
O194 O 0.80959 0.51379 0.6438 0.0
O195 O 0.83713 0.56407 0.68111 0.0
O196 O 0.88445 0.65958 0.6497 0.0
O197 O 0.70807 0.70418 0.63235 0.0
O198 O 0.86928 0.68269 0.59883 0.0
O199 O 0.76532 0.7264 0.59925 0.0
C200 C 0.75442 0.66696 0.70948 0.0
C201 C 0.78751 0.5924 0.54157 0.0
C202 C 0.82995 0.52254 0.67114 0.0
C203 C 0.66994 0.55886 0.62366 0.0
C204 C 0.89682 0.67969 0.62325 0.0
C205 C 0.72798 0.73506 0.6152 0.0
O206 O 0.79617 0.6682 0.69876 0.0
O207 O 0.0805 -0.01588 0.95312 0.0
Zn208 Zn 0.07226 0.97735 0.90522 0.0
O209 O 0.09218 0.03141 0.88194 0.0
Zn210 Zn 0.15437 0.01844 0.8654 0.0
Zn211 Zn 0.08913 0.07743 0.91588 0.0
Zn212 Zn 0.04763 0.04786 0.84868 0.0
O213 O 0.15398 0.02821 0.81492 0.0
O214 O 0.07754 0.03647 0.80519 0.0
O215 O 0.10647 0.92071 0.89328 0.0
O216 O 0.17179 0.95037 0.87309 0.0
O217 O 0.20126 0.05255 0.89474 0.0
O218 O 0.15438 0.08653 0.93184 0.0
O219 O 0.05883 0.13627 0.90026 0.0
O220 O 0.00485 0.96793 0.89858 0.0
O221 O 0.02834 0.11558 0.85226 0.0
O222 O -0.01174 0.01031 0.85436 0.0
C223 C 0.05348 0.01379 0.96618 0.0
C224 C 0.11935 0.03128 0.79492 0.0
C225 C 0.19497 0.07551 0.92137 0.0
C226 C 0.1481 0.91578 0.88328 0.0
C227 C 0.03486 0.14572 0.87478 0.0
C228 C 0.97623 -0.0178 0.87703 0.0
O229 O 0.04806 0.05335 0.95259 0.0
O230 O 0.72614 0.33255 0.19889 0.0
Zn231 Zn 0.73484 0.32566 0.15134 0.0
O232 O 0.68046 0.34345 0.12715 0.0
Zn233 Zn 0.69111 0.40535 0.1097 0.0
Zn234 Zn 0.63314 0.34084 0.16027 0.0
Zn235 Zn 0.66557 0.29801 0.09421 0.0
O236 O 0.67739 0.40457 0.05975 0.0
O237 O 0.67599 0.32768 0.0506 0.0
O238 O 0.78991 0.36337 0.14138 0.0
O239 O 0.75973 0.42207 0.11281 0.0
O240 O 0.66028 0.45244 0.14161 0.0
O241 O 0.62301 0.40536 0.17655 0.0
O242 O 0.57522 0.30998 0.1443 0.0
O243 O 0.74804 0.25867 0.14424 0.0
O244 O 0.59825 0.27722 0.09752 0.0
O245 O 0.70527 0.23986 0.10058 0.0
C246 C 0.69481 0.30851 0.21261 0.0
C247 C 0.67747 0.36953 0.04 0.0
C248 C 0.63613 0.44582 0.16768 0.0
C249 C 0.79424 0.40177 0.12642 0.0
C250 C 0.56715 0.2846 0.1193 0.0
C251 C 0.73451 0.22923 0.12301 0.0
O252 O 0.65573 0.30238 0.19849 0.0
O253 O 0.39136 -0.01776 0.45023 0.0
Zn254 Zn 0.39899 -0.01323 0.40221 0.0
O255 O 0.376 0.93253 0.38052 0.0
Zn256 Zn 0.31354 0.94775 0.36561 0.0
Zn257 Zn 0.37924 0.88715 0.41493 0.0
Zn258 Zn 0.41869 0.91361 0.34651 0.0
O259 O 0.31185 0.93798 0.31486 0.0
O260 O 0.38735 0.92535 0.30362 0.0
O261 O 0.36747 0.04521 0.38989 0.0
O262 O 0.29928 0.01664 0.37417 0.0
O263 O 0.26684 0.9146 0.39623 0.0
O264 O 0.31438 0.87845 0.43178 0.0
O265 O 0.40907 0.82764 0.39981 0.0
O266 O 0.46679 -0.00846 0.39508 0.0
O267 O 0.43614 0.84548 0.35034 0.0
O268 O 0.48023 0.94808 0.35076 0.0
C269 C 0.41686 0.95189 0.46395 0.0
C270 C 0.34545 0.93267 0.29416 0.0
C271 C 0.27363 0.89067 0.42238 0.0
C272 C 0.32483 0.05103 0.38249 0.0
C273 C 0.43117 0.81661 0.37379 0.0
C274 C 0.49426 0.97532 0.37343 0.0
O275 O 0.42078 0.91159 0.45115 0.0
O276 O 0.25027 0.29449 0.3363 0.0
Zn277 Zn 0.24817 0.32014 0.38087 0.0
O278 O 0.18579 0.33942 0.39252 0.0
Zn279 Zn 0.18821 0.4029 0.40965 0.0
Zn280 Zn 0.14544 0.33271 0.3552 0.0
Zn281 Zn 0.16493 0.29532 0.42435 0.0
O282 O 0.17571 0.40079 0.45985 0.0
O283 O 0.17428 0.32386 0.46858 0.0
O284 O 0.29289 0.37169 0.38133 0.0
O285 O 0.25355 0.42926 0.40535 0.0
O286 O 0.15187 0.44637 0.37808 0.0
O287 O 0.13374 0.39648 0.33778 0.0
O288 O 0.08521 0.3007 0.36683 0.0
O289 O 0.27123 0.26673 0.4076 0.0
O290 O 0.09776 0.27773 0.41805 0.0
O291 O 0.20222 0.23599 0.4183 0.0
C292 C 0.21914 0.28331 0.31572 0.0
C293 C 0.17588 0.36564 0.47942 0.0
C294 C 0.13646 0.4378 0.34913 0.0
C295 C 0.29042 0.41304 0.39212 0.0
C296 C 0.07151 0.28052 0.39292 0.0
C297 C 0.24592 0.23136 0.4134 0.0
O298 O 0.17634 0.29373 0.3202 0.0
O299 O 0.88321 0.97194 0.06461 0.0
Zn300 Zn 0.89 -0.01521 0.11193 0.0
O301 O 0.87282 0.93212 0.13829 0.0
Zn302 Zn 0.81126 0.94461 0.15586 0.0
Zn303 Zn 0.87609 0.88395 0.10577 0.0
Zn304 Zn 0.91842 0.91745 0.17119 0.0
O305 O 0.81267 0.93399 0.20625 0.0
O306 O 0.88971 0.93093 0.215 0.0
O307 O 0.85162 0.04061 0.11965 0.0
O308 O 0.79441 0.01322 0.1508 0.0
O309 O 0.76416 0.91185 0.12515 0.0
O310 O 0.81114 0.87565 0.08908 0.0
O311 O 0.90464 0.82537 0.12309 0.0
O312 O 0.95702 -0.00161 0.1191 0.0
O313 O 0.93884 0.84937 0.16902 0.0
O314 O 0.97608 0.95639 0.16317 0.0
C315 C 0.91275 0.94294 0.05374 0.0
C316 C 0.84796 0.93429 0.22581 0.0
C317 C 0.77057 0.88813 0.09878 0.0
C318 C 0.81373 0.04639 0.13519 0.0
C319 C 0.93037 0.81755 0.14798 0.0
C320 C -0.01348 -0.01486 0.14047 0.0
O321 O 0.91926 0.90505 0.06924 0.0
O322 O 0.22502 0.64254 0.82552 0.0
Zn323 Zn 0.22415 0.63964 0.87406 0.0
O324 O 0.28267 0.62106 0.89256 0.0
Zn325 Zn 0.2753 0.55752 0.90861 0.0
Zn326 Zn 0.32582 0.62694 0.85714 0.0
Zn327 Zn 0.30121 0.66531 0.92568 0.0
O328 O 0.28741 0.55817 0.95899 0.0
O329 O 0.29013 0.63488 0.96898 0.0
O330 O 0.1723 0.59999 0.88665 0.0
O331 O 0.20781 0.53604 0.90443 0.0
O332 O 0.3098 0.51304 0.87676 0.0
O333 O 0.3371 0.5631 0.83933 0.0
O334 O 0.38509 0.65806 0.87129 0.0
O335 O 0.20852 0.70332 0.887 0.0
O336 O 0.36895 0.68278 0.92172 0.0
O337 O 0.26474 0.72613 0.9208 0.0
C338 C 0.25607 0.66596 0.81081 0.0
C339 C 0.28755 0.59283 0.97911 0.0
C340 C 0.32976 0.52163 0.84926 0.0
C341 C 0.1709 0.55833 0.89671 0.0
C342 C 0.39695 0.67891 0.89761 0.0
C343 C 0.22779 0.73446 0.90434 0.0
O344 O 0.29753 0.66765 0.82202 0.0
O345 O 0.58287 -0.01183 0.5669 0.0
Zn346 Zn 0.57412 0.97953 0.6145 0.0
O347 O 0.59419 0.03269 0.6388 0.0
Zn348 Zn 0.65625 0.01915 0.65542 0.0
Zn349 Zn 0.59205 0.07981 0.60563 0.0
Zn350 Zn 0.54913 0.04826 0.67196 0.0
O351 O 0.65548 0.02866 0.70602 0.0
O352 O 0.57894 0.03693 0.71541 0.0
O353 O 0.60834 0.92256 0.6254 0.0
O354 O 0.67305 0.95096 0.64747 0.0
O355 O 0.70372 0.05296 0.62619 0.0
O356 O 0.65736 0.08865 0.58968 0.0
O357 O 0.56216 0.13831 0.62203 0.0
O358 O 0.50657 0.96952 0.62085 0.0
O359 O 0.52921 0.11581 0.66877 0.0
O360 O 0.49014 0.01003 0.66603 0.0
C361 C 0.55607 0.01837 0.55429 0.0
C362 C 0.62065 0.03171 0.72587 0.0
C363 C 0.69779 0.07666 0.59989 0.0
C364 C 0.64947 0.91692 0.6362 0.0
C365 C 0.53689 0.14677 0.64707 0.0
C366 C 0.47807 -0.01736 0.64286 0.0
O367 O 0.55083 0.05753 0.56851 0.0
C368 C 0.29452 0.21716 0.25573 0.0
C369 C 0.26189 0.18679 0.24165 0.0
H370 H 0.30623 0.27236 0.28999 0.0
C371 C 0.21464 0.19004 0.251 0.0
H372 H 0.33099 0.21582 0.24868 0.0
C373 C 0.20029 0.22302 0.27399 0.0
C374 C 0.23301 0.25285 0.28844 0.0
H375 H 0.18844 0.16755 0.24023 0.0
H376 H 0.16382 0.22425 0.28108 0.0
C377 C 0.28023 0.24976 0.27909 0.0
C378 C 0.48438 0.43192 0.52168 0.0
C379 C 0.44541 0.45978 0.52928 0.0
H380 H 0.54927 0.42665 0.49599 0.0
C381 C 0.4426 0.50515 0.51628 0.0
H382 H 0.48794 0.39708 0.53165 0.0
C383 C 0.47813 0.52245 0.49638 0.0
C384 C 0.51711 0.49463 0.4888 0.0
H385 H 0.4132 0.52773 0.52185 0.0
H386 H 0.47451 0.55729 0.48644 0.0
C387 C 0.51987 0.44917 0.50166 0.0
C388 C 0.17939 0.73218 0.75132 0.0
C389 C 0.20937 0.76816 0.74144 0.0
H390 H 0.17103 0.6708 0.7804 0.0
C391 C 0.25549 0.76878 0.75334 0.0
H392 H 0.14388 0.73037 0.74222 0.0
C393 C 0.27134 0.73423 0.77463 0.0
C394 C 0.2413 0.69849 0.78478 0.0
H395 H 0.27974 0.79571 0.74594 0.0
H396 H 0.30685 0.73621 0.7837 0.0
C397 C 0.19519 0.69771 0.77283 0.0
C398 C 0.94145 0.50924 1.00466 0.0
C399 C 0.94586 0.46454 0.99062 0.0
H400 H 0.97212 0.56168 0.03511 0.0
C401 C -0.01369 0.43825 0.99698 0.0
H402 H 0.91084 0.53058 1.00004 0.0
C403 C 0.02177 0.45644 0.01663 0.0
C404 C 0.01748 0.50123 0.03053 0.0
H405 H -0.00886 0.40401 0.98618 0.0
H406 H 0.0524 0.4351 0.02117 0.0
C407 C 0.97689 0.52741 0.02435 0.0
C408 C 0.67731 0.73287 0.769 0.0
C409 C 0.7071 0.76899 0.77897 0.0
H410 H 0.66929 0.67142 0.7398 0.0
C411 C 0.75332 0.76967 0.76723 0.0
H412 H 0.64174 0.73101 0.77798 0.0
C413 C 0.7694 0.7351 0.74596 0.0
C414 C 0.7395 0.69931 0.73565 0.0
H415 H 0.77745 0.79669 0.77472 0.0
H416 H 0.80496 0.73717 0.73699 0.0
C417 C 0.69333 0.69841 0.74749 0.0
C418 C 0.67384 0.2559 0.25889 0.0
C419 C 0.70787 0.28022 0.24119 0.0
H420 H 0.66012 0.20706 0.29714 0.0
C421 C 0.75538 0.2737 0.24891 0.0
H422 H 0.63706 0.26007 0.25329 0.0
C423 C 0.76868 0.24271 0.27346 0.0
C424 C 0.73467 0.21826 0.29106 0.0
H425 H 0.78253 0.29161 0.23542 0.0
H426 H 0.80549 0.2383 0.27886 0.0
C427 C 0.68712 0.2254 0.28379 0.0
C428 C -0.0113 0.93394 0.02395 0.0
C429 C 0.94767 0.95957 0.02987 0.0
H430 H 0.05513 0.93169 1.00003 0.0
C431 C 0.94287 0.00421 0.01592 0.0
H432 H -0.00619 0.89979 0.03474 0.0
C433 C 0.97834 0.02289 0.99661 0.0
C434 C 0.01927 -0.00281 0.99054 0.0
H435 H 0.91185 0.02511 0.02022 0.0
H436 H 0.97312 0.05701 0.9858 0.0
C437 C 0.02414 0.95256 1.00449 0.0
C438 C 0.48976 0.93992 0.49647 0.0
C439 C 0.45082 0.96768 0.48873 0.0
H440 H 0.55447 0.93486 0.52223 0.0
C441 C 0.44782 0.01315 0.50161 0.0
H442 H 0.49352 0.90505 0.4865 0.0
C443 C 0.48311 0.03054 0.52174 0.0
C444 C 0.52206 0.00277 0.52947 0.0
H445 H 0.41842 0.03559 0.49585 0.0
H446 H 0.47938 0.06541 0.53171 0.0
C447 C 0.52507 0.95734 0.51652 0.0
C448 C 0.24882 0.04062 0.96199 0.0
C449 C 0.23334 0.08047 0.94503 0.0
H450 H 0.27768 0.01353 1.00673 0.0
C451 C 0.24362 0.12462 0.95767 0.0
H452 H 0.2403 0.00612 0.95294 0.0
C453 C 0.26558 0.12895 0.9881 0.0
C454 C 0.27613 0.08914 1.0071 0.0
H455 H 0.2313 0.15574 0.94527 0.0
H456 H 0.27036 0.16375 0.99789 0.0
C457 C 0.26977 0.04487 0.99296 0.0
C458 C 0.58457 0.51241 0.23745 0.0
C459 C 0.62426 0.51829 0.25759 0.0
H460 H 0.55732 0.48516 0.19233 0.0
C461 C 0.66859 0.51016 0.24382 0.0
H462 H 0.54974 0.51853 0.24694 0.0
C463 C 0.67273 0.49261 0.21175 0.0
C464 C 0.63268 0.48224 0.19312 0.0
H465 H 0.69987 0.51449 0.25845 0.0
H466 H 0.70703 0.48268 0.20282 0.0
C467 C 0.58872 0.49388 0.20582 0.0
C468 C 0.19834 0.91853 0.49483 0.0
C469 C 0.19289 0.87392 0.50861 0.0
H470 H 0.22685 0.95861 0.45514 0.0
C471 C 0.20494 0.83469 0.48937 0.0
H472 H 0.18936 0.94947 0.50879 0.0
C473 C 0.22687 0.84002 0.45898 0.0
C474 C 0.23583 0.88459 0.44654 0.0
H475 H 0.20109 0.79967 0.4989 0.0
H476 H 0.24002 0.80937 0.44635 0.0
C477 C 0.21934 0.92377 0.46391 0.0
C478 C 0.79875 0.46604 0.71158 0.0
C479 C 0.83759 0.48537 0.69552 0.0
H480 H 0.7727 0.43397 0.7555 0.0
C481 C 0.88197 0.47984 0.70946 0.0
H482 H 0.76396 0.47093 0.70164 0.0
C483 C 0.88714 0.45826 0.73999 0.0
C484 C 0.84777 0.44313 0.75783 0.0
H485 H 0.91226 0.4953 0.69789 0.0
H486 H 0.92174 0.45702 0.75071 0.0
C487 C 0.80371 0.44538 0.74261 0.0
C488 C 0.7229 0.83857 0.06196 0.0
C489 C 0.73266 0.8829 0.07461 0.0
H490 H 0.69697 0.79888 0.02168 0.0
C491 C 0.71727 0.92246 0.05726 0.0
H492 H 0.73521 0.80762 0.07457 0.0
C493 C 0.69668 0.91776 0.02615 0.0
C494 C 0.6906 0.87331 0.01215 0.0
H495 H 0.72543 0.9571 0.0662 0.0
H496 H 0.68864 0.94892 0.01223 0.0
C497 C 0.7014 0.83379 0.03136 0.0
C498 C 0.38093 0.47791 0.81086 0.0
C499 C 0.33661 0.48447 0.82468 0.0
H500 H 0.42044 0.45455 0.76959 0.0
C501 C 0.29738 0.46646 0.80825 0.0
H502 H 0.41153 0.49238 0.82269 0.0
C503 C 0.30204 0.44607 0.77705 0.0
C504 C 0.34616 0.4428 0.762 0.0
H505 H 0.26265 0.4722 0.81807 0.0
H506 H 0.27085 0.43569 0.76394 0.0
C507 C 0.38577 0.45662 0.78015 0.0
C508 C 0.77249 0.04674 0.52784 0.0
C509 C 0.77972 0.09125 0.51436 0.0
H510 H 0.74215 0.00742 0.56719 0.0
C511 C 0.7695 0.13072 0.53389 0.0
H512 H 0.78006 0.01564 0.51364 0.0
C513 C 0.7472 0.12594 0.56419 0.0
C514 C 0.73622 0.08164 0.57621 0.0
H515 H 0.77483 0.16567 0.52461 0.0
H516 H 0.73525 0.15693 0.57698 0.0
C517 C 0.75122 0.04202 0.55867 0.0
C518 C 0.16927 0.49191 0.30792 0.0
C519 C 0.12995 0.47554 0.32505 0.0
H520 H 0.19552 0.5217 0.2633 0.0
C521 C 0.08545 0.48393 0.31205 0.0
H522 H 0.20409 0.48467 0.31709 0.0
C523 C 0.08041 0.50547 0.28145 0.0
C524 C 0.11992 0.51771 0.26263 0.0
H525 H 0.05473 0.47061 0.32437 0.0
H526 H 0.0455 0.50894 0.27149 0.0
C527 C 0.16437 0.51262 0.27691 0.0
C528 C 0.76775 0.62376 0.48588 0.0
C529 C 0.7769 0.58487 0.50614 0.0
H530 H 0.73441 0.64909 0.44223 0.0
C531 C 0.76847 0.54004 0.49345 0.0
H532 H 0.77404 0.65892 0.49452 0.0
C533 C 0.74709 0.53462 0.46268 0.0
C534 C 0.73331 0.57387 0.44435 0.0
H535 H 0.77517 0.50934 0.5082 0.0
H536 H 0.73709 0.49995 0.45478 0.0
C537 C 0.74545 0.61833 0.45561 0.0
C538 C 0.08644 0.0147 0.73914 0.0
C539 C 0.12594 0.02193 0.75924 0.0
H540 H 0.05978 -0.0154 0.69476 0.0
C541 C 0.17047 0.01358 0.74584 0.0
H542 H 0.05149 0.021 0.74836 0.0
C543 C 0.175 -0.00581 0.71436 0.0
C544 C 0.13515 -0.01773 0.69602 0.0
H545 H 0.2016 0.01892 0.76046 0.0
H546 H 0.20944 -0.01592 0.70581 0.0
C547 C 0.09099 -0.00564 0.70812 0.0
C548 C 0.69584 0.33676 0.98444 0.0
C549 C 0.68719 0.37615 1.0044 0.0
H550 H 0.72877 0.31029 0.94092 0.0
C551 C 0.69552 0.42066 0.99124 0.0
H552 H 0.6895 0.30183 0.99345 0.0
C553 C 0.71667 0.42527 0.96036 0.0
C554 C 0.73023 0.38554 0.94239 0.0
H555 H 0.68915 0.45172 1.00575 0.0
H556 H 0.72687 0.4597 0.95215 0.0
C557 C 0.71787 0.3414 0.95403 0.0
C558 C 0.37259 0.96424 0.20608 0.0
C559 C 0.32884 0.9786 0.1945 0.0
H560 H 0.41189 0.93688 0.24611 0.0
C561 C 0.28907 0.97022 0.21389 0.0
H562 H 0.40382 0.97133 0.19194 0.0
C563 C 0.29359 0.95202 0.24571 0.0
C564 C 0.33799 0.94131 0.25845 0.0
H565 H 0.25501 -0.01779 0.20579 0.0
H566 H 0.26277 0.94939 0.26101 0.0
C567 C 0.37705 0.94507 0.23745 0.0
C568 C 0.21455 0.42161 0.5594 0.0
C569 C 0.22954 0.38212 0.577 0.0
H570 H 0.18568 0.44773 0.51437 0.0
C571 C 0.21857 0.33775 0.56494 0.0
H572 H 0.22366 0.45626 0.56788 0.0
C573 C 0.19638 0.33278 0.53458 0.0
C574 C 0.18611 0.37212 0.51503 0.0
H575 H 0.23058 0.30683 0.57772 0.0
H576 H 0.19113 0.29778 0.52528 0.0
C577 C 0.19325 0.4167 0.52856 0.0
C578 C 0.79712 0.95321 0.27484 0.0
C579 C 0.84172 0.94581 0.26127 0.0
H580 H 0.75758 -0.01666 0.31438 0.0
C581 C 0.88119 0.95618 0.28073 0.0
H582 H 0.766 0.94565 0.26072 0.0
C583 C 0.87627 0.97808 0.31125 0.0
C584 C 0.83183 -0.01125 0.32352 0.0
H585 H 0.91621 0.95087 0.27133 0.0
H586 H 0.90722 -0.01016 0.32409 0.0
C587 C 0.79228 0.97435 0.30575 0.0
C588 C 0.24645 0.53621 0.05818 0.0
C589 C 0.2333 0.57578 0.0765 0.0
H590 H 0.27404 0.5102 0.01265 0.0
C591 C 0.24601 0.61997 0.06513 0.0
H592 H 0.23597 0.50175 0.06614 0.0
C593 C 0.26828 0.62486 0.0348 0.0
C594 C 0.27687 0.58571 0.01458 0.0
H595 H 0.23544 0.65098 0.07848 0.0
H596 H 0.27504 0.65987 0.0261 0.0
C597 C 0.26784 0.5411 0.02737 0.0
C598 C 0.58697 0.01579 0.78148 0.0
C599 C 0.62678 0.0224 0.76158 0.0
H600 H 0.55943 -0.01375 0.82572 0.0
C601 C 0.67105 0.0135 0.7752 0.0
H602 H 0.5522 0.02255 0.7721 0.0
C603 C 0.67497 -0.00582 0.8067 0.0
C604 C 0.63476 -0.01711 0.82484 0.0
H605 H 0.7024 0.01834 0.76074 0.0
H606 H 0.70918 -0.01636 0.81543 0.0
C607 C 0.59091 -0.00448 0.81251 0.0
C608 C 0.46556 0.21311 0.1484 0.0
C609 C 0.44315 0.2013 0.11894 0.0
H610 H 0.5213 0.24986 0.17144 0.0
C611 C 0.46135 0.21777 0.0891 0.0
H612 H 0.45194 0.20152 0.17181 0.0
C613 C 0.50192 0.24505 0.08885 0.0
C614 C 0.52354 0.25756 0.11852 0.0
H615 H 0.44442 0.20936 0.06608 0.0
H616 H 0.51597 0.25685 0.06564 0.0
C617 C 0.5049 0.2414 0.14823 0.0
C618 C 0.49986 0.712 0.40266 0.0
C619 C 0.51298 0.69063 0.37301 0.0
H620 H 0.4626 0.76743 0.42603 0.0
C621 C 0.49804 0.71047 0.34324 0.0
H622 H 0.51018 0.69723 0.42603 0.0
C623 C 0.47092 0.75129 0.34324 0.0
C624 C 0.4572 0.77204 0.37301 0.0
H625 H 0.50735 0.69449 0.32003 0.0
H626 H 0.46041 0.76639 0.32002 0.0
C627 C 0.47191 0.75186 0.40267 0.0
C628 C 0.96413 0.71552 0.5928 0.0
C629 C 0.94151 0.7052 0.62255 0.0
H630 H 0.02244 0.74902 0.56956 0.0
C631 C 0.96007 0.72258 0.65197 0.0
H632 H 0.95033 0.70277 0.56973 0.0
C633 C 5e-05 0.75009 0.65175 0.0
C634 C 0.02314 0.76005 0.62217 0.0
H635 H 0.94311 0.71581 0.67524 0.0
H636 H 0.01344 0.76272 0.67498 0.0
C637 C 0.0051 0.74216 0.59267 0.0
C638 C 0.96596 0.25031 0.90323 0.0
C639 C 0.95376 0.27192 0.87354 0.0
H640 H 0.0023 0.19451 0.92675 0.0
C641 C 0.96923 0.2522 0.84383 0.0
H642 H 0.95517 0.26504 0.92655 0.0
C643 C -0.00409 0.21108 0.84394 0.0
C644 C 0.00877 0.19015 0.87379 0.0
H645 H 0.96056 0.26843 0.82062 0.0
H646 H 0.00689 0.19597 0.8208 0.0
C647 C -0.00641 0.21027 0.90337 0.0
C648 C 0.49949 0.74983 0.86903 0.0
C649 C 0.52248 0.76013 0.8986 0.0
H650 H 0.44287 0.71492 0.8456 0.0
C651 C 0.5047 0.74223 0.92813 0.0
H652 H 0.51276 0.76246 0.8458 0.0
C653 C 0.46397 0.71525 0.92804 0.0
C654 C 0.44146 0.70459 0.89831 0.0
H655 H 0.52204 0.74936 0.95121 0.0
H656 H 0.45027 0.70252 0.95111 0.0
C657 C 0.45981 0.72195 0.86885 0.0
C658 C 0.46904 0.25211 0.67768 0.0
C659 C 0.45374 0.27145 0.64786 0.0
H660 H 0.50724 0.19653 0.70097 0.0
C661 C 0.46681 0.25002 0.61825 0.0
H662 H 0.45969 0.26828 0.70083 0.0
C663 C 0.49517 0.21052 0.61831 0.0
C664 C 0.51017 0.19076 0.64799 0.0
H665 H 0.45618 0.26451 0.59486 0.0
H666 H 0.50455 0.19487 0.59499 0.0
C667 C 0.49641 0.21145 0.67776 0.0
C668 C 0.00457 0.24379 0.36332 0.0
C669 C 0.02611 0.25617 0.39306 0.0
H670 H 0.94738 0.20936 0.33991 0.0
C671 C 0.00537 0.24239 0.42275 0.0
H672 H 0.01997 0.25339 0.34002 0.0
C673 C 0.96362 0.21729 0.42268 0.0
C674 C 0.94222 0.20474 0.39292 0.0
H675 H 0.02128 0.25119 0.44605 0.0
H676 H 0.9481 0.20771 0.44595 0.0
C677 C 0.96329 0.21802 0.36325 0.0
C678 C -0.00426 0.71058 0.17911 0.0
C679 C 0.01043 0.6904 0.14933 0.0
H680 H 0.95927 0.76769 0.20223 0.0
C681 C -0.00208 0.71198 0.1197 0.0
H682 H 0.0047 0.69441 0.20228 0.0
C683 C 0.9708 0.75237 0.11965 0.0
C684 C 0.95645 0.77302 0.14925 0.0
H685 H 0.0081 0.69698 0.09633 0.0
H686 H 0.96183 0.76797 0.09627 0.0
C687 C 0.96964 0.75219 0.17908 0.0
C688 C 0.20651 0.30152 0.16171 0.0
C689 C 0.21203 0.28047 0.13073 0.0
H690 H 0.18331 0.36207 0.18835 0.0
C691 C 0.19873 0.30476 0.10245 0.0
H692 H 0.21692 0.28332 0.18384 0.0
C693 C 0.17846 0.34886 0.10517 0.0
C694 C 0.17268 0.3698 0.13609 0.0
H695 H 0.20267 0.28908 0.07839 0.0
H696 H 0.16728 0.36671 0.08308 0.0
C697 C 0.18762 0.34637 0.16434 0.0
C698 C 0.34826 0.45271 0.35714 0.0
C699 C 0.33182 0.44195 0.38868 0.0
H700 H 0.40601 0.47698 0.32838 0.0
C701 C 0.35955 0.45104 0.41614 0.0
H702 H 0.32716 0.44523 0.3357 0.0
C703 C 0.40475 0.46783 0.41194 0.0
C704 C 0.42231 0.47631 0.38025 0.0
H705 H 0.34749 0.44223 0.44056 0.0
H706 H 0.42655 0.47265 0.43342 0.0
C707 C 0.39316 0.47054 0.35295 0.0
C708 C 0.25963 0.65304 0.60259 0.0
C709 C 0.25202 0.67998 0.63077 0.0
H710 H 0.2852 0.58829 0.58334 0.0
C711 C 0.26067 0.66064 0.66193 0.0
H712 H 0.25306 0.66727 0.5784 0.0
C713 C 0.27761 0.6151 0.66479 0.0
C714 C 0.28718 0.58911 0.63649 0.0
H715 H 0.25442 0.68079 0.68404 0.0
H716 H 0.285 0.60095 0.68888 0.0
C717 C 0.27783 0.6081 0.60543 0.0
C718 C 0.07416 0.47479 0.87642 0.0
C719 C 0.03492 0.50184 0.88501 0.0
H720 H 0.14912 0.47112 0.87464 0.0
C721 C 0.0414 0.54519 0.9004 0.0
H722 H 0.07005 0.44088 0.86504 0.0
C723 C 0.08607 0.56207 0.90594 0.0
C724 C 0.12522 0.53572 0.89667 0.0
H725 H 0.01188 0.56667 0.9076 0.0
H726 H 0.09006 0.59642 0.91672 0.0
C727 C 0.1192 0.49155 0.88247 0.0
C728 C 0.76111 0.66201 0.85703 0.0
C729 C 0.75207 0.6811 0.88825 0.0
H730 H 0.78618 0.60266 0.82987 0.0
C731 C 0.75977 0.65408 0.91632 0.0
H732 H 0.75481 0.68221 0.83499 0.0
C733 C 0.77837 0.60932 0.91332 0.0
C734 C 0.78809 0.59057 0.88221 0.0
H735 H 0.75292 0.6681 0.94056 0.0
H736 H 0.78576 0.58946 0.93534 0.0
C737 C 0.77851 0.61663 0.854 0.0
C738 C 0.58491 0.56232 0.61452 0.0
C739 C 0.62419 0.53618 0.62382 0.0
H740 H 0.51066 0.56643 0.61253 0.0
C741 C 0.61824 0.49196 0.6379 0.0
H742 H 0.58878 0.59669 0.60382 0.0
C743 C 0.57322 0.47494 0.64373 0.0
C744 C 0.53387 0.50173 0.63501 0.0
H745 H 0.6482 0.47163 0.64573 0.0
H746 H 0.56921 0.44099 0.65498 0.0
C747 C 0.54025 0.54515 0.6198 0.0
C748 C 0.65342 0.28362 0.40653 0.0
C749 C 0.70201 0.27871 0.40992 0.0
H750 H 0.59639 0.32842 0.39417 0.0
C751 C 0.73083 0.31696 0.40259 0.0
H752 H 0.63024 0.25472 0.41158 0.0
C753 C 0.71141 0.35916 0.392 0.0
C754 C 0.66278 0.36403 0.38878 0.0
H755 H 0.76848 0.31412 0.40443 0.0
H756 H 0.73444 0.3882 0.38704 0.0
C757 C 0.63405 0.32575 0.39613 0.0
C758 C 0.85645 0.43586 0.16045 0.0
C759 C 0.83902 0.42549 0.12911 0.0
H760 H 0.91403 0.46193 0.18851 0.0
C761 C 0.86601 0.43465 0.10128 0.0
H762 H 0.83578 0.42885 0.18216 0.0
C763 C 0.91109 0.4523 0.10495 0.0
C764 C 0.92895 0.46196 0.13642 0.0
H765 H 0.85297 0.42657 0.07698 0.0
H766 H 0.93208 0.45821 0.08321 0.0
C767 C 0.90094 0.45468 0.16409 0.0
C768 C 0.6605 0.78789 0.62238 0.0
C769 C 0.70866 0.78244 0.61725 0.0
H770 H 0.60438 0.83452 0.63315 0.0
C771 C 0.73795 0.82152 0.6192 0.0
H772 H 0.63725 0.75817 0.62133 0.0
C773 C 0.71915 0.8654 0.6268 0.0
C774 C 0.67085 0.8706 0.63202 0.0
H775 H 0.77536 0.81787 0.61598 0.0
H776 H 0.74216 0.89527 0.62801 0.0
C777 C 0.64178 0.83148 0.62951 0.0
C778 C 0.86018 0.93129 0.85376 0.0
C779 C 0.83909 0.92629 0.88469 0.0
H780 H 0.9202 0.95453 0.82698 0.0
C781 C 0.86191 0.94259 0.91279 0.0
H782 H 0.84272 0.91914 0.83177 0.0
C783 C 0.90655 0.96158 0.91011 0.0
C784 C 0.92799 0.96582 0.8792 0.0
H785 H 0.84607 0.93898 0.93679 0.0
H786 H 0.92453 0.9726 0.9322 0.0
C787 C 0.90412 0.95165 0.85096 0.0
C788 C 0.78513 0.11192 0.10112 0.0
C789 C 0.79031 0.09165 0.1323 0.0
H790 H 0.76194 0.17142 0.07364 0.0
C791 C 0.77504 0.11581 0.16018 0.0
H792 H 0.7966 0.0935 0.0793 0.0
C793 C 0.75663 0.16075 0.157 0.0
C794 C 0.7519 0.18125 0.12582 0.0
H795 H 0.77889 0.10067 0.18438 0.0
H796 H 0.74612 0.17956 0.1789 0.0
C797 C 0.76529 0.15618 0.09784 0.0
C798 C 0.56739 0.00572 0.34872 0.0
C799 C 0.54355 -0.01203 0.37591 0.0
H800 H 0.62835 0.04179 0.33207 0.0
C801 C 0.5655 -0.01303 0.40677 0.0
H802 H 0.55084 0.00692 0.32482 0.0
C803 C 0.61009 0.00554 0.41073 0.0
C804 C 0.63242 0.02649 0.38406 0.0
H805 H 0.54745 0.97322 0.42803 0.0
H806 H 0.62571 0.00629 0.43495 0.0
C807 C 0.6114 0.02561 0.3529 0.0
C808 C 0.31436 0.17911 0.40308 0.0
C809 C 0.266 0.18444 0.4077 0.0
H810 H 0.37059 0.13328 0.39066 0.0
C811 C 0.23676 0.14575 0.40261 0.0
H812 H 0.33784 0.20829 0.4064 0.0
C813 C 0.25554 0.10273 0.39295 0.0
C814 C 0.30394 0.0975 0.38848 0.0
H815 H 0.19925 0.14886 0.40542 0.0
H816 H 0.23223 0.07342 0.38965 0.0
C817 C 0.33309 0.13618 0.39367 0.0
C818 C 0.0592 0.01464 0.1663 0.0
C819 C 0.03434 0.0027 0.13796 0.0
H820 H 0.12194 0.04404 0.18579 0.0
C821 C 0.05514 0.00843 0.10695 0.0
H822 H 0.04372 0.01046 0.19038 0.0
C823 C 0.10031 0.02628 0.10436 0.0
C824 C 0.12431 0.03992 0.13269 0.0
H825 H 0.03651 -0.00102 0.08478 0.0
H826 H 0.11582 0.03083 0.08032 0.0
C827 C 0.10364 0.03386 0.16364 0.0
C828 C 0.21799 0.86489 0.89349 0.0
C829 C 0.16987 0.86961 0.88731 0.0
H830 H 0.27426 0.81785 0.90509 0.0
C831 C 0.14118 0.83012 0.88879 0.0
H832 H 0.24068 0.89503 0.89307 0.0
C833 C 0.1601 0.78666 0.89593 0.0
C834 C 0.20808 0.78167 0.90208 0.0
H835 H 0.10392 0.83279 0.88441 0.0
H836 H 0.13714 0.75668 0.89626 0.0
C837 C 0.23698 0.82111 0.90108 0.0
C838 C 0.36305 0.92941 0.6663 0.0
C839 C 0.34126 0.92534 0.63554 0.0
H840 H 0.42342 0.95235 0.69288 0.0
C841 C 0.36338 0.94278 0.60752 0.0
H842 H 0.34617 0.91639 0.68824 0.0
C843 C 0.40793 0.9621 0.61008 0.0
C844 C 0.42999 0.96558 0.64083 0.0
H845 H 0.34701 0.93992 0.58363 0.0
H846 H 0.42531 0.97407 0.58802 0.0
C847 C 0.40687 0.95011 0.66902 0.0
loop_
_geom_bond_atom_site_label_1
_geom_bond_atom_site_label_2
_geom_bond_distance
_geom_bond_site_symmetry_2
_ccdc_geom_bond_type
O0 Zn1 1.953 . S
O0 C16 1.225 . S
Zn1 O0 1.953 . S
Zn1 O2 1.949 . S
Zn1 O8 1.919 . S
Zn1 O13 1.924 . S
O2 Zn1 1.949 . S
O2 Zn3 1.923 . S
O2 Zn4 1.950 . S
O2 Zn5 1.945 . S
Zn3 O2 1.923 . S
Zn3 O6 1.933 . S
Zn3 O9 1.941 . S
Zn3 O10 1.965 . S
Zn4 O2 1.950 . S
Zn4 O11 1.938 . S
Zn4 O12 1.906 . S
Zn4 O22 1.953 . S
Zn5 O2 1.945 . S
Zn5 O7 1.932 . S
Zn5 O14 1.977 . S
Zn5 O15 1.910 . S
O6 Zn3 1.933 . S
O6 C17 1.226 . S
O7 Zn5 1.932 . S
O7 C17 1.307 . S
O8 Zn1 1.919 . S
O8 C19 1.253 . S
O9 Zn3 1.941 . S
O9 C19 1.283 . S
O10 Zn3 1.965 . S
O10 C18 1.303 . S
O11 Zn4 1.938 . S
O11 C18 1.247 . S
O12 Zn4 1.906 . S
O12 C20 1.304 . S
O13 Zn1 1.924 . S
O13 C21 1.311 . S
O14 Zn5 1.977 . S
O14 C20 1.272 . S
O15 Zn5 1.910 . S
O15 C21 1.231 . S
C16 O0 1.225 . S
C16 O22 1.298 . S
C17 O6 1.226 . S
C17 O7 1.307 . S
C18 O10 1.303 . S
C18 O11 1.247 . S
C19 O8 1.253 . S
C19 O9 1.283 . S
C20 O12 1.304 . S
C20 O14 1.272 . S
C21 O13 1.311 . S
C21 O15 1.231 . S
O22 Zn4 1.953 . S
O22 C16 1.298 . S
O23 Zn24 1.953 . S
O23 C39 1.225 . S
Zn24 O23 1.953 . S
Zn24 O25 1.949 . S
Zn24 O31 1.919 . S
Zn24 O36 1.924 . S
O25 Zn24 1.949 . S
O25 Zn26 1.923 . S
O25 Zn27 1.950 . S
O25 Zn28 1.945 . S
Zn26 O25 1.923 . S
Zn26 O29 1.933 . S
Zn26 O32 1.941 . S
Zn26 O33 1.965 . S
Zn27 O25 1.950 . S
Zn27 O34 1.938 . S
Zn27 O35 1.906 . S
Zn27 O45 1.953 . S
Zn28 O25 1.945 . S
Zn28 O30 1.932 . S
Zn28 O37 1.977 . S
Zn28 O38 1.910 . S
O29 Zn26 1.933 . S
O29 C40 1.226 . S
O30 Zn28 1.932 . S
O30 C40 1.307 . S
O31 Zn24 1.919 . S
O31 C42 1.253 . S
O32 Zn26 1.941 . S
O32 C42 1.283 . S
O33 Zn26 1.965 . S
O33 C41 1.303 . S
O34 Zn27 1.938 . S
O34 C41 1.247 . S
O35 Zn27 1.906 . S
O35 C43 1.304 . S
O36 Zn24 1.924 . S
O36 C44 1.311 . S
O37 Zn28 1.977 . S
O37 C43 1.272 . S
O38 Zn28 1.910 . S
O38 C44 1.231 . S
C39 O23 1.225 . S
C39 O45 1.298 . S
C40 O29 1.226 . S
C40 O30 1.307 . S
C41 O33 1.303 . S
C41 O34 1.247 . S
C42 O31 1.253 . S
C42 O32 1.283 . S
C43 O35 1.304 . S
C43 O37 1.272 . S
C44 O36 1.311 . S
C44 O38 1.231 . S
O45 Zn27 1.953 . S
O45 C39 1.298 . S
O46 Zn47 1.953 . S
O46 C62 1.225 . S
Zn47 O46 1.953 . S
Zn47 O48 1.949 . S
Zn47 O54 1.919 . S
Zn47 O59 1.924 . S
O48 Zn47 1.949 . S
O48 Zn49 1.923 . S
O48 Zn50 1.950 . S
O48 Zn51 1.945 . S
Zn49 O48 1.923 . S
Zn49 O52 1.933 . S
Zn49 O55 1.941 . S
Zn49 O56 1.965 . S
Zn50 O48 1.950 . S
Zn50 O57 1.938 . S
Zn50 O58 1.906 . S
Zn50 O68 1.953 . S
Zn51 O48 1.945 . S
Zn51 O53 1.932 . S
Zn51 O60 1.977 . S
Zn51 O61 1.910 . S
O52 Zn49 1.933 . S
O52 C63 1.226 . S
O53 Zn51 1.932 . S
O53 C63 1.307 . S
O54 Zn47 1.919 . S
O54 C65 1.253 . S
O55 Zn49 1.941 . S
O55 C65 1.283 . S
O56 Zn49 1.965 . S
O56 C64 1.303 . S
O57 Zn50 1.938 . S
O57 C64 1.247 . S
O58 Zn50 1.906 . S
O58 C66 1.304 . S
O59 Zn47 1.924 . S
O59 C67 1.311 . S
O60 Zn51 1.977 . S
O60 C66 1.272 . S
O61 Zn51 1.910 . S
O61 C67 1.231 . S
C62 O46 1.225 . S
C62 O68 1.298 . S
C63 O52 1.226 . S
C63 O53 1.307 . S
C64 O56 1.303 . S
C64 O57 1.247 . S
C65 O54 1.253 . S
C65 O55 1.283 . S
C66 O58 1.304 . S
C66 O60 1.272 . S
C67 O59 1.311 . S
C67 O61 1.231 . S
O68 Zn50 1.953 . S
O68 C62 1.298 . S
O69 Zn70 1.953 . S
O69 C85 1.225 . S
Zn70 O69 1.953 . S
Zn70 O71 1.949 . S
Zn70 O77 1.919 . S
Zn70 O82 1.924 . S
O71 Zn70 1.949 . S
O71 Zn72 1.923 . S
O71 Zn73 1.950 . S
O71 Zn74 1.945 . S
Zn72 O71 1.923 . S
Zn72 O75 1.933 . S
Zn72 O78 1.941 . S
Zn72 O79 1.965 . S
Zn73 O71 1.950 . S
Zn73 O80 1.938 . S
Zn73 O81 1.906 . S
Zn73 O91 1.953 . S
Zn74 O71 1.945 . S
Zn74 O76 1.932 . S
Zn74 O83 1.977 . S
Zn74 O84 1.910 . S
O75 Zn72 1.933 . S
O75 C86 1.226 . S
O76 Zn74 1.932 . S
O76 C86 1.307 . S
O77 Zn70 1.919 . S
O77 C88 1.253 . S
O78 Zn72 1.941 . S
O78 C88 1.283 . S
O79 Zn72 1.965 . S
O79 C87 1.303 . S
O80 Zn73 1.938 . S
O80 C87 1.247 . S
O81 Zn73 1.906 . S
O81 C89 1.304 . S
O82 Zn70 1.924 . S
O82 C90 1.311 1_655 S
O83 Zn74 1.977 . S
O83 C89 1.272 . S
O84 Zn74 1.910 . S
O84 C90 1.231 1_655 S
C85 O69 1.225 . S
C85 O91 1.298 . S
C86 O75 1.226 . S
C86 O76 1.307 . S
C87 O79 1.303 . S
C87 O80 1.247 . S
C88 O77 1.253 . S
C88 O78 1.283 . S
C89 O81 1.304 . S
C89 O83 1.272 . S
C90 O82 1.311 1_455 S
C90 O84 1.231 1_455 S
O91 Zn73 1.953 . S
O91 C85 1.298 . S
O92 Zn93 1.953 . S
O92 C108 1.225 . S
Zn93 O92 1.953 . S
Zn93 O94 1.949 . S
Zn93 O100 1.919 . S
Zn93 O105 1.924 . S
O94 Zn93 1.949 . S
O94 Zn95 1.923 . S
O94 Zn96 1.950 . S
O94 Zn97 1.945 . S
Zn95 O94 1.923 . S
Zn95 O98 1.933 . S
Zn95 O101 1.941 . S
Zn95 O102 1.965 . S
Zn96 O94 1.950 . S
Zn96 O103 1.938 . S
Zn96 O104 1.906 . S
Zn96 O114 1.953 . S
Zn97 O94 1.945 . S
Zn97 O99 1.932 . S
Zn97 O106 1.977 . S
Zn97 O107 1.910 . S
O98 Zn95 1.933 . S
O98 C109 1.226 . S
O99 Zn97 1.932 . S
O99 C109 1.307 . S
O100 Zn93 1.919 . S
O100 C111 1.253 . S
O101 Zn95 1.941 . S
O101 C111 1.283 . S
O102 Zn95 1.965 . S
O102 C110 1.303 . S
O103 Zn96 1.938 . S
O103 C110 1.247 . S
O104 Zn96 1.906 . S
O104 C112 1.304 . S
O105 Zn93 1.924 . S
O105 C113 1.311 . S
O106 Zn97 1.977 . S
O106 C112 1.272 . S
O107 Zn97 1.910 . S
O107 C113 1.231 . S
C108 O92 1.225 . S
C108 O114 1.298 . S
C109 O98 1.226 . S
C109 O99 1.307 . S
C110 O102 1.303 . S
C110 O103 1.247 . S
C111 O100 1.253 . S
C111 O101 1.283 . S
C112 O104 1.304 . S
C112 O106 1.272 . S
C113 O105 1.311 . S
C113 O107 1.231 . S
O114 Zn96 1.953 . S
O114 C108 1.298 . S
O115 Zn116 1.953 . S
O115 C131 1.225 . S
Zn116 O115 1.953 . S
Zn116 O117 1.949 . S
Zn116 O123 1.919 . S
Zn116 O128 1.924 . S
O117 Zn116 1.949 . S
O117 Zn118 1.923 . S
O117 Zn119 1.950 . S
O117 Zn120 1.945 . S
Zn118 O117 1.923 . S
Zn118 O121 1.933 . S
Zn118 O124 1.941 . S
Zn118 O125 1.965 . S
Zn119 O117 1.950 . S
Zn119 O126 1.938 . S
Zn119 O127 1.906 . S
Zn119 O137 1.953 . S
Zn120 O117 1.945 . S
Zn120 O122 1.932 . S
Zn120 O129 1.977 . S
Zn120 O130 1.910 . S
O121 Zn118 1.933 . S
O121 C132 1.226 . S
O122 Zn120 1.932 . S
O122 C132 1.307 . S
O123 Zn116 1.919 . S
O123 C134 1.253 . S
O124 Zn118 1.941 . S
O124 C134 1.283 . S
O125 Zn118 1.965 . S
O125 C133 1.303 . S
O126 Zn119 1.938 . S
O126 C133 1.247 . S
O127 Zn119 1.906 . S
O127 C135 1.304 . S
O128 Zn116 1.924 . S
O128 C136 1.311 . S
O129 Zn120 1.977 . S
O129 C135 1.272 . S
O130 Zn120 1.910 . S
O130 C136 1.231 . S
C131 O115 1.225 . S
C131 O137 1.298 . S
C132 O121 1.226 . S
C132 O122 1.307 . S
C133 O125 1.303 . S
C133 O126 1.247 . S
C134 O123 1.253 . S
C134 O124 1.283 . S
C135 O127 1.304 . S
C135 O129 1.272 . S
C136 O128 1.311 . S
C136 O130 1.231 . S
O137 Zn119 1.953 . S
O137 C131 1.298 . S
O138 Zn139 1.953 . S
O138 C154 1.225 . S
Zn139 O138 1.953 . S
Zn139 O140 1.949 . S
Zn139 O146 1.919 . S
Zn139 O151 1.924 . S
O140 Zn139 1.949 . S
O140 Zn141 1.923 . S
O140 Zn142 1.950 . S
O140 Zn143 1.945 . S
Zn141 O140 1.923 . S
Zn141 O144 1.933 . S
Zn141 O147 1.941 . S
Zn141 O148 1.965 . S
Zn142 O140 1.950 . S
Zn142 O149 1.938 . S
Zn142 O150 1.906 . S
Zn142 O160 1.953 . S
Zn143 O140 1.945 . S
Zn143 O145 1.932 . S
Zn143 O152 1.977 . S
Zn143 O153 1.910 . S
O144 Zn141 1.933 . S
O144 C155 1.226 . S
O145 Zn143 1.932 . S
O145 C155 1.307 . S
O146 Zn139 1.919 . S
O146 C157 1.253 . S
O147 Zn141 1.941 . S
O147 C157 1.283 . S
O148 Zn141 1.965 . S
O148 C156 1.303 . S
O149 Zn142 1.938 . S
O149 C156 1.247 . S
O150 Zn142 1.906 . S
O150 C158 1.304 . S
O151 Zn139 1.924 . S
O151 C159 1.311 . S
O152 Zn143 1.977 . S
O152 C158 1.272 . S
O153 Zn143 1.910 . S
O153 C159 1.231 . S
C154 O138 1.225 . S
C154 O160 1.298 . S
C155 O144 1.226 . S
C155 O145 1.307 . S
C156 O148 1.303 . S
C156 O149 1.247 . S
C157 O146 1.253 . S
C157 O147 1.283 . S
C158 O150 1.304 . S
C158 O152 1.272 . S
C159 O151 1.311 . S
C159 O153 1.231 . S
O160 Zn142 1.953 . S
O160 C154 1.298 . S
O161 Zn162 1.953 . S
O161 C177 1.225 . S
Zn162 O161 1.953 . S
Zn162 O163 1.949 . S
Zn162 O169 1.919 . S
Zn162 O174 1.924 . S
O163 Zn162 1.949 . S
O163 Zn164 1.923 . S
O163 Zn165 1.950 . S
O163 Zn166 1.945 . S
Zn164 O163 1.923 . S
Zn164 O167 1.933 . S
Zn164 O170 1.941 . S
Zn164 O171 1.965 . S
Zn165 O163 1.950 . S
Zn165 O172 1.938 . S
Zn165 O173 1.906 . S
Zn165 O183 1.953 . S
Zn166 O163 1.945 . S
Zn166 O168 1.932 . S
Zn166 O175 1.977 . S
Zn166 O176 1.910 . S
O167 Zn164 1.933 . S
O167 C178 1.226 . S
O168 Zn166 1.932 . S
O168 C178 1.307 . S
O169 Zn162 1.919 . S
O169 C180 1.253 . S
O170 Zn164 1.941 . S
O170 C180 1.283 . S
O171 Zn164 1.965 . S
O171 C179 1.303 . S
O172 Zn165 1.938 . S
O172 C179 1.247 . S
O173 Zn165 1.906 . S
O173 C181 1.304 . S
O174 Zn162 1.924 . S
O174 C182 1.311 1_455 S
O175 Zn166 1.977 . S
O175 C181 1.272 . S
O176 Zn166 1.910 . S
O176 C182 1.231 1_455 S
C177 O161 1.225 . S
C177 O183 1.298 . S
C178 O167 1.226 . S
C178 O168 1.307 . S
C179 O171 1.303 . S
C179 O172 1.247 . S
C180 O169 1.253 . S
C180 O170 1.283 . S
C181 O173 1.304 . S
C181 O175 1.272 . S
C182 O174 1.311 1_655 S
C182 O176 1.231 1_655 S
O183 Zn165 1.953 . S
O183 C177 1.298 . S
O184 Zn185 1.953 . S
O184 C200 1.225 . S
Zn185 O184 1.953 . S
Zn185 O186 1.949 . S
Zn185 O192 1.919 . S
Zn185 O197 1.924 . S
O186 Zn185 1.949 . S
O186 Zn187 1.923 . S
O186 Zn188 1.950 . S
O186 Zn189 1.945 . S
Zn187 O186 1.923 . S
Zn187 O190 1.933 . S
Zn187 O193 1.941 . S
Zn187 O194 1.965 . S
Zn188 O186 1.950 . S
Zn188 O195 1.938 . S
Zn188 O196 1.906 . S
Zn188 O206 1.953 . S
Zn189 O186 1.945 . S
Zn189 O191 1.932 . S
Zn189 O198 1.977 . S
Zn189 O199 1.910 . S
O190 Zn187 1.933 . S
O190 C201 1.226 . S
O191 Zn189 1.932 . S
O191 C201 1.307 . S
O192 Zn185 1.919 . S
O192 C203 1.253 . S
O193 Zn187 1.941 . S
O193 C203 1.283 . S
O194 Zn187 1.965 . S
O194 C202 1.303 . S
O195 Zn188 1.938 . S
O195 C202 1.247 . S
O196 Zn188 1.906 . S
O196 C204 1.304 . S
O197 Zn185 1.924 . S
O197 C205 1.311 . S
O198 Zn189 1.977 . S
O198 C204 1.272 . S
O199 Zn189 1.910 . S
O199 C205 1.231 . S
C200 O184 1.225 . S
C200 O206 1.298 . S
C201 O190 1.226 . S
C201 O191 1.307 . S
C202 O194 1.303 . S
C202 O195 1.247 . S
C203 O192 1.253 . S
C203 O193 1.283 . S
C204 O196 1.304 . S
C204 O198 1.272 . S
C205 O197 1.311 . S
C205 O199 1.231 . S
O206 Zn188 1.953 . S
O206 C200 1.298 . S
O207 Zn208 1.953 . S
O207 C223 1.225 1_565 S
Zn208 O207 1.953 . S
Zn208 O209 1.949 1_565 S
Zn208 O215 1.919 . S
Zn208 O220 1.924 . S
O209 Zn208 1.949 1_545 S
O209 Zn210 1.923 . S
O209 Zn211 1.950 . S
O209 Zn212 1.945 . S
Zn210 O209 1.923 . S
Zn210 O213 1.933 . S
Zn210 O216 1.941 1_545 S
Zn210 O217 1.965 . S
Zn211 O209 1.950 . S
Zn211 O218 1.938 . S
Zn211 O219 1.906 . S
Zn211 O229 1.953 . S
Zn212 O209 1.945 . S
Zn212 O214 1.932 . S
Zn212 O221 1.977 . S
Zn212 O222 1.910 . S
O213 Zn210 1.933 . S
O213 C224 1.226 . S
O214 Zn212 1.932 . S
O214 C224 1.307 . S
O215 Zn208 1.919 . S
O215 C226 1.253 . S
O216 Zn210 1.941 1_565 S
O216 C226 1.283 . S
O217 Zn210 1.965 . S
O217 C225 1.303 . S
O218 Zn211 1.938 . S
O218 C225 1.247 . S
O219 Zn211 1.906 . S
O219 C227 1.304 . S
O220 Zn208 1.924 . S
O220 C228 1.311 1_455 S
O221 Zn212 1.977 . S
O221 C227 1.272 . S
O222 Zn212 1.910 . S
O222 C228 1.231 1_445 S
C223 O207 1.225 1_545 S
C223 O229 1.298 . S
C224 O213 1.226 . S
C224 O214 1.307 . S
C225 O217 1.303 . S
C225 O218 1.247 . S
C226 O215 1.253 . S
C226 O216 1.283 . S
C227 O219 1.304 . S
C227 O221 1.272 . S
C228 O220 1.311 1_655 S
C228 O222 1.231 1_665 S
O229 Zn211 1.953 . S
O229 C223 1.298 . S
O230 Zn231 1.953 . S
O230 C246 1.225 . S
Zn231 O230 1.953 . S
Zn231 O232 1.949 . S
Zn231 O238 1.919 . S
Zn231 O243 1.924 . S
O232 Zn231 1.949 . S
O232 Zn233 1.923 . S
O232 Zn234 1.950 . S
O232 Zn235 1.945 . S
Zn233 O232 1.923 . S
Zn233 O236 1.933 . S
Zn233 O239 1.941 . S
Zn233 O240 1.965 . S
Zn234 O232 1.950 . S
Zn234 O241 1.938 . S
Zn234 O242 1.906 . S
Zn234 O252 1.953 . S
Zn235 O232 1.945 . S
Zn235 O237 1.932 . S
Zn235 O244 1.977 . S
Zn235 O245 1.910 . S
O236 Zn233 1.933 . S
O236 C247 1.226 . S
O237 Zn235 1.932 . S
O237 C247 1.307 . S
O238 Zn231 1.919 . S
O238 C249 1.253 . S
O239 Zn233 1.941 . S
O239 C249 1.283 . S
O240 Zn233 1.965 . S
O240 C248 1.303 . S
O241 Zn234 1.938 . S
O241 C248 1.247 . S
O242 Zn234 1.906 . S
O242 C250 1.304 . S
O243 Zn231 1.924 . S
O243 C251 1.311 . S
O244 Zn235 1.977 . S
O244 C250 1.272 . S
O245 Zn235 1.910 . S
O245 C251 1.231 . S
C246 O230 1.225 . S
C246 O252 1.298 . S
C247 O236 1.226 . S
C247 O237 1.307 . S
C248 O240 1.303 . S
C248 O241 1.247 . S
C249 O238 1.253 . S
C249 O239 1.283 . S
C250 O242 1.304 . S
C250 O244 1.272 . S
C251 O243 1.311 . S
C251 O245 1.231 . S
O252 Zn234 1.953 . S
O252 C246 1.298 . S
O253 Zn254 1.953 . S
O253 C269 1.225 1_545 S
Zn254 O253 1.953 . S
Zn254 O255 1.949 1_545 S
Zn254 O261 1.919 . S
Zn254 O266 1.924 . S
O255 Zn254 1.949 1_565 S
O255 Zn256 1.923 . S
O255 Zn257 1.950 . S
O255 Zn258 1.945 . S
Zn256 O255 1.923 . S
Zn256 O259 1.933 . S
Zn256 O262 1.941 1_565 S
Zn256 O263 1.965 . S
Zn257 O255 1.950 . S
Zn257 O264 1.938 . S
Zn257 O265 1.906 . S
Zn257 O275 1.953 . S
Zn258 O255 1.945 . S
Zn258 O260 1.932 . S
Zn258 O267 1.977 . S
Zn258 O268 1.910 . S
O259 Zn256 1.933 . S
O259 C270 1.226 . S
O260 Zn258 1.932 . S
O260 C270 1.307 . S
O261 Zn254 1.919 . S
O261 C272 1.253 . S
O262 Zn256 1.941 1_545 S
O262 C272 1.283 . S
O263 Zn256 1.965 . S
O263 C271 1.303 . S
O264 Zn257 1.938 . S
O264 C271 1.247 . S
O265 Zn257 1.906 . S
O265 C273 1.304 . S
O266 Zn254 1.924 . S
O266 C274 1.311 . S
O267 Zn258 1.977 . S
O267 C273 1.272 . S
O268 Zn258 1.910 . S
O268 C274 1.231 1_565 S
C269 O253 1.225 1_565 S
C269 O275 1.298 . S
C270 O259 1.226 . S
C270 O260 1.307 . S
C271 O263 1.303 . S
C271 O264 1.247 . S
C272 O261 1.253 . S
C272 O262 1.283 . S
C273 O265 1.304 . S
C273 O267 1.272 . S
C274 O266 1.311 . S
C274 O268 1.231 1_545 S
O275 Zn257 1.953 . S
O275 C269 1.298 . S
O276 Zn277 1.953 . S
O276 C292 1.225 . S
Zn277 O276 1.953 . S
Zn277 O278 1.949 . S
Zn277 O284 1.919 . S
Zn277 O289 1.924 . S
O278 Zn277 1.949 . S
O278 Zn279 1.923 . S
O278 Zn280 1.950 . S
O278 Zn281 1.945 . S
Zn279 O278 1.923 . S
Zn279 O282 1.933 . S
Zn279 O285 1.941 . S
Zn279 O286 1.965 . S
Zn280 O278 1.950 . S
Zn280 O287 1.938 . S
Zn280 O288 1.906 . S
Zn280 O298 1.953 . S
Zn281 O278 1.945 . S
Zn281 O283 1.932 . S
Zn281 O290 1.977 . S
Zn281 O291 1.910 . S
O282 Zn279 1.933 . S
O282 C293 1.226 . S
O283 Zn281 1.932 . S
O283 C293 1.307 . S
O284 Zn277 1.919 . S
O284 C295 1.253 . S
O285 Zn279 1.941 . S
O285 C295 1.283 . S
O286 Zn279 1.965 . S
O286 C294 1.303 . S
O287 Zn280 1.938 . S
O287 C294 1.247 . S
O288 Zn280 1.906 . S
O288 C296 1.304 . S
O289 Zn277 1.924 . S
O289 C297 1.311 . S
O290 Zn281 1.977 . S
O290 C296 1.272 . S
O291 Zn281 1.910 . S
O291 C297 1.231 . S
C292 O276 1.225 . S
C292 O298 1.298 . S
C293 O282 1.226 . S
C293 O283 1.307 . S
C294 O286 1.303 . S
C294 O287 1.247 . S
C295 O284 1.253 . S
C295 O285 1.283 . S
C296 O288 1.304 . S
C296 O290 1.272 . S
C297 O289 1.311 . S
C297 O291 1.231 . S
O298 Zn280 1.953 . S
O298 C292 1.298 . S
O299 Zn300 1.953 . S
O299 C315 1.225 1_545 S
Zn300 O299 1.953 . S
Zn300 O301 1.949 1_545 S
Zn300 O307 1.919 . S
Zn300 O312 1.924 . S
O301 Zn300 1.949 1_565 S
O301 Zn302 1.923 . S
O301 Zn303 1.950 . S
O301 Zn304 1.945 . S
Zn302 O301 1.923 . S
Zn302 O305 1.933 . S
Zn302 O308 1.941 1_565 S
Zn302 O309 1.965 . S
Zn303 O301 1.950 . S
Zn303 O310 1.938 . S
Zn303 O311 1.906 . S
Zn303 O321 1.953 . S
Zn304 O301 1.945 . S
Zn304 O306 1.932 . S
Zn304 O313 1.977 . S
Zn304 O314 1.910 . S
O305 Zn302 1.933 . S
O305 C316 1.226 . S
O306 Zn304 1.932 . S
O306 C316 1.307 . S
O307 Zn300 1.919 . S
O307 C318 1.253 . S
O308 Zn302 1.941 1_545 S
O308 C318 1.283 . S
O309 Zn302 1.965 . S
O309 C317 1.303 . S
O310 Zn303 1.938 . S
O310 C317 1.247 . S
O311 Zn303 1.906 . S
O311 C319 1.304 . S
O312 Zn300 1.924 . S
O312 C320 1.311 1_655 S
O313 Zn304 1.977 . S
O313 C319 1.272 . S
O314 Zn304 1.910 . S
O314 C320 1.231 1_665 S
C315 O299 1.225 1_565 S
C315 O321 1.298 . S
C316 O305 1.226 . S
C316 O306 1.307 . S
C317 O309 1.303 . S
C317 O310 1.247 . S
C318 O307 1.253 . S
C318 O308 1.283 . S
C319 O311 1.304 . S
C319 O313 1.272 . S
C320 O312 1.311 1_455 S
C320 O314 1.231 1_445 S
O321 Zn303 1.953 . S
O321 C315 1.298 . S
O322 Zn323 1.953 . S
O322 C338 1.225 . S
Zn323 O322 1.953 . S
Zn323 O324 1.949 . S
Zn323 O330 1.919 . S
Zn323 O335 1.924 . S
O324 Zn323 1.949 . S
O324 Zn325 1.923 . S
O324 Zn326 1.950 . S
O324 Zn327 1.945 . S
Zn325 O324 1.923 . S
Zn325 O328 1.933 . S
Zn325 O331 1.941 . S
Zn325 O332 1.965 . S
Zn326 O324 1.950 . S
Zn326 O333 1.938 . S
Zn326 O334 1.906 . S
Zn326 O344 1.953 . S
Zn327 O324 1.945 . S
Zn327 O329 1.932 . S
Zn327 O336 1.977 . S
Zn327 O337 1.910 . S
O328 Zn325 1.933 . S
O328 C339 1.226 . S
O329 Zn327 1.932 . S
O329 C339 1.307 . S
O330 Zn323 1.919 . S
O330 C341 1.253 . S
O331 Zn325 1.941 . S
O331 C341 1.283 . S
O332 Zn325 1.965 . S
O332 C340 1.303 . S
O333 Zn326 1.938 . S
O333 C340 1.247 . S
O334 Zn326 1.906 . S
O334 C342 1.304 . S
O335 Zn323 1.924 . S
O335 C343 1.311 . S
O336 Zn327 1.977 . S
O336 C342 1.272 . S
O337 Zn327 1.910 . S
O337 C343 1.231 . S
C338 O322 1.225 . S
C338 O344 1.298 . S
C339 O328 1.226 . S
C339 O329 1.307 . S
C340 O332 1.303 . S
C340 O333 1.247 . S
C341 O330 1.253 . S
C341 O331 1.283 . S
C342 O334 1.304 . S
C342 O336 1.272 . S
C343 O335 1.311 . S
C343 O337 1.231 . S
O344 Zn326 1.953 . S
O344 C338 1.298 . S
O345 Zn346 1.953 . S
O345 C361 1.225 1_565 S
Zn346 O345 1.953 . S
Zn346 O347 1.949 1_565 S
Zn346 O353 1.919 . S
Zn346 O358 1.924 . S
O347 Zn346 1.949 1_545 S
O347 Zn348 1.923 . S
O347 Zn349 1.950 . S
O347 Zn350 1.945 . S
Zn348 O347 1.923 . S
Zn348 O351 1.933 . S
Zn348 O354 1.941 1_545 S
Zn348 O355 1.965 . S
Zn349 O347 1.950 . S
Zn349 O356 1.938 . S
Zn349 O357 1.906 . S
Zn349 O367 1.953 . S
Zn350 O347 1.945 . S
Zn350 O352 1.932 . S
Zn350 O359 1.977 . S
Zn350 O360 1.910 . S
O351 Zn348 1.933 . S
O351 C362 1.226 . S
O352 Zn350 1.932 . S
O352 C362 1.307 . S
O353 Zn346 1.919 . S
O353 C364 1.253 . S
O354 Zn348 1.941 1_565 S
O354 C364 1.283 . S
O355 Zn348 1.965 . S
O355 C363 1.303 . S
O356 Zn349 1.938 . S
O356 C363 1.247 . S
O357 Zn349 1.906 . S
O357 C365 1.304 . S
O358 Zn346 1.924 . S
O358 C366 1.311 . S
O359 Zn350 1.977 . S
O359 C365 1.272 . S
O360 Zn350 1.910 . S
O360 C366 1.231 1_545 S
C361 O345 1.225 1_545 S
C361 O367 1.298 . S
C362 O351 1.226 . S
C362 O352 1.307 . S
C363 O355 1.303 . S
C363 O356 1.247 . S
C364 O353 1.253 . S
C364 O354 1.283 . S
C365 O357 1.304 . S
C365 O359 1.272 . S
C366 O358 1.311 . S
C366 O360 1.231 1_565 S
O367 Zn349 1.953 . S
O367 C361 1.298 . S
C368 C369 1.387 . S
C368 H372 0.950 . S
C368 C377 1.390 . S
C369 C368 1.387 . S
C369 C371 1.387 . S
H370 C377 0.950 . S
C371 C369 1.387 . S
C371 C373 1.390 . S
C371 H375 0.950 . S
H372 C368 0.950 . S
C373 C371 1.390 . S
C373 C374 1.387 . S
C373 H376 0.950 . S
C374 C373 1.387 . S
C374 C377 1.387 . S
H375 C371 0.950 . S
H376 C373 0.950 . S
C377 C368 1.390 . S
C377 H370 0.950 . S
C377 C374 1.387 . S
C378 C379 1.387 . S
C378 H382 0.950 . S
C378 C387 1.390 . S
C379 C378 1.387 . S
C379 C381 1.387 . S
H380 C387 0.950 . S
C381 C379 1.387 . S
C381 C383 1.390 . S
C381 H385 0.950 . S
H382 C378 0.950 . S
C383 C381 1.390 . S
C383 C384 1.387 . S
C383 H386 0.950 . S
C384 C383 1.387 . S
C384 C387 1.387 . S
H385 C381 0.950 . S
H386 C383 0.950 . S
C387 C378 1.390 . S
C387 H380 0.950 . S
C387 C384 1.387 . S
C388 C389 1.387 . S
C388 H392 0.950 . S
C388 C397 1.390 . S
C389 C388 1.387 . S
C389 C391 1.387 . S
H390 C397 0.950 . S
C391 C389 1.387 . S
C391 C393 1.390 . S
C391 H395 0.950 . S
H392 C388 0.950 . S
C393 C391 1.390 . S
C393 C394 1.387 . S
C393 H396 0.950 . S
C394 C393 1.387 . S
C394 C397 1.387 . S
H395 C391 0.950 . S
H396 C393 0.950 . S
C397 C388 1.390 . S
C397 H390 0.950 . S
C397 C394 1.387 . S
C398 C399 1.387 1_554 S
C398 H402 0.950 . S
C398 C407 1.390 . S
C399 C398 1.387 1_556 S
C399 C401 1.387 1_655 S
H400 C407 0.950 . S
C401 C399 1.387 1_455 S
C401 C403 1.390 . S
C401 H405 0.950 . S
H402 C398 0.950 . S
C403 C401 1.390 . S
C403 C404 1.387 1_556 S
C403 H406 0.950 . S
C404 C403 1.387 1_554 S
C404 C407 1.387 1_455 S
H405 C401 0.950 . S
H406 C403 0.950 . S
C407 C398 1.390 . S
C407 H400 0.950 . S
C407 C404 1.387 1_655 S
C408 C409 1.387 . S
C408 H412 0.950 . S
C408 C417 1.390 . S
C409 C408 1.387 . S
C409 C411 1.387 . S
H410 C417 0.950 . S
C411 C409 1.387 . S
C411 C413 1.390 . S
C411 H415 0.950 . S
H412 C408 0.950 . S
C413 C411 1.390 . S
C413 C414 1.387 . S
C413 H416 0.950 . S
C414 C413 1.387 . S
C414 C417 1.387 . S
H415 C411 0.950 . S
H416 C413 0.950 . S
C417 C408 1.390 . S
C417 H410 0.950 . S
C417 C414 1.387 . S
C418 C419 1.387 . S
C418 H422 0.950 . S
C418 C427 1.390 . S
C419 C418 1.387 . S
C419 C421 1.387 . S
H420 C427 0.950 . S
C421 C419 1.387 . S
C421 C423 1.390 . S
C421 H425 0.950 . S
H422 C418 0.950 . S
C423 C421 1.390 . S
C423 C424 1.387 . S
C423 H426 0.950 . S
C424 C423 1.387 . S
C424 C427 1.387 . S
H425 C421 0.950 . S
H426 C423 0.950 . S
C427 C418 1.390 . S
C427 H420 0.950 . S
C427 C424 1.387 . S
C428 C429 1.387 1_556 S
C428 H432 0.950 . S
C428 C437 1.381 1_655 S
C429 C428 1.387 1_554 S
C429 C431 1.396 1_565 S
H430 C437 0.950 . S
C431 C429 1.396 1_545 S
C431 C433 1.381 1_655 S
C431 H435 0.950 . S
H432 C428 0.950 . S
C433 C431 1.381 1_455 S
C433 C434 1.387 1_554 S
C433 H436 0.950 . S
C434 C433 1.387 1_556 S
C434 C437 1.396 1_545 S
H435 C431 0.950 . S
H436 C433 0.950 . S
C437 C428 1.381 1_455 S
C437 H430 0.950 . S
C437 C434 1.396 1_565 S
C438 C439 1.387 . S
C438 H442 0.950 . S
C438 C447 1.390 . S
C439 C438 1.387 . S
C439 C441 1.387 1_565 S
H440 C447 0.950 . S
C441 C439 1.387 1_545 S
C441 C443 1.390 . S
C441 H445 0.950 . S
H442 C438 0.950 . S
C443 C441 1.390 . S
C443 C444 1.387 . S
C443 H446 0.950 . S
C444 C443 1.387 . S
C444 C447 1.387 1_545 S
H445 C441 0.950 . S
H446 C443 0.950 . S
C447 C438 1.390 . S
C447 H440 0.950 . S
C447 C444 1.387 1_565 S
C448 C449 1.387 . S
C448 H452 0.950 . S
C448 C457 1.390 . S
C449 C448 1.387 . S
C449 C451 1.387 . S
H450 C457 0.941 1_554 S
C451 C449 1.387 . S
C451 C453 1.390 . S
C451 H455 0.950 . S
H452 C448 0.950 . S
C453 C451 1.390 . S
C453 C454 1.387 1_556 S
C453 H456 0.950 1_556 S
C454 C453 1.387 1_554 S
C454 C457 1.387 1_554 S
H455 C451 0.950 . S
H456 C453 0.950 1_554 S
C457 C448 1.390 . S
C457 H450 0.941 1_556 S
C457 C454 1.387 1_556 S
C458 C459 1.387 . S
C458 H462 0.950 . S
C458 C467 1.390 . S
C459 C458 1.387 . S
C459 C461 1.387 . S
H460 C467 0.950 . S
C461 C459 1.387 . S
C461 C463 1.390 . S
C461 H465 0.950 . S
H462 C458 0.950 . S
C463 C461 1.390 . S
C463 C464 1.387 . S
C463 H466 0.950 . S
C464 C463 1.387 . S
C464 C467 1.387 . S
H465 C461 0.950 . S
H466 C463 0.950 . S
C467 C458 1.390 . S
C467 H460 0.950 . S
C467 C464 1.387 . S
C468 C469 1.387 . S
C468 H472 0.950 . S
C468 C477 1.390 . S
C469 C468 1.387 . S
C469 C471 1.387 . S
H470 C477 0.950 . S
C471 C469 1.387 . S
C471 C473 1.390 . S
C471 H475 0.950 . S
H472 C468 0.950 . S
C473 C471 1.390 . S
C473 C474 1.387 . S
C473 H476 0.950 . S
C474 C473 1.387 . S
C474 C477 1.387 . S
H475 C471 0.950 . S
H476 C473 0.950 . S
C477 C468 1.390 . S
C477 H470 0.950 . S
C477 C474 1.387 . S
C478 C479 1.387 . S
C478 H482 0.950 . S
C478 C487 1.390 . S
C479 C478 1.387 . S
C479 C481 1.387 . S
H480 C487 0.950 . S
C481 C479 1.387 . S
C481 C483 1.390 . S
C481 H485 0.950 . S
H482 C478 0.950 . S
C483 C481 1.390 . S
C483 C484 1.387 . S
C483 H486 0.950 . S
C484 C483 1.387 . S
C484 C487 1.387 . S
H485 C481 0.950 . S
H486 C483 0.950 . S
C487 C478 1.390 . S
C487 H480 0.950 . S
C487 C484 1.387 . S
C488 C489 1.387 . S
C488 H492 0.950 . S
C488 C497 1.390 . S
C489 C488 1.387 . S
C489 C491 1.387 . S
H490 C497 0.950 1_556 S
C491 C489 1.387 . S
C491 C493 1.390 . S
C491 H495 0.950 . S
H492 C488 0.950 . S
C493 C491 1.390 . S
C493 C494 1.387 1_554 S
C493 H496 0.950 1_554 S
C494 C493 1.387 1_556 S
C494 C497 1.387 1_556 S
H495 C491 0.950 . S
H496 C493 0.950 1_556 S
C497 C488 1.390 . S
C497 H490 0.950 1_554 S
C497 C494 1.387 1_554 S
C498 C499 1.387 . S
C498 H502 0.950 . S
C498 C507 1.390 . S
C499 C498 1.387 . S
C499 C501 1.387 . S
H500 C507 0.950 . S
C501 C499 1.387 . S
C501 C503 1.390 . S
C501 H505 0.950 . S
H502 C498 0.950 . S
C503 C501 1.390 . S
C503 C504 1.387 . S
C503 H506 0.950 . S
C504 C503 1.387 . S
C504 C507 1.387 . S
H505 C501 0.950 . S
H506 C503 0.950 . S
C507 C498 1.390 . S
C507 H500 0.950 . S
C507 C504 1.387 . S
C508 C509 1.387 . S
C508 H512 0.950 . S
C508 C517 1.390 . S
C509 C508 1.387 . S
C509 C511 1.387 . S
H510 C517 0.950 . S
C511 C509 1.387 . S
C511 C513 1.390 . S
C511 H515 0.950 . S
H512 C508 0.950 . S
C513 C511 1.390 . S
C513 C514 1.387 . S
C513 H516 0.950 . S
C514 C513 1.387 . S
C514 C517 1.387 . S
H515 C511 0.950 . S
H516 C513 0.950 . S
C517 C508 1.390 . S
C517 H510 0.950 . S
C517 C514 1.387 . S
C518 C519 1.387 . S
C518 H522 0.950 . S
C518 C527 1.390 . S
C519 C518 1.387 . S
C519 C521 1.387 . S
H520 C527 0.950 . S
C521 C519 1.387 . S
C521 C523 1.390 . S
C521 H525 0.950 . S
H522 C518 0.950 . S
C523 C521 1.390 . S
C523 C524 1.387 . S
C523 H526 0.950 . S
C524 C523 1.387 . S
C524 C527 1.387 . S
H525 C521 0.950 . S
H526 C523 0.950 . S
C527 C518 1.390 . S
C527 H520 0.950 . S
C527 C524 1.387 . S
C528 C529 1.387 . S
C528 H532 0.950 . S
C528 C537 1.390 . S
C529 C528 1.387 . S
C529 C531 1.387 . S
H530 C537 0.950 . S
C531 C529 1.387 . S
C531 C533 1.390 . S
C531 H535 0.950 . S
H532 C528 0.950 . S
C533 C531 1.390 . S
C533 C534 1.387 . S
C533 H536 0.950 . S
C534 C533 1.387 . S
C534 C537 1.387 . S
H535 C531 0.950 . S
H536 C533 0.950 . S
C537 C528 1.390 . S
C537 H530 0.950 . S
C537 C534 1.387 . S
C538 C539 1.387 . S
C538 H542 0.950 . S
C538 C547 1.390 . S
C539 C538 1.387 . S
C539 C541 1.387 1_545 S
H540 C547 0.950 . S
C541 C539 1.387 1_565 S
C541 C543 1.390 . S
C541 H545 0.950 . S
H542 C538 0.950 . S
C543 C541 1.390 . S
C543 C544 1.387 . S
C543 H546 0.950 . S
C544 C543 1.387 . S
C544 C547 1.387 1_565 S
H545 C541 0.950 . S
H546 C543 0.950 . S
C547 C538 1.390 . S
C547 H540 0.950 . S
C547 C544 1.387 1_545 S
C548 C549 1.387 . S
C548 H552 0.950 . S
C548 C557 1.390 1_554 S
C549 C548 1.387 . S
C549 C551 1.387 1_554 S
H550 C557 0.950 . S
C551 C549 1.387 1_556 S
C551 C553 1.390 . S
C551 H555 0.950 . S
H552 C548 0.950 . S
C553 C551 1.390 . S
C553 C554 1.387 . S
C553 H556 0.950 . S
C554 C553 1.387 . S
C554 C557 1.387 . S
H555 C551 0.950 . S
H556 C553 0.950 . S
C557 C548 1.390 1_556 S
C557 H550 0.950 . S
C557 C554 1.387 . S
C558 C559 1.387 . S
C558 H562 0.950 . S
C558 C567 1.390 . S
C559 C558 1.387 . S
C559 C561 1.387 1_545 S
H560 C567 0.950 . S
C561 C559 1.387 1_565 S
C561 C563 1.390 . S
C561 H565 0.950 . S
H562 C558 0.950 . S
C563 C561 1.390 . S
C563 C564 1.387 . S
C563 H566 0.950 . S
C564 C563 1.387 . S
C564 C567 1.387 1_565 S
H565 C561 0.950 . S
H566 C563 0.950 . S
C567 C558 1.390 . S
C567 H560 0.950 . S
C567 C564 1.387 1_545 S
C568 C569 1.387 . S
C568 H572 0.950 . S
C568 C577 1.390 . S
C569 C568 1.387 . S
C569 C571 1.387 . S
H570 C577 0.950 . S
C571 C569 1.387 . S
C571 C573 1.390 . S
C571 H575 0.950 . S
H572 C568 0.950 . S
C573 C571 1.390 . S
C573 C574 1.387 . S
C573 H576 0.950 . S
C574 C573 1.387 . S
C574 C577 1.387 . S
H575 C571 0.950 . S
H576 C573 0.950 . S
C577 C568 1.390 . S
C577 H570 0.950 . S
C577 C574 1.387 . S
C578 C579 1.387 . S
C578 H582 0.950 1_565 S
C578 C587 1.390 1_565 S
C579 C578 1.387 . S
C579 C581 1.387 . S
H580 C587 0.950 . S
C581 C579 1.387 . S
C581 C583 1.390 . S
C581 H585 0.950 . S
H582 C578 0.950 1_545 S
C583 C581 1.390 . S
C583 C584 1.387 1_565 S
C583 H586 0.950 . S
C584 C583 1.387 1_545 S
C584 C587 1.387 . S
H585 C581 0.950 . S
H586 C583 0.950 . S
C587 C578 1.390 1_545 S
C587 H580 0.950 . S
C587 C584 1.387 . S
C588 C589 1.387 . S
C588 H592 0.950 . S
C588 C597 1.390 . S
C589 C588 1.387 . S
C589 C591 1.387 . S
H590 C597 0.950 1_556 S
C591 C589 1.387 . S
C591 C593 1.390 . S
C591 H595 0.950 . S
H592 C588 0.950 . S
C593 C591 1.390 . S
C593 C594 1.387 1_554 S
C593 H596 0.950 1_554 S
C594 C593 1.387 1_556 S
C594 C597 1.387 1_556 S
H595 C591 0.950 . S
H596 C593 0.950 1_556 S
C597 C588 1.390 . S
C597 H590 0.950 1_554 S
C597 C594 1.387 1_554 S
C598 C599 1.387 . S
C598 H602 0.950 . S
C598 C607 1.390 . S
C599 C598 1.387 . S
C599 C601 1.387 1_545 S
H600 C607 0.950 . S
C601 C599 1.387 1_565 S
C601 C603 1.390 . S
C601 H605 0.950 . S
H602 C598 0.950 . S
C603 C601 1.390 . S
C603 C604 1.387 . S
C603 H606 0.950 . S
C604 C603 1.387 . S
C604 C607 1.387 1_565 S
H605 C601 0.950 . S
H606 C603 0.950 . S
C607 C598 1.390 . S
C607 H600 0.950 . S
C607 C604 1.387 1_545 S
C608 C609 1.387 . S
C608 H612 0.950 . S
C608 C617 1.390 . S
C609 C608 1.387 . S
C609 C611 1.387 . S
H610 C617 0.950 . S
C611 C609 1.387 . S
C611 C613 1.390 . S
C611 H615 0.950 . S
H612 C608 0.950 . S
C613 C611 1.390 . S
C613 C614 1.387 . S
C613 H616 0.950 . S
C614 C613 1.387 . S
C614 C617 1.387 . S
H615 C611 0.950 . S
H616 C613 0.950 . S
C617 C608 1.390 . S
C617 H610 0.950 . S
C617 C614 1.387 . S
C618 C619 1.387 . S
C618 H622 0.950 . S
C618 C627 1.390 . S
C619 C618 1.387 . S
C619 C621 1.387 . S
H620 C627 0.950 . S
C621 C619 1.387 . S
C621 C623 1.390 . S
C621 H625 0.950 . S
H622 C618 0.950 . S
C623 C621 1.390 . S
C623 C624 1.387 . S
C623 H626 0.950 . S
C624 C623 1.387 . S
C624 C627 1.387 . S
H625 C621 0.950 . S
H626 C623 0.950 . S
C627 C618 1.390 . S
C627 H620 0.950 . S
C627 C624 1.387 . S
C628 C629 1.387 . S
C628 H632 0.950 . S
C628 C637 1.390 1_655 S
C629 C628 1.387 . S
C629 C631 1.387 . S
H630 C637 0.950 . S
C631 C629 1.387 . S
C631 C633 1.390 1_655 S
C631 H635 0.950 . S
H632 C628 0.950 . S
C633 C631 1.390 1_455 S
C633 C634 1.387 . S
C633 H636 0.950 . S
C634 C633 1.387 . S
C634 C637 1.387 . S
H635 C631 0.950 . S
H636 C633 0.950 . S
C637 C628 1.390 1_455 S
C637 H630 0.950 . S
C637 C634 1.387 . S
C638 C639 1.387 . S
C638 H642 0.950 . S
C638 C647 1.390 1_655 S
C639 C638 1.387 . S
C639 C641 1.387 . S
H640 C647 0.950 . S
C641 C639 1.387 . S
C641 C643 1.390 1_655 S
C641 H645 0.950 . S
H642 C638 0.950 . S
C643 C641 1.390 1_455 S
C643 C644 1.387 . S
C643 H646 0.950 . S
C644 C643 1.387 . S
C644 C647 1.387 . S
H645 C641 0.950 . S
H646 C643 0.950 . S
C647 C638 1.390 1_455 S
C647 H640 0.950 . S
C647 C644 1.387 . S
C648 C649 1.387 . S
C648 H652 0.950 . S
C648 C657 1.390 . S
C649 C648 1.387 . S
C649 C651 1.387 . S
H650 C657 0.950 . S
C651 C649 1.387 . S
C651 C653 1.390 . S
C651 H655 0.950 . S
H652 C648 0.950 . S
C653 C651 1.390 . S
C653 C654 1.387 . S
C653 H656 0.950 . S
C654 C653 1.387 . S
C654 C657 1.387 . S
H655 C651 0.950 . S
H656 C653 0.950 . S
C657 C648 1.390 . S
C657 H650 0.950 . S
C657 C654 1.387 . S
C658 C659 1.387 . S
C658 H662 0.950 . S
C658 C667 1.390 . S
C659 C658 1.387 . S
C659 C661 1.387 . S
H660 C667 0.950 . S
C661 C659 1.387 . S
C661 C663 1.390 . S
C661 H665 0.950 . S
H662 C658 0.950 . S
C663 C661 1.390 . S
C663 C664 1.387 . S
C663 H666 0.950 . S
C664 C663 1.387 . S
C664 C667 1.387 . S
H665 C661 0.950 . S
H666 C663 0.950 . S
C667 C658 1.390 . S
C667 H660 0.950 . S
C667 C664 1.387 . S
C668 C669 1.387 . S
C668 H672 0.950 . S
C668 C677 1.390 1_455 S
C669 C668 1.387 . S
C669 C671 1.387 . S
H670 C677 0.950 . S
C671 C669 1.387 . S
C671 C673 1.390 1_455 S
C671 H675 0.950 . S
H672 C668 0.950 . S
C673 C671 1.390 1_655 S
C673 C674 1.387 . S
C673 H676 0.950 . S
C674 C673 1.387 . S
C674 C677 1.387 . S
H675 C671 0.950 . S
H676 C673 0.950 . S
C677 C668 1.390 1_655 S
C677 H670 0.950 . S
C677 C674 1.387 . S
C678 C679 1.387 . S
C678 H682 0.950 . S
C678 C687 1.390 1_455 S
C679 C678 1.387 . S
C679 C681 1.387 . S
H680 C687 0.950 . S
C681 C679 1.387 . S
C681 C683 1.390 1_455 S
C681 H685 0.950 . S
H682 C678 0.950 . S
C683 C681 1.390 1_655 S
C683 C684 1.387 . S
C683 H686 0.950 . S
C684 C683 1.387 . S
C684 C687 1.387 . S
H685 C681 0.950 . S
H686 C683 0.950 . S
C687 C678 1.390 1_655 S
C687 H680 0.950 . S
C687 C684 1.387 . S
C688 C689 1.387 . S
C688 H692 0.950 . S
C688 C697 1.390 . S
C689 C688 1.387 . S
C689 C691 1.387 . S
H690 C697 0.950 . S
C691 C689 1.387 . S
C691 C693 1.390 . S
C691 H695 0.950 . S
H692 C688 0.950 . S
C693 C691 1.390 . S
C693 C694 1.387 . S
C693 H696 0.950 . S
C694 C693 1.387 . S
C694 C697 1.387 . S
H695 C691 0.950 . S
H696 C693 0.950 . S
C697 C688 1.390 . S
C697 H690 0.950 . S
C697 C694 1.387 . S
C698 C699 1.387 . S
C698 H702 0.950 . S
C698 C707 1.390 . S
C699 C698 1.387 . S
C699 C701 1.387 . S
H700 C707 0.950 . S
C701 C699 1.387 . S
C701 C703 1.390 . S
C701 H705 0.950 . S
H702 C698 0.950 . S
C703 C701 1.390 . S
C703 C704 1.387 . S
C703 H706 0.950 . S
C704 C703 1.387 . S
C704 C707 1.387 . S
H705 C701 0.950 . S
H706 C703 0.950 . S
C707 C698 1.390 . S
C707 H700 0.950 . S
C707 C704 1.387 . S
C708 C709 1.387 . S
C708 H712 0.950 . S
C708 C717 1.390 . S
C709 C708 1.387 . S
C709 C711 1.387 . S
H710 C717 0.950 . S
C711 C709 1.387 . S
C711 C713 1.390 . S
C711 H715 0.950 . S
H712 C708 0.950 . S
C713 C711 1.390 . S
C713 C714 1.387 . S
C713 H716 0.950 . S
C714 C713 1.387 . S
C714 C717 1.387 . S
H715 C711 0.950 . S
H716 C713 0.950 . S
C717 C708 1.390 . S
C717 H710 0.950 . S
C717 C714 1.387 . S
C718 C719 1.387 . S
C718 H722 0.950 . S
C718 C727 1.390 . S
C719 C718 1.387 . S
C719 C721 1.387 . S
H720 C727 0.950 . S
C721 C719 1.387 . S
C721 C723 1.390 . S
C721 H725 0.950 . S
H722 C718 0.950 . S
C723 C721 1.390 . S
C723 C724 1.387 . S
C723 H726 0.950 . S
C724 C723 1.387 . S
C724 C727 1.387 . S
H725 C721 0.950 . S
H726 C723 0.950 . S
C727 C718 1.390 . S
C727 H720 0.950 . S
C727 C724 1.387 . S
C728 C729 1.387 . S
C728 H732 0.950 . S
C728 C737 1.390 . S
C729 C728 1.387 . S
C729 C731 1.387 . S
H730 C737 0.950 . S
C731 C729 1.387 . S
C731 C733 1.390 . S
C731 H735 0.950 . S
H732 C728 0.950 . S
C733 C731 1.390 . S
C733 C734 1.387 . S
C733 H736 0.950 . S
C734 C733 1.387 . S
C734 C737 1.387 . S
H735 C731 0.950 . S
H736 C733 0.950 . S
C737 C728 1.390 . S
C737 H730 0.950 . S
C737 C734 1.387 . S
C738 C739 1.387 . S
C738 H742 0.950 . S
C738 C747 1.390 . S
C739 C738 1.387 . S
C739 C741 1.387 . S
H740 C747 0.950 . S
C741 C739 1.387 . S
C741 C743 1.390 . S
C741 H745 0.950 . S
H742 C738 0.950 . S
C743 C741 1.390 . S
C743 C744 1.387 . S
C743 H746 0.950 . S
C744 C743 1.387 . S
C744 C747 1.387 . S
H745 C741 0.950 . S
H746 C743 0.950 . S
C747 C738 1.390 . S
C747 H740 0.950 . S
C747 C744 1.387 . S
C748 C749 1.387 . S
C748 H752 0.950 . S
C748 C757 1.390 . S
C749 C748 1.387 . S
C749 C751 1.387 . S
H750 C757 0.950 . S
C751 C749 1.387 . S
C751 C753 1.390 . S
C751 H755 0.950 . S
H752 C748 0.950 . S
C753 C751 1.390 . S
C753 C754 1.387 . S
C753 H756 0.950 . S
C754 C753 1.387 . S
C754 C757 1.387 . S
H755 C751 0.950 . S
H756 C753 0.950 . S
C757 C748 1.390 . S
C757 H750 0.950 . S
C757 C754 1.387 . S
C758 C759 1.387 . S
C758 H762 0.950 . S
C758 C767 1.390 . S
C759 C758 1.387 . S
C759 C761 1.387 . S
H760 C767 0.950 . S
C761 C759 1.387 . S
C761 C763 1.390 . S
C761 H765 0.950 . S
H762 C758 0.950 . S
C763 C761 1.390 . S
C763 C764 1.387 . S
C763 H766 0.950 . S
C764 C763 1.387 . S
C764 C767 1.387 . S
H765 C761 0.950 . S
H766 C763 0.950 . S
C767 C758 1.390 . S
C767 H760 0.950 . S
C767 C764 1.387 . S
C768 C769 1.387 . S
C768 H772 0.950 . S
C768 C777 1.390 . S
C769 C768 1.387 . S
C769 C771 1.387 . S
H770 C777 0.950 . S
C771 C769 1.387 . S
C771 C773 1.390 . S
C771 H775 0.950 . S
H772 C768 0.950 . S
C773 C771 1.390 . S
C773 C774 1.387 . S
C773 H776 0.950 . S
C774 C773 1.387 . S
C774 C777 1.387 . S
H775 C771 0.950 . S
H776 C773 0.950 . S
C777 C768 1.390 . S
C777 H770 0.950 . S
C777 C774 1.387 . S
C778 C779 1.387 . S
C778 H782 0.950 . S
C778 C787 1.390 . S
C779 C778 1.387 . S
C779 C781 1.387 . S
H780 C787 0.950 . S
C781 C779 1.387 . S
C781 C783 1.390 . S
C781 H785 0.950 . S
H782 C778 0.950 . S
C783 C781 1.390 . S
C783 C784 1.387 . S
C783 H786 0.950 1_565 S
C784 C783 1.387 . S
C784 C787 1.387 . S
H785 C781 0.950 . S
H786 C783 0.950 1_545 S
C787 C778 1.390 . S
C787 H780 0.950 . S
C787 C784 1.387 . S
C788 C789 1.387 . S
C788 H792 0.950 . S
C788 C797 1.390 . S
C789 C788 1.387 . S
C789 C791 1.387 . S
H790 C797 0.950 . S
C791 C789 1.387 . S
C791 C793 1.390 . S
C791 H795 0.950 . S
H792 C788 0.950 . S
C793 C791 1.390 . S
C793 C794 1.387 . S
C793 H796 0.950 . S
C794 C793 1.387 . S
C794 C797 1.387 . S
H795 C791 0.950 . S
H796 C793 0.950 . S
C797 C788 1.390 . S
C797 H790 0.950 . S
C797 C794 1.387 . S
C798 C799 1.387 . S
C798 H802 0.950 . S
C798 C807 1.390 . S
C799 C798 1.387 . S
C799 C801 1.387 . S
H800 C807 0.950 . S
C801 C799 1.387 . S
C801 C803 1.390 . S
C801 H805 0.950 1_545 S
H802 C798 0.950 . S
C803 C801 1.390 . S
C803 C804 1.387 . S
C803 H806 0.950 . S
C804 C803 1.387 . S
C804 C807 1.387 . S
H805 C801 0.950 1_565 S
H806 C803 0.950 . S
C807 C798 1.390 . S
C807 H800 0.950 . S
C807 C804 1.387 . S
C808 C809 1.387 . S
C808 H812 0.950 . S
C808 C817 1.390 . S
C809 C808 1.387 . S
C809 C811 1.387 . S
H810 C817 0.950 . S
C811 C809 1.387 . S
C811 C813 1.390 . S
C811 H815 0.950 . S
H812 C808 0.950 . S
C813 C811 1.390 . S
C813 C814 1.387 . S
C813 H816 0.950 . S
C814 C813 1.387 . S
C814 C817 1.387 . S
H815 C811 0.950 . S
H816 C813 0.950 . S
C817 C808 1.390 . S
C817 H810 0.950 . S
C817 C814 1.387 . S
C818 C819 1.387 . S
C818 H822 0.950 . S
C818 C827 1.390 . S
C819 C818 1.387 . S
C819 C821 1.387 . S
H820 C827 0.950 . S
C821 C819 1.387 . S
C821 C823 1.390 . S
C821 H825 0.950 1_545 S
H822 C818 0.950 . S
C823 C821 1.390 . S
C823 C824 1.387 . S
C823 H826 0.950 . S
C824 C823 1.387 . S
C824 C827 1.387 . S
H825 C821 0.950 1_565 S
H826 C823 0.950 . S
C827 C818 1.390 . S
C827 H820 0.950 . S
C827 C824 1.387 . S
C828 C829 1.387 . S
C828 H832 0.950 . S
C828 C837 1.390 . S
C829 C828 1.387 . S
C829 C831 1.387 . S
H830 C837 0.950 . S
C831 C829 1.387 . S
C831 C833 1.390 . S
C831 H835 0.950 . S
H832 C828 0.950 . S
C833 C831 1.390 . S
C833 C834 1.387 . S
C833 H836 0.950 . S
C834 C833 1.387 . S
C834 C837 1.387 . S
H835 C831 0.950 . S
H836 C833 0.950 . S
C837 C828 1.390 . S
C837 H830 0.950 . S
C837 C834 1.387 . S
C838 C839 1.387 . S
C838 H842 0.950 . S
C838 C847 1.390 . S
C839 C838 1.387 . S
C839 C841 1.387 . S
H840 C847 0.950 . S
C841 C839 1.387 . S
C841 C843 1.390 . S
C841 H845 0.950 . S
H842 C838 0.950 . S
C843 C841 1.390 . S
C843 C844 1.387 . S
C843 H846 0.950 1_565 S
C844 C843 1.387 . S
C844 C847 1.387 . S
H845 C841 0.950 . S
H846 C843 0.950 1_545 S
C847 C838 1.390 . S
C847 H840 0.950 . S
C847 C844 1.387 . S
C369 C16 1.164 . S
C374 C292 1.164 . S
C379 C131 1.159 . S
C384 C39 1.159 . S
C389 C62 1.162 . S
C394 C338 1.162 . S
C399 C85 1.160 . S
C404 C177 1.160 . S
C409 C108 1.160 . S
C414 C200 1.160 . S
C419 C246 1.164 . S
C424 C154 1.164 . S
C429 C315 1.162 . S
C434 C223 1.162 . S
C439 C269 1.163 . S
C444 C361 1.163 . S
C449 C225 1.772 . S
C454 C17 1.673 . S
C459 C40 1.670 . S
C464 C248 1.773 . S
C469 C63 1.673 . S
C474 C271 1.772 . S
C479 C202 1.772 . S
C484 C86 1.673 . S
C489 C317 1.772 . S
C494 C109 1.673 . S
C499 C340 1.772 . S
C504 C132 1.672 . S
C509 C155 1.670 . S
C514 C363 1.773 . S
C519 C294 1.773 . S
C524 C178 1.670 . S
C529 C201 1.670 . S
C534 C41 1.773 . S
C539 C224 1.670 . S
C544 C64 1.773 . S
C549 C247 1.671 . S
C554 C87 1.773 . S
C559 C18 1.773 . S
C564 C270 1.672 . S
C569 C133 1.772 . S
C574 C293 1.670 . S
C579 C316 1.670 . S
C584 C156 1.773 . S
C589 C179 1.773 . S
C594 C339 1.670 . S
C599 C362 1.673 . S
C604 C110 1.773 . S
C609 C20 1.433 . S
C614 C250 1.433 . S
C619 C43 1.433 . S
C624 C273 1.433 . S
C629 C204 1.436 . S
C634 C66 1.436 . S
C639 C89 1.433 . S
C644 C227 1.433 . S
C649 C112 1.436 . S
C654 C342 1.436 . S
C659 C135 1.433 . S
C664 C365 1.433 . S
C669 C296 1.436 . S
C674 C158 1.436 . S
C679 C181 1.433 . S
C684 C319 1.433 . S
C689 C21 1.379 . S
C694 C180 1.332 . S
C699 C295 1.333 . S
C704 C44 1.380 . S
C709 C67 1.380 . S
C714 C134 1.332 . S
C719 C90 1.380 . S
C724 C341 1.333 . S
C729 C113 1.380 . S
C734 C88 1.332 . S
C739 C203 1.333 . S
C744 C136 1.380 . S
C749 C159 1.379 . S
C754 C42 1.331 . S
C759 C249 1.332 . S
C764 C182 1.379 . S
C769 C205 1.379 . S
C774 C364 1.333 . S
C779 C111 1.333 . S
C784 C228 1.380 . S
C789 C318 1.333 . S
C794 C251 1.380 . S
C799 C274 1.380 . S
C804 C157 1.333 . S
C809 C297 1.379 . S
C814 C272 1.331 . S
C819 C320 1.379 . S
C824 C19 1.331 . S
C829 C226 1.333 . S
C834 C343 1.379 . S
C839 C65 1.332 . S
C844 C366 1.379 . S
