# Generated by pormake.
# Topology lcy, (6)-cn, num edge types: 1
# Building blocks:
#     Node 0, Type 0, BuildingBlock: VOLQOD_clean_sbu_1, # of connection points: 6
#     Node 1, Type 0, BuildingBlock: VOLQOD_clean_sbu_1, # of connection points: 6
#     Node 2, Type 0, BuildingBlock: VOLQOD_clean_sbu_1, # of connection points: 6
#     Node 3, Type 0, BuildingBlock: VOLQOD_clean_sbu_1, # of connection points: 6
#     Edge 4, Type (0, 0), BuildingBlock: ZUJKAS_clean_linker_0, # of connection points: 2
#     Edge 5, Type (0, 0), BuildingBlock: ZUJKAS_clean_linker_0, # of connection points: 2
#     Edge 6, Type (0, 0), BuildingBlock: ZUJKAS_clean_linker_0, # of connection points: 2
#     Edge 7, Type (0, 0), BuildingBlock: ZUJKAS_clean_linker_0, # of connection points: 2
#     Edge 8, Type (0, 0), BuildingBlock: ZUJKAS_clean_linker_0, # of connection points: 2
#     Edge 9, Type (0, 0), BuildingBlock: ZUJKAS_clean_linker_0, # of connection points: 2
#     Edge 10, Type (0, 0), BuildingBlock: ZUJKAS_clean_linker_0, # of connection points: 2
#     Edge 11, Type (0, 0), BuildingBlock: ZUJKAS_clean_linker_0, # of connection points: 2
#     Edge 12, Type (0, 0), BuildingBlock: ZUJKAS_clean_linker_0, # of connection points: 2
#     Edge 13, Type (0, 0), BuildingBlock: ZUJKAS_clean_linker_0, # of connection points: 2
#     Edge 14, Type (0, 0), BuildingBlock: ZUJKAS_clean_linker_0, # of connection points: 2
#     Edge 15, Type (0, 0), BuildingBlock: ZUJKAS_clean_linker_0, # of connection points: 2
# Relax obj value: 0.278
# Max RMSD: 0.253
# Mean RMSD: 0.248
data_MOF--net-lcy--node1-VOLQOD_clean_sbu_1--edge1-ZUJKAS_clean_linker_0
_symmetry_space_group_name_H-M    P1
_symmetry_Int_Tables_number       1
_symmetry_cell_setting            triclinic
loop_
_symmetry_equiv_pos_as_xyz
'x, y, z'
_cell_length_a     34.250156
_cell_length_b     34.030353
_cell_length_c     34.051181
_cell_angle_alpha  91.297751
_cell_angle_beta   88.220768
_cell_angle_gamma 93.094465
loop_
_atom_site_label
_atom_site_type_symbol
_atom_site_fract_x
_atom_site_fract_y
_atom_site_fract_z
_atom_type_partial_charge
O0 O 0.41283 0.29915 0.43375 0.0
Zn1 Zn 0.37126 0.3064 0.39408 0.0
O2 O 0.37412 0.35956 0.37404 0.0
Zn3 Zn 0.32357 0.38271 0.381 0.0
Zn4 Zn 0.41273 0.39141 0.40266 0.0
Zn5 Zn 0.38919 0.3584 0.31854 0.0
O6 O 0.30649 0.40683 0.33097 0.0
O7 O 0.34816 0.38171 0.28723 0.0
O8 O 0.31687 0.29073 0.41442 0.0
O9 O 0.28298 0.34088 0.39638 0.0
O10 O 0.32445 0.42279 0.42534 0.0
O11 O 0.38704 0.42821 0.44066 0.0
O12 O 0.44788 0.42289 0.36561 0.0
O13 O 0.38135 0.26791 0.35046 0.0
O14 O 0.43758 0.39311 0.30787 0.0
O15 O 0.39563 0.30333 0.29754 0.0
C16 C 0.44091 0.32209 0.44555 0.0
C17 C 0.31841 0.40149 0.29552 0.0
C18 C 0.35183 0.43754 0.44644 0.0
C19 C 0.28443 0.30669 0.41052 0.0
C20 C 0.45578 0.41903 0.32898 0.0
C21 C 0.3906 0.27021 0.31412 0.0
O22 O 0.44507 0.35766 0.43471 0.0
O23 O 0.93343 0.06042 0.65976 0.0
Zn24 Zn 0.89648 0.10494 0.66288 0.0
O25 O 0.86317 0.10501 0.61791 0.0
Zn26 Zn 0.86683 0.15627 0.59437 0.0
Zn27 Zn 0.88172 0.06707 0.58008 0.0
Zn28 Zn 0.8089 0.09167 0.63278 0.0
O29 O 0.81365 0.17497 0.58258 0.0
O30 O 0.77544 0.13646 0.6212 0.0
O31 O 0.92403 0.15803 0.67186 0.0
O32 O 0.8927 0.19522 0.63165 0.0
O33 O 0.90198 0.15617 0.54603 0.0
O34 O 0.91583 0.09347 0.53843 0.0
O35 O 0.83671 0.03689 0.55641 0.0
O36 O 0.86315 0.09504 0.71109 0.0
O37 O 0.78722 0.04637 0.59883 0.0
O38 O 0.8028 0.08109 0.6909 0.0
C39 C 0.9343 0.03071 0.63632 0.0
C40 C 0.78037 0.16562 0.59848 0.0
C41 C 0.92042 0.12922 0.5282 0.0
C42 C 0.91649 0.1917 0.65923 0.0
C43 C 0.80142 0.02969 0.56805 0.0
C44 C 0.82732 0.08527 0.71832 0.0
O45 O 0.91392 0.02855 0.60569 0.0
O46 O 0.06907 0.66871 0.81541 0.0
Zn47 Zn 0.0784 0.63103 0.8589 0.0
O48 O 0.13274 0.63409 0.87446 0.0
Zn49 Zn 0.15296 0.58159 0.87438 0.0
Zn50 Zn 0.16269 0.66567 0.83672 0.0
Zn51 Zn 0.1374 0.65897 0.92651 0.0
O52 O 0.17116 0.56814 0.928 0.0
O53 O 0.15535 0.62009 0.96465 0.0
O54 O 0.06115 0.5758 0.84214 0.0
O55 O 0.11102 0.54134 0.85911 0.0
O56 O 0.19615 0.57566 0.83312 0.0
O57 O 0.19792 0.63331 0.80366 0.0
O58 O 0.19647 0.70612 0.86331 0.0
O59 O 0.04419 0.6479 0.90416 0.0
O60 O 0.17842 0.70437 0.92639 0.0
O61 O 0.08501 0.67634 0.94711 0.0
C62 C 0.09223 0.69235 0.79631 0.0
C63 C 0.1688 0.58598 0.96125 0.0
C64 C 0.20953 0.59865 0.8063 0.0
C65 C 0.07696 0.54305 0.84552 0.0
C66 C 0.19972 0.71894 0.89841 0.0
C67 C 0.0504 0.6673 0.93598 0.0
O68 O 0.12877 0.69407 0.80195 0.0
O69 O 0.52692 0.89811 0.16036 0.0
Zn70 Zn 0.57428 0.865 0.15989 0.0
O71 O 0.60794 0.87391 0.11333 0.0
Zn72 Zn 0.61248 0.82494 0.08324 0.0
Zn73 Zn 0.585 0.91147 0.08079 0.0
Zn74 Zn 0.65954 0.89497 0.12818 0.0
O75 O 0.669 0.81433 0.07173 0.0
O76 O 0.69984 0.85655 0.1125 0.0
O77 O 0.55943 0.80732 0.1661 0.0
O78 O 0.59046 0.77989 0.11511 0.0
O79 O 0.58133 0.82424 0.03369 0.0
O80 O 0.56288 0.88565 0.03311 0.0
O81 O 0.62382 0.95356 0.06357 0.0
O82 O 0.60321 0.88183 0.20806 0.0
O83 O 0.67587 0.94439 0.09865 0.0
O84 O 0.66156 0.90541 0.1866 0.0
C85 C 0.51909 0.92652 0.13867 0.0
C86 C 0.70014 0.82766 0.08807 0.0
C87 C 0.56315 0.85122 0.01796 0.0
C88 C 0.56957 0.77695 0.14657 0.0
C89 C 0.65857 0.9635 0.07323 0.0
C90 C 0.63692 0.89773 0.21458 0.0
O91 O 0.54046 0.93579 0.10876 0.0
H92 H 0.15886 0.61025 0.03786 0.0
H93 H 0.1814 0.57918 0.09651 0.0
H94 H 0.23066 0.48764 0.02418 0.0
H95 H 0.20819 0.5183 0.9652 0.0
H96 H 0.16449 0.49456 0.12028 0.0
H97 H 0.32169 0.53914 0.09396 0.0
H98 H 0.28274 0.56412 0.07218 0.0
H99 H 0.2962 0.51708 0.05288 0.0
C100 C 0.17449 0.5835 0.03433 0.0
C101 C 0.18191 0.56685 -0.00322 0.0
C102 C 0.1872 0.56578 0.0679 0.0
C103 C 0.20784 0.5314 0.06447 0.0
C104 C 0.21498 0.51441 0.02722 0.0
H105 H 0.32851 0.38618 0.21713 0.0
H106 H 0.29877 0.41782 0.16293 0.0
C107 C 0.20206 0.53192 0.99362 0.0
C108 C 0.22241 0.51347 0.09985 0.0
H109 H 0.30633 0.49594 0.14616 0.0
C110 C 0.19545 0.49493 0.1262 0.0
C111 C 0.26277 0.51427 0.10726 0.0
C112 C 0.29266 0.53493 0.08032 0.0
C113 C 0.20802 0.47592 0.15936 0.0
C114 C 0.2485 0.47635 0.16657 0.0
C115 C 0.27532 0.49558 0.14049 0.0
C116 C 0.2641 0.4558 0.20008 0.0
C117 C 0.17804 0.45449 0.18561 0.0
C118 C 0.25425 0.46653 0.23905 0.0
C119 C 0.27106 0.44823 0.27032 0.0
C120 C 0.29837 0.41932 0.26299 0.0
C121 C 0.30774 0.40845 0.22387 0.0
C122 C 0.29077 0.42649 0.19279 0.0
H123 H 0.14973 0.44884 0.17087 0.0
H124 H 0.18869 0.42596 0.1948 0.0
H125 H 0.1726 0.47274 0.21243 0.0
H126 H 0.2343 0.48965 0.24529 0.0
H127 H 0.26344 0.45743 0.3001 0.0
H128 H 0.70331 0.93721 0.24037 0.0
H129 H 0.72037 0.95285 0.30834 0.0
H130 H 0.61179 0.89583 0.34956 0.0
H131 H 0.59431 0.87991 0.28174 0.0
H132 H 0.67165 -0.00313 0.36598 0.0
H133 H 0.70181 0.84505 0.41043 0.0
H134 H 0.70283 0.85913 0.35956 0.0
H135 H 0.65695 0.85222 0.38594 0.0
C136 C 0.68306 0.92787 0.26382 0.0
C137 C 0.64749 0.90725 0.2556 0.0
C138 C 0.69284 0.93688 0.30259 0.0
C139 C 0.66741 0.92518 0.33373 0.0
C140 C 0.63189 0.9047 0.3258 0.0
H141 H 0.72122 0.02523 0.56751 0.0
H142 H 0.68057 -0.00566 0.51611 0.0
C143 C 0.62197 0.8958 0.28702 0.0
C144 C 0.67814 0.93518 0.37447 0.0
H145 H 0.71344 0.89626 0.45686 0.0
C146 C 0.68021 0.97493 0.3862 0.0
C147 C 0.6892 0.90625 0.40045 0.0
C148 C 0.68787 0.86321 0.38866 0.0
C149 C 0.6947 0.98683 0.42285 0.0
C150 C 0.70701 0.95804 0.44842 0.0
C151 C 0.7035 0.91809 0.43727 0.0
C152 C 0.72908 0.96955 0.48377 0.0
C153 C 0.69893 0.03026 0.43295 0.0
C154 C 0.76928 0.96389 0.48352 0.0
C155 C 0.79246 0.98135 0.51265 0.0
C156 C 0.77577 0.00468 0.54263 0.0
C157 C 0.73493 0.00755 0.54468 0.0
C158 C 0.71171 0.99011 0.51531 0.0
H159 H 0.69282 0.04881 0.40765 0.0
H160 H 0.6781 0.03725 0.4574 0.0
H161 H 0.72895 0.03834 0.44285 0.0
H162 H 0.78315 0.94797 0.45944 0.0
H163 H 0.82377 0.97817 0.51052 0.0
H164 H 0.26044 0.64208 0.75966 0.0
H165 H 0.29503 0.61957 0.70018 0.0
H166 H 0.25172 0.50036 0.72169 0.0
H167 H 0.21801 0.52248 0.78197 0.0
H168 H 0.32699 0.50433 0.69051 0.0
H169 H 0.22966 0.5932 0.60469 0.0
H170 H 0.25851 0.6212 0.63964 0.0
H171 H 0.22176 0.58523 0.65656 0.0
C172 C 0.25891 0.61095 0.7521 0.0
C173 C 0.23607 0.58407 0.77504 0.0
C174 C 0.27851 0.59821 0.71805 0.0
C175 C 0.27492 0.55855 0.70602 0.0
C176 C 0.25454 0.53118 0.73038 0.0
H177 H 0.27929 0.45115 0.47772 0.0
H178 H 0.26394 0.48395 0.5403 0.0
C179 C 0.23536 0.54383 0.7648 0.0
C180 C 0.28955 0.54603 0.66668 0.0
H181 H 0.27715 0.55861 0.56879 0.0
C182 C 0.31636 0.51631 0.66384 0.0
C183 C 0.27503 0.56141 0.63204 0.0
C184 C 0.24438 0.59175 0.6332 0.0
C185 C 0.32875 0.50114 0.62717 0.0
C186 C 0.31458 0.51688 0.59255 0.0
C187 C 0.28823 0.54699 0.59542 0.0
C188 C 0.32422 0.50035 0.55315 0.0
C189 C 0.35558 0.46733 0.62592 0.0
C190 C 0.36309 0.50003 0.53902 0.0
C191 C 0.37202 0.48107 0.50334 0.0
C192 C 0.34211 0.46255 0.48101 0.0
C193 C 0.30301 0.46505 0.49419 0.0
C194 C 0.29418 0.48372 0.53 0.0
H195 H 0.35631 0.45288 0.65481 0.0
H196 H 0.34635 0.44485 0.60346 0.0
H197 H 0.38576 0.47854 0.61803 0.0
H198 H 0.38658 0.51366 0.55601 0.0
H199 H 0.40241 0.48002 0.4938 0.0
H200 H 0.73736 0.983 0.07332 0.0
H201 H 0.77497 0.01994 0.02284 0.0
H202 H 0.66774 0.04721 0.9687 0.0
H203 H 0.63012 0.01165 0.01931 0.0
H204 H 0.77246 0.9929 0.94947 0.0
H205 H 0.73122 0.14723 0.94999 0.0
H206 H 0.7213 0.11601 0.99172 0.0
H207 H 0.68823 0.11485 0.95147 0.0
C208 C 0.72176 -0.00184 0.05155 0.0
C209 C 0.68077 0.99381 0.04993 0.0
C210 C 0.74331 0.01922 0.02269 0.0
C211 C 0.7242 0.03642 0.99202 0.0
C212 C 0.68319 0.03495 0.99243 0.0
H213 H 0.75235 0.07212 0.74757 0.0
H214 H 0.7314 0.06372 0.81646 0.0
C215 C 0.66167 0.01414 0.02127 0.0
C216 C 0.74626 0.04898 0.956 0.0
H217 H 0.75154 0.11958 0.8861 0.0
C218 C 0.76875 0.02104 0.93611 0.0
C219 C 0.74119 0.08557 0.93844 0.0
C220 C 0.71948 0.11771 0.95931 0.0
C221 C 0.78425 0.02772 0.89818 0.0
C222 C 0.77722 0.06332 0.87984 0.0
C223 C 0.75638 0.0921 0.90026 0.0
C224 C 0.78991 0.07022 0.83873 0.0
C225 C 0.80636 -0.0041 0.87712 0.0
C226 C 0.82964 0.07674 0.82882 0.0
C227 C 0.84172 0.08144 0.78965 0.0
C228 C 0.81419 0.07968 0.75969 0.0
C229 C 0.77428 0.07342 0.76987 0.0
C230 C 0.76224 0.06886 0.80916 0.0
H231 H 0.80488 0.96801 0.89357 0.0
H232 H 0.79453 0.98987 0.84745 0.0
H233 H 0.83756 0.00601 0.87323 0.0
H234 H 0.85131 0.07797 0.8514 0.0
H235 H 0.87269 0.08633 0.78291 0.0
H236 H 0.9375 0.20173 0.49707 0.0
H237 H -0.00097 0.22412 0.46487 0.0
H238 H 0.03819 0.1058 0.46411 0.0
H239 H 0.97673 0.08297 0.49644 0.0
H240 H 0.08526 0.16249 0.50587 0.0
H241 H 0.05572 0.21327 0.35662 0.0
H242 H 0.0225 0.23045 0.39428 0.0
H243 H 0.02315 0.17867 0.38278 0.0
C244 C 0.95863 0.18017 0.48896 0.0
C245 C 0.95241 0.14065 0.49986 0.0
C246 C -0.00627 0.19303 0.47033 0.0
C247 C 0.02306 0.16658 0.46212 0.0
C248 C 0.01577 0.12658 0.47014 0.0
H249 H 0.27337 0.22766 0.4232 0.0
H250 H 0.21112 0.19016 0.43376 0.0
C251 C 0.98057 0.11363 0.48857 0.0
C252 C 0.06308 0.18182 0.45147 0.0
H253 H 0.11581 0.2377 0.38469 0.0
C254 C 0.09224 0.17836 0.47905 0.0
C255 C 0.07177 0.20276 0.4167 0.0
C256 C 0.04174 0.20628 0.38569 0.0
C257 C 0.12949 0.19692 0.47369 0.0
C258 C 0.13796 0.21871 0.43931 0.0
C259 C 0.10916 0.22105 0.41108 0.0
C260 C 0.17583 0.24101 0.43301 0.0
C261 C 0.15867 0.19468 0.50579 0.0
C262 C 0.17652 0.2819 0.42854 0.0
C263 C 0.21192 0.30333 0.42213 0.0
C264 C 0.24736 0.28425 0.42017 0.0
C265 C 0.24663 0.24329 0.42506 0.0
C266 C 0.2111 0.22181 0.43112 0.0
H267 H 0.14442 0.18519 0.53403 0.0
H268 H 0.18044 0.17289 0.497 0.0
H269 H 0.17455 0.2236 0.51073 0.0
H270 H 0.1496 0.29727 0.42998 0.0
H271 H 0.21145 0.33484 0.41845 0.0
H272 H 0.1332 0.74978 0.75533 0.0
H273 H 0.10704 0.80457 0.72183 0.0
H274 H 0.98967 0.75601 0.74379 0.0
H275 H 0.01555 0.70132 0.77859 0.0
H276 H 0.06086 0.81305 0.65934 0.0
H277 H 0.98765 0.86357 0.79789 0.0
H278 H 0.02199 0.82519 0.79656 0.0
H279 H 0.97236 0.81456 0.78226 0.0
C280 C 0.10179 0.75036 0.75273 0.0
C281 C 0.07641 0.72148 0.7703 0.0
C282 C 0.08693 0.78173 0.73345 0.0
C283 C 0.04644 0.78481 0.7312 0.0
C284 C 0.02103 0.75463 0.74615 0.0
H285 H 0.93318 0.95867 0.59939 0.0
H286 H 0.96297 0.89968 0.62052 0.0
C287 C 0.03587 0.72328 0.76577 0.0
C288 C 0.03119 0.82092 0.71543 0.0
H289 H 0.97725 0.89942 0.74096 0.0
C290 C 0.04252 0.83196 0.6771 0.0
C291 C 0.00805 0.84593 0.73906 0.0
C292 C -0.00293 0.83702 0.78135 0.0
C293 C 0.03102 0.86725 0.66159 0.0
C294 C 0.00684 0.89161 0.68481 0.0
C295 C -0.00427 0.88064 0.7232 0.0
C296 C 0.99195 0.92829 0.66988 0.0
C297 C 0.04564 0.87848 0.6209 0.0
C298 C -0.00195 0.96401 0.69084 0.0
C299 C 0.9805 -0.00217 0.67919 0.0
C300 C 0.95658 -0.00354 0.64634 0.0
C301 C 0.95163 0.96089 0.6247 0.0
C302 C 0.96887 0.92709 0.63657 0.0
H303 H 0.07288 0.86372 0.61236 0.0
H304 H 0.02313 0.86909 0.59938 0.0
H305 H 0.05142 0.9108 0.61882 0.0
H306 H 0.01569 0.96549 0.71675 0.0
H307 H 0.98492 0.02472 0.69648 0.0
H308 H 0.23481 0.73487 0.96855 0.0
H309 H 0.29821 0.76996 0.97751 0.0
H310 H 0.30245 0.80196 0.85554 0.0
H311 H 0.23938 0.76676 0.84621 0.0
H312 H 0.36563 0.76112 0.87644 0.0
H313 H 0.34109 0.88441 0.98169 0.0
H314 H 0.31902 0.83841 -0.00183 0.0
H315 H 0.30197 0.85997 0.95452 0.0
C316 C 0.24861 0.75048 0.944 0.0
C317 C 0.23238 0.74768 0.9066 0.0
C318 C 0.28482 0.77057 0.94915 0.0
C319 C 0.30492 0.7885 0.91713 0.0
C320 C 0.28737 0.78822 0.88054 0.0
H321 H 0.53076 0.90199 0.96923 0.0
H322 H 0.47105 0.88879 0.93283 0.0
C323 C 0.25134 0.76809 0.87533 0.0
C324 C 0.34617 0.80275 0.92058 0.0
H325 H 0.40667 0.86254 0.97577 0.0
C326 C 0.37466 0.78384 0.89764 0.0
C327 C 0.35774 0.83264 0.94784 0.0
C328 C 0.32832 0.85532 0.97169 0.0
C329 C 0.41465 0.79254 0.90287 0.0
C330 C 0.42622 0.82047 0.93208 0.0
C331 C 0.3977 0.84095 0.95344 0.0
C332 C 0.46724 0.82638 0.94401 0.0
C333 C 0.44407 0.7712 0.8777 0.0
C334 C 0.48596 0.79522 0.96045 0.0
C335 C 0.52025 0.80261 0.98114 0.0
C336 C 0.53582 0.84137 0.98613 0.0
C337 C 0.51916 0.87185 0.96623 0.0
C338 C 0.48504 0.86441 0.94544 0.0
H339 H 0.43164 0.76134 0.84914 0.0
H340 H 0.47098 0.79012 0.87195 0.0
H341 H 0.4523 0.74465 0.89317 0.0
H342 H 0.47239 0.76572 0.96017 0.0
H343 H 0.53232 0.77854 -0.00379 0.0
H344 H 0.40115 0.26167 0.2343 0.0
H345 H 0.40739 0.2002 0.19643 0.0
H346 H 0.39563 0.13457 0.30344 0.0
H347 H 0.38863 0.19539 0.34133 0.0
H348 H 0.46476 0.14994 0.20376 0.0
H349 H 0.32199 0.0707 0.23319 0.0
H350 H 0.33017 0.12283 0.24307 0.0
H351 H 0.34479 0.08756 0.27765 0.0
C352 C 0.39959 0.23412 0.24972 0.0
C353 C 0.39445 0.23343 0.29083 0.0
C354 C 0.4029 0.19906 0.22803 0.0
C355 C 0.40103 0.16283 0.24708 0.0
C356 C 0.39589 0.16209 0.28804 0.0
H357 H 0.4862 0.9371 0.21208 0.0
H358 H 0.44823 0.99283 0.2341 0.0
C359 C 0.39239 0.197 0.3097 0.0
C360 C 0.40871 0.12612 0.22491 0.0
H361 H 0.37504 0.03062 0.21129 0.0
C362 C 0.44481 0.12408 0.20467 0.0
C363 C 0.38261 0.09245 0.22636 0.0
C364 C 0.34256 0.09358 0.24593 0.0
C365 C 0.45649 0.08871 0.18756 0.0
C366 C 0.43105 0.05466 0.1903 0.0
C367 C 0.39436 0.05688 0.20934 0.0
C368 C 0.44391 0.01618 0.17592 0.0
C369 C 0.4968 0.08758 0.16835 0.0
C370 C 0.45185 0.00988 0.13576 0.0
C371 C 0.47377 0.97841 0.12316 0.0
C372 C 0.48772 0.95266 0.1506 0.0
C373 C 0.47597 0.95657 0.19033 0.0
C374 C 0.45427 0.98833 0.20294 0.0
H375 H 0.51521 0.1147 0.1748 0.0
H376 H 0.51209 0.06182 0.17836 0.0
H377 H 0.49407 0.08468 0.13602 0.0
H378 H 0.44359 0.03093 0.11452 0.0
H379 H 0.48188 0.97571 0.09225 0.0
H380 H 0.76722 0.20253 0.53036 0.0
H381 H 0.70754 0.23307 0.51248 0.0
H382 H 0.65706 0.21006 0.62799 0.0
H383 H 0.71588 0.17735 0.64508 0.0
H384 H 0.6063 0.19021 0.5775 0.0
H385 H 0.66719 0.3374 0.53658 0.0
H386 H 0.69109 0.30046 0.50798 0.0
H387 H 0.6959 0.30271 0.56063 0.0
C388 C 0.74358 0.20453 0.55208 0.0
C389 C 0.74612 0.1877 0.5891 0.0
C390 C 0.70955 0.22226 0.54196 0.0
C391 C 0.67799 0.22468 0.56915 0.0
C392 C 0.681 0.20868 0.60653 0.0
H393 H 0.48417 0.36245 0.50043 0.0
H394 H 0.53831 0.3387 0.53687 0.0
C395 C 0.71461 0.19007 0.6163 0.0
C396 C 0.64087 0.24121 0.55761 0.0
H397 H 0.60413 0.31785 0.51055 0.0
C398 C 0.60578 0.21845 0.56344 0.0
C399 C 0.63982 0.27842 0.54005 0.0
C400 C 0.6755 0.30628 0.5364 0.0
C401 C 0.57004 0.23112 0.55084 0.0
C402 C 0.56959 0.26673 0.5302 0.0
C403 C 0.60441 0.29022 0.52579 0.0
C404 C 0.53387 0.27965 0.51166 0.0
C405 C 0.53323 0.20629 0.56023 0.0
C406 C 0.51287 0.25428 0.4858 0.0
C407 C 0.48124 0.26751 0.46583 0.0
C408 C 0.4709 0.30674 0.47033 0.0
C409 C 0.49161 0.33204 0.49642 0.0
C410 C 0.52258 0.31852 0.51716 0.0
H411 H 0.5361 0.18976 0.58768 0.0
H412 H 0.50733 0.22445 0.5637 0.0
H413 H 0.52809 0.18434 0.5361 0.0
H414 H 0.52172 0.22461 0.47992 0.0
H415 H 0.46614 0.2476 0.4454 0.0
H416 H 0.01166 0.53539 0.801 0.0
H417 H 0.98241 0.4747 0.77193 0.0
H418 H 0.06726 0.40729 0.82778 0.0
H419 H 0.09679 0.46758 0.85694 0.0
H420 H 0.02883 0.42155 0.72134 0.0
H421 H 0.95809 0.34887 0.852 0.0
H422 H 0.96948 0.40131 0.85059 0.0
H423 H 0.00764 0.36818 0.85725 0.0
C424 C 0.02375 0.50762 0.80761 0.0
C425 C 0.05664 0.50633 0.83117 0.0
C426 C 0.00705 0.47305 0.79092 0.0
C427 C 0.02261 0.4367 0.798 0.0
C428 C 0.05463 0.43511 0.82241 0.0
H429 H 0.97192 0.19684 0.71575 0.0
H430 H -0.00082 0.25654 0.74832 0.0
C431 C 0.07153 0.46963 0.83887 0.0
C432 C 0.00729 0.40072 0.77758 0.0
H433 H 0.9599 0.31139 0.79263 0.0
C434 C 0.01355 0.39749 0.73679 0.0
C435 C 0.98789 0.36942 0.79809 0.0
C436 C 0.98003 0.37198 0.84189 0.0
C437 C 0.00124 0.36336 0.71584 0.0
C438 C 0.98133 0.33216 0.73624 0.0
C439 C 0.9752 0.33539 0.77713 0.0
C440 C 0.96586 0.29623 0.71559 0.0
C441 C 0.01049 0.3607 0.67226 0.0
C442 C 0.93803 0.29887 0.68657 0.0
C443 C 0.92264 0.26495 0.66772 0.0
C444 C 0.93441 0.22764 0.67793 0.0
C445 C 0.96229 0.2251 0.70712 0.0
C446 C 0.97784 0.25914 0.72582 0.0
H447 H 0.03533 0.38136 0.66358 0.0
H448 H 0.01779 0.33039 0.66306 0.0
H449 H 0.98456 0.36862 0.656 0.0
H450 H 0.92774 0.32716 0.6789 0.0
H451 H 0.90098 0.268 0.64564 0.0
H452 H 0.05042 0.71739 0.00031 0.0
H453 H -0.00667 0.74224 0.03609 0.0
H454 H 0.91687 0.6726 0.96037 0.0
H455 H 0.9733 0.64744 0.92475 0.0
H456 H 0.93532 0.78435 0.00108 0.0
H457 H 0.87101 0.64918 0.07068 0.0
H458 H 0.92106 0.65349 0.05223 0.0
H459 H 0.88183 0.64274 0.01908 0.0
C460 C 0.02145 0.70696 0.99163 0.0
C461 C 0.01642 0.6805 0.95961 0.0
C462 C 0.98894 0.72117 0.0121 0.0
C463 C 0.95101 0.70877 0.00117 0.0
C464 C 0.94593 0.68186 0.96976 0.0
H465 H 0.71369 0.76823 0.03465 0.0
H466 H 0.77623 0.74002 0.01734 0.0
C467 C 0.97829 0.66778 0.94923 0.0
C468 C 0.91652 0.72629 0.02011 0.0
H469 H 0.82864 0.70263 0.06582 0.0
C470 C 0.91224 0.7667 0.01586 0.0
C471 C 0.88653 0.70301 0.03915 0.0
C472 C 0.89042 0.65975 0.04593 0.0
C473 C 0.8778 0.7842 0.02851 0.0
C474 C 0.84729 0.76066 0.04647 0.0
C475 C 0.85209 0.72049 0.05186 0.0
C476 C 0.80949 0.7769 0.05828 0.0
C477 C 0.87364 0.8273 0.02095 0.0
C478 C 0.80756 0.80651 0.08743 0.0
C479 C 0.77196 0.82284 0.09727 0.0
C480 C 0.73761 0.80959 0.07829 0.0
C481 C 0.73958 0.77922 0.04972 0.0
C482 C 0.77523 0.76299 0.03985 0.0
H483 H 0.89614 0.839 -0.00057 0.0
H484 H 0.84424 0.83229 0.00976 0.0
H485 H 0.87705 0.84437 0.04889 0.0
H486 H 0.83362 0.8171 0.10244 0.0
H487 H 0.77146 0.84595 0.11965 0.0
H488 H 0.57845 0.70597 0.10912 0.0
H489 H 0.56667 0.64045 0.13656 0.0
H490 H 0.52687 0.69245 0.24622 0.0
H491 H 0.53837 0.75824 0.21916 0.0
H492 H 0.59189 0.63025 0.24445 0.0
H493 H 0.45285 0.58763 0.16964 0.0
H494 H 0.49264 0.61129 0.14166 0.0
H495 H 0.46783 0.63852 0.17957 0.0
C496 C 0.56689 0.70355 0.13898 0.0
C497 C 0.55933 0.73735 0.16198 0.0
C498 C 0.56024 0.66611 0.15454 0.0
C499 C 0.54606 0.66191 0.1933 0.0
C500 C 0.53793 0.69537 0.21621 0.0
H501 H 0.4877 0.48714 0.36121 0.0
H502 H 0.51747 0.543 0.32594 0.0
C503 C 0.54431 0.73285 0.20062 0.0
C504 C 0.54014 0.62254 0.21021 0.0
H505 H 0.47672 0.54205 0.21235 0.0
C506 C 0.5669 0.61072 0.23735 0.0
C507 C 0.50783 0.59725 0.2003 0.0
C508 C 0.4784 0.60909 0.17131 0.0
C509 C 0.56173 0.57415 0.25553 0.0
C510 C 0.52842 0.54944 0.24692 0.0
C511 C 0.50234 0.56094 0.21881 0.0
C512 C 0.51778 0.51328 0.26903 0.0
C513 C 0.59196 0.56242 0.2837 0.0
C514 C 0.50856 0.47772 0.24889 0.0
C515 C 0.49091 0.44578 0.26894 0.0
C516 C 0.48213 0.44895 0.30948 0.0
C517 C 0.49409 0.48363 0.33001 0.0
C518 C 0.51141 0.51562 0.30989 0.0
H519 H 0.62116 0.57664 0.27634 0.0
H520 H 0.58342 0.57232 0.31388 0.0
H521 H 0.59446 0.53002 0.28357 0.0
H522 H 0.51322 0.47534 0.21733 0.0
H523 H 0.48228 0.41941 0.25227 0.0
loop_
_geom_bond_atom_site_label_1
_geom_bond_atom_site_label_2
_geom_bond_distance
_geom_bond_site_symmetry_2
_ccdc_geom_bond_type
O0 Zn1 1.953 . S
O0 C16 1.225 . S
Zn1 O0 1.953 . S
Zn1 O2 1.949 . S
Zn1 O8 1.919 . S
Zn1 O13 1.924 . S
O2 Zn1 1.949 . S
O2 Zn3 1.923 . S
O2 Zn4 1.950 . S
O2 Zn5 1.945 . S
Zn3 O2 1.923 . S
Zn3 O6 1.933 . S
Zn3 O9 1.941 . S
Zn3 O10 1.965 . S
Zn4 O2 1.950 . S
Zn4 O11 1.938 . S
Zn4 O12 1.906 . S
Zn4 O22 1.953 . S
Zn5 O2 1.945 . S
Zn5 O7 1.932 . S
Zn5 O14 1.977 . S
Zn5 O15 1.910 . S
O6 Zn3 1.933 . S
O6 C17 1.226 . S
O7 Zn5 1.932 . S
O7 C17 1.307 . S
O8 Zn1 1.919 . S
O8 C19 1.253 . S
O9 Zn3 1.941 . S
O9 C19 1.283 . S
O10 Zn3 1.965 . S
O10 C18 1.303 . S
O11 Zn4 1.938 . S
O11 C18 1.247 . S
O12 Zn4 1.906 . S
O12 C20 1.304 . S
O13 Zn1 1.924 . S
O13 C21 1.311 . S
O14 Zn5 1.977 . S
O14 C20 1.272 . S
O15 Zn5 1.910 . S
O15 C21 1.231 . S
C16 O0 1.225 . S
C16 O22 1.298 . S
C17 O6 1.226 . S
C17 O7 1.307 . S
C18 O10 1.303 . S
C18 O11 1.247 . S
C19 O8 1.253 . S
C19 O9 1.283 . S
C20 O12 1.304 . S
C20 O14 1.272 . S
C21 O13 1.311 . S
C21 O15 1.231 . S
O22 Zn4 1.953 . S
O22 C16 1.298 . S
O23 Zn24 1.953 . S
O23 C39 1.225 . S
Zn24 O23 1.953 . S
Zn24 O25 1.949 . S
Zn24 O31 1.919 . S
Zn24 O36 1.924 . S
O25 Zn24 1.949 . S
O25 Zn26 1.923 . S
O25 Zn27 1.950 . S
O25 Zn28 1.945 . S
Zn26 O25 1.923 . S
Zn26 O29 1.933 . S
Zn26 O32 1.941 . S
Zn26 O33 1.965 . S
Zn27 O25 1.950 . S
Zn27 O34 1.938 . S
Zn27 O35 1.906 . S
Zn27 O45 1.953 . S
Zn28 O25 1.945 . S
Zn28 O30 1.932 . S
Zn28 O37 1.977 . S
Zn28 O38 1.910 . S
O29 Zn26 1.933 . S
O29 C40 1.226 . S
O30 Zn28 1.932 . S
O30 C40 1.307 . S
O31 Zn24 1.919 . S
O31 C42 1.253 . S
O32 Zn26 1.941 . S
O32 C42 1.283 . S
O33 Zn26 1.965 . S
O33 C41 1.303 . S
O34 Zn27 1.938 . S
O34 C41 1.247 . S
O35 Zn27 1.906 . S
O35 C43 1.304 . S
O36 Zn24 1.924 . S
O36 C44 1.311 . S
O37 Zn28 1.977 . S
O37 C43 1.272 . S
O38 Zn28 1.910 . S
O38 C44 1.231 . S
C39 O23 1.225 . S
C39 O45 1.298 . S
C40 O29 1.226 . S
C40 O30 1.307 . S
C41 O33 1.303 . S
C41 O34 1.247 . S
C42 O31 1.253 . S
C42 O32 1.283 . S
C43 O35 1.304 . S
C43 O37 1.272 . S
C44 O36 1.311 . S
C44 O38 1.231 . S
O45 Zn27 1.953 . S
O45 C39 1.298 . S
O46 Zn47 1.953 . S
O46 C62 1.225 . S
Zn47 O46 1.953 . S
Zn47 O48 1.949 . S
Zn47 O54 1.919 . S
Zn47 O59 1.924 . S
O48 Zn47 1.949 . S
O48 Zn49 1.923 . S
O48 Zn50 1.950 . S
O48 Zn51 1.945 . S
Zn49 O48 1.923 . S
Zn49 O52 1.933 . S
Zn49 O55 1.941 . S
Zn49 O56 1.965 . S
Zn50 O48 1.950 . S
Zn50 O57 1.938 . S
Zn50 O58 1.906 . S
Zn50 O68 1.953 . S
Zn51 O48 1.945 . S
Zn51 O53 1.932 . S
Zn51 O60 1.977 . S
Zn51 O61 1.910 . S
O52 Zn49 1.933 . S
O52 C63 1.226 . S
O53 Zn51 1.932 . S
O53 C63 1.307 . S
O54 Zn47 1.919 . S
O54 C65 1.253 . S
O55 Zn49 1.941 . S
O55 C65 1.283 . S
O56 Zn49 1.965 . S
O56 C64 1.303 . S
O57 Zn50 1.938 . S
O57 C64 1.247 . S
O58 Zn50 1.906 . S
O58 C66 1.304 . S
O59 Zn47 1.924 . S
O59 C67 1.311 . S
O60 Zn51 1.977 . S
O60 C66 1.272 . S
O61 Zn51 1.910 . S
O61 C67 1.231 . S
C62 O46 1.225 . S
C62 O68 1.298 . S
C63 O52 1.226 . S
C63 O53 1.307 . S
C64 O56 1.303 . S
C64 O57 1.247 . S
C65 O54 1.253 . S
C65 O55 1.283 . S
C66 O58 1.304 . S
C66 O60 1.272 . S
C67 O59 1.311 . S
C67 O61 1.231 . S
O68 Zn50 1.953 . S
O68 C62 1.298 . S
O69 Zn70 1.953 . S
O69 C85 1.225 . S
Zn70 O69 1.953 . S
Zn70 O71 1.949 . S
Zn70 O77 1.919 . S
Zn70 O82 1.924 . S
O71 Zn70 1.949 . S
O71 Zn72 1.923 . S
O71 Zn73 1.950 . S
O71 Zn74 1.945 . S
Zn72 O71 1.923 . S
Zn72 O75 1.933 . S
Zn72 O78 1.941 . S
Zn72 O79 1.965 . S
Zn73 O71 1.950 . S
Zn73 O80 1.938 . S
Zn73 O81 1.906 . S
Zn73 O91 1.953 . S
Zn74 O71 1.945 . S
Zn74 O76 1.932 . S
Zn74 O83 1.977 . S
Zn74 O84 1.910 . S
O75 Zn72 1.933 . S
O75 C86 1.226 . S
O76 Zn74 1.932 . S
O76 C86 1.307 . S
O77 Zn70 1.919 . S
O77 C88 1.253 . S
O78 Zn72 1.941 . S
O78 C88 1.283 . S
O79 Zn72 1.965 . S
O79 C87 1.303 . S
O80 Zn73 1.938 . S
O80 C87 1.247 . S
O81 Zn73 1.906 . S
O81 C89 1.304 . S
O82 Zn70 1.924 . S
O82 C90 1.311 . S
O83 Zn74 1.977 . S
O83 C89 1.272 . S
O84 Zn74 1.910 . S
O84 C90 1.231 . S
C85 O69 1.225 . S
C85 O91 1.298 . S
C86 O75 1.226 . S
C86 O76 1.307 . S
C87 O79 1.303 . S
C87 O80 1.247 . S
C88 O77 1.253 . S
C88 O78 1.283 . S
C89 O81 1.304 . S
C89 O83 1.272 . S
C90 O82 1.311 . S
C90 O84 1.231 . S
O91 Zn73 1.953 . S
O91 C85 1.298 . S
H92 C100 0.929 . S
H93 C102 0.930 . S
H94 C104 0.930 . S
H95 C107 0.929 . S
H96 C110 0.930 . S
H97 C112 0.960 . S
H98 C112 0.960 . S
H99 C112 0.960 . S
C100 H92 0.929 . S
C100 C101 1.377 1_554 S
C100 C102 1.384 . S
C101 C100 1.377 1_556 S
C101 C107 1.390 . S
C102 H93 0.930 . S
C102 C100 1.384 . S
C102 C103 1.372 . S
C103 C102 1.372 . S
C103 C104 1.400 . S
C103 C108 1.490 . S
C104 H94 0.930 . S
C104 C103 1.400 . S
C104 C107 1.386 1_554 S
H105 C121 0.930 . S
H106 C122 0.931 . S
C107 H95 0.929 . S
C107 C101 1.390 . S
C107 C104 1.386 1_556 S
C108 C103 1.490 . S
C108 C110 1.395 . S
C108 C111 1.403 . S
H109 C115 0.930 . S
C110 H96 0.930 . S
C110 C108 1.395 . S
C110 C113 1.403 . S
C111 C108 1.403 . S
C111 C112 1.524 . S
C111 C115 1.400 . S
C112 H97 0.960 . S
C112 H98 0.960 . S
C112 H99 0.960 . S
C112 C111 1.524 . S
C113 C110 1.403 . S
C113 C114 1.392 . S
C113 C117 1.495 . S
C114 C113 1.392 . S
C114 C115 1.385 . S
C114 C116 1.478 . S
C115 H109 0.930 . S
C115 C111 1.400 . S
C115 C114 1.385 . S
C116 C114 1.478 . S
C116 C118 1.381 . S
C116 C122 1.383 . S
C117 C113 1.495 . S
C117 H123 0.959 . S
C117 H124 0.961 . S
C117 H125 0.960 . S
C118 C116 1.381 . S
C118 C119 1.394 . S
C118 H126 0.930 . S
C119 C118 1.394 . S
C119 C120 1.383 . S
C119 H127 0.929 . S
C120 C119 1.383 . S
C120 C121 1.377 . S
C121 H105 0.930 . S
C121 C120 1.377 . S
C121 C122 1.379 . S
C122 H106 0.931 . S
C122 C116 1.383 . S
C122 C121 1.379 . S
H123 C117 0.959 . S
H124 C117 0.961 . S
H125 C117 0.960 . S
H126 C118 0.930 . S
H127 C119 0.929 . S
H128 C136 0.929 . S
H129 C138 0.930 1_545 S
H130 C140 0.930 . S
H131 C143 0.929 . S
H132 C146 0.930 . S
H133 C148 0.960 . S
H134 C148 0.960 . S
H135 C148 0.960 . S
C136 H128 0.929 . S
C136 C137 1.377 . S
C136 C138 1.384 . S
C137 C136 1.377 . S
C137 C143 1.390 . S
C138 H129 0.930 1_565 S
C138 C136 1.384 . S
C138 C139 1.372 . S
C139 C138 1.372 . S
C139 C140 1.400 . S
C139 C144 1.490 . S
C140 H130 0.930 . S
C140 C139 1.400 . S
C140 C143 1.386 . S
H141 C157 0.930 . S
H142 C158 0.931 1_565 S
C143 H131 0.929 . S
C143 C137 1.390 . S
C143 C140 1.386 . S
C144 C139 1.490 . S
C144 C146 1.395 1_565 S
C144 C147 1.403 . S
H145 C151 0.930 . S
C146 H132 0.930 . S
C146 C144 1.395 1_545 S
C146 C149 1.403 . S
C147 C144 1.403 . S
C147 C148 1.524 . S
C147 C151 1.400 . S
C148 H133 0.960 . S
C148 H134 0.960 . S
C148 H135 0.960 . S
C148 C147 1.524 . S
C149 C146 1.403 . S
C149 C150 1.392 . S
C149 C153 1.495 . S
C150 C149 1.392 . S
C150 C151 1.385 1_545 S
C150 C152 1.478 . S
C151 H145 0.930 . S
C151 C147 1.400 . S
C151 C150 1.385 1_565 S
C152 C150 1.478 . S
C152 C154 1.381 . S
C152 C158 1.383 . S
C153 C149 1.495 . S
C153 H159 0.959 . S
C153 H160 0.961 . S
C153 H161 0.960 . S
C154 C152 1.381 . S
C154 C155 1.394 . S
C154 H162 0.930 . S
C155 C154 1.394 . S
C155 C156 1.383 . S
C155 H163 0.929 . S
C156 C155 1.383 . S
C156 C157 1.377 . S
C157 H141 0.930 . S
C157 C156 1.377 . S
C157 C158 1.379 . S
C158 H142 0.931 1_545 S
C158 C152 1.383 . S
C158 C157 1.379 . S
H159 C153 0.959 . S
H160 C153 0.961 . S
H161 C153 0.960 . S
H162 C154 0.930 . S
H163 C155 0.929 . S
H164 C172 0.929 . S
H165 C174 0.930 . S
H166 C176 0.930 . S
H167 C179 0.929 . S
H168 C182 0.930 . S
H169 C184 0.960 . S
H170 C184 0.960 . S
H171 C184 0.960 . S
C172 H164 0.929 . S
C172 C173 1.377 . S
C172 C174 1.384 . S
C173 C172 1.377 . S
C173 C179 1.390 . S
C174 H165 0.930 . S
C174 C172 1.384 . S
C174 C175 1.372 . S
C175 C174 1.372 . S
C175 C176 1.400 . S
C175 C180 1.490 . S
C176 H166 0.930 . S
C176 C175 1.400 . S
C176 C179 1.386 . S
H177 C193 0.930 . S
H178 C194 0.931 . S
C179 H167 0.929 . S
C179 C173 1.390 . S
C179 C176 1.386 . S
C180 C175 1.490 . S
C180 C182 1.395 . S
C180 C183 1.403 . S
H181 C187 0.930 . S
C182 H168 0.930 . S
C182 C180 1.395 . S
C182 C185 1.403 . S
C183 C180 1.403 . S
C183 C184 1.524 . S
C183 C187 1.400 . S
C184 H169 0.960 . S
C184 H170 0.960 . S
C184 H171 0.960 . S
C184 C183 1.524 . S
C185 C182 1.403 . S
C185 C186 1.392 . S
C185 C189 1.495 . S
C186 C185 1.392 . S
C186 C187 1.385 . S
C186 C188 1.478 . S
C187 H181 0.930 . S
C187 C183 1.400 . S
C187 C186 1.385 . S
C188 C186 1.478 . S
C188 C190 1.381 . S
C188 C194 1.383 . S
C189 C185 1.495 . S
C189 H195 0.959 . S
C189 H196 0.961 . S
C189 H197 0.960 . S
C190 C188 1.381 . S
C190 C191 1.394 . S
C190 H198 0.930 . S
C191 C190 1.394 . S
C191 C192 1.383 . S
C191 H199 0.929 . S
C192 C191 1.383 . S
C192 C193 1.377 . S
C193 H177 0.930 . S
C193 C192 1.377 . S
C193 C194 1.379 . S
C194 H178 0.931 . S
C194 C188 1.383 . S
C194 C193 1.379 . S
H195 C189 0.959 . S
H196 C189 0.961 . S
H197 C189 0.960 . S
H198 C190 0.930 . S
H199 C191 0.929 . S
H200 C208 0.929 . S
H201 C210 0.930 . S
H202 C212 0.930 . S
H203 C215 0.929 . S
H204 C218 0.930 . S
H205 C220 0.960 . S
H206 C220 0.960 . S
H207 C220 0.960 . S
C208 H200 0.929 . S
C208 C209 1.377 . S
C208 C210 1.384 1_554 S
C209 C208 1.377 . S
C209 C215 1.390 1_554 S
C210 H201 0.930 . S
C210 C208 1.384 1_556 S
C210 C211 1.372 . S
C211 C210 1.372 . S
C211 C212 1.400 . S
C211 C216 1.490 . S
C212 H202 0.930 . S
C212 C211 1.400 . S
C212 C215 1.386 . S
H213 C229 0.930 . S
H214 C230 0.931 . S
C215 H203 0.929 . S
C215 C209 1.390 1_556 S
C215 C212 1.386 . S
C216 C211 1.490 . S
C216 C218 1.395 . S
C216 C219 1.403 1_565 S
H217 C223 0.930 . S
C218 H204 0.930 . S
C218 C216 1.395 . S
C218 C221 1.403 . S
C219 C216 1.403 1_545 S
C219 C220 1.524 . S
C219 C223 1.400 . S
C220 H205 0.960 . S
C220 H206 0.960 . S
C220 H207 0.960 . S
C220 C219 1.524 . S
C221 C218 1.403 . S
C221 C222 1.392 1_565 S
C221 C225 1.495 . S
C222 C221 1.392 1_545 S
C222 C223 1.385 . S
C222 C224 1.478 . S
C223 H217 0.930 . S
C223 C219 1.400 . S
C223 C222 1.385 . S
C224 C222 1.478 . S
C224 C226 1.381 . S
C224 C230 1.383 . S
C225 C221 1.495 . S
C225 H231 0.959 . S
C225 H232 0.961 . S
C225 H233 0.960 . S
C226 C224 1.381 . S
C226 C227 1.394 . S
C226 H234 0.930 . S
C227 C226 1.394 . S
C227 C228 1.383 . S
C227 H235 0.929 . S
C228 C227 1.383 . S
C228 C229 1.377 . S
C229 H213 0.930 . S
C229 C228 1.377 . S
C229 C230 1.379 . S
C230 H214 0.931 . S
C230 C224 1.383 . S
C230 C229 1.379 . S
H231 C225 0.959 . S
H232 C225 0.961 . S
H233 C225 0.960 . S
H234 C226 0.930 . S
H235 C227 0.929 . S
H236 C244 0.929 1_655 S
H237 C246 0.930 . S
H238 C248 0.930 . S
H239 C251 0.929 . S
H240 C254 0.930 . S
H241 C256 0.960 . S
H242 C256 0.960 . S
H243 C256 0.960 . S
C244 H236 0.929 1_455 S
C244 C245 1.377 1_455 S
C244 C246 1.384 . S
C245 C244 1.377 1_655 S
C245 C251 1.390 . S
C246 H237 0.930 . S
C246 C244 1.384 . S
C246 C247 1.372 . S
C247 C246 1.372 . S
C247 C248 1.400 . S
C247 C252 1.490 . S
C248 H238 0.930 . S
C248 C247 1.400 . S
C248 C251 1.386 1_455 S
H249 C265 0.930 . S
H250 C266 0.931 . S
C251 H239 0.929 . S
C251 C245 1.390 . S
C251 C248 1.386 1_655 S
C252 C247 1.490 . S
C252 C254 1.395 . S
C252 C255 1.403 . S
H253 C259 0.930 . S
C254 H240 0.930 . S
C254 C252 1.395 . S
C254 C257 1.403 . S
C255 C252 1.403 . S
C255 C256 1.524 . S
C255 C259 1.400 . S
C256 H241 0.960 . S
C256 H242 0.960 . S
C256 H243 0.960 . S
C256 C255 1.524 . S
C257 C254 1.403 . S
C257 C258 1.392 . S
C257 C261 1.495 . S
C258 C257 1.392 . S
C258 C259 1.385 . S
C258 C260 1.478 . S
C259 H253 0.930 . S
C259 C255 1.400 . S
C259 C258 1.385 . S
C260 C258 1.478 . S
C260 C262 1.381 . S
C260 C266 1.383 . S
C261 C257 1.495 . S
C261 H267 0.959 . S
C261 H268 0.961 . S
C261 H269 0.960 . S
C262 C260 1.381 . S
C262 C263 1.394 . S
C262 H270 0.930 . S
C263 C262 1.394 . S
C263 C264 1.383 . S
C263 H271 0.929 . S
C264 C263 1.383 . S
C264 C265 1.377 . S
C265 H249 0.930 . S
C265 C264 1.377 . S
C265 C266 1.379 . S
C266 H250 0.931 . S
C266 C260 1.383 . S
C266 C265 1.379 . S
H267 C261 0.959 . S
H268 C261 0.961 . S
H269 C261 0.960 . S
H270 C262 0.930 . S
H271 C263 0.929 . S
H272 C280 0.929 . S
H273 C282 0.930 . S
H274 C284 0.930 . S
H275 C287 0.929 . S
H276 C290 0.930 . S
H277 C292 0.960 . S
H278 C292 0.960 . S
H279 C292 0.960 . S
C280 H272 0.929 . S
C280 C281 1.377 . S
C280 C282 1.384 . S
C281 C280 1.377 . S
C281 C287 1.390 . S
C282 H273 0.930 . S
C282 C280 1.384 . S
C282 C283 1.372 . S
C283 C282 1.372 . S
C283 C284 1.400 . S
C283 C288 1.490 . S
C284 H274 0.930 . S
C284 C283 1.400 . S
C284 C287 1.386 . S
H285 C301 0.930 . S
H286 C302 0.931 . S
C287 H275 0.929 . S
C287 C281 1.390 . S
C287 C284 1.386 . S
C288 C283 1.490 . S
C288 C290 1.395 . S
C288 C291 1.403 1_455 S
H289 C295 0.930 . S
C290 H276 0.930 . S
C290 C288 1.395 . S
C290 C293 1.403 . S
C291 C288 1.403 1_655 S
C291 C292 1.524 . S
C291 C295 1.400 . S
C292 H277 0.960 . S
C292 H278 0.960 . S
C292 H279 0.960 . S
C292 C291 1.524 . S
C293 C290 1.403 . S
C293 C294 1.392 . S
C293 C297 1.495 . S
C294 C293 1.392 . S
C294 C295 1.385 1_455 S
C294 C296 1.478 1_455 S
C295 H289 0.930 . S
C295 C291 1.400 . S
C295 C294 1.385 1_655 S
C296 C294 1.478 1_655 S
C296 C298 1.381 1_655 S
C296 C302 1.383 . S
C297 C293 1.495 . S
C297 H303 0.959 . S
C297 H304 0.961 . S
C297 H305 0.960 . S
C298 C296 1.381 1_455 S
C298 C299 1.394 1_465 S
C298 H306 0.930 . S
C299 C298 1.394 1_645 S
C299 C300 1.383 . S
C299 H307 0.929 . S
C300 C299 1.383 . S
C300 C301 1.377 1_545 S
C301 H285 0.930 . S
C301 C300 1.377 1_565 S
C301 C302 1.379 . S
C302 H286 0.931 . S
C302 C296 1.383 . S
C302 C301 1.379 . S
H303 C297 0.959 . S
H304 C297 0.961 . S
H305 C297 0.960 . S
H306 C298 0.930 . S
H307 C299 0.929 . S
H308 C316 0.929 . S
H309 C318 0.930 . S
H310 C320 0.930 . S
H311 C323 0.929 . S
H312 C326 0.930 . S
H313 C328 0.960 . S
H314 C328 0.960 . S
H315 C328 0.960 . S
C316 H308 0.929 . S
C316 C317 1.377 . S
C316 C318 1.384 . S
C317 C316 1.377 . S
C317 C323 1.390 . S
C318 H309 0.930 . S
C318 C316 1.384 . S
C318 C319 1.372 . S
C319 C318 1.372 . S
C319 C320 1.400 . S
C319 C324 1.490 . S
C320 H310 0.930 . S
C320 C319 1.400 . S
C320 C323 1.386 . S
H321 C337 0.930 . S
H322 C338 0.931 . S
C323 H311 0.929 . S
C323 C317 1.390 . S
C323 C320 1.386 . S
C324 C319 1.490 . S
C324 C326 1.395 . S
C324 C327 1.403 1_556 S
H325 C331 0.930 . S
C326 H312 0.930 . S
C326 C324 1.395 . S
C326 C329 1.403 . S
C327 C324 1.403 1_554 S
C327 C328 1.524 . S
C327 C331 1.400 . S
C328 H313 0.960 . S
C328 H314 0.960 . S
C328 H315 0.960 . S
C328 C327 1.524 . S
C329 C326 1.403 . S
C329 C330 1.392 1_556 S
C329 C333 1.495 . S
C330 C329 1.392 1_554 S
C330 C331 1.385 . S
C330 C332 1.478 . S
C331 H325 0.930 . S
C331 C327 1.400 . S
C331 C330 1.385 . S
C332 C330 1.478 . S
C332 C334 1.381 . S
C332 C338 1.383 . S
C333 C329 1.495 . S
C333 H339 0.959 . S
C333 H340 0.961 . S
C333 H341 0.960 . S
C334 C332 1.381 . S
C334 C335 1.394 . S
C334 H342 0.930 . S
C335 C334 1.394 . S
C335 C336 1.383 . S
C335 H343 0.929 . S
C336 C335 1.383 . S
C336 C337 1.377 . S
C337 H321 0.930 . S
C337 C336 1.377 . S
C337 C338 1.379 . S
C338 H322 0.931 . S
C338 C332 1.383 . S
C338 C337 1.379 . S
H339 C333 0.959 . S
H340 C333 0.961 . S
H341 C333 0.960 . S
H342 C334 0.930 . S
H343 C335 0.929 . S
H344 C352 0.929 . S
H345 C354 0.930 . S
H346 C356 0.930 . S
H347 C359 0.929 . S
H348 C362 0.930 . S
H349 C364 0.960 . S
H350 C364 0.960 . S
H351 C364 0.960 . S
C352 H344 0.929 . S
C352 C353 1.377 . S
C352 C354 1.384 . S
C353 C352 1.377 . S
C353 C359 1.390 . S
C354 H345 0.930 . S
C354 C352 1.384 . S
C354 C355 1.372 . S
C355 C354 1.372 . S
C355 C356 1.400 . S
C355 C360 1.490 . S
C356 H346 0.930 . S
C356 C355 1.400 . S
C356 C359 1.386 . S
H357 C373 0.930 . S
H358 C374 0.931 . S
C359 H347 0.929 . S
C359 C353 1.390 . S
C359 C356 1.386 . S
C360 C355 1.490 . S
C360 C362 1.395 . S
C360 C363 1.403 . S
H361 C367 0.930 . S
C362 H348 0.930 . S
C362 C360 1.395 . S
C362 C365 1.403 . S
C363 C360 1.403 . S
C363 C364 1.524 . S
C363 C367 1.400 . S
C364 H349 0.960 . S
C364 H350 0.960 . S
C364 H351 0.960 . S
C364 C363 1.524 . S
C365 C362 1.403 . S
C365 C366 1.392 . S
C365 C369 1.495 . S
C366 C365 1.392 . S
C366 C367 1.385 . S
C366 C368 1.478 . S
C367 H361 0.930 . S
C367 C363 1.400 . S
C367 C366 1.385 . S
C368 C366 1.478 . S
C368 C370 1.381 . S
C368 C374 1.383 . S
C369 C365 1.495 . S
C369 H375 0.959 . S
C369 H376 0.961 . S
C369 H377 0.960 . S
C370 C368 1.381 . S
C370 C371 1.394 1_545 S
C370 H378 0.930 . S
C371 C370 1.394 1_565 S
C371 C372 1.383 . S
C371 H379 0.929 . S
C372 C371 1.383 . S
C372 C373 1.377 . S
C373 H357 0.930 . S
C373 C372 1.377 . S
C373 C374 1.379 1_565 S
C374 H358 0.931 . S
C374 C368 1.383 . S
C374 C373 1.379 1_545 S
H375 C369 0.959 . S
H376 C369 0.961 . S
H377 C369 0.960 . S
H378 C370 0.930 . S
H379 C371 0.929 . S
H380 C388 0.929 . S
H381 C390 0.930 . S
H382 C392 0.930 . S
H383 C395 0.929 . S
H384 C398 0.930 . S
H385 C400 0.960 . S
H386 C400 0.960 . S
H387 C400 0.960 . S
C388 H380 0.929 . S
C388 C389 1.377 . S
C388 C390 1.384 . S
C389 C388 1.377 . S
C389 C395 1.390 . S
C390 H381 0.930 . S
C390 C388 1.384 . S
C390 C391 1.372 . S
C391 C390 1.372 . S
C391 C392 1.400 . S
C391 C396 1.490 . S
C392 H382 0.930 . S
C392 C391 1.400 . S
C392 C395 1.386 . S
H393 C409 0.930 . S
H394 C410 0.931 . S
C395 H383 0.929 . S
C395 C389 1.390 . S
C395 C392 1.386 . S
C396 C391 1.490 . S
C396 C398 1.395 . S
C396 C399 1.403 . S
H397 C403 0.930 . S
C398 H384 0.930 . S
C398 C396 1.395 . S
C398 C401 1.403 . S
C399 C396 1.403 . S
C399 C400 1.524 . S
C399 C403 1.400 . S
C400 H385 0.960 . S
C400 H386 0.960 . S
C400 H387 0.960 . S
C400 C399 1.524 . S
C401 C398 1.403 . S
C401 C402 1.392 . S
C401 C405 1.495 . S
C402 C401 1.392 . S
C402 C403 1.385 . S
C402 C404 1.478 . S
C403 H397 0.930 . S
C403 C399 1.400 . S
C403 C402 1.385 . S
C404 C402 1.478 . S
C404 C406 1.381 . S
C404 C410 1.383 . S
C405 C401 1.495 . S
C405 H411 0.959 . S
C405 H412 0.961 . S
C405 H413 0.960 . S
C406 C404 1.381 . S
C406 C407 1.394 . S
C406 H414 0.930 . S
C407 C406 1.394 . S
C407 C408 1.383 . S
C407 H415 0.929 . S
C408 C407 1.383 . S
C408 C409 1.377 . S
C409 H393 0.930 . S
C409 C408 1.377 . S
C409 C410 1.379 . S
C410 H394 0.931 . S
C410 C404 1.383 . S
C410 C409 1.379 . S
H411 C405 0.959 . S
H412 C405 0.961 . S
H413 C405 0.960 . S
H414 C406 0.930 . S
H415 C407 0.929 . S
H416 C424 0.929 . S
H417 C426 0.948 . S
H418 C428 0.930 . S
H419 C431 0.929 . S
H420 C434 0.930 1_455 S
H421 C436 0.960 . S
H422 C436 0.960 . S
H423 C436 0.960 . S
C424 H416 0.929 . S
C424 C425 1.377 . S
C424 C426 1.375 1_455 S
C425 C424 1.377 . S
C425 C431 1.390 . S
C426 H417 0.948 . S
C426 C424 1.375 1_655 S
C426 C427 1.364 1_655 S
C427 C426 1.364 1_455 S
C427 C428 1.400 . S
C427 C432 1.490 1_455 S
C428 H418 0.930 . S
C428 C427 1.400 . S
C428 C431 1.386 . S
H429 C445 0.930 . S
H430 C446 0.931 . S
C431 H419 0.929 . S
C431 C425 1.390 . S
C431 C428 1.386 . S
C432 C427 1.490 1_655 S
C432 C434 1.395 . S
C432 C435 1.403 . S
H433 C439 0.930 . S
C434 H420 0.930 1_655 S
C434 C432 1.395 . S
C434 C437 1.403 . S
C435 C432 1.403 . S
C435 C436 1.524 . S
C435 C439 1.400 . S
C436 H421 0.960 . S
C436 H422 0.960 . S
C436 H423 0.960 . S
C436 C435 1.524 . S
C437 C434 1.403 . S
C437 C438 1.392 . S
C437 C441 1.495 . S
C438 C437 1.392 . S
C438 C439 1.385 . S
C438 C440 1.478 . S
C439 H433 0.930 . S
C439 C435 1.400 . S
C439 C438 1.385 . S
C440 C438 1.478 . S
C440 C442 1.381 . S
C440 C446 1.383 . S
C441 C437 1.495 . S
C441 H447 0.959 1_655 S
C441 H448 0.961 1_655 S
C441 H449 0.960 . S
C442 C440 1.381 . S
C442 C443 1.394 . S
C442 H450 0.930 . S
C443 C442 1.394 . S
C443 C444 1.383 . S
C443 H451 0.929 . S
C444 C443 1.383 . S
C444 C445 1.377 . S
C445 H429 0.930 . S
C445 C444 1.377 . S
C445 C446 1.379 . S
C446 H430 0.931 . S
C446 C440 1.383 . S
C446 C445 1.379 . S
H447 C441 0.959 1_455 S
H448 C441 0.961 1_455 S
H449 C441 0.960 . S
H450 C442 0.930 . S
H451 C443 0.929 . S
H452 C460 0.929 1_554 S
H453 C462 0.930 . S
H454 C464 0.930 . S
H455 C467 0.929 . S
H456 C470 0.930 . S
H457 C472 0.960 . S
H458 C472 0.960 . S
H459 C472 0.960 . S
C460 H452 0.929 1_556 S
C460 C461 1.377 . S
C460 C462 1.384 1_456 S
C461 C460 1.377 . S
C461 C467 1.390 1_455 S
C462 H453 0.930 . S
C462 C460 1.384 1_654 S
C462 C463 1.372 1_554 S
C463 C462 1.372 1_556 S
C463 C464 1.400 . S
C463 C468 1.490 1_556 S
C464 H454 0.930 . S
C464 C463 1.400 . S
C464 C467 1.386 . S
H465 C481 0.930 . S
H466 C482 0.931 1_556 S
C467 H455 0.929 . S
C467 C461 1.390 1_655 S
C467 C464 1.386 . S
C468 C463 1.490 1_554 S
C468 C470 1.395 . S
C468 C471 1.403 1_554 S
H469 C475 0.930 . S
C470 H456 0.930 . S
C470 C468 1.395 . S
C470 C473 1.403 . S
C471 C468 1.403 1_556 S
C471 C472 1.524 . S
C471 C475 1.400 1_556 S
C472 H457 0.960 . S
C472 H458 0.960 . S
C472 H459 0.960 . S
C472 C471 1.524 . S
C473 C470 1.403 . S
C473 C474 1.392 . S
C473 C477 1.495 . S
C474 C473 1.392 . S
C474 C475 1.385 . S
C474 C476 1.478 . S
C475 H469 0.930 . S
C475 C471 1.400 1_554 S
C475 C474 1.385 . S
C476 C474 1.478 . S
C476 C478 1.381 . S
C476 C482 1.383 . S
C477 C473 1.495 . S
C477 H483 0.959 . S
C477 H484 0.961 . S
C477 H485 0.960 . S
C478 C476 1.381 . S
C478 C479 1.394 . S
C478 H486 0.930 . S
C479 C478 1.394 . S
C479 C480 1.383 . S
C479 H487 0.929 . S
C480 C479 1.383 . S
C480 C481 1.377 . S
C481 H465 0.930 . S
C481 C480 1.377 . S
C481 C482 1.379 . S
C482 H466 0.931 1_554 S
C482 C476 1.383 . S
C482 C481 1.379 . S
H483 C477 0.959 . S
H484 C477 0.961 . S
H485 C477 0.960 . S
H486 C478 0.930 . S
H487 C479 0.929 . S
H488 C496 0.929 . S
H489 C498 0.930 . S
H490 C500 0.930 . S
H491 C503 0.929 . S
H492 C506 0.930 . S
H493 C508 0.960 . S
H494 C508 0.960 . S
H495 C508 0.960 . S
C496 H488 0.929 . S
C496 C497 1.377 . S
C496 C498 1.384 . S
C497 C496 1.377 . S
C497 C503 1.390 . S
C498 H489 0.930 . S
C498 C496 1.384 . S
C498 C499 1.372 . S
C499 C498 1.372 . S
C499 C500 1.400 . S
C499 C504 1.490 . S
C500 H490 0.930 . S
C500 C499 1.400 . S
C500 C503 1.386 . S
H501 C517 0.930 . S
H502 C518 0.931 . S
C503 H491 0.929 . S
C503 C497 1.390 . S
C503 C500 1.386 . S
C504 C499 1.490 . S
C504 C506 1.395 . S
C504 C507 1.403 . S
H505 C511 0.930 . S
C506 H492 0.930 . S
C506 C504 1.395 . S
C506 C509 1.403 . S
C507 C504 1.403 . S
C507 C508 1.524 . S
C507 C511 1.400 . S
C508 H493 0.960 . S
C508 H494 0.960 . S
C508 H495 0.960 . S
C508 C507 1.524 . S
C509 C506 1.403 . S
C509 C510 1.392 . S
C509 C513 1.495 . S
C510 C509 1.392 . S
C510 C511 1.385 . S
C510 C512 1.478 . S
C511 H505 0.930 . S
C511 C507 1.400 . S
C511 C510 1.385 . S
C512 C510 1.478 . S
C512 C514 1.381 . S
C512 C518 1.383 . S
C513 C509 1.495 . S
C513 H519 0.959 . S
C513 H520 0.961 . S
C513 H521 0.960 . S
C514 C512 1.381 . S
C514 C515 1.394 . S
C514 H522 0.930 . S
C515 C514 1.394 . S
C515 C516 1.383 . S
C515 H523 0.929 . S
C516 C515 1.383 . S
C516 C517 1.377 . S
C517 H501 0.930 . S
C517 C516 1.377 . S
C517 C518 1.379 . S
C518 H502 0.931 . S
C518 C512 1.383 . S
C518 C517 1.379 . S
H519 C513 0.959 . S
H520 C513 0.961 . S
H521 C513 0.960 . S
H522 C514 0.930 . S
H523 C515 0.929 . S
C101 C63 1.502 . S
C120 C17 1.517 . S
C137 C90 1.128 . S
C156 C43 1.149 . S
C173 C64 1.355 . S
C192 C18 1.362 . S
C209 C89 1.148 . S
C228 C44 1.139 . S
C245 C41 1.163 . S
C264 C19 1.111 . S
C281 C62 1.582 . S
C300 C39 1.600 . S
C317 C66 1.149 . S
C336 C87 1.133 . S
C353 C21 1.265 . S
C372 C85 1.253 . S
C389 C40 1.577 . S
C408 C16 1.580 . S
C425 C65 1.147 . S
C444 C42 1.129 . S
C461 C67 1.258 . S
C480 C86 1.237 . S
C497 C88 1.120 . S
C516 C20 1.150 . S
