# Generated by pormake.
# Topology afi, (4)-cn, num edge types: 1
# Building blocks:
#     Node 0, Type 0, BuildingBlock: TATPOV_clean_sbu_0, # of connection points: 4
#     Node 1, Type 0, BuildingBlock: TATPOV_clean_sbu_0, # of connection points: 4
#     Node 2, Type 0, BuildingBlock: TATPOV_clean_sbu_0, # of connection points: 4
#     Node 3, Type 0, BuildingBlock: TATPOV_clean_sbu_0, # of connection points: 4
#     Node 4, Type 0, BuildingBlock: TATPOV_clean_sbu_0, # of connection points: 4
#     Node 5, Type 0, BuildingBlock: TATPOV_clean_sbu_0, # of connection points: 4
#     Node 6, Type 0, BuildingBlock: TATPOV_clean_sbu_0, # of connection points: 4
#     Node 7, Type 0, BuildingBlock: TATPOV_clean_sbu_0, # of connection points: 4
#     Node 8, Type 0, BuildingBlock: TATPOV_clean_sbu_0, # of connection points: 4
#     Node 9, Type 0, BuildingBlock: TATPOV_clean_sbu_0, # of connection points: 4
#     Node 10, Type 0, BuildingBlock: TATPOV_clean_sbu_0, # of connection points: 4
#     Node 11, Type 0, BuildingBlock: TATPOV_clean_sbu_0, # of connection points: 4
#     Node 12, Type 0, BuildingBlock: TATPOV_clean_sbu_0, # of connection points: 4
#     Node 13, Type 0, BuildingBlock: TATPOV_clean_sbu_0, # of connection points: 4
#     Node 14, Type 0, BuildingBlock: TATPOV_clean_sbu_0, # of connection points: 4
#     Node 15, Type 0, BuildingBlock: TATPOV_clean_sbu_0, # of connection points: 4
#     Node 16, Type 0, BuildingBlock: TATPOV_clean_sbu_0, # of connection points: 4
#     Node 17, Type 0, BuildingBlock: TATPOV_clean_sbu_0, # of connection points: 4
#     Node 18, Type 0, BuildingBlock: TATPOV_clean_sbu_0, # of connection points: 4
#     Node 19, Type 0, BuildingBlock: TATPOV_clean_sbu_0, # of connection points: 4
#     Node 20, Type 0, BuildingBlock: TATPOV_clean_sbu_0, # of connection points: 4
#     Node 21, Type 0, BuildingBlock: TATPOV_clean_sbu_0, # of connection points: 4
#     Node 22, Type 0, BuildingBlock: TATPOV_clean_sbu_0, # of connection points: 4
#     Node 23, Type 0, BuildingBlock: TATPOV_clean_sbu_0, # of connection points: 4
#     Edge 24, Type (0, 0), BuildingBlock: UVAHIK_clean_linker_0, # of connection points: 2
#     Edge 25, Type (0, 0), BuildingBlock: UVAHIK_clean_linker_0, # of connection points: 2
#     Edge 26, Type (0, 0), BuildingBlock: UVAHIK_clean_linker_0, # of connection points: 2
#     Edge 27, Type (0, 0), BuildingBlock: UVAHIK_clean_linker_0, # of connection points: 2
#     Edge 28, Type (0, 0), BuildingBlock: UVAHIK_clean_linker_0, # of connection points: 2
#     Edge 29, Type (0, 0), BuildingBlock: UVAHIK_clean_linker_0, # of connection points: 2
#     Edge 30, Type (0, 0), BuildingBlock: UVAHIK_clean_linker_0, # of connection points: 2
#     Edge 31, Type (0, 0), BuildingBlock: UVAHIK_clean_linker_0, # of connection points: 2
#     Edge 32, Type (0, 0), BuildingBlock: UVAHIK_clean_linker_0, # of connection points: 2
#     Edge 33, Type (0, 0), BuildingBlock: UVAHIK_clean_linker_0, # of connection points: 2
#     Edge 34, Type (0, 0), BuildingBlock: UVAHIK_clean_linker_0, # of connection points: 2
#     Edge 35, Type (0, 0), BuildingBlock: UVAHIK_clean_linker_0, # of connection points: 2
#     Edge 36, Type (0, 0), BuildingBlock: UVAHIK_clean_linker_0, # of connection points: 2
#     Edge 37, Type (0, 0), BuildingBlock: UVAHIK_clean_linker_0, # of connection points: 2
#     Edge 38, Type (0, 0), BuildingBlock: UVAHIK_clean_linker_0, # of connection points: 2
#     Edge 39, Type (0, 0), BuildingBlock: UVAHIK_clean_linker_0, # of connection points: 2
#     Edge 40, Type (0, 0), BuildingBlock: UVAHIK_clean_linker_0, # of connection points: 2
#     Edge 41, Type (0, 0), BuildingBlock: UVAHIK_clean_linker_0, # of connection points: 2
#     Edge 42, Type (0, 0), BuildingBlock: UVAHIK_clean_linker_0, # of connection points: 2
#     Edge 43, Type (0, 0), BuildingBlock: UVAHIK_clean_linker_0, # of connection points: 2
#     Edge 44, Type (0, 0), BuildingBlock: UVAHIK_clean_linker_0, # of connection points: 2
#     Edge 45, Type (0, 0), BuildingBlock: UVAHIK_clean_linker_0, # of connection points: 2
#     Edge 46, Type (0, 0), BuildingBlock: UVAHIK_clean_linker_0, # of connection points: 2
#     Edge 47, Type (0, 0), BuildingBlock: UVAHIK_clean_linker_0, # of connection points: 2
#     Edge 48, Type (0, 0), BuildingBlock: UVAHIK_clean_linker_0, # of connection points: 2
#     Edge 49, Type (0, 0), BuildingBlock: UVAHIK_clean_linker_0, # of connection points: 2
#     Edge 50, Type (0, 0), BuildingBlock: UVAHIK_clean_linker_0, # of connection points: 2
#     Edge 51, Type (0, 0), BuildingBlock: UVAHIK_clean_linker_0, # of connection points: 2
#     Edge 52, Type (0, 0), BuildingBlock: UVAHIK_clean_linker_0, # of connection points: 2
#     Edge 53, Type (0, 0), BuildingBlock: UVAHIK_clean_linker_0, # of connection points: 2
#     Edge 54, Type (0, 0), BuildingBlock: UVAHIK_clean_linker_0, # of connection points: 2
#     Edge 55, Type (0, 0), BuildingBlock: UVAHIK_clean_linker_0, # of connection points: 2
#     Edge 56, Type (0, 0), BuildingBlock: UVAHIK_clean_linker_0, # of connection points: 2
#     Edge 57, Type (0, 0), BuildingBlock: UVAHIK_clean_linker_0, # of connection points: 2
#     Edge 58, Type (0, 0), BuildingBlock: UVAHIK_clean_linker_0, # of connection points: 2
#     Edge 59, Type (0, 0), BuildingBlock: UVAHIK_clean_linker_0, # of connection points: 2
#     Edge 60, Type (0, 0), BuildingBlock: UVAHIK_clean_linker_0, # of connection points: 2
#     Edge 61, Type (0, 0), BuildingBlock: UVAHIK_clean_linker_0, # of connection points: 2
#     Edge 62, Type (0, 0), BuildingBlock: UVAHIK_clean_linker_0, # of connection points: 2
#     Edge 63, Type (0, 0), BuildingBlock: UVAHIK_clean_linker_0, # of connection points: 2
#     Edge 64, Type (0, 0), BuildingBlock: UVAHIK_clean_linker_0, # of connection points: 2
#     Edge 65, Type (0, 0), BuildingBlock: UVAHIK_clean_linker_0, # of connection points: 2
#     Edge 66, Type (0, 0), BuildingBlock: UVAHIK_clean_linker_0, # of connection points: 2
#     Edge 67, Type (0, 0), BuildingBlock: UVAHIK_clean_linker_0, # of connection points: 2
#     Edge 68, Type (0, 0), BuildingBlock: UVAHIK_clean_linker_0, # of connection points: 2
#     Edge 69, Type (0, 0), BuildingBlock: UVAHIK_clean_linker_0, # of connection points: 2
#     Edge 70, Type (0, 0), BuildingBlock: UVAHIK_clean_linker_0, # of connection points: 2
#     Edge 71, Type (0, 0), BuildingBlock: UVAHIK_clean_linker_0, # of connection points: 2
# Relax obj value: 0.051
# Max RMSD: 0.065
# Mean RMSD: 0.065
data_MOF--net-afi--node1-TATPOV_clean_sbu_0--edge1-UVAHIK_clean_linker_0
_symmetry_space_group_name_H-M    P1
_symmetry_Int_Tables_number       1
_symmetry_cell_setting            triclinic
loop_
_symmetry_equiv_pos_as_xyz
'x, y, z'
_cell_length_a     86.649556
_cell_length_b     86.551652
_cell_length_c     54.572185
_cell_angle_alpha  89.942335
_cell_angle_beta   89.949565
_cell_angle_gamma 120.14881
loop_
_atom_site_label
_atom_site_type_symbol
_atom_site_fract_x
_atom_site_fract_y
_atom_site_fract_z
_atom_type_partial_charge
Zn0 Zn 0.41483 0.09517 0.22193 0.0
Zn1 Zn 0.41787 0.09792 0.17863 0.0
O2 O 0.39397 0.07405 0.1859 0.0
O3 O 0.38854 0.07968 0.22306 0.0
O4 O 0.41944 0.0994 0.14115 0.0
O5 O 0.42562 0.12105 0.22819 0.0
O6 O 0.41848 0.12143 0.1897 0.0
C7 C 0.38346 0.06986 0.20429 0.0
C8 C 0.4421 0.08976 0.20958 0.0
O9 O 0.44056 0.09732 0.19036 0.0
O10 O 0.4301 0.08423 0.22583 0.0
C11 C 0.42181 0.08832 0.12866 0.0
O12 O 0.42347 0.07594 0.1403 0.0
C13 C 0.42362 0.12923 0.21043 0.0
Zn14 Zn 0.30179 0.43831 0.22646 0.0
Zn15 Zn 0.30236 0.43478 0.18234 0.0
O16 O 0.31176 0.41831 0.19551 0.0
O17 O 0.31839 0.42931 0.23278 0.0
O18 O 0.30255 0.43321 0.14494 0.0
O19 O 0.27596 0.4216 0.23059 0.0
O20 O 0.2755 0.42556 0.19089 0.0
C21 C 0.31897 0.41936 0.21633 0.0
C22 C 0.3211 0.4716 0.20771 0.0
O23 O 0.3202 0.46172 0.18975 0.0
O24 O 0.31139 0.46454 0.22632 0.0
C25 C 0.31704 0.44011 0.13274 0.0
O26 O 0.33227 0.44803 0.14464 0.0
C27 C 0.26724 0.41957 0.21118 0.0
Zn28 Zn 0.86176 0.3011 0.2304 0.0
Zn29 Zn 0.85977 0.30545 0.18329 0.0
O30 O 0.88634 0.31242 0.18878 0.0
O31 O 0.88707 0.30776 0.22837 0.0
O32 O 0.85767 0.30684 0.1461 0.0
O33 O 0.84387 0.27557 0.23044 0.0
O34 O 0.84006 0.27902 0.19133 0.0
C35 C 0.89484 0.31235 0.20785 0.0
C36 C 0.85284 0.3281 0.22004 0.0
O37 O 0.85457 0.32455 0.19783 0.0
O38 O 0.8548 0.31952 0.23739 0.0
C39 C 0.86883 0.32013 0.13333 0.0
O40 O 0.88211 0.33377 0.14448 0.0
C41 C 0.83587 0.26918 0.21047 0.0
Zn42 Zn 0.53384 0.87202 0.22635 0.0
Zn43 Zn 0.52633 0.86861 0.17981 0.0
O44 O 0.54823 0.8945 0.18382 0.0
O45 O 0.55505 0.89591 0.22292 0.0
O46 O 0.52238 0.8662 0.14267 0.0
O47 O 0.53745 0.85141 0.22783 0.0
O48 O 0.52995 0.84703 0.18883 0.0
C49 C 0.5582 0.90302 0.20195 0.0
C50 C 0.49896 0.8667 0.21717 0.0
O51 O 0.50311 0.86613 0.19484 0.0
O52 O 0.50994 0.86912 0.23407 0.0
C53 C 0.52202 0.87838 0.12999 0.0
O54 O 0.52364 0.89252 0.14128 0.0
C55 C 0.53457 0.84238 0.2085 0.0
Zn56 Zn 0.64088 0.53693 0.23899 0.0
Zn57 Zn 0.63837 0.53164 0.1921 0.0
O58 O 0.63639 0.55468 0.19729 0.0
O59 O 0.64078 0.55955 0.23698 0.0
O60 O 0.63792 0.5289 0.15474 0.0
O61 O 0.66405 0.5382 0.24193 0.0
O62 O 0.66258 0.53329 0.20217 0.0
C63 C 0.63817 0.56418 0.21617 0.0
C64 C 0.61024 0.50363 0.22677 0.0
O65 O 0.61619 0.50838 0.20498 0.0
O66 O 0.61838 0.51382 0.2446 0.0
C67 C 0.62569 0.52865 0.1415 0.0
O68 O 0.61276 0.52986 0.15222 0.0
C69 C 0.67077 0.53605 0.22261 0.0
Zn70 Zn 0.0791 0.64541 0.23554 0.0
Zn71 Zn 0.08308 0.64667 0.19022 0.0
O72 O 0.05803 0.6444 0.1965 0.0
O73 O 0.05911 0.65011 0.23591 0.0
O74 O 0.0853 0.64788 0.15275 0.0
O75 O 0.1033 0.66536 0.24213 0.0
O76 O 0.10544 0.67029 0.20241 0.0
C77 C 0.05128 0.64732 0.21555 0.0
C78 C 0.08002 0.61526 0.22032 0.0
O79 O 0.08481 0.62432 0.20046 0.0
O80 O 0.0747 0.62061 0.23823 0.0
C81 C 0.07485 0.63458 0.1395 0.0
O82 O 0.06274 0.61986 0.15032 0.0
C83 C 0.11188 0.67488 0.224 0.0
Zn84 Zn 0.84934 0.51693 0.27059 0.0
Zn85 Zn 0.84886 0.51603 0.31616 0.0
O86 O 0.87195 0.54022 0.30744 0.0
O87 O 0.86739 0.54267 0.26837 0.0
O88 O 0.84798 0.51571 0.35372 0.0
O89 O 0.82393 0.50935 0.26654 0.0
O90 O 0.82489 0.51484 0.306 0.0
C91 C 0.87646 0.54928 0.28757 0.0
C92 C 0.85456 0.48928 0.28592 0.0
O93 O 0.85035 0.49334 0.30641 0.0
O94 O 0.8567 0.4988 0.26725 0.0
C95 C 0.86123 0.51817 0.36673 0.0
O96 O 0.87583 0.52081 0.35565 0.0
C97 C 0.81659 0.51102 0.28555 0.0
Zn98 Zn 0.3067 0.86758 0.26181 0.0
Zn99 Zn 0.30695 0.86502 0.30841 0.0
O100 O 0.3081 0.88957 0.30224 0.0
O101 O 0.30544 0.88962 0.26208 0.0
O102 O 0.30644 0.86295 0.34588 0.0
O103 O 0.28433 0.84507 0.25725 0.0
O104 O 0.28286 0.84246 0.29741 0.0
C105 C 0.30664 0.89682 0.28262 0.0
C106 C 0.3369 0.86593 0.27633 0.0
O107 O 0.32986 0.86434 0.29748 0.0
O108 O 0.32963 0.86814 0.25765 0.0
C109 C 0.31853 0.8751 0.35914 0.0
O110 O 0.33175 0.88906 0.34835 0.0
C111 C 0.2761 0.83662 0.27625 0.0
Zn112 Zn 0.41677 0.31017 0.27936 0.0
Zn113 Zn 0.4228 0.3133 0.32601 0.0
O114 O 0.40149 0.31804 0.32115 0.0
O115 O 0.39617 0.31378 0.28153 0.0
O116 O 0.42592 0.31405 0.36328 0.0
O117 O 0.41188 0.28557 0.27728 0.0
O118 O 0.41837 0.28778 0.31661 0.0
C119 C 0.39237 0.31731 0.30233 0.0
C120 C 0.45167 0.33895 0.29012 0.0
O121 O 0.44667 0.33413 0.31223 0.0
O122 O 0.44121 0.3306 0.27262 0.0
C123 C 0.42735 0.32695 0.37622 0.0
O124 O 0.42723 0.34039 0.36519 0.0
C125 C 0.41383 0.27881 0.29668 0.0
Zn126 Zn 0.10571 0.44981 0.2787 0.0
Zn127 Zn 0.10215 0.4452 0.323 0.0
O128 O 0.07638 0.4281 0.31037 0.0
O129 O 0.07968 0.4395 0.27343 0.0
O130 O 0.10065 0.44315 0.36036 0.0
O131 O 0.1157 0.43402 0.27346 0.0
O132 O 0.1198 0.43624 0.31335 0.0
C133 C 0.06968 0.42895 0.28992 0.0
C134 C 0.11843 0.48247 0.29829 0.0
O135 O 0.11008 0.47202 0.31618 0.0
O136 O 0.12139 0.47616 0.27917 0.0
C137 C 0.08987 0.44614 0.37253 0.0
O138 O 0.07935 0.45039 0.36061 0.0
C139 C 0.12211 0.43107 0.29245 0.0
Zn140 Zn 0.62915 0.11433 0.2711 0.0
Zn141 Zn 0.63345 0.10843 0.31541 0.0
O142 O 0.62739 0.08428 0.29925 0.0
O143 O 0.62098 0.0891 0.262 0.0
O144 O 0.63659 0.10563 0.35202 0.0
O145 O 0.65392 0.13276 0.26537 0.0
O146 O 0.65864 0.12924 0.30408 0.0
C147 C 0.62217 0.07883 0.27743 0.0
C148 C 0.60544 0.1189 0.29874 0.0
O149 O 0.61167 0.11286 0.31497 0.0
O150 O 0.61181 0.12206 0.27735 0.0
C151 C 0.62352 0.09427 0.36493 0.0
O152 O 0.60817 0.08393 0.3541 0.0
C153 C 0.66436 0.13709 0.28342 0.0
Zn154 Zn 0.51542 0.64609 0.27027 0.0
Zn155 Zn 0.51486 0.64699 0.31474 0.0
O156 O 0.53775 0.64556 0.30595 0.0
O157 O 0.54095 0.6535 0.26721 0.0
O158 O 0.51475 0.64799 0.35223 0.0
O159 O 0.50798 0.66398 0.26508 0.0
O160 O 0.5157 0.6706 0.30365 0.0
C161 C 0.54692 0.64995 0.28617 0.0
C162 C 0.48676 0.61469 0.286 0.0
O163 O 0.49078 0.62403 0.30556 0.0
O164 O 0.49715 0.62046 0.26778 0.0
C165 C 0.51353 0.63526 0.36539 0.0
O166 O 0.51232 0.62116 0.35448 0.0
C167 C 0.51113 0.67423 0.28314 0.0
Zn168 Zn 0.51911 0.86627 0.76913 0.0
Zn169 Zn 0.51761 0.86559 0.81396 0.0
O170 O 0.54219 0.88828 0.80585 0.0
O171 O 0.54532 0.88259 0.76753 0.0
O172 O 0.51671 0.86455 0.85146 0.0
O173 O 0.50936 0.84036 0.76482 0.0
O174 O 0.51598 0.84143 0.80386 0.0
C175 C 0.55174 0.892 0.78651 0.0
C176 C 0.4927 0.87334 0.78294 0.0
O177 O 0.49555 0.86785 0.80328 0.0
O178 O 0.50288 0.87596 0.76492 0.0
C179 C 0.51721 0.87706 0.86433 0.0
O180 O 0.51814 0.89095 0.85311 0.0
C181 C 0.51128 0.83294 0.78357 0.0
Zn182 Zn 0.64691 0.5369 0.7793 0.0
Zn183 Zn 0.64206 0.53022 0.82597 0.0
O184 O 0.63606 0.55057 0.81964 0.0
O185 O 0.64168 0.55652 0.78027 0.0
O186 O 0.64051 0.52725 0.86334 0.0
O187 O 0.67196 0.54301 0.77908 0.0
O188 O 0.66791 0.53509 0.81796 0.0
C189 C 0.63688 0.55959 0.80064 0.0
C190 C 0.61872 0.50112 0.78941 0.0
O191 O 0.62241 0.50607 0.81173 0.0
O192 O 0.62751 0.51184 0.77228 0.0
C193 C 0.62784 0.52672 0.87588 0.0
O194 O 0.61499 0.52762 0.86437 0.0
C195 C 0.67782 0.54037 0.79886 0.0
Zn196 Zn 0.08846 0.65336 0.77952 0.0
Zn197 Zn 0.08545 0.65214 0.82361 0.0
O198 O 0.05953 0.6447 0.8117 0.0
O199 O 0.06265 0.63896 0.7734 0.0
O200 O 0.08463 0.65212 0.86116 0.0
O201 O 0.09987 0.67947 0.7758 0.0
O202 O 0.10519 0.67852 0.81494 0.0
C203 C 0.05274 0.63858 0.79064 0.0
C204 C 0.10034 0.63147 0.79602 0.0
O205 O 0.09235 0.63281 0.8149 0.0
O206 O 0.103 0.64151 0.77779 0.0
C207 C 0.07532 0.63797 0.87369 0.0
O208 O 0.06554 0.6228 0.86211 0.0
C209 C 0.1079 0.6874 0.79511 0.0
Zn210 Zn 0.43284 0.10299 0.76756 0.0
Zn211 Zn 0.42779 0.09962 0.81229 0.0
O212 O 0.40885 0.07425 0.79958 0.0
O213 O 0.41833 0.07699 0.76158 0.0
O214 O 0.42497 0.0987 0.84965 0.0
O215 O 0.42193 0.11771 0.76157 0.0
O216 O 0.42231 0.11979 0.8017 0.0
C217 C 0.40795 0.06743 0.7785 0.0
C218 C 0.46473 0.11186 0.78881 0.0
O219 O 0.45406 0.105 0.80696 0.0
O220 O 0.45909 0.11458 0.76889 0.0
C221 C 0.42827 0.08864 0.86304 0.0
O222 O 0.43328 0.07823 0.85246 0.0
C223 C 0.41952 0.12444 0.78065 0.0
Zn224 Zn 0.3099 0.45275 0.77273 0.0
Zn225 Zn 0.31026 0.44829 0.81729 0.0
O226 O 0.31902 0.43157 0.8029 0.0
O227 O 0.32442 0.44167 0.76505 0.0
O228 O 0.30944 0.44483 0.85444 0.0
O229 O 0.28383 0.43822 0.76866 0.0
O230 O 0.28376 0.44056 0.80874 0.0
C231 C 0.32518 0.43181 0.78151 0.0
C232 C 0.33065 0.4857 0.79387 0.0
O233 O 0.32879 0.4754 0.81182 0.0
O234 O 0.32172 0.47916 0.77453 0.0
C235 C 0.32337 0.45062 0.86762 0.0
O236 O 0.3391 0.45898 0.85696 0.0
C237 C 0.27536 0.43594 0.78839 0.0
Zn238 Zn 0.85493 0.30117 0.77114 0.0
Zn239 Zn 0.85463 0.30545 0.81807 0.0
O240 O 0.87996 0.30889 0.81097 0.0
O241 O 0.87923 0.30484 0.77101 0.0
O242 O 0.85381 0.30702 0.85543 0.0
O243 O 0.83516 0.27649 0.77123 0.0
O244 O 0.83265 0.28 0.81074 0.0
C245 C 0.88736 0.30797 0.79118 0.0
C246 C 0.85 0.33043 0.78257 0.0
O247 O 0.85182 0.32645 0.80454 0.0
O248 O 0.85042 0.32124 0.76485 0.0
C249 C 0.86553 0.32014 0.86782 0.0
O250 O 0.87871 0.3336 0.85617 0.0
C251 C 0.82726 0.27042 0.79139 0.0
Zn252 Zn 0.09015 0.43993 0.73342 0.0
Zn253 Zn 0.09162 0.44101 0.68878 0.0
O254 O 0.06766 0.41747 0.69671 0.0
O255 O 0.07227 0.41421 0.73546 0.0
O256 O 0.09318 0.44154 0.65136 0.0
O257 O 0.11546 0.4474 0.73874 0.0
O258 O 0.11446 0.4404 0.69988 0.0
C259 C 0.06302 0.40809 0.71629 0.0
C260 C 0.08638 0.46815 0.71842 0.0
O261 O 0.0917 0.46452 0.69853 0.0
O262 O 0.08246 0.45782 0.73662 0.0
C263 C 0.08217 0.44336 0.63795 0.0
O264 O 0.0695 0.44508 0.64855 0.0
C265 C 0.12256 0.44449 0.72047 0.0
Zn266 Zn 0.63668 0.08818 0.72474 0.0
Zn267 Zn 0.63787 0.09155 0.68037 0.0
O268 O 0.63781 0.06761 0.68679 0.0
O269 O 0.6458 0.07128 0.72548 0.0
O270 O 0.63889 0.09403 0.64301 0.0
O271 O 0.65335 0.11377 0.73134 0.0
O272 O 0.66072 0.11458 0.69263 0.0
C273 C 0.64279 0.06262 0.70577 0.0
C274 C 0.60484 0.08441 0.70999 0.0
O275 O 0.61438 0.09105 0.69077 0.0
O276 O 0.61066 0.07916 0.7274 0.0
C277 C 0.62603 0.08295 0.62965 0.0
O278 O 0.61191 0.06983 0.64031 0.0
C279 C 0.66366 0.12199 0.71367 0.0
Zn280 Zn 0.53347 0.65858 0.72638 0.0
Zn281 Zn 0.52443 0.654 0.68059 0.0
O282 O 0.5442 0.64689 0.68475 0.0
O283 O 0.55375 0.65461 0.72262 0.0
O284 O 0.52021 0.65245 0.64352 0.0
O285 O 0.53833 0.68329 0.7279 0.0
O286 O 0.53027 0.68003 0.68914 0.0
C287 C 0.55484 0.64858 0.70208 0.0
C288 C 0.49711 0.63062 0.71889 0.0
O289 O 0.50051 0.63531 0.69643 0.0
O290 O 0.50915 0.63821 0.73496 0.0
C291 C 0.51839 0.63926 0.63089 0.0
O292 O 0.51864 0.62597 0.64218 0.0
C293 C 0.53557 0.68954 0.70856 0.0
Zn294 Zn 0.85016 0.52054 0.72777 0.0
Zn295 Zn 0.84915 0.51927 0.68302 0.0
O296 O 0.87256 0.54322 0.69123 0.0
O297 O 0.86757 0.54649 0.7298 0.0
O298 O 0.84804 0.51857 0.64547 0.0
O299 O 0.82458 0.51195 0.73274 0.0
O300 O 0.82553 0.51871 0.69373 0.0
C301 C 0.87698 0.55266 0.71072 0.0
C302 C 0.85568 0.49318 0.71334 0.0
O303 O 0.85048 0.49653 0.69313 0.0
O304 O 0.8586 0.50328 0.73154 0.0
C305 C 0.86117 0.52053 0.63256 0.0
O306 O 0.87563 0.52294 0.64378 0.0
C307 C 0.81726 0.51426 0.71424 0.0
Zn308 Zn 0.29611 0.85895 0.72136 0.0
Zn309 Zn 0.29947 0.85955 0.67475 0.0
O310 O 0.30195 0.88426 0.68305 0.0
O311 O 0.29532 0.88143 0.72234 0.0
O312 O 0.30076 0.85931 0.63724 0.0
O313 O 0.27406 0.83595 0.72289 0.0
O314 O 0.27443 0.83686 0.68251 0.0
C315 C 0.29928 0.89048 0.70282 0.0
C316 C 0.32717 0.85818 0.70881 0.0
O317 O 0.32162 0.85806 0.68705 0.0
O318 O 0.31864 0.85905 0.72703 0.0
C319 C 0.3134 0.8718 0.62499 0.0
O320 O 0.32629 0.88533 0.63684 0.0
C321 C 0.26689 0.82919 0.70263 0.0
Zn322 Zn 0.41979 0.3171 0.73812 0.0
Zn323 Zn 0.42481 0.31659 0.69228 0.0
O324 O 0.40407 0.32228 0.69588 0.0
O325 O 0.3981 0.31886 0.73534 0.0
O326 O 0.4273 0.31562 0.65504 0.0
O327 O 0.41725 0.29375 0.7447 0.0
O328 O 0.41962 0.29138 0.70493 0.0
C329 C 0.39462 0.32197 0.71407 0.0
C330 C 0.45428 0.34479 0.72519 0.0
O331 O 0.44943 0.33755 0.70407 0.0
O332 O 0.44347 0.33878 0.74297 0.0
C333 C 0.42902 0.32848 0.64169 0.0
O334 O 0.42958 0.34235 0.65237 0.0
C335 C 0.41736 0.2848 0.72653 0.0
C336 C 0.3663 0.0373 0.19442 0.0
C337 C 0.36732 0.05207 0.20656 0.0
C338 C 0.35425 0.01996 0.20245 0.0
C339 C 0.33388 -0.0019 0.26043 0.0
H340 H 0.31227 0.95522 0.22084 0.0
C341 C 0.32115 0.92915 0.29335 0.0
C342 C 0.30696 0.91394 0.28264 0.0
C343 C 0.32444 0.94618 0.28665 0.0
C344 C 0.31794 0.96704 0.23225 0.0
H345 H 0.35512 0.06032 0.23447 0.0
H346 H 0.33389 0.03011 0.24807 0.0
H347 H 0.32431 -0.01575 0.20107 0.0
H348 H 0.28401 0.90424 0.25876 0.0
H349 H 0.28929 0.9338 0.24783 0.0
H350 H 0.32786 0.98088 0.29157 0.0
C351 C 0.34272 0.03188 0.23291 0.0
C352 C 0.325 -0.01632 0.22084 0.0
C353 C 0.35477 0.04916 0.22497 0.0
C354 C 0.2951 0.91585 0.26716 0.0
C355 C 0.29823 0.93276 0.26071 0.0
C356 C 0.32686 0.98145 0.27185 0.0
C357 C 0.34299 0.01717 0.22262 0.0
C358 C 0.33335 -0.00058 0.23475 0.0
C359 C 0.31347 0.94812 0.26931 0.0
C360 C 0.31908 0.96574 0.25784 0.0
H361 H 0.37584 0.03913 0.18025 0.0
H362 H 0.35479 0.00889 0.19411 0.0
H363 H 0.34045 0.00999 0.27168 0.0
H364 H 0.33058 0.92796 0.30509 0.0
H365 H 0.33632 0.95776 0.29357 0.0
C366 C 0.38229 0.33858 0.31435 0.0
C367 C 0.37863 0.32249 0.30324 0.0
C368 C 0.37243 0.34673 0.30778 0.0
C369 C 0.34964 0.34906 0.25284 0.0
H370 H 0.33917 0.37988 0.29222 0.0
C371 C 0.32004 0.39099 0.21278 0.0
C372 C 0.32663 0.40807 0.22289 0.0
C373 C 0.325 0.3792 0.22283 0.0
C374 C 0.34215 0.37141 0.28095 0.0
H375 H 0.36067 0.30119 0.27905 0.0
H376 H 0.3431 0.31504 0.26829 0.0
H377 H 0.34844 0.36063 0.31225 0.0
H378 H 0.34452 0.42673 0.25008 0.0
H379 H 0.3535 0.4065 0.267 0.0
H380 H 0.34384 0.36015 0.22151 0.0
C381 C 0.35386 0.3217 0.28138 0.0
C382 C 0.34738 0.36035 0.29246 0.0
C383 C 0.36377 0.31368 0.28774 0.0
C384 C 0.33906 0.41355 0.2421 0.0
C385 C 0.34406 0.40189 0.25199 0.0
C386 C 0.34446 0.36015 0.24134 0.0
C387 C 0.35876 0.33879 0.29017 0.0
C388 C 0.35139 0.34921 0.27851 0.0
C389 C 0.33666 0.3844 0.24303 0.0
C390 C 0.34096 0.37167 0.25522 0.0
H391 H 0.39381 0.34569 0.32614 0.0
H392 H 0.37652 0.35992 0.31489 0.0
H393 H 0.35297 0.34088 0.24149 0.0
H394 H 0.31035 0.38641 0.19808 0.0
H395 H 0.3191 0.36581 0.21549 0.0
C396 C 0.92157 0.31259 0.22411 0.0
C397 C 0.91424 0.31958 0.20758 0.0
C398 C 0.93957 0.32238 0.23031 0.0
C399 C -0.01713 0.36303 0.21682 0.0
H400 H -0.01314 0.36587 0.28775 0.0
C401 C 0.04311 0.42067 0.264 0.0
C402 C 0.05083 0.41653 0.28372 0.0
C403 C 0.02661 0.40793 0.25472 0.0
C404 C -0.01394 0.36506 0.26794 0.0
H405 H 0.92012 0.34138 0.18274 0.0
H406 H 0.95173 0.35871 0.19373 0.0
H407 H 0.9588 0.34421 0.26887 0.0
H408 H 0.04693 0.39611 0.31002 0.0
H409 H 0.01789 0.37364 0.2937 0.0
H410 H 0.0101 0.38411 0.21596 0.0
C411 C 0.9436 0.3456 0.20179 0.0
C412 C 0.97 0.3526 0.25708 0.0
C413 C 0.92554 0.33567 0.1954 0.0
C414 C 0.04123 0.39968 0.29491 0.0
C415 C 0.02466 0.38683 0.28549 0.0
C416 C -0.00104 0.37547 0.2277 0.0
C417 C 0.95052 0.33944 0.22029 0.0
C418 C 0.96816 0.35157 0.23141 0.0
C419 C 0.01744 0.39069 0.26484 0.0
C420 C 0.00064 0.3768 0.25339 0.0
H421 H 0.9131 0.30011 0.23359 0.0
H422 H 0.94464 0.31708 0.24411 0.0
H423 H -0.01811 0.36244 0.19702 0.0
H424 H 0.05012 0.43364 0.25518 0.0
H425 H 0.02116 0.4115 0.23929 0.0
C426 C 0.58663 0.92867 0.2163 0.0
C427 C 0.57206 0.92199 0.20016 0.0
C428 C 0.59669 0.94691 0.22108 0.0
C429 C 0.60449 -0.00823 0.20445 0.0
H430 H 0.60414 -0.00253 0.27496 0.0
C431 C 0.6084 0.05393 0.24737 0.0
C432 C 0.61804 0.0609 0.26918 0.0
C433 C 0.60551 0.03773 0.23803 0.0
C434 C 0.60472 -0.00375 0.25528 0.0
H435 H 0.55771 0.92916 0.17439 0.0
H436 H 0.57529 0.96122 0.18286 0.0
H437 H 0.59592 0.96843 0.25793 0.0
H438 H 0.63204 0.05622 0.29851 0.0
H439 H 0.62717 0.02781 0.28196 0.0
H440 H 0.61303 0.01959 0.20182 0.0
C441 C 0.57898 0.95235 0.19175 0.0
C442 C 0.60001 0.97958 0.24548 0.0
C443 C 0.56894 0.93401 0.18682 0.0
C444 C 0.62447 0.05111 0.28175 0.0
C445 C 0.62169 0.03487 0.27223 0.0
C446 C 0.60935 0.00852 0.21427 0.0
C447 C 0.59227 0.9588 0.20995 0.0
C448 C 0.59952 0.97707 0.21996 0.0
C449 C 0.61231 0.02811 0.2501 0.0
C450 C 0.60911 0.01085 0.23979 0.0
H451 H 0.58941 0.91964 0.22663 0.0
H452 H 0.60714 0.95157 0.23475 0.0
H453 H 0.60437 -0.00974 0.18473 0.0
H454 H 0.60309 0.06105 0.23736 0.0
H455 H 0.59779 0.03271 0.22136 0.0
C456 C 0.56484 0.63545 0.29656 0.0
C457 C 0.56305 0.64842 0.28347 0.0
C458 C 0.57737 0.6307 0.2891 0.0
C459 C 0.59926 0.62946 0.23214 0.0
H460 H 0.62365 0.61278 0.27463 0.0
C461 C 0.64599 0.59425 0.23078 0.0
C462 C 0.63568 0.57977 0.2152 0.0
C463 C 0.64063 0.60657 0.2363 0.0
C464 C 0.61718 0.61765 0.26243 0.0
H465 H 0.57412 0.66794 0.25412 0.0
H466 H 0.59621 0.65999 0.24157 0.0
H467 H 0.60866 0.62755 0.29237 0.0
H468 H 0.61256 0.56753 0.19155 0.0
H469 H 0.60294 0.589 0.20139 0.0
H470 H 0.60758 0.61933 0.20222 0.0
C471 C 0.58763 0.65307 0.25703 0.0
C472 C 0.60841 0.62593 0.27267 0.0
C473 C 0.57508 0.65772 0.26436 0.0
C474 C 0.62081 0.57871 0.20341 0.0
C475 C 0.6153 0.59098 0.20916 0.0
C476 C 0.608 0.62115 0.22189 0.0
C477 C 0.58835 0.63895 0.26856 0.0
C478 C 0.59915 0.63171 0.25769 0.0
C479 C 0.6247 0.6045 0.22662 0.0
C480 C 0.61688 0.61494 0.23694 0.0
H481 H 0.55567 0.628 0.31125 0.0
H482 H 0.57759 0.61974 0.29836 0.0
H483 H 0.59202 0.63354 0.22008 0.0
H484 H 0.65759 0.59538 0.23998 0.0
H485 H 0.64843 0.61712 0.24928 0.0
C486 C 0.01926 0.63079 0.2031 0.0
C487 C 0.03329 0.64512 0.21554 0.0
C488 C 0.00154 0.62525 0.20935 0.0
C489 C 0.96423 0.6171 0.22375 0.0
H490 H 0.95896 0.61548 0.29451 0.0
C491 C 0.89499 0.57849 0.26683 0.0
C492 C 0.89334 0.56641 0.28527 0.0
C493 C 0.91175 0.59235 0.2598 0.0
C494 C 0.96019 0.61587 0.27473 0.0
H495 H 0.04002 0.66619 0.24203 0.0
H496 H 0.00921 0.657 0.25221 0.0
H497 H -0.01142 0.63187 0.27635 0.0
H498 H 0.90773 0.56016 0.3122 0.0
H499 H 0.93716 0.58424 0.29969 0.0
H500 H 0.93593 0.60018 0.2222 0.0
C501 C 0.01176 0.6496 0.23834 0.0
C502 C -0.02284 0.62547 0.26425 0.0
C503 C 0.02939 0.65498 0.23232 0.0
C504 C 0.90863 0.56936 0.29803 0.0
C505 C 0.92549 0.58316 0.29079 0.0
C506 C 0.94726 0.60747 0.23424 0.0
C507 C -0.00234 0.63408 0.22795 0.0
C508 C -0.02057 0.6259 0.23864 0.0
C509 C 0.92725 0.5943 0.27085 0.0
C510 C 0.94506 0.60643 0.25988 0.0
H511 H 0.02194 0.62289 0.19025 0.0
H512 H -0.00899 0.61321 0.201 0.0
H513 H 0.96549 0.61728 0.20399 0.0
H514 H 0.88336 0.57663 0.25688 0.0
H515 H 0.9126 0.601 0.24486 0.0
C516 C 0.58137 0.90963 0.76649 0.0
C517 C 0.56911 0.90861 0.78421 0.0
C518 C 0.59538 0.92615 0.75892 0.0
C519 C 0.61838 0.97519 0.77049 0.0
H520 H 0.61915 0.97786 0.69946 0.0
C521 C 0.62861 0.03032 0.69507 0.0
C522 C 0.6423 0.04537 0.70682 0.0
C523 C 0.62457 0.01317 0.70232 0.0
C524 C 0.61918 0.97734 0.71929 0.0
H525 H 0.56279 0.92388 0.80952 0.0
H526 H 0.58708 0.95285 0.79605 0.0
H527 H 0.60316 0.9489 0.71961 0.0
H528 H 0.66392 0.05454 0.733 0.0
H529 H 0.65735 0.02471 0.74495 0.0
H530 H 0.63333 0.00369 0.7702 0.0
C531 C 0.58604 0.9409 0.78813 0.0
C532 C 0.61019 0.96071 0.7309 0.0
C533 C 0.5721 0.92429 0.79592 0.0
C534 C 0.65315 0.0431 0.72385 0.0
C535 C 0.64927 0.02602 0.73086 0.0
C536 C 0.62732 -0.00817 0.75888 0.0
C537 C 0.5973 0.94202 0.76871 0.0
C538 C 0.60928 0.95946 0.75666 0.0
C539 C 0.63431 0.01086 0.72123 0.0
C540 C 0.62741 -0.00687 0.73314 0.0
H541 H 0.57947 0.89768 0.75737 0.0
H542 H 0.6041 0.92653 0.74442 0.0
H543 H 0.61811 0.9747 0.79033 0.0
H544 H 0.61997 0.03171 0.68201 0.0
H545 H 0.61292 0.0018 0.69452 0.0
C546 C 0.64094 0.58937 0.79182 0.0
C547 C 0.62994 0.57191 0.80052 0.0
C548 C 0.63344 0.59911 0.78234 0.0
C549 C 0.59626 0.59043 0.74546 0.0
H550 H 0.60703 0.63871 0.75937 0.0
C551 C 0.55828 0.62203 0.70099 0.0
C552 C 0.56632 0.64068 0.70076 0.0
C553 C 0.56749 0.61393 0.71044 0.0
C554 C 0.60419 0.62537 0.75476 0.0
H555 H 0.60268 0.55118 0.80741 0.0
H556 H 0.58948 0.56815 0.7904 0.0
H557 H 0.61948 0.62473 0.78528 0.0
H558 H 0.59068 0.66557 0.7076 0.0
H559 H 0.60735 0.65155 0.72208 0.0
H560 H 0.58162 0.59113 0.71441 0.0
C561 C 0.60387 0.57438 0.79132 0.0
C562 C 0.61113 0.61732 0.76992 0.0
C563 C 0.61141 0.5648 0.80135 0.0
C564 C 0.58431 0.65113 0.7074 0.0
C565 C 0.59368 0.64306 0.71625 0.0
C566 C 0.58962 0.5986 0.72997 0.0
C567 C 0.61484 0.59129 0.78084 0.0
C568 C 0.60703 0.59972 0.76555 0.0
C569 C 0.58501 0.6244 0.71943 0.0
C570 C 0.59335 0.61615 0.7345 0.0
H571 H 0.65525 0.5949 0.79051 0.0
H572 H 0.64213 0.61211 0.77427 0.0
H573 H 0.59326 0.57694 0.74145 0.0
H574 H 0.54427 0.61374 0.69648 0.0
H575 H 0.56026 0.59955 0.71259 0.0
C576 C 0.90913 0.57166 0.6993 0.0
C577 C 0.8944 0.56923 0.71308 0.0
C578 C 0.92644 0.58433 0.70657 0.0
C579 C 0.94949 0.60386 0.76413 0.0
H580 H -0.009 0.6275 0.72198 0.0
C581 C 0.02317 0.63669 0.7991 0.0
C582 C 0.03377 0.63203 0.78493 0.0
C583 C 0.00603 0.63224 0.79104 0.0
C584 C -0.02049 0.62101 0.734 0.0
H585 H 0.88599 0.57954 0.74333 0.0
H586 H 0.9161 0.60184 0.75564 0.0
H587 H 0.96127 0.61548 0.70439 0.0
H588 H 0.03432 0.61816 0.75206 0.0
H589 H 0.00477 0.6104 0.73839 0.0
H590 H 0.96776 0.60879 0.79357 0.0
C591 C 0.91439 0.59365 0.73974 0.0
C592 C 0.96251 0.61414 0.72392 0.0
C593 C 0.89715 0.58096 0.73257 0.0
C594 C 0.02664 0.62222 0.76326 0.0
C595 C 0.00973 0.61789 0.75526 0.0
C596 C 0.96652 0.61075 0.77422 0.0
C597 C 0.92924 0.59482 0.72763 0.0
C598 C 0.94728 0.60497 0.73873 0.0
C599 C -0.00061 0.62319 0.76868 0.0
C600 C -0.01835 0.61882 0.75909 0.0
H601 H 0.90742 0.56278 0.68425 0.0
H602 H 0.93759 0.58486 0.69684 0.0
H603 H 0.93804 0.59669 0.77606 0.0
H604 H 0.02833 0.64428 0.81584 0.0
H605 H -0.00178 0.63634 0.80185 0.0
C606 C 0.39608 0.04126 0.75065 0.0
C607 C 0.3943 0.04883 0.77249 0.0
C608 C 0.38254 0.02468 0.74277 0.0
C609 C 0.34395 -0.0171 0.76284 0.0
H610 H 0.33348 0.97728 0.69317 0.0
C611 C 0.29604 0.91408 0.72406 0.0
C612 C 0.30331 0.90915 0.7046 0.0
C613 C 0.30333 0.93198 0.73053 0.0
C614 C 0.33622 0.97864 0.71265 0.0
H615 H 0.37713 0.04458 0.80371 0.0
H616 H 0.35324 0.0152 0.78989 0.0
H617 H 0.35405 0.00682 0.7097 0.0
H618 H 0.32274 0.91913 0.67518 0.0
H619 H 0.33566 0.95049 0.68659 0.0
H620 H 0.32663 0.95467 0.76573 0.0
C621 C 0.36522 0.02231 0.77888 0.0
C622 C 0.34801 -0.00447 0.72213 0.0
C623 C 0.37888 0.03906 0.78684 0.0
C624 C 0.31684 0.92256 0.6902 0.0
C625 C 0.32425 0.94053 0.6968 0.0
C626 C 0.33215 0.966 0.75337 0.0
C627 C 0.3668 0.01516 0.75647 0.0
C628 C 0.35239 -0.00226 0.7472 0.0
C629 C 0.31812 0.94532 0.71777 0.0
C630 C 0.3285 0.96362 0.72807 0.0
H631 H 0.40788 0.04829 0.73929 0.0
H632 H 0.38441 0.01931 0.72582 0.0
H633 H 0.34716 -0.01584 0.78218 0.0
H634 H 0.28543 0.904 0.73529 0.0
H635 H 0.29802 0.93529 0.74638 0.0
C636 C 0.32771 0.40433 0.78772 0.0
C637 C 0.3323 0.42007 0.77469 0.0
C638 C 0.33278 0.39234 0.77882 0.0
C639 C 0.36471 0.38949 0.73679 0.0
H640 H 0.33003 0.33881 0.73551 0.0
C641 C 0.38407 0.34135 0.69532 0.0
C642 C 0.38134 0.32774 0.71179 0.0
C643 C 0.375 0.35077 0.69865 0.0
C644 C 0.33983 0.35293 0.7357 0.0
H645 H 0.34644 0.43596 0.74281 0.0
H646 H 0.3552 0.41524 0.72752 0.0
H647 H 0.32177 0.35967 0.75299 0.0
H648 H 0.3655 0.31176 0.74255 0.0
H649 H 0.34976 0.32807 0.74832 0.0
H650 H 0.3829 0.38287 0.72005 0.0
C651 C 0.34773 0.41206 0.74451 0.0
C652 C 0.33516 0.36484 0.7459 0.0
C653 C 0.34262 0.42391 0.75326 0.0
C654 C 0.36796 0.32234 0.72974 0.0
C655 C 0.35887 0.33165 0.73298 0.0
C656 C 0.36938 0.37763 0.72664 0.0
C657 C 0.34268 0.39603 0.75695 0.0
C658 C 0.3476 0.38323 0.74668 0.0
C659 C 0.36303 0.34661 0.71837 0.0
C660 C 0.35706 0.3592 0.72613 0.0
H661 H 0.3197 0.40101 0.80422 0.0
H662 H 0.3289 0.38015 0.78895 0.0
H663 H 0.37466 0.40356 0.73737 0.0
H664 H 0.3943 0.34576 0.68132 0.0
H665 H 0.37819 0.36203 0.68678 0.0
C666 C 0.04392 0.37888 0.73659 0.0
C667 C 0.04586 0.39128 0.71847 0.0
C668 C 0.02703 0.36546 0.74386 0.0
C669 C -0.00805 0.35177 0.77017 0.0
H670 H 0.9503 0.32698 0.7287 0.0
C671 C 0.91954 0.32668 0.80233 0.0
C672 C 0.90587 0.31166 0.79051 0.0
C673 C 0.93736 0.33311 0.79564 0.0
C674 C 0.96182 0.33356 0.74059 0.0
H675 H 0.0318 0.39848 0.69222 0.0
H676 H 0.0021 0.37502 0.70504 0.0
H677 H -0.0202 0.3434 0.71006 0.0
H678 H 0.89993 0.29045 0.76461 0.0
H679 H 0.93094 0.30124 0.75361 0.0
H680 H -0.02606 0.34213 0.80069 0.0
C681 C 0.01367 0.37561 0.71356 0.0
C682 C -0.0213 0.34313 0.72985 0.0
C683 C 0.03066 0.38902 0.70614 0.0
C684 C 0.9103 0.30217 0.77382 0.0
C685 C 0.92802 0.30844 0.76735 0.0
C686 C -0.02494 0.34222 0.78091 0.0
C687 C 0.0117 0.36423 0.73327 0.0
C688 C -0.00607 0.35254 0.7445 0.0
C689 C 0.94166 0.32449 0.77721 0.0
C690 C 0.95979 0.3332 0.76623 0.0
H691 H 0.05547 0.38022 0.7462 0.0
H692 H 0.02595 0.35659 0.75862 0.0
H693 H 0.0034 0.35911 0.78199 0.0
H694 H 0.91639 0.33429 0.81509 0.0
H695 H 0.94758 0.34554 0.80356 0.0
C696 C 0.41429 0.15205 0.20432 0.0
C697 C 0.42565 0.14689 0.21527 0.0
C698 C 0.41361 0.16685 0.21331 0.0
C699 C 0.42271 0.19267 0.27071 0.0
H700 H 0.41415 0.22453 0.23056 0.0
C701 C 0.42436 0.25721 0.30549 0.0
C702 C 0.4119 0.26097 0.29476 0.0
C703 C 0.42538 0.2423 0.29776 0.0
C704 C 0.41635 0.2156 0.24203 0.0
H705 H 0.44628 0.15389 0.24256 0.0
H706 H 0.44558 0.17998 0.25756 0.0
H707 H 0.41873 0.20186 0.21098 0.0
H708 H 0.38962 0.25136 0.2696 0.0
H709 H 0.3911 0.22525 0.25665 0.0
H710 H 0.42047 0.20661 0.30175 0.0
C711 C 0.43671 0.17232 0.24275 0.0
C712 C 0.41899 0.20263 0.2308 0.0
C713 C 0.43725 0.1575 0.23398 0.0
C714 C 0.39947 0.24881 0.27797 0.0
C715 C 0.40042 0.23398 0.27039 0.0
C716 C 0.42016 0.20573 0.28194 0.0
C717 C 0.4244 0.17676 0.2332 0.0
C718 C 0.42214 0.19097 0.24499 0.0
C719 C 0.41391 0.23103 0.2793 0.0
C720 C 0.4168 0.21722 0.26772 0.0
H721 H 0.40512 0.14399 0.19001 0.0
H722 H 0.40394 0.16989 0.20556 0.0
H723 H 0.42477 0.18368 0.28224 0.0
H724 H 0.43417 0.26649 0.31831 0.0
H725 H 0.43588 0.24029 0.305 0.0
C726 C 0.12776 0.40918 0.27116 0.0
C727 C 0.13281 0.42234 0.28929 0.0
C728 C 0.13946 0.4035 0.26367 0.0
C729 C 0.18294 0.40643 0.27687 0.0
H730 H 0.18558 0.40511 0.20595 0.0
C731 C 0.2395 0.42022 0.20107 0.0
C732 C 0.24789 0.41227 0.21351 0.0
C733 C 0.22267 0.4169 0.20868 0.0
C734 C 0.185 0.4054 0.22576 0.0
H735 H 0.15347 0.43909 0.31501 0.0
H736 H 0.17431 0.42951 0.30151 0.0
H737 H 0.16184 0.40809 0.22504 0.0
H738 H 0.24468 0.39319 0.24163 0.0
H739 H 0.21509 0.38682 0.25422 0.0
H740 H 0.20673 0.40485 0.27754 0.0
C741 C 0.16116 0.42332 0.29333 0.0
C742 C 0.17126 0.40689 0.23677 0.0
C743 C 0.14927 0.42882 0.30111 0.0
C744 C 0.23852 0.39962 0.23192 0.0
C745 C 0.22166 0.39612 0.23929 0.0
C746 C 0.19673 0.40502 0.26585 0.0
C747 C 0.15662 0.41111 0.27383 0.0
C748 C 0.17022 0.4077 0.26245 0.0
C749 C 0.21395 0.40542 0.22865 0.0
C750 C 0.1981 0.40479 0.24015 0.0
H751 H 0.11501 0.40385 0.26197 0.0
H752 H 0.13534 0.3937 0.24913 0.0
H753 H 0.18244 0.40685 0.29667 0.0
H754 H 0.24654 0.43014 0.18695 0.0
H755 H 0.21715 0.42434 0.2001 0.0
C756 C 0.69714 0.14997 0.29151 0.0
C757 C 0.68324 0.15057 0.27917 0.0
C758 C 0.71484 0.16071 0.28355 0.0
C759 C 0.73976 0.18374 0.22757 0.0
H760 H 0.77936 0.21186 0.27114 0.0
C761 C 0.80489 0.2465 0.19797 0.0
C762 C 0.82052 0.25086 0.21092 0.0
C763 C 0.78888 0.23102 0.20401 0.0
C764 C 0.76853 0.20379 0.25871 0.0
H765 H 0.67695 0.16375 0.25025 0.0
H766 H 0.70755 0.18254 0.23685 0.0
H767 H 0.74994 0.19173 0.28829 0.0
H768 H 0.8323 0.24164 0.23813 0.0
H769 H 0.80455 0.21446 0.24812 0.0
H770 H 0.75819 0.19615 0.19796 0.0
C771 C 0.70489 0.17346 0.25204 0.0
C772 C 0.75168 0.1923 0.26859 0.0
C773 C 0.68738 0.16281 0.2599 0.0
C774 C 0.82033 0.23866 0.2281 0.0
C775 C 0.80443 0.22318 0.23396 0.0
C776 C 0.75659 0.1952 0.21769 0.0
C777 C 0.71874 0.17212 0.26321 0.0
C778 C 0.73704 0.18255 0.25309 0.0
C779 C 0.78838 0.21967 0.22291 0.0
C780 C 0.77108 0.20566 0.23314 0.0
H781 H 0.69427 0.14057 0.30633 0.0
H782 H 0.72532 0.15954 0.29259 0.0
H783 H 0.72874 0.17607 0.21519 0.0
H784 H 0.80469 0.25574 0.18476 0.0
H785 H 0.77671 0.22869 0.19517 0.0
C786 C 0.5464 0.82461 0.22792 0.0
C787 C 0.53524 0.82575 0.21025 0.0
C788 C 0.54434 0.80814 0.23446 0.0
C789 C 0.52366 0.76064 0.21801 0.0
H790 H 0.52167 0.75404 0.28859 0.0
C791 C 0.50062 0.6918 0.25979 0.0
C792 C 0.51096 0.69098 0.27901 0.0
C793 C 0.50274 0.70812 0.25222 0.0
C794 C 0.52236 0.75571 0.26887 0.0
H795 H 0.51408 0.81077 0.18416 0.0
H796 H 0.5104 0.78169 0.19566 0.0
H797 H 0.52833 0.78279 0.27162 0.0
H798 H 0.53092 0.70643 0.30634 0.0
H799 H 0.53485 0.73519 0.29292 0.0
H800 H 0.51783 0.7336 0.21525 0.0
C801 C 0.52077 0.79363 0.20442 0.0
C802 C 0.5262 0.77218 0.25912 0.0
C803 C 0.52291 0.81024 0.19775 0.0
C804 C 0.52271 0.70669 0.29157 0.0
C805 C 0.52497 0.72314 0.28382 0.0
C806 C 0.51989 0.74417 0.22777 0.0
C807 C 0.53099 0.7924 0.22357 0.0
C808 C 0.52696 0.77484 0.2336 0.0
C809 C 0.5154 0.72405 0.26354 0.0
C810 C 0.51918 0.74152 0.25331 0.0
H811 H 0.55617 0.83642 0.23764 0.0
H812 H 0.55273 0.80765 0.24879 0.0
H813 H 0.5243 0.76235 0.1983 0.0
H814 H 0.49129 0.67983 0.24997 0.0
H815 H 0.49479 0.7083 0.23703 0.0
C816 C 0.69892 0.54476 0.24475 0.0
C817 C 0.68757 0.53575 0.22497 0.0
C818 C 0.71299 0.54201 0.25055 0.0
C819 C 0.74113 0.52427 0.22838 0.0
H820 H 0.74463 0.51638 0.29772 0.0
C821 C 0.7884 0.50088 0.2626 0.0
C822 C 0.79923 0.51012 0.28272 0.0
C823 C 0.77378 0.50268 0.25648 0.0
C824 C 0.74392 0.5187 0.27835 0.0
H825 H 0.68269 0.51767 0.19474 0.0
H826 H 0.70748 0.51275 0.20496 0.0
H827 H 0.72204 0.52319 0.28351 0.0
H828 H 0.80266 0.52763 0.3131 0.0
H829 H 0.77704 0.53093 0.3023 0.0
H830 H 0.7631 0.5199 0.22323 0.0
C831 C 0.70543 0.52198 0.21594 0.0
C832 C 0.73101 0.52262 0.27018 0.0
C833 C 0.6913 0.52483 0.21003 0.0
C834 C 0.79447 0.52029 0.29759 0.0
C835 C 0.77984 0.5222 0.29134 0.0
C836 C 0.75407 0.52036 0.23655 0.0
C837 C 0.71601 0.5301 0.23679 0.0
C838 C 0.72955 0.52557 0.24513 0.0
C839 C 0.76971 0.51386 0.27023 0.0
C840 C 0.75564 0.51757 0.26164 0.0
H841 H 0.69652 0.55347 0.25639 0.0
H842 H 0.72122 0.54885 0.26627 0.0
H843 H 0.74043 0.52664 0.20902 0.0
H844 H 0.79163 0.49275 0.25097 0.0
H845 H 0.76596 0.49568 0.24053 0.0
C846 C 0.13675 0.69409 0.25221 0.0
C847 C 0.12921 0.69122 0.22865 0.0
C848 C 0.15265 0.70963 0.2576 0.0
C849 C 0.1927 0.74673 0.22968 0.0
H850 H 0.19635 0.7701 0.29187 0.0
C851 C 0.25032 0.81678 0.24992 0.0
C852 C 0.25864 0.82016 0.27297 0.0
C853 C 0.23448 0.80098 0.24547 0.0
C854 C 0.1956 0.76359 0.27461 0.0
H855 H 0.13269 0.70233 0.19211 0.0
H856 H 0.16065 0.72981 0.20165 0.0
H857 H 0.16874 0.74284 0.28127 0.0
H858 H 0.25651 0.80978 0.30973 0.0
H859 H 0.22853 0.78175 0.30183 0.0
H860 H 0.21951 0.7675 0.22296 0.0
C861 C 0.15418 0.71984 0.21587 0.0
C862 C 0.17979 0.74802 0.26848 0.0
C863 C 0.13817 0.70416 0.2104 0.0
C864 C 0.25041 0.80752 0.2918 0.0
C865 C 0.23443 0.79153 0.28727 0.0
C866 C 0.20848 0.76229 0.2358 0.0
C867 C 0.16146 0.72278 0.23963 0.0
C868 C 0.17816 0.73945 0.24591 0.0
C869 C 0.2265 0.78803 0.26388 0.0
C870 C 0.21005 0.77095 0.25824 0.0
H871 H 0.13034 0.68432 0.26668 0.0
H872 H 0.1581 0.71129 0.2759 0.0
H873 H 0.19197 0.74027 0.21238 0.0
H874 H 0.25609 0.82634 0.23507 0.0
H875 H 0.22847 0.7989 0.22748 0.0
C876 C 0.54739 0.71913 0.72829 0.0
C877 C 0.53647 0.70696 0.71028 0.0
C878 C 0.54509 0.73335 0.73507 0.0
C879 C 0.52383 0.75968 0.71907 0.0
H880 H 0.52086 0.76295 0.78971 0.0
C881 C 0.49983 0.80434 0.76114 0.0
C882 C 0.51023 0.81555 0.78031 0.0
C883 C 0.50181 0.79004 0.75372 0.0
C884 C 0.5218 0.76233 0.76998 0.0
H885 H 0.51559 0.70092 0.68379 0.0
H886 H 0.51154 0.72595 0.69567 0.0
H887 H 0.52839 0.74166 0.77228 0.0
H888 H 0.52997 0.81992 0.80789 0.0
H889 H 0.53362 0.79493 0.79477 0.0
H890 H 0.51739 0.78045 0.71675 0.0
C891 C 0.52189 0.72444 0.70453 0.0
C892 C 0.52616 0.75017 0.75997 0.0
C893 C 0.52425 0.71018 0.69763 0.0
C894 C 0.5217 0.8114 0.79317 0.0
C895 C 0.52382 0.79712 0.78557 0.0
C896 C 0.51953 0.7719 0.72908 0.0
C897 C 0.53177 0.73567 0.72407 0.0
C898 C 0.5273 0.74877 0.73442 0.0
C899 C 0.51438 0.78673 0.76515 0.0
C900 C 0.51846 0.77335 0.75466 0.0
H901 H 0.55706 0.71707 0.73815 0.0
H902 H 0.55324 0.74208 0.74971 0.0
H903 H 0.52474 0.75899 0.69934 0.0
H904 H 0.49074 0.80715 0.75108 0.0
H905 H 0.49395 0.78197 0.73842 0.0
C906 C 0.70805 0.55303 0.78101 0.0
C907 C 0.69529 0.54138 0.79796 0.0
C908 C 0.7223 0.55079 0.77419 0.0
C909 C 0.7317 0.51435 0.76795 0.0
H910 H 0.77845 0.55222 0.74757 0.0
C911 C 0.7887 0.5029 0.73666 0.0
C912 C 0.80025 0.51389 0.71809 0.0
C913 C 0.77498 0.50542 0.74523 0.0
C914 C 0.76534 0.54152 0.75284 0.0
H915 H 0.68819 0.51925 0.82273 0.0
H916 H 0.71341 0.51542 0.81106 0.0
H917 H 0.75844 0.55968 0.76927 0.0
H918 H 0.80584 0.53535 0.69275 0.0
H919 H 0.78163 0.53978 0.70772 0.0
H920 H 0.73864 0.4962 0.75155 0.0
C921 C 0.71218 0.52613 0.80275 0.0
C922 C 0.75394 0.54578 0.76546 0.0
C923 C 0.69791 0.52846 0.80971 0.0
C924 C 0.79703 0.52662 0.70696 0.0
C925 C 0.78336 0.5293 0.71576 0.0
C926 C 0.74313 0.51009 0.75541 0.0
C927 C 0.72406 0.53679 0.78413 0.0
C928 C 0.73694 0.53225 0.77305 0.0
C929 C 0.77261 0.51911 0.73556 0.0
C930 C 0.76003 0.52363 0.7476 0.0
H931 H 0.70634 0.56314 0.77171 0.0
H932 H 0.73112 0.55922 0.75977 0.0
H933 H 0.71855 0.50363 0.77303 0.0
H934 H 0.79091 0.49297 0.74555 0.0
H935 H 0.76699 0.4974 0.76053 0.0
C936 C 0.24839 0.7988 0.71873 0.0
C937 C 0.24969 0.8125 0.70357 0.0
C938 C 0.23188 0.78568 0.72757 0.0
C939 C 0.18344 0.76422 0.72258 0.0
H940 H 0.18522 0.76102 0.79342 0.0
C941 C 0.1203 0.7172 0.7758 0.0
C942 C 0.12229 0.70608 0.79269 0.0
C943 C 0.1352 0.73261 0.767 0.0
C944 C 0.18448 0.76166 0.77367 0.0
H945 H 0.23483 0.82263 0.68418 0.0
H946 H 0.20558 0.79926 0.69941 0.0
H947 H 0.21219 0.78125 0.77076 0.0
H948 H 0.1411 0.70297 0.81519 0.0
H949 H 0.16726 0.72971 0.79955 0.0
H950 H 0.15592 0.74418 0.72528 0.0
C951 C 0.21741 0.79874 0.70441 0.0
C952 C 0.19993 0.77323 0.76068 0.0
C953 C 0.23406 0.81197 0.69549 0.0
C954 C 0.13922 0.71146 0.80238 0.0
C955 C 0.15421 0.72677 0.79329 0.0
C956 C 0.16799 0.75248 0.73555 0.0
C957 C 0.21635 0.78607 0.72152 0.0
C958 C 0.19962 0.77439 0.735 0.0
C959 C 0.15242 0.73702 0.7746 0.0
C960 C 0.16838 0.75089 0.76124 0.0
H961 H 0.26032 0.79906 0.72529 0.0
H962 H 0.23137 0.77582 0.7403 0.0
H963 H 0.18287 0.76488 0.7028 0.0
H964 H 0.10732 0.71333 0.76815 0.0
H965 H 0.13329 0.7405 0.75321 0.0
C966 C 0.41506 0.26174 0.75583 0.0
C967 C 0.41535 0.26706 0.73136 0.0
C968 C 0.41372 0.24544 0.7613 0.0
C969 C 0.39878 0.20072 0.7387 0.0
H970 H 0.43264 0.20148 0.7859 0.0
C971 C 0.40956 0.14123 0.75434 0.0
C972 C 0.41463 0.13841 0.77765 0.0
C973 C 0.40732 0.15581 0.74991 0.0
C974 C 0.42284 0.20095 0.7731 0.0
H975 H 0.41407 0.25913 0.69341 0.0
H976 H 0.41155 0.23018 0.70314 0.0
H977 H 0.434 0.22928 0.77424 0.0
H978 H 0.42018 0.14804 0.81504 0.0
H979 H 0.41591 0.17355 0.80742 0.0
H980 H 0.38748 0.17235 0.73771 0.0
C981 C 0.41242 0.23889 0.71796 0.0
C982 C 0.42374 0.2169 0.76624 0.0
C983 C 0.41393 0.25543 0.71241 0.0
C984 C 0.41637 0.14993 0.79688 0.0
C985 C 0.41407 0.16459 0.79243 0.0
C986 C 0.39777 0.1847 0.74573 0.0
C987 C 0.41254 0.23391 0.7425 0.0
C988 C 0.41178 0.21695 0.74893 0.0
C989 C 0.40997 0.16793 0.76871 0.0
C990 C 0.40988 0.18465 0.76289 0.0
H991 H 0.41607 0.27027 0.77099 0.0
H992 H 0.41358 0.24183 0.78035 0.0
H993 H 0.38924 0.2004 0.72559 0.0
H994 H 0.40794 0.13251 0.73912 0.0
H995 H 0.40436 0.15801 0.73139 0.0
C996 C 0.14358 0.43352 0.70964 0.0
C997 C 0.13913 0.44396 0.72447 0.0
C998 C 0.15738 0.43046 0.7166 0.0
C999 C 0.18118 0.42986 0.77225 0.0
H1000 H 0.21655 0.43163 0.72712 0.0
C1001 C 0.24858 0.43744 0.80188 0.0
C1002 C 0.25624 0.43003 0.78667 0.0
C1003 C 0.2321 0.43569 0.79575 0.0
C1004 C 0.20656 0.43072 0.7399 0.0
H1005 H 0.14643 0.4605 0.75708 0.0
H1006 H 0.17057 0.45547 0.76883 0.0
H1007 H 0.19293 0.4365 0.71184 0.0
H1008 H 0.25196 0.41336 0.75488 0.0
H1009 H 0.22303 0.40984 0.74466 0.0
H1010 H 0.19498 0.42438 0.8004 0.0
C1011 C 0.16312 0.44918 0.75231 0.0
C1012 C 0.19307 0.43358 0.73112 0.0
C1013 C 0.1494 0.45219 0.74544 0.0
C1014 C 0.24642 0.41939 0.76673 0.0
C1015 C 0.22993 0.4175 0.76076 0.0
C1016 C 0.19464 0.42696 0.78104 0.0
C1017 C 0.1669 0.43784 0.73843 0.0
C1018 C 0.18045 0.43351 0.74727 0.0
C1019 C 0.22303 0.42638 0.77445 0.0
C1020 C 0.20763 0.42761 0.76502 0.0
H1021 H 0.13582 0.42696 0.69346 0.0
H1022 H 0.16007 0.42171 0.7055 0.0
H1023 H 0.17138 0.42936 0.78506 0.0
H1024 H 0.25595 0.44578 0.81728 0.0
H1025 H 0.22714 0.44271 0.80667 0.0
C1026 C 0.81052 0.23989 0.77461 0.0
C1027 C 0.81113 0.25265 0.79105 0.0
C1028 C 0.79429 0.22504 0.76833 0.0
C1029 C 0.74671 0.19765 0.78283 0.0
H1030 H 0.74174 0.19368 0.71204 0.0
C1031 C 0.67949 0.14966 0.73842 0.0
C1032 C 0.67974 0.13929 0.7188 0.0
C1033 C 0.69524 0.16427 0.74678 0.0
C1034 C 0.74295 0.19445 0.73181 0.0
H1035 H 0.79558 0.25922 0.81549 0.0
H1036 H 0.76688 0.23294 0.8045 0.0
H1037 H 0.76982 0.21617 0.73006 0.0
H1038 H 0.69645 0.13655 0.69168 0.0
H1039 H 0.7242 0.162 0.70655 0.0
H1040 H 0.71994 0.17573 0.78462 0.0
C1041 C 0.77904 0.23453 0.7965 0.0
C1042 C 0.75903 0.20733 0.74214 0.0
C1043 C 0.79542 0.24947 0.8029 0.0
C1044 C 0.6959 0.14442 0.70672 0.0
C1045 C 0.71177 0.15897 0.7153 0.0
C1046 C 0.73064 0.18464 0.77248 0.0
C1047 C 0.77832 0.22268 0.77827 0.0
C1048 C 0.7611 0.20898 0.76773 0.0
C1049 C 0.71165 0.16873 0.7359 0.0
C1050 C 0.72859 0.18288 0.74683 0.0
H1051 H 0.82251 0.24199 0.76541 0.0
H1052 H 0.79415 0.21587 0.75471 0.0
H1053 H 0.748 0.19861 0.80259 0.0
H1054 H 0.66714 0.1461 0.74789 0.0
H1055 H 0.6946 0.1718 0.7622 0.0
C1056 C 0.41966 0.10152 0.08835 0.0
C1057 C 0.4224 0.08905 0.10136 0.0
C1058 C 0.4199 0.10181 0.06262 0.0
C1059 C 0.41551 0.07348 0.00866 0.0
H1060 H 0.43727 0.11832 0.97302 0.0
C1061 C 0.42989 0.07714 0.90472 0.0
C1062 C 0.42689 0.08884 0.89026 0.0
C1063 C 0.42886 0.07736 0.93031 0.0
C1064 C 0.43095 0.10566 0.98266 0.0
H1065 H 0.42781 0.06728 0.0973 0.0
H1066 H 0.42848 0.06795 0.05276 0.0
H1067 H 0.43653 0.11848 0.01776 0.0
H1068 H 0.42042 0.10999 0.89161 0.0
H1069 H 0.41855 0.11033 0.93631 0.0
H1070 H 0.41005 0.06067 0.97364 0.0
C1071 C 0.4258 0.07732 0.06232 0.0
C1072 C 0.43051 0.10575 0.00837 0.0
C1073 C 0.42554 0.07701 0.08797 0.0
C1074 C 0.42282 0.10079 0.90213 0.0
C1075 C 0.42185 0.10105 0.9278 0.0
C1076 C 0.41598 0.0734 0.98301 0.0
C1077 C 0.42288 0.08964 0.04922 0.0
C1078 C 0.42291 0.08965 0.02176 0.0
C1079 C 0.42483 0.08931 0.94225 0.0
C1080 C 0.42382 0.08948 0.96963 0.0
H1081 H 0.41717 0.11097 0.09803 0.0
H1082 H 0.41743 0.11138 0.05323 0.0
H1083 H 0.40918 0.06079 0.01822 0.0
H1084 H 0.43312 0.06779 0.89628 0.0
H1085 H 0.4315 0.0683 0.94078 0.0
C1086 C 0.33745 0.45476 0.90916 0.0
C1087 C 0.32198 0.4483 0.89474 0.0
C1088 C 0.33626 0.45288 0.9347 0.0
C1089 C 0.30595 0.44526 0.98722 0.0
H1090 H 0.33847 0.43451 0.02193 0.0
C1091 C 0.30077 0.4322 0.09228 0.0
C1092 C 0.31689 0.43977 0.10544 0.0
C1093 C 0.3008 0.43236 0.06657 0.0
C1094 C 0.32939 0.43769 0.01258 0.0
H1095 H 0.29307 0.43466 0.89606 0.0
H1096 H 0.29099 0.43125 0.94057 0.0
H1097 H 0.33957 0.43638 0.97735 0.0
H1098 H 0.3457 0.45338 0.10169 0.0
H1099 H 0.34576 0.45377 0.0571 0.0
H1100 H 0.29584 0.44666 0.0225 0.0
C1101 C 0.30408 0.43797 0.93214 0.0
C1102 C 0.33003 0.43877 0.98695 0.0
C1103 C 0.30527 0.43984 0.90656 0.0
C1104 C 0.33302 0.44737 0.09223 0.0
C1105 C 0.33305 0.4475 0.06657 0.0
C1106 C 0.30531 0.44417 0.01287 0.0
C1107 C 0.31957 0.44448 0.94658 0.0
C1108 C 0.31842 0.44271 0.97389 0.0
C1109 C 0.31695 0.44005 0.05335 0.0
C1110 C 0.31712 0.44052 0.02593 0.0
H1111 H 0.35055 0.46141 0.90076 0.0
H1112 H 0.3485 0.4583 0.94517 0.0
H1113 H 0.29696 0.44854 0.97786 0.0
H1114 H 0.28809 0.42621 0.10182 0.0
H1115 H 0.28814 0.42631 0.05704 0.0
C1116 C 0.85114 0.3054 0.90793 0.0
C1117 C 0.86466 0.32008 0.8951 0.0
C1118 C 0.85065 0.30527 0.93363 0.0
C1119 C 0.86773 0.33524 0.98792 0.0
H1120 H 0.85643 0.29178 0.02287 0.0
C1121 C 0.87975 0.33473 0.09218 0.0
C1122 C 0.86725 0.32007 0.10614 0.0
C1123 C 0.8786 0.33461 0.06657 0.0
C1124 C 0.85938 0.30398 0.01345 0.0
H1125 H 0.88824 0.34622 0.89943 0.0
H1126 H 0.88746 0.34593 0.94405 0.0
H1127 H 0.85589 0.29179 0.97819 0.0
H1128 H 0.84359 0.29381 0.1039 0.0
H1129 H 0.8415 0.29367 0.05926 0.0
H1130 H 0.87131 0.34747 0.02315 0.0
C1131 C 0.87708 0.33457 0.9343 0.0
C1132 C 0.85908 0.30399 0.98776 0.0
C1133 C 0.87759 0.33468 0.90864 0.0
C1134 C 0.85348 0.30532 0.09378 0.0
C1135 C 0.85235 0.3052 0.06813 0.0
C1136 C 0.86803 0.33524 0.01359 0.0
C1137 C 0.86365 0.31984 0.94719 0.0
C1138 C 0.86337 0.31965 0.97462 0.0
C1139 C 0.86493 0.31983 0.05414 0.0
C1140 C 0.86399 0.31964 0.02674 0.0
H1141 H 0.84093 0.29393 0.89814 0.0
H1142 H 0.83998 0.29378 0.94287 0.0
H1143 H 0.8708 0.34748 0.9785 0.0
H1144 H 0.89056 0.3463 0.10101 0.0
H1145 H 0.88869 0.34602 0.05649 0.0
C1146 C 0.52047 0.89086 0.08907 0.0
C1147 C 0.52056 0.87713 0.10277 0.0
C1148 C 0.5198 0.89019 0.06345 0.0
C1149 C 0.50837 0.85951 0.01028 0.0
H1150 H 0.53749 0.90357 0.97452 0.0
C1151 C 0.51664 0.8618 0.90408 0.0
C1152 C 0.5171 0.87627 0.89163 0.0
C1153 C 0.51688 0.86138 0.92979 0.0
C1154 C 0.5291 0.89116 0.98416 0.0
H1155 H 0.51976 0.85174 0.10003 0.0
H1156 H 0.5187 0.85062 0.05526 0.0
H1157 H 0.53813 0.90371 0.01908 0.0
H1158 H 0.51792 0.90154 0.89665 0.0
H1159 H 0.51816 0.90071 0.94121 0.0
H1160 H 0.49935 0.84699 0.97522 0.0
C1161 C 0.519 0.86187 0.0644 0.0
C1162 C 0.52947 0.89124 0.0098 0.0
C1163 C 0.51969 0.86255 0.09011 0.0
C1164 C 0.51765 0.89021 0.90555 0.0
C1165 C 0.5179 0.88979 0.93119 0.0
C1166 C 0.508 0.85943 0.98456 0.0
C1167 C 0.5192 0.87577 0.0507 0.0
C1168 C 0.51903 0.87545 0.02327 0.0
C1169 C 0.51763 0.87543 0.94372 0.0
C1170 C 0.51827 0.87529 0.97113 0.0
H1171 H 0.52104 0.90226 0.09813 0.0
H1172 H 0.51965 0.90098 0.05361 0.0
H1173 H 0.50001 0.84713 0.01998 0.0
H1174 H 0.51623 0.85084 0.89398 0.0
H1175 H 0.51683 0.85018 0.93875 0.0
C1176 C 0.64023 0.52686 0.10228 0.0
C1177 C 0.62611 0.52738 0.11428 0.0
C1178 C 0.64064 0.52598 0.07661 0.0
C1179 C 0.61152 0.51432 0.02153 0.0
H1180 H 0.65609 0.54275 0.98665 0.0
C1181 C 0.61373 0.52529 0.91673 0.0
C1182 C 0.62775 0.5257 0.90316 0.0
C1183 C 0.61371 0.52475 0.94238 0.0
C1184 C 0.64356 0.53453 0.99607 0.0
H1185 H 0.60134 0.52737 0.10848 0.0
H1186 H 0.60212 0.52597 0.06399 0.0
H1187 H 0.65576 0.54313 0.03136 0.0
H1188 H 0.65272 0.52574 0.90616 0.0
H1189 H 0.65261 0.52465 0.95092 0.0
H1190 H 0.59928 0.50577 0.98631 0.0
C1191 C 0.61279 0.52601 0.07435 0.0
C1192 C 0.64337 0.53475 0.02178 0.0
C1193 C 0.6124 0.52692 0.09995 0.0
C1194 C 0.64172 0.52546 0.91598 0.0
C1195 C 0.64171 0.52495 0.94169 0.0
C1196 C 0.61171 0.51409 0.99586 0.0
C1197 C 0.62691 0.52555 0.06227 0.0
C1198 C 0.62731 0.52477 0.03488 0.0
C1199 C 0.6277 0.52461 0.95528 0.0
C1200 C 0.6277 0.52431 0.98272 0.0
H1201 H 0.65101 0.52717 0.1127 0.0
H1202 H 0.65163 0.52546 0.06802 0.0
H1203 H 0.59895 0.50618 0.03092 0.0
H1204 H 0.60277 0.52552 0.90756 0.0
H1205 H 0.60283 0.52478 0.95212 0.0
C1206 C 0.08699 0.65425 0.91382 0.0
C1207 C 0.07576 0.63839 0.90101 0.0
C1208 C 0.08759 0.65441 0.93953 0.0
C1209 C 0.07653 0.62399 0.99333 0.0
H1210 H 0.08031 0.6641 0.02996 0.0
C1211 C 0.06487 0.62048 0.098 0.0
C1212 C 0.07597 0.6356 0.11222 0.0
C1213 C 0.0656 0.62129 0.07237 0.0
C1214 C 0.07947 0.65288 0.02003 0.0
H1215 H 0.05617 0.6103 0.90544 0.0
H1216 H 0.05701 0.61062 0.95 0.0
H1217 H 0.08002 0.66467 0.98523 0.0
H1218 H 0.09661 0.6635 0.11041 0.0
H1219 H 0.09792 0.66492 0.06562 0.0
H1220 H 0.07583 0.61213 0.02807 0.0
C1221 C 0.06563 0.62291 0.94026 0.0
C1222 C 0.07931 0.6532 0.99432 0.0
C1223 C 0.06506 0.62275 0.9146 0.0
C1224 C 0.08785 0.65159 0.10007 0.0
C1225 C 0.08853 0.65243 0.07436 0.0
C1226 C 0.07665 0.62365 0.01899 0.0
C1227 C 0.07698 0.63871 0.95314 0.0
C1228 C 0.07769 0.63869 0.98058 0.0
C1229 C 0.07742 0.63727 0.06015 0.0
C1230 C 0.07798 0.63802 0.03273 0.0
H1231 H 0.09547 0.66655 0.90398 0.0
H1232 H 0.09663 0.66679 0.94872 0.0
H1233 H 0.07567 0.61273 0.98348 0.0
H1234 H 0.0555 0.60794 0.10664 0.0
H1235 H 0.05665 0.60941 0.06211 0.0
C1236 C 0.87514 0.5227 0.59138 0.0
C1237 C 0.86039 0.52027 0.60526 0.0
C1238 C 0.87465 0.52264 0.56574 0.0
C1239 C 0.8437 0.50812 0.51262 0.0
H1240 H 0.88633 0.54158 0.47706 0.0
C1241 C 0.84506 0.51582 0.40636 0.0
C1242 C 0.86043 0.51831 0.39402 0.0
C1243 C 0.84456 0.51618 0.43207 0.0
C1244 C 0.87435 0.532 0.48664 0.0
H1245 H 0.83347 0.51578 0.6028 0.0
H1246 H 0.83265 0.51578 0.558 0.0
H1247 H 0.88632 0.54201 0.52165 0.0
H1248 H 0.88725 0.52299 0.39928 0.0
H1249 H 0.88631 0.52344 0.44381 0.0
H1250 H 0.83177 0.49807 0.4775 0.0
C1251 C 0.84457 0.51758 0.56701 0.0
C1252 C 0.87434 0.53225 0.5123 0.0
C1253 C 0.84507 0.51767 0.59274 0.0
C1254 C 0.87521 0.52109 0.40807 0.0
C1255 C 0.87471 0.52147 0.4337 0.0
C1256 C 0.84371 0.50786 0.4869 0.0
C1257 C 0.8594 0.52013 0.55314 0.0
C1258 C 0.85908 0.52021 0.5257 0.0
C1259 C 0.85942 0.5191 0.44611 0.0
C1260 C 0.85909 0.5197 0.47353 0.0
H1261 H 0.88715 0.52467 0.60032 0.0
H1262 H 0.88622 0.52435 0.55577 0.0
H1263 H 0.83175 0.49852 0.52225 0.0
H1264 H 0.83343 0.51367 0.39617 0.0
H1265 H 0.83261 0.51447 0.44092 0.0
C1266 C 0.32753 0.8853 0.58439 0.0
C1267 C 0.31354 0.87135 0.59767 0.0
C1268 C 0.32763 0.88517 0.55873 0.0
C1269 C 0.30833 0.8554 0.50463 0.0
H1270 H 0.32446 0.90012 0.47011 0.0
C1271 C 0.30333 0.85936 0.39849 0.0
C1272 C 0.31764 0.87387 0.38642 0.0
C1273 C 0.30245 0.85858 0.4242 0.0
C1274 C 0.32011 0.88753 0.4794 0.0
H1275 H 0.2887 0.84621 0.59413 0.0
H1276 H 0.28881 0.84604 0.54935 0.0
H1277 H 0.32361 0.89961 0.51468 0.0
H1278 H 0.34237 0.89881 0.39213 0.0
H1279 H 0.34094 0.89737 0.43666 0.0
H1280 H 0.30485 0.84334 0.46923 0.0
C1281 C 0.29982 0.85703 0.55882 0.0
C1282 C 0.31962 0.88724 0.50505 0.0
C1283 C 0.29971 0.85717 0.58455 0.0
C1284 C 0.33109 0.88747 0.40072 0.0
C1285 C 0.33021 0.8867 0.42635 0.0
C1286 C 0.30882 0.85569 0.47891 0.0
C1287 C 0.31375 0.87108 0.54553 0.0
C1288 C 0.31383 0.8712 0.51808 0.0
C1289 C 0.31583 0.87231 0.4385 0.0
C1290 C 0.31484 0.87179 0.46592 0.0
H1291 H 0.33845 0.89642 0.59381 0.0
H1292 H 0.33875 0.89608 0.54922 0.0
H1293 H 0.30399 0.84283 0.51397 0.0
H1294 H 0.29271 0.84865 0.3881 0.0
H1295 H 0.29109 0.84737 0.43285 0.0
C1296 C 0.4318 0.34222 0.60019 0.0
C1297 C 0.42994 0.32783 0.61446 0.0
C1298 C 0.43236 0.3417 0.57459 0.0
C1299 C 0.42022 0.31055 0.522 0.0
H1300 H 0.45171 0.35391 0.48623 0.0
C1301 C 0.42775 0.312 0.4158 0.0
C1302 C 0.42864 0.32671 0.40344 0.0
C1303 C 0.42859 0.31176 0.44148 0.0
C1304 C 0.4427 0.3417 0.49588 0.0
H1305 H 0.42728 0.30157 0.61276 0.0
H1306 H 0.4284 0.30071 0.568 0.0
H1307 H 0.45203 0.35411 0.53084 0.0
H1308 H 0.43117 0.35273 0.40861 0.0
H1309 H 0.43252 0.35227 0.45312 0.0
H1310 H 0.41084 0.29818 0.48694 0.0
C1311 C 0.42925 0.31236 0.57668 0.0
C1312 C 0.44288 0.34182 0.52154 0.0
C1313 C 0.42871 0.31289 0.60238 0.0
C1314 C 0.4305 0.34119 0.41742 0.0
C1315 C 0.43139 0.34097 0.44303 0.0
C1316 C 0.42005 0.31043 0.49629 0.0
C1317 C 0.43109 0.32677 0.56242 0.0
C1318 C 0.4315 0.3263 0.535 0.0
C1319 C 0.43042 0.32625 0.45546 0.0
C1320 C 0.43116 0.32606 0.48286 0.0
H1321 H 0.43272 0.35392 0.60878 0.0
H1322 H 0.43349 0.35293 0.56431 0.0
H1323 H 0.41112 0.29839 0.53169 0.0
H1324 H 0.42633 0.30061 0.40565 0.0
H1325 H 0.42798 0.30027 0.45036 0.0
C1326 C 0.09641 0.44077 0.59896 0.0
C1327 C 0.08341 0.44334 0.61072 0.0
C1328 C 0.09733 0.44059 0.5733 0.0
C1329 C 0.07033 0.43468 0.51732 0.0
H1330 H 0.11617 0.45726 0.48428 0.0
C1331 C 0.07682 0.44781 0.41291 0.0
C1332 C 0.08926 0.44511 0.3998 0.0
C1333 C 0.07624 0.44705 0.43854 0.0
C1334 C 0.10325 0.4507 0.4932 0.0
H1335 H 0.0613 0.44791 0.6045 0.0
H1336 H 0.06305 0.44784 0.56001 0.0
H1337 H 0.115 0.45706 0.52898 0.0
H1338 H 0.11087 0.43948 0.40357 0.0
H1339 H 0.10981 0.4381 0.44834 0.0
H1340 H 0.05858 0.42845 0.48158 0.0
C1341 C 0.07237 0.44565 0.57054 0.0
C1342 C 0.10257 0.45057 0.51889 0.0
C1343 C 0.07143 0.44581 0.59615 0.0
C1344 C 0.10112 0.44164 0.41304 0.0
C1345 C 0.10058 0.44095 0.43874 0.0
C1346 C 0.07101 0.43484 0.49168 0.0
C1347 C 0.08528 0.44297 0.55871 0.0
C1348 C 0.08609 0.44268 0.53132 0.0
C1349 C 0.08811 0.44363 0.45184 0.0
C1350 C 0.08747 0.44296 0.47923 0.0
H1351 H 0.10583 0.43879 0.60958 0.0
H1352 H 0.10733 0.4383 0.5649 0.0
H1353 H 0.05738 0.42814 0.52617 0.0
H1354 H 0.06751 0.45057 0.40338 0.0
H1355 H 0.06663 0.44944 0.44796 0.0
C1356 C 0.61081 0.08002 0.40569 0.0
C1357 C 0.62522 0.09309 0.39194 0.0
C1358 C 0.61201 0.07909 0.43117 0.0
C1359 C 0.63662 0.10596 0.4853 0.0
H1360 H 0.61546 0.0597 0.51719 0.0
C1361 C 0.6421 0.09813 0.59049 0.0
C1362 C 0.62688 0.08459 0.60243 0.0
C1363 C 0.64278 0.09941 0.56482 0.0
C1364 C 0.62128 0.07274 0.50866 0.0
H1365 H 0.65229 0.1154 0.39441 0.0
H1366 H 0.65441 0.11374 0.43895 0.0
H1367 H 0.61518 0.0614 0.47267 0.0
H1368 H 0.60039 0.06188 0.59654 0.0
H1369 H 0.60149 0.06424 0.5521 0.0
H1370 H 0.64255 0.11729 0.52136 0.0
C1371 C 0.64211 0.10428 0.42996 0.0
C1372 C 0.62113 0.07372 0.48305 0.0
C1373 C 0.64093 0.10516 0.40439 0.0
C1374 C 0.61237 0.07243 0.58804 0.0
C1375 C 0.61305 0.07372 0.56245 0.0
C1376 C 0.63673 0.10499 0.51096 0.0
C1377 C 0.62764 0.09123 0.44371 0.0
C1378 C 0.62864 0.09032 0.471 0.0
C1379 C 0.62828 0.08717 0.55042 0.0
C1380 C 0.6289 0.08835 0.52303 0.0
H1381 H 0.59848 0.07052 0.3968 0.0
H1382 H 0.60051 0.06903 0.44111 0.0
H1383 H 0.64235 0.11898 0.4767 0.0
H1384 H 0.65354 0.10771 0.60096 0.0
H1385 H 0.6548 0.10984 0.55625 0.0
C1386 C 0.51199 0.62193 0.40689 0.0
C1387 C 0.51345 0.63617 0.39266 0.0
C1388 C 0.51187 0.62261 0.43252 0.0
C1389 C 0.52441 0.65404 0.48489 0.0
H1390 H 0.49328 0.61092 0.52136 0.0
C1391 C 0.51749 0.65365 0.59103 0.0
C1392 C 0.51672 0.6391 0.6037 0.0
C1393 C 0.51646 0.65357 0.56536 0.0
C1394 C 0.5022 0.62306 0.51151 0.0
H1395 H 0.51595 0.66236 0.39446 0.0
H1396 H 0.51562 0.6635 0.4392 0.0
H1397 H 0.49273 0.61035 0.47675 0.0
H1398 H 0.51414 0.61301 0.59909 0.0
H1399 H 0.51246 0.61293 0.55458 0.0
H1400 H 0.53393 0.66671 0.51974 0.0
C1401 C 0.51474 0.65185 0.4305 0.0
C1402 C 0.50189 0.62273 0.48585 0.0
C1403 C 0.51483 0.65115 0.4048 0.0
C1404 C 0.51472 0.62443 0.59003 0.0
C1405 C 0.51365 0.62434 0.56443 0.0
C1406 C 0.52472 0.65437 0.5106 0.0
C1407 C 0.51322 0.63756 0.44473 0.0
C1408 C 0.5131 0.63817 0.47214 0.0
C1409 C 0.51456 0.63892 0.55168 0.0
C1410 C 0.51372 0.63883 0.52428 0.0
H1411 H 0.51097 0.61019 0.39825 0.0
H1412 H 0.51098 0.61147 0.44278 0.0
H1413 H 0.53339 0.66614 0.47502 0.0
H1414 H 0.519 0.66516 0.60093 0.0
H1415 H 0.517 0.66495 0.55624 0.0
C1416 C 0.45856 0.0779 0.23282 0.0
C1417 C 0.45888 0.09021 0.21572 0.0
C1418 C 0.47426 0.08079 0.24399 0.0
C1419 C 0.51743 0.11793 0.26231 0.0
H1420 H 0.52969 0.08137 0.27542 0.0
C1421 C 0.58706 0.13264 0.28992 0.0
C1422 C 0.58903 0.11963 0.30263 0.0
C1423 C 0.57014 0.12996 0.28489 0.0
C1424 C 0.52624 0.09165 0.27248 0.0
H1425 H 0.47598 0.11455 0.19562 0.0
H1426 H 0.50358 0.11959 0.21512 0.0
H1427 H 0.50302 0.07393 0.25174 0.0
H1428 H 0.57512 0.09468 0.32261 0.0
H1429 H 0.54533 0.0901 0.31428 0.0
H1430 H 0.54064 0.13568 0.28297 0.0
C1431 C 0.4911 0.1078 0.22003 0.0
C1432 C 0.51107 0.08741 0.25864 0.0
C1433 C 0.47537 0.10478 0.20861 0.0
C1434 C 0.57392 0.10495 0.31287 0.0
C1435 C 0.55689 0.1022 0.30773 0.0
C1436 C 0.53253 0.12214 0.27631 0.0
C1437 C 0.49058 0.09615 0.23844 0.0
C1438 C 0.50668 0.10058 0.25306 0.0
C1439 C 0.55483 0.11417 0.29245 0.0
C1440 C 0.5373 0.10913 0.2812 0.0
H1441 H 0.446 0.06655 0.23863 0.0
H1442 H 0.47344 0.07158 0.25807 0.0
H1443 H 0.51411 0.12824 0.25881 0.0
H1444 H 0.59856 0.14408 0.28184 0.0
H1445 H 0.56913 0.13948 0.27308 0.0
C1446 C 0.45394 0.59644 0.29477 0.0
C1447 C 0.46915 0.59854 0.28254 0.0
C1448 C 0.43687 0.5835 0.28688 0.0
C1449 C 0.41474 0.55947 0.23041 0.0
H1450 H 0.37511 0.52861 0.27264 0.0
C1451 C 0.35183 0.496 0.19698 0.0
C1452 C 0.33574 0.49031 0.20962 0.0
C1453 C 0.36732 0.51156 0.20418 0.0
C1454 C 0.38594 0.53739 0.26058 0.0
H1455 H 0.47855 0.58775 0.2541 0.0
H1456 H 0.44895 0.56509 0.24079 0.0
H1457 H 0.40376 0.5499 0.29075 0.0
H1458 H 0.32271 0.49749 0.23766 0.0
H1459 H 0.34958 0.52486 0.24971 0.0
H1460 H 0.39705 0.54688 0.20023 0.0
C1461 C 0.4501 0.57373 0.25588 0.0
C1462 C 0.40237 0.54951 0.271 0.0
C1463 C 0.46705 0.58659 0.26368 0.0
C1464 C 0.335 0.50143 0.22779 0.0
C1465 C 0.35042 0.51701 0.23487 0.0
C1466 C 0.39832 0.54741 0.22 0.0
C1467 C 0.43484 0.57251 0.26672 0.0
C1468 C 0.41703 0.56041 0.256 0.0
C1469 C 0.36692 0.52176 0.22399 0.0
C1470 C 0.3838 0.53602 0.23493 0.0
H1471 H 0.45518 0.60554 0.30926 0.0
H1472 H 0.42531 0.58278 0.29566 0.0
H1473 H 0.42572 0.56801 0.21839 0.0
H1474 H 0.35283 0.48768 0.18296 0.0
H1475 H 0.37981 0.51482 0.1954 0.0
C1476 C 0.84831 0.45885 0.29986 0.0
C1477 C 0.85558 0.47284 0.28264 0.0
C1478 C 0.84715 0.44245 0.29445 0.0
C1479 C 0.84434 0.41528 0.24112 0.0
H1480 H 0.85843 0.3897 0.28561 0.0
C1481 C 0.85375 0.35682 0.20954 0.0
C1482 C 0.84966 0.34292 0.22622 0.0
C1483 C 0.85286 0.37186 0.21683 0.0
C1484 C 0.85413 0.3965 0.27308 0.0
H1485 H 0.86841 0.48096 0.24698 0.0
H1486 H 0.86643 0.45263 0.23778 0.0
H1487 H 0.8604 0.41758 0.29881 0.0
H1488 H 0.84039 0.33337 0.26312 0.0
H1489 H 0.83836 0.35924 0.27553 0.0
H1490 H 0.83801 0.39431 0.21539 0.0
C1491 C 0.86126 0.45412 0.25516 0.0
C1492 C 0.85532 0.41249 0.28068 0.0
C1493 C 0.86248 0.4704 0.26056 0.0
C1494 C 0.84385 0.34397 0.2499 0.0
C1495 C 0.8428 0.35888 0.2571 0.0
C1496 C 0.84303 0.39926 0.23358 0.0
C1497 C 0.85318 0.43982 0.27172 0.0
C1498 C 0.85071 0.42218 0.26462 0.0
C1499 C 0.84771 0.37321 0.24087 0.0
C1500 C 0.84813 0.38977 0.24934 0.0
H1501 H 0.84288 0.46032 0.31701 0.0
H1502 H 0.84092 0.43163 0.30759 0.0
H1503 H 0.84039 0.42234 0.22848 0.0
H1504 H 0.85836 0.35643 0.19121 0.0
H1505 H 0.85688 0.38272 0.20389 0.0
C1506 C 0.46924 0.86344 0.20606 0.0
C1507 C 0.4815 0.86476 0.22394 0.0
C1508 C 0.45306 0.86218 0.213 0.0
C1509 C 0.43188 0.87212 0.26485 0.0
H1510 H 0.38805 0.84108 0.2301 0.0
C1511 C 0.36308 0.8637 0.29247 0.0
C1512 C 0.35319 0.86465 0.27271 0.0
C1513 C 0.37839 0.86245 0.28814 0.0
C1514 C 0.4002 0.84985 0.23994 0.0
H1515 H 0.48615 0.86536 0.26317 0.0
H1516 H 0.45806 0.86297 0.27506 0.0
H1517 H 0.41546 0.84148 0.21867 0.0
H1518 H 0.35163 0.86492 0.23293 0.0
H1519 H 0.37802 0.86282 0.22563 0.0
H1520 H 0.41661 0.88064 0.28592 0.0
C1521 C 0.46101 0.86324 0.25573 0.0
C1522 C 0.41591 0.85014 0.23332 0.0
C1523 C 0.4771 0.86451 0.24883 0.0
C1524 C 0.35887 0.86422 0.24868 0.0
C1525 C 0.37397 0.86285 0.24441 0.0
C1526 C 0.41614 0.87182 0.27149 0.0
C1527 C 0.44885 0.8622 0.23794 0.0
C1528 C 0.43199 0.86143 0.24548 0.0
C1529 C 0.38391 0.86192 0.26402 0.0
C1530 C 0.40019 0.86089 0.25885 0.0
H1531 H 0.47221 0.86362 0.18676 0.0
H1532 H 0.44403 0.86156 0.19882 0.0
H1533 H 0.44407 0.88112 0.27444 0.0
H1534 H 0.35905 0.86399 0.31117 0.0
H1535 H 0.38581 0.86171 0.30363 0.0
C1536 C 0.58814 0.48159 0.25632 0.0
C1537 C 0.59413 0.48613 0.23198 0.0
C1538 C 0.57337 0.46507 0.26196 0.0
C1539 C 0.53279 0.42782 0.23564 0.0
H1540 H 0.53396 0.40285 0.29409 0.0
C1541 C 0.47521 0.35783 0.25974 0.0
C1542 C 0.46933 0.35459 0.28424 0.0
C1543 C 0.49106 0.37318 0.25331 0.0
C1544 C 0.53337 0.40974 0.27786 0.0
H1545 H 0.58909 0.47678 0.19441 0.0
H1546 H 0.56308 0.44766 0.20433 0.0
H1547 H 0.56042 0.43078 0.28212 0.0
H1548 H 0.47584 0.36475 0.32133 0.0
H1549 H 0.50364 0.39183 0.31003 0.0
H1550 H 0.5057 0.4069 0.23149 0.0
C1551 C 0.56991 0.45708 0.219 0.0
C1552 C 0.54853 0.42572 0.27095 0.0
C1553 C 0.58481 0.47371 0.21332 0.0
C1554 C 0.48002 0.36685 0.30233 0.0
C1555 C 0.49595 0.38232 0.29584 0.0
C1556 C 0.51763 0.41185 0.24254 0.0
C1557 C 0.56412 0.45256 0.24345 0.0
C1558 C 0.54836 0.43502 0.24987 0.0
C1559 C 0.50147 0.38578 0.27117 0.0
C1560 C 0.51772 0.40266 0.2638 0.0
H1561 H 0.5949 0.49082 0.27122 0.0
H1562 H 0.56907 0.46218 0.28088 0.0
H1563 H 0.53213 0.43479 0.21952 0.0
H1564 H 0.46744 0.34858 0.24533 0.0
H1565 H 0.49512 0.37522 0.23425 0.0
C1566 C 0.09644 0.59881 0.21178 0.0
C1567 C 0.08298 0.60007 0.22445 0.0
C1568 C 0.10196 0.58698 0.21987 0.0
C1569 C 0.10303 0.56464 0.27689 0.0
H1570 H 0.11472 0.53613 0.23444 0.0
C1571 C 0.10961 0.50486 0.30998 0.0
C1572 C 0.12099 0.50066 0.29694 0.0
C1573 C 0.10794 0.51951 0.303 0.0
C1574 C 0.11186 0.54428 0.24655 0.0
H1575 H 0.06372 0.58887 0.25407 0.0
H1576 H 0.07303 0.56806 0.26771 0.0
H1577 H 0.10458 0.55529 0.21654 0.0
H1578 H 0.14115 0.50968 0.26844 0.0
H1579 H 0.13861 0.53547 0.25675 0.0
H1580 H 0.11007 0.55346 0.30692 0.0
C1581 C 0.07973 0.57656 0.25209 0.0
C1582 C 0.10596 0.55519 0.23626 0.0
C1583 C 0.07427 0.58836 0.2441 0.0
C1584 C 0.1321 0.51247 0.27864 0.0
C1585 C 0.13051 0.52714 0.27176 0.0
C1586 C 0.10896 0.55376 0.28718 0.0
C1587 C 0.09408 0.57622 0.24069 0.0
C1588 C 0.10119 0.56525 0.25133 0.0
C1589 C 0.11774 0.53027 0.28298 0.0
C1590 C 0.11322 0.54327 0.27216 0.0
H1591 H 0.10346 0.60775 0.19667 0.0
H1592 H 0.11303 0.58697 0.21065 0.0
H1593 H 0.09985 0.57256 0.28898 0.0
H1594 H 0.10083 0.49598 0.3241 0.0
H1595 H 0.09798 0.52155 0.31206 0.0
C1596 C 0.47584 0.88386 0.75778 0.0
C1597 C 0.47666 0.87489 0.77881 0.0
C1598 C 0.45987 0.88275 0.75078 0.0
C1599 C 0.41487 0.87107 0.77121 0.0
H1600 H 0.40287 0.85965 0.70255 0.0
C1601 C 0.34502 0.85022 0.73598 0.0
C1602 C 0.3436 0.85759 0.71372 0.0
C1603 C 0.36117 0.85182 0.74314 0.0
C1604 C 0.4061 0.86305 0.72168 0.0
H1605 H 0.46162 0.85865 0.80985 0.0
H1606 H 0.43351 0.85677 0.7976 0.0
H1607 H 0.4314 0.86455 0.71795 0.0
H1608 H 0.35773 0.87169 0.68092 0.0
H1609 H 0.38632 0.87481 0.69363 0.0
H1610 H 0.38969 0.86975 0.77496 0.0
C1611 C 0.44532 0.86463 0.78655 0.0
C1612 C 0.42243 0.86584 0.73052 0.0
C1613 C 0.4614 0.86573 0.7936 0.0
C1614 C 0.35847 0.86583 0.69811 0.0
C1615 C 0.37481 0.86762 0.70544 0.0
C1616 C 0.39858 0.86837 0.76234 0.0
C1617 C 0.4443 0.87266 0.76462 0.0
C1618 C 0.42698 0.86986 0.75539 0.0
C1619 C 0.37641 0.86103 0.72837 0.0
C1620 C 0.39394 0.86422 0.7375 0.0
H1621 H 0.48743 0.89124 0.74614 0.0
H1622 H 0.4596 0.88946 0.73414 0.0
H1623 H 0.4181 0.87435 0.79037 0.0
H1624 H 0.33368 0.84355 0.74823 0.0
H1625 H 0.36176 0.8461 0.76052 0.0
C1626 C 0.59108 0.47215 0.80031 0.0
C1627 C 0.60381 0.48319 0.78287 0.0
C1628 C 0.5762 0.45598 0.79317 0.0
C1629 C 0.54878 0.43417 0.73854 0.0
H1630 H 0.5285 0.39165 0.77912 0.0
C1631 C 0.48517 0.36787 0.71092 0.0
C1632 C 0.47253 0.35987 0.7298 0.0
C1633 C 0.50234 0.38208 0.7161 0.0
C1634 C 0.53399 0.40345 0.76761 0.0
H1635 H 0.61135 0.48545 0.74448 0.0
H1636 H 0.58569 0.45731 0.73225 0.0
H1637 H 0.55643 0.41796 0.79133 0.0
H1638 H 0.4681 0.36055 0.76893 0.0
H1639 H 0.49764 0.3851 0.7777 0.0
H1640 H 0.52617 0.41976 0.71507 0.0
C1641 C 0.58692 0.46128 0.75129 0.0
C1642 C 0.54995 0.41852 0.77465 0.0
C1643 C 0.6017 0.47739 0.75838 0.0
C1644 C 0.47745 0.36632 0.75386 0.0
C1645 C 0.4945 0.38034 0.759 0.0
C1646 C 0.53281 0.41909 0.7315 0.0
C1647 C 0.57382 0.45054 0.76847 0.0
C1648 C 0.5574 0.43414 0.76038 0.0
C1649 C 0.50717 0.38839 0.74026 0.0
C1650 C 0.52509 0.40368 0.74618 0.0
H1651 H 0.59231 0.47625 0.81929 0.0
H1652 H 0.56627 0.44805 0.80683 0.0
H1653 H 0.55404 0.44606 0.72727 0.0
H1654 H 0.48181 0.36321 0.69222 0.0
H1655 H 0.51188 0.38802 0.70128 0.0
C1656 C 0.11555 0.61744 0.77452 0.0
C1657 C 0.1039 0.61658 0.79312 0.0
C1658 C 0.11583 0.60214 0.76728 0.0
C1659 C 0.10021 0.55485 0.7832 0.0
H1660 H 0.09794 0.54868 0.71258 0.0
C1661 C 0.07616 0.48628 0.74095 0.0
C1662 C 0.08654 0.48513 0.72201 0.0
C1663 C 0.07879 0.50279 0.74848 0.0
C1664 C 0.09877 0.55028 0.7323 0.0
H1665 H 0.08442 0.59932 0.82001 0.0
H1666 H 0.08479 0.57247 0.80728 0.0
H1667 H 0.10322 0.57688 0.72996 0.0
H1668 H 0.10699 0.50027 0.69498 0.0
H1669 H 0.11161 0.52939 0.70819 0.0
H1670 H 0.09546 0.52814 0.78552 0.0
C1671 C 0.09379 0.58502 0.79834 0.0
C1672 C 0.10186 0.56646 0.7423 0.0
C1673 C 0.09359 0.60041 0.8057 0.0
C1674 C 0.09875 0.50077 0.70955 0.0
C1675 C 0.10144 0.51742 0.71719 0.0
C1676 C 0.09709 0.53868 0.7732 0.0
C1677 C 0.1044 0.58559 0.77839 0.0
C1678 C 0.10244 0.56886 0.76789 0.0
C1679 C 0.09191 0.51859 0.73734 0.0
C1680 C 0.09608 0.53613 0.74766 0.0
H1681 H 0.12381 0.62979 0.76465 0.0
H1682 H 0.1245 0.60313 0.75231 0.0
H1683 H 0.10085 0.55635 0.80294 0.0
H1684 H 0.06648 0.47442 0.75071 0.0
H1685 H 0.07087 0.50321 0.76356 0.0
C1686 C 0.58622 0.0987 0.70323 0.0
C1687 C 0.58848 0.08531 0.71427 0.0
C1688 C 0.57305 0.10221 0.71183 0.0
C1689 C 0.54741 0.09701 0.76842 0.0
H1690 H 0.5201 0.11086 0.72701 0.0
C1691 C 0.4857 0.10119 0.80031 0.0
C1692 C 0.48266 0.1139 0.78871 0.0
C1693 C 0.50047 0.0996 0.79367 0.0
C1694 C 0.52785 0.10731 0.73888 0.0
H1695 H 0.57783 0.06409 0.74138 0.0
H1696 H 0.55461 0.06984 0.75578 0.0
H1697 H 0.54066 0.10285 0.70836 0.0
H1698 H 0.49361 0.13624 0.76339 0.0
H1699 H 0.51957 0.13383 0.75242 0.0
H1700 H 0.53437 0.10124 0.79893 0.0
C1701 C 0.56333 0.07805 0.74114 0.0
C1702 C 0.53958 0.10265 0.72815 0.0
C1703 C 0.57651 0.07463 0.73269 0.0
C1704 C 0.49557 0.1262 0.77243 0.0
C1705 C 0.51032 0.1247 0.76595 0.0
C1706 C 0.53564 0.10163 0.77916 0.0
C1707 C 0.56189 0.09231 0.73148 0.0
C1708 C 0.54942 0.09734 0.74277 0.0
C1709 C 0.51241 0.11079 0.77548 0.0
C1710 C 0.5257 0.1068 0.76449 0.0
H1711 H 0.59534 0.10723 0.68913 0.0
H1712 H 0.57229 0.11331 0.70398 0.0
H1713 H 0.55508 0.09334 0.78026 0.0
H1714 H 0.47588 0.09146 0.81277 0.0
H1715 H 0.50174 0.08876 0.8014 0.0
C1716 C 0.36058 0.51044 0.80746 0.0
C1717 C 0.3451 0.50458 0.79327 0.0
C1718 C 0.37605 0.52661 0.80184 0.0
C1719 C 0.3971 0.55289 0.74729 0.0
H1720 H 0.43225 0.58746 0.79181 0.0
C1721 C 0.46397 0.61188 0.71242 0.0
C1722 C 0.4791 0.61668 0.72689 0.0
C1723 C 0.44693 0.59957 0.72119 0.0
C1724 C 0.42265 0.57781 0.77913 0.0
H1725 H 0.33303 0.51193 0.76406 0.0
H1726 H 0.3599 0.54006 0.75448 0.0
H1727 H 0.40348 0.56425 0.80775 0.0
H1728 H 0.48831 0.6119 0.76152 0.0
H1729 H 0.45889 0.59009 0.77631 0.0
H1730 H 0.41634 0.5658 0.71883 0.0
C1731 C 0.36024 0.53203 0.76949 0.0
C1732 C 0.40615 0.5646 0.7883 0.0
C1733 C 0.34485 0.51597 0.77508 0.0
C1734 C 0.4769 0.60863 0.74999 0.0
C1735 C 0.45997 0.59622 0.75861 0.0
C1736 C 0.41363 0.56594 0.73818 0.0
C1737 C 0.37621 0.53709 0.78201 0.0
C1738 C 0.39326 0.55195 0.77247 0.0
C1739 C 0.44472 0.59167 0.74449 0.0
C1740 C 0.4267 0.57846 0.754 0.0
H1741 H 0.36118 0.50194 0.82155 0.0
H1742 H 0.3882 0.53022 0.81182 0.0
H1743 H 0.38753 0.54311 0.7347 0.0
H1744 H 0.46525 0.61797 0.69462 0.0
H1745 H 0.43548 0.5965 0.70989 0.0
C1746 C 0.85455 0.36074 0.79295 0.0
C1747 C 0.84809 0.3461 0.77697 0.0
C1748 C 0.85468 0.37635 0.78574 0.0
C1749 C 0.85392 0.39997 0.72933 0.0
H1750 H 0.84568 0.42937 0.7749 0.0
C1751 C 0.84837 0.46212 0.70128 0.0
C1752 C 0.85695 0.47691 0.717 0.0
C1753 C 0.84743 0.44593 0.70745 0.0
C1754 C 0.84813 0.42134 0.76199 0.0
H1755 H 0.83565 0.33586 0.74165 0.0
H1756 H 0.83538 0.36269 0.72949 0.0
H1757 H 0.84279 0.4013 0.78897 0.0
H1758 H 0.87234 0.48669 0.75055 0.0
H1759 H 0.87078 0.45871 0.76104 0.0
H1760 H 0.85913 0.42005 0.70233 0.0
C1761 C 0.84093 0.36248 0.74717 0.0
C1762 C 0.84652 0.40528 0.77008 0.0
C1763 C 0.84097 0.34703 0.75425 0.0
C1764 C 0.86539 0.47549 0.73819 0.0
C1765 C 0.86442 0.45942 0.74432 0.0
C1766 C 0.85542 0.416 0.72121 0.0
C1767 C 0.84819 0.37751 0.76252 0.0
C1768 C 0.84949 0.39444 0.75389 0.0
C1769 C 0.85502 0.44433 0.72943 0.0
C1770 C 0.85271 0.42693 0.73753 0.0
H1771 H 0.86019 0.36042 0.81052 0.0
H1772 H 0.86047 0.38772 0.79798 0.0
H1773 H 0.85661 0.39211 0.71643 0.0
H1774 H 0.84172 0.46281 0.68486 0.0
H1775 H 0.84014 0.43448 0.69559 0.0
loop_
_geom_bond_atom_site_label_1
_geom_bond_atom_site_label_2
_geom_bond_distance
_geom_bond_site_symmetry_2
_ccdc_geom_bond_type
Zn0 O3 2.031 . S
Zn0 O5 2.049 . S
Zn0 O10 2.067 . S
Zn1 O2 1.962 . S
Zn1 O4 1.986 . S
Zn1 O6 1.996 . S
Zn1 O9 1.943 . S
O2 Zn1 1.962 . S
O2 C7 1.254 . S
O3 Zn0 2.031 . S
O3 C7 1.269 . S
O4 Zn1 1.986 . S
O4 C11 1.262 . S
O5 Zn0 2.049 . S
O5 C13 1.260 . S
O6 Zn1 1.996 . S
O6 C13 1.257 . S
C7 O2 1.254 . S
C7 O3 1.269 . S
C8 O9 1.249 . S
C8 O10 1.270 . S
O9 Zn1 1.943 . S
O9 C8 1.249 . S
O10 Zn0 2.067 . S
O10 C8 1.270 . S
C11 O4 1.262 . S
C11 O12 1.232 . S
O12 C11 1.232 . S
C13 O5 1.260 . S
C13 O6 1.257 . S
Zn14 O17 2.031 . S
Zn14 O19 2.049 . S
Zn14 O24 2.067 . S
Zn15 O16 1.962 . S
Zn15 O18 1.986 . S
Zn15 O20 1.996 . S
Zn15 O23 1.943 . S
O16 Zn15 1.962 . S
O16 C21 1.254 . S
O17 Zn14 2.031 . S
O17 C21 1.269 . S
O18 Zn15 1.986 . S
O18 C25 1.262 . S
O19 Zn14 2.049 . S
O19 C27 1.260 . S
O20 Zn15 1.996 . S
O20 C27 1.257 . S
C21 O16 1.254 . S
C21 O17 1.269 . S
C22 O23 1.249 . S
C22 O24 1.270 . S
O23 Zn15 1.943 . S
O23 C22 1.249 . S
O24 Zn14 2.067 . S
O24 C22 1.270 . S
C25 O18 1.262 . S
C25 O26 1.232 . S
O26 C25 1.232 . S
C27 O19 1.260 . S
C27 O20 1.257 . S
Zn28 O31 2.031 . S
Zn28 O33 2.049 . S
Zn28 O38 2.067 . S
Zn29 O30 1.962 . S
Zn29 O32 1.986 . S
Zn29 O34 1.996 . S
Zn29 O37 1.943 . S
O30 Zn29 1.962 . S
O30 C35 1.254 . S
O31 Zn28 2.031 . S
O31 C35 1.269 . S
O32 Zn29 1.986 . S
O32 C39 1.262 . S
O33 Zn28 2.049 . S
O33 C41 1.260 . S
O34 Zn29 1.996 . S
O34 C41 1.257 . S
C35 O30 1.254 . S
C35 O31 1.269 . S
C36 O37 1.249 . S
C36 O38 1.270 . S
O37 Zn29 1.943 . S
O37 C36 1.249 . S
O38 Zn28 2.067 . S
O38 C36 1.270 . S
C39 O32 1.262 . S
C39 O40 1.232 . S
O40 C39 1.232 . S
C41 O33 1.260 . S
C41 O34 1.257 . S
Zn42 O45 2.031 . S
Zn42 O47 2.049 . S
Zn42 O52 2.067 . S
Zn43 O44 1.962 . S
Zn43 O46 1.986 . S
Zn43 O48 1.996 . S
Zn43 O51 1.943 . S
O44 Zn43 1.962 . S
O44 C49 1.254 . S
O45 Zn42 2.031 . S
O45 C49 1.269 . S
O46 Zn43 1.986 . S
O46 C53 1.262 . S
O47 Zn42 2.049 . S
O47 C55 1.260 . S
O48 Zn43 1.996 . S
O48 C55 1.257 . S
C49 O44 1.254 . S
C49 O45 1.269 . S
C50 O51 1.249 . S
C50 O52 1.270 . S
O51 Zn43 1.943 . S
O51 C50 1.249 . S
O52 Zn42 2.067 . S
O52 C50 1.270 . S
C53 O46 1.262 . S
C53 O54 1.232 . S
O54 C53 1.232 . S
C55 O47 1.260 . S
C55 O48 1.257 . S
Zn56 O59 2.031 . S
Zn56 O61 2.049 . S
Zn56 O66 2.067 . S
Zn57 O58 1.962 . S
Zn57 O60 1.986 . S
Zn57 O62 1.996 . S
Zn57 O65 1.943 . S
O58 Zn57 1.962 . S
O58 C63 1.254 . S
O59 Zn56 2.031 . S
O59 C63 1.269 . S
O60 Zn57 1.986 . S
O60 C67 1.262 . S
O61 Zn56 2.049 . S
O61 C69 1.260 . S
O62 Zn57 1.996 . S
O62 C69 1.257 . S
C63 O58 1.254 . S
C63 O59 1.269 . S
C64 O65 1.249 . S
C64 O66 1.270 . S
O65 Zn57 1.943 . S
O65 C64 1.249 . S
O66 Zn56 2.067 . S
O66 C64 1.270 . S
C67 O60 1.262 . S
C67 O68 1.232 . S
O68 C67 1.232 . S
C69 O61 1.260 . S
C69 O62 1.257 . S
Zn70 O73 2.031 . S
Zn70 O75 2.049 . S
Zn70 O80 2.067 . S
Zn71 O72 1.962 . S
Zn71 O74 1.986 . S
Zn71 O76 1.996 . S
Zn71 O79 1.943 . S
O72 Zn71 1.962 . S
O72 C77 1.254 . S
O73 Zn70 2.031 . S
O73 C77 1.269 . S
O74 Zn71 1.986 . S
O74 C81 1.262 . S
O75 Zn70 2.049 . S
O75 C83 1.260 . S
O76 Zn71 1.996 . S
O76 C83 1.257 . S
C77 O72 1.254 . S
C77 O73 1.269 . S
C78 O79 1.249 . S
C78 O80 1.270 . S
O79 Zn71 1.943 . S
O79 C78 1.249 . S
O80 Zn70 2.067 . S
O80 C78 1.270 . S
C81 O74 1.262 . S
C81 O82 1.232 . S
O82 C81 1.232 . S
C83 O75 1.260 . S
C83 O76 1.257 . S
Zn84 O87 2.031 . S
Zn84 O89 2.049 . S
Zn84 O94 2.067 . S
Zn85 O86 1.962 . S
Zn85 O88 1.986 . S
Zn85 O90 1.996 . S
Zn85 O93 1.943 . S
O86 Zn85 1.962 . S
O86 C91 1.254 . S
O87 Zn84 2.031 . S
O87 C91 1.269 . S
O88 Zn85 1.986 . S
O88 C95 1.262 . S
O89 Zn84 2.049 . S
O89 C97 1.260 . S
O90 Zn85 1.996 . S
O90 C97 1.257 . S
C91 O86 1.254 . S
C91 O87 1.269 . S
C92 O93 1.249 . S
C92 O94 1.270 . S
O93 Zn85 1.943 . S
O93 C92 1.249 . S
O94 Zn84 2.067 . S
O94 C92 1.270 . S
C95 O88 1.262 . S
C95 O96 1.232 . S
O96 C95 1.232 . S
C97 O89 1.260 . S
C97 O90 1.257 . S
Zn98 O101 2.031 . S
Zn98 O103 2.049 . S
Zn98 O108 2.067 . S
Zn99 O100 1.962 . S
Zn99 O102 1.986 . S
Zn99 O104 1.996 . S
Zn99 O107 1.943 . S
O100 Zn99 1.962 . S
O100 C105 1.254 . S
O101 Zn98 2.031 . S
O101 C105 1.269 . S
O102 Zn99 1.986 . S
O102 C109 1.262 . S
O103 Zn98 2.049 . S
O103 C111 1.260 . S
O104 Zn99 1.996 . S
O104 C111 1.257 . S
C105 O100 1.254 . S
C105 O101 1.269 . S
C106 O107 1.249 . S
C106 O108 1.270 . S
O107 Zn99 1.943 . S
O107 C106 1.249 . S
O108 Zn98 2.067 . S
O108 C106 1.270 . S
C109 O102 1.262 . S
C109 O110 1.232 . S
O110 C109 1.232 . S
C111 O103 1.260 . S
C111 O104 1.257 . S
Zn112 O115 2.031 . S
Zn112 O117 2.049 . S
Zn112 O122 2.067 . S
Zn113 O114 1.962 . S
Zn113 O116 1.986 . S
Zn113 O118 1.996 . S
Zn113 O121 1.943 . S
O114 Zn113 1.962 . S
O114 C119 1.254 . S
O115 Zn112 2.031 . S
O115 C119 1.269 . S
O116 Zn113 1.986 . S
O116 C123 1.262 . S
O117 Zn112 2.049 . S
O117 C125 1.260 . S
O118 Zn113 1.996 . S
O118 C125 1.257 . S
C119 O114 1.254 . S
C119 O115 1.269 . S
C120 O121 1.249 . S
C120 O122 1.270 . S
O121 Zn113 1.943 . S
O121 C120 1.249 . S
O122 Zn112 2.067 . S
O122 C120 1.270 . S
C123 O116 1.262 . S
C123 O124 1.232 . S
O124 C123 1.232 . S
C125 O117 1.260 . S
C125 O118 1.257 . S
Zn126 O129 2.031 . S
Zn126 O131 2.049 . S
Zn126 O136 2.067 . S
Zn127 O128 1.962 . S
Zn127 O130 1.986 . S
Zn127 O132 1.996 . S
Zn127 O135 1.943 . S
O128 Zn127 1.962 . S
O128 C133 1.254 . S
O129 Zn126 2.031 . S
O129 C133 1.269 . S
O130 Zn127 1.986 . S
O130 C137 1.262 . S
O131 Zn126 2.049 . S
O131 C139 1.260 . S
O132 Zn127 1.996 . S
O132 C139 1.257 . S
C133 O128 1.254 . S
C133 O129 1.269 . S
C134 O135 1.249 . S
C134 O136 1.270 . S
O135 Zn127 1.943 . S
O135 C134 1.249 . S
O136 Zn126 2.067 . S
O136 C134 1.270 . S
C137 O130 1.262 . S
C137 O138 1.232 . S
O138 C137 1.232 . S
C139 O131 1.260 . S
C139 O132 1.257 . S
Zn140 O143 2.031 . S
Zn140 O145 2.049 . S
Zn140 O150 2.067 . S
Zn141 O142 1.962 . S
Zn141 O144 1.986 . S
Zn141 O146 1.996 . S
Zn141 O149 1.943 . S
O142 Zn141 1.962 . S
O142 C147 1.254 . S
O143 Zn140 2.031 . S
O143 C147 1.269 . S
O144 Zn141 1.986 . S
O144 C151 1.262 . S
O145 Zn140 2.049 . S
O145 C153 1.260 . S
O146 Zn141 1.996 . S
O146 C153 1.257 . S
C147 O142 1.254 . S
C147 O143 1.269 . S
C148 O149 1.249 . S
C148 O150 1.270 . S
O149 Zn141 1.943 . S
O149 C148 1.249 . S
O150 Zn140 2.067 . S
O150 C148 1.270 . S
C151 O144 1.262 . S
C151 O152 1.232 . S
O152 C151 1.232 . S
C153 O145 1.260 . S
C153 O146 1.257 . S
Zn154 O157 2.031 . S
Zn154 O159 2.049 . S
Zn154 O164 2.067 . S
Zn155 O156 1.962 . S
Zn155 O158 1.986 . S
Zn155 O160 1.996 . S
Zn155 O163 1.943 . S
O156 Zn155 1.962 . S
O156 C161 1.254 . S
O157 Zn154 2.031 . S
O157 C161 1.269 . S
O158 Zn155 1.986 . S
O158 C165 1.262 . S
O159 Zn154 2.049 . S
O159 C167 1.260 . S
O160 Zn155 1.996 . S
O160 C167 1.257 . S
C161 O156 1.254 . S
C161 O157 1.269 . S
C162 O163 1.249 . S
C162 O164 1.270 . S
O163 Zn155 1.943 . S
O163 C162 1.249 . S
O164 Zn154 2.067 . S
O164 C162 1.270 . S
C165 O158 1.262 . S
C165 O166 1.232 . S
O166 C165 1.232 . S
C167 O159 1.260 . S
C167 O160 1.257 . S
Zn168 O171 2.031 . S
Zn168 O173 2.049 . S
Zn168 O178 2.067 . S
Zn169 O170 1.962 . S
Zn169 O172 1.986 . S
Zn169 O174 1.996 . S
Zn169 O177 1.943 . S
O170 Zn169 1.962 . S
O170 C175 1.254 . S
O171 Zn168 2.031 . S
O171 C175 1.269 . S
O172 Zn169 1.986 . S
O172 C179 1.262 . S
O173 Zn168 2.049 . S
O173 C181 1.260 . S
O174 Zn169 1.996 . S
O174 C181 1.257 . S
C175 O170 1.254 . S
C175 O171 1.269 . S
C176 O177 1.249 . S
C176 O178 1.270 . S
O177 Zn169 1.943 . S
O177 C176 1.249 . S
O178 Zn168 2.067 . S
O178 C176 1.270 . S
C179 O172 1.262 . S
C179 O180 1.232 . S
O180 C179 1.232 . S
C181 O173 1.260 . S
C181 O174 1.257 . S
Zn182 O185 2.031 . S
Zn182 O187 2.049 . S
Zn182 O192 2.067 . S
Zn183 O184 1.962 . S
Zn183 O186 1.986 . S
Zn183 O188 1.996 . S
Zn183 O191 1.943 . S
O184 Zn183 1.962 . S
O184 C189 1.254 . S
O185 Zn182 2.031 . S
O185 C189 1.269 . S
O186 Zn183 1.986 . S
O186 C193 1.262 . S
O187 Zn182 2.049 . S
O187 C195 1.260 . S
O188 Zn183 1.996 . S
O188 C195 1.257 . S
C189 O184 1.254 . S
C189 O185 1.269 . S
C190 O191 1.249 . S
C190 O192 1.270 . S
O191 Zn183 1.943 . S
O191 C190 1.249 . S
O192 Zn182 2.067 . S
O192 C190 1.270 . S
C193 O186 1.262 . S
C193 O194 1.232 . S
O194 C193 1.232 . S
C195 O187 1.260 . S
C195 O188 1.257 . S
Zn196 O199 2.031 . S
Zn196 O201 2.049 . S
Zn196 O206 2.067 . S
Zn197 O198 1.962 . S
Zn197 O200 1.986 . S
Zn197 O202 1.996 . S
Zn197 O205 1.943 . S
O198 Zn197 1.962 . S
O198 C203 1.254 . S
O199 Zn196 2.031 . S
O199 C203 1.269 . S
O200 Zn197 1.986 . S
O200 C207 1.262 . S
O201 Zn196 2.049 . S
O201 C209 1.260 . S
O202 Zn197 1.996 . S
O202 C209 1.257 . S
C203 O198 1.254 . S
C203 O199 1.269 . S
C204 O205 1.249 . S
C204 O206 1.270 . S
O205 Zn197 1.943 . S
O205 C204 1.249 . S
O206 Zn196 2.067 . S
O206 C204 1.270 . S
C207 O200 1.262 . S
C207 O208 1.232 . S
O208 C207 1.232 . S
C209 O201 1.260 . S
C209 O202 1.257 . S
Zn210 O213 2.031 . S
Zn210 O215 2.049 . S
Zn210 O220 2.067 . S
Zn211 O212 1.962 . S
Zn211 O214 1.986 . S
Zn211 O216 1.996 . S
Zn211 O219 1.943 . S
O212 Zn211 1.962 . S
O212 C217 1.254 . S
O213 Zn210 2.031 . S
O213 C217 1.269 . S
O214 Zn211 1.986 . S
O214 C221 1.262 . S
O215 Zn210 2.049 . S
O215 C223 1.260 . S
O216 Zn211 1.996 . S
O216 C223 1.257 . S
C217 O212 1.254 . S
C217 O213 1.269 . S
C218 O219 1.249 . S
C218 O220 1.270 . S
O219 Zn211 1.943 . S
O219 C218 1.249 . S
O220 Zn210 2.067 . S
O220 C218 1.270 . S
C221 O214 1.262 . S
C221 O222 1.232 . S
O222 C221 1.232 . S
C223 O215 1.260 . S
C223 O216 1.257 . S
Zn224 O227 2.031 . S
Zn224 O229 2.049 . S
Zn224 O234 2.067 . S
Zn225 O226 1.962 . S
Zn225 O228 1.986 . S
Zn225 O230 1.996 . S
Zn225 O233 1.943 . S
O226 Zn225 1.962 . S
O226 C231 1.254 . S
O227 Zn224 2.031 . S
O227 C231 1.269 . S
O228 Zn225 1.986 . S
O228 C235 1.262 . S
O229 Zn224 2.049 . S
O229 C237 1.260 . S
O230 Zn225 1.996 . S
O230 C237 1.257 . S
C231 O226 1.254 . S
C231 O227 1.269 . S
C232 O233 1.249 . S
C232 O234 1.270 . S
O233 Zn225 1.943 . S
O233 C232 1.249 . S
O234 Zn224 2.067 . S
O234 C232 1.270 . S
C235 O228 1.262 . S
C235 O236 1.232 . S
O236 C235 1.232 . S
C237 O229 1.260 . S
C237 O230 1.257 . S
Zn238 O241 2.031 . S
Zn238 O243 2.049 . S
Zn238 O248 2.067 . S
Zn239 O240 1.962 . S
Zn239 O242 1.986 . S
Zn239 O244 1.996 . S
Zn239 O247 1.943 . S
O240 Zn239 1.962 . S
O240 C245 1.254 . S
O241 Zn238 2.031 . S
O241 C245 1.269 . S
O242 Zn239 1.986 . S
O242 C249 1.262 . S
O243 Zn238 2.049 . S
O243 C251 1.260 . S
O244 Zn239 1.996 . S
O244 C251 1.257 . S
C245 O240 1.254 . S
C245 O241 1.269 . S
C246 O247 1.249 . S
C246 O248 1.270 . S
O247 Zn239 1.943 . S
O247 C246 1.249 . S
O248 Zn238 2.067 . S
O248 C246 1.270 . S
C249 O242 1.262 . S
C249 O250 1.232 . S
O250 C249 1.232 . S
C251 O243 1.260 . S
C251 O244 1.257 . S
Zn252 O255 2.031 . S
Zn252 O257 2.049 . S
Zn252 O262 2.067 . S
Zn253 O254 1.962 . S
Zn253 O256 1.986 . S
Zn253 O258 1.996 . S
Zn253 O261 1.943 . S
O254 Zn253 1.962 . S
O254 C259 1.254 . S
O255 Zn252 2.031 . S
O255 C259 1.269 . S
O256 Zn253 1.986 . S
O256 C263 1.262 . S
O257 Zn252 2.049 . S
O257 C265 1.260 . S
O258 Zn253 1.996 . S
O258 C265 1.257 . S
C259 O254 1.254 . S
C259 O255 1.269 . S
C260 O261 1.249 . S
C260 O262 1.270 . S
O261 Zn253 1.943 . S
O261 C260 1.249 . S
O262 Zn252 2.067 . S
O262 C260 1.270 . S
C263 O256 1.262 . S
C263 O264 1.232 . S
O264 C263 1.232 . S
C265 O257 1.260 . S
C265 O258 1.257 . S
Zn266 O269 2.031 . S
Zn266 O271 2.049 . S
Zn266 O276 2.067 . S
Zn267 O268 1.962 . S
Zn267 O270 1.986 . S
Zn267 O272 1.996 . S
Zn267 O275 1.943 . S
O268 Zn267 1.962 . S
O268 C273 1.254 . S
O269 Zn266 2.031 . S
O269 C273 1.269 . S
O270 Zn267 1.986 . S
O270 C277 1.262 . S
O271 Zn266 2.049 . S
O271 C279 1.260 . S
O272 Zn267 1.996 . S
O272 C279 1.257 . S
C273 O268 1.254 . S
C273 O269 1.269 . S
C274 O275 1.249 . S
C274 O276 1.270 . S
O275 Zn267 1.943 . S
O275 C274 1.249 . S
O276 Zn266 2.067 . S
O276 C274 1.270 . S
C277 O270 1.262 . S
C277 O278 1.232 . S
O278 C277 1.232 . S
C279 O271 1.260 . S
C279 O272 1.257 . S
Zn280 O283 2.031 . S
Zn280 O285 2.049 . S
Zn280 O290 2.067 . S
Zn281 O282 1.962 . S
Zn281 O284 1.986 . S
Zn281 O286 1.996 . S
Zn281 O289 1.943 . S
O282 Zn281 1.962 . S
O282 C287 1.254 . S
O283 Zn280 2.031 . S
O283 C287 1.269 . S
O284 Zn281 1.986 . S
O284 C291 1.262 . S
O285 Zn280 2.049 . S
O285 C293 1.260 . S
O286 Zn281 1.996 . S
O286 C293 1.257 . S
C287 O282 1.254 . S
C287 O283 1.269 . S
C288 O289 1.249 . S
C288 O290 1.270 . S
O289 Zn281 1.943 . S
O289 C288 1.249 . S
O290 Zn280 2.067 . S
O290 C288 1.270 . S
C291 O284 1.262 . S
C291 O292 1.232 . S
O292 C291 1.232 . S
C293 O285 1.260 . S
C293 O286 1.257 . S
Zn294 O297 2.031 . S
Zn294 O299 2.049 . S
Zn294 O304 2.067 . S
Zn295 O296 1.962 . S
Zn295 O298 1.986 . S
Zn295 O300 1.996 . S
Zn295 O303 1.943 . S
O296 Zn295 1.962 . S
O296 C301 1.254 . S
O297 Zn294 2.031 . S
O297 C301 1.269 . S
O298 Zn295 1.986 . S
O298 C305 1.262 . S
O299 Zn294 2.049 . S
O299 C307 1.260 . S
O300 Zn295 1.996 . S
O300 C307 1.257 . S
C301 O296 1.254 . S
C301 O297 1.269 . S
C302 O303 1.249 . S
C302 O304 1.270 . S
O303 Zn295 1.943 . S
O303 C302 1.249 . S
O304 Zn294 2.067 . S
O304 C302 1.270 . S
C305 O298 1.262 . S
C305 O306 1.232 . S
O306 C305 1.232 . S
C307 O299 1.260 . S
C307 O300 1.257 . S
Zn308 O311 2.031 . S
Zn308 O313 2.049 . S
Zn308 O318 2.067 . S
Zn309 O310 1.962 . S
Zn309 O312 1.986 . S
Zn309 O314 1.996 . S
Zn309 O317 1.943 . S
O310 Zn309 1.962 . S
O310 C315 1.254 . S
O311 Zn308 2.031 . S
O311 C315 1.269 . S
O312 Zn309 1.986 . S
O312 C319 1.262 . S
O313 Zn308 2.049 . S
O313 C321 1.260 . S
O314 Zn309 1.996 . S
O314 C321 1.257 . S
C315 O310 1.254 . S
C315 O311 1.269 . S
C316 O317 1.249 . S
C316 O318 1.270 . S
O317 Zn309 1.943 . S
O317 C316 1.249 . S
O318 Zn308 2.067 . S
O318 C316 1.270 . S
C319 O312 1.262 . S
C319 O320 1.232 . S
O320 C319 1.232 . S
C321 O313 1.260 . S
C321 O314 1.257 . S
Zn322 O325 2.031 . S
Zn322 O327 2.049 . S
Zn322 O332 2.067 . S
Zn323 O324 1.962 . S
Zn323 O326 1.986 . S
Zn323 O328 1.996 . S
Zn323 O331 1.943 . S
O324 Zn323 1.962 . S
O324 C329 1.254 . S
O325 Zn322 2.031 . S
O325 C329 1.269 . S
O326 Zn323 1.986 . S
O326 C333 1.262 . S
O327 Zn322 2.049 . S
O327 C335 1.260 . S
O328 Zn323 1.996 . S
O328 C335 1.257 . S
C329 O324 1.254 . S
C329 O325 1.269 . S
C330 O331 1.249 . S
C330 O332 1.270 . S
O331 Zn323 1.943 . S
O331 C330 1.249 . S
O332 Zn322 2.067 . S
O332 C330 1.270 . S
C333 O326 1.262 . S
C333 O334 1.232 . S
O334 C333 1.232 . S
C335 O327 1.260 . S
C335 O328 1.257 . S
C336 C337 1.349 . S
C336 C338 1.327 . S
C336 H361 0.950 . S
C337 C336 1.349 . S
C337 C353 1.349 . S
C338 C336 1.327 . S
C338 C357 1.429 . S
C338 H362 0.950 . S
C339 C356 1.574 1_545 S
C339 C358 1.368 . S
C339 H363 0.949 . S
H340 C344 0.949 . S
C341 C342 1.349 . S
C341 C343 1.327 . S
C341 H364 0.950 . S
C342 C341 1.349 . S
C342 C354 1.349 . S
C343 C341 1.327 . S
C343 C359 1.429 . S
C343 H365 0.950 . S
C344 H340 0.949 . S
C344 C352 1.574 1_565 S
C344 C360 1.368 . S
H345 C353 0.950 . S
H346 C351 0.950 . S
H347 C352 0.949 . S
H348 C354 0.950 . S
H349 C355 0.950 . S
H350 C356 0.949 . S
C351 H346 0.950 . S
C351 C353 1.327 . S
C351 C357 1.429 . S
C352 C344 1.574 1_545 S
C352 H347 0.949 . S
C352 C358 1.368 . S
C353 C337 1.349 . S
C353 H345 0.950 . S
C353 C351 1.327 . S
C354 C342 1.349 . S
C354 H348 0.950 . S
C354 C355 1.327 . S
C355 H349 0.950 . S
C355 C354 1.327 . S
C355 C359 1.429 . S
C356 C339 1.574 1_565 S
C356 H350 0.949 . S
C356 C360 1.368 . S
C357 C338 1.429 . S
C357 C351 1.429 . S
C357 C358 1.523 . S
C358 C339 1.368 . S
C358 C352 1.368 . S
C358 C357 1.523 . S
C359 C343 1.429 . S
C359 C355 1.429 . S
C359 C360 1.523 . S
C360 C344 1.368 . S
C360 C356 1.368 . S
C360 C359 1.523 . S
H361 C336 0.950 . S
H362 C338 0.950 . S
H363 C339 0.949 . S
H364 C341 0.950 . S
H365 C343 0.950 . S
C366 C367 1.349 . S
C366 C368 1.327 . S
C366 H391 0.950 . S
C367 C366 1.349 . S
C367 C383 1.349 . S
C368 C366 1.327 . S
C368 C387 1.429 . S
C368 H392 0.950 . S
C369 C386 1.574 . S
C369 C388 1.368 . S
C369 H393 0.949 . S
H370 C374 0.949 . S
C371 C372 1.349 . S
C371 C373 1.327 . S
C371 H394 0.950 . S
C372 C371 1.349 . S
C372 C384 1.349 . S
C373 C371 1.327 . S
C373 C389 1.429 . S
C373 H395 0.950 . S
C374 H370 0.949 . S
C374 C382 1.574 . S
C374 C390 1.368 . S
H375 C383 0.950 . S
H376 C381 0.950 . S
H377 C382 0.949 . S
H378 C384 0.950 . S
H379 C385 0.950 . S
H380 C386 0.949 . S
C381 H376 0.950 . S
C381 C383 1.327 . S
C381 C387 1.429 . S
C382 C374 1.574 . S
C382 H377 0.949 . S
C382 C388 1.368 . S
C383 C367 1.349 . S
C383 H375 0.950 . S
C383 C381 1.327 . S
C384 C372 1.349 . S
C384 H378 0.950 . S
C384 C385 1.327 . S
C385 H379 0.950 . S
C385 C384 1.327 . S
C385 C389 1.429 . S
C386 C369 1.574 . S
C386 H380 0.949 . S
C386 C390 1.368 . S
C387 C368 1.429 . S
C387 C381 1.429 . S
C387 C388 1.523 . S
C388 C369 1.368 . S
C388 C382 1.368 . S
C388 C387 1.523 . S
C389 C373 1.429 . S
C389 C385 1.429 . S
C389 C390 1.523 . S
C390 C374 1.368 . S
C390 C386 1.368 . S
C390 C389 1.523 . S
H391 C366 0.950 . S
H392 C368 0.950 . S
H393 C369 0.949 . S
H394 C371 0.950 . S
H395 C373 0.950 . S
C396 C397 1.349 . S
C396 C398 1.327 . S
C396 H421 0.950 . S
C397 C396 1.349 . S
C397 C413 1.349 . S
C398 C396 1.327 . S
C398 C417 1.429 . S
C398 H422 0.950 . S
C399 C416 1.574 1_655 S
C399 C418 1.368 . S
C399 H423 0.949 . S
H400 C404 0.949 . S
C401 C402 1.349 . S
C401 C403 1.327 . S
C401 H424 0.950 . S
C402 C401 1.349 . S
C402 C414 1.349 . S
C403 C401 1.327 . S
C403 C419 1.429 . S
C403 H425 0.950 . S
C404 H400 0.949 . S
C404 C412 1.574 1_455 S
C404 C420 1.368 . S
H405 C413 0.950 . S
H406 C411 0.950 . S
H407 C412 0.949 . S
H408 C414 0.950 . S
H409 C415 0.950 . S
H410 C416 0.949 . S
C411 H406 0.950 . S
C411 C413 1.327 . S
C411 C417 1.429 . S
C412 C404 1.574 1_655 S
C412 H407 0.949 . S
C412 C418 1.368 . S
C413 C397 1.349 . S
C413 H405 0.950 . S
C413 C411 1.327 . S
C414 C402 1.349 . S
C414 H408 0.950 . S
C414 C415 1.327 . S
C415 H409 0.950 . S
C415 C414 1.327 . S
C415 C419 1.429 . S
C416 C399 1.574 1_455 S
C416 H410 0.949 . S
C416 C420 1.368 . S
C417 C398 1.429 . S
C417 C411 1.429 . S
C417 C418 1.523 . S
C418 C399 1.368 . S
C418 C412 1.368 . S
C418 C417 1.523 . S
C419 C403 1.429 . S
C419 C415 1.429 . S
C419 C420 1.523 . S
C420 C404 1.368 . S
C420 C416 1.368 . S
C420 C419 1.523 . S
H421 C396 0.950 . S
H422 C398 0.950 . S
H423 C399 0.949 . S
H424 C401 0.950 . S
H425 C403 0.950 . S
C426 C427 1.349 . S
C426 C428 1.327 . S
C426 H451 0.950 . S
C427 C426 1.349 . S
C427 C443 1.349 . S
C428 C426 1.327 . S
C428 C447 1.429 . S
C428 H452 0.950 . S
C429 C446 1.574 1_565 S
C429 C448 1.368 . S
C429 H453 0.949 . S
H430 C434 0.949 . S
C431 C432 1.349 . S
C431 C433 1.327 . S
C431 H454 0.950 . S
C432 C431 1.349 . S
C432 C444 1.349 . S
C433 C431 1.327 . S
C433 C449 1.429 . S
C433 H455 0.950 . S
C434 H430 0.949 . S
C434 C442 1.574 1_545 S
C434 C450 1.368 . S
H435 C443 0.950 . S
H436 C441 0.950 . S
H437 C442 0.949 . S
H438 C444 0.950 . S
H439 C445 0.950 . S
H440 C446 0.949 . S
C441 H436 0.950 . S
C441 C443 1.327 . S
C441 C447 1.429 . S
C442 C434 1.574 1_565 S
C442 H437 0.949 . S
C442 C448 1.368 . S
C443 C427 1.349 . S
C443 H435 0.950 . S
C443 C441 1.327 . S
C444 C432 1.349 . S
C444 H438 0.950 . S
C444 C445 1.327 . S
C445 H439 0.950 . S
C445 C444 1.327 . S
C445 C449 1.429 . S
C446 C429 1.574 1_545 S
C446 H440 0.949 . S
C446 C450 1.368 . S
C447 C428 1.429 . S
C447 C441 1.429 . S
C447 C448 1.523 . S
C448 C429 1.368 . S
C448 C442 1.368 . S
C448 C447 1.523 . S
C449 C433 1.429 . S
C449 C445 1.429 . S
C449 C450 1.523 . S
C450 C434 1.368 . S
C450 C446 1.368 . S
C450 C449 1.523 . S
H451 C426 0.950 . S
H452 C428 0.950 . S
H453 C429 0.949 . S
H454 C431 0.950 . S
H455 C433 0.950 . S
C456 C457 1.349 . S
C456 C458 1.327 . S
C456 H481 0.950 . S
C457 C456 1.349 . S
C457 C473 1.349 . S
C458 C456 1.327 . S
C458 C477 1.429 . S
C458 H482 0.950 . S
C459 C476 1.574 . S
C459 C478 1.368 . S
C459 H483 0.949 . S
H460 C464 0.949 . S
C461 C462 1.349 . S
C461 C463 1.327 . S
C461 H484 0.950 . S
C462 C461 1.349 . S
C462 C474 1.349 . S
C463 C461 1.327 . S
C463 C479 1.429 . S
C463 H485 0.950 . S
C464 H460 0.949 . S
C464 C472 1.574 . S
C464 C480 1.368 . S
H465 C473 0.950 . S
H466 C471 0.950 . S
H467 C472 0.949 . S
H468 C474 0.950 . S
H469 C475 0.950 . S
H470 C476 0.949 . S
C471 H466 0.950 . S
C471 C473 1.327 . S
C471 C477 1.429 . S
C472 C464 1.574 . S
C472 H467 0.949 . S
C472 C478 1.368 . S
C473 C457 1.349 . S
C473 H465 0.950 . S
C473 C471 1.327 . S
C474 C462 1.349 . S
C474 H468 0.950 . S
C474 C475 1.327 . S
C475 H469 0.950 . S
C475 C474 1.327 . S
C475 C479 1.429 . S
C476 C459 1.574 . S
C476 H470 0.949 . S
C476 C480 1.368 . S
C477 C458 1.429 . S
C477 C471 1.429 . S
C477 C478 1.523 . S
C478 C459 1.368 . S
C478 C472 1.368 . S
C478 C477 1.523 . S
C479 C463 1.429 . S
C479 C475 1.429 . S
C479 C480 1.523 . S
C480 C464 1.368 . S
C480 C476 1.368 . S
C480 C479 1.523 . S
H481 C456 0.950 . S
H482 C458 0.950 . S
H483 C459 0.949 . S
H484 C461 0.950 . S
H485 C463 0.950 . S
C486 C487 1.349 . S
C486 C488 1.327 . S
C486 H511 0.950 . S
C487 C486 1.349 . S
C487 C503 1.349 . S
C488 C486 1.327 . S
C488 C507 1.429 . S
C488 H512 0.950 . S
C489 C506 1.574 1_455 S
C489 C508 1.368 . S
C489 H513 0.949 . S
H490 C494 0.949 . S
C491 C492 1.349 . S
C491 C493 1.327 . S
C491 H514 0.950 . S
C492 C491 1.349 . S
C492 C504 1.349 . S
C493 C491 1.327 . S
C493 C509 1.429 . S
C493 H515 0.950 . S
C494 H490 0.949 . S
C494 C502 1.574 1_655 S
C494 C510 1.368 . S
H495 C503 0.950 . S
H496 C501 0.950 . S
H497 C502 0.949 . S
H498 C504 0.950 . S
H499 C505 0.950 . S
H500 C506 0.949 . S
C501 H496 0.950 . S
C501 C503 1.327 . S
C501 C507 1.429 . S
C502 C494 1.574 1_455 S
C502 H497 0.949 . S
C502 C508 1.368 . S
C503 C487 1.349 . S
C503 H495 0.950 . S
C503 C501 1.327 . S
C504 C492 1.349 . S
C504 H498 0.950 . S
C504 C505 1.327 . S
C505 H499 0.950 . S
C505 C504 1.327 . S
C505 C509 1.429 . S
C506 C489 1.574 1_655 S
C506 H500 0.949 . S
C506 C510 1.368 . S
C507 C488 1.429 . S
C507 C501 1.429 . S
C507 C508 1.523 . S
C508 C489 1.368 . S
C508 C502 1.368 . S
C508 C507 1.523 . S
C509 C493 1.429 . S
C509 C505 1.429 . S
C509 C510 1.523 . S
C510 C494 1.368 . S
C510 C506 1.368 . S
C510 C509 1.523 . S
H511 C486 0.950 . S
H512 C488 0.950 . S
H513 C489 0.949 . S
H514 C491 0.950 . S
H515 C493 0.950 . S
C516 C517 1.349 . S
C516 C518 1.327 . S
C516 H541 0.950 . S
C517 C516 1.349 . S
C517 C533 1.349 . S
C518 C516 1.327 . S
C518 C537 1.429 . S
C518 H542 0.950 . S
C519 C536 1.574 1_565 S
C519 C538 1.368 . S
C519 H543 0.949 . S
H520 C524 0.949 . S
C521 C522 1.349 . S
C521 C523 1.327 . S
C521 H544 0.950 . S
C522 C521 1.349 . S
C522 C534 1.349 . S
C523 C521 1.327 . S
C523 C539 1.429 . S
C523 H545 0.950 . S
C524 H520 0.949 . S
C524 C532 1.574 1_545 S
C524 C540 1.368 . S
H525 C533 0.950 . S
H526 C531 0.950 . S
H527 C532 0.949 . S
H528 C534 0.950 . S
H529 C535 0.950 . S
H530 C536 0.949 . S
C531 H526 0.950 . S
C531 C533 1.327 . S
C531 C537 1.429 . S
C532 C524 1.574 1_565 S
C532 H527 0.949 . S
C532 C538 1.368 . S
C533 C517 1.349 . S
C533 H525 0.950 . S
C533 C531 1.327 . S
C534 C522 1.349 . S
C534 H528 0.950 . S
C534 C535 1.327 . S
C535 H529 0.950 . S
C535 C534 1.327 . S
C535 C539 1.429 . S
C536 C519 1.574 1_545 S
C536 H530 0.949 . S
C536 C540 1.368 . S
C537 C518 1.429 . S
C537 C531 1.429 . S
C537 C538 1.523 . S
C538 C519 1.368 . S
C538 C532 1.368 . S
C538 C537 1.523 . S
C539 C523 1.429 . S
C539 C535 1.429 . S
C539 C540 1.523 . S
C540 C524 1.368 . S
C540 C536 1.368 . S
C540 C539 1.523 . S
H541 C516 0.950 . S
H542 C518 0.950 . S
H543 C519 0.949 . S
H544 C521 0.950 . S
H545 C523 0.950 . S
C546 C547 1.349 . S
C546 C548 1.327 . S
C546 H571 0.950 . S
C547 C546 1.349 . S
C547 C563 1.349 . S
C548 C546 1.327 . S
C548 C567 1.429 . S
C548 H572 0.950 . S
C549 C566 1.574 . S
C549 C568 1.368 . S
C549 H573 0.949 . S
H550 C554 0.949 . S
C551 C552 1.349 . S
C551 C553 1.327 . S
C551 H574 0.950 . S
C552 C551 1.349 . S
C552 C564 1.349 . S
C553 C551 1.327 . S
C553 C569 1.429 . S
C553 H575 0.950 . S
C554 H550 0.949 . S
C554 C562 1.574 . S
C554 C570 1.368 . S
H555 C563 0.950 . S
H556 C561 0.950 . S
H557 C562 0.949 . S
H558 C564 0.950 . S
H559 C565 0.950 . S
H560 C566 0.949 . S
C561 H556 0.950 . S
C561 C563 1.327 . S
C561 C567 1.429 . S
C562 C554 1.574 . S
C562 H557 0.949 . S
C562 C568 1.368 . S
C563 C547 1.349 . S
C563 H555 0.950 . S
C563 C561 1.327 . S
C564 C552 1.349 . S
C564 H558 0.950 . S
C564 C565 1.327 . S
C565 H559 0.950 . S
C565 C564 1.327 . S
C565 C569 1.429 . S
C566 C549 1.574 . S
C566 H560 0.949 . S
C566 C570 1.368 . S
C567 C548 1.429 . S
C567 C561 1.429 . S
C567 C568 1.523 . S
C568 C549 1.368 . S
C568 C562 1.368 . S
C568 C567 1.523 . S
C569 C553 1.429 . S
C569 C565 1.429 . S
C569 C570 1.523 . S
C570 C554 1.368 . S
C570 C566 1.368 . S
C570 C569 1.523 . S
H571 C546 0.950 . S
H572 C548 0.950 . S
H573 C549 0.949 . S
H574 C551 0.950 . S
H575 C553 0.950 . S
C576 C577 1.349 . S
C576 C578 1.327 . S
C576 H601 0.950 . S
C577 C576 1.349 . S
C577 C593 1.349 . S
C578 C576 1.327 . S
C578 C597 1.429 . S
C578 H602 0.950 . S
C579 C596 1.574 1_655 S
C579 C598 1.368 . S
C579 H603 0.949 . S
H580 C584 0.949 . S
C581 C582 1.349 . S
C581 C583 1.327 . S
C581 H604 0.950 . S
C582 C581 1.349 . S
C582 C594 1.349 . S
C583 C581 1.327 . S
C583 C599 1.429 . S
C583 H605 0.950 . S
C584 H580 0.949 . S
C584 C592 1.574 1_455 S
C584 C600 1.368 . S
H585 C593 0.950 . S
H586 C591 0.950 . S
H587 C592 0.949 . S
H588 C594 0.950 . S
H589 C595 0.950 . S
H590 C596 0.949 . S
C591 H586 0.950 . S
C591 C593 1.327 . S
C591 C597 1.429 . S
C592 C584 1.574 1_655 S
C592 H587 0.949 . S
C592 C598 1.368 . S
C593 C577 1.349 . S
C593 H585 0.950 . S
C593 C591 1.327 . S
C594 C582 1.349 . S
C594 H588 0.950 . S
C594 C595 1.327 . S
C595 H589 0.950 . S
C595 C594 1.327 . S
C595 C599 1.429 . S
C596 C579 1.574 1_455 S
C596 H590 0.949 . S
C596 C600 1.368 . S
C597 C578 1.429 . S
C597 C591 1.429 . S
C597 C598 1.523 . S
C598 C579 1.368 . S
C598 C592 1.368 . S
C598 C597 1.523 . S
C599 C583 1.429 . S
C599 C595 1.429 . S
C599 C600 1.523 . S
C600 C584 1.368 . S
C600 C596 1.368 . S
C600 C599 1.523 . S
H601 C576 0.950 . S
H602 C578 0.950 . S
H603 C579 0.949 . S
H604 C581 0.950 . S
H605 C583 0.950 . S
C606 C607 1.349 . S
C606 C608 1.327 . S
C606 H631 0.950 . S
C607 C606 1.349 . S
C607 C623 1.349 . S
C608 C606 1.327 . S
C608 C627 1.429 . S
C608 H632 0.950 . S
C609 C626 1.574 1_545 S
C609 C628 1.368 . S
C609 H633 0.949 . S
H610 C614 0.949 . S
C611 C612 1.349 . S
C611 C613 1.327 . S
C611 H634 0.950 . S
C612 C611 1.349 . S
C612 C624 1.349 . S
C613 C611 1.327 . S
C613 C629 1.429 . S
C613 H635 0.950 . S
C614 H610 0.949 . S
C614 C622 1.574 1_565 S
C614 C630 1.368 . S
H615 C623 0.950 . S
H616 C621 0.950 . S
H617 C622 0.949 . S
H618 C624 0.950 . S
H619 C625 0.950 . S
H620 C626 0.949 . S
C621 H616 0.950 . S
C621 C623 1.327 . S
C621 C627 1.429 . S
C622 C614 1.574 1_545 S
C622 H617 0.949 . S
C622 C628 1.368 . S
C623 C607 1.349 . S
C623 H615 0.950 . S
C623 C621 1.327 . S
C624 C612 1.349 . S
C624 H618 0.950 . S
C624 C625 1.327 . S
C625 H619 0.950 . S
C625 C624 1.327 . S
C625 C629 1.429 . S
C626 C609 1.574 1_565 S
C626 H620 0.949 . S
C626 C630 1.368 . S
C627 C608 1.429 . S
C627 C621 1.429 . S
C627 C628 1.523 . S
C628 C609 1.368 . S
C628 C622 1.368 . S
C628 C627 1.523 . S
C629 C613 1.429 . S
C629 C625 1.429 . S
C629 C630 1.523 . S
C630 C614 1.368 . S
C630 C626 1.368 . S
C630 C629 1.523 . S
H631 C606 0.950 . S
H632 C608 0.950 . S
H633 C609 0.949 . S
H634 C611 0.950 . S
H635 C613 0.950 . S
C636 C637 1.349 . S
C636 C638 1.327 . S
C636 H661 0.950 . S
C637 C636 1.349 . S
C637 C653 1.349 . S
C638 C636 1.327 . S
C638 C657 1.429 . S
C638 H662 0.950 . S
C639 C656 1.574 . S
C639 C658 1.368 . S
C639 H663 0.949 . S
H640 C644 0.949 . S
C641 C642 1.349 . S
C641 C643 1.327 . S
C641 H664 0.950 . S
C642 C641 1.349 . S
C642 C654 1.349 . S
C643 C641 1.327 . S
C643 C659 1.429 . S
C643 H665 0.950 . S
C644 H640 0.949 . S
C644 C652 1.574 . S
C644 C660 1.368 . S
H645 C653 0.950 . S
H646 C651 0.950 . S
H647 C652 0.949 . S
H648 C654 0.950 . S
H649 C655 0.950 . S
H650 C656 0.949 . S
C651 H646 0.950 . S
C651 C653 1.327 . S
C651 C657 1.429 . S
C652 C644 1.574 . S
C652 H647 0.949 . S
C652 C658 1.368 . S
C653 C637 1.349 . S
C653 H645 0.950 . S
C653 C651 1.327 . S
C654 C642 1.349 . S
C654 H648 0.950 . S
C654 C655 1.327 . S
C655 H649 0.950 . S
C655 C654 1.327 . S
C655 C659 1.429 . S
C656 C639 1.574 . S
C656 H650 0.949 . S
C656 C660 1.368 . S
C657 C638 1.429 . S
C657 C651 1.429 . S
C657 C658 1.523 . S
C658 C639 1.368 . S
C658 C652 1.368 . S
C658 C657 1.523 . S
C659 C643 1.429 . S
C659 C655 1.429 . S
C659 C660 1.523 . S
C660 C644 1.368 . S
C660 C656 1.368 . S
C660 C659 1.523 . S
H661 C636 0.950 . S
H662 C638 0.950 . S
H663 C639 0.949 . S
H664 C641 0.950 . S
H665 C643 0.950 . S
C666 C667 1.349 . S
C666 C668 1.327 . S
C666 H691 0.950 . S
C667 C666 1.349 . S
C667 C683 1.349 . S
C668 C666 1.327 . S
C668 C687 1.429 . S
C668 H692 0.950 . S
C669 C686 1.574 1_455 S
C669 C688 1.368 . S
C669 H693 0.949 . S
H670 C674 0.949 . S
C671 C672 1.349 . S
C671 C673 1.327 . S
C671 H694 0.950 . S
C672 C671 1.349 . S
C672 C684 1.349 . S
C673 C671 1.327 . S
C673 C689 1.429 . S
C673 H695 0.950 . S
C674 H670 0.949 . S
C674 C682 1.574 1_655 S
C674 C690 1.368 . S
H675 C683 0.950 . S
H676 C681 0.950 . S
H677 C682 0.949 . S
H678 C684 0.950 . S
H679 C685 0.950 . S
H680 C686 0.949 . S
C681 H676 0.950 . S
C681 C683 1.327 . S
C681 C687 1.429 . S
C682 C674 1.574 1_455 S
C682 H677 0.949 . S
C682 C688 1.368 . S
C683 C667 1.349 . S
C683 H675 0.950 . S
C683 C681 1.327 . S
C684 C672 1.349 . S
C684 H678 0.950 . S
C684 C685 1.327 . S
C685 H679 0.950 . S
C685 C684 1.327 . S
C685 C689 1.429 . S
C686 C669 1.574 1_655 S
C686 H680 0.949 . S
C686 C690 1.368 . S
C687 C668 1.429 . S
C687 C681 1.429 . S
C687 C688 1.523 . S
C688 C669 1.368 . S
C688 C682 1.368 . S
C688 C687 1.523 . S
C689 C673 1.429 . S
C689 C685 1.429 . S
C689 C690 1.523 . S
C690 C674 1.368 . S
C690 C686 1.368 . S
C690 C689 1.523 . S
H691 C666 0.950 . S
H692 C668 0.950 . S
H693 C669 0.949 . S
H694 C671 0.950 . S
H695 C673 0.950 . S
C696 C697 1.349 . S
C696 C698 1.327 . S
C696 H721 0.950 . S
C697 C696 1.349 . S
C697 C713 1.349 . S
C698 C696 1.327 . S
C698 C717 1.429 . S
C698 H722 0.950 . S
C699 C716 1.574 . S
C699 C718 1.368 . S
C699 H723 0.949 . S
H700 C704 0.949 . S
C701 C702 1.349 . S
C701 C703 1.327 . S
C701 H724 0.950 . S
C702 C701 1.349 . S
C702 C714 1.349 . S
C703 C701 1.327 . S
C703 C719 1.429 . S
C703 H725 0.950 . S
C704 H700 0.949 . S
C704 C712 1.574 . S
C704 C720 1.368 . S
H705 C713 0.950 . S
H706 C711 0.950 . S
H707 C712 0.949 . S
H708 C714 0.950 . S
H709 C715 0.950 . S
H710 C716 0.949 . S
C711 H706 0.950 . S
C711 C713 1.327 . S
C711 C717 1.429 . S
C712 C704 1.574 . S
C712 H707 0.949 . S
C712 C718 1.368 . S
C713 C697 1.349 . S
C713 H705 0.950 . S
C713 C711 1.327 . S
C714 C702 1.349 . S
C714 H708 0.950 . S
C714 C715 1.327 . S
C715 H709 0.950 . S
C715 C714 1.327 . S
C715 C719 1.429 . S
C716 C699 1.574 . S
C716 H710 0.949 . S
C716 C720 1.368 . S
C717 C698 1.429 . S
C717 C711 1.429 . S
C717 C718 1.523 . S
C718 C699 1.368 . S
C718 C712 1.368 . S
C718 C717 1.523 . S
C719 C703 1.429 . S
C719 C715 1.429 . S
C719 C720 1.523 . S
C720 C704 1.368 . S
C720 C716 1.368 . S
C720 C719 1.523 . S
H721 C696 0.950 . S
H722 C698 0.950 . S
H723 C699 0.949 . S
H724 C701 0.950 . S
H725 C703 0.950 . S
C726 C727 1.349 . S
C726 C728 1.327 . S
C726 H751 0.950 . S
C727 C726 1.349 . S
C727 C743 1.349 . S
C728 C726 1.327 . S
C728 C747 1.429 . S
C728 H752 0.950 . S
C729 C746 1.574 . S
C729 C748 1.368 . S
C729 H753 0.949 . S
H730 C734 0.949 . S
C731 C732 1.349 . S
C731 C733 1.327 . S
C731 H754 0.950 . S
C732 C731 1.349 . S
C732 C744 1.349 . S
C733 C731 1.327 . S
C733 C749 1.429 . S
C733 H755 0.950 . S
C734 H730 0.949 . S
C734 C742 1.574 . S
C734 C750 1.368 . S
H735 C743 0.950 . S
H736 C741 0.950 . S
H737 C742 0.949 . S
H738 C744 0.950 . S
H739 C745 0.950 . S
H740 C746 0.949 . S
C741 H736 0.950 . S
C741 C743 1.327 . S
C741 C747 1.429 . S
C742 C734 1.574 . S
C742 H737 0.949 . S
C742 C748 1.368 . S
C743 C727 1.349 . S
C743 H735 0.950 . S
C743 C741 1.327 . S
C744 C732 1.349 . S
C744 H738 0.950 . S
C744 C745 1.327 . S
C745 H739 0.950 . S
C745 C744 1.327 . S
C745 C749 1.429 . S
C746 C729 1.574 . S
C746 H740 0.949 . S
C746 C750 1.368 . S
C747 C728 1.429 . S
C747 C741 1.429 . S
C747 C748 1.523 . S
C748 C729 1.368 . S
C748 C742 1.368 . S
C748 C747 1.523 . S
C749 C733 1.429 . S
C749 C745 1.429 . S
C749 C750 1.523 . S
C750 C734 1.368 . S
C750 C746 1.368 . S
C750 C749 1.523 . S
H751 C726 0.950 . S
H752 C728 0.950 . S
H753 C729 0.949 . S
H754 C731 0.950 . S
H755 C733 0.950 . S
C756 C757 1.349 . S
C756 C758 1.327 . S
C756 H781 0.950 . S
C757 C756 1.349 . S
C757 C773 1.349 . S
C758 C756 1.327 . S
C758 C777 1.429 . S
C758 H782 0.950 . S
C759 C776 1.574 . S
C759 C778 1.368 . S
C759 H783 0.949 . S
H760 C764 0.949 . S
C761 C762 1.349 . S
C761 C763 1.327 . S
C761 H784 0.950 . S
C762 C761 1.349 . S
C762 C774 1.349 . S
C763 C761 1.327 . S
C763 C779 1.429 . S
C763 H785 0.950 . S
C764 H760 0.949 . S
C764 C772 1.574 . S
C764 C780 1.368 . S
H765 C773 0.950 . S
H766 C771 0.950 . S
H767 C772 0.949 . S
H768 C774 0.950 . S
H769 C775 0.950 . S
H770 C776 0.949 . S
C771 H766 0.950 . S
C771 C773 1.327 . S
C771 C777 1.429 . S
C772 C764 1.574 . S
C772 H767 0.949 . S
C772 C778 1.368 . S
C773 C757 1.349 . S
C773 H765 0.950 . S
C773 C771 1.327 . S
C774 C762 1.349 . S
C774 H768 0.950 . S
C774 C775 1.327 . S
C775 H769 0.950 . S
C775 C774 1.327 . S
C775 C779 1.429 . S
C776 C759 1.574 . S
C776 H770 0.949 . S
C776 C780 1.368 . S
C777 C758 1.429 . S
C777 C771 1.429 . S
C777 C778 1.523 . S
C778 C759 1.368 . S
C778 C772 1.368 . S
C778 C777 1.523 . S
C779 C763 1.429 . S
C779 C775 1.429 . S
C779 C780 1.523 . S
C780 C764 1.368 . S
C780 C776 1.368 . S
C780 C779 1.523 . S
H781 C756 0.950 . S
H782 C758 0.950 . S
H783 C759 0.949 . S
H784 C761 0.950 . S
H785 C763 0.950 . S
C786 C787 1.349 . S
C786 C788 1.327 . S
C786 H811 0.950 . S
C787 C786 1.349 . S
C787 C803 1.349 . S
C788 C786 1.327 . S
C788 C807 1.429 . S
C788 H812 0.950 . S
C789 C806 1.574 . S
C789 C808 1.368 . S
C789 H813 0.949 . S
H790 C794 0.949 . S
C791 C792 1.349 . S
C791 C793 1.327 . S
C791 H814 0.950 . S
C792 C791 1.349 . S
C792 C804 1.349 . S
C793 C791 1.327 . S
C793 C809 1.429 . S
C793 H815 0.950 . S
C794 H790 0.949 . S
C794 C802 1.574 . S
C794 C810 1.368 . S
H795 C803 0.950 . S
H796 C801 0.950 . S
H797 C802 0.949 . S
H798 C804 0.950 . S
H799 C805 0.950 . S
H800 C806 0.949 . S
C801 H796 0.950 . S
C801 C803 1.327 . S
C801 C807 1.429 . S
C802 C794 1.574 . S
C802 H797 0.949 . S
C802 C808 1.368 . S
C803 C787 1.349 . S
C803 H795 0.950 . S
C803 C801 1.327 . S
C804 C792 1.349 . S
C804 H798 0.950 . S
C804 C805 1.327 . S
C805 H799 0.950 . S
C805 C804 1.327 . S
C805 C809 1.429 . S
C806 C789 1.574 . S
C806 H800 0.949 . S
C806 C810 1.368 . S
C807 C788 1.429 . S
C807 C801 1.429 . S
C807 C808 1.523 . S
C808 C789 1.368 . S
C808 C802 1.368 . S
C808 C807 1.523 . S
C809 C793 1.429 . S
C809 C805 1.429 . S
C809 C810 1.523 . S
C810 C794 1.368 . S
C810 C806 1.368 . S
C810 C809 1.523 . S
H811 C786 0.950 . S
H812 C788 0.950 . S
H813 C789 0.949 . S
H814 C791 0.950 . S
H815 C793 0.950 . S
C816 C817 1.349 . S
C816 C818 1.327 . S
C816 H841 0.950 . S
C817 C816 1.349 . S
C817 C833 1.349 . S
C818 C816 1.327 . S
C818 C837 1.429 . S
C818 H842 0.950 . S
C819 C836 1.574 . S
C819 C838 1.368 . S
C819 H843 0.949 . S
H820 C824 0.949 . S
C821 C822 1.349 . S
C821 C823 1.327 . S
C821 H844 0.950 . S
C822 C821 1.349 . S
C822 C834 1.349 . S
C823 C821 1.327 . S
C823 C839 1.429 . S
C823 H845 0.950 . S
C824 H820 0.949 . S
C824 C832 1.574 . S
C824 C840 1.368 . S
H825 C833 0.950 . S
H826 C831 0.950 . S
H827 C832 0.949 . S
H828 C834 0.950 . S
H829 C835 0.950 . S
H830 C836 0.949 . S
C831 H826 0.950 . S
C831 C833 1.327 . S
C831 C837 1.429 . S
C832 C824 1.574 . S
C832 H827 0.949 . S
C832 C838 1.368 . S
C833 C817 1.349 . S
C833 H825 0.950 . S
C833 C831 1.327 . S
C834 C822 1.349 . S
C834 H828 0.950 . S
C834 C835 1.327 . S
C835 H829 0.950 . S
C835 C834 1.327 . S
C835 C839 1.429 . S
C836 C819 1.574 . S
C836 H830 0.949 . S
C836 C840 1.368 . S
C837 C818 1.429 . S
C837 C831 1.429 . S
C837 C838 1.523 . S
C838 C819 1.368 . S
C838 C832 1.368 . S
C838 C837 1.523 . S
C839 C823 1.429 . S
C839 C835 1.429 . S
C839 C840 1.523 . S
C840 C824 1.368 . S
C840 C836 1.368 . S
C840 C839 1.523 . S
H841 C816 0.950 . S
H842 C818 0.950 . S
H843 C819 0.949 . S
H844 C821 0.950 . S
H845 C823 0.950 . S
C846 C847 1.349 . S
C846 C848 1.327 . S
C846 H871 0.950 . S
C847 C846 1.349 . S
C847 C863 1.349 . S
C848 C846 1.327 . S
C848 C867 1.429 . S
C848 H872 0.950 . S
C849 C866 1.574 . S
C849 C868 1.368 . S
C849 H873 0.949 . S
H850 C854 0.949 . S
C851 C852 1.349 . S
C851 C853 1.327 . S
C851 H874 0.950 . S
C852 C851 1.349 . S
C852 C864 1.349 . S
C853 C851 1.327 . S
C853 C869 1.429 . S
C853 H875 0.950 . S
C854 H850 0.949 . S
C854 C862 1.574 . S
C854 C870 1.368 . S
H855 C863 0.950 . S
H856 C861 0.950 . S
H857 C862 0.949 . S
H858 C864 0.950 . S
H859 C865 0.950 . S
H860 C866 0.949 . S
C861 H856 0.950 . S
C861 C863 1.327 . S
C861 C867 1.429 . S
C862 C854 1.574 . S
C862 H857 0.949 . S
C862 C868 1.368 . S
C863 C847 1.349 . S
C863 H855 0.950 . S
C863 C861 1.327 . S
C864 C852 1.349 . S
C864 H858 0.950 . S
C864 C865 1.327 . S
C865 H859 0.950 . S
C865 C864 1.327 . S
C865 C869 1.429 . S
C866 C849 1.574 . S
C866 H860 0.949 . S
C866 C870 1.368 . S
C867 C848 1.429 . S
C867 C861 1.429 . S
C867 C868 1.523 . S
C868 C849 1.368 . S
C868 C862 1.368 . S
C868 C867 1.523 . S
C869 C853 1.429 . S
C869 C865 1.429 . S
C869 C870 1.523 . S
C870 C854 1.368 . S
C870 C866 1.368 . S
C870 C869 1.523 . S
H871 C846 0.950 . S
H872 C848 0.950 . S
H873 C849 0.949 . S
H874 C851 0.950 . S
H875 C853 0.950 . S
C876 C877 1.349 . S
C876 C878 1.327 . S
C876 H901 0.950 . S
C877 C876 1.349 . S
C877 C893 1.349 . S
C878 C876 1.327 . S
C878 C897 1.429 . S
C878 H902 0.950 . S
C879 C896 1.574 . S
C879 C898 1.368 . S
C879 H903 0.949 . S
H880 C884 0.949 . S
C881 C882 1.349 . S
C881 C883 1.327 . S
C881 H904 0.950 . S
C882 C881 1.349 . S
C882 C894 1.349 . S
C883 C881 1.327 . S
C883 C899 1.429 . S
C883 H905 0.950 . S
C884 H880 0.949 . S
C884 C892 1.574 . S
C884 C900 1.368 . S
H885 C893 0.950 . S
H886 C891 0.950 . S
H887 C892 0.949 . S
H888 C894 0.950 . S
H889 C895 0.950 . S
H890 C896 0.949 . S
C891 H886 0.950 . S
C891 C893 1.327 . S
C891 C897 1.429 . S
C892 C884 1.574 . S
C892 H887 0.949 . S
C892 C898 1.368 . S
C893 C877 1.349 . S
C893 H885 0.950 . S
C893 C891 1.327 . S
C894 C882 1.349 . S
C894 H888 0.950 . S
C894 C895 1.327 . S
C895 H889 0.950 . S
C895 C894 1.327 . S
C895 C899 1.429 . S
C896 C879 1.574 . S
C896 H890 0.949 . S
C896 C900 1.368 . S
C897 C878 1.429 . S
C897 C891 1.429 . S
C897 C898 1.523 . S
C898 C879 1.368 . S
C898 C892 1.368 . S
C898 C897 1.523 . S
C899 C883 1.429 . S
C899 C895 1.429 . S
C899 C900 1.523 . S
C900 C884 1.368 . S
C900 C896 1.368 . S
C900 C899 1.523 . S
H901 C876 0.950 . S
H902 C878 0.950 . S
H903 C879 0.949 . S
H904 C881 0.950 . S
H905 C883 0.950 . S
C906 C907 1.349 . S
C906 C908 1.327 . S
C906 H931 0.950 . S
C907 C906 1.349 . S
C907 C923 1.349 . S
C908 C906 1.327 . S
C908 C927 1.429 . S
C908 H932 0.950 . S
C909 C926 1.574 . S
C909 C928 1.368 . S
C909 H933 0.949 . S
H910 C914 0.949 . S
C911 C912 1.349 . S
C911 C913 1.327 . S
C911 H934 0.950 . S
C912 C911 1.349 . S
C912 C924 1.349 . S
C913 C911 1.327 . S
C913 C929 1.429 . S
C913 H935 0.950 . S
C914 H910 0.949 . S
C914 C922 1.574 . S
C914 C930 1.368 . S
H915 C923 0.950 . S
H916 C921 0.950 . S
H917 C922 0.949 . S
H918 C924 0.950 . S
H919 C925 0.950 . S
H920 C926 0.949 . S
C921 H916 0.950 . S
C921 C923 1.327 . S
C921 C927 1.429 . S
C922 C914 1.574 . S
C922 H917 0.949 . S
C922 C928 1.368 . S
C923 C907 1.349 . S
C923 H915 0.950 . S
C923 C921 1.327 . S
C924 C912 1.349 . S
C924 H918 0.950 . S
C924 C925 1.327 . S
C925 H919 0.950 . S
C925 C924 1.327 . S
C925 C929 1.429 . S
C926 C909 1.574 . S
C926 H920 0.949 . S
C926 C930 1.368 . S
C927 C908 1.429 . S
C927 C921 1.429 . S
C927 C928 1.523 . S
C928 C909 1.368 . S
C928 C922 1.368 . S
C928 C927 1.523 . S
C929 C913 1.429 . S
C929 C925 1.429 . S
C929 C930 1.523 . S
C930 C914 1.368 . S
C930 C926 1.368 . S
C930 C929 1.523 . S
H931 C906 0.950 . S
H932 C908 0.950 . S
H933 C909 0.949 . S
H934 C911 0.950 . S
H935 C913 0.950 . S
C936 C937 1.349 . S
C936 C938 1.327 . S
C936 H961 0.950 . S
C937 C936 1.349 . S
C937 C953 1.349 . S
C938 C936 1.327 . S
C938 C957 1.429 . S
C938 H962 0.950 . S
C939 C956 1.574 . S
C939 C958 1.368 . S
C939 H963 0.949 . S
H940 C944 0.949 . S
C941 C942 1.349 . S
C941 C943 1.327 . S
C941 H964 0.950 . S
C942 C941 1.349 . S
C942 C954 1.349 . S
C943 C941 1.327 . S
C943 C959 1.429 . S
C943 H965 0.950 . S
C944 H940 0.949 . S
C944 C952 1.574 . S
C944 C960 1.368 . S
H945 C953 0.950 . S
H946 C951 0.950 . S
H947 C952 0.949 . S
H948 C954 0.950 . S
H949 C955 0.950 . S
H950 C956 0.949 . S
C951 H946 0.950 . S
C951 C953 1.327 . S
C951 C957 1.429 . S
C952 C944 1.574 . S
C952 H947 0.949 . S
C952 C958 1.368 . S
C953 C937 1.349 . S
C953 H945 0.950 . S
C953 C951 1.327 . S
C954 C942 1.349 . S
C954 H948 0.950 . S
C954 C955 1.327 . S
C955 H949 0.950 . S
C955 C954 1.327 . S
C955 C959 1.429 . S
C956 C939 1.574 . S
C956 H950 0.949 . S
C956 C960 1.368 . S
C957 C938 1.429 . S
C957 C951 1.429 . S
C957 C958 1.523 . S
C958 C939 1.368 . S
C958 C952 1.368 . S
C958 C957 1.523 . S
C959 C943 1.429 . S
C959 C955 1.429 . S
C959 C960 1.523 . S
C960 C944 1.368 . S
C960 C956 1.368 . S
C960 C959 1.523 . S
H961 C936 0.950 . S
H962 C938 0.950 . S
H963 C939 0.949 . S
H964 C941 0.950 . S
H965 C943 0.950 . S
C966 C967 1.349 . S
C966 C968 1.327 . S
C966 H991 0.950 . S
C967 C966 1.349 . S
C967 C983 1.349 . S
C968 C966 1.327 . S
C968 C987 1.429 . S
C968 H992 0.950 . S
C969 C986 1.574 . S
C969 C988 1.368 . S
C969 H993 0.949 . S
H970 C974 0.949 . S
C971 C972 1.349 . S
C971 C973 1.327 . S
C971 H994 0.950 . S
C972 C971 1.349 . S
C972 C984 1.349 . S
C973 C971 1.327 . S
C973 C989 1.429 . S
C973 H995 0.950 . S
C974 H970 0.949 . S
C974 C982 1.574 . S
C974 C990 1.368 . S
H975 C983 0.950 . S
H976 C981 0.950 . S
H977 C982 0.949 . S
H978 C984 0.950 . S
H979 C985 0.950 . S
H980 C986 0.949 . S
C981 H976 0.950 . S
C981 C983 1.327 . S
C981 C987 1.429 . S
C982 C974 1.574 . S
C982 H977 0.949 . S
C982 C988 1.368 . S
C983 C967 1.349 . S
C983 H975 0.950 . S
C983 C981 1.327 . S
C984 C972 1.349 . S
C984 H978 0.950 . S
C984 C985 1.327 . S
C985 H979 0.950 . S
C985 C984 1.327 . S
C985 C989 1.429 . S
C986 C969 1.574 . S
C986 H980 0.949 . S
C986 C990 1.368 . S
C987 C968 1.429 . S
C987 C981 1.429 . S
C987 C988 1.523 . S
C988 C969 1.368 . S
C988 C982 1.368 . S
C988 C987 1.523 . S
C989 C973 1.429 . S
C989 C985 1.429 . S
C989 C990 1.523 . S
C990 C974 1.368 . S
C990 C986 1.368 . S
C990 C989 1.523 . S
H991 C966 0.950 . S
H992 C968 0.950 . S
H993 C969 0.949 . S
H994 C971 0.950 . S
H995 C973 0.950 . S
C996 C997 1.349 . S
C996 C998 1.327 . S
C996 H1021 0.950 . S
C997 C996 1.349 . S
C997 C1013 1.349 . S
C998 C996 1.327 . S
C998 C1017 1.429 . S
C998 H1022 0.950 . S
C999 C1016 1.574 . S
C999 C1018 1.368 . S
C999 H1023 0.949 . S
H1000 C1004 0.949 . S
C1001 C1002 1.349 . S
C1001 C1003 1.327 . S
C1001 H1024 0.950 . S
C1002 C1001 1.349 . S
C1002 C1014 1.349 . S
C1003 C1001 1.327 . S
C1003 C1019 1.429 . S
C1003 H1025 0.950 . S
C1004 H1000 0.949 . S
C1004 C1012 1.574 . S
C1004 C1020 1.368 . S
H1005 C1013 0.950 . S
H1006 C1011 0.950 . S
H1007 C1012 0.949 . S
H1008 C1014 0.950 . S
H1009 C1015 0.950 . S
H1010 C1016 0.949 . S
C1011 H1006 0.950 . S
C1011 C1013 1.327 . S
C1011 C1017 1.429 . S
C1012 C1004 1.574 . S
C1012 H1007 0.949 . S
C1012 C1018 1.368 . S
C1013 C997 1.349 . S
C1013 H1005 0.950 . S
C1013 C1011 1.327 . S
C1014 C1002 1.349 . S
C1014 H1008 0.950 . S
C1014 C1015 1.327 . S
C1015 H1009 0.950 . S
C1015 C1014 1.327 . S
C1015 C1019 1.429 . S
C1016 C999 1.574 . S
C1016 H1010 0.949 . S
C1016 C1020 1.368 . S
C1017 C998 1.429 . S
C1017 C1011 1.429 . S
C1017 C1018 1.523 . S
C1018 C999 1.368 . S
C1018 C1012 1.368 . S
C1018 C1017 1.523 . S
C1019 C1003 1.429 . S
C1019 C1015 1.429 . S
C1019 C1020 1.523 . S
C1020 C1004 1.368 . S
C1020 C1016 1.368 . S
C1020 C1019 1.523 . S
H1021 C996 0.950 . S
H1022 C998 0.950 . S
H1023 C999 0.949 . S
H1024 C1001 0.950 . S
H1025 C1003 0.950 . S
C1026 C1027 1.349 . S
C1026 C1028 1.327 . S
C1026 H1051 0.950 . S
C1027 C1026 1.349 . S
C1027 C1043 1.349 . S
C1028 C1026 1.327 . S
C1028 C1047 1.429 . S
C1028 H1052 0.950 . S
C1029 C1046 1.574 . S
C1029 C1048 1.368 . S
C1029 H1053 0.949 . S
H1030 C1034 0.949 . S
C1031 C1032 1.349 . S
C1031 C1033 1.327 . S
C1031 H1054 0.950 . S
C1032 C1031 1.349 . S
C1032 C1044 1.349 . S
C1033 C1031 1.327 . S
C1033 C1049 1.429 . S
C1033 H1055 0.950 . S
C1034 H1030 0.949 . S
C1034 C1042 1.574 . S
C1034 C1050 1.368 . S
H1035 C1043 0.950 . S
H1036 C1041 0.950 . S
H1037 C1042 0.949 . S
H1038 C1044 0.950 . S
H1039 C1045 0.950 . S
H1040 C1046 0.949 . S
C1041 H1036 0.950 . S
C1041 C1043 1.327 . S
C1041 C1047 1.429 . S
C1042 C1034 1.574 . S
C1042 H1037 0.949 . S
C1042 C1048 1.368 . S
C1043 C1027 1.349 . S
C1043 H1035 0.950 . S
C1043 C1041 1.327 . S
C1044 C1032 1.349 . S
C1044 H1038 0.950 . S
C1044 C1045 1.327 . S
C1045 H1039 0.950 . S
C1045 C1044 1.327 . S
C1045 C1049 1.429 . S
C1046 C1029 1.574 . S
C1046 H1040 0.949 . S
C1046 C1050 1.368 . S
C1047 C1028 1.429 . S
C1047 C1041 1.429 . S
C1047 C1048 1.523 . S
C1048 C1029 1.368 . S
C1048 C1042 1.368 . S
C1048 C1047 1.523 . S
C1049 C1033 1.429 . S
C1049 C1045 1.429 . S
C1049 C1050 1.523 . S
C1050 C1034 1.368 . S
C1050 C1046 1.368 . S
C1050 C1049 1.523 . S
H1051 C1026 0.950 . S
H1052 C1028 0.950 . S
H1053 C1029 0.949 . S
H1054 C1031 0.950 . S
H1055 C1033 0.950 . S
C1056 C1057 1.349 . S
C1056 C1058 1.327 . S
C1056 H1081 0.950 . S
C1057 C1056 1.349 . S
C1057 C1073 1.349 . S
C1058 C1056 1.327 . S
C1058 C1077 1.429 . S
C1058 H1082 0.950 . S
C1059 C1076 1.574 1_554 S
C1059 C1078 1.368 . S
C1059 H1083 0.949 . S
H1060 C1064 0.949 . S
C1061 C1062 1.349 . S
C1061 C1063 1.327 . S
C1061 H1084 0.950 . S
C1062 C1061 1.349 . S
C1062 C1074 1.349 . S
C1063 C1061 1.327 . S
C1063 C1079 1.429 . S
C1063 H1085 0.950 . S
C1064 H1060 0.949 . S
C1064 C1072 1.574 1_556 S
C1064 C1080 1.368 . S
H1065 C1073 0.950 . S
H1066 C1071 0.950 . S
H1067 C1072 0.949 . S
H1068 C1074 0.950 . S
H1069 C1075 0.950 . S
H1070 C1076 0.949 . S
C1071 H1066 0.950 . S
C1071 C1073 1.327 . S
C1071 C1077 1.429 . S
C1072 C1064 1.574 1_554 S
C1072 H1067 0.949 . S
C1072 C1078 1.368 . S
C1073 C1057 1.349 . S
C1073 H1065 0.950 . S
C1073 C1071 1.327 . S
C1074 C1062 1.349 . S
C1074 H1068 0.950 . S
C1074 C1075 1.327 . S
C1075 H1069 0.950 . S
C1075 C1074 1.327 . S
C1075 C1079 1.429 . S
C1076 C1059 1.574 1_556 S
C1076 H1070 0.949 . S
C1076 C1080 1.368 . S
C1077 C1058 1.429 . S
C1077 C1071 1.429 . S
C1077 C1078 1.523 . S
C1078 C1059 1.368 . S
C1078 C1072 1.368 . S
C1078 C1077 1.523 . S
C1079 C1063 1.429 . S
C1079 C1075 1.429 . S
C1079 C1080 1.523 . S
C1080 C1064 1.368 . S
C1080 C1076 1.368 . S
C1080 C1079 1.523 . S
H1081 C1056 0.950 . S
H1082 C1058 0.950 . S
H1083 C1059 0.949 . S
H1084 C1061 0.950 . S
H1085 C1063 0.950 . S
C1086 C1087 1.349 . S
C1086 C1088 1.327 . S
C1086 H1111 0.950 . S
C1087 C1086 1.349 . S
C1087 C1103 1.349 . S
C1088 C1086 1.327 . S
C1088 C1107 1.429 . S
C1088 H1112 0.950 . S
C1089 C1106 1.574 1_556 S
C1089 C1108 1.368 . S
C1089 H1113 0.949 . S
H1090 C1094 0.949 . S
C1091 C1092 1.349 . S
C1091 C1093 1.327 . S
C1091 H1114 0.950 . S
C1092 C1091 1.349 . S
C1092 C1104 1.349 . S
C1093 C1091 1.327 . S
C1093 C1109 1.429 . S
C1093 H1115 0.950 . S
C1094 H1090 0.949 . S
C1094 C1102 1.574 1_554 S
C1094 C1110 1.368 . S
H1095 C1103 0.950 . S
H1096 C1101 0.950 . S
H1097 C1102 0.949 . S
H1098 C1104 0.950 . S
H1099 C1105 0.950 . S
H1100 C1106 0.949 . S
C1101 H1096 0.950 . S
C1101 C1103 1.327 . S
C1101 C1107 1.429 . S
C1102 C1094 1.574 1_556 S
C1102 H1097 0.949 . S
C1102 C1108 1.368 . S
C1103 C1087 1.349 . S
C1103 H1095 0.950 . S
C1103 C1101 1.327 . S
C1104 C1092 1.349 . S
C1104 H1098 0.950 . S
C1104 C1105 1.327 . S
C1105 H1099 0.950 . S
C1105 C1104 1.327 . S
C1105 C1109 1.429 . S
C1106 C1089 1.574 1_554 S
C1106 H1100 0.949 . S
C1106 C1110 1.368 . S
C1107 C1088 1.429 . S
C1107 C1101 1.429 . S
C1107 C1108 1.523 . S
C1108 C1089 1.368 . S
C1108 C1102 1.368 . S
C1108 C1107 1.523 . S
C1109 C1093 1.429 . S
C1109 C1105 1.429 . S
C1109 C1110 1.523 . S
C1110 C1094 1.368 . S
C1110 C1106 1.368 . S
C1110 C1109 1.523 . S
H1111 C1086 0.950 . S
H1112 C1088 0.950 . S
H1113 C1089 0.949 . S
H1114 C1091 0.950 . S
H1115 C1093 0.950 . S
C1116 C1117 1.349 . S
C1116 C1118 1.327 . S
C1116 H1141 0.950 . S
C1117 C1116 1.349 . S
C1117 C1133 1.349 . S
C1118 C1116 1.327 . S
C1118 C1137 1.429 . S
C1118 H1142 0.950 . S
C1119 C1136 1.574 1_556 S
C1119 C1138 1.368 . S
C1119 H1143 0.949 . S
H1120 C1124 0.949 . S
C1121 C1122 1.349 . S
C1121 C1123 1.327 . S
C1121 H1144 0.950 . S
C1122 C1121 1.349 . S
C1122 C1134 1.349 . S
C1123 C1121 1.327 . S
C1123 C1139 1.429 . S
C1123 H1145 0.950 . S
C1124 H1120 0.949 . S
C1124 C1132 1.574 1_554 S
C1124 C1140 1.368 . S
H1125 C1133 0.950 . S
H1126 C1131 0.950 . S
H1127 C1132 0.949 . S
H1128 C1134 0.950 . S
H1129 C1135 0.950 . S
H1130 C1136 0.949 . S
C1131 H1126 0.950 . S
C1131 C1133 1.327 . S
C1131 C1137 1.429 . S
C1132 C1124 1.574 1_556 S
C1132 H1127 0.949 . S
C1132 C1138 1.368 . S
C1133 C1117 1.349 . S
C1133 H1125 0.950 . S
C1133 C1131 1.327 . S
C1134 C1122 1.349 . S
C1134 H1128 0.950 . S
C1134 C1135 1.327 . S
C1135 H1129 0.950 . S
C1135 C1134 1.327 . S
C1135 C1139 1.429 . S
C1136 C1119 1.574 1_554 S
C1136 H1130 0.949 . S
C1136 C1140 1.368 . S
C1137 C1118 1.429 . S
C1137 C1131 1.429 . S
C1137 C1138 1.523 . S
C1138 C1119 1.368 . S
C1138 C1132 1.368 . S
C1138 C1137 1.523 . S
C1139 C1123 1.429 . S
C1139 C1135 1.429 . S
C1139 C1140 1.523 . S
C1140 C1124 1.368 . S
C1140 C1136 1.368 . S
C1140 C1139 1.523 . S
H1141 C1116 0.950 . S
H1142 C1118 0.950 . S
H1143 C1119 0.949 . S
H1144 C1121 0.950 . S
H1145 C1123 0.950 . S
C1146 C1147 1.349 . S
C1146 C1148 1.327 . S
C1146 H1171 0.950 . S
C1147 C1146 1.349 . S
C1147 C1163 1.349 . S
C1148 C1146 1.327 . S
C1148 C1167 1.429 . S
C1148 H1172 0.950 . S
C1149 C1166 1.574 1_554 S
C1149 C1168 1.368 . S
C1149 H1173 0.949 . S
H1150 C1154 0.949 . S
C1151 C1152 1.349 . S
C1151 C1153 1.327 . S
C1151 H1174 0.950 . S
C1152 C1151 1.349 . S
C1152 C1164 1.349 . S
C1153 C1151 1.327 . S
C1153 C1169 1.429 . S
C1153 H1175 0.950 . S
C1154 H1150 0.949 . S
C1154 C1162 1.574 1_556 S
C1154 C1170 1.368 . S
H1155 C1163 0.950 . S
H1156 C1161 0.950 . S
H1157 C1162 0.949 . S
H1158 C1164 0.950 . S
H1159 C1165 0.950 . S
H1160 C1166 0.949 . S
C1161 H1156 0.950 . S
C1161 C1163 1.327 . S
C1161 C1167 1.429 . S
C1162 C1154 1.574 1_554 S
C1162 H1157 0.949 . S
C1162 C1168 1.368 . S
C1163 C1147 1.349 . S
C1163 H1155 0.950 . S
C1163 C1161 1.327 . S
C1164 C1152 1.349 . S
C1164 H1158 0.950 . S
C1164 C1165 1.327 . S
C1165 H1159 0.950 . S
C1165 C1164 1.327 . S
C1165 C1169 1.429 . S
C1166 C1149 1.574 1_556 S
C1166 H1160 0.949 . S
C1166 C1170 1.368 . S
C1167 C1148 1.429 . S
C1167 C1161 1.429 . S
C1167 C1168 1.523 . S
C1168 C1149 1.368 . S
C1168 C1162 1.368 . S
C1168 C1167 1.523 . S
C1169 C1153 1.429 . S
C1169 C1165 1.429 . S
C1169 C1170 1.523 . S
C1170 C1154 1.368 . S
C1170 C1166 1.368 . S
C1170 C1169 1.523 . S
H1171 C1146 0.950 . S
H1172 C1148 0.950 . S
H1173 C1149 0.949 . S
H1174 C1151 0.950 . S
H1175 C1153 0.950 . S
C1176 C1177 1.349 . S
C1176 C1178 1.327 . S
C1176 H1201 0.950 . S
C1177 C1176 1.349 . S
C1177 C1193 1.349 . S
C1178 C1176 1.327 . S
C1178 C1197 1.429 . S
C1178 H1202 0.950 . S
C1179 C1196 1.574 1_554 S
C1179 C1198 1.368 . S
C1179 H1203 0.949 . S
H1180 C1184 0.949 . S
C1181 C1182 1.349 . S
C1181 C1183 1.327 . S
C1181 H1204 0.950 . S
C1182 C1181 1.349 . S
C1182 C1194 1.349 . S
C1183 C1181 1.327 . S
C1183 C1199 1.429 . S
C1183 H1205 0.950 . S
C1184 H1180 0.949 . S
C1184 C1192 1.574 1_556 S
C1184 C1200 1.368 . S
H1185 C1193 0.950 . S
H1186 C1191 0.950 . S
H1187 C1192 0.949 . S
H1188 C1194 0.950 . S
H1189 C1195 0.950 . S
H1190 C1196 0.949 . S
C1191 H1186 0.950 . S
C1191 C1193 1.327 . S
C1191 C1197 1.429 . S
C1192 C1184 1.574 1_554 S
C1192 H1187 0.949 . S
C1192 C1198 1.368 . S
C1193 C1177 1.349 . S
C1193 H1185 0.950 . S
C1193 C1191 1.327 . S
C1194 C1182 1.349 . S
C1194 H1188 0.950 . S
C1194 C1195 1.327 . S
C1195 H1189 0.950 . S
C1195 C1194 1.327 . S
C1195 C1199 1.429 . S
C1196 C1179 1.574 1_556 S
C1196 H1190 0.949 . S
C1196 C1200 1.368 . S
C1197 C1178 1.429 . S
C1197 C1191 1.429 . S
C1197 C1198 1.523 . S
C1198 C1179 1.368 . S
C1198 C1192 1.368 . S
C1198 C1197 1.523 . S
C1199 C1183 1.429 . S
C1199 C1195 1.429 . S
C1199 C1200 1.523 . S
C1200 C1184 1.368 . S
C1200 C1196 1.368 . S
C1200 C1199 1.523 . S
H1201 C1176 0.950 . S
H1202 C1178 0.950 . S
H1203 C1179 0.949 . S
H1204 C1181 0.950 . S
H1205 C1183 0.950 . S
C1206 C1207 1.349 . S
C1206 C1208 1.327 . S
C1206 H1231 0.950 . S
C1207 C1206 1.349 . S
C1207 C1223 1.349 . S
C1208 C1206 1.327 . S
C1208 C1227 1.429 . S
C1208 H1232 0.950 . S
C1209 C1226 1.574 1_556 S
C1209 C1228 1.368 . S
C1209 H1233 0.949 . S
H1210 C1214 0.949 . S
C1211 C1212 1.349 . S
C1211 C1213 1.327 . S
C1211 H1234 0.950 . S
C1212 C1211 1.349 . S
C1212 C1224 1.349 . S
C1213 C1211 1.327 . S
C1213 C1229 1.429 . S
C1213 H1235 0.950 . S
C1214 H1210 0.949 . S
C1214 C1222 1.574 1_554 S
C1214 C1230 1.368 . S
H1215 C1223 0.950 . S
H1216 C1221 0.950 . S
H1217 C1222 0.949 . S
H1218 C1224 0.950 . S
H1219 C1225 0.950 . S
H1220 C1226 0.949 . S
C1221 H1216 0.950 . S
C1221 C1223 1.327 . S
C1221 C1227 1.429 . S
C1222 C1214 1.574 1_556 S
C1222 H1217 0.949 . S
C1222 C1228 1.368 . S
C1223 C1207 1.349 . S
C1223 H1215 0.950 . S
C1223 C1221 1.327 . S
C1224 C1212 1.349 . S
C1224 H1218 0.950 . S
C1224 C1225 1.327 . S
C1225 H1219 0.950 . S
C1225 C1224 1.327 . S
C1225 C1229 1.429 . S
C1226 C1209 1.574 1_554 S
C1226 H1220 0.949 . S
C1226 C1230 1.368 . S
C1227 C1208 1.429 . S
C1227 C1221 1.429 . S
C1227 C1228 1.523 . S
C1228 C1209 1.368 . S
C1228 C1222 1.368 . S
C1228 C1227 1.523 . S
C1229 C1213 1.429 . S
C1229 C1225 1.429 . S
C1229 C1230 1.523 . S
C1230 C1214 1.368 . S
C1230 C1226 1.368 . S
C1230 C1229 1.523 . S
H1231 C1206 0.950 . S
H1232 C1208 0.950 . S
H1233 C1209 0.949 . S
H1234 C1211 0.950 . S
H1235 C1213 0.950 . S
C1236 C1237 1.349 . S
C1236 C1238 1.327 . S
C1236 H1261 0.950 . S
C1237 C1236 1.349 . S
C1237 C1253 1.349 . S
C1238 C1236 1.327 . S
C1238 C1257 1.429 . S
C1238 H1262 0.950 . S
C1239 C1256 1.574 . S
C1239 C1258 1.368 . S
C1239 H1263 0.949 . S
H1240 C1244 0.949 . S
C1241 C1242 1.349 . S
C1241 C1243 1.327 . S
C1241 H1264 0.950 . S
C1242 C1241 1.349 . S
C1242 C1254 1.349 . S
C1243 C1241 1.327 . S
C1243 C1259 1.429 . S
C1243 H1265 0.950 . S
C1244 H1240 0.949 . S
C1244 C1252 1.574 . S
C1244 C1260 1.368 . S
H1245 C1253 0.950 . S
H1246 C1251 0.950 . S
H1247 C1252 0.949 . S
H1248 C1254 0.950 . S
H1249 C1255 0.950 . S
H1250 C1256 0.949 . S
C1251 H1246 0.950 . S
C1251 C1253 1.327 . S
C1251 C1257 1.429 . S
C1252 C1244 1.574 . S
C1252 H1247 0.949 . S
C1252 C1258 1.368 . S
C1253 C1237 1.349 . S
C1253 H1245 0.950 . S
C1253 C1251 1.327 . S
C1254 C1242 1.349 . S
C1254 H1248 0.950 . S
C1254 C1255 1.327 . S
C1255 H1249 0.950 . S
C1255 C1254 1.327 . S
C1255 C1259 1.429 . S
C1256 C1239 1.574 . S
C1256 H1250 0.949 . S
C1256 C1260 1.368 . S
C1257 C1238 1.429 . S
C1257 C1251 1.429 . S
C1257 C1258 1.523 . S
C1258 C1239 1.368 . S
C1258 C1252 1.368 . S
C1258 C1257 1.523 . S
C1259 C1243 1.429 . S
C1259 C1255 1.429 . S
C1259 C1260 1.523 . S
C1260 C1244 1.368 . S
C1260 C1256 1.368 . S
C1260 C1259 1.523 . S
H1261 C1236 0.950 . S
H1262 C1238 0.950 . S
H1263 C1239 0.949 . S
H1264 C1241 0.950 . S
H1265 C1243 0.950 . S
C1266 C1267 1.349 . S
C1266 C1268 1.327 . S
C1266 H1291 0.950 . S
C1267 C1266 1.349 . S
C1267 C1283 1.349 . S
C1268 C1266 1.327 . S
C1268 C1287 1.429 . S
C1268 H1292 0.950 . S
C1269 C1286 1.574 . S
C1269 C1288 1.368 . S
C1269 H1293 0.949 . S
H1270 C1274 0.949 . S
C1271 C1272 1.349 . S
C1271 C1273 1.327 . S
C1271 H1294 0.950 . S
C1272 C1271 1.349 . S
C1272 C1284 1.349 . S
C1273 C1271 1.327 . S
C1273 C1289 1.429 . S
C1273 H1295 0.950 . S
C1274 H1270 0.949 . S
C1274 C1282 1.574 . S
C1274 C1290 1.368 . S
H1275 C1283 0.950 . S
H1276 C1281 0.950 . S
H1277 C1282 0.949 . S
H1278 C1284 0.950 . S
H1279 C1285 0.950 . S
H1280 C1286 0.949 . S
C1281 H1276 0.950 . S
C1281 C1283 1.327 . S
C1281 C1287 1.429 . S
C1282 C1274 1.574 . S
C1282 H1277 0.949 . S
C1282 C1288 1.368 . S
C1283 C1267 1.349 . S
C1283 H1275 0.950 . S
C1283 C1281 1.327 . S
C1284 C1272 1.349 . S
C1284 H1278 0.950 . S
C1284 C1285 1.327 . S
C1285 H1279 0.950 . S
C1285 C1284 1.327 . S
C1285 C1289 1.429 . S
C1286 C1269 1.574 . S
C1286 H1280 0.949 . S
C1286 C1290 1.368 . S
C1287 C1268 1.429 . S
C1287 C1281 1.429 . S
C1287 C1288 1.523 . S
C1288 C1269 1.368 . S
C1288 C1282 1.368 . S
C1288 C1287 1.523 . S
C1289 C1273 1.429 . S
C1289 C1285 1.429 . S
C1289 C1290 1.523 . S
C1290 C1274 1.368 . S
C1290 C1286 1.368 . S
C1290 C1289 1.523 . S
H1291 C1266 0.950 . S
H1292 C1268 0.950 . S
H1293 C1269 0.949 . S
H1294 C1271 0.950 . S
H1295 C1273 0.950 . S
C1296 C1297 1.349 . S
C1296 C1298 1.327 . S
C1296 H1321 0.950 . S
C1297 C1296 1.349 . S
C1297 C1313 1.349 . S
C1298 C1296 1.327 . S
C1298 C1317 1.429 . S
C1298 H1322 0.950 . S
C1299 C1316 1.574 . S
C1299 C1318 1.368 . S
C1299 H1323 0.949 . S
H1300 C1304 0.949 . S
C1301 C1302 1.349 . S
C1301 C1303 1.327 . S
C1301 H1324 0.950 . S
C1302 C1301 1.349 . S
C1302 C1314 1.349 . S
C1303 C1301 1.327 . S
C1303 C1319 1.429 . S
C1303 H1325 0.950 . S
C1304 H1300 0.949 . S
C1304 C1312 1.574 . S
C1304 C1320 1.368 . S
H1305 C1313 0.950 . S
H1306 C1311 0.950 . S
H1307 C1312 0.949 . S
H1308 C1314 0.950 . S
H1309 C1315 0.950 . S
H1310 C1316 0.949 . S
C1311 H1306 0.950 . S
C1311 C1313 1.327 . S
C1311 C1317 1.429 . S
C1312 C1304 1.574 . S
C1312 H1307 0.949 . S
C1312 C1318 1.368 . S
C1313 C1297 1.349 . S
C1313 H1305 0.950 . S
C1313 C1311 1.327 . S
C1314 C1302 1.349 . S
C1314 H1308 0.950 . S
C1314 C1315 1.327 . S
C1315 H1309 0.950 . S
C1315 C1314 1.327 . S
C1315 C1319 1.429 . S
C1316 C1299 1.574 . S
C1316 H1310 0.949 . S
C1316 C1320 1.368 . S
C1317 C1298 1.429 . S
C1317 C1311 1.429 . S
C1317 C1318 1.523 . S
C1318 C1299 1.368 . S
C1318 C1312 1.368 . S
C1318 C1317 1.523 . S
C1319 C1303 1.429 . S
C1319 C1315 1.429 . S
C1319 C1320 1.523 . S
C1320 C1304 1.368 . S
C1320 C1316 1.368 . S
C1320 C1319 1.523 . S
H1321 C1296 0.950 . S
H1322 C1298 0.950 . S
H1323 C1299 0.949 . S
H1324 C1301 0.950 . S
H1325 C1303 0.950 . S
C1326 C1327 1.349 . S
C1326 C1328 1.327 . S
C1326 H1351 0.950 . S
C1327 C1326 1.349 . S
C1327 C1343 1.349 . S
C1328 C1326 1.327 . S
C1328 C1347 1.429 . S
C1328 H1352 0.950 . S
C1329 C1346 1.574 . S
C1329 C1348 1.368 . S
C1329 H1353 0.949 . S
H1330 C1334 0.949 . S
C1331 C1332 1.349 . S
C1331 C1333 1.327 . S
C1331 H1354 0.950 . S
C1332 C1331 1.349 . S
C1332 C1344 1.349 . S
C1333 C1331 1.327 . S
C1333 C1349 1.429 . S
C1333 H1355 0.950 . S
C1334 H1330 0.949 . S
C1334 C1342 1.574 . S
C1334 C1350 1.368 . S
H1335 C1343 0.950 . S
H1336 C1341 0.950 . S
H1337 C1342 0.949 . S
H1338 C1344 0.950 . S
H1339 C1345 0.950 . S
H1340 C1346 0.949 . S
C1341 H1336 0.950 . S
C1341 C1343 1.327 . S
C1341 C1347 1.429 . S
C1342 C1334 1.574 . S
C1342 H1337 0.949 . S
C1342 C1348 1.368 . S
C1343 C1327 1.349 . S
C1343 H1335 0.950 . S
C1343 C1341 1.327 . S
C1344 C1332 1.349 . S
C1344 H1338 0.950 . S
C1344 C1345 1.327 . S
C1345 H1339 0.950 . S
C1345 C1344 1.327 . S
C1345 C1349 1.429 . S
C1346 C1329 1.574 . S
C1346 H1340 0.949 . S
C1346 C1350 1.368 . S
C1347 C1328 1.429 . S
C1347 C1341 1.429 . S
C1347 C1348 1.523 . S
C1348 C1329 1.368 . S
C1348 C1342 1.368 . S
C1348 C1347 1.523 . S
C1349 C1333 1.429 . S
C1349 C1345 1.429 . S
C1349 C1350 1.523 . S
C1350 C1334 1.368 . S
C1350 C1346 1.368 . S
C1350 C1349 1.523 . S
H1351 C1326 0.950 . S
H1352 C1328 0.950 . S
H1353 C1329 0.949 . S
H1354 C1331 0.950 . S
H1355 C1333 0.950 . S
C1356 C1357 1.349 . S
C1356 C1358 1.327 . S
C1356 H1381 0.950 . S
C1357 C1356 1.349 . S
C1357 C1373 1.349 . S
C1358 C1356 1.327 . S
C1358 C1377 1.429 . S
C1358 H1382 0.950 . S
C1359 C1376 1.574 . S
C1359 C1378 1.368 . S
C1359 H1383 0.949 . S
H1360 C1364 0.949 . S
C1361 C1362 1.349 . S
C1361 C1363 1.327 . S
C1361 H1384 0.950 . S
C1362 C1361 1.349 . S
C1362 C1374 1.349 . S
C1363 C1361 1.327 . S
C1363 C1379 1.429 . S
C1363 H1385 0.950 . S
C1364 H1360 0.949 . S
C1364 C1372 1.574 . S
C1364 C1380 1.368 . S
H1365 C1373 0.950 . S
H1366 C1371 0.950 . S
H1367 C1372 0.949 . S
H1368 C1374 0.950 . S
H1369 C1375 0.950 . S
H1370 C1376 0.949 . S
C1371 H1366 0.950 . S
C1371 C1373 1.327 . S
C1371 C1377 1.429 . S
C1372 C1364 1.574 . S
C1372 H1367 0.949 . S
C1372 C1378 1.368 . S
C1373 C1357 1.349 . S
C1373 H1365 0.950 . S
C1373 C1371 1.327 . S
C1374 C1362 1.349 . S
C1374 H1368 0.950 . S
C1374 C1375 1.327 . S
C1375 H1369 0.950 . S
C1375 C1374 1.327 . S
C1375 C1379 1.429 . S
C1376 C1359 1.574 . S
C1376 H1370 0.949 . S
C1376 C1380 1.368 . S
C1377 C1358 1.429 . S
C1377 C1371 1.429 . S
C1377 C1378 1.523 . S
C1378 C1359 1.368 . S
C1378 C1372 1.368 . S
C1378 C1377 1.523 . S
C1379 C1363 1.429 . S
C1379 C1375 1.429 . S
C1379 C1380 1.523 . S
C1380 C1364 1.368 . S
C1380 C1376 1.368 . S
C1380 C1379 1.523 . S
H1381 C1356 0.950 . S
H1382 C1358 0.950 . S
H1383 C1359 0.949 . S
H1384 C1361 0.950 . S
H1385 C1363 0.950 . S
C1386 C1387 1.349 . S
C1386 C1388 1.327 . S
C1386 H1411 0.950 . S
C1387 C1386 1.349 . S
C1387 C1403 1.349 . S
C1388 C1386 1.327 . S
C1388 C1407 1.429 . S
C1388 H1412 0.950 . S
C1389 C1406 1.574 . S
C1389 C1408 1.368 . S
C1389 H1413 0.949 . S
H1390 C1394 0.949 . S
C1391 C1392 1.349 . S
C1391 C1393 1.327 . S
C1391 H1414 0.950 . S
C1392 C1391 1.349 . S
C1392 C1404 1.349 . S
C1393 C1391 1.327 . S
C1393 C1409 1.429 . S
C1393 H1415 0.950 . S
C1394 H1390 0.949 . S
C1394 C1402 1.574 . S
C1394 C1410 1.368 . S
H1395 C1403 0.950 . S
H1396 C1401 0.950 . S
H1397 C1402 0.949 . S
H1398 C1404 0.950 . S
H1399 C1405 0.950 . S
H1400 C1406 0.949 . S
C1401 H1396 0.950 . S
C1401 C1403 1.327 . S
C1401 C1407 1.429 . S
C1402 C1394 1.574 . S
C1402 H1397 0.949 . S
C1402 C1408 1.368 . S
C1403 C1387 1.349 . S
C1403 H1395 0.950 . S
C1403 C1401 1.327 . S
C1404 C1392 1.349 . S
C1404 H1398 0.950 . S
C1404 C1405 1.327 . S
C1405 H1399 0.950 . S
C1405 C1404 1.327 . S
C1405 C1409 1.429 . S
C1406 C1389 1.574 . S
C1406 H1400 0.949 . S
C1406 C1410 1.368 . S
C1407 C1388 1.429 . S
C1407 C1401 1.429 . S
C1407 C1408 1.523 . S
C1408 C1389 1.368 . S
C1408 C1402 1.368 . S
C1408 C1407 1.523 . S
C1409 C1393 1.429 . S
C1409 C1405 1.429 . S
C1409 C1410 1.523 . S
C1410 C1394 1.368 . S
C1410 C1406 1.368 . S
C1410 C1409 1.523 . S
H1411 C1386 0.950 . S
H1412 C1388 0.950 . S
H1413 C1389 0.949 . S
H1414 C1391 0.950 . S
H1415 C1393 0.950 . S
C1416 C1417 1.349 . S
C1416 C1418 1.327 . S
C1416 H1441 0.950 . S
C1417 C1416 1.349 . S
C1417 C1433 1.349 . S
C1418 C1416 1.327 . S
C1418 C1437 1.429 . S
C1418 H1442 0.950 . S
C1419 C1436 1.574 . S
C1419 C1438 1.368 . S
C1419 H1443 0.949 . S
H1420 C1424 0.949 . S
C1421 C1422 1.349 . S
C1421 C1423 1.327 . S
C1421 H1444 0.950 . S
C1422 C1421 1.349 . S
C1422 C1434 1.349 . S
C1423 C1421 1.327 . S
C1423 C1439 1.429 . S
C1423 H1445 0.950 . S
C1424 H1420 0.949 . S
C1424 C1432 1.574 . S
C1424 C1440 1.368 . S
H1425 C1433 0.950 . S
H1426 C1431 0.950 . S
H1427 C1432 0.949 . S
H1428 C1434 0.950 . S
H1429 C1435 0.950 . S
H1430 C1436 0.949 . S
C1431 H1426 0.950 . S
C1431 C1433 1.327 . S
C1431 C1437 1.429 . S
C1432 C1424 1.574 . S
C1432 H1427 0.949 . S
C1432 C1438 1.368 . S
C1433 C1417 1.349 . S
C1433 H1425 0.950 . S
C1433 C1431 1.327 . S
C1434 C1422 1.349 . S
C1434 H1428 0.950 . S
C1434 C1435 1.327 . S
C1435 H1429 0.950 . S
C1435 C1434 1.327 . S
C1435 C1439 1.429 . S
C1436 C1419 1.574 . S
C1436 H1430 0.949 . S
C1436 C1440 1.368 . S
C1437 C1418 1.429 . S
C1437 C1431 1.429 . S
C1437 C1438 1.523 . S
C1438 C1419 1.368 . S
C1438 C1432 1.368 . S
C1438 C1437 1.523 . S
C1439 C1423 1.429 . S
C1439 C1435 1.429 . S
C1439 C1440 1.523 . S
C1440 C1424 1.368 . S
C1440 C1436 1.368 . S
C1440 C1439 1.523 . S
H1441 C1416 0.950 . S
H1442 C1418 0.950 . S
H1443 C1419 0.949 . S
H1444 C1421 0.950 . S
H1445 C1423 0.950 . S
C1446 C1447 1.349 . S
C1446 C1448 1.327 . S
C1446 H1471 0.950 . S
C1447 C1446 1.349 . S
C1447 C1463 1.349 . S
C1448 C1446 1.327 . S
C1448 C1467 1.429 . S
C1448 H1472 0.950 . S
C1449 C1466 1.574 . S
C1449 C1468 1.368 . S
C1449 H1473 0.949 . S
H1450 C1454 0.949 . S
C1451 C1452 1.349 . S
C1451 C1453 1.327 . S
C1451 H1474 0.950 . S
C1452 C1451 1.349 . S
C1452 C1464 1.349 . S
C1453 C1451 1.327 . S
C1453 C1469 1.429 . S
C1453 H1475 0.950 . S
C1454 H1450 0.949 . S
C1454 C1462 1.574 . S
C1454 C1470 1.368 . S
H1455 C1463 0.950 . S
H1456 C1461 0.950 . S
H1457 C1462 0.949 . S
H1458 C1464 0.950 . S
H1459 C1465 0.950 . S
H1460 C1466 0.949 . S
C1461 H1456 0.950 . S
C1461 C1463 1.327 . S
C1461 C1467 1.429 . S
C1462 C1454 1.574 . S
C1462 H1457 0.949 . S
C1462 C1468 1.368 . S
C1463 C1447 1.349 . S
C1463 H1455 0.950 . S
C1463 C1461 1.327 . S
C1464 C1452 1.349 . S
C1464 H1458 0.950 . S
C1464 C1465 1.327 . S
C1465 H1459 0.950 . S
C1465 C1464 1.327 . S
C1465 C1469 1.429 . S
C1466 C1449 1.574 . S
C1466 H1460 0.949 . S
C1466 C1470 1.368 . S
C1467 C1448 1.429 . S
C1467 C1461 1.429 . S
C1467 C1468 1.523 . S
C1468 C1449 1.368 . S
C1468 C1462 1.368 . S
C1468 C1467 1.523 . S
C1469 C1453 1.429 . S
C1469 C1465 1.429 . S
C1469 C1470 1.523 . S
C1470 C1454 1.368 . S
C1470 C1466 1.368 . S
C1470 C1469 1.523 . S
H1471 C1446 0.950 . S
H1472 C1448 0.950 . S
H1473 C1449 0.949 . S
H1474 C1451 0.950 . S
H1475 C1453 0.950 . S
C1476 C1477 1.349 . S
C1476 C1478 1.327 . S
C1476 H1501 0.950 . S
C1477 C1476 1.349 . S
C1477 C1493 1.349 . S
C1478 C1476 1.327 . S
C1478 C1497 1.429 . S
C1478 H1502 0.950 . S
C1479 C1496 1.574 . S
C1479 C1498 1.368 . S
C1479 H1503 0.949 . S
H1480 C1484 0.949 . S
C1481 C1482 1.349 . S
C1481 C1483 1.327 . S
C1481 H1504 0.950 . S
C1482 C1481 1.349 . S
C1482 C1494 1.349 . S
C1483 C1481 1.327 . S
C1483 C1499 1.429 . S
C1483 H1505 0.950 . S
C1484 H1480 0.949 . S
C1484 C1492 1.574 . S
C1484 C1500 1.368 . S
H1485 C1493 0.950 . S
H1486 C1491 0.950 . S
H1487 C1492 0.949 . S
H1488 C1494 0.950 . S
H1489 C1495 0.950 . S
H1490 C1496 0.949 . S
C1491 H1486 0.950 . S
C1491 C1493 1.327 . S
C1491 C1497 1.429 . S
C1492 C1484 1.574 . S
C1492 H1487 0.949 . S
C1492 C1498 1.368 . S
C1493 C1477 1.349 . S
C1493 H1485 0.950 . S
C1493 C1491 1.327 . S
C1494 C1482 1.349 . S
C1494 H1488 0.950 . S
C1494 C1495 1.327 . S
C1495 H1489 0.950 . S
C1495 C1494 1.327 . S
C1495 C1499 1.429 . S
C1496 C1479 1.574 . S
C1496 H1490 0.949 . S
C1496 C1500 1.368 . S
C1497 C1478 1.429 . S
C1497 C1491 1.429 . S
C1497 C1498 1.523 . S
C1498 C1479 1.368 . S
C1498 C1492 1.368 . S
C1498 C1497 1.523 . S
C1499 C1483 1.429 . S
C1499 C1495 1.429 . S
C1499 C1500 1.523 . S
C1500 C1484 1.368 . S
C1500 C1496 1.368 . S
C1500 C1499 1.523 . S
H1501 C1476 0.950 . S
H1502 C1478 0.950 . S
H1503 C1479 0.949 . S
H1504 C1481 0.950 . S
H1505 C1483 0.950 . S
C1506 C1507 1.349 . S
C1506 C1508 1.327 . S
C1506 H1531 0.950 . S
C1507 C1506 1.349 . S
C1507 C1523 1.349 . S
C1508 C1506 1.327 . S
C1508 C1527 1.429 . S
C1508 H1532 0.950 . S
C1509 C1526 1.574 . S
C1509 C1528 1.368 . S
C1509 H1533 0.949 . S
H1510 C1514 0.949 . S
C1511 C1512 1.349 . S
C1511 C1513 1.327 . S
C1511 H1534 0.950 . S
C1512 C1511 1.349 . S
C1512 C1524 1.349 . S
C1513 C1511 1.327 . S
C1513 C1529 1.429 . S
C1513 H1535 0.950 . S
C1514 H1510 0.949 . S
C1514 C1522 1.574 . S
C1514 C1530 1.368 . S
H1515 C1523 0.950 . S
H1516 C1521 0.950 . S
H1517 C1522 0.949 . S
H1518 C1524 0.950 . S
H1519 C1525 0.950 . S
H1520 C1526 0.949 . S
C1521 H1516 0.950 . S
C1521 C1523 1.327 . S
C1521 C1527 1.429 . S
C1522 C1514 1.574 . S
C1522 H1517 0.949 . S
C1522 C1528 1.368 . S
C1523 C1507 1.349 . S
C1523 H1515 0.950 . S
C1523 C1521 1.327 . S
C1524 C1512 1.349 . S
C1524 H1518 0.950 . S
C1524 C1525 1.327 . S
C1525 H1519 0.950 . S
C1525 C1524 1.327 . S
C1525 C1529 1.429 . S
C1526 C1509 1.574 . S
C1526 H1520 0.949 . S
C1526 C1530 1.368 . S
C1527 C1508 1.429 . S
C1527 C1521 1.429 . S
C1527 C1528 1.523 . S
C1528 C1509 1.368 . S
C1528 C1522 1.368 . S
C1528 C1527 1.523 . S
C1529 C1513 1.429 . S
C1529 C1525 1.429 . S
C1529 C1530 1.523 . S
C1530 C1514 1.368 . S
C1530 C1526 1.368 . S
C1530 C1529 1.523 . S
H1531 C1506 0.950 . S
H1532 C1508 0.950 . S
H1533 C1509 0.949 . S
H1534 C1511 0.950 . S
H1535 C1513 0.950 . S
C1536 C1537 1.349 . S
C1536 C1538 1.327 . S
C1536 H1561 0.950 . S
C1537 C1536 1.349 . S
C1537 C1553 1.349 . S
C1538 C1536 1.327 . S
C1538 C1557 1.429 . S
C1538 H1562 0.950 . S
C1539 C1556 1.574 . S
C1539 C1558 1.368 . S
C1539 H1563 0.949 . S
H1540 C1544 0.949 . S
C1541 C1542 1.349 . S
C1541 C1543 1.327 . S
C1541 H1564 0.950 . S
C1542 C1541 1.349 . S
C1542 C1554 1.349 . S
C1543 C1541 1.327 . S
C1543 C1559 1.429 . S
C1543 H1565 0.950 . S
C1544 H1540 0.949 . S
C1544 C1552 1.574 . S
C1544 C1560 1.368 . S
H1545 C1553 0.950 . S
H1546 C1551 0.950 . S
H1547 C1552 0.949 . S
H1548 C1554 0.950 . S
H1549 C1555 0.950 . S
H1550 C1556 0.949 . S
C1551 H1546 0.950 . S
C1551 C1553 1.327 . S
C1551 C1557 1.429 . S
C1552 C1544 1.574 . S
C1552 H1547 0.949 . S
C1552 C1558 1.368 . S
C1553 C1537 1.349 . S
C1553 H1545 0.950 . S
C1553 C1551 1.327 . S
C1554 C1542 1.349 . S
C1554 H1548 0.950 . S
C1554 C1555 1.327 . S
C1555 H1549 0.950 . S
C1555 C1554 1.327 . S
C1555 C1559 1.429 . S
C1556 C1539 1.574 . S
C1556 H1550 0.949 . S
C1556 C1560 1.368 . S
C1557 C1538 1.429 . S
C1557 C1551 1.429 . S
C1557 C1558 1.523 . S
C1558 C1539 1.368 . S
C1558 C1552 1.368 . S
C1558 C1557 1.523 . S
C1559 C1543 1.429 . S
C1559 C1555 1.429 . S
C1559 C1560 1.523 . S
C1560 C1544 1.368 . S
C1560 C1556 1.368 . S
C1560 C1559 1.523 . S
H1561 C1536 0.950 . S
H1562 C1538 0.950 . S
H1563 C1539 0.949 . S
H1564 C1541 0.950 . S
H1565 C1543 0.950 . S
C1566 C1567 1.349 . S
C1566 C1568 1.327 . S
C1566 H1591 0.950 . S
C1567 C1566 1.349 . S
C1567 C1583 1.349 . S
C1568 C1566 1.327 . S
C1568 C1587 1.429 . S
C1568 H1592 0.950 . S
C1569 C1586 1.574 . S
C1569 C1588 1.368 . S
C1569 H1593 0.949 . S
H1570 C1574 0.949 . S
C1571 C1572 1.349 . S
C1571 C1573 1.327 . S
C1571 H1594 0.950 . S
C1572 C1571 1.349 . S
C1572 C1584 1.349 . S
C1573 C1571 1.327 . S
C1573 C1589 1.429 . S
C1573 H1595 0.950 . S
C1574 H1570 0.949 . S
C1574 C1582 1.574 . S
C1574 C1590 1.368 . S
H1575 C1583 0.950 . S
H1576 C1581 0.950 . S
H1577 C1582 0.949 . S
H1578 C1584 0.950 . S
H1579 C1585 0.950 . S
H1580 C1586 0.949 . S
C1581 H1576 0.950 . S
C1581 C1583 1.327 . S
C1581 C1587 1.429 . S
C1582 C1574 1.574 . S
C1582 H1577 0.949 . S
C1582 C1588 1.368 . S
C1583 C1567 1.349 . S
C1583 H1575 0.950 . S
C1583 C1581 1.327 . S
C1584 C1572 1.349 . S
C1584 H1578 0.950 . S
C1584 C1585 1.327 . S
C1585 H1579 0.950 . S
C1585 C1584 1.327 . S
C1585 C1589 1.429 . S
C1586 C1569 1.574 . S
C1586 H1580 0.949 . S
C1586 C1590 1.368 . S
C1587 C1568 1.429 . S
C1587 C1581 1.429 . S
C1587 C1588 1.523 . S
C1588 C1569 1.368 . S
C1588 C1582 1.368 . S
C1588 C1587 1.523 . S
C1589 C1573 1.429 . S
C1589 C1585 1.429 . S
C1589 C1590 1.523 . S
C1590 C1574 1.368 . S
C1590 C1586 1.368 . S
C1590 C1589 1.523 . S
H1591 C1566 0.950 . S
H1592 C1568 0.950 . S
H1593 C1569 0.949 . S
H1594 C1571 0.950 . S
H1595 C1573 0.950 . S
C1596 C1597 1.349 . S
C1596 C1598 1.327 . S
C1596 H1621 0.950 . S
C1597 C1596 1.349 . S
C1597 C1613 1.349 . S
C1598 C1596 1.327 . S
C1598 C1617 1.429 . S
C1598 H1622 0.950 . S
C1599 C1616 1.574 . S
C1599 C1618 1.368 . S
C1599 H1623 0.949 . S
H1600 C1604 0.949 . S
C1601 C1602 1.349 . S
C1601 C1603 1.327 . S
C1601 H1624 0.950 . S
C1602 C1601 1.349 . S
C1602 C1614 1.349 . S
C1603 C1601 1.327 . S
C1603 C1619 1.429 . S
C1603 H1625 0.950 . S
C1604 H1600 0.949 . S
C1604 C1612 1.574 . S
C1604 C1620 1.368 . S
H1605 C1613 0.950 . S
H1606 C1611 0.950 . S
H1607 C1612 0.949 . S
H1608 C1614 0.950 . S
H1609 C1615 0.950 . S
H1610 C1616 0.949 . S
C1611 H1606 0.950 . S
C1611 C1613 1.327 . S
C1611 C1617 1.429 . S
C1612 C1604 1.574 . S
C1612 H1607 0.949 . S
C1612 C1618 1.368 . S
C1613 C1597 1.349 . S
C1613 H1605 0.950 . S
C1613 C1611 1.327 . S
C1614 C1602 1.349 . S
C1614 H1608 0.950 . S
C1614 C1615 1.327 . S
C1615 H1609 0.950 . S
C1615 C1614 1.327 . S
C1615 C1619 1.429 . S
C1616 C1599 1.574 . S
C1616 H1610 0.949 . S
C1616 C1620 1.368 . S
C1617 C1598 1.429 . S
C1617 C1611 1.429 . S
C1617 C1618 1.523 . S
C1618 C1599 1.368 . S
C1618 C1612 1.368 . S
C1618 C1617 1.523 . S
C1619 C1603 1.429 . S
C1619 C1615 1.429 . S
C1619 C1620 1.523 . S
C1620 C1604 1.368 . S
C1620 C1616 1.368 . S
C1620 C1619 1.523 . S
H1621 C1596 0.950 . S
H1622 C1598 0.950 . S
H1623 C1599 0.949 . S
H1624 C1601 0.950 . S
H1625 C1603 0.950 . S
C1626 C1627 1.349 . S
C1626 C1628 1.327 . S
C1626 H1651 0.950 . S
C1627 C1626 1.349 . S
C1627 C1643 1.349 . S
C1628 C1626 1.327 . S
C1628 C1647 1.429 . S
C1628 H1652 0.950 . S
C1629 C1646 1.574 . S
C1629 C1648 1.368 . S
C1629 H1653 0.949 . S
H1630 C1634 0.949 . S
C1631 C1632 1.349 . S
C1631 C1633 1.327 . S
C1631 H1654 0.950 . S
C1632 C1631 1.349 . S
C1632 C1644 1.349 . S
C1633 C1631 1.327 . S
C1633 C1649 1.429 . S
C1633 H1655 0.950 . S
C1634 H1630 0.949 . S
C1634 C1642 1.574 . S
C1634 C1650 1.368 . S
H1635 C1643 0.950 . S
H1636 C1641 0.950 . S
H1637 C1642 0.949 . S
H1638 C1644 0.950 . S
H1639 C1645 0.950 . S
H1640 C1646 0.949 . S
C1641 H1636 0.950 . S
C1641 C1643 1.327 . S
C1641 C1647 1.429 . S
C1642 C1634 1.574 . S
C1642 H1637 0.949 . S
C1642 C1648 1.368 . S
C1643 C1627 1.349 . S
C1643 H1635 0.950 . S
C1643 C1641 1.327 . S
C1644 C1632 1.349 . S
C1644 H1638 0.950 . S
C1644 C1645 1.327 . S
C1645 H1639 0.950 . S
C1645 C1644 1.327 . S
C1645 C1649 1.429 . S
C1646 C1629 1.574 . S
C1646 H1640 0.949 . S
C1646 C1650 1.368 . S
C1647 C1628 1.429 . S
C1647 C1641 1.429 . S
C1647 C1648 1.523 . S
C1648 C1629 1.368 . S
C1648 C1642 1.368 . S
C1648 C1647 1.523 . S
C1649 C1633 1.429 . S
C1649 C1645 1.429 . S
C1649 C1650 1.523 . S
C1650 C1634 1.368 . S
C1650 C1646 1.368 . S
C1650 C1649 1.523 . S
H1651 C1626 0.950 . S
H1652 C1628 0.950 . S
H1653 C1629 0.949 . S
H1654 C1631 0.950 . S
H1655 C1633 0.950 . S
C1656 C1657 1.349 . S
C1656 C1658 1.327 . S
C1656 H1681 0.950 . S
C1657 C1656 1.349 . S
C1657 C1673 1.349 . S
C1658 C1656 1.327 . S
C1658 C1677 1.429 . S
C1658 H1682 0.950 . S
C1659 C1676 1.574 . S
C1659 C1678 1.368 . S
C1659 H1683 0.949 . S
H1660 C1664 0.949 . S
C1661 C1662 1.349 . S
C1661 C1663 1.327 . S
C1661 H1684 0.950 . S
C1662 C1661 1.349 . S
C1662 C1674 1.349 . S
C1663 C1661 1.327 . S
C1663 C1679 1.429 . S
C1663 H1685 0.950 . S
C1664 H1660 0.949 . S
C1664 C1672 1.574 . S
C1664 C1680 1.368 . S
H1665 C1673 0.950 . S
H1666 C1671 0.950 . S
H1667 C1672 0.949 . S
H1668 C1674 0.950 . S
H1669 C1675 0.950 . S
H1670 C1676 0.949 . S
C1671 H1666 0.950 . S
C1671 C1673 1.327 . S
C1671 C1677 1.429 . S
C1672 C1664 1.574 . S
C1672 H1667 0.949 . S
C1672 C1678 1.368 . S
C1673 C1657 1.349 . S
C1673 H1665 0.950 . S
C1673 C1671 1.327 . S
C1674 C1662 1.349 . S
C1674 H1668 0.950 . S
C1674 C1675 1.327 . S
C1675 H1669 0.950 . S
C1675 C1674 1.327 . S
C1675 C1679 1.429 . S
C1676 C1659 1.574 . S
C1676 H1670 0.949 . S
C1676 C1680 1.368 . S
C1677 C1658 1.429 . S
C1677 C1671 1.429 . S
C1677 C1678 1.523 . S
C1678 C1659 1.368 . S
C1678 C1672 1.368 . S
C1678 C1677 1.523 . S
C1679 C1663 1.429 . S
C1679 C1675 1.429 . S
C1679 C1680 1.523 . S
C1680 C1664 1.368 . S
C1680 C1676 1.368 . S
C1680 C1679 1.523 . S
H1681 C1656 0.950 . S
H1682 C1658 0.950 . S
H1683 C1659 0.949 . S
H1684 C1661 0.950 . S
H1685 C1663 0.950 . S
C1686 C1687 1.349 . S
C1686 C1688 1.327 . S
C1686 H1711 0.950 . S
C1687 C1686 1.349 . S
C1687 C1703 1.349 . S
C1688 C1686 1.327 . S
C1688 C1707 1.429 . S
C1688 H1712 0.950 . S
C1689 C1706 1.574 . S
C1689 C1708 1.368 . S
C1689 H1713 0.949 . S
H1690 C1694 0.949 . S
C1691 C1692 1.349 . S
C1691 C1693 1.327 . S
C1691 H1714 0.950 . S
C1692 C1691 1.349 . S
C1692 C1704 1.349 . S
C1693 C1691 1.327 . S
C1693 C1709 1.429 . S
C1693 H1715 0.950 . S
C1694 H1690 0.949 . S
C1694 C1702 1.574 . S
C1694 C1710 1.368 . S
H1695 C1703 0.950 . S
H1696 C1701 0.950 . S
H1697 C1702 0.949 . S
H1698 C1704 0.950 . S
H1699 C1705 0.950 . S
H1700 C1706 0.949 . S
C1701 H1696 0.950 . S
C1701 C1703 1.327 . S
C1701 C1707 1.429 . S
C1702 C1694 1.574 . S
C1702 H1697 0.949 . S
C1702 C1708 1.368 . S
C1703 C1687 1.349 . S
C1703 H1695 0.950 . S
C1703 C1701 1.327 . S
C1704 C1692 1.349 . S
C1704 H1698 0.950 . S
C1704 C1705 1.327 . S
C1705 H1699 0.950 . S
C1705 C1704 1.327 . S
C1705 C1709 1.429 . S
C1706 C1689 1.574 . S
C1706 H1700 0.949 . S
C1706 C1710 1.368 . S
C1707 C1688 1.429 . S
C1707 C1701 1.429 . S
C1707 C1708 1.523 . S
C1708 C1689 1.368 . S
C1708 C1702 1.368 . S
C1708 C1707 1.523 . S
C1709 C1693 1.429 . S
C1709 C1705 1.429 . S
C1709 C1710 1.523 . S
C1710 C1694 1.368 . S
C1710 C1706 1.368 . S
C1710 C1709 1.523 . S
H1711 C1686 0.950 . S
H1712 C1688 0.950 . S
H1713 C1689 0.949 . S
H1714 C1691 0.950 . S
H1715 C1693 0.950 . S
C1716 C1717 1.349 . S
C1716 C1718 1.327 . S
C1716 H1741 0.950 . S
C1717 C1716 1.349 . S
C1717 C1733 1.349 . S
C1718 C1716 1.327 . S
C1718 C1737 1.429 . S
C1718 H1742 0.950 . S
C1719 C1736 1.574 . S
C1719 C1738 1.368 . S
C1719 H1743 0.949 . S
H1720 C1724 0.949 . S
C1721 C1722 1.349 . S
C1721 C1723 1.327 . S
C1721 H1744 0.950 . S
C1722 C1721 1.349 . S
C1722 C1734 1.349 . S
C1723 C1721 1.327 . S
C1723 C1739 1.429 . S
C1723 H1745 0.950 . S
C1724 H1720 0.949 . S
C1724 C1732 1.574 . S
C1724 C1740 1.368 . S
H1725 C1733 0.950 . S
H1726 C1731 0.950 . S
H1727 C1732 0.949 . S
H1728 C1734 0.950 . S
H1729 C1735 0.950 . S
H1730 C1736 0.949 . S
C1731 H1726 0.950 . S
C1731 C1733 1.327 . S
C1731 C1737 1.429 . S
C1732 C1724 1.574 . S
C1732 H1727 0.949 . S
C1732 C1738 1.368 . S
C1733 C1717 1.349 . S
C1733 H1725 0.950 . S
C1733 C1731 1.327 . S
C1734 C1722 1.349 . S
C1734 H1728 0.950 . S
C1734 C1735 1.327 . S
C1735 H1729 0.950 . S
C1735 C1734 1.327 . S
C1735 C1739 1.429 . S
C1736 C1719 1.574 . S
C1736 H1730 0.949 . S
C1736 C1740 1.368 . S
C1737 C1718 1.429 . S
C1737 C1731 1.429 . S
C1737 C1738 1.523 . S
C1738 C1719 1.368 . S
C1738 C1732 1.368 . S
C1738 C1737 1.523 . S
C1739 C1723 1.429 . S
C1739 C1735 1.429 . S
C1739 C1740 1.523 . S
C1740 C1724 1.368 . S
C1740 C1736 1.368 . S
C1740 C1739 1.523 . S
H1741 C1716 0.950 . S
H1742 C1718 0.950 . S
H1743 C1719 0.949 . S
H1744 C1721 0.950 . S
H1745 C1723 0.950 . S
C1746 C1747 1.349 . S
C1746 C1748 1.327 . S
C1746 H1771 0.950 . S
C1747 C1746 1.349 . S
C1747 C1763 1.349 . S
C1748 C1746 1.327 . S
C1748 C1767 1.429 . S
C1748 H1772 0.950 . S
C1749 C1766 1.574 . S
C1749 C1768 1.368 . S
C1749 H1773 0.949 . S
H1750 C1754 0.949 . S
C1751 C1752 1.349 . S
C1751 C1753 1.327 . S
C1751 H1774 0.950 . S
C1752 C1751 1.349 . S
C1752 C1764 1.349 . S
C1753 C1751 1.327 . S
C1753 C1769 1.429 . S
C1753 H1775 0.950 . S
C1754 H1750 0.949 . S
C1754 C1762 1.574 . S
C1754 C1770 1.368 . S
H1755 C1763 0.950 . S
H1756 C1761 0.950 . S
H1757 C1762 0.949 . S
H1758 C1764 0.950 . S
H1759 C1765 0.950 . S
H1760 C1766 0.949 . S
C1761 H1756 0.950 . S
C1761 C1763 1.327 . S
C1761 C1767 1.429 . S
C1762 C1754 1.574 . S
C1762 H1757 0.949 . S
C1762 C1768 1.368 . S
C1763 C1747 1.349 . S
C1763 H1755 0.950 . S
C1763 C1761 1.327 . S
C1764 C1752 1.349 . S
C1764 H1758 0.950 . S
C1764 C1765 1.327 . S
C1765 H1759 0.950 . S
C1765 C1764 1.327 . S
C1765 C1769 1.429 . S
C1766 C1749 1.574 . S
C1766 H1760 0.949 . S
C1766 C1770 1.368 . S
C1767 C1748 1.429 . S
C1767 C1761 1.429 . S
C1767 C1768 1.523 . S
C1768 C1749 1.368 . S
C1768 C1762 1.368 . S
C1768 C1767 1.523 . S
C1769 C1753 1.429 . S
C1769 C1765 1.429 . S
C1769 C1770 1.523 . S
C1770 C1754 1.368 . S
C1770 C1766 1.368 . S
C1770 C1769 1.523 . S
H1771 C1746 0.950 . S
H1772 C1748 0.950 . S
H1773 C1749 0.949 . S
H1774 C1751 0.950 . S
H1775 C1753 0.950 . S
C337 C7 1.273 . S
C342 C105 1.273 . S
C367 C119 1.273 . S
C372 C21 1.273 . S
C397 C35 1.273 . S
C402 C133 1.273 . S
C427 C49 1.273 . S
C432 C147 1.273 . S
C457 C161 1.273 . S
C462 C63 1.273 . S
C487 C77 1.273 . S
C492 C91 1.273 . S
C517 C175 1.273 . S
C522 C273 1.273 . S
C547 C189 1.273 . S
C552 C287 1.273 . S
C577 C301 1.273 . S
C582 C203 1.273 . S
C607 C217 1.273 . S
C612 C315 1.273 . S
C637 C231 1.273 . S
C642 C329 1.273 . S
C667 C259 1.273 . S
C672 C245 1.273 . S
C697 C13 1.163 . S
C702 C125 1.163 . S
C727 C139 1.163 . S
C732 C27 1.163 . S
C757 C153 1.163 . S
C762 C41 1.163 . S
C787 C55 1.163 . S
C792 C167 1.163 . S
C817 C69 1.163 . S
C822 C97 1.163 . S
C847 C83 1.163 . S
C852 C111 1.163 . S
C877 C293 1.163 . S
C882 C181 1.163 . S
C907 C195 1.163 . S
C912 C307 1.163 . S
C937 C321 1.163 . S
C942 C209 1.163 . S
C967 C335 1.163 . S
C972 C223 1.163 . S
C997 C265 1.163 . S
C1002 C237 1.163 . S
C1027 C251 1.163 . S
C1032 C279 1.163 . S
C1057 C11 1.518 . S
C1062 C221 1.518 . S
C1087 C235 1.518 . S
C1092 C25 1.518 . S
C1117 C249 1.518 . S
C1122 C39 1.518 . S
C1147 C53 1.518 . S
C1152 C179 1.518 . S
C1177 C67 1.518 . S
C1182 C193 1.518 . S
C1207 C207 1.518 . S
C1212 C81 1.518 . S
C1237 C305 1.518 . S
C1242 C95 1.518 . S
C1267 C319 1.518 . S
C1272 C109 1.518 . S
C1297 C333 1.518 . S
C1302 C123 1.518 . S
C1327 C263 1.518 . S
C1332 C137 1.518 . S
C1357 C151 1.518 . S
C1362 C277 1.518 . S
C1387 C165 1.518 . S
C1392 C291 1.518 . S
C1417 C8 1.485 . S
C1422 C148 1.485 . S
C1447 C162 1.485 . S
C1452 C22 1.485 . S
C1477 C92 1.485 . S
C1482 C36 1.485 . S
C1507 C50 1.485 . S
C1512 C106 1.485 . S
C1537 C64 1.485 . S
C1542 C120 1.485 . S
C1567 C78 1.485 . S
C1572 C134 1.485 . S
C1597 C176 1.485 . S
C1602 C316 1.485 . S
C1627 C190 1.485 . S
C1632 C330 1.485 . S
C1657 C204 1.485 . S
C1662 C260 1.485 . S
C1687 C274 1.485 . S
C1692 C218 1.485 . S
C1717 C232 1.485 . S
C1722 C288 1.485 . S
C1747 C246 1.485 . S
C1752 C302 1.485 . S
