# Generated by pormake.
# Topology acs-a, (4)-cn, num edge types: 1
# Building blocks:
#     Node 0, Type 0, BuildingBlock: KUFVIS_clean_sbu_0, # of connection points: 4
#     Node 1, Type 0, BuildingBlock: KUFVIS_clean_sbu_0, # of connection points: 4
#     Node 2, Type 0, BuildingBlock: KUFVIS_clean_sbu_0, # of connection points: 4
#     Node 3, Type 0, BuildingBlock: KUFVIS_clean_sbu_0, # of connection points: 4
#     Node 4, Type 0, BuildingBlock: KUFVIS_clean_sbu_0, # of connection points: 4
#     Node 5, Type 0, BuildingBlock: KUFVIS_clean_sbu_0, # of connection points: 4
#     Node 6, Type 0, BuildingBlock: KUFVIS_clean_sbu_0, # of connection points: 4
#     Node 7, Type 0, BuildingBlock: KUFVIS_clean_sbu_0, # of connection points: 4
#     Node 8, Type 0, BuildingBlock: KUFVIS_clean_sbu_0, # of connection points: 4
#     Node 9, Type 0, BuildingBlock: KUFVIS_clean_sbu_0, # of connection points: 4
#     Node 10, Type 0, BuildingBlock: KUFVIS_clean_sbu_0, # of connection points: 4
#     Node 11, Type 0, BuildingBlock: KUFVIS_clean_sbu_0, # of connection points: 4
#     Edge 12, Type (0, 0), BuildingBlock: UVAHIK_clean_linker_0, # of connection points: 2
#     Edge 13, Type (0, 0), BuildingBlock: UVAHIK_clean_linker_0, # of connection points: 2
#     Edge 14, Type (0, 0), BuildingBlock: UVAHIK_clean_linker_0, # of connection points: 2
#     Edge 15, Type (0, 0), BuildingBlock: UVAHIK_clean_linker_0, # of connection points: 2
#     Edge 16, Type (0, 0), BuildingBlock: UVAHIK_clean_linker_0, # of connection points: 2
#     Edge 17, Type (0, 0), BuildingBlock: UVAHIK_clean_linker_0, # of connection points: 2
#     Edge 18, Type (0, 0), BuildingBlock: UVAHIK_clean_linker_0, # of connection points: 2
#     Edge 19, Type (0, 0), BuildingBlock: UVAHIK_clean_linker_0, # of connection points: 2
#     Edge 20, Type (0, 0), BuildingBlock: UVAHIK_clean_linker_0, # of connection points: 2
#     Edge 21, Type (0, 0), BuildingBlock: UVAHIK_clean_linker_0, # of connection points: 2
#     Edge 22, Type (0, 0), BuildingBlock: UVAHIK_clean_linker_0, # of connection points: 2
#     Edge 23, Type (0, 0), BuildingBlock: UVAHIK_clean_linker_0, # of connection points: 2
#     Edge 24, Type (0, 0), BuildingBlock: UVAHIK_clean_linker_0, # of connection points: 2
#     Edge 25, Type (0, 0), BuildingBlock: UVAHIK_clean_linker_0, # of connection points: 2
#     Edge 26, Type (0, 0), BuildingBlock: UVAHIK_clean_linker_0, # of connection points: 2
#     Edge 27, Type (0, 0), BuildingBlock: UVAHIK_clean_linker_0, # of connection points: 2
#     Edge 28, Type (0, 0), BuildingBlock: UVAHIK_clean_linker_0, # of connection points: 2
#     Edge 29, Type (0, 0), BuildingBlock: UVAHIK_clean_linker_0, # of connection points: 2
#     Edge 30, Type (0, 0), BuildingBlock: UVAHIK_clean_linker_0, # of connection points: 2
#     Edge 31, Type (0, 0), BuildingBlock: UVAHIK_clean_linker_0, # of connection points: 2
#     Edge 32, Type (0, 0), BuildingBlock: UVAHIK_clean_linker_0, # of connection points: 2
#     Edge 33, Type (0, 0), BuildingBlock: UVAHIK_clean_linker_0, # of connection points: 2
#     Edge 34, Type (0, 0), BuildingBlock: UVAHIK_clean_linker_0, # of connection points: 2
#     Edge 35, Type (0, 0), BuildingBlock: UVAHIK_clean_linker_0, # of connection points: 2
# Relax obj value: 0.496
# Max RMSD: 0.248
# Mean RMSD: 0.224
data_MOF--net-acs-a--node1-KUFVIS_clean_sbu_0--edge1-UVAHIK_clean_linker_0
_symmetry_space_group_name_H-M    P1
_symmetry_Int_Tables_number       1
_symmetry_cell_setting            triclinic
loop_
_symmetry_equiv_pos_as_xyz
'x, y, z'
_cell_length_a     61.037925
_cell_length_b     61.052038
_cell_length_c     51.177385
_cell_angle_alpha  90.010412
_cell_angle_beta   89.997
_cell_angle_gamma 113.11958
loop_
_atom_site_label
_atom_site_type_symbol
_atom_site_fract_x
_atom_site_fract_y
_atom_site_fract_z
_atom_type_partial_charge
Mn0 Mn 0.56376 0.13851 0.08304 0.0
Mn1 Mn 0.52061 0.13539 0.126 0.0
C2 C 0.54476 0.16451 0.07966 0.0
C3 C 0.60403 0.15355 0.07179 0.0
C4 C 0.51293 0.10051 0.08145 0.0
O5 O 0.56908 0.11931 0.11309 0.0
O6 O 0.54072 0.11975 0.14121 0.0
C7 C 0.55072 0.1666 0.16747 0.0
N8 N 0.53257 0.16143 0.14996 0.0
C9 C 0.52492 0.19554 0.16338 0.0
C10 C 0.54342 0.20115 0.18168 0.0
C11 C 0.5564 0.18663 0.18369 0.0
C12 C 0.51996 0.17526 0.14786 0.0
H13 H 0.5608 0.15555 0.169 0.0
C14 C 0.5582 0.11416 0.13497 0.0
O15 O 0.58907 0.13384 0.06162 0.0
O16 O 0.59567 0.16407 0.08869 0.0
N17 N 0.50011 0.15017 0.11369 0.0
C18 C 0.48396 0.14325 0.09381 0.0
C19 C 0.47011 0.15644 0.08851 0.0
C20 C 0.47291 0.17651 0.10375 0.0
C21 C 0.48953 0.18318 0.1242 0.0
C22 C 0.50272 0.16927 0.12868 0.0
H23 H 0.48179 0.12789 0.08199 0.0
O24 O 0.55547 0.16033 0.05952 0.0
O25 O 0.54547 0.15326 0.10097 0.0
O26 O 0.53373 0.11008 0.07146 0.0
O27 O 0.50649 0.10828 0.10197 0.0
C28 C 0.49386 0.20337 0.13997 0.0
C29 C 0.51156 0.20957 0.15952 0.0
H30 H 0.54797 0.21668 0.19411 0.0
H31 H 0.57079 0.19092 0.19767 0.0
H32 H 0.45737 0.15121 0.07264 0.0
H33 H 0.46235 0.18676 0.09944 0.0
H34 H 0.48394 0.21449 0.13694 0.0
H35 H 0.515 0.22536 0.17122 0.0
Mn36 Mn 0.37367 0.54721 0.57349 0.0
Mn37 Mn 0.33485 0.49741 0.60202 0.0
C38 C 0.33376 0.53381 0.56351 0.0
C39 C 0.39505 0.58813 0.5747 0.0
C40 C 0.36916 0.49729 0.5592 0.0
O41 O 0.39191 0.54271 0.60452 0.0
O42 O 0.36388 0.51113 0.62453 0.0
C43 C 0.32253 0.5179 0.64944 0.0
N44 N 0.31566 0.50519 0.62688 0.0
C45 C 0.27476 0.49938 0.63385 0.0
C46 C 0.28137 0.51227 0.65724 0.0
C47 C 0.30536 0.52157 0.66506 0.0
C48 C 0.29259 0.49597 0.61928 0.0
H49 H 0.34098 0.52526 0.65541 0.0
C50 C 0.38472 0.52797 0.62341 0.0
O51 O 0.40223 0.57453 0.56059 0.0
O52 O 0.37554 0.57794 0.58792 0.0
N53 N 0.30614 0.48315 0.58214 0.0
C54 C 0.30308 0.47295 0.55801 0.0
C55 C 0.28028 0.46373 0.54674 0.0
C56 C 0.26089 0.46515 0.56035 0.0
C57 C 0.26448 0.47575 0.58515 0.0
C58 C 0.28756 0.48438 0.59553 0.0
H59 H 0.31796 0.47206 0.54734 0.0
O60 O 0.34961 0.54766 0.54741 0.0
O61 O 0.34196 0.52805 0.58472 0.0
O62 O 0.37775 0.51962 0.55485 0.0
O63 O 0.35335 0.48725 0.57654 0.0
C64 C 0.24618 0.47863 0.59968 0.0
C65 C 0.25131 0.4904 0.62403 0.0
H66 H 0.26823 0.5154 0.66918 0.0
H67 H 0.31062 0.53167 0.683 0.0
H68 H 0.27767 0.45571 0.52752 0.0
H69 H 0.24338 0.45826 0.55146 0.0
H70 H 0.22817 0.47218 0.59212 0.0
H71 H 0.23716 0.49283 0.63481 0.0
Mn72 Mn 0.85478 0.34681 0.07782 0.0
Mn73 Mn 0.87754 0.30607 0.09178 0.0
C74 C 0.83795 0.30926 0.05978 0.0
C75 C 0.82989 0.36667 0.08571 0.0
C76 C 0.90173 0.34799 0.05586 0.0
O77 O 0.87363 0.3596 0.11089 0.0
O78 O 0.88692 0.33073 0.12004 0.0
C79 C 0.8501 0.28471 0.13954 0.0
N80 N 0.85642 0.28228 0.11452 0.0
C81 C 0.83141 0.24044 0.11448 0.0
C82 C 0.82474 0.24248 0.14029 0.0
C83 C 0.83413 0.26471 0.15287 0.0
C84 C 0.84766 0.26092 0.10231 0.0
H85 H 0.85711 0.30179 0.14922 0.0
C86 C 0.8848 0.35039 0.12537 0.0
O87 O 0.84959 0.37653 0.07276 0.0
O88 O 0.82477 0.3453 0.09467 0.0
N89 N 0.86903 0.28133 0.06608 0.0
C90 C 0.87575 0.28282 0.04053 0.0
C91 C 0.86707 0.26233 0.02482 0.0
C92 C 0.85154 0.24057 0.0355 0.0
C93 C 0.84484 0.23949 0.06183 0.0
C94 C 0.85427 0.26044 0.07661 0.0
H95 H 0.88747 0.29956 0.03215 0.0
O96 O 0.83577 0.32727 0.04823 0.0
O97 O 0.85062 0.31412 0.08107 0.0
O98 O 0.88533 0.3558 0.05726 0.0
O99 O 0.90087 0.32937 0.06793 0.0
C100 C 0.82874 0.21859 0.0738 0.0
C101 C 0.82206 0.21906 0.10011 0.0
H102 H 0.81221 0.22715 0.15054 0.0
H103 H 0.82896 0.26644 0.17274 0.0
H104 H 0.8722 0.26334 0.00447 0.0
H105 H 0.84468 0.22486 0.02323 0.0
H106 H 0.82113 0.20213 0.06283 0.0
H107 H 0.8094 0.20295 0.10898 0.0
Mn108 Mn 0.43498 0.86296 0.59195 0.0
Mn109 Mn 0.47928 0.85929 0.62894 0.0
C110 C 0.44795 0.83265 0.58512 0.0
C111 C 0.39438 0.85361 0.58583 0.0
C112 C 0.48789 0.8943 0.58432 0.0
O113 O 0.43616 0.8842 0.62291 0.0
O114 O 0.46497 0.87942 0.64694 0.0
C115 C 0.45014 0.83205 0.67333 0.0
N116 N 0.46607 0.8342 0.65386 0.0
C117 C 0.46846 0.79709 0.66584 0.0
C118 C 0.45222 0.79456 0.68614 0.0
C119 C 0.44298 0.8121 0.68986 0.0
C120 C 0.47503 0.81741 0.65007 0.0
H121 H 0.44291 0.84542 0.6762 0.0
C122 C 0.4491 0.88798 0.64335 0.0
O123 O 0.41034 0.87158 0.57385 0.0
O124 O 0.40204 0.84147 0.60144 0.0
N125 N 0.4944 0.84002 0.61408 0.0
C126 C 0.50874 0.84439 0.59265 0.0
C127 C 0.51889 0.82817 0.58574 0.0
C128 C 0.5143 0.80771 0.60098 0.0
C129 C 0.49963 0.80368 0.62305 0.0
C130 C 0.49015 0.82056 0.6291 0.0
H131 H 0.51224 0.86001 0.58077 0.0
O132 O 0.43672 0.83867 0.56679 0.0
O133 O 0.4511 0.84446 0.60688 0.0
O134 O 0.46613 0.88801 0.57745 0.0
O135 O 0.49453 0.88497 0.60347 0.0
C136 C 0.49369 0.78336 0.63901 0.0
C137 C 0.47806 0.78003 0.66034 0.0
H138 H 0.44656 0.77914 0.69885 0.0
H139 H 0.43034 0.81021 0.7054 0.0
H140 H 0.53014 0.83136 0.56863 0.0
H141 H 0.52198 0.79512 0.59544 0.0
H142 H 0.50074 0.77 0.6348 0.0
H143 H 0.47332 0.76414 0.6722 0.0
Mn144 Mn 0.60651 0.44391 0.08117 0.0
Mn145 Mn 0.64723 0.49387 0.10762 0.0
C146 C 0.64649 0.45362 0.07408 0.0
C147 C 0.58252 0.40354 0.0842 0.0
C148 C 0.61635 0.4939 0.06126 0.0
O149 O 0.58806 0.45216 0.10966 0.0
O150 O 0.61706 0.484 0.12818 0.0
C151 C 0.65466 0.47514 0.15872 0.0
N152 N 0.66359 0.48597 0.13557 0.0
C153 C 0.70295 0.48889 0.14669 0.0
C154 C 0.69421 0.4779 0.17072 0.0
C155 C 0.66996 0.471 0.17675 0.0
C156 C 0.68693 0.49287 0.12965 0.0
H157 H 0.636 0.46961 0.16335 0.0
C158 C 0.59559 0.46833 0.12714 0.0
O159 O 0.57732 0.41732 0.06821 0.0
O160 O 0.60134 0.41333 0.09861 0.0
N161 N 0.67708 0.50453 0.08955 0.0
C162 C 0.68222 0.51304 0.06472 0.0
C163 C 0.70551 0.51975 0.05515 0.0
C164 C 0.72324 0.5176 0.07117 0.0
C165 C 0.71752 0.50879 0.09666 0.0
C166 C 0.69407 0.50263 0.10524 0.0
H167 H 0.6686 0.5145 0.05222 0.0
O168 O 0.63079 0.4397 0.0579 0.0
O169 O 0.63818 0.4617 0.09353 0.0
O170 O 0.60592 0.47137 0.05903 0.0
O171 O 0.63184 0.50411 0.07885 0.0
C172 C 0.73403 0.50529 0.11365 0.0
C173 C 0.72676 0.49539 0.13866 0.0
H174 H 0.70588 0.47441 0.18454 0.0
H175 H 0.66305 0.46238 0.19519 0.0
H176 H 0.70975 0.52641 0.0354 0.0
H177 H 0.74112 0.52253 0.06361 0.0
H178 H 0.75228 0.50981 0.10752 0.0
H179 H 0.73953 0.49244 0.15137 0.0
Mn180 Mn 0.14029 0.65594 0.562 0.0
Mn181 Mn 0.12286 0.69576 0.59129 0.0
C182 C 0.16076 0.69612 0.55402 0.0
C183 C 0.16178 0.63184 0.56194 0.0
C184 C 0.09497 0.66249 0.54812 0.0
O185 O 0.11999 0.63768 0.59263 0.0
O186 O 0.11313 0.66693 0.61383 0.0
C187 C 0.15328 0.70783 0.6385 0.0
N188 N 0.14625 0.71472 0.61579 0.0
C189 C 0.17371 0.75531 0.62207 0.0
C190 C 0.18118 0.74866 0.64558 0.0
C191 C 0.17091 0.72482 0.65383 0.0
C192 C 0.15585 0.73766 0.60778 0.0
H193 H 0.14555 0.68948 0.6448 0.0
C194 C 0.11184 0.64548 0.61195 0.0
O195 O 0.1426 0.62658 0.54807 0.0
O196 O 0.16846 0.65107 0.57603 0.0
N197 N 0.13192 0.72428 0.57095 0.0
C198 C 0.12415 0.72733 0.54682 0.0
C199 C 0.13344 0.74997 0.53517 0.0
C200 C 0.15067 0.76919 0.54842 0.0
C201 C 0.15843 0.76561 0.57323 0.0
C202 C 0.14834 0.7427 0.58397 0.0
H203 H 0.11108 0.71256 0.53645 0.0
O204 O 0.16165 0.68051 0.53722 0.0
O205 O 0.14743 0.6875 0.57436 0.0
O206 O 0.11075 0.65451 0.54256 0.0
O207 O 0.09724 0.67731 0.56654 0.0
C208 C 0.17619 0.78373 0.58743 0.0
C209 C 0.18379 0.7786 0.61186 0.0
H210 H 0.19498 0.76166 0.6573 0.0
H211 H 0.17667 0.71952 0.67188 0.0
H212 H 0.12746 0.75256 0.51596 0.0
H213 H 0.15797 0.78657 0.53925 0.0
H214 H 0.18437 0.8016 0.57958 0.0
H215 H 0.19771 0.79259 0.62241 0.0
Mn216 Mn 0.86371 0.43109 0.42169 0.0
Mn217 Mn 0.86335 0.47347 0.37956 0.0
C218 C 0.83245 0.44347 0.42215 0.0
C219 C 0.8542 0.39088 0.43041 0.0
C220 C 0.89534 0.48379 0.42729 0.0
O221 O 0.88768 0.43136 0.39388 0.0
O222 O 0.88354 0.45756 0.36507 0.0
C223 C 0.8383 0.44381 0.3345 0.0
N224 N 0.83969 0.46023 0.35314 0.0
C225 C 0.80398 0.4635 0.33727 0.0
C226 C 0.80225 0.44673 0.31781 0.0
C227 C 0.81948 0.43684 0.31644 0.0
C228 C 0.82332 0.47002 0.35451 0.0
H229 H 0.85143 0.43606 0.33347 0.0
C230 C 0.89217 0.4424 0.37205 0.0
O231 O 0.87079 0.4074 0.44349 0.0
O232 O 0.84343 0.39775 0.41236 0.0
N233 N 0.84396 0.48963 0.3915 0.0
C234 C 0.84695 0.50377 0.41291 0.0
C235 C 0.83046 0.51404 0.41803 0.0
C236 C 0.8111 0.5097 0.40107 0.0
C237 C 0.8084 0.49509 0.37915 0.0
C238 C 0.82551 0.4855 0.37493 0.0
H239 H 0.8617 0.50702 0.42612 0.0
O240 O 0.83698 0.43334 0.44257 0.0
O241 O 0.84655 0.4462 0.40229 0.0
O242 O 0.88718 0.46279 0.43685 0.0
O243 O 0.88809 0.48923 0.40584 0.0
C244 C 0.78906 0.48917 0.36171 0.0
C245 C 0.78688 0.47342 0.34076 0.0
H246 H 0.7876 0.44109 0.30403 0.0
H247 H 0.81818 0.42378 0.30157 0.0
H248 H 0.83259 0.52519 0.43507 0.0
H249 H 0.79827 0.51745 0.40524 0.0
H250 H 0.77553 0.4963 0.3645 0.0
H251 H 0.77171 0.46868 0.32776 0.0
Mn252 Mn 0.34577 0.85678 0.93795 0.0
Mn253 Mn 0.3051 0.8742 0.91066 0.0
C254 C 0.30575 0.83499 0.94536 0.0
C255 C 0.37123 0.8368 0.93623 0.0
C256 C 0.33766 0.90044 0.95504 0.0
O257 O 0.36371 0.87894 0.90836 0.0
O258 O 0.33384 0.88533 0.88796 0.0
C259 C 0.29344 0.84575 0.862 0.0
N260 N 0.2864 0.85163 0.88529 0.0
C261 C 0.24601 0.82393 0.87834 0.0
C262 C 0.2528 0.81764 0.85424 0.0
C263 C 0.27663 0.8286 0.84604 0.0
C264 C 0.26349 0.84134 0.89327 0.0
H265 H 0.31177 0.85401 0.85572 0.0
C266 C 0.35552 0.88724 0.8895 0.0
O267 O 0.37556 0.85513 0.95126 0.0
O268 O 0.35205 0.83001 0.92202 0.0
N269 N 0.27659 0.86375 0.93119 0.0
C270 C 0.27339 0.8704 0.95583 0.0
C271 C 0.25077 0.86029 0.96744 0.0
C272 C 0.23169 0.84343 0.95362 0.0
C273 C 0.23542 0.83684 0.92829 0.0
C274 C 0.25831 0.84769 0.91764 0.0
H275 H 0.28802 0.8832 0.96662 0.0
O276 O 0.32151 0.83365 0.96167 0.0
O277 O 0.31411 0.84934 0.92574 0.0
O278 O 0.34593 0.88471 0.95946 0.0
O279 O 0.3232 0.89901 0.93649 0.0
C280 C 0.21747 0.81952 0.91346 0.0
C281 C 0.22274 0.81311 0.88848 0.0
H282 H 0.23995 0.80423 0.84201 0.0
H283 H 0.28204 0.82375 0.82753 0.0
H284 H 0.24806 0.86537 0.98705 0.0
H285 H 0.21433 0.8355 0.96275 0.0
H286 H 0.19962 0.81077 0.92123 0.0
H287 H 0.20887 0.79951 0.87743 0.0
Mn288 Mn 0.54071 0.37202 0.41461 0.0
Mn289 Mn 0.48788 0.33577 0.38955 0.0
C290 C 0.52572 0.33179 0.4235 0.0
C291 C 0.58201 0.3899 0.41214 0.0
C292 C 0.49256 0.36943 0.43451 0.0
O293 O 0.53622 0.39135 0.38462 0.0
O294 O 0.50078 0.3659 0.36873 0.0
C295 C 0.50379 0.32529 0.33813 0.0
N296 N 0.4929 0.31753 0.36155 0.0
C297 C 0.48515 0.2768 0.3507 0.0
C298 C 0.49618 0.28435 0.32642 0.0
C299 C 0.50553 0.3087 0.32012 0.0
C300 C 0.48362 0.29412 0.36772 0.0
H301 H 0.51117 0.344 0.33327 0.0
C302 C 0.51905 0.38577 0.36832 0.0
O303 O 0.57022 0.39901 0.4266 0.0
O304 O 0.5698 0.3712 0.39851 0.0
N305 N 0.47431 0.30613 0.40789 0.0
C306 C 0.46601 0.30204 0.43289 0.0
C307 C 0.45698 0.27869 0.44271 0.0
C308 C 0.45664 0.25983 0.42676 0.0
C309 C 0.46534 0.26449 0.40112 0.0
C310 C 0.47391 0.28809 0.39232 0.0
H311 H 0.46648 0.31651 0.44532 0.0
O312 O 0.54044 0.3469 0.43961 0.0
O313 O 0.51938 0.341 0.40345 0.0
O314 O 0.51524 0.37821 0.43553 0.0
O315 O 0.48056 0.35325 0.41835 0.0
C316 C 0.46633 0.24672 0.38416 0.0
C317 C 0.4762 0.25287 0.35896 0.0
H318 H 0.49781 0.27164 0.31259 0.0
H319 H 0.51418 0.31467 0.30147 0.0
H320 H 0.45044 0.27525 0.46257 0.0
H321 H 0.44987 0.24187 0.43449 0.0
H322 H 0.45984 0.22832 0.39043 0.0
H323 H 0.47717 0.2391 0.34623 0.0
Mn324 Mn 0.13561 0.5618 0.90456 0.0
Mn325 Mn 0.13738 0.51574 0.86934 0.0
C326 C 0.16674 0.54971 0.9098 0.0
C327 C 0.14507 0.60252 0.90937 0.0
C328 C 0.10448 0.50953 0.91558 0.0
O329 O 0.11288 0.55916 0.87468 0.0
O330 O 0.11643 0.52923 0.85146 0.0
C331 C 0.1619 0.54145 0.82184 0.0
N332 N 0.16101 0.52712 0.84256 0.0
C333 C 0.19755 0.52406 0.82938 0.0
C334 C 0.19877 0.53866 0.80782 0.0
C335 C 0.18087 0.5474 0.80405 0.0
C336 C 0.17804 0.51844 0.84626 0.0
H337 H 0.14827 0.54834 0.81894 0.0
C338 C 0.1082 0.54543 0.8548 0.0
O339 O 0.1277 0.5869 0.92246 0.0
O340 O 0.15647 0.59444 0.89321 0.0
N341 N 0.15758 0.5018 0.88445 0.0
C342 C 0.15494 0.48982 0.90748 0.0
C343 C 0.17203 0.48093 0.91488 0.0
C344 C 0.19163 0.48444 0.89857 0.0
C345 C 0.19398 0.49684 0.87499 0.0
C346 C 0.17627 0.5051 0.8685 0.0
H347 H 0.14006 0.4873 0.92023 0.0
O348 O 0.16132 0.56122 0.92833 0.0
O349 O 0.15343 0.54524 0.88905 0.0
O350 O 0.11133 0.53155 0.9213 0.0
O351 O 0.11292 0.50185 0.8965 0.0
C352 C 0.21352 0.50187 0.858 0.0
C353 C 0.21528 0.51543 0.83519 0.0
H354 H 0.21351 0.54351 0.79421 0.0
H355 H 0.18176 0.5588 0.78755 0.0
H356 H 0.17018 0.47152 0.9332 0.0
H357 H 0.20492 0.47779 0.9045 0.0
H358 H 0.2275 0.49573 0.86252 0.0
H359 H 0.2306 0.51951 0.82252 0.0
Mn360 Mn 0.65564 0.14189 0.43192 0.0
Mn361 Mn 0.69741 0.12158 0.41436 0.0
C362 C 0.69398 0.16038 0.44762 0.0
C363 C 0.63335 0.16465 0.42518 0.0
C364 C 0.6567 0.09533 0.45123 0.0
O365 O 0.64204 0.12239 0.39924 0.0
O366 O 0.67269 0.11294 0.38634 0.0
C367 C 0.71817 0.15128 0.36782 0.0
N368 N 0.72083 0.1441 0.39239 0.0
C369 C 0.76242 0.16999 0.39293 0.0
C370 C 0.76014 0.17759 0.3676 0.0
C371 C 0.73792 0.16818 0.355 0.0
C372 C 0.74219 0.15286 0.4046 0.0
H373 H 0.70108 0.14424 0.35814 0.0
C374 C 0.65201 0.11339 0.38287 0.0
O375 O 0.62529 0.14526 0.43887 0.0
O376 O 0.65455 0.17096 0.41518 0.0
N377 N 0.7222 0.12966 0.43998 0.0
C378 C 0.72093 0.12193 0.46512 0.0
C379 C 0.74142 0.13045 0.48085 0.0
C380 C 0.76296 0.14686 0.47061 0.0
C381 C 0.76382 0.1546 0.44469 0.0
C382 C 0.74289 0.1453 0.42985 0.0
H383 H 0.70436 0.1095 0.47317 0.0
O384 O 0.67628 0.16208 0.46038 0.0
O385 O 0.68836 0.14739 0.42663 0.0
O386 O 0.64911 0.11187 0.45259 0.0
O387 O 0.67446 0.0967 0.43716 0.0
C388 C 0.78448 0.17161 0.43321 0.0
C389 C 0.78379 0.17927 0.40733 0.0
H390 H 0.77526 0.19084 0.35776 0.0
H391 H 0.73599 0.17406 0.3355 0.0
H392 H 0.74057 0.12449 0.50088 0.0
H393 H 0.77866 0.15358 0.48289 0.0
H394 H 0.8009 0.17918 0.44424 0.0
H395 H 0.79969 0.19262 0.39886 0.0
Mn396 Mn 0.46027 0.63388 0.91498 0.0
Mn397 Mn 0.51239 0.67008 0.88838 0.0
C398 C 0.4775 0.67318 0.92756 0.0
C399 C 0.41895 0.61683 0.91444 0.0
C400 C 0.5084 0.6327 0.92896 0.0
O401 O 0.46229 0.61638 0.88225 0.0
O402 O 0.49692 0.64195 0.86487 0.0
C403 C 0.49449 0.68589 0.84129 0.0
N404 N 0.50694 0.69122 0.86413 0.0
C405 C 0.51607 0.73304 0.85861 0.0
C406 C 0.50346 0.72801 0.83496 0.0
C407 C 0.49263 0.70433 0.82627 0.0
C408 C 0.51762 0.71396 0.87256 0.0
H409 H 0.48595 0.66771 0.83463 0.0
C410 C 0.47809 0.62258 0.86435 0.0
O411 O 0.43106 0.60656 0.92654 0.0
O412 O 0.43083 0.63665 0.9024 0.0
N413 N 0.52839 0.69788 0.90918 0.0
C414 C 0.53818 0.69947 0.93339 0.0
C415 C 0.54885 0.72184 0.94545 0.0
C416 C 0.54928 0.74231 0.93253 0.0
C417 C 0.53905 0.74022 0.90764 0.0
C418 C 0.52889 0.71748 0.89648 0.0
H419 H 0.53765 0.68377 0.94353 0.0
O420 O 0.46287 0.6573 0.94308 0.0
O421 O 0.48213 0.66522 0.90556 0.0
O422 O 0.48594 0.62523 0.93193 0.0
O423 O 0.52018 0.64948 0.91331 0.0
C424 C 0.53803 0.75972 0.89375 0.0
C425 C 0.52657 0.75614 0.86924 0.0
H426 H 0.50174 0.74215 0.82346 0.0
H427 H 0.48275 0.7003 0.80811 0.0
H428 H 0.55658 0.72329 0.96472 0.0
H429 H 0.55731 0.7595 0.94201 0.0
H430 H 0.5457 0.7775 0.90191 0.0
H431 H 0.52561 0.77122 0.85893 0.0
C432 C 0.62075 0.1108 0.35006 0.0
C433 C 0.63974 0.10469 0.35764 0.0
C434 C 0.61064 0.10487 0.32529 0.0
C435 C 0.58529 0.08379 0.27559 0.0
H436 H 0.62802 0.09089 0.21727 0.0
C437 C 0.55171 0.086 0.17211 0.0
C438 C 0.56749 0.1033 0.15554 0.0
C439 C 0.56005 0.07907 0.19475 0.0
C440 C 0.61582 0.08895 0.23329 0.0
H441 H 0.66231 0.08657 0.34542 0.0
H442 H 0.64406 0.07548 0.30239 0.0
H443 H 0.64285 0.093 0.26165 0.0
H444 H 0.60441 0.12619 0.14873 0.0
H445 H 0.61893 0.11531 0.18889 0.0
H446 H 0.55884 0.0819 0.24764 0.0
C447 C 0.63741 0.08545 0.31539 0.0
C448 C 0.62426 0.08977 0.25885 0.0
C449 C 0.64778 0.09168 0.34015 0.0
C450 C 0.59193 0.11262 0.16114 0.0
C451 C 0.60022 0.10624 0.1842 0.0
C452 C 0.577 0.08346 0.25014 0.0
C453 C 0.61895 0.09233 0.30748 0.0
C454 C 0.60926 0.08791 0.28036 0.0
C455 C 0.58426 0.08998 0.20183 0.0
C456 C 0.59228 0.08667 0.22858 0.0
H457 H 0.61421 0.12101 0.36288 0.0
H458 H 0.59686 0.111 0.31984 0.0
H459 H 0.573 0.08161 0.29159 0.0
H460 H 0.53277 0.07842 0.16801 0.0
H461 H 0.54728 0.06588 0.20723 0.0
C462 C 0.41771 0.55515 0.65113 0.0
C463 C 0.40065 0.53214 0.64626 0.0
C464 C 0.43092 0.5602 0.67416 0.0
C465 C 0.42759 0.53716 0.74161 0.0
H466 H 0.48578 0.59379 0.74743 0.0
C467 C 0.49181 0.60791 0.82414 0.0
C468 C 0.47337 0.60716 0.841 0.0
C469 C 0.4867 0.59412 0.80134 0.0
C470 C 0.46985 0.57759 0.74637 0.0
H471 H 0.38516 0.49597 0.66089 0.0
H472 H 0.40915 0.50445 0.70065 0.0
H473 H 0.47176 0.57716 0.70475 0.0
H474 H 0.43515 0.59126 0.84727 0.0
H475 H 0.42615 0.56847 0.80735 0.0
H476 H 0.42624 0.53696 0.78325 0.0
C477 C 0.41169 0.51889 0.68715 0.0
C478 C 0.4615 0.56826 0.72169 0.0
C479 C 0.39802 0.51394 0.66428 0.0
C480 C 0.44983 0.59209 0.83485 0.0
C481 C 0.44469 0.57874 0.81193 0.0
C482 C 0.43631 0.54607 0.7663 0.0
C483 C 0.42784 0.54227 0.69279 0.0
C484 C 0.43956 0.54871 0.71889 0.0
C485 C 0.46298 0.57966 0.79467 0.0
C486 C 0.45683 0.56719 0.76897 0.0
H487 H 0.42005 0.56966 0.63776 0.0
H488 H 0.44264 0.57854 0.6778 0.0
H489 H 0.4107 0.52205 0.74052 0.0
H490 H 0.51015 0.61923 0.8285 0.0
H491 H 0.50133 0.59504 0.78882 0.0
C492 C 0.88762 0.38042 0.15977 0.0
C493 C 0.89466 0.36255 0.15037 0.0
C494 C 0.89541 0.39095 0.18403 0.0
C495 C 0.91898 0.38051 0.24728 0.0
H496 H 0.92258 0.44445 0.25939 0.0
C497 C 0.89846 0.41057 0.34691 0.0
C498 C 0.90501 0.4349 0.35192 0.0
C499 C 0.90536 0.4031 0.32364 0.0
C500 C 0.92234 0.42679 0.25661 0.0
H501 H 0.91608 0.34226 0.15891 0.0
H502 H 0.93031 0.36124 0.20111 0.0
H503 H 0.92018 0.42992 0.21528 0.0
H504 H 0.92596 0.47055 0.33828 0.0
H505 H 0.93969 0.4577 0.29869 0.0
H506 H 0.9219 0.37767 0.28866 0.0
C507 C 0.9183 0.36671 0.18988 0.0
C508 C 0.92043 0.41824 0.23109 0.0
C509 C 0.91023 0.3559 0.16562 0.0
C510 C 0.92054 0.45166 0.33466 0.0
C511 C 0.92809 0.44422 0.3118 0.0
C512 C 0.92145 0.38928 0.27287 0.0
C513 C 0.91078 0.38423 0.19952 0.0
C514 C 0.91755 0.39462 0.22614 0.0
C515 C 0.91944 0.41987 0.30517 0.0
C516 C 0.92208 0.41219 0.27801 0.0
H517 H 0.87546 0.38586 0.14875 0.0
H518 H 0.88864 0.40386 0.19094 0.0
H519 H 0.91692 0.36225 0.24432 0.0
H520 H 0.88627 0.39729 0.35983 0.0
H521 H 0.89805 0.38422 0.31943 0.0
C522 C 0.38858 0.88913 0.85977 0.0
C523 C 0.37121 0.89769 0.86692 0.0
C524 C 0.40091 0.89615 0.83623 0.0
C525 C 0.4298 0.9164 0.7881 0.0
H526 H 0.39267 0.92413 0.73014 0.0
C527 C 0.46141 0.9132 0.68348 0.0
C528 C 0.44356 0.90024 0.66564 0.0
C529 C 0.45546 0.92089 0.70716 0.0
C530 C 0.40328 0.92182 0.74602 0.0
H531 H 0.35432 0.92165 0.85611 0.0
H532 H 0.37682 0.93505 0.81576 0.0
H533 H 0.37739 0.92149 0.77412 0.0
H534 H 0.40564 0.88604 0.65794 0.0
H535 H 0.39504 0.89809 0.69953 0.0
H536 H 0.45451 0.91425 0.7599 0.0
C537 C 0.38024 0.92207 0.82763 0.0
C538 C 0.39468 0.92078 0.77149 0.0
C539 C 0.36747 0.91457 0.8509 0.0
C540 C 0.4198 0.89623 0.67124 0.0
C541 C 0.41376 0.9033 0.69519 0.0
C542 C 0.43808 0.91679 0.7626 0.0
C543 C 0.39659 0.91236 0.81951 0.0
C544 C 0.40748 0.9173 0.79288 0.0
C545 C 0.43144 0.91508 0.7139 0.0
C546 C 0.42459 0.91877 0.74108 0.0
H547 H 0.39167 0.87591 0.87162 0.0
H548 H 0.41293 0.88781 0.83066 0.0
H549 H 0.44061 0.9145 0.80401 0.0
H550 H 0.47992 0.91672 0.67948 0.0
H551 H 0.46969 0.93059 0.72055 0.0
C552 C 0.50134 0.40166 0.33247 0.0
C553 C 0.52138 0.40238 0.34651 0.0
C554 C 0.50408 0.41577 0.31017 0.0
C555 C 0.55082 0.46305 0.26998 0.0
H556 H 0.5099 0.42956 0.21275 0.0
C557 C 0.58348 0.48694 0.16523 0.0
C558 C 0.57943 0.46714 0.14907 0.0
C559 C 0.57047 0.48453 0.18832 0.0
C560 C 0.52165 0.43914 0.22844 0.0
H561 H 0.55993 0.41894 0.34873 0.0
H562 H 0.56484 0.44227 0.30951 0.0
H563 H 0.49944 0.41517 0.25686 0.0
H564 H 0.5577 0.42958 0.14369 0.0
H565 H 0.53621 0.42499 0.18415 0.0
H566 H 0.57445 0.48528 0.24141 0.0
C567 C 0.54687 0.43173 0.31593 0.0
C568 C 0.51536 0.43112 0.25399 0.0
C569 C 0.54409 0.41808 0.33844 0.0
C570 C 0.56121 0.44524 0.15565 0.0
C571 C 0.54865 0.44269 0.17895 0.0
C572 C 0.55749 0.47059 0.24438 0.0
C573 C 0.52696 0.43046 0.30112 0.0
C574 C 0.5305 0.44225 0.27502 0.0
C575 C 0.55359 0.4621 0.19609 0.0
C576 C 0.5436 0.45798 0.22313 0.0
H577 H 0.48358 0.38991 0.33845 0.0
H578 H 0.48827 0.41465 0.29972 0.0
H579 H 0.56244 0.47277 0.2857 0.0
H580 H 0.59721 0.50414 0.16044 0.0
H581 H 0.57435 0.50008 0.20053 0.0
C582 C 0.08397 0.63177 0.64993 0.0
C583 C 0.10181 0.6294 0.6343 0.0
C584 C 0.07615 0.61807 0.67256 0.0
C585 C 0.08268 0.56806 0.71043 0.0
H586 H 0.06998 0.60122 0.76927 0.0
C587 C 0.08386 0.53317 0.81391 0.0
C588 C 0.09561 0.55071 0.83259 0.0
C589 C 0.07631 0.53937 0.79027 0.0
C590 C 0.07367 0.59171 0.75315 0.0
H591 H 0.12517 0.61061 0.62968 0.0
H592 H 0.11276 0.58785 0.66969 0.0
H593 H 0.07393 0.61831 0.72608 0.0
H594 H 0.10751 0.58827 0.8418 0.0
H595 H 0.09567 0.59928 0.80047 0.0
H596 H 0.08492 0.54276 0.73779 0.0
C597 C 0.10389 0.59941 0.66422 0.0
C598 C 0.07549 0.60134 0.72808 0.0
C599 C 0.11122 0.61264 0.64126 0.0
C600 C 0.09833 0.57429 0.82788 0.0
C601 C 0.09136 0.58058 0.80404 0.0
C602 C 0.08154 0.55878 0.73557 0.0
C603 C 0.08649 0.60218 0.68047 0.0
C604 C 0.08079 0.59005 0.70644 0.0
C605 C 0.08098 0.56335 0.78448 0.0
C606 C 0.0778 0.57088 0.75744 0.0
H607 H 0.07623 0.64441 0.6448 0.0
H608 H 0.0623 0.62033 0.68406 0.0
H609 H 0.08595 0.55832 0.69425 0.0
H610 H 0.08131 0.5148 0.81716 0.0
H611 H 0.06769 0.52542 0.77616 0.0
C612 C 0.49402 0.0775 0.04114 0.0
C613 C 0.49478 0.07969 0.06849 0.0
C614 C 0.47536 0.05881 0.02904 0.0
C615 C 0.43312 0.99842 0.03867 0.0
H616 H 0.39232 0.01193 0.98868 0.0
C617 C 0.35271 0.92172 0.99686 0.0
C618 C 0.34816 0.92265 0.97013 0.0
C619 C 0.36787 0.94209 0.00997 0.0
C620 C 0.40367 0.00776 0.00234 0.0
H621 H 0.47716 0.0638 0.10465 0.0
H622 H 0.44515 0.0307 0.08352 0.0
H623 H 0.42607 0.0447 0.00792 0.0
H624 H 0.3548 0.94561 0.9363 0.0
H625 H 0.38209 0.98098 0.95873 0.0
H626 H 0.41184 0.96166 0.03252 0.0
C627 C 0.45871 0.04363 0.07149 0.0
C628 C 0.42295 0.02657 0.01335 0.0
C629 C 0.47699 0.06254 0.08352 0.0
C630 C 0.35781 0.94457 0.95705 0.0
C631 C 0.3735 0.96485 0.96998 0.0
C632 C 0.41421 0.97963 0.02732 0.0
C633 C 0.45756 0.04177 0.04417 0.0
C634 C 0.43773 0.02201 0.03168 0.0
C635 C 0.37945 0.96366 0.99641 0.0
C636 C 0.39907 0.98399 0.00909 0.0
H637 H 0.5074 0.0906 0.02911 0.0
H638 H 0.47484 0.0576 0.00792 0.0
H639 H 0.44442 0.99451 0.05264 0.0
H640 H 0.34537 0.90498 0.00735 0.0
H641 H 0.37125 0.9406 0.03052 0.0
C642 C 0.36746 0.45763 0.54388 0.0
C643 C 0.37947 0.48255 0.54495 0.0
C644 C 0.37842 0.44363 0.53268 0.0
C645 C 0.43685 0.44319 0.52222 0.0
H646 H 0.40809 0.39734 0.46706 0.0
C647 C 0.49089 0.40265 0.46182 0.0
C648 C 0.47944 0.37958 0.4516 0.0
C649 C 0.47794 0.41343 0.47534 0.0
C650 C 0.4162 0.40968 0.48285 0.0
H651 H 0.41215 0.51233 0.53462 0.0
H652 H 0.43131 0.4878 0.51551 0.0
H653 H 0.38621 0.41955 0.48574 0.0
H654 H 0.44569 0.34919 0.44883 0.0
H655 H 0.42323 0.36766 0.47332 0.0
H656 H 0.46663 0.43322 0.51988 0.0
C657 C 0.41344 0.4792 0.52327 0.0
C658 C 0.40369 0.42248 0.49337 0.0
C659 C 0.40237 0.4932 0.53402 0.0
C660 C 0.45497 0.3671 0.45624 0.0
C661 C 0.44206 0.37776 0.47012 0.0
C662 C 0.4492 0.43015 0.51203 0.0
C663 C 0.40169 0.45431 0.52284 0.0
C664 C 0.41412 0.43963 0.51278 0.0
C665 C 0.45328 0.40126 0.47933 0.0
C666 C 0.43924 0.41354 0.49186 0.0
H667 H 0.34977 0.44893 0.55207 0.0
H668 H 0.36905 0.42444 0.53251 0.0
H669 H 0.44507 0.4561 0.5375 0.0
H670 H 0.50969 0.41282 0.45839 0.0
H671 H 0.48716 0.43167 0.48175 0.0
C672 C 0.08198 0.46768 0.93102 0.0
C673 C 0.08531 0.49184 0.93129 0.0
C674 C 0.06302 0.45071 0.94458 0.0
C675 C 0.00297 0.43917 0.96569 0.0
H676 H 0.00998 0.39411 0.01501 0.0
C677 C 0.927 0.38586 0.03384 0.0
C678 C 0.92312 0.36226 0.04042 0.0
C679 C 0.94707 0.39999 0.01979 0.0
C680 C 0.00766 0.40627 0.00094 0.0
H681 H 0.07157 0.51716 0.94639 0.0
H682 H 0.03814 0.48737 0.96962 0.0
H683 H 0.0451 0.42237 0.99243 0.0
H684 H 0.93748 0.33504 0.03737 0.0
H685 H 0.97259 0.35977 0.01198 0.0
H686 H 0.96568 0.42305 0.97347 0.0
C687 C 0.05034 0.48168 0.95899 0.0
C688 C 0.02777 0.42252 0.98817 0.0
C689 C 0.06953 0.49872 0.94581 0.0
C690 C 0.93996 0.35315 0.03258 0.0
C691 C 0.9601 0.36735 0.01816 0.0
C692 C 0.98289 0.42278 0.97808 0.0
C693 C 0.0468 0.45752 0.95828 0.0
C694 C 0.02561 0.43942 0.97087 0.0
C695 C 0.9638 0.39094 0.01152 0.0
C696 C 0.98501 0.40649 0.99635 0.0
H697 H 0.0939 0.46182 0.92012 0.0
H698 H 0.0606 0.43217 0.94369 0.0
H699 H 0.00078 0.4517 0.952 0.0
H700 H 0.91467 0.39369 0.0399 0.0
H701 H 0.9496 0.41825 0.01577 0.0
C702 C 0.61831 0.06785 0.47027 0.0
C703 C 0.64236 0.07279 0.46469 0.0
C704 C 0.60376 0.0463 0.48147 0.0
C705 C 0.60153 2e-05 0.52461 0.0
H706 H 0.54158 0.96352 0.49015 0.0
C707 C 0.53072 0.91622 0.57202 0.0
C708 C 0.50671 0.91297 0.56911 0.0
C709 C 0.54861 0.93365 0.55772 0.0
C710 C 0.55812 0.97358 0.50017 0.0
H711 H 0.67009 0.05903 0.46696 0.0
H712 H 0.64442 0.02115 0.4877 0.0
H713 H 0.57126 0.99768 0.46803 0.0
H714 H 0.48275 0.92569 0.54894 0.0
H715 H 0.51401 0.95667 0.52465 0.0
H716 H 0.58799 0.97694 0.5574 0.0
C717 C 0.63704 0.03414 0.48286 0.0
C718 C 0.57519 0.99295 0.48736 0.0
C719 C 0.65165 0.05571 0.47105 0.0
C720 C 0.50103 0.92762 0.55155 0.0
C721 C 0.51898 0.94527 0.53746 0.0
C722 C 0.58431 0.9808 0.53762 0.0
C723 C 0.6129 0.02923 0.48777 0.0
C724 C 0.59682 0.0066 0.49967 0.0
C725 C 0.54302 0.9485 0.54035 0.0
C726 C 0.56216 0.96765 0.52576 0.0
H727 H 0.61044 0.08045 0.46544 0.0
H728 H 0.58527 0.043 0.48534 0.0
H729 H 0.618 0.0105 0.53456 0.0
H730 H 0.53578 0.90515 0.58523 0.0
H731 H 0.56682 0.93532 0.56017 0.0
C732 C 0.54607 0.6311 0.94676 0.0
C733 C 0.52122 0.62049 0.94353 0.0
C734 C 0.55807 0.61893 0.95974 0.0
C735 C 0.58047 0.58394 0.97384 0.0
H736 H 0.54899 0.54108 0.03064 0.0
C737 C 0.58623 0.49925 0.03182 0.0
C738 C 0.60862 0.50896 0.04408 0.0
C739 C 0.5773 0.51395 0.01863 0.0
C740 C 0.55792 0.55294 0.01473 0.0
H741 H 0.48953 0.58872 0.95112 0.0
H742 H 0.51036 0.56733 0.97283 0.0
H743 H 0.53021 0.56578 0.01137 0.0
H744 H 0.63983 0.54147 0.05069 0.0
H745 H 0.62424 0.56712 0.02694 0.0
H746 H 0.60853 0.57128 0.978 0.0
C747 C 0.52062 0.5853 0.96618 0.0
C748 C 0.54715 0.56702 0.00358 0.0
C749 C 0.50864 0.59755 0.95357 0.0
C750 C 0.62245 0.5335 0.04157 0.0
C751 C 0.61363 0.54816 0.02796 0.0
C752 C 0.59146 0.57009 0.98535 0.0
C753 C 0.54548 0.59581 0.96948 0.0
C754 C 0.55803 0.58235 0.98264 0.0
C755 C 0.59072 0.53855 0.01704 0.0
C756 C 0.58001 0.55418 0.00554 0.0
H757 H 0.55625 0.64882 0.93933 0.0
H758 H 0.57717 0.62771 0.96225 0.0
H759 H 0.58927 0.59535 0.95758 0.0
H760 H 0.5751 0.48045 0.0334 0.0
H761 H 0.55964 0.50616 0.01012 0.0
C762 C 0.93129 0.52168 0.42687 0.0
C763 C 0.91436 0.50318 0.44125 0.0
C764 C 0.94881 0.54077 0.43951 0.0
C765 C 0.97834 0.56013 0.50405 0.0
H766 H 0.00305 0.62167 0.46951 0.0
C767 C 0.05061 0.64444 0.54942 0.0
C768 C 0.07178 0.65128 0.53486 0.0
C769 C 0.02902 0.62889 0.53868 0.0
C770 C 0.99614 0.60461 0.47941 0.0
H771 H 0.90237 0.4901 0.48018 0.0
H772 H 0.93244 0.52404 0.50252 0.0
H773 H 0.96939 0.58888 0.45047 0.0
H774 H 0.08682 0.64868 0.49723 0.0
H775 H 0.04883 0.62237 0.47804 0.0
H776 H 0.005 0.57638 0.53328 0.0
C777 C 0.93266 0.52351 0.48139 0.0
C778 C 0.97704 0.58569 0.46841 0.0
C779 C 0.91536 0.50406 0.46864 0.0
C780 C 0.07072 0.64375 0.50878 0.0
C781 C 0.04905 0.62872 0.49784 0.0
C782 C 0.99709 0.57924 0.51534 0.0
C783 C 0.94959 0.54221 0.46696 0.0
C784 C 0.96829 0.56297 0.48018 0.0
C785 C 0.02823 0.62052 0.51301 0.0
C786 C 0.00644 0.60146 0.5028 0.0
H787 H 0.93112 0.52132 0.40569 0.0
H788 H 0.9619 0.55428 0.42761 0.0
H789 H 0.97242 0.54296 0.5136 0.0
H790 H 0.051 0.64973 0.56968 0.0
H791 H 0.01312 0.62274 0.55067 0.0
C792 C 0.52622 0.19085 0.06042 0.0
C793 C 0.53961 0.18604 0.0802 0.0
C794 C 0.52286 0.21228 0.06061 0.0
C795 C 0.52781 0.26293 0.10352 0.0
H796 H 0.54514 0.30095 0.04037 0.0
C797 C 0.55234 0.3659 0.06519 0.0
C798 C 0.56865 0.37758 0.08506 0.0
C799 C 0.54154 0.34099 0.06457 0.0
C800 C 0.53964 0.29041 0.05802 0.0
H801 H 0.56143 0.20017 0.11442 0.0
H802 H 0.55545 0.23728 0.11503 0.0
H803 H 0.5393 0.25907 0.03886 0.0
H804 H 0.58543 0.37248 0.12059 0.0
H805 H 0.56674 0.32931 0.11952 0.0
H806 H 0.5292 0.29447 0.12295 0.0
C807 C 0.54676 0.22434 0.09993 0.0
C808 C 0.53631 0.26641 0.05714 0.0
C809 C 0.55019 0.20312 0.09961 0.0
C810 C 0.57301 0.364 0.10497 0.0
C811 C 0.56212 0.33922 0.10447 0.0
C812 C 0.53105 0.28684 0.10438 0.0
C813 C 0.53308 0.2292 0.08046 0.0
C814 C 0.53136 0.25274 0.08012 0.0
C815 C 0.54666 0.3274 0.08398 0.0
C816 C 0.53801 0.3011 0.08188 0.0
H817 H 0.51838 0.17807 0.04493 0.0
H818 H 0.51241 0.21568 0.04524 0.0
H819 H 0.52363 0.25271 0.12145 0.0
H820 H 0.54863 0.37594 0.0496 0.0
H821 H 0.5296 0.33235 0.04863 0.0
C822 C 0.29756 0.5299 0.53804 0.0
C823 C 0.30943 0.53308 0.56209 0.0
C824 C 0.27675 0.53423 0.53583 0.0
C825 C 0.25169 0.56938 0.53717 0.0
H826 H 0.19871 0.5496 0.5859 0.0
C827 C 0.2 0.62652 0.56762 0.0
C828 C 0.1757 0.61684 0.56116 0.0
C829 C 0.21348 0.61266 0.5656 0.0
C830 C 0.21329 0.55503 0.57203 0.0
H831 H 0.30947 0.54397 0.60236 0.0
H832 H 0.27252 0.55014 0.59894 0.0
H833 H 0.22637 0.5292 0.58586 0.0
H834 H 0.14623 0.58499 0.54826 0.0
H835 H 0.16983 0.56045 0.5457 0.0
H836 H 0.23962 0.59626 0.52461 0.0
C837 C 0.27892 0.54386 0.58194 0.0
C838 C 0.229 0.54342 0.57197 0.0
C839 C 0.29994 0.5401 0.58396 0.0
C840 C 0.16497 0.59289 0.55326 0.0
C841 C 0.17837 0.57887 0.55183 0.0
C842 C 0.23631 0.58129 0.53762 0.0
C843 C 0.26755 0.54169 0.5577 0.0
C844 C 0.24855 0.55078 0.55482 0.0
C845 C 0.20276 0.58878 0.55767 0.0
C846 C 0.21728 0.57447 0.55536 0.0
H847 H 0.30495 0.52511 0.52077 0.0
H848 H 0.26838 0.53271 0.51687 0.0
H849 H 0.26683 0.57561 0.52405 0.0
H850 H 0.20871 0.64494 0.57367 0.0
H851 H 0.23229 0.62056 0.57031 0.0
C852 C 0.80644 0.27191 0.07607 0.0
C853 C 0.81959 0.28528 0.05491 0.0
C854 C 0.78594 0.25146 0.07192 0.0
C855 C 0.7446 0.20517 0.05752 0.0
H856 H 0.7001 0.22343 0.01823 0.0
C857 C 0.64119 0.15053 0.0539 0.0
C858 C 0.62937 0.16433 0.06404 0.0
C859 C 0.66549 0.1612 0.04755 0.0
C860 C 0.7124 0.21787 0.02883 0.0
H861 H 0.82156 0.28794 0.01276 0.0
H862 H 0.78498 0.25234 0.00534 0.0
H863 H 0.74264 0.24827 0.01627 0.0
H864 H 0.63341 0.20008 0.07476 0.0
H865 H 0.67539 0.21867 0.06299 0.0
H866 H 0.714 0.17538 0.0711 0.0
C867 C 0.79112 0.25732 0.02517 0.0
C868 C 0.73676 0.23197 0.02759 0.0
C869 C 0.81199 0.27761 0.02938 0.0
C870 C 0.64206 0.18897 0.06711 0.0
C871 C 0.66604 0.19965 0.06021 0.0
C872 C 0.7202 0.19084 0.05844 0.0
C873 C 0.77757 0.24441 0.04646 0.0
C874 C 0.75301 0.22631 0.04276 0.0
C875 C 0.67804 0.18589 0.05055 0.0
C876 C 0.70385 0.19764 0.04494 0.0
H877 H 0.81115 0.27809 0.09593 0.0
H878 H 0.77564 0.24226 0.08873 0.0
H879 H 0.75676 0.2004 0.06936 0.0
H880 H 0.63181 0.13148 0.05142 0.0
H881 H 0.67446 0.15026 0.04023 0.0
C882 C 0.46082 0.80372 0.56191 0.0
C883 C 0.45022 0.80967 0.58359 0.0
C884 C 0.46164 0.78117 0.56024 0.0
C885 C 0.45366 0.72778 0.60028 0.0
H886 H 0.43333 0.69319 0.53518 0.0
C887 C 0.42517 0.62623 0.55659 0.0
C888 C 0.40821 0.61416 0.57572 0.0
C889 C 0.43626 0.65113 0.55691 0.0
C890 C 0.43956 0.70276 0.55333 0.0
H891 H 0.43059 0.79663 0.61939 0.0
H892 H 0.43179 0.75734 0.61656 0.0
H893 H 0.44189 0.73574 0.53662 0.0
H894 H 0.39022 0.61845 0.61071 0.0
H895 H 0.40963 0.66165 0.61139 0.0
H896 H 0.45009 0.69454 0.61728 0.0
C897 C 0.44044 0.7702 0.60139 0.0
C898 C 0.44447 0.72713 0.55416 0.0
C899 C 0.43969 0.79265 0.60303 0.0
C900 C 0.40314 0.62728 0.59563 0.0
C901 C 0.41442 0.65201 0.59616 0.0
C902 C 0.44868 0.70347 0.59945 0.0
C903 C 0.45146 0.76418 0.58003 0.0
C904 C 0.4507 0.73967 0.57789 0.0
C905 C 0.43085 0.66422 0.57664 0.0
C906 C 0.44074 0.69056 0.57621 0.0
H907 H 0.46858 0.81655 0.54644 0.0
H908 H 0.47017 0.77701 0.54351 0.0
H909 H 0.45886 0.73705 0.61873 0.0
H910 H 0.42938 0.61651 0.54101 0.0
H911 H 0.44889 0.66015 0.54166 0.0
C912 C 0.67738 0.4458 0.09899 0.0
C913 C 0.66999 0.45236 0.07537 0.0
C914 C 0.69802 0.44128 0.10006 0.0
C915 C 0.74891 0.44257 0.09655 0.0
H916 H 0.74462 0.38953 0.0521 0.0
C917 C 0.82168 0.40359 0.08501 0.0
C918 C 0.81335 0.37878 0.08826 0.0
C919 C 0.80573 0.41487 0.08445 0.0
C920 C 0.74604 0.40439 0.06454 0.0
H921 H 0.67754 0.45834 0.03408 0.0
H922 H 0.71356 0.44954 0.0357 0.0
H923 H 0.71533 0.40747 0.04749 0.0
H924 H 0.78197 0.34636 0.09409 0.0
H925 H 0.75396 0.3661 0.09244 0.0
H926 H 0.77964 0.43936 0.11363 0.0
C927 C 0.7038 0.4489 0.05356 0.0
C928 C 0.72951 0.4148 0.06171 0.0
C929 C 0.68333 0.45392 0.05262 0.0
C930 C 0.78886 0.36552 0.09168 0.0
C931 C 0.77287 0.37675 0.09057 0.0
C932 C 0.76577 0.43245 0.09902 0.0
C933 C 0.71112 0.44229 0.07727 0.0
C934 C 0.73058 0.4337 0.07797 0.0
C935 C 0.78117 0.40145 0.08658 0.0
C936 C 0.76414 0.41298 0.08337 0.0
H937 H 0.66669 0.44327 0.11649 0.0
H938 H 0.70301 0.4357 0.11843 0.0
H939 H 0.74995 0.45709 0.10936 0.0
H940 H 0.84051 0.41422 0.08239 0.0
H941 H 0.81249 0.43394 0.08133 0.0
C942 C 0.19445 0.72595 0.57792 0.0
C943 C 0.18065 0.71963 0.55513 0.0
C944 C 0.21482 0.7469 0.57904 0.0
C945 C 0.25245 0.79662 0.5808 0.0
H946 H 0.29892 0.80375 0.52633 0.0
C947 C 0.35974 0.85206 0.55815 0.0
C948 C 0.36854 0.84631 0.58141 0.0
C949 C 0.33519 0.84244 0.55298 0.0
C950 C 0.28601 0.80241 0.54143 0.0
H951 H 0.17774 0.7296 0.51514 0.0
H952 H 0.21393 0.76663 0.51688 0.0
H953 H 0.25767 0.77583 0.52027 0.0
H954 H 0.35857 0.8271 0.61803 0.0
H955 H 0.316 0.81076 0.60929 0.0
H956 H 0.28108 0.82211 0.6026 0.0
C957 C 0.20852 0.75552 0.53413 0.0
C958 C 0.26235 0.78643 0.53794 0.0
C959 C 0.18787 0.73446 0.53312 0.0
C960 C 0.35233 0.83179 0.5999 0.0
C961 C 0.3279 0.82256 0.59496 0.0
C962 C 0.27606 0.81247 0.58432 0.0
C963 C 0.22229 0.76188 0.55713 0.0
C964 C 0.24557 0.78261 0.55807 0.0
C965 C 0.31905 0.82736 0.57125 0.0
C966 C 0.2933 0.8148 0.56513 0.0
H967 H 0.18984 0.71429 0.59479 0.0
H968 H 0.2253 0.75083 0.59681 0.0
H969 H 0.23981 0.79442 0.59645 0.0
H970 H 0.37186 0.86314 0.54352 0.0
H971 H 0.32884 0.84645 0.53456 0.0
C972 C 0.7979 0.45126 0.43967 0.0
C973 C 0.80863 0.44383 0.4192 0.0
C974 C 0.77412 0.44871 0.43765 0.0
C975 C 0.72466 0.44759 0.42722 0.0
H976 H 0.68406 0.39372 0.38607 0.0
C977 C 0.62262 0.42291 0.41596 0.0
C978 C 0.60817 0.39868 0.4128 0.0
C979 C 0.64752 0.4306 0.41588 0.0
C980 C 0.69493 0.40862 0.39807 0.0
H981 H 0.80274 0.42669 0.3814 0.0
H982 H 0.76272 0.42482 0.37631 0.0
H983 H 0.72584 0.40252 0.38855 0.0
H984 H 0.60804 0.36334 0.40863 0.0
H985 H 0.65083 0.37623 0.41031 0.0
H986 H 0.69293 0.4521 0.43859 0.0
C987 C 0.77193 0.43195 0.39439 0.0
C988 C 0.7193 0.41416 0.39895 0.0
C989 C 0.79526 0.43369 0.39688 0.0
C990 C 0.61883 0.38221 0.4105 0.0
C991 C 0.64348 0.38972 0.41122 0.0
C992 C 0.69999 0.44154 0.427 0.0
C993 C 0.76067 0.43875 0.41502 0.0
C994 C 0.73465 0.43371 0.41354 0.0
C995 C 0.6583 0.41407 0.41333 0.0
C996 C 0.68474 0.42175 0.41265 0.0
H997 H 0.80772 0.45848 0.45744 0.0
H998 H 0.76614 0.4537 0.45426 0.0
H999 H 0.73579 0.46306 0.4383 0.0
H1000 H 0.61471 0.43591 0.41783 0.0
H1001 H 0.65822 0.4495 0.41735 0.0
C1002 C 0.26737 0.80727 0.96558 0.0
C1003 C 0.28232 0.81508 0.94374 0.0
C1004 C 0.24621 0.78678 0.9639 0.0
C1005 C 0.21462 0.73345 0.95853 0.0
H1006 H 0.17963 0.71647 0.89327 0.0
C1007 C 0.16759 0.64448 0.89524 0.0
C1008 C 0.15282 0.62842 0.91368 0.0
C1009 C 0.17737 0.66889 0.90033 0.0
C1010 C 0.18908 0.72101 0.9117 0.0
H1011 H 0.28782 0.80715 0.90365 0.0
H1012 H 0.25122 0.77182 0.90056 0.0
H1013 H 0.20792 0.75735 0.90036 0.0
H1014 H 0.13603 0.62536 0.95158 0.0
H1015 H 0.15361 0.66825 0.96076 0.0
H1016 H 0.19643 0.69682 0.9694 0.0
C1017 C 0.25508 0.78174 0.91871 0.0
C1018 C 0.2053 0.74439 0.91576 0.0
C1019 C 0.27609 0.80201 0.92045 0.0
C1020 C 0.14731 0.63735 0.93698 0.0
C1021 C 0.15744 0.66185 0.94228 0.0
C1022 C 0.19827 0.71004 0.95451 0.0
C1023 C 0.23993 0.77373 0.94042 0.0
C1024 C 0.21902 0.75063 0.93874 0.0
C1025 C 0.17286 0.67782 0.92415 0.0
C1026 C 0.18608 0.70338 0.93061 0.0
H1027 H 0.27214 0.81687 0.9839 0.0
H1028 H 0.23496 0.78098 0.981 0.0
H1029 H 0.22498 0.73762 0.97638 0.0
H1030 H 0.17211 0.63813 0.87708 0.0
H1031 H 0.18941 0.68068 0.88609 0.0
C1032 C 0.62961 0.20303 0.41466 0.0
C1033 C 0.61894 0.17897 0.4218 0.0
C1034 C 0.61601 0.21683 0.41328 0.0
C1035 C 0.58218 0.24003 0.39947 0.0
H1036 H 0.53167 0.22932 0.45003 0.0
C1037 C 0.53069 0.29971 0.39778 0.0
C1038 C 0.5261 0.30787 0.42195 0.0
C1039 C 0.53668 0.27998 0.39633 0.0
C1040 C 0.54577 0.23263 0.43584 0.0
H1041 H 0.58561 0.15016 0.43214 0.0
H1042 H 0.56173 0.1739 0.42869 0.0
H1043 H 0.55414 0.20406 0.45052 0.0
H1044 H 0.52433 0.30194 0.46368 0.0
H1045 H 0.53636 0.26825 0.46153 0.0
H1046 H 0.57512 0.26954 0.38593 0.0
C1047 C 0.58069 0.18243 0.42503 0.0
C1048 C 0.55849 0.21792 0.43587 0.0
C1049 C 0.59435 0.16876 0.42681 0.0
C1050 C 0.52722 0.29561 0.44474 0.0
C1051 C 0.53402 0.27624 0.44342 0.0
C1052 C 0.56976 0.25491 0.39969 0.0
C1053 C 0.59137 0.20673 0.41857 0.0
C1054 C 0.57702 0.22159 0.41783 0.0
C1055 C 0.5397 0.26876 0.41922 0.0
C1056 C 0.55146 0.25153 0.41796 0.0
H1057 H 0.64858 0.21137 0.4109 0.0
H1058 H 0.62499 0.23557 0.40869 0.0
H1059 H 0.59601 0.24317 0.38498 0.0
H1060 H 0.53131 0.30954 0.38002 0.0
H1061 H 0.54031 0.27445 0.37728 0.0
C1062 C 0.20473 0.55849 0.8865 0.0
C1063 C 0.19091 0.54997 0.90897 0.0
C1064 C 0.22849 0.5614 0.88597 0.0
C1065 C 0.28079 0.58392 0.89426 0.0
H1066 H 0.30874 0.55047 0.93879 0.0
C1067 C 0.38093 0.62244 0.91196 0.0
C1068 C 0.39275 0.60701 0.91479 0.0
C1069 C 0.35615 0.61357 0.91169 0.0
C1070 C 0.30123 0.55979 0.92593 0.0
H1071 H 0.19123 0.53909 0.94911 0.0
H1072 H 0.23348 0.54582 0.94904 0.0
H1073 H 0.26552 0.53663 0.93587 0.0
H1074 H 0.38814 0.57025 0.91984 0.0
H1075 H 0.34458 0.5544 0.91799 0.0
H1076 H 0.31611 0.60623 0.88314 0.0
C1077 C 0.2256 0.54874 0.93113 0.0
C1078 C 0.27639 0.55206 0.92456 0.0
C1079 C 0.20146 0.54507 0.93131 0.0
C1080 C 0.37935 0.58249 0.91765 0.0
C1081 C 0.35442 0.57347 0.91675 0.0
C1082 C 0.30543 0.59125 0.89517 0.0
C1083 C 0.23956 0.55738 0.90852 0.0
C1084 C 0.26585 0.56424 0.90894 0.0
C1085 C 0.34251 0.58892 0.91349 0.0
C1086 C 0.31606 0.57968 0.91144 0.0
H1087 H 0.19731 0.56352 0.86943 0.0
H1088 H 0.2383 0.56748 0.86796 0.0
H1089 H 0.27363 0.59421 0.88241 0.0
H1090 H 0.39085 0.64149 0.91019 0.0
H1091 H 0.34774 0.62616 0.9101 0.0
C1092 C 0.72882 0.19289 0.4286 0.0
C1093 C 0.71789 0.17935 0.4506 0.0
C1094 C 0.75019 0.21264 0.4309 0.0
C1095 C 0.79975 0.24936 0.43831 0.0
H1096 H 0.79739 0.29648 0.4878 0.0
C1097 C 0.84961 0.35719 0.46107 0.0
C1098 C 0.84701 0.36527 0.436 0.0
C1099 C 0.83989 0.33275 0.46676 0.0
C1100 C 0.79869 0.28338 0.47429 0.0
H1101 H 0.7201 0.17624 0.49252 0.0
H1102 H 0.75781 0.21141 0.4968 0.0
H1103 H 0.76868 0.25529 0.49133 0.0
H1104 H 0.83352 0.35424 0.39692 0.0
H1105 H 0.8171 0.31184 0.40663 0.0
H1106 H 0.82866 0.27782 0.42017 0.0
C1107 C 0.75002 0.20623 0.47761 0.0
C1108 C 0.78226 0.25976 0.47633 0.0
C1109 C 0.72856 0.18616 0.47521 0.0
C1110 C 0.8357 0.34852 0.41644 0.0
C1111 C 0.82646 0.32422 0.42196 0.0
C1112 C 0.81604 0.27295 0.43618 0.0
C1113 C 0.76095 0.21978 0.45544 0.0
C1114 C 0.7819 0.24278 0.45759 0.0
C1115 C 0.82796 0.31605 0.44729 0.0
C1116 C 0.81497 0.29041 0.45343 0.0
H1117 H 0.72041 0.18864 0.40958 0.0
H1118 H 0.75767 0.223 0.41352 0.0
H1119 H 0.80022 0.23655 0.4239 0.0
H1120 H 0.85819 0.36977 0.47652 0.0
H1121 H 0.84127 0.32692 0.48646 0.0
C1122 C 0.47373 0.70878 0.90841 0.0
C1123 C 0.47934 0.69786 0.93007 0.0
C1124 C 0.46961 0.72952 0.91142 0.0
C1125 C 0.46644 0.77744 0.92436 0.0
H1126 H 0.41035 0.76047 0.96831 0.0
C1127 C 0.41112 0.83556 0.94402 0.0
C1128 C 0.38729 0.82402 0.93592 0.0
C1129 C 0.42615 0.82323 0.94478 0.0
C1130 C 0.42616 0.76553 0.95623 0.0
H1131 H 0.48498 0.69991 0.97188 0.0
H1132 H 0.47664 0.73587 0.97744 0.0
H1133 H 0.43335 0.73546 0.96832 0.0
H1134 H 0.36049 0.79067 0.92225 0.0
H1135 H 0.38667 0.76887 0.92443 0.0
H1136 H 0.45878 0.80729 0.9119 0.0
C1137 C 0.47649 0.72884 0.95797 0.0
C1138 C 0.43944 0.75142 0.95643 0.0
C1139 C 0.48126 0.70836 0.95481 0.0
C1140 C 0.37879 0.79999 0.92847 0.0
C1141 C 0.39367 0.78752 0.92983 0.0
C1142 C 0.45342 0.79187 0.9246 0.0
C1143 C 0.46994 0.73914 0.93636 0.0
C1144 C 0.45931 0.75689 0.93998 0.0
C1145 C 0.41742 0.79905 0.93807 0.0
C1146 C 0.43281 0.78559 0.93998 0.0
H1147 H 0.4707 0.70033 0.88941 0.0
H1148 H 0.46408 0.73679 0.89455 0.0
H1149 H 0.4816 0.78186 0.91138 0.0
H1150 H 0.41813 0.85413 0.94976 0.0
H1151 H 0.44443 0.8324 0.95117 0.0
loop_
_geom_bond_atom_site_label_1
_geom_bond_atom_site_label_2
_geom_bond_distance
_geom_bond_site_symmetry_2
_ccdc_geom_bond_type
Mn0 O5 2.095 . S
Mn0 O15 2.162 . S
Mn0 O16 2.297 . S
Mn0 O24 2.385 . S
Mn0 O25 2.209 . S
Mn0 O26 2.094 . S
Mn1 O6 2.121 . S
Mn1 N8 2.257 . S
Mn1 N17 2.282 . S
Mn1 O25 2.215 . S
Mn1 O27 2.117 . S
C2 O24 1.234 . S
C2 O25 1.283 . S
C3 O15 1.281 . S
C3 O16 1.236 . S
C4 O26 1.240 . S
C4 O27 1.264 . S
O5 Mn0 2.095 . S
O5 C14 1.250 . S
O6 Mn1 2.121 . S
O6 C14 1.258 . S
C7 N8 1.326 . S
C7 C11 1.460 . S
C7 H13 0.929 . S
N8 Mn1 2.257 . S
N8 C7 1.326 . S
N8 C12 1.362 . S
C9 C10 1.258 . S
C9 C12 1.431 . S
C9 C29 1.449 . S
C10 C9 1.258 . S
C10 C11 1.477 . S
C10 H30 0.931 . S
C11 C7 1.460 . S
C11 C10 1.477 . S
C11 H31 0.930 . S
C12 N8 1.362 . S
C12 C9 1.431 . S
C12 C22 1.476 . S
H13 C7 0.929 . S
C14 O5 1.250 . S
C14 O6 1.258 . S
O15 Mn0 2.162 . S
O15 C3 1.281 . S
O16 Mn0 2.297 . S
O16 C3 1.236 . S
N17 Mn1 2.282 . S
N17 C18 1.328 . S
N17 C22 1.318 . S
C18 N17 1.328 . S
C18 C19 1.457 . S
C18 H23 0.929 . S
C19 C18 1.457 . S
C19 C20 1.291 . S
C19 H32 0.931 1_554 S
C20 C19 1.291 . S
C20 C21 1.373 . S
C20 H33 0.929 . S
C21 C20 1.373 . S
C21 C22 1.396 . S
C21 C28 1.403 . S
C22 C12 1.476 . S
C22 N17 1.318 . S
C22 C21 1.396 . S
H23 C18 0.929 . S
O24 Mn0 2.385 . S
O24 C2 1.234 . S
O25 Mn0 2.209 . S
O25 Mn1 2.215 . S
O25 C2 1.283 . S
O26 Mn0 2.094 . S
O26 C4 1.240 . S
O27 Mn1 2.117 . S
O27 C4 1.264 . S
C28 C21 1.403 . S
C28 C29 1.399 . S
C28 H34 0.929 . S
C29 C9 1.449 . S
C29 C28 1.399 . S
C29 H35 0.930 . S
H30 C10 0.931 . S
H31 C11 0.930 . S
H32 C19 0.931 1_556 S
H33 C20 0.929 . S
H34 C28 0.929 . S
H35 C29 0.930 . S
Mn36 O41 2.095 . S
Mn36 O51 2.162 . S
Mn36 O52 2.297 . S
Mn36 O60 2.385 . S
Mn36 O61 2.209 . S
Mn36 O62 2.094 . S
Mn37 O42 2.121 . S
Mn37 N44 2.257 . S
Mn37 N53 2.282 . S
Mn37 O61 2.215 . S
Mn37 O63 2.117 . S
C38 O60 1.234 . S
C38 O61 1.283 . S
C39 O51 1.281 . S
C39 O52 1.236 . S
C40 O62 1.240 . S
C40 O63 1.264 . S
O41 Mn36 2.095 . S
O41 C50 1.250 . S
O42 Mn37 2.121 . S
O42 C50 1.258 . S
C43 N44 1.326 . S
C43 C47 1.460 . S
C43 H49 0.929 . S
N44 Mn37 2.257 . S
N44 C43 1.326 . S
N44 C48 1.362 . S
C45 C46 1.258 . S
C45 C48 1.431 . S
C45 C65 1.449 . S
C46 C45 1.258 . S
C46 C47 1.477 . S
C46 H66 0.931 . S
C47 C43 1.460 . S
C47 C46 1.477 . S
C47 H67 0.930 . S
C48 N44 1.362 . S
C48 C45 1.431 . S
C48 C58 1.476 . S
H49 C43 0.929 . S
C50 O41 1.250 . S
C50 O42 1.258 . S
O51 Mn36 2.162 . S
O51 C39 1.281 . S
O52 Mn36 2.297 . S
O52 C39 1.236 . S
N53 Mn37 2.282 . S
N53 C54 1.328 . S
N53 C58 1.318 . S
C54 N53 1.328 . S
C54 C55 1.457 . S
C54 H59 0.929 . S
C55 C54 1.457 . S
C55 C56 1.291 . S
C55 H68 0.931 . S
C56 C55 1.291 . S
C56 C57 1.373 . S
C56 H69 0.929 . S
C57 C56 1.373 . S
C57 C58 1.396 . S
C57 C64 1.403 . S
C58 C48 1.476 . S
C58 N53 1.318 . S
C58 C57 1.396 . S
H59 C54 0.929 . S
O60 Mn36 2.385 . S
O60 C38 1.234 . S
O61 Mn36 2.209 . S
O61 Mn37 2.215 . S
O61 C38 1.283 . S
O62 Mn36 2.094 . S
O62 C40 1.240 . S
O63 Mn37 2.117 . S
O63 C40 1.264 . S
C64 C57 1.403 . S
C64 C65 1.399 . S
C64 H70 0.929 . S
C65 C45 1.449 . S
C65 C64 1.399 . S
C65 H71 0.930 . S
H66 C46 0.931 . S
H67 C47 0.930 . S
H68 C55 0.931 . S
H69 C56 0.929 . S
H70 C64 0.929 . S
H71 C65 0.930 . S
Mn72 O77 2.095 . S
Mn72 O87 2.162 . S
Mn72 O88 2.297 . S
Mn72 O96 2.385 . S
Mn72 O97 2.209 . S
Mn72 O98 2.094 . S
Mn73 O78 2.121 . S
Mn73 N80 2.257 . S
Mn73 N89 2.282 . S
Mn73 O97 2.215 . S
Mn73 O99 2.117 . S
C74 O96 1.234 . S
C74 O97 1.283 . S
C75 O87 1.281 . S
C75 O88 1.236 . S
C76 O98 1.240 . S
C76 O99 1.264 . S
O77 Mn72 2.095 . S
O77 C86 1.250 . S
O78 Mn73 2.121 . S
O78 C86 1.258 . S
C79 N80 1.326 . S
C79 C83 1.460 . S
C79 H85 0.929 . S
N80 Mn73 2.257 . S
N80 C79 1.326 . S
N80 C84 1.362 . S
C81 C82 1.258 . S
C81 C84 1.431 . S
C81 C101 1.449 . S
C82 C81 1.258 . S
C82 C83 1.477 . S
C82 H102 0.931 . S
C83 C79 1.460 . S
C83 C82 1.477 . S
C83 H103 0.930 . S
C84 N80 1.362 . S
C84 C81 1.431 . S
C84 C94 1.476 . S
H85 C79 0.929 . S
C86 O77 1.250 . S
C86 O78 1.258 . S
O87 Mn72 2.162 . S
O87 C75 1.281 . S
O88 Mn72 2.297 . S
O88 C75 1.236 . S
N89 Mn73 2.282 . S
N89 C90 1.328 . S
N89 C94 1.318 . S
C90 N89 1.328 . S
C90 C91 1.457 1_554 S
C90 H95 0.929 . S
C91 C90 1.457 1_556 S
C91 C92 1.291 1_556 S
C91 H104 0.931 . S
C92 C91 1.291 1_554 S
C92 C93 1.373 . S
C92 H105 0.929 1_554 S
C93 C92 1.373 . S
C93 C94 1.396 . S
C93 C100 1.403 . S
C94 C84 1.476 . S
C94 N89 1.318 . S
C94 C93 1.396 . S
H95 C90 0.929 . S
O96 Mn72 2.385 . S
O96 C74 1.234 . S
O97 Mn72 2.209 . S
O97 Mn73 2.215 . S
O97 C74 1.283 . S
O98 Mn72 2.094 . S
O98 C76 1.240 . S
O99 Mn73 2.117 . S
O99 C76 1.264 . S
C100 C93 1.403 . S
C100 C101 1.399 . S
C100 H106 0.929 . S
C101 C81 1.449 . S
C101 C100 1.399 . S
C101 H107 0.930 . S
H102 C82 0.931 . S
H103 C83 0.930 . S
H104 C91 0.931 . S
H105 C92 0.929 1_556 S
H106 C100 0.929 . S
H107 C101 0.930 . S
Mn108 O113 2.095 . S
Mn108 O123 2.162 . S
Mn108 O124 2.297 . S
Mn108 O132 2.385 . S
Mn108 O133 2.209 . S
Mn108 O134 2.094 . S
Mn109 O114 2.121 . S
Mn109 N116 2.257 . S
Mn109 N125 2.282 . S
Mn109 O133 2.215 . S
Mn109 O135 2.117 . S
C110 O132 1.234 . S
C110 O133 1.283 . S
C111 O123 1.281 . S
C111 O124 1.236 . S
C112 O134 1.240 . S
C112 O135 1.264 . S
O113 Mn108 2.095 . S
O113 C122 1.250 . S
O114 Mn109 2.121 . S
O114 C122 1.258 . S
C115 N116 1.326 . S
C115 C119 1.460 . S
C115 H121 0.929 . S
N116 Mn109 2.257 . S
N116 C115 1.326 . S
N116 C120 1.362 . S
C117 C118 1.258 . S
C117 C120 1.431 . S
C117 C137 1.449 . S
C118 C117 1.258 . S
C118 C119 1.477 . S
C118 H138 0.931 . S
C119 C115 1.460 . S
C119 C118 1.477 . S
C119 H139 0.930 . S
C120 N116 1.362 . S
C120 C117 1.431 . S
C120 C130 1.476 . S
H121 C115 0.929 . S
C122 O113 1.250 . S
C122 O114 1.258 . S
O123 Mn108 2.162 . S
O123 C111 1.281 . S
O124 Mn108 2.297 . S
O124 C111 1.236 . S
N125 Mn109 2.282 . S
N125 C126 1.328 . S
N125 C130 1.318 . S
C126 N125 1.328 . S
C126 C127 1.457 . S
C126 H131 0.929 . S
C127 C126 1.457 . S
C127 C128 1.291 . S
C127 H140 0.931 . S
C128 C127 1.291 . S
C128 C129 1.373 . S
C128 H141 0.929 . S
C129 C128 1.373 . S
C129 C130 1.396 . S
C129 C136 1.403 . S
C130 C120 1.476 . S
C130 N125 1.318 . S
C130 C129 1.396 . S
H131 C126 0.929 . S
O132 Mn108 2.385 . S
O132 C110 1.234 . S
O133 Mn108 2.209 . S
O133 Mn109 2.215 . S
O133 C110 1.283 . S
O134 Mn108 2.094 . S
O134 C112 1.240 . S
O135 Mn109 2.117 . S
O135 C112 1.264 . S
C136 C129 1.403 . S
C136 C137 1.399 . S
C136 H142 0.929 . S
C137 C117 1.449 . S
C137 C136 1.399 . S
C137 H143 0.930 . S
H138 C118 0.931 . S
H139 C119 0.930 . S
H140 C127 0.931 . S
H141 C128 0.929 . S
H142 C136 0.929 . S
H143 C137 0.930 . S
Mn144 O149 2.095 . S
Mn144 O159 2.162 . S
Mn144 O160 2.297 . S
Mn144 O168 2.385 . S
Mn144 O169 2.209 . S
Mn144 O170 2.094 . S
Mn145 O150 2.121 . S
Mn145 N152 2.257 . S
Mn145 N161 2.282 . S
Mn145 O169 2.215 . S
Mn145 O171 2.117 . S
C146 O168 1.234 . S
C146 O169 1.283 . S
C147 O159 1.281 . S
C147 O160 1.236 . S
C148 O170 1.240 . S
C148 O171 1.264 . S
O149 Mn144 2.095 . S
O149 C158 1.250 . S
O150 Mn145 2.121 . S
O150 C158 1.258 . S
C151 N152 1.326 . S
C151 C155 1.460 . S
C151 H157 0.929 . S
N152 Mn145 2.257 . S
N152 C151 1.326 . S
N152 C156 1.362 . S
C153 C154 1.258 . S
C153 C156 1.431 . S
C153 C173 1.449 . S
C154 C153 1.258 . S
C154 C155 1.477 . S
C154 H174 0.931 . S
C155 C151 1.460 . S
C155 C154 1.477 . S
C155 H175 0.930 . S
C156 N152 1.362 . S
C156 C153 1.431 . S
C156 C166 1.476 . S
H157 C151 0.929 . S
C158 O149 1.250 . S
C158 O150 1.258 . S
O159 Mn144 2.162 . S
O159 C147 1.281 . S
O160 Mn144 2.297 . S
O160 C147 1.236 . S
N161 Mn145 2.282 . S
N161 C162 1.328 . S
N161 C166 1.318 . S
C162 N161 1.328 . S
C162 C163 1.457 . S
C162 H167 0.929 . S
C163 C162 1.457 . S
C163 C164 1.291 . S
C163 H176 0.931 1_554 S
C164 C163 1.291 . S
C164 C165 1.373 . S
C164 H177 0.929 . S
C165 C164 1.373 . S
C165 C166 1.396 . S
C165 C172 1.403 . S
C166 C156 1.476 . S
C166 N161 1.318 . S
C166 C165 1.396 . S
H167 C162 0.929 . S
O168 Mn144 2.385 . S
O168 C146 1.234 . S
O169 Mn144 2.209 . S
O169 Mn145 2.215 . S
O169 C146 1.283 . S
O170 Mn144 2.094 . S
O170 C148 1.240 . S
O171 Mn145 2.117 . S
O171 C148 1.264 . S
C172 C165 1.403 . S
C172 C173 1.399 . S
C172 H178 0.929 . S
C173 C153 1.449 . S
C173 C172 1.399 . S
C173 H179 0.930 . S
H174 C154 0.931 . S
H175 C155 0.930 . S
H176 C163 0.931 1_556 S
H177 C164 0.929 . S
H178 C172 0.929 . S
H179 C173 0.930 . S
Mn180 O185 2.095 . S
Mn180 O195 2.162 . S
Mn180 O196 2.297 . S
Mn180 O204 2.385 . S
Mn180 O205 2.209 . S
Mn180 O206 2.094 . S
Mn181 O186 2.121 . S
Mn181 N188 2.257 . S
Mn181 N197 2.282 . S
Mn181 O205 2.215 . S
Mn181 O207 2.117 . S
C182 O204 1.234 . S
C182 O205 1.283 . S
C183 O195 1.281 . S
C183 O196 1.236 . S
C184 O206 1.240 . S
C184 O207 1.264 . S
O185 Mn180 2.095 . S
O185 C194 1.250 . S
O186 Mn181 2.121 . S
O186 C194 1.258 . S
C187 N188 1.326 . S
C187 C191 1.460 . S
C187 H193 0.929 . S
N188 Mn181 2.257 . S
N188 C187 1.326 . S
N188 C192 1.362 . S
C189 C190 1.258 . S
C189 C192 1.431 . S
C189 C209 1.449 . S
C190 C189 1.258 . S
C190 C191 1.477 . S
C190 H210 0.931 . S
C191 C187 1.460 . S
C191 C190 1.477 . S
C191 H211 0.930 . S
C192 N188 1.362 . S
C192 C189 1.431 . S
C192 C202 1.476 . S
H193 C187 0.929 . S
C194 O185 1.250 . S
C194 O186 1.258 . S
O195 Mn180 2.162 . S
O195 C183 1.281 . S
O196 Mn180 2.297 . S
O196 C183 1.236 . S
N197 Mn181 2.282 . S
N197 C198 1.328 . S
N197 C202 1.318 . S
C198 N197 1.328 . S
C198 C199 1.457 . S
C198 H203 0.929 . S
C199 C198 1.457 . S
C199 C200 1.291 . S
C199 H212 0.931 . S
C200 C199 1.291 . S
C200 C201 1.373 . S
C200 H213 0.929 . S
C201 C200 1.373 . S
C201 C202 1.396 . S
C201 C208 1.403 . S
C202 C192 1.476 . S
C202 N197 1.318 . S
C202 C201 1.396 . S
H203 C198 0.929 . S
O204 Mn180 2.385 . S
O204 C182 1.234 . S
O205 Mn180 2.209 . S
O205 Mn181 2.215 . S
O205 C182 1.283 . S
O206 Mn180 2.094 . S
O206 C184 1.240 . S
O207 Mn181 2.117 . S
O207 C184 1.264 . S
C208 C201 1.403 . S
C208 C209 1.399 . S
C208 H214 0.929 . S
C209 C189 1.449 . S
C209 C208 1.399 . S
C209 H215 0.930 . S
H210 C190 0.931 . S
H211 C191 0.930 . S
H212 C199 0.931 . S
H213 C200 0.929 . S
H214 C208 0.929 . S
H215 C209 0.930 . S
Mn216 O221 2.095 . S
Mn216 O231 2.162 . S
Mn216 O232 2.297 . S
Mn216 O240 2.385 . S
Mn216 O241 2.209 . S
Mn216 O242 2.094 . S
Mn217 O222 2.121 . S
Mn217 N224 2.257 . S
Mn217 N233 2.282 . S
Mn217 O241 2.215 . S
Mn217 O243 2.117 . S
C218 O240 1.234 . S
C218 O241 1.283 . S
C219 O231 1.281 . S
C219 O232 1.236 . S
C220 O242 1.240 . S
C220 O243 1.264 . S
O221 Mn216 2.095 . S
O221 C230 1.250 . S
O222 Mn217 2.121 . S
O222 C230 1.258 . S
C223 N224 1.326 . S
C223 C227 1.460 . S
C223 H229 0.929 . S
N224 Mn217 2.257 . S
N224 C223 1.326 . S
N224 C228 1.362 . S
C225 C226 1.258 . S
C225 C228 1.431 . S
C225 C245 1.449 . S
C226 C225 1.258 . S
C226 C227 1.477 . S
C226 H246 0.931 . S
C227 C223 1.460 . S
C227 C226 1.477 . S
C227 H247 0.930 . S
C228 N224 1.362 . S
C228 C225 1.431 . S
C228 C238 1.476 . S
H229 C223 0.929 . S
C230 O221 1.250 . S
C230 O222 1.258 . S
O231 Mn216 2.162 . S
O231 C219 1.281 . S
O232 Mn216 2.297 . S
O232 C219 1.236 . S
N233 Mn217 2.282 . S
N233 C234 1.328 . S
N233 C238 1.318 . S
C234 N233 1.328 . S
C234 C235 1.457 . S
C234 H239 0.929 . S
C235 C234 1.457 . S
C235 C236 1.291 . S
C235 H248 0.931 . S
C236 C235 1.291 . S
C236 C237 1.373 . S
C236 H249 0.929 . S
C237 C236 1.373 . S
C237 C238 1.396 . S
C237 C244 1.403 . S
C238 C228 1.476 . S
C238 N233 1.318 . S
C238 C237 1.396 . S
H239 C234 0.929 . S
O240 Mn216 2.385 . S
O240 C218 1.234 . S
O241 Mn216 2.209 . S
O241 Mn217 2.215 . S
O241 C218 1.283 . S
O242 Mn216 2.094 . S
O242 C220 1.240 . S
O243 Mn217 2.117 . S
O243 C220 1.264 . S
C244 C237 1.403 . S
C244 C245 1.399 . S
C244 H250 0.929 . S
C245 C225 1.449 . S
C245 C244 1.399 . S
C245 H251 0.930 . S
H246 C226 0.931 . S
H247 C227 0.930 . S
H248 C235 0.931 . S
H249 C236 0.929 . S
H250 C244 0.929 . S
H251 C245 0.930 . S
Mn252 O257 2.095 . S
Mn252 O267 2.162 . S
Mn252 O268 2.297 . S
Mn252 O276 2.385 . S
Mn252 O277 2.209 . S
Mn252 O278 2.094 . S
Mn253 O258 2.121 . S
Mn253 N260 2.257 . S
Mn253 N269 2.282 . S
Mn253 O277 2.215 . S
Mn253 O279 2.117 . S
C254 O276 1.234 . S
C254 O277 1.283 . S
C255 O267 1.281 . S
C255 O268 1.236 . S
C256 O278 1.240 . S
C256 O279 1.264 . S
O257 Mn252 2.095 . S
O257 C266 1.250 . S
O258 Mn253 2.121 . S
O258 C266 1.258 . S
C259 N260 1.326 . S
C259 C263 1.460 . S
C259 H265 0.929 . S
N260 Mn253 2.257 . S
N260 C259 1.326 . S
N260 C264 1.362 . S
C261 C262 1.258 . S
C261 C264 1.431 . S
C261 C281 1.449 . S
C262 C261 1.258 . S
C262 C263 1.477 . S
C262 H282 0.931 . S
C263 C259 1.460 . S
C263 C262 1.477 . S
C263 H283 0.930 . S
C264 N260 1.362 . S
C264 C261 1.431 . S
C264 C274 1.476 . S
H265 C259 0.929 . S
C266 O257 1.250 . S
C266 O258 1.258 . S
O267 Mn252 2.162 . S
O267 C255 1.281 . S
O268 Mn252 2.297 . S
O268 C255 1.236 . S
N269 Mn253 2.282 . S
N269 C270 1.328 . S
N269 C274 1.318 . S
C270 N269 1.328 . S
C270 C271 1.457 1_556 S
C270 H275 0.929 . S
C271 C270 1.457 1_554 S
C271 C272 1.291 1_554 S
C271 H284 0.931 . S
C272 C271 1.291 1_556 S
C272 C273 1.373 . S
C272 H285 0.929 1_556 S
C273 C272 1.373 . S
C273 C274 1.396 . S
C273 C280 1.403 . S
C274 C264 1.476 . S
C274 N269 1.318 . S
C274 C273 1.396 . S
H275 C270 0.929 . S
O276 Mn252 2.385 . S
O276 C254 1.234 . S
O277 Mn252 2.209 . S
O277 Mn253 2.215 . S
O277 C254 1.283 . S
O278 Mn252 2.094 . S
O278 C256 1.240 . S
O279 Mn253 2.117 . S
O279 C256 1.264 . S
C280 C273 1.403 . S
C280 C281 1.399 . S
C280 H286 0.929 . S
C281 C261 1.449 . S
C281 C280 1.399 . S
C281 H287 0.930 . S
H282 C262 0.931 . S
H283 C263 0.930 . S
H284 C271 0.931 . S
H285 C272 0.929 1_554 S
H286 C280 0.929 . S
H287 C281 0.930 . S
Mn288 O293 2.095 . S
Mn288 O303 2.162 . S
Mn288 O304 2.297 . S
Mn288 O312 2.385 . S
Mn288 O313 2.209 . S
Mn288 O314 2.094 . S
Mn289 O294 2.121 . S
Mn289 N296 2.257 . S
Mn289 N305 2.282 . S
Mn289 O313 2.215 . S
Mn289 O315 2.117 . S
C290 O312 1.234 . S
C290 O313 1.283 . S
C291 O303 1.281 . S
C291 O304 1.236 . S
C292 O314 1.240 . S
C292 O315 1.264 . S
O293 Mn288 2.095 . S
O293 C302 1.250 . S
O294 Mn289 2.121 . S
O294 C302 1.258 . S
C295 N296 1.326 . S
C295 C299 1.460 . S
C295 H301 0.929 . S
N296 Mn289 2.257 . S
N296 C295 1.326 . S
N296 C300 1.362 . S
C297 C298 1.258 . S
C297 C300 1.431 . S
C297 C317 1.449 . S
C298 C297 1.258 . S
C298 C299 1.477 . S
C298 H318 0.931 . S
C299 C295 1.460 . S
C299 C298 1.477 . S
C299 H319 0.930 . S
C300 N296 1.362 . S
C300 C297 1.431 . S
C300 C310 1.476 . S
H301 C295 0.929 . S
C302 O293 1.250 . S
C302 O294 1.258 . S
O303 Mn288 2.162 . S
O303 C291 1.281 . S
O304 Mn288 2.297 . S
O304 C291 1.236 . S
N305 Mn289 2.282 . S
N305 C306 1.328 . S
N305 C310 1.318 . S
C306 N305 1.328 . S
C306 C307 1.457 . S
C306 H311 0.929 . S
C307 C306 1.457 . S
C307 C308 1.291 . S
C307 H320 0.931 . S
C308 C307 1.291 . S
C308 C309 1.373 . S
C308 H321 0.929 . S
C309 C308 1.373 . S
C309 C310 1.396 . S
C309 C316 1.403 . S
C310 C300 1.476 . S
C310 N305 1.318 . S
C310 C309 1.396 . S
H311 C306 0.929 . S
O312 Mn288 2.385 . S
O312 C290 1.234 . S
O313 Mn288 2.209 . S
O313 Mn289 2.215 . S
O313 C290 1.283 . S
O314 Mn288 2.094 . S
O314 C292 1.240 . S
O315 Mn289 2.117 . S
O315 C292 1.264 . S
C316 C309 1.403 . S
C316 C317 1.399 . S
C316 H322 0.929 . S
C317 C297 1.449 . S
C317 C316 1.399 . S
C317 H323 0.930 . S
H318 C298 0.931 . S
H319 C299 0.930 . S
H320 C307 0.931 . S
H321 C308 0.929 . S
H322 C316 0.929 . S
H323 C317 0.930 . S
Mn324 O329 2.095 . S
Mn324 O339 2.162 . S
Mn324 O340 2.297 . S
Mn324 O348 2.385 . S
Mn324 O349 2.209 . S
Mn324 O350 2.094 . S
Mn325 O330 2.121 . S
Mn325 N332 2.257 . S
Mn325 N341 2.282 . S
Mn325 O349 2.215 . S
Mn325 O351 2.117 . S
C326 O348 1.234 . S
C326 O349 1.283 . S
C327 O339 1.281 . S
C327 O340 1.236 . S
C328 O350 1.240 . S
C328 O351 1.264 . S
O329 Mn324 2.095 . S
O329 C338 1.250 . S
O330 Mn325 2.121 . S
O330 C338 1.258 . S
C331 N332 1.326 . S
C331 C335 1.460 . S
C331 H337 0.929 . S
N332 Mn325 2.257 . S
N332 C331 1.326 . S
N332 C336 1.362 . S
C333 C334 1.258 . S
C333 C336 1.431 . S
C333 C353 1.449 . S
C334 C333 1.258 . S
C334 C335 1.477 . S
C334 H354 0.931 . S
C335 C331 1.460 . S
C335 C334 1.477 . S
C335 H355 0.930 . S
C336 N332 1.362 . S
C336 C333 1.431 . S
C336 C346 1.476 . S
H337 C331 0.929 . S
C338 O329 1.250 . S
C338 O330 1.258 . S
O339 Mn324 2.162 . S
O339 C327 1.281 . S
O340 Mn324 2.297 . S
O340 C327 1.236 . S
N341 Mn325 2.282 . S
N341 C342 1.328 . S
N341 C346 1.318 . S
C342 N341 1.328 . S
C342 C343 1.457 . S
C342 H347 0.929 . S
C343 C342 1.457 . S
C343 C344 1.291 . S
C343 H356 0.931 1_556 S
C344 C343 1.291 . S
C344 C345 1.373 . S
C344 H357 0.929 . S
C345 C344 1.373 . S
C345 C346 1.396 . S
C345 C352 1.403 . S
C346 C336 1.476 . S
C346 N341 1.318 . S
C346 C345 1.396 . S
H347 C342 0.929 . S
O348 Mn324 2.385 . S
O348 C326 1.234 . S
O349 Mn324 2.209 . S
O349 Mn325 2.215 . S
O349 C326 1.283 . S
O350 Mn324 2.094 . S
O350 C328 1.240 . S
O351 Mn325 2.117 . S
O351 C328 1.264 . S
C352 C345 1.403 . S
C352 C353 1.399 . S
C352 H358 0.929 . S
C353 C333 1.449 . S
C353 C352 1.399 . S
C353 H359 0.930 . S
H354 C334 0.931 . S
H355 C335 0.930 . S
H356 C343 0.931 1_554 S
H357 C344 0.929 . S
H358 C352 0.929 . S
H359 C353 0.930 . S
Mn360 O365 2.095 . S
Mn360 O375 2.162 . S
Mn360 O376 2.297 . S
Mn360 O384 2.385 . S
Mn360 O385 2.209 . S
Mn360 O386 2.094 . S
Mn361 O366 2.121 . S
Mn361 N368 2.257 . S
Mn361 N377 2.282 . S
Mn361 O385 2.215 . S
Mn361 O387 2.117 . S
C362 O384 1.234 . S
C362 O385 1.283 . S
C363 O375 1.281 . S
C363 O376 1.236 . S
C364 O386 1.240 . S
C364 O387 1.264 . S
O365 Mn360 2.095 . S
O365 C374 1.250 . S
O366 Mn361 2.121 . S
O366 C374 1.258 . S
C367 N368 1.326 . S
C367 C371 1.460 . S
C367 H373 0.929 . S
N368 Mn361 2.257 . S
N368 C367 1.326 . S
N368 C372 1.362 . S
C369 C370 1.258 . S
C369 C372 1.431 . S
C369 C389 1.449 . S
C370 C369 1.258 . S
C370 C371 1.477 . S
C370 H390 0.931 . S
C371 C367 1.460 . S
C371 C370 1.477 . S
C371 H391 0.930 . S
C372 N368 1.362 . S
C372 C369 1.431 . S
C372 C382 1.476 . S
H373 C367 0.929 . S
C374 O365 1.250 . S
C374 O366 1.258 . S
O375 Mn360 2.162 . S
O375 C363 1.281 . S
O376 Mn360 2.297 . S
O376 C363 1.236 . S
N377 Mn361 2.282 . S
N377 C378 1.328 . S
N377 C382 1.318 . S
C378 N377 1.328 . S
C378 C379 1.457 . S
C378 H383 0.929 . S
C379 C378 1.457 . S
C379 C380 1.291 . S
C379 H392 0.931 . S
C380 C379 1.291 . S
C380 C381 1.373 . S
C380 H393 0.929 . S
C381 C380 1.373 . S
C381 C382 1.396 . S
C381 C388 1.403 . S
C382 C372 1.476 . S
C382 N377 1.318 . S
C382 C381 1.396 . S
H383 C378 0.929 . S
O384 Mn360 2.385 . S
O384 C362 1.234 . S
O385 Mn360 2.209 . S
O385 Mn361 2.215 . S
O385 C362 1.283 . S
O386 Mn360 2.094 . S
O386 C364 1.240 . S
O387 Mn361 2.117 . S
O387 C364 1.264 . S
C388 C381 1.403 . S
C388 C389 1.399 . S
C388 H394 0.929 . S
C389 C369 1.449 . S
C389 C388 1.399 . S
C389 H395 0.930 . S
H390 C370 0.931 . S
H391 C371 0.930 . S
H392 C379 0.931 . S
H393 C380 0.929 . S
H394 C388 0.929 . S
H395 C389 0.930 . S
Mn396 O401 2.095 . S
Mn396 O411 2.162 . S
Mn396 O412 2.297 . S
Mn396 O420 2.385 . S
Mn396 O421 2.209 . S
Mn396 O422 2.094 . S
Mn397 O402 2.121 . S
Mn397 N404 2.257 . S
Mn397 N413 2.282 . S
Mn397 O421 2.215 . S
Mn397 O423 2.117 . S
C398 O420 1.234 . S
C398 O421 1.283 . S
C399 O411 1.281 . S
C399 O412 1.236 . S
C400 O422 1.240 . S
C400 O423 1.264 . S
O401 Mn396 2.095 . S
O401 C410 1.250 . S
O402 Mn397 2.121 . S
O402 C410 1.258 . S
C403 N404 1.326 . S
C403 C407 1.460 . S
C403 H409 0.929 . S
N404 Mn397 2.257 . S
N404 C403 1.326 . S
N404 C408 1.362 . S
C405 C406 1.258 . S
C405 C408 1.431 . S
C405 C425 1.449 . S
C406 C405 1.258 . S
C406 C407 1.477 . S
C406 H426 0.931 . S
C407 C403 1.460 . S
C407 C406 1.477 . S
C407 H427 0.930 . S
C408 N404 1.362 . S
C408 C405 1.431 . S
C408 C418 1.476 . S
H409 C403 0.929 . S
C410 O401 1.250 . S
C410 O402 1.258 . S
O411 Mn396 2.162 . S
O411 C399 1.281 . S
O412 Mn396 2.297 . S
O412 C399 1.236 . S
N413 Mn397 2.282 . S
N413 C414 1.328 . S
N413 C418 1.318 . S
C414 N413 1.328 . S
C414 C415 1.457 . S
C414 H419 0.929 . S
C415 C414 1.457 . S
C415 C416 1.291 . S
C415 H428 0.931 1_556 S
C416 C415 1.291 . S
C416 C417 1.373 . S
C416 H429 0.929 . S
C417 C416 1.373 . S
C417 C418 1.396 . S
C417 C424 1.403 . S
C418 C408 1.476 . S
C418 N413 1.318 . S
C418 C417 1.396 . S
H419 C414 0.929 . S
O420 Mn396 2.385 . S
O420 C398 1.234 . S
O421 Mn396 2.209 . S
O421 Mn397 2.215 . S
O421 C398 1.283 . S
O422 Mn396 2.094 . S
O422 C400 1.240 . S
O423 Mn397 2.117 . S
O423 C400 1.264 . S
C424 C417 1.403 . S
C424 C425 1.399 . S
C424 H430 0.929 . S
C425 C405 1.449 . S
C425 C424 1.399 . S
C425 H431 0.930 . S
H426 C406 0.931 . S
H427 C407 0.930 . S
H428 C415 0.931 1_554 S
H429 C416 0.929 . S
H430 C424 0.929 . S
H431 C425 0.930 . S
C432 C433 1.349 . S
C432 C434 1.327 . S
C432 H457 0.950 . S
C433 C432 1.349 . S
C433 C449 1.349 . S
C434 C432 1.327 . S
C434 C453 1.429 . S
C434 H458 0.950 . S
C435 C452 1.574 . S
C435 C454 1.368 . S
C435 H459 0.949 . S
H436 C440 0.949 . S
C437 C438 1.349 . S
C437 C439 1.327 . S
C437 H460 0.950 . S
C438 C437 1.349 . S
C438 C450 1.349 . S
C439 C437 1.327 . S
C439 C455 1.429 . S
C439 H461 0.950 . S
C440 H436 0.949 . S
C440 C448 1.574 . S
C440 C456 1.368 . S
H441 C449 0.950 . S
H442 C447 0.950 . S
H443 C448 0.949 . S
H444 C450 0.950 . S
H445 C451 0.950 . S
H446 C452 0.949 . S
C447 H442 0.950 . S
C447 C449 1.327 . S
C447 C453 1.429 . S
C448 C440 1.574 . S
C448 H443 0.949 . S
C448 C454 1.368 . S
C449 C433 1.349 . S
C449 H441 0.950 . S
C449 C447 1.327 . S
C450 C438 1.349 . S
C450 H444 0.950 . S
C450 C451 1.327 . S
C451 H445 0.950 . S
C451 C450 1.327 . S
C451 C455 1.429 . S
C452 C435 1.574 . S
C452 H446 0.949 . S
C452 C456 1.368 . S
C453 C434 1.429 . S
C453 C447 1.429 . S
C453 C454 1.523 . S
C454 C435 1.368 . S
C454 C448 1.368 . S
C454 C453 1.523 . S
C455 C439 1.429 . S
C455 C451 1.429 . S
C455 C456 1.523 . S
C456 C440 1.368 . S
C456 C452 1.368 . S
C456 C455 1.523 . S
H457 C432 0.950 . S
H458 C434 0.950 . S
H459 C435 0.949 . S
H460 C437 0.950 . S
H461 C439 0.950 . S
C462 C463 1.349 . S
C462 C464 1.327 . S
C462 H487 0.950 . S
C463 C462 1.349 . S
C463 C479 1.349 . S
C464 C462 1.327 . S
C464 C483 1.429 . S
C464 H488 0.950 . S
C465 C482 1.574 . S
C465 C484 1.368 . S
C465 H489 0.949 . S
H466 C470 0.949 . S
C467 C468 1.349 . S
C467 C469 1.327 . S
C467 H490 0.950 . S
C468 C467 1.349 . S
C468 C480 1.349 . S
C469 C467 1.327 . S
C469 C485 1.429 . S
C469 H491 0.950 . S
C470 H466 0.949 . S
C470 C478 1.574 . S
C470 C486 1.368 . S
H471 C479 0.950 . S
H472 C477 0.950 . S
H473 C478 0.949 . S
H474 C480 0.950 . S
H475 C481 0.950 . S
H476 C482 0.949 . S
C477 H472 0.950 . S
C477 C479 1.327 . S
C477 C483 1.429 . S
C478 C470 1.574 . S
C478 H473 0.949 . S
C478 C484 1.368 . S
C479 C463 1.349 . S
C479 H471 0.950 . S
C479 C477 1.327 . S
C480 C468 1.349 . S
C480 H474 0.950 . S
C480 C481 1.327 . S
C481 H475 0.950 . S
C481 C480 1.327 . S
C481 C485 1.429 . S
C482 C465 1.574 . S
C482 H476 0.949 . S
C482 C486 1.368 . S
C483 C464 1.429 . S
C483 C477 1.429 . S
C483 C484 1.523 . S
C484 C465 1.368 . S
C484 C478 1.368 . S
C484 C483 1.523 . S
C485 C469 1.429 . S
C485 C481 1.429 . S
C485 C486 1.523 . S
C486 C470 1.368 . S
C486 C482 1.368 . S
C486 C485 1.523 . S
H487 C462 0.950 . S
H488 C464 0.950 . S
H489 C465 0.949 . S
H490 C467 0.950 . S
H491 C469 0.950 . S
C492 C493 1.349 . S
C492 C494 1.327 . S
C492 H517 0.950 . S
C493 C492 1.349 . S
C493 C509 1.349 . S
C494 C492 1.327 . S
C494 C513 1.429 . S
C494 H518 0.950 . S
C495 C512 1.574 . S
C495 C514 1.368 . S
C495 H519 0.949 . S
H496 C500 0.949 . S
C497 C498 1.349 . S
C497 C499 1.327 . S
C497 H520 0.950 . S
C498 C497 1.349 . S
C498 C510 1.349 . S
C499 C497 1.327 . S
C499 C515 1.429 . S
C499 H521 0.950 . S
C500 H496 0.949 . S
C500 C508 1.574 . S
C500 C516 1.368 . S
H501 C509 0.950 . S
H502 C507 0.950 . S
H503 C508 0.949 . S
H504 C510 0.950 . S
H505 C511 0.950 . S
H506 C512 0.949 . S
C507 H502 0.950 . S
C507 C509 1.327 . S
C507 C513 1.429 . S
C508 C500 1.574 . S
C508 H503 0.949 . S
C508 C514 1.368 . S
C509 C493 1.349 . S
C509 H501 0.950 . S
C509 C507 1.327 . S
C510 C498 1.349 . S
C510 H504 0.950 . S
C510 C511 1.327 . S
C511 H505 0.950 . S
C511 C510 1.327 . S
C511 C515 1.429 . S
C512 C495 1.574 . S
C512 H506 0.949 . S
C512 C516 1.368 . S
C513 C494 1.429 . S
C513 C507 1.429 . S
C513 C514 1.523 . S
C514 C495 1.368 . S
C514 C508 1.368 . S
C514 C513 1.523 . S
C515 C499 1.429 . S
C515 C511 1.429 . S
C515 C516 1.523 . S
C516 C500 1.368 . S
C516 C512 1.368 . S
C516 C515 1.523 . S
H517 C492 0.950 . S
H518 C494 0.950 . S
H519 C495 0.949 . S
H520 C497 0.950 . S
H521 C499 0.950 . S
C522 C523 1.349 . S
C522 C524 1.327 . S
C522 H547 0.950 . S
C523 C522 1.349 . S
C523 C539 1.349 . S
C524 C522 1.327 . S
C524 C543 1.429 . S
C524 H548 0.950 . S
C525 C542 1.574 . S
C525 C544 1.368 . S
C525 H549 0.949 . S
H526 C530 0.949 . S
C527 C528 1.349 . S
C527 C529 1.327 . S
C527 H550 0.950 . S
C528 C527 1.349 . S
C528 C540 1.349 . S
C529 C527 1.327 . S
C529 C545 1.429 . S
C529 H551 0.950 . S
C530 H526 0.949 . S
C530 C538 1.574 . S
C530 C546 1.368 . S
H531 C539 0.950 . S
H532 C537 0.950 . S
H533 C538 0.949 . S
H534 C540 0.950 . S
H535 C541 0.950 . S
H536 C542 0.949 . S
C537 H532 0.950 . S
C537 C539 1.327 . S
C537 C543 1.429 . S
C538 C530 1.574 . S
C538 H533 0.949 . S
C538 C544 1.368 . S
C539 C523 1.349 . S
C539 H531 0.950 . S
C539 C537 1.327 . S
C540 C528 1.349 . S
C540 H534 0.950 . S
C540 C541 1.327 . S
C541 H535 0.950 . S
C541 C540 1.327 . S
C541 C545 1.429 . S
C542 C525 1.574 . S
C542 H536 0.949 . S
C542 C546 1.368 . S
C543 C524 1.429 . S
C543 C537 1.429 . S
C543 C544 1.523 . S
C544 C525 1.368 . S
C544 C538 1.368 . S
C544 C543 1.523 . S
C545 C529 1.429 . S
C545 C541 1.429 . S
C545 C546 1.523 . S
C546 C530 1.368 . S
C546 C542 1.368 . S
C546 C545 1.523 . S
H547 C522 0.950 . S
H548 C524 0.950 . S
H549 C525 0.949 . S
H550 C527 0.950 . S
H551 C529 0.950 . S
C552 C553 1.349 . S
C552 C554 1.327 . S
C552 H577 0.950 . S
C553 C552 1.349 . S
C553 C569 1.349 . S
C554 C552 1.327 . S
C554 C573 1.429 . S
C554 H578 0.950 . S
C555 C572 1.574 . S
C555 C574 1.368 . S
C555 H579 0.949 . S
H556 C560 0.949 . S
C557 C558 1.349 . S
C557 C559 1.327 . S
C557 H580 0.950 . S
C558 C557 1.349 . S
C558 C570 1.349 . S
C559 C557 1.327 . S
C559 C575 1.429 . S
C559 H581 0.950 . S
C560 H556 0.949 . S
C560 C568 1.574 . S
C560 C576 1.368 . S
H561 C569 0.950 . S
H562 C567 0.950 . S
H563 C568 0.949 . S
H564 C570 0.950 . S
H565 C571 0.950 . S
H566 C572 0.949 . S
C567 H562 0.950 . S
C567 C569 1.327 . S
C567 C573 1.429 . S
C568 C560 1.574 . S
C568 H563 0.949 . S
C568 C574 1.368 . S
C569 C553 1.349 . S
C569 H561 0.950 . S
C569 C567 1.327 . S
C570 C558 1.349 . S
C570 H564 0.950 . S
C570 C571 1.327 . S
C571 H565 0.950 . S
C571 C570 1.327 . S
C571 C575 1.429 . S
C572 C555 1.574 . S
C572 H566 0.949 . S
C572 C576 1.368 . S
C573 C554 1.429 . S
C573 C567 1.429 . S
C573 C574 1.523 . S
C574 C555 1.368 . S
C574 C568 1.368 . S
C574 C573 1.523 . S
C575 C559 1.429 . S
C575 C571 1.429 . S
C575 C576 1.523 . S
C576 C560 1.368 . S
C576 C572 1.368 . S
C576 C575 1.523 . S
H577 C552 0.950 . S
H578 C554 0.950 . S
H579 C555 0.949 . S
H580 C557 0.950 . S
H581 C559 0.950 . S
C582 C583 1.349 . S
C582 C584 1.327 . S
C582 H607 0.950 . S
C583 C582 1.349 . S
C583 C599 1.349 . S
C584 C582 1.327 . S
C584 C603 1.429 . S
C584 H608 0.950 . S
C585 C602 1.574 . S
C585 C604 1.368 . S
C585 H609 0.949 . S
H586 C590 0.949 . S
C587 C588 1.349 . S
C587 C589 1.327 . S
C587 H610 0.950 . S
C588 C587 1.349 . S
C588 C600 1.349 . S
C589 C587 1.327 . S
C589 C605 1.429 . S
C589 H611 0.950 . S
C590 H586 0.949 . S
C590 C598 1.574 . S
C590 C606 1.368 . S
H591 C599 0.950 . S
H592 C597 0.950 . S
H593 C598 0.949 . S
H594 C600 0.950 . S
H595 C601 0.950 . S
H596 C602 0.949 . S
C597 H592 0.950 . S
C597 C599 1.327 . S
C597 C603 1.429 . S
C598 C590 1.574 . S
C598 H593 0.949 . S
C598 C604 1.368 . S
C599 C583 1.349 . S
C599 H591 0.950 . S
C599 C597 1.327 . S
C600 C588 1.349 . S
C600 H594 0.950 . S
C600 C601 1.327 . S
C601 H595 0.950 . S
C601 C600 1.327 . S
C601 C605 1.429 . S
C602 C585 1.574 . S
C602 H596 0.949 . S
C602 C606 1.368 . S
C603 C584 1.429 . S
C603 C597 1.429 . S
C603 C604 1.523 . S
C604 C585 1.368 . S
C604 C598 1.368 . S
C604 C603 1.523 . S
C605 C589 1.429 . S
C605 C601 1.429 . S
C605 C606 1.523 . S
C606 C590 1.368 . S
C606 C602 1.368 . S
C606 C605 1.523 . S
H607 C582 0.950 . S
H608 C584 0.950 . S
H609 C585 0.949 . S
H610 C587 0.950 . S
H611 C589 0.950 . S
C612 C613 1.349 . S
C612 C614 1.327 . S
C612 H637 0.950 . S
C613 C612 1.349 . S
C613 C629 1.349 . S
C614 C612 1.327 . S
C614 C633 1.429 . S
C614 H638 0.950 . S
C615 C632 1.574 1_545 S
C615 C634 1.368 . S
C615 H639 0.949 . S
H616 C620 0.943 . S
C617 C618 1.349 . S
C617 C619 1.327 . S
C617 H640 0.950 . S
C618 C617 1.349 . S
C618 C630 1.349 . S
C619 C617 1.327 . S
C619 C635 1.429 . S
C619 H641 0.947 1_556 S
C620 H616 0.943 . S
C620 C628 1.562 1_565 S
C620 C636 1.387 . S
H621 C629 0.950 . S
H622 C627 0.950 . S
H623 C628 0.949 . S
H624 C630 0.950 . S
H625 C631 0.950 . S
H626 C632 0.949 . S
C627 H622 0.950 . S
C627 C629 1.327 . S
C627 C633 1.429 . S
C628 C620 1.562 1_545 S
C628 H623 0.949 . S
C628 C634 1.368 1_556 S
C629 C613 1.349 . S
C629 H621 0.950 . S
C629 C627 1.327 . S
C630 C618 1.349 . S
C630 H624 0.950 . S
C630 C631 1.327 . S
C631 H625 0.950 . S
C631 C630 1.327 . S
C631 C635 1.429 . S
C632 C615 1.574 1_565 S
C632 H626 0.949 . S
C632 C636 1.368 1_554 S
C633 C614 1.429 . S
C633 C627 1.429 . S
C633 C634 1.523 . S
C634 C615 1.368 . S
C634 C628 1.368 1_554 S
C634 C633 1.523 . S
C635 C619 1.429 . S
C635 C631 1.429 . S
C635 C636 1.523 . S
C636 C620 1.387 . S
C636 C632 1.368 1_556 S
C636 C635 1.523 . S
H637 C612 0.950 . S
H638 C614 0.950 . S
H639 C615 0.949 . S
H640 C617 0.950 . S
H641 C619 0.947 1_554 S
C642 C643 1.349 . S
C642 C644 1.327 . S
C642 H667 0.950 . S
C643 C642 1.349 . S
C643 C659 1.349 . S
C644 C642 1.327 . S
C644 C663 1.429 . S
C644 H668 0.950 . S
C645 C662 1.574 . S
C645 C664 1.368 . S
C645 H669 0.949 . S
H646 C650 0.949 . S
C647 C648 1.349 . S
C647 C649 1.327 . S
C647 H670 0.950 . S
C648 C647 1.349 . S
C648 C660 1.349 . S
C649 C647 1.327 . S
C649 C665 1.429 . S
C649 H671 0.950 . S
C650 H646 0.949 . S
C650 C658 1.574 . S
C650 C666 1.368 . S
H651 C659 0.950 . S
H652 C657 0.950 . S
H653 C658 0.949 . S
H654 C660 0.950 . S
H655 C661 0.950 . S
H656 C662 0.949 . S
C657 H652 0.950 . S
C657 C659 1.327 . S
C657 C663 1.429 . S
C658 C650 1.574 . S
C658 H653 0.949 . S
C658 C664 1.368 . S
C659 C643 1.349 . S
C659 H651 0.950 . S
C659 C657 1.327 . S
C660 C648 1.349 . S
C660 H654 0.950 . S
C660 C661 1.327 . S
C661 H655 0.950 . S
C661 C660 1.327 . S
C661 C665 1.429 . S
C662 C645 1.574 . S
C662 H656 0.949 . S
C662 C666 1.368 . S
C663 C644 1.429 . S
C663 C657 1.429 . S
C663 C664 1.523 . S
C664 C645 1.368 . S
C664 C658 1.368 . S
C664 C663 1.523 . S
C665 C649 1.429 . S
C665 C661 1.429 . S
C665 C666 1.523 . S
C666 C650 1.368 . S
C666 C662 1.368 . S
C666 C665 1.523 . S
H667 C642 0.950 . S
H668 C644 0.950 . S
H669 C645 0.949 . S
H670 C647 0.950 . S
H671 C649 0.950 . S
C672 C673 1.349 . S
C672 C674 1.327 . S
C672 H697 0.950 . S
C673 C672 1.349 . S
C673 C689 1.349 . S
C674 C672 1.327 . S
C674 C693 1.429 . S
C674 H698 0.950 . S
C675 C692 1.574 1_455 S
C675 C694 1.368 1_554 S
C675 H699 0.949 . S
H676 C680 0.949 . S
C677 C678 1.349 . S
C677 C679 1.327 . S
C677 H700 0.950 . S
C678 C677 1.349 . S
C678 C690 1.349 . S
C679 C677 1.327 . S
C679 C695 1.429 . S
C679 H701 0.950 . S
C680 H676 0.949 . S
C680 C688 1.574 1_655 S
C680 C696 1.368 1_556 S
H681 C689 0.950 . S
H682 C687 0.950 1_554 S
H683 C688 0.949 . S
H684 C690 0.942 1_556 S
H685 C691 0.927 1_556 S
H686 C692 0.949 . S
C687 H682 0.950 1_556 S
C687 C689 1.327 . S
C687 C693 1.429 . S
C688 C680 1.574 1_455 S
C688 H683 0.949 . S
C688 C694 1.368 . S
C689 C673 1.349 . S
C689 H681 0.950 . S
C689 C687 1.327 . S
C690 C678 1.349 . S
C690 H684 0.942 1_554 S
C690 C691 1.336 . S
C691 H685 0.927 1_554 S
C691 C690 1.336 . S
C691 C695 1.442 . S
C692 C675 1.574 1_655 S
C692 H686 0.949 . S
C692 C696 1.368 . S
C693 C674 1.429 . S
C693 C687 1.429 . S
C693 C694 1.523 . S
C694 C675 1.368 1_556 S
C694 C688 1.368 . S
C694 C693 1.523 . S
C695 C679 1.429 . S
C695 C691 1.442 . S
C695 C696 1.523 . S
C696 C680 1.368 1_554 S
C696 C692 1.368 . S
C696 C695 1.523 . S
H697 C672 0.950 . S
H698 C674 0.950 . S
H699 C675 0.949 . S
H700 C677 0.950 . S
H701 C679 0.950 . S
C702 C703 1.349 . S
C702 C704 1.327 . S
C702 H727 0.950 . S
C703 C702 1.349 . S
C703 C719 1.349 . S
C704 C702 1.327 . S
C704 C723 1.429 . S
C704 H728 0.950 . S
C705 C722 1.574 1_545 S
C705 C724 1.368 . S
C705 H729 0.949 . S
H706 C710 0.949 . S
C707 C708 1.349 . S
C707 C709 1.327 . S
C707 H730 0.950 . S
C708 C707 1.349 . S
C708 C720 1.349 . S
C709 C707 1.327 . S
C709 C725 1.429 . S
C709 H731 0.950 . S
C710 H706 0.949 . S
C710 C718 1.563 1_565 S
C710 C726 1.368 . S
H711 C719 0.950 . S
H712 C717 0.950 . S
H713 C718 0.944 . S
H714 C720 0.950 . S
H715 C721 0.950 . S
H716 C722 0.949 . S
C717 H712 0.950 . S
C717 C719 1.327 . S
C717 C723 1.429 . S
C718 C710 1.563 1_545 S
C718 H713 0.944 . S
C718 C724 1.384 . S
C719 C703 1.349 . S
C719 H711 0.950 . S
C719 C717 1.327 . S
C720 C708 1.349 . S
C720 H714 0.950 . S
C720 C721 1.327 . S
C721 H715 0.950 . S
C721 C720 1.327 . S
C721 C725 1.429 . S
C722 C705 1.574 1_565 S
C722 H716 0.949 . S
C722 C726 1.368 . S
C723 C704 1.429 . S
C723 C717 1.429 . S
C723 C724 1.523 . S
C724 C705 1.368 . S
C724 C718 1.384 . S
C724 C723 1.523 . S
C725 C709 1.429 . S
C725 C721 1.429 . S
C725 C726 1.523 . S
C726 C710 1.368 . S
C726 C722 1.368 . S
C726 C725 1.523 . S
H727 C702 0.950 . S
H728 C704 0.950 . S
H729 C705 0.949 . S
H730 C707 0.950 . S
H731 C709 0.950 . S
C732 C733 1.349 . S
C732 C734 1.327 . S
C732 H757 0.950 . S
C733 C732 1.349 . S
C733 C749 1.349 . S
C734 C732 1.327 . S
C734 C753 1.429 . S
C734 H758 0.950 . S
C735 C752 1.574 . S
C735 C754 1.368 1_554 S
C735 H759 0.949 . S
H736 C740 0.949 . S
C737 C738 1.349 . S
C737 C739 1.327 . S
C737 H760 0.950 . S
C738 C737 1.349 . S
C738 C750 1.349 . S
C739 C737 1.327 . S
C739 C755 1.429 . S
C739 H761 0.950 . S
C740 H736 0.949 . S
C740 C748 1.574 . S
C740 C756 1.368 1_556 S
H741 C749 0.961 . S
H742 C747 0.950 1_554 S
H743 C748 0.949 . S
H744 C750 0.961 . S
H745 C751 0.950 1_556 S
H746 C752 0.949 . S
C747 H742 0.950 1_556 S
C747 C749 1.327 . S
C747 C753 1.429 . S
C748 C740 1.574 . S
C748 H743 0.949 . S
C748 C754 1.368 . S
C749 C733 1.349 . S
C749 H741 0.961 . S
C749 C747 1.327 . S
C750 C738 1.349 . S
C750 H744 0.961 . S
C750 C751 1.327 . S
C751 H745 0.950 1_554 S
C751 C750 1.327 . S
C751 C755 1.429 . S
C752 C735 1.574 . S
C752 H746 0.949 . S
C752 C756 1.368 . S
C753 C734 1.429 . S
C753 C747 1.429 . S
C753 C754 1.523 . S
C754 C735 1.368 1_556 S
C754 C748 1.368 . S
C754 C753 1.523 . S
C755 C739 1.429 . S
C755 C751 1.429 . S
C755 C756 1.523 . S
C756 C740 1.368 1_554 S
C756 C752 1.368 . S
C756 C755 1.523 . S
H757 C732 0.950 . S
H758 C734 0.950 . S
H759 C735 0.949 . S
H760 C737 0.950 . S
H761 C739 0.950 . S
C762 C763 1.349 . S
C762 C764 1.327 . S
C762 H787 0.950 . S
C763 C762 1.349 . S
C763 C779 1.349 . S
C764 C762 1.327 . S
C764 C783 1.429 . S
C764 H788 0.950 . S
C765 C782 1.574 1_655 S
C765 C784 1.368 . S
C765 H789 0.949 . S
H766 C770 0.949 . S
C767 C768 1.349 . S
C767 C769 1.327 . S
C767 H790 0.950 . S
C768 C767 1.349 . S
C768 C780 1.349 . S
C769 C767 1.327 . S
C769 C785 1.429 . S
C769 H791 0.950 . S
C770 H766 0.949 . S
C770 C778 1.574 1_455 S
C770 C786 1.368 . S
H771 C779 0.950 . S
H772 C777 0.950 . S
H773 C778 0.949 . S
H774 C780 0.950 . S
H775 C781 0.950 . S
H776 C782 0.949 . S
C777 H772 0.950 . S
C777 C779 1.327 . S
C777 C783 1.429 . S
C778 C770 1.574 1_655 S
C778 H773 0.949 . S
C778 C784 1.368 . S
C779 C763 1.349 . S
C779 H771 0.950 . S
C779 C777 1.327 . S
C780 C768 1.349 . S
C780 H774 0.950 . S
C780 C781 1.327 . S
C781 H775 0.950 . S
C781 C780 1.327 . S
C781 C785 1.429 . S
C782 C765 1.574 1_455 S
C782 H776 0.949 . S
C782 C786 1.368 . S
C783 C764 1.429 . S
C783 C777 1.429 . S
C783 C784 1.523 . S
C784 C765 1.368 . S
C784 C778 1.368 . S
C784 C783 1.523 . S
C785 C769 1.429 . S
C785 C781 1.429 . S
C785 C786 1.523 . S
C786 C770 1.368 . S
C786 C782 1.368 . S
C786 C785 1.523 . S
H787 C762 0.950 . S
H788 C764 0.950 . S
H789 C765 0.949 . S
H790 C767 0.950 . S
H791 C769 0.950 . S
C792 C793 1.349 . S
C792 C794 1.327 . S
C792 H817 0.950 . S
C793 C792 1.349 . S
C793 C809 1.349 . S
C794 C792 1.327 . S
C794 C813 1.429 . S
C794 H818 0.950 . S
C795 C812 1.574 . S
C795 C814 1.368 . S
C795 H819 0.949 . S
H796 C800 0.949 . S
C797 C798 1.349 . S
C797 C799 1.327 . S
C797 H820 0.950 . S
C798 C797 1.349 . S
C798 C810 1.349 . S
C799 C797 1.327 . S
C799 C815 1.429 . S
C799 H821 0.950 . S
C800 H796 0.949 . S
C800 C808 1.574 . S
C800 C816 1.368 . S
H801 C809 0.950 . S
H802 C807 0.950 . S
H803 C808 0.949 . S
H804 C810 0.950 . S
H805 C811 0.950 . S
H806 C812 0.949 . S
C807 H802 0.950 . S
C807 C809 1.327 . S
C807 C813 1.429 . S
C808 C800 1.574 . S
C808 H803 0.949 . S
C808 C814 1.368 . S
C809 C793 1.349 . S
C809 H801 0.950 . S
C809 C807 1.327 . S
C810 C798 1.349 . S
C810 H804 0.950 . S
C810 C811 1.327 . S
C811 H805 0.950 . S
C811 C810 1.327 . S
C811 C815 1.429 . S
C812 C795 1.574 . S
C812 H806 0.949 . S
C812 C816 1.368 . S
C813 C794 1.429 . S
C813 C807 1.429 . S
C813 C814 1.523 . S
C814 C795 1.368 . S
C814 C808 1.368 . S
C814 C813 1.523 . S
C815 C799 1.429 . S
C815 C811 1.429 . S
C815 C816 1.523 . S
C816 C800 1.368 . S
C816 C812 1.368 . S
C816 C815 1.523 . S
H817 C792 0.950 . S
H818 C794 0.950 . S
H819 C795 0.949 . S
H820 C797 0.950 . S
H821 C799 0.950 . S
C822 C823 1.349 . S
C822 C824 1.327 . S
C822 H847 0.950 . S
C823 C822 1.349 . S
C823 C839 1.349 . S
C824 C822 1.327 . S
C824 C843 1.429 . S
C824 H848 0.950 . S
C825 C842 1.574 . S
C825 C844 1.368 . S
C825 H849 0.949 . S
H826 C830 0.949 . S
C827 C828 1.349 . S
C827 C829 1.327 . S
C827 H850 0.950 . S
C828 C827 1.349 . S
C828 C840 1.349 . S
C829 C827 1.327 . S
C829 C845 1.429 . S
C829 H851 0.950 . S
C830 H826 0.949 . S
C830 C838 1.574 . S
C830 C846 1.368 . S
H831 C839 0.950 . S
H832 C837 0.950 . S
H833 C838 0.949 . S
H834 C840 0.950 . S
H835 C841 0.950 . S
H836 C842 0.949 . S
C837 H832 0.950 . S
C837 C839 1.327 . S
C837 C843 1.429 . S
C838 C830 1.574 . S
C838 H833 0.949 . S
C838 C844 1.368 . S
C839 C823 1.349 . S
C839 H831 0.950 . S
C839 C837 1.327 . S
C840 C828 1.349 . S
C840 H834 0.950 . S
C840 C841 1.327 . S
C841 H835 0.950 . S
C841 C840 1.327 . S
C841 C845 1.429 . S
C842 C825 1.574 . S
C842 H836 0.949 . S
C842 C846 1.368 . S
C843 C824 1.429 . S
C843 C837 1.429 . S
C843 C844 1.523 . S
C844 C825 1.368 . S
C844 C838 1.368 . S
C844 C843 1.523 . S
C845 C829 1.429 . S
C845 C841 1.429 . S
C845 C846 1.523 . S
C846 C830 1.368 . S
C846 C842 1.368 . S
C846 C845 1.523 . S
H847 C822 0.950 . S
H848 C824 0.950 . S
H849 C825 0.949 . S
H850 C827 0.950 . S
H851 C829 0.950 . S
C852 C853 1.349 . S
C852 C854 1.327 . S
C852 H877 0.950 . S
C853 C852 1.349 . S
C853 C869 1.349 . S
C854 C852 1.327 . S
C854 C873 1.429 . S
C854 H878 0.950 . S
C855 C872 1.574 . S
C855 C874 1.368 . S
C855 H879 0.949 . S
H856 C860 0.949 . S
C857 C858 1.349 . S
C857 C859 1.327 . S
C857 H880 0.950 . S
C858 C857 1.349 . S
C858 C870 1.349 . S
C859 C857 1.327 . S
C859 C875 1.429 . S
C859 H881 0.950 . S
C860 H856 0.949 . S
C860 C868 1.574 . S
C860 C876 1.368 . S
H861 C869 0.950 . S
H862 C867 0.950 . S
H863 C868 0.949 . S
H864 C870 0.950 . S
H865 C871 0.950 . S
H866 C872 0.949 . S
C867 H862 0.950 . S
C867 C869 1.327 . S
C867 C873 1.429 . S
C868 C860 1.574 . S
C868 H863 0.949 . S
C868 C874 1.368 . S
C869 C853 1.349 . S
C869 H861 0.950 . S
C869 C867 1.327 . S
C870 C858 1.349 . S
C870 H864 0.950 . S
C870 C871 1.327 . S
C871 H865 0.950 . S
C871 C870 1.327 . S
C871 C875 1.429 . S
C872 C855 1.574 . S
C872 H866 0.949 . S
C872 C876 1.368 . S
C873 C854 1.429 . S
C873 C867 1.429 . S
C873 C874 1.523 . S
C874 C855 1.368 . S
C874 C868 1.368 . S
C874 C873 1.523 . S
C875 C859 1.429 . S
C875 C871 1.429 . S
C875 C876 1.523 . S
C876 C860 1.368 . S
C876 C872 1.368 . S
C876 C875 1.523 . S
H877 C852 0.950 . S
H878 C854 0.950 . S
H879 C855 0.949 . S
H880 C857 0.950 . S
H881 C859 0.950 . S
C882 C883 1.349 . S
C882 C884 1.327 . S
C882 H907 0.950 . S
C883 C882 1.349 . S
C883 C899 1.349 . S
C884 C882 1.327 . S
C884 C903 1.429 . S
C884 H908 0.950 . S
C885 C902 1.574 . S
C885 C904 1.368 . S
C885 H909 0.949 . S
H886 C890 0.949 . S
C887 C888 1.349 . S
C887 C889 1.327 . S
C887 H910 0.950 . S
C888 C887 1.349 . S
C888 C900 1.349 . S
C889 C887 1.327 . S
C889 C905 1.429 . S
C889 H911 0.950 . S
C890 H886 0.949 . S
C890 C898 1.574 . S
C890 C906 1.368 . S
H891 C899 0.950 . S
H892 C897 0.950 . S
H893 C898 0.949 . S
H894 C900 0.950 . S
H895 C901 0.950 . S
H896 C902 0.949 . S
C897 H892 0.950 . S
C897 C899 1.327 . S
C897 C903 1.429 . S
C898 C890 1.574 . S
C898 H893 0.949 . S
C898 C904 1.368 . S
C899 C883 1.349 . S
C899 H891 0.950 . S
C899 C897 1.327 . S
C900 C888 1.349 . S
C900 H894 0.950 . S
C900 C901 1.327 . S
C901 H895 0.950 . S
C901 C900 1.327 . S
C901 C905 1.429 . S
C902 C885 1.574 . S
C902 H896 0.949 . S
C902 C906 1.368 . S
C903 C884 1.429 . S
C903 C897 1.429 . S
C903 C904 1.523 . S
C904 C885 1.368 . S
C904 C898 1.368 . S
C904 C903 1.523 . S
C905 C889 1.429 . S
C905 C901 1.429 . S
C905 C906 1.523 . S
C906 C890 1.368 . S
C906 C902 1.368 . S
C906 C905 1.523 . S
H907 C882 0.950 . S
H908 C884 0.950 . S
H909 C885 0.949 . S
H910 C887 0.950 . S
H911 C889 0.950 . S
C912 C913 1.349 . S
C912 C914 1.327 . S
C912 H937 0.950 . S
C913 C912 1.349 . S
C913 C929 1.349 . S
C914 C912 1.327 . S
C914 C933 1.429 . S
C914 H938 0.950 . S
C915 C932 1.574 . S
C915 C934 1.368 . S
C915 H939 0.949 . S
H916 C920 0.949 . S
C917 C918 1.349 . S
C917 C919 1.327 . S
C917 H940 0.950 . S
C918 C917 1.349 . S
C918 C930 1.349 . S
C919 C917 1.327 . S
C919 C935 1.429 . S
C919 H941 0.950 . S
C920 H916 0.949 . S
C920 C928 1.574 . S
C920 C936 1.368 . S
H921 C929 0.950 . S
H922 C927 0.950 . S
H923 C928 0.949 . S
H924 C930 0.950 . S
H925 C931 0.950 . S
H926 C932 0.949 . S
C927 H922 0.950 . S
C927 C929 1.327 . S
C927 C933 1.429 . S
C928 C920 1.574 . S
C928 H923 0.949 . S
C928 C934 1.368 . S
C929 C913 1.349 . S
C929 H921 0.950 . S
C929 C927 1.327 . S
C930 C918 1.349 . S
C930 H924 0.950 . S
C930 C931 1.327 . S
C931 H925 0.950 . S
C931 C930 1.327 . S
C931 C935 1.429 . S
C932 C915 1.574 . S
C932 H926 0.949 . S
C932 C936 1.368 . S
C933 C914 1.429 . S
C933 C927 1.429 . S
C933 C934 1.523 . S
C934 C915 1.368 . S
C934 C928 1.368 . S
C934 C933 1.523 . S
C935 C919 1.429 . S
C935 C931 1.429 . S
C935 C936 1.523 . S
C936 C920 1.368 . S
C936 C932 1.368 . S
C936 C935 1.523 . S
H937 C912 0.950 . S
H938 C914 0.950 . S
H939 C915 0.949 . S
H940 C917 0.950 . S
H941 C919 0.950 . S
C942 C943 1.349 . S
C942 C944 1.327 . S
C942 H967 0.950 . S
C943 C942 1.349 . S
C943 C959 1.349 . S
C944 C942 1.327 . S
C944 C963 1.429 . S
C944 H968 0.950 . S
C945 C962 1.574 . S
C945 C964 1.368 . S
C945 H969 0.949 . S
H946 C950 0.949 . S
C947 C948 1.349 . S
C947 C949 1.327 . S
C947 H970 0.950 . S
C948 C947 1.349 . S
C948 C960 1.349 . S
C949 C947 1.327 . S
C949 C965 1.429 . S
C949 H971 0.950 . S
C950 H946 0.949 . S
C950 C958 1.574 . S
C950 C966 1.368 . S
H951 C959 0.950 . S
H952 C957 0.950 . S
H953 C958 0.949 . S
H954 C960 0.950 . S
H955 C961 0.950 . S
H956 C962 0.949 . S
C957 H952 0.950 . S
C957 C959 1.327 . S
C957 C963 1.429 . S
C958 C950 1.574 . S
C958 H953 0.949 . S
C958 C964 1.368 . S
C959 C943 1.349 . S
C959 H951 0.950 . S
C959 C957 1.327 . S
C960 C948 1.349 . S
C960 H954 0.950 . S
C960 C961 1.327 . S
C961 H955 0.950 . S
C961 C960 1.327 . S
C961 C965 1.429 . S
C962 C945 1.574 . S
C962 H956 0.949 . S
C962 C966 1.368 . S
C963 C944 1.429 . S
C963 C957 1.429 . S
C963 C964 1.523 . S
C964 C945 1.368 . S
C964 C958 1.368 . S
C964 C963 1.523 . S
C965 C949 1.429 . S
C965 C961 1.429 . S
C965 C966 1.523 . S
C966 C950 1.368 . S
C966 C962 1.368 . S
C966 C965 1.523 . S
H967 C942 0.950 . S
H968 C944 0.950 . S
H969 C945 0.949 . S
H970 C947 0.950 . S
H971 C949 0.950 . S
C972 C973 1.349 . S
C972 C974 1.327 . S
C972 H997 0.950 . S
C973 C972 1.349 . S
C973 C989 1.349 . S
C974 C972 1.327 . S
C974 C993 1.429 . S
C974 H998 0.950 . S
C975 C992 1.574 . S
C975 C994 1.368 . S
C975 H999 0.949 . S
H976 C980 0.949 . S
C977 C978 1.349 . S
C977 C979 1.327 . S
C977 H1000 0.950 . S
C978 C977 1.349 . S
C978 C990 1.349 . S
C979 C977 1.327 . S
C979 C995 1.429 . S
C979 H1001 0.950 . S
C980 H976 0.949 . S
C980 C988 1.574 . S
C980 C996 1.368 . S
H981 C989 0.950 . S
H982 C987 0.950 . S
H983 C988 0.949 . S
H984 C990 0.950 . S
H985 C991 0.950 . S
H986 C992 0.949 . S
C987 H982 0.950 . S
C987 C989 1.327 . S
C987 C993 1.429 . S
C988 C980 1.574 . S
C988 H983 0.949 . S
C988 C994 1.368 . S
C989 C973 1.349 . S
C989 H981 0.950 . S
C989 C987 1.327 . S
C990 C978 1.349 . S
C990 H984 0.950 . S
C990 C991 1.327 . S
C991 H985 0.950 . S
C991 C990 1.327 . S
C991 C995 1.429 . S
C992 C975 1.574 . S
C992 H986 0.949 . S
C992 C996 1.368 . S
C993 C974 1.429 . S
C993 C987 1.429 . S
C993 C994 1.523 . S
C994 C975 1.368 . S
C994 C988 1.368 . S
C994 C993 1.523 . S
C995 C979 1.429 . S
C995 C991 1.429 . S
C995 C996 1.523 . S
C996 C980 1.368 . S
C996 C992 1.368 . S
C996 C995 1.523 . S
H997 C972 0.950 . S
H998 C974 0.950 . S
H999 C975 0.949 . S
H1000 C977 0.950 . S
H1001 C979 0.950 . S
C1002 C1003 1.349 . S
C1002 C1004 1.327 . S
C1002 H1027 0.950 . S
C1003 C1002 1.349 . S
C1003 C1019 1.349 . S
C1004 C1002 1.327 . S
C1004 C1023 1.429 . S
C1004 H1028 0.950 . S
C1005 C1022 1.574 . S
C1005 C1024 1.368 . S
C1005 H1029 0.949 . S
H1006 C1010 0.949 . S
C1007 C1008 1.349 . S
C1007 C1009 1.327 . S
C1007 H1030 0.950 . S
C1008 C1007 1.349 . S
C1008 C1020 1.349 . S
C1009 C1007 1.327 . S
C1009 C1025 1.429 . S
C1009 H1031 0.950 . S
C1010 H1006 0.949 . S
C1010 C1018 1.574 . S
C1010 C1026 1.368 . S
H1011 C1019 0.950 . S
H1012 C1017 0.950 . S
H1013 C1018 0.949 . S
H1014 C1020 0.950 . S
H1015 C1021 0.950 . S
H1016 C1022 0.949 . S
C1017 H1012 0.950 . S
C1017 C1019 1.327 . S
C1017 C1023 1.429 . S
C1018 C1010 1.574 . S
C1018 H1013 0.949 . S
C1018 C1024 1.368 . S
C1019 C1003 1.349 . S
C1019 H1011 0.950 . S
C1019 C1017 1.327 . S
C1020 C1008 1.349 . S
C1020 H1014 0.950 . S
C1020 C1021 1.327 . S
C1021 H1015 0.950 . S
C1021 C1020 1.327 . S
C1021 C1025 1.429 . S
C1022 C1005 1.574 . S
C1022 H1016 0.949 . S
C1022 C1026 1.368 . S
C1023 C1004 1.429 . S
C1023 C1017 1.429 . S
C1023 C1024 1.523 . S
C1024 C1005 1.368 . S
C1024 C1018 1.368 . S
C1024 C1023 1.523 . S
C1025 C1009 1.429 . S
C1025 C1021 1.429 . S
C1025 C1026 1.523 . S
C1026 C1010 1.368 . S
C1026 C1022 1.368 . S
C1026 C1025 1.523 . S
H1027 C1002 0.950 . S
H1028 C1004 0.950 . S
H1029 C1005 0.949 . S
H1030 C1007 0.950 . S
H1031 C1009 0.950 . S
C1032 C1033 1.349 . S
C1032 C1034 1.327 . S
C1032 H1057 0.950 . S
C1033 C1032 1.349 . S
C1033 C1049 1.349 . S
C1034 C1032 1.327 . S
C1034 C1053 1.429 . S
C1034 H1058 0.950 . S
C1035 C1052 1.574 . S
C1035 C1054 1.368 . S
C1035 H1059 0.949 . S
H1036 C1040 0.949 . S
C1037 C1038 1.349 . S
C1037 C1039 1.327 . S
C1037 H1060 0.950 . S
C1038 C1037 1.349 . S
C1038 C1050 1.349 . S
C1039 C1037 1.327 . S
C1039 C1055 1.429 . S
C1039 H1061 0.950 . S
C1040 H1036 0.949 . S
C1040 C1048 1.574 . S
C1040 C1056 1.368 . S
H1041 C1049 0.950 . S
H1042 C1047 0.950 . S
H1043 C1048 0.949 . S
H1044 C1050 0.950 . S
H1045 C1051 0.950 . S
H1046 C1052 0.949 . S
C1047 H1042 0.950 . S
C1047 C1049 1.327 . S
C1047 C1053 1.429 . S
C1048 C1040 1.574 . S
C1048 H1043 0.949 . S
C1048 C1054 1.368 . S
C1049 C1033 1.349 . S
C1049 H1041 0.950 . S
C1049 C1047 1.327 . S
C1050 C1038 1.349 . S
C1050 H1044 0.950 . S
C1050 C1051 1.327 . S
C1051 H1045 0.950 . S
C1051 C1050 1.327 . S
C1051 C1055 1.429 . S
C1052 C1035 1.574 . S
C1052 H1046 0.949 . S
C1052 C1056 1.368 . S
C1053 C1034 1.429 . S
C1053 C1047 1.429 . S
C1053 C1054 1.523 . S
C1054 C1035 1.368 . S
C1054 C1048 1.368 . S
C1054 C1053 1.523 . S
C1055 C1039 1.429 . S
C1055 C1051 1.429 . S
C1055 C1056 1.523 . S
C1056 C1040 1.368 . S
C1056 C1052 1.368 . S
C1056 C1055 1.523 . S
H1057 C1032 0.950 . S
H1058 C1034 0.950 . S
H1059 C1035 0.949 . S
H1060 C1037 0.950 . S
H1061 C1039 0.950 . S
C1062 C1063 1.349 . S
C1062 C1064 1.327 . S
C1062 H1087 0.950 . S
C1063 C1062 1.349 . S
C1063 C1079 1.349 . S
C1064 C1062 1.327 . S
C1064 C1083 1.429 . S
C1064 H1088 0.950 . S
C1065 C1082 1.574 . S
C1065 C1084 1.368 . S
C1065 H1089 0.949 . S
H1066 C1070 0.949 . S
C1067 C1068 1.349 . S
C1067 C1069 1.327 . S
C1067 H1090 0.950 . S
C1068 C1067 1.349 . S
C1068 C1080 1.349 . S
C1069 C1067 1.327 . S
C1069 C1085 1.429 . S
C1069 H1091 0.950 . S
C1070 H1066 0.949 . S
C1070 C1078 1.574 . S
C1070 C1086 1.368 . S
H1071 C1079 0.950 . S
H1072 C1077 0.950 . S
H1073 C1078 0.949 . S
H1074 C1080 0.950 . S
H1075 C1081 0.950 . S
H1076 C1082 0.949 . S
C1077 H1072 0.950 . S
C1077 C1079 1.327 . S
C1077 C1083 1.429 . S
C1078 C1070 1.574 . S
C1078 H1073 0.949 . S
C1078 C1084 1.368 . S
C1079 C1063 1.349 . S
C1079 H1071 0.950 . S
C1079 C1077 1.327 . S
C1080 C1068 1.349 . S
C1080 H1074 0.950 . S
C1080 C1081 1.327 . S
C1081 H1075 0.950 . S
C1081 C1080 1.327 . S
C1081 C1085 1.429 . S
C1082 C1065 1.574 . S
C1082 H1076 0.949 . S
C1082 C1086 1.368 . S
C1083 C1064 1.429 . S
C1083 C1077 1.429 . S
C1083 C1084 1.523 . S
C1084 C1065 1.368 . S
C1084 C1078 1.368 . S
C1084 C1083 1.523 . S
C1085 C1069 1.429 . S
C1085 C1081 1.429 . S
C1085 C1086 1.523 . S
C1086 C1070 1.368 . S
C1086 C1082 1.368 . S
C1086 C1085 1.523 . S
H1087 C1062 0.950 . S
H1088 C1064 0.950 . S
H1089 C1065 0.949 . S
H1090 C1067 0.950 . S
H1091 C1069 0.950 . S
C1092 C1093 1.349 . S
C1092 C1094 1.327 . S
C1092 H1117 0.950 . S
C1093 C1092 1.349 . S
C1093 C1109 1.349 . S
C1094 C1092 1.327 . S
C1094 C1113 1.429 . S
C1094 H1118 0.950 . S
C1095 C1112 1.574 . S
C1095 C1114 1.368 . S
C1095 H1119 0.949 . S
H1096 C1100 0.949 . S
C1097 C1098 1.349 . S
C1097 C1099 1.327 . S
C1097 H1120 0.950 . S
C1098 C1097 1.349 . S
C1098 C1110 1.349 . S
C1099 C1097 1.327 . S
C1099 C1115 1.429 . S
C1099 H1121 0.950 . S
C1100 H1096 0.949 . S
C1100 C1108 1.574 . S
C1100 C1116 1.368 . S
H1101 C1109 0.950 . S
H1102 C1107 0.950 . S
H1103 C1108 0.949 . S
H1104 C1110 0.950 . S
H1105 C1111 0.950 . S
H1106 C1112 0.949 . S
C1107 H1102 0.950 . S
C1107 C1109 1.327 . S
C1107 C1113 1.429 . S
C1108 C1100 1.574 . S
C1108 H1103 0.949 . S
C1108 C1114 1.368 . S
C1109 C1093 1.349 . S
C1109 H1101 0.950 . S
C1109 C1107 1.327 . S
C1110 C1098 1.349 . S
C1110 H1104 0.950 . S
C1110 C1111 1.327 . S
C1111 H1105 0.950 . S
C1111 C1110 1.327 . S
C1111 C1115 1.429 . S
C1112 C1095 1.574 . S
C1112 H1106 0.949 . S
C1112 C1116 1.368 . S
C1113 C1094 1.429 . S
C1113 C1107 1.429 . S
C1113 C1114 1.523 . S
C1114 C1095 1.368 . S
C1114 C1108 1.368 . S
C1114 C1113 1.523 . S
C1115 C1099 1.429 . S
C1115 C1111 1.429 . S
C1115 C1116 1.523 . S
C1116 C1100 1.368 . S
C1116 C1112 1.368 . S
C1116 C1115 1.523 . S
H1117 C1092 0.950 . S
H1118 C1094 0.950 . S
H1119 C1095 0.949 . S
H1120 C1097 0.950 . S
H1121 C1099 0.950 . S
C1122 C1123 1.349 . S
C1122 C1124 1.327 . S
C1122 H1147 0.950 . S
C1123 C1122 1.349 . S
C1123 C1139 1.349 . S
C1124 C1122 1.327 . S
C1124 C1143 1.429 . S
C1124 H1148 0.950 . S
C1125 C1142 1.574 . S
C1125 C1144 1.368 . S
C1125 H1149 0.949 . S
H1126 C1130 0.949 . S
C1127 C1128 1.349 . S
C1127 C1129 1.327 . S
C1127 H1150 0.950 . S
C1128 C1127 1.349 . S
C1128 C1140 1.349 . S
C1129 C1127 1.327 . S
C1129 C1145 1.429 . S
C1129 H1151 0.950 . S
C1130 H1126 0.949 . S
C1130 C1138 1.574 . S
C1130 C1146 1.368 . S
H1131 C1139 0.950 . S
H1132 C1137 0.950 . S
H1133 C1138 0.949 . S
H1134 C1140 0.950 . S
H1135 C1141 0.950 . S
H1136 C1142 0.949 . S
C1137 H1132 0.950 . S
C1137 C1139 1.327 . S
C1137 C1143 1.429 . S
C1138 C1130 1.574 . S
C1138 H1133 0.949 . S
C1138 C1144 1.368 . S
C1139 C1123 1.349 . S
C1139 H1131 0.950 . S
C1139 C1137 1.327 . S
C1140 C1128 1.349 . S
C1140 H1134 0.950 . S
C1140 C1141 1.327 . S
C1141 H1135 0.950 . S
C1141 C1140 1.327 . S
C1141 C1145 1.429 . S
C1142 C1125 1.574 . S
C1142 H1136 0.949 . S
C1142 C1146 1.368 . S
C1143 C1124 1.429 . S
C1143 C1137 1.429 . S
C1143 C1144 1.523 . S
C1144 C1125 1.368 . S
C1144 C1138 1.368 . S
C1144 C1143 1.523 . S
C1145 C1129 1.429 . S
C1145 C1141 1.429 . S
C1145 C1146 1.523 . S
C1146 C1130 1.368 . S
C1146 C1142 1.368 . S
C1146 C1145 1.523 . S
H1147 C1122 0.950 . S
H1148 C1124 0.950 . S
H1149 C1125 0.949 . S
H1150 C1127 0.950 . S
H1151 C1129 0.950 . S
C433 C374 1.561 . S
C438 C14 1.532 . S
C463 C50 1.394 . S
C468 C410 1.394 . S
C493 C86 1.561 . S
C498 C230 1.532 . S
C523 C266 1.561 . S
C528 C122 1.532 . S
C553 C302 1.394 . S
C558 C158 1.394 . S
C583 C194 1.561 . S
C588 C338 1.532 . S
C613 C4 0.784 . S
C618 C256 0.785 . S
C643 C40 0.541 . S
C648 C292 0.541 . S
C673 C328 0.784 . S
C678 C76 0.785 . S
C703 C364 0.785 . S
C708 C112 0.784 . S
C733 C400 0.543 . S
C738 C148 0.543 . S
C763 C220 0.784 . S
C768 C184 0.785 . S
C793 C2 0.648 . S
C798 C147 0.645 . S
C823 C38 0.742 . S
C828 C183 0.741 . S
C853 C74 0.660 . S
C858 C3 0.642 . S
C883 C110 0.648 . S
C888 C39 0.645 . S
C913 C146 0.742 . S
C918 C75 0.741 . S
C943 C182 0.660 . S
C948 C111 0.642 . S
C973 C218 0.648 . S
C978 C291 0.645 . S
C1003 C254 0.660 . S
C1008 C327 0.642 . S
C1033 C363 0.741 . S
C1038 C290 0.742 . S
C1063 C326 0.648 . S
C1068 C399 0.645 . S
C1093 C362 0.660 . S
C1098 C219 0.642 . S
C1123 C398 0.742 . S
C1128 C255 0.741 . S
