# Generated by pormake.
# Topology zfw, (5)-cn, num edge types: 1
# Building blocks:
#     Node 0, Type 0, BuildingBlock: BEQFEK_clean_sbu_0, # of connection points: 5
#     Node 1, Type 0, BuildingBlock: BEQFEK_clean_sbu_0, # of connection points: 5
#     Node 2, Type 0, BuildingBlock: BEQFEK_clean_sbu_0, # of connection points: 5
#     Node 3, Type 0, BuildingBlock: BEQFEK_clean_sbu_0, # of connection points: 5
#     Node 4, Type 0, BuildingBlock: BEQFEK_clean_sbu_0, # of connection points: 5
#     Node 5, Type 0, BuildingBlock: BEQFEK_clean_sbu_0, # of connection points: 5
#     Node 6, Type 0, BuildingBlock: BEQFEK_clean_sbu_0, # of connection points: 5
#     Node 7, Type 0, BuildingBlock: BEQFEK_clean_sbu_0, # of connection points: 5
#     Node 8, Type 0, BuildingBlock: BEQFEK_clean_sbu_0, # of connection points: 5
#     Node 9, Type 0, BuildingBlock: BEQFEK_clean_sbu_0, # of connection points: 5
#     Node 10, Type 0, BuildingBlock: BEQFEK_clean_sbu_0, # of connection points: 5
#     Node 11, Type 0, BuildingBlock: BEQFEK_clean_sbu_0, # of connection points: 5
#     Node 12, Type 0, BuildingBlock: BEQFEK_clean_sbu_0, # of connection points: 5
#     Node 13, Type 0, BuildingBlock: BEQFEK_clean_sbu_0, # of connection points: 5
#     Node 14, Type 0, BuildingBlock: BEQFEK_clean_sbu_0, # of connection points: 5
#     Node 15, Type 0, BuildingBlock: BEQFEK_clean_sbu_0, # of connection points: 5
#     Edge 16, Type (0, 0), BuildingBlock: OJICUG_clean_linker_0, # of connection points: 2
#     Edge 17, Type (0, 0), BuildingBlock: OJICUG_clean_linker_0, # of connection points: 2
#     Edge 18, Type (0, 0), BuildingBlock: OJICUG_clean_linker_0, # of connection points: 2
#     Edge 19, Type (0, 0), BuildingBlock: OJICUG_clean_linker_0, # of connection points: 2
#     Edge 20, Type (0, 0), BuildingBlock: OJICUG_clean_linker_0, # of connection points: 2
#     Edge 21, Type (0, 0), BuildingBlock: OJICUG_clean_linker_0, # of connection points: 2
#     Edge 22, Type (0, 0), BuildingBlock: OJICUG_clean_linker_0, # of connection points: 2
#     Edge 23, Type (0, 0), BuildingBlock: OJICUG_clean_linker_0, # of connection points: 2
#     Edge 24, Type (0, 0), BuildingBlock: OJICUG_clean_linker_0, # of connection points: 2
#     Edge 25, Type (0, 0), BuildingBlock: OJICUG_clean_linker_0, # of connection points: 2
#     Edge 26, Type (0, 0), BuildingBlock: OJICUG_clean_linker_0, # of connection points: 2
#     Edge 27, Type (0, 0), BuildingBlock: OJICUG_clean_linker_0, # of connection points: 2
#     Edge 28, Type (0, 0), BuildingBlock: OJICUG_clean_linker_0, # of connection points: 2
#     Edge 29, Type (0, 0), BuildingBlock: OJICUG_clean_linker_0, # of connection points: 2
#     Edge 30, Type (0, 0), BuildingBlock: OJICUG_clean_linker_0, # of connection points: 2
#     Edge 31, Type (0, 0), BuildingBlock: OJICUG_clean_linker_0, # of connection points: 2
#     Edge 32, Type (0, 0), BuildingBlock: OJICUG_clean_linker_0, # of connection points: 2
#     Edge 33, Type (0, 0), BuildingBlock: OJICUG_clean_linker_0, # of connection points: 2
#     Edge 34, Type (0, 0), BuildingBlock: OJICUG_clean_linker_0, # of connection points: 2
#     Edge 35, Type (0, 0), BuildingBlock: OJICUG_clean_linker_0, # of connection points: 2
#     Edge 36, Type (0, 0), BuildingBlock: OJICUG_clean_linker_0, # of connection points: 2
#     Edge 37, Type (0, 0), BuildingBlock: OJICUG_clean_linker_0, # of connection points: 2
#     Edge 38, Type (0, 0), BuildingBlock: OJICUG_clean_linker_0, # of connection points: 2
#     Edge 39, Type (0, 0), BuildingBlock: OJICUG_clean_linker_0, # of connection points: 2
#     Edge 40, Type (0, 0), BuildingBlock: OJICUG_clean_linker_0, # of connection points: 2
#     Edge 41, Type (0, 0), BuildingBlock: OJICUG_clean_linker_0, # of connection points: 2
#     Edge 42, Type (0, 0), BuildingBlock: OJICUG_clean_linker_0, # of connection points: 2
#     Edge 43, Type (0, 0), BuildingBlock: OJICUG_clean_linker_0, # of connection points: 2
#     Edge 44, Type (0, 0), BuildingBlock: OJICUG_clean_linker_0, # of connection points: 2
#     Edge 45, Type (0, 0), BuildingBlock: OJICUG_clean_linker_0, # of connection points: 2
#     Edge 46, Type (0, 0), BuildingBlock: OJICUG_clean_linker_0, # of connection points: 2
#     Edge 47, Type (0, 0), BuildingBlock: OJICUG_clean_linker_0, # of connection points: 2
#     Edge 48, Type (0, 0), BuildingBlock: OJICUG_clean_linker_0, # of connection points: 2
#     Edge 49, Type (0, 0), BuildingBlock: OJICUG_clean_linker_0, # of connection points: 2
#     Edge 50, Type (0, 0), BuildingBlock: OJICUG_clean_linker_0, # of connection points: 2
#     Edge 51, Type (0, 0), BuildingBlock: OJICUG_clean_linker_0, # of connection points: 2
#     Edge 52, Type (0, 0), BuildingBlock: OJICUG_clean_linker_0, # of connection points: 2
#     Edge 53, Type (0, 0), BuildingBlock: OJICUG_clean_linker_0, # of connection points: 2
#     Edge 54, Type (0, 0), BuildingBlock: OJICUG_clean_linker_0, # of connection points: 2
#     Edge 55, Type (0, 0), BuildingBlock: OJICUG_clean_linker_0, # of connection points: 2
# Relax obj value: 0.430
# Max RMSD: 0.240
# Mean RMSD: 0.240
data_MOF--net-zfw--node1-BEQFEK_clean_sbu_0--edge1-OJICUG_clean_linker_0
_symmetry_space_group_name_H-M    P1
_symmetry_Int_Tables_number       1
_symmetry_cell_setting            triclinic
loop_
_symmetry_equiv_pos_as_xyz
'x, y, z'
_cell_length_a     51.048165
_cell_length_b     51.03453
_cell_length_c     14.041308
_cell_angle_alpha  90.005427
_cell_angle_beta   90.010269
_cell_angle_gamma 90.021381
loop_
_atom_site_label
_atom_site_type_symbol
_atom_site_fract_x
_atom_site_fract_y
_atom_site_fract_z
_atom_type_partial_charge
Co0 Co -0.00058 0.092 0.34539 0.0
Co1 Co 0.00028 0.1224 0.15247 0.0
C2 C 0.95755 0.13016 0.2975 0.0
O3 O 0.96816 0.11378 0.35313 0.0
O4 O 0.96733 0.135 0.21584 0.0
C5 C 0.97992 0.07284 0.51645 0.0
O6 O 0.95689 0.07417 0.47492 0.0
C7 C 0.9834 0.12418 0.95667 0.0
C8 C 0.01699 0.1436 0.88727 0.0
C9 C 0.99451 0.12918 0.8683 0.0
N10 N -0.00073 0.13404 0.02408 0.0
N11 N 0.01873 0.14661 0.98223 0.0
C12 C 0.96051 0.10673 0.97802 0.0
H13 H 0.95954 0.10209 0.05512 0.0
H14 H 0.96158 0.08836 0.93601 0.0
H15 H 0.94222 0.11699 0.95732 0.0
C16 C 0.00168 0.04614 0.2141 0.0
N17 N 0.00064 0.07207 0.23225 0.0
N18 N 0.00437 0.08508 0.15244 0.0
C19 C 0.00989 0.06777 0.08261 0.0
C20 C 0.00756 0.04274 0.11848 0.0
C21 C -0.00178 0.0253 0.28774 0.0
H22 H 0.01593 0.02469 0.33352 0.0
H23 H 0.98127 0.03018 0.33395 0.0
H24 H 0.99534 0.00578 0.25441 0.0
O25 O 0.02997 0.11609 0.35363 0.0
O26 O 0.03056 0.13833 0.21755 0.0
H27 H 0.03612 0.06002 0.96615 0.0
H28 H 0.00524 0.07316 0.93221 0.0
C29 C 0.02086 0.07443 0.9867 0.0
H30 H 0.02986 0.09413 0.98716 0.0
H31 H 0.03455 0.15489 0.01843 0.0
O32 O 0.00023 0.07149 0.46424 0.0
C33 C 0.04 0.13349 0.29966 0.0
Co34 Co 0.15638 0.74623 0.59613 0.0
Co35 Co 0.12602 0.74766 0.40322 0.0
C36 C 0.11742 0.70511 0.54858 0.0
O37 O 0.13403 0.71539 0.60414 0.0
O38 O 0.1128 0.71495 0.46684 0.0
C39 C 0.17521 0.72645 0.76722 0.0
O40 O 0.17349 0.70344 0.72571 0.0
C41 C 0.12407 0.73075 0.20753 0.0
C42 C 0.10495 0.76447 0.1379 0.0
C43 C 0.11917 0.74186 0.11909 0.0
N44 N 0.11436 0.74674 0.27483 0.0
N45 N 0.10196 0.76628 0.23285 0.0
C46 C 0.14136 0.70777 0.229 0.0
H47 H 0.14592 0.70673 0.30616 0.0
H48 H 0.15977 0.70876 0.18724 0.0
H49 H 0.13103 0.68953 0.20804 0.0
C50 C 0.20224 0.74776 0.46485 0.0
N51 N 0.17632 0.7471 0.48296 0.0
N52 N 0.16338 0.75134 0.40338 0.0
C53 C 0.18075 0.75704 0.33395 0.0
C54 C 0.20578 0.75418 0.36967 0.0
C55 C 0.223 0.74377 0.53849 0.0
H56 H 0.22387 0.76133 0.58497 0.0
H57 H 0.21782 0.72675 0.584 0.0
H58 H 0.24248 0.74069 0.50524 0.0
O59 O 0.13282 0.77721 0.60418 0.0
O60 O 0.11059 0.77815 0.46804 0.0
H61 H 0.1543 0.77685 0.23848 0.0
H62 H 0.18824 0.78346 0.21753 0.0
C63 C 0.17406 0.768 0.23805 0.0
H64 H 0.17545 0.75241 0.18347 0.0
H65 H 0.09383 0.78219 0.26896 0.0
O66 O 0.1769 0.74674 0.715 0.0
C67 C 0.1156 0.78751 0.55013 0.0
Co68 Co 0.50154 0.90262 0.84787 0.0
Co69 Co 0.50014 0.87226 0.65501 0.0
C70 C 0.54281 0.86389 0.80022 0.0
O71 O 0.53252 0.88045 0.85587 0.0
O72 O 0.53292 0.85922 0.7186 0.0
C73 C 0.52122 0.9216 0.019 0.0
O74 O 0.54424 0.92 0.97754 0.0
C75 C 0.51711 0.87048 0.45942 0.0
C76 C 0.48359 0.85105 0.38955 0.0
C77 C 0.50608 0.86548 0.37091 0.0
N78 N 0.50118 0.86061 0.5266 0.0
N79 N 0.48176 0.84803 0.48448 0.0
C80 C 0.53993 0.88798 0.48105 0.0
H81 H 0.54092 0.89252 0.55824 0.0
H82 H 0.53876 0.90641 0.4394 0.0
H83 H 0.55826 0.87784 0.46006 0.0
C84 C 0.49971 0.9485 0.71652 0.0
N85 N 0.50051 0.92257 0.73468 0.0
N86 N 0.49622 0.9096 0.65519 0.0
C87 C 0.49032 0.92694 0.58584 0.0
C88 C 0.49312 0.95201 0.62144 0.0
C89 C 0.50374 0.96926 0.79014 0.0
H90 H 0.48647 0.96969 0.83811 0.0
H91 H 0.52113 0.96438 0.83414 0.0
H92 H 0.50621 0.98886 0.75703 0.0
O93 O 0.47068 0.87887 0.85599 0.0
O94 O 0.46973 0.85667 0.71978 0.0
H95 H 0.46375 0.93399 0.46944 0.0
H96 H 0.49499 0.92176 0.4353 0.0
C97 C 0.47944 0.9201 0.48992 0.0
H98 H 0.47089 0.90021 0.49032 0.0
H99 H 0.46591 0.83975 0.52048 0.0
O100 O 0.50093 0.92315 0.96672 0.0
C101 C 0.4604 0.86162 0.80193 0.0
Co102 Co 0.34501 0.2474 0.09793 0.0
Co103 Co 0.3753 0.24591 0.90499 0.0
C104 C 0.38396 0.28854 0.04992 0.0
O105 O 0.36738 0.27828 0.10564 0.0
O106 O 0.38855 0.27865 0.96825 0.0
C107 C 0.32618 0.26725 0.26895 0.0
O108 O 0.328 0.29025 0.22746 0.0
C109 C 0.3773 0.26273 0.70928 0.0
C110 C 0.39617 0.22885 0.63973 0.0
C111 C 0.38211 0.25156 0.62088 0.0
N112 N 0.38692 0.24669 0.7766 0.0
N113 N 0.39916 0.22705 0.73467 0.0
C114 C 0.36019 0.28584 0.73072 0.0
H115 H 0.35562 0.28691 0.80786 0.0
H116 H 0.34177 0.28498 0.68891 0.0
H117 H 0.37065 0.30401 0.7098 0.0
C118 C 0.29908 0.24583 0.96673 0.0
N119 N 0.32501 0.24649 0.98482 0.0
N120 N 0.33794 0.24238 0.9051 0.0
C121 C 0.32054 0.2369 0.8355 0.0
C122 C 0.29554 0.2397 0.87134 0.0
C123 C 0.27832 0.24973 0.04037 0.0
H124 H 0.2773 0.23201 0.08604 0.0
H125 H 0.28357 0.26656 0.08666 0.0
H126 H 0.25887 0.25303 0.00702 0.0
O127 O 0.36857 0.21643 0.10631 0.0
O128 O 0.3907 0.21542 0.97004 0.0
H129 H 0.31256 0.21063 0.71918 0.0
H130 H 0.32597 0.24141 0.68508 0.0
C131 C 0.32708 0.2258 0.73968 0.0
H132 H 0.34668 0.21662 0.74023 0.0
H133 H 0.40719 0.21109 0.77081 0.0
O134 O 0.32448 0.24696 0.21672 0.0
C135 C 0.38575 0.20609 0.05222 0.0
Co136 Co 6e-05 0.90286 0.64955 0.0
Co137 Co 0.00139 0.87251 0.84243 0.0
C138 C 0.95877 0.86409 0.69706 0.0
O139 O 0.96908 0.88067 0.64148 0.0
O140 O 0.96863 0.85945 0.77874 0.0
C141 C 0.9804 0.92183 0.47846 0.0
O142 O 0.95739 0.92024 0.51997 0.0
C143 C 0.98442 0.87072 0.03802 0.0
C144 C 0.01789 0.85124 0.10785 0.0
C145 C 0.99543 0.86569 0.12652 0.0
N146 N 0.00033 0.86084 0.97081 0.0
N147 N 0.01972 0.84824 0.01291 0.0
C148 C 0.96163 0.88825 0.01644 0.0
H149 H 0.96066 0.89281 0.93927 0.0
H150 H 0.96282 0.90666 0.0582 0.0
H151 H 0.94328 0.87812 0.03733 0.0
C152 C 0.0022 0.94875 0.78063 0.0
N153 N 0.00117 0.92282 0.7627 0.0
N154 N 0.00538 0.90986 0.84224 0.0
C155 C 0.01145 0.9272 0.91146 0.0
C156 C 0.00886 0.95229 0.87566 0.0
C157 C -0.0016 0.96948 0.70677 0.0
H158 H 0.01549 0.96944 0.65794 0.0
H159 H 0.98074 0.96492 0.66369 0.0
H160 H 0.99649 0.98919 0.73951 0.0
O161 O 0.03091 0.87913 0.64153 0.0
O162 O 0.03181 0.85691 0.7777 0.0
H163 H 0.03062 0.90037 0.00719 0.0
H164 H 0.03795 0.93408 0.0283 0.0
C165 C 0.02219 0.9203 0.00753 0.0
H166 H 0.00659 0.92203 0.06192 0.0
H167 H 0.03556 0.83994 0.9769 0.0
O168 O 0.0007 0.92337 0.5307 0.0
C169 C 0.04117 0.86188 0.69558 0.0
Co170 Co 0.34551 0.74558 0.9001 0.0
Co171 Co 0.37587 0.74685 0.09308 0.0
C172 C 0.38466 0.70455 0.9471 0.0
O173 O 0.36805 0.71487 0.89168 0.0
O174 O 0.38921 0.71426 0.02909 0.0
C175 C 0.32668 0.72572 0.72914 0.0
O176 O 0.32844 0.70273 0.7708 0.0
C177 C 0.37786 0.72995 0.28882 0.0
C178 C 0.39684 0.76378 0.35837 0.0
C179 C 0.3827 0.74111 0.37723 0.0
N180 N 0.38753 0.74596 0.22148 0.0
N181 N 0.39984 0.76557 0.26343 0.0
C182 C 0.36069 0.70685 0.2674 0.0
H183 H 0.35617 0.70576 0.19022 0.0
H184 H 0.34226 0.70777 0.30907 0.0
H185 H 0.3711 0.68868 0.28852 0.0
C186 C 0.29962 0.74694 0.0313 0.0
N187 N 0.32556 0.74623 0.01326 0.0
N188 N 0.3385 0.75027 0.09302 0.0
C189 C 0.32112 0.75578 0.16262 0.0
C190 C 0.29611 0.75304 0.12671 0.0
C191 C 0.27885 0.74329 0.9575 0.0
H192 H 0.27793 0.76111 0.91234 0.0
H193 H 0.28403 0.72654 0.91074 0.0
H194 H 0.25939 0.74 0.99071 0.0
O195 O 0.3689 0.77669 0.89248 0.0
O196 O 0.39115 0.7775 0.02857 0.0
H197 H 0.34735 0.776 0.25782 0.0
H198 H 0.31327 0.78213 0.27879 0.0
C199 C 0.3277 0.76689 0.25839 0.0
H200 H 0.32653 0.75132 0.31309 0.0
H201 H 0.40791 0.78151 0.22729 0.0
O202 O 0.325 0.74603 0.78124 0.0
C203 C 0.3861 0.78698 0.9467 0.0
Co204 Co 0.50215 0.09169 0.15115 0.0
Co205 Co 0.5008 0.1221 0.34407 0.0
C206 C 0.54311 0.13097 0.19835 0.0
O207 O 0.53282 0.11432 0.14295 0.0
O208 O 0.53337 0.13554 0.28027 0.0
C209 C 0.5221 0.07298 0.98015 0.0
O210 O 0.54507 0.07484 0.02181 0.0
C211 C 0.51767 0.12421 0.53986 0.0
C212 C 0.48373 0.14297 0.6093 0.0
C213 C 0.50647 0.12898 0.62824 0.0
N214 N 0.50162 0.13377 0.47247 0.0
N215 N 0.48194 0.14596 0.51435 0.0
C216 C 0.54086 0.10719 0.51851 0.0
H217 H 0.54199 0.10266 0.44134 0.0
H218 H 0.54005 0.08875 0.5602 0.0
H219 H 0.55897 0.11772 0.53962 0.0
C220 C 0.50086 0.0458 0.28249 0.0
N221 N 0.50152 0.07174 0.26435 0.0
N222 N 0.49755 0.0847 0.34413 0.0
C223 C 0.49221 0.06731 0.41391 0.0
C224 C 0.49495 0.04231 0.37805 0.0
C225 C 0.50444 0.02501 0.20874 0.0
H226 H 0.48654 0.02398 0.16403 0.0
H227 H 0.52108 0.03023 0.16155 0.0
H228 H 0.50786 0.00557 0.24202 0.0
O229 O 0.47099 0.11497 0.14332 0.0
O230 O 0.4701 0.13725 0.27934 0.0
H231 H 0.46592 0.05923 0.53001 0.0
H232 H 0.49658 0.07284 0.56435 0.0
C233 C 0.48102 0.07384 0.50959 0.0
H234 H 0.47173 0.0934 0.50885 0.0
H235 H 0.46596 0.15394 0.47817 0.0
O236 O 0.5018 0.07118 0.03225 0.0
C237 C 0.46064 0.13214 0.19746 0.0
Co238 Co 0.1561 0.24859 0.4009 0.0
Co239 Co 0.1257 0.24728 0.59362 0.0
C240 C 0.11786 0.29025 0.44905 0.0
O241 O 0.1344 0.2799 0.39344 0.0
O242 O 0.113 0.28024 0.53031 0.0
C243 C 0.17529 0.26805 0.22973 0.0
O244 O 0.1739 0.2911 0.27105 0.0
C245 C 0.12418 0.26424 0.7892 0.0
C246 C 0.10444 0.23093 0.85918 0.0
C247 C 0.1191 0.25328 0.87773 0.0
N248 N 0.11412 0.2484 0.72207 0.0
N249 N 0.10138 0.22911 0.76425 0.0
C250 C 0.14192 0.28688 0.76748 0.0
H251 H 0.14641 0.28782 0.69026 0.0
H252 H 0.16036 0.28549 0.80896 0.0
H253 H 0.13201 0.30532 0.78861 0.0
C254 C 0.20193 0.24609 0.53232 0.0
N255 N 0.17603 0.24716 0.51407 0.0
N256 N 0.163 0.24296 0.59347 0.0
C257 C 0.18026 0.23687 0.66285 0.0
C258 C 0.20535 0.23944 0.62737 0.0
C259 C 0.22276 0.25 0.45892 0.0
H260 H 0.2233 0.2326 0.41152 0.0
H261 H 0.21791 0.26728 0.41429 0.0
H262 H 0.24231 0.25258 0.49232 0.0
O263 O 0.13187 0.21808 0.39219 0.0
O264 O 0.10974 0.21709 0.5285 0.0
H265 H 0.1872 0.21019 0.7789 0.0
H266 H 0.17506 0.24145 0.8134 0.0
C267 C 0.17334 0.22594 0.7586 0.0
H268 H 0.15341 0.21749 0.75803 0.0
H269 H 0.09292 0.21334 0.7283 0.0
O270 O 0.17663 0.24776 0.28211 0.0
C271 C 0.11453 0.20789 0.44601 0.0
Co272 Co 0.84451 0.24557 0.39679 0.0
Co273 Co 0.87498 0.24687 0.58951 0.0
C274 C 0.88261 0.20383 0.44502 0.0
O275 O 0.86609 0.21418 0.38932 0.0
O276 O 0.8875 0.21386 0.52622 0.0
C277 C 0.8253 0.22621 0.22548 0.0
O278 O 0.82659 0.20313 0.26668 0.0
C279 C 0.87647 0.2299 0.78509 0.0
C280 C 0.89641 0.2631 0.8551 0.0
C281 C 0.88163 0.24082 0.87365 0.0
N282 N 0.8866 0.24569 0.71797 0.0
N283 N 0.89946 0.2649 0.76016 0.0
C284 C 0.85858 0.20738 0.76336 0.0
H285 H 0.85408 0.20646 0.68613 0.0
H286 H 0.84015 0.20889 0.80483 0.0
H287 H 0.86838 0.18887 0.78448 0.0
C288 C 0.79875 0.24829 0.52858 0.0
N289 N 0.82464 0.24716 0.51011 0.0
N290 N 0.83772 0.2514 0.58937 0.0
C291 C 0.82054 0.25763 0.6588 0.0
C292 C 0.7954 0.25508 0.62358 0.0
C293 C 0.77786 0.24431 0.45539 0.0
H294 H 0.77746 0.26154 0.40722 0.0
H295 H 0.78258 0.22685 0.41151 0.0
H296 H 0.75831 0.24198 0.48891 0.0
O297 O 0.86889 0.27594 0.38784 0.0
O298 O 0.89105 0.27692 0.52416 0.0
H299 H 0.81392 0.28443 0.77477 0.0
H300 H 0.82574 0.25306 0.80937 0.0
C301 C 0.82759 0.26852 0.75448 0.0
H302 H 0.84759 0.2768 0.75379 0.0
H303 H 0.908 0.28064 0.72423 0.0
O304 O 0.82397 0.24647 0.27798 0.0
C305 C 0.8863 0.28608 0.44157 0.0
Co306 Co 0.65646 0.74861 0.9 0.0
Co307 Co 0.62611 0.74709 0.09289 0.0
C308 C 0.61734 0.78961 0.94776 0.0
O309 O 0.63396 0.77938 0.89216 0.0
O310 O 0.61276 0.77975 0.02949 0.0
C311 C 0.67518 0.76853 0.72894 0.0
O312 O 0.67332 0.79152 0.77045 0.0
C313 C 0.624 0.76389 0.28866 0.0
C314 C 0.60525 0.72992 0.35807 0.0
C315 C 0.61923 0.75268 0.37703 0.0
N316 N 0.61445 0.74783 0.22127 0.0
N317 N 0.60227 0.72812 0.26312 0.0
C318 C 0.64103 0.7871 0.26733 0.0
H319 H 0.64559 0.7882 0.19019 0.0
H320 H 0.65944 0.78632 0.30917 0.0
H321 H 0.63048 0.8052 0.28827 0.0
C322 C 0.70237 0.7472 0.0313 0.0
N323 N 0.67643 0.74782 0.01318 0.0
N324 N 0.6635 0.74375 0.09292 0.0
C325 C 0.68089 0.73838 0.16262 0.0
C326 C 0.70588 0.74119 0.12679 0.0
C327 C 0.72314 0.75095 0.9576 0.0
H328 H 0.72418 0.73314 0.91245 0.0
H329 H 0.71788 0.76767 0.91082 0.0
H330 H 0.74257 0.75436 0.99092 0.0
O331 O 0.63305 0.71752 0.89171 0.0
O332 O 0.61084 0.71648 0.02782 0.0
H333 H 0.68897 0.71214 0.2789 0.0
H334 H 0.67538 0.74283 0.31303 0.0
C335 C 0.67438 0.72723 0.25838 0.0
H336 H 0.65482 0.71794 0.25771 0.0
H337 H 0.59431 0.71213 0.22691 0.0
O338 O 0.67698 0.74825 0.78116 0.0
C339 C 0.61587 0.70714 0.94572 0.0
Co340 Co 0.65627 0.24661 0.09624 0.0
Co341 Co 0.62587 0.24781 0.90333 0.0
C342 C 0.61727 0.20541 0.04902 0.0
O343 O 0.63387 0.21577 0.10443 0.0
O344 O 0.61264 0.21515 0.96714 0.0
C345 C 0.67514 0.22679 0.26727 0.0
O346 O 0.67343 0.2038 0.22564 0.0
C347 C 0.62389 0.23091 0.70757 0.0
C348 C 0.6049 0.26471 0.63803 0.0
C349 C 0.61906 0.24207 0.61916 0.0
N350 N 0.61421 0.2469 0.77491 0.0
N351 N 0.60189 0.2665 0.73297 0.0
C352 C 0.64108 0.20784 0.729 0.0
H353 H 0.6456 0.20676 0.80618 0.0
H354 H 0.65952 0.20879 0.68736 0.0
H355 H 0.63069 0.18965 0.70787 0.0
C356 C 0.70214 0.24811 0.96471 0.0
N357 N 0.67622 0.24739 0.983 0.0
N358 N 0.66323 0.25135 0.9033 0.0
C359 C 0.68056 0.25679 0.83348 0.0
C360 C 0.70558 0.2541 0.86916 0.0
C361 C 0.72297 0.24443 0.03826 0.0
H362 H 0.72399 0.26226 0.08336 0.0
H363 H 0.71778 0.2277 0.08513 0.0
H364 H 0.74239 0.24108 0.0048 0.0
O365 O 0.63274 0.2776 0.10415 0.0
O366 O 0.61049 0.27838 0.96805 0.0
H367 H 0.68846 0.28316 0.71747 0.0
H368 H 0.67508 0.2524 0.68302 0.0
C369 C 0.67396 0.26795 0.73782 0.0
H370 H 0.65435 0.27711 0.73854 0.0
H371 H 0.5938 0.28242 0.76911 0.0
O372 O 0.67679 0.2471 0.21514 0.0
C373 C 0.6155 0.28783 0.05001 0.0
Co374 Co 0.84565 0.7483 0.59646 0.0
Co375 Co 0.87603 0.74689 0.40368 0.0
C376 C 0.88452 0.78952 0.54901 0.0
O377 O 0.86793 0.77921 0.60456 0.0
O378 O 0.88916 0.77966 0.46732 0.0
C379 C 0.82677 0.76803 0.76757 0.0
O380 O 0.82843 0.79105 0.72611 0.0
C381 C 0.87791 0.76384 0.20801 0.0
C382 C 0.8972 0.73023 0.13829 0.0
C383 C 0.88287 0.75277 0.11954 0.0
N384 N 0.8877 0.74788 0.27527 0.0
N385 N 0.9002 0.72841 0.23324 0.0
C386 C 0.8605 0.78673 0.22953 0.0
H387 H 0.85596 0.78774 0.3067 0.0
H388 H 0.84209 0.78563 0.1878 0.0
H389 H 0.87073 0.80503 0.20857 0.0
C390 C 0.79979 0.74656 0.46502 0.0
N391 N 0.82571 0.74734 0.4832 0.0
N392 N 0.83867 0.74309 0.4037 0.0
C393 C 0.82133 0.73723 0.33429 0.0
C394 C 0.79627 0.74003 0.36988 0.0
C395 C 0.77903 0.7505 0.53865 0.0
H396 H 0.77846 0.73309 0.58594 0.0
H397 H 0.784 0.76774 0.58335 0.0
H398 H 0.75947 0.75318 0.50549 0.0
O399 O 0.86926 0.71734 0.60457 0.0
O400 O 0.89151 0.7164 0.46851 0.0
H401 H 0.84797 0.71768 0.23887 0.0
H402 H 0.81415 0.71071 0.21781 0.0
C403 C 0.82813 0.72633 0.23838 0.0
H404 H 0.82658 0.7419 0.18379 0.0
H405 H 0.90841 0.71253 0.2693 0.0
O406 O 0.82513 0.74774 0.7153 0.0
C407 C 0.88649 0.70703 0.55058 0.0
Co408 Co 0.5004 0.59167 0.84531 0.0
Co409 Co 0.50182 0.62208 0.65251 0.0
C410 C 0.45923 0.63056 0.79785 0.0
O411 O 0.46953 0.61395 0.85332 0.0
O412 O 0.46908 0.63524 0.71616 0.0
C413 C 0.48063 0.57281 0.01641 0.0
O414 O 0.45762 0.57449 0.97492 0.0
C415 C 0.48491 0.624 0.45678 0.0
C416 C 0.51862 0.64316 0.38717 0.0
C417 C 0.49602 0.62891 0.36834 0.0
N418 N 0.50089 0.63375 0.52409 0.0
N419 N 0.52043 0.64616 0.48212 0.0
C420 C 0.46193 0.6067 0.47824 0.0
H421 H 0.4609 0.60214 0.55539 0.0
H422 H 0.46293 0.58828 0.43647 0.0
H423 H 0.4437 0.61702 0.45728 0.0
C424 C 0.50185 0.54581 0.71376 0.0
N425 N 0.50126 0.57174 0.73205 0.0
N426 N 0.50551 0.58471 0.65252 0.0
C427 C 0.51114 0.56734 0.58297 0.0
C428 C 0.50821 0.5423 0.61853 0.0
C429 C 0.49777 0.52503 0.78725 0.0
H430 H 0.51534 0.52409 0.83371 0.0
H431 H 0.48079 0.53025 0.8328 0.0
H432 H 0.49462 0.50557 0.75385 0.0
O433 O 0.53134 0.61531 0.85352 0.0
O434 O 0.5323 0.63756 0.71746 0.0
H435 H 0.53756 0.55983 0.46666 0.0
H436 H 0.50655 0.57265 0.43247 0.0
C437 C 0.52213 0.57404 0.48711 0.0
H438 H 0.531 0.59379 0.4876 0.0
H439 H 0.53633 0.65431 0.51823 0.0
O440 O 0.50091 0.57114 0.96415 0.0
C441 C 0.54164 0.63256 0.79958 0.0
Co442 Co 0.00125 0.402 0.34403 0.0
Co443 Co 0.0012 0.37169 0.15105 0.0
C444 C 0.04337 0.36418 0.2999 0.0
O445 O 0.03283 0.38082 0.35475 0.0
O446 O 0.03363 0.35911 0.2183 0.0
C447 C 0.01972 0.42258 0.51417 0.0
O448 O 0.0428 0.4244 0.47339 0.0
C449 C 0.02001 0.36947 0.95737 0.0
C450 C 0.98651 0.35144 0.88292 0.0
C451 C 0.00959 0.36526 0.86674 0.0
N452 N 0.00302 0.36022 0.02225 0.0
N453 N 0.98354 0.34853 0.97745 0.0
C454 C 0.04506 0.38282 0.98444 0.0
H455 H 0.05256 0.37465 0.05233 0.0
H456 H 0.04151 0.40402 0.99592 0.0
H457 H 0.06009 0.38016 0.92817 0.0
C458 C -0.00084 0.44791 0.21344 0.0
N459 N 0.00036 0.42197 0.23108 0.0
N460 N 0.99704 0.40903 0.15093 0.0
C461 C 0.99154 0.42639 0.0812 0.0
C462 C 0.99342 0.45147 0.11769 0.0
C463 C 0.00213 0.46861 0.28796 0.0
H464 H 0.98518 0.46761 0.33731 0.0
H465 H 0.02007 0.46476 0.33035 0.0
H466 H 0.00309 0.48847 0.25594 0.0
O467 O 0.97101 0.37759 0.35024 0.0
O468 O 0.97054 0.35565 0.21352 0.0
H469 H 0.97313 0.40001 0.98232 0.0
H470 H 0.96813 0.4339 0.95605 0.0
C471 C 0.98257 0.41949 0.98286 0.0
H472 H -0.00052 0.41996 0.93364 0.0
H473 H 0.96706 0.34076 0.01119 0.0
O474 O -0.00059 0.42262 0.46185 0.0
C475 C 0.96103 0.36031 0.29568 0.0
Co476 Co 0.49919 0.40241 0.14905 0.0
Co477 Co 0.50078 0.37211 0.342 0.0
C478 C 0.45827 0.36321 0.19689 0.0
O479 O 0.46846 0.37984 0.1412 0.0
O480 O 0.46814 0.35868 0.27863 0.0
C481 C 0.47924 0.42113 0.97803 0.0
O482 O 0.45626 0.41921 0.01957 0.0
C483 C 0.48395 0.37004 0.53769 0.0
C484 C 0.51786 0.35125 0.60728 0.0
C485 C 0.49512 0.36525 0.6261 0.0
N486 N 0.50001 0.36047 0.47038 0.0
N487 N 0.51968 0.34827 0.51233 0.0
C488 C 0.4608 0.3871 0.51625 0.0
H489 H 0.4597 0.39164 0.43909 0.0
H490 H 0.46163 0.40554 0.55799 0.0
H491 H 0.44267 0.3766 0.53726 0.0
C492 C 0.50066 0.44836 0.28014 0.0
N493 N 0.49997 0.42242 0.26216 0.0
N494 N 0.50413 0.4095 0.34189 0.0
C495 C 0.50967 0.42692 0.41139 0.0
C496 C 0.50686 0.45192 0.37547 0.0
C497 C 0.49689 0.46911 0.20633 0.0
H498 H 0.51465 0.47006 0.16087 0.0
H499 H 0.48009 0.46388 0.15987 0.0
H500 H 0.49361 0.48858 0.23952 0.0
O501 O 0.53032 0.37907 0.1409 0.0
O502 O 0.53139 0.35689 0.2771 0.0
H503 H 0.52995 0.40075 0.50656 0.0
H504 H 0.53596 0.43485 0.52774 0.0
C505 C 0.52078 0.42036 0.50718 0.0
H506 H 0.50518 0.42145 0.5618 0.0
H507 H 0.53566 0.34029 0.47621 0.0
O508 O 0.49953 0.42293 0.03023 0.0
C509 C 0.54073 0.36193 0.19502 0.0
Co510 Co 0.00194 0.5917 0.6497 0.0
Co511 Co 0.00067 0.62204 0.84275 0.0
C512 C 0.04302 0.63083 0.69724 0.0
O513 O 0.03269 0.61423 0.64175 0.0
O514 O 0.03329 0.63541 0.77917 0.0
C515 C 0.02187 0.57297 0.47872 0.0
O516 O 0.04485 0.5748 0.52038 0.0
C517 C 0.01747 0.62427 0.03861 0.0
C518 C 0.98341 0.64288 0.10782 0.0
C519 C 0.00621 0.629 0.12691 0.0
N520 N 0.0014 0.63374 0.97111 0.0
N521 N 0.98164 0.64584 0.01286 0.0
C522 C 0.04076 0.60736 0.01739 0.0
H523 H 0.04187 0.60273 0.9403 0.0
H524 H 0.04011 0.58898 0.05943 0.0
H525 H 0.0588 0.61805 0.03816 0.0
C526 C 0.00062 0.54577 0.78086 0.0
N527 N 0.00123 0.57172 0.76283 0.0
N528 N -0.00259 0.58464 0.84278 0.0
C529 C 0.99228 0.56722 0.91265 0.0
C530 C 0.99497 0.54225 0.8766 0.0
C531 C 0.00418 0.525 0.707 0.0
H532 H 0.98629 0.524 0.66228 0.0
H533 H 0.02082 0.53024 0.65984 0.0
H534 H 0.00761 0.50555 0.74018 0.0
O535 O 0.97089 0.6151 0.64164 0.0
O536 O 0.97005 0.6373 0.77781 0.0
H537 H 0.96623 0.55889 0.02917 0.0
H538 H 0.99682 0.57277 0.06302 0.0
C539 C 0.98117 0.57365 0.00854 0.0
H540 H 0.97172 0.59313 0.00801 0.0
H541 H 0.96564 0.65373 0.97656 0.0
O542 O 0.00157 0.57119 0.53081 0.0
C543 C 0.96061 0.6323 0.69582 0.0
C544 C 0.09515 0.18292 0.30989 0.0
C545 C 0.09803 0.18643 0.40867 0.0
H546 H 0.07436 0.16349 0.19778 0.0
C547 C 0.08339 0.17065 0.47098 0.0
H548 H 0.10613 0.19483 0.26002 0.0
C549 C 0.06548 0.15243 0.43527 0.0
C550 C 0.06151 0.14999 0.33656 0.0
H551 H 0.0853 0.17282 0.54742 0.0
H552 H 0.0539 0.14113 0.48522 0.0
C553 C 0.07689 0.16505 0.27419 0.0
C554 C 0.0967 0.81298 0.68574 0.0
C555 C 0.09936 0.8092 0.58702 0.0
H556 H 0.07604 0.83259 0.79765 0.0
C557 C 0.08459 0.82479 0.52451 0.0
H558 H 0.1078 0.80124 0.73576 0.0
C559 C 0.06667 0.84301 0.56002 0.0
C560 C 0.06285 0.84563 0.65873 0.0
H561 H 0.08634 0.82241 0.4481 0.0
H562 H 0.05493 0.85411 0.50998 0.0
C563 C 0.07844 0.83086 0.72125 0.0
C564 C 0.42305 0.83068 0.77614 0.0
C565 C 0.43873 0.84534 0.83878 0.0
H566 H 0.39367 0.80108 0.76133 0.0
C567 C 0.43502 0.84255 0.93747 0.0
H568 H 0.42537 0.83254 0.69974 0.0
C569 C 0.41713 0.82426 0.97282 0.0
C570 C 0.40228 0.80876 0.91015 0.0
H571 H 0.44683 0.85356 0.98758 0.0
H572 H 0.41547 0.82173 0.04919 0.0
C573 C 0.40483 0.81274 0.81149 0.0
C574 C 0.43479 0.15069 0.06214 0.0
C575 C 0.4388 0.14822 0.16081 0.0
H576 H 0.41489 0.17108 0.95025 0.0
C577 C 0.42325 0.16303 0.22338 0.0
H578 H 0.44648 0.13956 0.01205 0.0
C579 C 0.40488 0.1808 0.18791 0.0
C580 C 0.40206 0.18446 0.08919 0.0
H581 H 0.42579 0.16142 0.29976 0.0
H582 H 0.39384 0.19259 0.23795 0.0
C583 C 0.41677 0.16881 0.02667 0.0
C584 C 0.9157 0.8269 0.5243 0.0
C585 C 0.90082 0.81124 0.58597 0.0
H586 H 0.94519 0.85639 0.51131 0.0
C587 C 0.90334 0.81493 0.68508 0.0
H588 H 0.91412 0.82459 0.44781 0.0
C589 C 0.9215 0.83278 0.72174 0.0
C590 C 0.9371 0.84773 0.66008 0.0
H591 H 0.89217 0.80313 0.73473 0.0
H592 H 0.9238 0.83438 0.79823 0.0
C593 C 0.93343 0.84517 0.56096 0.0
C594 C 0.90126 0.17824 0.30922 0.0
C595 C 0.89882 0.18204 0.40829 0.0
H596 H 0.92195 0.15903 0.19616 0.0
C597 C 0.91392 0.16662 0.47005 0.0
H598 H 0.88991 0.18985 0.25949 0.0
C599 C 0.9319 0.14861 0.43349 0.0
C600 C 0.93557 0.14608 0.33439 0.0
H601 H 0.91239 0.16902 0.54652 0.0
H602 H 0.94387 0.13764 0.48319 0.0
C603 C 0.91967 0.16066 0.27265 0.0
C604 C 0.56826 0.14987 0.06187 0.0
C605 C 0.56468 0.14739 0.16104 0.0
H606 H 0.58754 0.17033 0.94839 0.0
C607 C 0.58032 0.16237 0.22245 0.0
H608 H 0.55647 0.13862 0.01241 0.0
C609 C 0.59848 0.18016 0.18549 0.0
C610 C 0.60094 0.18377 0.08633 0.0
H611 H 0.57809 0.16082 0.29897 0.0
H612 H 0.6097 0.19199 0.23495 0.0
C613 C 0.586 0.16808 0.02491 0.0
C614 C 0.58012 0.83268 0.77525 0.0
C615 C 0.56453 0.84758 0.83703 0.0
H616 H 0.60952 0.80312 0.76206 0.0
C617 C 0.56826 0.84506 0.93612 0.0
H618 H 0.57776 0.83425 0.69878 0.0
C619 C 0.58607 0.82687 0.97265 0.0
C620 C 0.60094 0.81124 0.91088 0.0
H621 H 0.55651 0.85626 0.98585 0.0
H622 H 0.58772 0.82458 0.04913 0.0
C623 C 0.59835 0.8149 0.81178 0.0
C624 C 0.59711 0.68158 0.80999 0.0
C625 C 0.59969 0.6854 0.90872 0.0
H626 H 0.57657 0.6619 0.69787 0.0
C627 C 0.5849 0.66977 0.97109 0.0
H628 H 0.60822 0.69334 0.76005 0.0
C629 C 0.56705 0.65149 0.93541 0.0
C630 C 0.5633 0.64884 0.83666 0.0
H631 H 0.58658 0.67217 0.04752 0.0
H632 H 0.55529 0.64037 0.98533 0.0
C633 C 0.57892 0.66364 0.7743 0.0
C634 C 0.56637 0.34317 0.05955 0.0
C635 C 0.56254 0.34583 0.15824 0.0
H636 H 0.58611 0.32259 0.94774 0.0
C637 C 0.57822 0.33117 0.22084 0.0
H638 H 0.55457 0.35418 0.00945 0.0
C639 C 0.59656 0.31336 0.18542 0.0
C640 C 0.59921 0.30951 0.08674 0.0
H641 H 0.57582 0.33293 0.29723 0.0
H642 H 0.60771 0.30169 0.23553 0.0
C643 C 0.58437 0.32501 0.02414 0.0
C644 C 0.93545 0.34139 0.43087 0.0
C645 C 0.93952 0.34375 0.33219 0.0
H646 H 0.91547 0.32116 0.54293 0.0
C647 C 0.92423 0.32864 0.26972 0.0
H648 H 0.94697 0.35272 0.48093 0.0
C649 C 0.9059 0.31082 0.30534 0.0
C650 C 0.90288 0.30744 0.40413 0.0
H651 H 0.92685 0.33013 0.19334 0.0
H652 H 0.89496 0.29887 0.25546 0.0
C653 C 0.91748 0.32324 0.46649 0.0
C654 C 0.90526 0.68141 0.68612 0.0
C655 C 0.90265 0.68528 0.58742 0.0
H656 H 0.92579 0.66164 0.79799 0.0
C657 C 0.91736 0.66963 0.52487 0.0
H658 H 0.8942 0.69318 0.73617 0.0
C659 C 0.93516 0.65129 0.56034 0.0
C660 C 0.93894 0.64859 0.65904 0.0
H661 H 0.91564 0.67206 0.44847 0.0
H662 H 0.94686 0.64017 0.51026 0.0
C663 C 0.92341 0.66341 0.72159 0.0
C664 C 0.40288 0.314 0.18567 0.0
C665 C 0.40032 0.31024 0.08661 0.0
H666 H 0.42339 0.33352 0.29851 0.0
C667 C 0.41519 0.32584 0.02471 0.0
H668 H 0.39172 0.30224 0.23549 0.0
C669 C 0.43296 0.34412 0.06109 0.0
C670 C 0.43665 0.34675 0.16015 0.0
H671 H 0.41357 0.32348 0.94825 0.0
H672 H 0.4447 0.3553 0.01127 0.0
C673 C 0.42107 0.33185 0.22205 0.0
C674 C 0.4037 0.67955 0.8105 0.0
C675 C 0.4011 0.68302 0.90969 0.0
H676 H 0.4243 0.66042 0.69705 0.0
C677 C 0.41599 0.6673 0.97109 0.0
H678 H 0.39252 0.6914 0.76106 0.0
C679 C 0.43382 0.6492 0.93414 0.0
C680 C 0.43755 0.64685 0.83499 0.0
H681 H 0.41434 0.66945 0.04763 0.0
H682 H 0.44557 0.63792 0.98363 0.0
C683 C 0.42196 0.66186 0.77355 0.0
C684 C 0.09856 0.67983 0.68479 0.0
C685 C 0.10104 0.68348 0.58566 0.0
H686 H 0.0781 0.66049 0.79811 0.0
C687 C 0.08605 0.66788 0.5241 0.0
H688 H 0.10981 0.69159 0.73436 0.0
C689 C 0.06825 0.64971 0.56091 0.0
C690 C 0.06465 0.64719 0.66006 0.0
H691 H 0.08759 0.67018 0.4476 0.0
H692 H 0.05642 0.63853 0.51136 0.0
C693 C 0.08034 0.66207 0.7216 0.0
C694 C 0.09962 0.31612 0.31317 0.0
C695 C 0.10168 0.31207 0.41223 0.0
H696 H 0.07939 0.33562 0.19968 0.0
C697 C 0.08629 0.3273 0.47369 0.0
H698 H 0.11119 0.30467 0.26364 0.0
C699 C 0.06843 0.34539 0.43677 0.0
C700 C 0.06519 0.3482 0.33758 0.0
H701 H 0.0875 0.3247 0.55014 0.0
H702 H 0.05621 0.35621 0.48612 0.0
C703 C 0.08135 0.33378 0.27622 0.0
C704 C 0.03181 0.00644 0.039 0.0
C705 C 0.00799 0.01862 0.06135 0.0
H706 H 0.05086 0.97602 0.95922 0.0
C707 C 0.98483 0.00998 0.01785 0.0
H708 H 0.04995 0.01341 0.07005 0.0
C709 C 0.98537 0.98901 0.95391 0.0
C710 C 0.00911 0.97655 0.93245 0.0
H711 H 0.96638 0.01966 0.03263 0.0
H712 H 0.9672 0.98219 0.92259 0.0
C713 C 0.03236 0.98544 0.97501 0.0
C714 C 0.26196 0.73003 0.22021 0.0
C715 C 0.27192 0.75354 0.18345 0.0
H716 H 0.23326 0.71203 0.3108 0.0
C717 C 0.26096 0.77746 0.21211 0.0
H718 H 0.27062 0.71144 0.20028 0.0
C719 C 0.23997 0.77782 0.27614 0.0
C720 C 0.22997 0.75428 0.31272 0.0
H721 H 0.26884 0.7958 0.18586 0.0
H722 H 0.2314 0.79641 0.29648 0.0
C723 C 0.24106 0.73039 0.28444 0.0
C724 C 0.5176 0.009 0.47647 0.0
C725 C 0.49437 0.01814 0.43488 0.0
H726 H 0.53517 0.98091 0.57066 0.0
C727 C 0.47043 0.00646 0.45916 0.0
H728 H 0.53617 0.01827 0.46012 0.0
C729 C 0.4698 0.98552 0.52337 0.0
C730 C 0.49309 0.97621 0.56433 0.0
H731 H 0.45226 0.01378 0.42948 0.0
H732 H 0.4512 0.97646 0.54056 0.0
C733 C 0.51698 0.98811 0.54072 0.0
C734 C 0.26192 0.26302 0.77634 0.0
C735 C 0.27138 0.23945 0.81435 0.0
H736 H 0.23364 0.28125 0.6846 0.0
C737 C 0.25999 0.21565 0.78657 0.0
H738 H 0.27093 0.28151 0.7955 0.0
C739 C 0.23904 0.21547 0.72232 0.0
C740 C 0.22951 0.23907 0.6846 0.0
H741 H 0.2675 0.19726 0.81369 0.0
H742 H 0.23014 0.19697 0.70265 0.0
C743 C 0.24107 0.26283 0.71188 0.0
C744 C 0.73869 0.2311 0.77095 0.0
C745 C 0.72968 0.25447 0.81192 0.0
H746 H 0.76653 0.21323 0.67659 0.0
C747 C 0.74135 0.27833 0.78646 0.0
H748 H 0.72943 0.2126 0.78821 0.0
C749 C 0.76216 0.27874 0.72166 0.0
C750 C 0.77131 0.25532 0.6812 0.0
H751 H 0.73413 0.29659 0.81568 0.0
H752 H 0.77124 0.29727 0.70364 0.0
C753 C 0.75943 0.23152 0.70606 0.0
C754 C 0.74165 0.71687 0.20916 0.0
C755 C 0.73006 0.74076 0.18365 0.0
H756 H 0.77164 0.69787 0.29128 0.0
C757 C 0.73935 0.76414 0.22382 0.0
H758 H 0.73424 0.69861 0.18049 0.0
C759 C 0.76026 0.76369 0.28799 0.0
C760 C 0.77206 0.73986 0.31288 0.0
H761 H 0.73016 0.78267 0.20648 0.0
H762 H 0.76756 0.78198 0.31688 0.0
C763 C 0.76263 0.71643 0.27323 0.0
C764 C 0.53175 0.50795 0.52546 0.0
C765 C 0.50822 0.51813 0.5614 0.0
H766 H 0.54969 0.47894 0.43572 0.0
C767 C 0.48431 0.50723 0.53232 0.0
H768 H 0.55036 0.5164 0.54633 0.0
C769 C 0.48392 0.48632 0.46807 0.0
C770 C 0.50742 0.47615 0.4321 0.0
H771 H 0.46596 0.51518 0.55813 0.0
H772 H 0.46531 0.47781 0.44758 0.0
C773 C 0.53136 0.48696 0.46144 0.0
C774 C 0.01751 0.50984 0.97922 0.0
C775 C 0.99454 0.51807 0.93336 0.0
H776 H 0.0349 0.48226 0.07577 0.0
C777 C 0.97079 0.50541 0.95302 0.0
H778 H 0.03588 0.5199 0.96652 0.0
C779 C 0.97013 0.48435 0.01668 0.0
C780 C 0.9932 0.47583 0.06143 0.0
H781 H 0.95278 0.51206 0.92016 0.0
H782 H 0.9517 0.47452 0.03029 0.0
C783 C 0.01687 0.48878 0.0427 0.0
C784 C 0.96484 0.10949 0.74456 0.0
C785 C 0.99013 0.114 0.7801 0.0
H786 H 0.94161 0.09234 0.63398 0.0
C787 C 0.01167 0.10269 0.7334 0.0
H788 H 0.94792 0.11796 0.77935 0.0
C789 C 0.00813 0.08776 0.65131 0.0
C790 C 0.98296 0.08403 0.61316 0.0
H791 H 0.03137 0.10532 0.76052 0.0
H792 H 0.02527 0.07989 0.616 0.0
C793 C 0.96127 0.09464 0.66175 0.0
C794 C 0.14586 0.75865 0.98413 0.0
C795 C 0.13427 0.73727 0.03091 0.0
H796 H 0.16883 0.77193 0.86665 0.0
C797 C 0.13841 0.71191 0.99545 0.0
H798 H 0.14352 0.77839 0.01121 0.0
C799 C 0.15319 0.70812 0.91262 0.0
C800 C 0.16409 0.72966 0.86394 0.0
H801 H 0.12971 0.69511 0.03032 0.0
H802 H 0.1552 0.68842 0.8849 0.0
C803 C 0.16073 0.7549 0.90203 0.0
C804 C 0.53965 0.89977 0.16461 0.0
C805 C 0.51805 0.91049 0.11576 0.0
H806 H 0.55278 0.87641 0.28244 0.0
C807 C 0.49284 0.90694 0.15373 0.0
H808 H 0.55934 0.90193 0.137 0.0
C809 C 0.48916 0.89206 0.23585 0.0
C810 C 0.5106 0.88063 0.28276 0.0
H811 H 0.47576 0.9149 0.11824 0.0
H812 H 0.46943 0.88956 0.26283 0.0
C813 C 0.53593 0.88497 0.24745 0.0
C814 C 0.34829 0.28548 0.41437 0.0
C815 C 0.33724 0.264 0.36575 0.0
H816 H 0.37187 0.29836 0.53201 0.0
C817 C 0.34042 0.23875 0.40394 0.0
H818 H 0.34642 0.30518 0.38657 0.0
C819 C 0.35526 0.23492 0.48605 0.0
C820 C 0.36702 0.25623 0.53273 0.0
H821 H 0.33219 0.22177 0.36862 0.0
H822 H 0.35747 0.21517 0.51321 0.0
C823 C 0.36305 0.28161 0.4972 0.0
C824 C 0.00874 0.90716 0.34365 0.0
C825 C 0.98353 0.91071 0.3817 0.0
H826 H 0.03212 0.88979 0.23447 0.0
C827 C 0.96193 0.89997 0.33294 0.0
H828 H 0.02583 0.91514 0.37908 0.0
C829 C 0.96562 0.88517 0.25008 0.0
C830 C 0.99094 0.88084 0.21468 0.0
H831 H 0.94225 0.90212 0.36062 0.0
H832 H 0.94876 0.8766 0.21514 0.0
C833 C 0.0124 0.89228 0.26152 0.0
C834 C 0.34105 0.75412 0.59407 0.0
C835 C 0.33777 0.7289 0.63236 0.0
H836 H 0.3582 0.77761 0.48473 0.0
C837 C 0.34873 0.70737 0.58385 0.0
H838 H 0.3329 0.77115 0.6293 0.0
C839 C 0.36351 0.71116 0.50101 0.0
C840 C 0.36758 0.73651 0.46537 0.0
H841 H 0.34678 0.68768 0.61173 0.0
H842 H 0.37226 0.69437 0.46628 0.0
C843 C 0.35591 0.75788 0.51196 0.0
C844 C 0.53649 0.10993 0.75207 0.0
C845 C 0.51113 0.11388 0.71641 0.0
H846 H 0.56004 0.09329 0.8628 0.0
C847 C 0.48982 0.1021 0.76298 0.0
H848 H 0.55325 0.11876 0.71737 0.0
C849 C 0.49364 0.08725 0.84509 0.0
C850 C 0.51887 0.08408 0.88339 0.0
H851 H 0.47008 0.10429 0.73574 0.0
H852 H 0.47665 0.07901 0.8803 0.0
C853 C 0.54034 0.09516 0.83491 0.0
C854 C 0.13888 0.28301 0.00103 0.0
C855 C 0.13428 0.25769 0.96587 0.0
H856 H 0.15606 0.30631 0.11138 0.0
C857 C 0.14548 0.23616 0.01296 0.0
H858 H 0.1305 0.29993 0.96592 0.0
C859 C 0.16038 0.23973 0.0951 0.0
C860 C 0.16419 0.26494 0.13292 0.0
H861 H 0.14278 0.21644 0.98612 0.0
H862 H 0.16816 0.22259 0.13074 0.0
C863 C 0.1537 0.28662 0.08389 0.0
C864 C 0.84051 0.25453 0.09129 0.0
C865 C 0.8365 0.22932 0.12882 0.0
H866 H 0.85827 0.27778 0.98255 0.0
C867 C 0.84684 0.2076 0.07961 0.0
H868 H 0.83285 0.2717 0.12709 0.0
C869 C 0.86169 0.21117 0.9968 0.0
C870 C 0.86646 0.23647 0.96186 0.0
H871 H 0.84433 0.18791 0.10688 0.0
H872 H 0.86995 0.19421 0.96154 0.0
C873 C 0.85544 0.25806 0.00919 0.0
C874 C 0.65299 0.78668 0.58361 0.0
C875 C 0.66408 0.76524 0.63222 0.0
H876 H 0.62938 0.79951 0.46598 0.0
C877 C 0.66091 0.73998 0.59406 0.0
H878 H 0.65484 0.8064 0.61138 0.0
C879 C 0.64607 0.7361 0.51195 0.0
C880 C 0.63429 0.75739 0.46524 0.0
H881 H 0.66916 0.72301 0.62938 0.0
H882 H 0.64389 0.71635 0.48481 0.0
C883 C 0.63822 0.78278 0.50078 0.0
C884 C 0.64583 0.2589 0.48443 0.0
C885 C 0.6342 0.2375 0.53103 0.0
H886 H 0.66882 0.27222 0.36709 0.0
C887 C 0.63833 0.21216 0.49541 0.0
H888 H 0.6435 0.27863 0.51164 0.0
C889 C 0.65312 0.2084 0.41257 0.0
C890 C 0.66404 0.22996 0.36404 0.0
H891 H 0.62961 0.19534 0.53013 0.0
H892 H 0.65511 0.18871 0.38471 0.0
C893 C 0.6607 0.25517 0.40233 0.0
C894 C 0.86349 0.78266 0.99597 0.0
C895 C 0.86775 0.75731 0.03133 0.0
H896 H 0.8466 0.80611 0.8855 0.0
C897 C 0.85627 0.73589 0.9844 0.0
H898 H 0.8721 0.7995 0.03095 0.0
C899 C 0.8414 0.7396 0.90227 0.0
C900 C 0.83791 0.76484 0.8643 0.0
H901 H 0.85871 0.71615 0.01139 0.0
H902 H 0.83338 0.72254 0.86678 0.0
C903 C 0.8487 0.78641 0.91312 0.0
C904 C 0.46609 0.6096 0.2447 0.0
C905 C 0.49144 0.6138 0.28012 0.0
H906 H 0.44261 0.59275 0.13419 0.0
C907 C 0.51283 0.60226 0.23325 0.0
H908 H 0.44928 0.61825 0.27962 0.0
C909 C 0.50908 0.58739 0.15113 0.0
C910 C 0.48385 0.58396 0.11311 0.0
H911 H 0.53256 0.60466 0.26028 0.0
H912 H 0.52612 0.57933 0.1157 0.0
C913 C 0.46231 0.59481 0.16186 0.0
C914 C 0.00313 0.36968 0.6914 0.0
C915 C 0.01552 0.37864 0.77479 0.0
H916 H 0.99426 0.37686 0.54485 0.0
C917 C 0.03003 0.40218 0.77006 0.0
H918 H 0.99182 0.35171 0.69153 0.0
C919 C 0.03171 0.4164 0.68507 0.0
C920 C 0.01823 0.4079 0.60409 0.0
H921 H 0.0392 0.41063 0.8318 0.0
H922 H 0.04282 0.43449 0.6835 0.0
C923 C 0.00426 0.38423 0.60746 0.0
C924 C 0.51166 0.39217 0.7609 0.0
C925 C 0.4904 0.38032 0.71426 0.0
H926 H 0.52473 0.4153 0.87831 0.0
C927 C 0.46502 0.38419 0.74981 0.0
H928 H 0.53141 0.39005 0.73372 0.0
C929 C 0.4611 0.39894 0.83265 0.0
C930 C 0.48253 0.41008 0.88124 0.0
H931 H 0.4483 0.3753 0.71502 0.0
H932 H 0.44139 0.40073 0.86048 0.0
C933 C 0.50778 0.407 0.84301 0.0
C934 C 0.99342 0.58719 0.34357 0.0
C935 C 0.01865 0.58409 0.382 0.0
H936 H 0.96986 0.60417 0.23415 0.0
C937 C 0.04011 0.59526 0.33369 0.0
H938 H 0.97645 0.57887 0.37865 0.0
C939 C 0.03624 0.61004 0.2509 0.0
C940 C 0.01088 0.61391 0.21509 0.0
H941 H 0.05979 0.59346 0.36169 0.0
H942 H 0.05298 0.61894 0.21632 0.0
C943 C 0.98959 0.60205 0.2615 0.0
loop_
_geom_bond_atom_site_label_1
_geom_bond_atom_site_label_2
_geom_bond_distance
_geom_bond_site_symmetry_2
_ccdc_geom_bond_type
Co0 O3 1.970 1_455 S
Co0 N17 1.989 . S
Co0 O25 1.967 . S
Co0 O32 1.920 . S
Co1 O4 1.966 1_455 S
Co1 N10 2.022 1_554 S
Co1 N18 1.993 . S
Co1 O26 1.941 . S
C2 O3 1.258 . S
C2 O4 1.263 . S
O3 Co0 1.970 1_655 S
O3 C2 1.258 . S
O4 Co1 1.966 1_655 S
O4 C2 1.263 . S
C5 O6 1.235 . S
C5 O32 1.289 1_655 S
O6 C5 1.235 . S
C7 C9 1.400 . S
C7 N10 1.351 1_655 S
C7 C12 1.501 . S
C8 C9 1.387 1_455 S
C8 N11 1.341 . S
C9 C7 1.400 . S
C9 C8 1.387 1_655 S
N10 Co1 2.022 1_556 S
N10 C7 1.351 1_455 S
N10 N11 1.365 . S
N11 C8 1.341 . S
N11 N10 1.365 . S
N11 H31 0.862 . S
C12 C7 1.501 . S
C12 H13 0.961 1_556 S
C12 H14 0.961 . S
C12 H15 0.960 . S
H13 C12 0.961 1_554 S
H14 C12 0.961 . S
H15 C12 0.960 . S
C16 N17 1.342 . S
C16 C20 1.401 . S
C16 C21 1.499 . S
N17 Co0 1.989 . S
N17 C16 1.342 . S
N17 N18 1.388 . S
N18 Co1 1.993 . S
N18 N17 1.388 . S
N18 C19 1.346 . S
C19 N18 1.346 . S
C19 C20 1.396 . S
C19 C29 1.510 . S
C20 C16 1.401 . S
C20 C19 1.396 . S
C21 C16 1.499 . S
C21 H22 0.959 . S
C21 H23 0.960 . S
C21 H24 0.961 . S
H22 C21 0.959 . S
H23 C21 0.960 . S
H24 C21 0.961 . S
O25 Co0 1.967 . S
O25 C33 1.258 . S
O26 Co1 1.941 . S
O26 C33 1.266 . S
H27 C29 0.959 1_556 S
H28 C29 0.961 1_656 S
C29 C19 1.510 . S
C29 H27 0.959 1_554 S
C29 H28 0.961 1_454 S
C29 H30 0.960 1_554 S
H30 C29 0.960 1_556 S
H31 N11 0.862 . S
O32 Co0 1.920 . S
O32 C5 1.289 1_455 S
C33 O25 1.258 . S
C33 O26 1.266 . S
Co34 O37 1.970 . S
Co34 N51 1.989 . S
Co34 O59 1.967 . S
Co34 O66 1.920 . S
Co35 O38 1.966 . S
Co35 N44 2.022 . S
Co35 N52 1.993 . S
Co35 O60 1.941 . S
C36 O37 1.258 . S
C36 O38 1.263 . S
O37 Co34 1.970 . S
O37 C36 1.258 . S
O38 Co35 1.966 . S
O38 C36 1.263 . S
C39 O40 1.235 . S
C39 O66 1.289 . S
O40 C39 1.235 . S
C41 C43 1.400 . S
C41 N44 1.351 . S
C41 C46 1.501 . S
C42 C43 1.387 . S
C42 N45 1.341 . S
C43 C41 1.400 . S
C43 C42 1.387 . S
N44 Co35 2.022 . S
N44 C41 1.351 . S
N44 N45 1.365 . S
N45 C42 1.341 . S
N45 N44 1.365 . S
N45 H65 0.862 . S
C46 C41 1.501 . S
C46 H47 0.961 . S
C46 H48 0.961 . S
C46 H49 0.960 . S
H47 C46 0.961 . S
H48 C46 0.961 . S
H49 C46 0.960 . S
C50 N51 1.342 . S
C50 C54 1.401 . S
C50 C55 1.499 . S
N51 Co34 1.989 . S
N51 C50 1.342 . S
N51 N52 1.388 . S
N52 Co35 1.993 . S
N52 N51 1.388 . S
N52 C53 1.346 . S
C53 N52 1.346 . S
C53 C54 1.396 . S
C53 C63 1.510 . S
C54 C50 1.401 . S
C54 C53 1.396 . S
C55 C50 1.499 . S
C55 H56 0.959 . S
C55 H57 0.960 . S
C55 H58 0.961 . S
H56 C55 0.959 . S
H57 C55 0.960 . S
H58 C55 0.961 . S
O59 Co34 1.967 . S
O59 C67 1.258 . S
O60 Co35 1.941 . S
O60 C67 1.266 . S
H61 C63 0.959 . S
H62 C63 0.961 . S
C63 C53 1.510 . S
C63 H61 0.959 . S
C63 H62 0.961 . S
C63 H64 0.960 . S
H64 C63 0.960 . S
H65 N45 0.862 . S
O66 Co34 1.920 . S
O66 C39 1.289 . S
C67 O59 1.258 . S
C67 O60 1.266 . S
Co68 O71 1.970 . S
Co68 N85 1.989 . S
Co68 O93 1.967 . S
Co68 O100 1.920 . S
Co69 O72 1.966 . S
Co69 N78 2.022 . S
Co69 N86 1.993 . S
Co69 O94 1.941 . S
C70 O71 1.258 . S
C70 O72 1.263 . S
O71 Co68 1.970 . S
O71 C70 1.258 . S
O72 Co69 1.966 . S
O72 C70 1.263 . S
C73 O74 1.235 1_554 S
C73 O100 1.289 1_554 S
O74 C73 1.235 1_556 S
C75 C77 1.400 . S
C75 N78 1.351 . S
C75 C80 1.501 . S
C76 C77 1.387 . S
C76 N79 1.341 . S
C77 C75 1.400 . S
C77 C76 1.387 . S
N78 Co69 2.022 . S
N78 C75 1.351 . S
N78 N79 1.365 . S
N79 C76 1.341 . S
N79 N78 1.365 . S
N79 H99 0.862 . S
C80 C75 1.501 . S
C80 H81 0.961 . S
C80 H82 0.961 . S
C80 H83 0.960 . S
H81 C80 0.961 . S
H82 C80 0.961 . S
H83 C80 0.960 . S
C84 N85 1.342 . S
C84 C88 1.401 . S
C84 C89 1.499 . S
N85 Co68 1.989 . S
N85 C84 1.342 . S
N85 N86 1.388 . S
N86 Co69 1.993 . S
N86 N85 1.388 . S
N86 C87 1.346 . S
C87 N86 1.346 . S
C87 C88 1.396 . S
C87 C97 1.510 . S
C88 C84 1.401 . S
C88 C87 1.396 . S
C89 C84 1.499 . S
C89 H90 0.959 . S
C89 H91 0.960 . S
C89 H92 0.961 . S
H90 C89 0.959 . S
H91 C89 0.960 . S
H92 C89 0.961 . S
O93 Co68 1.967 . S
O93 C101 1.258 . S
O94 Co69 1.941 . S
O94 C101 1.266 . S
H95 C97 0.959 . S
H96 C97 0.961 . S
C97 C87 1.510 . S
C97 H95 0.959 . S
C97 H96 0.961 . S
C97 H98 0.960 . S
H98 C97 0.960 . S
H99 N79 0.862 . S
O100 Co68 1.920 . S
O100 C73 1.289 1_556 S
C101 O93 1.258 . S
C101 O94 1.266 . S
Co102 O105 1.970 . S
Co102 N119 1.989 . S
Co102 O127 1.967 . S
Co102 O134 1.920 . S
Co103 O106 1.966 . S
Co103 N112 2.022 . S
Co103 N120 1.993 . S
Co103 O128 1.941 . S
C104 O105 1.258 . S
C104 O106 1.263 1_554 S
O105 Co102 1.970 . S
O105 C104 1.258 . S
O106 Co103 1.966 . S
O106 C104 1.263 1_556 S
C107 O108 1.235 . S
C107 O134 1.289 . S
O108 C107 1.235 . S
C109 C111 1.400 . S
C109 N112 1.351 . S
C109 C114 1.501 . S
C110 C111 1.387 . S
C110 N113 1.341 . S
C111 C109 1.400 . S
C111 C110 1.387 . S
N112 Co103 2.022 . S
N112 C109 1.351 . S
N112 N113 1.365 . S
N113 C110 1.341 . S
N113 N112 1.365 . S
N113 H133 0.862 . S
C114 C109 1.501 . S
C114 H115 0.961 . S
C114 H116 0.961 . S
C114 H117 0.960 . S
H115 C114 0.961 . S
H116 C114 0.961 . S
H117 C114 0.960 . S
C118 N119 1.342 . S
C118 C122 1.401 1_554 S
C118 C123 1.499 . S
N119 Co102 1.989 . S
N119 C118 1.342 . S
N119 N120 1.388 1_554 S
N120 Co103 1.993 . S
N120 N119 1.388 1_556 S
N120 C121 1.346 . S
C121 N120 1.346 . S
C121 C122 1.396 . S
C121 C131 1.510 . S
C122 C118 1.401 1_556 S
C122 C121 1.396 . S
C123 C118 1.499 . S
C123 H124 0.959 . S
C123 H125 0.960 . S
C123 H126 0.961 . S
H124 C123 0.959 . S
H125 C123 0.960 . S
H126 C123 0.961 . S
O127 Co102 1.967 . S
O127 C135 1.258 . S
O128 Co103 1.941 . S
O128 C135 1.266 1_556 S
H129 C131 0.959 . S
H130 C131 0.961 . S
C131 C121 1.510 . S
C131 H129 0.959 . S
C131 H130 0.961 . S
C131 H132 0.960 . S
H132 C131 0.960 . S
H133 N113 0.862 . S
O134 Co102 1.920 . S
O134 C107 1.289 . S
C135 O127 1.258 . S
C135 O128 1.266 1_554 S
Co136 O139 1.970 1_455 S
Co136 N153 1.989 . S
Co136 O161 1.967 . S
Co136 O168 1.920 . S
Co137 O140 1.966 1_455 S
Co137 N146 2.022 1_556 S
Co137 N154 1.993 . S
Co137 O162 1.941 . S
C138 O139 1.258 . S
C138 O140 1.263 . S
O139 Co136 1.970 1_655 S
O139 C138 1.258 . S
O140 Co137 1.966 1_655 S
O140 C138 1.263 . S
C141 O142 1.235 . S
C141 O168 1.289 1_655 S
O142 C141 1.235 . S
C143 C145 1.400 . S
C143 N146 1.351 1_655 S
C143 C148 1.501 . S
C144 C145 1.387 1_455 S
C144 N147 1.341 . S
C145 C143 1.400 . S
C145 C144 1.387 1_655 S
N146 Co137 2.022 1_554 S
N146 C143 1.351 1_455 S
N146 N147 1.365 . S
N147 C144 1.341 . S
N147 N146 1.365 . S
N147 H167 0.862 . S
C148 C143 1.501 . S
C148 H149 0.961 1_554 S
C148 H150 0.961 . S
C148 H151 0.960 . S
H149 C148 0.961 1_556 S
H150 C148 0.961 . S
H151 C148 0.960 . S
C152 N153 1.342 . S
C152 C156 1.401 . S
C152 C157 1.499 . S
N153 Co136 1.989 . S
N153 C152 1.342 . S
N153 N154 1.388 . S
N154 Co137 1.993 . S
N154 N153 1.388 . S
N154 C155 1.346 . S
C155 N154 1.346 . S
C155 C156 1.396 . S
C155 C165 1.510 . S
C156 C152 1.401 . S
C156 C155 1.396 . S
C157 C152 1.499 . S
C157 H158 0.959 . S
C157 H159 0.960 . S
C157 H160 0.961 . S
H158 C157 0.959 . S
H159 C157 0.960 . S
H160 C157 0.961 . S
O161 Co136 1.967 . S
O161 C169 1.258 . S
O162 Co137 1.941 . S
O162 C169 1.266 . S
H163 C165 0.959 1_554 S
H164 C165 0.961 1_654 S
C165 C155 1.510 . S
C165 H163 0.959 1_556 S
C165 H164 0.961 1_456 S
C165 H166 0.960 1_556 S
H166 C165 0.960 1_554 S
H167 N147 0.862 . S
O168 Co136 1.920 . S
O168 C141 1.289 1_455 S
C169 O161 1.258 . S
C169 O162 1.266 . S
Co170 O173 1.970 . S
Co170 N187 1.989 . S
Co170 O195 1.967 . S
Co170 O202 1.920 . S
Co171 O174 1.966 . S
Co171 N180 2.022 . S
Co171 N188 1.993 . S
Co171 O196 1.941 . S
C172 O173 1.258 . S
C172 O174 1.263 1_556 S
O173 Co170 1.970 . S
O173 C172 1.258 . S
O174 Co171 1.966 . S
O174 C172 1.263 1_554 S
C175 O176 1.235 . S
C175 O202 1.289 . S
O176 C175 1.235 . S
C177 C179 1.400 . S
C177 N180 1.351 . S
C177 C182 1.501 . S
C178 C179 1.387 . S
C178 N181 1.341 . S
C179 C177 1.400 . S
C179 C178 1.387 . S
N180 Co171 2.022 . S
N180 C177 1.351 . S
N180 N181 1.365 . S
N181 C178 1.341 . S
N181 N180 1.365 . S
N181 H201 0.862 . S
C182 C177 1.501 . S
C182 H183 0.961 . S
C182 H184 0.961 . S
C182 H185 0.960 . S
H183 C182 0.961 . S
H184 C182 0.961 . S
H185 C182 0.960 . S
C186 N187 1.342 . S
C186 C190 1.401 1_556 S
C186 C191 1.499 . S
N187 Co170 1.989 . S
N187 C186 1.342 . S
N187 N188 1.388 1_556 S
N188 Co171 1.993 . S
N188 N187 1.388 1_554 S
N188 C189 1.346 . S
C189 N188 1.346 . S
C189 C190 1.396 . S
C189 C199 1.510 . S
C190 C186 1.401 1_554 S
C190 C189 1.396 . S
C191 C186 1.499 . S
C191 H192 0.959 . S
C191 H193 0.960 . S
C191 H194 0.961 . S
H192 C191 0.959 . S
H193 C191 0.960 . S
H194 C191 0.961 . S
O195 Co170 1.967 . S
O195 C203 1.258 . S
O196 Co171 1.941 . S
O196 C203 1.266 1_554 S
H197 C199 0.959 . S
H198 C199 0.961 . S
C199 C189 1.510 . S
C199 H197 0.959 . S
C199 H198 0.961 . S
C199 H200 0.960 . S
H200 C199 0.960 . S
H201 N181 0.862 . S
O202 Co170 1.920 . S
O202 C175 1.289 . S
C203 O195 1.258 . S
C203 O196 1.266 1_556 S
Co204 O207 1.970 . S
Co204 N221 1.989 . S
Co204 O229 1.967 . S
Co204 O236 1.920 . S
Co205 O208 1.966 . S
Co205 N214 2.022 . S
Co205 N222 1.993 . S
Co205 O230 1.941 . S
C206 O207 1.258 . S
C206 O208 1.263 . S
O207 Co204 1.970 . S
O207 C206 1.258 . S
O208 Co205 1.966 . S
O208 C206 1.263 . S
C209 O210 1.235 1_556 S
C209 O236 1.289 1_556 S
O210 C209 1.235 1_554 S
C211 C213 1.400 . S
C211 N214 1.351 . S
C211 C216 1.501 . S
C212 C213 1.387 . S
C212 N215 1.341 . S
C213 C211 1.400 . S
C213 C212 1.387 . S
N214 Co205 2.022 . S
N214 C211 1.351 . S
N214 N215 1.365 . S
N215 C212 1.341 . S
N215 N214 1.365 . S
N215 H235 0.862 . S
C216 C211 1.501 . S
C216 H217 0.961 . S
C216 H218 0.961 . S
C216 H219 0.960 . S
H217 C216 0.961 . S
H218 C216 0.961 . S
H219 C216 0.960 . S
C220 N221 1.342 . S
C220 C224 1.401 . S
C220 C225 1.499 . S
N221 Co204 1.989 . S
N221 C220 1.342 . S
N221 N222 1.388 . S
N222 Co205 1.993 . S
N222 N221 1.388 . S
N222 C223 1.346 . S
C223 N222 1.346 . S
C223 C224 1.396 . S
C223 C233 1.510 . S
C224 C220 1.401 . S
C224 C223 1.396 . S
C225 C220 1.499 . S
C225 H226 0.959 . S
C225 H227 0.960 . S
C225 H228 0.961 . S
H226 C225 0.959 . S
H227 C225 0.960 . S
H228 C225 0.961 . S
O229 Co204 1.967 . S
O229 C237 1.258 . S
O230 Co205 1.941 . S
O230 C237 1.266 . S
H231 C233 0.959 . S
H232 C233 0.961 . S
C233 C223 1.510 . S
C233 H231 0.959 . S
C233 H232 0.961 . S
C233 H234 0.960 . S
H234 C233 0.960 . S
H235 N215 0.862 . S
O236 Co204 1.920 . S
O236 C209 1.289 1_554 S
C237 O229 1.258 . S
C237 O230 1.266 . S
Co238 O241 1.970 . S
Co238 N255 1.989 . S
Co238 O263 1.967 . S
Co238 O270 1.920 . S
Co239 O242 1.966 . S
Co239 N248 2.022 . S
Co239 N256 1.993 . S
Co239 O264 1.941 . S
C240 O241 1.258 . S
C240 O242 1.263 . S
O241 Co238 1.970 . S
O241 C240 1.258 . S
O242 Co239 1.966 . S
O242 C240 1.263 . S
C243 O244 1.235 . S
C243 O270 1.289 . S
O244 C243 1.235 . S
C245 C247 1.400 . S
C245 N248 1.351 . S
C245 C250 1.501 . S
C246 C247 1.387 . S
C246 N249 1.341 . S
C247 C245 1.400 . S
C247 C246 1.387 . S
N248 Co239 2.022 . S
N248 C245 1.351 . S
N248 N249 1.365 . S
N249 C246 1.341 . S
N249 N248 1.365 . S
N249 H269 0.862 . S
C250 C245 1.501 . S
C250 H251 0.961 . S
C250 H252 0.961 . S
C250 H253 0.960 . S
H251 C250 0.961 . S
H252 C250 0.961 . S
H253 C250 0.960 . S
C254 N255 1.342 . S
C254 C258 1.401 . S
C254 C259 1.499 . S
N255 Co238 1.989 . S
N255 C254 1.342 . S
N255 N256 1.388 . S
N256 Co239 1.993 . S
N256 N255 1.388 . S
N256 C257 1.346 . S
C257 N256 1.346 . S
C257 C258 1.396 . S
C257 C267 1.510 . S
C258 C254 1.401 . S
C258 C257 1.396 . S
C259 C254 1.499 . S
C259 H260 0.959 . S
C259 H261 0.960 . S
C259 H262 0.961 . S
H260 C259 0.959 . S
H261 C259 0.960 . S
H262 C259 0.961 . S
O263 Co238 1.967 . S
O263 C271 1.258 . S
O264 Co239 1.941 . S
O264 C271 1.266 . S
H265 C267 0.959 . S
H266 C267 0.961 . S
C267 C257 1.510 . S
C267 H265 0.959 . S
C267 H266 0.961 . S
C267 H268 0.960 . S
H268 C267 0.960 . S
H269 N249 0.862 . S
O270 Co238 1.920 . S
O270 C243 1.289 . S
C271 O263 1.258 . S
C271 O264 1.266 . S
Co272 O275 1.970 . S
Co272 N289 1.989 . S
Co272 O297 1.967 . S
Co272 O304 1.920 . S
Co273 O276 1.966 . S
Co273 N282 2.022 . S
Co273 N290 1.993 . S
Co273 O298 1.941 . S
C274 O275 1.258 . S
C274 O276 1.263 . S
O275 Co272 1.970 . S
O275 C274 1.258 . S
O276 Co273 1.966 . S
O276 C274 1.263 . S
C277 O278 1.235 . S
C277 O304 1.289 . S
O278 C277 1.235 . S
C279 C281 1.400 . S
C279 N282 1.351 . S
C279 C284 1.501 . S
C280 C281 1.387 . S
C280 N283 1.341 . S
C281 C279 1.400 . S
C281 C280 1.387 . S
N282 Co273 2.022 . S
N282 C279 1.351 . S
N282 N283 1.365 . S
N283 C280 1.341 . S
N283 N282 1.365 . S
N283 H303 0.862 . S
C284 C279 1.501 . S
C284 H285 0.961 . S
C284 H286 0.961 . S
C284 H287 0.960 . S
H285 C284 0.961 . S
H286 C284 0.961 . S
H287 C284 0.960 . S
C288 N289 1.342 . S
C288 C292 1.401 . S
C288 C293 1.499 . S
N289 Co272 1.989 . S
N289 C288 1.342 . S
N289 N290 1.388 . S
N290 Co273 1.993 . S
N290 N289 1.388 . S
N290 C291 1.346 . S
C291 N290 1.346 . S
C291 C292 1.396 . S
C291 C301 1.510 . S
C292 C288 1.401 . S
C292 C291 1.396 . S
C293 C288 1.499 . S
C293 H294 0.959 . S
C293 H295 0.960 . S
C293 H296 0.961 . S
H294 C293 0.959 . S
H295 C293 0.960 . S
H296 C293 0.961 . S
O297 Co272 1.967 . S
O297 C305 1.258 . S
O298 Co273 1.941 . S
O298 C305 1.266 . S
H299 C301 0.959 . S
H300 C301 0.961 . S
C301 C291 1.510 . S
C301 H299 0.959 . S
C301 H300 0.961 . S
C301 H302 0.960 . S
H302 C301 0.960 . S
H303 N283 0.862 . S
O304 Co272 1.920 . S
O304 C277 1.289 . S
C305 O297 1.258 . S
C305 O298 1.266 . S
Co306 O309 1.970 . S
Co306 N323 1.989 . S
Co306 O331 1.967 . S
Co306 O338 1.920 . S
Co307 O310 1.966 . S
Co307 N316 2.022 . S
Co307 N324 1.993 . S
Co307 O332 1.941 . S
C308 O309 1.258 . S
C308 O310 1.263 1_556 S
O309 Co306 1.970 . S
O309 C308 1.258 . S
O310 Co307 1.966 . S
O310 C308 1.263 1_554 S
C311 O312 1.235 . S
C311 O338 1.289 . S
O312 C311 1.235 . S
C313 C315 1.400 . S
C313 N316 1.351 . S
C313 C318 1.501 . S
C314 C315 1.387 . S
C314 N317 1.341 . S
C315 C313 1.400 . S
C315 C314 1.387 . S
N316 Co307 2.022 . S
N316 C313 1.351 . S
N316 N317 1.365 . S
N317 C314 1.341 . S
N317 N316 1.365 . S
N317 H337 0.862 . S
C318 C313 1.501 . S
C318 H319 0.961 . S
C318 H320 0.961 . S
C318 H321 0.960 . S
H319 C318 0.961 . S
H320 C318 0.961 . S
H321 C318 0.960 . S
C322 N323 1.342 . S
C322 C326 1.401 1_556 S
C322 C327 1.499 . S
N323 Co306 1.989 . S
N323 C322 1.342 . S
N323 N324 1.388 1_556 S
N324 Co307 1.993 . S
N324 N323 1.388 1_554 S
N324 C325 1.346 . S
C325 N324 1.346 . S
C325 C326 1.396 . S
C325 C335 1.510 . S
C326 C322 1.401 1_554 S
C326 C325 1.396 . S
C327 C322 1.499 . S
C327 H328 0.959 . S
C327 H329 0.960 . S
C327 H330 0.961 . S
H328 C327 0.959 . S
H329 C327 0.960 . S
H330 C327 0.961 . S
O331 Co306 1.967 . S
O331 C339 1.258 . S
O332 Co307 1.941 . S
O332 C339 1.266 1_554 S
H333 C335 0.959 . S
H334 C335 0.961 . S
C335 C325 1.510 . S
C335 H333 0.959 . S
C335 H334 0.961 . S
C335 H336 0.960 . S
H336 C335 0.960 . S
H337 N317 0.862 . S
O338 Co306 1.920 . S
O338 C311 1.289 . S
C339 O331 1.258 . S
C339 O332 1.266 1_556 S
Co340 O343 1.970 . S
Co340 N357 1.989 . S
Co340 O365 1.967 . S
Co340 O372 1.920 . S
Co341 O344 1.966 . S
Co341 N350 2.022 . S
Co341 N358 1.993 . S
Co341 O366 1.941 . S
C342 O343 1.258 . S
C342 O344 1.263 1_554 S
O343 Co340 1.970 . S
O343 C342 1.258 . S
O344 Co341 1.966 . S
O344 C342 1.263 1_556 S
C345 O346 1.235 . S
C345 O372 1.289 . S
O346 C345 1.235 . S
C347 C349 1.400 . S
C347 N350 1.351 . S
C347 C352 1.501 . S
C348 C349 1.387 . S
C348 N351 1.341 . S
C349 C347 1.400 . S
C349 C348 1.387 . S
N350 Co341 2.022 . S
N350 C347 1.351 . S
N350 N351 1.365 . S
N351 C348 1.341 . S
N351 N350 1.365 . S
N351 H371 0.862 . S
C352 C347 1.501 . S
C352 H353 0.961 . S
C352 H354 0.961 . S
C352 H355 0.960 . S
H353 C352 0.961 . S
H354 C352 0.961 . S
H355 C352 0.960 . S
C356 N357 1.342 . S
C356 C360 1.401 1_554 S
C356 C361 1.499 . S
N357 Co340 1.989 . S
N357 C356 1.342 . S
N357 N358 1.388 1_554 S
N358 Co341 1.993 . S
N358 N357 1.388 1_556 S
N358 C359 1.346 . S
C359 N358 1.346 . S
C359 C360 1.396 . S
C359 C369 1.510 . S
C360 C356 1.401 1_556 S
C360 C359 1.396 . S
C361 C356 1.499 . S
C361 H362 0.959 . S
C361 H363 0.960 . S
C361 H364 0.961 . S
H362 C361 0.959 . S
H363 C361 0.960 . S
H364 C361 0.961 . S
O365 Co340 1.967 . S
O365 C373 1.258 . S
O366 Co341 1.941 . S
O366 C373 1.266 1_556 S
H367 C369 0.959 . S
H368 C369 0.961 . S
C369 C359 1.510 . S
C369 H367 0.959 . S
C369 H368 0.961 . S
C369 H370 0.960 . S
H370 C369 0.960 . S
H371 N351 0.862 . S
O372 Co340 1.920 . S
O372 C345 1.289 . S
C373 O365 1.258 . S
C373 O366 1.266 1_554 S
Co374 O377 1.970 . S
Co374 N391 1.989 . S
Co374 O399 1.967 . S
Co374 O406 1.920 . S
Co375 O378 1.966 . S
Co375 N384 2.022 . S
Co375 N392 1.993 . S
Co375 O400 1.941 . S
C376 O377 1.258 . S
C376 O378 1.263 . S
O377 Co374 1.970 . S
O377 C376 1.258 . S
O378 Co375 1.966 . S
O378 C376 1.263 . S
C379 O380 1.235 . S
C379 O406 1.289 . S
O380 C379 1.235 . S
C381 C383 1.400 . S
C381 N384 1.351 . S
C381 C386 1.501 . S
C382 C383 1.387 . S
C382 N385 1.341 . S
C383 C381 1.400 . S
C383 C382 1.387 . S
N384 Co375 2.022 . S
N384 C381 1.351 . S
N384 N385 1.365 . S
N385 C382 1.341 . S
N385 N384 1.365 . S
N385 H405 0.862 . S
C386 C381 1.501 . S
C386 H387 0.961 . S
C386 H388 0.961 . S
C386 H389 0.960 . S
H387 C386 0.961 . S
H388 C386 0.961 . S
H389 C386 0.960 . S
C390 N391 1.342 . S
C390 C394 1.401 . S
C390 C395 1.499 . S
N391 Co374 1.989 . S
N391 C390 1.342 . S
N391 N392 1.388 . S
N392 Co375 1.993 . S
N392 N391 1.388 . S
N392 C393 1.346 . S
C393 N392 1.346 . S
C393 C394 1.396 . S
C393 C403 1.510 . S
C394 C390 1.401 . S
C394 C393 1.396 . S
C395 C390 1.499 . S
C395 H396 0.959 . S
C395 H397 0.960 . S
C395 H398 0.961 . S
H396 C395 0.959 . S
H397 C395 0.960 . S
H398 C395 0.961 . S
O399 Co374 1.967 . S
O399 C407 1.258 . S
O400 Co375 1.941 . S
O400 C407 1.266 . S
H401 C403 0.959 . S
H402 C403 0.961 . S
C403 C393 1.510 . S
C403 H401 0.959 . S
C403 H402 0.961 . S
C403 H404 0.960 . S
H404 C403 0.960 . S
H405 N385 0.862 . S
O406 Co374 1.920 . S
O406 C379 1.289 . S
C407 O399 1.258 . S
C407 O400 1.266 . S
Co408 O411 1.970 . S
Co408 N425 1.989 . S
Co408 O433 1.967 . S
Co408 O440 1.920 . S
Co409 O412 1.966 . S
Co409 N418 2.022 . S
Co409 N426 1.993 . S
Co409 O434 1.941 . S
C410 O411 1.258 . S
C410 O412 1.263 . S
O411 Co408 1.970 . S
O411 C410 1.258 . S
O412 Co409 1.966 . S
O412 C410 1.263 . S
C413 O414 1.235 1_554 S
C413 O440 1.289 1_554 S
O414 C413 1.235 1_556 S
C415 C417 1.400 . S
C415 N418 1.351 . S
C415 C420 1.501 . S
C416 C417 1.387 . S
C416 N419 1.341 . S
C417 C415 1.400 . S
C417 C416 1.387 . S
N418 Co409 2.022 . S
N418 C415 1.351 . S
N418 N419 1.365 . S
N419 C416 1.341 . S
N419 N418 1.365 . S
N419 H439 0.862 . S
C420 C415 1.501 . S
C420 H421 0.961 . S
C420 H422 0.961 . S
C420 H423 0.960 . S
H421 C420 0.961 . S
H422 C420 0.961 . S
H423 C420 0.960 . S
C424 N425 1.342 . S
C424 C428 1.401 . S
C424 C429 1.499 . S
N425 Co408 1.989 . S
N425 C424 1.342 . S
N425 N426 1.388 . S
N426 Co409 1.993 . S
N426 N425 1.388 . S
N426 C427 1.346 . S
C427 N426 1.346 . S
C427 C428 1.396 . S
C427 C437 1.510 . S
C428 C424 1.401 . S
C428 C427 1.396 . S
C429 C424 1.499 . S
C429 H430 0.959 . S
C429 H431 0.960 . S
C429 H432 0.961 . S
H430 C429 0.959 . S
H431 C429 0.960 . S
H432 C429 0.961 . S
O433 Co408 1.967 . S
O433 C441 1.258 . S
O434 Co409 1.941 . S
O434 C441 1.266 . S
H435 C437 0.959 . S
H436 C437 0.961 . S
C437 C427 1.510 . S
C437 H435 0.959 . S
C437 H436 0.961 . S
C437 H438 0.960 . S
H438 C437 0.960 . S
H439 N419 0.862 . S
O440 Co408 1.920 . S
O440 C413 1.289 1_556 S
C441 O433 1.258 . S
C441 O434 1.266 . S
Co442 O445 1.970 . S
Co442 N459 1.989 1_455 S
Co442 O467 1.967 1_455 S
Co442 O474 1.920 1_455 S
Co443 O446 1.966 1_655 S
Co443 N452 2.022 1_554 S
Co443 N460 1.993 . S
Co443 O468 1.941 . S
C444 O445 1.258 . S
C444 O446 1.263 . S
O445 Co442 1.970 . S
O445 C444 1.258 . S
O446 Co443 1.966 1_455 S
O446 C444 1.263 . S
C447 O448 1.235 . S
C447 O474 1.289 1_455 S
O448 C447 1.235 . S
C449 C451 1.400 . S
C449 N452 1.351 1_455 S
C449 C454 1.501 . S
C450 C451 1.387 1_655 S
C450 N453 1.341 . S
C451 C449 1.400 . S
C451 C450 1.387 1_455 S
N452 Co443 2.022 1_556 S
N452 C449 1.351 1_655 S
N452 N453 1.365 . S
N453 C450 1.341 . S
N453 N452 1.365 . S
N453 H473 0.862 . S
C454 C449 1.501 . S
C454 H455 0.961 1_556 S
C454 H456 0.961 . S
C454 H457 0.960 . S
H455 C454 0.961 1_554 S
H456 C454 0.961 . S
H457 C454 0.960 . S
C458 N459 1.342 . S
C458 C462 1.401 . S
C458 C463 1.499 . S
N459 Co442 1.989 1_655 S
N459 C458 1.342 . S
N459 N460 1.388 . S
N460 Co443 1.993 . S
N460 N459 1.388 . S
N460 C461 1.346 . S
C461 N460 1.346 . S
C461 C462 1.396 . S
C461 C471 1.510 . S
C462 C458 1.401 . S
C462 C461 1.396 . S
C463 C458 1.499 . S
C463 H464 0.959 . S
C463 H465 0.960 1_655 S
C463 H466 0.961 . S
H464 C463 0.959 . S
H465 C463 0.960 1_455 S
H466 C463 0.961 . S
O467 Co442 1.967 1_655 S
O467 C475 1.258 . S
O468 Co443 1.941 . S
O468 C475 1.266 . S
H469 C471 0.959 1_556 S
H470 C471 0.961 1_456 S
C471 C461 1.510 . S
C471 H469 0.959 1_554 S
C471 H470 0.961 1_654 S
C471 H472 0.959 1_554 S
H472 C471 0.959 1_556 S
H473 N453 0.862 . S
O474 Co442 1.920 1_655 S
O474 C447 1.289 1_655 S
C475 O467 1.258 . S
C475 O468 1.266 . S
Co476 O479 1.970 . S
Co476 N493 1.989 . S
Co476 O501 1.967 . S
Co476 O508 1.920 . S
Co477 O480 1.966 . S
Co477 N486 2.022 . S
Co477 N494 1.993 . S
Co477 O502 1.941 . S
C478 O479 1.258 . S
C478 O480 1.263 . S
O479 Co476 1.970 . S
O479 C478 1.258 . S
O480 Co477 1.966 . S
O480 C478 1.263 . S
C481 O482 1.235 1_556 S
C481 O508 1.289 1_556 S
O482 C481 1.235 1_554 S
C483 C485 1.400 . S
C483 N486 1.351 . S
C483 C488 1.501 . S
C484 C485 1.387 . S
C484 N487 1.341 . S
C485 C483 1.400 . S
C485 C484 1.387 . S
N486 Co477 2.022 . S
N486 C483 1.351 . S
N486 N487 1.365 . S
N487 C484 1.341 . S
N487 N486 1.365 . S
N487 H507 0.862 . S
C488 C483 1.501 . S
C488 H489 0.961 . S
C488 H490 0.961 . S
C488 H491 0.960 . S
H489 C488 0.961 . S
H490 C488 0.961 . S
H491 C488 0.960 . S
C492 N493 1.342 . S
C492 C496 1.401 . S
C492 C497 1.499 . S
N493 Co476 1.989 . S
N493 C492 1.342 . S
N493 N494 1.388 . S
N494 Co477 1.993 . S
N494 N493 1.388 . S
N494 C495 1.346 . S
C495 N494 1.346 . S
C495 C496 1.396 . S
C495 C505 1.510 . S
C496 C492 1.401 . S
C496 C495 1.396 . S
C497 C492 1.499 . S
C497 H498 0.959 . S
C497 H499 0.960 . S
C497 H500 0.961 . S
H498 C497 0.959 . S
H499 C497 0.960 . S
H500 C497 0.961 . S
O501 Co476 1.967 . S
O501 C509 1.258 . S
O502 Co477 1.941 . S
O502 C509 1.266 . S
H503 C505 0.959 . S
H504 C505 0.961 . S
C505 C495 1.510 . S
C505 H503 0.959 . S
C505 H504 0.961 . S
C505 H506 0.960 . S
H506 C505 0.960 . S
H507 N487 0.862 . S
O508 Co476 1.920 . S
O508 C481 1.289 1_554 S
C509 O501 1.258 . S
C509 O502 1.266 . S
Co510 O513 1.970 . S
Co510 N527 1.989 1_455 S
Co510 O535 1.967 1_455 S
Co510 O542 1.920 1_455 S
Co511 O514 1.966 1_655 S
Co511 N520 2.022 1_556 S
Co511 N528 1.993 . S
Co511 O536 1.941 . S
C512 O513 1.258 . S
C512 O514 1.263 . S
O513 Co510 1.970 . S
O513 C512 1.258 . S
O514 Co511 1.966 1_455 S
O514 C512 1.263 . S
C515 O516 1.235 . S
C515 O542 1.289 1_455 S
O516 C515 1.235 . S
C517 C519 1.400 . S
C517 N520 1.351 1_455 S
C517 C522 1.501 . S
C518 C519 1.387 1_655 S
C518 N521 1.341 . S
C519 C517 1.400 . S
C519 C518 1.387 1_455 S
N520 Co511 2.022 1_554 S
N520 C517 1.351 1_655 S
N520 N521 1.365 . S
N521 C518 1.341 . S
N521 N520 1.365 . S
N521 H541 0.862 . S
C522 C517 1.501 . S
C522 H523 0.961 1_554 S
C522 H524 0.961 . S
C522 H525 0.960 . S
H523 C522 0.961 1_556 S
H524 C522 0.961 . S
H525 C522 0.960 . S
C526 N527 1.342 . S
C526 C530 1.401 . S
C526 C531 1.499 . S
N527 Co510 1.989 1_655 S
N527 C526 1.342 . S
N527 N528 1.388 . S
N528 Co511 1.993 . S
N528 N527 1.388 . S
N528 C529 1.346 . S
C529 N528 1.346 . S
C529 C530 1.396 . S
C529 C539 1.510 . S
C530 C526 1.401 . S
C530 C529 1.396 . S
C531 C526 1.499 . S
C531 H532 0.959 . S
C531 H533 0.960 1_655 S
C531 H534 0.961 . S
H532 C531 0.959 . S
H533 C531 0.960 1_455 S
H534 C531 0.961 . S
O535 Co510 1.967 1_655 S
O535 C543 1.258 . S
O536 Co511 1.941 . S
O536 C543 1.266 . S
H537 C539 0.959 1_554 S
H538 C539 0.961 1_454 S
C539 C529 1.510 . S
C539 H537 0.959 1_556 S
C539 H538 0.961 1_656 S
C539 H540 0.959 1_556 S
H540 C539 0.959 1_554 S
H541 N521 0.862 . S
O542 Co510 1.920 1_655 S
O542 C515 1.289 1_655 S
C543 O535 1.258 . S
C543 O536 1.266 . S
C544 C545 1.387 . S
C544 H548 0.950 . S
C544 C553 1.390 . S
C545 C544 1.387 . S
C545 C547 1.387 . S
H546 C553 0.950 . S
C547 C545 1.387 . S
C547 C549 1.390 . S
C547 H551 0.950 . S
H548 C544 0.950 . S
C549 C547 1.390 . S
C549 C550 1.387 . S
C549 H552 0.950 . S
C550 C549 1.387 . S
C550 C553 1.387 . S
H551 C547 0.950 . S
H552 C549 0.950 . S
C553 C544 1.390 . S
C553 H546 0.950 . S
C553 C550 1.387 . S
C554 C555 1.387 . S
C554 H558 0.950 . S
C554 C563 1.390 . S
C555 C554 1.387 . S
C555 C557 1.387 . S
H556 C563 0.950 . S
C557 C555 1.387 . S
C557 C559 1.390 . S
C557 H561 0.950 . S
H558 C554 0.950 . S
C559 C557 1.390 . S
C559 C560 1.387 . S
C559 H562 0.950 . S
C560 C559 1.387 . S
C560 C563 1.387 . S
H561 C557 0.950 . S
H562 C559 0.950 . S
C563 C554 1.390 . S
C563 H556 0.950 . S
C563 C560 1.387 . S
C564 C565 1.387 . S
C564 H568 0.950 . S
C564 C573 1.390 . S
C565 C564 1.387 . S
C565 C567 1.387 . S
H566 C573 0.950 . S
C567 C565 1.387 . S
C567 C569 1.390 . S
C567 H571 0.950 . S
H568 C564 0.950 . S
C569 C567 1.390 . S
C569 C570 1.387 . S
C569 H572 0.950 . S
C570 C569 1.387 . S
C570 C573 1.387 . S
H571 C567 0.950 . S
H572 C569 0.950 . S
C573 C564 1.390 . S
C573 H566 0.950 . S
C573 C570 1.387 . S
C574 C575 1.387 . S
C574 H578 0.950 . S
C574 C583 1.390 . S
C575 C574 1.387 . S
C575 C577 1.387 . S
H576 C583 0.950 1_556 S
C577 C575 1.387 . S
C577 C579 1.390 . S
C577 H581 0.950 . S
H578 C574 0.950 . S
C579 C577 1.390 . S
C579 C580 1.387 . S
C579 H582 0.950 . S
C580 C579 1.387 . S
C580 C583 1.387 . S
H581 C577 0.950 . S
H582 C579 0.950 . S
C583 C574 1.390 . S
C583 H576 0.950 1_554 S
C583 C580 1.387 . S
C584 C585 1.387 . S
C584 H588 0.950 . S
C584 C593 1.390 . S
C585 C584 1.387 . S
C585 C587 1.387 . S
H586 C593 0.950 . S
C587 C585 1.387 . S
C587 C589 1.390 . S
C587 H591 0.950 . S
H588 C584 0.950 . S
C589 C587 1.390 . S
C589 C590 1.387 . S
C589 H592 0.950 . S
C590 C589 1.387 . S
C590 C593 1.387 . S
H591 C587 0.950 . S
H592 C589 0.950 . S
C593 C584 1.390 . S
C593 H586 0.950 . S
C593 C590 1.387 . S
C594 C595 1.387 . S
C594 H598 0.950 . S
C594 C603 1.390 . S
C595 C594 1.387 . S
C595 C597 1.387 . S
H596 C603 0.950 . S
C597 C595 1.387 . S
C597 C599 1.390 . S
C597 H601 0.950 . S
H598 C594 0.950 . S
C599 C597 1.390 . S
C599 C600 1.387 . S
C599 H602 0.950 . S
C600 C599 1.387 . S
C600 C603 1.387 . S
H601 C597 0.950 . S
H602 C599 0.950 . S
C603 C594 1.390 . S
C603 H596 0.950 . S
C603 C600 1.387 . S
C604 C605 1.387 . S
C604 H608 0.950 . S
C604 C613 1.390 . S
C605 C604 1.387 . S
C605 C607 1.387 . S
H606 C613 0.950 1_556 S
C607 C605 1.387 . S
C607 C609 1.390 . S
C607 H611 0.950 . S
H608 C604 0.950 . S
C609 C607 1.390 . S
C609 C610 1.387 . S
C609 H612 0.950 . S
C610 C609 1.387 . S
C610 C613 1.387 . S
H611 C607 0.950 . S
H612 C609 0.950 . S
C613 C604 1.390 . S
C613 H606 0.950 1_554 S
C613 C610 1.387 . S
C614 C615 1.387 . S
C614 H618 0.950 . S
C614 C623 1.390 . S
C615 C614 1.387 . S
C615 C617 1.387 . S
H616 C623 0.950 . S
C617 C615 1.387 . S
C617 C619 1.390 . S
C617 H621 0.950 . S
H618 C614 0.950 . S
C619 C617 1.390 . S
C619 C620 1.387 . S
C619 H622 0.950 1_556 S
C620 C619 1.387 . S
C620 C623 1.387 . S
H621 C617 0.950 . S
H622 C619 0.950 1_554 S
C623 C614 1.390 . S
C623 H616 0.950 . S
C623 C620 1.387 . S
C624 C625 1.387 . S
C624 H628 0.950 . S
C624 C633 1.390 . S
C625 C624 1.387 . S
C625 C627 1.387 . S
H626 C633 0.950 . S
C627 C625 1.387 . S
C627 C629 1.390 . S
C627 H631 0.950 1_556 S
H628 C624 0.950 . S
C629 C627 1.390 . S
C629 C630 1.387 . S
C629 H632 0.950 . S
C630 C629 1.387 . S
C630 C633 1.387 . S
H631 C627 0.950 1_554 S
H632 C629 0.950 . S
C633 C624 1.390 . S
C633 H626 0.950 . S
C633 C630 1.387 . S
C634 C635 1.387 . S
C634 H638 0.950 . S
C634 C643 1.390 . S
C635 C634 1.387 . S
C635 C637 1.387 . S
H636 C643 0.950 1_556 S
C637 C635 1.387 . S
C637 C639 1.390 . S
C637 H641 0.950 . S
H638 C634 0.950 . S
C639 C637 1.390 . S
C639 C640 1.387 . S
C639 H642 0.950 . S
C640 C639 1.387 . S
C640 C643 1.387 . S
H641 C637 0.950 . S
H642 C639 0.950 . S
C643 C634 1.390 . S
C643 H636 0.950 1_554 S
C643 C640 1.387 . S
C644 C645 1.387 . S
C644 H648 0.950 . S
C644 C653 1.390 . S
C645 C644 1.387 . S
C645 C647 1.387 . S
H646 C653 0.950 . S
C647 C645 1.387 . S
C647 C649 1.390 . S
C647 H651 0.950 . S
H648 C644 0.950 . S
C649 C647 1.390 . S
C649 C650 1.387 . S
C649 H652 0.950 . S
C650 C649 1.387 . S
C650 C653 1.387 . S
H651 C647 0.950 . S
H652 C649 0.950 . S
C653 C644 1.390 . S
C653 H646 0.950 . S
C653 C650 1.387 . S
C654 C655 1.387 . S
C654 H658 0.950 . S
C654 C663 1.390 . S
C655 C654 1.387 . S
C655 C657 1.387 . S
H656 C663 0.950 . S
C657 C655 1.387 . S
C657 C659 1.390 . S
C657 H661 0.950 . S
H658 C654 0.950 . S
C659 C657 1.390 . S
C659 C660 1.387 . S
C659 H662 0.950 . S
C660 C659 1.387 . S
C660 C663 1.387 . S
H661 C657 0.950 . S
H662 C659 0.950 . S
C663 C654 1.390 . S
C663 H656 0.950 . S
C663 C660 1.387 . S
C664 C665 1.387 . S
C664 H668 0.950 . S
C664 C673 1.390 . S
C665 C664 1.387 . S
C665 C667 1.387 . S
H666 C673 0.950 . S
C667 C665 1.387 . S
C667 C669 1.390 . S
C667 H671 0.950 1_554 S
H668 C664 0.950 . S
C669 C667 1.390 . S
C669 C670 1.387 . S
C669 H672 0.950 . S
C670 C669 1.387 . S
C670 C673 1.387 . S
H671 C667 0.950 1_556 S
H672 C669 0.950 . S
C673 C664 1.390 . S
C673 H666 0.950 . S
C673 C670 1.387 . S
C674 C675 1.387 . S
C674 H678 0.950 . S
C674 C683 1.390 . S
C675 C674 1.387 . S
C675 C677 1.387 . S
H676 C683 0.950 . S
C677 C675 1.387 . S
C677 C679 1.390 . S
C677 H681 0.950 . S
H678 C674 0.950 . S
C679 C677 1.390 . S
C679 C680 1.387 . S
C679 H682 0.950 . S
C680 C679 1.387 . S
C680 C683 1.387 . S
H681 C677 0.950 . S
H682 C679 0.950 . S
C683 C674 1.390 . S
C683 H676 0.950 . S
C683 C680 1.387 . S
C684 C685 1.387 . S
C684 H688 0.950 . S
C684 C693 1.390 . S
C685 C684 1.387 . S
C685 C687 1.387 . S
H686 C693 0.950 . S
C687 C685 1.387 . S
C687 C689 1.390 . S
C687 H691 0.950 . S
H688 C684 0.950 . S
C689 C687 1.390 . S
C689 C690 1.387 . S
C689 H692 0.950 . S
C690 C689 1.387 . S
C690 C693 1.387 . S
H691 C687 0.950 . S
H692 C689 0.950 . S
C693 C684 1.390 . S
C693 H686 0.950 . S
C693 C690 1.387 . S
C694 C695 1.387 . S
C694 H698 0.950 . S
C694 C703 1.390 . S
C695 C694 1.387 . S
C695 C697 1.387 . S
H696 C703 0.950 . S
C697 C695 1.387 . S
C697 C699 1.390 . S
C697 H701 0.950 . S
H698 C694 0.950 . S
C699 C697 1.390 . S
C699 C700 1.387 . S
C699 H702 0.950 . S
C700 C699 1.387 . S
C700 C703 1.387 . S
H701 C697 0.950 . S
H702 C699 0.950 . S
C703 C694 1.390 . S
C703 H696 0.950 . S
C703 C700 1.387 . S
C704 C705 1.387 . S
C704 H708 0.950 . S
C704 C713 1.390 1_544 S
C705 C704 1.387 . S
C705 C707 1.387 1_455 S
H706 C713 0.950 . S
C707 C705 1.387 1_655 S
C707 C709 1.390 1_544 S
C707 H711 0.950 . S
H708 C704 0.950 . S
C709 C707 1.390 1_566 S
C709 C710 1.387 1_655 S
C709 H712 0.950 . S
C710 C709 1.387 1_455 S
C710 C713 1.387 . S
H711 C707 0.950 . S
H712 C709 0.950 . S
C713 C704 1.390 1_566 S
C713 H706 0.950 . S
C713 C710 1.387 . S
C714 C715 1.387 . S
C714 H718 0.950 . S
C714 C723 1.390 . S
C715 C714 1.387 . S
C715 C717 1.387 . S
H716 C723 0.950 . S
C717 C715 1.387 . S
C717 C719 1.390 . S
C717 H721 0.950 . S
H718 C714 0.950 . S
C719 C717 1.390 . S
C719 C720 1.387 . S
C719 H722 0.950 . S
C720 C719 1.387 . S
C720 C723 1.387 . S
H721 C717 0.950 . S
H722 C719 0.950 . S
C723 C714 1.390 . S
C723 H716 0.950 . S
C723 C720 1.387 . S
C724 C725 1.387 . S
C724 H728 0.950 . S
C724 C733 1.390 1_545 S
C725 C724 1.387 . S
C725 C727 1.387 . S
H726 C733 0.950 . S
C727 C725 1.387 . S
C727 C729 1.390 1_545 S
C727 H731 0.950 . S
H728 C724 0.950 . S
C729 C727 1.390 1_565 S
C729 C730 1.387 . S
C729 H732 0.950 . S
C730 C729 1.387 . S
C730 C733 1.387 . S
H731 C727 0.950 . S
H732 C729 0.950 . S
C733 C724 1.390 1_565 S
C733 H726 0.950 . S
C733 C730 1.387 . S
C734 C735 1.387 . S
C734 H738 0.950 . S
C734 C743 1.390 . S
C735 C734 1.387 . S
C735 C737 1.387 . S
H736 C743 0.950 . S
C737 C735 1.387 . S
C737 C739 1.390 . S
C737 H741 0.950 . S
H738 C734 0.950 . S
C739 C737 1.390 . S
C739 C740 1.387 . S
C739 H742 0.950 . S
C740 C739 1.387 . S
C740 C743 1.387 . S
H741 C737 0.950 . S
H742 C739 0.950 . S
C743 C734 1.390 . S
C743 H736 0.950 . S
C743 C740 1.387 . S
C744 C745 1.387 . S
C744 H748 0.950 . S
C744 C753 1.390 . S
C745 C744 1.387 . S
C745 C747 1.387 . S
H746 C753 0.950 . S
C747 C745 1.387 . S
C747 C749 1.390 . S
C747 H751 0.950 . S
H748 C744 0.950 . S
C749 C747 1.390 . S
C749 C750 1.387 . S
C749 H752 0.950 . S
C750 C749 1.387 . S
C750 C753 1.387 . S
H751 C747 0.950 . S
H752 C749 0.950 . S
C753 C744 1.390 . S
C753 H746 0.950 . S
C753 C750 1.387 . S
C754 C755 1.387 . S
C754 H758 0.950 . S
C754 C763 1.390 . S
C755 C754 1.387 . S
C755 C757 1.387 . S
H756 C763 0.950 . S
C757 C755 1.387 . S
C757 C759 1.390 . S
C757 H761 0.950 . S
H758 C754 0.950 . S
C759 C757 1.390 . S
C759 C760 1.387 . S
C759 H762 0.950 . S
C760 C759 1.387 . S
C760 C763 1.387 . S
H761 C757 0.950 . S
H762 C759 0.950 . S
C763 C754 1.390 . S
C763 H756 0.950 . S
C763 C760 1.387 . S
C764 C765 1.387 . S
C764 H768 0.950 . S
C764 C773 1.390 . S
C765 C764 1.387 . S
C765 C767 1.387 . S
H766 C773 0.950 . S
C767 C765 1.387 . S
C767 C769 1.390 . S
C767 H771 0.950 . S
H768 C764 0.950 . S
C769 C767 1.390 . S
C769 C770 1.387 . S
C769 H772 0.950 . S
C770 C769 1.387 . S
C770 C773 1.387 . S
H771 C767 0.950 . S
H772 C769 0.950 . S
C773 C764 1.390 . S
C773 H766 0.950 . S
C773 C770 1.387 . S
C774 C775 1.387 1_455 S
C774 H778 0.950 . S
C774 C783 1.390 1_556 S
C775 C774 1.387 1_655 S
C775 C777 1.387 . S
H776 C783 0.950 . S
C777 C775 1.387 . S
C777 C779 1.390 1_556 S
C777 H781 0.950 . S
H778 C774 0.950 . S
C779 C777 1.390 1_554 S
C779 C780 1.387 . S
C779 H782 0.950 . S
C780 C779 1.387 . S
C780 C783 1.387 1_655 S
H781 C777 0.950 . S
H782 C779 0.950 . S
C783 C774 1.390 1_554 S
C783 H776 0.950 . S
C783 C780 1.387 1_455 S
C784 C785 1.387 . S
C784 H788 0.950 . S
C784 C793 1.390 . S
C785 C784 1.387 . S
C785 C787 1.387 1_655 S
H786 C793 0.950 . S
C787 C785 1.387 1_455 S
C787 C789 1.390 . S
C787 H791 0.950 . S
H788 C784 0.950 . S
C789 C787 1.390 . S
C789 C790 1.387 1_455 S
C789 H792 0.950 . S
C790 C789 1.387 1_655 S
C790 C793 1.387 . S
H791 C787 0.950 . S
H792 C789 0.950 . S
C793 C784 1.390 . S
C793 H786 0.950 . S
C793 C790 1.387 . S
C794 C795 1.387 1_556 S
C794 H798 0.950 1_556 S
C794 C803 1.390 . S
C795 C794 1.387 1_554 S
C795 C797 1.387 1_554 S
H796 C803 0.950 . S
C797 C795 1.387 1_556 S
C797 C799 1.390 . S
C797 H801 0.952 . S
H798 C794 0.950 1_554 S
C799 C797 1.390 . S
C799 C800 1.387 . S
C799 H802 0.950 . S
C800 C799 1.387 . S
C800 C803 1.387 . S
H801 C797 0.952 . S
H802 C799 0.950 . S
C803 C794 1.390 . S
C803 H796 0.950 . S
C803 C800 1.387 . S
C804 C805 1.387 . S
C804 H808 0.950 . S
C804 C813 1.390 . S
C805 C804 1.387 . S
C805 C807 1.387 . S
H806 C813 0.950 . S
C807 C805 1.387 . S
C807 C809 1.390 . S
C807 H811 0.950 . S
H808 C804 0.950 . S
C809 C807 1.390 . S
C809 C810 1.387 . S
C809 H812 0.950 . S
C810 C809 1.387 . S
C810 C813 1.387 . S
H811 C807 0.950 . S
H812 C809 0.950 . S
C813 C804 1.390 . S
C813 H806 0.950 . S
C813 C810 1.387 . S
C814 C815 1.387 . S
C814 H818 0.950 . S
C814 C823 1.390 . S
C815 C814 1.387 . S
C815 C817 1.387 . S
H816 C823 0.950 . S
C817 C815 1.387 . S
C817 C819 1.390 . S
C817 H821 0.950 . S
H818 C814 0.950 . S
C819 C817 1.390 . S
C819 C820 1.387 . S
C819 H822 0.950 . S
C820 C819 1.387 . S
C820 C823 1.387 . S
H821 C817 0.950 . S
H822 C819 0.950 . S
C823 C814 1.390 . S
C823 H816 0.950 . S
C823 C820 1.387 . S
C824 C825 1.387 1_455 S
C824 H828 0.950 . S
C824 C833 1.390 . S
C825 C824 1.387 1_655 S
C825 C827 1.387 . S
H826 C833 0.950 . S
C827 C825 1.387 . S
C827 C829 1.390 . S
C827 H831 0.950 . S
H828 C824 0.950 . S
C829 C827 1.390 . S
C829 C830 1.387 . S
C829 H832 0.950 . S
C830 C829 1.387 . S
C830 C833 1.387 1_655 S
H831 C827 0.950 . S
H832 C829 0.950 . S
C833 C824 1.390 . S
C833 H826 0.950 . S
C833 C830 1.387 1_455 S
C834 C835 1.387 . S
C834 H838 0.950 . S
C834 C843 1.390 . S
C835 C834 1.387 . S
C835 C837 1.387 . S
H836 C843 0.950 . S
C837 C835 1.387 . S
C837 C839 1.390 . S
C837 H841 0.950 . S
H838 C834 0.950 . S
C839 C837 1.390 . S
C839 C840 1.387 . S
C839 H842 0.950 . S
C840 C839 1.387 . S
C840 C843 1.387 . S
H841 C837 0.950 . S
H842 C839 0.950 . S
C843 C834 1.390 . S
C843 H836 0.950 . S
C843 C840 1.387 . S
C844 C845 1.387 . S
C844 H848 0.950 . S
C844 C853 1.390 . S
C845 C844 1.387 . S
C845 C847 1.387 . S
H846 C853 0.950 . S
C847 C845 1.387 . S
C847 C849 1.390 . S
C847 H851 0.950 . S
H848 C844 0.950 . S
C849 C847 1.390 . S
C849 C850 1.387 . S
C849 H852 0.950 . S
C850 C849 1.387 . S
C850 C853 1.387 . S
H851 C847 0.950 . S
H852 C849 0.950 . S
C853 C844 1.390 . S
C853 H846 0.950 . S
C853 C850 1.387 . S
C854 C855 1.387 1_554 S
C854 H858 0.950 . S
C854 C863 1.390 . S
C855 C854 1.387 1_556 S
C855 C857 1.387 1_556 S
H856 C863 0.950 . S
C857 C855 1.387 1_554 S
C857 C859 1.390 . S
C857 H861 0.950 1_554 S
H858 C854 0.950 . S
C859 C857 1.390 . S
C859 C860 1.387 . S
C859 H862 0.950 . S
C860 C859 1.387 . S
C860 C863 1.387 . S
H861 C857 0.950 1_556 S
H862 C859 0.950 . S
C863 C854 1.390 . S
C863 H856 0.950 . S
C863 C860 1.387 . S
C864 C865 1.387 . S
C864 H868 0.950 . S
C864 C873 1.390 1_554 S
C865 C864 1.387 . S
C865 C867 1.387 . S
H866 C873 0.950 . S
C867 C865 1.387 . S
C867 C869 1.390 . S
C867 H871 0.950 . S
H868 C864 0.950 . S
C869 C867 1.390 . S
C869 C870 1.387 1_554 S
C869 H872 0.950 . S
C870 C869 1.387 1_556 S
C870 C873 1.387 . S
H871 C867 0.950 . S
H872 C869 0.950 . S
C873 C864 1.390 1_556 S
C873 H866 0.950 . S
C873 C870 1.387 . S
C874 C875 1.387 . S
C874 H878 0.950 . S
C874 C883 1.390 . S
C875 C874 1.387 . S
C875 C877 1.387 . S
H876 C883 0.950 . S
C877 C875 1.387 . S
C877 C879 1.390 . S
C877 H881 0.950 . S
H878 C874 0.950 . S
C879 C877 1.390 . S
C879 C880 1.387 . S
C879 H882 0.950 . S
C880 C879 1.387 . S
C880 C883 1.387 . S
H881 C877 0.950 . S
H882 C879 0.950 . S
C883 C874 1.390 . S
C883 H876 0.950 . S
C883 C880 1.387 . S
C884 C885 1.387 . S
C884 H888 0.950 . S
C884 C893 1.390 . S
C885 C884 1.387 . S
C885 C887 1.387 . S
H886 C893 0.950 . S
C887 C885 1.387 . S
C887 C889 1.390 . S
C887 H891 0.950 . S
H888 C884 0.950 . S
C889 C887 1.390 . S
C889 C890 1.387 . S
C889 H892 0.950 . S
C890 C889 1.387 . S
C890 C893 1.387 . S
H891 C887 0.950 . S
H892 C889 0.950 . S
C893 C884 1.390 . S
C893 H886 0.950 . S
C893 C890 1.387 . S
C894 C895 1.387 1_556 S
C894 H898 0.950 . S
C894 C903 1.390 . S
C895 C894 1.387 1_554 S
C895 C897 1.387 1_554 S
H896 C903 0.950 . S
C897 C895 1.387 1_556 S
C897 C899 1.390 . S
C897 H901 0.950 1_556 S
H898 C894 0.950 . S
C899 C897 1.390 . S
C899 C900 1.387 . S
C899 H902 0.950 . S
C900 C899 1.387 . S
C900 C903 1.387 . S
H901 C897 0.950 1_554 S
H902 C899 0.950 . S
C903 C894 1.390 . S
C903 H896 0.950 . S
C903 C900 1.387 . S
C904 C905 1.387 . S
C904 H908 0.950 . S
C904 C913 1.390 . S
C905 C904 1.387 . S
C905 C907 1.387 . S
H906 C913 0.950 . S
C907 C905 1.387 . S
C907 C909 1.390 . S
C907 H911 0.950 . S
H908 C904 0.950 . S
C909 C907 1.390 . S
C909 C910 1.387 . S
C909 H912 0.950 . S
C910 C909 1.387 . S
C910 C913 1.387 . S
H911 C907 0.950 . S
H912 C909 0.950 . S
C913 C904 1.390 . S
C913 H906 0.950 . S
C913 C910 1.387 . S
C914 C915 1.387 . S
C914 H918 0.950 1_455 S
C914 C923 1.390 . S
C915 C914 1.387 . S
C915 C917 1.387 . S
H916 C923 0.950 1_655 S
C917 C915 1.387 . S
C917 C919 1.390 . S
C917 H921 0.950 . S
H918 C914 0.950 1_655 S
C919 C917 1.390 . S
C919 C920 1.387 . S
C919 H922 0.950 . S
C920 C919 1.387 . S
C920 C923 1.387 . S
H921 C917 0.950 . S
H922 C919 0.950 . S
C923 C914 1.390 . S
C923 H916 0.950 1_455 S
C923 C920 1.387 . S
C924 C925 1.387 . S
C924 H928 0.950 . S
C924 C933 1.390 . S
C925 C924 1.387 . S
C925 C927 1.387 . S
H926 C933 0.950 . S
C927 C925 1.387 . S
C927 C929 1.390 . S
C927 H931 0.950 . S
H928 C924 0.950 . S
C929 C927 1.390 . S
C929 C930 1.387 . S
C929 H932 0.950 . S
C930 C929 1.387 . S
C930 C933 1.387 . S
H931 C927 0.950 . S
H932 C929 0.950 . S
C933 C924 1.390 . S
C933 H926 0.950 . S
C933 C930 1.387 . S
C934 C935 1.387 1_655 S
C934 H938 0.950 . S
C934 C943 1.390 . S
C935 C934 1.387 1_455 S
C935 C937 1.387 . S
H936 C943 0.950 . S
C937 C935 1.387 . S
C937 C939 1.390 . S
C937 H941 0.950 . S
H938 C934 0.950 . S
C939 C937 1.390 . S
C939 C940 1.387 . S
C939 H942 0.950 . S
C940 C939 1.387 . S
C940 C943 1.387 1_455 S
H941 C937 0.950 . S
H942 C939 0.950 . S
C943 C934 1.390 . S
C943 H936 0.950 . S
C943 C940 1.387 1_655 S
C545 C271 1.318 . S
C550 C33 1.319 . S
C555 C67 1.316 . S
C560 C169 1.318 . S
C565 C101 1.317 . S
C570 C203 1.316 . S
C575 C237 1.316 . S
C580 C135 1.317 . S
C585 C376 1.639 . S
C590 C138 1.640 . S
C595 C274 1.639 . S
C600 C2 1.639 . S
C605 C206 1.639 . S
C610 C342 1.638 . S
C615 C70 1.638 . S
C620 C308 1.638 . S
C625 C339 1.316 . S
C630 C441 1.317 . S
C635 C509 1.317 . S
C640 C373 1.318 . S
C645 C475 1.316 . S
C650 C305 1.316 . S
C655 C407 1.316 . S
C660 C543 1.317 . S
C665 C104 1.638 . S
C670 C478 1.638 . S
C675 C172 1.638 . S
C680 C410 1.637 . S
C685 C36 1.638 . S
C690 C512 1.638 . S
C695 C240 1.638 . S
C700 C444 1.638 . S
C705 C20 1.818 . S
C710 C156 1.818 . S
C715 C190 1.822 . S
C720 C54 1.822 . S
C725 C224 1.822 . S
C730 C88 1.822 . S
C735 C122 1.822 . S
C740 C258 1.822 . S
C745 C360 1.822 . S
C750 C292 1.822 . S
C755 C326 1.819 . S
C760 C394 1.819 . S
C765 C428 1.818 . S
C770 C496 1.818 . S
C775 C530 1.822 . S
C780 C462 1.822 . S
C785 C9 1.169 . S
C790 C5 1.203 . S
C795 C43 1.172 . S
C800 C39 1.208 . S
C805 C73 1.203 . S
C810 C77 1.169 . S
C815 C107 1.203 . S
C820 C111 1.168 . S
C825 C141 1.207 . S
C830 C145 1.169 . S
C835 C175 1.208 . S
C840 C179 1.172 . S
C845 C213 1.169 . S
C850 C209 1.203 . S
C855 C247 1.168 . S
C860 C243 1.203 . S
C865 C277 1.207 . S
C870 C281 1.170 . S
C875 C311 1.203 . S
C880 C315 1.168 . S
C885 C349 1.171 . S
C890 C345 1.208 . S
C895 C383 1.168 . S
C900 C379 1.203 . S
C905 C417 1.169 . S
C910 C413 1.203 . S
C915 C451 1.174 . S
C920 C447 1.208 . S
C925 C485 1.170 . S
C930 C481 1.207 . S
C935 C515 1.208 . S
C940 C519 1.172 . S
