# Generated by pormake.
# Topology sml, (6)-cn, num edge types: 1
# Building blocks:
#     Node 0, Type 0, BuildingBlock: FUNLAD_clean_sbu_0, # of connection points: 6
#     Node 1, Type 0, BuildingBlock: FUNLAD_clean_sbu_0, # of connection points: 6
#     Node 2, Type 0, BuildingBlock: FUNLAD_clean_sbu_0, # of connection points: 6
#     Node 3, Type 0, BuildingBlock: FUNLAD_clean_sbu_0, # of connection points: 6
#     Node 4, Type 0, BuildingBlock: FUNLAD_clean_sbu_0, # of connection points: 6
#     Node 5, Type 0, BuildingBlock: FUNLAD_clean_sbu_0, # of connection points: 6
#     Edge 6, Type (0, 0), BuildingBlock: CIFDUS_clean_linker_0, # of connection points: 2
#     Edge 7, Type (0, 0), BuildingBlock: CIFDUS_clean_linker_0, # of connection points: 2
#     Edge 8, Type (0, 0), BuildingBlock: CIFDUS_clean_linker_0, # of connection points: 2
#     Edge 9, Type (0, 0), BuildingBlock: CIFDUS_clean_linker_0, # of connection points: 2
#     Edge 10, Type (0, 0), BuildingBlock: CIFDUS_clean_linker_0, # of connection points: 2
#     Edge 11, Type (0, 0), BuildingBlock: CIFDUS_clean_linker_0, # of connection points: 2
#     Edge 12, Type (0, 0), BuildingBlock: CIFDUS_clean_linker_0, # of connection points: 2
#     Edge 13, Type (0, 0), BuildingBlock: CIFDUS_clean_linker_0, # of connection points: 2
#     Edge 14, Type (0, 0), BuildingBlock: CIFDUS_clean_linker_0, # of connection points: 2
#     Edge 15, Type (0, 0), BuildingBlock: CIFDUS_clean_linker_0, # of connection points: 2
#     Edge 16, Type (0, 0), BuildingBlock: CIFDUS_clean_linker_0, # of connection points: 2
#     Edge 17, Type (0, 0), BuildingBlock: CIFDUS_clean_linker_0, # of connection points: 2
#     Edge 18, Type (0, 0), BuildingBlock: CIFDUS_clean_linker_0, # of connection points: 2
#     Edge 19, Type (0, 0), BuildingBlock: CIFDUS_clean_linker_0, # of connection points: 2
#     Edge 20, Type (0, 0), BuildingBlock: CIFDUS_clean_linker_0, # of connection points: 2
#     Edge 21, Type (0, 0), BuildingBlock: CIFDUS_clean_linker_0, # of connection points: 2
#     Edge 22, Type (0, 0), BuildingBlock: CIFDUS_clean_linker_0, # of connection points: 2
#     Edge 23, Type (0, 0), BuildingBlock: CIFDUS_clean_linker_0, # of connection points: 2
# Relax obj value: 0.400
# Max RMSD: 0.213
# Mean RMSD: 0.213
data_MOF--net-sml--node1-FUNLAD_clean_sbu_0--edge1-CIFDUS_clean_linker_0
_symmetry_space_group_name_H-M    P1
_symmetry_Int_Tables_number       1
_symmetry_cell_setting            triclinic
loop_
_symmetry_equiv_pos_as_xyz
'x, y, z'
_cell_length_a     42.545723
_cell_length_b     42.322165
_cell_length_c     13.209955
_cell_angle_alpha  90.245328
_cell_angle_beta   89.936566
_cell_angle_gamma 119.42529
loop_
_atom_site_label
_atom_site_type_symbol
_atom_site_fract_x
_atom_site_fract_y
_atom_site_fract_z
_atom_type_partial_charge
C0 C 0.15629 0.40182 0.85698 0.0
N1 N 0.17659 0.33881 0.06006 0.0
C2 C 0.155 0.31044 -0.00139 0.0
C3 C 0.16398 0.28348 -0.02388 0.0
C4 C 0.19546 0.28566 0.01737 0.0
C5 C 0.21592 0.31407 0.08551 0.0
C6 C 0.20602 0.34045 0.10564 0.0
Zn7 Zn 0.17071 0.38434 0.06542 0.0
C8 C 0.24124 0.45121 0.01589 0.0
N9 N 0.16349 0.48199 0.06219 0.0
C10 C 0.18442 0.51047 0.00095 0.0
C11 C 0.1455 0.4861 0.14205 0.0
C12 C 0.15054 0.52034 0.16783 0.0
C13 C 0.17443 0.55073 0.11116 0.0
C14 C 0.19028 0.54523 0.02419 0.0
Zn15 Zn 0.16667 0.43503 0.05456 0.0
O16 O 0.16059 0.37934 0.91017 0.0
C17 C 0.09549 0.36986 0.0998 0.0
O18 O 0.15679 0.42923 0.89858 0.0
H19 H 0.12925 0.46329 0.19056 0.0
H20 H 0.13181 0.30968 -0.03739 0.0
H21 H 0.19851 0.50673 0.93784 0.0
O22 O 0.11331 0.35285 0.09658 0.0
O23 O 0.11172 0.40381 0.08375 0.0
H24 H 0.22314 0.36343 0.15312 0.0
O25 O 0.17721 0.44024 0.20969 0.0
O26 O 0.18046 0.39019 0.22157 0.0
O27 O 0.22117 0.46539 0.02398 0.0
O28 O 0.22804 0.41744 0.03269 0.0
C29 C 0.18133 0.41774 0.26306 0.0
H30 H 0.14712 0.26183 0.92429 0.0
H31 H 0.24062 0.31723 0.11829 0.0
H32 H 0.13793 0.52327 0.23581 0.0
H33 H 0.20844 0.56784 -0.02266 0.0
C34 C 0.82616 0.23983 0.49938 0.0
N35 N 0.80321 0.1473 0.32762 0.0
C36 C 0.82416 0.14176 0.39513 0.0
C37 C 0.81575 0.10647 0.4218 0.0
C38 C 0.78554 0.07658 0.3784 0.0
C39 C 0.76529 0.08324 0.30616 0.0
C40 C 0.77457 0.11886 0.28199 0.0
Zn41 Zn 0.81056 0.19845 0.30306 0.0
C42 C 0.74237 0.20036 0.3372 0.0
N43 N 0.82331 0.30495 0.26164 0.0
C44 C 0.85243 0.33733 0.28729 0.0
C45 C 0.79535 0.30379 0.20861 0.0
C46 C 0.79579 0.33555 0.17938 0.0
C47 C 0.82568 0.36946 0.20232 0.0
C48 C 0.85419 0.37009 0.25819 0.0
Zn49 Zn 0.81902 0.25491 0.29055 0.0
O50 O 0.81934 0.21001 0.45765 0.0
C51 C 0.88769 0.25401 0.26047 0.0
O52 O 0.82928 0.26604 0.44539 0.0
H53 H 0.7726 0.27802 0.18715 0.0
H54 H 0.84675 0.16472 0.43084 0.0
H55 H 0.87459 0.33781 0.32869 0.0
O56 O 0.86754 0.22024 0.27775 0.0
O57 O 0.87404 0.27486 0.26176 0.0
H58 H 0.75798 0.12375 0.22945 0.0
O59 O 0.80882 0.24289 0.13627 0.0
O60 O 0.80188 0.18813 0.14748 0.0
O61 O 0.764 0.23376 0.32237 0.0
O62 O 0.75387 0.17785 0.32927 0.0
C63 C 0.80342 0.21368 0.09398 0.0
H64 H 0.83235 0.10265 0.47709 0.0
H65 H 0.74145 0.06119 0.27184 0.0
H66 H 0.77266 0.33336 0.13903 0.0
H67 H 0.87792 0.39551 0.27738 0.0
C68 C 0.56665 0.72742 0.53701 0.0
N69 N 0.64154 0.81586 0.71034 0.0
C70 C 0.66566 0.81987 0.63677 0.0
C71 C 0.69269 0.85457 0.60826 0.0
C72 C 0.69502 0.88535 0.65645 0.0
C73 C 0.67091 0.88016 0.73558 0.0
C74 C 0.64424 0.84518 0.76094 0.0
Zn75 Zn 0.59523 0.76712 0.73379 0.0
C76 C 0.53019 0.77538 0.69949 0.0
N77 N 0.49591 0.66777 0.7714 0.0
C78 C 0.48811 0.63433 0.73649 0.0
C79 C 0.47168 0.67231 0.82806 0.0
C80 C 0.4379 0.64308 0.84906 0.0
C81 C 0.42871 0.60851 0.81241 0.0
C82 C 0.45438 0.60397 0.75685 0.0
Zn83 Zn 0.54385 0.71433 0.74549 0.0
O84 O 0.59178 0.75561 0.57881 0.0
C85 C 0.60714 0.70386 0.77455 0.0
O86 O 0.54187 0.70312 0.59086 0.0
H87 H 0.47841 0.69886 0.85667 0.0
H88 H 0.66295 0.7963 0.59681 0.0
H89 H 0.50784 0.63126 0.69217 0.0
O90 O 0.6249 0.73809 0.75968 0.0
O91 O 0.57288 0.68765 0.7721 0.0
H92 H 0.62442 0.84167 0.81751 0.0
O93 O 0.54672 0.72617 0.90042 0.0
O94 O 0.59756 0.77751 0.88919 0.0
O95 O 0.51525 0.74155 0.71511 0.0
O96 O 0.5643 0.79448 0.70717 0.0
C97 C 0.57226 0.75383 0.94268 0.0
H98 H 0.71089 0.85732 0.54728 0.0
H99 H 0.67119 0.903 0.77373 0.0
H100 H 0.4189 0.64752 0.89311 0.0
H101 H 0.44806 0.57759 0.72729 0.0
C102 C 0.73824 0.55825 0.15893 0.0
N103 N 0.82834 0.6305 -0.00347 0.0
C104 C 0.82974 0.65549 0.06425 0.0
C105 C 0.86275 0.68173 0.10408 0.0
C106 C 0.89467 0.68234 0.07372 0.0
C107 C 0.89265 0.65768 -0.00108 0.0
C108 C 0.859 0.63177 -0.03865 0.0
Zn109 Zn 0.77921 0.58664 -0.03552 0.0
C110 C 0.78003 0.51701 -0.01733 0.0
N111 N 0.67505 0.49437 0.91669 0.0
C112 C 0.64321 0.48782 -0.04073 0.0
C113 C 0.67648 0.47029 0.85086 0.0
C114 C 0.64566 0.4377 0.82853 0.0
C115 C 0.61281 0.4296 0.87376 0.0
C116 C 0.61137 0.45528 0.93834 0.0
Zn117 Zn 0.72384 0.53927 0.94846 0.0
O118 O 0.76687 0.58247 0.11775 0.0
C119 C 0.72223 0.60809 0.92904 0.0
O120 O 0.71304 0.5346 0.10427 0.0
H121 H 0.70185 0.47588 0.81719 0.0
H122 H 0.80504 0.65396 0.09145 0.0
H123 H 0.64266 0.50738 0.01121 0.0
O124 O 0.75609 0.62123 0.94131 0.0
O125 O 0.70172 0.57387 0.93189 0.0
H126 H 0.85724 0.61149 0.90806 0.0
O127 O 0.73544 0.54489 0.7948 0.0
O128 O 0.79087 0.59004 0.80898 0.0
O129 O 0.74684 0.5052 -0.03564 0.0
O130 O 0.80127 0.55103 -0.0116 0.0
C131 C 0.76484 0.56776 0.75393 0.0
H132 H 0.86318 0.70053 0.16068 0.0
H133 H 0.91656 0.65697 -0.02593 0.0
H134 H 0.64767 0.41844 0.77835 0.0
H135 H 0.58638 0.44962 -0.02493 0.0
C136 C 0.25411 0.82303 0.19647 0.0
N137 N 0.16302 0.80411 0.36106 0.0
C138 C 0.16093 0.82647 0.29095 0.0
C139 C 0.12757 0.8187 0.25042 0.0
C140 C 0.09611 0.78773 0.28276 0.0
C141 C 0.09887 0.76662 0.36038 0.0
C142 C 0.13277 0.77527 0.39843 0.0
Zn143 Zn 0.21215 0.80875 0.39255 0.0
C144 C 0.21086 0.73888 0.35801 0.0
N145 N 0.31555 0.81711 0.43719 0.0
C146 C 0.34871 0.84243 0.40298 0.0
C147 C 0.31165 0.78918 0.49641 0.0
C148 C 0.34116 0.78506 0.52065 0.0
C149 C 0.37541 0.80986 0.48413 0.0
C150 C 0.37937 0.83938 0.4262 0.0
Zn151 Zn 0.26755 0.81584 0.40499 0.0
O152 O 0.22484 0.81702 0.2384 0.0
C153 C 0.26904 0.88586 0.43581 0.0
O154 O 0.28001 0.82568 0.25053 0.0
H155 H 0.28532 0.76938 0.52376 0.0
H156 H 0.18533 0.84921 0.26211 0.0
H157 H 0.35128 0.86453 0.35632 0.0
O158 O 0.23548 0.86582 0.41788 0.0
O159 O 0.28964 0.87193 0.43455 0.0
H160 H 0.13508 0.75766 0.45342 0.0
O161 O 0.25427 0.80626 0.55901 0.0
O162 O 0.20025 0.8004 0.54754 0.0
O163 O 0.24437 0.75965 0.37252 0.0
O164 O 0.1896 0.75177 0.36648 0.0
C165 C 0.22552 0.80157 0.60128 0.0
H166 H 0.12656 0.83593 0.19157 0.0
H167 H 0.07537 0.74228 0.38683 0.0
H168 H 0.3371 0.76212 0.56623 0.0
H169 H 0.40549 0.85897 0.39652 0.0
C170 C 0.42022 0.15959 0.83932 0.0
N171 N 0.34267 0.17111 0.67168 0.0
C172 C 0.32001 0.15184 0.7485 0.0
C173 C 0.29302 0.1595 0.78071 0.0
C174 C 0.28911 0.18698 0.73276 0.0
C175 C 0.31168 0.205 0.6504 0.0
C176 C 0.33843 0.1968 0.62151 0.0
Zn177 Zn 0.38954 0.1693 0.64353 0.0
C178 C 0.45369 0.24229 0.67483 0.0
N179 N 0.48998 0.17054 0.59992 0.0
C180 C 0.50001 0.14646 0.63421 0.0
C181 C 0.51219 0.19863 0.5392 0.0
C182 C 0.54598 0.20389 0.51233 0.0
C183 C 0.55752 0.18013 0.54789 0.0
C184 C 0.53394 0.15071 0.6085 0.0
Zn185 Zn 0.44136 0.16795 0.63068 0.0
O186 O 0.39466 0.16216 0.79783 0.0
C187 C 0.37929 0.09443 0.60465 0.0
O188 O 0.44516 0.16007 0.78514 0.0
H189 H 0.50379 0.21728 0.51125 0.0
H190 H 0.32391 0.13173 0.78817 0.0
H191 H 0.48186 0.12415 0.68178 0.0
O192 O 0.36106 0.11073 0.61875 0.0
O193 O 0.41354 0.11251 0.60646 0.0
H194 H 0.35715 0.21254 0.56245 0.0
O195 O 0.43651 0.17552 0.47627 0.0
O196 O 0.38559 0.17644 0.48837 0.0
O197 O 0.46878 0.22338 0.6587 0.0
O198 O 0.41952 0.22744 0.66887 0.0
C199 C 0.41079 0.17757 0.43441 0.0
H200 H 0.27605 0.14475 0.84411 0.0
H201 H 0.31013 0.22678 0.61217 0.0
H202 H 0.56302 0.22653 0.46391 0.0
H203 H 0.54195 0.1318 0.63736 0.0
H204 H 0.27733 0.19784 0.92977 0.0
H205 H 0.24505 0.20448 0.62463 0.0
H206 H 0.21084 0.23299 0.68688 0.0
H207 H 0.19487 0.26116 0.82573 0.0
H208 H 0.22709 0.25473 0.13118 0.0
H209 H 0.25631 0.22086 0.07106 0.0
C210 C 0.26214 0.20475 0.87709 0.0
C211 C 0.26402 0.19923 0.77249 0.0
C212 C 0.2428 0.22156 0.91335 0.0
C213 C 0.2445 0.20885 0.70532 0.0
C214 C 0.22488 0.22513 0.74089 0.0
C215 C 0.20751 0.25164 0.87967 0.0
C216 C 0.2089 0.26078 -0.01708 0.0
C217 C 0.22453 0.2324 0.84447 0.0
C218 C 0.22602 0.24862 0.05115 0.0
C219 C 0.24268 0.22914 0.01684 0.0
H220 H 0.05015 0.2987 0.15595 0.0
H221 H 0.05268 0.40052 0.10009 0.0
H222 H 0.98973 0.37382 0.1462 0.0
H223 H 0.93401 0.32261 0.20324 0.0
H224 H 0.92853 0.21965 0.25894 0.0
H225 H 0.99235 0.24578 0.2125 0.0
C226 C 0.03682 0.31491 0.15348 0.0
C227 C 0.0564 0.35164 0.12452 0.0
C228 C 1.00005 0.29931 0.18055 0.0
C229 C 0.0386 0.37224 0.12203 0.0
C230 C 1.00244 0.35703 0.14859 0.0
C231 C 0.94664 0.30573 0.20569 0.0
C232 C 0.92646 0.26924 0.23499 0.0
C233 C 0.98298 0.32075 0.17832 0.0
C234 C 0.94343 0.24789 0.23691 0.0
C235 C 0.97993 0.26282 0.21019 0.0
H236 H 0.78453 0.05319 0.57114 0.0
H237 H 0.75875 0.01476 0.26292 0.0
H238 H 0.73133 0.95211 0.32125 0.0
H239 H 0.7096 0.90824 0.46085 0.0
H240 H 0.73563 0.94669 0.7689 0.0
H241 H 0.76847 1.00927 0.70932 0.0
C242 C 0.77368 0.0312 0.51638 0.0
C243 C 0.77342 0.0388 0.41277 0.0
C244 C 0.75774 0.99515 0.55049 0.0
C245 C 0.75877 1.00976 0.34326 0.0
C246 C 0.74317 0.97388 0.37652 0.0
C247 C 0.7232 0.93022 0.51489 0.0
C248 C 0.71985 0.92271 0.61933 0.0
C249 C 0.74174 0.96623 0.48015 0.0
C250 C 0.7373 0.95168 0.6882 0.0
C251 C 0.75613 0.9875 0.65418 0.0
H252 H 0.67831 0.72765 0.82443 0.0
H253 H 0.57577 0.63062 0.77652 0.0
H254 H 0.60202 0.5932 0.82251 0.0
H255 H 0.65321 0.58721 0.87767 0.0
H256 H 0.75666 0.68272 0.92541 0.0
H257 H 0.7309 0.72129 0.87899 0.0
C258 C 0.66186 0.69834 0.82345 0.0
C259 C 0.62506 0.68215 0.79714 0.0
C260 C 0.67715 0.67656 0.85075 0.0
C261 C 0.6041 0.64403 0.79676 0.0
C262 C 0.61905 0.62244 0.82321 0.0
C263 C 0.67022 0.61647 0.87853 0.0
C264 C 0.70679 0.63197 0.9055 0.0
C265 C 0.6554 0.63836 0.85093 0.0
C266 C 0.72835 0.67 0.9053 0.0
C267 C 0.71365 0.69209 0.87846 0.0
H268 H 0.02898 0.76037 0.36486 0.0
H269 H 0.08516 0.78613 0.079 0.0
H270 H 0.02776 0.75844 -0.01153 0.0
H271 H 0.96152 0.7222 -0.0095 0.0
H272 H 0.90546 0.69481 0.27662 0.0
H273 H 0.96269 0.72795 0.36664 0.0
C274 C 0.02862 0.76012 0.28276 0.0
C275 C 0.0613 0.77516 0.22893 0.0
C276 C 0.99548 0.74367 0.23106 0.0
C277 C 0.06043 0.77511 0.12245 0.0
C278 C 0.02758 0.75897 0.07051 0.0
C279 C 0.96187 0.72369 0.07251 0.0
C280 C 0.92928 0.70594 0.12664 0.0
C281 C 0.99495 0.74246 0.12403 0.0
C282 C 0.9301 0.70853 0.23292 0.0
C283 C 0.96286 0.72725 0.28462 0.0
H284 H 0.30952 0.0478 0.54382 0.0
H285 H 0.41065 0.0523 0.61608 0.0
H286 H 0.38578 0.98901 0.56885 0.0
H287 H 0.33632 0.93261 0.50369 0.0
H288 H 0.23452 0.92621 0.43085 0.0
H289 H 0.25867 0.98975 0.48091 0.0
C290 C 0.32591 0.03477 0.55008 0.0
C291 C 0.36195 0.05495 0.58322 0.0
C292 C 0.3115 0.99803 0.52174 0.0
C293 C 0.3829 0.03764 0.59032 0.0
C294 C 0.36875 1.00135 0.56317 0.0
C295 C 0.31937 0.94506 0.49826 0.0
C296 C 0.28374 0.92466 0.46295 0.0
C297 C 0.33327 0.98139 0.52782 0.0
C298 C 0.26214 0.94129 0.45743 0.0
C299 C 0.2759 0.97764 0.4863 0.0
H300 H 0.17507 0.45511 0.71962 0.0
H301 H 0.13768 0.3405 0.74844 0.0
H302 H 0.14499 0.33587 0.56666 0.0
H303 H 0.16279 0.36458 0.4006 0.0
H304 H 0.19995 0.47912 0.37149 0.0
H305 H 0.19281 0.48381 0.55338 0.0
C306 C 0.16794 0.42904 0.6857 0.0
C307 C 0.15561 0.39817 0.74659 0.0
C308 C 0.17296 0.42673 0.58189 0.0
C309 C 0.14708 0.36462 0.70246 0.0
C310 C 0.1515 0.36199 0.5989 0.0
C311 C 0.16988 0.39065 0.43444 0.0
C312 C 0.1821 0.42148 0.37345 0.0
C313 C 0.16487 0.39296 0.53823 0.0
C314 C 0.19063 0.45503 0.41754 0.0
C315 C 0.1863 0.45769 0.52116 0.0
H316 H 0.81891 0.26826 -0.03678 0.0
H317 H 0.78918 0.15494 -0.02405 0.0
H318 H 0.79567 0.15392 0.79234 0.0
H319 H 0.81059 0.18534 0.63041 0.0
H320 H 0.84037 0.29867 0.61737 0.0
H321 H 0.83381 0.29971 0.801 0.0
C322 C 0.81348 0.24319 0.9259 0.0
C323 C 0.80344 0.21165 -0.01712 0.0
C324 C 0.81787 0.24298 0.82114 0.0
C325 C 0.7968 0.17951 0.93353 0.0
C326 C 0.80072 0.17898 0.82884 0.0
C327 C 0.81598 0.21042 0.66759 0.0
C328 C 0.82608 0.24195 0.61051 0.0
C329 C 0.81158 0.21064 0.7723 0.0
C330 C 0.83273 0.2741 0.65982 0.0
C331 C 0.82876 0.27465 0.76453 0.0
H332 H 0.60859 0.78002 0.40559 0.0
H333 H 0.51873 0.67075 0.41999 0.0
H334 H 0.51139 0.67036 0.2365 0.0
H335 H 0.53007 0.70126 0.07394 0.0
H336 H 0.61997 0.81051 0.05973 0.0
H337 H 0.62719 0.81094 0.24325 0.0
C338 C 0.58758 0.75594 0.36868 0.0
C339 C 0.56431 0.72538 0.42604 0.0
C340 C 0.58316 0.75614 0.26404 0.0
C341 C 0.53707 0.69454 0.37723 0.0
C342 C 0.53272 0.69438 0.27261 0.0
C343 C 0.55104 0.72535 0.11095 0.0
C344 C 0.57441 0.75587 0.05363 0.0
C345 C 0.55542 0.72516 0.21564 0.0
C346 C 0.6016 0.78673 0.10249 0.0
C347 C 0.60587 0.78691 0.20711 0.0
H348 H 0.71211 0.52558 0.62299 0.0
H349 H 0.8216 0.61464 0.63623 0.0
H350 H 0.8221 0.62023 0.45196 0.0
H351 H 0.79117 0.60036 0.28967 0.0
H352 H 0.68168 0.51126 0.27671 0.0
H353 H 0.68126 0.50564 0.46087 0.0
C354 C 0.73623 0.54616 0.58582 0.0
C355 C 0.76683 0.56971 0.64297 0.0
C356 C 0.73612 0.54948 0.48087 0.0
C357 C 0.79779 0.59616 0.59366 0.0
C358 C 0.798 0.59947 0.48863 0.0
C359 C 0.76705 0.57981 0.32693 0.0
C360 C 0.73641 0.55628 0.26987 0.0
C361 C 0.76721 0.57645 0.4319 0.0
C362 C 0.70552 0.52974 0.31921 0.0
C363 C 0.70534 0.52642 0.42419 0.0
H364 H 0.27933 0.8139 0.73136 0.0
H365 H 0.16855 0.7909 0.72068 0.0
H366 H 0.16861 0.79747 0.90466 0.0
H367 H 0.20031 0.81058 0.06628 0.0
H368 H 0.31112 0.83366 0.07709 0.0
H369 H 0.31105 0.827 0.89312 0.0
C370 C 0.25502 0.81 0.76911 0.0
C371 C 0.22389 0.8018 0.71256 0.0
C372 C 0.25547 0.81441 0.87408 0.0
C373 C 0.19277 0.79707 0.76265 0.0
C374 C 0.19287 0.80104 0.86758 0.0
C375 C 0.22462 0.81445 0.02859 0.0
C376 C 0.25576 0.82272 0.08518 0.0
C377 C 0.22418 0.81003 0.92366 0.0
C378 C 0.2869 0.82747 0.03511 0.0
C379 C 0.28678 0.82344 0.93018 0.0
H380 H 0.45535 0.17008 0.30322 0.0
H381 H 0.36113 0.18359 0.31706 0.0
H382 H 0.35499 0.17738 0.13311 0.0
H383 H 0.37583 0.16729 -0.02937 0.0
H384 H 0.47003 0.15375 0.95663 0.0
H385 H 0.47626 0.16008 0.14057 0.0
C386 C 0.43359 0.17198 0.26612 0.0
C387 C 0.40874 0.17736 0.32343 0.0
C388 C 0.42992 0.16783 0.1612 0.0
C389 C 0.38064 0.17956 0.27436 0.0
C390 C 0.37701 0.17581 0.16948 0.0
C391 C 0.3976 0.16542 0.00765 0.0
C392 C 0.42239 0.15994 0.95031 0.0
C393 C 0.40131 0.16962 0.11254 0.0
C394 C 0.45054 0.1578 -0.00065 0.0
C395 C 0.45422 0.16163 0.10422 0.0
H396 H 0.13265 0.57713 0.19385 0.0
H397 H 0.24271 0.60796 0.11751 0.0
H398 H 0.26345 0.66788 0.19059 0.0
H399 H 0.25089 0.71138 0.27787 0.0
H400 H 0.14118 0.68243 0.35143 0.0
H401 H 0.11987 0.62174 0.27969 0.0
C402 C 0.16115 0.59701 0.19317 0.0
C403 C 0.18601 0.58803 0.1494 0.0
C404 C 0.17305 0.63161 0.23598 0.0
C405 C 0.22285 0.61424 0.14866 0.0
C406 C 0.23483 0.64846 0.19149 0.0
C407 C 0.22231 0.69173 0.27922 0.0
C408 C 0.1977 0.70132 0.32103 0.0
C409 C 0.21024 0.65735 0.23581 0.0
C410 C 0.16072 0.67567 0.32033 0.0
C411 C 0.14852 0.64102 0.27896 0.0
H412 H 0.71965 0.24336 0.42199 0.0
H413 H 0.6825 0.13205 0.3368 0.0
H414 H 0.6219 0.11501 0.40025 0.0
H415 H 0.57908 0.13284 0.47551 0.0
H416 H 0.61906 0.24444 0.56412 0.0
H417 H 0.67912 0.26018 0.50467 0.0
C418 C 0.6983 0.21533 0.41653 0.0
C419 C 0.70539 0.18911 0.37317 0.0
C420 C 0.66408 0.20578 0.4545 0.0
C421 C 0.6776 0.15281 0.36903 0.0
C422 C 0.64303 0.14308 0.40554 0.0
C423 C 0.60113 0.16042 0.48298 0.0
C424 C 0.59454 0.18755 0.52292 0.0
C425 C 0.63589 0.16942 0.44818 0.0
C426 C 0.62332 0.22322 0.5321 0.0
C427 C 0.65767 0.23227 0.49816 0.0
H428 H 0.26415 0.50999 0.89983 0.0
H429 H 0.3013 0.4431 0.04389 0.0
H430 H 0.36313 0.48449 -0.01464 0.0
H431 H 0.40712 0.54271 0.90256 0.0
H432 H 0.36728 0.6077 0.76015 0.0
H433 H 0.30574 0.56372 0.80771 0.0
C434 C 0.28573 0.50438 0.91881 0.0
C435 C 0.2784 0.47401 -0.02209 0.0
C436 C 0.32066 0.52793 0.88469 0.0
C437 C 0.30644 0.46657 -0.00071 0.0
C438 C 0.34171 0.49022 -0.03416 0.0
C439 C 0.38477 0.5467 0.88063 0.0
C440 C 0.39157 0.57846 0.82876 0.0
C441 C 0.34924 0.52136 0.90965 0.0
C442 C 0.36257 0.58358 0.80087 0.0
C443 C 0.32746 0.55854 0.82821 0.0
H444 H 0.80008 0.38046 0.02463 0.0
H445 H 0.853 0.43532 0.30133 0.0
H446 H 0.84813 0.4883 0.25073 0.0
H447 H 0.82283 0.51654 0.13561 0.0
H448 H 0.76384 0.4576 0.87051 0.0
H449 H 0.77665 0.40865 0.90917 0.0
C450 C 0.81036 0.40381 0.07465 0.0
C451 C 0.82634 0.40341 0.1677 0.0
C452 C 0.8062 0.43354 0.04704 0.0
C453 C 0.84064 0.43468 0.2292 0.0
C454 C 0.83761 0.46496 0.20063 0.0
C455 C 0.81351 0.49326 0.08554 0.0
C456 C 0.7927 0.49067 -0.00011 0.0
C457 C 0.81969 0.46439 0.11075 0.0
C458 C 0.78003 0.46012 0.93653 0.0
C459 C 0.78724 0.43212 -0.04117 0.0
H460 H 0.44071 0.85304 0.57711 0.0
H461 H 0.37664 0.74909 0.43204 0.0
H462 H 0.41964 0.73006 0.48418 0.0
H463 H 0.47214 0.74061 0.58158 0.0
H464 H 0.53876 0.84405 0.72557 0.0
H465 H 0.49821 0.86585 0.6634 0.0
C466 C 0.43675 0.82658 0.55547 0.0
C467 C 0.40545 0.8023 0.50167 0.0
C468 C 0.46161 0.81557 0.58687 0.0
C469 C 0.4004 0.76803 0.47415 0.0
C470 C 0.42487 0.75709 0.50421 0.0
C471 C 0.47783 0.76797 0.59968 0.0
C472 C 0.50783 0.79045 0.65997 0.0
C473 C 0.45493 0.78021 0.56278 0.0
C474 C 0.51551 0.82615 0.68018 0.0
C475 C 0.49236 0.83854 0.64458 0.0
H476 H 0.54754 0.40931 0.78314 0.0
H477 H 0.60967 0.36767 0.93243 0.0
H478 H 0.56443 0.30584 0.88813 0.0
H479 H 0.51079 0.26444 0.79508 0.0
H480 H 0.44663 0.30318 0.64396 0.0
H481 H 0.48888 0.36548 0.70112 0.0
C482 C 0.55056 0.3865 0.8074 0.0
C483 C 0.58182 0.39276 0.86042 0.0
C484 C 0.5245 0.3508 0.78014 0.0
C485 C 0.58581 0.36326 0.89126 0.0
C486 C 0.56009 0.32801 0.86565 0.0
C487 C 0.50596 0.28651 0.77456 0.0
C488 C 0.47623 0.27956 0.71359 0.0
C489 C 0.52997 0.32162 0.80786 0.0
C490 C 0.46964 0.3081 0.69008 0.0
C491 C 0.49379 0.34361 0.72265 0.0
loop_
_geom_bond_atom_site_label_1
_geom_bond_atom_site_label_2
_geom_bond_distance
_geom_bond_site_symmetry_2
_ccdc_geom_bond_type
C0 O16 1.251 . S
C0 O18 1.254 . S
N1 C2 1.333 1_554 S
N1 C6 1.307 . S
N1 Zn7 2.020 . S
C2 N1 1.333 1_556 S
C2 C3 1.379 . S
C2 H20 0.952 . S
C3 C2 1.379 . S
C3 C4 1.390 1_556 S
C3 H30 0.949 . S
C4 C3 1.390 1_554 S
C4 C5 1.357 . S
C5 C4 1.357 . S
C5 C6 1.370 . S
C5 H31 0.950 . S
C6 N1 1.307 . S
C6 C5 1.370 . S
C6 H24 0.948 . S
Zn7 N1 2.020 . S
Zn7 O16 2.039 1_554 S
Zn7 O22 2.034 . S
Zn7 O26 2.025 . S
Zn7 O28 2.024 . S
C8 O27 1.246 . S
C8 O28 1.249 . S
N9 C10 1.307 . S
N9 C11 1.333 . S
N9 Zn15 2.020 . S
C10 N9 1.307 . S
C10 C14 1.370 . S
C10 H21 0.948 . S
C11 N9 1.333 . S
C11 C12 1.379 . S
C11 H19 0.952 . S
C12 C11 1.379 . S
C12 C13 1.390 . S
C12 H32 0.949 . S
C13 C12 1.390 . S
C13 C14 1.357 . S
C14 C10 1.370 . S
C14 C13 1.357 . S
C14 H33 0.950 . S
Zn15 N9 2.020 . S
Zn15 O18 2.025 1_554 S
Zn15 O23 2.024 . S
Zn15 O25 2.039 . S
Zn15 O27 2.034 . S
O16 C0 1.251 . S
O16 Zn7 2.039 1_556 S
C17 O22 1.246 . S
C17 O23 1.249 . S
O18 C0 1.254 . S
O18 Zn15 2.025 1_556 S
H19 C11 0.952 . S
H20 C2 0.952 . S
H21 C10 0.948 . S
O22 Zn7 2.034 . S
O22 C17 1.246 . S
O23 Zn15 2.024 . S
O23 C17 1.249 . S
H24 C6 0.948 . S
O25 Zn15 2.039 . S
O25 C29 1.251 . S
O26 Zn7 2.025 . S
O26 C29 1.254 . S
O27 C8 1.246 . S
O27 Zn15 2.034 . S
O28 Zn7 2.024 . S
O28 C8 1.249 . S
C29 O25 1.251 . S
C29 O26 1.254 . S
H30 C3 0.949 . S
H31 C5 0.950 . S
H32 C12 0.949 . S
H33 C14 0.950 . S
C34 O50 1.251 . S
C34 O52 1.254 . S
N35 C36 1.333 . S
N35 C40 1.307 . S
N35 Zn41 2.020 . S
C36 N35 1.333 . S
C36 C37 1.379 . S
C36 H54 0.952 . S
C37 C36 1.379 . S
C37 C38 1.390 . S
C37 H64 0.949 . S
C38 C37 1.390 . S
C38 C39 1.357 . S
C39 C38 1.357 . S
C39 C40 1.370 . S
C39 H65 0.950 . S
C40 N35 1.307 . S
C40 C39 1.370 . S
C40 H58 0.948 . S
Zn41 N35 2.020 . S
Zn41 O50 2.039 . S
Zn41 O56 2.034 . S
Zn41 O60 2.025 . S
Zn41 O62 2.024 . S
C42 O61 1.246 . S
C42 O62 1.249 . S
N43 C44 1.307 . S
N43 C45 1.333 . S
N43 Zn49 2.020 . S
C44 N43 1.307 . S
C44 C48 1.370 . S
C44 H55 0.948 . S
C45 N43 1.333 . S
C45 C46 1.379 . S
C45 H53 0.952 . S
C46 C45 1.379 . S
C46 C47 1.390 . S
C46 H66 0.949 . S
C47 C46 1.390 . S
C47 C48 1.357 . S
C48 C44 1.370 . S
C48 C47 1.357 . S
C48 H67 0.950 . S
Zn49 N43 2.020 . S
Zn49 O52 2.025 . S
Zn49 O57 2.024 . S
Zn49 O59 2.039 . S
Zn49 O61 2.034 . S
O50 C34 1.251 . S
O50 Zn41 2.039 . S
C51 O56 1.246 . S
C51 O57 1.249 . S
O52 C34 1.254 . S
O52 Zn49 2.025 . S
H53 C45 0.952 . S
H54 C36 0.952 . S
H55 C44 0.948 . S
O56 Zn41 2.034 . S
O56 C51 1.246 . S
O57 Zn49 2.024 . S
O57 C51 1.249 . S
H58 C40 0.948 . S
O59 Zn49 2.039 . S
O59 C63 1.251 . S
O60 Zn41 2.025 . S
O60 C63 1.254 . S
O61 C42 1.246 . S
O61 Zn49 2.034 . S
O62 Zn41 2.024 . S
O62 C42 1.249 . S
C63 O59 1.251 . S
C63 O60 1.254 . S
H64 C37 0.949 . S
H65 C39 0.950 . S
H66 C46 0.949 . S
H67 C48 0.950 . S
C68 O84 1.251 . S
C68 O86 1.254 . S
N69 C70 1.333 . S
N69 C74 1.307 . S
N69 Zn75 2.020 . S
C70 N69 1.333 . S
C70 C71 1.379 . S
C70 H88 0.952 . S
C71 C70 1.379 . S
C71 C72 1.390 . S
C71 H98 0.949 . S
C72 C71 1.390 . S
C72 C73 1.357 . S
C73 C72 1.357 . S
C73 C74 1.370 . S
C73 H99 0.950 . S
C74 N69 1.307 . S
C74 C73 1.370 . S
C74 H92 0.948 . S
Zn75 N69 2.020 . S
Zn75 O84 2.039 . S
Zn75 O90 2.034 . S
Zn75 O94 2.025 . S
Zn75 O96 2.024 . S
C76 O95 1.246 . S
C76 O96 1.249 . S
N77 C78 1.307 . S
N77 C79 1.333 . S
N77 Zn83 2.020 . S
C78 N77 1.307 . S
C78 C82 1.370 . S
C78 H89 0.948 . S
C79 N77 1.333 . S
C79 C80 1.379 . S
C79 H87 0.952 . S
C80 C79 1.379 . S
C80 C81 1.390 . S
C80 H100 0.949 . S
C81 C80 1.390 . S
C81 C82 1.357 . S
C82 C78 1.370 . S
C82 C81 1.357 . S
C82 H101 0.950 . S
Zn83 N77 2.020 . S
Zn83 O86 2.025 . S
Zn83 O91 2.024 . S
Zn83 O93 2.039 . S
Zn83 O95 2.034 . S
O84 C68 1.251 . S
O84 Zn75 2.039 . S
C85 O90 1.246 . S
C85 O91 1.249 . S
O86 C68 1.254 . S
O86 Zn83 2.025 . S
H87 C79 0.952 . S
H88 C70 0.952 . S
H89 C78 0.948 . S
O90 Zn75 2.034 . S
O90 C85 1.246 . S
O91 Zn83 2.024 . S
O91 C85 1.249 . S
H92 C74 0.948 . S
O93 Zn83 2.039 . S
O93 C97 1.251 . S
O94 Zn75 2.025 . S
O94 C97 1.254 . S
O95 C76 1.246 . S
O95 Zn83 2.034 . S
O96 Zn75 2.024 . S
O96 C76 1.249 . S
C97 O93 1.251 . S
C97 O94 1.254 . S
H98 C71 0.949 . S
H99 C73 0.950 . S
H100 C80 0.949 . S
H101 C82 0.950 . S
C102 O118 1.251 . S
C102 O120 1.254 . S
N103 C104 1.333 . S
N103 C108 1.307 1_554 S
N103 Zn109 2.020 . S
C104 N103 1.333 . S
C104 C105 1.379 . S
C104 H122 0.952 . S
C105 C104 1.379 . S
C105 C106 1.390 . S
C105 H132 0.949 . S
C106 C105 1.390 . S
C106 C107 1.357 1_554 S
C107 C106 1.357 1_556 S
C107 C108 1.370 . S
C107 H133 0.950 . S
C108 N103 1.307 1_556 S
C108 C107 1.370 . S
C108 H126 0.948 . S
Zn109 N103 2.020 . S
Zn109 O118 2.039 . S
Zn109 O124 2.034 1_554 S
Zn109 O128 2.025 1_554 S
Zn109 O130 2.024 . S
C110 O129 1.246 . S
C110 O130 1.249 . S
N111 C112 1.307 1_556 S
N111 C113 1.333 . S
N111 Zn117 2.020 . S
C112 N111 1.307 1_554 S
C112 C116 1.370 . S
C112 H123 0.948 . S
C113 N111 1.333 . S
C113 C114 1.379 . S
C113 H121 0.952 . S
C114 C113 1.379 . S
C114 C115 1.390 . S
C114 H134 0.949 . S
C115 C114 1.390 . S
C115 C116 1.357 1_556 S
C116 C112 1.370 . S
C116 C115 1.357 1_554 S
C116 H135 0.950 . S
Zn117 N111 2.020 . S
Zn117 O120 2.025 1_556 S
Zn117 O125 2.024 . S
Zn117 O127 2.039 . S
Zn117 O129 2.034 1_556 S
O118 C102 1.251 . S
O118 Zn109 2.039 . S
C119 O124 1.246 . S
C119 O125 1.249 . S
O120 C102 1.254 . S
O120 Zn117 2.025 1_554 S
H121 C113 0.952 . S
H122 C104 0.952 . S
H123 C112 0.948 . S
O124 Zn109 2.034 1_556 S
O124 C119 1.246 . S
O125 Zn117 2.024 . S
O125 C119 1.249 . S
H126 C108 0.948 . S
O127 Zn117 2.039 . S
O127 C131 1.251 . S
O128 Zn109 2.025 1_556 S
O128 C131 1.254 . S
O129 C110 1.246 . S
O129 Zn117 2.034 1_554 S
O130 Zn109 2.024 . S
O130 C110 1.249 . S
C131 O127 1.251 . S
C131 O128 1.254 . S
H132 C105 0.949 . S
H133 C107 0.950 . S
H134 C114 0.949 . S
H135 C116 0.950 . S
C136 O152 1.251 . S
C136 O154 1.254 . S
N137 C138 1.333 . S
N137 C142 1.307 . S
N137 Zn143 2.020 . S
C138 N137 1.333 . S
C138 C139 1.379 . S
C138 H156 0.952 . S
C139 C138 1.379 . S
C139 C140 1.390 . S
C139 H166 0.949 . S
C140 C139 1.390 . S
C140 C141 1.357 . S
C141 C140 1.357 . S
C141 C142 1.370 . S
C141 H167 0.950 . S
C142 N137 1.307 . S
C142 C141 1.370 . S
C142 H160 0.948 . S
Zn143 N137 2.020 . S
Zn143 O152 2.039 . S
Zn143 O158 2.034 . S
Zn143 O162 2.025 . S
Zn143 O164 2.024 . S
C144 O163 1.246 . S
C144 O164 1.249 . S
N145 C146 1.307 . S
N145 C147 1.333 . S
N145 Zn151 2.020 . S
C146 N145 1.307 . S
C146 C150 1.370 . S
C146 H157 0.948 . S
C147 N145 1.333 . S
C147 C148 1.379 . S
C147 H155 0.952 . S
C148 C147 1.379 . S
C148 C149 1.390 . S
C148 H168 0.949 . S
C149 C148 1.390 . S
C149 C150 1.357 . S
C150 C146 1.370 . S
C150 C149 1.357 . S
C150 H169 0.950 . S
Zn151 N145 2.020 . S
Zn151 O154 2.025 . S
Zn151 O159 2.024 . S
Zn151 O161 2.039 . S
Zn151 O163 2.034 . S
O152 C136 1.251 . S
O152 Zn143 2.039 . S
C153 O158 1.246 . S
C153 O159 1.249 . S
O154 C136 1.254 . S
O154 Zn151 2.025 . S
H155 C147 0.952 . S
H156 C138 0.952 . S
H157 C146 0.948 . S
O158 Zn143 2.034 . S
O158 C153 1.246 . S
O159 Zn151 2.024 . S
O159 C153 1.249 . S
H160 C142 0.948 . S
O161 Zn151 2.039 . S
O161 C165 1.251 . S
O162 Zn143 2.025 . S
O162 C165 1.254 . S
O163 C144 1.246 . S
O163 Zn151 2.034 . S
O164 Zn143 2.024 . S
O164 C144 1.249 . S
C165 O161 1.251 . S
C165 O162 1.254 . S
H166 C139 0.949 . S
H167 C141 0.950 . S
H168 C148 0.949 . S
H169 C150 0.950 . S
C170 O186 1.251 . S
C170 O188 1.254 . S
N171 C172 1.333 . S
N171 C176 1.307 . S
N171 Zn177 2.020 . S
C172 N171 1.333 . S
C172 C173 1.379 . S
C172 H190 0.952 . S
C173 C172 1.379 . S
C173 C174 1.390 . S
C173 H200 0.949 . S
C174 C173 1.390 . S
C174 C175 1.357 . S
C175 C174 1.357 . S
C175 C176 1.370 . S
C175 H201 0.950 . S
C176 N171 1.307 . S
C176 C175 1.370 . S
C176 H194 0.948 . S
Zn177 N171 2.020 . S
Zn177 O186 2.039 . S
Zn177 O192 2.034 . S
Zn177 O196 2.025 . S
Zn177 O198 2.024 . S
C178 O197 1.246 . S
C178 O198 1.249 . S
N179 C180 1.307 . S
N179 C181 1.333 . S
N179 Zn185 2.020 . S
C180 N179 1.307 . S
C180 C184 1.370 . S
C180 H191 0.948 . S
C181 N179 1.333 . S
C181 C182 1.379 . S
C181 H189 0.952 . S
C182 C181 1.379 . S
C182 C183 1.390 . S
C182 H202 0.949 . S
C183 C182 1.390 . S
C183 C184 1.357 . S
C184 C180 1.370 . S
C184 C183 1.357 . S
C184 H203 0.950 . S
Zn185 N179 2.020 . S
Zn185 O188 2.025 . S
Zn185 O193 2.024 . S
Zn185 O195 2.039 . S
Zn185 O197 2.034 . S
O186 C170 1.251 . S
O186 Zn177 2.039 . S
C187 O192 1.246 . S
C187 O193 1.249 . S
O188 C170 1.254 . S
O188 Zn185 2.025 . S
H189 C181 0.952 . S
H190 C172 0.952 . S
H191 C180 0.948 . S
O192 Zn177 2.034 . S
O192 C187 1.246 . S
O193 Zn185 2.024 . S
O193 C187 1.249 . S
H194 C176 0.948 . S
O195 Zn185 2.039 . S
O195 C199 1.251 . S
O196 Zn177 2.025 . S
O196 C199 1.254 . S
O197 C178 1.246 . S
O197 Zn185 2.034 . S
O198 Zn177 2.024 . S
O198 C178 1.249 . S
C199 O195 1.251 . S
C199 O196 1.254 . S
H200 C173 0.949 . S
H201 C175 0.950 . S
H202 C182 0.949 . S
H203 C184 0.950 . S
H204 C210 0.930 . S
H205 C213 0.930 . S
H206 C214 0.930 . S
H207 C215 0.930 . S
H208 C218 0.930 . S
H209 C219 0.930 . S
C210 H204 0.930 . S
C210 C211 1.355 . S
C210 C212 1.415 . S
C211 C210 1.355 . S
C211 C213 1.419 . S
C212 C210 1.415 . S
C212 C217 1.425 . S
C212 C219 1.409 1_556 S
C213 H205 0.930 . S
C213 C211 1.419 . S
C213 C214 1.362 . S
C214 H206 0.930 . S
C214 C213 1.362 . S
C214 C217 1.409 . S
C215 H207 0.930 . S
C215 C216 1.355 . S
C215 C217 1.415 . S
C216 C215 1.355 . S
C216 C218 1.419 1_556 S
C217 C212 1.425 . S
C217 C214 1.409 . S
C217 C215 1.415 . S
C218 H208 0.930 . S
C218 C216 1.419 1_554 S
C218 C219 1.362 . S
C219 H209 0.930 . S
C219 C212 1.409 1_554 S
C219 C218 1.362 . S
H220 C226 0.930 . S
H221 C229 0.930 . S
H222 C230 0.930 . S
H223 C231 0.930 . S
H224 C234 0.930 . S
H225 C235 0.930 . S
C226 H220 0.930 . S
C226 C227 1.355 . S
C226 C228 1.415 1_455 S
C227 C226 1.355 . S
C227 C229 1.419 . S
C228 C226 1.415 1_655 S
C228 C233 1.425 . S
C228 C235 1.409 . S
C229 H221 0.930 . S
C229 C227 1.419 . S
C229 C230 1.362 1_455 S
C230 H222 0.930 . S
C230 C229 1.362 1_655 S
C230 C233 1.409 . S
C231 H223 0.930 . S
C231 C232 1.355 . S
C231 C233 1.415 . S
C232 C231 1.355 . S
C232 C234 1.419 . S
C233 C228 1.425 . S
C233 C230 1.409 . S
C233 C231 1.415 . S
C234 H224 0.930 . S
C234 C232 1.419 . S
C234 C235 1.362 . S
C235 H225 0.930 . S
C235 C228 1.409 . S
C235 C234 1.362 . S
H236 C242 0.930 . S
H237 C245 0.930 . S
H238 C246 0.930 . S
H239 C247 0.930 . S
H240 C250 0.930 . S
H241 C251 0.930 . S
C242 H236 0.930 . S
C242 C243 1.355 . S
C242 C244 1.415 1_545 S
C243 C242 1.355 . S
C243 C245 1.419 . S
C244 C242 1.415 1_565 S
C244 C249 1.425 . S
C244 C251 1.409 . S
C245 H237 0.930 . S
C245 C243 1.419 . S
C245 C246 1.362 1_545 S
C246 H238 0.930 . S
C246 C245 1.362 1_565 S
C246 C249 1.409 . S
C247 H239 0.930 . S
C247 C248 1.355 . S
C247 C249 1.415 . S
C248 C247 1.355 . S
C248 C250 1.419 . S
C249 C244 1.425 . S
C249 C246 1.409 . S
C249 C247 1.415 . S
C250 H240 0.930 . S
C250 C248 1.419 . S
C250 C251 1.362 . S
C251 H241 0.930 . S
C251 C244 1.409 . S
C251 C250 1.362 . S
H252 C258 0.930 . S
H253 C261 0.930 . S
H254 C262 0.930 1_554 S
H255 C263 0.930 1_554 S
H256 C266 0.930 . S
H257 C267 0.930 . S
C258 H252 0.930 . S
C258 C259 1.355 . S
C258 C260 1.415 . S
C259 C258 1.355 . S
C259 C261 1.419 . S
C260 C258 1.415 . S
C260 C265 1.425 . S
C260 C267 1.409 . S
C261 H253 0.930 . S
C261 C259 1.419 . S
C261 C262 1.362 . S
C262 H254 0.930 1_556 S
C262 C261 1.362 . S
C262 C265 1.409 . S
C263 H255 0.930 1_556 S
C263 C264 1.355 . S
C263 C265 1.415 . S
C264 C263 1.355 . S
C264 C266 1.419 . S
C265 C260 1.425 . S
C265 C262 1.409 . S
C265 C263 1.415 . S
C266 H256 0.930 . S
C266 C264 1.419 . S
C266 C267 1.362 . S
C267 H257 0.930 . S
C267 C260 1.409 . S
C267 C266 1.362 . S
H268 C274 0.930 . S
H269 C277 0.930 . S
H270 C278 0.930 . S
H271 C279 0.930 . S
H272 C282 0.930 . S
H273 C283 0.930 . S
C274 H268 0.930 . S
C274 C275 1.355 . S
C274 C276 1.415 1_455 S
C275 C274 1.355 . S
C275 C277 1.419 . S
C276 C274 1.415 1_655 S
C276 C281 1.425 . S
C276 C283 1.409 . S
C277 H269 0.930 . S
C277 C275 1.419 . S
C277 C278 1.362 . S
C278 H270 0.930 . S
C278 C277 1.362 . S
C278 C281 1.409 1_455 S
C279 H271 0.930 . S
C279 C280 1.355 . S
C279 C281 1.415 . S
C280 C279 1.355 . S
C280 C282 1.419 . S
C281 C276 1.425 . S
C281 C278 1.409 1_655 S
C281 C279 1.415 . S
C282 H272 0.930 . S
C282 C280 1.419 . S
C282 C283 1.362 . S
C283 H273 0.930 . S
C283 C276 1.409 . S
C283 C282 1.362 . S
H284 C290 0.930 . S
H285 C293 0.930 . S
H286 C294 0.930 . S
H287 C295 0.930 . S
H288 C298 0.930 . S
H289 C299 0.930 . S
C290 H284 0.930 . S
C290 C291 1.355 . S
C290 C292 1.415 1_545 S
C291 C290 1.355 . S
C291 C293 1.419 . S
C292 C290 1.415 1_565 S
C292 C297 1.425 . S
C292 C299 1.409 . S
C293 H285 0.930 . S
C293 C291 1.419 . S
C293 C294 1.362 1_545 S
C294 H286 0.930 . S
C294 C293 1.362 1_565 S
C294 C297 1.409 . S
C295 H287 0.930 . S
C295 C296 1.355 . S
C295 C297 1.415 . S
C296 C295 1.355 . S
C296 C298 1.419 . S
C297 C292 1.425 . S
C297 C294 1.409 . S
C297 C295 1.415 . S
C298 H288 0.930 . S
C298 C296 1.419 . S
C298 C299 1.362 . S
C299 H289 0.930 . S
C299 C292 1.409 . S
C299 C298 1.362 . S
H300 C306 0.930 . S
H301 C309 0.930 . S
H302 C310 0.930 . S
H303 C311 0.930 . S
H304 C314 0.930 . S
H305 C315 0.930 . S
C306 H300 0.930 . S
C306 C307 1.355 . S
C306 C308 1.415 . S
C307 C306 1.355 . S
C307 C309 1.419 . S
C308 C306 1.415 . S
C308 C313 1.425 . S
C308 C315 1.409 . S
C309 H301 0.930 . S
C309 C307 1.419 . S
C309 C310 1.362 . S
C310 H302 0.930 . S
C310 C309 1.362 . S
C310 C313 1.409 . S
C311 H303 0.930 . S
C311 C312 1.355 . S
C311 C313 1.415 . S
C312 C311 1.355 . S
C312 C314 1.419 . S
C313 C308 1.425 . S
C313 C310 1.409 . S
C313 C311 1.415 . S
C314 H304 0.930 . S
C314 C312 1.419 . S
C314 C315 1.362 . S
C315 H305 0.930 . S
C315 C308 1.409 . S
C315 C314 1.362 . S
H316 C322 0.930 1_554 S
H317 C325 0.930 1_554 S
H318 C326 0.930 . S
H319 C327 0.930 . S
H320 C330 0.930 . S
H321 C331 0.930 . S
C322 H316 0.930 1_556 S
C322 C323 1.355 1_556 S
C322 C324 1.415 . S
C323 C322 1.355 1_554 S
C323 C325 1.419 1_554 S
C324 C322 1.415 . S
C324 C329 1.425 . S
C324 C331 1.409 . S
C325 H317 0.930 1_556 S
C325 C323 1.419 1_556 S
C325 C326 1.362 . S
C326 H318 0.930 . S
C326 C325 1.362 . S
C326 C329 1.409 . S
C327 H319 0.930 . S
C327 C328 1.355 . S
C327 C329 1.415 . S
C328 C327 1.355 . S
C328 C330 1.419 . S
C329 C324 1.425 . S
C329 C326 1.409 . S
C329 C327 1.415 . S
C330 H320 0.930 . S
C330 C328 1.419 . S
C330 C331 1.362 . S
C331 H321 0.930 . S
C331 C324 1.409 . S
C331 C330 1.362 . S
H332 C338 0.930 . S
H333 C341 0.930 . S
H334 C342 0.930 . S
H335 C343 0.930 . S
H336 C346 0.930 . S
H337 C347 0.930 . S
C338 H332 0.930 . S
C338 C339 1.355 . S
C338 C340 1.415 . S
C339 C338 1.355 . S
C339 C341 1.419 . S
C340 C338 1.415 . S
C340 C345 1.425 . S
C340 C347 1.409 . S
C341 H333 0.930 . S
C341 C339 1.419 . S
C341 C342 1.362 . S
C342 H334 0.930 . S
C342 C341 1.362 . S
C342 C345 1.409 . S
C343 H335 0.930 . S
C343 C344 1.355 . S
C343 C345 1.415 . S
C344 C343 1.355 . S
C344 C346 1.419 . S
C345 C340 1.425 . S
C345 C342 1.409 . S
C345 C343 1.415 . S
C346 H336 0.930 . S
C346 C344 1.419 . S
C346 C347 1.362 . S
C347 H337 0.930 . S
C347 C340 1.409 . S
C347 C346 1.362 . S
H348 C354 0.930 . S
H349 C357 0.930 . S
H350 C358 0.930 . S
H351 C359 0.930 . S
H352 C362 0.930 . S
H353 C363 0.930 . S
C354 H348 0.930 . S
C354 C355 1.355 . S
C354 C356 1.415 . S
C355 C354 1.355 . S
C355 C357 1.419 . S
C356 C354 1.415 . S
C356 C361 1.425 . S
C356 C363 1.409 . S
C357 H349 0.930 . S
C357 C355 1.419 . S
C357 C358 1.362 . S
C358 H350 0.930 . S
C358 C357 1.362 . S
C358 C361 1.409 . S
C359 H351 0.930 . S
C359 C360 1.355 . S
C359 C361 1.415 . S
C360 C359 1.355 . S
C360 C362 1.419 . S
C361 C356 1.425 . S
C361 C358 1.409 . S
C361 C359 1.415 . S
C362 H352 0.930 . S
C362 C360 1.419 . S
C362 C363 1.362 . S
C363 H353 0.930 . S
C363 C356 1.409 . S
C363 C362 1.362 . S
H364 C370 0.930 . S
H365 C373 0.930 . S
H366 C374 0.930 . S
H367 C375 0.930 . S
H368 C378 0.930 . S
H369 C379 0.930 . S
C370 H364 0.930 . S
C370 C371 1.355 . S
C370 C372 1.415 . S
C371 C370 1.355 . S
C371 C373 1.419 . S
C372 C370 1.415 . S
C372 C377 1.425 . S
C372 C379 1.409 1_556 S
C373 H365 0.930 . S
C373 C371 1.419 . S
C373 C374 1.362 . S
C374 H366 0.930 . S
C374 C373 1.362 . S
C374 C377 1.409 . S
C375 H367 0.930 . S
C375 C376 1.355 . S
C375 C377 1.415 1_554 S
C376 C375 1.355 . S
C376 C378 1.419 . S
C377 C372 1.425 . S
C377 C374 1.409 . S
C377 C375 1.415 1_556 S
C378 H368 0.930 . S
C378 C376 1.419 . S
C378 C379 1.362 . S
C379 H369 0.930 . S
C379 C372 1.409 1_554 S
C379 C378 1.362 . S
H380 C386 0.930 . S
H381 C389 0.930 . S
H382 C390 0.930 . S
H383 C391 0.930 . S
H384 C394 0.930 . S
H385 C395 0.930 . S
C386 H380 0.930 . S
C386 C387 1.355 . S
C386 C388 1.415 . S
C387 C386 1.355 . S
C387 C389 1.419 . S
C388 C386 1.415 . S
C388 C393 1.425 . S
C388 C395 1.409 . S
C389 H381 0.930 . S
C389 C387 1.419 . S
C389 C390 1.362 . S
C390 H382 0.930 . S
C390 C389 1.362 . S
C390 C393 1.409 . S
C391 H383 0.930 . S
C391 C392 1.355 1_554 S
C391 C393 1.415 . S
C392 C391 1.355 1_556 S
C392 C394 1.419 . S
C393 C388 1.425 . S
C393 C390 1.409 . S
C393 C391 1.415 . S
C394 H384 0.930 . S
C394 C392 1.419 . S
C394 C395 1.362 1_556 S
C395 H385 0.930 . S
C395 C388 1.409 . S
C395 C394 1.362 1_554 S
H396 C402 0.930 . S
H397 C405 0.930 . S
H398 C406 0.930 . S
H399 C407 0.930 . S
H400 C410 0.930 . S
H401 C411 0.930 . S
C402 H396 0.930 . S
C402 C403 1.355 . S
C402 C404 1.415 . S
C403 C402 1.355 . S
C403 C405 1.419 . S
C404 C402 1.415 . S
C404 C409 1.425 . S
C404 C411 1.409 . S
C405 H397 0.930 . S
C405 C403 1.419 . S
C405 C406 1.362 . S
C406 H398 0.930 . S
C406 C405 1.362 . S
C406 C409 1.409 . S
C407 H399 0.930 . S
C407 C408 1.355 . S
C407 C409 1.415 . S
C408 C407 1.355 . S
C408 C410 1.419 . S
C409 C404 1.425 . S
C409 C406 1.409 . S
C409 C407 1.415 . S
C410 H400 0.930 . S
C410 C408 1.419 . S
C410 C411 1.362 . S
C411 H401 0.930 . S
C411 C404 1.409 . S
C411 C410 1.362 . S
H412 C418 0.930 . S
H413 C421 0.930 . S
H414 C422 0.930 . S
H415 C423 0.930 . S
H416 C426 0.930 . S
H417 C427 0.930 . S
C418 H412 0.930 . S
C418 C419 1.355 . S
C418 C420 1.415 . S
C419 C418 1.355 . S
C419 C421 1.419 . S
C420 C418 1.415 . S
C420 C425 1.425 . S
C420 C427 1.409 . S
C421 H413 0.930 . S
C421 C419 1.419 . S
C421 C422 1.362 . S
C422 H414 0.930 . S
C422 C421 1.362 . S
C422 C425 1.409 . S
C423 H415 0.930 . S
C423 C424 1.355 . S
C423 C425 1.415 . S
C424 C423 1.355 . S
C424 C426 1.419 . S
C425 C420 1.425 . S
C425 C422 1.409 . S
C425 C423 1.415 . S
C426 H416 0.930 . S
C426 C424 1.419 . S
C426 C427 1.362 . S
C427 H417 0.930 . S
C427 C420 1.409 . S
C427 C426 1.362 . S
H428 C434 0.930 . S
H429 C437 0.930 . S
H430 C438 0.930 . S
H431 C439 0.930 1_554 S
H432 C442 0.930 . S
H433 C443 0.930 . S
C434 H428 0.930 . S
C434 C435 1.355 1_556 S
C434 C436 1.415 . S
C435 C434 1.355 1_554 S
C435 C437 1.419 . S
C436 C434 1.415 . S
C436 C441 1.425 1_556 S
C436 C443 1.409 . S
C437 H429 0.930 . S
C437 C435 1.419 . S
C437 C438 1.362 . S
C438 H430 0.930 . S
C438 C437 1.362 . S
C438 C441 1.409 . S
C439 H431 0.930 1_556 S
C439 C440 1.355 . S
C439 C441 1.415 1_556 S
C440 C439 1.355 . S
C440 C442 1.419 . S
C441 C436 1.425 1_554 S
C441 C438 1.409 . S
C441 C439 1.415 1_554 S
C442 H432 0.930 . S
C442 C440 1.419 . S
C442 C443 1.362 . S
C443 H433 0.930 . S
C443 C436 1.409 . S
C443 C442 1.362 . S
H444 C450 0.930 . S
H445 C453 0.930 . S
H446 C454 0.930 . S
H447 C455 0.930 . S
H448 C458 0.930 . S
H449 C459 0.930 . S
C450 H444 0.930 . S
C450 C451 1.355 . S
C450 C452 1.415 . S
C451 C450 1.355 . S
C451 C453 1.419 . S
C452 C450 1.415 . S
C452 C457 1.425 . S
C452 C459 1.409 1_554 S
C453 H445 0.930 . S
C453 C451 1.419 . S
C453 C454 1.362 . S
C454 H446 0.930 . S
C454 C453 1.362 . S
C454 C457 1.409 . S
C455 H447 0.930 . S
C455 C456 1.355 . S
C455 C457 1.415 . S
C456 C455 1.355 . S
C456 C458 1.419 1_554 S
C457 C452 1.425 . S
C457 C454 1.409 . S
C457 C455 1.415 . S
C458 H448 0.930 . S
C458 C456 1.419 1_556 S
C458 C459 1.362 . S
C459 H449 0.930 . S
C459 C452 1.409 1_556 S
C459 C458 1.362 . S
H460 C466 0.930 . S
H461 C469 0.930 . S
H462 C470 0.930 . S
H463 C471 0.930 . S
H464 C474 0.930 . S
H465 C475 0.930 . S
C466 H460 0.930 . S
C466 C467 1.355 . S
C466 C468 1.415 . S
C467 C466 1.355 . S
C467 C469 1.419 . S
C468 C466 1.415 . S
C468 C473 1.425 . S
C468 C475 1.409 . S
C469 H461 0.930 . S
C469 C467 1.419 . S
C469 C470 1.362 . S
C470 H462 0.930 . S
C470 C469 1.362 . S
C470 C473 1.409 . S
C471 H463 0.930 . S
C471 C472 1.355 . S
C471 C473 1.415 . S
C472 C471 1.355 . S
C472 C474 1.419 . S
C473 C468 1.425 . S
C473 C470 1.409 . S
C473 C471 1.415 . S
C474 H464 0.930 . S
C474 C472 1.419 . S
C474 C475 1.362 . S
C475 H465 0.930 . S
C475 C468 1.409 . S
C475 C474 1.362 . S
H476 C482 0.930 . S
H477 C485 0.930 . S
H478 C486 0.930 . S
H479 C487 0.930 . S
H480 C490 0.930 . S
H481 C491 0.930 . S
C482 H476 0.930 . S
C482 C483 1.355 . S
C482 C484 1.415 . S
C483 C482 1.355 . S
C483 C485 1.419 . S
C484 C482 1.415 . S
C484 C489 1.425 . S
C484 C491 1.409 . S
C485 H477 0.930 . S
C485 C483 1.419 . S
C485 C486 1.362 . S
C486 H478 0.930 . S
C486 C485 1.362 . S
C486 C489 1.409 . S
C487 H479 0.930 . S
C487 C488 1.355 . S
C487 C489 1.415 . S
C488 C487 1.355 . S
C488 C490 1.419 . S
C489 C484 1.425 . S
C489 C486 1.409 . S
C489 C487 1.415 . S
C490 H480 0.930 . S
C490 C488 1.419 . S
C490 C491 1.362 . S
C491 H481 0.930 . S
C491 C484 1.409 . S
C491 C490 1.362 . S
C211 C174 1.516 . S
C216 C4 1.498 1_556 S
C227 C17 1.679 . S
C232 C51 1.692 . S
C243 C38 1.514 . S
C248 C72 1.501 . S
C259 C85 1.675 . S
C264 C119 1.703 . S
C275 C140 1.470 . S
C280 C106 1.504 . S
C291 C187 1.675 . S
C296 C153 1.697 . S
C307 C0 1.019 . S
C312 C29 1.019 . S
C323 C63 1.036 . S
C328 C34 1.036 . S
C339 C68 1.030 . S
C344 C97 1.030 1_554 S
C355 C131 1.001 . S
C360 C102 1.001 . S
C371 C165 0.990 . S
C376 C136 0.990 . S
C387 C199 1.010 . S
C392 C170 1.010 . S
C403 C13 1.707 . S
C408 C144 1.795 . S
C419 C42 1.797 . S
C424 C183 1.711 . S
C435 C8 1.796 . S
C440 C81 1.709 . S
C451 C47 1.743 . S
C456 C110 1.809 . S
C467 C149 1.703 . S
C472 C76 1.792 . S
C483 C115 1.709 . S
C488 C178 1.796 . S
