# Generated by pormake.
# Topology wkj, (6)-cn, num edge types: 1
# Building blocks:
#     Node 0, Type 0, BuildingBlock: BETFAJ_clean_sbu_0, # of connection points: 6
#     Node 1, Type 0, BuildingBlock: BETFAJ_clean_sbu_0, # of connection points: 6
#     Node 2, Type 0, BuildingBlock: BETFAJ_clean_sbu_0, # of connection points: 6
#     Node 3, Type 0, BuildingBlock: BETFAJ_clean_sbu_0, # of connection points: 6
#     Node 4, Type 0, BuildingBlock: BETFAJ_clean_sbu_0, # of connection points: 6
#     Node 5, Type 0, BuildingBlock: BETFAJ_clean_sbu_0, # of connection points: 6
#     Node 6, Type 0, BuildingBlock: BETFAJ_clean_sbu_0, # of connection points: 6
#     Node 7, Type 0, BuildingBlock: BETFAJ_clean_sbu_0, # of connection points: 6
#     Node 8, Type 0, BuildingBlock: BETFAJ_clean_sbu_0, # of connection points: 6
#     Node 9, Type 0, BuildingBlock: BETFAJ_clean_sbu_0, # of connection points: 6
#     Node 10, Type 0, BuildingBlock: BETFAJ_clean_sbu_0, # of connection points: 6
#     Node 11, Type 0, BuildingBlock: BETFAJ_clean_sbu_0, # of connection points: 6
#     Edge 12, Type (0, 0), BuildingBlock: XIVTED_clean_linker_0, # of connection points: 2
#     Edge 13, Type (0, 0), BuildingBlock: XIVTED_clean_linker_0, # of connection points: 2
#     Edge 14, Type (0, 0), BuildingBlock: XIVTED_clean_linker_0, # of connection points: 2
#     Edge 15, Type (0, 0), BuildingBlock: XIVTED_clean_linker_0, # of connection points: 2
#     Edge 16, Type (0, 0), BuildingBlock: XIVTED_clean_linker_0, # of connection points: 2
#     Edge 17, Type (0, 0), BuildingBlock: XIVTED_clean_linker_0, # of connection points: 2
#     Edge 18, Type (0, 0), BuildingBlock: XIVTED_clean_linker_0, # of connection points: 2
#     Edge 19, Type (0, 0), BuildingBlock: XIVTED_clean_linker_0, # of connection points: 2
#     Edge 20, Type (0, 0), BuildingBlock: XIVTED_clean_linker_0, # of connection points: 2
#     Edge 21, Type (0, 0), BuildingBlock: XIVTED_clean_linker_0, # of connection points: 2
#     Edge 22, Type (0, 0), BuildingBlock: XIVTED_clean_linker_0, # of connection points: 2
#     Edge 23, Type (0, 0), BuildingBlock: XIVTED_clean_linker_0, # of connection points: 2
#     Edge 24, Type (0, 0), BuildingBlock: XIVTED_clean_linker_0, # of connection points: 2
#     Edge 25, Type (0, 0), BuildingBlock: XIVTED_clean_linker_0, # of connection points: 2
#     Edge 26, Type (0, 0), BuildingBlock: XIVTED_clean_linker_0, # of connection points: 2
#     Edge 27, Type (0, 0), BuildingBlock: XIVTED_clean_linker_0, # of connection points: 2
#     Edge 28, Type (0, 0), BuildingBlock: XIVTED_clean_linker_0, # of connection points: 2
#     Edge 29, Type (0, 0), BuildingBlock: XIVTED_clean_linker_0, # of connection points: 2
#     Edge 30, Type (0, 0), BuildingBlock: XIVTED_clean_linker_0, # of connection points: 2
#     Edge 31, Type (0, 0), BuildingBlock: XIVTED_clean_linker_0, # of connection points: 2
#     Edge 32, Type (0, 0), BuildingBlock: XIVTED_clean_linker_0, # of connection points: 2
#     Edge 33, Type (0, 0), BuildingBlock: XIVTED_clean_linker_0, # of connection points: 2
#     Edge 34, Type (0, 0), BuildingBlock: XIVTED_clean_linker_0, # of connection points: 2
#     Edge 35, Type (0, 0), BuildingBlock: XIVTED_clean_linker_0, # of connection points: 2
#     Edge 36, Type (0, 0), BuildingBlock: XIVTED_clean_linker_0, # of connection points: 2
#     Edge 37, Type (0, 0), BuildingBlock: XIVTED_clean_linker_0, # of connection points: 2
#     Edge 38, Type (0, 0), BuildingBlock: XIVTED_clean_linker_0, # of connection points: 2
#     Edge 39, Type (0, 0), BuildingBlock: XIVTED_clean_linker_0, # of connection points: 2
#     Edge 40, Type (0, 0), BuildingBlock: XIVTED_clean_linker_0, # of connection points: 2
#     Edge 41, Type (0, 0), BuildingBlock: XIVTED_clean_linker_0, # of connection points: 2
#     Edge 42, Type (0, 0), BuildingBlock: XIVTED_clean_linker_0, # of connection points: 2
#     Edge 43, Type (0, 0), BuildingBlock: XIVTED_clean_linker_0, # of connection points: 2
#     Edge 44, Type (0, 0), BuildingBlock: XIVTED_clean_linker_0, # of connection points: 2
#     Edge 45, Type (0, 0), BuildingBlock: XIVTED_clean_linker_0, # of connection points: 2
#     Edge 46, Type (0, 0), BuildingBlock: XIVTED_clean_linker_0, # of connection points: 2
#     Edge 47, Type (0, 0), BuildingBlock: XIVTED_clean_linker_0, # of connection points: 2
# Relax obj value: 0.763
# Max RMSD: 0.174
# Mean RMSD: 0.174
data_MOF--net-wkj--node1-BETFAJ_clean_sbu_0--edge1-XIVTED_clean_linker_0
_symmetry_space_group_name_H-M    P1
_symmetry_Int_Tables_number       1
_symmetry_cell_setting            triclinic
loop_
_symmetry_equiv_pos_as_xyz
'x, y, z'
_cell_length_a     48.789581
_cell_length_b     48.987412
_cell_length_c     30.615038
_cell_angle_alpha  90.603625
_cell_angle_beta   89.475718
_cell_angle_gamma 120.36929
loop_
_atom_site_label
_atom_site_type_symbol
_atom_site_fract_x
_atom_site_fract_y
_atom_site_fract_z
_atom_type_partial_charge
Sm0 Sm 0.47729 0.10347 0.37558 0.0
Sm1 Sm 0.53865 0.11374 0.35595 0.0
C2 C 0.42163 0.09465 0.40187 0.0
C3 C 0.3977 0.08119 0.4366 0.0
C4 C 0.40626 0.085 0.48077 0.0
C5 C 0.38278 0.07153 0.51296 0.0
C6 C 0.3505 0.05389 0.50138 0.0
C7 C 0.34208 0.05031 0.45711 0.0
C8 C 0.36555 0.06398 0.42498 0.0
C9 C 0.51354 0.15992 0.3293 0.0
C10 C 0.52413 0.10919 0.46364 0.0
C11 C 0.60051 0.14379 0.33986 0.0
C12 C 0.62089 0.17634 0.32399 0.0
C13 C 0.61791 0.20132 0.34178 0.0
C14 C 0.62688 0.2285 0.31729 0.0
C15 C 0.63798 0.23063 0.27415 0.0
C16 C 0.64557 0.20779 0.25956 0.0
C17 C 0.63712 0.18092 0.28437 0.0
C18 C 0.49523 0.05111 0.37006 0.0
C19 C 0.4835 0.07683 0.27684 0.0
O20 O 0.42474 0.07443 0.37718 0.0
O21 O 0.44866 0.12026 0.41088 0.0
O22 O 0.5229 0.15088 0.36169 0.0
O23 O 0.48588 0.13724 0.31814 0.0
O24 O 0.4966 0.10638 0.45003 0.0
O25 O 0.54468 0.1117 0.43272 0.0
O26 O 0.58873 0.14063 0.37914 0.0
O27 O 0.5793 0.12472 0.31181 0.0
O28 O 0.49857 0.07432 0.39172 0.0
O29 O 0.51855 0.06039 0.3423 0.0
O30 O 0.51464 0.09534 0.28497 0.0
O31 O 0.46351 0.07372 0.30899 0.0
H32 H 0.431 0.09801 0.49037 0.0
H33 H 0.38995 0.07411 0.54684 0.0
H34 H 0.3174 0.03687 0.44736 0.0
H35 H 0.3586 0.06088 0.39095 0.0
H36 H 0.60582 0.19868 0.37266 0.0
H37 H 0.6219 0.24615 0.33043 0.0
H38 H 0.65436 0.20836 0.22681 0.0
H39 H 0.63989 0.16208 0.27019 0.0
Sm40 Sm 0.36965 0.46534 0.70941 0.0
Sm41 Sm 0.42069 0.51983 0.69721 0.0
C42 C 0.32451 0.40466 0.71256 0.0
C43 C 0.3161 0.37724 0.74017 0.0
C44 C 0.33985 0.37278 0.75814 0.0
C45 C 0.33187 0.34856 0.78787 0.0
C46 C 0.30004 0.32862 0.80058 0.0
C47 C 0.27616 0.33229 0.78108 0.0
C48 C 0.28416 0.35641 0.75089 0.0
C49 C 0.34741 0.50527 0.68678 0.0
C50 C 0.4017 0.50976 0.80328 0.0
C51 C 0.45725 0.58221 0.69164 0.0
C52 C 0.45384 0.60554 0.66637 0.0
C53 C 0.47788 0.63744 0.66562 0.0
C54 C 0.47343 0.65947 0.64252 0.0
C55 C 0.44472 0.64978 0.62049 0.0
C56 C 0.42073 0.61773 0.62184 0.0
C57 C 0.42528 0.59587 0.64442 0.0
C58 C 0.43517 0.47547 0.73198 0.0
C59 C 0.4148 0.47684 0.61389 0.0
O60 O 0.35045 0.4153 0.68947 0.0
O61 O 0.32164 0.4273 0.73053 0.0
O62 O 0.3703 0.50427 0.66709 0.0
O63 O 0.33956 0.4881 0.72129 0.0
O64 O 0.38052 0.48078 0.78741 0.0
O65 O 0.42002 0.53035 0.77324 0.0
O66 O 0.43528 0.56797 0.7213 0.0
O67 O 0.46274 0.56257 0.66934 0.0
O68 O 0.41368 0.48059 0.74317 0.0
O69 O 0.45206 0.4959 0.70206 0.0
O70 O 0.43101 0.50619 0.6283 0.0
O71 O 0.39037 0.45669 0.6395 0.0
H72 H 0.36469 0.38876 0.75061 0.0
H73 H 0.3509 0.34685 0.80305 0.0
H74 H 0.2515 0.31732 0.79047 0.0
H75 H 0.26556 0.35957 0.73719 0.0
H76 H 0.49998 0.64526 0.68276 0.0
H77 H 0.4924 0.68394 0.64171 0.0
H78 H 0.3987 0.60921 0.6042 0.0
H79 H 0.40645 0.57131 0.64473 0.0
Sm80 Sm 0.88353 0.36973 1.04456 0.0
Sm81 Sm 0.86615 0.41384 1.02048 0.0
C82 C 0.90616 0.33102 1.05613 0.0
C83 C 0.92963 0.32852 1.08248 0.0
C84 C 0.94432 0.34914 1.11775 0.0
C85 C 0.96637 0.34634 0.14299 0.0
C86 C 0.97331 0.3223 0.13402 0.0
C87 C 0.95834 0.3014 1.09903 0.0
C88 C 0.93682 0.30475 1.07302 0.0
C89 C 0.81852 0.3384 1.0257 0.0
C90 C 0.87558 0.40862 0.13104 0.0
C91 C 0.82817 0.43716 1.00897 0.0
C92 C 0.80219 0.4304 0.97827 0.0
C93 C 0.77082 0.40643 0.98748 0.0
C94 C 0.74751 0.39568 0.95521 0.0
C95 C 0.75507 0.40887 0.91325 0.0
C96 C 0.78558 0.43503 0.90561 0.0
C97 C 0.80887 0.44572 0.93781 0.0
C98 C 0.92976 0.4416 1.03603 0.0
C99 C 0.9048 0.40083 0.94056 0.0
O100 O 0.91725 0.35332 1.02694 0.0
O101 O 0.88171 0.32864 1.07717 0.0
O102 O 0.84024 0.36034 1.00258 0.0
O103 O 0.83108 0.33561 1.06098 0.0
O104 O 0.8865 0.38967 1.11786 0.0
O105 O 0.86545 0.4201 1.09939 0.0
O106 O 0.8223 0.41467 1.03663 0.0
O107 O 0.85704 0.45039 0.99293 0.0
O108 O 0.90769 0.42094 1.05882 0.0
O109 O 0.91818 0.45203 1.00677 0.0
O110 O 0.88618 0.41294 0.94925 0.0
O111 O 0.90775 0.38387 0.97238 0.0
H112 H 0.93846 0.36712 0.12608 0.0
H113 H 0.97725 0.36229 0.17046 0.0
H114 H 0.96319 0.28252 1.09202 0.0
H115 H 0.9254 0.28849 1.04602 0.0
H116 H 0.76466 0.39468 1.01882 0.0
H117 H 0.7241 0.37586 0.96232 0.0
H118 H 0.79238 0.44571 0.87361 0.0
H119 H 0.83261 0.46468 0.92999 0.0
Sm120 Sm 0.48623 0.90508 0.37711 0.0
Sm121 Sm 0.43382 0.85549 0.35915 0.0
C122 C 0.54201 0.95326 0.40142 0.0
C123 C 0.57023 0.95799 0.42485 0.0
C124 C 0.56732 0.94043 0.46225 0.0
C125 C 0.5942 0.94718 0.48629 0.0
C126 C 0.62454 0.97142 0.47317 0.0
C127 C 0.62747 0.98744 0.43397 0.0
C128 C 0.60049 0.98084 0.41013 0.0
C129 C 0.49241 0.85142 0.35658 0.0
C130 C 0.44039 0.87628 0.46593 0.0
C131 C 0.39121 0.79839 0.32919 0.0
C132 C 0.38908 0.77456 0.29742 0.0
C133 C 0.40915 0.76176 0.29982 0.0
C134 C 0.40876 0.74158 0.26688 0.0
C135 C 0.38818 0.73374 0.23114 0.0
C136 C 0.36655 0.74477 0.23062 0.0
C137 C 0.36703 0.76496 0.26344 0.0
C138 C 0.41519 0.89744 0.37467 0.0
C139 C 0.47511 0.91163 0.27816 0.0
O140 O 0.51593 0.94329 0.42422 0.0
O141 O 0.53706 0.9396 0.36328 0.0
O142 O 0.47522 0.85371 0.38531 0.0
O143 O 0.50488 0.87713 0.33414 0.0
O144 O 0.46747 0.89971 0.45045 0.0
O145 O 0.4222 0.85399 0.43678 0.0
O146 O 0.4086 0.80321 0.36364 0.0
O147 O 0.39467 0.8246 0.31342 0.0
O148 O 0.44069 0.90425 0.35402 0.0
O149 O 0.40126 0.86952 0.39145 0.0
O150 O 0.45752 0.88018 0.28658 0.0
O151 O 0.48493 0.92936 0.31338 0.0
H152 H 0.54418 0.9223 0.47383 0.0
H153 H 0.59083 0.93461 0.51656 0.0
H154 H 0.65048 0.00589 0.42257 0.0
H155 H 0.60318 0.99425 0.38086 0.0
H156 H 0.42585 0.76809 0.32629 0.0
H157 H 0.42545 0.7332 0.26841 0.0
H158 H 0.35067 0.7396 0.20331 0.0
H159 H 0.351 0.77412 0.26129 0.0
Sm160 Sm 0.63246 0.53909 0.70441 0.0
Sm161 Sm 0.57953 0.48513 0.69333 0.0
C162 C 0.67969 0.59888 0.70818 0.0
C163 C 0.69527 0.62291 0.74229 0.0
C164 C 0.69524 0.61383 0.7855 0.0
C165 C 0.70575 0.63629 0.81893 0.0
C166 C 0.71617 0.66819 0.80978 0.0
C167 C 0.71782 0.67747 0.76609 0.0
C168 C 0.70742 0.65491 0.73252 0.0
C169 C 0.65157 0.49635 0.68306 0.0
C170 C 0.60097 0.4959 0.79855 0.0
C171 C 0.53914 0.42318 0.69017 0.0
C172 C 0.53368 0.39622 0.66219 0.0
C173 C 0.53856 0.37256 0.67953 0.0
C174 C 0.5397 0.3502 0.65208 0.0
C175 C 0.53552 0.35089 0.60689 0.0
C176 C 0.52787 0.37289 0.5902 0.0
C177 C 0.52709 0.39545 0.61755 0.0
C178 C 0.56883 0.532 0.73019 0.0
C179 C 0.58732 0.52791 0.61001 0.0
O180 O 0.65029 0.59068 0.70031 0.0
O181 O 0.68387 0.57467 0.70954 0.0
O182 O 0.62955 0.49831 0.6627 0.0
O183 O 0.65953 0.51374 0.71785 0.0
O184 O 0.62303 0.52432 0.78245 0.0
O185 O 0.58135 0.47561 0.76904 0.0
O186 O 0.5658 0.43631 0.71179 0.0
O187 O 0.53266 0.44398 0.67432 0.0
O188 O 0.58922 0.52519 0.74018 0.0
O189 O 0.55119 0.51227 0.6999 0.0
O190 O 0.57043 0.49868 0.6243 0.0
O191 O 0.61224 0.54773 0.63508 0.0
H192 H 0.68562 0.58916 0.79369 0.0
H193 H 0.70347 0.62815 0.85224 0.0
H194 H 0.72577 0.70185 0.7581 0.0
H195 H 0.7075 0.6622 0.69921 0.0
H196 H 0.54338 0.37254 0.71401 0.0
H197 H 0.54546 0.33343 0.66582 0.0
H198 H 0.52494 0.37433 0.55543 0.0
H199 H 0.52316 0.4133 0.60324 0.0
Sm200 Sm 0.08434 0.58347 1.04202 0.0
Sm201 Sm 0.13379 0.58011 1.0239 0.0
C202 C 0.0365 0.59124 1.06685 0.0
C203 C 0.03228 0.61458 1.09194 0.0
C204 C 0.04898 0.62765 0.13081 0.0
C205 C 0.04286 0.64787 0.15599 0.0
C206 C 0.02012 0.65567 0.1426 0.0
C207 C 0.00495 0.64407 1.10216 0.0
C208 C 0.0109 0.62357 1.07716 0.0
C209 C 0.13896 0.64326 1.02253 0.0
C210 C 0.1126 0.56641 0.13072 0.0
C211 C 0.19067 0.59409 0.99337 0.0
C212 C 0.21433 0.61564 0.96135 0.0
C213 C 0.22717 0.64858 0.9639 0.0
C214 C 0.24712 0.66822 0.93085 0.0
C215 C 0.25471 0.65529 0.89475 0.0
C216 C 0.24353 0.62257 0.89388 0.0
C217 C 0.22355 0.60298 0.92687 0.0
C218 C 0.09025 0.51954 1.03726 0.0
C219 C 0.07812 0.56555 0.94236 0.0
O220 O 0.04544 0.57422 1.08846 0.0
O221 O 0.05087 0.6007 1.02932 0.0
O222 O 0.13634 0.62369 1.05071 0.0
O223 O 0.113 0.63018 1.00028 0.0
O224 O 0.08956 0.57039 1.11524 0.0
O225 O 0.13483 0.57011 1.10153 0.0
O226 O 0.18634 0.60698 1.02821 0.0
O227 O 0.16407 0.5711 0.9778 0.0
O228 O 0.08434 0.5387 1.01732 0.0
O229 O 0.11813 0.53302 1.05466 0.0
O230 O 0.1096 0.5793 0.95128 0.0
O231 O 0.06009 0.55783 0.97735 0.0
H232 H 0.06599 0.62142 0.14253 0.0
H233 H 0.05469 0.65585 0.18718 0.0
H234 H 0.98768 0.64995 1.09053 0.0
H235 H -0.00181 0.61409 1.0468 0.0
H236 H 0.22108 0.65911 0.99066 0.0
H237 H 0.2556 0.69335 0.93266 0.0
H238 H 0.24848 0.6117 0.86628 0.0
H239 H 0.21428 0.57771 0.92451 0.0
Sm240 Sm 0.91282 0.52903 0.55567 0.0
Sm241 Sm 0.89947 0.46873 0.56596 0.0
C242 C 0.92782 0.58755 0.53408 0.0
C243 C 0.9324 0.60649 0.49514 0.0
C244 C 0.91986 0.59187 0.45485 0.0
C245 C 0.92563 0.61018 0.41762 0.0
C246 C 0.94417 0.64341 0.42003 0.0
C247 C 0.95612 0.65795 0.46073 0.0
C248 C 0.95019 0.63957 0.49806 0.0
C249 C 0.85419 0.49508 0.59835 0.0
C250 C 0.88768 0.47857 0.46486 0.0
C251 C 0.87309 0.41041 0.59687 0.0
C252 C 0.83988 0.38716 0.60694 0.0
C253 C 0.8153 0.38965 0.58746 0.0
C254 C 0.78495 0.37461 0.60613 0.0
C255 C 0.77895 0.35739 0.64501 0.0
C256 C 0.80284 0.35224 0.66149 0.0
C257 C 0.83309 0.36708 0.6426 0.0
C258 C 0.95514 0.50302 0.51878 0.0
C259 C 0.94656 0.5182 0.64567 0.0
O260 O 0.94879 0.57905 0.54057 0.0
O261 O 0.89896 0.56481 0.54185 0.0
O262 O 0.86284 0.48564 0.56479 0.0
O263 O 0.87861 0.52037 0.6137 0.0
O264 O 0.90065 0.5085 0.48027 0.0
O265 O 0.88073 0.45644 0.49427 0.0
O266 O 0.88053 0.41712 0.55581 0.0
O267 O 0.88498 0.43562 0.62161 0.0
O268 O 0.94776 0.51292 0.55237 0.0
O269 O 0.93506 0.47325 0.5128 0.0
O270 O 0.92999 0.48839 0.63166 0.0
O271 O 0.94477 0.53968 0.62097 0.0
H272 H 0.9062 0.56632 0.45202 0.0
H273 H 0.9167 0.5982 0.3866 0.0
H274 H 0.97047 0.68346 0.46353 0.0
H275 H 0.95997 0.65115 0.52907 0.0
H276 H 0.82016 0.40527 0.56 0.0
H277 H 0.76699 0.37866 0.59219 0.0
H278 H 0.79937 0.33946 0.69158 0.0
H279 H 0.85186 0.36515 0.65826 0.0
Sm280 Sm 0.35534 0.90562 0.89398 0.0
Sm281 Sm 0.40706 0.90016 0.90094 0.0
C282 C 0.30602 0.91219 0.8742 0.0
C283 C 0.29282 0.91871 0.83569 0.0
C284 C 0.3001 0.91257 0.7937 0.0
C285 C 0.28998 0.92171 0.75716 0.0
C286 C 0.27261 0.93736 0.76207 0.0
C287 C 0.26431 0.94234 0.80425 0.0
C288 C 0.27434 0.93302 0.84084 0.0
C289 C 0.33816 0.85033 0.93915 0.0
C290 C 0.38324 0.88473 0.80123 0.0
C291 C 0.44753 0.88322 0.92935 0.0
C292 C 0.44718 0.85331 0.93402 0.0
C293 C 0.42304 0.82541 0.91485 0.0
C294 C 0.41829 0.79602 0.92781 0.0
C295 C 0.43731 0.79415 0.96064 0.0
C296 C 0.46322 0.82248 0.9767 0.0
C297 C 0.46804 0.85177 0.96351 0.0
C298 C 0.42112 0.95398 0.85434 0.0
C299 C 0.40009 0.94266 0.98274 0.0
O300 O 0.33316 0.93541 0.88781 0.0
O301 O 0.30492 0.88506 0.87465 0.0
O302 O 0.35468 0.85898 0.9041 0.0
O303 O 0.33521 0.8735 0.9541 0.0
O304 O 0.36438 0.89513 0.81776 0.0
O305 O 0.40043 0.88001 0.82991 0.0
O306 O 0.44826 0.89311 0.88975 0.0
O307 O 0.4274 0.88607 0.95455 0.0
O308 O 0.40477 0.94534 0.88876 0.0
O309 O 0.43292 0.93602 0.8465 0.0
O310 O 0.41723 0.93109 0.96559 0.0
O311 O 0.37402 0.93658 0.96069 0.0
H312 H 0.31453 0.90171 0.78915 0.0
H313 H 0.29733 0.91812 0.72516 0.0
H314 H 0.25094 0.95431 0.80892 0.0
H315 H 0.26855 0.93788 0.87317 0.0
H316 H 0.40663 0.82624 0.89203 0.0
H317 H 0.39844 0.77476 0.91425 0.0
H318 H 0.47818 0.82223 1.0024 0.0
H319 H 0.48667 0.87312 0.97878 0.0
Sm320 Sm 0.49017 0.39496 0.21726 0.0
Sm321 Sm 0.5554 0.4354 0.2399 0.0
C322 C 0.43108 0.35681 0.19072 0.0
C323 C 0.40994 0.34655 0.15314 0.0
C324 C 0.42151 0.35805 1.1113 0.0
C325 C 0.4014 0.34557 1.07534 0.0
C326 C 0.36953 0.32141 1.08086 0.0
C327 C 0.35797 0.31058 1.1231 0.0
C328 C 0.37811 0.32305 0.15898 0.0
C329 C 0.51625 0.363 0.2599 0.0
C330 C 0.54269 0.42563 0.13131 0.0
C331 C 0.61094 0.45087 0.27441 0.0
C332 C 0.62047 0.4308 0.29763 0.0
C333 C 0.61065 0.39999 0.28246 0.0
C334 C 0.61298 0.37839 0.30928 0.0
C335 C 0.62468 0.38704 0.35201 0.0
C336 C 0.63731 0.4188 0.36538 0.0
C337 C 0.63518 0.44046 0.33839 0.0
C338 C 0.53493 0.46982 0.19756 0.0
C339 C 0.49895 0.42803 0.31595 0.0
O340 O 0.44093 0.3852 0.20625 0.0
O341 O 0.45315 0.34922 0.18991 0.0
O342 O 0.52877 0.38214 0.22855 0.0
O343 O 0.49075 0.36281 0.27217 0.0
O344 O 0.51225 0.40881 0.14426 0.0
O345 O 0.56481 0.43663 0.16256 0.0
O346 O 0.60461 0.44452 0.23301 0.0
O347 O 0.59005 0.45575 0.29461 0.0
O348 O 0.51828 0.44779 0.22415 0.0
O349 O 0.56483 0.47878 0.20126 0.0
O350 O 0.52981 0.43834 0.30744 0.0
O351 O 0.47831 0.41161 0.28447 0.0
H352 H 0.44612 0.37622 1.10643 0.0
H353 H 0.41078 0.35483 1.04323 0.0
H354 H 0.33361 0.29195 0.12828 0.0
H355 H 0.369 0.31385 0.19124 0.0
H356 H 0.59922 0.39185 0.25102 0.0
H357 H 0.60344 0.3543 0.29773 0.0
H358 H 0.64617 0.42634 0.39821 0.0
H359 H 0.64286 0.46406 0.35071 0.0
Sm360 Sm 0.08283 0.45316 0.55754 0.0
Sm361 Sm 0.08822 0.51043 0.56852 0.0
C362 C 0.07461 0.39728 0.5325 0.0
C363 C 0.07407 0.38194 0.49095 0.0
C364 C 0.08605 0.39998 0.45299 0.0
C365 C 0.08304 0.38518 0.41279 0.0
C366 C 0.06805 0.35199 0.40979 0.0
C367 C 0.05719 0.33407 0.44829 0.0
C368 C 0.06014 0.34899 0.48861 0.0
C369 C 0.13981 0.49208 0.60008 0.0
C370 C 0.10287 0.50324 0.46694 0.0
C371 C 0.1065 0.56767 0.60019 0.0
C372 C 0.13658 0.59775 0.60268 0.0
C373 C 0.16381 0.60139 0.58141 0.0
C374 C 0.19382 0.62656 0.59262 0.0
C375 C 0.19697 0.6481 0.62578 0.0
C376 C 0.16919 0.64593 0.64365 0.0
C377 C 0.13928 0.62091 0.63222 0.0
C378 C 0.03317 0.46959 0.52413 0.0
C379 C 0.04522 0.45935 0.64848 0.0
O380 O 0.0513 0.40263 0.53896 0.0
O381 O 0.10193 0.42127 0.54385 0.0
O382 O 0.12984 0.49994 0.56668 0.0
O383 O 0.11723 0.46543 0.61508 0.0
O384 O 0.09381 0.47411 0.48225 0.0
O385 O 0.10657 0.52455 0.4967 0.0
O386 O 0.0939 0.55824 0.56158 0.0
O387 O 0.10562 0.54493 0.62318 0.0
O388 O 0.04317 0.46242 0.55721 0.0
O389 O 0.05051 0.49956 0.51659 0.0
O390 O 0.0562 0.48814 0.63233 0.0
O391 O 0.05243 0.44027 0.62551 0.0
H392 H 0.09692 0.42545 0.45419 0.0
H393 H 0.09108 0.39975 0.38385 0.0
H394 H 0.04573 0.30852 0.44712 0.0
H395 H 0.05086 0.33477 0.51776 0.0
H396 H 0.16205 0.58359 0.55843 0.0
H397 H 0.2146 0.62777 0.57768 0.0
H398 H 0.17041 0.66169 0.6696 0.0
H399 H 0.11845 0.61833 0.64902 0.0
Sm400 Sm 0.6012 0.07291 0.8882 0.0
Sm401 Sm 0.55184 0.08455 0.90122 0.0
C402 C 0.64584 0.05926 0.86611 0.0
C403 C 0.66106 0.05465 0.82746 0.0
C404 C 0.66544 0.07186 0.78917 0.0
C405 C 0.67864 0.06603 0.75214 0.0
C406 C 0.68734 0.04269 0.75269 0.0
C407 C 0.6836 0.02605 0.79147 0.0
C408 C 0.67065 0.0321 0.82864 0.0
C409 C 0.6232 0.12938 0.93498 0.0
C410 C 0.57357 0.09497 0.79832 0.0
C411 C 0.517 0.10939 0.92732 0.0
C412 C 0.52149 0.13448 0.95876 0.0
C413 C 0.53615 0.16619 0.94507 0.0
C414 C 0.54498 0.19063 0.97547 0.0
C415 C 0.5388 0.18384 1.02005 0.0
C416 C 0.52192 0.15203 1.03336 0.0
C417 C 0.51336 0.12757 1.003 0.0
C418 C 0.5326 0.02939 0.85342 0.0
C419 C 0.55886 0.04196 0.98125 0.0
O420 O 0.61624 0.03783 0.87303 0.0
O421 O 0.65149 0.08786 0.87373 0.0
O422 O 0.60555 0.1213 0.90135 0.0
O423 O 0.6257 0.10558 0.94758 0.0
O424 O 0.59335 0.08553 0.81343 0.0
O425 O 0.5555 0.09846 0.82759 0.0
O426 O 0.53589 0.1191 0.8935 0.0
O427 O 0.51315 0.08287 0.94287 0.0
O428 O 0.55005 0.03767 0.8865 0.0
O429 O 0.52165 0.04826 0.84814 0.0
O430 O 0.54813 0.06127 0.97112 0.0
O431 O 0.57867 0.04021 0.95229 0.0
H432 H 0.65799 0.08924 0.78753 0.0
H433 H 0.68058 0.07874 0.72245 0.0
H434 H 0.69004 0.0079 0.79272 0.0
H435 H 0.66748 0.01867 0.85805 0.0
H436 H 0.54215 0.1723 0.91104 0.0
H437 H 0.55768 0.2149 0.96432 0.0
H438 H 0.51706 0.14608 1.06762 0.0
H439 H 0.50168 0.1034 1.01451 0.0
Sm440 Sm 0.51418 0.61338 0.22066 0.0
Sm441 Sm 0.44931 0.57898 0.24534 0.0
C442 C 0.57358 0.64768 0.19251 0.0
C443 C 0.59393 0.65761 0.15388 0.0
C444 C 0.58129 0.64713 1.11212 0.0
C445 C 0.60082 0.65953 1.07542 0.0
C446 C 0.63315 0.68261 1.08014 0.0
C447 C 0.64569 0.69256 1.12222 0.0
C448 C 0.62615 0.68015 0.15882 0.0
C449 C 0.4941 0.65069 0.26505 0.0
C450 C 0.4615 0.58421 0.13585 0.0
C451 C 0.39545 0.56923 0.28086 0.0
C452 C 0.38788 0.5914 0.3031 0.0
C453 C 0.40222 0.62304 0.28944 0.0
C454 C 0.40058 0.64566 0.31566 0.0
C455 C 0.38487 0.63707 0.35621 0.0
C456 C 0.36805 0.60483 0.36771 0.0
C457 C 0.36964 0.58221 0.34138 0.0
C458 C 0.46342 0.53868 0.20438 0.0
C459 C 0.50432 0.5814 0.319 0.0
O460 O 0.56122 0.61836 0.20508 0.0
O461 O 0.55386 0.6582 0.19554 0.0
O462 O 0.47982 0.63195 0.2335 0.0
O463 O 0.51753 0.64724 0.2768 0.0
O464 O 0.49198 0.59938 0.14818 0.0
O465 O 0.43969 0.57584 0.16764 0.0
O466 O 0.40178 0.57406 0.23925 0.0
O467 O 0.41527 0.56331 0.3013 0.0
O468 O 0.48226 0.56096 0.22954 0.0
O469 O 0.43455 0.5331 0.20875 0.0
O470 O 0.47408 0.57412 0.31198 0.0
O471 O 0.52489 0.59554 0.28652 0.0
H472 H 0.55634 0.6298 1.10795 0.0
H473 H 0.59066 0.65097 1.04339 0.0
H474 H 0.67042 0.71038 0.12681 0.0
H475 H 0.63606 0.68867 0.191 0.0
H476 H 0.41636 0.63071 0.25982 0.0
H477 H 0.41351 0.67022 0.30572 0.0
H478 H 0.35605 0.59736 0.39896 0.0
H479 H 0.35843 0.55794 0.35244 0.0
H480 H 0.53268 0.21085 0.38614 0.0
H481 H 0.54489 0.33672 0.20984 0.0
H482 H 0.51254 0.18513 0.25039 0.0
H483 H 0.50027 0.32792 0.33502 0.0
H484 H 0.54851 0.2895 0.22641 0.0
H485 H 0.53666 0.26209 0.3702 0.0
C486 C 0.52999 0.21625 0.35279 0.0
C487 C 0.52255 0.19354 0.31951 0.0
C488 C 0.53826 0.29811 0.25044 0.0
C489 C 0.52716 0.25246 0.30099 0.0
C490 C 0.53633 0.32524 0.2411 0.0
C491 C 0.52224 0.33654 0.27103 0.0
C492 C 0.52684 0.28241 0.29058 0.0
C493 C 0.51131 0.32021 0.31087 0.0
C494 C 0.53192 0.24541 0.3438 0.0
C495 C 0.51854 0.20185 0.27708 0.0
N496 N 0.51393 0.29424 0.31949 0.0
N497 N 0.52098 0.23045 0.26906 0.0
H498 H 0.33011 0.5087 0.59921 0.0
H499 H 0.16461 0.4924 0.67947 0.0
H500 H 0.30647 0.51638 0.73289 0.0
H501 H 0.1931 0.51249 0.54474 0.0
H502 H 0.21691 0.50034 0.69722 0.0
H503 H 0.28212 0.51006 0.57584 0.0
C504 C 0.31546 0.51142 0.62363 0.0
C505 C 0.32289 0.51255 0.66836 0.0
C506 C 0.21215 0.50345 0.66373 0.0
C507 C 0.26694 0.51316 0.64173 0.0
C508 C 0.18208 0.49905 0.65356 0.0
C509 C 0.17412 0.50226 0.61061 0.0
C510 C 0.23508 0.51047 0.63071 0.0
C511 C 0.19805 0.51034 0.57851 0.0
C512 C 0.28776 0.51191 0.61025 0.0
C513 C 0.30217 0.51541 0.69812 0.0
N514 N 0.22711 0.51379 0.58905 0.0
N515 N 0.2755 0.51527 0.68448 0.0
H516 H 0.77465 0.28983 1.0748 0.0
H517 H 0.64881 0.18554 0.88672 0.0
H518 H 0.78961 0.32281 0.94199 0.0
H519 H 0.6568 0.14989 1.011 0.0
H520 H 0.69469 0.23794 0.90644 0.0
H521 H 0.72661 0.24182 1.05253 0.0
C522 C 0.7678 0.28723 1.04078 0.0
C523 C 0.78689 0.31086 1.01043 0.0
C524 C 0.68623 0.2187 0.92949 0.0
C525 C 0.73043 0.25447 0.98411 0.0
C526 C 0.65976 0.18873 0.9184 0.0
C527 C 0.64847 0.1629 0.94727 0.0
C528 C 0.70148 0.22327 0.97013 0.0
C529 C 0.66428 0.16878 0.98756 0.0
C530 C 0.74012 0.25944 1.028 0.0
C531 C 0.77598 0.30553 0.96681 0.0
N532 N 0.68953 0.19795 0.99762 0.0
N533 N 0.74867 0.278 0.955 0.0
H534 H 0.51324 0.68292 0.34247 0.0
H535 H 0.48107 0.80151 0.40926 0.0
H536 H 0.46908 0.68325 0.22152 0.0
H537 H 0.50198 0.8317 0.27546 0.0
H538 H 0.48011 0.75236 0.38899 0.0
H539 H 0.5125 0.73053 0.3659 0.0
C540 C 0.50306 0.6928 0.32088 0.0
C541 C 0.4909 0.67851 0.28003 0.0
C542 C 0.48502 0.76969 0.36396 0.0
C543 C 0.49028 0.73409 0.30681 0.0
C544 C 0.48555 0.79788 0.37559 0.0
C545 C 0.49209 0.82126 0.34429 0.0
C546 C 0.49027 0.76402 0.32027 0.0
C547 C 0.49732 0.81473 0.30096 0.0
C548 C 0.50261 0.72011 0.3344 0.0
C549 C 0.47837 0.69298 0.2535 0.0
N550 N 0.496 0.78678 0.29023 0.0
N551 N 0.47871 0.72001 0.26708 0.0
H552 H 0.68887 0.48231 0.73122 0.0
H553 H 0.80114 0.47287 0.54332 0.0
H554 H 0.67098 0.49141 0.59621 0.0
H555 H 0.83047 0.50356 0.67563 0.0
H556 H 0.74951 0.46922 0.55993 0.0
H557 H 0.73506 0.47868 0.7095 0.0
C558 C 0.69418 0.48294 0.69668 0.0
C559 C 0.6753 0.48713 0.66581 0.0
C560 C 0.76715 0.4765 0.5854 0.0
C561 C 0.72991 0.48317 0.64014 0.0
C562 C 0.79667 0.47831 0.57605 0.0
C563 C 0.82061 0.48837 0.60814 0.0
C564 C 0.76088 0.48414 0.62754 0.0
C565 C 0.8131 0.49555 0.6497 0.0
C566 C 0.72102 0.4811 0.6843 0.0
C567 C 0.68418 0.48784 0.62149 0.0
N568 N 0.78429 0.49313 0.65805 0.0
N569 N 0.71074 0.48602 0.61009 0.0
H570 H 0.30268 0.79861 0.88419 0.0
H571 H 0.19061 0.68129 1.07459 0.0
H572 H 0.31385 0.82619 1.01976 0.0
H573 H 0.15764 0.67341 0.94256 0.0
H574 H 0.24036 0.72956 1.05422 0.0
H575 H 0.25491 0.7479 0.90371 0.0
C576 C 0.29568 0.79376 0.91818 0.0
C577 C 0.31283 0.81686 0.95038 0.0
C578 C 0.22227 0.71731 1.02963 0.0
C579 C 0.2576 0.75849 0.97309 0.0
C580 C 0.19375 0.68966 1.0413 0.0
C581 C 0.16947 0.67316 1.01049 0.0
C582 C 0.22731 0.72853 0.98638 0.0
C583 C 0.17534 0.68535 0.96768 0.0
C584 C 0.26808 0.76486 0.92927 0.0
C585 C 0.30177 0.80919 0.99378 0.0
N586 N 0.20353 0.71193 0.95691 0.0
N587 N 0.27524 0.78091 1.00377 0.0
H588 H 0.51175 0.19209 1.09398 0.0
H589 H 0.59247 0.24835 0.27426 0.0
H590 H 0.59996 0.23307 1.02206 0.0
H591 H 0.6716 0.25775 0.19773 0.0
H592 H 0.57021 0.25654 0.20911 0.0
H593 H 0.53999 0.22421 0.15683 0.0
C594 C 0.53701 0.20867 1.09112 0.0
C595 C 0.55364 0.20937 1.05323 0.0
C596 C 0.59246 0.25691 0.20646 0.0
C597 C 0.58667 0.24664 0.12526 0.0
C598 C 0.6058 0.25291 0.24413 0.0
C599 C 0.63304 0.25 0.24125 0.0
C600 C 0.60591 0.25708 0.1657 0.0
C601 C 0.64938 0.2575 0.20113 0.0
C602 C 0.55331 0.22743 0.12704 0.0
C603 C 0.58626 0.23159 1.05088 0.0
N604 N 0.63492 0.25941 0.16453 0.0
N605 N 0.60186 0.24869 1.08684 0.0
H606 H 0.3447 0.63947 0.41821 0.0
H607 H 0.48767 0.69326 0.56317 0.0
H608 H 0.44189 0.68981 0.3735 0.0
H609 H 0.39201 0.65562 0.61143 0.0
H610 H 0.47401 0.71271 0.49899 0.0
H611 H 0.36219 0.66494 0.48952 0.0
C612 C 0.3696 0.65673 0.42291 0.0
C613 C 0.39207 0.66138 0.39054 0.0
C614 C 0.45615 0.70104 0.52415 0.0
C615 C 0.41239 0.68994 0.47218 0.0
C616 C 0.46407 0.69006 0.56108 0.0
C617 C 0.44048 0.67147 0.5916 0.0
C618 C 0.42428 0.69249 0.51735 0.0
C619 C 0.41048 0.66857 0.58748 0.0
C620 C 0.37966 0.67133 0.46369 0.0
C621 C 0.42382 0.68483 0.39782 0.0
N622 N 0.40288 0.67796 0.55023 0.0
N623 N 0.43322 0.69741 0.43835 0.0
H624 H 0.72024 0.34498 0.89798 0.0
H625 H 0.74308 0.30672 0.69926 0.0
H626 H 0.74219 0.43426 0.84196 0.0
H627 H 0.75287 0.39505 0.65722 0.0
H628 H 0.71517 0.30863 0.76395 0.0
H629 H 0.70285 0.31996 0.82717 0.0
C630 C 0.7206 0.35925 0.87097 0.0
C631 C 0.73412 0.39214 0.87554 0.0
C632 C 0.72247 0.32728 0.74033 0.0
C633 C 0.71608 0.36391 0.79316 0.0
C634 C 0.73856 0.3261 0.70306 0.0
C635 C 0.75171 0.35145 0.67367 0.0
C636 C 0.71986 0.35426 0.74838 0.0
C637 C 0.74393 0.37523 0.67933 0.0
C638 C 0.71115 0.34494 0.82994 0.0
C639 C 0.73331 0.4091 0.83947 0.0
N640 N 0.72935 0.3765 0.71659 0.0
N641 N 0.72541 0.39498 0.79956 0.0
H642 H 0.37631 0.74802 0.98009 0.0
H643 H 0.34308 0.68865 0.17644 0.0
H644 H 0.47364 0.7718 0.99765 0.0
H645 H 0.44443 0.74686 0.19324 0.0
H646 H 0.35167 0.68233 1.09921 0.0
H647 H 0.36065 0.71207 1.04039 0.0
C648 C 0.39437 0.74475 0.99539 0.0
C649 C 0.42665 0.76415 0.98476 0.0
C650 C 0.3721 0.69625 1.11977 0.0
C651 C 0.40878 0.723 1.05559 0.0
C652 C 0.36719 0.69956 0.16404 0.0
C653 C 0.39298 0.71961 0.19079 0.0
C654 C 0.40294 0.71385 1.10224 0.0
C655 C 0.42373 0.73195 0.17359 0.0
C656 C 0.3853 0.72398 1.03044 0.0
C657 C 0.44865 0.75844 1.00602 0.0
N658 N 0.42781 0.72969 0.13008 0.0
N659 N 0.43948 0.73923 1.04141 0.0
H660 H 0.6607 0.38886 0.42219 0.0
H661 H 0.5877 0.34398 0.6109 0.0
H662 H 0.5709 0.32904 0.35905 0.0
H663 H 0.50501 0.3183 0.53251 0.0
H664 H 0.6122 0.33289 0.54881 0.0
H665 H 0.63862 0.36032 0.48963 0.0
C666 C 0.63663 0.36892 0.42209 0.0
C667 C 0.61715 0.36241 0.38547 0.0
C668 C 0.58854 0.32925 0.5452 0.0
C669 C 0.59139 0.32926 0.46275 0.0
C670 C 0.57424 0.33506 0.58098 0.0
C671 C 0.5448 0.33335 0.57619 0.0
C672 C 0.57347 0.3224 0.50436 0.0
C673 C 0.52831 0.32116 0.53698 0.0
C674 C 0.62392 0.35229 0.46078 0.0
C675 C 0.58658 0.33556 0.38673 0.0
N676 N 0.54323 0.31696 0.50217 0.0
N677 N 0.57428 0.32068 0.42516 0.0
H678 H 0.29963 0.65514 0.8396 0.0
H679 H 0.2427 0.63278 0.64217 0.0
H680 H 0.24226 0.69845 0.85811 0.0
H681 H 0.22152 0.70743 0.66361 0.0
H682 H 0.27863 0.65216 0.70288 0.0
H683 H 0.30763 0.67155 0.76326 0.0
C684 C 0.28924 0.66865 0.8278 0.0
C685 C 0.26907 0.67418 0.85473 0.0
C686 C 0.26734 0.66536 0.6937 0.0
C687 C 0.27688 0.69177 0.76715 0.0
C688 C 0.24658 0.65419 0.65838 0.0
C689 C 0.22773 0.66753 0.64888 0.0
C690 C 0.26878 0.68968 0.72022 0.0
C691 C 0.23436 0.6954 0.67117 0.0
C692 C 0.29358 0.6778 0.78406 0.0
C693 C 0.25739 0.69297 0.83836 0.0
N694 N 0.25343 0.70485 0.70686 0.0
N695 N 0.26071 0.70029 0.79531 0.0
H696 H 0.45215 0.95705 1.03622 0.0
H697 H 0.42212 0.04793 0.2397 0.0
H698 H 0.37444 0.97487 1.03278 0.0
H699 H 0.51403 0.0602 0.21064 0.0
H700 H 0.40159 0.01713 0.17115 0.0
H701 H 0.46983 0.98731 1.10501 0.0
C702 C 0.43878 0.96751 1.0491 0.0
C703 C 0.41132 0.9627 1.02653 0.0
C704 C 0.42631 0.02656 0.1794 0.0
C705 C 0.43366 2e-05 1.10798 0.0
C706 C 0.43832 0.04447 0.21919 0.0
C707 C 0.47053 0.05787 0.23248 0.0
C708 C 0.44593 0.02041 0.15143 0.0
C709 C 0.48932 0.05133 0.203 0.0
C710 C 0.44955 0.98549 1.08877 0.0
C711 C 0.39569 0.97737 1.04743 0.0
N712 N 0.47691 0.0333 0.16517 0.0
N713 N 0.40687 0.99491 1.08604 0.0
H714 H 0.53247 0.47064 0.38618 0.0
H715 H 0.38285 0.42288 0.55593 0.0
H716 H 0.43663 0.40142 0.35152 0.0
H717 H 0.4728 0.50896 0.56813 0.0
H718 H 0.40197 0.41114 0.48662 0.0
H719 H 0.51231 0.48094 0.45503 0.0
C720 C 0.50716 0.45734 0.39254 0.0
C721 C 0.48682 0.43483 0.36093 0.0
C722 C 0.41772 0.43264 0.50432 0.0
C723 C 0.46253 0.44697 0.4436 0.0
C724 C 0.40665 0.43947 0.54472 0.0
C725 C 0.42566 0.46739 0.56986 0.0
C726 C 0.44883 0.45324 0.48763 0.0
C727 C 0.45647 0.48722 0.55138 0.0
C728 C 0.49543 0.46348 0.43264 0.0
C729 C 0.454 0.41903 0.37341 0.0
N730 N 0.4667 0.47975 0.51289 0.0
N731 N 0.44332 0.42514 0.4127 0.0
H732 H 0.0253 0.4064 0.70575 0.0
H733 H 0.91313 0.44259 0.87132 0.0
H734 H 0.01523 0.4882 0.69321 0.0
H735 H 0.94382 0.37747 0.90593 0.0
H736 H 0.94539 0.45546 0.80391 0.0
H737 H 0.99281 0.3923 0.77357 0.0
C738 C 0.01639 0.42158 0.7166 0.0
C739 C 0.02402 0.44898 0.69172 0.0
C740 C 0.94529 0.43832 0.82596 0.0
C741 C 0.98478 0.43201 0.77239 0.0
C742 C 0.92632 0.4306 0.86516 0.0
C743 C 0.92454 0.4083 0.89619 0.0
C744 C 0.96351 0.42387 0.81546 0.0
C745 C 0.94338 0.39454 0.88424 0.0
C746 C -0.00247 0.41337 0.75615 0.0
C747 C 0.01085 0.46694 0.70975 0.0
N748 N 0.96137 0.40225 0.84584 0.0
N749 N 0.99232 0.45819 0.74757 0.0
H750 H 0.49588 0.97441 0.25755 0.0
H751 H 0.54743 0.98005 0.99988 0.0
H752 H 0.48032 0.89013 0.19078 0.0
H753 H 0.54342 0.05614 1.06478 0.0
H754 H 0.52705 0.94817 1.06742 0.0
H755 H 0.51605 0.00412 0.18934 0.0
C756 C 0.49639 0.96166 0.22874 0.0
C757 C 0.48551 0.92871 0.23203 0.0
C758 C 0.53081 0.97192 1.06736 0.0
C759 C 0.51046 0.96469 0.14987 0.0
C760 C 0.54274 0.99055 1.02815 0.0
C761 C 0.54764 0.02172 1.02475 0.0
C762 C 0.52404 0.98408 1.10575 0.0
C763 C 0.54036 0.03268 1.06407 0.0
C764 C 0.50824 0.97915 0.18899 0.0
C765 C 0.48767 0.91499 0.19161 0.0
N766 N 0.52975 0.01455 1.10183 0.0
N767 N 0.49976 0.9327 0.15338 0.0
H768 H 0.621 0.57989 0.55038 0.0
H769 H 0.46991 0.54145 0.39107 0.0
H770 H 0.52781 0.49901 0.56851 0.0
H771 H 0.56656 0.60349 0.35082 0.0
H772 H 0.48973 0.52989 0.45847 0.0
H773 H 0.60194 0.59258 0.48278 0.0
C774 C 0.5965 0.56465 0.54082 0.0
C775 C 0.57656 0.53783 0.56699 0.0
C776 C 0.50684 0.54606 0.43512 0.0
C777 C 0.55347 0.55324 0.48695 0.0
C778 C 0.49532 0.55293 0.39591 0.0
C779 C 0.51601 0.57382 0.36321 0.0
C780 C 0.53988 0.56024 0.44402 0.0
C781 C 0.54892 0.58724 0.37365 0.0
C782 C 0.58545 0.57204 0.50144 0.0
C783 C 0.54487 0.51977 0.55074 0.0
N784 N 0.55941 0.58053 0.41209 0.0
N785 N 0.53472 0.52784 0.51327 0.0
H786 H 0.01745 0.51781 0.91797 0.0
H787 H 0.00279 0.57514 0.67265 0.0
H788 H 0.09808 0.59698 0.85809 0.0
H789 H 0.93966 0.4814 0.72027 0.0
H790 H 0.03536 0.58649 0.73957 0.0
H791 H 0.98787 0.50746 0.84932 0.0
C792 C 0.02944 0.53318 0.89055 0.0
C793 C 0.06139 0.55837 0.89583 0.0
C794 C 0.01435 0.56339 0.73576 0.0
C795 C 0.02542 0.54654 0.81339 0.0
C796 C -0.00473 0.55677 0.69691 0.0
C797 C 0.96743 0.5269 0.68885 0.0
C798 C 0.00594 0.54053 0.76926 0.0
C799 C 0.96035 0.5048 0.72325 0.0
C800 C 0.01205 0.52708 0.85055 0.0
C801 C 0.07412 0.57694 0.85724 0.0
N802 N 0.97871 0.51209 0.76085 0.0
N803 N 0.0564 0.57092 0.81893 0.0
H804 H 0.44192 0.03388 0.41743 0.0
H805 H 0.40087 0.90421 0.29099 0.0
H806 H 0.47563 0.0122 0.29867 0.0
H807 H 0.37511 0.90924 0.42434 0.0
H808 H 0.37668 0.93542 0.26962 0.0
H809 H 0.38749 0.99464 0.3976 0.0
C810 C 0.43781 0.02056 0.38735 0.0
C811 C 0.46328 0.02502 0.36068 0.0
C812 C 0.37589 0.92924 0.30369 0.0
C813 C 0.40122 0.98043 0.33762 0.0
C814 C 0.39088 0.9126 0.31582 0.0
C815 C 0.39488 0.90936 0.36048 0.0
C816 C 0.3732 0.94791 0.33669 0.0
C817 C 0.37733 0.91624 0.39047 0.0
C818 C 0.40676 -0.00101 0.37533 0.0
C819 C 0.45674 0.00831 0.32129 0.0
N820 N 0.36557 0.93472 0.37728 0.0
N821 N 0.42641 0.98669 0.31107 0.0
H822 H 0.48493 0.46269 0.72673 0.0
H823 H 0.52005 0.5463 0.72846 0.0
H824 H 0.41497 0.45896 0.81705 0.0
H825 H 0.59097 0.54939 0.81433 0.0
H826 H 0.48453 0.53248 0.79136 0.0
H827 H 0.52125 0.47637 0.78821 0.0
C828 C 0.47694 0.46434 0.75925 0.0
C829 C 0.44844 0.46414 0.76572 0.0
C830 C 0.50824 0.53655 0.79667 0.0
C831 C 0.49197 0.48695 0.83109 0.0
C832 C 0.52849 0.54462 0.76035 0.0
C833 C 0.55692 0.54452 0.76496 0.0
C834 C 0.51417 0.52154 0.83164 0.0
C835 C 0.56723 0.54473 0.80798 0.0
C836 C 0.4976 0.47226 0.79473 0.0
C837 C 0.43868 0.46385 0.80938 0.0
N838 N 0.54499 0.53085 0.83989 0.0
N839 N 0.46125 0.47759 0.84069 0.0
H840 H 0.95307 0.41344 1.08666 0.0
H841 H 0.07889 0.49788 0.95305 0.0
H842 H 0.96662 0.45912 0.96231 0.0
H843 H 0.07939 0.46754 1.08431 0.0
H844 H 0.04485 0.44236 0.93168 0.0
H845 H 0.99312 0.39968 1.06648 0.0
C846 C 0.9647 0.4207 1.05518 0.0
C847 C 0.95729 0.43816 1.02662 0.0
C848 C 0.05284 0.44785 0.96523 0.0
C849 C 0.00299 0.42246 1.0032 0.0
C850 C 0.07121 0.47958 0.97751 0.0
C851 C 0.07707 0.48712 1.02211 0.0
C852 C 0.03533 0.42683 0.99896 0.0
C853 C 0.07073 0.46267 1.05106 0.0
C854 C 0.98682 0.41207 1.04318 0.0
C855 C 0.97238 0.44651 0.98592 0.0
N856 N 0.05045 0.43237 1.03815 0.0
N857 N -0.00543 0.43868 0.97553 0.0
H858 H 0.04542 0.44611 0.44498 0.0
H859 H 0.02124 0.53689 0.51837 0.0
H860 H 0.96704 0.43725 0.51847 0.0
H861 H 0.94423 0.51933 0.43436 0.0
H862 H 0.04771 0.53002 0.45398 0.0
H863 H 0.03679 0.47673 0.38927 0.0
C864 C 0.02602 0.45043 0.44918 0.0
C865 C 0.01177 0.44728 0.49042 0.0
C866 C 0.02428 0.52688 0.45026 0.0
C867 C -0.00325 0.47429 0.424 0.0
C868 C 0.00947 0.53141 0.487 0.0
C869 C 0.97746 0.52283 0.48386 0.0
C870 C 0.00412 0.50706 0.41677 0.0
C871 C 0.96544 0.51886 0.44113 0.0
C872 C 0.02042 0.4667 0.41647 0.0
C873 C 0.98183 0.44431 0.48945 0.0
N874 N 0.97823 0.50965 0.40864 0.0
N875 N 0.97555 0.45911 0.45709 0.0
H876 H 0.4535 0.01956 0.85148 0.0
H877 H 0.56408 0.03924 0.77062 0.0
H878 H 0.38742 0.94049 0.77406 0.0
H879 H 0.49701 0.96351 0.84921 0.0
H880 H 0.52261 0.02861 0.71714 0.0
H881 H 0.48511 0.04213 0.78507 0.0
C882 C 0.44525 0.00668 0.82092 0.0
C883 C 0.42058 0.97505 0.8204 0.0
C884 C 0.51723 0.01319 0.74494 0.0
C885 C 0.46058 -0.00258 0.75013 0.0
C886 C 0.54034 0.02023 0.77664 0.0
C887 C 0.5308 0.00723 0.81862 0.0
C888 C 0.48605 0.98975 0.75452 0.0
C889 C 0.50365 0.97734 0.8196 0.0
C890 C 0.46361 0.01926 0.78292 0.0
C891 C 0.41005 0.96157 0.77863 0.0
N892 N 0.48141 0.96969 0.78808 0.0
N893 N 0.43108 0.97183 0.7448 0.0
H894 H 0.42495 0.49823 0.14118 0.0
H895 H 0.56973 0.50721 0.12938 0.0
H896 H 0.52293 0.56577 0.16877 0.0
H897 H 0.47452 0.43591 0.16454 0.0
H898 H 0.54904 0.51716 1.06285 0.0
H899 H 0.44153 0.48247 1.07478 0.0
C900 C 0.45004 0.50957 0.13344 0.0
C901 C 0.47309 0.53069 0.16298 0.0
C902 C 0.5327 0.49858 1.08453 0.0
C903 C 0.49177 0.51233 1.08814 0.0
C904 C 0.54436 0.49415 0.12367 0.0
C905 C 0.52302 0.47401 0.15571 0.0
C906 C 0.49995 0.48728 1.08245 0.0
C907 C 0.49114 0.45489 0.14385 0.0
C908 C 0.45936 0.50167 1.09444 0.0
C909 C 0.50475 0.54693 0.14929 0.0
N910 N 0.4806 0.4611 1.10652 0.0
N911 N 0.51321 0.53768 1.1123 0.0
H912 H 0.2818 -0.00303 0.75618 0.0
H913 H 0.30124 0.99278 0.50023 0.0
H914 H 0.25261 0.91199 0.68026 0.0
H915 H 0.34437 0.07733 0.58 0.0
H916 H 0.26766 0.96319 0.56205 0.0
H917 H 0.28775 0.02572 0.68899 0.0
C918 C 0.27564 0.98409 0.72547 0.0
C919 C 0.26748 0.95222 0.72362 0.0
C920 C 0.28399 0.98836 0.56575 0.0
C921 C 0.27505 0.98519 0.64666 0.0
C922 C 0.30308 0.00528 0.53045 0.0
C923 C 0.32608 0.03737 0.53545 0.0
C924 C 0.2881 0.00366 0.60624 0.0
C925 C 0.32749 0.0524 0.57525 0.0
C926 C 0.27931 0.00061 0.68706 0.0
C927 C 0.25984 0.93679 0.68292 0.0
N928 N 0.30912 0.0353 0.60939 0.0
N929 N 0.26447 0.95359 0.64588 0.0
H930 H 0.30749 0.30652 1.07272 0.0
H931 H 0.26298 0.32339 0.87069 0.0
H932 H 0.38342 0.30451 1.00217 0.0
H933 H 0.32266 0.28902 0.81944 0.0
H934 H 0.26793 0.30699 0.94298 0.0
H935 H 0.27585 0.29048 1.00619 0.0
C936 C 0.31739 0.30245 1.04325 0.0
C937 C 0.34853 0.30789 1.04252 0.0
C938 C 0.27897 0.30168 0.91603 0.0
C939 C 0.31299 0.29067 0.96585 0.0
C940 C 0.276 0.31104 0.87438 0.0
C941 C 0.29322 0.30839 0.83932 0.0
C942 C 0.29951 0.28979 0.92248 0.0
C943 C 0.30978 0.29232 0.846 0.0
C944 C 0.29943 0.29361 1.00505 0.0
C945 C 0.35998 0.30178 1.00372 0.0
N946 N 0.31325 0.28441 0.88705 0.0
N947 N 0.3424 0.29396 0.96682 0.0
H948 H 0.03529 0.36402 0.15197 0.0
H949 H 0.01331 0.29873 0.38398 0.0
H950 H 0.95798 0.27137 0.18485 0.0
H951 H 0.10517 0.37012 0.33566 0.0
H952 H -0.00397 0.28234 0.30919 0.0
H953 H 0.06501 0.36205 0.21451 0.0
C954 C 0.02505 0.3429 0.17182 0.0
C955 C -0.0058 0.31796 0.16389 0.0
C956 C 0.02025 0.30105 0.3149 0.0
C957 C 0.02735 0.31583 0.23599 0.0
C958 C 0.03024 0.31037 0.35778 0.0
C959 C 0.06047 0.33651 0.36613 0.0
C960 C 0.04042 0.3184 0.28022 0.0
C961 C 0.08124 0.35062 0.33064 0.0
C962 C 0.04194 0.3417 0.20746 0.0
C963 C 0.98175 0.29107 0.19027 0.0
N964 N 0.07056 0.34194 0.28916 0.0
N965 N -0.00194 0.29101 0.22595 0.0
H966 H 0.72924 0.08063 0.68953 0.0
H967 H 0.67055 0.03275 0.48959 0.0
H968 H 0.66511 0.9828 0.72154 0.0
H969 H 0.64014 0.93698 0.5279 0.0
H970 H 0.70304 0.05212 0.55395 0.0
H971 H 0.73186 0.06481 0.61439 0.0
C972 C 0.71605 0.05576 0.68077 0.0
C973 C 0.69608 0.03309 0.7113 0.0
C974 C 0.69039 0.0269 0.54792 0.0
C975 C 0.69764 0.01492 0.62516 0.0
C976 C 0.67163 0.01571 0.51065 0.0
C977 C 0.65164 0.98306 0.50392 0.0
C978 C 0.68884 0.00526 0.57907 0.0
C979 C 0.65419 0.96233 0.5327 0.0
C980 C 0.71729 0.04672 0.63776 0.0
C981 C 0.68038 0.00112 0.69883 0.0
N982 N 0.67165 0.97374 0.56971 0.0
N983 N 0.68088 0.99306 0.65642 0.0
H984 H 0.61975 0.70104 1.00316 0.0
H985 H 0.69462 0.71003 0.81397 0.0
H986 H 0.69365 0.69373 1.06875 0.0
H987 H 0.74484 0.67521 0.88913 0.0
H988 H 0.68401 0.73044 0.88063 0.0
H989 H 0.65043 0.71423 0.93607 0.0
C990 C 0.64277 0.70276 1.00349 0.0
C991 C 0.65383 0.69555 1.04123 0.0
C992 C 0.69738 0.7184 0.88277 0.0
C993 C 0.68992 0.71161 0.96456 0.0
C994 C 0.70412 0.70733 0.8444 0.0
C995 C 0.71952 0.68971 0.84627 0.0
C996 C 0.70544 0.71102 0.92315 0.0
C997 C 0.73171 0.68752 0.88653 0.0
C998 C 0.66071 0.71088 0.96518 0.0
C999 C 0.68412 0.6989 1.04026 0.0
N1000 N 0.72365 0.69723 0.92359 0.0
N1001 N 0.70082 0.70607 1.00228 0.0
H1002 H 0.95929 0.64352 0.15585 0.0
H1003 H 0.00316 0.692 0.39768 0.0
H1004 H 0.0553 0.70374 0.20142 0.0
H1005 H 0.90734 0.63715 0.34928 0.0
H1006 H 0.02149 0.71174 0.32417 0.0
H1007 H 0.93962 0.65694 0.22071 0.0
C1008 C 0.97642 0.66038 0.17874 0.0
C1009 C 0.00904 0.67149 0.1739 0.0
C1010 C -0.00368 0.69604 0.32972 0.0
C1011 C 0.98638 0.68593 0.24943 0.0
C1012 C 0.98579 0.68486 0.37184 0.0
C1013 C 0.95382 0.66207 0.37926 0.0
C1014 C 0.97476 0.68394 0.29483 0.0
C1015 C 0.9324 0.65383 0.34458 0.0
C1016 C 0.96506 0.66786 0.21617 0.0
C1017 C 0.02986 0.69343 0.20478 0.0
N1018 N 0.94337 0.66416 0.30365 0.0
N1019 N 0.01814 0.6992 0.24192 0.0
H1020 H 0.57568 0.10746 0.50153 0.0
H1021 H 0.52694 0.10384 0.7594 0.0
H1022 H 0.4908 0.10671 0.54259 0.0
H1023 H 0.60553 0.09277 0.71949 0.0
H1024 H 0.5152 0.10688 0.68229 0.0
H1025 H 0.58793 0.1042 0.57866 0.0
C1026 C 0.55939 0.10672 0.52637 0.0
C1027 C 0.53183 0.10752 0.51337 0.0
C1028 C 0.53517 0.10394 0.68991 0.0
C1029 C 0.5465 0.10376 0.6057 0.0
C1030 C 0.5422 0.10229 0.73483 0.0
C1031 C 0.56782 0.09826 0.74825 0.0
C1032 C 0.55372 0.10186 0.65563 0.0
C1033 C 0.58572 0.09612 0.7126 0.0
C1034 C 0.56659 0.10477 0.57123 0.0
C1035 C 0.51233 0.10628 0.54919 0.0
N1036 N 0.5785 0.09803 0.66912 0.0
N1037 N 0.51999 0.10462 0.59247 0.0
H1038 H 0.3656 0.48088 0.88166 0.0
H1039 H 0.49913 0.60195 1.05873 0.0
H1040 H 0.45507 0.56067 0.84319 0.0
H1041 H 0.40182 0.54063 1.09667 0.0
H1042 H 0.48464 0.58409 0.98227 0.0
H1043 H 0.37871 0.49816 0.9591 0.0
C1044 C 0.38805 0.50197 0.88883 0.0
C1045 C 0.40879 0.519 0.85357 0.0
C1046 C 0.46619 0.57444 1.00699 0.0
C1047 C 0.42481 0.53945 0.9459 0.0
C1048 C 0.47456 0.58488 1.05155 0.0
C1049 C 0.45198 0.57373 1.08634 0.0
C1050 C 0.43463 0.55156 0.9949 0.0
C1051 C 0.42059 0.55091 1.07246 0.0
C1052 C 0.39563 0.51204 0.93389 0.0
C1053 C 0.43761 0.54628 0.86755 0.0
N1054 N 0.41319 0.5408 1.02912 0.0
N1055 N 0.44453 0.55516 0.91121 0.0
H1056 H 0.88639 0.3841 0.20841 0.0
H1057 H 0.88979 0.51233 0.38728 0.0
H1058 H 0.86862 0.45791 0.17015 0.0
H1059 H 0.87986 0.42333 0.42421 0.0
H1060 H 0.88659 0.4963 0.30937 0.0
H1061 H 0.88859 0.40064 0.2855 0.0
C1062 C 0.88294 0.40384 0.21562 0.0
C1063 C 0.87708 0.41906 0.1806 0.0
C1064 C 0.88498 0.48008 0.33435 0.0
C1065 C 0.88025 0.4393 0.27262 0.0
C1066 C 0.88677 0.48934 0.37965 0.0
C1067 C 0.88472 0.46939 0.41454 0.0
C1068 C 0.88174 0.45051 0.32185 0.0
C1069 C 0.88121 0.43995 0.40008 0.0
C1070 C 0.88421 0.41341 0.2605 0.0
C1071 C 0.87303 0.44476 0.19451 0.0
N1072 N 0.8801 0.43185 0.35621 0.0
N1073 N 0.87486 0.45388 0.23819 0.0
H1074 H 0.47887 0.90552 0.53946 0.0
H1075 H 0.34458 0.87461 0.72531 0.0
H1076 H 0.37968 0.84786 0.50913 0.0
H1077 H 0.437 0.89055 0.75832 0.0
H1078 H 0.3567 0.87133 0.64696 0.0
H1079 H 0.46471 0.90683 0.61678 0.0
C1080 C 0.45398 0.89299 0.54851 0.0
C1081 C 0.43085 0.87623 0.51564 0.0
C1082 C 0.37444 0.8755 0.67119 0.0
C1083 C 0.41373 0.87859 0.60792 0.0
C1084 C 0.36744 0.87743 0.71672 0.0
C1085 C 0.38931 0.88247 0.75066 0.0
C1086 C 0.40425 0.8796 0.65745 0.0
C1087 C 0.41866 0.88615 0.73499 0.0
C1088 C 0.44581 0.8938 0.59353 0.0
C1089 C 0.39895 0.86092 0.53182 0.0
N1090 N 0.4251 0.885 0.69089 0.0
N1091 N 0.39161 0.86275 0.57556 0.0
H1092 H 0.6377 0.52533 0.87615 0.0
H1093 H 0.50484 0.40545 1.05473 0.0
H1094 H 0.54767 0.44567 0.83906 0.0
H1095 H 0.60167 0.46965 1.09144 0.0
H1096 H 0.51904 0.42237 0.97803 0.0
H1097 H 0.62477 0.50892 0.95371 0.0
C1098 C 0.61519 0.50442 0.88366 0.0
C1099 C 0.59422 0.48715 0.8488 0.0
C1100 C 0.53743 0.43283 1.00255 0.0
C1101 C 0.57843 0.46775 0.94112 0.0
C1102 C 0.52924 0.42293 1.0472 0.0
C1103 C 0.55181 0.43525 1.08166 0.0
C1104 C 0.56877 0.4562 0.99013 0.0
C1105 C 0.58296 0.45854 1.06745 0.0
C1106 C 0.6077 0.49487 0.92875 0.0
C1107 C 0.5653 0.46019 0.86313 0.0
N1108 N 0.59018 0.46803 1.02404 0.0
N1109 N 0.55851 0.45177 0.90682 0.0
H1110 H 0.10439 0.55533 0.42764 0.0
H1111 H 0.08249 0.57551 0.20365 0.0
H1112 H 0.10743 0.47258 0.38744 0.0
H1113 H 0.141 0.5351 0.1752 0.0
H1114 H 0.08048 0.56102 0.28084 0.0
H1115 H 0.10634 0.56986 0.35078 0.0
C1116 C 0.10563 0.53995 0.40305 0.0
C1117 C 0.10565 0.51222 0.41655 0.0
C1118 C 0.094 0.55527 0.25821 0.0
C1119 C 0.10852 0.52994 0.32352 0.0
C1120 C 0.09515 0.56365 0.21309 0.0
C1121 C 0.11233 0.55735 0.18062 0.0
C1122 C 0.10943 0.53915 0.27342 0.0
C1123 C 0.12765 0.54131 0.19749 0.0
C1124 C 0.10661 0.54844 0.3581 0.0
C1125 C 0.10735 0.49416 0.38062 0.0
N1126 N 0.12559 0.53278 0.24142 0.0
N1127 N 0.10899 0.50333 0.33703 0.0
loop_
_geom_bond_atom_site_label_1
_geom_bond_atom_site_label_2
_geom_bond_distance
_geom_bond_site_symmetry_2
_ccdc_geom_bond_type
Sm0 C2 2.846 . S
Sm0 O20 2.543 . S
Sm0 O21 2.450 . S
Sm0 O22 2.681 . S
Sm0 O23 2.464 . S
Sm0 O24 2.396 . S
Sm0 O28 2.386 . S
Sm0 O31 2.408 . S
Sm1 C11 2.846 . S
Sm1 O22 2.386 . S
Sm1 O25 2.408 . S
Sm1 O26 2.543 . S
Sm1 O27 2.450 . S
Sm1 O28 2.681 . S
Sm1 O29 2.464 . S
Sm1 O30 2.396 . S
C2 Sm0 2.846 . S
C2 C3 1.506 . S
C2 O20 1.261 . S
C2 O21 1.242 . S
C3 C2 1.506 . S
C3 C4 1.358 . S
C3 C8 1.382 . S
C4 C3 1.358 . S
C4 C5 1.385 . S
C4 H32 0.930 . S
C5 C4 1.385 . S
C5 C6 1.395 . S
C5 H33 0.929 . S
C6 C5 1.395 . S
C6 C7 1.335 . S
C7 C6 1.335 . S
C7 C8 1.398 . S
C7 H34 0.930 . S
C8 C3 1.382 . S
C8 C7 1.398 . S
C8 H35 0.929 . S
C9 O22 1.271 . S
C9 O23 1.251 . S
C10 O24 1.252 . S
C10 O25 1.272 . S
C11 Sm1 2.846 . S
C11 C12 1.506 . S
C11 O26 1.261 . S
C11 O27 1.242 . S
C12 C11 1.506 . S
C12 C13 1.358 . S
C12 C17 1.382 . S
C13 C12 1.358 . S
C13 C14 1.385 . S
C13 H36 0.930 . S
C14 C13 1.385 . S
C14 C15 1.395 . S
C14 H37 0.929 . S
C15 C14 1.395 . S
C15 C16 1.335 . S
C16 C15 1.335 . S
C16 C17 1.398 . S
C16 H38 0.930 . S
C17 C12 1.382 . S
C17 C16 1.398 . S
C17 H39 0.929 . S
C18 O28 1.271 . S
C18 O29 1.251 . S
C19 O30 1.252 . S
C19 O31 1.272 . S
O20 Sm0 2.543 . S
O20 C2 1.261 . S
O21 Sm0 2.450 . S
O21 C2 1.242 . S
O22 Sm0 2.681 . S
O22 Sm1 2.386 . S
O22 C9 1.271 . S
O23 Sm0 2.464 . S
O23 C9 1.251 . S
O24 Sm0 2.396 . S
O24 C10 1.252 . S
O25 Sm1 2.408 . S
O25 C10 1.272 . S
O26 Sm1 2.543 . S
O26 C11 1.261 . S
O27 Sm1 2.450 . S
O27 C11 1.242 . S
O28 Sm0 2.386 . S
O28 Sm1 2.681 . S
O28 C18 1.271 . S
O29 Sm1 2.464 . S
O29 C18 1.251 . S
O30 Sm1 2.396 . S
O30 C19 1.252 . S
O31 Sm0 2.408 . S
O31 C19 1.272 . S
H32 C4 0.930 . S
H33 C5 0.929 . S
H34 C7 0.930 . S
H35 C8 0.929 . S
H36 C13 0.930 . S
H37 C14 0.929 . S
H38 C16 0.930 . S
H39 C17 0.929 . S
Sm40 C42 2.846 . S
Sm40 O60 2.543 . S
Sm40 O61 2.450 . S
Sm40 O62 2.681 . S
Sm40 O63 2.464 . S
Sm40 O64 2.396 . S
Sm40 O68 2.386 . S
Sm40 O71 2.408 . S
Sm41 C51 2.846 . S
Sm41 O62 2.386 . S
Sm41 O65 2.408 . S
Sm41 O66 2.543 . S
Sm41 O67 2.450 . S
Sm41 O68 2.681 . S
Sm41 O69 2.464 . S
Sm41 O70 2.396 . S
C42 Sm40 2.846 . S
C42 C43 1.506 . S
C42 O60 1.261 . S
C42 O61 1.242 . S
C43 C42 1.506 . S
C43 C44 1.358 . S
C43 C48 1.382 . S
C44 C43 1.358 . S
C44 C45 1.385 . S
C44 H72 0.930 . S
C45 C44 1.385 . S
C45 C46 1.395 . S
C45 H73 0.929 . S
C46 C45 1.395 . S
C46 C47 1.335 . S
C47 C46 1.335 . S
C47 C48 1.398 . S
C47 H74 0.930 . S
C48 C43 1.382 . S
C48 C47 1.398 . S
C48 H75 0.929 . S
C49 O62 1.271 . S
C49 O63 1.251 . S
C50 O64 1.252 . S
C50 O65 1.272 . S
C51 Sm41 2.846 . S
C51 C52 1.506 . S
C51 O66 1.261 . S
C51 O67 1.242 . S
C52 C51 1.506 . S
C52 C53 1.358 . S
C52 C57 1.382 . S
C53 C52 1.358 . S
C53 C54 1.385 . S
C53 H76 0.930 . S
C54 C53 1.385 . S
C54 C55 1.395 . S
C54 H77 0.929 . S
C55 C54 1.395 . S
C55 C56 1.335 . S
C56 C55 1.335 . S
C56 C57 1.398 . S
C56 H78 0.930 . S
C57 C52 1.382 . S
C57 C56 1.398 . S
C57 H79 0.929 . S
C58 O68 1.271 . S
C58 O69 1.251 . S
C59 O70 1.252 . S
C59 O71 1.272 . S
O60 Sm40 2.543 . S
O60 C42 1.261 . S
O61 Sm40 2.450 . S
O61 C42 1.242 . S
O62 Sm40 2.681 . S
O62 Sm41 2.386 . S
O62 C49 1.271 . S
O63 Sm40 2.464 . S
O63 C49 1.251 . S
O64 Sm40 2.396 . S
O64 C50 1.252 . S
O65 Sm41 2.408 . S
O65 C50 1.272 . S
O66 Sm41 2.543 . S
O66 C51 1.261 . S
O67 Sm41 2.450 . S
O67 C51 1.242 . S
O68 Sm40 2.386 . S
O68 Sm41 2.681 . S
O68 C58 1.271 . S
O69 Sm41 2.464 . S
O69 C58 1.251 . S
O70 Sm41 2.396 . S
O70 C59 1.252 . S
O71 Sm40 2.408 . S
O71 C59 1.272 . S
H72 C44 0.930 . S
H73 C45 0.929 . S
H74 C47 0.930 . S
H75 C48 0.929 . S
H76 C53 0.930 . S
H77 C54 0.929 . S
H78 C56 0.930 . S
H79 C57 0.929 . S
Sm80 C82 2.846 1_556 S
Sm80 O100 2.543 . S
Sm80 O101 2.450 . S
Sm80 O102 2.681 . S
Sm80 O103 2.464 . S
Sm80 O104 2.396 . S
Sm80 O108 2.386 . S
Sm80 O111 2.408 . S
Sm81 C91 2.846 . S
Sm81 O102 2.386 . S
Sm81 O105 2.408 . S
Sm81 O106 2.543 . S
Sm81 O107 2.450 . S
Sm81 O108 2.681 . S
Sm81 O109 2.464 . S
Sm81 O110 2.396 . S
C82 Sm80 2.846 1_554 S
C82 C83 1.506 . S
C82 O100 1.261 1_554 S
C82 O101 1.242 1_554 S
C83 C82 1.506 . S
C83 C84 1.358 . S
C83 C88 1.382 . S
C84 C83 1.358 . S
C84 C85 1.385 . S
C84 H112 0.930 . S
C85 C84 1.385 . S
C85 C86 1.395 . S
C85 H113 0.929 . S
C86 C85 1.395 . S
C86 C87 1.335 . S
C87 C86 1.335 . S
C87 C88 1.398 . S
C87 H114 0.930 . S
C88 C83 1.382 . S
C88 C87 1.398 . S
C88 H115 0.929 . S
C89 O102 1.271 . S
C89 O103 1.251 . S
C90 O104 1.252 . S
C90 O105 1.272 . S
C91 Sm81 2.846 . S
C91 C92 1.506 . S
C91 O106 1.261 . S
C91 O107 1.242 . S
C92 C91 1.506 . S
C92 C93 1.358 . S
C92 C97 1.382 . S
C93 C92 1.358 . S
C93 C94 1.385 . S
C93 H116 0.930 . S
C94 C93 1.385 . S
C94 C95 1.395 . S
C94 H117 0.929 . S
C95 C94 1.395 . S
C95 C96 1.335 . S
C96 C95 1.335 . S
C96 C97 1.398 . S
C96 H118 0.930 . S
C97 C92 1.382 . S
C97 C96 1.398 . S
C97 H119 0.929 . S
C98 O108 1.271 . S
C98 O109 1.251 . S
C99 O110 1.252 . S
C99 O111 1.272 . S
O100 Sm80 2.543 . S
O100 C82 1.261 1_556 S
O101 Sm80 2.450 . S
O101 C82 1.242 1_556 S
O102 Sm80 2.681 . S
O102 Sm81 2.386 . S
O102 C89 1.271 . S
O103 Sm80 2.464 . S
O103 C89 1.251 . S
O104 Sm80 2.396 . S
O104 C90 1.252 . S
O105 Sm81 2.408 . S
O105 C90 1.272 . S
O106 Sm81 2.543 . S
O106 C91 1.261 . S
O107 Sm81 2.450 . S
O107 C91 1.242 . S
O108 Sm80 2.386 . S
O108 Sm81 2.681 . S
O108 C98 1.271 . S
O109 Sm81 2.464 . S
O109 C98 1.251 . S
O110 Sm81 2.396 . S
O110 C99 1.252 . S
O111 Sm80 2.408 . S
O111 C99 1.272 . S
H112 C84 0.930 . S
H113 C85 0.929 . S
H114 C87 0.930 . S
H115 C88 0.929 . S
H116 C93 0.930 . S
H117 C94 0.929 . S
H118 C96 0.930 . S
H119 C97 0.929 . S
Sm120 C122 2.846 . S
Sm120 O140 2.543 . S
Sm120 O141 2.450 . S
Sm120 O142 2.681 . S
Sm120 O143 2.464 . S
Sm120 O144 2.396 . S
Sm120 O148 2.386 . S
Sm120 O151 2.408 . S
Sm121 C131 2.846 . S
Sm121 O142 2.386 . S
Sm121 O145 2.408 . S
Sm121 O146 2.543 . S
Sm121 O147 2.450 . S
Sm121 O148 2.681 . S
Sm121 O149 2.464 . S
Sm121 O150 2.396 . S
C122 Sm120 2.846 . S
C122 C123 1.506 . S
C122 O140 1.261 . S
C122 O141 1.242 . S
C123 C122 1.506 . S
C123 C124 1.358 . S
C123 C128 1.382 . S
C124 C123 1.358 . S
C124 C125 1.385 . S
C124 H152 0.930 . S
C125 C124 1.385 . S
C125 C126 1.395 . S
C125 H153 0.929 . S
C126 C125 1.395 . S
C126 C127 1.335 . S
C127 C126 1.335 . S
C127 C128 1.398 . S
C127 H154 0.930 . S
C128 C123 1.382 . S
C128 C127 1.398 . S
C128 H155 0.929 . S
C129 O142 1.271 . S
C129 O143 1.251 . S
C130 O144 1.252 . S
C130 O145 1.272 . S
C131 Sm121 2.846 . S
C131 C132 1.506 . S
C131 O146 1.261 . S
C131 O147 1.242 . S
C132 C131 1.506 . S
C132 C133 1.358 . S
C132 C137 1.382 . S
C133 C132 1.358 . S
C133 C134 1.385 . S
C133 H156 0.930 . S
C134 C133 1.385 . S
C134 C135 1.395 . S
C134 H157 0.929 . S
C135 C134 1.395 . S
C135 C136 1.335 . S
C136 C135 1.335 . S
C136 C137 1.398 . S
C136 H158 0.930 . S
C137 C132 1.382 . S
C137 C136 1.398 . S
C137 H159 0.929 . S
C138 O148 1.271 . S
C138 O149 1.251 . S
C139 O150 1.252 . S
C139 O151 1.272 . S
O140 Sm120 2.543 . S
O140 C122 1.261 . S
O141 Sm120 2.450 . S
O141 C122 1.242 . S
O142 Sm120 2.681 . S
O142 Sm121 2.386 . S
O142 C129 1.271 . S
O143 Sm120 2.464 . S
O143 C129 1.251 . S
O144 Sm120 2.396 . S
O144 C130 1.252 . S
O145 Sm121 2.408 . S
O145 C130 1.272 . S
O146 Sm121 2.543 . S
O146 C131 1.261 . S
O147 Sm121 2.450 . S
O147 C131 1.242 . S
O148 Sm120 2.386 . S
O148 Sm121 2.681 . S
O148 C138 1.271 . S
O149 Sm121 2.464 . S
O149 C138 1.251 . S
O150 Sm121 2.396 . S
O150 C139 1.252 . S
O151 Sm120 2.408 . S
O151 C139 1.272 . S
H152 C124 0.930 . S
H153 C125 0.929 . S
H154 C127 0.930 . S
H155 C128 0.929 . S
H156 C133 0.930 . S
H157 C134 0.929 . S
H158 C136 0.930 . S
H159 C137 0.929 . S
Sm160 C162 2.846 . S
Sm160 O180 2.543 . S
Sm160 O181 2.450 . S
Sm160 O182 2.681 . S
Sm160 O183 2.464 . S
Sm160 O184 2.396 . S
Sm160 O188 2.386 . S
Sm160 O191 2.408 . S
Sm161 C171 2.846 . S
Sm161 O182 2.386 . S
Sm161 O185 2.408 . S
Sm161 O186 2.543 . S
Sm161 O187 2.450 . S
Sm161 O188 2.681 . S
Sm161 O189 2.464 . S
Sm161 O190 2.396 . S
C162 Sm160 2.846 . S
C162 C163 1.506 . S
C162 O180 1.261 . S
C162 O181 1.242 . S
C163 C162 1.506 . S
C163 C164 1.358 . S
C163 C168 1.382 . S
C164 C163 1.358 . S
C164 C165 1.385 . S
C164 H192 0.930 . S
C165 C164 1.385 . S
C165 C166 1.395 . S
C165 H193 0.929 . S
C166 C165 1.395 . S
C166 C167 1.335 . S
C167 C166 1.335 . S
C167 C168 1.398 . S
C167 H194 0.930 . S
C168 C163 1.382 . S
C168 C167 1.398 . S
C168 H195 0.929 . S
C169 O182 1.271 . S
C169 O183 1.251 . S
C170 O184 1.252 . S
C170 O185 1.272 . S
C171 Sm161 2.846 . S
C171 C172 1.506 . S
C171 O186 1.261 . S
C171 O187 1.242 . S
C172 C171 1.506 . S
C172 C173 1.358 . S
C172 C177 1.382 . S
C173 C172 1.358 . S
C173 C174 1.385 . S
C173 H196 0.930 . S
C174 C173 1.385 . S
C174 C175 1.395 . S
C174 H197 0.929 . S
C175 C174 1.395 . S
C175 C176 1.335 . S
C176 C175 1.335 . S
C176 C177 1.398 . S
C176 H198 0.930 . S
C177 C172 1.382 . S
C177 C176 1.398 . S
C177 H199 0.929 . S
C178 O188 1.271 . S
C178 O189 1.251 . S
C179 O190 1.252 . S
C179 O191 1.272 . S
O180 Sm160 2.543 . S
O180 C162 1.261 . S
O181 Sm160 2.450 . S
O181 C162 1.242 . S
O182 Sm160 2.681 . S
O182 Sm161 2.386 . S
O182 C169 1.271 . S
O183 Sm160 2.464 . S
O183 C169 1.251 . S
O184 Sm160 2.396 . S
O184 C170 1.252 . S
O185 Sm161 2.408 . S
O185 C170 1.272 . S
O186 Sm161 2.543 . S
O186 C171 1.261 . S
O187 Sm161 2.450 . S
O187 C171 1.242 . S
O188 Sm160 2.386 . S
O188 Sm161 2.681 . S
O188 C178 1.271 . S
O189 Sm161 2.464 . S
O189 C178 1.251 . S
O190 Sm161 2.396 . S
O190 C179 1.252 . S
O191 Sm160 2.408 . S
O191 C179 1.272 . S
H192 C164 0.930 . S
H193 C165 0.929 . S
H194 C167 0.930 . S
H195 C168 0.929 . S
H196 C173 0.930 . S
H197 C174 0.929 . S
H198 C176 0.930 . S
H199 C177 0.929 . S
Sm200 C202 2.846 1_556 S
Sm200 O220 2.543 . S
Sm200 O221 2.450 . S
Sm200 O222 2.681 . S
Sm200 O223 2.464 . S
Sm200 O224 2.396 . S
Sm200 O228 2.386 . S
Sm200 O231 2.408 . S
Sm201 C211 2.846 . S
Sm201 O222 2.386 . S
Sm201 O225 2.408 . S
Sm201 O226 2.543 . S
Sm201 O227 2.450 . S
Sm201 O228 2.681 . S
Sm201 O229 2.464 . S
Sm201 O230 2.396 . S
C202 Sm200 2.846 1_554 S
C202 C203 1.506 . S
C202 O220 1.261 1_554 S
C202 O221 1.242 1_554 S
C203 C202 1.506 . S
C203 C204 1.358 . S
C203 C208 1.382 . S
C204 C203 1.358 . S
C204 C205 1.385 . S
C204 H232 0.930 . S
C205 C204 1.385 . S
C205 C206 1.395 . S
C205 H233 0.929 . S
C206 C205 1.395 . S
C206 C207 1.335 . S
C207 C206 1.335 . S
C207 C208 1.398 . S
C207 H234 0.930 . S
C208 C203 1.382 . S
C208 C207 1.398 . S
C208 H235 0.929 . S
C209 O222 1.271 . S
C209 O223 1.251 . S
C210 O224 1.252 . S
C210 O225 1.272 . S
C211 Sm201 2.846 . S
C211 C212 1.506 . S
C211 O226 1.261 . S
C211 O227 1.242 . S
C212 C211 1.506 . S
C212 C213 1.358 . S
C212 C217 1.382 . S
C213 C212 1.358 . S
C213 C214 1.385 . S
C213 H236 0.930 . S
C214 C213 1.385 . S
C214 C215 1.395 . S
C214 H237 0.929 . S
C215 C214 1.395 . S
C215 C216 1.335 . S
C216 C215 1.335 . S
C216 C217 1.398 . S
C216 H238 0.930 . S
C217 C212 1.382 . S
C217 C216 1.398 . S
C217 H239 0.929 . S
C218 O228 1.271 . S
C218 O229 1.251 . S
C219 O230 1.252 . S
C219 O231 1.272 . S
O220 Sm200 2.543 . S
O220 C202 1.261 1_556 S
O221 Sm200 2.450 . S
O221 C202 1.242 1_556 S
O222 Sm200 2.681 . S
O222 Sm201 2.386 . S
O222 C209 1.271 . S
O223 Sm200 2.464 . S
O223 C209 1.251 . S
O224 Sm200 2.396 . S
O224 C210 1.252 . S
O225 Sm201 2.408 . S
O225 C210 1.272 . S
O226 Sm201 2.543 . S
O226 C211 1.261 . S
O227 Sm201 2.450 . S
O227 C211 1.242 . S
O228 Sm200 2.386 . S
O228 Sm201 2.681 . S
O228 C218 1.271 . S
O229 Sm201 2.464 . S
O229 C218 1.251 . S
O230 Sm201 2.396 . S
O230 C219 1.252 . S
O231 Sm200 2.408 . S
O231 C219 1.272 . S
H232 C204 0.930 . S
H233 C205 0.929 . S
H234 C207 0.930 . S
H235 C208 0.929 . S
H236 C213 0.930 . S
H237 C214 0.929 . S
H238 C216 0.930 . S
H239 C217 0.929 . S
Sm240 C242 2.846 . S
Sm240 O260 2.543 . S
Sm240 O261 2.450 . S
Sm240 O262 2.681 . S
Sm240 O263 2.464 . S
Sm240 O264 2.396 . S
Sm240 O268 2.386 . S
Sm240 O271 2.408 . S
Sm241 C251 2.846 . S
Sm241 O262 2.386 . S
Sm241 O265 2.408 . S
Sm241 O266 2.543 . S
Sm241 O267 2.450 . S
Sm241 O268 2.681 . S
Sm241 O269 2.464 . S
Sm241 O270 2.396 . S
C242 Sm240 2.846 . S
C242 C243 1.506 . S
C242 O260 1.261 . S
C242 O261 1.242 . S
C243 C242 1.506 . S
C243 C244 1.358 . S
C243 C248 1.382 . S
C244 C243 1.358 . S
C244 C245 1.385 . S
C244 H272 0.930 . S
C245 C244 1.385 . S
C245 C246 1.395 . S
C245 H273 0.929 . S
C246 C245 1.395 . S
C246 C247 1.335 . S
C247 C246 1.335 . S
C247 C248 1.398 . S
C247 H274 0.930 . S
C248 C243 1.382 . S
C248 C247 1.398 . S
C248 H275 0.929 . S
C249 O262 1.271 . S
C249 O263 1.251 . S
C250 O264 1.252 . S
C250 O265 1.272 . S
C251 Sm241 2.846 . S
C251 C252 1.506 . S
C251 O266 1.261 . S
C251 O267 1.242 . S
C252 C251 1.506 . S
C252 C253 1.358 . S
C252 C257 1.382 . S
C253 C252 1.358 . S
C253 C254 1.385 . S
C253 H276 0.930 . S
C254 C253 1.385 . S
C254 C255 1.395 . S
C254 H277 0.929 . S
C255 C254 1.395 . S
C255 C256 1.335 . S
C256 C255 1.335 . S
C256 C257 1.398 . S
C256 H278 0.930 . S
C257 C252 1.382 . S
C257 C256 1.398 . S
C257 H279 0.929 . S
C258 O268 1.271 . S
C258 O269 1.251 . S
C259 O270 1.252 . S
C259 O271 1.272 . S
O260 Sm240 2.543 . S
O260 C242 1.261 . S
O261 Sm240 2.450 . S
O261 C242 1.242 . S
O262 Sm240 2.681 . S
O262 Sm241 2.386 . S
O262 C249 1.271 . S
O263 Sm240 2.464 . S
O263 C249 1.251 . S
O264 Sm240 2.396 . S
O264 C250 1.252 . S
O265 Sm241 2.408 . S
O265 C250 1.272 . S
O266 Sm241 2.543 . S
O266 C251 1.261 . S
O267 Sm241 2.450 . S
O267 C251 1.242 . S
O268 Sm240 2.386 . S
O268 Sm241 2.681 . S
O268 C258 1.271 . S
O269 Sm241 2.464 . S
O269 C258 1.251 . S
O270 Sm241 2.396 . S
O270 C259 1.252 . S
O271 Sm240 2.408 . S
O271 C259 1.272 . S
H272 C244 0.930 . S
H273 C245 0.929 . S
H274 C247 0.930 . S
H275 C248 0.929 . S
H276 C253 0.930 . S
H277 C254 0.929 . S
H278 C256 0.930 . S
H279 C257 0.929 . S
Sm280 C282 2.846 . S
Sm280 O300 2.543 . S
Sm280 O301 2.450 . S
Sm280 O302 2.681 . S
Sm280 O303 2.464 . S
Sm280 O304 2.396 . S
Sm280 O308 2.386 . S
Sm280 O311 2.408 . S
Sm281 C291 2.846 . S
Sm281 O302 2.386 . S
Sm281 O305 2.408 . S
Sm281 O306 2.543 . S
Sm281 O307 2.450 . S
Sm281 O308 2.681 . S
Sm281 O309 2.464 . S
Sm281 O310 2.396 . S
C282 Sm280 2.846 . S
C282 C283 1.506 . S
C282 O300 1.261 . S
C282 O301 1.242 . S
C283 C282 1.506 . S
C283 C284 1.358 . S
C283 C288 1.382 . S
C284 C283 1.358 . S
C284 C285 1.385 . S
C284 H312 0.930 . S
C285 C284 1.385 . S
C285 C286 1.395 . S
C285 H313 0.929 . S
C286 C285 1.395 . S
C286 C287 1.335 . S
C287 C286 1.335 . S
C287 C288 1.398 . S
C287 H314 0.930 . S
C288 C283 1.382 . S
C288 C287 1.398 . S
C288 H315 0.929 . S
C289 O302 1.271 . S
C289 O303 1.251 . S
C290 O304 1.252 . S
C290 O305 1.272 . S
C291 Sm281 2.846 . S
C291 C292 1.506 . S
C291 O306 1.261 . S
C291 O307 1.242 . S
C292 C291 1.506 . S
C292 C293 1.358 . S
C292 C297 1.382 . S
C293 C292 1.358 . S
C293 C294 1.385 . S
C293 H316 0.930 . S
C294 C293 1.385 . S
C294 C295 1.395 . S
C294 H317 0.929 . S
C295 C294 1.395 . S
C295 C296 1.335 . S
C296 C295 1.335 . S
C296 C297 1.398 . S
C296 H318 0.930 . S
C297 C292 1.382 . S
C297 C296 1.398 . S
C297 H319 0.929 . S
C298 O308 1.271 . S
C298 O309 1.251 . S
C299 O310 1.252 . S
C299 O311 1.272 . S
O300 Sm280 2.543 . S
O300 C282 1.261 . S
O301 Sm280 2.450 . S
O301 C282 1.242 . S
O302 Sm280 2.681 . S
O302 Sm281 2.386 . S
O302 C289 1.271 . S
O303 Sm280 2.464 . S
O303 C289 1.251 . S
O304 Sm280 2.396 . S
O304 C290 1.252 . S
O305 Sm281 2.408 . S
O305 C290 1.272 . S
O306 Sm281 2.543 . S
O306 C291 1.261 . S
O307 Sm281 2.450 . S
O307 C291 1.242 . S
O308 Sm280 2.386 . S
O308 Sm281 2.681 . S
O308 C298 1.271 . S
O309 Sm281 2.464 . S
O309 C298 1.251 . S
O310 Sm281 2.396 . S
O310 C299 1.252 . S
O311 Sm280 2.408 . S
O311 C299 1.272 . S
H312 C284 0.930 . S
H313 C285 0.929 . S
H314 C287 0.930 . S
H315 C288 0.929 . S
H316 C293 0.930 . S
H317 C294 0.929 . S
H318 C296 0.930 . S
H319 C297 0.929 . S
Sm320 C322 2.846 1_554 S
Sm320 O340 2.543 . S
Sm320 O341 2.450 . S
Sm320 O342 2.681 . S
Sm320 O343 2.464 . S
Sm320 O344 2.396 . S
Sm320 O348 2.386 . S
Sm320 O351 2.408 . S
Sm321 C331 2.846 . S
Sm321 O342 2.386 . S
Sm321 O345 2.408 . S
Sm321 O346 2.543 . S
Sm321 O347 2.450 . S
Sm321 O348 2.681 . S
Sm321 O349 2.464 . S
Sm321 O350 2.396 . S
C322 Sm320 2.846 1_556 S
C322 C323 1.506 . S
C322 O340 1.261 1_556 S
C322 O341 1.242 1_556 S
C323 C322 1.506 . S
C323 C324 1.358 . S
C323 C328 1.382 . S
C324 C323 1.358 . S
C324 C325 1.385 . S
C324 H352 0.930 . S
C325 C324 1.385 . S
C325 C326 1.395 . S
C325 H353 0.929 . S
C326 C325 1.395 . S
C326 C327 1.335 . S
C327 C326 1.335 . S
C327 C328 1.398 . S
C327 H354 0.930 . S
C328 C323 1.382 . S
C328 C327 1.398 . S
C328 H355 0.929 . S
C329 O342 1.271 . S
C329 O343 1.251 . S
C330 O344 1.252 . S
C330 O345 1.272 . S
C331 Sm321 2.846 . S
C331 C332 1.506 . S
C331 O346 1.261 . S
C331 O347 1.242 . S
C332 C331 1.506 . S
C332 C333 1.358 . S
C332 C337 1.382 . S
C333 C332 1.358 . S
C333 C334 1.385 . S
C333 H356 0.930 . S
C334 C333 1.385 . S
C334 C335 1.395 . S
C334 H357 0.929 . S
C335 C334 1.395 . S
C335 C336 1.335 . S
C336 C335 1.335 . S
C336 C337 1.398 . S
C336 H358 0.930 . S
C337 C332 1.382 . S
C337 C336 1.398 . S
C337 H359 0.929 . S
C338 O348 1.271 . S
C338 O349 1.251 . S
C339 O350 1.252 . S
C339 O351 1.272 . S
O340 Sm320 2.543 . S
O340 C322 1.261 1_554 S
O341 Sm320 2.450 . S
O341 C322 1.242 1_554 S
O342 Sm320 2.681 . S
O342 Sm321 2.386 . S
O342 C329 1.271 . S
O343 Sm320 2.464 . S
O343 C329 1.251 . S
O344 Sm320 2.396 . S
O344 C330 1.252 . S
O345 Sm321 2.408 . S
O345 C330 1.272 . S
O346 Sm321 2.543 . S
O346 C331 1.261 . S
O347 Sm321 2.450 . S
O347 C331 1.242 . S
O348 Sm320 2.386 . S
O348 Sm321 2.681 . S
O348 C338 1.271 . S
O349 Sm321 2.464 . S
O349 C338 1.251 . S
O350 Sm321 2.396 . S
O350 C339 1.252 . S
O351 Sm320 2.408 . S
O351 C339 1.272 . S
H352 C324 0.930 . S
H353 C325 0.929 . S
H354 C327 0.930 . S
H355 C328 0.929 . S
H356 C333 0.930 . S
H357 C334 0.929 . S
H358 C336 0.930 . S
H359 C337 0.929 . S
Sm360 C362 2.846 . S
Sm360 O380 2.543 . S
Sm360 O381 2.450 . S
Sm360 O382 2.681 . S
Sm360 O383 2.464 . S
Sm360 O384 2.396 . S
Sm360 O388 2.386 . S
Sm360 O391 2.408 . S
Sm361 C371 2.846 . S
Sm361 O382 2.386 . S
Sm361 O385 2.408 . S
Sm361 O386 2.543 . S
Sm361 O387 2.450 . S
Sm361 O388 2.681 . S
Sm361 O389 2.464 . S
Sm361 O390 2.396 . S
C362 Sm360 2.846 . S
C362 C363 1.506 . S
C362 O380 1.261 . S
C362 O381 1.242 . S
C363 C362 1.506 . S
C363 C364 1.358 . S
C363 C368 1.382 . S
C364 C363 1.358 . S
C364 C365 1.385 . S
C364 H392 0.930 . S
C365 C364 1.385 . S
C365 C366 1.395 . S
C365 H393 0.929 . S
C366 C365 1.395 . S
C366 C367 1.335 . S
C367 C366 1.335 . S
C367 C368 1.398 . S
C367 H394 0.930 . S
C368 C363 1.382 . S
C368 C367 1.398 . S
C368 H395 0.929 . S
C369 O382 1.271 . S
C369 O383 1.251 . S
C370 O384 1.252 . S
C370 O385 1.272 . S
C371 Sm361 2.846 . S
C371 C372 1.506 . S
C371 O386 1.261 . S
C371 O387 1.242 . S
C372 C371 1.506 . S
C372 C373 1.358 . S
C372 C377 1.382 . S
C373 C372 1.358 . S
C373 C374 1.385 . S
C373 H396 0.930 . S
C374 C373 1.385 . S
C374 C375 1.395 . S
C374 H397 0.929 . S
C375 C374 1.395 . S
C375 C376 1.335 . S
C376 C375 1.335 . S
C376 C377 1.398 . S
C376 H398 0.930 . S
C377 C372 1.382 . S
C377 C376 1.398 . S
C377 H399 0.929 . S
C378 O388 1.271 . S
C378 O389 1.251 . S
C379 O390 1.252 . S
C379 O391 1.272 . S
O380 Sm360 2.543 . S
O380 C362 1.261 . S
O381 Sm360 2.450 . S
O381 C362 1.242 . S
O382 Sm360 2.681 . S
O382 Sm361 2.386 . S
O382 C369 1.271 . S
O383 Sm360 2.464 . S
O383 C369 1.251 . S
O384 Sm360 2.396 . S
O384 C370 1.252 . S
O385 Sm361 2.408 . S
O385 C370 1.272 . S
O386 Sm361 2.543 . S
O386 C371 1.261 . S
O387 Sm361 2.450 . S
O387 C371 1.242 . S
O388 Sm360 2.386 . S
O388 Sm361 2.681 . S
O388 C378 1.271 . S
O389 Sm361 2.464 . S
O389 C378 1.251 . S
O390 Sm361 2.396 . S
O390 C379 1.252 . S
O391 Sm360 2.408 . S
O391 C379 1.272 . S
H392 C364 0.930 . S
H393 C365 0.929 . S
H394 C367 0.930 . S
H395 C368 0.929 . S
H396 C373 0.930 . S
H397 C374 0.929 . S
H398 C376 0.930 . S
H399 C377 0.929 . S
Sm400 C402 2.846 . S
Sm400 O420 2.543 . S
Sm400 O421 2.450 . S
Sm400 O422 2.681 . S
Sm400 O423 2.464 . S
Sm400 O424 2.396 . S
Sm400 O428 2.386 . S
Sm400 O431 2.408 . S
Sm401 C411 2.846 . S
Sm401 O422 2.386 . S
Sm401 O425 2.408 . S
Sm401 O426 2.543 . S
Sm401 O427 2.450 . S
Sm401 O428 2.681 . S
Sm401 O429 2.464 . S
Sm401 O430 2.396 . S
C402 Sm400 2.846 . S
C402 C403 1.506 . S
C402 O420 1.261 . S
C402 O421 1.242 . S
C403 C402 1.506 . S
C403 C404 1.358 . S
C403 C408 1.382 . S
C404 C403 1.358 . S
C404 C405 1.385 . S
C404 H432 0.930 . S
C405 C404 1.385 . S
C405 C406 1.395 . S
C405 H433 0.929 . S
C406 C405 1.395 . S
C406 C407 1.335 . S
C407 C406 1.335 . S
C407 C408 1.398 . S
C407 H434 0.930 . S
C408 C403 1.382 . S
C408 C407 1.398 . S
C408 H435 0.929 . S
C409 O422 1.271 . S
C409 O423 1.251 . S
C410 O424 1.252 . S
C410 O425 1.272 . S
C411 Sm401 2.846 . S
C411 C412 1.506 . S
C411 O426 1.261 . S
C411 O427 1.242 . S
C412 C411 1.506 . S
C412 C413 1.358 . S
C412 C417 1.382 . S
C413 C412 1.358 . S
C413 C414 1.385 . S
C413 H436 0.930 . S
C414 C413 1.385 . S
C414 C415 1.395 . S
C414 H437 0.929 . S
C415 C414 1.395 . S
C415 C416 1.335 . S
C416 C415 1.335 . S
C416 C417 1.398 . S
C416 H438 0.930 . S
C417 C412 1.382 . S
C417 C416 1.398 . S
C417 H439 0.929 . S
C418 O428 1.271 . S
C418 O429 1.251 . S
C419 O430 1.252 . S
C419 O431 1.272 . S
O420 Sm400 2.543 . S
O420 C402 1.261 . S
O421 Sm400 2.450 . S
O421 C402 1.242 . S
O422 Sm400 2.681 . S
O422 Sm401 2.386 . S
O422 C409 1.271 . S
O423 Sm400 2.464 . S
O423 C409 1.251 . S
O424 Sm400 2.396 . S
O424 C410 1.252 . S
O425 Sm401 2.408 . S
O425 C410 1.272 . S
O426 Sm401 2.543 . S
O426 C411 1.261 . S
O427 Sm401 2.450 . S
O427 C411 1.242 . S
O428 Sm400 2.386 . S
O428 Sm401 2.681 . S
O428 C418 1.271 . S
O429 Sm401 2.464 . S
O429 C418 1.251 . S
O430 Sm401 2.396 . S
O430 C419 1.252 . S
O431 Sm400 2.408 . S
O431 C419 1.272 . S
H432 C404 0.930 . S
H433 C405 0.929 . S
H434 C407 0.930 . S
H435 C408 0.929 . S
H436 C413 0.930 . S
H437 C414 0.929 . S
H438 C416 0.930 . S
H439 C417 0.929 . S
Sm440 C442 2.846 1_554 S
Sm440 O460 2.543 . S
Sm440 O461 2.450 . S
Sm440 O462 2.681 . S
Sm440 O463 2.464 . S
Sm440 O464 2.396 . S
Sm440 O468 2.386 . S
Sm440 O471 2.408 . S
Sm441 C451 2.846 . S
Sm441 O462 2.386 . S
Sm441 O465 2.408 . S
Sm441 O466 2.543 . S
Sm441 O467 2.450 . S
Sm441 O468 2.681 . S
Sm441 O469 2.464 . S
Sm441 O470 2.396 . S
C442 Sm440 2.846 1_556 S
C442 C443 1.506 . S
C442 O460 1.261 1_556 S
C442 O461 1.242 1_556 S
C443 C442 1.506 . S
C443 C444 1.358 . S
C443 C448 1.382 . S
C444 C443 1.358 . S
C444 C445 1.385 . S
C444 H472 0.930 . S
C445 C444 1.385 . S
C445 C446 1.395 . S
C445 H473 0.929 . S
C446 C445 1.395 . S
C446 C447 1.335 . S
C447 C446 1.335 . S
C447 C448 1.398 . S
C447 H474 0.930 . S
C448 C443 1.382 . S
C448 C447 1.398 . S
C448 H475 0.929 . S
C449 O462 1.271 . S
C449 O463 1.251 . S
C450 O464 1.252 . S
C450 O465 1.272 . S
C451 Sm441 2.846 . S
C451 C452 1.506 . S
C451 O466 1.261 . S
C451 O467 1.242 . S
C452 C451 1.506 . S
C452 C453 1.358 . S
C452 C457 1.382 . S
C453 C452 1.358 . S
C453 C454 1.385 . S
C453 H476 0.930 . S
C454 C453 1.385 . S
C454 C455 1.395 . S
C454 H477 0.929 . S
C455 C454 1.395 . S
C455 C456 1.335 . S
C456 C455 1.335 . S
C456 C457 1.398 . S
C456 H478 0.930 . S
C457 C452 1.382 . S
C457 C456 1.398 . S
C457 H479 0.929 . S
C458 O468 1.271 . S
C458 O469 1.251 . S
C459 O470 1.252 . S
C459 O471 1.272 . S
O460 Sm440 2.543 . S
O460 C442 1.261 1_554 S
O461 Sm440 2.450 . S
O461 C442 1.242 1_554 S
O462 Sm440 2.681 . S
O462 Sm441 2.386 . S
O462 C449 1.271 . S
O463 Sm440 2.464 . S
O463 C449 1.251 . S
O464 Sm440 2.396 . S
O464 C450 1.252 . S
O465 Sm441 2.408 . S
O465 C450 1.272 . S
O466 Sm441 2.543 . S
O466 C451 1.261 . S
O467 Sm441 2.450 . S
O467 C451 1.242 . S
O468 Sm440 2.386 . S
O468 Sm441 2.681 . S
O468 C458 1.271 . S
O469 Sm441 2.464 . S
O469 C458 1.251 . S
O470 Sm441 2.396 . S
O470 C459 1.252 . S
O471 Sm440 2.408 . S
O471 C459 1.272 . S
H472 C444 0.930 . S
H473 C445 0.929 . S
H474 C447 0.930 . S
H475 C448 0.929 . S
H476 C453 0.930 . S
H477 C454 0.929 . S
H478 C456 0.930 . S
H479 C457 0.929 . S
H480 C486 0.930 . S
H481 C490 0.930 . S
H482 C495 0.929 . S
H483 C493 0.929 . S
H484 C488 0.929 . S
H485 C494 0.929 . S
C486 H480 0.930 . S
C486 C487 1.367 . S
C486 C494 1.378 . S
C487 C486 1.367 . S
C487 C495 1.433 . S
C488 H484 0.929 . S
C488 C490 1.378 . S
C488 C492 1.350 . S
C489 C492 1.463 . S
C489 C494 1.350 . S
C489 N497 1.427 . S
C490 H481 0.930 . S
C490 C488 1.378 . S
C490 C491 1.367 . S
C491 C490 1.367 . S
C491 C493 1.433 . S
C492 C488 1.350 . S
C492 C489 1.463 . S
C492 N496 1.427 . S
C493 H483 0.929 . S
C493 C491 1.433 . S
C493 N496 1.384 . S
C494 H485 0.929 . S
C494 C486 1.378 . S
C494 C489 1.350 . S
C495 H482 0.929 . S
C495 C487 1.433 . S
C495 N497 1.384 . S
N496 C492 1.427 . S
N496 C493 1.384 . S
N497 C489 1.427 . S
N497 C495 1.384 . S
H498 C504 0.930 . S
H499 C508 0.930 . S
H500 C513 0.929 . S
H501 C511 0.929 . S
H502 C506 0.929 . S
H503 C512 0.929 . S
C504 H498 0.930 . S
C504 C505 1.367 . S
C504 C512 1.378 . S
C505 C504 1.367 . S
C505 C513 1.433 . S
C506 H502 0.929 . S
C506 C508 1.378 . S
C506 C510 1.350 . S
C507 C510 1.463 . S
C507 C512 1.350 . S
C507 N515 1.427 . S
C508 H499 0.930 . S
C508 C506 1.378 . S
C508 C509 1.367 . S
C509 C508 1.367 . S
C509 C511 1.433 . S
C510 C506 1.350 . S
C510 C507 1.463 . S
C510 N514 1.427 . S
C511 H501 0.929 . S
C511 C509 1.433 . S
C511 N514 1.384 . S
C512 H503 0.929 . S
C512 C504 1.378 . S
C512 C507 1.350 . S
C513 H500 0.929 . S
C513 C505 1.433 . S
C513 N515 1.384 . S
N514 C510 1.427 . S
N514 C511 1.384 . S
N515 C507 1.427 . S
N515 C513 1.384 . S
H516 C522 0.930 . S
H517 C526 0.930 . S
H518 C531 0.929 . S
H519 C529 0.929 . S
H520 C524 0.929 . S
H521 C530 0.929 . S
C522 H516 0.930 . S
C522 C523 1.367 . S
C522 C530 1.378 . S
C523 C522 1.367 . S
C523 C531 1.433 . S
C524 H520 0.929 . S
C524 C526 1.378 . S
C524 C528 1.350 . S
C525 C528 1.463 . S
C525 C530 1.350 . S
C525 N533 1.427 . S
C526 H517 0.930 . S
C526 C524 1.378 . S
C526 C527 1.367 . S
C527 C526 1.367 . S
C527 C529 1.433 . S
C528 C524 1.350 . S
C528 C525 1.463 . S
C528 N532 1.427 . S
C529 H519 0.929 . S
C529 C527 1.433 . S
C529 N532 1.384 . S
C530 H521 0.929 . S
C530 C522 1.378 . S
C530 C525 1.350 . S
C531 H518 0.929 . S
C531 C523 1.433 . S
C531 N533 1.384 . S
N532 C528 1.427 . S
N532 C529 1.384 . S
N533 C525 1.427 . S
N533 C531 1.384 . S
H534 C540 0.930 . S
H535 C544 0.930 . S
H536 C549 0.929 . S
H537 C547 0.929 . S
H538 C542 0.929 . S
H539 C548 0.929 . S
C540 H534 0.930 . S
C540 C541 1.367 . S
C540 C548 1.378 . S
C541 C540 1.367 . S
C541 C549 1.433 . S
C542 H538 0.929 . S
C542 C544 1.378 . S
C542 C546 1.350 . S
C543 C546 1.463 . S
C543 C548 1.350 . S
C543 N551 1.427 . S
C544 H535 0.930 . S
C544 C542 1.378 . S
C544 C545 1.367 . S
C545 C544 1.367 . S
C545 C547 1.433 . S
C546 C542 1.350 . S
C546 C543 1.463 . S
C546 N550 1.427 . S
C547 H537 0.929 . S
C547 C545 1.433 . S
C547 N550 1.384 . S
C548 H539 0.929 . S
C548 C540 1.378 . S
C548 C543 1.350 . S
C549 H536 0.929 . S
C549 C541 1.433 . S
C549 N551 1.384 . S
N550 C546 1.427 . S
N550 C547 1.384 . S
N551 C543 1.427 . S
N551 C549 1.384 . S
H552 C558 0.930 . S
H553 C562 0.930 . S
H554 C567 0.929 . S
H555 C565 0.929 . S
H556 C560 0.929 . S
H557 C566 0.929 . S
C558 H552 0.930 . S
C558 C559 1.367 . S
C558 C566 1.378 . S
C559 C558 1.367 . S
C559 C567 1.433 . S
C560 H556 0.929 . S
C560 C562 1.378 . S
C560 C564 1.350 . S
C561 C564 1.463 . S
C561 C566 1.350 . S
C561 N569 1.427 . S
C562 H553 0.930 . S
C562 C560 1.378 . S
C562 C563 1.367 . S
C563 C562 1.367 . S
C563 C565 1.433 . S
C564 C560 1.350 . S
C564 C561 1.463 . S
C564 N568 1.427 . S
C565 H555 0.929 . S
C565 C563 1.433 . S
C565 N568 1.384 . S
C566 H557 0.929 . S
C566 C558 1.378 . S
C566 C561 1.350 . S
C567 H554 0.929 . S
C567 C559 1.433 . S
C567 N569 1.384 . S
N568 C564 1.427 . S
N568 C565 1.384 . S
N569 C561 1.427 . S
N569 C567 1.384 . S
H570 C576 0.930 . S
H571 C580 0.930 . S
H572 C585 0.929 . S
H573 C583 0.929 . S
H574 C578 0.929 . S
H575 C584 0.929 . S
C576 H570 0.930 . S
C576 C577 1.367 . S
C576 C584 1.378 . S
C577 C576 1.367 . S
C577 C585 1.433 . S
C578 H574 0.929 . S
C578 C580 1.378 . S
C578 C582 1.350 . S
C579 C582 1.463 . S
C579 C584 1.350 . S
C579 N587 1.427 . S
C580 H571 0.930 . S
C580 C578 1.378 . S
C580 C581 1.367 . S
C581 C580 1.367 . S
C581 C583 1.433 . S
C582 C578 1.350 . S
C582 C579 1.463 . S
C582 N586 1.427 . S
C583 H573 0.929 . S
C583 C581 1.433 . S
C583 N586 1.384 . S
C584 H575 0.929 . S
C584 C576 1.378 . S
C584 C579 1.350 . S
C585 H572 0.929 . S
C585 C577 1.433 . S
C585 N587 1.384 . S
N586 C582 1.427 . S
N586 C583 1.384 . S
N587 C579 1.427 . S
N587 C585 1.384 . S
H588 C594 0.930 . S
H589 C598 0.930 . S
H590 C603 0.929 . S
H591 C601 0.929 . S
H592 C596 0.929 1_556 S
H593 C602 0.929 1_554 S
C594 H588 0.930 . S
C594 C595 1.367 . S
C594 C602 1.378 . S
C595 C594 1.367 . S
C595 C603 1.433 . S
C596 H592 0.929 1_554 S
C596 C598 1.378 . S
C596 C600 1.350 . S
C597 C600 1.463 1_556 S
C597 C602 1.350 . S
C597 N605 1.427 . S
C598 H589 0.930 . S
C598 C596 1.378 . S
C598 C599 1.367 . S
C599 C598 1.367 . S
C599 C601 1.433 . S
C600 C596 1.350 . S
C600 C597 1.463 1_554 S
C600 N604 1.427 . S
C601 H591 0.929 . S
C601 C599 1.433 . S
C601 N604 1.384 . S
C602 H593 0.929 1_556 S
C602 C594 1.378 . S
C602 C597 1.350 . S
C603 H590 0.929 . S
C603 C595 1.433 . S
C603 N605 1.384 . S
N604 C600 1.427 . S
N604 C601 1.384 . S
N605 C597 1.427 . S
N605 C603 1.384 . S
H606 C612 0.930 . S
H607 C616 0.930 . S
H608 C621 0.929 . S
H609 C619 0.929 . S
H610 C614 0.929 . S
H611 C620 0.929 . S
C612 H606 0.930 . S
C612 C613 1.367 . S
C612 C620 1.378 . S
C613 C612 1.367 . S
C613 C621 1.433 . S
C614 H610 0.929 . S
C614 C616 1.378 . S
C614 C618 1.350 . S
C615 C618 1.463 . S
C615 C620 1.350 . S
C615 N623 1.427 . S
C616 H607 0.930 . S
C616 C614 1.378 . S
C616 C617 1.367 . S
C617 C616 1.367 . S
C617 C619 1.433 . S
C618 C614 1.350 . S
C618 C615 1.463 . S
C618 N622 1.427 . S
C619 H609 0.929 . S
C619 C617 1.433 . S
C619 N622 1.384 . S
C620 H611 0.929 . S
C620 C612 1.378 . S
C620 C615 1.350 . S
C621 H608 0.929 . S
C621 C613 1.433 . S
C621 N623 1.384 . S
N622 C618 1.427 . S
N622 C619 1.384 . S
N623 C615 1.427 . S
N623 C621 1.384 . S
H624 C630 0.930 . S
H625 C634 0.930 . S
H626 C639 0.929 . S
H627 C637 0.929 . S
H628 C632 0.929 . S
H629 C638 0.929 . S
C630 H624 0.930 . S
C630 C631 1.367 . S
C630 C638 1.378 . S
C631 C630 1.367 . S
C631 C639 1.433 . S
C632 H628 0.929 . S
C632 C634 1.378 . S
C632 C636 1.350 . S
C633 C636 1.463 . S
C633 C638 1.350 . S
C633 N641 1.427 . S
C634 H625 0.930 . S
C634 C632 1.378 . S
C634 C635 1.367 . S
C635 C634 1.367 . S
C635 C637 1.433 . S
C636 C632 1.350 . S
C636 C633 1.463 . S
C636 N640 1.427 . S
C637 H627 0.929 . S
C637 C635 1.433 . S
C637 N640 1.384 . S
C638 H629 0.929 . S
C638 C630 1.378 . S
C638 C633 1.350 . S
C639 H626 0.929 . S
C639 C631 1.433 . S
C639 N641 1.384 . S
N640 C636 1.427 . S
N640 C637 1.384 . S
N641 C633 1.427 . S
N641 C639 1.384 . S
H642 C648 0.930 . S
H643 C652 0.930 . S
H644 C657 0.929 . S
H645 C655 0.929 . S
H646 C650 0.929 . S
H647 C656 0.929 . S
C648 H642 0.930 . S
C648 C649 1.367 . S
C648 C656 1.378 . S
C649 C648 1.367 . S
C649 C657 1.433 . S
C650 H646 0.929 . S
C650 C652 1.378 . S
C650 C654 1.350 . S
C651 C654 1.463 1_556 S
C651 C656 1.350 . S
C651 N659 1.427 . S
C652 H643 0.930 . S
C652 C650 1.378 . S
C652 C653 1.367 . S
C653 C652 1.367 . S
C653 C655 1.433 . S
C654 C650 1.350 . S
C654 C651 1.463 1_554 S
C654 N658 1.427 . S
C655 H645 0.929 . S
C655 C653 1.433 . S
C655 N658 1.384 . S
C656 H647 0.929 . S
C656 C648 1.378 . S
C656 C651 1.350 . S
C657 H644 0.929 . S
C657 C649 1.433 . S
C657 N659 1.384 . S
N658 C654 1.427 . S
N658 C655 1.384 . S
N659 C651 1.427 . S
N659 C657 1.384 . S
H660 C666 0.930 . S
H661 C670 0.930 . S
H662 C675 0.929 . S
H663 C673 0.929 . S
H664 C668 0.929 . S
H665 C674 0.929 . S
C666 H660 0.930 . S
C666 C667 1.367 . S
C666 C674 1.378 . S
C667 C666 1.367 . S
C667 C675 1.433 . S
C668 H664 0.929 . S
C668 C670 1.378 . S
C668 C672 1.350 . S
C669 C672 1.463 . S
C669 C674 1.350 . S
C669 N677 1.427 . S
C670 H661 0.930 . S
C670 C668 1.378 . S
C670 C671 1.367 . S
C671 C670 1.367 . S
C671 C673 1.433 . S
C672 C668 1.350 . S
C672 C669 1.463 . S
C672 N676 1.427 . S
C673 H663 0.929 . S
C673 C671 1.433 . S
C673 N676 1.384 . S
C674 H665 0.929 . S
C674 C666 1.378 . S
C674 C669 1.350 . S
C675 H662 0.929 . S
C675 C667 1.433 . S
C675 N677 1.384 . S
N676 C672 1.427 . S
N676 C673 1.384 . S
N677 C669 1.427 . S
N677 C675 1.384 . S
H678 C684 0.930 . S
H679 C688 0.930 . S
H680 C693 0.929 . S
H681 C691 0.929 . S
H682 C686 0.929 . S
H683 C692 0.929 . S
C684 H678 0.930 . S
C684 C685 1.367 . S
C684 C692 1.378 . S
C685 C684 1.367 . S
C685 C693 1.433 . S
C686 H682 0.929 . S
C686 C688 1.378 . S
C686 C690 1.350 . S
C687 C690 1.463 . S
C687 C692 1.350 . S
C687 N695 1.427 . S
C688 H679 0.930 . S
C688 C686 1.378 . S
C688 C689 1.367 . S
C689 C688 1.367 . S
C689 C691 1.433 . S
C690 C686 1.350 . S
C690 C687 1.463 . S
C690 N694 1.427 . S
C691 H681 0.929 . S
C691 C689 1.433 . S
C691 N694 1.384 . S
C692 H683 0.929 . S
C692 C684 1.378 . S
C692 C687 1.350 . S
C693 H680 0.929 . S
C693 C685 1.433 . S
C693 N695 1.384 . S
N694 C690 1.427 . S
N694 C691 1.384 . S
N695 C687 1.427 . S
N695 C693 1.384 . S
H696 C702 0.930 . S
H697 C706 0.930 . S
H698 C711 0.929 . S
H699 C709 0.929 . S
H700 C704 0.929 . S
H701 C710 0.929 . S
C702 H696 0.930 . S
C702 C703 1.367 . S
C702 C710 1.378 . S
C703 C702 1.367 . S
C703 C711 1.433 . S
C704 H700 0.929 . S
C704 C706 1.378 . S
C704 C708 1.350 . S
C705 C708 1.463 1_566 S
C705 C710 1.350 . S
C705 N713 1.427 1_565 S
C706 H697 0.930 . S
C706 C704 1.378 . S
C706 C707 1.367 . S
C707 C706 1.367 . S
C707 C709 1.433 . S
C708 C704 1.350 . S
C708 C705 1.463 1_544 S
C708 N712 1.427 1_545 S
C709 H699 0.929 . S
C709 C707 1.433 . S
C709 N712 1.384 1_545 S
C710 H701 0.929 . S
C710 C702 1.378 . S
C710 C705 1.350 . S
C711 H698 0.929 . S
C711 C703 1.433 . S
C711 N713 1.384 1_565 S
N712 C708 1.427 1_565 S
N712 C709 1.384 1_565 S
N713 C705 1.427 1_545 S
N713 C711 1.384 1_545 S
H714 C720 0.930 . S
H715 C724 0.930 . S
H716 C729 0.929 . S
H717 C727 0.929 . S
H718 C722 0.929 . S
H719 C728 0.929 . S
C720 H714 0.930 . S
C720 C721 1.367 . S
C720 C728 1.378 . S
C721 C720 1.367 . S
C721 C729 1.433 . S
C722 H718 0.929 . S
C722 C724 1.378 . S
C722 C726 1.350 . S
C723 C726 1.463 . S
C723 C728 1.350 . S
C723 N731 1.427 . S
C724 H715 0.930 . S
C724 C722 1.378 . S
C724 C725 1.367 . S
C725 C724 1.367 . S
C725 C727 1.433 . S
C726 C722 1.350 . S
C726 C723 1.463 . S
C726 N730 1.427 . S
C727 H717 0.929 . S
C727 C725 1.433 . S
C727 N730 1.384 . S
C728 H719 0.929 . S
C728 C720 1.378 . S
C728 C723 1.350 . S
C729 H716 0.929 . S
C729 C721 1.433 . S
C729 N731 1.384 . S
N730 C726 1.427 . S
N730 C727 1.384 . S
N731 C723 1.427 . S
N731 C729 1.384 . S
H732 C738 0.930 . S
H733 C742 0.930 . S
H734 C747 0.929 1_655 S
H735 C745 0.929 1_455 S
H736 C740 0.929 . S
H737 C746 0.929 . S
C738 H732 0.930 . S
C738 C739 1.367 . S
C738 C746 1.378 . S
C739 C738 1.367 . S
C739 C747 1.433 . S
C740 H736 0.929 . S
C740 C742 1.378 . S
C740 C744 1.350 . S
C741 C744 1.463 1_455 S
C741 C746 1.350 . S
C741 N749 1.427 1_455 S
C742 H733 0.930 . S
C742 C740 1.378 . S
C742 C743 1.367 . S
C743 C742 1.367 . S
C743 C745 1.433 . S
C744 C740 1.350 . S
C744 C741 1.463 1_655 S
C744 N748 1.427 1_655 S
C745 H735 0.929 1_655 S
C745 C743 1.433 . S
C745 N748 1.384 1_655 S
C746 H737 0.929 . S
C746 C738 1.378 . S
C746 C741 1.350 . S
C747 H734 0.929 1_455 S
C747 C739 1.433 . S
C747 N749 1.384 1_455 S
N748 C744 1.427 1_455 S
N748 C745 1.384 1_455 S
N749 C741 1.427 1_655 S
N749 C747 1.384 1_655 S
H750 C756 0.930 1_545 S
H751 C760 0.930 1_565 S
H752 C765 0.929 . S
H753 C763 0.929 . S
H754 C758 0.929 . S
H755 C764 0.929 . S
C756 H750 0.930 1_565 S
C756 C757 1.367 . S
C756 C764 1.378 1_565 S
C757 C756 1.367 . S
C757 C765 1.433 . S
C758 H754 0.929 . S
C758 C760 1.378 1_565 S
C758 C762 1.350 1_565 S
C759 C762 1.463 1_564 S
C759 C764 1.350 1_565 S
C759 N767 1.427 . S
C760 H751 0.930 1_545 S
C760 C758 1.378 1_545 S
C760 C761 1.367 . S
C761 C760 1.367 . S
C761 C763 1.433 . S
C762 C758 1.350 1_545 S
C762 C759 1.463 1_546 S
C762 N766 1.427 . S
C763 H753 0.929 . S
C763 C761 1.433 . S
C763 N766 1.384 . S
C764 H755 0.929 . S
C764 C756 1.378 1_545 S
C764 C759 1.350 1_545 S
C765 H752 0.929 . S
C765 C757 1.433 . S
C765 N767 1.384 . S
N766 C762 1.427 . S
N766 C763 1.384 . S
N767 C759 1.427 . S
N767 C765 1.384 . S
H768 C774 0.930 . S
H769 C778 0.930 . S
H770 C783 0.929 . S
H771 C781 0.929 . S
H772 C776 0.929 . S
H773 C782 0.929 . S
C774 H768 0.930 . S
C774 C775 1.367 . S
C774 C782 1.378 . S
C775 C774 1.367 . S
C775 C783 1.433 . S
C776 H772 0.929 . S
C776 C778 1.378 . S
C776 C780 1.350 . S
C777 C780 1.463 . S
C777 C782 1.350 . S
C777 N785 1.427 . S
C778 H769 0.930 . S
C778 C776 1.378 . S
C778 C779 1.367 . S
C779 C778 1.367 . S
C779 C781 1.433 . S
C780 C776 1.350 . S
C780 C777 1.463 . S
C780 N784 1.427 . S
C781 H771 0.929 . S
C781 C779 1.433 . S
C781 N784 1.384 . S
C782 H773 0.929 . S
C782 C774 1.378 . S
C782 C777 1.350 . S
C783 H770 0.929 . S
C783 C775 1.433 . S
C783 N785 1.384 . S
N784 C780 1.427 . S
N784 C781 1.384 . S
N785 C777 1.427 . S
N785 C783 1.384 . S
H786 C792 0.930 1_655 S
H787 C796 0.930 1_455 S
H788 C801 0.929 . S
H789 C799 0.929 . S
H790 C794 0.929 . S
H791 C800 0.929 . S
C792 H786 0.930 1_455 S
C792 C793 1.367 . S
C792 C800 1.378 1_455 S
C793 C792 1.367 . S
C793 C801 1.433 . S
C794 H790 0.929 . S
C794 C796 1.378 1_455 S
C794 C798 1.350 1_455 S
C795 C798 1.463 1_455 S
C795 C800 1.350 1_455 S
C795 N803 1.427 . S
C796 H787 0.930 1_655 S
C796 C794 1.378 1_655 S
C796 C797 1.367 . S
C797 C796 1.367 . S
C797 C799 1.433 . S
C798 C794 1.350 1_655 S
C798 C795 1.463 1_655 S
C798 N802 1.427 . S
C799 H789 0.929 . S
C799 C797 1.433 . S
C799 N802 1.384 . S
C800 H791 0.929 . S
C800 C792 1.378 1_655 S
C800 C795 1.350 1_655 S
C801 H788 0.929 . S
C801 C793 1.433 . S
C801 N803 1.384 . S
N802 C798 1.427 . S
N802 C799 1.384 . S
N803 C795 1.427 . S
N803 C801 1.384 . S
H804 C810 0.930 . S
H805 C814 0.930 . S
H806 C819 0.929 . S
H807 C817 0.929 . S
H808 C812 0.929 . S
H809 C818 0.929 . S
C810 H804 0.930 . S
C810 C811 1.367 . S
C810 C818 1.378 . S
C811 C810 1.367 . S
C811 C819 1.433 . S
C812 H808 0.929 . S
C812 C814 1.378 . S
C812 C816 1.350 . S
C813 C816 1.463 1_545 S
C813 C818 1.350 . S
C813 N821 1.427 . S
C814 H805 0.930 . S
C814 C812 1.378 . S
C814 C815 1.367 . S
C815 C814 1.367 . S
C815 C817 1.433 . S
C816 C812 1.350 . S
C816 C813 1.463 1_565 S
C816 N820 1.427 . S
C817 H807 0.929 . S
C817 C815 1.433 . S
C817 N820 1.384 . S
C818 H809 0.929 . S
C818 C810 1.378 . S
C818 C813 1.350 . S
C819 H806 0.929 . S
C819 C811 1.433 . S
C819 N821 1.384 . S
N820 C816 1.427 . S
N820 C817 1.384 . S
N821 C813 1.427 . S
N821 C819 1.384 . S
H822 C828 0.930 . S
H823 C832 0.930 . S
H824 C837 0.929 . S
H825 C835 0.929 . S
H826 C830 0.929 . S
H827 C836 0.929 . S
C828 H822 0.930 . S
C828 C829 1.367 . S
C828 C836 1.378 . S
C829 C828 1.367 . S
C829 C837 1.433 . S
C830 H826 0.929 . S
C830 C832 1.378 . S
C830 C834 1.350 . S
C831 C834 1.463 . S
C831 C836 1.350 . S
C831 N839 1.427 . S
C832 H823 0.930 . S
C832 C830 1.378 . S
C832 C833 1.367 . S
C833 C832 1.367 . S
C833 C835 1.433 . S
C834 C830 1.350 . S
C834 C831 1.463 . S
C834 N838 1.427 . S
C835 H825 0.929 . S
C835 C833 1.433 . S
C835 N838 1.384 . S
C836 H827 0.929 . S
C836 C828 1.378 . S
C836 C831 1.350 . S
C837 H824 0.929 . S
C837 C829 1.433 . S
C837 N839 1.384 . S
N838 C834 1.427 . S
N838 C835 1.384 . S
N839 C831 1.427 . S
N839 C837 1.384 . S
H840 C846 0.930 . S
H841 C850 0.930 . S
H842 C855 0.929 . S
H843 C853 0.929 . S
H844 C848 0.929 . S
H845 C854 0.929 . S
C846 H840 0.930 . S
C846 C847 1.367 . S
C846 C854 1.378 . S
C847 C846 1.367 . S
C847 C855 1.433 . S
C848 H844 0.929 . S
C848 C850 1.378 . S
C848 C852 1.350 . S
C849 C852 1.463 1_655 S
C849 C854 1.350 . S
C849 N857 1.427 . S
C850 H841 0.930 . S
C850 C848 1.378 . S
C850 C851 1.367 . S
C851 C850 1.367 . S
C851 C853 1.433 . S
C852 C848 1.350 . S
C852 C849 1.463 1_455 S
C852 N856 1.427 . S
C853 H843 0.929 . S
C853 C851 1.433 . S
C853 N856 1.384 . S
C854 H845 0.929 . S
C854 C846 1.378 . S
C854 C849 1.350 . S
C855 H842 0.929 . S
C855 C847 1.433 . S
C855 N857 1.384 . S
N856 C852 1.427 . S
N856 C853 1.384 . S
N857 C849 1.427 . S
N857 C855 1.384 . S
H858 C864 0.930 . S
H859 C868 0.930 . S
H860 C873 0.929 . S
H861 C871 0.929 . S
H862 C866 0.929 . S
H863 C872 0.929 . S
C864 H858 0.930 . S
C864 C865 1.367 . S
C864 C872 1.378 . S
C865 C864 1.367 . S
C865 C873 1.433 . S
C866 H862 0.929 . S
C866 C868 1.378 . S
C866 C870 1.350 . S
C867 C870 1.463 1_455 S
C867 C872 1.350 . S
C867 N875 1.427 . S
C868 H859 0.930 . S
C868 C866 1.378 . S
C868 C869 1.367 . S
C869 C868 1.367 . S
C869 C871 1.433 . S
C870 C866 1.350 . S
C870 C867 1.463 1_655 S
C870 N874 1.427 . S
C871 H861 0.929 . S
C871 C869 1.433 . S
C871 N874 1.384 . S
C872 H863 0.929 . S
C872 C864 1.378 . S
C872 C867 1.350 . S
C873 H860 0.929 . S
C873 C865 1.433 . S
C873 N875 1.384 . S
N874 C870 1.427 . S
N874 C871 1.384 . S
N875 C867 1.427 . S
N875 C873 1.384 . S
H876 C882 0.930 . S
H877 C886 0.930 . S
H878 C891 0.929 . S
H879 C889 0.929 . S
H880 C884 0.929 . S
H881 C890 0.929 . S
C882 H876 0.930 . S
C882 C883 1.367 . S
C882 C890 1.378 . S
C883 C882 1.367 . S
C883 C891 1.433 . S
C884 H880 0.929 . S
C884 C886 1.378 . S
C884 C888 1.350 . S
C885 C888 1.463 1_565 S
C885 C890 1.350 . S
C885 N893 1.427 . S
C886 H877 0.930 . S
C886 C884 1.378 . S
C886 C887 1.367 . S
C887 C886 1.367 . S
C887 C889 1.433 . S
C888 C884 1.350 . S
C888 C885 1.463 1_545 S
C888 N892 1.427 . S
C889 H879 0.929 . S
C889 C887 1.433 . S
C889 N892 1.384 . S
C890 H881 0.929 . S
C890 C882 1.378 . S
C890 C885 1.350 . S
C891 H878 0.929 . S
C891 C883 1.433 . S
C891 N893 1.384 . S
N892 C888 1.427 . S
N892 C889 1.384 . S
N893 C885 1.427 . S
N893 C891 1.384 . S
H894 C900 0.930 . S
H895 C904 0.930 . S
H896 C909 0.929 . S
H897 C907 0.929 . S
H898 C902 0.929 . S
H899 C908 0.929 . S
C900 H894 0.930 . S
C900 C901 1.367 . S
C900 C908 1.378 . S
C901 C900 1.367 . S
C901 C909 1.433 . S
C902 H898 0.929 . S
C902 C904 1.378 . S
C902 C906 1.350 . S
C903 C906 1.463 . S
C903 C908 1.350 . S
C903 N911 1.427 . S
C904 H895 0.930 . S
C904 C902 1.378 . S
C904 C905 1.367 . S
C905 C904 1.367 . S
C905 C907 1.433 . S
C906 C902 1.350 . S
C906 C903 1.463 . S
C906 N910 1.427 . S
C907 H897 0.929 . S
C907 C905 1.433 . S
C907 N910 1.384 . S
C908 H899 0.929 . S
C908 C900 1.378 . S
C908 C903 1.350 . S
C909 H896 0.929 . S
C909 C901 1.433 . S
C909 N911 1.384 . S
N910 C906 1.427 . S
N910 C907 1.384 . S
N911 C903 1.427 . S
N911 C909 1.384 . S
H912 C918 0.930 . S
H913 C922 0.930 . S
H914 C927 0.929 . S
H915 C925 0.929 . S
H916 C920 0.929 1_565 S
H917 C926 0.929 1_545 S
C918 H912 0.930 . S
C918 C919 1.367 . S
C918 C926 1.378 . S
C919 C918 1.367 . S
C919 C927 1.433 . S
C920 H916 0.929 1_545 S
C920 C922 1.378 . S
C920 C924 1.350 . S
C921 C924 1.463 1_565 S
C921 C926 1.350 . S
C921 N929 1.427 . S
C922 H913 0.930 . S
C922 C920 1.378 . S
C922 C923 1.367 . S
C923 C922 1.367 . S
C923 C925 1.433 . S
C924 C920 1.350 . S
C924 C921 1.463 1_545 S
C924 N928 1.427 . S
C925 H915 0.929 . S
C925 C923 1.433 . S
C925 N928 1.384 . S
C926 H917 0.929 1_565 S
C926 C918 1.378 . S
C926 C921 1.350 . S
C927 H914 0.929 . S
C927 C919 1.433 . S
C927 N929 1.384 . S
N928 C924 1.427 . S
N928 C925 1.384 . S
N929 C921 1.427 . S
N929 C927 1.384 . S
H930 C936 0.930 . S
H931 C940 0.930 . S
H932 C945 0.929 . S
H933 C943 0.929 . S
H934 C938 0.929 . S
H935 C944 0.929 . S
C936 H930 0.930 . S
C936 C937 1.367 . S
C936 C944 1.378 . S
C937 C936 1.367 . S
C937 C945 1.433 . S
C938 H934 0.929 . S
C938 C940 1.378 . S
C938 C942 1.350 . S
C939 C942 1.463 . S
C939 C944 1.350 . S
C939 N947 1.427 . S
C940 H931 0.930 . S
C940 C938 1.378 . S
C940 C941 1.367 . S
C941 C940 1.367 . S
C941 C943 1.433 . S
C942 C938 1.350 . S
C942 C939 1.463 . S
C942 N946 1.427 . S
C943 H933 0.929 . S
C943 C941 1.433 . S
C943 N946 1.384 . S
C944 H935 0.929 . S
C944 C936 1.378 . S
C944 C939 1.350 . S
C945 H932 0.929 . S
C945 C937 1.433 . S
C945 N947 1.384 . S
N946 C942 1.427 . S
N946 C943 1.384 . S
N947 C939 1.427 . S
N947 C945 1.384 . S
H948 C954 0.930 . S
H949 C958 0.930 . S
H950 C963 0.929 . S
H951 C961 0.929 . S
H952 C956 0.929 1_655 S
H953 C962 0.929 1_455 S
C954 H948 0.930 . S
C954 C955 1.367 . S
C954 C962 1.378 . S
C955 C954 1.367 . S
C955 C963 1.433 . S
C956 H952 0.929 1_455 S
C956 C958 1.378 . S
C956 C960 1.350 . S
C957 C960 1.463 1_655 S
C957 C962 1.350 . S
C957 N965 1.427 . S
C958 H949 0.930 . S
C958 C956 1.378 . S
C958 C959 1.367 . S
C959 C958 1.367 . S
C959 C961 1.433 . S
C960 C956 1.350 . S
C960 C957 1.463 1_455 S
C960 N964 1.427 . S
C961 H951 0.929 . S
C961 C959 1.433 . S
C961 N964 1.384 . S
C962 H953 0.929 1_655 S
C962 C954 1.378 . S
C962 C957 1.350 . S
C963 H950 0.929 . S
C963 C955 1.433 . S
C963 N965 1.384 . S
N964 C960 1.427 . S
N964 C961 1.384 . S
N965 C957 1.427 . S
N965 C963 1.384 . S
H966 C972 0.930 . S
H967 C976 0.930 . S
H968 C981 0.929 . S
H969 C979 0.929 . S
H970 C974 0.929 . S
H971 C980 0.929 . S
C972 H966 0.930 . S
C972 C973 1.367 . S
C972 C980 1.378 . S
C973 C972 1.367 . S
C973 C981 1.433 . S
C974 H970 0.929 . S
C974 C976 1.378 . S
C974 C978 1.350 . S
C975 C978 1.463 1_545 S
C975 C980 1.350 . S
C975 N983 1.427 . S
C976 H967 0.930 . S
C976 C974 1.378 . S
C976 C977 1.367 . S
C977 C976 1.367 . S
C977 C979 1.433 . S
C978 C974 1.350 . S
C978 C975 1.463 1_565 S
C978 N982 1.427 . S
C979 H969 0.929 . S
C979 C977 1.433 . S
C979 N982 1.384 . S
C980 H971 0.929 . S
C980 C972 1.378 . S
C980 C975 1.350 . S
C981 H968 0.929 . S
C981 C973 1.433 . S
C981 N983 1.384 . S
N982 C978 1.427 . S
N982 C979 1.384 . S
N983 C975 1.427 . S
N983 C981 1.384 . S
H984 C990 0.930 . S
H985 C994 0.930 . S
H986 C999 0.929 . S
H987 C997 0.929 . S
H988 C992 0.929 . S
H989 C998 0.929 . S
C990 H984 0.930 . S
C990 C991 1.367 . S
C990 C998 1.378 . S
C991 C990 1.367 . S
C991 C999 1.433 . S
C992 H988 0.929 . S
C992 C994 1.378 . S
C992 C996 1.350 . S
C993 C996 1.463 . S
C993 C998 1.350 . S
C993 N1001 1.427 . S
C994 H985 0.930 . S
C994 C992 1.378 . S
C994 C995 1.367 . S
C995 C994 1.367 . S
C995 C997 1.433 . S
C996 C992 1.350 . S
C996 C993 1.463 . S
C996 N1000 1.427 . S
C997 H987 0.929 . S
C997 C995 1.433 . S
C997 N1000 1.384 . S
C998 H989 0.929 . S
C998 C990 1.378 . S
C998 C993 1.350 . S
C999 H986 0.929 . S
C999 C991 1.433 . S
C999 N1001 1.384 . S
N1000 C996 1.427 . S
N1000 C997 1.384 . S
N1001 C993 1.427 . S
N1001 C999 1.384 . S
H1002 C1008 0.930 . S
H1003 C1012 0.930 . S
H1004 C1017 0.929 . S
H1005 C1015 0.929 . S
H1006 C1010 0.929 1_455 S
H1007 C1016 0.929 1_655 S
C1008 H1002 0.930 . S
C1008 C1009 1.367 . S
C1008 C1016 1.378 . S
C1009 C1008 1.367 . S
C1009 C1017 1.433 . S
C1010 H1006 0.929 1_655 S
C1010 C1012 1.378 . S
C1010 C1014 1.350 . S
C1011 C1014 1.463 1_455 S
C1011 C1016 1.350 . S
C1011 N1019 1.427 . S
C1012 H1003 0.930 . S
C1012 C1010 1.378 . S
C1012 C1013 1.367 . S
C1013 C1012 1.367 . S
C1013 C1015 1.433 . S
C1014 C1010 1.350 . S
C1014 C1011 1.463 1_655 S
C1014 N1018 1.427 . S
C1015 H1005 0.929 . S
C1015 C1013 1.433 . S
C1015 N1018 1.384 . S
C1016 H1007 0.929 1_455 S
C1016 C1008 1.378 . S
C1016 C1011 1.350 . S
C1017 H1004 0.929 . S
C1017 C1009 1.433 . S
C1017 N1019 1.384 . S
N1018 C1014 1.427 . S
N1018 C1015 1.384 . S
N1019 C1011 1.427 . S
N1019 C1017 1.384 . S
H1020 C1026 0.930 . S
H1021 C1030 0.930 . S
H1022 C1035 0.929 . S
H1023 C1033 0.929 . S
H1024 C1028 0.929 . S
H1025 C1034 0.929 . S
C1026 H1020 0.930 . S
C1026 C1027 1.367 . S
C1026 C1034 1.378 . S
C1027 C1026 1.367 . S
C1027 C1035 1.433 . S
C1028 H1024 0.929 . S
C1028 C1030 1.378 . S
C1028 C1032 1.350 . S
C1029 C1032 1.463 . S
C1029 C1034 1.350 . S
C1029 N1037 1.427 . S
C1030 H1021 0.930 . S
C1030 C1028 1.378 . S
C1030 C1031 1.367 . S
C1031 C1030 1.367 . S
C1031 C1033 1.433 . S
C1032 C1028 1.350 . S
C1032 C1029 1.463 . S
C1032 N1036 1.427 . S
C1033 H1023 0.929 . S
C1033 C1031 1.433 . S
C1033 N1036 1.384 . S
C1034 H1025 0.929 . S
C1034 C1026 1.378 . S
C1034 C1029 1.350 . S
C1035 H1022 0.929 . S
C1035 C1027 1.433 . S
C1035 N1037 1.384 . S
N1036 C1032 1.427 . S
N1036 C1033 1.384 . S
N1037 C1029 1.427 . S
N1037 C1035 1.384 . S
H1038 C1044 0.930 . S
H1039 C1048 0.930 . S
H1040 C1053 0.929 . S
H1041 C1051 0.929 . S
H1042 C1046 0.929 . S
H1043 C1052 0.929 . S
C1044 H1038 0.930 . S
C1044 C1045 1.367 . S
C1044 C1052 1.378 . S
C1045 C1044 1.367 . S
C1045 C1053 1.433 . S
C1046 H1042 0.929 . S
C1046 C1048 1.378 . S
C1046 C1050 1.350 . S
C1047 C1050 1.463 . S
C1047 C1052 1.350 . S
C1047 N1055 1.427 . S
C1048 H1039 0.930 . S
C1048 C1046 1.378 . S
C1048 C1049 1.367 . S
C1049 C1048 1.367 . S
C1049 C1051 1.433 . S
C1050 C1046 1.350 . S
C1050 C1047 1.463 . S
C1050 N1054 1.427 . S
C1051 H1041 0.929 . S
C1051 C1049 1.433 . S
C1051 N1054 1.384 . S
C1052 H1043 0.929 . S
C1052 C1044 1.378 . S
C1052 C1047 1.350 . S
C1053 H1040 0.929 . S
C1053 C1045 1.433 . S
C1053 N1055 1.384 . S
N1054 C1050 1.427 . S
N1054 C1051 1.384 . S
N1055 C1047 1.427 . S
N1055 C1053 1.384 . S
H1056 C1062 0.930 . S
H1057 C1066 0.930 . S
H1058 C1071 0.929 . S
H1059 C1069 0.929 . S
H1060 C1064 0.929 . S
H1061 C1070 0.929 . S
C1062 H1056 0.930 . S
C1062 C1063 1.367 . S
C1062 C1070 1.378 . S
C1063 C1062 1.367 . S
C1063 C1071 1.433 . S
C1064 H1060 0.929 . S
C1064 C1066 1.378 . S
C1064 C1068 1.350 . S
C1065 C1068 1.463 . S
C1065 C1070 1.350 . S
C1065 N1073 1.427 . S
C1066 H1057 0.930 . S
C1066 C1064 1.378 . S
C1066 C1067 1.367 . S
C1067 C1066 1.367 . S
C1067 C1069 1.433 . S
C1068 C1064 1.350 . S
C1068 C1065 1.463 . S
C1068 N1072 1.427 . S
C1069 H1059 0.929 . S
C1069 C1067 1.433 . S
C1069 N1072 1.384 . S
C1070 H1061 0.929 . S
C1070 C1062 1.378 . S
C1070 C1065 1.350 . S
C1071 H1058 0.929 . S
C1071 C1063 1.433 . S
C1071 N1073 1.384 . S
N1072 C1068 1.427 . S
N1072 C1069 1.384 . S
N1073 C1065 1.427 . S
N1073 C1071 1.384 . S
H1074 C1080 0.930 . S
H1075 C1084 0.930 . S
H1076 C1089 0.929 . S
H1077 C1087 0.929 . S
H1078 C1082 0.929 . S
H1079 C1088 0.929 . S
C1080 H1074 0.930 . S
C1080 C1081 1.367 . S
C1080 C1088 1.378 . S
C1081 C1080 1.367 . S
C1081 C1089 1.433 . S
C1082 H1078 0.929 . S
C1082 C1084 1.378 . S
C1082 C1086 1.350 . S
C1083 C1086 1.463 . S
C1083 C1088 1.350 . S
C1083 N1091 1.427 . S
C1084 H1075 0.930 . S
C1084 C1082 1.378 . S
C1084 C1085 1.367 . S
C1085 C1084 1.367 . S
C1085 C1087 1.433 . S
C1086 C1082 1.350 . S
C1086 C1083 1.463 . S
C1086 N1090 1.427 . S
C1087 H1077 0.929 . S
C1087 C1085 1.433 . S
C1087 N1090 1.384 . S
C1088 H1079 0.929 . S
C1088 C1080 1.378 . S
C1088 C1083 1.350 . S
C1089 H1076 0.929 . S
C1089 C1081 1.433 . S
C1089 N1091 1.384 . S
N1090 C1086 1.427 . S
N1090 C1087 1.384 . S
N1091 C1083 1.427 . S
N1091 C1089 1.384 . S
H1092 C1098 0.930 . S
H1093 C1102 0.930 . S
H1094 C1107 0.929 . S
H1095 C1105 0.929 . S
H1096 C1100 0.929 . S
H1097 C1106 0.929 . S
C1098 H1092 0.930 . S
C1098 C1099 1.367 . S
C1098 C1106 1.378 . S
C1099 C1098 1.367 . S
C1099 C1107 1.433 . S
C1100 H1096 0.929 . S
C1100 C1102 1.378 . S
C1100 C1104 1.350 . S
C1101 C1104 1.463 . S
C1101 C1106 1.350 . S
C1101 N1109 1.427 . S
C1102 H1093 0.930 . S
C1102 C1100 1.378 . S
C1102 C1103 1.367 . S
C1103 C1102 1.367 . S
C1103 C1105 1.433 . S
C1104 C1100 1.350 . S
C1104 C1101 1.463 . S
C1104 N1108 1.427 . S
C1105 H1095 0.929 . S
C1105 C1103 1.433 . S
C1105 N1108 1.384 . S
C1106 H1097 0.929 . S
C1106 C1098 1.378 . S
C1106 C1101 1.350 . S
C1107 H1094 0.929 . S
C1107 C1099 1.433 . S
C1107 N1109 1.384 . S
N1108 C1104 1.427 . S
N1108 C1105 1.384 . S
N1109 C1101 1.427 . S
N1109 C1107 1.384 . S
H1110 C1116 0.930 . S
H1111 C1120 0.930 . S
H1112 C1125 0.929 . S
H1113 C1123 0.929 . S
H1114 C1118 0.929 . S
H1115 C1124 0.929 . S
C1116 H1110 0.930 . S
C1116 C1117 1.367 . S
C1116 C1124 1.378 . S
C1117 C1116 1.367 . S
C1117 C1125 1.433 . S
C1118 H1114 0.929 . S
C1118 C1120 1.378 . S
C1118 C1122 1.350 . S
C1119 C1122 1.463 . S
C1119 C1124 1.350 . S
C1119 N1127 1.427 . S
C1120 H1111 0.930 . S
C1120 C1118 1.378 . S
C1120 C1121 1.367 . S
C1121 C1120 1.367 . S
C1121 C1123 1.433 . S
C1122 C1118 1.350 . S
C1122 C1119 1.463 . S
C1122 N1126 1.427 . S
C1123 H1113 0.929 . S
C1123 C1121 1.433 . S
C1123 N1126 1.384 . S
C1124 H1115 0.929 . S
C1124 C1116 1.378 . S
C1124 C1119 1.350 . S
C1125 H1112 0.929 . S
C1125 C1117 1.433 . S
C1125 N1127 1.384 . S
N1126 C1122 1.427 . S
N1126 C1123 1.384 . S
N1127 C1119 1.427 . S
N1127 C1125 1.384 . S
C487 C9 1.102 . S
C491 C329 1.095 . S
C505 C49 1.099 . S
C509 C369 1.088 . S
C523 C89 1.086 . S
C527 C409 1.095 . S
C541 C449 1.086 . S
C545 C129 1.095 . S
C559 C169 1.087 . S
C563 C249 1.098 . S
C577 C289 1.086 . S
C581 C209 1.096 . S
C595 C415 1.535 . S
C599 C15 1.531 . S
C613 C455 1.522 . S
C617 C55 1.522 . S
C631 C95 1.522 . S
C635 C255 1.528 . S
C649 C295 1.521 . S
C653 C135 1.527 . S
C667 C335 1.532 . S
C671 C175 1.525 . S
C685 C215 1.533 . S
C689 C375 1.526 . S
C703 C299 4.251 . S
C707 C19 4.254 . S
C721 C339 4.249 . S
C725 C59 4.251 . S
C739 C379 4.253 . S
C743 C99 4.252 . S
C757 C139 4.250 . S
C761 C419 4.249 . S
C775 C179 4.253 . S
C779 C459 4.249 . S
C793 C219 4.249 . S
C797 C259 4.251 . S
C811 C18 0.519 . S
C815 C138 0.502 . S
C829 C58 0.549 . S
C833 C178 0.552 . S
C847 C98 0.519 . S
C851 C218 0.502 . S
C865 C378 0.540 . S
C869 C258 0.513 . S
C883 C298 0.517 . S
C887 C418 0.544 . S
C901 C458 0.502 . S
C905 C338 0.520 . S
C919 C286 0.688 . S
C923 C6 0.696 . S
C937 C326 0.716 . S
C941 C46 0.698 . S
C955 C86 0.689 . S
C959 C366 0.702 . S
C973 C406 0.705 . S
C977 C126 0.722 . S
C991 C446 0.706 . S
C995 C166 0.723 . S
C1009 C206 0.688 . S
C1013 C246 0.697 . S
C1027 C10 4.755 . S
C1031 C410 4.755 . S
C1045 C50 4.755 . S
C1049 C450 4.756 1_556 S
C1063 C90 4.755 1_554 S
C1067 C250 4.755 . S
C1081 C130 4.756 . S
C1085 C290 4.755 . S
C1099 C170 4.756 . S
C1103 C330 4.755 1_556 S
C1117 C370 4.756 . S
C1121 C210 4.755 1_554 S
