# Generated by pormake.
# Topology uov, (4)-cn, num edge types: 1
# Building blocks:
#     Node 0, Type 0, BuildingBlock: QUQFOY_clean_sbu_1, # of connection points: 4
#     Node 1, Type 0, BuildingBlock: QUQFOY_clean_sbu_1, # of connection points: 4
#     Node 2, Type 0, BuildingBlock: QUQFOY_clean_sbu_1, # of connection points: 4
#     Node 3, Type 0, BuildingBlock: QUQFOY_clean_sbu_1, # of connection points: 4
#     Node 4, Type 0, BuildingBlock: QUQFOY_clean_sbu_1, # of connection points: 4
#     Node 5, Type 0, BuildingBlock: QUQFOY_clean_sbu_1, # of connection points: 4
#     Node 6, Type 0, BuildingBlock: QUQFOY_clean_sbu_1, # of connection points: 4
#     Node 7, Type 0, BuildingBlock: QUQFOY_clean_sbu_1, # of connection points: 4
#     Edge 8, Type (0, 0), BuildingBlock: CIFDUS_clean_linker_0, # of connection points: 2
#     Edge 9, Type (0, 0), BuildingBlock: CIFDUS_clean_linker_0, # of connection points: 2
#     Edge 10, Type (0, 0), BuildingBlock: CIFDUS_clean_linker_0, # of connection points: 2
#     Edge 11, Type (0, 0), BuildingBlock: CIFDUS_clean_linker_0, # of connection points: 2
#     Edge 12, Type (0, 0), BuildingBlock: CIFDUS_clean_linker_0, # of connection points: 2
#     Edge 13, Type (0, 0), BuildingBlock: CIFDUS_clean_linker_0, # of connection points: 2
#     Edge 14, Type (0, 0), BuildingBlock: CIFDUS_clean_linker_0, # of connection points: 2
#     Edge 15, Type (0, 0), BuildingBlock: CIFDUS_clean_linker_0, # of connection points: 2
#     Edge 16, Type (0, 0), BuildingBlock: CIFDUS_clean_linker_0, # of connection points: 2
#     Edge 17, Type (0, 0), BuildingBlock: CIFDUS_clean_linker_0, # of connection points: 2
#     Edge 18, Type (0, 0), BuildingBlock: CIFDUS_clean_linker_0, # of connection points: 2
#     Edge 19, Type (0, 0), BuildingBlock: CIFDUS_clean_linker_0, # of connection points: 2
#     Edge 20, Type (0, 0), BuildingBlock: CIFDUS_clean_linker_0, # of connection points: 2
#     Edge 21, Type (0, 0), BuildingBlock: CIFDUS_clean_linker_0, # of connection points: 2
#     Edge 22, Type (0, 0), BuildingBlock: CIFDUS_clean_linker_0, # of connection points: 2
#     Edge 23, Type (0, 0), BuildingBlock: CIFDUS_clean_linker_0, # of connection points: 2
# Relax obj value: 0.030
# Max RMSD: 0.047
# Mean RMSD: 0.047
data_MOF--net-uov--node1-QUQFOY_clean_sbu_1--edge1-CIFDUS_clean_linker_0
_symmetry_space_group_name_H-M    P1
_symmetry_Int_Tables_number       1
_symmetry_cell_setting            triclinic
loop_
_symmetry_equiv_pos_as_xyz
'x, y, z'
_cell_length_a     28.413777
_cell_length_b     28.444507
_cell_length_c     39.73512
_cell_angle_alpha  90.016855
_cell_angle_beta   90.044585
_cell_angle_gamma 89.993241
loop_
_atom_site_label
_atom_site_type_symbol
_atom_site_fract_x
_atom_site_fract_y
_atom_site_fract_z
_atom_type_partial_charge
O0 O 0.97507 0.24794 0.56876 0.0
Cd1 Cd 0.03589 0.28117 0.58246 0.0
Cd2 Cd 0.04714 0.19617 0.61683 0.0
O3 O 0.97841 0.18466 0.60069 0.0
O4 O 0.0242 0.34373 0.56233 0.0
O5 O 0.03467 0.33395 0.61685 0.0
C6 C 0.02564 0.3617 0.59198 0.0
C7 C 0.07165 0.17204 0.67049 0.0
C8 C 0.95711 0.20971 0.57895 0.0
C9 C 0.11282 0.2193 0.55854 0.0
O10 O 0.09864 0.18999 0.58046 0.0
O11 O 0.09399 0.25958 0.55597 0.0
O12 O 0.06039 0.14213 0.64753 0.0
O13 O 0.06725 0.21618 0.66353 0.0
O14 O 0.26772 0.00534 0.4566 0.0
Cd15 Cd 0.28438 0.94369 0.43248 0.0
Cd16 Cd 0.20584 0.96736 0.40359 0.0
O17 O 0.22095 0.03531 0.41829 0.0
O18 O 0.3494 0.93575 0.44933 0.0
O19 O 0.3333 0.94716 0.39555 0.0
C20 C 0.36421 0.94379 0.41927 0.0
C21 C 0.18062 0.94703 0.34968 0.0
C22 C 0.24431 0.03992 0.44537 0.0
C23 C 0.20445 0.89201 0.45631 0.0
O24 O 0.18211 0.92551 0.44241 0.0
O25 O 0.248 0.88612 0.45043 0.0
O26 O 0.15419 0.97107 0.36967 0.0
O27 O 0.22238 0.93579 0.35981 0.0
O28 O 0.01281 0.752 0.5766 0.0
Cd29 Cd 0.95122 0.71575 0.58187 0.0
Cd30 Cd 0.92952 0.79655 0.62324 0.0
O31 O 0.99706 0.81423 0.60785 0.0
O32 O 0.96584 0.65959 0.55425 0.0
O33 O 0.9498 0.6547 0.6084 0.0
C34 C 0.9611 0.63402 0.58065 0.0
C35 C 0.90465 0.81912 0.67737 0.0
C36 C 0.02454 0.79181 0.58828 0.0
C37 C 0.871 0.77817 0.56069 0.0
O38 O 0.87812 0.8027 0.58693 0.0
O39 O 0.89595 0.74228 0.55429 0.0
O40 O 0.91378 0.84957 0.65437 0.0
O41 O 0.9108 0.7753 0.67011 0.0
O42 O 0.74355 0.9686 0.43436 0.0
Cd43 Cd 0.71443 0.03242 0.42401 0.0
Cd44 Cd 0.79794 0.03377 0.38286 0.0
O45 O 0.80218 0.96403 0.39825 0.0
O46 O 0.65782 0.02665 0.45289 0.0
O47 O 0.65286 0.0328 0.39777 0.0
C48 C 0.63213 0.02655 0.42629 0.0
C49 C 0.81943 0.0547 0.32802 0.0
C50 C 0.77739 0.94585 0.4215 0.0
C51 C 0.78944 0.10183 0.44184 0.0
O52 O 0.81436 0.08387 0.41859 0.0
O53 O 0.74748 0.0883 0.44706 0.0
O54 O 0.8499 0.03906 0.3492 0.0
O55 O 0.77602 0.05728 0.33741 0.0
O56 O 0.02094 0.24511 0.0616 0.0
Cd57 Cd 0.96231 0.28633 0.06732 0.0
Cd58 Cd 0.93275 0.20713 0.10741 0.0
O59 O -0.00155 0.18401 0.09185 0.0
O60 O 0.98146 0.34357 0.04228 0.0
O61 O 0.96345 0.34524 0.09622 0.0
C62 C 0.97673 0.36741 0.06954 0.0
C63 C 0.90596 0.18299 0.16076 0.0
C64 C 0.02833 0.20395 0.07274 0.0
C65 C 0.87725 0.23182 0.04453 0.0
O66 O 0.88161 0.20649 0.07069 0.0
O67 O 0.90548 0.26546 0.0388 0.0
O68 O 0.9126 0.15354 0.13669 0.0
O69 O 0.91541 0.22662 0.15499 0.0
O70 O 0.2547 0.96331 0.93748 0.0
Cd71 Cd 0.28006 0.02697 0.92084 0.0
Cd72 Cd 0.19603 0.01564 0.88656 0.0
O73 O 0.20477 0.94531 0.89723 0.0
O74 O 0.33816 0.02876 0.94858 0.0
O75 O 0.34048 0.02503 0.89328 0.0
C76 C 0.36269 0.02474 0.92161 0.0
C77 C 0.16746 0.04052 0.83427 0.0
C78 C 0.22757 0.93374 0.92345 0.0
C79 C 0.20134 0.08527 0.94316 0.0
O80 O 0.17591 0.05607 0.92718 0.0
O81 O 0.24569 0.08581 0.93918 0.0
O82 O 0.14138 0.01738 0.85493 0.0
O83 O 0.21059 0.04866 0.84276 0.0
O84 O 0.98594 0.75876 0.07778 0.0
Cd85 Cd 0.04603 0.72117 0.0873 0.0
Cd86 Cd 0.06722 0.80219 0.12635 0.0
O87 O 0.00152 0.82184 0.10818 0.0
O88 O 0.03124 0.66093 0.06451 0.0
O89 O 0.04532 0.66524 0.119 0.0
C90 C 0.03458 0.64003 0.0931 0.0
C91 C 0.08989 0.82417 0.18102 0.0
C92 C 0.97477 0.79952 0.08802 0.0
C93 C 0.12984 0.77861 0.06693 0.0
O94 O 0.12124 0.80506 0.09194 0.0
O95 O 0.10431 0.74302 0.06072 0.0
O96 O 0.08321 0.85484 0.15772 0.0
O97 O 0.08216 0.7806 0.17376 0.0
O98 O 0.72743 0.01149 0.94979 0.0
Cd99 Cd 0.71175 0.94698 0.9294 0.0
Cd100 Cd 0.79054 0.96847 0.89864 0.0
O101 O 0.7748 0.03739 0.91039 0.0
O102 O 0.64707 0.94003 0.94718 0.0
O103 O 0.66208 0.94576 0.8928 0.0
C104 C 0.63163 0.9447 0.91691 0.0
C105 C 0.81585 0.94541 0.84525 0.0
C106 C 0.75065 0.0449 0.93674 0.0
C107 C 0.79339 0.89751 0.95449 0.0
O108 O 0.81546 0.92955 0.93874 0.0
O109 O 0.74951 0.89167 0.94979 0.0
O110 O 0.84205 0.97072 0.8646 0.0
O111 O 0.77432 0.93413 0.85577 0.0
H112 H 0.97906 0.57227 0.63205 0.0
H113 H 0.96306 0.58134 0.52413 0.0
H114 H 0.98224 0.4985 0.51853 0.0
H115 H 0.00486 0.42428 0.54348 0.0
H116 H 0.02223 0.41242 0.65103 0.0
H117 H 0.00164 0.49573 0.65755 0.0
C118 C 0.97942 0.55588 0.60741 0.0
C119 C 0.96968 0.58293 0.57856 0.0
C120 C 0.99115 0.50798 0.60423 0.0
C121 C 0.97061 0.56141 0.54673 0.0
C122 C 0.98163 0.51401 0.54345 0.0
C123 C 0.00432 0.43975 0.56843 0.0
C124 C 0.0152 0.41221 0.59671 0.0
C125 C 0.99234 0.48715 0.57193 0.0
C126 C 0.01416 0.43296 0.62881 0.0
C127 C 0.00224 0.48051 0.63255 0.0
H128 H 0.56987 0.00461 0.37572 0.0
H129 H 0.58071 0.02251 0.48345 0.0
H130 H 0.50033 0.99541 0.49039 0.0
H131 H 0.42778 0.96557 0.46674 0.0
H132 H 0.41261 0.95009 0.3593 0.0
H133 H 0.49418 0.97654 0.35142 0.0
C134 C 0.55436 0.0031 0.40062 0.0
C135 C 0.5814 0.01552 0.42901 0.0
C136 C 0.50771 0.98717 0.40458 0.0
C137 C 0.56087 0.01311 0.46115 0.0
C138 C 0.51489 -0.00261 0.46522 0.0
C139 C 0.44231 0.96738 0.44154 0.0
C140 C 0.41438 0.95523 0.41368 0.0
C141 C 0.48828 0.98382 0.43723 0.0
C142 C 0.4336 0.95879 0.3812 0.0
C143 C 0.48009 0.9742 0.37669 0.0
H144 H 0.99024 0.42591 0.1236 0.0
H145 H 0.98544 0.42345 0.01495 0.0
H146 H 0.00338 0.50688 0.01304 0.0
H147 H 0.02061 0.58024 0.04154 0.0
H148 H 0.02747 0.58518 0.14995 0.0
H149 H 0.00893 0.50101 0.15263 0.0
C150 C 0.99295 0.44379 0.09958 0.0
C151 C 0.98644 0.41846 0.06948 0.0
C152 C 0.00389 0.49207 0.09857 0.0
C153 C 0.99041 0.44198 0.0385 0.0
C154 C 0.00067 0.48976 0.03734 0.0
C155 C 0.01812 0.56305 0.06584 0.0
C156 C 0.02531 0.58897 0.09549 0.0
C157 C 0.00759 0.51505 0.06714 0.0
C158 C 0.02217 0.56596 0.12672 0.0
C159 C 0.01144 0.51789 0.12825 0.0
H160 H 0.42345 0.99517 0.87211 0.0
H161 H 0.41676 0.03302 0.97732 0.0
H162 H 0.49796 0.00883 0.98502 0.0
H163 H 0.56992 0.97535 0.96297 0.0
H164 H 0.58101 0.94014 0.85772 0.0
H165 H 0.49879 0.9642 0.84903 0.0
C166 C 0.44005 -0.00132 0.89656 0.0
C167 C 0.41389 0.01577 0.92411 0.0
C168 C 0.48719 0.98441 0.90098 0.0
C169 C 0.43586 0.01989 0.95568 0.0
C170 C 0.48232 0.00585 0.96021 0.0
C171 C 0.55435 0.97234 0.93813 0.0
C172 C 0.58126 0.95521 0.91114 0.0
C173 C 0.508 0.98746 0.93323 0.0
C174 C 0.56078 0.95271 0.87899 0.0
C175 C 0.51392 0.96674 0.874 0.0
H176 H 0.19461 0.12038 0.43215 0.0
H177 H 0.27792 0.05208 0.50889 0.0
H178 H 0.24946 0.10739 0.55071 0.0
H179 H 0.18967 0.16499 0.56745 0.0
H180 H 0.10799 0.23559 0.49132 0.0
H181 H 0.14759 0.19026 0.44732 0.0
C182 C 0.20748 0.11839 0.45781 0.0
C183 C 0.23717 0.0812 0.46749 0.0
C184 C 0.19084 0.15039 0.48201 0.0
C185 C 0.2543 0.07973 0.50075 0.0
C186 C 0.23793 0.11129 0.52485 0.0
C187 C 0.18169 0.17137 0.54113 0.0
C188 C 0.1457 0.20284 0.53252 0.0
C189 C 0.20443 0.14518 0.51608 0.0
C190 C 0.13574 0.21142 0.49844 0.0
C191 C 0.15804 0.1852 0.47331 0.0
H192 H 0.15468 0.92735 0.50736 0.0
H193 H 0.20239 0.79648 0.46478 0.0
H194 H 0.15526 0.7527 0.50612 0.0
H195 H 0.09373 0.75283 0.54985 0.0
H196 H 0.04791 0.88472 0.59271 0.0
H197 H 0.10256 0.92706 0.55649 0.0
C198 C 0.15496 0.88919 0.50739 0.0
C199 C 0.1808 0.86488 0.48282 0.0
C200 C 0.12852 0.86465 0.53135 0.0
C201 C 0.18218 0.81564 0.48339 0.0
C202 C 0.15531 0.79078 0.50695 0.0
C203 C 0.09641 0.79077 0.55182 0.0
C204 C 0.06605 0.8156 0.57356 0.0
C205 C 0.12739 0.81502 0.53048 0.0
C206 C 0.07056 0.86468 0.57613 0.0
C207 C 0.1015 0.88901 0.55517 0.0
H208 H 0.73881 0.90651 0.47691 0.0
H209 H 0.84917 0.8857 0.40373 0.0
H210 H 0.88271 0.82317 0.43862 0.0
H211 H 0.88832 0.78509 0.49424 0.0
H212 H 0.78405 0.8155 0.56992 0.0
H213 H 0.73994 0.86328 0.5296 0.0
C214 C 0.76971 0.8878 0.46812 0.0
C215 C 0.79189 0.90138 0.43795 0.0
C216 C 0.79006 0.85384 0.48904 0.0
C217 C 0.83163 0.8763 0.42697 0.0
C218 C 0.85095 0.84071 0.44701 0.0
C219 C 0.85513 0.80103 0.50145 0.0
C220 C 0.83911 0.79683 0.53481 0.0
C221 C 0.83161 0.83068 0.47874 0.0
C222 C 0.79674 0.81831 0.54429 0.0
C223 C 0.77179 0.84578 0.52133 0.0
H224 H 0.79781 0.09079 0.50885 0.0
H225 H 0.83408 0.18335 0.42709 0.0
H226 H 0.88375 0.22998 0.46484 0.0
H227 H 0.92415 0.23795 0.51857 0.0
H228 H 0.89699 0.13909 0.59863 0.0
H229 H 0.83593 0.10147 0.5643 0.0
C230 C 0.81574 0.12193 0.4997 0.0
C231 C 0.81211 0.1343 0.46554 0.0
C232 C 0.84619 0.14688 0.52112 0.0
C233 C 0.83627 0.17374 0.45343 0.0
C234 C 0.86475 0.20011 0.47494 0.0
C235 C 0.90429 0.20876 0.5289 0.0
C236 C 0.91515 0.19131 0.56116 0.0
C237 C 0.87108 0.1861 0.50851 0.0
C238 C 0.88937 0.15311 0.57387 0.0
C239 C 0.8546 0.13154 0.55421 0.0
H240 H 0.80383 0.12199 0.92078 0.0
H241 H 0.70956 0.0673 0.9965 0.0
H242 H 0.7347 0.12789 0.03567 0.0
H243 H 0.79494 0.18515 0.052 0.0
H244 H 0.88916 0.24057 0.97683 0.0
H245 H 0.85174 0.19196 0.9338 0.0
C246 C 0.78785 0.12411 0.94551 0.0
C247 C 0.75608 0.08915 0.956 0.0
C248 C 0.80282 0.15892 0.96824 0.0
C249 C 0.73495 0.09305 0.98793 0.0
C250 C 0.74937 0.12768 0.01049 0.0
C251 C 0.80622 0.18765 0.02597 0.0
C252 C 0.84528 0.21551 0.0177 0.0
C253 C 0.78509 0.15909 1.00151 0.0
C254 C 0.85922 0.21915 0.98385 0.0
C255 C 0.83816 0.19096 0.95927 0.0
H256 H 0.14597 0.05532 0.99313 0.0
H257 H 0.2083 0.18041 0.95146 0.0
H258 H 0.16419 0.22906 0.99171 0.0
H259 H 0.10158 0.23553 0.03448 0.0
H260 H 0.04186 0.10916 0.07702 0.0
H261 H 0.09257 0.0613 0.04144 0.0
C262 C 0.1501 0.09326 0.99316 0.0
C263 C 0.1793 0.11464 0.96917 0.0
C264 C 0.12542 0.12056 0.0166 0.0
C265 C 0.18553 0.16352 0.96967 0.0
C266 C 0.16036 0.19117 0.99261 0.0
C267 C 0.10035 0.19753 0.03652 0.0
C268 C 0.06727 0.17604 0.05801 0.0
C269 C 0.12933 0.17008 0.01566 0.0
C270 C 0.06669 0.12674 0.06063 0.0
C271 C 0.09541 0.09926 0.04004 0.0
H272 H 0.12249 0.77313 0.99926 0.0
H273 H 0.21311 0.82246 0.07888 0.0
H274 H 0.25895 0.86793 0.03832 0.0
H275 H 0.2631 0.90495 0.98321 0.0
H276 H 0.16601 0.8638 0.90491 0.0
H277 H 0.13358 0.80298 0.94165 0.0
C278 C 0.15327 0.79258 0.00746 0.0
C279 C 0.16446 0.79473 0.04192 0.0
C280 C 0.17773 0.82072 0.9843 0.0
C281 C 0.20391 0.82052 0.05244 0.0
C282 C 0.22987 0.8467 0.02931 0.0
C283 C 0.23552 0.88207 0.97379 0.0
C284 C 0.21631 0.88966 0.94158 0.0
C285 C 0.21556 0.8489 0.99555 0.0
C286 C 0.18106 0.85916 0.92974 0.0
C287 C 0.16232 0.82452 0.95082 0.0
H288 H 0.84779 0.93434 1.00274 0.0
H289 H 0.79363 0.80259 0.96587 0.0
H290 H 0.84164 0.75989 0.00732 0.0
H291 H 0.90464 0.76065 0.05019 0.0
H292 H 0.95581 0.89355 0.08806 0.0
H293 H 0.90216 0.93536 0.05071 0.0
C294 C 0.84635 0.89625 1.00401 0.0
C295 C 0.81824 0.87134 0.98104 0.0
C296 C 0.87318 0.87235 0.02816 0.0
C297 C 0.81549 0.82223 0.98324 0.0
C298 C 0.8429 0.79797 0.00687 0.0
C299 C 0.90341 0.79876 0.05076 0.0
C300 C 0.93478 0.82389 0.07159 0.0
C301 C 0.87265 0.82269 0.02897 0.0
C302 C 0.93225 0.87324 0.07229 0.0
C303 C 0.90185 0.89725 0.05069 0.0
H304 H 0.05949 0.08689 0.69967 0.0
H305 H 0.12879 0.22032 0.71375 0.0
H306 H 0.16723 0.19047 0.76466 0.0
H307 H 0.18186 0.12562 0.80492 0.0
H308 H 0.10694 0.99491 0.793 0.0
H309 H 0.07039 0.02414 0.74132 0.0
C310 C 0.08284 0.10951 0.71398 0.0
C311 C 0.09143 0.15568 0.70292 0.0
C312 C 0.10418 0.09235 0.74341 0.0
C313 C 0.1214 0.18473 0.72188 0.0
C314 C 0.14363 0.16757 0.75085 0.0
C315 C 0.15785 0.10354 0.79074 0.0
C316 C 0.14757 0.05797 0.8023 0.0
C317 C 0.13557 0.12129 0.76172 0.0
C318 C 0.11555 0.02999 0.78433 0.0
C319 C 0.09457 0.04672 0.75488 0.0
H320 H 0.08162 0.90985 0.21014 0.0
H321 H 0.13971 0.77163 0.22629 0.0
H322 H 0.17581 0.79829 0.27896 0.0
H323 H 0.19151 0.86158 0.32026 0.0
H324 H 0.12725 -0.00258 0.30618 0.0
H325 H 0.09334 0.97137 0.25269 0.0
C326 C 0.10202 0.88551 0.22528 0.0
C327 C 0.10816 0.8389 0.2143 0.0
C328 C 0.12195 0.90088 0.25572 0.0
C329 C 0.13426 0.80761 0.23432 0.0
C330 C 0.15516 0.82294 0.26431 0.0
C331 C 0.17043 0.88546 0.30522 0.0
C332 C 0.16243 0.93155 0.3167 0.0
C333 C 0.14953 0.86961 0.27514 0.0
C334 C 0.13411 0.96192 0.29759 0.0
C335 C 0.11464 0.94699 0.26711 0.0
H336 H 0.91508 0.90449 0.70646 0.0
H337 H 0.85194 0.7684 0.72209 0.0
H338 H 0.81615 0.79632 0.77452 0.0
H339 H 0.80238 0.86011 0.81583 0.0
H340 H 0.87136 0.99369 0.80201 0.0
H341 H 0.90489 0.96639 0.74881 0.0
C342 C 0.8936 0.88089 0.72141 0.0
C343 C 0.88599 0.83452 0.71037 0.0
C344 C 0.87384 0.89695 0.75169 0.0
C345 C 0.85851 0.80419 0.73016 0.0
C346 C 0.83781 0.82023 0.76002 0.0
C347 C 0.82442 0.88324 0.80092 0.0
C348 C 0.83392 0.92903 0.81245 0.0
C349 C 0.845 0.86666 0.77094 0.0
C350 C 0.8634 0.9584 0.79345 0.0
C351 C 0.88264 0.94278 0.76311 0.0
H352 H 0.80702 0.14077 0.30029 0.0
H353 H 0.86854 0.00472 0.28209 0.0
H354 H 0.90009 0.03222 0.22822 0.0
H355 H 0.91178 0.09549 0.1871 0.0
H356 H 0.85717 0.23403 0.20752 0.0
H357 H 0.82179 0.20549 0.25991 0.0
C358 C 0.82682 0.11717 0.28419 0.0
C359 C 0.83479 0.07061 0.29454 0.0
C360 C 0.84655 0.1339 0.25398 0.0
C361 C 0.8616 0.04052 0.2742 0.0
C362 C 0.87977 0.0563 0.24357 0.0
C363 C 0.89215 0.11945 0.20304 0.0
C364 C 0.88692 0.16675 0.19342 0.0
C365 C 0.8728 0.10301 0.23334 0.0
C366 C 0.86188 0.19752 0.21449 0.0
C367 C 0.84143 0.18114 0.24433 0.0
loop_
_geom_bond_atom_site_label_1
_geom_bond_atom_site_label_2
_geom_bond_distance
_geom_bond_site_symmetry_2
_ccdc_geom_bond_type
O0 Cd1 2.223 . S
O0 C8 1.315 . S
Cd1 O0 2.223 . S
Cd1 O4 2.297 . S
Cd1 O5 2.439 . S
Cd1 O11 2.240 . S
Cd2 O3 2.240 . S
Cd2 O10 2.223 . S
Cd2 O12 2.297 . S
Cd2 O13 2.439 . S
O3 Cd2 2.240 . S
O3 C8 1.279 . S
O4 Cd1 2.297 . S
O4 C6 1.247 . S
O5 Cd1 2.439 . S
O5 C6 1.208 . S
C6 O4 1.247 . S
C6 O5 1.208 . S
C7 O12 1.247 . S
C7 O13 1.208 . S
C8 O0 1.315 . S
C8 O3 1.279 . S
C9 O10 1.315 . S
C9 O11 1.279 . S
O10 Cd2 2.223 . S
O10 C9 1.315 . S
O11 Cd1 2.240 . S
O11 C9 1.279 . S
O12 Cd2 2.297 . S
O12 C7 1.247 . S
O13 Cd2 2.439 . S
O13 C7 1.208 . S
O14 Cd15 2.223 . S
O14 C22 1.315 . S
Cd15 O14 2.223 . S
Cd15 O18 2.297 . S
Cd15 O19 2.439 . S
Cd15 O25 2.240 . S
Cd16 O17 2.240 . S
Cd16 O24 2.223 . S
Cd16 O26 2.297 . S
Cd16 O27 2.439 . S
O17 Cd16 2.240 . S
O17 C22 1.279 . S
O18 Cd15 2.297 . S
O18 C20 1.247 . S
O19 Cd15 2.439 . S
O19 C20 1.208 . S
C20 O18 1.247 . S
C20 O19 1.208 . S
C21 O26 1.247 . S
C21 O27 1.208 . S
C22 O14 1.315 . S
C22 O17 1.279 . S
C23 O24 1.315 . S
C23 O25 1.279 . S
O24 Cd16 2.223 . S
O24 C23 1.315 . S
O25 Cd15 2.240 . S
O25 C23 1.279 . S
O26 Cd16 2.297 . S
O26 C21 1.247 . S
O27 Cd16 2.439 . S
O27 C21 1.208 . S
O28 Cd29 2.223 . S
O28 C36 1.315 . S
Cd29 O28 2.223 . S
Cd29 O32 2.297 . S
Cd29 O33 2.439 . S
Cd29 O39 2.240 . S
Cd30 O31 2.240 . S
Cd30 O38 2.223 . S
Cd30 O40 2.297 . S
Cd30 O41 2.439 . S
O31 Cd30 2.240 . S
O31 C36 1.279 . S
O32 Cd29 2.297 . S
O32 C34 1.247 . S
O33 Cd29 2.439 . S
O33 C34 1.208 . S
C34 O32 1.247 . S
C34 O33 1.208 . S
C35 O40 1.247 . S
C35 O41 1.208 . S
C36 O28 1.315 . S
C36 O31 1.279 . S
C37 O38 1.315 . S
C37 O39 1.279 . S
O38 Cd30 2.223 . S
O38 C37 1.315 . S
O39 Cd29 2.240 . S
O39 C37 1.279 . S
O40 Cd30 2.297 . S
O40 C35 1.247 . S
O41 Cd30 2.439 . S
O41 C35 1.208 . S
O42 Cd43 2.223 . S
O42 C50 1.315 . S
Cd43 O42 2.223 . S
Cd43 O46 2.297 . S
Cd43 O47 2.439 . S
Cd43 O53 2.240 . S
Cd44 O45 2.240 . S
Cd44 O52 2.223 . S
Cd44 O54 2.297 . S
Cd44 O55 2.439 . S
O45 Cd44 2.240 . S
O45 C50 1.279 . S
O46 Cd43 2.297 . S
O46 C48 1.247 . S
O47 Cd43 2.439 . S
O47 C48 1.208 . S
C48 O46 1.247 . S
C48 O47 1.208 . S
C49 O54 1.247 . S
C49 O55 1.208 . S
C50 O42 1.315 . S
C50 O45 1.279 . S
C51 O52 1.315 . S
C51 O53 1.279 . S
O52 Cd44 2.223 . S
O52 C51 1.315 . S
O53 Cd43 2.240 . S
O53 C51 1.279 . S
O54 Cd44 2.297 . S
O54 C49 1.247 . S
O55 Cd44 2.439 . S
O55 C49 1.208 . S
O56 Cd57 2.223 . S
O56 C64 1.315 . S
Cd57 O56 2.223 . S
Cd57 O60 2.297 . S
Cd57 O61 2.439 . S
Cd57 O67 2.240 . S
Cd58 O59 2.240 . S
Cd58 O66 2.223 . S
Cd58 O68 2.297 . S
Cd58 O69 2.439 . S
O59 Cd58 2.240 . S
O59 C64 1.279 . S
O60 Cd57 2.297 . S
O60 C62 1.247 . S
O61 Cd57 2.439 . S
O61 C62 1.208 . S
C62 O60 1.247 . S
C62 O61 1.208 . S
C63 O68 1.247 . S
C63 O69 1.208 . S
C64 O56 1.315 . S
C64 O59 1.279 . S
C65 O66 1.315 . S
C65 O67 1.279 . S
O66 Cd58 2.223 . S
O66 C65 1.315 . S
O67 Cd57 2.240 . S
O67 C65 1.279 . S
O68 Cd58 2.297 . S
O68 C63 1.247 . S
O69 Cd58 2.439 . S
O69 C63 1.208 . S
O70 Cd71 2.223 . S
O70 C78 1.315 . S
Cd71 O70 2.223 . S
Cd71 O74 2.297 . S
Cd71 O75 2.439 . S
Cd71 O81 2.240 . S
Cd72 O73 2.240 . S
Cd72 O80 2.223 . S
Cd72 O82 2.297 . S
Cd72 O83 2.439 . S
O73 Cd72 2.240 . S
O73 C78 1.279 . S
O74 Cd71 2.297 . S
O74 C76 1.247 . S
O75 Cd71 2.439 . S
O75 C76 1.208 . S
C76 O74 1.247 . S
C76 O75 1.208 . S
C77 O82 1.247 . S
C77 O83 1.208 . S
C78 O70 1.315 . S
C78 O73 1.279 . S
C79 O80 1.315 . S
C79 O81 1.279 . S
O80 Cd72 2.223 . S
O80 C79 1.315 . S
O81 Cd71 2.240 . S
O81 C79 1.279 . S
O82 Cd72 2.297 . S
O82 C77 1.247 . S
O83 Cd72 2.439 . S
O83 C77 1.208 . S
O84 Cd85 2.223 . S
O84 C92 1.315 . S
Cd85 O84 2.223 . S
Cd85 O88 2.297 . S
Cd85 O89 2.439 . S
Cd85 O95 2.240 . S
Cd86 O87 2.240 . S
Cd86 O94 2.223 . S
Cd86 O96 2.297 . S
Cd86 O97 2.439 . S
O87 Cd86 2.240 . S
O87 C92 1.279 . S
O88 Cd85 2.297 . S
O88 C90 1.247 . S
O89 Cd85 2.439 . S
O89 C90 1.208 . S
C90 O88 1.247 . S
C90 O89 1.208 . S
C91 O96 1.247 . S
C91 O97 1.208 . S
C92 O84 1.315 . S
C92 O87 1.279 . S
C93 O94 1.315 . S
C93 O95 1.279 . S
O94 Cd86 2.223 . S
O94 C93 1.315 . S
O95 Cd85 2.240 . S
O95 C93 1.279 . S
O96 Cd86 2.297 . S
O96 C91 1.247 . S
O97 Cd86 2.439 . S
O97 C91 1.208 . S
O98 Cd99 2.223 . S
O98 C106 1.315 . S
Cd99 O98 2.223 . S
Cd99 O102 2.297 . S
Cd99 O103 2.439 . S
Cd99 O109 2.240 . S
Cd100 O101 2.240 . S
Cd100 O108 2.223 . S
Cd100 O110 2.297 . S
Cd100 O111 2.439 . S
O101 Cd100 2.240 . S
O101 C106 1.279 . S
O102 Cd99 2.297 . S
O102 C104 1.247 . S
O103 Cd99 2.439 . S
O103 C104 1.208 . S
C104 O102 1.247 . S
C104 O103 1.208 . S
C105 O110 1.247 . S
C105 O111 1.208 . S
C106 O98 1.315 . S
C106 O101 1.279 . S
C107 O108 1.315 . S
C107 O109 1.279 . S
O108 Cd100 2.223 . S
O108 C107 1.315 . S
O109 Cd99 2.240 . S
O109 C107 1.279 . S
O110 Cd100 2.297 . S
O110 C105 1.247 . S
O111 Cd100 2.439 . S
O111 C105 1.208 . S
H112 C118 0.930 . S
H113 C121 0.931 . S
H114 C122 0.930 . S
H115 C123 0.930 . S
H116 C126 0.931 . S
H117 C127 0.930 . S
C118 H112 0.930 . S
C118 C119 1.355 . S
C118 C120 1.415 . S
C119 C118 1.355 . S
C119 C121 1.419 . S
C120 C118 1.415 . S
C120 C125 1.425 1_655 S
C120 C127 1.409 . S
C121 H113 0.931 . S
C121 C119 1.419 . S
C121 C122 1.362 1_655 S
C122 H114 0.930 . S
C122 C121 1.362 1_455 S
C122 C125 1.409 . S
C123 H115 0.930 . S
C123 C124 1.355 . S
C123 C125 1.415 . S
C124 C123 1.355 . S
C124 C126 1.419 . S
C125 C120 1.425 1_455 S
C125 C122 1.409 . S
C125 C123 1.415 . S
C126 H116 0.931 . S
C126 C124 1.419 . S
C126 C127 1.362 1_455 S
C127 H117 0.930 . S
C127 C120 1.409 . S
C127 C126 1.362 1_655 S
H128 C134 0.930 . S
H129 C137 0.930 . S
H130 C138 0.930 . S
H131 C139 0.930 . S
H132 C142 0.930 . S
H133 C143 0.930 . S
C134 H128 0.930 . S
C134 C135 1.355 . S
C134 C136 1.415 . S
C135 C134 1.355 . S
C135 C137 1.419 1_545 S
C136 C134 1.415 . S
C136 C141 1.425 1_545 S
C136 C143 1.409 . S
C137 H129 0.930 . S
C137 C135 1.419 1_565 S
C137 C138 1.362 . S
C138 H130 0.930 . S
C138 C137 1.362 . S
C138 C141 1.409 . S
C139 H131 0.930 . S
C139 C140 1.355 . S
C139 C141 1.415 . S
C140 C139 1.355 . S
C140 C142 1.419 1_565 S
C141 C136 1.425 1_565 S
C141 C138 1.409 . S
C141 C139 1.415 . S
C142 H132 0.930 . S
C142 C140 1.419 1_545 S
C142 C143 1.362 . S
C143 H133 0.930 . S
C143 C136 1.409 . S
C143 C142 1.362 . S
H144 C150 0.930 . S
H145 C153 0.930 . S
H146 C154 0.930 . S
H147 C155 0.930 . S
H148 C158 0.930 . S
H149 C159 0.930 . S
C150 H144 0.930 . S
C150 C151 1.355 . S
C150 C152 1.415 . S
C151 C150 1.355 . S
C151 C153 1.419 1_655 S
C152 C150 1.415 . S
C152 C157 1.425 1_655 S
C152 C159 1.409 . S
C153 H145 0.930 . S
C153 C151 1.419 1_455 S
C153 C154 1.362 . S
C154 H146 0.930 . S
C154 C153 1.362 . S
C154 C157 1.409 . S
C155 H147 0.930 . S
C155 C156 1.355 . S
C155 C157 1.415 . S
C156 C155 1.355 . S
C156 C158 1.419 1_455 S
C157 C152 1.425 1_455 S
C157 C154 1.409 . S
C157 C155 1.415 . S
C158 H148 0.930 . S
C158 C156 1.419 1_655 S
C158 C159 1.362 . S
C159 H149 0.930 . S
C159 C152 1.409 . S
C159 C158 1.362 . S
H160 C166 0.930 . S
H161 C169 0.930 . S
H162 C170 0.930 . S
H163 C171 0.930 . S
H164 C174 0.930 . S
H165 C175 0.930 . S
C166 H160 0.930 . S
C166 C167 1.355 . S
C166 C168 1.415 1_545 S
C167 C166 1.355 . S
C167 C169 1.419 . S
C168 C166 1.415 1_565 S
C168 C173 1.425 1_565 S
C168 C175 1.409 . S
C169 H161 0.930 . S
C169 C167 1.419 . S
C169 C170 1.362 . S
C170 H162 0.930 . S
C170 C169 1.362 . S
C170 C173 1.409 . S
C171 H163 0.930 . S
C171 C172 1.355 . S
C171 C173 1.415 1_565 S
C172 C171 1.355 . S
C172 C174 1.419 . S
C173 C168 1.425 1_545 S
C173 C170 1.409 . S
C173 C171 1.415 1_545 S
C174 H164 0.930 . S
C174 C172 1.419 . S
C174 C175 1.362 . S
C175 H165 0.930 . S
C175 C168 1.409 . S
C175 C174 1.362 . S
H176 C182 0.930 . S
H177 C185 0.930 1_565 S
H178 C186 0.930 . S
H179 C187 0.930 . S
H180 C190 0.930 . S
H181 C191 0.930 . S
C182 H176 0.930 . S
C182 C183 1.355 . S
C182 C184 1.415 . S
C183 C182 1.355 . S
C183 C185 1.419 . S
C184 C182 1.415 . S
C184 C189 1.425 . S
C184 C191 1.409 . S
C185 H177 0.930 1_545 S
C185 C183 1.419 . S
C185 C186 1.362 . S
C186 H178 0.930 . S
C186 C185 1.362 . S
C186 C189 1.409 . S
C187 H179 0.930 . S
C187 C188 1.355 . S
C187 C189 1.415 . S
C188 C187 1.355 . S
C188 C190 1.419 . S
C189 C184 1.425 . S
C189 C186 1.409 . S
C189 C187 1.415 . S
C190 H180 0.930 . S
C190 C188 1.419 . S
C190 C191 1.362 . S
C191 H181 0.930 . S
C191 C184 1.409 . S
C191 C190 1.362 . S
H192 C198 0.930 . S
H193 C201 0.930 . S
H194 C202 0.930 . S
H195 C203 0.930 . S
H196 C206 0.930 1_655 S
H197 C207 0.930 . S
C198 H192 0.930 . S
C198 C199 1.355 . S
C198 C200 1.415 . S
C199 C198 1.355 . S
C199 C201 1.419 . S
C200 C198 1.415 . S
C200 C205 1.425 . S
C200 C207 1.409 . S
C201 H193 0.930 . S
C201 C199 1.419 . S
C201 C202 1.362 . S
C202 H194 0.930 . S
C202 C201 1.362 . S
C202 C205 1.409 . S
C203 H195 0.930 . S
C203 C204 1.355 . S
C203 C205 1.415 . S
C204 C203 1.355 . S
C204 C206 1.419 . S
C205 C200 1.425 . S
C205 C202 1.409 . S
C205 C203 1.415 . S
C206 H196 0.930 1_455 S
C206 C204 1.419 . S
C206 C207 1.362 . S
C207 H197 0.930 . S
C207 C200 1.409 . S
C207 C206 1.362 . S
H208 C214 0.930 . S
H209 C217 0.930 . S
H210 C218 0.930 . S
H211 C219 0.930 . S
H212 C222 0.930 . S
H213 C223 0.930 . S
C214 H208 0.930 . S
C214 C215 1.355 . S
C214 C216 1.415 . S
C215 C214 1.355 . S
C215 C217 1.419 . S
C216 C214 1.415 . S
C216 C221 1.425 . S
C216 C223 1.409 . S
C217 H209 0.930 . S
C217 C215 1.419 . S
C217 C218 1.362 . S
C218 H210 0.930 . S
C218 C217 1.362 . S
C218 C221 1.409 . S
C219 H211 0.930 . S
C219 C220 1.355 . S
C219 C221 1.415 . S
C220 C219 1.355 . S
C220 C222 1.419 . S
C221 C216 1.425 . S
C221 C218 1.409 . S
C221 C219 1.415 . S
C222 H212 0.930 . S
C222 C220 1.419 . S
C222 C223 1.362 . S
C223 H213 0.930 . S
C223 C216 1.409 . S
C223 C222 1.362 . S
H224 C230 0.930 . S
H225 C233 0.930 . S
H226 C234 0.930 . S
H227 C235 0.929 . S
H228 C238 0.930 . S
H229 C239 0.930 . S
C230 H224 0.930 . S
C230 C231 1.355 . S
C230 C232 1.415 . S
C231 C230 1.355 . S
C231 C233 1.419 . S
C232 C230 1.415 . S
C232 C237 1.425 . S
C232 C239 1.409 . S
C233 H225 0.930 . S
C233 C231 1.419 . S
C233 C234 1.362 . S
C234 H226 0.930 . S
C234 C233 1.362 . S
C234 C237 1.409 . S
C235 H227 0.929 . S
C235 C236 1.355 . S
C235 C237 1.415 . S
C236 C235 1.355 . S
C236 C238 1.419 . S
C237 C232 1.425 . S
C237 C234 1.409 . S
C237 C235 1.415 . S
C238 H228 0.930 . S
C238 C236 1.419 . S
C238 C239 1.362 . S
C239 H229 0.930 . S
C239 C232 1.409 . S
C239 C238 1.362 . S
H240 C246 0.930 . S
H241 C249 0.930 1_554 S
H242 C250 0.930 . S
H243 C251 0.930 . S
H244 C254 0.933 . S
H245 C255 0.930 . S
C246 H240 0.930 . S
C246 C247 1.355 . S
C246 C248 1.415 . S
C247 C246 1.355 . S
C247 C249 1.419 . S
C248 C246 1.415 . S
C248 C253 1.425 1_556 S
C248 C255 1.409 . S
C249 H241 0.930 1_556 S
C249 C247 1.419 . S
C249 C250 1.362 1_556 S
C250 H242 0.930 . S
C250 C249 1.362 1_554 S
C250 C253 1.409 . S
C251 H243 0.930 . S
C251 C252 1.355 . S
C251 C253 1.415 . S
C252 C251 1.355 . S
C252 C254 1.419 . S
C253 C248 1.425 1_554 S
C253 C250 1.409 . S
C253 C251 1.415 . S
C254 H244 0.933 . S
C254 C252 1.419 . S
C254 C255 1.362 1_554 S
C255 H245 0.930 . S
C255 C248 1.409 . S
C255 C254 1.362 1_556 S
H256 C262 0.930 . S
H257 C265 0.930 . S
H258 C266 0.930 . S
H259 C267 0.930 . S
H260 C270 0.930 1_655 S
H261 C271 0.930 . S
C262 H256 0.930 . S
C262 C263 1.355 . S
C262 C264 1.415 . S
C263 C262 1.355 . S
C263 C265 1.419 . S
C264 C262 1.415 . S
C264 C269 1.425 1_556 S
C264 C271 1.409 1_556 S
C265 H257 0.930 . S
C265 C263 1.419 . S
C265 C266 1.362 . S
C266 H258 0.930 . S
C266 C265 1.362 . S
C266 C269 1.409 1_556 S
C267 H259 0.930 . S
C267 C268 1.355 . S
C267 C269 1.415 . S
C268 C267 1.355 . S
C268 C270 1.419 . S
C269 C264 1.425 1_554 S
C269 C266 1.409 1_554 S
C269 C267 1.415 . S
C270 H260 0.930 1_455 S
C270 C268 1.419 . S
C270 C271 1.362 . S
C271 H261 0.930 . S
C271 C264 1.409 1_554 S
C271 C270 1.362 . S
H272 C278 0.930 1_556 S
H273 C281 0.930 . S
H274 C282 0.930 . S
H275 C283 0.930 1_544 S
H276 C286 0.930 . S
H277 C287 0.930 . S
C278 H272 0.930 1_554 S
C278 C279 1.355 . S
C278 C280 1.415 1_554 S
C279 C278 1.355 . S
C279 C281 1.419 . S
C280 C278 1.415 1_556 S
C280 C285 1.425 1_556 S
C280 C287 1.409 . S
C281 H273 0.930 . S
C281 C279 1.419 . S
C281 C282 1.362 . S
C282 H274 0.930 . S
C282 C281 1.362 . S
C282 C285 1.409 . S
C283 H275 0.930 1_566 S
C283 C284 1.355 . S
C283 C285 1.415 1_556 S
C284 C283 1.355 . S
C284 C286 1.419 . S
C285 C280 1.425 1_554 S
C285 C282 1.409 . S
C285 C283 1.415 1_554 S
C286 H276 0.930 . S
C286 C284 1.419 . S
C286 C287 1.362 . S
C287 H277 0.930 . S
C287 C280 1.409 . S
C287 C286 1.362 . S
H288 C294 0.930 . S
H289 C297 0.930 . S
H290 C298 0.930 . S
H291 C299 0.930 . S
H292 C302 0.930 1_455 S
H293 C303 0.930 . S
C294 H288 0.930 . S
C294 C295 1.355 . S
C294 C296 1.415 . S
C295 C294 1.355 . S
C295 C297 1.419 . S
C296 C294 1.415 . S
C296 C301 1.425 . S
C296 C303 1.409 1_556 S
C297 H289 0.930 . S
C297 C295 1.419 . S
C297 C298 1.362 . S
C298 H290 0.930 . S
C298 C297 1.362 . S
C298 C301 1.409 . S
C299 H291 0.930 . S
C299 C300 1.355 . S
C299 C301 1.415 1_554 S
C300 C299 1.355 . S
C300 C302 1.419 . S
C301 C296 1.425 . S
C301 C298 1.409 . S
C301 C299 1.415 1_556 S
C302 H292 0.930 1_655 S
C302 C300 1.419 . S
C302 C303 1.362 . S
C303 H293 0.930 . S
C303 C296 1.409 1_554 S
C303 C302 1.362 . S
H304 C310 0.930 . S
H305 C313 0.930 . S
H306 C314 0.930 . S
H307 C315 0.930 . S
H308 C318 0.930 . S
H309 C319 0.930 . S
C310 H304 0.930 . S
C310 C311 1.355 . S
C310 C312 1.415 . S
C311 C310 1.355 . S
C311 C313 1.419 . S
C312 C310 1.415 . S
C312 C317 1.425 . S
C312 C319 1.409 . S
C313 H305 0.930 . S
C313 C311 1.419 . S
C313 C314 1.362 . S
C314 H306 0.930 . S
C314 C313 1.362 . S
C314 C317 1.409 . S
C315 H307 0.930 . S
C315 C316 1.355 . S
C315 C317 1.415 . S
C316 C315 1.355 . S
C316 C318 1.419 . S
C317 C312 1.425 . S
C317 C314 1.409 . S
C317 C315 1.415 . S
C318 H308 0.930 . S
C318 C316 1.419 . S
C318 C319 1.362 . S
C319 H309 0.930 . S
C319 C312 1.409 . S
C319 C318 1.362 . S
H320 C326 0.930 . S
H321 C329 0.930 . S
H322 C330 0.930 . S
H323 C331 0.930 . S
H324 C334 0.930 . S
H325 C335 0.930 . S
C326 H320 0.930 . S
C326 C327 1.355 . S
C326 C328 1.415 . S
C327 C326 1.355 . S
C327 C329 1.419 . S
C328 C326 1.415 . S
C328 C333 1.425 . S
C328 C335 1.409 . S
C329 H321 0.930 . S
C329 C327 1.419 . S
C329 C330 1.362 . S
C330 H322 0.930 . S
C330 C329 1.362 . S
C330 C333 1.409 . S
C331 H323 0.930 . S
C331 C332 1.355 . S
C331 C333 1.415 . S
C332 C331 1.355 . S
C332 C334 1.419 . S
C333 C328 1.425 . S
C333 C330 1.409 . S
C333 C331 1.415 . S
C334 H324 0.930 . S
C334 C332 1.419 . S
C334 C335 1.362 . S
C335 H325 0.930 . S
C335 C328 1.409 . S
C335 C334 1.362 . S
H336 C342 0.930 . S
H337 C345 0.930 . S
H338 C346 0.930 . S
H339 C347 0.930 . S
H340 C350 0.930 . S
H341 C351 0.930 . S
C342 H336 0.930 . S
C342 C343 1.355 . S
C342 C344 1.415 . S
C343 C342 1.355 . S
C343 C345 1.419 . S
C344 C342 1.415 . S
C344 C349 1.425 . S
C344 C351 1.409 . S
C345 H337 0.930 . S
C345 C343 1.419 . S
C345 C346 1.362 . S
C346 H338 0.930 . S
C346 C345 1.362 . S
C346 C349 1.409 . S
C347 H339 0.930 . S
C347 C348 1.355 . S
C347 C349 1.415 . S
C348 C347 1.355 . S
C348 C350 1.419 . S
C349 C344 1.425 . S
C349 C346 1.409 . S
C349 C347 1.415 . S
C350 H340 0.930 . S
C350 C348 1.419 . S
C350 C351 1.362 . S
C351 H341 0.930 . S
C351 C344 1.409 . S
C351 C350 1.362 . S
H352 C358 0.930 . S
H353 C361 0.930 . S
H354 C362 0.930 . S
H355 C363 0.930 . S
H356 C366 0.930 . S
H357 C367 0.930 . S
C358 H352 0.930 . S
C358 C359 1.355 . S
C358 C360 1.415 . S
C359 C358 1.355 . S
C359 C361 1.419 . S
C360 C358 1.415 . S
C360 C365 1.425 . S
C360 C367 1.409 . S
C361 H353 0.930 . S
C361 C359 1.419 . S
C361 C362 1.362 . S
C362 H354 0.930 . S
C362 C361 1.362 . S
C362 C365 1.409 . S
C363 H355 0.930 . S
C363 C364 1.355 . S
C363 C365 1.415 . S
C364 C363 1.355 . S
C364 C366 1.419 . S
C365 C360 1.425 . S
C365 C362 1.409 . S
C365 C363 1.415 . S
C366 H356 0.930 . S
C366 C364 1.419 . S
C366 C367 1.362 . S
C367 H357 0.930 . S
C367 C360 1.409 . S
C367 C366 1.362 . S
C119 C34 1.421 . S
C124 C6 1.440 . S
C135 C48 1.422 . S
C140 C20 1.438 . S
C151 C62 1.417 . S
C156 C90 1.449 . S
C167 C76 1.426 . S
C172 C104 1.468 . S
C183 C22 1.428 1_545 S
C188 C9 1.408 . S
C199 C23 1.436 . S
C204 C36 1.444 1_455 S
C215 C50 1.466 1_565 S
C220 C37 1.396 . S
C231 C51 1.370 . S
C236 C8 1.461 1_655 S
C247 C106 1.428 1_545 S
C252 C65 1.406 . S
C263 C79 1.416 . S
C268 C64 1.464 1_455 S
C279 C93 1.359 . S
C284 C78 1.454 1_565 S
C295 C107 1.408 . S
C300 C92 1.466 1_655 S
C311 C7 1.593 . S
C316 C77 1.544 . S
C327 C91 1.563 . S
C332 C21 1.568 . S
C343 C35 1.590 . S
C348 C105 1.547 . S
C359 C49 1.538 . S
C364 C63 1.597 . S
