# Generated by pormake.
# Topology nia-e, (7)-cn, num edge types: 1
# Building blocks:
#     Node 0, Type 0, BuildingBlock: OLANEW_clean_sbu_0, # of connection points: 7
#     Node 1, Type 0, BuildingBlock: OLANEW_clean_sbu_0, # of connection points: 7
#     Node 2, Type 0, BuildingBlock: OLANEW_clean_sbu_0, # of connection points: 7
#     Node 3, Type 0, BuildingBlock: OLANEW_clean_sbu_0, # of connection points: 7
#     Node 4, Type 0, BuildingBlock: OLANEW_clean_sbu_0, # of connection points: 7
#     Node 5, Type 0, BuildingBlock: OLANEW_clean_sbu_0, # of connection points: 7
#     Node 6, Type 0, BuildingBlock: OLANEW_clean_sbu_0, # of connection points: 7
#     Node 7, Type 0, BuildingBlock: OLANEW_clean_sbu_0, # of connection points: 7
#     Node 8, Type 0, BuildingBlock: OLANEW_clean_sbu_0, # of connection points: 7
#     Node 9, Type 0, BuildingBlock: OLANEW_clean_sbu_0, # of connection points: 7
#     Node 10, Type 0, BuildingBlock: OLANEW_clean_sbu_0, # of connection points: 7
#     Node 11, Type 0, BuildingBlock: OLANEW_clean_sbu_0, # of connection points: 7
#     Edge 12, Type (0, 0), BuildingBlock: AJUNOK_clean_linker_0, # of connection points: 2
#     Edge 13, Type (0, 0), BuildingBlock: AJUNOK_clean_linker_0, # of connection points: 2
#     Edge 14, Type (0, 0), BuildingBlock: AJUNOK_clean_linker_0, # of connection points: 2
#     Edge 15, Type (0, 0), BuildingBlock: AJUNOK_clean_linker_0, # of connection points: 2
#     Edge 16, Type (0, 0), BuildingBlock: AJUNOK_clean_linker_0, # of connection points: 2
#     Edge 17, Type (0, 0), BuildingBlock: AJUNOK_clean_linker_0, # of connection points: 2
#     Edge 18, Type (0, 0), BuildingBlock: AJUNOK_clean_linker_0, # of connection points: 2
#     Edge 19, Type (0, 0), BuildingBlock: AJUNOK_clean_linker_0, # of connection points: 2
#     Edge 20, Type (0, 0), BuildingBlock: AJUNOK_clean_linker_0, # of connection points: 2
#     Edge 21, Type (0, 0), BuildingBlock: AJUNOK_clean_linker_0, # of connection points: 2
#     Edge 22, Type (0, 0), BuildingBlock: AJUNOK_clean_linker_0, # of connection points: 2
#     Edge 23, Type (0, 0), BuildingBlock: AJUNOK_clean_linker_0, # of connection points: 2
#     Edge 24, Type (0, 0), BuildingBlock: AJUNOK_clean_linker_0, # of connection points: 2
#     Edge 25, Type (0, 0), BuildingBlock: AJUNOK_clean_linker_0, # of connection points: 2
#     Edge 26, Type (0, 0), BuildingBlock: AJUNOK_clean_linker_0, # of connection points: 2
#     Edge 27, Type (0, 0), BuildingBlock: AJUNOK_clean_linker_0, # of connection points: 2
#     Edge 28, Type (0, 0), BuildingBlock: AJUNOK_clean_linker_0, # of connection points: 2
#     Edge 29, Type (0, 0), BuildingBlock: AJUNOK_clean_linker_0, # of connection points: 2
#     Edge 30, Type (0, 0), BuildingBlock: AJUNOK_clean_linker_0, # of connection points: 2
#     Edge 31, Type (0, 0), BuildingBlock: AJUNOK_clean_linker_0, # of connection points: 2
#     Edge 32, Type (0, 0), BuildingBlock: AJUNOK_clean_linker_0, # of connection points: 2
#     Edge 33, Type (0, 0), BuildingBlock: AJUNOK_clean_linker_0, # of connection points: 2
#     Edge 34, Type (0, 0), BuildingBlock: AJUNOK_clean_linker_0, # of connection points: 2
#     Edge 35, Type (0, 0), BuildingBlock: AJUNOK_clean_linker_0, # of connection points: 2
#     Edge 36, Type (0, 0), BuildingBlock: AJUNOK_clean_linker_0, # of connection points: 2
#     Edge 37, Type (0, 0), BuildingBlock: AJUNOK_clean_linker_0, # of connection points: 2
#     Edge 38, Type (0, 0), BuildingBlock: AJUNOK_clean_linker_0, # of connection points: 2
#     Edge 39, Type (0, 0), BuildingBlock: AJUNOK_clean_linker_0, # of connection points: 2
#     Edge 40, Type (0, 0), BuildingBlock: AJUNOK_clean_linker_0, # of connection points: 2
#     Edge 41, Type (0, 0), BuildingBlock: AJUNOK_clean_linker_0, # of connection points: 2
#     Edge 42, Type (0, 0), BuildingBlock: AJUNOK_clean_linker_0, # of connection points: 2
#     Edge 43, Type (0, 0), BuildingBlock: AJUNOK_clean_linker_0, # of connection points: 2
#     Edge 44, Type (0, 0), BuildingBlock: AJUNOK_clean_linker_0, # of connection points: 2
#     Edge 45, Type (0, 0), BuildingBlock: AJUNOK_clean_linker_0, # of connection points: 2
#     Edge 46, Type (0, 0), BuildingBlock: AJUNOK_clean_linker_0, # of connection points: 2
#     Edge 47, Type (0, 0), BuildingBlock: AJUNOK_clean_linker_0, # of connection points: 2
#     Edge 48, Type (0, 0), BuildingBlock: AJUNOK_clean_linker_0, # of connection points: 2
#     Edge 49, Type (0, 0), BuildingBlock: AJUNOK_clean_linker_0, # of connection points: 2
#     Edge 50, Type (0, 0), BuildingBlock: AJUNOK_clean_linker_0, # of connection points: 2
#     Edge 51, Type (0, 0), BuildingBlock: AJUNOK_clean_linker_0, # of connection points: 2
#     Edge 52, Type (0, 0), BuildingBlock: AJUNOK_clean_linker_0, # of connection points: 2
#     Edge 53, Type (0, 0), BuildingBlock: AJUNOK_clean_linker_0, # of connection points: 2
# Relax obj value: 0.212
# Max RMSD: 0.284
# Mean RMSD: 0.284
data_MOF--net-nia-e--node1-OLANEW_clean_sbu_0--edge1-AJUNOK_clean_linker_0
_symmetry_space_group_name_H-M    P1
_symmetry_Int_Tables_number       1
_symmetry_cell_setting            triclinic
loop_
_symmetry_equiv_pos_as_xyz
'x, y, z'
_cell_length_a     37.389871
_cell_length_b     37.465703
_cell_length_c     51.326496
_cell_angle_alpha  89.916689
_cell_angle_beta   90.106608
_cell_angle_gamma 120.08165
loop_
_atom_site_label
_atom_site_type_symbol
_atom_site_fract_x
_atom_site_fract_y
_atom_site_fract_z
_atom_type_partial_charge
Cd0 Cd 0.14027 0.21598 0.10601 0.0
C1 C 0.03879 0.15216 0.13108 0.0
C2 C 0.17469 0.43051 0.06975 0.0
O3 O 0.15793 0.43977 0.05025 0.0
Cd4 Cd 0.12617 0.1922 0.15139 0.0
C5 C 0.21963 0.44759 0.07149 0.0
C6 C 0.30137 0.469 0.08218 0.0
C7 C 0.26914 0.44494 0.09937 0.0
N8 N 0.23096 0.43619 0.0931 0.0
C9 C 0.25017 0.47171 0.0533 0.0
C10 C 0.29147 0.48247 0.0589 0.0
Co11 Co 0.18958 0.40265 0.11567 0.0
C12 C 0.27084 0.4273 0.1247 0.0
O13 O 0.30535 0.43119 0.13412 0.0
C14 C 0.22923 0.38127 0.15998 0.0
C15 C 0.2296 0.34517 0.1551 0.0
C16 C 0.21601 0.31447 0.17383 0.0
C17 C 0.21229 0.3241 0.1996 0.0
C18 C 0.21139 0.36045 0.20577 0.0
C19 C 0.21991 0.38929 0.18532 0.0
C20 C 0.19149 0.27164 0.16467 0.0
C21 C 0.10668 0.3809 0.08838 0.0
C22 C 0.08602 0.36092 0.06497 0.0
C23 C 0.08281 0.38164 0.10915 0.0
C24 C 0.03982 0.36097 0.10753 0.0
C25 C 0.01974 0.34052 0.08475 0.0
C26 C 0.04251 0.34149 0.06276 0.0
N27 N 0.15152 0.40467 0.08966 0.0
N28 N 0.23407 0.40672 0.13786 0.0
N29 N 0.1815 0.35149 0.09988 0.0
C30 C 0.20006 0.34931 0.07595 0.0
C31 C 0.17896 0.343 0.05235 0.0
C32 C 0.24075 0.35702 0.07584 0.0
C33 C 0.1989 0.3463 0.02853 0.0
H34 H 0.14728 0.3362 0.05269 0.0
C35 C 0.24028 0.35555 0.0287 0.0
C36 C 0.26152 0.36107 0.0523 0.0
C37 C 0.17716 0.34145 1.00345 0.0
H38 H 0.25677 0.36136 0.0941 0.0
H39 H 0.25608 0.35879 0.01042 0.0
C40 C 0.3057 0.37243 0.05235 0.0
O41 O 0.1939 0.33812 0.98092 0.0
O42 O 0.14417 0.34083 1.00297 0.0
O43 O 0.3231 0.37364 0.07281 0.0
O44 O 0.32713 0.3819 0.0298 0.0
H45 H 0.18026 0.33501 0.96435 0.0
H46 H 0.35593 0.38936 0.02938 0.0
N47 N 0.14879 0.36868 0.13834 0.0
C48 C 0.14159 0.38734 0.15812 0.0
C49 C 0.11378 0.36264 0.17744 0.0
C50 C 0.09533 0.31926 0.17506 0.0
C51 C 0.10492 0.30148 0.15379 0.0
C52 C 0.13304 0.32802 0.13521 0.0
N53 N 0.19152 0.4484 0.13514 0.0
C54 C 0.16539 0.43292 0.15607 0.0
O55 O 0.16235 0.45698 0.17347 0.0
C56 C 0.15031 0.31761 0.11237 0.0
O57 O 0.19441 0.23493 0.07286 0.0
O58 O 0.13105 0.20344 0.0594 0.0
C59 C 0.21821 0.49196 0.13036 0.0
C60 C 0.26149 0.5097 0.13156 0.0
C61 C 0.28751 0.54984 0.12256 0.0
C62 C 0.27047 0.57428 0.11603 0.0
C63 C 0.22801 0.55934 0.11845 0.0
C64 C 0.20148 0.51762 0.12489 0.0
O65 O 0.06275 0.16523 0.1113 0.0
O66 O 0.05421 0.16235 0.15368 0.0
O67 O 0.18707 0.26524 0.1401 0.0
O68 O 0.16621 0.24435 0.18011 0.0
O69 O 0.13163 0.27899 0.10187 0.0
C70 C 0.15613 0.13671 0.13176 0.0
O71 O 0.1466 0.14265 0.15428 0.0
O72 O 0.15491 0.15787 0.11272 0.0
C73 C 0.16903 0.2179 0.05426 0.0
H74 H 0.33291 0.47714 0.08649 0.0
H75 H 0.24249 0.48151 0.03534 0.0
H76 H 0.31573 0.50107 0.04519 0.0
H77 H 0.23434 0.33867 0.1353 0.0
H78 H 0.20574 0.30083 0.21425 0.0
H79 H 0.21778 0.41665 0.18854 0.0
H80 H 0.10386 0.36248 0.04802 0.0
H81 H 0.09701 0.40013 0.1261 0.0
H82 H 0.98634 0.32534 0.08404 0.0
H83 H 0.10679 0.37618 0.19387 0.0
H84 H 0.07396 0.29946 0.18984 0.0
H85 H 0.09151 0.26838 0.15228 0.0
H86 H 0.2751 0.49282 0.13962 0.0
H87 H 0.29092 0.60628 0.11061 0.0
H88 H 0.16841 0.50535 0.12586 0.0
Cd89 Cd 0.92497 0.12771 0.60928 0.0
C90 C 0.88126 0.02286 0.62816 0.0
C91 C 0.76458 0.18132 0.56146 0.0
O92 O 0.74344 0.16821 0.53964 0.0
Cd93 Cd 0.9229 0.10466 0.65513 0.0
C94 C 0.7944 0.22524 0.56579 0.0
C95 C 0.85663 0.30324 0.58183 0.0
C96 C 0.84099 0.26898 0.59838 0.0
N97 N 0.81057 0.23289 0.58965 0.0
C98 C 0.8085 0.25799 0.54809 0.0
C99 C 0.83981 0.29743 0.55644 0.0
Co100 Co 0.79463 0.18806 0.61105 0.0
C101 C 0.85351 0.26632 0.62521 0.0
O102 O 0.88386 0.2981 0.63719 0.0
C103 C 0.84635 0.21862 0.66002 0.0
C104 C 0.87896 0.21143 0.65771 0.0
C105 C 0.88792 0.19183 0.67758 0.0
C106 C 0.8698 0.18766 0.70219 0.0
C107 C 0.84023 0.19993 0.70604 0.0
C108 C 0.82696 0.21372 0.68438 0.0
C109 C 0.90641 0.16692 0.66973 0.0
C110 C 0.72824 0.11186 0.58043 0.0
C111 C 0.72864 0.08752 0.55944 0.0
C112 C 0.69298 0.09584 0.59617 0.0
C113 C 0.65952 0.05662 0.59173 0.0
C114 C 0.65983 0.03308 0.5709 0.0
C115 C 0.69367 0.04861 0.55368 0.0
N116 N 0.75893 0.15526 0.58188 0.0
N117 N 0.83216 0.22817 0.63657 0.0
N118 N 0.83789 0.1772 0.59842 0.0
C119 C 0.86397 0.19642 0.57633 0.0
C120 C 0.85429 0.17626 0.55223 0.0
C121 C 0.8997 0.23494 0.57892 0.0
C122 C 0.87956 0.1949 0.53041 0.0
H123 H 0.82709 0.14602 0.55066 0.0
C124 C 0.91476 0.23424 0.5331 0.0
C125 C 0.92522 0.2544 0.55735 0.0
C126 C 0.86943 0.17334 0.5049 0.0
H127 H 0.90766 0.24966 0.5978 0.0
H128 H 0.93426 0.24902 0.51635 0.0
C129 C 0.96285 0.29556 0.56021 0.0
O130 O 0.89491 0.19064 0.48432 0.0
O131 O 0.83808 0.13977 0.50234 0.0
O132 O 0.97093 0.31371 0.58108 0.0
O133 O 0.98852 0.31327 0.53979 0.0
H134 H 0.88899 0.17705 0.46755 0.0
H135 H 0.0133 0.33998 0.54134 0.0
N136 N 0.77993 0.14346 0.63233 0.0
C137 C 0.74913 0.13429 0.6489 0.0
C138 C 0.73569 0.09949 0.66473 0.0
C139 C 0.75682 0.07704 0.66308 0.0
C140 C 0.79029 0.08926 0.64564 0.0
C141 C 0.80145 0.12383 0.62997 0.0
N142 N 0.74898 0.19152 0.62729 0.0
C143 C 0.73241 0.16251 0.64674 0.0
O144 O 0.70241 0.15893 0.66184 0.0
C145 C 0.83462 0.14258 0.61019 0.0
O146 O 0.96932 0.18466 0.57888 0.0
O147 O 0.93122 0.12385 0.56246 0.0
C148 C 0.73334 0.21878 0.6208 0.0
C149 C 0.75972 0.2618 0.62128 0.0
C150 C 0.74575 0.28832 0.61314 0.0
C151 C 0.70392 0.27206 0.60745 0.0
C152 C 0.67578 0.22994 0.61034 0.0
C153 C 0.69062 0.20295 0.61622 0.0
O154 O 0.89818 0.05056 0.6106 0.0
O155 O 0.87818 0.03358 0.65105 0.0
O156 O 0.914 0.16602 0.6455 0.0
O157 O 0.90491 0.13958 0.6849 0.0
O158 O 0.85498 0.12326 0.60124 0.0
C159 C 0.01192 0.13189 0.64142 0.0
O160 O 0.99105 0.11888 0.66214 0.0
O161 O 0.99509 0.13695 0.6212 0.0
C162 C 0.95928 0.16111 0.55913 0.0
H163 H 0.88103 0.33322 0.58813 0.0
H164 H 0.79634 0.2533 0.52846 0.0
H165 H 0.85139 0.3233 0.54315 0.0
H166 H 0.8935 0.21617 0.63884 0.0
H167 H 0.87672 0.17267 0.71789 0.0
H168 H 0.8018 0.22 0.68633 0.0
H169 H 0.7555 0.10006 0.547 0.0
H170 H 0.68938 0.11434 0.61065 0.0
H171 H 0.63216 0.00371 0.5675 0.0
H172 H 0.70984 0.0899 0.67786 0.0
H173 H 0.74728 0.05021 0.67531 0.0
H174 H 0.8066 0.07225 0.64446 0.0
H175 H 0.79038 0.27501 0.62905 0.0
H176 H 0.69258 0.29299 0.60298 0.0
H177 H 0.66906 0.17018 0.61788 0.0
Cd178 Cd 0.79587 0.91516 0.09812 0.0
C179 C 0.8509 0.88288 0.11001 0.0
C180 C 0.57704 0.75685 0.06133 0.0
O181 O 0.56558 0.73418 0.0401 0.0
Cd182 Cd 0.84626 0.91474 0.17126 0.0
C183 C 0.56617 0.78907 0.06594 0.0
C184 C 0.5594 0.85699 0.08151 0.0
C185 C 0.57852 0.84089 0.09726 0.0
N186 N 0.57959 0.8077 0.08889 0.0
C187 C 0.54677 0.80354 0.04908 0.0
C188 C 0.54319 0.83771 0.05722 0.0
Co189 Co 0.60972 0.79133 0.10868 0.0
C190 C 0.59835 0.85521 0.12297 0.0
O191 O 0.60116 0.88773 0.13464 0.0
C192 C 0.64035 0.84582 0.15629 0.0
C193 C 0.68233 0.87298 0.15285 0.0
C194 C 0.71035 0.88039 0.1729 0.0
C195 C 0.69541 0.86466 0.19783 0.0
C196 C 0.65283 0.83946 0.20232 0.0
C197 C 0.62507 0.82922 0.18122 0.0
C198 C 0.7544 0.89817 0.1665 0.0
C199 C 0.61288 0.72179 0.07862 0.0
C200 C 0.63745 0.72228 0.05748 0.0
C201 C 0.59547 0.68765 0.09529 0.0
C202 C 0.60223 0.65481 0.09127 0.0
C203 C 0.62626 0.65523 0.07045 0.0
C204 C 0.64433 0.68885 0.05305 0.0
N205 N 0.59999 0.75216 0.0805 0.0
N206 N 0.61455 0.83282 0.13357 0.0
N207 N 0.66197 0.83086 0.09248 0.0
C208 C 0.66718 0.85806 0.07131 0.0
C209 C 0.66489 0.84489 0.04558 0.0
C210 C 0.67496 0.89805 0.07632 0.0
C211 C 0.6692 0.871 0.02467 0.0
H212 H 0.65965 0.81424 0.04197 0.0
C213 C 0.67653 0.91093 0.02996 0.0
C214 C 0.6799 0.92491 0.05574 0.0
C215 C 0.66646 0.85684 0.99735 0.0
H216 H 0.67723 0.90819 0.09626 0.0
H217 H 0.6801 0.93135 0.01397 0.0
C218 C 0.68929 0.9677 0.06107 0.0
O219 O 0.67206 0.88264 0.97736 0.0
O220 O 0.65922 0.82182 0.99275 0.0
O221 O 0.69034 0.97926 0.08347 0.0
O222 O 0.69712 0.99431 0.0412 0.0
H223 H 0.67057 0.87412 0.95941 0.0
H224 H 0.70376 0.02247 0.04424 0.0
N225 N 0.64084 0.77602 0.12831 0.0
C226 C 0.62098 0.74843 0.14704 0.0
C227 C 0.64389 0.73721 0.16321 0.0
C228 C 0.68713 0.7567 0.15915 0.0
C229 C 0.70647 0.7866 0.13927 0.0
C230 C 0.68151 0.79595 0.12371 0.0
N231 N 0.56224 0.74937 0.12827 0.0
C232 C 0.57619 0.73351 0.14729 0.0
O233 O 0.55113 0.70582 0.16415 0.0
C234 C 0.69385 0.82704 0.10273 0.0
O235 O 0.78417 0.96816 0.0772 0.0
O236 O 0.78832 0.92422 0.05203 0.0
C237 C 0.51892 0.73394 0.1232 0.0
C238 C 0.50322 0.76108 0.1224 0.0
C239 C 0.46238 0.74699 0.1148 0.0
C240 C 0.43574 0.70481 0.11112 0.0
C241 C 0.44923 0.67652 0.11504 0.0
C242 C 0.4912 0.6911 0.12033 0.0
O243 O 0.83918 0.88435 0.08718 0.0
O244 O 0.83368 0.89183 0.12794 0.0
O245 O 0.76553 0.90308 0.14264 0.0
O246 O 0.77984 0.90231 0.18429 0.0
O247 O 0.73219 0.84618 0.09215 0.0
C248 C 0.88488 1.00049 0.13426 0.0
O249 O 0.88395 0.98453 0.15639 0.0
O250 O 0.85954 0.97989 0.11589 0.0
C251 C 0.78496 0.95609 0.05419 0.0
H252 H 0.55724 0.88349 0.08759 0.0
H253 H 0.53544 0.78955 0.0302 0.0
H254 H 0.52835 0.84957 0.04458 0.0
H255 H 0.69344 0.88571 0.13373 0.0
H256 H 0.71694 0.87032 0.21361 0.0
H257 H 0.59239 0.80787 0.18395 0.0
H258 H 0.65001 0.74802 0.04409 0.0
H259 H 0.57437 0.68482 0.11044 0.0
H260 H 0.62861 0.62794 0.06738 0.0
H261 H 0.62914 0.71451 0.17847 0.0
H262 H 0.70565 0.74889 0.17154 0.0
H263 H 0.73959 0.80208 0.13647 0.0
H264 H 0.522 0.79267 0.12832 0.0
H265 H 0.40337 0.69366 0.10685 0.0
H266 H 0.502 0.66932 0.12257 0.0
Cd267 Cd 0.88292 0.78537 0.5921 0.0
C268 C 0.97105 0.83631 0.60185 0.0
C269 C 0.82475 0.56312 0.56692 0.0
O270 O 0.83678 0.54875 0.54753 0.0
Cd271 Cd 0.94233 0.8379 0.66274 0.0
C272 C 0.78121 0.55208 0.57007 0.0
C273 C 0.70484 0.54461 0.58239 0.0
C274 C 0.73997 0.56806 0.59769 0.0
N275 N 0.77525 0.56984 0.59076 0.0
C276 C 0.74748 0.52826 0.55375 0.0
C277 C 0.70893 0.52456 0.56018 0.0
Co278 Co 0.82091 0.60307 0.6105 0.0
C279 C 0.74421 0.59114 0.62188 0.0
O280 O 0.71331 0.59349 0.6322 0.0
C281 C 0.79406 0.6365 0.65511 0.0
C282 C 0.8109 0.67833 0.65039 0.0
C283 C 0.83205 0.70717 0.66987 0.0
C284 C 0.83042 0.69351 0.69555 0.0
C285 C 0.81023 0.65108 0.70144 0.0
C286 C 0.79316 0.62237 0.68077 0.0
C287 C 0.8613 0.75007 0.6622 0.0
C288 C 0.89648 0.61154 0.58096 0.0
C289 C 0.9142 0.62856 0.55644 0.0
C290 C 0.92258 0.61241 0.60088 0.0
C291 C 0.96531 0.63244 0.59729 0.0
C292 C 0.98268 0.65057 0.57339 0.0
C293 C 0.95721 0.64743 0.55241 0.0
N294 N 0.8521 0.59062 0.58477 0.0
N295 N 0.78266 0.60967 0.63298 0.0
N296 N 0.83337 0.65269 0.59118 0.0
C297 C 0.81039 0.65521 0.56952 0.0
C298 C 0.81761 0.64601 0.54439 0.0
C299 C 0.78041 0.66661 0.57346 0.0
C300 C 0.79456 0.6472 0.5231 0.0
H301 H 0.8411 0.63777 0.54152 0.0
C302 C 0.76449 0.65861 0.52731 0.0
C303 C 0.75738 0.66866 0.55241 0.0
C304 C 0.80184 0.63662 0.49651 0.0
H305 H 0.77503 0.67384 0.59292 0.0
H306 H 0.74681 0.65998 0.51098 0.0
C307 C 0.72633 0.68179 0.5565 0.0
O308 O 0.77893 0.63698 0.47623 0.0
O309 O 0.82854 0.62746 0.49278 0.0
O310 O 0.71886 0.68887 0.57845 0.0
O311 O 0.70641 0.6864 0.53591 0.0
H312 H 0.78323 0.6303 0.45873 0.0
H313 H 0.68646 0.69542 0.53808 0.0
N314 N 0.86623 0.63691 0.63032 0.0
C315 C 0.87334 0.61968 0.65096 0.0
C316 C 0.90662 0.6449 0.66723 0.0
C317 C 0.93031 0.68742 0.66105 0.0
C318 C 0.92061 0.70379 0.639 0.0
C319 C 0.88703 0.67668 0.62357 0.0
N320 N 0.81541 0.55876 0.63299 0.0
C321 C 0.84467 0.57469 0.6523 0.0
O322 O 0.84816 0.55124 0.67001 0.0
C323 C 0.86887 0.6858 0.60065 0.0
O324 O 0.81677 0.77277 0.57309 0.0
O325 O 0.86318 0.77661 0.54643 0.0
C326 C 0.78787 0.51542 0.62901 0.0
C327 C 0.74486 0.49925 0.62953 0.0
C328 C 0.71809 0.45881 0.62138 0.0
C329 C 0.73418 0.43322 0.61555 0.0
C330 C 0.77656 0.44753 0.61767 0.0
C331 C 0.80369 0.48903 0.62387 0.0
O332 O 0.95649 0.82728 0.57907 0.0
O333 O 0.9458 0.81767 0.62005 0.0
O334 O 0.8667 0.75965 0.63804 0.0
O335 O 0.88568 0.77538 0.67908 0.0
O336 O 0.88837 0.72242 0.5881 0.0
C337 C 0.89337 0.87671 0.62711 0.0
O338 O 0.9115 0.87717 0.64829 0.0
O339 O 0.88514 0.84975 0.60931 0.0
C340 C 0.82795 0.77302 0.5497 0.0
H341 H 0.67539 0.54173 0.58735 0.0
H342 H 0.75075 0.51347 0.53655 0.0
H343 H 0.68231 0.50627 0.54793 0.0
H344 H 0.81101 0.68847 0.63071 0.0
H345 H 0.84661 0.71583 0.71085 0.0
H346 H 0.7798 0.58966 0.68445 0.0
H347 H 0.89467 0.62619 0.54022 0.0
H348 H 0.91014 0.59612 0.61886 0.0
H349 H 0.0158 0.66483 0.57089 0.0
H350 H 0.91419 0.63239 0.68399 0.0
H351 H 0.95608 0.70769 0.67338 0.0
H352 H 0.93831 0.73637 0.63451 0.0
H353 H 0.73221 0.51797 0.63604 0.0
H354 H 0.71321 0.40118 0.61048 0.0
H355 H 0.8367 0.50074 0.62459 0.0
Cd356 Cd 0.08938 0.87609 0.10506 0.0
C357 C 0.13925 0.97766 0.12678 0.0
C358 C 0.26162 0.83188 0.0657 0.0
O359 O 0.28728 0.84672 0.0459 0.0
Cd360 Cd 0.08209 0.89342 0.15157 0.0
C361 C 0.23165 0.7875 0.0681 0.0
C362 C 0.16746 0.70794 0.0797 0.0
C363 C 0.17762 0.74129 0.09629 0.0
N364 N 0.20894 0.77827 0.08965 0.0
C365 C 0.22316 0.75574 0.05047 0.0
C366 C 0.19073 0.71554 0.05655 0.0
Co367 Co 0.21997 0.82108 0.11167 0.0
C368 C 0.15983 0.74167 0.12182 0.0
O369 O 0.12865 0.70841 0.132 0.0
C370 C 0.16268 0.78551 0.15822 0.0
C371 C 0.12789 0.78909 0.15558 0.0
C372 C 0.1166 0.80727 0.17504 0.0
C373 C 0.13471 0.81327 0.19975 0.0
C374 C 0.16702 0.805 0.20412 0.0
C375 C 0.18226 0.79248 0.18282 0.0
C376 C 0.09699 0.83079 0.16648 0.0
C377 C 0.28281 0.90149 0.08258 0.0
C378 C 0.28344 0.92141 0.0588 0.0
C379 C 0.30857 0.92589 0.10282 0.0
C380 C 0.33009 0.96873 0.10102 0.0
C381 C 0.32872 0.98812 0.0782 0.0
C382 C 0.30789 0.96478 0.05609 0.0
N383 N 0.2603 0.85677 0.08489 0.0
N384 N 0.17916 0.77863 0.13475 0.0
N385 N 0.17786 0.83102 0.09614 0.0
C386 C 0.15357 0.81124 0.07338 0.0
C387 C 0.17084 0.82349 0.04857 0.0
C388 C 0.11213 0.7803 0.0758 0.0
C389 C 0.14774 0.80396 0.02614 0.0
H390 H 0.20227 0.8483 0.04683 0.0
C391 C 0.10624 0.77275 0.02885 0.0
C392 C 0.08801 0.761 0.05362 0.0
C393 C 0.16682 0.81618 0.99991 0.0
H394 H 0.09857 0.77148 0.09492 0.0
H395 H 0.08798 0.75791 0.01165 0.0
C396 C 0.04373 0.72905 0.05625 0.0
O397 O 0.14518 0.79565 0.97853 0.0
O398 O 0.20222 0.84482 0.99747 0.0
O399 O 0.02829 0.71758 0.07781 0.0
O400 O 0.02006 0.71268 0.03481 0.0
H401 H 0.15695 0.80319 0.96125 0.0
H402 H 0.99105 0.69214 0.03608 0.0
N403 N 0.22989 0.86342 0.13376 0.0
C404 C 0.25829 0.87224 0.15221 0.0
C405 C 0.26876 0.90615 0.16833 0.0
C406 C 0.24746 0.9282 0.16471 0.0
C407 C 0.21647 0.91616 0.14537 0.0
C408 C 0.20812 0.88236 0.12969 0.0
N409 N 0.26335 0.81779 0.13074 0.0
C410 C 0.27749 0.84611 0.15055 0.0
O411 O 0.30645 0.85004 0.16681 0.0
C412 C 0.17839 0.86426 0.1079 0.0
O413 O 0.04021 0.81818 0.07766 0.0
O414 O 0.08896 0.87073 0.05752 0.0
C415 C 0.27895 0.79037 0.12549 0.0
C416 C 0.25244 0.7474 0.12661 0.0
C417 C 0.26561 0.72063 0.11772 0.0
C418 C 0.30701 0.73684 0.11076 0.0
C419 C 0.33523 0.77918 0.11283 0.0
C420 C 0.32101 0.80621 0.11955 0.0
O421 O 0.12271 0.95364 0.10732 0.0
O422 O 0.1348 0.96241 0.14937 0.0
O423 O 0.0964 0.83688 0.14201 0.0
O424 O 0.09081 0.85279 0.18245 0.0
O425 O 0.15912 0.8835 0.09745 0.0
C426 C 1.00192 0.87929 0.13019 0.0
O427 O 0.01677 0.88714 0.15298 0.0
O428 O 0.02254 0.87522 0.11188 0.0
C429 C 0.05653 0.83549 0.05617 0.0
H430 H 0.14283 0.6772 0.08446 0.0
H431 H 0.24052 0.76169 0.03257 0.0
H432 H 0.18358 0.69036 0.04332 0.0
H433 H 0.11354 0.78345 0.13664 0.0
H434 H 0.12606 0.82741 0.21506 0.0
H435 H 0.20932 0.7893 0.18516 0.0
H436 H 0.26673 0.90323 0.04204 0.0
H437 H 0.31423 0.91227 0.11953 0.0
H438 H 0.34584 0.02148 0.07754 0.0
H439 H 0.29271 0.91561 0.18295 0.0
H440 H 0.25495 0.95459 0.1769 0.0
H441 H 0.20005 0.93286 0.1427 0.0
H442 H 0.22189 0.73464 0.13458 0.0
H443 H 0.31799 0.71595 0.10543 0.0
H444 H 0.34241 0.83913 0.12037 0.0
Cd445 Cd 0.21593 0.07624 0.60881 0.0
C446 C 0.15476 0.11118 0.63808 0.0
C447 C 0.42984 0.25886 0.56983 0.0
O448 O 0.44159 0.28679 0.5513 0.0
Cd449 Cd 0.19089 0.05545 0.65541 0.0
C450 C 0.44525 0.22975 0.57094 0.0
C451 C 0.46521 0.16843 0.58092 0.0
C452 C 0.44007 0.17559 0.59774 0.0
N453 N 0.43166 0.20522 0.59167 0.0
C454 C 0.47053 0.22444 0.55314 0.0
C455 C 0.4804 0.19325 0.55833 0.0
Co456 Co 0.3999 0.21441 0.61489 0.0
C457 C 0.42317 0.15677 0.62324 0.0
O458 O 0.42745 0.12645 0.63266 0.0
C459 C 0.37894 0.15309 0.65933 0.0
C460 C 0.34453 0.11462 0.65525 0.0
C461 C 0.31538 0.09536 0.67474 0.0
C462 C 0.32575 0.10974 0.70026 0.0
C463 C 0.35898 0.14985 0.70525 0.0
C464 C 0.38653 0.17128 0.68444 0.0
C465 C 0.27182 0.07394 0.66658 0.0
C466 C 0.3753 0.27215 0.58546 0.0
C467 C 0.35973 0.27334 0.56037 0.0
C468 C 0.36758 0.29209 0.60594 0.0
C469 C 0.34342 0.31045 0.60203 0.0
C470 C 0.32774 0.31078 0.57739 0.0
C471 C 0.33715 0.29373 0.55601 0.0
N472 N 0.40236 0.25496 0.58899 0.0
N473 N 0.40358 0.17355 0.63684 0.0
N474 N 0.34746 0.172 0.59999 0.0
C475 C 0.34227 0.15084 0.57582 0.0
C476 C 0.33008 0.16333 0.55345 0.0
C477 C 0.34637 0.1158 0.57495 0.0
C478 C 0.32348 0.14198 0.52983 0.0
H479 H 0.32519 0.18932 0.55469 0.0
C480 C 0.32782 0.10679 0.5292 0.0
C481 C 0.33882 0.09323 0.55179 0.0
C482 C 0.31163 0.15608 0.50596 0.0
H483 H 0.35442 0.10552 0.59251 0.0
H484 H 0.32223 0.08971 0.5112 0.0
C485 C 0.3415 0.05504 0.55142 0.0
O486 O 0.30564 0.13561 0.48326 0.0
O487 O 0.30724 0.18629 0.50668 0.0
O488 O 0.35487 0.04552 0.57034 0.0
O489 O 0.32873 0.03023 0.53032 0.0
H490 H 0.29773 0.14416 0.46751 0.0
H491 H 0.32961 0.00487 0.53002 0.0
N492 N 0.36774 0.22251 0.63836 0.0
C493 C 0.38791 0.24894 0.65766 0.0
C494 C 0.36467 0.25267 0.67771 0.0
C495 C 0.32106 0.22773 0.67652 0.0
C496 C 0.30164 0.19975 0.65568 0.0
C497 C 0.32679 0.19756 0.63637 0.0
N498 N 0.4473 0.25792 0.63366 0.0
C499 C 0.43331 0.27013 0.65459 0.0
O500 O 0.45865 0.29761 0.67145 0.0
C501 C 0.31466 0.16953 0.61365 0.0
O502 O 0.22479 0.02869 0.58093 0.0
O503 O 0.21899 0.07614 0.56063 0.0
C504 C 0.49061 0.27479 0.6278 0.0
C505 C 0.5084 0.24933 0.62762 0.0
C506 C 0.54852 0.26413 0.61821 0.0
C507 C 0.57285 0.30603 0.61254 0.0
C508 C 0.55785 0.33318 0.61635 0.0
C509 C 0.51623 0.31742 0.62319 0.0
O510 O 0.16767 0.10433 0.61666 0.0
O511 O 0.16341 0.09994 0.65935 0.0
O512 O 0.26427 0.07844 0.6429 0.0
O513 O 0.2434 0.06246 0.68336 0.0
O514 O 0.27531 0.14931 0.60418 0.0
C515 C 0.12711 0.98138 0.62853 0.0
O516 O 0.13745 0.98722 0.65227 0.0
O517 O 0.1489 0.00912 0.61192 0.0
C518 C 0.22136 0.04346 0.55942 0.0
H519 H 0.47342 0.14516 0.58523 0.0
H520 H 0.48216 0.24348 0.53589 0.0
H521 H 0.50005 0.18857 0.54499 0.0
H522 H 0.33766 0.10254 0.63562 0.0
H523 H 0.30475 0.09156 0.71566 0.0
H524 H 0.41265 0.20184 0.68752 0.0
H525 H 0.3661 0.25943 0.54388 0.0
H526 H 0.38188 0.29586 0.62463 0.0
H527 H 0.31035 0.32653 0.57482 0.0
H528 H 0.37949 0.27358 0.69384 0.0
H529 H 0.30238 0.22973 0.69189 0.0
H530 H 0.26837 0.18011 0.65505 0.0
H531 H 0.49172 0.21847 0.63514 0.0
H532 H 0.6049 0.31813 0.60697 0.0
H533 H 0.50406 0.3381 0.62534 0.0
Cd534 Cd 0.79001 0.88399 0.41863 0.0
C535 C 0.83976 0.97167 0.40687 0.0
C536 C 0.57092 0.82048 0.4488 0.0
O537 O 0.55862 0.83227 0.46938 0.0
Cd538 Cd 0.84419 0.93834 0.34694 0.0
C539 C 0.56065 0.77736 0.44507 0.0
C540 C 0.55435 0.70224 0.43105 0.0
C541 C 0.57466 0.73723 0.41522 0.0
N542 N 0.57564 0.77176 0.42289 0.0
C543 C 0.53999 0.74373 0.46195 0.0
C544 C 0.53672 0.70577 0.45461 0.0
Co545 Co 0.60643 0.81778 0.4029 0.0
C546 C 0.59596 0.74228 0.39014 0.0
O547 O 0.59933 0.71235 0.37928 0.0
C548 C 0.64028 0.79342 0.35731 0.0
C549 C 0.68243 0.81075 0.36179 0.0
C550 C 0.71094 0.83104 0.34192 0.0
C551 C 0.6966 0.82863 0.31634 0.0
C552 C 0.65399 0.80829 0.31094 0.0
C553 C 0.62562 0.79177 0.33174 0.0
C554 C 0.75447 0.85954 0.34891 0.0
C555 C 0.60932 0.89126 0.4312 0.0
C556 C 0.63317 0.91468 0.45272 0.0
C557 C 0.59562 0.90973 0.4131 0.0
C558 C 0.60539 0.95055 0.41621 0.0
C559 C 0.62877 0.97356 0.43748 0.0
C560 C 0.64305 0.9561 0.45624 0.0
N561 N 0.59456 0.84758 0.42962 0.0
N562 N 0.61334 0.78087 0.37943 0.0
N563 N 0.65776 0.83191 0.42085 0.0
C564 C 0.66251 0.81021 0.44241 0.0
C565 C 0.66117 0.82241 0.46795 0.0
C566 C 0.66953 0.77736 0.43798 0.0
C567 C 0.66599 0.80156 0.48923 0.0
H568 H 0.65646 0.84821 0.47112 0.0
C569 C 0.67246 0.76827 0.48454 0.0
C570 C 0.67461 0.75613 0.45896 0.0
C571 C 0.66473 0.81473 0.51633 0.0
H572 H 0.67136 0.76861 0.41818 0.0
H573 H 0.67635 0.75209 0.50083 0.0
C574 C 0.68315 0.72199 0.45425 0.0
O575 O 0.67075 0.79538 0.53666 0.0
O576 O 0.65837 0.84322 0.52043 0.0
O577 O 0.68348 0.71035 0.43206 0.0
O578 O 0.69101 0.70381 0.47449 0.0
H579 H 0.67022 0.80356 0.55447 0.0
H580 H 0.69718 0.68188 0.47186 0.0
N581 N 0.63801 0.86372 0.38303 0.0
C582 C 0.61905 0.86998 0.36301 0.0
C583 C 0.64265 0.90324 0.34637 0.0
C584 C 0.68547 0.92808 0.35167 0.0
C585 C 0.70373 0.91938 0.37315 0.0
C586 C 0.67817 0.88563 0.38892 0.0
N587 N 0.55992 0.8108 0.38169 0.0
C588 C 0.57437 0.83971 0.36214 0.0
O589 O 0.54971 0.84172 0.34465 0.0
C590 C 0.68947 0.86823 0.41123 0.0
O591 O 0.77416 0.817 0.43737 0.0
O592 O 0.78487 0.86545 0.46448 0.0
C593 C 0.51662 0.7838 0.38692 0.0
C594 C 0.50017 0.74087 0.38816 0.0
C595 C 0.45948 0.71503 0.39637 0.0
C596 C 0.43381 0.73165 0.40043 0.0
C597 C 0.44822 0.77365 0.39644 0.0
C598 C 0.48999 0.80002 0.39025 0.0
O599 O 0.82978 0.95835 0.42987 0.0
O600 O 0.82379 0.94504 0.38907 0.0
O601 O 0.76474 0.86649 0.37289 0.0
O602 O 0.78016 0.88165 0.33145 0.0
O603 O 0.72665 0.8888 0.42316 0.0
C604 C 0.8839 0.89418 0.3859 0.0
O605 O 0.88483 0.90996 0.36369 0.0
O606 O 0.85577 0.88705 0.4027 0.0
C607 C 0.77792 0.82906 0.46086 0.0
H608 H 0.55229 0.67339 0.42557 0.0
H609 H 0.52733 0.74667 0.48023 0.0
H610 H 0.52091 0.67925 0.46729 0.0
H611 H 0.69306 0.81107 0.3814 0.0
H612 H 0.71847 0.84378 0.30064 0.0
H613 H 0.59277 0.778 0.32816 0.0
H614 H 0.64294 0.90026 0.46708 0.0
H615 H 0.57543 0.89217 0.39734 0.0
H616 H 0.63363 0.00436 0.43973 0.0
H617 H 0.62874 0.90978 0.3299 0.0
H618 H 0.70452 0.95386 0.33904 0.0
H619 H 0.73657 0.93786 0.37692 0.0
H620 H 0.51851 0.72742 0.38246 0.0
H621 H 0.40155 0.7112 0.40533 0.0
H622 H 0.50161 0.83276 0.38792 0.0
Cd623 Cd 0.93632 0.79335 0.9088 0.0
C624 C 0.88801 0.84861 0.89252 0.0
C625 C 0.76134 0.58033 0.94877 0.0
O626 O 0.73752 0.57156 0.96939 0.0
Cd627 Cd 0.93807 0.81643 0.86399 0.0
C628 C 0.79005 0.56456 0.94586 0.0
C629 C 0.85242 0.54715 0.93321 0.0
C630 C 0.84045 0.56831 0.91606 0.0
N631 N 0.80963 0.57453 0.92307 0.0
C632 C 0.80039 0.54337 0.96409 0.0
C633 C 0.83176 0.53439 0.95743 0.0
Co634 Co 0.79848 0.60651 0.90112 0.0
C635 C 0.85704 0.58533 0.89011 0.0
O636 O 0.88787 0.583 0.87965 0.0
C637 C 0.85458 0.62731 0.85431 0.0
C638 C 0.8893 0.66571 0.85732 0.0
C639 C 0.90012 0.6959 0.83833 0.0
C640 C 0.88127 0.68464 0.81373 0.0
C641 C 0.84925 0.64405 0.80898 0.0
C642 C 0.83484 0.6154 0.82978 0.0
C643 C 0.92042 0.73883 0.84734 0.0
C644 C 0.73234 0.62014 0.9291 0.0
C645 C 0.73173 0.6429 0.95099 0.0
C646 C 0.69998 0.60633 0.91106 0.0
C647 C 0.66817 0.61499 0.91445 0.0
C648 C 0.66724 0.6365 0.9363 0.0
C649 C 0.69822 0.64972 0.95555 0.0
N650 N 0.76018 0.60376 0.9285 0.0
N651 N 0.83782 0.60336 0.87748 0.0
N652 N 0.84214 0.65848 0.91591 0.0
C653 C 0.86563 0.6628 0.93899 0.0
C654 C 0.85201 0.66845 0.96316 0.0
C655 C 0.90321 0.66328 0.93729 0.0
C656 C 0.87509 0.67355 0.98588 0.0
H657 H 0.8235 0.66908 0.96409 0.0
C658 C 0.9127 0.67374 0.98395 0.0
C659 C 0.92717 0.66891 0.95968 0.0
C660 C 0.86025 0.67906 0.01156 0.0
H661 H 0.91389 0.65962 0.91848 0.0
H662 H 0.9309 0.678 1.00132 0.0
C663 C 0.96743 0.67022 0.95775 0.0
O664 O 0.88277 0.68424 0.0333 0.0
O665 O 0.82761 0.67902 0.0132 0.0
O666 O 0.9794 0.66473 0.93679 0.0
O667 O 0.99124 0.67768 0.97915 0.0
H668 H 0.87376 0.68806 0.05021 0.0
H669 H 0.01769 0.6789 0.97832 0.0
N670 N 0.78861 0.63945 0.87929 0.0
C671 C 0.76094 0.62013 0.86042 0.0
C672 C 0.75495 0.64412 0.84193 0.0
C673 C 0.77908 0.6876 0.84411 0.0
C674 C 0.80863 0.70617 0.86429 0.0
C675 C 0.81303 0.68029 0.88206 0.0
N676 N 0.75356 0.55993 0.88256 0.0
C677 C 0.74107 0.57473 0.86212 0.0
O678 O 0.71294 0.55014 0.84529 0.0
C679 C 0.84314 0.69168 0.90367 0.0
O680 O 0.98698 0.78599 0.93529 0.0
O681 O 0.93736 0.78643 0.95648 0.0
C682 C 0.73668 0.51651 0.88759 0.0
C683 C 0.76256 0.49934 0.8873 0.0
C684 C 0.74779 0.45867 0.89518 0.0
C685 C 0.70569 0.43337 0.89997 0.0
C686 C 0.67817 0.4481 0.89693 0.0
C687 C 0.69374 0.49016 0.89142 0.0
O688 O 0.905 0.83912 0.91073 0.0
O689 O 0.89009 0.8385 0.86929 0.0
O690 O 0.92656 0.74541 0.87186 0.0
O691 O 0.9212 0.76637 0.83271 0.0
O692 O 0.86422 0.73065 0.91361 0.0
C693 C 0.0227 0.88128 0.87927 0.0
O694 O 0.00516 0.87087 0.85731 0.0
O695 O 0.00379 0.86022 0.89938 0.0
C696 C 0.9712 0.78622 0.95712 0.0
H697 H 0.87684 0.54086 0.92823 0.0
H698 H 0.78538 0.53465 0.9829 0.0
H699 H 0.84044 0.51808 0.97115 0.0
H700 H 0.90375 0.67369 0.87631 0.0
H701 H 0.88963 0.70793 0.79874 0.0
H702 H 0.80807 0.58503 0.82719 0.0
H703 H 0.75653 0.65348 0.96498 0.0
H704 H 0.69712 0.58622 0.89536 0.0
H705 H 0.64073 0.64051 0.93865 0.0
H706 H 0.73289 0.62997 0.82623 0.0
H707 H 0.77527 0.70687 0.82995 0.0
H708 H 0.82775 0.73937 0.86559 0.0
H709 H 0.79369 0.51681 0.88034 0.0
H710 H 0.69385 0.40103 0.90453 0.0
H711 H 0.67282 0.50216 0.88988 0.0
Cd712 Cd 0.12608 0.91702 0.41469 0.0
C713 C 0.02452 0.87091 0.40203 0.0
C714 C 0.1729 0.74144 0.44452 0.0
O715 O 0.15752 0.71319 0.4629 0.0
Cd716 Cd 0.0751 0.90614 0.34982 0.0
C717 C 0.21706 0.77294 0.44394 0.0
C718 C 0.29606 0.84096 0.43624 0.0
C719 C 0.26392 0.83088 0.41852 0.0
N720 N 0.22711 0.79777 0.42335 0.0
C721 C 0.24761 0.78117 0.46258 0.0
C722 C 0.28748 0.81565 0.45853 0.0
Co723 Co 0.18508 0.78834 0.40086 0.0
C724 C 0.26435 0.85174 0.39404 0.0
O725 O 0.29738 0.88517 0.38567 0.0
C726 C 0.22094 0.85179 0.35791 0.0
C727 C 0.20846 0.88039 0.3621 0.0
C728 C 0.1886 0.88971 0.34252 0.0
C729 C 0.18886 0.87648 0.31702 0.0
C730 C 0.2064 0.85167 0.31146 0.0
C731 C 0.2208 0.83764 0.3324 0.0
C732 C 0.15985 0.90375 0.35052 0.0
C733 C 0.10402 0.72022 0.42585 0.0
C734 C 0.08225 0.71548 0.44942 0.0
C735 C 0.08134 0.69851 0.40388 0.0
C736 C 0.03831 0.67659 0.40434 0.0
C737 C 0.01707 0.67362 0.42723 0.0
C738 C 0.03871 0.69064 0.45057 0.0
N739 N 0.14885 0.74371 0.42502 0.0
N740 N 0.22793 0.83356 0.38047 0.0
N741 N 0.1715 0.82611 0.41881 0.0
C742 C 0.19067 0.84824 0.44223 0.0
C743 C 0.17632 0.82954 0.46648 0.0
C744 C 0.22531 0.88778 0.44083 0.0
C745 C 0.1973 0.84944 0.48946 0.0
H746 H 0.1493 0.79915 0.46727 0.0
C747 C 0.2325 0.889 0.48778 0.0
C748 C 0.24661 0.90849 0.4635 0.0
C749 C 0.18297 0.82872 0.51509 0.0
H750 H 0.23632 0.90195 0.42201 0.0
H751 H 0.24885 0.90467 0.50537 0.0
C752 C 0.28411 0.94993 0.46169 0.0
O753 O 0.20514 0.84653 0.53686 0.0
O754 O 0.15113 0.79533 0.51668 0.0
O755 O 0.29454 0.96795 0.44078 0.0
O756 O 0.30722 0.96793 0.48308 0.0
H757 H 0.19634 0.83358 0.55377 0.0
H758 H 0.33207 0.99468 0.48214 0.0
N759 N 0.14358 0.78016 0.37826 0.0
C760 C 0.13958 0.75764 0.35717 0.0
C761 C 0.11087 0.75349 0.33815 0.0
C762 C 0.08836 0.77419 0.34215 0.0
C763 C 0.09488 0.79848 0.3647 0.0
C764 C 0.12402 0.80124 0.38291 0.0
N765 N 0.1922 0.7495 0.37918 0.0
C766 C 0.16672 0.73943 0.35789 0.0
O767 O 0.16635 0.71506 0.33935 0.0
C768 C 0.13913 0.82713 0.40668 0.0
O769 O 0.18605 0.96898 0.43978 0.0
O770 O 0.13695 0.91978 0.46192 0.0
C771 C 0.21965 0.7334 0.38356 0.0
C772 C 0.26285 0.76012 0.38398 0.0
C773 C 0.28934 0.74503 0.39014 0.0
C774 C 0.27297 0.70272 0.39344 0.0
C775 C 0.23064 0.67513 0.39089 0.0
C776 C 0.20365 0.69044 0.38637 0.0
O777 O 0.05224 0.89663 0.41728 0.0
O778 O 0.03556 0.85642 0.38339 0.0
O779 O 0.15619 0.90827 0.37478 0.0
O780 O 0.13277 0.90129 0.33461 0.0
O781 O 0.11924 0.8457 0.41743 0.0
C782 C 0.11931 0.99808 0.38196 0.0
O783 O 0.09914 0.97628 0.36251 0.0
O784 O 0.13047 0.9829 0.40037 0.0
C785 C 0.1713 0.95337 0.46191 0.0
H786 H 0.32651 0.86735 0.43312 0.0
H787 H 0.24087 0.76221 0.47983 0.0
H788 H 0.31165 0.82283 0.47267 0.0
H789 H 0.20907 0.89073 0.38178 0.0
H790 H 0.17356 0.8837 0.30164 0.0
H791 H 0.23118 0.81576 0.32901 0.0
H792 H 0.09922 0.72964 0.46709 0.0
H793 H 0.09649 0.69672 0.38662 0.0
H794 H 0.98364 0.65654 0.42677 0.0
H795 H 0.10605 0.73517 0.32083 0.0
H796 H 0.06621 0.77176 0.32766 0.0
H797 H 0.07846 0.81513 0.3674 0.0
H798 H 0.27602 0.79223 0.37918 0.0
H799 H 0.29375 0.69095 0.39734 0.0
H800 H 0.17067 0.66934 0.385 0.0
Cd801 Cd 0.217 0.14676 0.90531 0.0
C802 C 0.16317 0.04578 0.87946 0.0
C803 C 0.42988 0.17168 0.94235 0.0
O804 O 0.44042 0.15382 0.96048 0.0
Cd805 Cd 0.19682 0.13234 0.85977 0.0
C806 C 0.44697 0.21649 0.94214 0.0
C807 C 0.46937 0.29892 0.9342 0.0
C808 C 0.44533 0.26816 0.91615 0.0
N809 N 0.43535 0.22939 0.92137 0.0
C810 C 0.47108 0.24546 0.96113 0.0
C811 C 0.48195 0.28706 0.95705 0.0
Co812 Co 0.402 0.18994 0.89769 0.0
C813 C 0.42865 0.272 0.891 0.0
O814 O 0.43384 0.30745 0.88256 0.0
C815 C 0.38264 0.23392 0.85498 0.0
C816 C 0.34867 0.23832 0.86017 0.0
C817 C 0.31892 0.22923 0.84114 0.0
C818 C 0.32896 0.22708 0.81519 0.0
C819 C 0.36122 0.21926 0.80913 0.0
C820 C 0.38909 0.22391 0.82943 0.0
C821 C 0.27559 0.20406 0.84946 0.0
C822 C 0.37441 0.10545 0.92522 0.0
C823 C 0.35844 0.08755 0.94999 0.0
C824 C 0.36651 0.07871 0.90415 0.0
C825 C 0.34212 0.03602 0.90726 0.0
C826 C 0.32649 0.01889 0.93168 0.0
C827 C 0.33609 0.0444 0.95358 0.0
N828 N 0.40248 0.14972 0.92269 0.0
N829 N 0.40764 0.23629 0.87684 0.0
N830 N 0.35028 0.18156 0.91305 0.0
C831 C 0.34652 0.19516 0.93849 0.0
C832 C 0.33115 0.16719 0.95925 0.0
C833 C 0.35898 0.23661 0.94282 0.0
C834 C 0.33025 0.18076 0.98463 0.0
H835 H 0.32007 0.13492 0.9555 0.0
C836 C 0.3452 0.223 0.98893 0.0
C837 C 0.35973 0.2512 0.96811 0.0
C838 C 0.31426 0.15107 1.00666 0.0
H839 H 0.36868 0.2576 0.92648 0.0
H840 H 0.34528 0.23391 0.00848 0.0
C841 C 0.3765 0.29589 0.97286 0.0
O842 O 0.31259 0.1642 0.03089 0.0
O843 O 0.30249 0.11456 1.00304 0.0
O844 O 0.38541 0.31979 0.95455 0.0
O845 O 0.3825 0.31056 0.99747 0.0
H846 H 0.30226 0.14537 0.04552 0.0
H847 H 0.39343 0.33957 1.001 0.0
N848 N 0.36854 0.15131 0.8737 0.0
C849 C 0.38783 0.14475 0.854 0.0
C850 C 0.36379 0.11918 0.83358 0.0
C851 C 0.32039 0.10218 0.83485 0.0
C852 C 0.30195 0.111 0.8561 0.0
C853 C 0.32786 0.13692 0.87576 0.0
N854 N 0.44833 0.19237 0.87842 0.0
C855 C 0.4333 0.16718 0.85706 0.0
O856 O 0.45782 0.16473 0.83972 0.0
C857 C 0.31678 0.15271 0.89899 0.0
O858 O 0.23469 0.19979 0.93915 0.0
O859 O 0.20187 0.13615 0.95162 0.0
C860 C 0.49198 0.21857 0.88361 0.0
C861 C 0.51027 0.26186 0.88286 0.0
C862 C 0.55075 0.28727 0.89168 0.0
C863 C 0.57494 0.26962 0.89751 0.0
C864 C 0.55934 0.2272 0.89474 0.0
C865 C 0.51735 0.20129 0.8885 0.0
O866 O 0.17181 0.06942 0.89921 0.0
O867 O 0.17526 0.06172 0.85713 0.0
O868 O 0.26804 0.19834 0.87387 0.0
O869 O 0.24964 0.17864 0.83343 0.0
O870 O 0.27748 0.13406 0.9085 0.0
C871 C 0.13133 0.15005 0.87697 0.0
O872 O 0.14054 0.14259 0.85477 0.0
O873 O 0.1532 0.15209 0.89659 0.0
C874 C 0.21647 0.17387 0.95727 0.0
H875 H 0.47808 0.3308 0.93087 0.0
H876 H 0.48068 0.23634 0.97861 0.0
H877 H 0.50027 0.31008 0.9715 0.0
H878 H 0.34249 0.24239 0.88025 0.0
H879 H 0.30787 0.2258 0.80029 0.0
H880 H 0.41454 0.21868 0.82568 0.0
H881 H 0.36475 0.1071 0.96689 0.0
H882 H 0.38094 0.08999 0.8856 0.0
H883 H 0.30924 0.98565 0.93367 0.0
H884 H 0.37788 0.11292 0.81714 0.0
H885 H 0.30111 0.08259 0.81922 0.0
H886 H 0.26888 0.09868 0.8568 0.0
H887 H 0.49361 0.276 0.87523 0.0
H888 H 0.60717 0.28959 0.90277 0.0
H889 H 0.50466 0.16825 0.88717 0.0
Cd890 Cd 0.07916 0.21251 0.40984 0.0
C891 C 0.1176 0.1513 0.38211 0.0
C892 C 0.26026 0.42607 0.44624 0.0
O893 O 0.28774 0.43594 0.46494 0.0
Cd894 Cd 0.06816 0.18956 0.36384 0.0
C895 C 0.23185 0.44243 0.44574 0.0
C896 C 0.17146 0.46424 0.43692 0.0
C897 C 0.17858 0.44015 0.41919 0.0
N898 N 0.20774 0.43074 0.42475 0.0
C899 C 0.2266 0.46664 0.4644 0.0
C900 C 0.19585 0.47739 0.45981 0.0
Co901 Co 0.21536 0.39854 0.40103 0.0
C902 C 0.15849 0.42335 0.39394 0.0
O903 O 0.12775 0.42767 0.38528 0.0
C904 C 0.1523 0.37792 0.35795 0.0
C905 C 0.11553 0.34203 0.36293 0.0
C906 C 0.09728 0.31195 0.34391 0.0
C907 C 0.10975 0.32235 0.31801 0.0
C908 C 0.14729 0.35858 0.31172 0.0
C909 C 0.16877 0.38654 0.33239 0.0
C910 C 0.07917 0.26884 0.35254 0.0
C911 C 0.27641 0.3754 0.4271 0.0
C912 C 0.2784 0.35672 0.4508 0.0
C913 C 0.2984 0.37342 0.40562 0.0
C914 C 0.31903 0.35112 0.40687 0.0
C915 C 0.32015 0.33225 0.43003 0.0
C916 C 0.30198 0.33682 0.45278 0.0
N917 N 0.25664 0.40035 0.42605 0.0
N918 N 0.17388 0.40278 0.38007 0.0
N919 N 0.17331 0.34626 0.41642 0.0
C920 C 0.15262 0.34152 0.44078 0.0
C921 C 0.16379 0.32727 0.46284 0.0
C922 C 0.1198 0.34927 0.44229 0.0
C923 C 0.14295 0.32174 0.48662 0.0
H924 H 0.18842 0.32017 0.46127 0.0
C925 C 0.1109 0.33098 0.488 0.0
C926 C 0.09892 0.34452 0.46586 0.0
C927 C 0.15415 0.30591 0.50993 0.0
H928 H 0.11013 0.35853 0.42499 0.0
H929 H 0.09492 0.32718 0.50628 0.0
C930 C 0.06439 0.35329 0.46726 0.0
O931 O 0.13271 0.29897 0.53233 0.0
O932 O 0.18269 0.29886 0.50901 0.0
O933 O 0.05494 0.36632 0.44815 0.0
O934 O 0.04312 0.3469 0.48966 0.0
H935 H 0.13937 0.28848 0.54772 0.0
H936 H 0.02048 0.35237 0.49091 0.0
N937 N 0.22207 0.36612 0.37704 0.0
C938 C 0.24726 0.38602 0.35715 0.0
C939 C 0.25003 0.36259 0.33687 0.0
C940 C 0.22546 0.31908 0.33848 0.0
C941 C 0.19879 0.29993 0.35993 0.0
C942 C 0.19752 0.32528 0.37945 0.0
N943 N 0.25818 0.44548 0.38173 0.0
C944 C 0.26871 0.43137 0.36011 0.0
O945 O 0.29514 0.45655 0.34273 0.0
C946 C 0.17067 0.31338 0.40276 0.0
O947 O 0.04176 0.22755 0.44405 0.0
O948 O 0.07861 0.20103 0.45662 0.0
C949 C 0.27447 0.4887 0.38709 0.0
C950 C 0.24901 0.50643 0.38509 0.0
C951 C 0.26338 0.54704 0.39326 0.0
C952 C 0.30482 0.5714 0.40033 0.0
C953 C 0.33202 0.55599 0.39916 0.0
C954 C 0.31668 0.51424 0.39313 0.0
O955 O 0.10606 0.16272 0.40233 0.0
O956 O 0.11351 0.16372 0.35994 0.0
O957 O 0.07906 0.26196 0.37697 0.0
O958 O 0.07604 0.24193 0.33642 0.0
O959 O 0.15156 0.27428 0.41253 0.0
C960 C 0.98622 0.12778 0.38442 0.0
O961 O 0.99991 0.13475 0.36139 0.0
O962 O 0.00896 0.15077 0.4028 0.0
C963 C 0.05268 0.21221 0.46234 0.0
H964 H 0.14822 0.47277 0.43323 0.0
H965 H 0.24523 0.47663 0.48192 0.0
H966 H 0.19103 0.496 0.47392 0.0
H967 H 0.10496 0.33508 0.38288 0.0
H968 H 0.0919 0.2997 0.3033 0.0
H969 H 0.19846 0.41375 0.32918 0.0
H970 H 0.26335 0.35946 0.46805 0.0
H971 H 0.30186 0.39078 0.38825 0.0
H972 H 0.33674 0.31547 0.43031 0.0
H973 H 0.27002 0.37721 0.32032 0.0
H974 H 0.22678 0.30023 0.32297 0.0
H975 H 0.17937 0.26673 0.36089 0.0
H976 H 0.21849 0.48923 0.37693 0.0
H977 H 0.31666 0.60363 0.40517 0.0
H978 H 0.33734 0.50183 0.39276 0.0
Cd979 Cd 0.86695 0.07833 0.90952 0.0
C980 C 0.96452 0.117 0.88332 0.0
C981 C 0.83519 0.26333 0.94673 0.0
O982 O 0.85226 0.29189 0.96482 0.0
Cd983 Cd 0.87349 0.06026 0.86242 0.0
C984 C 0.79032 0.23456 0.94611 0.0
C985 C 0.70869 0.17168 0.93806 0.0
C986 C 0.74061 0.17751 0.92127 0.0
N987 N 0.77879 0.20817 0.92633 0.0
C988 C 0.76013 0.2305 0.96387 0.0
C989 C 0.71889 0.1986 0.95962 0.0
Co990 Co 0.81939 0.21489 0.90352 0.0
C991 C 0.73819 0.15629 0.89664 0.0
O992 O 0.70333 0.1255 0.88777 0.0
C993 C 0.77801 0.15482 0.85904 0.0
C994 C 0.78082 0.11973 0.86175 0.0
C995 C 0.7958 0.10622 0.8416 0.0
C996 C 0.79934 0.12263 0.81661 0.0
C997 C 0.79131 0.15511 0.81237 0.0
C998 C 0.78248 0.17273 0.8341 0.0
C999 C 0.81789 0.08473 0.8491 0.0
C1000 C 0.90242 0.27371 0.93166 0.0
C1001 C 0.91944 0.27504 0.95666 0.0
C1002 C 0.92989 0.29291 0.91093 0.0
C1003 C 0.97245 0.31019 0.91442 0.0
C1004 C 0.9887 0.31015 0.93889 0.0
C1005 C 0.96251 0.29399 0.96051 0.0
N1006 N 0.8582 0.25709 0.9283 0.0
N1007 N 0.77413 0.17308 0.88259 0.0
N1008 N 0.82821 0.17281 0.92021 0.0
C1009 C 0.80793 0.14952 0.9432 0.0
C1010 C 0.81789 0.16837 0.96767 0.0
C1011 C 0.77859 0.10747 0.94135 0.0
C1012 C 0.79806 0.14604 0.99027 0.0
H1013 H 0.84144 0.20031 0.96909 0.0
C1014 C 0.76805 0.10408 0.98805 0.0
C1015 C 0.75821 0.08445 0.96364 0.0
C1016 C 0.80887 0.16637 0.01619 0.0
H1017 H 0.7717 0.09263 0.92257 0.0
H1018 H 0.75267 0.08655 1.00537 0.0
C1019 C 0.72702 0.0399 0.96152 0.0
O1020 O 0.78964 0.14472 0.03784 0.0
O1021 O 0.83527 0.20278 0.01814 0.0
O1022 O 0.71747 0.02314 0.9402 0.0
O1023 O 0.70913 0.01748 0.98317 0.0
H1024 H 0.79634 0.1573 0.05494 0.0
H1025 H 0.68894 0.98837 0.98222 0.0
N1026 N 0.85936 0.22059 0.88051 0.0
C1027 C 0.86689 0.24635 0.86059 0.0
C1028 C 0.89575 0.25014 0.84186 0.0
C1029 C 0.91453 0.22561 0.8448 0.0
C1030 C 0.90446 0.1982 0.86614 0.0
C1031 C 0.87559 0.19626 0.88421 0.0
N1032 N 0.81672 0.25734 0.88302 0.0
C1033 C 0.84322 0.26813 0.8623 0.0
O1034 O 0.84605 0.29478 0.84456 0.0
C1035 C 0.85867 0.16937 0.90738 0.0
O1036 O 0.80888 0.03055 0.93643 0.0
O1037 O 0.86135 0.07904 0.95703 0.0
C1038 C 0.78955 0.27357 0.88722 0.0
C1039 C 0.74641 0.24745 0.88597 0.0
C1040 C 0.71989 0.26146 0.89401 0.0
C1041 C 0.73649 0.30314 0.90004 0.0
C1042 C 0.77901 0.33081 0.89796 0.0
C1043 C 0.80582 0.31587 0.89222 0.0
O1044 O 0.94389 0.1101 0.90436 0.0
O1045 O 0.94571 0.10377 0.86184 0.0
O1046 O 0.82731 0.08588 0.87313 0.0
O1047 O 0.8352 0.07397 0.83219 0.0
O1048 O 0.87693 0.14898 0.91765 0.0
C1049 C 0.85782 0.98333 0.88911 0.0
O1050 O 0.85173 0.99052 0.86595 0.0
O1051 O 0.86715 0.0109 0.9065 0.0
C1052 C 0.82592 0.04671 0.95804 0.0
H1053 H 0.67708 0.14777 0.93451 0.0
H1054 H 0.768 0.25088 0.98046 0.0
H1055 H 0.69486 0.19487 0.97295 0.0
H1056 H 0.77685 0.10657 0.88093 0.0
H1057 H 0.81086 0.11208 0.80076 0.0
H1058 H 0.77919 0.19966 0.83168 0.0
H1059 H 0.8995 0.26256 0.97344 0.0
H1060 H 0.91921 0.29696 0.89236 0.0
H1061 H 0.02192 0.32504 0.94117 0.0
H1062 H 0.90361 0.27121 0.82562 0.0
H1063 H 0.93677 0.22774 0.83052 0.0
H1064 H 0.91838 0.17904 0.86819 0.0
H1065 H 0.73334 0.21655 0.87864 0.0
H1066 H 0.71578 0.31466 0.90471 0.0
H1067 H 0.83888 0.33687 0.8914 0.0
C1068 C 0.22174 0.61232 0.09348 0.0
C1069 C 0.21478 0.59043 0.11698 0.0
C1070 C 0.2334 0.65419 0.09356 0.0
C1071 C 0.23803 0.67528 0.1171 0.0
H1072 H 0.22366 0.59861 0.07535 0.0
H1073 H 0.24303 0.67117 0.07538 0.0
S1074 S 0.21444 0.62949 0.18315 0.0
N1075 N 0.20628 0.5909 0.1638 0.0
N1076 N 0.22786 0.66964 0.16391 0.0
C1077 C 0.22538 0.65233 0.14026 0.0
C1078 C 0.21357 0.60968 0.14017 0.0
C1079 C 0.58285 0.23522 0.59096 0.0
C1080 C 0.56758 0.23783 0.6155 0.0
C1081 C 0.6142 0.22522 0.58873 0.0
C1082 C 0.63145 0.2177 0.61099 0.0
H1083 H 0.57357 0.24515 0.57367 0.0
H1084 H 0.62845 0.22836 0.56986 0.0
S1085 S 0.59709 0.21358 0.67913 0.0
N1086 N 0.56762 0.22622 0.66198 0.0
N1087 N 0.62674 0.20756 0.65783 0.0
C1088 C 0.61275 0.21507 0.63521 0.0
C1089 C 0.58079 0.22527 0.63748 0.0
C1090 C 0.3516 0.5826 0.09608 0.0
C1091 C 0.33293 0.56851 0.12059 0.0
C1092 C 0.39296 0.61407 0.09399 0.0
C1093 C 0.41693 0.63246 0.11637 0.0
H1094 H 0.3329 0.57239 0.07855 0.0
H1095 H 0.40468 0.6274 0.07498 0.0
S1096 S 0.38453 0.60148 0.18472 0.0
N1097 N 0.343 0.57095 0.16737 0.0
N1098 N 0.42091 0.63023 0.16349 0.0
C1099 C 0.40014 0.615 0.14075 0.0
C1100 C 0.35795 0.58296 0.14287 0.0
C1101 C 0.77544 0.35557 0.5903 0.0
C1102 C 0.7724 0.33371 0.61328 0.0
C1103 C 0.78401 0.39648 0.59131 0.0
C1104 C 0.78986 0.41666 0.61533 0.0
H1105 H 0.76654 0.33952 0.57179 0.0
H1106 H 0.78102 0.41058 0.57361 0.0
S1107 S 0.79323 0.37555 0.68034 0.0
N1108 N 0.78243 0.33715 0.66012 0.0
N1109 N 0.79871 0.41428 0.66201 0.0
C1110 C 0.79255 0.39704 0.63796 0.0
C1111 C 0.78371 0.35532 0.63695 0.0
C1112 C 0.40064 0.79552 0.13453 0.0
C1113 C 0.37953 0.7923 0.11114 0.0
C1114 C 0.43289 0.78657 0.13522 0.0
C1115 C 0.44485 0.77446 0.11249 0.0
H1116 H 0.38872 0.7996 0.15283 0.0
H1117 H 0.44493 0.78425 0.15397 0.0
S1118 S 0.40569 0.77088 0.04572 0.0
N1119 N 0.37767 0.78351 0.06428 0.0
N1120 N 0.43856 0.76713 0.0655 0.0
C1121 C 0.42801 0.77704 0.08858 0.0
C1122 C 0.3952 0.78595 0.0879 0.0
C1123 C 0.6536 0.42619 0.59529 0.0
C1124 C 0.67288 0.4412 0.61955 0.0
C1125 C 0.61209 0.39497 0.59379 0.0
C1126 C 0.58883 0.37764 0.61654 0.0
H1127 H 0.67191 0.43525 0.57763 0.0
H1128 H 0.59989 0.38062 0.57508 0.0
S1129 S 0.62285 0.41222 0.68423 0.0
N1130 N 0.66402 0.44156 0.66631 0.0
N1131 N 0.58588 0.38255 0.66355 0.0
C1132 C 0.60611 0.39649 0.64053 0.0
C1133 C 0.6484 0.42834 0.64205 0.0
C1134 C 0.40046 0.78971 0.37238 0.0
C1135 C 0.41712 0.78703 0.39643 0.0
C1136 C 0.35965 0.78203 0.37064 0.0
C1137 C 0.33461 0.77167 0.39294 0.0
H1138 H 0.41711 0.79263 0.35451 0.0
H1139 H 0.3462 0.77938 0.35152 0.0
S1140 S 0.36642 0.76827 0.46082 0.0
N1141 N 0.40776 0.77962 0.44324 0.0
N1142 N 0.33121 0.76509 0.44 0.0
C1143 C 0.35278 0.7742 0.41734 0.0
C1144 C 0.39412 0.78198 0.41909 0.0
C1145 C 0.61425 0.39929 0.87342 0.0
C1146 C 0.63365 0.41682 0.89734 0.0
C1147 C 0.58273 0.35769 0.87189 0.0
C1148 C 0.56994 0.33263 0.89425 0.0
H1149 H 0.62699 0.41612 0.85545 0.0
H1150 H 0.57176 0.34403 0.85286 0.0
S1151 S 0.60572 0.36605 0.96187 0.0
N1152 N 0.63316 0.4079 0.94412 0.0
N1153 N 0.57484 0.32978 0.94126 0.0
C1154 C 0.58554 0.35128 0.91853 0.0
C1155 C 0.61707 0.39352 0.92009 0.0
C1156 C 0.22793 0.57909 0.3697 0.0
C1157 C 0.2372 0.56645 0.39333 0.0
C1158 C 0.21826 0.61088 0.36918 0.0
C1159 C 0.21747 0.63075 0.39227 0.0
H1160 H 0.23269 0.56768 0.3514 0.0
H1161 H 0.21644 0.62331 0.35047 0.0
S1162 S 0.23234 0.60382 0.45926 0.0
N1163 N 0.23933 0.57212 0.44044 0.0
N1164 N 0.22078 0.63136 0.43944 0.0
C1165 C 0.22149 0.61466 0.41609 0.0
C1166 C 0.23162 0.58268 0.41662 0.0
C1167 C 0.65394 0.23038 0.91867 0.0
C1168 C 0.67442 0.23438 0.89496 0.0
C1169 C 0.61225 0.21974 0.91909 0.0
C1170 C 0.58998 0.21327 0.89578 0.0
H1171 H 0.67135 0.23985 0.93671 0.0
H1172 H 0.59913 0.22211 0.93738 0.0
S1173 S 0.62731 0.21177 0.82925 0.0
N1174 N 0.6677 0.22423 0.84816 0.0
N1175 N 0.58933 0.20463 0.84891 0.0
C1176 C 0.60852 0.2115 0.87239 0.0
C1177 C 0.65097 0.22223 0.87196 0.0
C1178 C 0.4301 0.64511 0.37687 0.0
C1179 C 0.4413 0.66996 0.39926 0.0
C1180 C 0.39812 0.60377 0.37782 0.0
C1181 C 0.37654 0.58648 0.40115 0.0
H1182 H 0.44253 0.65888 0.35806 0.0
H1183 H 0.38665 0.58716 0.35964 0.0
S1184 S 0.40087 0.63632 0.46597 0.0
N1185 N 0.43389 0.67248 0.44605 0.0
N1186 N 0.37368 0.59493 0.44778 0.0
C1187 C 0.39166 0.60934 0.4242 0.0
C1188 C 0.42408 0.65124 0.42324 0.0
C1189 C 0.78595 0.39123 0.92177 0.0
C1190 C 0.79255 0.37514 0.89873 0.0
C1191 C 0.77706 0.42335 0.92086 0.0
C1192 C 0.77448 0.44016 0.89689 0.0
H1193 H 0.78253 0.37556 0.94015 0.0
H1194 H 0.76755 0.43183 0.93863 0.0
S1195 S 0.7974 0.41432 0.83182 0.0
N1196 N 0.8027 0.38279 0.85193 0.0
N1197 N 0.78577 0.4432 0.85023 0.0
C1198 C 0.78657 0.42823 0.87421 0.0
C1199 C 0.79578 0.39562 0.87516 0.0
C1200 C 0.15448 0.32603 0.27061 0.0
C1201 C 0.16518 0.36241 0.28463 0.0
C1202 C 0.16724 0.32662 0.24511 0.0
C1203 C 0.19563 0.36341 0.2324 0.0
H1204 H 0.13599 0.29583 0.27918 0.0
H1205 H 0.15436 0.29702 0.23552 0.0
S1206 S 0.23595 0.4685 0.25993 0.0
N1207 N 0.20502 0.43752 0.28289 0.0
N1208 N 0.23464 0.43825 0.23613 0.0
C1209 C 0.20789 0.40052 0.2461 0.0
C1210 C 0.19217 0.40007 0.27192 0.0
C1211 C 0.82916 0.21049 0.77876 0.0
C1212 C 0.79602 0.17129 0.78531 0.0
C1213 C 0.84152 0.22115 0.7526 0.0
C1214 C 0.82069 0.19321 0.73216 0.0
H1215 H 0.84753 0.23177 0.79399 0.0
H1216 H 0.86903 0.25039 0.74848 0.0
S1217 S 0.72982 0.08844 0.73888 0.0
N1218 N 0.74078 0.10591 0.76906 0.0
N1219 N 0.76397 0.12602 0.72024 0.0
C1220 C 0.7859 0.15523 0.7384 0.0
C1221 C 0.7735 0.14431 0.76487 0.0
C1222 C 0.62838 0.83405 0.27424 0.0
C1223 C 0.64091 0.80655 0.2834 0.0
C1224 C 0.62788 0.84158 0.24733 0.0
C1225 C 0.63972 0.82172 0.22884 0.0
H1226 H 0.62217 0.8522 0.28798 0.0
H1227 H 0.6214 0.86541 0.24111 0.0
S1228 S 0.67139 0.74447 0.24283 0.0
N1229 N 0.66225 0.75726 0.27183 0.0
N1230 N 0.66139 0.77146 0.22158 0.0
C1231 C 0.64938 0.79211 0.23778 0.0
C1232 C 0.64996 0.78452 0.26499 0.0
C1233 C 0.8074 0.65451 0.77517 0.0
C1234 C 0.82916 0.63466 0.78289 0.0
C1235 C 0.79815 0.65641 0.74886 0.0
C1236 C 0.8105 0.63876 0.72912 0.0
H1237 H 0.79996 0.67113 0.78938 0.0
H1238 H 0.78348 0.67412 0.74374 0.0
S1239 S 0.86541 0.58049 0.73939 0.0
N1240 N 0.86033 0.59456 0.76903 0.0
N1241 N 0.84302 0.59814 0.7195 0.0
C1242 C 0.8297 0.61632 0.73679 0.0
C1243 C 0.83911 0.61437 0.76369 0.0
C1244 C 0.17489 0.78575 0.24996 0.0
C1245 C 0.1873 0.81579 0.23019 0.0
C1246 C 0.18429 0.79716 0.27641 0.0
C1247 C 0.20611 0.839 0.28386 0.0
H1248 H 0.15537 0.75344 0.24516 0.0
H1249 H 0.17185 0.77328 0.29117 0.0
S1250 S 0.24844 0.92904 0.23938 0.0
N1251 N 0.22433 0.8887 0.21997 0.0
N1252 N 0.24324 0.91009 0.26907 0.0
C1253 C 0.22114 0.86895 0.26405 0.0
C1254 C 0.21132 0.85738 0.2374 0.0
C1255 C 0.39836 0.21116 0.76956 0.0
C1256 C 0.36137 0.20125 0.78278 0.0
C1257 C 0.3979 0.19533 0.74439 0.0
C1258 C 0.36045 0.16976 0.73111 0.0
H1259 H 0.42791 0.23138 0.77864 0.0
H1260 H 0.42704 0.20282 0.73544 0.0
S1261 S 0.25484 0.13502 0.75667 0.0
N1262 N 0.28605 0.16015 0.78102 0.0
N1263 N 0.28556 0.13946 0.73245 0.0
C1264 C 0.32349 0.16135 0.74377 0.0
C1265 C 0.32384 0.17447 0.76988 0.0
C1266 C 0.16789 0.16006 0.9938 0.0
C1267 C 0.20663 0.18605 0.98239 0.0
C1268 C 0.15561 0.17163 0.01646 0.0
C1269 C 0.18204 0.20912 0.02906 0.0
H1270 H 0.1464 0.13086 0.98481 0.0
H1271 H 0.12549 0.15047 0.02453 0.0
S1272 S 0.28685 0.28776 0.00734 0.0
N1273 N 0.27109 0.25124 0.98501 0.0
N1274 N 0.24895 0.27194 0.02875 0.0
C1275 C 0.22111 0.23517 0.01812 0.0
C1276 C 0.23313 0.22393 0.99447 0.0
C1277 C 0.02092 0.22716 0.50112 0.0
C1278 C 0.03053 0.20043 0.48754 0.0
C1279 C 0.99844 0.21479 0.52462 0.0
C1280 C 0.98276 0.1745 0.53437 0.0
H1281 H 0.03111 0.25782 0.49369 0.0
H1282 H 0.99281 0.23661 0.53499 0.0
S1283 S 0.99811 0.09241 0.5054 0.0
N1284 N 0.02269 0.13209 0.48554 0.0
N1285 N 0.97859 0.10811 0.52853 0.0
C1286 C 0.99161 0.14741 0.52062 0.0
C1287 C 0.01584 0.16051 0.49746 0.0
C1288 C 0.77412 0.95991 1.00663 0.0
C1289 C 0.78718 0.98017 0.03076 0.0
C1290 C 0.78375 0.98208 0.98324 0.0
C1291 C 0.80822 0.02535 0.98302 0.0
H1292 H 0.75794 0.92654 1.00572 0.0
H1293 H 0.7745 0.96493 0.96513 0.0
S1294 S 0.84661 0.09336 0.04101 0.0
N1295 N 0.82199 0.04619 0.05318 0.0
N1296 N 0.84213 0.08789 0.00904 0.0
C1297 C 0.81944 0.04616 0.00705 0.0
C1298 C 0.8084 0.02355 0.03097 0.0
C1299 C 0.77202 0.81268 0.50835 0.0
C1300 C 0.78025 0.8048 0.48291 0.0
C1301 C 0.78358 0.79819 0.53017 0.0
C1302 C 0.80498 0.77648 0.52726 0.0
H1303 H 0.7586 0.8321 0.51146 0.0
H1304 H 0.77892 0.80719 0.54935 0.0
S1305 S 0.82876 0.7429 0.46494 0.0
N1306 N 0.80601 0.7691 0.45611 0.0
N1307 N 0.82961 0.74366 0.4971 0.0
C1308 C 0.81042 0.76561 0.50198 0.0
C1309 C 0.79757 0.77934 0.47978 0.0
C1310 C 0.97246 0.77907 1.00562 0.0
C1311 C 0.99401 0.79251 0.98192 0.0
C1312 C 0.99333 0.79077 0.02962 0.0
C1313 C 0.0364 0.81759 0.03081 0.0
H1314 H 0.93907 0.76059 1.00564 0.0
H1315 H 0.97522 0.78068 0.04735 0.0
S1316 S 0.10729 0.86072 0.97432 0.0
N1317 N 0.06113 0.83237 0.96115 0.0
N1318 N 0.10003 0.8559 1.00614 0.0
C1319 C 0.05845 0.83015 0.00724 0.0
C1320 C 0.03735 0.81722 0.98284 0.0
C1321 C 0.21122 0.01924 0.4869 0.0
C1322 C 0.19014 0.97579 0.48651 0.0
C1323 C 0.22258 0.04115 0.51053 0.0
C1324 C 0.2147 0.02057 0.5346 0.0
H1325 H 0.21673 0.0364 0.46892 0.0
H1326 H 0.23643 0.07435 0.50997 0.0
S1327 S 0.16243 0.90712 0.5441 0.0
N1328 N 0.16292 0.91308 0.51221 0.0
N1329 N 0.18598 0.95413 0.55643 0.0
C1330 C 0.19566 0.97722 0.53436 0.0
C1331 C 0.183 0.95489 0.51037 0.0
C1332 C 0.67215 0.68978 0.98131 0.0
C1333 C 0.69247 0.66654 0.98096 0.0
C1334 C 0.65879 0.69895 1.00467 0.0
C1335 C 0.666 0.68629 0.02901 0.0
H1336 H 0.66487 0.6997 0.96324 0.0
H1337 H 0.64076 0.71421 1.00338 0.0
S1338 S 0.72519 0.63214 0.0399 0.0
N1339 N 0.72263 0.63472 0.00793 0.0
N1340 N 0.70147 0.65576 0.05158 0.0
C1341 C 0.69 0.66682 0.02921 0.0
C1342 C 0.70237 0.65617 1.00536 0.0
C1343 C 0.02718 0.70987 0.49591 0.0
C1344 C 0.01608 0.68003 0.4761 0.0
C1345 C 0.00737 0.69961 0.52036 0.0
C1346 C 0.97524 0.6593 0.5258 0.0
H1347 H 0.05151 0.74137 0.49259 0.0
H1348 H 0.01743 0.72328 0.53519 0.0
S1349 S 0.93624 0.56898 0.48189 0.0
N1350 N 0.97229 0.60749 0.46475 0.0
N1351 N 0.93429 0.58919 0.51002 0.0
C1352 C 0.96366 0.62933 0.50628 0.0
C1353 C 0.98421 0.63943 0.48164 0.0
C1354 C 0.28849 0.99473 0.98801 0.0
C1355 C 0.32818 0.02595 0.98027 0.0
C1356 C 0.28183 0.97517 0.01251 0.0
C1357 C 0.31471 0.98576 0.0301 0.0
H1358 H 0.26244 0.98533 0.975 0.0
H1359 H 0.25072 0.95168 0.01771 0.0
S1360 S 0.42536 0.062 0.01753 0.0
N1361 N 0.40101 0.06448 0.99137 0.0
N1362 N 0.38914 0.02728 0.03664 0.0
C1363 C 0.35468 0.01629 0.02214 0.0
C1364 C 0.36123 0.03646 0.99749 0.0
C1365 C 0.27905 0.30303 0.49719 0.0
C1366 C 0.31064 0.32389 0.47866 0.0
C1367 C 0.28739 0.29235 0.52193 0.0
C1368 C 0.32759 0.30161 0.52901 0.0
H1369 H 0.24764 0.29489 0.49251 0.0
H1370 H 0.26223 0.27689 0.53568 0.0
S1371 S 0.42188 0.35835 0.4886 0.0
N1372 N 0.38438 0.35536 0.47005 0.0
N1373 N 0.39949 0.33424 0.5159 0.0
C1374 C 0.35935 0.32224 0.51068 0.0
C1375 C 0.35105 0.33359 0.48572 0.0
C1376 C 0.99142 0.33708 0.02916 0.0
C1377 C 0.02088 0.32623 0.0371 0.0
C1378 C 0.97158 0.32502 1.00487 0.0
C1379 C 0.98055 0.30187 0.98727 0.0
H1380 H 0.98434 0.35609 0.04156 0.0
H1381 H 0.95007 0.33516 0.99943 0.0
S1382 S 0.05136 0.26124 0.99939 0.0
N1383 N 0.0551 0.2876 0.02605 0.0
N1384 N 0.01861 0.26598 0.98004 0.0
C1385 C 0.00905 0.28982 0.99508 0.0
C1386 C 0.02902 0.30176 0.02002 0.0
C1387 C 0.66613 0.98205 0.52842 0.0
C1388 C 0.68938 0.02559 0.52874 0.0
C1389 C 0.65325 0.95971 0.50501 0.0
C1390 C 0.66389 0.97967 0.48063 0.0
H1391 H 0.65598 0.96492 0.5465 0.0
H1392 H 0.63283 0.92666 0.50621 0.0
S1393 S 0.73212 0.09232 0.47011 0.0
N1394 N 0.72659 0.08735 0.50202 0.0
N1395 N 0.70578 0.04508 0.45832 0.0
C1396 C 0.69088 0.02277 0.48058 0.0
C1397 C 0.70295 0.04574 0.50447 0.0
C1398 C 0.14321 0.03816 0.10348 0.0
C1399 C 0.15577 0.02262 0.1244 0.0
C1400 C 0.14697 0.0773 0.1049 0.0
C1401 C 0.16313 0.10183 0.12732 0.0
H1402 H 0.12719 0.01877 0.08692 0.0
H1403 H 0.13392 0.08678 0.08933 0.0
S1404 S 0.21044 0.08 0.18413 0.0
N1405 N 0.1929 0.03848 0.16567 0.0
N1406 N 0.19894 0.11149 0.16849 0.0
C1407 C 0.18011 0.08869 0.14692 0.0
C1408 C 0.17679 0.0492 0.14537 0.0
C1409 C 0.10304 0.12466 0.61538 0.0
C1410 C 0.12457 0.12608 0.63828 0.0
C1411 C 0.06818 0.1296 0.61622 0.0
C1412 C 0.05346 0.13593 0.64001 0.0
H1413 H 0.11153 0.11716 0.59687 0.0
H1414 H 0.05117 0.12575 0.59834 0.0
S1415 S 0.10349 0.15056 0.70466 0.0
N1416 N 0.1322 0.14078 0.68481 0.0
N1417 N 0.06661 0.14943 0.68635 0.0
C1418 C 0.07675 0.14096 0.66264 0.0
C1419 C 0.11233 0.13624 0.66178 0.0
C1420 C 0.94363 0.05457 0.10803 0.0
C1421 C 0.91789 0.0437 0.13004 0.0
C1422 C 0.98152 0.09201 0.10726 0.0
C1423 C 0.99464 0.11967 0.12846 0.0
H1424 H 0.93613 0.03267 0.09231 0.0
H1425 H 1.00196 0.09766 0.09091 0.0
S1426 S 0.93344 0.10936 0.18774 0.0
N1427 N 0.90469 0.06627 0.1714 0.0
N1428 N 0.9752 0.1366 0.16987 0.0
C1429 C 0.96689 0.11093 0.14921 0.0
C1430 C 0.9287 0.0729 0.15004 0.0
C1431 C 0.85978 0.95268 0.64513 0.0
C1432 C 0.87373 0.98038 0.62396 0.0
C1433 C 0.86391 0.91763 0.6452 0.0
C1434 C 0.8811 0.9082 0.62387 0.0
H1435 H 0.84835 0.95956 0.66269 0.0
H1436 H 0.8554 0.89879 0.66265 0.0
S1437 S 0.91517 0.96574 0.56163 0.0
N1438 N 0.90042 0.99266 0.57956 0.0
N1439 N 0.90705 0.92577 0.57964 0.0
C1440 C 0.89108 0.9329 0.60147 0.0
C1441 C 0.88754 0.96921 0.60149 0.0
C1442 C 0.90733 0.88985 0.13934 0.0
C1443 C 0.88758 0.87859 0.11496 0.0
C1444 C 0.94367 0.88906 0.14415 0.0
C1445 C 0.96189 0.87689 0.12479 0.0
H1446 H 0.89544 0.90043 0.15477 0.0
H1447 H 0.95801 0.89901 0.16313 0.0
S1448 S 0.9203 0.84036 0.05828 0.0
N1449 N 0.88734 0.85206 0.07165 0.0
N1450 N 0.95587 0.85045 0.08069 0.0
C1451 C 0.94177 0.8641 0.10052 0.0
C1452 C 0.9046 0.86497 0.09561 0.0
C1453 C 0.02788 0.8787 0.63287 0.0
C1454 C 0.01259 0.87182 0.60724 0.0
C1455 C 0.06526 0.91373 0.63936 0.0
C1456 C 0.0893 0.94317 0.62041 0.0
H1457 H 0.01077 0.85702 0.64823 0.0
H1458 H 0.075 0.91789 0.65956 0.0
S1459 S 0.06603 0.93677 0.54959 0.0
N1460 N 0.02621 0.89539 0.5622 0.0
N1461 N 0.09709 0.9611 0.5743 0.0
C1462 C 0.0756 0.93558 0.59434 0.0
C1463 C 0.03718 0.89989 0.58776 0.0
C1464 C 0.93238 0.87091 0.37124 0.0
C1465 C 0.91606 0.88322 0.39173 0.0
C1466 C 0.96574 0.86445 0.37523 0.0
C1467 C 0.98487 0.8709 0.39979 0.0
H1468 H 0.91978 0.867 0.35175 0.0
H1469 H 0.97781 0.85629 0.35851 0.0
S1470 S 0.95174 0.8999 0.46043 0.0
N1471 N 0.91938 0.89857 0.43797 0.0
N1472 N 0.98307 0.88755 0.44538 0.0
C1473 C 0.96777 0.88153 0.42074 0.0
C1474 C 0.93312 0.88735 0.41675 0.0
C1475 C 0.10739 0.98508 0.90356 0.0
C1476 C 0.13357 1.00081 0.88169 0.0
C1477 C 0.07291 0.94502 0.90347 0.0
C1478 C 0.06335 0.91948 0.88147 0.0
H1479 H 0.11192 0.00465 0.92021 0.0
H1480 H 0.05219 0.93509 0.92003 0.0
S1481 S 0.12692 0.94241 0.82174 0.0
N1482 N 0.15122 0.9849 0.83932 0.0
N1483 N 0.08626 0.9101 0.83908 0.0
C1484 C 0.09128 0.93343 0.86052 0.0
C1485 C 0.12647 0.97395 0.86067 0.0
C1486 C 0.13089 0.09971 0.36011 0.0
C1487 C 0.12783 0.11767 0.38349 0.0
C1488 C 0.1304 0.06214 0.36003 0.0
C1489 C 0.12762 0.04114 0.38332 0.0
H1490 H 0.13112 0.11336 0.34145 0.0
H1491 H 0.13058 0.04864 0.34141 0.0
S1492 S 0.12612 0.07803 0.45014 0.0
N1493 N 0.12698 0.11382 0.43088 0.0
N1494 N 0.1269 0.04337 0.43065 0.0
C1495 C 0.12835 0.06039 0.407 0.0
C1496 C 0.12828 0.0986 0.40711 0.0
C1497 C 0.07047 0.13791 0.90385 0.0
C1498 C 0.09272 0.1513 0.88034 0.0
C1499 C 0.02965 0.13002 0.90551 0.0
C1500 C 0.00995 0.1354 0.88371 0.0
H1501 H 0.08353 0.13069 0.92052 0.0
H1502 H 0.01259 0.11685 0.92334 0.0
S1503 S 0.05826 0.17915 0.81972 0.0
N1504 N 0.09453 0.17619 0.83633 0.0
N1505 N 0.01814 0.16173 0.83946 0.0
C1506 C 0.03338 0.15278 0.86101 0.0
C1507 C 0.07471 0.16062 0.85931 0.0
C1508 C 0.93864 0.07375 0.41564 0.0
C1509 C 0.9461 0.09078 0.39041 0.0
C1510 C 0.90336 0.0358 0.42108 0.0
C1511 C 0.87425 0.01362 0.40151 0.0
H1512 H 0.96102 0.08893 0.43109 0.0
H1513 H 0.89975 0.02311 0.44051 0.0
S1514 S 0.8756 0.0483 0.33359 0.0
N1515 N 0.91909 0.08488 0.34649 0.0
N1516 N 0.85223 0.01404 0.35695 0.0
C1517 C 0.87992 0.0316 0.37669 0.0
C1518 C 0.916 0.07006 0.37108 0.0
C1519 C 0.84536 0.87847 0.87803 0.0
C1520 C 0.87148 0.87655 0.897 0.0
C1521 C 0.83853 0.91179 0.87694 0.0
C1522 C 0.85749 0.94449 0.89483 0.0
H1523 H 0.83221 0.85542 0.86278 0.0
H1524 H 0.82014 0.91302 0.861 0.0
S1525 S 0.92214 0.95025 0.95139 0.0
N1526 N 0.91151 0.90701 0.93644 0.0
N1527 N 0.89843 0.96989 0.93449 0.0
C1528 C 0.88003 0.94081 0.91563 0.0
C1529 C 0.88706 0.90669 0.91671 0.0
loop_
_geom_bond_atom_site_label_1
_geom_bond_atom_site_label_2
_geom_bond_distance
_geom_bond_site_symmetry_2
_ccdc_geom_bond_type
Cd0 O57 2.350 . S
Cd0 O58 2.277 . S
Cd0 O65 2.173 . S
Cd0 O67 2.263 . S
Cd0 O69 2.366 . S
Cd0 O72 2.329 . S
C1 O65 1.277 . S
C1 O66 1.230 . S
C2 O3 1.246 . S
C2 C5 1.481 . S
C2 N27 1.329 . S
O3 C2 1.246 . S
Cd4 O66 2.250 . S
Cd4 O68 2.308 . S
Cd4 O71 2.352 . S
C5 C2 1.481 . S
C5 N8 1.327 . S
C5 C9 1.407 . S
C6 C7 1.346 . S
C6 C10 1.390 . S
C6 H74 0.930 . S
C7 C6 1.346 . S
C7 N8 1.342 . S
C7 C12 1.516 . S
N8 C5 1.327 . S
N8 C7 1.342 . S
N8 Co11 1.864 . S
C9 C5 1.407 . S
C9 C10 1.364 . S
C9 H75 0.930 . S
C10 C6 1.390 . S
C10 C9 1.364 . S
C10 H76 0.931 . S
Co11 N8 1.864 . S
Co11 N27 1.955 . S
Co11 N28 1.958 . S
Co11 N29 1.953 . S
Co11 N47 1.869 . S
Co11 N53 1.974 . S
C12 C7 1.516 . S
C12 O13 1.238 . S
C12 N28 1.324 . S
O13 C12 1.238 . S
C14 C15 1.394 . S
C14 C19 1.395 . S
C14 N28 1.427 . S
C15 C14 1.394 . S
C15 C16 1.380 . S
C15 H77 0.929 . S
C16 C15 1.380 . S
C16 C17 1.384 . S
C16 C20 1.495 . S
C17 C16 1.384 . S
C17 C18 1.382 . S
C17 H78 0.930 . S
C18 C17 1.382 . S
C18 C19 1.398 . S
C19 C14 1.395 . S
C19 C18 1.398 . S
C19 H79 0.930 . S
C20 C16 1.495 . S
C20 O67 1.258 . S
C20 O68 1.274 . S
C21 C22 1.385 . S
C21 C23 1.381 . S
C21 N27 1.432 . S
C22 C21 1.385 . S
C22 C26 1.388 . S
C22 H80 0.929 . S
C23 C21 1.381 . S
C23 C24 1.371 . S
C23 H81 0.932 . S
C24 C23 1.371 . S
C24 C25 1.400 . S
C25 C24 1.400 . S
C25 C26 1.351 . S
C25 H82 0.930 . S
C26 C22 1.388 . S
C26 C25 1.351 . S
N27 C2 1.329 . S
N27 Co11 1.955 . S
N27 C21 1.432 . S
N28 Co11 1.958 . S
N28 C12 1.324 . S
N28 C14 1.427 . S
N29 Co11 1.953 . S
N29 C30 1.436 . S
N29 C56 1.316 . S
C30 N29 1.436 . S
C30 C31 1.421 . S
C30 C32 1.360 . S
C31 C30 1.421 . S
C31 C33 1.379 . S
C31 H34 0.929 . S
C32 C30 1.360 . S
C32 C36 1.393 . S
C32 H38 0.931 . S
C33 C31 1.379 . S
C33 C35 1.417 . S
C33 C37 1.505 1_554 S
H34 C31 0.929 . S
C35 C33 1.417 . S
C35 C36 1.352 . S
C35 H39 0.929 . S
C36 C32 1.393 . S
C36 C35 1.352 . S
C36 C40 1.482 . S
C37 C33 1.505 1_556 S
C37 O41 1.259 . S
C37 O42 1.229 . S
H38 C32 0.931 . S
H39 C35 0.929 . S
C40 C36 1.482 . S
C40 O43 1.207 . S
C40 O44 1.289 . S
O41 C37 1.259 . S
O41 H45 0.822 . S
O42 C37 1.229 . S
O43 C40 1.207 . S
O44 C40 1.289 . S
O44 H46 0.819 . S
H45 O41 0.822 . S
H46 O44 0.819 . S
N47 Co11 1.869 . S
N47 C48 1.330 . S
N47 C52 1.325 . S
C48 N47 1.330 . S
C48 C49 1.359 . S
C48 C54 1.504 . S
C49 C48 1.359 . S
C49 C50 1.366 . S
C49 H83 0.929 . S
C50 C49 1.366 . S
C50 C51 1.415 . S
C50 H84 0.932 . S
C51 C50 1.415 . S
C51 C52 1.366 . S
C51 H85 0.931 . S
C52 N47 1.325 . S
C52 C51 1.366 . S
C52 C56 1.516 . S
N53 Co11 1.974 . S
N53 C54 1.309 . S
N53 C59 1.423 . S
C54 C48 1.504 . S
C54 N53 1.309 . S
C54 O55 1.258 . S
O55 C54 1.258 . S
C56 N29 1.316 . S
C56 C52 1.516 . S
C56 O69 1.263 . S
O57 Cd0 2.350 . S
O57 C73 1.270 . S
O58 Cd0 2.277 . S
O58 C73 1.248 . S
C59 N53 1.423 . S
C59 C60 1.370 . S
C59 C64 1.403 . S
C60 C59 1.370 . S
C60 C61 1.389 . S
C60 H86 0.931 . S
C61 C60 1.389 . S
C61 C62 1.389 . S
C62 C61 1.389 . S
C62 C63 1.379 . S
C62 H87 0.929 . S
C63 C62 1.379 . S
C63 C64 1.405 . S
C64 C59 1.403 . S
C64 C63 1.405 . S
C64 H88 0.932 . S
O65 Cd0 2.173 . S
O65 C1 1.277 . S
O66 C1 1.230 . S
O66 Cd4 2.250 . S
O67 Cd0 2.263 . S
O67 C20 1.258 . S
O68 Cd4 2.308 . S
O68 C20 1.274 . S
O69 Cd0 2.366 . S
O69 C56 1.263 . S
C70 O71 1.235 . S
C70 O72 1.270 . S
O71 Cd4 2.352 . S
O71 C70 1.235 . S
O72 Cd0 2.329 . S
O72 C70 1.270 . S
C73 O57 1.270 . S
C73 O58 1.248 . S
H74 C6 0.930 . S
H75 C9 0.930 . S
H76 C10 0.931 . S
H77 C15 0.929 . S
H78 C17 0.930 . S
H79 C19 0.930 . S
H80 C22 0.929 . S
H81 C23 0.932 . S
H82 C25 0.930 . S
H83 C49 0.929 . S
H84 C50 0.932 . S
H85 C51 0.931 . S
H86 C60 0.931 . S
H87 C62 0.929 . S
H88 C64 0.932 . S
Cd89 O146 2.350 . S
Cd89 O147 2.277 . S
Cd89 O154 2.173 . S
Cd89 O156 2.263 . S
Cd89 O158 2.366 . S
Cd89 O161 2.329 . S
C90 O154 1.277 . S
C90 O155 1.230 . S
C91 O92 1.246 . S
C91 C94 1.481 . S
C91 N116 1.329 . S
O92 C91 1.246 . S
Cd93 O155 2.250 . S
Cd93 O157 2.308 . S
Cd93 O160 2.352 1_655 S
C94 C91 1.481 . S
C94 N97 1.327 . S
C94 C98 1.407 . S
C95 C96 1.346 . S
C95 C99 1.390 . S
C95 H163 0.930 . S
C96 C95 1.346 . S
C96 N97 1.342 . S
C96 C101 1.516 . S
N97 C94 1.327 . S
N97 C96 1.342 . S
N97 Co100 1.864 . S
C98 C94 1.407 . S
C98 C99 1.364 . S
C98 H164 0.930 . S
C99 C95 1.390 . S
C99 C98 1.364 . S
C99 H165 0.931 . S
Co100 N97 1.864 . S
Co100 N116 1.955 . S
Co100 N117 1.958 . S
Co100 N118 1.953 . S
Co100 N136 1.869 . S
Co100 N142 1.974 . S
C101 C96 1.516 . S
C101 O102 1.238 . S
C101 N117 1.324 . S
O102 C101 1.238 . S
C103 C104 1.394 . S
C103 C108 1.395 . S
C103 N117 1.427 . S
C104 C103 1.394 . S
C104 C105 1.380 . S
C104 H166 0.929 . S
C105 C104 1.380 . S
C105 C106 1.384 . S
C105 C109 1.495 . S
C106 C105 1.384 . S
C106 C107 1.382 . S
C106 H167 0.930 . S
C107 C106 1.382 . S
C107 C108 1.398 . S
C108 C103 1.395 . S
C108 C107 1.398 . S
C108 H168 0.930 . S
C109 C105 1.495 . S
C109 O156 1.258 . S
C109 O157 1.274 . S
C110 C111 1.385 . S
C110 C112 1.381 . S
C110 N116 1.432 . S
C111 C110 1.385 . S
C111 C115 1.388 . S
C111 H169 0.929 . S
C112 C110 1.381 . S
C112 C113 1.371 . S
C112 H170 0.932 . S
C113 C112 1.371 . S
C113 C114 1.400 . S
C114 C113 1.400 . S
C114 C115 1.351 . S
C114 H171 0.930 . S
C115 C111 1.388 . S
C115 C114 1.351 . S
N116 C91 1.329 . S
N116 Co100 1.955 . S
N116 C110 1.432 . S
N117 Co100 1.958 . S
N117 C101 1.324 . S
N117 C103 1.427 . S
N118 Co100 1.953 . S
N118 C119 1.436 . S
N118 C145 1.316 . S
C119 N118 1.436 . S
C119 C120 1.421 . S
C119 C121 1.360 . S
C120 C119 1.421 . S
C120 C122 1.379 . S
C120 H123 0.929 . S
C121 C119 1.360 . S
C121 C125 1.393 . S
C121 H127 0.931 . S
C122 C120 1.379 . S
C122 C124 1.417 . S
C122 C126 1.505 . S
H123 C120 0.929 . S
C124 C122 1.417 . S
C124 C125 1.352 . S
C124 H128 0.929 . S
C125 C121 1.393 . S
C125 C124 1.352 . S
C125 C129 1.482 . S
C126 C122 1.505 . S
C126 O130 1.259 . S
C126 O131 1.229 . S
H127 C121 0.931 . S
H128 C124 0.929 . S
C129 C125 1.482 . S
C129 O132 1.207 . S
C129 O133 1.289 . S
O130 C126 1.259 . S
O130 H134 0.822 . S
O131 C126 1.229 . S
O132 C129 1.207 . S
O133 C129 1.289 . S
O133 H135 0.819 . S
H134 O130 0.822 . S
H135 O133 0.819 . S
N136 Co100 1.869 . S
N136 C137 1.330 . S
N136 C141 1.325 . S
C137 N136 1.330 . S
C137 C138 1.359 . S
C137 C143 1.504 . S
C138 C137 1.359 . S
C138 C139 1.366 . S
C138 H172 0.929 . S
C139 C138 1.366 . S
C139 C140 1.415 . S
C139 H173 0.932 . S
C140 C139 1.415 . S
C140 C141 1.366 . S
C140 H174 0.931 . S
C141 N136 1.325 . S
C141 C140 1.366 . S
C141 C145 1.516 . S
N142 Co100 1.974 . S
N142 C143 1.309 . S
N142 C148 1.423 . S
C143 C137 1.504 . S
C143 N142 1.309 . S
C143 O144 1.258 . S
O144 C143 1.258 . S
C145 N118 1.316 . S
C145 C141 1.516 . S
C145 O158 1.263 . S
O146 Cd89 2.350 . S
O146 C162 1.270 . S
O147 Cd89 2.277 . S
O147 C162 1.248 . S
C148 N142 1.423 . S
C148 C149 1.370 . S
C148 C153 1.403 . S
C149 C148 1.370 . S
C149 C150 1.389 . S
C149 H175 0.931 . S
C150 C149 1.389 . S
C150 C151 1.389 . S
C151 C150 1.389 . S
C151 C152 1.379 . S
C151 H176 0.929 . S
C152 C151 1.379 . S
C152 C153 1.405 . S
C153 C148 1.403 . S
C153 C152 1.405 . S
C153 H177 0.932 . S
O154 Cd89 2.173 . S
O154 C90 1.277 . S
O155 C90 1.230 . S
O155 Cd93 2.250 . S
O156 Cd89 2.263 . S
O156 C109 1.258 . S
O157 Cd93 2.308 . S
O157 C109 1.274 . S
O158 Cd89 2.366 . S
O158 C145 1.263 . S
C159 O160 1.235 . S
C159 O161 1.270 1_455 S
O160 Cd93 2.352 1_455 S
O160 C159 1.235 . S
O161 Cd89 2.329 . S
O161 C159 1.270 1_655 S
C162 O146 1.270 . S
C162 O147 1.248 . S
H163 C95 0.930 . S
H164 C98 0.930 . S
H165 C99 0.931 . S
H166 C104 0.929 . S
H167 C106 0.930 . S
H168 C108 0.930 . S
H169 C111 0.929 . S
H170 C112 0.932 . S
H171 C114 0.930 . S
H172 C138 0.929 . S
H173 C139 0.932 . S
H174 C140 0.931 . S
H175 C149 0.931 . S
H176 C151 0.929 . S
H177 C153 0.932 . S
Cd178 O235 2.350 . S
Cd178 O236 2.277 . S
Cd178 O243 2.173 . S
Cd178 O245 2.263 . S
Cd178 O247 2.366 . S
Cd178 O250 2.329 . S
C179 O243 1.277 . S
C179 O244 1.230 . S
C180 O181 1.246 . S
C180 C183 1.481 . S
C180 N205 1.329 . S
O181 C180 1.246 . S
Cd182 O244 2.250 . S
Cd182 O246 2.308 . S
Cd182 O249 2.352 1_565 S
C183 C180 1.481 . S
C183 N186 1.327 . S
C183 C187 1.407 . S
C184 C185 1.346 . S
C184 C188 1.390 . S
C184 H252 0.930 . S
C185 C184 1.346 . S
C185 N186 1.342 . S
C185 C190 1.516 . S
N186 C183 1.327 . S
N186 C185 1.342 . S
N186 Co189 1.864 . S
C187 C183 1.407 . S
C187 C188 1.364 . S
C187 H253 0.930 . S
C188 C184 1.390 . S
C188 C187 1.364 . S
C188 H254 0.931 . S
Co189 N186 1.864 . S
Co189 N205 1.955 . S
Co189 N206 1.958 . S
Co189 N207 1.953 . S
Co189 N225 1.869 . S
Co189 N231 1.974 . S
C190 C185 1.516 . S
C190 O191 1.238 . S
C190 N206 1.324 . S
O191 C190 1.238 . S
C192 C193 1.394 . S
C192 C197 1.395 . S
C192 N206 1.427 . S
C193 C192 1.394 . S
C193 C194 1.380 . S
C193 H255 0.929 . S
C194 C193 1.380 . S
C194 C195 1.384 . S
C194 C198 1.495 . S
C195 C194 1.384 . S
C195 C196 1.382 . S
C195 H256 0.930 . S
C196 C195 1.382 . S
C196 C197 1.398 . S
C197 C192 1.395 . S
C197 C196 1.398 . S
C197 H257 0.930 . S
C198 C194 1.495 . S
C198 O245 1.258 . S
C198 O246 1.274 . S
C199 C200 1.385 . S
C199 C201 1.381 . S
C199 N205 1.432 . S
C200 C199 1.385 . S
C200 C204 1.388 . S
C200 H258 0.929 . S
C201 C199 1.381 . S
C201 C202 1.371 . S
C201 H259 0.932 . S
C202 C201 1.371 . S
C202 C203 1.400 . S
C203 C202 1.400 . S
C203 C204 1.351 . S
C203 H260 0.930 . S
C204 C200 1.388 . S
C204 C203 1.351 . S
N205 C180 1.329 . S
N205 Co189 1.955 . S
N205 C199 1.432 . S
N206 Co189 1.958 . S
N206 C190 1.324 . S
N206 C192 1.427 . S
N207 Co189 1.953 . S
N207 C208 1.436 . S
N207 C234 1.316 . S
C208 N207 1.436 . S
C208 C209 1.421 . S
C208 C210 1.360 . S
C209 C208 1.421 . S
C209 C211 1.379 . S
C209 H212 0.929 . S
C210 C208 1.360 . S
C210 C214 1.393 . S
C210 H216 0.931 . S
C211 C209 1.379 . S
C211 C213 1.417 . S
C211 C215 1.505 1_554 S
H212 C209 0.929 . S
C213 C211 1.417 . S
C213 C214 1.352 . S
C213 H217 0.929 . S
C214 C210 1.393 . S
C214 C213 1.352 . S
C214 C218 1.482 . S
C215 C211 1.505 1_556 S
C215 O219 1.259 . S
C215 O220 1.229 . S
H216 C210 0.931 . S
H217 C213 0.929 . S
C218 C214 1.482 . S
C218 O221 1.207 . S
C218 O222 1.289 . S
O219 C215 1.259 . S
O219 H223 0.822 . S
O220 C215 1.229 . S
O221 C218 1.207 . S
O222 C218 1.289 . S
O222 H224 0.819 . S
H223 O219 0.822 . S
H224 O222 0.819 . S
N225 Co189 1.869 . S
N225 C226 1.330 . S
N225 C230 1.325 . S
C226 N225 1.330 . S
C226 C227 1.359 . S
C226 C232 1.504 . S
C227 C226 1.359 . S
C227 C228 1.366 . S
C227 H261 0.929 . S
C228 C227 1.366 . S
C228 C229 1.415 . S
C228 H262 0.932 . S
C229 C228 1.415 . S
C229 C230 1.366 . S
C229 H263 0.931 . S
C230 N225 1.325 . S
C230 C229 1.366 . S
C230 C234 1.516 . S
N231 Co189 1.974 . S
N231 C232 1.309 . S
N231 C237 1.423 . S
C232 C226 1.504 . S
C232 N231 1.309 . S
C232 O233 1.258 . S
O233 C232 1.258 . S
C234 N207 1.316 . S
C234 C230 1.516 . S
C234 O247 1.263 . S
O235 Cd178 2.350 . S
O235 C251 1.270 . S
O236 Cd178 2.277 . S
O236 C251 1.248 . S
C237 N231 1.423 . S
C237 C238 1.370 . S
C237 C242 1.403 . S
C238 C237 1.370 . S
C238 C239 1.389 . S
C238 H264 0.931 . S
C239 C238 1.389 . S
C239 C240 1.389 . S
C240 C239 1.389 . S
C240 C241 1.379 . S
C240 H265 0.929 . S
C241 C240 1.379 . S
C241 C242 1.405 . S
C242 C237 1.403 . S
C242 C241 1.405 . S
C242 H266 0.932 . S
O243 Cd178 2.173 . S
O243 C179 1.277 . S
O244 C179 1.230 . S
O244 Cd182 2.250 . S
O245 Cd178 2.263 . S
O245 C198 1.258 . S
O246 Cd182 2.308 . S
O246 C198 1.274 . S
O247 Cd178 2.366 . S
O247 C234 1.263 . S
C248 O249 1.235 . S
C248 O250 1.270 1_545 S
O249 Cd182 2.352 1_545 S
O249 C248 1.235 . S
O250 Cd178 2.329 . S
O250 C248 1.270 1_565 S
C251 O235 1.270 . S
C251 O236 1.248 . S
H252 C184 0.930 . S
H253 C187 0.930 . S
H254 C188 0.931 . S
H255 C193 0.929 . S
H256 C195 0.930 . S
H257 C197 0.930 . S
H258 C200 0.929 . S
H259 C201 0.932 . S
H260 C203 0.930 . S
H261 C227 0.929 . S
H262 C228 0.932 . S
H263 C229 0.931 . S
H264 C238 0.931 . S
H265 C240 0.929 . S
H266 C242 0.932 . S
Cd267 O324 2.350 . S
Cd267 O325 2.277 . S
Cd267 O332 2.173 . S
Cd267 O334 2.263 . S
Cd267 O336 2.366 . S
Cd267 O339 2.329 . S
C268 O332 1.277 . S
C268 O333 1.230 . S
C269 O270 1.246 . S
C269 C272 1.481 . S
C269 N294 1.329 . S
O270 C269 1.246 . S
Cd271 O333 2.250 . S
Cd271 O335 2.308 . S
Cd271 O338 2.352 . S
C272 C269 1.481 . S
C272 N275 1.327 . S
C272 C276 1.407 . S
C273 C274 1.346 . S
C273 C277 1.390 . S
C273 H341 0.930 . S
C274 C273 1.346 . S
C274 N275 1.342 . S
C274 C279 1.516 . S
N275 C272 1.327 . S
N275 C274 1.342 . S
N275 Co278 1.864 . S
C276 C272 1.407 . S
C276 C277 1.364 . S
C276 H342 0.930 . S
C277 C273 1.390 . S
C277 C276 1.364 . S
C277 H343 0.931 . S
Co278 N275 1.864 . S
Co278 N294 1.955 . S
Co278 N295 1.958 . S
Co278 N296 1.953 . S
Co278 N314 1.869 . S
Co278 N320 1.974 . S
C279 C274 1.516 . S
C279 O280 1.238 . S
C279 N295 1.324 . S
O280 C279 1.238 . S
C281 C282 1.394 . S
C281 C286 1.395 . S
C281 N295 1.427 . S
C282 C281 1.394 . S
C282 C283 1.380 . S
C282 H344 0.929 . S
C283 C282 1.380 . S
C283 C284 1.384 . S
C283 C287 1.495 . S
C284 C283 1.384 . S
C284 C285 1.382 . S
C284 H345 0.930 . S
C285 C284 1.382 . S
C285 C286 1.398 . S
C286 C281 1.395 . S
C286 C285 1.398 . S
C286 H346 0.930 . S
C287 C283 1.495 . S
C287 O334 1.258 . S
C287 O335 1.274 . S
C288 C289 1.385 . S
C288 C290 1.381 . S
C288 N294 1.432 . S
C289 C288 1.385 . S
C289 C293 1.388 . S
C289 H347 0.929 . S
C290 C288 1.381 . S
C290 C291 1.371 . S
C290 H348 0.932 . S
C291 C290 1.371 . S
C291 C292 1.400 . S
C292 C291 1.400 . S
C292 C293 1.351 . S
C292 H349 0.930 . S
C293 C289 1.388 . S
C293 C292 1.351 . S
N294 C269 1.329 . S
N294 Co278 1.955 . S
N294 C288 1.432 . S
N295 Co278 1.958 . S
N295 C279 1.324 . S
N295 C281 1.427 . S
N296 Co278 1.953 . S
N296 C297 1.436 . S
N296 C323 1.316 . S
C297 N296 1.436 . S
C297 C298 1.421 . S
C297 C299 1.360 . S
C298 C297 1.421 . S
C298 C300 1.379 . S
C298 H301 0.929 . S
C299 C297 1.360 . S
C299 C303 1.393 . S
C299 H305 0.931 . S
C300 C298 1.379 . S
C300 C302 1.417 . S
C300 C304 1.505 . S
H301 C298 0.929 . S
C302 C300 1.417 . S
C302 C303 1.352 . S
C302 H306 0.929 . S
C303 C299 1.393 . S
C303 C302 1.352 . S
C303 C307 1.482 . S
C304 C300 1.505 . S
C304 O308 1.259 . S
C304 O309 1.229 . S
H305 C299 0.931 . S
H306 C302 0.929 . S
C307 C303 1.482 . S
C307 O310 1.207 . S
C307 O311 1.289 . S
O308 C304 1.259 . S
O308 H312 0.822 . S
O309 C304 1.229 . S
O310 C307 1.207 . S
O311 C307 1.289 . S
O311 H313 0.819 . S
H312 O308 0.822 . S
H313 O311 0.819 . S
N314 Co278 1.869 . S
N314 C315 1.330 . S
N314 C319 1.325 . S
C315 N314 1.330 . S
C315 C316 1.359 . S
C315 C321 1.504 . S
C316 C315 1.359 . S
C316 C317 1.366 . S
C316 H350 0.929 . S
C317 C316 1.366 . S
C317 C318 1.415 . S
C317 H351 0.932 . S
C318 C317 1.415 . S
C318 C319 1.366 . S
C318 H352 0.931 . S
C319 N314 1.325 . S
C319 C318 1.366 . S
C319 C323 1.516 . S
N320 Co278 1.974 . S
N320 C321 1.309 . S
N320 C326 1.423 . S
C321 C315 1.504 . S
C321 N320 1.309 . S
C321 O322 1.258 . S
O322 C321 1.258 . S
C323 N296 1.316 . S
C323 C319 1.516 . S
C323 O336 1.263 . S
O324 Cd267 2.350 . S
O324 C340 1.270 . S
O325 Cd267 2.277 . S
O325 C340 1.248 . S
C326 N320 1.423 . S
C326 C327 1.370 . S
C326 C331 1.403 . S
C327 C326 1.370 . S
C327 C328 1.389 . S
C327 H353 0.931 . S
C328 C327 1.389 . S
C328 C329 1.389 . S
C329 C328 1.389 . S
C329 C330 1.379 . S
C329 H354 0.929 . S
C330 C329 1.379 . S
C330 C331 1.405 . S
C331 C326 1.403 . S
C331 C330 1.405 . S
C331 H355 0.932 . S
O332 Cd267 2.173 . S
O332 C268 1.277 . S
O333 C268 1.230 . S
O333 Cd271 2.250 . S
O334 Cd267 2.263 . S
O334 C287 1.258 . S
O335 Cd271 2.308 . S
O335 C287 1.274 . S
O336 Cd267 2.366 . S
O336 C323 1.263 . S
C337 O338 1.235 . S
C337 O339 1.270 . S
O338 Cd271 2.352 . S
O338 C337 1.235 . S
O339 Cd267 2.329 . S
O339 C337 1.270 . S
C340 O324 1.270 . S
C340 O325 1.248 . S
H341 C273 0.930 . S
H342 C276 0.930 . S
H343 C277 0.931 . S
H344 C282 0.929 . S
H345 C284 0.930 . S
H346 C286 0.930 . S
H347 C289 0.929 . S
H348 C290 0.932 . S
H349 C292 0.930 . S
H350 C316 0.929 . S
H351 C317 0.932 . S
H352 C318 0.931 . S
H353 C327 0.931 . S
H354 C329 0.929 . S
H355 C331 0.932 . S
Cd356 O413 2.350 . S
Cd356 O414 2.277 . S
Cd356 O421 2.173 . S
Cd356 O423 2.263 . S
Cd356 O425 2.366 . S
Cd356 O428 2.329 . S
C357 O421 1.277 . S
C357 O422 1.230 . S
C358 O359 1.246 . S
C358 C361 1.481 . S
C358 N383 1.329 . S
O359 C358 1.246 . S
Cd360 O422 2.250 . S
Cd360 O424 2.308 . S
Cd360 O427 2.352 1_455 S
C361 C358 1.481 . S
C361 N364 1.327 . S
C361 C365 1.407 . S
C362 C363 1.346 . S
C362 C366 1.390 . S
C362 H430 0.930 . S
C363 C362 1.346 . S
C363 N364 1.342 . S
C363 C368 1.516 . S
N364 C361 1.327 . S
N364 C363 1.342 . S
N364 Co367 1.864 . S
C365 C361 1.407 . S
C365 C366 1.364 . S
C365 H431 0.930 . S
C366 C362 1.390 . S
C366 C365 1.364 . S
C366 H432 0.931 . S
Co367 N364 1.864 . S
Co367 N383 1.955 . S
Co367 N384 1.958 . S
Co367 N385 1.953 . S
Co367 N403 1.869 . S
Co367 N409 1.974 . S
C368 C363 1.516 . S
C368 O369 1.238 . S
C368 N384 1.324 . S
O369 C368 1.238 . S
C370 C371 1.394 . S
C370 C375 1.395 . S
C370 N384 1.427 . S
C371 C370 1.394 . S
C371 C372 1.380 . S
C371 H433 0.929 . S
C372 C371 1.380 . S
C372 C373 1.384 . S
C372 C376 1.495 . S
C373 C372 1.384 . S
C373 C374 1.382 . S
C373 H434 0.930 . S
C374 C373 1.382 . S
C374 C375 1.398 . S
C375 C370 1.395 . S
C375 C374 1.398 . S
C375 H435 0.930 . S
C376 C372 1.495 . S
C376 O423 1.258 . S
C376 O424 1.274 . S
C377 C378 1.385 . S
C377 C379 1.381 . S
C377 N383 1.432 . S
C378 C377 1.385 . S
C378 C382 1.388 . S
C378 H436 0.929 . S
C379 C377 1.381 . S
C379 C380 1.371 . S
C379 H437 0.932 . S
C380 C379 1.371 . S
C380 C381 1.400 . S
C381 C380 1.400 . S
C381 C382 1.351 . S
C381 H438 0.930 . S
C382 C378 1.388 . S
C382 C381 1.351 . S
N383 C358 1.329 . S
N383 Co367 1.955 . S
N383 C377 1.432 . S
N384 Co367 1.958 . S
N384 C368 1.324 . S
N384 C370 1.427 . S
N385 Co367 1.953 . S
N385 C386 1.436 . S
N385 C412 1.316 . S
C386 N385 1.436 . S
C386 C387 1.421 . S
C386 C388 1.360 . S
C387 C386 1.421 . S
C387 C389 1.379 . S
C387 H390 0.929 . S
C388 C386 1.360 . S
C388 C392 1.393 . S
C388 H394 0.931 . S
C389 C387 1.379 . S
C389 C391 1.417 . S
C389 C393 1.505 1_554 S
H390 C387 0.929 . S
C391 C389 1.417 . S
C391 C392 1.352 . S
C391 H395 0.929 . S
C392 C388 1.393 . S
C392 C391 1.352 . S
C392 C396 1.482 . S
C393 C389 1.505 1_556 S
C393 O397 1.259 . S
C393 O398 1.229 . S
H394 C388 0.931 . S
H395 C391 0.929 . S
C396 C392 1.482 . S
C396 O399 1.207 . S
C396 O400 1.289 . S
O397 C393 1.259 . S
O397 H401 0.822 . S
O398 C393 1.229 . S
O399 C396 1.207 . S
O400 C396 1.289 . S
O400 H402 0.819 . S
H401 O397 0.822 . S
H402 O400 0.819 . S
N403 Co367 1.869 . S
N403 C404 1.330 . S
N403 C408 1.325 . S
C404 N403 1.330 . S
C404 C405 1.359 . S
C404 C410 1.504 . S
C405 C404 1.359 . S
C405 C406 1.366 . S
C405 H439 0.929 . S
C406 C405 1.366 . S
C406 C407 1.415 . S
C406 H440 0.932 . S
C407 C406 1.415 . S
C407 C408 1.366 . S
C407 H441 0.931 . S
C408 N403 1.325 . S
C408 C407 1.366 . S
C408 C412 1.516 . S
N409 Co367 1.974 . S
N409 C410 1.309 . S
N409 C415 1.423 . S
C410 C404 1.504 . S
C410 N409 1.309 . S
C410 O411 1.258 . S
O411 C410 1.258 . S
C412 N385 1.316 . S
C412 C408 1.516 . S
C412 O425 1.263 . S
O413 Cd356 2.350 . S
O413 C429 1.270 . S
O414 Cd356 2.277 . S
O414 C429 1.248 . S
C415 N409 1.423 . S
C415 C416 1.370 . S
C415 C420 1.403 . S
C416 C415 1.370 . S
C416 C417 1.389 . S
C416 H442 0.931 . S
C417 C416 1.389 . S
C417 C418 1.389 . S
C418 C417 1.389 . S
C418 C419 1.379 . S
C418 H443 0.929 . S
C419 C418 1.379 . S
C419 C420 1.405 . S
C420 C415 1.403 . S
C420 C419 1.405 . S
C420 H444 0.932 . S
O421 Cd356 2.173 . S
O421 C357 1.277 . S
O422 C357 1.230 . S
O422 Cd360 2.250 . S
O423 Cd356 2.263 . S
O423 C376 1.258 . S
O424 Cd360 2.308 . S
O424 C376 1.274 . S
O425 Cd356 2.366 . S
O425 C412 1.263 . S
C426 O427 1.235 . S
C426 O428 1.270 1_655 S
O427 Cd360 2.352 1_655 S
O427 C426 1.235 . S
O428 Cd356 2.329 . S
O428 C426 1.270 1_455 S
C429 O413 1.270 . S
C429 O414 1.248 . S
H430 C362 0.930 . S
H431 C365 0.930 . S
H432 C366 0.931 . S
H433 C371 0.929 . S
H434 C373 0.930 . S
H435 C375 0.930 . S
H436 C378 0.929 . S
H437 C379 0.932 . S
H438 C381 0.930 . S
H439 C405 0.929 . S
H440 C406 0.932 . S
H441 C407 0.931 . S
H442 C416 0.931 . S
H443 C418 0.929 . S
H444 C420 0.932 . S
Cd445 O502 2.350 . S
Cd445 O503 2.277 . S
Cd445 O510 2.173 . S
Cd445 O512 2.263 . S
Cd445 O514 2.366 . S
Cd445 O517 2.329 . S
C446 O510 1.277 . S
C446 O511 1.230 . S
C447 O448 1.246 . S
C447 C450 1.481 . S
C447 N472 1.329 . S
O448 C447 1.246 . S
Cd449 O511 2.250 . S
Cd449 O513 2.308 . S
Cd449 O516 2.352 1_545 S
C450 C447 1.481 . S
C450 N453 1.327 . S
C450 C454 1.407 . S
C451 C452 1.346 . S
C451 C455 1.390 . S
C451 H519 0.930 . S
C452 C451 1.346 . S
C452 N453 1.342 . S
C452 C457 1.516 . S
N453 C450 1.327 . S
N453 C452 1.342 . S
N453 Co456 1.864 . S
C454 C450 1.407 . S
C454 C455 1.364 . S
C454 H520 0.930 . S
C455 C451 1.390 . S
C455 C454 1.364 . S
C455 H521 0.931 . S
Co456 N453 1.864 . S
Co456 N472 1.955 . S
Co456 N473 1.958 . S
Co456 N474 1.953 . S
Co456 N492 1.869 . S
Co456 N498 1.974 . S
C457 C452 1.516 . S
C457 O458 1.238 . S
C457 N473 1.324 . S
O458 C457 1.238 . S
C459 C460 1.394 . S
C459 C464 1.395 . S
C459 N473 1.427 . S
C460 C459 1.394 . S
C460 C461 1.380 . S
C460 H522 0.929 . S
C461 C460 1.380 . S
C461 C462 1.384 . S
C461 C465 1.495 . S
C462 C461 1.384 . S
C462 C463 1.382 . S
C462 H523 0.930 . S
C463 C462 1.382 . S
C463 C464 1.398 . S
C464 C459 1.395 . S
C464 C463 1.398 . S
C464 H524 0.930 . S
C465 C461 1.495 . S
C465 O512 1.258 . S
C465 O513 1.274 . S
C466 C467 1.385 . S
C466 C468 1.381 . S
C466 N472 1.432 . S
C467 C466 1.385 . S
C467 C471 1.388 . S
C467 H525 0.929 . S
C468 C466 1.381 . S
C468 C469 1.371 . S
C468 H526 0.932 . S
C469 C468 1.371 . S
C469 C470 1.400 . S
C470 C469 1.400 . S
C470 C471 1.351 . S
C470 H527 0.930 . S
C471 C467 1.388 . S
C471 C470 1.351 . S
N472 C447 1.329 . S
N472 Co456 1.955 . S
N472 C466 1.432 . S
N473 Co456 1.958 . S
N473 C457 1.324 . S
N473 C459 1.427 . S
N474 Co456 1.953 . S
N474 C475 1.436 . S
N474 C501 1.316 . S
C475 N474 1.436 . S
C475 C476 1.421 . S
C475 C477 1.360 . S
C476 C475 1.421 . S
C476 C478 1.379 . S
C476 H479 0.929 . S
C477 C475 1.360 . S
C477 C481 1.393 . S
C477 H483 0.931 . S
C478 C476 1.379 . S
C478 C480 1.417 . S
C478 C482 1.505 . S
H479 C476 0.929 . S
C480 C478 1.417 . S
C480 C481 1.352 . S
C480 H484 0.929 . S
C481 C477 1.393 . S
C481 C480 1.352 . S
C481 C485 1.482 . S
C482 C478 1.505 . S
C482 O486 1.259 . S
C482 O487 1.229 . S
H483 C477 0.931 . S
H484 C480 0.929 . S
C485 C481 1.482 . S
C485 O488 1.207 . S
C485 O489 1.289 . S
O486 C482 1.259 . S
O486 H490 0.822 . S
O487 C482 1.229 . S
O488 C485 1.207 . S
O489 C485 1.289 . S
O489 H491 0.819 . S
H490 O486 0.822 . S
H491 O489 0.819 . S
N492 Co456 1.869 . S
N492 C493 1.330 . S
N492 C497 1.325 . S
C493 N492 1.330 . S
C493 C494 1.359 . S
C493 C499 1.504 . S
C494 C493 1.359 . S
C494 C495 1.366 . S
C494 H528 0.929 . S
C495 C494 1.366 . S
C495 C496 1.415 . S
C495 H529 0.932 . S
C496 C495 1.415 . S
C496 C497 1.366 . S
C496 H530 0.931 . S
C497 N492 1.325 . S
C497 C496 1.366 . S
C497 C501 1.516 . S
N498 Co456 1.974 . S
N498 C499 1.309 . S
N498 C504 1.423 . S
C499 C493 1.504 . S
C499 N498 1.309 . S
C499 O500 1.258 . S
O500 C499 1.258 . S
C501 N474 1.316 . S
C501 C497 1.516 . S
C501 O514 1.263 . S
O502 Cd445 2.350 . S
O502 C518 1.270 . S
O503 Cd445 2.277 . S
O503 C518 1.248 . S
C504 N498 1.423 . S
C504 C505 1.370 . S
C504 C509 1.403 . S
C505 C504 1.370 . S
C505 C506 1.389 . S
C505 H531 0.931 . S
C506 C505 1.389 . S
C506 C507 1.389 . S
C507 C506 1.389 . S
C507 C508 1.379 . S
C507 H532 0.929 . S
C508 C507 1.379 . S
C508 C509 1.405 . S
C509 C504 1.403 . S
C509 C508 1.405 . S
C509 H533 0.932 . S
O510 Cd445 2.173 . S
O510 C446 1.277 . S
O511 C446 1.230 . S
O511 Cd449 2.250 . S
O512 Cd445 2.263 . S
O512 C465 1.258 . S
O513 Cd449 2.308 . S
O513 C465 1.274 . S
O514 Cd445 2.366 . S
O514 C501 1.263 . S
C515 O516 1.235 . S
C515 O517 1.270 1_565 S
O516 Cd449 2.352 1_565 S
O516 C515 1.235 . S
O517 Cd445 2.329 . S
O517 C515 1.270 1_545 S
C518 O502 1.270 . S
C518 O503 1.248 . S
H519 C451 0.930 . S
H520 C454 0.930 . S
H521 C455 0.931 . S
H522 C460 0.929 . S
H523 C462 0.930 . S
H524 C464 0.930 . S
H525 C467 0.929 . S
H526 C468 0.932 . S
H527 C470 0.930 . S
H528 C494 0.929 . S
H529 C495 0.932 . S
H530 C496 0.931 . S
H531 C505 0.931 . S
H532 C507 0.929 . S
H533 C509 0.932 . S
Cd534 O591 2.350 . S
Cd534 O592 2.277 . S
Cd534 O599 2.173 . S
Cd534 O601 2.263 . S
Cd534 O603 2.366 . S
Cd534 O606 2.329 . S
C535 O599 1.277 . S
C535 O600 1.230 . S
C536 O537 1.246 . S
C536 C539 1.481 . S
C536 N561 1.329 . S
O537 C536 1.246 . S
Cd538 O600 2.250 . S
Cd538 O602 2.308 . S
Cd538 O605 2.352 . S
C539 C536 1.481 . S
C539 N542 1.327 . S
C539 C543 1.407 . S
C540 C541 1.346 . S
C540 C544 1.390 . S
C540 H608 0.930 . S
C541 C540 1.346 . S
C541 N542 1.342 . S
C541 C546 1.516 . S
N542 C539 1.327 . S
N542 C541 1.342 . S
N542 Co545 1.864 . S
C543 C539 1.407 . S
C543 C544 1.364 . S
C543 H609 0.930 . S
C544 C540 1.390 . S
C544 C543 1.364 . S
C544 H610 0.931 . S
Co545 N542 1.864 . S
Co545 N561 1.955 . S
Co545 N562 1.958 . S
Co545 N563 1.953 . S
Co545 N581 1.869 . S
Co545 N587 1.974 . S
C546 C541 1.516 . S
C546 O547 1.238 . S
C546 N562 1.324 . S
O547 C546 1.238 . S
C548 C549 1.394 . S
C548 C553 1.395 . S
C548 N562 1.427 . S
C549 C548 1.394 . S
C549 C550 1.380 . S
C549 H611 0.929 . S
C550 C549 1.380 . S
C550 C551 1.384 . S
C550 C554 1.495 . S
C551 C550 1.384 . S
C551 C552 1.382 . S
C551 H612 0.930 . S
C552 C551 1.382 . S
C552 C553 1.398 . S
C553 C548 1.395 . S
C553 C552 1.398 . S
C553 H613 0.930 . S
C554 C550 1.495 . S
C554 O601 1.258 . S
C554 O602 1.274 . S
C555 C556 1.385 . S
C555 C557 1.381 . S
C555 N561 1.432 . S
C556 C555 1.385 . S
C556 C560 1.388 . S
C556 H614 0.929 . S
C557 C555 1.381 . S
C557 C558 1.371 . S
C557 H615 0.932 . S
C558 C557 1.371 . S
C558 C559 1.400 . S
C559 C558 1.400 . S
C559 C560 1.351 . S
C559 H616 0.930 . S
C560 C556 1.388 . S
C560 C559 1.351 . S
N561 C536 1.329 . S
N561 Co545 1.955 . S
N561 C555 1.432 . S
N562 Co545 1.958 . S
N562 C546 1.324 . S
N562 C548 1.427 . S
N563 Co545 1.953 . S
N563 C564 1.436 . S
N563 C590 1.316 . S
C564 N563 1.436 . S
C564 C565 1.421 . S
C564 C566 1.360 . S
C565 C564 1.421 . S
C565 C567 1.379 . S
C565 H568 0.929 . S
C566 C564 1.360 . S
C566 C570 1.393 . S
C566 H572 0.931 . S
C567 C565 1.379 . S
C567 C569 1.417 . S
C567 C571 1.505 . S
H568 C565 0.929 . S
C569 C567 1.417 . S
C569 C570 1.352 . S
C569 H573 0.929 . S
C570 C566 1.393 . S
C570 C569 1.352 . S
C570 C574 1.482 . S
C571 C567 1.505 . S
C571 O575 1.259 . S
C571 O576 1.229 . S
H572 C566 0.931 . S
H573 C569 0.929 . S
C574 C570 1.482 . S
C574 O577 1.207 . S
C574 O578 1.289 . S
O575 C571 1.259 . S
O575 H579 0.822 . S
O576 C571 1.229 . S
O577 C574 1.207 . S
O578 C574 1.289 . S
O578 H580 0.819 . S
H579 O575 0.822 . S
H580 O578 0.819 . S
N581 Co545 1.869 . S
N581 C582 1.330 . S
N581 C586 1.325 . S
C582 N581 1.330 . S
C582 C583 1.359 . S
C582 C588 1.504 . S
C583 C582 1.359 . S
C583 C584 1.366 . S
C583 H617 0.929 . S
C584 C583 1.366 . S
C584 C585 1.415 . S
C584 H618 0.932 . S
C585 C584 1.415 . S
C585 C586 1.366 . S
C585 H619 0.931 . S
C586 N581 1.325 . S
C586 C585 1.366 . S
C586 C590 1.516 . S
N587 Co545 1.974 . S
N587 C588 1.309 . S
N587 C593 1.423 . S
C588 C582 1.504 . S
C588 N587 1.309 . S
C588 O589 1.258 . S
O589 C588 1.258 . S
C590 N563 1.316 . S
C590 C586 1.516 . S
C590 O603 1.263 . S
O591 Cd534 2.350 . S
O591 C607 1.270 . S
O592 Cd534 2.277 . S
O592 C607 1.248 . S
C593 N587 1.423 . S
C593 C594 1.370 . S
C593 C598 1.403 . S
C594 C593 1.370 . S
C594 C595 1.389 . S
C594 H620 0.931 . S
C595 C594 1.389 . S
C595 C596 1.389 . S
C596 C595 1.389 . S
C596 C597 1.379 . S
C596 H621 0.929 . S
C597 C596 1.379 . S
C597 C598 1.405 . S
C598 C593 1.403 . S
C598 C597 1.405 . S
C598 H622 0.932 . S
O599 Cd534 2.173 . S
O599 C535 1.277 . S
O600 C535 1.230 . S
O600 Cd538 2.250 . S
O601 Cd534 2.263 . S
O601 C554 1.258 . S
O602 Cd538 2.308 . S
O602 C554 1.274 . S
O603 Cd534 2.366 . S
O603 C590 1.263 . S
C604 O605 1.235 . S
C604 O606 1.270 . S
O605 Cd538 2.352 . S
O605 C604 1.235 . S
O606 Cd534 2.329 . S
O606 C604 1.270 . S
C607 O591 1.270 . S
C607 O592 1.248 . S
H608 C540 0.930 . S
H609 C543 0.930 . S
H610 C544 0.931 . S
H611 C549 0.929 . S
H612 C551 0.930 . S
H613 C553 0.930 . S
H614 C556 0.929 . S
H615 C557 0.932 . S
H616 C559 0.930 . S
H617 C583 0.929 . S
H618 C584 0.932 . S
H619 C585 0.931 . S
H620 C594 0.931 . S
H621 C596 0.929 . S
H622 C598 0.932 . S
Cd623 O680 2.350 . S
Cd623 O681 2.277 . S
Cd623 O688 2.173 . S
Cd623 O690 2.263 . S
Cd623 O692 2.366 . S
Cd623 O695 2.329 . S
C624 O688 1.277 . S
C624 O689 1.230 . S
C625 O626 1.246 . S
C625 C628 1.481 . S
C625 N650 1.329 . S
O626 C625 1.246 . S
Cd627 O689 2.250 . S
Cd627 O691 2.308 . S
Cd627 O694 2.352 1_655 S
C628 C625 1.481 . S
C628 N631 1.327 . S
C628 C632 1.407 . S
C629 C630 1.346 . S
C629 C633 1.390 . S
C629 H697 0.930 . S
C630 C629 1.346 . S
C630 N631 1.342 . S
C630 C635 1.516 . S
N631 C628 1.327 . S
N631 C630 1.342 . S
N631 Co634 1.864 . S
C632 C628 1.407 . S
C632 C633 1.364 . S
C632 H698 0.930 . S
C633 C629 1.390 . S
C633 C632 1.364 . S
C633 H699 0.931 . S
Co634 N631 1.864 . S
Co634 N650 1.955 . S
Co634 N651 1.958 . S
Co634 N652 1.953 . S
Co634 N670 1.869 . S
Co634 N676 1.974 . S
C635 C630 1.516 . S
C635 O636 1.238 . S
C635 N651 1.324 . S
O636 C635 1.238 . S
C637 C638 1.394 . S
C637 C642 1.395 . S
C637 N651 1.427 . S
C638 C637 1.394 . S
C638 C639 1.380 . S
C638 H700 0.929 . S
C639 C638 1.380 . S
C639 C640 1.384 . S
C639 C643 1.495 . S
C640 C639 1.384 . S
C640 C641 1.382 . S
C640 H701 0.930 . S
C641 C640 1.382 . S
C641 C642 1.398 . S
C642 C637 1.395 . S
C642 C641 1.398 . S
C642 H702 0.930 . S
C643 C639 1.495 . S
C643 O690 1.258 . S
C643 O691 1.274 . S
C644 C645 1.385 . S
C644 C646 1.381 . S
C644 N650 1.432 . S
C645 C644 1.385 . S
C645 C649 1.388 . S
C645 H703 0.929 . S
C646 C644 1.381 . S
C646 C647 1.371 . S
C646 H704 0.932 . S
C647 C646 1.371 . S
C647 C648 1.400 . S
C648 C647 1.400 . S
C648 C649 1.351 . S
C648 H705 0.930 . S
C649 C645 1.388 . S
C649 C648 1.351 . S
N650 C625 1.329 . S
N650 Co634 1.955 . S
N650 C644 1.432 . S
N651 Co634 1.958 . S
N651 C635 1.324 . S
N651 C637 1.427 . S
N652 Co634 1.953 . S
N652 C653 1.436 . S
N652 C679 1.316 . S
C653 N652 1.436 . S
C653 C654 1.421 . S
C653 C655 1.360 . S
C654 C653 1.421 . S
C654 C656 1.379 . S
C654 H657 0.929 . S
C655 C653 1.360 . S
C655 C659 1.393 . S
C655 H661 0.931 . S
C656 C654 1.379 . S
C656 C658 1.417 . S
C656 C660 1.505 1_556 S
H657 C654 0.929 . S
C658 C656 1.417 . S
C658 C659 1.352 . S
C658 H662 0.929 . S
C659 C655 1.393 . S
C659 C658 1.352 . S
C659 C663 1.482 . S
C660 C656 1.505 1_554 S
C660 O664 1.259 . S
C660 O665 1.229 . S
H661 C655 0.931 . S
H662 C658 0.929 . S
C663 C659 1.482 . S
C663 O666 1.207 . S
C663 O667 1.289 . S
O664 C660 1.259 . S
O664 H668 0.822 . S
O665 C660 1.229 . S
O666 C663 1.207 . S
O667 C663 1.289 . S
O667 H669 0.819 . S
H668 O664 0.822 . S
H669 O667 0.819 . S
N670 Co634 1.869 . S
N670 C671 1.330 . S
N670 C675 1.325 . S
C671 N670 1.330 . S
C671 C672 1.359 . S
C671 C677 1.504 . S
C672 C671 1.359 . S
C672 C673 1.366 . S
C672 H706 0.929 . S
C673 C672 1.366 . S
C673 C674 1.415 . S
C673 H707 0.932 . S
C674 C673 1.415 . S
C674 C675 1.366 . S
C674 H708 0.931 . S
C675 N670 1.325 . S
C675 C674 1.366 . S
C675 C679 1.516 . S
N676 Co634 1.974 . S
N676 C677 1.309 . S
N676 C682 1.423 . S
C677 C671 1.504 . S
C677 N676 1.309 . S
C677 O678 1.258 . S
O678 C677 1.258 . S
C679 N652 1.316 . S
C679 C675 1.516 . S
C679 O692 1.263 . S
O680 Cd623 2.350 . S
O680 C696 1.270 . S
O681 Cd623 2.277 . S
O681 C696 1.248 . S
C682 N676 1.423 . S
C682 C683 1.370 . S
C682 C687 1.403 . S
C683 C682 1.370 . S
C683 C684 1.389 . S
C683 H709 0.931 . S
C684 C683 1.389 . S
C684 C685 1.389 . S
C685 C684 1.389 . S
C685 C686 1.379 . S
C685 H710 0.929 . S
C686 C685 1.379 . S
C686 C687 1.405 . S
C687 C682 1.403 . S
C687 C686 1.405 . S
C687 H711 0.932 . S
O688 Cd623 2.173 . S
O688 C624 1.277 . S
O689 C624 1.230 . S
O689 Cd627 2.250 . S
O690 Cd623 2.263 . S
O690 C643 1.258 . S
O691 Cd627 2.308 . S
O691 C643 1.274 . S
O692 Cd623 2.366 . S
O692 C679 1.263 . S
C693 O694 1.235 . S
C693 O695 1.270 1_455 S
O694 Cd627 2.352 1_455 S
O694 C693 1.235 . S
O695 Cd623 2.329 . S
O695 C693 1.270 1_655 S
C696 O680 1.270 . S
C696 O681 1.248 . S
H697 C629 0.930 . S
H698 C632 0.930 . S
H699 C633 0.931 . S
H700 C638 0.929 . S
H701 C640 0.930 . S
H702 C642 0.930 . S
H703 C645 0.929 . S
H704 C646 0.932 . S
H705 C648 0.930 . S
H706 C672 0.929 . S
H707 C673 0.932 . S
H708 C674 0.931 . S
H709 C683 0.931 . S
H710 C685 0.929 . S
H711 C687 0.932 . S
Cd712 O769 2.350 . S
Cd712 O770 2.277 . S
Cd712 O777 2.173 . S
Cd712 O779 2.263 . S
Cd712 O781 2.366 . S
Cd712 O784 2.329 . S
C713 O777 1.277 . S
C713 O778 1.230 . S
C714 O715 1.246 . S
C714 C717 1.481 . S
C714 N739 1.329 . S
O715 C714 1.246 . S
Cd716 O778 2.250 . S
Cd716 O780 2.308 . S
Cd716 O783 2.352 1_565 S
C717 C714 1.481 . S
C717 N720 1.327 . S
C717 C721 1.407 . S
C718 C719 1.346 . S
C718 C722 1.390 . S
C718 H786 0.930 . S
C719 C718 1.346 . S
C719 N720 1.342 . S
C719 C724 1.516 . S
N720 C717 1.327 . S
N720 C719 1.342 . S
N720 Co723 1.864 . S
C721 C717 1.407 . S
C721 C722 1.364 . S
C721 H787 0.930 . S
C722 C718 1.390 . S
C722 C721 1.364 . S
C722 H788 0.931 . S
Co723 N720 1.864 . S
Co723 N739 1.955 . S
Co723 N740 1.958 . S
Co723 N741 1.953 . S
Co723 N759 1.869 . S
Co723 N765 1.974 . S
C724 C719 1.516 . S
C724 O725 1.238 . S
C724 N740 1.324 . S
O725 C724 1.238 . S
C726 C727 1.394 . S
C726 C731 1.395 . S
C726 N740 1.427 . S
C727 C726 1.394 . S
C727 C728 1.380 . S
C727 H789 0.929 . S
C728 C727 1.380 . S
C728 C729 1.384 . S
C728 C732 1.495 . S
C729 C728 1.384 . S
C729 C730 1.382 . S
C729 H790 0.930 . S
C730 C729 1.382 . S
C730 C731 1.398 . S
C731 C726 1.395 . S
C731 C730 1.398 . S
C731 H791 0.930 . S
C732 C728 1.495 . S
C732 O779 1.258 . S
C732 O780 1.274 . S
C733 C734 1.385 . S
C733 C735 1.381 . S
C733 N739 1.432 . S
C734 C733 1.385 . S
C734 C738 1.388 . S
C734 H792 0.929 . S
C735 C733 1.381 . S
C735 C736 1.371 . S
C735 H793 0.932 . S
C736 C735 1.371 . S
C736 C737 1.400 . S
C737 C736 1.400 . S
C737 C738 1.351 . S
C737 H794 0.930 . S
C738 C734 1.388 . S
C738 C737 1.351 . S
N739 C714 1.329 . S
N739 Co723 1.955 . S
N739 C733 1.432 . S
N740 Co723 1.958 . S
N740 C724 1.324 . S
N740 C726 1.427 . S
N741 Co723 1.953 . S
N741 C742 1.436 . S
N741 C768 1.316 . S
C742 N741 1.436 . S
C742 C743 1.421 . S
C742 C744 1.360 . S
C743 C742 1.421 . S
C743 C745 1.379 . S
C743 H746 0.929 . S
C744 C742 1.360 . S
C744 C748 1.393 . S
C744 H750 0.931 . S
C745 C743 1.379 . S
C745 C747 1.417 . S
C745 C749 1.505 . S
H746 C743 0.929 . S
C747 C745 1.417 . S
C747 C748 1.352 . S
C747 H751 0.929 . S
C748 C744 1.393 . S
C748 C747 1.352 . S
C748 C752 1.482 . S
C749 C745 1.505 . S
C749 O753 1.259 . S
C749 O754 1.229 . S
H750 C744 0.931 . S
H751 C747 0.929 . S
C752 C748 1.482 . S
C752 O755 1.207 . S
C752 O756 1.289 . S
O753 C749 1.259 . S
O753 H757 0.822 . S
O754 C749 1.229 . S
O755 C752 1.207 . S
O756 C752 1.289 . S
O756 H758 0.819 . S
H757 O753 0.822 . S
H758 O756 0.819 . S
N759 Co723 1.869 . S
N759 C760 1.330 . S
N759 C764 1.325 . S
C760 N759 1.330 . S
C760 C761 1.359 . S
C760 C766 1.504 . S
C761 C760 1.359 . S
C761 C762 1.366 . S
C761 H795 0.929 . S
C762 C761 1.366 . S
C762 C763 1.415 . S
C762 H796 0.932 . S
C763 C762 1.415 . S
C763 C764 1.366 . S
C763 H797 0.931 . S
C764 N759 1.325 . S
C764 C763 1.366 . S
C764 C768 1.516 . S
N765 Co723 1.974 . S
N765 C766 1.309 . S
N765 C771 1.423 . S
C766 C760 1.504 . S
C766 N765 1.309 . S
C766 O767 1.258 . S
O767 C766 1.258 . S
C768 N741 1.316 . S
C768 C764 1.516 . S
C768 O781 1.263 . S
O769 Cd712 2.350 . S
O769 C785 1.270 . S
O770 Cd712 2.277 . S
O770 C785 1.248 . S
C771 N765 1.423 . S
C771 C772 1.370 . S
C771 C776 1.403 . S
C772 C771 1.370 . S
C772 C773 1.389 . S
C772 H798 0.931 . S
C773 C772 1.389 . S
C773 C774 1.389 . S
C774 C773 1.389 . S
C774 C775 1.379 . S
C774 H799 0.929 . S
C775 C774 1.379 . S
C775 C776 1.405 . S
C776 C771 1.403 . S
C776 C775 1.405 . S
C776 H800 0.932 . S
O777 Cd712 2.173 . S
O777 C713 1.277 . S
O778 C713 1.230 . S
O778 Cd716 2.250 . S
O779 Cd712 2.263 . S
O779 C732 1.258 . S
O780 Cd716 2.308 . S
O780 C732 1.274 . S
O781 Cd712 2.366 . S
O781 C768 1.263 . S
C782 O783 1.235 . S
C782 O784 1.270 1_545 S
O783 Cd716 2.352 1_545 S
O783 C782 1.235 . S
O784 Cd712 2.329 . S
O784 C782 1.270 1_565 S
C785 O769 1.270 . S
C785 O770 1.248 . S
H786 C718 0.930 . S
H787 C721 0.930 . S
H788 C722 0.931 . S
H789 C727 0.929 . S
H790 C729 0.930 . S
H791 C731 0.930 . S
H792 C734 0.929 . S
H793 C735 0.932 . S
H794 C737 0.930 . S
H795 C761 0.929 . S
H796 C762 0.932 . S
H797 C763 0.931 . S
H798 C772 0.931 . S
H799 C774 0.929 . S
H800 C776 0.932 . S
Cd801 O858 2.350 . S
Cd801 O859 2.277 . S
Cd801 O866 2.173 . S
Cd801 O868 2.263 . S
Cd801 O870 2.366 . S
Cd801 O873 2.329 . S
C802 O866 1.277 . S
C802 O867 1.230 . S
C803 O804 1.246 . S
C803 C806 1.481 . S
C803 N828 1.329 . S
O804 C803 1.246 . S
Cd805 O867 2.250 . S
Cd805 O869 2.308 . S
Cd805 O872 2.352 . S
C806 C803 1.481 . S
C806 N809 1.327 . S
C806 C810 1.407 . S
C807 C808 1.346 . S
C807 C811 1.390 . S
C807 H875 0.930 . S
C808 C807 1.346 . S
C808 N809 1.342 . S
C808 C813 1.516 . S
N809 C806 1.327 . S
N809 C808 1.342 . S
N809 Co812 1.864 . S
C810 C806 1.407 . S
C810 C811 1.364 . S
C810 H876 0.930 . S
C811 C807 1.390 . S
C811 C810 1.364 . S
C811 H877 0.931 . S
Co812 N809 1.864 . S
Co812 N828 1.955 . S
Co812 N829 1.958 . S
Co812 N830 1.953 . S
Co812 N848 1.869 . S
Co812 N854 1.974 . S
C813 C808 1.516 . S
C813 O814 1.238 . S
C813 N829 1.324 . S
O814 C813 1.238 . S
C815 C816 1.394 . S
C815 C820 1.395 . S
C815 N829 1.427 . S
C816 C815 1.394 . S
C816 C817 1.380 . S
C816 H878 0.929 . S
C817 C816 1.380 . S
C817 C818 1.384 . S
C817 C821 1.495 . S
C818 C817 1.384 . S
C818 C819 1.382 . S
C818 H879 0.930 . S
C819 C818 1.382 . S
C819 C820 1.398 . S
C820 C815 1.395 . S
C820 C819 1.398 . S
C820 H880 0.930 . S
C821 C817 1.495 . S
C821 O868 1.258 . S
C821 O869 1.274 . S
C822 C823 1.385 . S
C822 C824 1.381 . S
C822 N828 1.432 . S
C823 C822 1.385 . S
C823 C827 1.388 . S
C823 H881 0.929 . S
C824 C822 1.381 . S
C824 C825 1.371 . S
C824 H882 0.932 . S
C825 C824 1.371 . S
C825 C826 1.400 . S
C826 C825 1.400 . S
C826 C827 1.351 . S
C826 H883 0.930 . S
C827 C823 1.388 . S
C827 C826 1.351 . S
N828 C803 1.329 . S
N828 Co812 1.955 . S
N828 C822 1.432 . S
N829 Co812 1.958 . S
N829 C813 1.324 . S
N829 C815 1.427 . S
N830 Co812 1.953 . S
N830 C831 1.436 . S
N830 C857 1.316 . S
C831 N830 1.436 . S
C831 C832 1.421 . S
C831 C833 1.360 . S
C832 C831 1.421 . S
C832 C834 1.379 . S
C832 H835 0.929 . S
C833 C831 1.360 . S
C833 C837 1.393 . S
C833 H839 0.931 . S
C834 C832 1.379 . S
C834 C836 1.417 . S
C834 C838 1.505 1_556 S
H835 C832 0.929 . S
C836 C834 1.417 . S
C836 C837 1.352 . S
C836 H840 0.929 . S
C837 C833 1.393 . S
C837 C836 1.352 . S
C837 C841 1.482 . S
C838 C834 1.505 1_554 S
C838 O842 1.259 . S
C838 O843 1.229 . S
H839 C833 0.931 . S
H840 C836 0.929 . S
C841 C837 1.482 . S
C841 O844 1.207 . S
C841 O845 1.289 . S
O842 C838 1.259 . S
O842 H846 0.822 . S
O843 C838 1.229 . S
O844 C841 1.207 . S
O845 C841 1.289 . S
O845 H847 0.819 . S
H846 O842 0.822 . S
H847 O845 0.819 . S
N848 Co812 1.869 . S
N848 C849 1.330 . S
N848 C853 1.325 . S
C849 N848 1.330 . S
C849 C850 1.359 . S
C849 C855 1.504 . S
C850 C849 1.359 . S
C850 C851 1.366 . S
C850 H884 0.929 . S
C851 C850 1.366 . S
C851 C852 1.415 . S
C851 H885 0.932 . S
C852 C851 1.415 . S
C852 C853 1.366 . S
C852 H886 0.931 . S
C853 N848 1.325 . S
C853 C852 1.366 . S
C853 C857 1.516 . S
N854 Co812 1.974 . S
N854 C855 1.309 . S
N854 C860 1.423 . S
C855 C849 1.504 . S
C855 N854 1.309 . S
C855 O856 1.258 . S
O856 C855 1.258 . S
C857 N830 1.316 . S
C857 C853 1.516 . S
C857 O870 1.263 . S
O858 Cd801 2.350 . S
O858 C874 1.270 . S
O859 Cd801 2.277 . S
O859 C874 1.248 . S
C860 N854 1.423 . S
C860 C861 1.370 . S
C860 C865 1.403 . S
C861 C860 1.370 . S
C861 C862 1.389 . S
C861 H887 0.931 . S
C862 C861 1.389 . S
C862 C863 1.389 . S
C863 C862 1.389 . S
C863 C864 1.379 . S
C863 H888 0.929 . S
C864 C863 1.379 . S
C864 C865 1.405 . S
C865 C860 1.403 . S
C865 C864 1.405 . S
C865 H889 0.932 . S
O866 Cd801 2.173 . S
O866 C802 1.277 . S
O867 C802 1.230 . S
O867 Cd805 2.250 . S
O868 Cd801 2.263 . S
O868 C821 1.258 . S
O869 Cd805 2.308 . S
O869 C821 1.274 . S
O870 Cd801 2.366 . S
O870 C857 1.263 . S
C871 O872 1.235 . S
C871 O873 1.270 . S
O872 Cd805 2.352 . S
O872 C871 1.235 . S
O873 Cd801 2.329 . S
O873 C871 1.270 . S
C874 O858 1.270 . S
C874 O859 1.248 . S
H875 C807 0.930 . S
H876 C810 0.930 . S
H877 C811 0.931 . S
H878 C816 0.929 . S
H879 C818 0.930 . S
H880 C820 0.930 . S
H881 C823 0.929 . S
H882 C824 0.932 . S
H883 C826 0.930 . S
H884 C850 0.929 . S
H885 C851 0.932 . S
H886 C852 0.931 . S
H887 C861 0.931 . S
H888 C863 0.929 . S
H889 C865 0.932 . S
Cd890 O947 2.350 . S
Cd890 O948 2.277 . S
Cd890 O955 2.173 . S
Cd890 O957 2.263 . S
Cd890 O959 2.366 . S
Cd890 O962 2.329 . S
C891 O955 1.277 . S
C891 O956 1.230 . S
C892 O893 1.246 . S
C892 C895 1.481 . S
C892 N917 1.329 . S
O893 C892 1.246 . S
Cd894 O956 2.250 . S
Cd894 O958 2.308 . S
Cd894 O961 2.352 1_455 S
C895 C892 1.481 . S
C895 N898 1.327 . S
C895 C899 1.407 . S
C896 C897 1.346 . S
C896 C900 1.390 . S
C896 H964 0.930 . S
C897 C896 1.346 . S
C897 N898 1.342 . S
C897 C902 1.516 . S
N898 C895 1.327 . S
N898 C897 1.342 . S
N898 Co901 1.864 . S
C899 C895 1.407 . S
C899 C900 1.364 . S
C899 H965 0.930 . S
C900 C896 1.390 . S
C900 C899 1.364 . S
C900 H966 0.931 . S
Co901 N898 1.864 . S
Co901 N917 1.955 . S
Co901 N918 1.958 . S
Co901 N919 1.953 . S
Co901 N937 1.869 . S
Co901 N943 1.974 . S
C902 C897 1.516 . S
C902 O903 1.238 . S
C902 N918 1.324 . S
O903 C902 1.238 . S
C904 C905 1.394 . S
C904 C909 1.395 . S
C904 N918 1.427 . S
C905 C904 1.394 . S
C905 C906 1.380 . S
C905 H967 0.929 . S
C906 C905 1.380 . S
C906 C907 1.384 . S
C906 C910 1.495 . S
C907 C906 1.384 . S
C907 C908 1.382 . S
C907 H968 0.930 . S
C908 C907 1.382 . S
C908 C909 1.398 . S
C909 C904 1.395 . S
C909 C908 1.398 . S
C909 H969 0.930 . S
C910 C906 1.495 . S
C910 O957 1.258 . S
C910 O958 1.274 . S
C911 C912 1.385 . S
C911 C913 1.381 . S
C911 N917 1.432 . S
C912 C911 1.385 . S
C912 C916 1.388 . S
C912 H970 0.929 . S
C913 C911 1.381 . S
C913 C914 1.371 . S
C913 H971 0.932 . S
C914 C913 1.371 . S
C914 C915 1.400 . S
C915 C914 1.400 . S
C915 C916 1.351 . S
C915 H972 0.930 . S
C916 C912 1.388 . S
C916 C915 1.351 . S
N917 C892 1.329 . S
N917 Co901 1.955 . S
N917 C911 1.432 . S
N918 Co901 1.958 . S
N918 C902 1.324 . S
N918 C904 1.427 . S
N919 Co901 1.953 . S
N919 C920 1.436 . S
N919 C946 1.316 . S
C920 N919 1.436 . S
C920 C921 1.421 . S
C920 C922 1.360 . S
C921 C920 1.421 . S
C921 C923 1.379 . S
C921 H924 0.929 . S
C922 C920 1.360 . S
C922 C926 1.393 . S
C922 H928 0.931 . S
C923 C921 1.379 . S
C923 C925 1.417 . S
C923 C927 1.505 . S
H924 C921 0.929 . S
C925 C923 1.417 . S
C925 C926 1.352 . S
C925 H929 0.929 . S
C926 C922 1.393 . S
C926 C925 1.352 . S
C926 C930 1.482 . S
C927 C923 1.505 . S
C927 O931 1.259 . S
C927 O932 1.229 . S
H928 C922 0.931 . S
H929 C925 0.929 . S
C930 C926 1.482 . S
C930 O933 1.207 . S
C930 O934 1.289 . S
O931 C927 1.259 . S
O931 H935 0.822 . S
O932 C927 1.229 . S
O933 C930 1.207 . S
O934 C930 1.289 . S
O934 H936 0.819 . S
H935 O931 0.822 . S
H936 O934 0.819 . S
N937 Co901 1.869 . S
N937 C938 1.330 . S
N937 C942 1.325 . S
C938 N937 1.330 . S
C938 C939 1.359 . S
C938 C944 1.504 . S
C939 C938 1.359 . S
C939 C940 1.366 . S
C939 H973 0.929 . S
C940 C939 1.366 . S
C940 C941 1.415 . S
C940 H974 0.932 . S
C941 C940 1.415 . S
C941 C942 1.366 . S
C941 H975 0.931 . S
C942 N937 1.325 . S
C942 C941 1.366 . S
C942 C946 1.516 . S
N943 Co901 1.974 . S
N943 C944 1.309 . S
N943 C949 1.423 . S
C944 C938 1.504 . S
C944 N943 1.309 . S
C944 O945 1.258 . S
O945 C944 1.258 . S
C946 N919 1.316 . S
C946 C942 1.516 . S
C946 O959 1.263 . S
O947 Cd890 2.350 . S
O947 C963 1.270 . S
O948 Cd890 2.277 . S
O948 C963 1.248 . S
C949 N943 1.423 . S
C949 C950 1.370 . S
C949 C954 1.403 . S
C950 C949 1.370 . S
C950 C951 1.389 . S
C950 H976 0.931 . S
C951 C950 1.389 . S
C951 C952 1.389 . S
C952 C951 1.389 . S
C952 C953 1.379 . S
C952 H977 0.929 . S
C953 C952 1.379 . S
C953 C954 1.405 . S
C954 C949 1.403 . S
C954 C953 1.405 . S
C954 H978 0.932 . S
O955 Cd890 2.173 . S
O955 C891 1.277 . S
O956 C891 1.230 . S
O956 Cd894 2.250 . S
O957 Cd890 2.263 . S
O957 C910 1.258 . S
O958 Cd894 2.308 . S
O958 C910 1.274 . S
O959 Cd890 2.366 . S
O959 C946 1.263 . S
C960 O961 1.235 . S
C960 O962 1.270 1_655 S
O961 Cd894 2.352 1_655 S
O961 C960 1.235 . S
O962 Cd890 2.329 . S
O962 C960 1.270 1_455 S
C963 O947 1.270 . S
C963 O948 1.248 . S
H964 C896 0.930 . S
H965 C899 0.930 . S
H966 C900 0.931 . S
H967 C905 0.929 . S
H968 C907 0.930 . S
H969 C909 0.930 . S
H970 C912 0.929 . S
H971 C913 0.932 . S
H972 C915 0.930 . S
H973 C939 0.929 . S
H974 C940 0.932 . S
H975 C941 0.931 . S
H976 C950 0.931 . S
H977 C952 0.929 . S
H978 C954 0.932 . S
Cd979 O1036 2.350 . S
Cd979 O1037 2.277 . S
Cd979 O1044 2.173 . S
Cd979 O1046 2.263 . S
Cd979 O1048 2.366 . S
Cd979 O1051 2.329 . S
C980 O1044 1.277 . S
C980 O1045 1.230 . S
C981 O982 1.246 . S
C981 C984 1.481 . S
C981 N1006 1.329 . S
O982 C981 1.246 . S
Cd983 O1045 2.250 . S
Cd983 O1047 2.308 . S
Cd983 O1050 2.352 1_545 S
C984 C981 1.481 . S
C984 N987 1.327 . S
C984 C988 1.407 . S
C985 C986 1.346 . S
C985 C989 1.390 . S
C985 H1053 0.930 . S
C986 C985 1.346 . S
C986 N987 1.342 . S
C986 C991 1.516 . S
N987 C984 1.327 . S
N987 C986 1.342 . S
N987 Co990 1.864 . S
C988 C984 1.407 . S
C988 C989 1.364 . S
C988 H1054 0.930 . S
C989 C985 1.390 . S
C989 C988 1.364 . S
C989 H1055 0.931 . S
Co990 N987 1.864 . S
Co990 N1006 1.955 . S
Co990 N1007 1.958 . S
Co990 N1008 1.953 . S
Co990 N1026 1.869 . S
Co990 N1032 1.974 . S
C991 C986 1.516 . S
C991 O992 1.238 . S
C991 N1007 1.324 . S
O992 C991 1.238 . S
C993 C994 1.394 . S
C993 C998 1.395 . S
C993 N1007 1.427 . S
C994 C993 1.394 . S
C994 C995 1.380 . S
C994 H1056 0.929 . S
C995 C994 1.380 . S
C995 C996 1.384 . S
C995 C999 1.495 . S
C996 C995 1.384 . S
C996 C997 1.382 . S
C996 H1057 0.930 . S
C997 C996 1.382 . S
C997 C998 1.398 . S
C998 C993 1.395 . S
C998 C997 1.398 . S
C998 H1058 0.930 . S
C999 C995 1.495 . S
C999 O1046 1.258 . S
C999 O1047 1.274 . S
C1000 C1001 1.385 . S
C1000 C1002 1.381 . S
C1000 N1006 1.432 . S
C1001 C1000 1.385 . S
C1001 C1005 1.388 . S
C1001 H1059 0.929 . S
C1002 C1000 1.381 . S
C1002 C1003 1.371 . S
C1002 H1060 0.932 . S
C1003 C1002 1.371 . S
C1003 C1004 1.400 . S
C1004 C1003 1.400 . S
C1004 C1005 1.351 . S
C1004 H1061 0.930 . S
C1005 C1001 1.388 . S
C1005 C1004 1.351 . S
N1006 C981 1.329 . S
N1006 Co990 1.955 . S
N1006 C1000 1.432 . S
N1007 Co990 1.958 . S
N1007 C991 1.324 . S
N1007 C993 1.427 . S
N1008 Co990 1.953 . S
N1008 C1009 1.436 . S
N1008 C1035 1.316 . S
C1009 N1008 1.436 . S
C1009 C1010 1.421 . S
C1009 C1011 1.360 . S
C1010 C1009 1.421 . S
C1010 C1012 1.379 . S
C1010 H1013 0.929 . S
C1011 C1009 1.360 . S
C1011 C1015 1.393 . S
C1011 H1017 0.931 . S
C1012 C1010 1.379 . S
C1012 C1014 1.417 . S
C1012 C1016 1.505 1_556 S
H1013 C1010 0.929 . S
C1014 C1012 1.417 . S
C1014 C1015 1.352 . S
C1014 H1018 0.929 . S
C1015 C1011 1.393 . S
C1015 C1014 1.352 . S
C1015 C1019 1.482 . S
C1016 C1012 1.505 1_554 S
C1016 O1020 1.259 . S
C1016 O1021 1.229 . S
H1017 C1011 0.931 . S
H1018 C1014 0.929 . S
C1019 C1015 1.482 . S
C1019 O1022 1.207 . S
C1019 O1023 1.289 . S
O1020 C1016 1.259 . S
O1020 H1024 0.822 . S
O1021 C1016 1.229 . S
O1022 C1019 1.207 . S
O1023 C1019 1.289 . S
O1023 H1025 0.819 . S
H1024 O1020 0.822 . S
H1025 O1023 0.819 . S
N1026 Co990 1.869 . S
N1026 C1027 1.330 . S
N1026 C1031 1.325 . S
C1027 N1026 1.330 . S
C1027 C1028 1.359 . S
C1027 C1033 1.504 . S
C1028 C1027 1.359 . S
C1028 C1029 1.366 . S
C1028 H1062 0.929 . S
C1029 C1028 1.366 . S
C1029 C1030 1.415 . S
C1029 H1063 0.932 . S
C1030 C1029 1.415 . S
C1030 C1031 1.366 . S
C1030 H1064 0.931 . S
C1031 N1026 1.325 . S
C1031 C1030 1.366 . S
C1031 C1035 1.516 . S
N1032 Co990 1.974 . S
N1032 C1033 1.309 . S
N1032 C1038 1.423 . S
C1033 C1027 1.504 . S
C1033 N1032 1.309 . S
C1033 O1034 1.258 . S
O1034 C1033 1.258 . S
C1035 N1008 1.316 . S
C1035 C1031 1.516 . S
C1035 O1048 1.263 . S
O1036 Cd979 2.350 . S
O1036 C1052 1.270 . S
O1037 Cd979 2.277 . S
O1037 C1052 1.248 . S
C1038 N1032 1.423 . S
C1038 C1039 1.370 . S
C1038 C1043 1.403 . S
C1039 C1038 1.370 . S
C1039 C1040 1.389 . S
C1039 H1065 0.931 . S
C1040 C1039 1.389 . S
C1040 C1041 1.389 . S
C1041 C1040 1.389 . S
C1041 C1042 1.379 . S
C1041 H1066 0.929 . S
C1042 C1041 1.379 . S
C1042 C1043 1.405 . S
C1043 C1038 1.403 . S
C1043 C1042 1.405 . S
C1043 H1067 0.932 . S
O1044 Cd979 2.173 . S
O1044 C980 1.277 . S
O1045 C980 1.230 . S
O1045 Cd983 2.250 . S
O1046 Cd979 2.263 . S
O1046 C999 1.258 . S
O1047 Cd983 2.308 . S
O1047 C999 1.274 . S
O1048 Cd979 2.366 . S
O1048 C1035 1.263 . S
C1049 O1050 1.235 . S
C1049 O1051 1.270 1_565 S
O1050 Cd983 2.352 1_565 S
O1050 C1049 1.235 . S
O1051 Cd979 2.329 . S
O1051 C1049 1.270 1_545 S
C1052 O1036 1.270 . S
C1052 O1037 1.248 . S
H1053 C985 0.930 . S
H1054 C988 0.930 . S
H1055 C989 0.931 . S
H1056 C994 0.929 . S
H1057 C996 0.930 . S
H1058 C998 0.930 . S
H1059 C1001 0.929 . S
H1060 C1002 0.932 . S
H1061 C1004 0.930 . S
H1062 C1028 0.929 . S
H1063 C1029 0.932 . S
H1064 C1030 0.931 . S
H1065 C1039 0.931 . S
H1066 C1041 0.929 . S
H1067 C1043 0.932 . S
C1068 C1069 1.369 . S
C1068 C1070 1.419 . S
C1068 H1072 0.930 . S
C1069 C1068 1.369 . S
C1069 C1078 1.429 . S
C1070 C1068 1.419 . S
C1070 C1071 1.363 . S
C1070 H1073 0.929 . S
C1071 C1070 1.363 . S
C1071 C1077 1.428 . S
H1072 C1068 0.930 . S
H1073 C1070 0.929 . S
S1074 N1075 1.613 . S
S1074 N1076 1.610 . S
N1075 S1074 1.613 . S
N1075 C1078 1.350 . S
N1076 S1074 1.610 . S
N1076 C1077 1.351 . S
C1077 C1071 1.428 . S
C1077 N1076 1.351 . S
C1077 C1078 1.434 . S
C1078 C1069 1.429 . S
C1078 N1075 1.350 . S
C1078 C1077 1.434 . S
C1079 C1080 1.369 . S
C1079 C1081 1.419 . S
C1079 H1083 0.930 . S
C1080 C1079 1.369 . S
C1080 C1089 1.429 . S
C1081 C1079 1.419 . S
C1081 C1082 1.363 . S
C1081 H1084 0.929 . S
C1082 C1081 1.363 . S
C1082 C1088 1.428 . S
H1083 C1079 0.930 . S
H1084 C1081 0.929 . S
S1085 N1086 1.613 . S
S1085 N1087 1.610 . S
N1086 S1085 1.613 . S
N1086 C1089 1.350 . S
N1087 S1085 1.610 . S
N1087 C1088 1.351 . S
C1088 C1082 1.428 . S
C1088 N1087 1.351 . S
C1088 C1089 1.434 . S
C1089 C1080 1.429 . S
C1089 N1086 1.350 . S
C1089 C1088 1.434 . S
C1090 C1091 1.369 . S
C1090 C1092 1.419 . S
C1090 H1094 0.930 . S
C1091 C1090 1.369 . S
C1091 C1100 1.429 . S
C1092 C1090 1.419 . S
C1092 C1093 1.363 . S
C1092 H1095 0.929 . S
C1093 C1092 1.363 . S
C1093 C1099 1.428 . S
H1094 C1090 0.930 . S
H1095 C1092 0.929 . S
S1096 N1097 1.613 . S
S1096 N1098 1.610 . S
N1097 S1096 1.613 . S
N1097 C1100 1.350 . S
N1098 S1096 1.610 . S
N1098 C1099 1.351 . S
C1099 C1093 1.428 . S
C1099 N1098 1.351 . S
C1099 C1100 1.434 . S
C1100 C1091 1.429 . S
C1100 N1097 1.350 . S
C1100 C1099 1.434 . S
C1101 C1102 1.369 . S
C1101 C1103 1.419 . S
C1101 H1105 0.930 . S
C1102 C1101 1.369 . S
C1102 C1111 1.429 . S
C1103 C1101 1.419 . S
C1103 C1104 1.363 . S
C1103 H1106 0.929 . S
C1104 C1103 1.363 . S
C1104 C1110 1.428 . S
H1105 C1101 0.930 . S
H1106 C1103 0.929 . S
S1107 N1108 1.613 . S
S1107 N1109 1.610 . S
N1108 S1107 1.613 . S
N1108 C1111 1.350 . S
N1109 S1107 1.610 . S
N1109 C1110 1.351 . S
C1110 C1104 1.428 . S
C1110 N1109 1.351 . S
C1110 C1111 1.434 . S
C1111 C1102 1.429 . S
C1111 N1108 1.350 . S
C1111 C1110 1.434 . S
C1112 C1113 1.369 . S
C1112 C1114 1.419 . S
C1112 H1116 0.930 . S
C1113 C1112 1.369 . S
C1113 C1122 1.429 . S
C1114 C1112 1.419 . S
C1114 C1115 1.363 . S
C1114 H1117 0.929 . S
C1115 C1114 1.363 . S
C1115 C1121 1.428 . S
H1116 C1112 0.930 . S
H1117 C1114 0.929 . S
S1118 N1119 1.613 . S
S1118 N1120 1.610 . S
N1119 S1118 1.613 . S
N1119 C1122 1.350 . S
N1120 S1118 1.610 . S
N1120 C1121 1.351 . S
C1121 C1115 1.428 . S
C1121 N1120 1.351 . S
C1121 C1122 1.434 . S
C1122 C1113 1.429 . S
C1122 N1119 1.350 . S
C1122 C1121 1.434 . S
C1123 C1124 1.369 . S
C1123 C1125 1.419 . S
C1123 H1127 0.930 . S
C1124 C1123 1.369 . S
C1124 C1133 1.429 . S
C1125 C1123 1.419 . S
C1125 C1126 1.363 . S
C1125 H1128 0.929 . S
C1126 C1125 1.363 . S
C1126 C1132 1.428 . S
H1127 C1123 0.930 . S
H1128 C1125 0.929 . S
S1129 N1130 1.613 . S
S1129 N1131 1.610 . S
N1130 S1129 1.613 . S
N1130 C1133 1.350 . S
N1131 S1129 1.610 . S
N1131 C1132 1.351 . S
C1132 C1126 1.428 . S
C1132 N1131 1.351 . S
C1132 C1133 1.434 . S
C1133 C1124 1.429 . S
C1133 N1130 1.350 . S
C1133 C1132 1.434 . S
C1134 C1135 1.369 . S
C1134 C1136 1.419 . S
C1134 H1138 0.930 . S
C1135 C1134 1.369 . S
C1135 C1144 1.429 . S
C1136 C1134 1.419 . S
C1136 C1137 1.363 . S
C1136 H1139 0.929 . S
C1137 C1136 1.363 . S
C1137 C1143 1.428 . S
H1138 C1134 0.930 . S
H1139 C1136 0.929 . S
S1140 N1141 1.613 . S
S1140 N1142 1.610 . S
N1141 S1140 1.613 . S
N1141 C1144 1.350 . S
N1142 S1140 1.610 . S
N1142 C1143 1.351 . S
C1143 C1137 1.428 . S
C1143 N1142 1.351 . S
C1143 C1144 1.434 . S
C1144 C1135 1.429 . S
C1144 N1141 1.350 . S
C1144 C1143 1.434 . S
C1145 C1146 1.369 . S
C1145 C1147 1.419 . S
C1145 H1149 0.930 . S
C1146 C1145 1.369 . S
C1146 C1155 1.429 . S
C1147 C1145 1.419 . S
C1147 C1148 1.363 . S
C1147 H1150 0.929 . S
C1148 C1147 1.363 . S
C1148 C1154 1.428 . S
H1149 C1145 0.930 . S
H1150 C1147 0.929 . S
S1151 N1152 1.613 . S
S1151 N1153 1.610 . S
N1152 S1151 1.613 . S
N1152 C1155 1.350 . S
N1153 S1151 1.610 . S
N1153 C1154 1.351 . S
C1154 C1148 1.428 . S
C1154 N1153 1.351 . S
C1154 C1155 1.434 . S
C1155 C1146 1.429 . S
C1155 N1152 1.350 . S
C1155 C1154 1.434 . S
C1156 C1157 1.369 . S
C1156 C1158 1.419 . S
C1156 H1160 0.930 . S
C1157 C1156 1.369 . S
C1157 C1166 1.429 . S
C1158 C1156 1.419 . S
C1158 C1159 1.363 . S
C1158 H1161 0.929 . S
C1159 C1158 1.363 . S
C1159 C1165 1.428 . S
H1160 C1156 0.930 . S
H1161 C1158 0.929 . S
S1162 N1163 1.613 . S
S1162 N1164 1.610 . S
N1163 S1162 1.613 . S
N1163 C1166 1.350 . S
N1164 S1162 1.610 . S
N1164 C1165 1.351 . S
C1165 C1159 1.428 . S
C1165 N1164 1.351 . S
C1165 C1166 1.434 . S
C1166 C1157 1.429 . S
C1166 N1163 1.350 . S
C1166 C1165 1.434 . S
C1167 C1168 1.369 . S
C1167 C1169 1.419 . S
C1167 H1171 0.930 . S
C1168 C1167 1.369 . S
C1168 C1177 1.429 . S
C1169 C1167 1.419 . S
C1169 C1170 1.363 . S
C1169 H1172 0.929 . S
C1170 C1169 1.363 . S
C1170 C1176 1.428 . S
H1171 C1167 0.930 . S
H1172 C1169 0.929 . S
S1173 N1174 1.613 . S
S1173 N1175 1.610 . S
N1174 S1173 1.613 . S
N1174 C1177 1.350 . S
N1175 S1173 1.610 . S
N1175 C1176 1.351 . S
C1176 C1170 1.428 . S
C1176 N1175 1.351 . S
C1176 C1177 1.434 . S
C1177 C1168 1.429 . S
C1177 N1174 1.350 . S
C1177 C1176 1.434 . S
C1178 C1179 1.369 . S
C1178 C1180 1.419 . S
C1178 H1182 0.930 . S
C1179 C1178 1.369 . S
C1179 C1188 1.429 . S
C1180 C1178 1.419 . S
C1180 C1181 1.363 . S
C1180 H1183 0.929 . S
C1181 C1180 1.363 . S
C1181 C1187 1.428 . S
H1182 C1178 0.930 . S
H1183 C1180 0.929 . S
S1184 N1185 1.613 . S
S1184 N1186 1.610 . S
N1185 S1184 1.613 . S
N1185 C1188 1.350 . S
N1186 S1184 1.610 . S
N1186 C1187 1.351 . S
C1187 C1181 1.428 . S
C1187 N1186 1.351 . S
C1187 C1188 1.434 . S
C1188 C1179 1.429 . S
C1188 N1185 1.350 . S
C1188 C1187 1.434 . S
C1189 C1190 1.369 . S
C1189 C1191 1.419 . S
C1189 H1193 0.930 . S
C1190 C1189 1.369 . S
C1190 C1199 1.429 . S
C1191 C1189 1.419 . S
C1191 C1192 1.363 . S
C1191 H1194 0.929 . S
C1192 C1191 1.363 . S
C1192 C1198 1.428 . S
H1193 C1189 0.930 . S
H1194 C1191 0.929 . S
S1195 N1196 1.613 . S
S1195 N1197 1.610 . S
N1196 S1195 1.613 . S
N1196 C1199 1.350 . S
N1197 S1195 1.610 . S
N1197 C1198 1.351 . S
C1198 C1192 1.428 . S
C1198 N1197 1.351 . S
C1198 C1199 1.434 . S
C1199 C1190 1.429 . S
C1199 N1196 1.350 . S
C1199 C1198 1.434 . S
C1200 C1201 1.369 . S
C1200 C1202 1.419 . S
C1200 H1204 0.930 . S
C1201 C1200 1.369 . S
C1201 C1210 1.429 . S
C1202 C1200 1.419 . S
C1202 C1203 1.363 . S
C1202 H1205 0.929 . S
C1203 C1202 1.363 . S
C1203 C1209 1.428 . S
H1204 C1200 0.930 . S
H1205 C1202 0.929 . S
S1206 N1207 1.613 . S
S1206 N1208 1.610 . S
N1207 S1206 1.613 . S
N1207 C1210 1.350 . S
N1208 S1206 1.610 . S
N1208 C1209 1.351 . S
C1209 C1203 1.428 . S
C1209 N1208 1.351 . S
C1209 C1210 1.434 . S
C1210 C1201 1.429 . S
C1210 N1207 1.350 . S
C1210 C1209 1.434 . S
C1211 C1212 1.369 . S
C1211 C1213 1.419 . S
C1211 H1215 0.930 . S
C1212 C1211 1.369 . S
C1212 C1221 1.429 . S
C1213 C1211 1.419 . S
C1213 C1214 1.363 . S
C1213 H1216 0.929 . S
C1214 C1213 1.363 . S
C1214 C1220 1.428 . S
H1215 C1211 0.930 . S
H1216 C1213 0.929 . S
S1217 N1218 1.613 . S
S1217 N1219 1.610 . S
N1218 S1217 1.613 . S
N1218 C1221 1.350 . S
N1219 S1217 1.610 . S
N1219 C1220 1.351 . S
C1220 C1214 1.428 . S
C1220 N1219 1.351 . S
C1220 C1221 1.434 . S
C1221 C1212 1.429 . S
C1221 N1218 1.350 . S
C1221 C1220 1.434 . S
C1222 C1223 1.369 . S
C1222 C1224 1.419 . S
C1222 H1226 0.930 . S
C1223 C1222 1.369 . S
C1223 C1232 1.429 . S
C1224 C1222 1.419 . S
C1224 C1225 1.363 . S
C1224 H1227 0.929 . S
C1225 C1224 1.363 . S
C1225 C1231 1.428 . S
H1226 C1222 0.930 . S
H1227 C1224 0.929 . S
S1228 N1229 1.613 . S
S1228 N1230 1.610 . S
N1229 S1228 1.613 . S
N1229 C1232 1.350 . S
N1230 S1228 1.610 . S
N1230 C1231 1.351 . S
C1231 C1225 1.428 . S
C1231 N1230 1.351 . S
C1231 C1232 1.434 . S
C1232 C1223 1.429 . S
C1232 N1229 1.350 . S
C1232 C1231 1.434 . S
C1233 C1234 1.369 . S
C1233 C1235 1.419 . S
C1233 H1237 0.930 . S
C1234 C1233 1.369 . S
C1234 C1243 1.429 . S
C1235 C1233 1.419 . S
C1235 C1236 1.363 . S
C1235 H1238 0.929 . S
C1236 C1235 1.363 . S
C1236 C1242 1.428 . S
H1237 C1233 0.930 . S
H1238 C1235 0.929 . S
S1239 N1240 1.613 . S
S1239 N1241 1.610 . S
N1240 S1239 1.613 . S
N1240 C1243 1.350 . S
N1241 S1239 1.610 . S
N1241 C1242 1.351 . S
C1242 C1236 1.428 . S
C1242 N1241 1.351 . S
C1242 C1243 1.434 . S
C1243 C1234 1.429 . S
C1243 N1240 1.350 . S
C1243 C1242 1.434 . S
C1244 C1245 1.369 . S
C1244 C1246 1.419 . S
C1244 H1248 0.930 . S
C1245 C1244 1.369 . S
C1245 C1254 1.429 . S
C1246 C1244 1.419 . S
C1246 C1247 1.363 . S
C1246 H1249 0.929 . S
C1247 C1246 1.363 . S
C1247 C1253 1.428 . S
H1248 C1244 0.930 . S
H1249 C1246 0.929 . S
S1250 N1251 1.613 . S
S1250 N1252 1.610 . S
N1251 S1250 1.613 . S
N1251 C1254 1.350 . S
N1252 S1250 1.610 . S
N1252 C1253 1.351 . S
C1253 C1247 1.428 . S
C1253 N1252 1.351 . S
C1253 C1254 1.434 . S
C1254 C1245 1.429 . S
C1254 N1251 1.350 . S
C1254 C1253 1.434 . S
C1255 C1256 1.369 . S
C1255 C1257 1.419 . S
C1255 H1259 0.930 . S
C1256 C1255 1.369 . S
C1256 C1265 1.429 . S
C1257 C1255 1.419 . S
C1257 C1258 1.363 . S
C1257 H1260 0.929 . S
C1258 C1257 1.363 . S
C1258 C1264 1.428 . S
H1259 C1255 0.930 . S
H1260 C1257 0.929 . S
S1261 N1262 1.613 . S
S1261 N1263 1.610 . S
N1262 S1261 1.613 . S
N1262 C1265 1.350 . S
N1263 S1261 1.610 . S
N1263 C1264 1.351 . S
C1264 C1258 1.428 . S
C1264 N1263 1.351 . S
C1264 C1265 1.434 . S
C1265 C1256 1.429 . S
C1265 N1262 1.350 . S
C1265 C1264 1.434 . S
C1266 C1267 1.369 . S
C1266 C1268 1.419 1_556 S
C1266 H1270 0.930 . S
C1267 C1266 1.369 . S
C1267 C1276 1.429 . S
C1268 C1266 1.419 1_554 S
C1268 C1269 1.363 . S
C1268 H1271 0.929 . S
C1269 C1268 1.363 . S
C1269 C1275 1.428 . S
H1270 C1266 0.930 . S
H1271 C1268 0.929 . S
S1272 N1273 1.613 1_554 S
S1272 N1274 1.610 . S
N1273 S1272 1.613 1_556 S
N1273 C1276 1.350 . S
N1274 S1272 1.610 . S
N1274 C1275 1.351 . S
C1275 C1269 1.428 . S
C1275 N1274 1.351 . S
C1275 C1276 1.434 1_554 S
C1276 C1267 1.429 . S
C1276 N1273 1.350 . S
C1276 C1275 1.434 1_556 S
C1277 C1278 1.369 . S
C1277 C1279 1.419 1_455 S
C1277 H1281 0.930 . S
C1278 C1277 1.369 . S
C1278 C1287 1.429 . S
C1279 C1277 1.419 1_655 S
C1279 C1280 1.363 . S
C1279 H1282 0.929 . S
C1280 C1279 1.363 . S
C1280 C1286 1.428 . S
H1281 C1277 0.930 . S
H1282 C1279 0.929 . S
S1283 N1284 1.613 1_655 S
S1283 N1285 1.610 . S
N1284 S1283 1.613 1_455 S
N1284 C1287 1.350 . S
N1285 S1283 1.610 . S
N1285 C1286 1.351 . S
C1286 C1280 1.428 . S
C1286 N1285 1.351 . S
C1286 C1287 1.434 1_655 S
C1287 C1278 1.429 . S
C1287 N1284 1.350 . S
C1287 C1286 1.434 1_455 S
C1288 C1289 1.369 . S
C1288 C1290 1.419 1_554 S
C1288 H1292 0.930 . S
C1289 C1288 1.369 . S
C1289 C1298 1.429 1_565 S
C1290 C1288 1.419 1_556 S
C1290 C1291 1.363 1_565 S
C1290 H1293 0.929 . S
C1291 C1290 1.363 1_545 S
C1291 C1297 1.428 . S
H1292 C1288 0.930 . S
H1293 C1290 0.929 . S
S1294 N1295 1.613 . S
S1294 N1296 1.610 1_554 S
N1295 S1294 1.613 . S
N1295 C1298 1.350 . S
N1296 S1294 1.610 1_556 S
N1296 C1297 1.351 . S
C1297 C1291 1.428 . S
C1297 N1296 1.351 . S
C1297 C1298 1.434 1_556 S
C1298 C1289 1.429 1_545 S
C1298 N1295 1.350 . S
C1298 C1297 1.434 1_554 S
C1299 C1300 1.369 . S
C1299 C1301 1.419 . S
C1299 H1303 0.930 . S
C1300 C1299 1.369 . S
C1300 C1309 1.429 . S
C1301 C1299 1.419 . S
C1301 C1302 1.363 . S
C1301 H1304 0.929 . S
C1302 C1301 1.363 . S
C1302 C1308 1.428 . S
H1303 C1299 0.930 . S
H1304 C1301 0.929 . S
S1305 N1306 1.613 . S
S1305 N1307 1.610 . S
N1306 S1305 1.613 . S
N1306 C1309 1.350 . S
N1307 S1305 1.610 . S
N1307 C1308 1.351 . S
C1308 C1302 1.428 . S
C1308 N1307 1.351 . S
C1308 C1309 1.434 . S
C1309 C1300 1.429 . S
C1309 N1306 1.350 . S
C1309 C1308 1.434 . S
C1310 C1311 1.369 . S
C1310 C1312 1.419 1_556 S
C1310 H1314 0.930 . S
C1311 C1310 1.369 . S
C1311 C1320 1.429 1_655 S
C1312 C1310 1.419 1_554 S
C1312 C1313 1.363 1_655 S
C1312 H1315 0.929 . S
C1313 C1312 1.363 1_455 S
C1313 C1319 1.428 . S
H1314 C1310 0.930 . S
H1315 C1312 0.929 . S
S1316 N1317 1.613 . S
S1316 N1318 1.610 1_556 S
N1317 S1316 1.613 . S
N1317 C1320 1.350 . S
N1318 S1316 1.610 1_554 S
N1318 C1319 1.351 . S
C1319 C1313 1.428 . S
C1319 N1318 1.351 . S
C1319 C1320 1.434 1_554 S
C1320 C1311 1.429 1_455 S
C1320 N1317 1.350 . S
C1320 C1319 1.434 1_556 S
C1321 C1322 1.369 1_545 S
C1321 C1323 1.419 . S
C1321 H1325 0.930 . S
C1322 C1321 1.369 1_565 S
C1322 C1331 1.429 . S
C1323 C1321 1.419 . S
C1323 C1324 1.363 . S
C1323 H1326 0.929 . S
C1324 C1323 1.363 . S
C1324 C1330 1.428 1_545 S
H1325 C1321 0.930 . S
H1326 C1323 0.929 . S
S1327 N1328 1.613 . S
S1327 N1329 1.610 . S
N1328 S1327 1.613 . S
N1328 C1331 1.350 . S
N1329 S1327 1.610 . S
N1329 C1330 1.351 . S
C1330 C1324 1.428 1_565 S
C1330 N1329 1.351 . S
C1330 C1331 1.434 . S
C1331 C1322 1.429 . S
C1331 N1328 1.350 . S
C1331 C1330 1.434 . S
C1332 C1333 1.369 . S
C1332 C1334 1.419 . S
C1332 H1336 0.930 . S
C1333 C1332 1.369 . S
C1333 C1342 1.429 1_556 S
C1334 C1332 1.419 . S
C1334 C1335 1.363 1_556 S
C1334 H1337 0.929 . S
C1335 C1334 1.363 1_554 S
C1335 C1341 1.428 . S
H1336 C1332 0.930 . S
H1337 C1334 0.929 . S
S1338 N1339 1.613 . S
S1338 N1340 1.610 . S
N1339 S1338 1.613 . S
N1339 C1342 1.350 . S
N1340 S1338 1.610 . S
N1340 C1341 1.351 . S
C1341 C1335 1.428 . S
C1341 N1340 1.351 . S
C1341 C1342 1.434 . S
C1342 C1333 1.429 1_554 S
C1342 N1339 1.350 . S
C1342 C1341 1.434 . S
C1343 C1344 1.369 . S
C1343 C1345 1.419 1_455 S
C1343 H1347 0.930 . S
C1344 C1343 1.369 . S
C1344 C1353 1.429 . S
C1345 C1343 1.419 1_655 S
C1345 C1346 1.363 . S
C1345 H1348 0.929 . S
C1346 C1345 1.363 . S
C1346 C1352 1.428 . S
H1347 C1343 0.930 . S
H1348 C1345 0.929 . S
S1349 N1350 1.613 1_655 S
S1349 N1351 1.610 . S
N1350 S1349 1.613 1_455 S
N1350 C1353 1.350 . S
N1351 S1349 1.610 . S
N1351 C1352 1.351 . S
C1352 C1346 1.428 . S
C1352 N1351 1.351 . S
C1352 C1353 1.434 1_655 S
C1353 C1344 1.429 . S
C1353 N1350 1.350 . S
C1353 C1352 1.434 1_455 S
C1354 C1355 1.369 . S
C1354 C1356 1.403 1_546 S
C1354 H1358 0.930 . S
C1355 C1354 1.369 . S
C1355 C1364 1.429 . S
C1356 C1354 1.403 1_564 S
C1356 C1357 1.380 . S
C1356 H1359 0.929 . S
C1357 C1356 1.380 . S
C1357 C1363 1.428 . S
H1358 C1354 0.930 . S
H1359 C1356 0.929 . S
S1360 N1361 1.613 1_554 S
S1360 N1362 1.610 1_545 S
N1361 S1360 1.613 1_556 S
N1361 C1364 1.350 . S
N1362 S1360 1.610 1_565 S
N1362 C1363 1.351 . S
C1363 C1357 1.428 . S
C1363 N1362 1.351 . S
C1363 C1364 1.434 1_564 S
C1364 C1355 1.429 . S
C1364 N1361 1.350 . S
C1364 C1363 1.434 1_546 S
C1365 C1366 1.369 . S
C1365 C1367 1.419 . S
C1365 H1369 0.930 . S
C1366 C1365 1.369 . S
C1366 C1375 1.429 . S
C1367 C1365 1.419 . S
C1367 C1368 1.363 . S
C1367 H1370 0.929 . S
C1368 C1367 1.363 . S
C1368 C1374 1.428 . S
H1369 C1365 0.930 . S
H1370 C1367 0.929 . S
S1371 N1372 1.613 . S
S1371 N1373 1.610 . S
N1372 S1371 1.613 . S
N1372 C1375 1.350 . S
N1373 S1371 1.610 . S
N1373 C1374 1.351 . S
C1374 C1368 1.428 . S
C1374 N1373 1.351 . S
C1374 C1375 1.434 . S
C1375 C1366 1.429 . S
C1375 N1372 1.350 . S
C1375 C1374 1.434 . S
C1376 C1377 1.369 . S
C1376 C1378 1.419 1_455 S
C1376 H1380 0.930 . S
C1377 C1376 1.369 . S
C1377 C1386 1.429 1_554 S
C1378 C1376 1.419 1_655 S
C1378 C1379 1.363 1_554 S
C1378 H1381 0.929 . S
C1379 C1378 1.363 1_556 S
C1379 C1385 1.428 . S
H1380 C1376 0.930 . S
H1381 C1378 0.929 . S
S1382 N1383 1.613 . S
S1382 N1384 1.610 1_455 S
N1383 S1382 1.613 . S
N1383 C1386 1.350 . S
N1384 S1382 1.610 1_655 S
N1384 C1385 1.351 . S
C1385 C1379 1.428 . S
C1385 N1384 1.351 . S
C1385 C1386 1.434 1_655 S
C1386 C1377 1.429 1_556 S
C1386 N1383 1.350 . S
C1386 C1385 1.434 1_455 S
C1387 C1388 1.369 . S
C1387 C1389 1.419 1_545 S
C1387 H1391 0.930 . S
C1388 C1387 1.369 . S
C1388 C1397 1.429 . S
C1389 C1387 1.419 1_565 S
C1389 C1390 1.363 . S
C1389 H1392 0.929 . S
C1390 C1389 1.363 . S
C1390 C1396 1.428 . S
H1391 C1387 0.930 . S
H1392 C1389 0.929 . S
S1393 N1394 1.613 . S
S1393 N1395 1.610 1_545 S
N1394 S1393 1.613 . S
N1394 C1397 1.350 . S
N1395 S1393 1.610 1_565 S
N1395 C1396 1.351 . S
C1396 C1390 1.428 . S
C1396 N1395 1.351 . S
C1396 C1397 1.434 1_565 S
C1397 C1388 1.429 . S
C1397 N1394 1.350 . S
C1397 C1396 1.434 1_545 S
C1398 C1399 1.368 1_545 S
C1398 C1400 1.425 . S
C1398 H1402 0.925 1_545 S
C1399 C1398 1.368 1_565 S
C1399 C1408 1.429 1_565 S
C1400 C1398 1.425 . S
C1400 C1401 1.363 . S
C1400 H1403 0.929 . S
C1401 C1400 1.363 . S
C1401 C1407 1.428 . S
H1402 C1398 0.925 1_565 S
H1403 C1400 0.929 . S
S1404 N1405 1.613 . S
S1404 N1406 1.610 . S
N1405 S1404 1.613 . S
N1405 C1408 1.350 . S
N1406 S1404 1.610 . S
N1406 C1407 1.351 . S
C1407 C1401 1.428 . S
C1407 N1406 1.351 . S
C1407 C1408 1.434 . S
C1408 C1399 1.429 1_545 S
C1408 N1405 1.350 . S
C1408 C1407 1.434 . S
C1409 C1410 1.369 . S
C1409 C1411 1.419 . S
C1409 H1413 0.930 . S
C1410 C1409 1.369 . S
C1410 C1419 1.429 . S
C1411 C1409 1.419 . S
C1411 C1412 1.363 . S
C1411 H1414 0.929 . S
C1412 C1411 1.363 . S
C1412 C1418 1.428 . S
H1413 C1409 0.930 . S
H1414 C1411 0.929 . S
S1415 N1416 1.613 . S
S1415 N1417 1.610 . S
N1416 S1415 1.613 . S
N1416 C1419 1.350 . S
N1417 S1415 1.610 . S
N1417 C1418 1.351 . S
C1418 C1412 1.428 . S
C1418 N1417 1.351 . S
C1418 C1419 1.434 . S
C1419 C1410 1.429 . S
C1419 N1416 1.350 . S
C1419 C1418 1.434 . S
C1420 C1421 1.369 . S
C1420 C1422 1.419 1_655 S
C1420 H1424 0.930 . S
C1421 C1420 1.369 . S
C1421 C1430 1.429 . S
C1422 C1420 1.419 1_455 S
C1422 C1423 1.363 1_455 S
C1422 H1425 0.929 . S
C1423 C1422 1.363 1_655 S
C1423 C1429 1.428 . S
H1424 C1420 0.930 . S
H1425 C1422 0.929 . S
S1426 N1427 1.613 . S
S1426 N1428 1.610 . S
N1427 S1426 1.613 . S
N1427 C1430 1.350 . S
N1428 S1426 1.610 . S
N1428 C1429 1.351 . S
C1429 C1423 1.428 . S
C1429 N1428 1.351 . S
C1429 C1430 1.434 . S
C1430 C1421 1.429 . S
C1430 N1427 1.350 . S
C1430 C1429 1.434 . S
C1431 C1432 1.358 1_565 S
C1431 C1433 1.419 . S
C1431 H1435 0.930 . S
C1432 C1431 1.358 1_545 S
C1432 C1441 1.423 . S
C1433 C1431 1.419 . S
C1433 C1434 1.363 . S
C1433 H1436 0.929 . S
C1434 C1433 1.363 . S
C1434 C1440 1.428 . S
H1435 C1431 0.930 . S
H1436 C1433 0.929 . S
S1437 N1438 1.613 . S
S1437 N1439 1.610 1_545 S
N1438 S1437 1.613 . S
N1438 C1441 1.350 . S
N1439 S1437 1.610 1_565 S
N1439 C1440 1.351 . S
C1440 C1434 1.428 . S
C1440 N1439 1.351 . S
C1440 C1441 1.434 1_565 S
C1441 C1432 1.423 . S
C1441 N1438 1.350 . S
C1441 C1440 1.434 1_545 S
C1442 C1443 1.369 . S
C1442 C1444 1.419 . S
C1442 H1446 0.930 . S
C1443 C1442 1.369 . S
C1443 C1452 1.429 . S
C1444 C1442 1.419 . S
C1444 C1445 1.363 . S
C1444 H1447 0.929 . S
C1445 C1444 1.363 . S
C1445 C1451 1.428 . S
H1446 C1442 0.930 . S
H1447 C1444 0.929 . S
S1448 N1449 1.613 . S
S1448 N1450 1.610 . S
N1449 S1448 1.613 . S
N1449 C1452 1.350 . S
N1450 S1448 1.610 . S
N1450 C1451 1.351 . S
C1451 C1445 1.428 . S
C1451 N1450 1.351 . S
C1451 C1452 1.434 . S
C1452 C1443 1.429 . S
C1452 N1449 1.350 . S
C1452 C1451 1.434 . S
C1453 C1454 1.369 1_455 S
C1453 C1455 1.419 . S
C1453 H1457 0.930 . S
C1454 C1453 1.369 1_655 S
C1454 C1463 1.429 1_655 S
C1455 C1453 1.419 . S
C1455 C1456 1.363 . S
C1455 H1458 0.929 . S
C1456 C1455 1.363 . S
C1456 C1462 1.428 . S
H1457 C1453 0.930 . S
H1458 C1455 0.929 . S
S1459 N1460 1.624 . S
S1459 N1461 1.610 . S
N1460 S1459 1.624 . S
N1460 C1463 1.349 . S
N1461 S1459 1.610 . S
N1461 C1462 1.351 . S
C1462 C1456 1.428 . S
C1462 N1461 1.351 . S
C1462 C1463 1.434 . S
C1463 C1454 1.429 1_455 S
C1463 N1460 1.349 . S
C1463 C1462 1.434 . S
C1464 C1465 1.369 . S
C1464 C1466 1.419 . S
C1464 H1468 0.930 . S
C1465 C1464 1.369 . S
C1465 C1474 1.429 . S
C1466 C1464 1.419 . S
C1466 C1467 1.354 1_655 S
C1466 H1469 0.929 . S
C1467 C1466 1.354 1_455 S
C1467 C1473 1.426 1_455 S
H1468 C1464 0.930 . S
H1469 C1466 0.929 . S
S1470 N1471 1.613 1_455 S
S1470 N1472 1.610 . S
N1471 S1470 1.613 1_655 S
N1471 C1474 1.350 . S
N1472 S1470 1.610 . S
N1472 C1473 1.351 1_455 S
C1473 C1467 1.426 1_655 S
C1473 N1472 1.351 1_655 S
C1473 C1474 1.434 . S
C1474 C1465 1.429 . S
C1474 N1471 1.350 . S
C1474 C1473 1.434 . S
C1475 C1476 1.367 1_545 S
C1475 C1477 1.419 1_545 S
C1475 H1479 0.930 . S
C1476 C1475 1.367 1_565 S
C1476 C1485 1.432 . S
C1477 C1475 1.419 1_565 S
C1477 C1478 1.363 . S
C1477 H1480 0.929 . S
C1478 C1477 1.363 . S
C1478 C1484 1.428 . S
H1479 C1475 0.930 . S
H1480 C1477 0.929 . S
S1481 N1482 1.613 . S
S1481 N1483 1.610 . S
N1482 S1481 1.613 . S
N1482 C1485 1.350 . S
N1483 S1481 1.610 . S
N1483 C1484 1.351 . S
C1484 C1478 1.428 . S
C1484 N1483 1.351 . S
C1484 C1485 1.434 . S
C1485 C1476 1.432 . S
C1485 N1482 1.350 . S
C1485 C1484 1.434 . S
C1486 C1487 1.369 . S
C1486 C1488 1.419 . S
C1486 H1490 0.930 . S
C1487 C1486 1.369 . S
C1487 C1496 1.429 . S
C1488 C1486 1.419 . S
C1488 C1489 1.363 . S
C1488 H1491 0.929 . S
C1489 C1488 1.363 . S
C1489 C1495 1.428 . S
H1490 C1486 0.930 . S
H1491 C1488 0.929 . S
S1492 N1493 1.613 . S
S1492 N1494 1.610 . S
N1493 S1492 1.613 . S
N1493 C1496 1.350 . S
N1494 S1492 1.610 . S
N1494 C1495 1.351 . S
C1495 C1489 1.428 . S
C1495 N1494 1.351 . S
C1495 C1496 1.434 . S
C1496 C1487 1.429 . S
C1496 N1493 1.350 . S
C1496 C1495 1.434 . S
C1497 C1498 1.369 . S
C1497 C1499 1.419 1_455 S
C1497 H1501 0.930 . S
C1498 C1497 1.369 . S
C1498 C1507 1.429 . S
C1499 C1497 1.419 1_655 S
C1499 C1500 1.363 1_655 S
C1499 H1502 0.929 . S
C1500 C1499 1.363 1_455 S
C1500 C1506 1.429 . S
H1501 C1497 0.930 . S
H1502 C1499 0.929 . S
S1503 N1504 1.613 . S
S1503 N1505 1.610 . S
N1504 S1503 1.613 . S
N1504 C1507 1.350 . S
N1505 S1503 1.610 . S
N1505 C1506 1.351 . S
C1506 C1500 1.429 . S
C1506 N1505 1.351 . S
C1506 C1507 1.434 . S
C1507 C1498 1.429 . S
C1507 N1504 1.350 . S
C1507 C1506 1.434 . S
C1508 C1509 1.369 . S
C1508 C1510 1.419 . S
C1508 H1512 0.930 . S
C1509 C1508 1.369 . S
C1509 C1518 1.429 . S
C1510 C1508 1.419 . S
C1510 C1511 1.364 1_545 S
C1510 H1513 0.929 1_545 S
C1511 C1510 1.364 1_565 S
C1511 C1517 1.429 1_565 S
H1512 C1508 0.930 . S
H1513 C1510 0.929 1_565 S
S1514 N1515 1.613 . S
S1514 N1516 1.610 . S
N1515 S1514 1.613 . S
N1515 C1518 1.350 . S
N1516 S1514 1.610 . S
N1516 C1517 1.351 . S
C1517 C1511 1.429 1_545 S
C1517 N1516 1.351 . S
C1517 C1518 1.434 . S
C1518 C1509 1.429 . S
C1518 N1515 1.350 . S
C1518 C1517 1.434 . S
C1519 C1520 1.369 . S
C1519 C1521 1.419 . S
C1519 H1523 0.930 . S
C1520 C1519 1.369 . S
C1520 C1529 1.429 . S
C1521 C1519 1.419 . S
C1521 C1522 1.363 . S
C1521 H1524 0.929 . S
C1522 C1521 1.363 . S
C1522 C1528 1.428 . S
H1523 C1519 0.930 . S
H1524 C1521 0.929 . S
S1525 N1526 1.613 . S
S1525 N1527 1.610 . S
N1526 S1525 1.613 . S
N1526 C1529 1.350 . S
N1527 S1525 1.610 . S
N1527 C1528 1.351 . S
C1528 C1522 1.428 . S
C1528 N1527 1.351 . S
C1528 C1529 1.434 . S
C1529 C1520 1.429 . S
C1529 N1526 1.350 . S
C1529 C1528 1.434 . S
C1069 C63 2.440 . S
C1071 C417 2.642 . S
C1080 C506 2.643 . S
C1082 C152 2.441 . S
C1091 C61 2.642 . S
C1093 C241 2.444 . S
C1102 C150 2.643 . S
C1104 C330 2.442 . S
C1113 C419 2.447 . S
C1115 C239 2.638 . S
C1124 C328 2.643 . S
C1126 C508 2.442 . S
C1135 C597 2.448 . S
C1137 C773 2.639 . S
C1146 C686 2.439 . S
C1148 C862 2.639 . S
C1157 C951 2.638 . S
C1159 C775 2.442 . S
C1168 C1040 2.642 . S
C1170 C864 2.445 . S
C1179 C595 2.637 . S
C1181 C953 2.442 . S
C1190 C1042 2.439 . S
C1192 C684 2.640 . S
C1201 C908 1.716 . S
C1203 C18 1.715 . S
C1212 C997 1.712 . S
C1214 C107 1.713 . S
C1223 C552 1.711 . S
C1225 C196 1.712 . S
C1234 C641 1.712 . S
C1236 C285 1.713 . S
C1245 C374 1.714 . S
C1247 C730 1.713 . S
C1256 C819 1.712 . S
C1258 C463 1.712 . S
C1267 C874 1.690 . S
C1269 C73 1.690 . S
C1278 C963 1.683 . S
C1280 C162 1.684 . S
C1289 C251 1.686 . S
C1291 C1052 1.687 . S
C1300 C607 1.690 . S
C1302 C340 1.689 . S
C1311 C696 1.684 . S
C1313 C429 1.685 . S
C1322 C785 1.688 . S
C1324 C518 1.688 . S
C1333 C649 1.190 . S
C1335 C204 1.182 . S
C1344 C738 1.180 . S
C1346 C293 1.190 . S
C1355 C827 1.183 . S
C1357 C382 1.185 . S
C1366 C916 1.179 . S
C1368 C471 1.190 . S
C1377 C26 1.197 . S
C1379 C1005 1.185 . S
C1388 C115 1.195 . S
C1390 C560 1.182 . S
C1399 C357 1.628 . S
C1401 C70 1.499 . S
C1410 C446 1.621 . S
C1412 C159 1.506 . S
C1421 C248 1.504 . S
C1423 C1 1.633 1_655 S
C1432 C90 1.637 . S
C1434 C337 1.509 . S
C1443 C179 1.634 . S
C1445 C426 1.503 . S
C1454 C268 1.629 . S
C1456 C515 1.510 . S
C1465 C604 1.514 . S
C1467 C713 1.634 . S
C1476 C802 1.632 1_565 S
C1478 C693 1.502 . S
C1487 C891 1.634 . S
C1489 C782 1.505 . S
C1498 C871 1.501 . S
C1500 C980 1.632 1_455 S
C1509 C960 1.497 . S
C1511 C535 1.628 . S
C1520 C624 1.622 . S
C1522 C1049 1.512 . S
