# Generated by pormake.
# Topology sma, (6)-cn, num edge types: 1
# Building blocks:
#     Node 0, Type 0, BuildingBlock: UKALOJ_clean_sbu_0, # of connection points: 6
#     Node 1, Type 0, BuildingBlock: UKALOJ_clean_sbu_0, # of connection points: 6
#     Node 2, Type 0, BuildingBlock: UKALOJ_clean_sbu_0, # of connection points: 6
#     Edge 3, Type (0, 0), BuildingBlock: TEMPAE_clean_linker_10, # of connection points: 2
#     Edge 4, Type (0, 0), BuildingBlock: TEMPAE_clean_linker_10, # of connection points: 2
#     Edge 5, Type (0, 0), BuildingBlock: TEMPAE_clean_linker_10, # of connection points: 2
#     Edge 6, Type (0, 0), BuildingBlock: TEMPAE_clean_linker_10, # of connection points: 2
#     Edge 7, Type (0, 0), BuildingBlock: TEMPAE_clean_linker_10, # of connection points: 2
#     Edge 8, Type (0, 0), BuildingBlock: TEMPAE_clean_linker_10, # of connection points: 2
#     Edge 9, Type (0, 0), BuildingBlock: TEMPAE_clean_linker_10, # of connection points: 2
#     Edge 10, Type (0, 0), BuildingBlock: TEMPAE_clean_linker_10, # of connection points: 2
#     Edge 11, Type (0, 0), BuildingBlock: TEMPAE_clean_linker_10, # of connection points: 2
# Relax obj value: 0.566
# Max RMSD: 0.350
# Mean RMSD: 0.350
data_MOF--net-sma--node1-UKALOJ_clean_sbu_0--edge1-TEMPAE_clean_linker_10
_symmetry_space_group_name_H-M    P1
_symmetry_Int_Tables_number       1
_symmetry_cell_setting            triclinic
loop_
_symmetry_equiv_pos_as_xyz
'x, y, z'
_cell_length_a     26.80836
_cell_length_b     26.859856
_cell_length_c     18.661027
_cell_angle_alpha  88.884906
_cell_angle_beta   90.297723
_cell_angle_gamma 119.95132
loop_
_atom_site_label
_atom_site_type_symbol
_atom_site_fract_x
_atom_site_fract_y
_atom_site_fract_z
_atom_type_partial_charge
Zn0 Zn 0.05523 0.56886 0.11507 0.0
O1 O 0.13156 0.6537 0.14162 0.0
C2 C 0.14095 0.52959 0.10014 0.0
Zn3 Zn 0.05956 0.52742 0.20693 0.0
C4 C 0.13686 0.65527 0.20984 0.0
O5 O 0.10797 0.60928 0.24534 0.0
C6 C 0.97157 0.43577 0.13756 0.0
O7 O 0.97469 0.52786 0.23069 0.0
O8 O 1.0067 0.59935 0.15411 0.0
N9 N 0.06655 0.4997 0.30565 0.0
C10 C 0.05506 0.51423 0.36937 0.0
C11 C 0.10795 0.47699 0.38906 0.0
N12 N 0.099 0.47605 0.31781 0.0
N13 N 0.08042 0.50042 0.42227 0.0
C14 C 0.08348 0.62432 0.96484 0.0
C15 C 1.00052 0.58658 0.91723 0.0
N16 N 0.04452 0.5946 0.01661 0.0
N17 N 0.99288 0.57192 0.98733 0.0
N18 N 0.05706 0.61915 0.90142 0.0
H19 H 0.15431 0.69302 0.01877 0.0
H20 H 0.17014 0.68547 0.92832 0.0
H21 H 0.16534 0.63442 -0.00323 0.0
C22 C 0.14699 0.66111 0.9774 0.0
C23 C 1.02108 0.54422 0.37985 0.0
H24 H 0.03555 0.58119 0.34222 0.0
H25 H 1.0243 0.55945 0.4354 0.0
H26 H 0.9751 0.51356 0.36886 0.0
O27 O 1.01347 0.44532 0.17694 0.0
O28 O 0.97377 0.47886 0.10316 0.0
C29 C 0.96825 0.56688 0.19792 0.0
O30 O 0.10592 0.54045 0.06776 0.0
O31 O 0.13906 0.52725 0.16879 0.0
Zn32 Zn 0.56536 0.03995 0.53442 0.0
O33 O 0.64797 0.11635 0.49652 0.0
C34 C 0.52476 0.1225 0.50926 0.0
Zn35 Zn 0.52956 0.03075 0.43734 0.0
C36 C 0.65402 0.11334 0.42882 0.0
O37 O 0.61269 0.07317 0.39558 0.0
C38 C 0.43407 0.95539 0.51766 0.0
O39 O 0.52953 0.94438 0.45027 0.0
O40 O 0.60218 0.98987 0.52003 0.0
N41 N 0.4996 1.01725 0.33672 0.0
C42 C 0.48153 0.97203 0.29351 0.0
C43 C 0.48001 0.03933 0.23324 0.0
N44 N 0.49786 0.0588 0.29961 0.0
N45 N 0.46937 0.9849 0.22802 0.0
C46 C 0.55983 0.02342 0.69487 0.0
C47 C 0.64613 0.04654 0.72194 0.0
N48 N 0.59191 0.04527 0.63548 0.0
N49 N 0.64564 0.05995 0.65204 0.0
N50 N 0.59251 0.0227 0.74905 0.0
H51 H 0.48375 0.02534 0.65934 0.0
H52 H 0.48747 1.01519 0.75458 0.0
H53 H 0.47116 0.95722 0.69563 0.0
C54 C 0.497 1.00453 0.70104 0.0
C55 C 0.47352 0.9147 0.31619 0.0
H56 H 0.44826 0.90001 0.36675 0.0
H57 H 0.51622 0.91834 0.32411 0.0
H58 H 0.45046 0.88197 0.2751 0.0
O59 O 0.44778 0.99273 0.46906 0.0
O60 O 0.47495 0.95819 0.557 0.0
C61 C 0.56764 0.94346 0.49117 0.0
O62 O 0.53241 0.09286 0.55669 0.0
O63 O 0.52871 0.11284 0.44315 0.0
Zn64 Zn 0.52444 0.51773 0.88635 0.0
O65 O 0.52216 0.43437 0.87599 0.0
C66 C 0.64872 0.5596 0.90909 0.0
Zn67 Zn 0.56991 0.55279 0.79517 0.0
C68 C 0.52417 0.42666 0.80896 0.0
O69 O 0.53789 0.46859 0.76654 0.0
C70 C 0.56519 0.6463 0.83911 0.0
O71 O 0.48331 0.54756 0.76339 0.0
O72 O 0.44578 0.4783 0.84276 0.0
N73 N 0.60591 0.57428 0.69727 0.0
C74 C 0.58067 0.5553 0.63369 0.0
C75 C 0.67156 0.59855 0.61629 0.0
N76 N 0.66239 0.6014 0.68671 0.0
N77 N 0.6208 0.56961 0.58254 0.0
C78 C 0.48801 0.46649 0.03738 0.0
C79 C 0.46031 0.52105 0.08165 0.0
N80 N 0.48649 0.49974 0.98369 0.0
N81 N 0.46818 0.53293 0.01087 0.0
N82 N 0.47304 0.47984 0.09986 0.0
H83 H 0.47315 0.38914 0.98806 0.0
H84 H 0.49608 0.39471 0.07881 0.0
H85 H 0.54757 0.43845 0.00966 0.0
C86 C 0.50237 0.41968 0.02834 0.0
C87 C 0.51678 0.52454 0.6212 0.0
H88 H 0.49418 0.48814 0.65962 0.0
H89 H 0.50524 0.50836 0.56596 0.0
H90 H 0.50089 0.55503 0.62931 0.0
O91 O 0.60512 0.63854 0.81735 0.0
O92 O 0.52581 0.60534 0.87756 0.0
C93 C 0.43847 0.5089 0.7971 0.0
O94 O 0.60395 0.55419 0.93897 0.0
O95 O 0.64837 0.5557 0.84079 0.0
C96 C 0.23635 0.53198 0.07732 0.0
C97 C 0.18201 0.52129 0.05425 0.0
C98 C 0.27597 0.53014 0.02859 0.0
C99 C 0.26122 0.51779 0.95503 0.0
C100 C 0.20562 0.50491 0.93269 0.0
C101 C 0.16725 0.50688 0.982 0.0
C102 C 0.33338 0.54061 0.05592 0.0
C103 C 0.1855 0.48739 0.85688 0.0
C104 C 0.3863 0.56314 0.82088 0.0
C105 C 0.38433 0.51071 0.80914 0.0
C106 C 0.34504 0.56583 0.86551 0.0
C107 C 0.30229 0.51541 0.90183 0.0
C108 C 0.29784 0.46205 0.88573 0.0
C109 C 0.33719 0.46026 0.83773 0.0
C110 C 0.34888 0.6231 0.87648 0.0
C111 C 0.2556 0.4072 0.92474 0.0
H112 H 0.24839 0.54301 0.13273 0.0
H113 H 0.12507 0.49731 0.96327 0.0
H114 H 0.33825 0.50281 0.04478 0.0
H115 H 0.36877 0.57813 0.02732 0.0
H116 H 0.33827 0.54855 0.11442 0.0
H117 H 0.14694 0.49109 0.84428 0.0
H118 H 0.2202 0.51351 0.81759 0.0
H119 H 0.17347 0.44186 0.84994 0.0
H120 H 0.42246 0.60254 0.80005 0.0
H121 H 0.33538 0.41948 0.82976 0.0
H122 H 0.36159 0.63674 0.93251 0.0
H123 H 0.3061 0.61925 0.86769 0.0
H124 H 0.38074 0.65706 0.83975 0.0
H125 H 0.27158 0.40773 0.97987 0.0
H126 H 0.25064 0.36847 0.89777 0.0
H127 H 0.2126 0.40317 0.92976 0.0
C128 C 0.74336 0.21237 0.40935 0.0
C129 C 0.70331 0.15784 0.38404 0.0
C130 C 0.7842 0.25565 0.36237 0.0
C131 C 0.78495 0.24459 0.28816 0.0
C132 C 0.74483 0.1896 0.26277 0.0
C133 C 0.7054 0.14723 0.31063 0.0
C134 C 0.82609 0.31371 0.39179 0.0
C135 C 0.74251 0.17581 0.18429 0.0
C136 C 0.86386 0.37505 0.15868 0.0
C137 C 0.91803 0.37935 0.15253 0.0
C138 C 0.81922 0.33027 0.20022 0.0
C139 C 0.82914 0.28926 0.23745 0.0
C140 C 0.88196 0.29068 0.22591 0.0
C141 C 0.92487 0.33465 0.18287 0.0
C142 C 0.76285 0.32942 0.20729 0.0
C143 C 0.89488 0.2479 0.26298 0.0
H144 H 0.7419 0.22172 0.46528 0.0
H145 H 0.67482 0.10563 0.28951 0.0
H146 H 0.8709 0.3239 0.38078 0.0
H147 H 0.81997 0.34731 0.36436 0.0
H148 H 0.82073 0.3158 0.45045 0.0
H149 H 0.70771 0.13152 0.17244 0.0
H150 H 0.73538 0.20668 0.15164 0.0
H151 H 0.78419 0.18051 0.16695 0.0
H152 H 0.85743 0.40851 0.13496 0.0
H153 H 0.96626 0.33689 0.17813 0.0
H154 H 0.76617 0.35779 0.2517 0.0
H155 H 0.72637 0.2857 0.21915 0.0
H156 H 0.75309 0.34587 0.15727 0.0
H157 H 0.89507 0.25297 0.32189 0.0
H158 H 0.93717 0.25346 0.24657 0.0
H159 H 0.86091 0.20336 0.25113 0.0
C160 C 0.51037 0.83892 0.53406 0.0
C161 C 0.56317 0.8902 0.52585 0.0
C162 C 0.50279 0.79642 0.58635 0.0
C163 C 0.54957 0.80439 0.6306 0.0
C164 C 0.60392 0.85422 0.61865 0.0
C165 C 0.60991 0.89599 0.56714 0.0
C166 C 0.44398 0.74421 0.59636 0.0
C167 C 0.65594 0.86431 0.66165 0.0
C168 C 0.53767 0.72409 0.81052 0.0
C169 C 0.55215 0.68313 0.7889 0.0
C170 C 0.53375 0.7622 0.7594 0.0
C171 C 0.54405 0.75911 0.68503 0.0
C172 C 0.55549 0.71571 0.66329 0.0
C173 C 0.55928 0.67896 0.71481 0.0
C174 C 0.52066 0.80718 0.78519 0.0
C175 C 0.56701 0.70977 0.58559 0.0
H176 H 0.47439 0.83315 0.5018 0.0
H177 H 0.65124 0.93506 0.56155 0.0
H178 H 0.44678 0.70438 0.59814 0.0
H179 H 0.42569 0.74688 0.64841 0.0
H180 H 0.41396 0.74075 0.553 0.0
H181 H 0.69532 0.90495 0.64573 0.0
H182 H 0.64773 0.86598 0.71952 0.0
H183 H 0.66424 0.82815 0.65463 0.0
H184 H 0.53169 0.72791 0.86711 0.0
H185 H 0.56959 0.64728 0.69658 0.0
H186 H 0.48433 0.80532 0.75422 0.0
H187 H 0.5586 0.85051 0.77595 0.0
H188 H 0.50964 0.80167 0.84315 0.0
H189 H 0.53189 0.70703 0.55122 0.0
H190 H 0.57114 0.67119 0.57664 0.0
H191 H 0.60751 0.74835 0.56767 0.0
C192 C 0.73935 0.55362 0.93356 0.0
C193 C 0.69671 0.56554 0.9567 0.0
C194 C 0.78008 0.55338 0.98221 0.0
C195 C 0.77841 0.56536 0.05587 0.0
C196 C 0.73601 0.57827 0.07895 0.0
C197 C 0.69614 0.57826 0.02954 0.0
C198 C 0.82482 0.53991 0.95498 0.0
C199 C 0.73272 0.59258 0.15598 0.0
C200 C 0.85995 0.51708 0.18432 0.0
C201 C 0.91312 0.56789 0.19008 0.0
C202 C 0.81421 0.51614 0.14455 0.0
C203 C 0.82235 0.56673 0.10806 0.0
C204 C 0.87377 0.61903 0.12019 0.0
C205 C 0.91737 0.61915 0.16255 0.0
C206 C 0.75869 0.45998 0.13817 0.0
C207 C 0.88527 0.67427 0.08307 0.0
H208 H 0.74008 0.54316 0.87793 0.0
H209 H 0.66373 0.58777 0.04864 0.0
H210 H 0.86858 0.57588 0.96681 0.0
H211 H 0.82004 0.501 0.9832 0.0
H212 H 0.82134 0.53246 0.89636 0.0
H213 H 0.69101 0.59002 0.16843 0.0
H214 H 0.73891 0.56339 0.19313 0.0
H215 H 0.76756 0.637 0.16649 0.0
H216 H 0.85533 0.47742 0.20637 0.0
H217 H 0.95795 0.659 0.16728 0.0
H218 H 0.76233 0.43588 0.09277 0.0
H219 H 0.72136 0.46632 0.12831 0.0
H220 H 0.75008 0.43343 0.18779 0.0
H221 H 0.8893 0.67068 0.02448 0.0
H222 H 0.92541 0.71204 0.10217 0.0
H223 H 0.84895 0.6822 0.09146 0.0
C224 C 0.36753 0.84921 0.5017 0.0
C225 C 0.37526 0.9045 0.50812 0.0
C226 C 0.32482 0.80848 0.45592 0.0
C227 C 0.28908 0.82355 0.41493 0.0
C228 C 0.2929 0.87717 0.42753 0.0
C229 C 0.33407 0.91559 0.47576 0.0
C230 C 0.32141 0.75104 0.44887 0.0
C231 C 0.2566 0.89622 0.38605 0.0
C232 C 0.23261 0.74348 0.23714 0.0
C233 C 0.17417 0.70724 0.2525 0.0
C234 C 0.26992 0.78247 0.28877 0.0
C235 C 0.24883 0.7846 0.358 0.0
C236 C 0.18896 0.75004 0.37166 0.0
C237 C 0.15286 0.71247 0.31896 0.0
C238 C 0.33241 0.82019 0.26984 0.0
C239 C 0.16151 0.75103 0.44164 0.0
H240 H 0.39745 0.83918 0.52802 0.0
H241 H 0.33893 0.95796 0.481 0.0
H242 H 0.28163 0.71874 0.42195 0.0
H243 H 0.35926 0.75689 0.41786 0.0
H244 H 0.32348 0.73383 0.50272 0.0
H245 H 0.27169 0.94262 0.39266 0.0
H246 H 0.25705 0.88801 0.32803 0.0
H247 H 0.21141 0.87144 0.40511 0.0
H248 H 0.24973 0.73933 0.18652 0.0
H249 H 0.10751 0.68495 0.33128 0.0
H250 H 0.35765 0.80391 0.29909 0.0
H251 H 0.34774 0.86497 0.28661 0.0
H252 H 0.34065 0.82051 0.21149 0.0
H253 H 0.19295 0.77261 0.4851 0.0
H254 H 0.12995 0.70651 0.45956 0.0
H255 H 0.13678 0.77363 0.43296 0.0
C256 C 0.47683 0.35707 0.7124 0.0
C257 C 0.50969 0.37139 0.77544 0.0
C258 C 0.47486 0.31607 0.66524 0.0
C259 C 0.50608 0.28768 0.68141 0.0
C260 C 0.53694 0.29958 0.74703 0.0
C261 C 0.53857 0.34153 0.7933 0.0
C262 C 0.44142 0.30511 0.59636 0.0
C263 C 0.57054 0.27003 0.76657 0.0
C264 C 0.46739 0.14833 0.587 0.0
C265 C 0.51158 0.16629 0.53581 0.0
C266 C 0.46435 0.18737 0.63335 0.0
C267 C 0.50681 0.24626 0.62901 0.0
C268 C 0.54978 0.26529 0.57458 0.0
C269 C 0.55185 0.22499 0.52883 0.0
C270 C 0.41755 0.16492 0.68978 0.0
C271 C 0.59585 0.32766 0.56752 0.0
H272 H 0.45489 0.38051 0.69793 0.0
H273 H 0.5652 0.35341 0.84082 0.0
H274 H 0.47023 0.31327 0.54979 0.0
H275 H 0.40697 0.2594 0.59469 0.0
H276 H 0.42144 0.33257 0.5902 0.0
H277 H 0.58912 0.28099 0.8212 0.0
H278 H 0.54246 0.22272 0.76375 0.0
H279 H 0.60612 0.28282 0.72743 0.0
H280 H 0.43707 0.10274 0.59385 0.0
H281 H 0.58728 0.23889 0.49128 0.0
H282 H 0.39434 0.18943 0.68757 0.0
H283 H 0.43706 0.17093 0.74377 0.0
H284 H 0.38585 0.11857 0.68339 0.0
H285 H 0.57735 0.35625 0.57313 0.0
H286 H 0.61885 0.33732 0.51528 0.0
H287 H 0.62771 0.338 0.61104 0.0
C288 C 0.05271 0.63418 0.77216 0.0
C289 C 0.08021 0.62488 0.83057 0.0
C290 C 0.0636 0.62405 0.70216 0.0
C291 C 0.10321 0.60465 0.69095 0.0
C292 C 0.13598 0.60185 0.74855 0.0
C293 C 0.12293 0.6103 0.81806 0.0
C294 C 1.02887 0.62888 0.64127 0.0
C295 C 0.18056 0.58405 0.73777 0.0
C296 C 0.05721 0.49169 0.54937 0.0
C297 C 0.09239 0.52382 0.49217 0.0
C298 C 0.06164 0.51742 0.61531 0.0
C299 C 0.10198 0.5767 0.62309 0.0
C300 C 0.13938 0.60866 0.56598 0.0
C301 C 0.13396 0.58167 0.50068 0.0
C302 C 1.02191 0.48164 0.67585 0.0
C303 C 0.1835 0.67148 0.57316 0.0
H304 H 1.01966 0.6453 0.7819 0.0
H305 H 0.14301 0.60076 0.86259 0.0
H306 H 0.05666 0.65014 0.5937 0.0
H307 H 0.99528 0.58517 0.62541 0.0
H308 H 1.00735 0.65336 0.65655 0.0
H309 H 0.20946 0.59469 0.78478 0.0
H310 H 0.15857 0.5371 0.72883 0.0
H311 H 0.20737 0.60539 0.6897 0.0
H312 H 1.02486 0.44717 0.54132 0.0
H313 H 0.1604 0.60607 0.45511 0.0
H314 H 0.9934 0.49886 0.69044 0.0
H315 H 0.04738 0.484 0.72404 0.0
H316 H 0.99456 0.43579 0.66157 0.0
H317 H 0.16191 0.69604 0.58736 0.0
H318 H 0.20877 0.69003 0.52315 0.0
H319 H 0.21384 0.67747 0.61708 0.0
C320 C 0.50106 0.93441 0.14818 0.0
C321 C 0.46541 0.9577 0.16138 0.0
C322 C 0.51191 0.92473 0.07836 0.0
C323 C 0.48966 0.94248 0.02105 0.0
C324 C 0.44819 0.95923 0.03391 0.0
C325 C 0.43596 0.96593 0.10456 0.0
C326 C 0.55401 0.90386 0.06622 0.0
C327 C 0.42339 0.97842 0.97374 0.0
C328 C 0.59597 0.03399 0.87799 0.0
C329 C 0.57355 0.99884 0.81896 0.0
C330 C 0.56998 1.01501 0.94514 0.0
C331 C 0.52109 0.95918 0.95252 0.0
C332 C 0.50086 0.92203 0.89373 0.0
C333 C 0.5277 0.94249 0.82716 0.0
C334 C 0.5928 0.056 0.00698 0.0
C335 C 0.4501 0.8618 0.90065 0.0
H336 H 0.52557 0.92946 0.19108 0.0
H337 H 0.40818 0.98356 0.11514 0.0
H338 H 0.54313 0.87769 0.01727 0.0
H339 H 0.59793 0.94137 0.059 0.0
H340 H 0.55482 0.87783 0.11275 0.0
H341 H 0.3844 0.97953 0.9912 0.0
H342 H 0.45612 0.02236 0.95546 0.0
H343 H 0.41214 0.94978 0.9272 0.0
H344 H 0.63147 0.07748 0.87038 0.0
H345 H 0.51159 0.9155 0.78065 0.0
H346 H 0.60528 0.03682 0.0518 0.0
H347 H 0.55875 0.0642 0.02722 0.0
H348 H 0.6309 0.09787 0.99155 0.0
H349 H 0.46208 0.8353 0.93505 0.0
H350 H 0.43577 0.84097 0.84786 0.0
H351 H 0.41319 0.86193 0.92701 0.0
C352 C 0.61957 0.58776 0.45479 0.0
C353 C 0.61122 0.54963 0.5111 0.0
C354 C 0.59718 0.56698 0.38713 0.0
C355 C 0.5657 0.50676 0.37684 0.0
C356 C 0.56113 0.46834 0.43256 0.0
C357 C 0.58428 0.49049 0.49946 0.0
C358 C 0.60431 0.60924 0.32792 0.0
C359 C 0.52831 0.40399 0.42401 0.0
C360 C 0.45763 0.47187 0.22972 0.0
C361 C 0.4898 0.47256 0.1706 0.0
C362 C 0.47997 0.47831 0.29904 0.0
C363 C 0.53536 0.48499 0.30865 0.0
C364 C 0.56545 0.47999 0.2502 0.0
C365 C 0.54324 0.47577 0.18145 0.0
C366 C 0.44635 0.48225 0.36114 0.0
C367 C 0.62282 0.48299 0.25998 0.0
H368 H 0.64033 0.63337 0.46513 0.0
H369 H 0.57798 0.46152 0.54422 0.0
H370 H 0.62331 0.60152 0.27965 0.0
H371 H 0.56156 0.60312 0.31266 0.0
H372 H 0.63228 0.65455 0.34402 0.0
H373 H 0.54649 0.38304 0.4588 0.0
H374 H 0.48292 0.38721 0.44067 0.0
H375 H 0.52846 0.39131 0.36785 0.0
H376 H 0.41662 0.46978 0.22105 0.0
H377 H 0.56975 0.4789 0.13617 0.0
H378 H 0.46806 0.52705 0.38049 0.0
H379 H 0.44509 0.4542 0.40637 0.0
H380 H 0.40151 0.46975 0.34603 0.0
H381 H 0.65491 0.52583 0.28013 0.0
H382 H 0.63912 0.47501 0.20937 0.0
H383 H 0.61893 0.45068 0.30089 0.0
loop_
_geom_bond_atom_site_label_1
_geom_bond_atom_site_label_2
_geom_bond_distance
_geom_bond_site_symmetry_2
_ccdc_geom_bond_type
Zn0 O1 2.055 . S
Zn0 O8 2.046 1_455 S
Zn0 N16 2.036 1_454 S
Zn0 O28 2.053 1_455 S
Zn0 O30 2.066 . S
O1 Zn0 2.055 . S
O1 C4 1.259 . S
C2 O30 1.256 . S
C2 O31 1.244 . S
Zn3 O5 2.046 . S
Zn3 O7 2.055 1_455 S
Zn3 N9 2.036 . S
Zn3 O27 2.066 1_455 S
Zn3 O31 2.053 . S
C4 O1 1.259 . S
C4 O5 1.254 . S
O5 Zn3 2.046 . S
O5 C4 1.254 . S
C6 O27 1.256 . S
C6 O28 1.244 . S
O7 Zn3 2.055 1_655 S
O7 C29 1.259 . S
O8 Zn0 2.046 1_655 S
O8 C29 1.254 . S
N9 Zn3 2.036 . S
N9 C10 1.298 1_455 S
N9 N12 1.398 . S
C10 N9 1.298 1_655 S
C10 N13 1.367 1_655 S
C10 C23 1.481 . S
C11 N12 1.299 . S
C11 N13 1.379 . S
N12 N9 1.398 . S
N12 C11 1.299 . S
N13 C10 1.367 1_455 S
N13 C11 1.379 . S
C14 N16 1.298 1_455 S
C14 N18 1.367 . S
C14 C22 1.481 . S
C15 N17 1.299 . S
C15 N18 1.379 1_655 S
N16 Zn0 2.036 1_656 S
N16 C14 1.298 1_655 S
N16 N17 1.398 . S
N17 C15 1.299 . S
N17 N16 1.398 . S
N18 C14 1.367 . S
N18 C15 1.379 1_455 S
H19 C22 0.980 . S
H20 C22 0.981 . S
H21 C22 0.981 . S
C22 C14 1.481 . S
C22 H19 0.980 . S
C22 H20 0.981 . S
C22 H21 0.981 . S
C23 C10 1.481 . S
C23 H24 0.980 . S
C23 H25 0.981 . S
C23 H26 0.981 . S
H24 C23 0.980 . S
H25 C23 0.981 . S
H26 C23 0.981 . S
O27 Zn3 2.066 1_655 S
O27 C6 1.256 . S
O28 Zn0 2.053 1_655 S
O28 C6 1.244 . S
C29 O7 1.259 . S
C29 O8 1.254 . S
O30 Zn0 2.066 . S
O30 C2 1.256 . S
O31 C2 1.244 . S
O31 Zn3 2.053 . S
Zn32 O33 2.055 . S
Zn32 O40 2.046 1_545 S
Zn32 N48 2.036 1_545 S
Zn32 O60 2.053 1_545 S
Zn32 O62 2.066 . S
O33 Zn32 2.055 . S
O33 C36 1.259 . S
C34 O62 1.256 . S
C34 O63 1.244 . S
Zn35 O37 2.046 . S
Zn35 O39 2.055 1_545 S
Zn35 N41 2.036 . S
Zn35 O59 2.066 1_545 S
Zn35 O63 2.053 . S
C36 O33 1.259 . S
C36 O37 1.254 . S
O37 Zn35 2.046 . S
O37 C36 1.254 . S
C38 O59 1.256 . S
C38 O60 1.244 . S
O39 Zn35 2.055 1_565 S
O39 C61 1.259 . S
O40 Zn32 2.046 1_565 S
O40 C61 1.254 . S
N41 Zn35 2.036 . S
N41 C42 1.298 1_545 S
N41 N44 1.398 . S
C42 N41 1.298 1_565 S
C42 N45 1.367 1_565 S
C42 C55 1.481 . S
C43 N44 1.299 . S
C43 N45 1.379 . S
N44 N41 1.398 . S
N44 C43 1.299 . S
N45 C42 1.367 1_545 S
N45 C43 1.379 . S
C46 N48 1.298 1_545 S
C46 N50 1.367 . S
C46 C54 1.481 . S
C47 N49 1.299 . S
C47 N50 1.379 1_565 S
N48 Zn32 2.036 1_565 S
N48 C46 1.298 1_565 S
N48 N49 1.398 . S
N49 C47 1.299 . S
N49 N48 1.398 . S
N50 C46 1.367 . S
N50 C47 1.379 1_545 S
H51 C54 0.980 . S
H52 C54 0.981 . S
H53 C54 0.981 . S
C54 C46 1.481 . S
C54 H51 0.980 . S
C54 H52 0.981 . S
C54 H53 0.981 . S
C55 C42 1.481 . S
C55 H56 0.980 . S
C55 H57 0.981 . S
C55 H58 0.981 . S
H56 C55 0.980 . S
H57 C55 0.981 . S
H58 C55 0.981 . S
O59 Zn35 2.066 1_565 S
O59 C38 1.256 . S
O60 Zn32 2.053 1_565 S
O60 C38 1.244 . S
C61 O39 1.259 . S
C61 O40 1.254 . S
O62 Zn32 2.066 . S
O62 C34 1.256 . S
O63 C34 1.244 . S
O63 Zn35 2.053 . S
Zn64 O65 2.055 . S
Zn64 O72 2.046 . S
Zn64 N80 2.036 1_556 S
Zn64 O92 2.053 . S
Zn64 O94 2.066 . S
O65 Zn64 2.055 . S
O65 C68 1.259 . S
C66 O94 1.256 . S
C66 O95 1.244 . S
Zn67 O69 2.046 . S
Zn67 O71 2.055 . S
Zn67 N73 2.036 . S
Zn67 O91 2.066 . S
Zn67 O95 2.053 . S
C68 O65 1.259 . S
C68 O69 1.254 . S
O69 Zn67 2.046 . S
O69 C68 1.254 . S
C70 O91 1.256 . S
C70 O92 1.244 . S
O71 Zn67 2.055 . S
O71 C93 1.259 . S
O72 Zn64 2.046 . S
O72 C93 1.254 . S
N73 Zn67 2.036 . S
N73 C74 1.298 . S
N73 N76 1.398 . S
C74 N73 1.298 . S
C74 N77 1.367 . S
C74 C87 1.481 . S
C75 N76 1.299 . S
C75 N77 1.379 . S
N76 N73 1.398 . S
N76 C75 1.299 . S
N77 C74 1.367 . S
N77 C75 1.379 . S
C78 N80 1.298 . S
C78 N82 1.367 . S
C78 C86 1.481 . S
C79 N81 1.299 . S
C79 N82 1.379 . S
N80 Zn64 2.036 1_554 S
N80 C78 1.298 . S
N80 N81 1.398 . S
N81 C79 1.299 . S
N81 N80 1.398 . S
N82 C78 1.367 . S
N82 C79 1.379 . S
H83 C86 0.980 . S
H84 C86 0.981 . S
H85 C86 0.981 . S
C86 C78 1.481 . S
C86 H83 0.980 . S
C86 H84 0.981 . S
C86 H85 0.981 . S
C87 C74 1.481 . S
C87 H88 0.980 . S
C87 H89 0.981 . S
C87 H90 0.981 . S
H88 C87 0.980 . S
H89 C87 0.981 . S
H90 C87 0.981 . S
O91 Zn67 2.066 . S
O91 C70 1.256 . S
O92 Zn64 2.053 . S
O92 C70 1.244 . S
C93 O71 1.259 . S
C93 O72 1.254 . S
O94 Zn64 2.066 . S
O94 C66 1.256 . S
O95 C66 1.244 . S
O95 Zn67 2.053 . S
C96 C97 1.391 . S
C96 C98 1.394 . S
C96 H112 0.931 . S
C97 C96 1.391 . S
C97 C101 1.376 . S
C98 C96 1.394 . S
C98 C99 1.369 . S
C98 C102 1.531 . S
C99 C98 1.369 . S
C99 C100 1.410 1_554 S
C99 C107 1.503 1_554 S
C100 C99 1.410 1_556 S
C100 C101 1.392 1_556 S
C100 C103 1.511 . S
C101 C97 1.376 . S
C101 C100 1.392 1_554 S
C101 H113 0.929 . S
C102 C98 1.531 . S
C102 H114 0.960 . S
C102 H115 0.962 . S
C102 H116 0.960 . S
C103 C100 1.511 . S
C103 H117 0.961 . S
C103 H118 0.961 . S
C103 H119 0.961 . S
C104 C105 1.370 . S
C104 C106 1.363 . S
C104 H120 0.931 . S
C105 C104 1.370 . S
C105 C109 1.408 . S
C106 C104 1.363 . S
C106 C107 1.370 . S
C106 C110 1.524 . S
C107 C99 1.503 1_556 S
C107 C106 1.370 . S
C107 C108 1.403 . S
C108 C107 1.403 . S
C108 C109 1.404 . S
C108 C111 1.539 . S
C109 C105 1.408 . S
C109 C108 1.404 . S
C109 H121 0.930 . S
C110 C106 1.524 . S
C110 H122 0.956 . S
C110 H123 0.961 . S
C110 H124 0.961 . S
C111 C108 1.539 . S
C111 H125 0.958 1_556 S
C111 H126 0.961 . S
C111 H127 0.960 1_556 S
H112 C96 0.931 . S
H113 C101 0.929 . S
H114 C102 0.960 . S
H115 C102 0.962 . S
H116 C102 0.960 . S
H117 C103 0.961 . S
H118 C103 0.961 . S
H119 C103 0.961 . S
H120 C104 0.931 . S
H121 C109 0.930 . S
H122 C110 0.956 . S
H123 C110 0.961 . S
H124 C110 0.961 . S
H125 C111 0.958 1_554 S
H126 C111 0.961 . S
H127 C111 0.960 1_554 S
C128 C129 1.391 . S
C128 C130 1.394 . S
C128 H144 0.931 . S
C129 C128 1.391 . S
C129 C133 1.376 . S
C130 C128 1.394 . S
C130 C131 1.369 . S
C130 C134 1.531 . S
C131 C130 1.369 . S
C131 C132 1.410 . S
C131 C139 1.503 . S
C132 C131 1.410 . S
C132 C133 1.392 . S
C132 C135 1.511 . S
C133 C129 1.376 . S
C133 C132 1.392 . S
C133 H145 0.929 . S
C134 C130 1.531 . S
C134 H146 0.960 . S
C134 H147 0.962 . S
C134 H148 0.960 . S
C135 C132 1.511 . S
C135 H149 0.961 . S
C135 H150 0.961 . S
C135 H151 0.961 . S
C136 C137 1.370 . S
C136 C138 1.363 . S
C136 H152 0.931 . S
C137 C136 1.370 . S
C137 C141 1.408 . S
C138 C136 1.363 . S
C138 C139 1.370 . S
C138 C142 1.524 . S
C139 C131 1.503 . S
C139 C138 1.370 . S
C139 C140 1.403 . S
C140 C139 1.403 . S
C140 C141 1.404 . S
C140 C143 1.539 . S
C141 C137 1.408 . S
C141 C140 1.404 . S
C141 H153 0.930 . S
C142 C138 1.524 . S
C142 H154 0.956 . S
C142 H155 0.961 . S
C142 H156 0.961 . S
C143 C140 1.539 . S
C143 H157 0.958 . S
C143 H158 0.961 . S
C143 H159 0.960 . S
H144 C128 0.931 . S
H145 C133 0.929 . S
H146 C134 0.960 . S
H147 C134 0.962 . S
H148 C134 0.960 . S
H149 C135 0.961 . S
H150 C135 0.961 . S
H151 C135 0.961 . S
H152 C136 0.931 . S
H153 C141 0.930 . S
H154 C142 0.956 . S
H155 C142 0.961 . S
H156 C142 0.961 . S
H157 C143 0.958 . S
H158 C143 0.961 . S
H159 C143 0.960 . S
C160 C161 1.391 . S
C160 C162 1.394 . S
C160 H176 0.931 . S
C161 C160 1.391 . S
C161 C165 1.376 . S
C162 C160 1.394 . S
C162 C163 1.369 . S
C162 C166 1.531 . S
C163 C162 1.369 . S
C163 C164 1.410 . S
C163 C171 1.503 . S
C164 C163 1.410 . S
C164 C165 1.392 . S
C164 C167 1.511 . S
C165 C161 1.376 . S
C165 C164 1.392 . S
C165 H177 0.929 . S
C166 C162 1.531 . S
C166 H178 0.960 . S
C166 H179 0.962 . S
C166 H180 0.960 . S
C167 C164 1.511 . S
C167 H181 0.961 . S
C167 H182 0.961 . S
C167 H183 0.961 . S
C168 C169 1.370 . S
C168 C170 1.363 . S
C168 H184 0.931 . S
C169 C168 1.370 . S
C169 C173 1.408 . S
C170 C168 1.363 . S
C170 C171 1.370 . S
C170 C174 1.524 . S
C171 C163 1.503 . S
C171 C170 1.370 . S
C171 C172 1.403 . S
C172 C171 1.403 . S
C172 C173 1.404 . S
C172 C175 1.539 . S
C173 C169 1.408 . S
C173 C172 1.404 . S
C173 H185 0.930 . S
C174 C170 1.524 . S
C174 H186 0.956 . S
C174 H187 0.961 . S
C174 H188 0.961 . S
C175 C172 1.539 . S
C175 H189 0.958 . S
C175 H190 0.961 . S
C175 H191 0.960 . S
H176 C160 0.931 . S
H177 C165 0.929 . S
H178 C166 0.960 . S
H179 C166 0.962 . S
H180 C166 0.960 . S
H181 C167 0.961 . S
H182 C167 0.961 . S
H183 C167 0.961 . S
H184 C168 0.931 . S
H185 C173 0.930 . S
H186 C174 0.956 . S
H187 C174 0.961 . S
H188 C174 0.961 . S
H189 C175 0.958 . S
H190 C175 0.961 . S
H191 C175 0.960 . S
C192 C193 1.391 . S
C192 C194 1.394 . S
C192 H208 0.931 . S
C193 C192 1.391 . S
C193 C197 1.376 . S
C194 C192 1.394 . S
C194 C195 1.369 . S
C194 C198 1.531 . S
C195 C194 1.369 . S
C195 C196 1.410 . S
C195 C203 1.503 1_556 S
C196 C195 1.410 . S
C196 C197 1.392 . S
C196 C199 1.511 1_556 S
C197 C193 1.376 . S
C197 C196 1.392 . S
C197 H209 0.929 . S
C198 C194 1.531 . S
C198 H210 0.960 . S
C198 H211 0.962 . S
C198 H212 0.960 . S
C199 C196 1.511 1_554 S
C199 H213 0.961 . S
C199 H214 0.961 . S
C199 H215 0.961 . S
C200 C201 1.370 . S
C200 C202 1.363 . S
C200 H216 0.931 . S
C201 C200 1.370 . S
C201 C205 1.408 . S
C202 C200 1.363 . S
C202 C203 1.370 . S
C202 C206 1.524 . S
C203 C195 1.503 1_554 S
C203 C202 1.370 . S
C203 C204 1.403 . S
C204 C203 1.403 . S
C204 C205 1.404 . S
C204 C207 1.539 1_554 S
C205 C201 1.408 . S
C205 C204 1.404 . S
C205 H217 0.930 . S
C206 C202 1.524 . S
C206 H218 0.956 . S
C206 H219 0.961 . S
C206 H220 0.961 . S
C207 C204 1.539 1_556 S
C207 H221 0.958 . S
C207 H222 0.961 . S
C207 H223 0.960 . S
H208 C192 0.931 . S
H209 C197 0.929 . S
H210 C198 0.960 . S
H211 C198 0.962 . S
H212 C198 0.960 . S
H213 C199 0.961 . S
H214 C199 0.961 . S
H215 C199 0.961 . S
H216 C200 0.931 . S
H217 C205 0.930 . S
H218 C206 0.956 . S
H219 C206 0.961 . S
H220 C206 0.961 . S
H221 C207 0.958 . S
H222 C207 0.961 . S
H223 C207 0.960 . S
C224 C225 1.391 . S
C224 C226 1.394 . S
C224 H240 0.931 . S
C225 C224 1.391 . S
C225 C229 1.376 . S
C226 C224 1.394 . S
C226 C227 1.369 . S
C226 C230 1.531 . S
C227 C226 1.369 . S
C227 C228 1.410 . S
C227 C235 1.503 . S
C228 C227 1.410 . S
C228 C229 1.392 . S
C228 C231 1.511 . S
C229 C225 1.376 . S
C229 C228 1.392 . S
C229 H241 0.929 . S
C230 C226 1.531 . S
C230 H242 0.960 . S
C230 H243 0.962 . S
C230 H244 0.960 . S
C231 C228 1.511 . S
C231 H245 0.961 . S
C231 H246 0.961 . S
C231 H247 0.961 . S
C232 C233 1.370 . S
C232 C234 1.363 . S
C232 H248 0.931 . S
C233 C232 1.370 . S
C233 C237 1.408 . S
C234 C232 1.363 . S
C234 C235 1.370 . S
C234 C238 1.524 . S
C235 C227 1.503 . S
C235 C234 1.370 . S
C235 C236 1.403 . S
C236 C235 1.403 . S
C236 C237 1.404 . S
C236 C239 1.539 . S
C237 C233 1.408 . S
C237 C236 1.404 . S
C237 H249 0.930 . S
C238 C234 1.524 . S
C238 H250 0.956 . S
C238 H251 0.961 . S
C238 H252 0.961 . S
C239 C236 1.539 . S
C239 H253 0.958 . S
C239 H254 0.961 . S
C239 H255 0.960 . S
H240 C224 0.931 . S
H241 C229 0.929 . S
H242 C230 0.960 . S
H243 C230 0.962 . S
H244 C230 0.960 . S
H245 C231 0.961 . S
H246 C231 0.961 . S
H247 C231 0.961 . S
H248 C232 0.931 . S
H249 C237 0.930 . S
H250 C238 0.956 . S
H251 C238 0.961 . S
H252 C238 0.961 . S
H253 C239 0.958 . S
H254 C239 0.961 . S
H255 C239 0.960 . S
C256 C257 1.391 . S
C256 C258 1.394 . S
C256 H272 0.931 . S
C257 C256 1.391 . S
C257 C261 1.376 . S
C258 C256 1.394 . S
C258 C259 1.369 . S
C258 C262 1.531 . S
C259 C258 1.369 . S
C259 C260 1.410 . S
C259 C267 1.503 . S
C260 C259 1.410 . S
C260 C261 1.392 . S
C260 C263 1.511 . S
C261 C257 1.376 . S
C261 C260 1.392 . S
C261 H273 0.929 . S
C262 C258 1.531 . S
C262 H274 0.960 . S
C262 H275 0.962 . S
C262 H276 0.960 . S
C263 C260 1.511 . S
C263 H277 0.961 . S
C263 H278 0.961 . S
C263 H279 0.961 . S
C264 C265 1.370 . S
C264 C266 1.363 . S
C264 H280 0.931 . S
C265 C264 1.370 . S
C265 C269 1.408 . S
C266 C264 1.363 . S
C266 C267 1.370 . S
C266 C270 1.524 . S
C267 C259 1.503 . S
C267 C266 1.370 . S
C267 C268 1.403 . S
C268 C267 1.403 . S
C268 C269 1.404 . S
C268 C271 1.539 . S
C269 C265 1.408 . S
C269 C268 1.404 . S
C269 H281 0.930 . S
C270 C266 1.524 . S
C270 H282 0.956 . S
C270 H283 0.961 . S
C270 H284 0.961 . S
C271 C268 1.539 . S
C271 H285 0.958 . S
C271 H286 0.961 . S
C271 H287 0.960 . S
H272 C256 0.931 . S
H273 C261 0.929 . S
H274 C262 0.960 . S
H275 C262 0.962 . S
H276 C262 0.960 . S
H277 C263 0.961 . S
H278 C263 0.961 . S
H279 C263 0.961 . S
H280 C264 0.931 . S
H281 C269 0.930 . S
H282 C270 0.956 . S
H283 C270 0.961 . S
H284 C270 0.961 . S
H285 C271 0.958 . S
H286 C271 0.961 . S
H287 C271 0.960 . S
C288 C289 1.391 . S
C288 C290 1.394 . S
C288 H304 0.931 . S
C289 C288 1.391 . S
C289 C293 1.376 . S
C290 C288 1.394 . S
C290 C291 1.369 . S
C290 C294 1.531 1_455 S
C291 C290 1.369 . S
C291 C292 1.410 . S
C291 C299 1.503 . S
C292 C291 1.410 . S
C292 C293 1.392 . S
C292 C295 1.511 . S
C293 C289 1.376 . S
C293 C292 1.392 . S
C293 H305 0.929 . S
C294 C290 1.531 1_655 S
C294 H306 0.960 . S
C294 H307 0.962 . S
C294 H308 0.960 . S
C295 C292 1.511 . S
C295 H309 0.961 . S
C295 H310 0.961 . S
C295 H311 0.961 . S
C296 C297 1.370 . S
C296 C298 1.363 . S
C296 H312 0.931 . S
C297 C296 1.370 . S
C297 C301 1.408 1_655 S
C298 C296 1.363 . S
C298 C299 1.370 1_655 S
C298 C302 1.524 . S
C299 C291 1.503 . S
C299 C298 1.370 1_455 S
C299 C300 1.403 . S
C300 C299 1.403 . S
C300 C301 1.404 . S
C300 C303 1.539 . S
C301 C297 1.408 1_455 S
C301 C300 1.404 . S
C301 H313 0.930 . S
C302 C298 1.524 . S
C302 H314 0.956 . S
C302 H315 0.961 . S
C302 H316 0.961 . S
C303 C300 1.539 . S
C303 H317 0.958 . S
C303 H318 0.961 . S
C303 H319 0.960 . S
H304 C288 0.931 . S
H305 C293 0.929 . S
H306 C294 0.960 . S
H307 C294 0.962 . S
H308 C294 0.960 . S
H309 C295 0.961 . S
H310 C295 0.961 . S
H311 C295 0.961 . S
H312 C296 0.931 . S
H313 C301 0.930 . S
H314 C302 0.956 . S
H315 C302 0.961 . S
H316 C302 0.961 . S
H317 C303 0.958 . S
H318 C303 0.961 . S
H319 C303 0.960 . S
C320 C321 1.391 . S
C320 C322 1.394 . S
C320 H336 0.931 . S
C321 C320 1.391 . S
C321 C325 1.376 1_565 S
C322 C320 1.394 . S
C322 C323 1.369 . S
C322 C326 1.531 . S
C323 C322 1.369 . S
C323 C324 1.410 1_565 S
C323 C331 1.503 1_564 S
C324 C323 1.410 1_545 S
C324 C325 1.392 . S
C324 C327 1.511 . S
C325 C321 1.376 1_545 S
C325 C324 1.392 . S
C325 H337 0.929 . S
C326 C322 1.531 . S
C326 H338 0.960 1_554 S
C326 H339 0.962 . S
C326 H340 0.960 . S
C327 C324 1.511 . S
C327 H341 0.961 . S
C327 H342 0.961 . S
C327 H343 0.961 . S
C328 C329 1.370 . S
C328 C330 1.363 . S
C328 H344 0.931 . S
C329 C328 1.370 . S
C329 C333 1.408 1_545 S
C330 C328 1.363 . S
C330 C331 1.370 . S
C330 C334 1.524 . S
C331 C323 1.503 1_546 S
C331 C330 1.370 . S
C331 C332 1.403 1_545 S
C332 C331 1.403 1_565 S
C332 C333 1.404 . S
C332 C335 1.539 . S
C333 C329 1.408 1_565 S
C333 C332 1.404 . S
C333 H345 0.930 . S
C334 C330 1.524 . S
C334 H346 0.956 1_556 S
C334 H347 0.961 1_556 S
C334 H348 0.961 . S
C335 C332 1.539 . S
C335 H349 0.958 . S
C335 H350 0.961 . S
C335 H351 0.960 . S
H336 C320 0.931 . S
H337 C325 0.929 . S
H338 C326 0.960 1_556 S
H339 C326 0.962 . S
H340 C326 0.960 . S
H341 C327 0.961 . S
H342 C327 0.961 . S
H343 C327 0.961 . S
H344 C328 0.931 . S
H345 C333 0.930 . S
H346 C334 0.956 1_554 S
H347 C334 0.961 1_554 S
H348 C334 0.961 . S
H349 C335 0.958 . S
H350 C335 0.961 . S
H351 C335 0.960 . S
C352 C353 1.391 . S
C352 C354 1.394 . S
C352 H368 0.931 . S
C353 C352 1.391 . S
C353 C357 1.376 . S
C354 C352 1.394 . S
C354 C355 1.369 . S
C354 C358 1.531 . S
C355 C354 1.369 . S
C355 C356 1.410 . S
C355 C363 1.503 . S
C356 C355 1.410 . S
C356 C357 1.392 . S
C356 C359 1.511 . S
C357 C353 1.376 . S
C357 C356 1.392 . S
C357 H369 0.929 . S
C358 C354 1.531 . S
C358 H370 0.960 . S
C358 H371 0.962 . S
C358 H372 0.960 . S
C359 C356 1.511 . S
C359 H373 0.961 . S
C359 H374 0.961 . S
C359 H375 0.961 . S
C360 C361 1.370 . S
C360 C362 1.363 . S
C360 H376 0.931 . S
C361 C360 1.370 . S
C361 C365 1.408 . S
C362 C360 1.363 . S
C362 C363 1.370 . S
C362 C366 1.524 . S
C363 C355 1.503 . S
C363 C362 1.370 . S
C363 C364 1.403 . S
C364 C363 1.403 . S
C364 C365 1.404 . S
C364 C367 1.539 . S
C365 C361 1.408 . S
C365 C364 1.404 . S
C365 H377 0.930 . S
C366 C362 1.524 . S
C366 H378 0.956 . S
C366 H379 0.961 . S
C366 H380 0.961 . S
C367 C364 1.539 . S
C367 H381 0.958 . S
C367 H382 0.961 . S
C367 H383 0.960 . S
H368 C352 0.931 . S
H369 C357 0.929 . S
H370 C358 0.960 . S
H371 C358 0.962 . S
H372 C358 0.960 . S
H373 C359 0.961 . S
H374 C359 0.961 . S
H375 C359 0.961 . S
H376 C360 0.931 . S
H377 C365 0.930 . S
H378 C366 0.956 . S
H379 C366 0.961 . S
H380 C366 0.961 . S
H381 C367 0.958 . S
H382 C367 0.961 . S
H383 C367 0.960 . S
C97 C2 1.944 . S
C105 C93 1.908 . S
C129 C36 1.931 . S
C137 C6 1.926 . S
C161 C61 1.937 . S
C169 C70 1.922 . S
C193 C66 1.950 . S
C201 C29 1.904 . S
C225 C38 1.956 . S
C233 C4 1.899 . S
C257 C68 1.902 . S
C265 C34 1.928 . S
C289 N18 0.602 . S
C297 N13 0.452 1_655 S
C321 N45 0.605 1_565 S
C329 N50 0.475 . S
C353 N77 0.469 . S
C361 N82 0.538 . S
