# Generated by pormake.
# Topology upa, (4)-cn, num edge types: 1
# Building blocks:
#     Node 0, Type 0, BuildingBlock: GALJAG_clean_sbu_0, # of connection points: 4
#     Node 1, Type 0, BuildingBlock: GALJAG_clean_sbu_0, # of connection points: 4
#     Node 2, Type 0, BuildingBlock: GALJAG_clean_sbu_0, # of connection points: 4
#     Node 3, Type 0, BuildingBlock: GALJAG_clean_sbu_0, # of connection points: 4
#     Node 4, Type 0, BuildingBlock: GALJAG_clean_sbu_0, # of connection points: 4
#     Node 5, Type 0, BuildingBlock: GALJAG_clean_sbu_0, # of connection points: 4
#     Node 6, Type 0, BuildingBlock: GALJAG_clean_sbu_0, # of connection points: 4
#     Node 7, Type 0, BuildingBlock: GALJAG_clean_sbu_0, # of connection points: 4
#     Edge 8, Type (0, 0), BuildingBlock: ZUJKAS_clean_linker_0, # of connection points: 2
#     Edge 9, Type (0, 0), BuildingBlock: ZUJKAS_clean_linker_0, # of connection points: 2
#     Edge 10, Type (0, 0), BuildingBlock: ZUJKAS_clean_linker_0, # of connection points: 2
#     Edge 11, Type (0, 0), BuildingBlock: ZUJKAS_clean_linker_0, # of connection points: 2
#     Edge 12, Type (0, 0), BuildingBlock: ZUJKAS_clean_linker_0, # of connection points: 2
#     Edge 13, Type (0, 0), BuildingBlock: ZUJKAS_clean_linker_0, # of connection points: 2
#     Edge 14, Type (0, 0), BuildingBlock: ZUJKAS_clean_linker_0, # of connection points: 2
#     Edge 15, Type (0, 0), BuildingBlock: ZUJKAS_clean_linker_0, # of connection points: 2
#     Edge 16, Type (0, 0), BuildingBlock: ZUJKAS_clean_linker_0, # of connection points: 2
#     Edge 17, Type (0, 0), BuildingBlock: ZUJKAS_clean_linker_0, # of connection points: 2
#     Edge 18, Type (0, 0), BuildingBlock: ZUJKAS_clean_linker_0, # of connection points: 2
#     Edge 19, Type (0, 0), BuildingBlock: ZUJKAS_clean_linker_0, # of connection points: 2
#     Edge 20, Type (0, 0), BuildingBlock: ZUJKAS_clean_linker_0, # of connection points: 2
#     Edge 21, Type (0, 0), BuildingBlock: ZUJKAS_clean_linker_0, # of connection points: 2
#     Edge 22, Type (0, 0), BuildingBlock: ZUJKAS_clean_linker_0, # of connection points: 2
#     Edge 23, Type (0, 0), BuildingBlock: ZUJKAS_clean_linker_0, # of connection points: 2
# Relax obj value: 0.230
# Max RMSD: 0.125
# Mean RMSD: 0.125
data_MOF--net-upa--node1-GALJAG_clean_sbu_0--edge1-ZUJKAS_clean_linker_0
_symmetry_space_group_name_H-M    P1
_symmetry_Int_Tables_number       1
_symmetry_cell_setting            triclinic
loop_
_symmetry_equiv_pos_as_xyz
'x, y, z'
_cell_length_a     34.717044
_cell_length_b     34.707756
_cell_length_c     55.2108
_cell_angle_alpha  89.996592
_cell_angle_beta   89.981888
_cell_angle_gamma 90.010915
loop_
_atom_site_label
_atom_site_type_symbol
_atom_site_fract_x
_atom_site_fract_y
_atom_site_fract_z
_atom_type_partial_charge
In0 In 0.19268 0.21013 0.32661 0.0
O1 O 0.19687 0.25027 0.35942 0.0
O2 O 0.22141 0.19428 0.36223 0.0
C3 C 0.13808 0.24859 0.30121 0.0
C4 C 0.26164 0.21325 0.30379 0.0
C5 C 0.14939 0.14607 0.33178 0.0
O6 O 0.14647 0.25704 0.32281 0.0
O7 O 0.15897 0.22271 0.29205 0.0
O8 O 0.17411 0.14948 0.31514 0.0
O9 O 0.14756 0.17428 0.34608 0.0
C10 C 0.2142 0.22594 0.37252 0.0
O11 O 0.24505 0.18203 0.30908 0.0
O12 O 0.24325 0.24319 0.30976 0.0
In13 In 0.29793 0.69422 0.82816 0.0
O14 O 0.32465 0.74834 0.81193 0.0
O15 O 0.26372 0.74344 0.81061 0.0
C16 C 0.36313 0.65245 0.83229 0.0
C17 C 0.28131 0.71435 0.87423 0.0
C18 C 0.26088 0.63869 0.80275 0.0
O19 O 0.35857 0.67725 0.81582 0.0
O20 O 0.33555 0.6499 0.84703 0.0
O21 O 0.25227 0.64678 0.82438 0.0
O22 O 0.28612 0.66033 0.79357 0.0
C23 C 0.29313 0.76343 0.80571 0.0
O24 O 0.25743 0.69689 0.86088 0.0
O25 O 0.31293 0.72235 0.86413 0.0
In26 In 0.80943 0.79422 0.32829 0.0
O27 O 0.75734 0.82341 0.31091 0.0
O28 O 0.75829 0.76224 0.31155 0.0
C29 C 0.85452 0.857 0.33233 0.0
C30 C 0.78751 0.78142 0.37452 0.0
C31 C 0.86388 0.75444 0.30362 0.0
O32 O 0.82806 0.85479 0.31665 0.0
O33 O 0.85726 0.82818 0.34612 0.0
O34 O 0.8559 0.7474 0.32549 0.0
O35 O 0.84256 0.7794 0.29387 0.0
C36 C 0.74026 0.79241 0.30567 0.0
O37 O 0.7975 0.7542 0.36064 0.0
O38 O 0.78782 0.81435 0.36487 0.0
In39 In 0.71341 0.3105 0.82709 0.0
O40 O 0.68261 0.25909 0.81009 0.0
O41 O 0.74378 0.25882 0.80973 0.0
C42 C 0.65145 0.35687 0.83016 0.0
C43 C 0.72559 0.28766 0.87321 0.0
C44 C 0.75493 0.3645 0.80314 0.0
O45 O 0.65406 0.33077 0.81428 0.0
O46 O 0.67936 0.35854 0.84471 0.0
O47 O 0.7605 0.35684 0.82522 0.0
O48 O 0.7307 0.34295 0.79288 0.0
C49 C 0.71301 0.24143 0.8043 0.0
O50 O 0.75309 0.2968 0.85931 0.0
O51 O 0.69266 0.28937 0.86365 0.0
In52 In 0.69251 0.29236 0.17562 0.0
O53 O 0.74535 0.32155 0.19204 0.0
O54 O 0.74336 0.26039 0.1927 0.0
C55 C 0.64785 0.35572 0.17397 0.0
C56 C 0.71432 0.27995 0.12932 0.0
C57 C 0.63774 0.25149 0.19929 0.0
O58 O 0.67406 0.35164 0.18965 0.0
O59 O 0.64532 0.32861 0.15886 0.0
O60 O 0.64461 0.24685 0.17702 0.0
O61 O 0.66037 0.27442 0.20982 0.0
C62 C 0.76198 0.29056 0.19783 0.0
O63 O 0.70545 0.25255 0.14336 0.0
O64 O 0.71272 0.31297 0.1388 0.0
In65 In 0.20713 0.1936 0.67633 0.0
O66 O 0.18126 0.24727 0.69364 0.0
O67 O 0.24226 0.24266 0.69329 0.0
C68 C 0.14178 0.15195 0.67217 0.0
C69 C 0.22218 0.21516 0.63031 0.0
C70 C 0.24525 0.1383 0.7013 0.0
O71 O 0.14664 0.17627 0.68888 0.0
O72 O 0.16916 0.14976 0.65727 0.0
O73 O 0.25351 0.14679 0.67968 0.0
O74 O 0.21972 0.15937 0.71068 0.0
C75 C 0.21312 0.26247 0.69903 0.0
O76 O 0.24567 0.19542 0.64265 0.0
O77 O 0.19176 0.2245 0.64136 0.0
In78 In 0.30956 0.70906 0.17841 0.0
O79 O 0.25661 0.68153 0.19553 0.0
O80 O 0.25931 0.74267 0.19528 0.0
C81 C 0.3532 0.64487 0.17552 0.0
C82 C 0.28793 0.72252 0.1322 0.0
C83 C 0.364 0.74932 0.20279 0.0
O84 O 0.32845 0.64965 0.19199 0.0
O85 O 0.35478 0.67168 0.16018 0.0
O86 O 0.35598 0.75597 0.18089 0.0
O87 O 0.34275 0.72446 0.21271 0.0
C88 C 0.2404 0.71288 0.20096 0.0
O89 O 0.30556 0.74742 0.14471 0.0
O90 O 0.28065 0.69147 0.14318 0.0
In91 In 0.79004 0.81125 0.67839 0.0
O92 O 0.82045 0.75996 0.69591 0.0
O93 O 0.75931 0.75917 0.69497 0.0
C94 C 0.85185 0.8578 0.67503 0.0
C95 C 0.7786 0.789 0.63208 0.0
C96 C 0.74821 0.86484 0.70248 0.0
O97 O 0.84982 0.83129 0.69069 0.0
O98 O 0.82338 0.85989 0.66093 0.0
O99 O 0.74226 0.8568 0.6805 0.0
O100 O 0.77313 0.84392 0.71261 0.0
C101 C 0.7899 0.74198 0.70099 0.0
O102 O 0.75086 0.79765 0.64591 0.0
O103 O 0.8114 0.79078 0.64181 0.0
H104 H 0.09769 0.13137 0.36763 0.0
H105 H 0.04836 0.08115 0.36844 0.0
H106 H 0.08905 0.03814 0.29973 0.0
H107 H 0.13906 0.08791 0.29904 0.0
H108 H 0.99021 0.07168 0.33553 0.0
H109 H 0.08104 0.9403 0.34002 0.0
H110 H 0.09984 0.98784 0.34599 0.0
H111 H 0.09282 0.97186 0.31533 0.0
C112 C 0.09652 0.11084 0.35287 0.0
C113 C 0.12228 0.11343 0.3333 0.0
C114 C 0.06825 0.08227 0.35333 0.0
C115 C 0.06524 0.05576 0.33425 0.0
C116 C 0.09134 0.05786 0.31486 0.0
H117 H 0.86268 0.91709 0.30063 0.0
H118 H 0.91286 0.9668 0.30108 0.0
C119 C 0.11982 0.08635 0.31446 0.0
C120 C 0.0335 0.02727 0.33415 0.0
H121 H 0.01427 0.93091 0.33274 0.0
C122 C 0.99543 0.04088 0.33499 0.0
C123 C 0.04046 0.98715 0.33366 0.0
C124 C 0.08074 0.97081 0.33393 0.0
C125 C 0.96404 0.01542 0.33521 0.0
C126 C 0.97098 0.97533 0.3341 0.0
C127 C 0.00906 0.96171 0.3334 0.0
C128 C 0.93928 0.94681 0.33431 0.0
C129 C 0.92383 0.03162 0.33717 0.0
C130 C 0.9377 0.91902 0.35271 0.0
C131 C 0.90936 0.89054 0.35238 0.0
C132 C 0.88207 0.88929 0.33361 0.0
C133 C 0.88315 0.91758 0.31542 0.0
C134 C 0.91171 0.94603 0.3157 0.0
H135 H 0.92397 0.06168 0.3441 0.0
H136 H 0.91032 0.03181 0.31896 0.0
H137 H 0.9057 0.0137 0.34933 0.0
H138 H 0.95872 0.91912 0.36722 0.0
H139 H 0.90927 0.8691 0.36664 0.0
H140 H 0.42039 0.64423 0.79869 0.0
H141 H 0.46994 0.59395 0.79751 0.0
H142 H 0.42956 0.54991 0.86602 0.0
H143 H 0.37967 0.59954 0.86714 0.0
H144 H 0.52923 0.57467 0.82903 0.0
H145 H 0.42304 0.45587 0.82161 0.0
H146 H 0.41013 0.50579 0.81736 0.0
H147 H 0.41526 0.48639 0.8474 0.0
C148 C 0.42236 0.62406 0.81361 0.0
C149 C 0.39602 0.62557 0.83291 0.0
C150 C 0.45057 0.59533 0.81288 0.0
C151 C 0.45277 0.56773 0.8314 0.0
C152 C 0.42769 0.57036 0.85125 0.0
H153 H 0.63871 0.41186 0.8643 0.0
H154 H 0.59005 0.46265 0.86373 0.0
C155 C 0.39942 0.59891 0.85195 0.0
C156 C 0.48091 0.53581 0.82988 0.0
H157 H 0.48807 0.43771 0.82935 0.0
C158 C 0.52028 0.54472 0.82897 0.0
C159 C 0.46905 0.4968 0.82934 0.0
C160 C 0.42706 0.48555 0.82873 0.0
C161 C 0.54824 0.51557 0.82827 0.0
C162 C 0.53642 0.47655 0.82897 0.0
C163 C 0.49702 0.46766 0.82913 0.0
C164 C 0.56457 0.44458 0.82982 0.0
C165 C 0.59015 0.52683 0.82656 0.0
C166 C 0.56523 0.41656 0.81148 0.0
C167 C 0.59275 0.38715 0.81191 0.0
C168 C 0.61993 0.38535 0.83072 0.0
C169 C 0.61831 0.41268 0.84947 0.0
C170 C 0.59074 0.4419 0.84909 0.0
H171 H 0.59368 0.55646 0.81927 0.0
H172 H 0.60313 0.52614 0.84492 0.0
H173 H 0.60638 0.50653 0.81483 0.0
H174 H 0.545 0.41797 0.79657 0.0
H175 H 0.59336 0.36646 0.79722 0.0
H176 H 0.64036 0.41258 0.208 0.0
H177 H 0.58956 0.46161 0.21023 0.0
H178 H 0.54196 0.42012 0.14296 0.0
H179 H 0.59207 0.3709 0.14078 0.0
H180 H 0.56902 0.52033 0.17834 0.0
H181 H 0.45002 0.41525 0.18926 0.0
H182 H 0.50002 0.40216 0.19284 0.0
H183 H 0.47932 0.40612 0.16308 0.0
C184 C 0.61921 0.41415 0.19362 0.0
C185 C 0.61999 0.3878 0.1743 0.0
C186 C 0.5902 0.44205 0.19495 0.0
C187 C 0.56156 0.44385 0.17704 0.0
C188 C 0.56323 0.41854 0.15728 0.0
H189 H 0.40684 0.62852 0.14109 0.0
H190 H 0.45694 0.57915 0.14265 0.0
C191 C 0.59207 0.39065 0.15597 0.0
C192 C 0.52989 0.47222 0.17885 0.0
H193 H 0.43186 0.47999 0.17997 0.0
C194 C 0.53904 0.51157 0.17889 0.0
C195 C 0.49084 0.46062 0.18 0.0
C196 C 0.47939 0.41874 0.18155 0.0
C197 C 0.51006 0.53972 0.17916 0.0
C198 C 0.47098 0.5281 0.17892 0.0
C199 C 0.46185 0.48877 0.17979 0.0
C200 C 0.43921 0.55641 0.17741 0.0
C201 C 0.52156 0.58165 0.1798 0.0
C202 C 0.41158 0.55876 0.19591 0.0
C203 C 0.38259 0.58669 0.19494 0.0
C204 C 0.38081 0.61257 0.17539 0.0
C205 C 0.40764 0.60912 0.15645 0.0
C206 C 0.43646 0.58116 0.15741 0.0
H207 H 0.55131 0.58544 0.18683 0.0
H208 H 0.52065 0.59354 0.16116 0.0
H209 H 0.50152 0.59867 0.19127 0.0
H210 H 0.41303 0.53963 0.21139 0.0
H211 H 0.3623 0.58871 0.20979 0.0
H212 H 0.12455 0.10041 0.63668 0.0
H213 H 0.0738 0.05163 0.63701 0.0
H214 H 0.03458 0.09328 0.70638 0.0
H215 H 0.08495 0.14272 0.70596 0.0
H216 H 0.06579 0.9939 0.67075 0.0
H217 H 0.9347 0.08541 0.66781 0.0
H218 H 0.98203 0.10376 0.66068 0.0
H219 H 0.96766 0.0974 0.69171 0.0
C220 C 0.10473 0.0996 0.65182 0.0
C221 C 0.10861 0.12542 0.67127 0.0
C222 C 0.07585 0.07164 0.65202 0.0
C223 C 0.05029 0.06901 0.67163 0.0
C224 C 0.05358 0.09526 0.69087 0.0
H225 H 0.91154 0.86662 0.70695 0.0
H226 H 0.96091 0.91717 0.70657 0.0
C227 C 0.0824 0.12341 0.69063 0.0
C228 C 0.02165 0.03743 0.67244 0.0
H229 H 0.92528 0.0187 0.67511 0.0
C230 C 0.03504 0.99927 0.67166 0.0
C231 C 0.98161 0.04461 0.67345 0.0
C232 C 0.96552 0.08499 0.67324 0.0
C233 C 0.00943 0.96801 0.6719 0.0
C234 C 0.96942 0.97517 0.67341 0.0
C235 C 0.95603 0.01333 0.67414 0.0
C236 C 0.94077 0.94358 0.67338 0.0
C237 C 0.02537 0.92768 0.66995 0.0
C238 C 0.91296 0.94193 0.65499 0.0
C239 C 0.88471 0.91338 0.65527 0.0
C240 C 0.88368 0.88593 0.67398 0.0
C241 C 0.91187 0.88721 0.69221 0.0
C242 C 0.94011 0.91598 0.69197 0.0
H243 H 0.05536 0.92758 0.66293 0.0
H244 H 0.02559 0.91421 0.68818 0.0
H245 H 0.00723 0.90963 0.65788 0.0
H246 H 0.91297 0.96297 0.64049 0.0
H247 H 0.86333 0.91315 0.64099 0.0
H248 H 0.25593 0.18012 0.40284 0.0
H249 H 0.26284 0.18645 0.4468 0.0
H250 H 0.19711 0.29176 0.44509 0.0
H251 H 0.1902 0.28581 0.40101 0.0
H252 H 0.29062 0.25567 0.47755 0.0
H253 H 0.13804 0.20996 0.49008 0.0
H254 H 0.16464 0.19949 0.46275 0.0
H255 H 0.14772 0.24747 0.46839 0.0
C256 C 0.24343 0.20495 0.41176 0.0
C257 C 0.22232 0.23237 0.39851 0.0
C258 C 0.24749 0.20854 0.43684 0.0
C259 C 0.23027 0.2394 0.44912 0.0
C260 C 0.21048 0.26766 0.43587 0.0
H261 H 0.18128 0.26541 0.60253 0.0
H262 H 0.18651 0.2757 0.55886 0.0
C263 C 0.20663 0.26425 0.41073 0.0
C264 C 0.23063 0.24035 0.47591 0.0
H265 H 0.17378 0.22328 0.52513 0.0
C266 C 0.26511 0.24882 0.48804 0.0
C267 C 0.19726 0.23139 0.48942 0.0
C268 C 0.15975 0.22132 0.47713 0.0
C269 C 0.267 0.24877 0.51349 0.0
C270 C 0.23376 0.23897 0.52705 0.0
C271 C 0.19923 0.23088 0.51479 0.0
C272 C 0.23394 0.23598 0.55392 0.0
C273 C 0.3044 0.2598 0.52554 0.0
C274 C 0.25919 0.21059 0.56581 0.0
C275 C 0.25655 0.20503 0.59087 0.0
C276 C 0.22813 0.22422 0.6044 0.0
C277 C 0.20344 0.25018 0.59257 0.0
C278 C 0.20639 0.25606 0.5676 0.0
H279 H 0.32243 0.27805 0.5135 0.0
H280 H 0.29925 0.27561 0.54273 0.0
H281 H 0.32099 0.2333 0.52971 0.0
H282 H 0.28001 0.19398 0.55561 0.0
H283 H 0.27572 0.18457 0.59947 0.0
H284 H 0.32566 0.75693 0.90494 0.0
H285 H 0.31858 0.7633 0.94889 0.0
H286 H 0.21529 0.69452 0.94648 0.0
H287 H 0.22194 0.6882 0.90239 0.0
H288 H 0.24493 0.78797 0.97922 0.0
H289 H 0.30163 0.63905 0.99182 0.0
H290 H 0.31208 0.667 0.96501 0.0
H291 H 0.26498 0.64694 0.96925 0.0
C292 C 0.3011 0.74364 0.9137 0.0
C293 C 0.27444 0.7219 0.90024 0.0
C294 C 0.29708 0.74739 0.93878 0.0
C295 C 0.26654 0.72924 0.95083 0.0
C296 C 0.23906 0.70869 0.93741 0.0
H297 H 0.24183 0.6777 0.10396 0.0
H298 H 0.23212 0.68221 0.06021 0.0
C299 C 0.24289 0.70516 0.91227 0.0
C300 C 0.26517 0.72946 0.97761 0.0
H301 H 0.28608 0.67395 0.02683 0.0
C302 C 0.2537 0.76306 0.98973 0.0
C303 C 0.2766 0.69686 0.99111 0.0
C304 C 0.28973 0.66034 0.97879 0.0
C305 C 0.25319 0.76484 0.01518 0.0
C306 C 0.26549 0.73245 0.02875 0.0
C307 C 0.27659 0.69876 0.01648 0.0
C308 C 0.26795 0.73274 0.05564 0.0
C309 C 0.23891 0.80114 0.02722 0.0
C310 C 0.29095 0.75994 0.06776 0.0
C311 C 0.29615 0.75769 0.09286 0.0
C312 C 0.27903 0.72777 0.10622 0.0
C313 C 0.25543 0.70107 0.09415 0.0
C314 C 0.24989 0.70359 0.06913 0.0
H315 H 0.21949 0.81769 0.01508 0.0
H316 H 0.22325 0.7946 0.04427 0.0
H317 H 0.26388 0.81982 0.03163 0.0
H318 H 0.30602 0.78209 0.05772 0.0
H319 H 0.3148 0.77844 0.10165 0.0
H320 H 0.83423 0.78917 0.59763 0.0
H321 H 0.82684 0.77971 0.55418 0.0
H322 H 0.70548 0.7577 0.56408 0.0
H323 H 0.71248 0.76924 0.60774 0.0
H324 H 0.80633 0.72193 0.52718 0.0
H325 H 0.70012 0.83973 0.5139 0.0
H326 H 0.72468 0.83241 0.54226 0.0
H327 H 0.68429 0.80255 0.53415 0.0
C328 C 0.80593 0.78226 0.59059 0.0
C329 C 0.77385 0.78026 0.60605 0.0
C330 C 0.80174 0.77677 0.56571 0.0
C331 C 0.76547 0.76865 0.55568 0.0
C332 C 0.73356 0.76504 0.57123 0.0
H333 H 0.77149 0.71418 0.39877 0.0
H334 H 0.76025 0.70638 0.44241 0.0
C335 C 0.73762 0.77132 0.59619 0.0
C336 C 0.7617 0.7649 0.52893 0.0
H337 H 0.71841 0.80477 0.47936 0.0
C338 C 0.78694 0.73989 0.51671 0.0
C339 C 0.73652 0.78849 0.51523 0.0
C340 C 0.71011 0.81756 0.52699 0.0
C341 C 0.78906 0.7391 0.49131 0.0
C342 C 0.76401 0.76283 0.47762 0.0
C343 C 0.7375 0.78648 0.48983 0.0
C344 C 0.7676 0.7669 0.45087 0.0
C345 C 0.81971 0.71454 0.47955 0.0
C346 C 0.7736 0.80362 0.44089 0.0
C347 C 0.77894 0.8082 0.41602 0.0
C348 C 0.77889 0.7761 0.40053 0.0
C349 C 0.77204 0.73937 0.41034 0.0
C350 C 0.76593 0.73487 0.43529 0.0
H351 H 0.8424 0.70585 0.49265 0.0
H352 H 0.80632 0.68789 0.47233 0.0
H353 H 0.83369 0.73006 0.46432 0.0
H354 H 0.77502 0.82882 0.45244 0.0
H355 H 0.78421 0.83689 0.40902 0.0
H356 H 0.79282 0.27177 0.89745 0.0
H357 H 0.8004 0.25862 0.9409 0.0
H358 H 0.67774 0.27138 0.95074 0.0
H359 H 0.66993 0.28271 0.90755 0.0
H360 H 0.78764 0.30231 0.97793 0.0
H361 H 0.69347 0.176 0.98869 0.0
H362 H 0.70784 0.19341 0.95925 0.0
H363 H 0.66675 0.21396 0.97457 0.0
C364 C 0.76748 0.2711 0.90889 0.0
C365 C 0.73076 0.27794 0.89909 0.0
C366 C 0.77181 0.26361 0.93369 0.0
C367 C 0.73953 0.26307 0.9491 0.0
C368 C 0.70295 0.27015 0.93922 0.0
H369 H 0.71778 0.33507 0.09455 0.0
H370 H 0.72964 0.32673 0.05143 0.0
C371 C 0.69856 0.27702 0.91448 0.0
C372 C 0.74394 0.2583 0.97575 0.0
H373 H 0.70204 0.2155 0.0248 0.0
C374 C 0.76946 0.28274 0.98813 0.0
C375 C 0.72114 0.23207 0.98921 0.0
C376 C 0.69615 0.2021 0.97715 0.0
C377 C 0.77078 0.28357 0.01354 0.0
C378 C 0.74484 0.26039 0.02698 0.0
C379 C 0.72135 0.23397 0.01461 0.0
C380 C 0.73946 0.26518 0.05356 0.0
C381 C 0.79981 0.30959 0.02563 0.0
C382 C 0.7395 0.23317 0.06919 0.0
C383 C 0.73168 0.23778 0.09393 0.0
C384 C 0.72394 0.27452 0.10345 0.0
C385 C 0.72417 0.30646 0.08783 0.0
C386 C 0.73134 0.30177 0.06314 0.0
H387 H 0.82606 0.31276 0.01428 0.0
H388 H 0.78713 0.33872 0.0279 0.0
H389 H 0.80845 0.29849 0.04369 0.0
H390 H 0.74528 0.20458 0.06222 0.0
H391 H 0.73158 0.21265 0.10556 0.0
H392 H 0.57898 0.21022 0.17876 0.0
H393 H 0.51533 0.19768 0.1963 0.0
H394 H 0.55169 0.24964 0.26345 0.0
H395 H 0.61542 0.26176 0.24621 0.0
H396 H 0.50617 0.18428 0.27022 0.0
H397 H 0.43885 0.28673 0.20554 0.0
H398 H 0.46522 0.24807 0.19164 0.0
H399 H 0.49031 0.28329 0.20954 0.0
C400 C 0.57367 0.21823 0.19743 0.0
C401 C 0.60215 0.2372 0.21105 0.0
C402 C 0.53717 0.21138 0.20734 0.0
C403 C 0.52851 0.22355 0.23099 0.0
C404 C 0.55765 0.24027 0.24511 0.0
H405 H 0.30612 0.2765 0.29411 0.0
H406 H 0.37087 0.27773 0.27642 0.0
C407 C 0.59411 0.2471 0.23523 0.0
C408 C 0.4887 0.22077 0.2407 0.0
H409 H 0.39694 0.25367 0.2321 0.0
C410 C 0.48223 0.1993 0.26185 0.0
C411 C 0.45766 0.24105 0.23 0.0
C412 C 0.46324 0.2664 0.20806 0.0
C413 C 0.44552 0.19733 0.27253 0.0
C414 C 0.41428 0.21682 0.26149 0.0
C415 C 0.42082 0.23847 0.24041 0.0
C416 C 0.37476 0.21591 0.27184 0.0
C417 C 0.4408 0.17527 0.2959 0.0
C418 C 0.35514 0.18084 0.27475 0.0
C419 C 0.31826 0.18007 0.28494 0.0
C420 C 0.30009 0.2144 0.29219 0.0
C421 C 0.31939 0.24958 0.28874 0.0
C422 C 0.35637 0.25031 0.27863 0.0
H423 H 0.46881 0.17096 0.30524 0.0
H424 H 0.42089 0.19044 0.30843 0.0
H425 H 0.42853 0.14645 0.2919 0.0
H426 H 0.36833 0.15403 0.2691 0.0
H427 H 0.30402 0.15253 0.28719 0.0
H428 H 0.22871 0.80344 0.7921 0.0
H429 H 0.22577 0.86776 0.77389 0.0
H430 H 0.3498 0.87439 0.7748 0.0
H431 H 0.35295 0.81041 0.79331 0.0
H432 H 0.31534 0.9403 0.79235 0.0
H433 H 0.25107 0.89826 0.70428 0.0
H434 H 0.22393 0.88213 0.73004 0.0
H435 H 0.27161 0.86358 0.72493 0.0
C436 C 0.25534 0.81852 0.78829 0.0
C437 C 0.29106 0.80181 0.79406 0.0
C438 C 0.25364 0.85518 0.77776 0.0
C439 C 0.2876 0.87567 0.77266 0.0
C440 C 0.32326 0.85905 0.77848 0.0
H441 H 0.29268 0.08274 0.68264 0.0
H442 H 0.30762 0.01984 0.7005 0.0
C443 C 0.32499 0.82245 0.78902 0.0
C444 C 0.28599 0.91489 0.76192 0.0
H445 H 0.25318 0.96542 0.71303 0.0
C446 C 0.30197 0.94578 0.77493 0.0
C447 C 0.26905 0.92193 0.73904 0.0
C448 C 0.25326 0.8897 0.72362 0.0
C449 C 0.30052 0.98366 0.76598 0.0
C450 C 0.28214 0.99091 0.74358 0.0
C451 C 0.26709 0.95988 0.73027 0.0
C452 C 0.2769 0.03054 0.73394 0.0
C453 C 0.31892 0.01552 0.78053 0.0
C454 C 0.2552 0.05767 0.74695 0.0
C455 C 0.24678 0.09363 0.73685 0.0
C456 C 0.25967 0.10309 0.71344 0.0
C457 C 0.28256 0.07642 0.70077 0.0
C458 C 0.29094 0.0404 0.7109 0.0
H459 H 0.34114 0.00416 0.79312 0.0
H460 H 0.33245 0.03734 0.76853 0.0
H461 H 0.29648 0.03007 0.79153 0.0
H462 H 0.24342 0.05047 0.76455 0.0
H463 H 0.22881 0.11339 0.74699 0.0
H464 H 0.69679 0.85365 0.2908 0.0
H465 H 0.63221 0.85227 0.27299 0.0
H466 H 0.63167 0.7282 0.2773 0.0
H467 H 0.69649 0.72933 0.29475 0.0
H468 H 0.60539 0.75534 0.2333 0.0
H469 H 0.53201 0.83038 0.3092 0.0
H470 H 0.57199 0.8563 0.2965 0.0
H471 H 0.5802 0.8113 0.31177 0.0
C472 C 0.68292 0.82607 0.28793 0.0
C473 C 0.70166 0.79159 0.29427 0.0
C474 C 0.64591 0.82535 0.2779 0.0
C475 C 0.62682 0.79018 0.2742 0.0
C476 C 0.64577 0.75569 0.28011 0.0
H477 H 0.38842 0.73571 0.24896 0.0
H478 H 0.45194 0.74965 0.26595 0.0
C479 C 0.6828 0.75638 0.29009 0.0
C480 C 0.58727 0.78913 0.26393 0.0
H481 H 0.49438 0.81731 0.27438 0.0
C482 C 0.58113 0.76899 0.24223 0.0
C483 C 0.55558 0.80661 0.27576 0.0
C484 C 0.56005 0.82708 0.29971 0.0
C485 C 0.5442 0.76579 0.23204 0.0
C486 C 0.51261 0.78385 0.24364 0.0
C487 C 0.51872 0.80397 0.26535 0.0
C488 C 0.4727 0.77991 0.23427 0.0
C489 C 0.53913 0.74206 0.20935 0.0
C490 C 0.46272 0.79369 0.2112 0.0
C491 C 0.42634 0.78582 0.20143 0.0
C492 C 0.3993 0.76413 0.21464 0.0
C493 C 0.40859 0.75246 0.23832 0.0
C494 C 0.44493 0.76034 0.24805 0.0
H495 H 0.56442 0.72327 0.20581 0.0
H496 H 0.51302 0.72369 0.21062 0.0
H497 H 0.53559 0.76161 0.1936 0.0
H498 H 0.48348 0.80951 0.20044 0.0
H499 H 0.42004 0.79524 0.18315 0.0
H500 H 0.7746 0.19666 0.79161 0.0
H501 H 0.77343 0.13227 0.77352 0.0
H502 H 0.64925 0.13487 0.77259 0.0
H503 H 0.65018 0.19906 0.79099 0.0
H504 H 0.67816 0.06648 0.79062 0.0
H505 H 0.74873 0.10347 0.70361 0.0
H506 H 0.77607 0.11796 0.72965 0.0
H507 H 0.72989 0.13962 0.72391 0.0
C508 C 0.74705 0.18362 0.7874 0.0
C509 C 0.71249 0.203 0.79263 0.0
C510 C 0.74642 0.1469 0.77695 0.0
C511 C 0.71125 0.12897 0.77136 0.0
C512 C 0.67671 0.14822 0.77664 0.0
H513 H 0.70295 0.92079 0.68225 0.0
H514 H 0.68797 0.98418 0.69936 0.0
C515 C 0.6773 0.18493 0.78711 0.0
C516 C 0.71051 0.08968 0.76069 0.0
H517 H 0.74309 0.03656 0.71283 0.0
C518 C 0.69208 0.05997 0.77351 0.0
C519 C 0.72813 0.08131 0.73818 0.0
C520 C 0.7465 0.11233 0.7229 0.0
C521 C 0.69194 0.02189 0.76484 0.0
C522 C 0.7112 0.01321 0.74292 0.0
C523 C 0.72851 0.04315 0.72971 0.0
C524 C 0.71544 0.97311 0.73385 0.0
C525 C 0.6711 0.99135 0.7792 0.0
C526 C 0.73514 0.94553 0.74771 0.0
C527 C 0.74358 0.90928 0.73802 0.0
C528 C 0.73271 0.89996 0.7142 0.0
C529 C 0.71149 0.92698 0.70071 0.0
C530 C 0.70309 0.96329 0.71042 0.0
H531 H 0.64848 0.0041 0.79097 0.0
H532 H 0.65753 0.96971 0.76709 0.0
H533 H 0.69203 0.97625 0.79106 0.0
H534 H 0.74564 0.95265 0.76563 0.0
H535 H 0.76023 0.88924 0.74881 0.0
H536 H 0.08285 0.29685 0.31945 0.0
H537 H 0.01956 0.31072 0.30182 0.0
H538 H 0.04974 0.245 0.23831 0.0
H539 H 0.1131 0.23143 0.25564 0.0
H540 H 0.00857 0.31269 0.22776 0.0
H541 H 0.93699 0.22568 0.29932 0.0
H542 H 0.96657 0.26444 0.31025 0.0
H543 H 0.98839 0.22476 0.29447 0.0
C544 C 0.07628 0.28601 0.30153 0.0
C545 C 0.10288 0.26283 0.289 0.0
C546 C 0.03999 0.29368 0.29157 0.0
C547 C 0.02966 0.27819 0.26898 0.0
C548 C 0.05702 0.25703 0.25583 0.0
H549 H 0.80465 0.22741 0.21024 0.0
H550 H 0.86958 0.22622 0.22755 0.0
C551 C 0.09326 0.24935 0.26576 0.0
C552 C 0.98981 0.2821 0.25954 0.0
H553 H 0.89654 0.25623 0.27085 0.0
C554 C 0.98401 0.30055 0.23721 0.0
C555 C 0.95793 0.26561 0.27173 0.0
C556 C 0.96262 0.24369 0.29516 0.0
C557 C 0.94717 0.30307 0.22677 0.0
C558 C 0.9152 0.28716 0.23918 0.0
C559 C 0.92103 0.26867 0.26148 0.0
C560 C 0.87564 0.28825 0.22896 0.0
C561 C 0.94298 0.32172 0.20222 0.0
C562 C 0.85722 0.3235 0.22436 0.0
C563 C 0.82015 0.32425 0.21443 0.0
C564 C 0.80069 0.28974 0.20908 0.0
C565 C 0.8189 0.25447 0.21413 0.0
C566 C 0.85599 0.25376 0.22402 0.0
H567 H 0.97103 0.3238 0.19262 0.0
H568 H 0.92251 0.30535 0.19069 0.0
H569 H 0.93154 0.35134 0.20453 0.0
H570 H 0.87149 0.35045 0.2285 0.0
H571 H 0.8068 0.35187 0.21087 0.0
H572 H 0.15405 0.30953 0.7127 0.0
H573 H 0.1583 0.37416 0.73018 0.0
H574 H 0.2823 0.36759 0.72824 0.0
H575 H 0.27829 0.3026 0.71101 0.0
H576 H 0.2537 0.39634 0.77183 0.0
H577 H 0.18835 0.4721 0.69342 0.0
H578 H 0.15944 0.43364 0.70539 0.0
H579 H 0.20519 0.42298 0.69169 0.0
C580 C 0.18225 0.32181 0.71602 0.0
C581 C 0.21586 0.30104 0.71037 0.0
C582 C 0.18461 0.35885 0.72587 0.0
C583 C 0.2206 0.37597 0.73011 0.0
C584 C 0.25422 0.355 0.72497 0.0
H585 H 0.2791 0.61395 0.75728 0.0
H586 H 0.26649 0.55047 0.73978 0.0
C587 C 0.25189 0.3179 0.71512 0.0
C588 C 0.2232 0.4156 0.74014 0.0
H589 H 0.19937 0.50943 0.72875 0.0
C590 C 0.24181 0.42108 0.76243 0.0
C591 C 0.20805 0.44789 0.7277 0.0
C592 C 0.18944 0.44407 0.70312 0.0
C593 C 0.24543 0.45791 0.77273 0.0
C594 C 0.22941 0.49008 0.76059 0.0
C595 C 0.21111 0.48466 0.73819 0.0
C596 C 0.23328 0.52981 0.77029 0.0
C597 C 0.26727 0.4622 0.79622 0.0
C598 C 0.2175 0.53983 0.79286 0.0
C599 C 0.2246 0.57618 0.80291 0.0
C600 C 0.24748 0.60318 0.7905 0.0
C601 C 0.26137 0.5938 0.7673 0.0
C602 C 0.25427 0.55749 0.75729 0.0
H603 H 0.28521 0.43646 0.80021 0.0
H604 H 0.28624 0.48796 0.79573 0.0
H605 H 0.24647 0.46589 0.8113 0.0
H606 H 0.20055 0.51916 0.80298 0.0
H607 H 0.21346 0.58254 0.82079 0.0
H608 H 0.19819 0.77664 0.21321 0.0
H609 H 0.13358 0.77835 0.23109 0.0
H610 H 0.13104 0.65414 0.23256 0.0
H611 H 0.19532 0.6522 0.21443 0.0
H612 H 0.0642 0.68586 0.21392 0.0
H613 H 0.1031 0.75507 0.30111 0.0
H614 H 0.1188 0.78145 0.27493 0.0
H615 H 0.13863 0.73459 0.281 0.0
C616 C 0.18395 0.74971 0.21749 0.0
C617 C 0.2019 0.71429 0.21249 0.0
C618 C 0.14711 0.75072 0.22781 0.0
C619 C 0.12768 0.71636 0.23346 0.0
C620 C 0.14555 0.681 0.22843 0.0
H621 H 0.92029 0.70878 0.32298 0.0
H622 H 0.98354 0.69463 0.30538 0.0
C623 C 0.18232 0.67995 0.21812 0.0
C624 C 0.0883 0.71719 0.24399 0.0
H625 H 0.03621 0.75021 0.29218 0.0
C626 C 0.05809 0.69972 0.23111 0.0
C627 C 0.08046 0.73477 0.26657 0.0
C628 C 0.11198 0.75223 0.28186 0.0
C629 C 0.02009 0.70028 0.23989 0.0
C630 C 0.01201 0.71925 0.26199 0.0
C631 C 0.04238 0.73583 0.27517 0.0
C632 C 0.97214 0.72357 0.27142 0.0
C633 C 0.98901 0.68034 0.22549 0.0
C634 C 0.94446 0.7439 0.25801 0.0
C635 C 0.90828 0.75185 0.26796 0.0
C636 C 0.89915 0.73986 0.29161 0.0
C637 C 0.92634 0.71817 0.30466 0.0
C638 C 0.96257 0.71025 0.29468 0.0
H639 H 1.00121 0.658 0.21329 0.0
H640 H 0.96748 0.66659 0.2376 0.0
H641 H 0.97391 0.70189 0.21408 0.0
H642 H 0.95139 0.75511 0.24023 0.0
H643 H 0.88811 0.76889 0.25752 0.0
H644 H 0.7988 0.42158 0.82345 0.0
H645 H 0.81206 0.4854 0.80636 0.0
H646 H 0.7561 0.45215 0.73986 0.0
H647 H 0.74322 0.38826 0.75664 0.0
H648 H 0.82227 0.49691 0.73246 0.0
H649 H 0.72357 0.56345 0.79979 0.0
H650 H 0.76246 0.53597 0.81253 0.0
H651 H 0.72598 0.51209 0.79498 0.0
C652 C 0.79008 0.42758 0.805 0.0
C653 C 0.76973 0.39995 0.79145 0.0
C654 C 0.79736 0.46418 0.79534 0.0
C655 C 0.78428 0.4738 0.77204 0.0
C656 C 0.76621 0.44544 0.75793 0.0
H657 H 0.72802 0.69616 0.71132 0.0
H658 H 0.72858 0.63125 0.72871 0.0
C659 C 0.75894 0.40889 0.76755 0.0
C660 C 0.78723 0.51388 0.76278 0.0
H661 H 0.7552 0.60561 0.7728 0.0
C662 C 0.80782 0.52075 0.74133 0.0
C663 C 0.7677 0.5448 0.77416 0.0
C664 C 0.74337 0.53884 0.79652 0.0
C665 C 0.80951 0.55772 0.73097 0.0
C666 C 0.79057 0.58877 0.74259 0.0
C667 C 0.76996 0.58186 0.76403 0.0
C668 C 0.79058 0.62839 0.73236 0.0
C669 C 0.83053 0.56294 0.70726 0.0
C670 C 0.82519 0.64863 0.729 0.0
C671 C 0.82495 0.68568 0.719 0.0
C672 C 0.79005 0.70333 0.71237 0.0
C673 C 0.75537 0.68333 0.71622 0.0
C674 C 0.75565 0.64625 0.72615 0.0
H675 H 0.83498 0.53506 0.69778 0.0
H676 H 0.8145 0.58265 0.69505 0.0
H677 H 0.85926 0.57576 0.71083 0.0
H678 H 0.85242 0.6358 0.73415 0.0
H679 H 0.85213 0.70045 0.71639 0.0
loop_
_geom_bond_atom_site_label_1
_geom_bond_atom_site_label_2
_geom_bond_distance
_geom_bond_site_symmetry_2
_ccdc_geom_bond_type
In0 O1 2.294 . S
In0 O2 2.326 . S
In0 O6 2.266 . S
In0 O7 2.326 . S
In0 O8 2.266 . S
In0 O9 2.326 . S
In0 O11 2.294 . S
In0 O12 2.326 . S
O1 In0 2.294 . S
O1 C10 1.240 . S
O2 In0 2.326 . S
O2 C10 1.252 . S
C3 O6 1.252 . S
C3 O7 1.260 . S
C4 O11 1.240 . S
C4 O12 1.252 . S
C5 O8 1.252 . S
C5 O9 1.260 . S
O6 In0 2.266 . S
O6 C3 1.252 . S
O7 In0 2.326 . S
O7 C3 1.260 . S
O8 In0 2.266 . S
O8 C5 1.252 . S
O9 In0 2.326 . S
O9 C5 1.260 . S
C10 O1 1.240 . S
C10 O2 1.252 . S
O11 In0 2.294 . S
O11 C4 1.240 . S
O12 In0 2.326 . S
O12 C4 1.252 . S
In13 O14 2.294 . S
In13 O15 2.326 . S
In13 O19 2.266 . S
In13 O20 2.326 . S
In13 O21 2.266 . S
In13 O22 2.326 . S
In13 O24 2.294 . S
In13 O25 2.326 . S
O14 In13 2.294 . S
O14 C23 1.240 . S
O15 In13 2.326 . S
O15 C23 1.252 . S
C16 O19 1.252 . S
C16 O20 1.260 . S
C17 O24 1.240 . S
C17 O25 1.252 . S
C18 O21 1.252 . S
C18 O22 1.260 . S
O19 In13 2.266 . S
O19 C16 1.252 . S
O20 In13 2.326 . S
O20 C16 1.260 . S
O21 In13 2.266 . S
O21 C18 1.252 . S
O22 In13 2.326 . S
O22 C18 1.260 . S
C23 O14 1.240 . S
C23 O15 1.252 . S
O24 In13 2.294 . S
O24 C17 1.240 . S
O25 In13 2.326 . S
O25 C17 1.252 . S
In26 O27 2.294 . S
In26 O28 2.326 . S
In26 O32 2.266 . S
In26 O33 2.326 . S
In26 O34 2.266 . S
In26 O35 2.326 . S
In26 O37 2.294 . S
In26 O38 2.326 . S
O27 In26 2.294 . S
O27 C36 1.240 . S
O28 In26 2.326 . S
O28 C36 1.252 . S
C29 O32 1.252 . S
C29 O33 1.260 . S
C30 O37 1.240 . S
C30 O38 1.252 . S
C31 O34 1.252 . S
C31 O35 1.260 . S
O32 In26 2.266 . S
O32 C29 1.252 . S
O33 In26 2.326 . S
O33 C29 1.260 . S
O34 In26 2.266 . S
O34 C31 1.252 . S
O35 In26 2.326 . S
O35 C31 1.260 . S
C36 O27 1.240 . S
C36 O28 1.252 . S
O37 In26 2.294 . S
O37 C30 1.240 . S
O38 In26 2.326 . S
O38 C30 1.252 . S
In39 O40 2.294 . S
In39 O41 2.326 . S
In39 O45 2.266 . S
In39 O46 2.326 . S
In39 O47 2.266 . S
In39 O48 2.326 . S
In39 O50 2.294 . S
In39 O51 2.326 . S
O40 In39 2.294 . S
O40 C49 1.240 . S
O41 In39 2.326 . S
O41 C49 1.252 . S
C42 O45 1.252 . S
C42 O46 1.260 . S
C43 O50 1.240 . S
C43 O51 1.252 . S
C44 O47 1.252 . S
C44 O48 1.260 . S
O45 In39 2.266 . S
O45 C42 1.252 . S
O46 In39 2.326 . S
O46 C42 1.260 . S
O47 In39 2.266 . S
O47 C44 1.252 . S
O48 In39 2.326 . S
O48 C44 1.260 . S
C49 O40 1.240 . S
C49 O41 1.252 . S
O50 In39 2.294 . S
O50 C43 1.240 . S
O51 In39 2.326 . S
O51 C43 1.252 . S
In52 O53 2.294 . S
In52 O54 2.326 . S
In52 O58 2.266 . S
In52 O59 2.326 . S
In52 O60 2.266 . S
In52 O61 2.326 . S
In52 O63 2.294 . S
In52 O64 2.326 . S
O53 In52 2.294 . S
O53 C62 1.240 . S
O54 In52 2.326 . S
O54 C62 1.252 . S
C55 O58 1.252 . S
C55 O59 1.260 . S
C56 O63 1.240 . S
C56 O64 1.252 . S
C57 O60 1.252 . S
C57 O61 1.260 . S
O58 In52 2.266 . S
O58 C55 1.252 . S
O59 In52 2.326 . S
O59 C55 1.260 . S
O60 In52 2.266 . S
O60 C57 1.252 . S
O61 In52 2.326 . S
O61 C57 1.260 . S
C62 O53 1.240 . S
C62 O54 1.252 . S
O63 In52 2.294 . S
O63 C56 1.240 . S
O64 In52 2.326 . S
O64 C56 1.252 . S
In65 O66 2.294 . S
In65 O67 2.326 . S
In65 O71 2.266 . S
In65 O72 2.326 . S
In65 O73 2.266 . S
In65 O74 2.326 . S
In65 O76 2.294 . S
In65 O77 2.326 . S
O66 In65 2.294 . S
O66 C75 1.240 . S
O67 In65 2.326 . S
O67 C75 1.252 . S
C68 O71 1.252 . S
C68 O72 1.260 . S
C69 O76 1.240 . S
C69 O77 1.252 . S
C70 O73 1.252 . S
C70 O74 1.260 . S
O71 In65 2.266 . S
O71 C68 1.252 . S
O72 In65 2.326 . S
O72 C68 1.260 . S
O73 In65 2.266 . S
O73 C70 1.252 . S
O74 In65 2.326 . S
O74 C70 1.260 . S
C75 O66 1.240 . S
C75 O67 1.252 . S
O76 In65 2.294 . S
O76 C69 1.240 . S
O77 In65 2.326 . S
O77 C69 1.252 . S
In78 O79 2.294 . S
In78 O80 2.326 . S
In78 O84 2.266 . S
In78 O85 2.326 . S
In78 O86 2.266 . S
In78 O87 2.326 . S
In78 O89 2.294 . S
In78 O90 2.326 . S
O79 In78 2.294 . S
O79 C88 1.240 . S
O80 In78 2.326 . S
O80 C88 1.252 . S
C81 O84 1.252 . S
C81 O85 1.260 . S
C82 O89 1.240 . S
C82 O90 1.252 . S
C83 O86 1.252 . S
C83 O87 1.260 . S
O84 In78 2.266 . S
O84 C81 1.252 . S
O85 In78 2.326 . S
O85 C81 1.260 . S
O86 In78 2.266 . S
O86 C83 1.252 . S
O87 In78 2.326 . S
O87 C83 1.260 . S
C88 O79 1.240 . S
C88 O80 1.252 . S
O89 In78 2.294 . S
O89 C82 1.240 . S
O90 In78 2.326 . S
O90 C82 1.252 . S
In91 O92 2.294 . S
In91 O93 2.326 . S
In91 O97 2.266 . S
In91 O98 2.326 . S
In91 O99 2.266 . S
In91 O100 2.326 . S
In91 O102 2.294 . S
In91 O103 2.326 . S
O92 In91 2.294 . S
O92 C101 1.240 . S
O93 In91 2.326 . S
O93 C101 1.252 . S
C94 O97 1.252 . S
C94 O98 1.260 . S
C95 O102 1.240 . S
C95 O103 1.252 . S
C96 O99 1.252 . S
C96 O100 1.260 . S
O97 In91 2.266 . S
O97 C94 1.252 . S
O98 In91 2.326 . S
O98 C94 1.260 . S
O99 In91 2.266 . S
O99 C96 1.252 . S
O100 In91 2.326 . S
O100 C96 1.260 . S
C101 O92 1.240 . S
C101 O93 1.252 . S
O102 In91 2.294 . S
O102 C95 1.240 . S
O103 In91 2.326 . S
O103 C95 1.252 . S
H104 C112 0.929 . S
H105 C114 0.930 . S
H106 C116 0.930 . S
H107 C119 0.929 . S
H108 C122 0.930 . S
H109 C124 0.960 1_565 S
H110 C124 0.960 . S
H111 C124 0.960 . S
C112 H104 0.929 . S
C112 C113 1.377 . S
C112 C114 1.384 . S
C113 C112 1.377 . S
C113 C119 1.390 . S
C114 H105 0.930 . S
C114 C112 1.384 . S
C114 C115 1.372 . S
C115 C114 1.372 . S
C115 C116 1.400 . S
C115 C120 1.490 . S
C116 H106 0.930 . S
C116 C115 1.400 . S
C116 C119 1.386 . S
H117 C133 0.930 . S
H118 C134 0.931 . S
C119 H107 0.929 . S
C119 C113 1.390 . S
C119 C116 1.386 . S
C120 C115 1.490 . S
C120 C122 1.395 1_455 S
C120 C123 1.403 . S
H121 C127 0.930 . S
C122 H108 0.930 . S
C122 C120 1.395 1_655 S
C122 C125 1.386 1_545 S
C123 C120 1.403 . S
C123 C124 1.524 . S
C123 C127 1.400 1_545 S
C124 H109 0.960 1_545 S
C124 H110 0.960 . S
C124 H111 0.960 . S
C124 C123 1.524 . S
C125 C122 1.386 1_565 S
C125 C126 1.409 . S
C125 C129 1.495 . S
C126 C125 1.409 . S
C126 C127 1.385 1_655 S
C126 C128 1.478 . S
C127 H121 0.930 . S
C127 C123 1.400 1_565 S
C127 C126 1.385 1_455 S
C128 C126 1.478 . S
C128 C130 1.381 . S
C128 C134 1.383 . S
C129 C125 1.495 . S
C129 H135 0.940 1_565 S
C129 H136 0.965 . S
C129 H137 0.976 . S
C130 C128 1.381 . S
C130 C131 1.394 . S
C130 H138 0.930 . S
C131 C130 1.394 . S
C131 C132 1.383 . S
C131 H139 0.929 . S
C132 C131 1.383 . S
C132 C133 1.377 . S
C133 H117 0.930 . S
C133 C132 1.377 . S
C133 C134 1.379 . S
C134 H118 0.931 . S
C134 C128 1.383 . S
C134 C133 1.379 . S
H135 C129 0.940 1_545 S
H136 C129 0.965 . S
H137 C129 0.976 . S
H138 C130 0.930 . S
H139 C131 0.929 . S
H140 C148 0.929 . S
H141 C150 0.930 . S
H142 C152 0.930 . S
H143 C155 0.929 . S
H144 C158 0.930 . S
H145 C160 0.960 . S
H146 C160 0.960 . S
H147 C160 0.960 . S
C148 H140 0.929 . S
C148 C149 1.377 . S
C148 C150 1.384 . S
C149 C148 1.377 . S
C149 C155 1.390 . S
C150 H141 0.930 . S
C150 C148 1.384 . S
C150 C151 1.372 . S
C151 C150 1.372 . S
C151 C152 1.400 . S
C151 C156 1.490 . S
C152 H142 0.930 . S
C152 C151 1.400 . S
C152 C155 1.386 . S
H153 C169 0.930 . S
H154 C170 0.931 . S
C155 H143 0.929 . S
C155 C149 1.390 . S
C155 C152 1.386 . S
C156 C151 1.490 . S
C156 C158 1.395 . S
C156 C159 1.403 . S
H157 C163 0.930 . S
C158 H144 0.930 . S
C158 C156 1.395 . S
C158 C161 1.403 . S
C159 C156 1.403 . S
C159 C160 1.524 . S
C159 C163 1.400 . S
C160 H145 0.960 . S
C160 H146 0.960 . S
C160 H147 0.960 . S
C160 C159 1.524 . S
C161 C158 1.403 . S
C161 C162 1.392 . S
C161 C165 1.495 . S
C162 C161 1.392 . S
C162 C163 1.385 . S
C162 C164 1.478 . S
C163 H157 0.930 . S
C163 C159 1.400 . S
C163 C162 1.385 . S
C164 C162 1.478 . S
C164 C166 1.381 . S
C164 C170 1.383 . S
C165 C161 1.495 . S
C165 H171 0.959 . S
C165 H172 0.961 . S
C165 H173 0.960 . S
C166 C164 1.381 . S
C166 C167 1.394 . S
C166 H174 0.930 . S
C167 C166 1.394 . S
C167 C168 1.383 . S
C167 H175 0.929 . S
C168 C167 1.383 . S
C168 C169 1.377 . S
C169 H153 0.930 . S
C169 C168 1.377 . S
C169 C170 1.379 . S
C170 H154 0.931 . S
C170 C164 1.383 . S
C170 C169 1.379 . S
H171 C165 0.959 . S
H172 C165 0.961 . S
H173 C165 0.960 . S
H174 C166 0.930 . S
H175 C167 0.929 . S
H176 C184 0.929 . S
H177 C186 0.930 . S
H178 C188 0.930 . S
H179 C191 0.929 . S
H180 C194 0.930 . S
H181 C196 0.960 . S
H182 C196 0.960 . S
H183 C196 0.960 . S
C184 H176 0.929 . S
C184 C185 1.377 . S
C184 C186 1.384 . S
C185 C184 1.377 . S
C185 C191 1.390 . S
C186 H177 0.930 . S
C186 C184 1.384 . S
C186 C187 1.372 . S
C187 C186 1.372 . S
C187 C188 1.400 . S
C187 C192 1.490 . S
C188 H178 0.930 . S
C188 C187 1.400 . S
C188 C191 1.386 . S
H189 C205 0.930 . S
H190 C206 0.931 . S
C191 H179 0.929 . S
C191 C185 1.390 . S
C191 C188 1.386 . S
C192 C187 1.490 . S
C192 C194 1.395 . S
C192 C195 1.403 . S
H193 C199 0.930 . S
C194 H180 0.930 . S
C194 C192 1.395 . S
C194 C197 1.403 . S
C195 C192 1.403 . S
C195 C196 1.524 . S
C195 C199 1.400 . S
C196 H181 0.960 . S
C196 H182 0.960 . S
C196 H183 0.960 . S
C196 C195 1.524 . S
C197 C194 1.403 . S
C197 C198 1.392 . S
C197 C201 1.495 . S
C198 C197 1.392 . S
C198 C199 1.385 . S
C198 C200 1.478 . S
C199 H193 0.930 . S
C199 C195 1.400 . S
C199 C198 1.385 . S
C200 C198 1.478 . S
C200 C202 1.381 . S
C200 C206 1.383 . S
C201 C197 1.495 . S
C201 H207 0.959 . S
C201 H208 0.961 . S
C201 H209 0.960 . S
C202 C200 1.381 . S
C202 C203 1.394 . S
C202 H210 0.930 . S
C203 C202 1.394 . S
C203 C204 1.383 . S
C203 H211 0.929 . S
C204 C203 1.383 . S
C204 C205 1.377 . S
C205 H189 0.930 . S
C205 C204 1.377 . S
C205 C206 1.379 . S
C206 H190 0.931 . S
C206 C200 1.383 . S
C206 C205 1.379 . S
H207 C201 0.959 . S
H208 C201 0.961 . S
H209 C201 0.960 . S
H210 C202 0.930 . S
H211 C203 0.929 . S
H212 C220 0.929 . S
H213 C222 0.930 . S
H214 C224 0.930 . S
H215 C227 0.929 . S
H216 C230 0.930 . S
H217 C232 0.960 . S
H218 C232 0.960 1_455 S
H219 C232 0.960 1_455 S
C220 H212 0.929 . S
C220 C221 1.377 . S
C220 C222 1.384 . S
C221 C220 1.377 . S
C221 C227 1.390 . S
C222 H213 0.930 . S
C222 C220 1.384 . S
C222 C223 1.372 . S
C223 C222 1.372 . S
C223 C224 1.400 . S
C223 C228 1.490 . S
C224 H214 0.930 . S
C224 C223 1.400 . S
C224 C227 1.386 . S
H225 C241 0.930 . S
H226 C242 0.931 . S
C227 H215 0.929 . S
C227 C221 1.390 . S
C227 C224 1.386 . S
C228 C223 1.490 . S
C228 C230 1.395 1_545 S
C228 C231 1.405 1_455 S
H229 C235 0.930 . S
C230 H216 0.930 . S
C230 C228 1.395 1_565 S
C230 C233 1.403 . S
C231 C228 1.405 1_655 S
C231 C232 1.523 . S
C231 C235 1.398 . S
C232 H217 0.960 . S
C232 H218 0.960 1_655 S
C232 H219 0.960 1_655 S
C232 C231 1.523 . S
C233 C230 1.403 . S
C233 C234 1.392 1_455 S
C233 C237 1.495 . S
C234 C233 1.392 1_655 S
C234 C235 1.385 1_565 S
C234 C236 1.478 . S
C235 H229 0.930 . S
C235 C231 1.398 . S
C235 C234 1.385 1_545 S
C236 C234 1.478 . S
C236 C238 1.381 . S
C236 C242 1.383 . S
C237 C233 1.495 . S
C237 H243 0.959 . S
C237 H244 0.955 1_455 S
C237 H245 0.960 1_455 S
C238 C236 1.381 . S
C238 C239 1.394 . S
C238 H246 0.930 . S
C239 C238 1.394 . S
C239 C240 1.383 . S
C239 H247 0.929 . S
C240 C239 1.383 . S
C240 C241 1.377 . S
C241 H225 0.930 . S
C241 C240 1.377 . S
C241 C242 1.379 . S
C242 H226 0.931 . S
C242 C236 1.383 . S
C242 C241 1.379 . S
H243 C237 0.959 . S
H244 C237 0.955 1_655 S
H245 C237 0.960 1_655 S
H246 C238 0.930 . S
H247 C239 0.929 . S
H248 C256 0.929 . S
H249 C258 0.930 . S
H250 C260 0.930 . S
H251 C263 0.929 . S
H252 C266 0.930 . S
H253 C268 0.960 . S
H254 C268 0.960 . S
H255 C268 0.960 . S
C256 H248 0.929 . S
C256 C257 1.377 . S
C256 C258 1.384 . S
C257 C256 1.377 . S
C257 C263 1.390 . S
C258 H249 0.930 . S
C258 C256 1.384 . S
C258 C259 1.372 . S
C259 C258 1.372 . S
C259 C260 1.400 . S
C259 C264 1.490 . S
C260 H250 0.930 . S
C260 C259 1.400 . S
C260 C263 1.386 . S
H261 C277 0.930 . S
H262 C278 0.931 . S
C263 H251 0.929 . S
C263 C257 1.390 . S
C263 C260 1.386 . S
C264 C259 1.490 . S
C264 C266 1.395 . S
C264 C267 1.403 . S
H265 C271 0.930 . S
C266 H252 0.930 . S
C266 C264 1.395 . S
C266 C269 1.403 . S
C267 C264 1.403 . S
C267 C268 1.524 . S
C267 C271 1.400 . S
C268 H253 0.960 . S
C268 H254 0.960 . S
C268 H255 0.960 . S
C268 C267 1.524 . S
C269 C266 1.403 . S
C269 C270 1.392 . S
C269 C273 1.495 . S
C270 C269 1.392 . S
C270 C271 1.385 . S
C270 C272 1.478 . S
C271 H265 0.930 . S
C271 C267 1.400 . S
C271 C270 1.385 . S
C272 C270 1.478 . S
C272 C274 1.381 . S
C272 C278 1.383 . S
C273 C269 1.495 . S
C273 H279 0.959 . S
C273 H280 0.961 . S
C273 H281 0.960 . S
C274 C272 1.381 . S
C274 C275 1.394 . S
C274 H282 0.930 . S
C275 C274 1.394 . S
C275 C276 1.383 . S
C275 H283 0.929 . S
C276 C275 1.383 . S
C276 C277 1.377 . S
C277 H261 0.930 . S
C277 C276 1.377 . S
C277 C278 1.379 . S
C278 H262 0.931 . S
C278 C272 1.383 . S
C278 C277 1.379 . S
H279 C273 0.959 . S
H280 C273 0.961 . S
H281 C273 0.960 . S
H282 C274 0.930 . S
H283 C275 0.929 . S
H284 C292 0.929 . S
H285 C294 0.930 . S
H286 C296 0.930 . S
H287 C299 0.929 . S
H288 C302 0.930 . S
H289 C304 0.960 . S
H290 C304 0.960 . S
H291 C304 0.960 . S
C292 H284 0.929 . S
C292 C293 1.377 . S
C292 C294 1.384 . S
C293 C292 1.377 . S
C293 C299 1.390 . S
C294 H285 0.930 . S
C294 C292 1.384 . S
C294 C295 1.372 . S
C295 C294 1.372 . S
C295 C296 1.400 . S
C295 C300 1.490 . S
C296 H286 0.930 . S
C296 C295 1.400 . S
C296 C299 1.386 . S
H297 C313 0.930 . S
H298 C314 0.931 . S
C299 H287 0.929 . S
C299 C293 1.390 . S
C299 C296 1.386 . S
C300 C295 1.490 . S
C300 C302 1.395 . S
C300 C303 1.403 . S
H301 C307 0.930 . S
C302 H288 0.930 . S
C302 C300 1.395 . S
C302 C305 1.403 1_556 S
C303 C300 1.403 . S
C303 C304 1.524 . S
C303 C307 1.400 1_556 S
C304 H289 0.960 . S
C304 H290 0.960 . S
C304 H291 0.960 . S
C304 C303 1.524 . S
C305 C302 1.403 1_554 S
C305 C306 1.392 . S
C305 C309 1.495 . S
C306 C305 1.392 . S
C306 C307 1.385 . S
C306 C308 1.478 . S
C307 H301 0.930 . S
C307 C303 1.400 1_554 S
C307 C306 1.385 . S
C308 C306 1.478 . S
C308 C310 1.381 . S
C308 C314 1.383 . S
C309 C305 1.495 . S
C309 H315 0.959 . S
C309 H316 0.961 . S
C309 H317 0.960 . S
C310 C308 1.381 . S
C310 C311 1.394 . S
C310 H318 0.930 . S
C311 C310 1.394 . S
C311 C312 1.383 . S
C311 H319 0.929 . S
C312 C311 1.383 . S
C312 C313 1.377 . S
C313 H297 0.930 . S
C313 C312 1.377 . S
C313 C314 1.379 . S
C314 H298 0.931 . S
C314 C308 1.383 . S
C314 C313 1.379 . S
H315 C309 0.959 . S
H316 C309 0.961 . S
H317 C309 0.960 . S
H318 C310 0.930 . S
H319 C311 0.929 . S
H320 C328 0.929 . S
H321 C330 0.930 . S
H322 C332 0.930 . S
H323 C335 0.929 . S
H324 C338 0.930 . S
H325 C340 0.960 . S
H326 C340 0.960 . S
H327 C340 0.960 . S
C328 H320 0.929 . S
C328 C329 1.377 . S
C328 C330 1.384 . S
C329 C328 1.377 . S
C329 C335 1.390 . S
C330 H321 0.930 . S
C330 C328 1.384 . S
C330 C331 1.372 . S
C331 C330 1.372 . S
C331 C332 1.400 . S
C331 C336 1.490 . S
C332 H322 0.930 . S
C332 C331 1.400 . S
C332 C335 1.386 . S
H333 C349 0.930 . S
H334 C350 0.931 . S
C335 H323 0.929 . S
C335 C329 1.390 . S
C335 C332 1.386 . S
C336 C331 1.490 . S
C336 C338 1.395 . S
C336 C339 1.403 . S
H337 C343 0.930 . S
C338 H324 0.930 . S
C338 C336 1.395 . S
C338 C341 1.403 . S
C339 C336 1.403 . S
C339 C340 1.524 . S
C339 C343 1.400 . S
C340 H325 0.960 . S
C340 H326 0.960 . S
C340 H327 0.960 . S
C340 C339 1.524 . S
C341 C338 1.403 . S
C341 C342 1.392 . S
C341 C345 1.495 . S
C342 C341 1.392 . S
C342 C343 1.385 . S
C342 C344 1.478 . S
C343 H337 0.930 . S
C343 C339 1.400 . S
C343 C342 1.385 . S
C344 C342 1.478 . S
C344 C346 1.381 . S
C344 C350 1.383 . S
C345 C341 1.495 . S
C345 H351 0.959 . S
C345 H352 0.961 . S
C345 H353 0.960 . S
C346 C344 1.381 . S
C346 C347 1.394 . S
C346 H354 0.930 . S
C347 C346 1.394 . S
C347 C348 1.383 . S
C347 H355 0.929 . S
C348 C347 1.383 . S
C348 C349 1.377 . S
C349 H333 0.930 . S
C349 C348 1.377 . S
C349 C350 1.379 . S
C350 H334 0.931 . S
C350 C344 1.383 . S
C350 C349 1.379 . S
H351 C345 0.959 . S
H352 C345 0.961 . S
H353 C345 0.960 . S
H354 C346 0.930 . S
H355 C347 0.929 . S
H356 C364 0.929 . S
H357 C366 0.930 . S
H358 C368 0.930 . S
H359 C371 0.929 . S
H360 C374 0.930 . S
H361 C376 0.960 . S
H362 C376 0.960 . S
H363 C376 0.960 . S
C364 H356 0.929 . S
C364 C365 1.377 . S
C364 C366 1.384 . S
C365 C364 1.377 . S
C365 C371 1.390 . S
C366 H357 0.930 . S
C366 C364 1.384 . S
C366 C367 1.372 . S
C367 C366 1.372 . S
C367 C368 1.400 . S
C367 C372 1.490 . S
C368 H358 0.930 . S
C368 C367 1.400 . S
C368 C371 1.386 . S
H369 C385 0.930 . S
H370 C386 0.931 . S
C371 H359 0.929 . S
C371 C365 1.390 . S
C371 C368 1.386 . S
C372 C367 1.490 . S
C372 C374 1.395 . S
C372 C375 1.403 . S
H373 C379 0.930 . S
C374 H360 0.930 . S
C374 C372 1.395 . S
C374 C377 1.403 1_556 S
C375 C372 1.403 . S
C375 C376 1.524 . S
C375 C379 1.400 1_556 S
C376 H361 0.960 . S
C376 H362 0.960 . S
C376 H363 0.960 . S
C376 C375 1.524 . S
C377 C374 1.403 1_554 S
C377 C378 1.392 . S
C377 C381 1.495 . S
C378 C377 1.392 . S
C378 C379 1.385 . S
C378 C380 1.478 . S
C379 H373 0.930 . S
C379 C375 1.400 1_554 S
C379 C378 1.385 . S
C380 C378 1.478 . S
C380 C382 1.381 . S
C380 C386 1.383 . S
C381 C377 1.495 . S
C381 H387 0.959 . S
C381 H388 0.961 . S
C381 H389 0.960 . S
C382 C380 1.381 . S
C382 C383 1.394 . S
C382 H390 0.930 . S
C383 C382 1.394 . S
C383 C384 1.383 . S
C383 H391 0.929 . S
C384 C383 1.383 . S
C384 C385 1.377 . S
C385 H369 0.930 . S
C385 C384 1.377 . S
C385 C386 1.379 . S
C386 H370 0.931 . S
C386 C380 1.383 . S
C386 C385 1.379 . S
H387 C381 0.959 . S
H388 C381 0.961 . S
H389 C381 0.960 . S
H390 C382 0.930 . S
H391 C383 0.929 . S
H392 C400 0.929 . S
H393 C402 0.930 . S
H394 C404 0.930 . S
H395 C407 0.929 . S
H396 C410 0.930 . S
H397 C412 0.960 . S
H398 C412 0.960 . S
H399 C412 0.960 . S
C400 H392 0.929 . S
C400 C401 1.377 . S
C400 C402 1.384 . S
C401 C400 1.377 . S
C401 C407 1.390 . S
C402 H393 0.930 . S
C402 C400 1.384 . S
C402 C403 1.372 . S
C403 C402 1.372 . S
C403 C404 1.400 . S
C403 C408 1.490 . S
C404 H394 0.930 . S
C404 C403 1.400 . S
C404 C407 1.386 . S
H405 C421 0.930 . S
H406 C422 0.931 . S
C407 H395 0.929 . S
C407 C401 1.390 . S
C407 C404 1.386 . S
C408 C403 1.490 . S
C408 C410 1.395 . S
C408 C411 1.403 . S
H409 C415 0.930 . S
C410 H396 0.930 . S
C410 C408 1.395 . S
C410 C413 1.403 . S
C411 C408 1.403 . S
C411 C412 1.524 . S
C411 C415 1.400 . S
C412 H397 0.960 . S
C412 H398 0.960 . S
C412 H399 0.960 . S
C412 C411 1.524 . S
C413 C410 1.403 . S
C413 C414 1.392 . S
C413 C417 1.495 . S
C414 C413 1.392 . S
C414 C415 1.385 . S
C414 C416 1.478 . S
C415 H409 0.930 . S
C415 C411 1.400 . S
C415 C414 1.385 . S
C416 C414 1.478 . S
C416 C418 1.381 . S
C416 C422 1.383 . S
C417 C413 1.495 . S
C417 H423 0.959 . S
C417 H424 0.961 . S
C417 H425 0.960 . S
C418 C416 1.381 . S
C418 C419 1.394 . S
C418 H426 0.930 . S
C419 C418 1.394 . S
C419 C420 1.383 . S
C419 H427 0.929 . S
C420 C419 1.383 . S
C420 C421 1.377 . S
C421 H405 0.930 . S
C421 C420 1.377 . S
C421 C422 1.379 . S
C422 H406 0.931 . S
C422 C416 1.383 . S
C422 C421 1.379 . S
H423 C417 0.959 . S
H424 C417 0.961 . S
H425 C417 0.960 . S
H426 C418 0.930 . S
H427 C419 0.929 . S
H428 C436 0.929 . S
H429 C438 0.930 . S
H430 C440 0.930 . S
H431 C443 0.929 . S
H432 C446 0.930 . S
H433 C448 0.960 . S
H434 C448 0.960 . S
H435 C448 0.960 . S
C436 H428 0.929 . S
C436 C437 1.377 . S
C436 C438 1.384 . S
C437 C436 1.377 . S
C437 C443 1.390 . S
C438 H429 0.930 . S
C438 C436 1.384 . S
C438 C439 1.372 . S
C439 C438 1.372 . S
C439 C440 1.400 . S
C439 C444 1.490 . S
C440 H430 0.930 . S
C440 C439 1.400 . S
C440 C443 1.386 . S
H441 C457 0.930 . S
H442 C458 0.931 . S
C443 H431 0.929 . S
C443 C437 1.390 . S
C443 C440 1.386 . S
C444 C439 1.490 . S
C444 C446 1.395 . S
C444 C447 1.403 . S
H445 C451 0.930 . S
C446 H432 0.930 . S
C446 C444 1.395 . S
C446 C449 1.403 . S
C447 C444 1.403 . S
C447 C448 1.524 . S
C447 C451 1.400 . S
C448 H433 0.960 . S
C448 H434 0.960 . S
C448 H435 0.960 . S
C448 C447 1.524 . S
C449 C446 1.403 . S
C449 C450 1.392 . S
C449 C453 1.495 . S
C450 C449 1.392 . S
C450 C451 1.385 . S
C450 C452 1.478 . S
C451 H445 0.930 . S
C451 C447 1.400 . S
C451 C450 1.385 . S
C452 C450 1.478 . S
C452 C454 1.381 . S
C452 C458 1.383 . S
C453 C449 1.495 . S
C453 H459 0.959 . S
C453 H460 0.961 . S
C453 H461 0.960 . S
C454 C452 1.381 . S
C454 C455 1.394 1_565 S
C454 H462 0.930 . S
C455 C454 1.394 1_545 S
C455 C456 1.383 . S
C455 H463 0.929 . S
C456 C455 1.383 . S
C456 C457 1.377 . S
C457 H441 0.930 . S
C457 C456 1.377 . S
C457 C458 1.379 1_545 S
C458 H442 0.931 . S
C458 C452 1.383 . S
C458 C457 1.379 1_565 S
H459 C453 0.959 . S
H460 C453 0.961 . S
H461 C453 0.960 . S
H462 C454 0.930 . S
H463 C455 0.929 . S
H464 C472 0.929 . S
H465 C474 0.930 . S
H466 C476 0.930 . S
H467 C479 0.929 . S
H468 C482 0.930 . S
H469 C484 0.960 . S
H470 C484 0.960 . S
H471 C484 0.960 . S
C472 H464 0.929 . S
C472 C473 1.377 . S
C472 C474 1.384 . S
C473 C472 1.377 . S
C473 C479 1.390 . S
C474 H465 0.930 . S
C474 C472 1.384 . S
C474 C475 1.372 . S
C475 C474 1.372 . S
C475 C476 1.400 . S
C475 C480 1.490 . S
C476 H466 0.930 . S
C476 C475 1.400 . S
C476 C479 1.386 . S
H477 C493 0.930 . S
H478 C494 0.931 . S
C479 H467 0.929 . S
C479 C473 1.390 . S
C479 C476 1.386 . S
C480 C475 1.490 . S
C480 C482 1.395 . S
C480 C483 1.403 . S
H481 C487 0.930 . S
C482 H468 0.930 . S
C482 C480 1.395 . S
C482 C485 1.403 . S
C483 C480 1.403 . S
C483 C484 1.524 . S
C483 C487 1.400 . S
C484 H469 0.960 . S
C484 H470 0.960 . S
C484 H471 0.960 . S
C484 C483 1.524 . S
C485 C482 1.403 . S
C485 C486 1.392 . S
C485 C489 1.495 . S
C486 C485 1.392 . S
C486 C487 1.385 . S
C486 C488 1.478 . S
C487 H481 0.930 . S
C487 C483 1.400 . S
C487 C486 1.385 . S
C488 C486 1.478 . S
C488 C490 1.381 . S
C488 C494 1.383 . S
C489 C485 1.495 . S
C489 H495 0.959 . S
C489 H496 0.961 . S
C489 H497 0.960 . S
C490 C488 1.381 . S
C490 C491 1.394 . S
C490 H498 0.930 . S
C491 C490 1.394 . S
C491 C492 1.383 . S
C491 H499 0.929 . S
C492 C491 1.383 . S
C492 C493 1.377 . S
C493 H477 0.930 . S
C493 C492 1.377 . S
C493 C494 1.379 . S
C494 H478 0.931 . S
C494 C488 1.383 . S
C494 C493 1.379 . S
H495 C489 0.959 . S
H496 C489 0.961 . S
H497 C489 0.960 . S
H498 C490 0.930 . S
H499 C491 0.929 . S
H500 C508 0.929 . S
H501 C510 0.930 . S
H502 C512 0.930 . S
H503 C515 0.929 . S
H504 C518 0.930 . S
H505 C520 0.960 . S
H506 C520 0.960 . S
H507 C520 0.960 . S
C508 H500 0.929 . S
C508 C509 1.377 . S
C508 C510 1.384 . S
C509 C508 1.377 . S
C509 C515 1.390 . S
C510 H501 0.930 . S
C510 C508 1.384 . S
C510 C511 1.372 . S
C511 C510 1.372 . S
C511 C512 1.400 . S
C511 C516 1.490 . S
C512 H502 0.930 . S
C512 C511 1.400 . S
C512 C515 1.386 . S
H513 C529 0.929 . S
H514 C530 0.931 . S
C515 H503 0.929 . S
C515 C509 1.390 . S
C515 C512 1.386 . S
C516 C511 1.490 . S
C516 C518 1.395 . S
C516 C519 1.403 . S
H517 C523 0.930 . S
C518 H504 0.930 . S
C518 C516 1.395 . S
C518 C521 1.403 . S
C519 C516 1.403 . S
C519 C520 1.524 . S
C519 C523 1.400 . S
C520 H505 0.960 . S
C520 H506 0.960 . S
C520 H507 0.960 . S
C520 C519 1.524 . S
C521 C518 1.403 . S
C521 C522 1.392 . S
C521 C525 1.495 . S
C522 C521 1.392 . S
C522 C523 1.385 . S
C522 C524 1.478 . S
C523 H517 0.930 . S
C523 C519 1.400 . S
C523 C522 1.385 . S
C524 C522 1.478 . S
C524 C526 1.381 . S
C524 C530 1.383 . S
C525 C521 1.495 . S
C525 H531 0.959 . S
C525 H532 0.961 . S
C525 H533 0.960 . S
C526 C524 1.381 . S
C526 C527 1.394 1_545 S
C526 H534 0.930 . S
C527 C526 1.394 1_565 S
C527 C528 1.383 . S
C527 H535 0.929 . S
C528 C527 1.383 . S
C528 C529 1.385 . S
C529 H513 0.929 . S
C529 C528 1.385 . S
C529 C530 1.371 1_565 S
C530 H514 0.931 . S
C530 C524 1.383 . S
C530 C529 1.371 1_545 S
H531 C525 0.959 . S
H532 C525 0.961 . S
H533 C525 0.960 . S
H534 C526 0.930 . S
H535 C527 0.929 . S
H536 C544 0.929 . S
H537 C546 0.930 . S
H538 C548 0.930 . S
H539 C551 0.929 . S
H540 C554 0.930 . S
H541 C556 0.960 . S
H542 C556 0.960 . S
H543 C556 0.960 . S
C544 H536 0.929 . S
C544 C545 1.377 . S
C544 C546 1.384 1_455 S
C545 C544 1.377 . S
C545 C551 1.390 . S
C546 H537 0.930 . S
C546 C544 1.384 1_655 S
C546 C547 1.372 . S
C547 C546 1.372 . S
C547 C548 1.400 . S
C547 C552 1.490 . S
C548 H538 0.930 . S
C548 C547 1.400 . S
C548 C551 1.386 1_655 S
H549 C565 0.930 . S
H550 C566 0.931 . S
C551 H539 0.929 . S
C551 C545 1.390 . S
C551 C548 1.386 1_455 S
C552 C547 1.490 . S
C552 C554 1.395 . S
C552 C555 1.403 . S
H553 C559 0.930 . S
C554 H540 0.930 . S
C554 C552 1.395 . S
C554 C557 1.403 . S
C555 C552 1.403 . S
C555 C556 1.524 . S
C555 C559 1.400 . S
C556 H541 0.960 . S
C556 H542 0.960 . S
C556 H543 0.960 . S
C556 C555 1.524 . S
C557 C554 1.403 . S
C557 C558 1.392 . S
C557 C561 1.495 . S
C558 C557 1.392 . S
C558 C559 1.385 . S
C558 C560 1.478 . S
C559 H553 0.930 . S
C559 C555 1.400 . S
C559 C558 1.385 . S
C560 C558 1.478 . S
C560 C562 1.381 . S
C560 C566 1.383 . S
C561 C557 1.495 . S
C561 H567 0.959 . S
C561 H568 0.961 . S
C561 H569 0.960 . S
C562 C560 1.381 . S
C562 C563 1.394 . S
C562 H570 0.930 . S
C563 C562 1.394 . S
C563 C564 1.383 . S
C563 H571 0.929 . S
C564 C563 1.383 . S
C564 C565 1.377 . S
C565 H549 0.930 . S
C565 C564 1.377 . S
C565 C566 1.379 . S
C566 H550 0.931 . S
C566 C560 1.383 . S
C566 C565 1.379 . S
H567 C561 0.959 . S
H568 C561 0.961 . S
H569 C561 0.960 . S
H570 C562 0.930 . S
H571 C563 0.929 . S
H572 C580 0.929 . S
H573 C582 0.930 . S
H574 C584 0.930 . S
H575 C587 0.929 . S
H576 C590 0.930 . S
H577 C592 0.960 . S
H578 C592 0.960 . S
H579 C592 0.960 . S
C580 H572 0.929 . S
C580 C581 1.377 . S
C580 C582 1.384 . S
C581 C580 1.377 . S
C581 C587 1.390 . S
C582 H573 0.930 . S
C582 C580 1.384 . S
C582 C583 1.372 . S
C583 C582 1.372 . S
C583 C584 1.400 . S
C583 C588 1.490 . S
C584 H574 0.930 . S
C584 C583 1.400 . S
C584 C587 1.386 . S
H585 C601 0.930 . S
H586 C602 0.931 . S
C587 H575 0.929 . S
C587 C581 1.390 . S
C587 C584 1.386 . S
C588 C583 1.490 . S
C588 C590 1.395 . S
C588 C591 1.403 . S
H589 C595 0.930 . S
C590 H576 0.930 . S
C590 C588 1.395 . S
C590 C593 1.403 . S
C591 C588 1.403 . S
C591 C592 1.524 . S
C591 C595 1.400 . S
C592 H577 0.960 . S
C592 H578 0.960 . S
C592 H579 0.960 . S
C592 C591 1.524 . S
C593 C590 1.403 . S
C593 C594 1.392 . S
C593 C597 1.495 . S
C594 C593 1.392 . S
C594 C595 1.385 . S
C594 C596 1.478 . S
C595 H589 0.930 . S
C595 C591 1.400 . S
C595 C594 1.385 . S
C596 C594 1.478 . S
C596 C598 1.381 . S
C596 C602 1.383 . S
C597 C593 1.495 . S
C597 H603 0.959 . S
C597 H604 0.961 . S
C597 H605 0.960 . S
C598 C596 1.381 . S
C598 C599 1.394 . S
C598 H606 0.930 . S
C599 C598 1.394 . S
C599 C600 1.383 . S
C599 H607 0.929 . S
C600 C599 1.383 . S
C600 C601 1.377 . S
C601 H585 0.930 . S
C601 C600 1.377 . S
C601 C602 1.379 . S
C602 H586 0.931 . S
C602 C596 1.383 . S
C602 C601 1.379 . S
H603 C597 0.959 . S
H604 C597 0.961 . S
H605 C597 0.960 . S
H606 C598 0.930 . S
H607 C599 0.929 . S
H608 C616 0.929 . S
H609 C618 0.930 . S
H610 C620 0.930 . S
H611 C623 0.929 . S
H612 C626 0.930 . S
H613 C628 0.960 . S
H614 C628 0.960 . S
H615 C628 0.960 . S
C616 H608 0.929 . S
C616 C617 1.377 . S
C616 C618 1.384 . S
C617 C616 1.377 . S
C617 C623 1.390 . S
C618 H609 0.930 . S
C618 C616 1.384 . S
C618 C619 1.372 . S
C619 C618 1.372 . S
C619 C620 1.400 . S
C619 C624 1.490 . S
C620 H610 0.930 . S
C620 C619 1.400 . S
C620 C623 1.386 . S
H621 C637 0.930 . S
H622 C638 0.931 . S
C623 H611 0.929 . S
C623 C617 1.390 . S
C623 C620 1.386 . S
C624 C619 1.490 . S
C624 C626 1.395 . S
C624 C627 1.403 . S
H625 C631 0.930 . S
C626 H612 0.930 . S
C626 C624 1.395 . S
C626 C629 1.403 . S
C627 C624 1.403 . S
C627 C628 1.524 . S
C627 C631 1.400 . S
C628 H613 0.960 . S
C628 H614 0.960 . S
C628 H615 0.960 . S
C628 C627 1.524 . S
C629 C626 1.403 . S
C629 C630 1.392 . S
C629 C633 1.495 . S
C630 C629 1.392 . S
C630 C631 1.385 . S
C630 C632 1.478 . S
C631 H625 0.930 . S
C631 C627 1.400 . S
C631 C630 1.385 . S
C632 C630 1.478 . S
C632 C634 1.381 . S
C632 C638 1.383 . S
C633 C629 1.495 . S
C633 H639 0.959 . S
C633 H640 0.961 . S
C633 H641 0.960 . S
C634 C632 1.381 . S
C634 C635 1.394 1_455 S
C634 H642 0.930 . S
C635 C634 1.394 1_655 S
C635 C636 1.383 . S
C635 H643 0.929 . S
C636 C635 1.383 . S
C636 C637 1.377 . S
C637 H621 0.930 . S
C637 C636 1.377 . S
C637 C638 1.379 1_655 S
C638 H622 0.931 . S
C638 C632 1.383 . S
C638 C637 1.379 1_455 S
H639 C633 0.959 . S
H640 C633 0.961 . S
H641 C633 0.960 . S
H642 C634 0.930 . S
H643 C635 0.929 . S
H644 C652 0.929 . S
H645 C654 0.930 . S
H646 C656 0.930 . S
H647 C659 0.929 . S
H648 C662 0.930 . S
H649 C664 0.960 . S
H650 C664 0.960 . S
H651 C664 0.960 . S
C652 H644 0.929 . S
C652 C653 1.377 . S
C652 C654 1.384 . S
C653 C652 1.377 . S
C653 C659 1.390 . S
C654 H645 0.930 . S
C654 C652 1.384 . S
C654 C655 1.372 . S
C655 C654 1.372 . S
C655 C656 1.400 . S
C655 C660 1.490 . S
C656 H646 0.930 . S
C656 C655 1.400 . S
C656 C659 1.386 . S
H657 C673 0.930 . S
H658 C674 0.931 . S
C659 H647 0.929 . S
C659 C653 1.390 . S
C659 C656 1.386 . S
C660 C655 1.490 . S
C660 C662 1.395 . S
C660 C663 1.403 . S
H661 C667 0.930 . S
C662 H648 0.930 . S
C662 C660 1.395 . S
C662 C665 1.403 . S
C663 C660 1.403 . S
C663 C664 1.524 . S
C663 C667 1.400 . S
C664 H649 0.960 . S
C664 H650 0.960 . S
C664 H651 0.960 . S
C664 C663 1.524 . S
C665 C662 1.403 . S
C665 C666 1.392 . S
C665 C669 1.495 . S
C666 C665 1.392 . S
C666 C667 1.385 . S
C666 C668 1.478 . S
C667 H661 0.930 . S
C667 C663 1.400 . S
C667 C666 1.385 . S
C668 C666 1.478 . S
C668 C670 1.381 . S
C668 C674 1.383 . S
C669 C665 1.495 . S
C669 H675 0.959 . S
C669 H676 0.961 . S
C669 H677 0.960 . S
C670 C668 1.381 . S
C670 C671 1.394 . S
C670 H678 0.930 . S
C671 C670 1.394 . S
C671 C672 1.383 . S
C671 H679 0.929 . S
C672 C671 1.383 . S
C672 C673 1.377 . S
C673 H657 0.930 . S
C673 C672 1.377 . S
C673 C674 1.379 . S
C674 H658 0.931 . S
C674 C668 1.383 . S
C674 C673 1.379 . S
H675 C669 0.959 . S
H676 C669 0.961 . S
H677 C669 0.960 . S
H678 C670 0.930 . S
H679 C671 0.929 . S
C113 C5 0.637 . S
C132 C29 0.640 . S
C149 C16 0.636 . S
C168 C42 0.635 . S
C185 C55 0.637 . S
C204 C81 0.632 . S
C221 C68 0.637 . S
C240 C94 0.641 . S
C257 C10 1.433 . S
C276 C69 1.448 . S
C293 C17 1.434 . S
C312 C82 1.448 . S
C329 C95 1.435 . S
C348 C30 1.431 . S
C365 C43 1.438 . S
C384 C56 1.435 . S
C401 C57 1.698 . S
C420 C4 1.711 . S
C437 C23 1.732 . S
C456 C70 1.708 . S
C473 C36 1.726 . S
C492 C83 1.690 . S
C509 C49 1.732 . S
C528 C96 1.720 . S
C545 C3 1.704 . S
C564 C62 1.719 . S
C581 C75 1.727 . S
C600 C18 1.704 . S
C617 C88 1.731 . S
C636 C31 1.693 . S
C653 C44 1.703 . S
C672 C101 1.716 . S
