# Generated by pormake.
# Topology bcg, (8)-cn, num edge types: 1
# Building blocks:
#     Node 0, Type 0, BuildingBlock: EBIMEJ_clean_sbu_0, # of connection points: 8
#     Node 1, Type 0, BuildingBlock: EBIMEJ_clean_sbu_0, # of connection points: 8
#     Node 2, Type 0, BuildingBlock: EBIMEJ_clean_sbu_0, # of connection points: 8
#     Node 3, Type 0, BuildingBlock: EBIMEJ_clean_sbu_0, # of connection points: 8
#     Edge 4, Type (0, 0), BuildingBlock: FUNLAD_clean_linker_0, # of connection points: 2
#     Edge 5, Type (0, 0), BuildingBlock: FUNLAD_clean_linker_0, # of connection points: 2
#     Edge 6, Type (0, 0), BuildingBlock: FUNLAD_clean_linker_0, # of connection points: 2
#     Edge 7, Type (0, 0), BuildingBlock: FUNLAD_clean_linker_0, # of connection points: 2
#     Edge 8, Type (0, 0), BuildingBlock: FUNLAD_clean_linker_0, # of connection points: 2
#     Edge 9, Type (0, 0), BuildingBlock: FUNLAD_clean_linker_0, # of connection points: 2
#     Edge 10, Type (0, 0), BuildingBlock: FUNLAD_clean_linker_0, # of connection points: 2
#     Edge 11, Type (0, 0), BuildingBlock: FUNLAD_clean_linker_0, # of connection points: 2
#     Edge 12, Type (0, 0), BuildingBlock: FUNLAD_clean_linker_0, # of connection points: 2
#     Edge 13, Type (0, 0), BuildingBlock: FUNLAD_clean_linker_0, # of connection points: 2
#     Edge 14, Type (0, 0), BuildingBlock: FUNLAD_clean_linker_0, # of connection points: 2
#     Edge 15, Type (0, 0), BuildingBlock: FUNLAD_clean_linker_0, # of connection points: 2
#     Edge 16, Type (0, 0), BuildingBlock: FUNLAD_clean_linker_0, # of connection points: 2
#     Edge 17, Type (0, 0), BuildingBlock: FUNLAD_clean_linker_0, # of connection points: 2
#     Edge 18, Type (0, 0), BuildingBlock: FUNLAD_clean_linker_0, # of connection points: 2
#     Edge 19, Type (0, 0), BuildingBlock: FUNLAD_clean_linker_0, # of connection points: 2
# Relax obj value: 0.042
# Max RMSD: 0.091
# Mean RMSD: 0.091
data_MOF--net-bcg--node1-EBIMEJ_clean_sbu_0--edge1-FUNLAD_clean_linker_0
_symmetry_space_group_name_H-M    P1
_symmetry_Int_Tables_number       1
_symmetry_cell_setting            triclinic
loop_
_symmetry_equiv_pos_as_xyz
'x, y, z'
_cell_length_a     19.072772
_cell_length_b     32.413595
_cell_length_c     38.961175
_cell_angle_alpha  82.149149
_cell_angle_beta   89.970249
_cell_angle_gamma 89.880478
loop_
_atom_site_label
_atom_site_type_symbol
_atom_site_fract_x
_atom_site_fract_y
_atom_site_fract_z
_atom_type_partial_charge
Co0 Co 0.16928 0.24929 0.94847 0.0
Co1 Co 0.31344 0.25256 0.99396 0.0
Co2 Co 0.17395 0.25822 0.02892 0.0
H3 H 0.18858 0.26118 0.9885 0.0
O4 O 0.22179 0.2786 0.98222 0.0
H5 H 0.2984 0.24887 0.03447 0.0
O6 O 0.26493 0.23159 0.04039 0.0
Co7 Co 0.31658 0.25927 0.07522 0.0
O8 O 0.40955 0.23366 0.06379 0.0
O9 O 0.404 0.22592 1.00754 0.0
O10 O 0.23409 0.25464 0.10864 0.0
O11 O 0.13805 0.2457 0.07738 0.0
O12 O 0.10923 0.22135 0.91403 0.0
O13 O 0.1554 0.27872 0.89836 0.0
O14 O 0.30783 0.31866 0.05356 0.0
O15 O 0.35148 0.30878 1.00254 0.0
C16 C 0.04623 0.2794 0.98887 0.0
C17 C 0.31858 0.25958 0.91742 0.0
C18 C 0.37773 0.26439 0.13113 0.0
C19 C 0.13969 0.17711 0.99925 0.0
C20 C 0.43594 0.22205 0.03654 0.0
C21 C 0.1684 0.24814 0.10628 0.0
C22 C 0.11762 0.25026 0.88942 0.0
C23 C 0.33839 0.33252 0.02547 0.0
O24 O 0.07127 0.26427 0.96287 0.0
O25 O 0.08277 0.28417 0.01541 0.0
O26 O 0.34976 0.26575 0.94534 0.0
O27 O 0.25358 0.25078 0.91663 0.0
O28 O 0.39249 0.28611 0.10284 0.0
O29 O 0.32851 0.23961 0.12762 0.0
O30 O 0.16289 0.18948 0.96913 0.0
O31 O 0.13599 0.2015 0.02236 0.0
Co32 Co 0.67224 0.75239 0.94386 0.0
Co33 Co 0.81324 0.75063 0.9925 0.0
Co34 Co 0.67194 0.75672 0.02542 0.0
H35 H 0.68912 0.76121 0.98513 0.0
O36 O 0.72336 0.77817 0.97998 0.0
H37 H 0.79626 0.74726 0.033 0.0
O38 O 0.76247 0.72998 0.03837 0.0
Co39 Co 0.81265 0.75799 0.07392 0.0
O40 O 0.91141 0.74291 0.06029 0.0
O41 O 0.90303 0.72388 1.00726 0.0
O42 O 0.72679 0.75155 0.10549 0.0
O43 O 0.63246 0.74269 0.07305 0.0
O44 O 0.63073 0.71685 0.9085 0.0
O45 O 0.64266 0.78065 0.89532 0.0
O46 O 0.82181 0.81795 0.05365 0.0
O47 O 0.85124 0.80677 1.00044 0.0
C48 C 0.54909 0.78513 0.98242 0.0
C49 C 0.82094 0.7707 0.91497 0.0
C50 C 0.86206 0.75857 0.13345 0.0
C51 C 0.64412 0.67785 0.99202 0.0
C52 C 0.93797 0.72811 0.03443 0.0
C53 C 0.66136 0.7447 0.10237 0.0
C54 C 0.6225 0.7474 0.88527 0.0
C55 C 0.84664 0.83066 0.02389 0.0
O56 O 0.57537 0.77243 0.9556 0.0
O57 O 0.58235 0.78398 0.0109 0.0
O58 O 0.85217 0.76381 0.94429 0.0
O59 O 0.75448 0.76902 0.91194 0.0
O60 O 0.86987 0.78736 0.10869 0.0
O61 O 0.8259 0.72947 0.12443 0.0
O62 O 0.67284 0.69214 0.96354 0.0
O63 O 0.6342 0.70077 0.01587 0.0
Co64 Co 0.17373 0.76471 0.57389 0.0
Co65 Co 0.3117 0.75626 0.52672 0.0
Co66 Co 0.17016 0.75381 0.49329 0.0
H67 H 0.18722 0.75176 0.5335 0.0
O68 O 0.21909 0.73341 0.53954 0.0
H69 H 0.29542 0.75977 0.4863 0.0
O70 O 0.26274 0.77777 0.48036 0.0
Co71 Co 0.3129 0.74857 0.44571 0.0
O72 O 0.41341 0.75059 0.46228 0.0
O73 O 0.40563 0.7775 0.51202 0.0
O74 O 0.22975 0.7618 0.41333 0.0
O75 O 0.13218 0.76622 0.44485 0.0
O76 O 0.11523 0.79362 0.60848 0.0
O77 O 0.1609 0.73606 0.62426 0.0
O78 O 0.31976 0.68845 0.46592 0.0
O79 O 0.34145 0.69782 0.5205 0.0
C80 C 0.0521 0.72408 0.53895 0.0
C81 C 0.32327 0.76011 0.6011 0.0
C82 C 0.36683 0.75267 0.38689 0.0
C83 C 0.14981 0.83611 0.52229 0.0
C84 C 0.44154 0.76572 0.48749 0.0
C85 C 0.16384 0.76759 0.41572 0.0
C86 C 0.12421 0.76499 0.63327 0.0
C87 C 0.33889 0.67455 0.49653 0.0
O88 O 0.08165 0.73601 0.56535 0.0
O89 O 0.07952 0.72889 0.50877 0.0
O90 O 0.34757 0.74387 0.57538 0.0
O91 O 0.26159 0.77552 0.60094 0.0
O92 O 0.31976 0.72725 0.39811 0.0
O93 O 0.38222 0.77622 0.40882 0.0
O94 O 0.18074 0.8234 0.55054 0.0
O95 O 0.1348 0.81117 0.50059 0.0
Co96 Co 0.67294 0.25755 0.57648 0.0
Co97 Co 0.81535 0.25681 0.52954 0.0
Co98 Co 0.67545 0.24749 0.4961 0.0
H99 H 0.69142 0.24564 0.53632 0.0
O100 O 0.72591 0.22905 0.54238 0.0
H101 H 0.79875 0.25996 0.48934 0.0
O102 O 0.764 0.27639 0.48352 0.0
Co103 Co 0.81638 0.24878 0.44882 0.0
O104 O 0.9132 0.26843 0.46096 0.0
O105 O 0.90444 0.28451 0.51489 0.0
O106 O 0.73376 0.25558 0.41545 0.0
O107 O 0.6372 0.25854 0.44789 0.0
O108 O 0.66306 0.29051 0.6181 0.0
O109 O 0.61471 0.23306 0.61903 0.0
O110 O 0.80404 0.19008 0.47177 0.0
O111 O 0.85506 0.20109 0.52071 0.0
C112 C 0.55089 0.22359 0.53773 0.0
C113 C 0.82179 0.23979 0.60669 0.0
C114 C 0.87842 0.24438 0.39308 0.0
C115 C 0.63669 0.32811 0.52526 0.0
C116 C 0.93887 0.28297 0.48706 0.0
C117 C 0.66745 0.25929 0.41849 0.0
C118 C 0.62498 0.2635 0.6352 0.0
C119 C 0.83784 0.17662 0.49901 0.0
O120 O 0.57548 0.2401 0.56313 0.0
O121 O 0.58697 0.21923 0.5109 0.0
O122 O 0.85415 0.24409 0.57764 0.0
O123 O 0.75538 0.2431 0.60895 0.0
O124 O 0.89606 0.22451 0.42174 0.0
O125 O 0.82583 0.267 0.39612 0.0
O126 O 0.66263 0.31705 0.55505 0.0
O127 O 0.63313 0.30303 0.50272 0.0
C128 C 0.5446 0.20454 1.00613 0.0
C129 C 0.51061 0.21028 0.03715 0.0
C130 C 0.61735 0.2063 1.00401 0.0
C131 C 0.65696 0.21363 0.03291 0.0
C132 C 0.6239 0.21356 0.065 0.0
C133 C 0.55096 0.21208 0.06714 0.0
C134 C 0.73098 0.22608 0.02929 0.0
C135 C 0.75297 0.25251 1.00176 0.0
C136 C 0.82585 0.26724 0.99817 0.0
C137 C 0.85643 0.27315 0.96519 0.0
C138 C 0.92804 0.28097 0.96159 0.0
C139 C 0.96963 0.28358 0.99099 0.0
H140 H 0.84269 0.27148 0.05269 0.0
C141 C 0.93727 0.28227 0.02353 0.0
C142 C 0.86586 0.274 0.02712 0.0
H143 H 0.96774 0.28458 0.04665 0.0
H144 H 0.51514 0.20201 0.98275 0.0
H145 H 0.64225 0.20445 0.97927 0.0
H146 H 0.65395 0.21825 0.08775 0.0
H147 H 0.52637 0.2157 0.09163 0.0
H148 H 0.76623 0.21605 0.05072 0.0
H149 H 0.71722 0.26259 0.98053 0.0
H150 H 0.82589 0.26905 0.94245 0.0
H151 H 0.95145 0.28239 0.93611 0.0
C152 C 0.04809 0.72132 1.00137 0.0
C153 C 0.01472 0.72362 0.03323 0.0
C154 C 0.11961 0.7291 0.99774 0.0
C155 C 0.15882 0.73901 0.02597 0.0
C156 C 0.12731 0.73665 0.05865 0.0
C157 C 0.05555 0.72925 0.06226 0.0
C158 C 0.23172 0.75355 0.02169 0.0
C159 C 0.25371 0.77766 0.99284 0.0
C160 C 0.32763 0.79005 0.98826 0.0
C161 C 0.35961 0.78867 0.95608 0.0
C162 C 0.43239 0.79099 0.95313 0.0
C163 C 0.47371 0.79511 0.98235 0.0
H164 H 0.34401 0.80238 0.04102 0.0
C165 C 0.44063 0.80192 0.01335 0.0
C166 C 0.36805 0.79932 0.0163 0.0
H167 H 0.4708 0.80621 0.03614 0.0
H168 H 0.01838 0.71646 0.97857 0.0
H169 H 0.14352 0.72882 0.97255 0.0
H170 H 0.15725 0.7432 0.08091 0.0
H171 H 0.0315 0.7306 0.08729 0.0
H172 H 0.26732 0.74533 0.04333 0.0
H173 H 0.21829 0.78581 0.97113 0.0
H174 H 0.32891 0.78249 0.93395 0.0
H175 H 0.45625 0.78647 0.92867 0.0
C176 C 0.54913 0.76172 0.52411 0.0
C177 C 0.51806 0.76181 0.49142 0.0
C178 C 0.61877 0.74941 0.5295 0.0
C179 C 0.65844 0.73707 0.50221 0.0
C180 C 0.62877 0.73971 0.4691 0.0
C181 C 0.55908 0.75174 0.46374 0.0
C182 C 0.73177 0.72302 0.50692 0.0
C183 C 0.75801 0.70483 0.53733 0.0
C184 C 0.83411 0.69821 0.54158 0.0
C185 C 0.87533 0.68672 0.51454 0.0
C186 C 0.94769 0.69192 0.51496 0.0
C187 C 0.97977 0.70832 0.54258 0.0
H188 H 0.83582 0.7177 0.59251 0.0
C189 C 0.93934 0.71456 0.57164 0.0
C190 C 0.86678 0.70942 0.57113 0.0
H191 H 0.96275 0.72652 0.5936 0.0
H192 H 0.51891 0.76932 0.54596 0.0
H193 H 0.64105 0.74948 0.55502 0.0
H194 H 0.65891 0.73118 0.44755 0.0
H195 H 0.53668 0.75166 0.4382 0.0
H196 H 0.76573 0.72884 0.48436 0.0
H197 H 0.72505 0.69933 0.56022 0.0
H198 H 0.85132 0.67627 0.49206 0.0
H199 H 0.97778 0.68559 0.49266 0.0
C200 C 0.04866 0.29502 0.51873 0.0
C201 C 0.01487 0.29091 0.48733 0.0
C202 C 0.12097 0.28995 0.52165 0.0
C203 C 0.16046 0.28096 0.49317 0.0
C204 C 0.12814 0.28205 0.4608 0.0
C205 C 0.05563 0.28677 0.45788 0.0
C206 C 0.23401 0.26734 0.49716 0.0
C207 C 0.25613 0.24234 0.52552 0.0
C208 C 0.32956 0.22853 0.52969 0.0
C209 C 0.36093 0.22636 0.56237 0.0
C210 C 0.4332 0.22083 0.56581 0.0
C211 C 0.47468 0.21686 0.53659 0.0
H212 H 0.34605 0.21968 0.47604 0.0
C213 C 0.4418 0.21407 0.50472 0.0
C214 C 0.36972 0.22001 0.50126 0.0
H215 H 0.47211 0.21044 0.48179 0.0
H216 H 0.01899 0.299 0.54178 0.0
H217 H 0.14539 0.29112 0.54659 0.0
H218 H 0.15816 0.27615 0.43835 0.0
H219 H 0.03125 0.28419 0.43315 0.0
H220 H 0.26938 0.27612 0.47553 0.0
H221 H 0.22061 0.23355 0.5471 0.0
H222 H 0.33038 0.23189 0.58476 0.0
H223 H 0.45695 0.22243 0.59085 0.0
C224 C 0.57359 0.61869 0.0242 0.0
C225 C 0.61432 0.63493 0.99539 0.0
C226 C 0.53987 0.58001 0.02523 0.0
C227 C 0.54619 0.5565 0.99739 0.0
C228 C 0.58821 0.57253 0.96907 0.0
C229 C 0.62179 0.61096 0.96807 0.0
C230 C 0.50909 0.516 0.99575 0.0
C231 C 0.47232 0.49457 0.022 0.0
C232 C 0.4353 0.45409 0.02018 0.0
C233 C 0.39014 0.43897 0.04751 0.0
C234 C 0.35676 0.40048 0.04838 0.0
C235 C 0.36765 0.37557 0.02194 0.0
H236 H 0.47994 0.43928 0.97176 0.0
C237 C 0.41155 0.39092 0.99409 0.0
C238 C 0.4451 0.42961 0.9932 0.0
H239 H 0.42168 0.37251 0.9734 0.0
H240 H 0.56624 0.63632 0.04563 0.0
H241 H 0.50789 0.56953 0.04759 0.0
H242 H 0.59446 0.55547 0.9472 0.0
H243 H 0.65242 0.62227 0.94532 0.0
H244 H 0.51239 0.50372 0.97129 0.0
H245 H 0.4684 0.50693 0.04639 0.0
H246 H 0.38129 0.45678 0.06872 0.0
H247 H 0.32364 0.38984 0.07039 0.0
C248 C 0.60915 0.39915 0.54117 0.0
C249 C 0.60339 0.36993 0.5177 0.0
C250 C 0.57342 0.43729 0.53531 0.0
C251 C 0.5303 0.44701 0.50593 0.0
C252 C 0.52607 0.41819 0.48213 0.0
C253 C 0.56198 0.38019 0.4879 0.0
C254 C 0.49032 0.48697 0.49847 0.0
C255 C 0.47541 0.51246 0.52227 0.0
C256 C 0.43601 0.55277 0.51483 0.0
C257 C 0.41731 0.57087 0.48109 0.0
C258 C 0.3832 0.60946 0.4755 0.0
C259 C 0.36748 0.63145 0.50329 0.0
H260 H 0.43225 0.56151 0.56896 0.0
C261 C 0.38512 0.61323 0.53701 0.0
C262 C 0.41871 0.57439 0.54266 0.0
H263 H 0.3741 0.62928 0.55905 0.0
H264 H 0.64101 0.3925 0.56427 0.0
H265 H 0.58043 0.45895 0.55379 0.0
H266 H 0.49394 0.42481 0.45909 0.0
H267 H 0.55602 0.35851 0.46927 0.0
H268 H 0.47069 0.49446 0.47229 0.0
H269 H 0.49176 0.50337 0.54888 0.0
H270 H 0.43001 0.55629 0.45856 0.0
H271 H 0.37133 0.62268 0.44908 0.0
C272 C 0.10879 0.10813 0.98047 0.0
C273 C 0.10987 0.13434 1.00647 0.0
C274 C 0.07582 0.06923 0.98608 0.0
C275 C 0.0426 0.05548 0.01787 0.0
C276 C 0.04562 0.0811 0.0442 0.0
C277 C 0.07849 0.12008 0.03858 0.0
C278 C 0.00571 0.01451 0.0249 0.0
C279 C 0.98058 0.9934 0.99989 0.0
C280 C 0.94393 0.95233 1.00671 0.0
C281 C 0.93996 0.92742 0.97992 0.0
C282 C 0.90719 0.88842 0.98516 0.0
C283 C 0.87682 0.87339 0.01734 0.0
H284 H 0.91143 0.95632 0.05971 0.0
C285 C 0.87898 0.89883 0.04388 0.0
C286 C 0.91192 0.93778 0.03866 0.0
H287 H 0.85589 0.88849 0.06898 0.0
H288 H 0.13275 0.11782 0.95547 0.0
H289 H 0.07721 0.05008 0.96544 0.0
H290 H 0.02131 0.07125 0.06911 0.0
H291 H 0.07825 0.13928 0.05925 0.0
H292 H -0.00152 1.00185 0.0519 0.0
H293 H 0.98768 0.00621 0.97291 0.0
H294 H 0.96337 0.93786 0.9549 0.0
H295 H 0.90656 0.86985 0.96406 0.0
C296 C 0.91896 0.1201 0.52682 0.0
C297 C 0.86616 0.13338 0.50257 0.0
C298 C 0.95063 0.08088 0.52739 0.0
C299 C 0.93013 0.05395 0.50369 0.0
C300 C 0.87554 0.06666 0.48045 0.0
C301 C 0.8443 0.10586 0.47971 0.0
C302 C 0.96289 0.01217 0.50268 0.0
C303 C 0.02818 1.00183 0.51429 0.0
C304 C 0.06072 0.95988 0.51388 0.0
C305 C 0.11547 0.94772 0.53716 0.0
C306 C 0.14588 0.90819 0.53894 0.0
C307 C 0.12304 0.87973 0.5171 0.0
H308 H -0.00084 0.9406 0.47185 0.0
C309 C 0.0704 0.89248 0.49261 0.0
C310 C 0.03948 0.93207 0.49102 0.0
H311 H 0.05163 0.87147 0.47531 0.0
H312 H 0.93702 0.14037 0.54489 0.0
H313 H 0.99077 0.07186 0.54656 0.0
H314 H 0.85789 0.04652 0.46218 0.0
H315 H 0.80364 0.11484 0.46074 0.0
H316 H 0.93193 0.98948 0.49129 0.0
H317 H 0.05912 0.02461 0.52558 0.0
H318 H 0.13371 0.96852 0.55478 0.0
H319 H 0.18654 0.89968 0.55801 0.0
C320 C 0.65729 0.2642 0.35374 0.0
C321 C 0.62441 0.26296 0.38625 0.0
C322 C 0.61791 0.26503 0.32341 0.0
C323 C 0.54414 0.26499 0.32453 0.0
C324 C 0.51113 0.26393 0.35696 0.0
C325 C 0.55066 0.26312 0.38743 0.0
C326 C 0.50049 0.26371 0.29279 0.0
C327 C 0.52375 0.27653 0.26028 0.0
C328 C 0.48286 0.27372 0.22795 0.0
C329 C 0.5051 0.29741 0.19692 0.0
C330 C 0.47072 0.29459 0.1656 0.0
C331 C 0.41345 0.26769 0.16444 0.0
H332 H 0.40728 0.22712 0.24974 0.0
C333 C 0.39095 0.24388 0.19535 0.0
C334 C 0.42525 0.24677 0.22677 0.0
H335 H 0.34705 0.22274 0.19524 0.0
H336 H 0.71386 0.26369 0.35161 0.0
H337 H 0.64594 0.26441 0.29936 0.0
H338 H 0.45444 0.26345 0.35877 0.0
H339 H 0.52336 0.26189 0.41194 0.0
H340 H 0.44703 0.25267 0.29665 0.0
H341 H 0.57506 0.29091 0.25685 0.0
H342 H 0.54957 0.31817 0.19684 0.0
H343 H 0.48943 0.31327 0.14222 0.0
C344 C 0.64948 0.74228 0.16684 0.0
C345 C 0.61766 0.74073 0.13442 0.0
C346 C 0.60919 0.74122 0.19693 0.0
C347 C 0.5356 0.73887 0.19554 0.0
C348 C 0.50379 0.73595 0.16339 0.0
C349 C 0.54422 0.73707 0.13314 0.0
C350 C 0.49115 0.73836 0.22724 0.0
C351 C 0.51142 0.75598 0.25516 0.0
C352 C 0.46998 0.75558 0.28781 0.0
C353 C 0.49024 0.78263 0.31133 0.0
C354 C 0.45601 0.78211 0.34315 0.0
C355 C 0.40073 0.7543 0.35245 0.0
H356 H 0.39728 0.70598 0.28015 0.0
C357 C 0.37968 0.72743 0.32895 0.0
C358 C 0.41393 0.72796 0.29699 0.0
H359 H 0.33731 0.70555 0.33546 0.0
H360 H 0.70588 0.74464 0.16913 0.0
H361 H 0.63626 0.74185 0.22124 0.0
H362 H 0.44731 0.73352 0.16154 0.0
H363 H 0.51779 0.73568 0.10872 0.0
H364 H 0.43947 0.72457 0.22673 0.0
H365 H 0.56072 0.77281 0.25394 0.0
H366 H 0.53333 0.80412 0.30521 0.0
H367 H 0.47361 0.80314 0.3607 0.0
C368 C 0.42348 0.73502 0.64146 0.0
C369 C 0.3668 0.76224 0.6325 0.0
C370 C 0.46045 0.73628 0.67257 0.0
C371 C 0.44185 0.76521 0.69499 0.0
C372 C 0.38672 0.79306 0.68533 0.0
C373 C 0.34936 0.79138 0.6548 0.0
C374 C 0.4787 0.76843 0.7283 0.0
C375 C 0.5114 0.73647 0.74779 0.0
C376 C 0.54165 0.73994 0.78271 0.0
C377 C 0.54748 0.704 0.80723 0.0
C378 C 0.57358 0.70632 0.84056 0.0
C379 C 0.59504 0.74464 0.85003 0.0
H380 H 0.56352 0.8064 0.77372 0.0
C381 C 0.5908 0.78045 0.82534 0.0
C382 C 0.56471 0.77817 0.79206 0.0
H383 H 0.60787 0.81036 0.8317 0.0
H384 H 0.43833 0.71228 0.62482 0.0
H385 H 0.50374 0.71494 0.67876 0.0
H386 H 0.37154 0.81593 0.70181 0.0
H387 H 0.30649 0.81312 0.64869 0.0
H388 H 0.47323 0.79783 0.73848 0.0
H389 H 0.51141 0.70595 0.73923 0.0
H390 H 0.5308 0.67407 0.80076 0.0
H391 H 0.5767 0.67811 0.85894 0.0
C392 C 0.42945 0.27037 0.88081 0.0
C393 C 0.35743 0.26112 0.88402 0.0
C394 C 0.46416 0.26965 0.84894 0.0
C395 C 0.42729 0.25951 0.81981 0.0
C396 C 0.3556 0.25068 0.8232 0.0
C397 C 0.32121 0.25165 0.85456 0.0
C398 C 0.46055 0.25562 0.78575 0.0
C399 C 0.52137 0.2735 0.77411 0.0
C400 C 0.54903 0.26993 0.73872 0.0
C401 C 0.59072 0.30202 0.72154 0.0
C402 C 0.61526 0.30012 0.68785 0.0
C403 C 0.59912 0.26585 0.67075 0.0
H404 H 0.50476 0.209 0.73447 0.0
C405 C 0.5589 0.23329 0.68818 0.0
C406 C 0.53445 0.23515 0.72179 0.0
H407 H 0.54642 0.2062 0.67588 0.0
H408 H 0.45907 0.27761 0.90292 0.0
H409 H 0.51982 0.27599 0.84751 0.0
H410 H 0.32569 0.24266 0.80141 0.0
H411 H 0.26585 0.24422 0.85562 0.0
H412 H 0.43045 0.23887 0.76846 0.0
H413 H 0.54913 0.29349 0.7897 0.0
H414 H 0.60342 0.32897 0.73399 0.0
H415 H 0.64673 0.32554 0.67517 0.0
C416 C 0.05256 0.76442 0.38046 0.0
C417 C 0.12391 0.77486 0.38252 0.0
C418 C 0.01866 0.7672 0.34809 0.0
C419 C 0.05542 0.7809 0.31717 0.0
C420 C 0.12572 0.79287 0.31962 0.0
C421 C 0.15958 0.7896 0.35165 0.0
C422 C 0.02349 0.78374 0.28181 0.0
C423 C 0.96783 0.76125 0.27359 0.0
C424 C 0.94089 0.76181 0.23732 0.0
C425 C 0.89967 0.72836 0.22951 0.0
C426 C 0.87435 0.72719 0.19586 0.0
C427 C 0.8892 0.75965 0.1691 0.0
H428 H 0.98418 0.82176 0.21531 0.0
C429 C 0.92935 0.79348 0.17687 0.0
C430 C 0.95469 0.79468 0.21052 0.0
H431 H 0.94105 0.81922 0.15692 0.0
H432 H 0.02356 0.75291 0.4037 0.0
H433 H 0.96393 0.75867 0.34746 0.0
H434 H 0.15539 0.80396 0.29647 0.0
H435 H 0.21439 0.79822 0.35212 0.0
H436 H 0.0511 0.80303 0.2612 0.0
H437 H 0.94364 0.73941 0.29373 0.0
H438 H 0.88747 0.70273 0.24949 0.0
H439 H 0.84303 0.70083 0.19081 0.0
C440 C 0.88934 0.26271 0.32862 0.0
C441 C 0.91517 0.24162 0.36 0.0
C442 C 0.92455 0.26024 0.29737 0.0
C443 C 0.98643 0.23647 0.29689 0.0
C444 C 0.01213 0.21563 0.32841 0.0
C445 C 0.97683 0.21799 0.35955 0.0
C446 C 0.02793 0.23427 0.2647 0.0
C447 C 0.00252 0.2435 0.23218 0.0
C448 C 0.04627 0.24275 0.20044 0.0
C449 C 0.01342 0.23913 0.16867 0.0
C450 C 0.05277 0.23998 0.13815 0.0
C451 C 0.12604 0.24481 0.13866 0.0
H452 H 0.1471 0.25194 0.22436 0.0
C453 C 0.15878 0.24838 0.17051 0.0
C454 C 0.11957 0.24756 0.20088 0.0
H455 H 0.21494 0.25263 0.17204 0.0
H456 H 0.8421 0.28138 0.32821 0.0
H457 H 0.90381 0.27775 0.27396 0.0
H458 H 0.05996 0.19745 0.32899 0.0
H459 H -0.00179 0.20156 0.38334 0.0
H460 H 0.08158 0.22332 0.26828 0.0
H461 H 0.9473 0.25085 0.22835 0.0
H462 H 0.957 0.23581 0.16741 0.0
H463 H 0.02559 0.23743 0.11413 0.0
C464 C 0.05013 0.21582 0.84604 0.0
C465 C 0.09085 0.24939 0.85379 0.0
C466 C 0.02591 0.21441 0.81228 0.0
C467 C 0.04132 0.24687 0.78539 0.0
C468 C 0.08307 0.28009 0.79318 0.0
C469 C 0.10739 0.28143 0.82696 0.0
C470 C 0.0154 0.24717 0.74906 0.0
C471 C 0.95956 0.2249 0.74083 0.0
C472 C 0.92852 0.22725 0.7054 0.0
C473 C 0.85858 0.21476 0.70276 0.0
C474 C 0.82535 0.21761 0.67065 0.0
C475 C 0.86129 0.23258 0.63992 0.0
H476 H 0.0202 0.24996 0.67542 0.0
C477 C 0.93233 0.24357 0.64219 0.0
C478 C 0.96566 0.24106 0.67464 0.0
H479 H 0.96152 0.25526 0.61905 0.0
H480 H 0.03729 0.19039 0.86607 0.0
H481 H -0.0039 0.18745 0.80752 0.0
H482 H 0.09652 0.30535 0.77311 0.0
H483 H 0.13939 0.3075 0.83204 0.0
H484 H 0.04051 0.26855 0.72891 0.0
H485 H 0.93113 0.20615 0.76144 0.0
H486 H 0.82866 0.20361 0.72582 0.0
H487 H 0.77073 0.20862 0.67004 0.0
C488 C 0.05721 0.79977 0.67688 0.0
C489 C 0.09722 0.7659 0.66892 0.0
C490 C 0.03211 0.80082 0.71058 0.0
C491 C 0.04594 0.7677 0.7372 0.0
C492 C 0.08706 0.73422 0.72919 0.0
C493 C 0.11222 0.73324 0.6955 0.0
C494 C 0.01892 0.76678 0.77346 0.0
C495 C 0.96419 0.78992 0.78195 0.0
C496 C 0.93188 0.78661 0.81722 0.0
C497 C 0.8626 0.80054 0.81972 0.0
C498 C 0.82806 0.79661 0.85158 0.0
C499 C 0.86199 0.77906 0.88221 0.0
H500 H 0.02116 0.76025 0.84738 0.0
C501 C 0.93251 0.76672 0.88017 0.0
C502 C 0.96713 0.77032 0.84798 0.0
H503 H 0.96024 0.75309 0.90324 0.0
H504 H 0.04547 0.82566 0.65705 0.0
H505 H 0.00274 0.82795 0.7155 0.0
H506 H 0.09929 0.70842 0.74903 0.0
H507 H 0.14348 0.70686 0.69028 0.0
H508 H 0.0422 0.74412 0.7933 0.0
H509 H 0.93752 0.81022 0.76161 0.0
H510 H 0.83414 0.81363 0.7967 0.0
H511 H 0.77395 0.80677 0.85202 0.0
loop_
_geom_bond_atom_site_label_1
_geom_bond_atom_site_label_2
_geom_bond_distance
_geom_bond_site_symmetry_2
_ccdc_geom_bond_type
Co0 H3 2.400 . S
Co0 O4 2.009 . S
Co0 O12 2.115 . S
Co0 O13 2.315 . S
Co0 O24 2.053 . S
Co0 O27 2.094 . S
Co0 O30 2.122 . S
Co1 O4 2.126 . S
Co1 H5 2.388 1_556 S
Co1 O6 2.053 1_556 S
Co1 O9 2.047 . S
Co1 O15 2.113 . S
Co1 O26 2.063 . S
Co2 H3 2.388 1_554 S
Co2 O4 2.053 1_554 S
Co2 O6 2.126 . S
Co2 O11 2.063 . S
Co2 O25 2.047 . S
Co2 O31 2.113 . S
H3 Co0 2.400 . S
H3 Co2 2.388 1_556 S
H3 O4 0.760 . S
O4 Co0 2.009 . S
O4 Co1 2.126 . S
O4 Co2 2.053 1_556 S
O4 H3 0.760 . S
H5 Co1 2.388 1_554 S
H5 O6 0.760 . S
H5 Co7 2.400 . S
O6 Co1 2.053 1_554 S
O6 Co2 2.126 . S
O6 H5 0.760 . S
O6 Co7 2.009 . S
Co7 H5 2.400 . S
Co7 O6 2.009 . S
Co7 O8 2.053 . S
Co7 O10 2.094 . S
Co7 O14 2.122 . S
Co7 O28 2.115 . S
Co7 O29 2.315 . S
O8 Co7 2.053 . S
O8 C20 1.259 . S
O9 Co1 2.047 . S
O9 C20 1.257 1_556 S
O10 Co7 2.094 . S
O10 C21 1.253 . S
O11 Co2 2.063 . S
O11 C21 1.268 . S
O12 Co0 2.115 . S
O12 C22 1.281 . S
O13 Co0 2.315 . S
O13 C22 1.252 . S
O14 Co7 2.122 . S
O14 C23 1.272 . S
O15 Co1 2.113 . S
O15 C23 1.245 1_556 S
C16 O24 1.259 . S
C16 O25 1.257 1_556 S
C17 O26 1.268 . S
C17 O27 1.253 . S
C18 O28 1.281 . S
C18 O29 1.252 . S
C19 O30 1.272 . S
C19 O31 1.245 1_556 S
C20 O8 1.259 . S
C20 O9 1.257 1_554 S
C21 O10 1.253 . S
C21 O11 1.268 . S
C22 O12 1.281 . S
C22 O13 1.252 . S
C23 O14 1.272 . S
C23 O15 1.245 1_554 S
O24 Co0 2.053 . S
O24 C16 1.259 . S
O25 Co2 2.047 . S
O25 C16 1.257 1_554 S
O26 Co1 2.063 . S
O26 C17 1.268 . S
O27 Co0 2.094 . S
O27 C17 1.253 . S
O28 Co7 2.115 . S
O28 C18 1.281 . S
O29 Co7 2.315 . S
O29 C18 1.252 . S
O30 Co0 2.122 . S
O30 C19 1.272 . S
O31 Co2 2.113 . S
O31 C19 1.245 1_554 S
Co32 H35 2.400 . S
Co32 O36 2.009 . S
Co32 O44 2.115 . S
Co32 O45 2.315 . S
Co32 O56 2.053 . S
Co32 O59 2.094 . S
Co32 O62 2.122 . S
Co33 O36 2.126 . S
Co33 H37 2.388 1_556 S
Co33 O38 2.053 1_556 S
Co33 O41 2.047 . S
Co33 O47 2.113 . S
Co33 O58 2.063 . S
Co34 H35 2.388 1_554 S
Co34 O36 2.053 1_554 S
Co34 O38 2.126 . S
Co34 O43 2.063 . S
Co34 O57 2.047 . S
Co34 O63 2.113 . S
H35 Co32 2.400 . S
H35 Co34 2.388 1_556 S
H35 O36 0.760 . S
O36 Co32 2.009 . S
O36 Co33 2.126 . S
O36 Co34 2.053 1_556 S
O36 H35 0.760 . S
H37 Co33 2.388 1_554 S
H37 O38 0.760 . S
H37 Co39 2.400 . S
O38 Co33 2.053 1_554 S
O38 Co34 2.126 . S
O38 H37 0.760 . S
O38 Co39 2.009 . S
Co39 H37 2.400 . S
Co39 O38 2.009 . S
Co39 O40 2.053 . S
Co39 O42 2.094 . S
Co39 O46 2.122 . S
Co39 O60 2.115 . S
Co39 O61 2.315 . S
O40 Co39 2.053 . S
O40 C52 1.259 . S
O41 Co33 2.047 . S
O41 C52 1.257 1_556 S
O42 Co39 2.094 . S
O42 C53 1.253 . S
O43 Co34 2.063 . S
O43 C53 1.268 . S
O44 Co32 2.115 . S
O44 C54 1.281 . S
O45 Co32 2.315 . S
O45 C54 1.252 . S
O46 Co39 2.122 . S
O46 C55 1.272 . S
O47 Co33 2.113 . S
O47 C55 1.245 1_556 S
C48 O56 1.259 . S
C48 O57 1.257 1_556 S
C49 O58 1.268 . S
C49 O59 1.253 . S
C50 O60 1.281 . S
C50 O61 1.252 . S
C51 O62 1.272 . S
C51 O63 1.245 1_556 S
C52 O40 1.259 . S
C52 O41 1.257 1_554 S
C53 O42 1.253 . S
C53 O43 1.268 . S
C54 O44 1.281 . S
C54 O45 1.252 . S
C55 O46 1.272 . S
C55 O47 1.245 1_554 S
O56 Co32 2.053 . S
O56 C48 1.259 . S
O57 Co34 2.047 . S
O57 C48 1.257 1_554 S
O58 Co33 2.063 . S
O58 C49 1.268 . S
O59 Co32 2.094 . S
O59 C49 1.253 . S
O60 Co39 2.115 . S
O60 C50 1.281 . S
O61 Co39 2.315 . S
O61 C50 1.252 . S
O62 Co32 2.122 . S
O62 C51 1.272 . S
O63 Co34 2.113 . S
O63 C51 1.245 1_554 S
Co64 H67 2.400 . S
Co64 O68 2.009 . S
Co64 O76 2.115 . S
Co64 O77 2.315 . S
Co64 O88 2.053 . S
Co64 O91 2.094 . S
Co64 O94 2.122 . S
Co65 O68 2.126 . S
Co65 H69 2.388 . S
Co65 O70 2.053 . S
Co65 O73 2.047 . S
Co65 O79 2.113 . S
Co65 O90 2.063 . S
Co66 H67 2.388 . S
Co66 O68 2.053 . S
Co66 O70 2.126 . S
Co66 O75 2.063 . S
Co66 O89 2.047 . S
Co66 O95 2.113 . S
H67 Co64 2.400 . S
H67 Co66 2.388 . S
H67 O68 0.760 . S
O68 Co64 2.009 . S
O68 Co65 2.126 . S
O68 Co66 2.053 . S
O68 H67 0.760 . S
H69 Co65 2.388 . S
H69 O70 0.760 . S
H69 Co71 2.400 . S
O70 Co65 2.053 . S
O70 Co66 2.126 . S
O70 H69 0.760 . S
O70 Co71 2.009 . S
Co71 H69 2.400 . S
Co71 O70 2.009 . S
Co71 O72 2.053 . S
Co71 O74 2.094 . S
Co71 O78 2.122 . S
Co71 O92 2.115 . S
Co71 O93 2.315 . S
O72 Co71 2.053 . S
O72 C84 1.259 . S
O73 Co65 2.047 . S
O73 C84 1.257 . S
O74 Co71 2.094 . S
O74 C85 1.253 . S
O75 Co66 2.063 . S
O75 C85 1.268 . S
O76 Co64 2.115 . S
O76 C86 1.281 . S
O77 Co64 2.315 . S
O77 C86 1.252 . S
O78 Co71 2.122 . S
O78 C87 1.272 . S
O79 Co65 2.113 . S
O79 C87 1.245 . S
C80 O88 1.259 . S
C80 O89 1.257 . S
C81 O90 1.268 . S
C81 O91 1.253 . S
C82 O92 1.281 . S
C82 O93 1.252 . S
C83 O94 1.272 . S
C83 O95 1.245 . S
C84 O72 1.259 . S
C84 O73 1.257 . S
C85 O74 1.253 . S
C85 O75 1.268 . S
C86 O76 1.281 . S
C86 O77 1.252 . S
C87 O78 1.272 . S
C87 O79 1.245 . S
O88 Co64 2.053 . S
O88 C80 1.259 . S
O89 Co66 2.047 . S
O89 C80 1.257 . S
O90 Co65 2.063 . S
O90 C81 1.268 . S
O91 Co64 2.094 . S
O91 C81 1.253 . S
O92 Co71 2.115 . S
O92 C82 1.281 . S
O93 Co71 2.315 . S
O93 C82 1.252 . S
O94 Co64 2.122 . S
O94 C83 1.272 . S
O95 Co66 2.113 . S
O95 C83 1.245 . S
Co96 H99 2.400 . S
Co96 O100 2.009 . S
Co96 O108 2.115 . S
Co96 O109 2.315 . S
Co96 O120 2.053 . S
Co96 O123 2.094 . S
Co96 O126 2.122 . S
Co97 O100 2.126 . S
Co97 H101 2.388 . S
Co97 O102 2.053 . S
Co97 O105 2.047 . S
Co97 O111 2.113 . S
Co97 O122 2.063 . S
Co98 H99 2.388 . S
Co98 O100 2.053 . S
Co98 O102 2.126 . S
Co98 O107 2.063 . S
Co98 O121 2.047 . S
Co98 O127 2.113 . S
H99 Co96 2.400 . S
H99 Co98 2.388 . S
H99 O100 0.760 . S
O100 Co96 2.009 . S
O100 Co97 2.126 . S
O100 Co98 2.053 . S
O100 H99 0.760 . S
H101 Co97 2.388 . S
H101 O102 0.760 . S
H101 Co103 2.400 . S
O102 Co97 2.053 . S
O102 Co98 2.126 . S
O102 H101 0.760 . S
O102 Co103 2.009 . S
Co103 H101 2.400 . S
Co103 O102 2.009 . S
Co103 O104 2.053 . S
Co103 O106 2.094 . S
Co103 O110 2.122 . S
Co103 O124 2.115 . S
Co103 O125 2.315 . S
O104 Co103 2.053 . S
O104 C116 1.259 . S
O105 Co97 2.047 . S
O105 C116 1.257 . S
O106 Co103 2.094 . S
O106 C117 1.253 . S
O107 Co98 2.063 . S
O107 C117 1.268 . S
O108 Co96 2.115 . S
O108 C118 1.281 . S
O109 Co96 2.315 . S
O109 C118 1.252 . S
O110 Co103 2.122 . S
O110 C119 1.272 . S
O111 Co97 2.113 . S
O111 C119 1.245 . S
C112 O120 1.259 . S
C112 O121 1.257 . S
C113 O122 1.268 . S
C113 O123 1.253 . S
C114 O124 1.281 . S
C114 O125 1.252 . S
C115 O126 1.272 . S
C115 O127 1.245 . S
C116 O104 1.259 . S
C116 O105 1.257 . S
C117 O106 1.253 . S
C117 O107 1.268 . S
C118 O108 1.281 . S
C118 O109 1.252 . S
C119 O110 1.272 . S
C119 O111 1.245 . S
O120 Co96 2.053 . S
O120 C112 1.259 . S
O121 Co98 2.047 . S
O121 C112 1.257 . S
O122 Co97 2.063 . S
O122 C113 1.268 . S
O123 Co96 2.094 . S
O123 C113 1.253 . S
O124 Co103 2.115 . S
O124 C114 1.281 . S
O125 Co103 2.315 . S
O125 C114 1.252 . S
O126 Co96 2.122 . S
O126 C115 1.272 . S
O127 Co98 2.113 . S
O127 C115 1.245 . S
C128 C129 1.378 1_556 S
C128 C130 1.383 . S
C128 H144 0.959 . S
C129 C128 1.378 1_554 S
C129 C133 1.383 . S
C130 C128 1.383 . S
C130 C131 1.403 1_556 S
C130 H145 0.950 . S
C131 C130 1.403 1_554 S
C131 C132 1.375 . S
C131 C134 1.481 . S
C132 C131 1.375 . S
C132 C133 1.367 . S
C132 H146 0.951 . S
C133 C129 1.383 . S
C133 C132 1.367 . S
C133 H147 0.950 . S
C134 C131 1.481 . S
C134 C135 1.297 . S
C134 H148 0.950 . S
C135 C134 1.297 . S
C135 C136 1.479 . S
C135 H149 0.950 1_554 S
C136 C135 1.479 . S
C136 C137 1.375 1_554 S
C136 C142 1.404 . S
C137 C136 1.375 1_556 S
C137 C138 1.369 . S
C137 H150 0.950 . S
C138 C137 1.369 . S
C138 C139 1.392 . S
C138 H151 0.951 . S
C139 C138 1.392 . S
C139 C141 1.384 1_556 S
H140 C142 0.949 . S
C141 C139 1.384 1_554 S
C141 C142 1.385 . S
C141 H143 0.950 . S
C142 C136 1.404 . S
C142 H140 0.949 . S
C142 C141 1.385 . S
H143 C141 0.950 . S
H144 C128 0.959 . S
H145 C130 0.950 . S
H146 C132 0.951 . S
H147 C133 0.950 . S
H148 C134 0.950 . S
H149 C135 0.950 1_556 S
H150 C137 0.950 . S
H151 C138 0.951 . S
C152 C153 1.386 1_556 S
C152 C154 1.383 . S
C152 H168 0.951 . S
C153 C152 1.386 1_554 S
C153 C157 1.383 . S
C154 C152 1.383 . S
C154 C155 1.402 1_556 S
C154 H169 0.951 . S
C155 C154 1.402 1_554 S
C155 C156 1.375 . S
C155 C158 1.481 . S
C156 C155 1.375 . S
C156 C157 1.367 . S
C156 H170 0.951 . S
C157 C153 1.383 . S
C157 C156 1.367 . S
C157 H171 0.950 . S
C158 C155 1.481 . S
C158 C159 1.297 1_554 S
C158 H172 0.950 . S
C159 C158 1.297 1_556 S
C159 C160 1.479 . S
C159 H173 0.950 . S
C160 C159 1.479 . S
C160 C161 1.375 . S
C160 C166 1.404 1_556 S
C161 C160 1.375 . S
C161 C162 1.369 . S
C161 H174 0.950 . S
C162 C161 1.369 . S
C162 C163 1.392 . S
C162 H175 0.951 . S
C163 C162 1.392 . S
C163 C165 1.384 1_556 S
H164 C166 0.949 . S
C165 C163 1.384 1_554 S
C165 C166 1.385 . S
C165 H167 0.950 . S
C166 C160 1.404 1_554 S
C166 H164 0.949 . S
C166 C165 1.385 . S
H167 C165 0.950 . S
H168 C152 0.951 . S
H169 C154 0.951 . S
H170 C156 0.951 . S
H171 C157 0.950 . S
H172 C158 0.950 . S
H173 C159 0.950 . S
H174 C161 0.950 . S
H175 C162 0.951 . S
C176 C177 1.386 . S
C176 C178 1.383 . S
C176 H192 0.951 . S
C177 C176 1.386 . S
C177 C181 1.383 . S
C178 C176 1.383 . S
C178 C179 1.402 . S
C178 H193 0.951 . S
C179 C178 1.402 . S
C179 C180 1.375 . S
C179 C182 1.481 . S
C180 C179 1.375 . S
C180 C181 1.367 . S
C180 H194 0.951 . S
C181 C177 1.383 . S
C181 C180 1.367 . S
C181 H195 0.950 . S
C182 C179 1.481 . S
C182 C183 1.297 . S
C182 H196 0.950 . S
C183 C182 1.297 . S
C183 C184 1.479 . S
C183 H197 0.950 . S
C184 C183 1.479 . S
C184 C185 1.375 . S
C184 C190 1.404 . S
C185 C184 1.375 . S
C185 C186 1.369 . S
C185 H198 0.950 . S
C186 C185 1.369 . S
C186 C187 1.392 . S
C186 H199 0.951 . S
C187 C186 1.392 . S
C187 C189 1.384 . S
H188 C190 0.949 . S
C189 C187 1.384 . S
C189 C190 1.385 . S
C189 H191 0.950 . S
C190 C184 1.404 . S
C190 H188 0.949 . S
C190 C189 1.385 . S
H191 C189 0.950 . S
H192 C176 0.951 . S
H193 C178 0.951 . S
H194 C180 0.951 . S
H195 C181 0.950 . S
H196 C182 0.950 . S
H197 C183 0.950 . S
H198 C185 0.950 . S
H199 C186 0.951 . S
C200 C201 1.386 . S
C200 C202 1.383 . S
C200 H216 0.951 . S
C201 C200 1.386 . S
C201 C205 1.383 . S
C202 C200 1.383 . S
C202 C203 1.402 . S
C202 H217 0.951 . S
C203 C202 1.402 . S
C203 C204 1.375 . S
C203 C206 1.481 . S
C204 C203 1.375 . S
C204 C205 1.367 . S
C204 H218 0.951 . S
C205 C201 1.383 . S
C205 C204 1.367 . S
C205 H219 0.950 . S
C206 C203 1.481 . S
C206 C207 1.297 . S
C206 H220 0.950 . S
C207 C206 1.297 . S
C207 C208 1.479 . S
C207 H221 0.950 . S
C208 C207 1.479 . S
C208 C209 1.375 . S
C208 C214 1.404 . S
C209 C208 1.375 . S
C209 C210 1.369 . S
C209 H222 0.950 . S
C210 C209 1.369 . S
C210 C211 1.392 . S
C210 H223 0.951 . S
C211 C210 1.392 . S
C211 C213 1.384 . S
H212 C214 0.949 . S
C213 C211 1.384 . S
C213 C214 1.385 . S
C213 H215 0.950 . S
C214 C208 1.404 . S
C214 H212 0.949 . S
C214 C213 1.385 . S
H215 C213 0.950 . S
H216 C200 0.951 . S
H217 C202 0.951 . S
H218 C204 0.951 . S
H219 C205 0.950 . S
H220 C206 0.950 . S
H221 C207 0.950 . S
H222 C209 0.950 . S
H223 C210 0.951 . S
C224 C225 1.386 . S
C224 C226 1.383 . S
C224 H240 0.951 . S
C225 C224 1.386 . S
C225 C229 1.383 1_554 S
C226 C224 1.383 . S
C226 C227 1.409 . S
C226 H241 0.951 . S
C227 C226 1.409 . S
C227 C228 1.369 1_554 S
C227 C230 1.479 1_554 S
C228 C227 1.369 1_556 S
C228 C229 1.367 . S
C228 H242 0.951 . S
C229 C225 1.383 1_556 S
C229 C228 1.367 . S
C229 H243 0.950 . S
C230 C227 1.479 1_556 S
C230 C231 1.297 1_556 S
C230 H244 0.950 . S
C231 C230 1.297 1_554 S
C231 C232 1.479 . S
C231 H245 0.950 . S
C232 C231 1.479 . S
C232 C233 1.375 . S
C232 C238 1.404 1_554 S
C233 C232 1.375 . S
C233 C234 1.369 . S
C233 H246 0.950 . S
C234 C233 1.369 . S
C234 C235 1.392 . S
C234 H247 0.951 . S
C235 C234 1.392 . S
C235 C237 1.384 1_554 S
H236 C238 0.949 . S
C237 C235 1.384 1_556 S
C237 C238 1.385 . S
C237 H239 0.950 . S
C238 C232 1.404 1_556 S
C238 H236 0.949 . S
C238 C237 1.385 . S
H239 C237 0.950 . S
H240 C224 0.951 . S
H241 C226 0.951 . S
H242 C228 0.951 . S
H243 C229 0.950 . S
H244 C230 0.950 . S
H245 C231 0.950 . S
H246 C233 0.950 . S
H247 C234 0.951 . S
C248 C249 1.386 . S
C248 C250 1.383 . S
C248 H264 0.951 . S
C249 C248 1.386 . S
C249 C253 1.383 . S
C250 C248 1.383 . S
C250 C251 1.402 . S
C250 H265 0.951 . S
C251 C250 1.402 . S
C251 C252 1.375 . S
C251 C254 1.481 . S
C252 C251 1.375 . S
C252 C253 1.367 . S
C252 H266 0.951 . S
C253 C249 1.383 . S
C253 C252 1.367 . S
C253 H267 0.950 . S
C254 C251 1.481 . S
C254 C255 1.297 . S
C254 H268 0.950 . S
C255 C254 1.297 . S
C255 C256 1.479 . S
C255 H269 0.950 . S
C256 C255 1.479 . S
C256 C257 1.375 . S
C256 C262 1.404 . S
C257 C256 1.375 . S
C257 C258 1.369 . S
C257 H270 0.950 . S
C258 C257 1.369 . S
C258 C259 1.392 . S
C258 H271 0.951 . S
C259 C258 1.392 . S
C259 C261 1.384 . S
H260 C262 0.949 . S
C261 C259 1.384 . S
C261 C262 1.385 . S
C261 H263 0.950 . S
C262 C256 1.404 . S
C262 H260 0.949 . S
C262 C261 1.385 . S
H263 C261 0.950 . S
H264 C248 0.951 . S
H265 C250 0.951 . S
H266 C252 0.951 . S
H267 C253 0.950 . S
H268 C254 0.950 . S
H269 C255 0.950 . S
H270 C257 0.950 . S
H271 C258 0.951 . S
C272 C273 1.386 1_556 S
C272 C274 1.383 . S
C272 H288 0.951 . S
C273 C272 1.386 1_554 S
C273 C277 1.383 . S
C274 C272 1.383 . S
C274 C275 1.402 1_556 S
C274 H289 0.951 . S
C275 C274 1.402 1_554 S
C275 C276 1.375 . S
C275 C278 1.481 . S
C276 C275 1.375 . S
C276 C277 1.367 . S
C276 H290 0.951 . S
C277 C273 1.383 . S
C277 C276 1.367 . S
C277 H291 0.950 . S
C278 C275 1.481 . S
C278 C279 1.297 1_545 S
C278 H292 0.950 1_455 S
C279 C278 1.297 1_565 S
C279 C280 1.479 1_455 S
C279 H293 0.950 1_554 S
C280 C279 1.479 1_655 S
C280 C281 1.375 1_554 S
C280 C286 1.404 . S
C281 C280 1.375 1_556 S
C281 C282 1.369 . S
C281 H294 0.950 1_655 S
C282 C281 1.369 . S
C282 C283 1.380 1_556 S
C282 H295 0.951 . S
C283 C282 1.380 1_554 S
C283 C285 1.400 . S
H284 C286 0.949 . S
C285 C283 1.400 . S
C285 C286 1.385 . S
C285 H287 0.950 . S
C286 C280 1.404 . S
C286 H284 0.949 . S
C286 C285 1.385 . S
H287 C285 0.950 . S
H288 C272 0.951 . S
H289 C274 0.951 . S
H290 C276 0.951 . S
H291 C277 0.950 . S
H292 C278 0.950 1_655 S
H293 C279 0.950 1_556 S
H294 C281 0.950 1_455 S
H295 C282 0.951 . S
C296 C297 1.386 . S
C296 C298 1.383 . S
C296 H312 0.951 . S
C297 C296 1.386 . S
C297 C301 1.383 . S
C298 C296 1.383 . S
C298 C299 1.402 . S
C298 H313 0.951 . S
C299 C298 1.402 . S
C299 C300 1.375 . S
C299 C302 1.481 . S
C300 C299 1.375 . S
C300 C301 1.367 . S
C300 H314 0.951 . S
C301 C297 1.383 . S
C301 C300 1.367 . S
C301 H315 0.950 . S
C302 C299 1.481 . S
C302 C303 1.297 1_545 S
C302 H316 0.950 1_655 S
C303 C302 1.297 1_565 S
C303 C304 1.479 1_655 S
C303 H317 0.950 . S
C304 C303 1.479 1_455 S
C304 C305 1.375 . S
C304 C310 1.404 . S
C305 C304 1.375 . S
C305 C306 1.369 . S
C305 H318 0.960 . S
C306 C305 1.369 . S
C306 C307 1.392 . S
C306 H319 0.951 . S
C307 C306 1.392 . S
C307 C309 1.384 . S
H308 C310 0.949 . S
C309 C307 1.384 . S
C309 C310 1.385 . S
C309 H311 0.950 . S
C310 C304 1.404 . S
C310 H308 0.949 . S
C310 C309 1.385 . S
H311 C309 0.950 . S
H312 C296 0.951 . S
H313 C298 0.951 . S
H314 C300 0.951 . S
H315 C301 0.950 . S
H316 C302 0.950 1_455 S
H317 C303 0.950 . S
H318 C305 0.960 . S
H319 C306 0.951 . S
C320 C321 1.386 . S
C320 C322 1.383 . S
C320 H336 0.951 . S
C321 C320 1.386 . S
C321 C325 1.383 . S
C322 C320 1.383 . S
C322 C323 1.402 . S
C322 H337 0.951 . S
C323 C322 1.402 . S
C323 C324 1.375 . S
C323 C326 1.481 . S
C324 C323 1.375 . S
C324 C325 1.367 . S
C324 H338 0.951 . S
C325 C321 1.383 . S
C325 C324 1.367 . S
C325 H339 0.950 . S
C326 C323 1.481 . S
C326 C327 1.297 . S
C326 H340 0.950 . S
C327 C326 1.297 . S
C327 C328 1.479 . S
C327 H341 0.950 . S
C328 C327 1.479 . S
C328 C329 1.375 . S
C328 C334 1.404 . S
C329 C328 1.375 . S
C329 C330 1.369 . S
C329 H342 0.950 . S
C330 C329 1.369 . S
C330 C331 1.392 . S
C330 H343 0.951 . S
C331 C330 1.392 . S
C331 C333 1.384 . S
H332 C334 0.949 . S
C333 C331 1.384 . S
C333 C334 1.385 . S
C333 H335 0.950 . S
C334 C328 1.404 . S
C334 H332 0.949 . S
C334 C333 1.385 . S
H335 C333 0.950 . S
H336 C320 0.951 . S
H337 C322 0.951 . S
H338 C324 0.951 . S
H339 C325 0.950 . S
H340 C326 0.950 . S
H341 C327 0.950 . S
H342 C329 0.950 . S
H343 C330 0.951 . S
C344 C345 1.386 . S
C344 C346 1.383 . S
C344 H360 0.951 . S
C345 C344 1.386 . S
C345 C349 1.383 . S
C346 C344 1.383 . S
C346 C347 1.402 . S
C346 H361 0.951 . S
C347 C346 1.402 . S
C347 C348 1.375 . S
C347 C350 1.481 . S
C348 C347 1.375 . S
C348 C349 1.367 . S
C348 H362 0.951 . S
C349 C345 1.383 . S
C349 C348 1.367 . S
C349 H363 0.950 . S
C350 C347 1.481 . S
C350 C351 1.297 . S
C350 H364 0.950 . S
C351 C350 1.297 . S
C351 C352 1.479 . S
C351 H365 0.950 . S
C352 C351 1.479 . S
C352 C353 1.375 . S
C352 C358 1.404 . S
C353 C352 1.375 . S
C353 C354 1.369 . S
C353 H366 0.950 . S
C354 C353 1.369 . S
C354 C355 1.392 . S
C354 H367 0.951 . S
C355 C354 1.392 . S
C355 C357 1.384 . S
H356 C358 0.949 . S
C357 C355 1.384 . S
C357 C358 1.385 . S
C357 H359 0.950 . S
C358 C352 1.404 . S
C358 H356 0.949 . S
C358 C357 1.385 . S
H359 C357 0.950 . S
H360 C344 0.951 . S
H361 C346 0.951 . S
H362 C348 0.951 . S
H363 C349 0.950 . S
H364 C350 0.950 . S
H365 C351 0.950 . S
H366 C353 0.950 . S
H367 C354 0.951 . S
C368 C369 1.386 . S
C368 C370 1.383 . S
C368 H384 0.951 . S
C369 C368 1.386 . S
C369 C373 1.383 . S
C370 C368 1.383 . S
C370 C371 1.402 . S
C370 H385 0.951 . S
C371 C370 1.402 . S
C371 C372 1.375 . S
C371 C374 1.481 . S
C372 C371 1.375 . S
C372 C373 1.367 . S
C372 H386 0.951 . S
C373 C369 1.383 . S
C373 C372 1.367 . S
C373 H387 0.950 . S
C374 C371 1.481 . S
C374 C375 1.297 . S
C374 H388 0.950 . S
C375 C374 1.297 . S
C375 C376 1.479 . S
C375 H389 0.950 . S
C376 C375 1.479 . S
C376 C377 1.375 . S
C376 C382 1.404 . S
C377 C376 1.375 . S
C377 C378 1.369 . S
C377 H390 0.950 . S
C378 C377 1.369 . S
C378 C379 1.392 . S
C378 H391 0.951 . S
C379 C378 1.392 . S
C379 C381 1.384 . S
H380 C382 0.949 . S
C381 C379 1.384 . S
C381 C382 1.385 . S
C381 H383 0.950 . S
C382 C376 1.404 . S
C382 H380 0.949 . S
C382 C381 1.385 . S
H383 C381 0.950 . S
H384 C368 0.951 . S
H385 C370 0.951 . S
H386 C372 0.951 . S
H387 C373 0.950 . S
H388 C374 0.950 . S
H389 C375 0.950 . S
H390 C377 0.950 . S
H391 C378 0.951 . S
C392 C393 1.386 . S
C392 C394 1.383 . S
C392 H408 0.951 . S
C393 C392 1.386 . S
C393 C397 1.383 . S
C394 C392 1.383 . S
C394 C395 1.402 . S
C394 H409 0.951 . S
C395 C394 1.402 . S
C395 C396 1.375 . S
C395 C398 1.481 . S
C396 C395 1.375 . S
C396 C397 1.367 . S
C396 H410 0.951 . S
C397 C393 1.383 . S
C397 C396 1.367 . S
C397 H411 0.950 . S
C398 C395 1.481 . S
C398 C399 1.297 . S
C398 H412 0.950 . S
C399 C398 1.297 . S
C399 C400 1.479 . S
C399 H413 0.950 . S
C400 C399 1.479 . S
C400 C401 1.375 . S
C400 C406 1.404 . S
C401 C400 1.375 . S
C401 C402 1.369 . S
C401 H414 0.950 . S
C402 C401 1.369 . S
C402 C403 1.392 . S
C402 H415 0.951 . S
C403 C402 1.392 . S
C403 C405 1.384 . S
H404 C406 0.949 . S
C405 C403 1.384 . S
C405 C406 1.385 . S
C405 H407 0.950 . S
C406 C400 1.404 . S
C406 H404 0.949 . S
C406 C405 1.385 . S
H407 C405 0.950 . S
H408 C392 0.951 . S
H409 C394 0.951 . S
H410 C396 0.951 . S
H411 C397 0.950 . S
H412 C398 0.950 . S
H413 C399 0.950 . S
H414 C401 0.950 . S
H415 C402 0.951 . S
C416 C417 1.386 . S
C416 C418 1.383 . S
C416 H432 0.951 . S
C417 C416 1.386 . S
C417 C421 1.383 . S
C418 C416 1.383 . S
C418 C419 1.402 . S
C418 H433 0.951 . S
C419 C418 1.402 . S
C419 C420 1.375 . S
C419 C422 1.481 . S
C420 C419 1.375 . S
C420 C421 1.367 . S
C420 H434 0.951 . S
C421 C417 1.383 . S
C421 C420 1.367 . S
C421 H435 0.950 . S
C422 C419 1.481 . S
C422 C423 1.297 1_455 S
C422 H436 0.950 . S
C423 C422 1.297 1_655 S
C423 C424 1.479 . S
C423 H437 0.950 . S
C424 C423 1.479 . S
C424 C425 1.375 . S
C424 C430 1.404 . S
C425 C424 1.375 . S
C425 C426 1.369 . S
C425 H438 0.950 . S
C426 C425 1.369 . S
C426 C427 1.392 . S
C426 H439 0.951 . S
C427 C426 1.392 . S
C427 C429 1.384 . S
H428 C430 0.949 1_455 S
C429 C427 1.384 . S
C429 C430 1.385 . S
C429 H431 0.950 . S
C430 C424 1.404 . S
C430 H428 0.949 1_655 S
C430 C429 1.385 . S
H431 C429 0.950 . S
H432 C416 0.951 . S
H433 C418 0.951 . S
H434 C420 0.951 . S
H435 C421 0.950 . S
H436 C422 0.950 . S
H437 C423 0.950 . S
H438 C425 0.950 . S
H439 C426 0.951 . S
C440 C441 1.386 . S
C440 C442 1.383 . S
C440 H456 0.951 . S
C441 C440 1.386 . S
C441 C445 1.383 . S
C442 C440 1.383 . S
C442 C443 1.402 1_655 S
C442 H457 0.951 . S
C443 C442 1.402 1_455 S
C443 C444 1.375 . S
C443 C446 1.481 . S
C444 C443 1.375 . S
C444 C445 1.367 1_455 S
C444 H458 0.951 . S
C445 C441 1.383 . S
C445 C444 1.367 1_655 S
C445 H459 0.950 1_655 S
C446 C443 1.481 . S
C446 C447 1.297 . S
C446 H460 0.950 . S
C447 C446 1.297 . S
C447 C448 1.479 . S
C447 H461 0.950 1_455 S
C448 C447 1.479 . S
C448 C449 1.375 . S
C448 C454 1.404 . S
C449 C448 1.375 . S
C449 C450 1.369 . S
C449 H462 0.950 1_455 S
C450 C449 1.369 . S
C450 C451 1.392 . S
C450 H463 0.951 . S
C451 C450 1.392 . S
C451 C453 1.384 . S
H452 C454 0.949 . S
C453 C451 1.384 . S
C453 C454 1.385 . S
C453 H455 0.950 . S
C454 C448 1.404 . S
C454 H452 0.949 . S
C454 C453 1.385 . S
H455 C453 0.950 . S
H456 C440 0.951 . S
H457 C442 0.951 . S
H458 C444 0.951 . S
H459 C445 0.950 1_455 S
H460 C446 0.950 . S
H461 C447 0.950 1_655 S
H462 C449 0.950 1_655 S
H463 C450 0.951 . S
C464 C465 1.386 . S
C464 C466 1.383 1_455 S
C464 H480 0.951 1_455 S
C465 C464 1.386 . S
C465 C469 1.383 . S
C466 C464 1.383 1_655 S
C466 C467 1.402 1_655 S
C466 H481 0.951 . S
C467 C466 1.402 1_455 S
C467 C468 1.375 . S
C467 C470 1.481 . S
C468 C467 1.375 . S
C468 C469 1.367 . S
C468 H482 0.951 . S
C469 C465 1.383 . S
C469 C468 1.367 . S
C469 H483 0.950 . S
C470 C467 1.481 . S
C470 C471 1.297 1_455 S
C470 H484 0.950 . S
C471 C470 1.297 1_655 S
C471 C472 1.479 . S
C471 H485 0.950 . S
C472 C471 1.479 . S
C472 C473 1.375 . S
C472 C478 1.404 . S
C473 C472 1.375 . S
C473 C474 1.369 . S
C473 H486 0.950 . S
C474 C473 1.369 . S
C474 C475 1.392 . S
C474 H487 0.951 . S
C475 C474 1.392 . S
C475 C477 1.384 . S
H476 C478 0.949 1_455 S
C477 C475 1.384 . S
C477 C478 1.385 . S
C477 H479 0.950 . S
C478 C472 1.404 . S
C478 H476 0.949 1_655 S
C478 C477 1.385 . S
H479 C477 0.950 . S
H480 C464 0.951 1_655 S
H481 C466 0.951 . S
H482 C468 0.951 . S
H483 C469 0.950 . S
H484 C470 0.950 . S
H485 C471 0.950 . S
H486 C473 0.950 . S
H487 C474 0.951 . S
C488 C489 1.386 . S
C488 C490 1.383 1_455 S
C488 H504 0.951 1_455 S
C489 C488 1.386 . S
C489 C493 1.383 . S
C490 C488 1.383 1_655 S
C490 C491 1.402 1_655 S
C490 H505 0.951 . S
C491 C490 1.402 1_455 S
C491 C492 1.375 . S
C491 C494 1.481 . S
C492 C491 1.375 . S
C492 C493 1.367 . S
C492 H506 0.951 . S
C493 C489 1.383 . S
C493 C492 1.367 . S
C493 H507 0.950 . S
C494 C491 1.481 . S
C494 C495 1.297 1_455 S
C494 H508 0.950 . S
C495 C494 1.297 1_655 S
C495 C496 1.479 . S
C495 H509 0.950 . S
C496 C495 1.479 . S
C496 C497 1.375 . S
C496 C502 1.404 . S
C497 C496 1.375 . S
C497 C498 1.369 . S
C497 H510 0.950 . S
C498 C497 1.369 . S
C498 C499 1.392 . S
C498 H511 0.951 . S
C499 C498 1.392 . S
C499 C501 1.384 . S
H500 C502 0.949 . S
C501 C499 1.384 . S
C501 C502 1.385 . S
C501 H503 0.950 . S
C502 C496 1.404 . S
C502 H500 0.949 . S
C502 C501 1.385 . S
H503 C501 0.950 . S
H504 C488 0.951 1_655 S
H505 C490 0.951 . S
H506 C492 0.951 . S
H507 C493 0.950 . S
H508 C494 0.950 . S
H509 C495 0.950 . S
H510 C497 0.950 . S
H511 C498 0.951 . S
C129 C20 0.795 . S
C139 C16 0.787 1_655 S
C153 C52 0.795 1_455 S
C163 C48 0.790 . S
C177 C84 0.787 . S
C187 C80 0.795 1_655 S
C201 C116 0.795 1_455 S
C211 C112 0.789 . S
C225 C51 1.433 1_554 S
C235 C23 1.430 . S
C249 C115 1.439 . S
C259 C87 1.419 . S
C273 C19 1.475 1_554 S
C283 C55 1.400 . S
C297 C119 1.434 . S
C307 C83 1.429 . S
C321 C117 1.737 . S
C331 C18 1.698 . S
C345 C53 1.738 . S
C355 C82 1.726 . S
C369 C81 1.737 . S
C379 C54 1.733 . S
C393 C17 1.738 . S
C403 C118 1.738 . S
C417 C85 1.744 . S
C427 C50 1.716 . S
C441 C114 1.709 . S
C451 C21 1.723 . S
C465 C22 1.732 . S
C475 C113 1.730 . S
C489 C86 1.731 . S
C499 C49 1.732 . S
