# Generated by pormake.
# Topology qtz-e, (6)-cn, num edge types: 1
# Building blocks:
#     Node 0, Type 0, BuildingBlock: CUWYAW_clean_sbu_0, # of connection points: 6
#     Node 1, Type 0, BuildingBlock: CUWYAW_clean_sbu_0, # of connection points: 6
#     Node 2, Type 0, BuildingBlock: CUWYAW_clean_sbu_0, # of connection points: 6
#     Node 3, Type 0, BuildingBlock: CUWYAW_clean_sbu_0, # of connection points: 6
#     Node 4, Type 0, BuildingBlock: CUWYAW_clean_sbu_0, # of connection points: 6
#     Node 5, Type 0, BuildingBlock: CUWYAW_clean_sbu_0, # of connection points: 6
#     Edge 6, Type (0, 0), BuildingBlock: TEMPAE_clean_linker_10, # of connection points: 2
#     Edge 7, Type (0, 0), BuildingBlock: TEMPAE_clean_linker_10, # of connection points: 2
#     Edge 8, Type (0, 0), BuildingBlock: TEMPAE_clean_linker_10, # of connection points: 2
#     Edge 9, Type (0, 0), BuildingBlock: TEMPAE_clean_linker_10, # of connection points: 2
#     Edge 10, Type (0, 0), BuildingBlock: TEMPAE_clean_linker_10, # of connection points: 2
#     Edge 11, Type (0, 0), BuildingBlock: TEMPAE_clean_linker_10, # of connection points: 2
#     Edge 12, Type (0, 0), BuildingBlock: TEMPAE_clean_linker_10, # of connection points: 2
#     Edge 13, Type (0, 0), BuildingBlock: TEMPAE_clean_linker_10, # of connection points: 2
#     Edge 14, Type (0, 0), BuildingBlock: TEMPAE_clean_linker_10, # of connection points: 2
#     Edge 15, Type (0, 0), BuildingBlock: TEMPAE_clean_linker_10, # of connection points: 2
#     Edge 16, Type (0, 0), BuildingBlock: TEMPAE_clean_linker_10, # of connection points: 2
#     Edge 17, Type (0, 0), BuildingBlock: TEMPAE_clean_linker_10, # of connection points: 2
#     Edge 18, Type (0, 0), BuildingBlock: TEMPAE_clean_linker_10, # of connection points: 2
#     Edge 19, Type (0, 0), BuildingBlock: TEMPAE_clean_linker_10, # of connection points: 2
#     Edge 20, Type (0, 0), BuildingBlock: TEMPAE_clean_linker_10, # of connection points: 2
#     Edge 21, Type (0, 0), BuildingBlock: TEMPAE_clean_linker_10, # of connection points: 2
#     Edge 22, Type (0, 0), BuildingBlock: TEMPAE_clean_linker_10, # of connection points: 2
#     Edge 23, Type (0, 0), BuildingBlock: TEMPAE_clean_linker_10, # of connection points: 2
# Relax obj value: 0.136
# Max RMSD: 0.205
# Mean RMSD: 0.205
data_MOF--net-qtz-e--node1-CUWYAW_clean_sbu_0--edge1-TEMPAE_clean_linker_10
_symmetry_space_group_name_H-M    P1
_symmetry_Int_Tables_number       1
_symmetry_cell_setting            triclinic
loop_
_symmetry_equiv_pos_as_xyz
'x, y, z'
_cell_length_a     25.627308
_cell_length_b     25.49024
_cell_length_c     52.299958
_cell_angle_alpha  90.000496
_cell_angle_beta   90.169618
_cell_angle_gamma 119.97061
loop_
_atom_site_label
_atom_site_type_symbol
_atom_site_fract_x
_atom_site_fract_y
_atom_site_fract_z
_atom_type_partial_charge
C0 C 0.19148 0.24422 0.02446 0.0
Eu1 Eu 0.19226 0.33381 0.04858 0.0
C2 C 0.20956 0.24078 0.99773 0.0
C3 C 0.16696 0.22261 0.97779 0.0
C4 C 0.18452 0.2262 0.95227 0.0
C5 C 0.24505 0.24731 0.94592 0.0
C6 C 0.28733 0.26294 0.96585 0.0
C7 C 0.26986 0.26001 0.99146 0.0
C8 C 0.10986 0.36809 0.03881 0.0
C9 C 0.27325 0.45006 1.01152 0.0
C10 C 0.2316 0.56095 0.08088 0.0
Eu11 Eu 0.22222 0.45925 0.06667 0.0
C12 C 0.23584 0.58539 0.10691 0.0
C13 C 0.26575 0.57257 0.12637 0.0
C14 C 0.26507 0.5903 0.15155 0.0
C15 C 0.2345 0.62136 0.15795 0.0
C16 C 0.20564 0.63543 0.13837 0.0
C17 C 0.2061 0.61732 0.11307 0.0
C18 C 0.28884 0.41652 0.08973 0.0
C19 C 0.1437 0.34351 0.10246 0.0
O20 O 0.23421 0.27883 0.0406 0.0
O21 O 0.14389 0.25008 0.02683 0.0
O22 O 0.09481 0.315 0.04784 0.0
O23 O 0.16551 0.39911 0.03637 0.0
O24 O 0.24911 0.39143 1.01575 0.0
O25 O 0.26753 0.4864 0.02793 0.0
O26 O 0.17967 0.51307 0.07514 0.0
O27 O 0.2779 0.55609 0.07339 0.0
O28 O 0.26726 0.44647 0.10108 0.0
O29 O 0.27395 0.41049 0.06644 0.0
O30 O 0.14826 0.39398 0.09313 0.0
O31 O 0.16606 0.31389 0.09005 0.0
H32 H 0.12002 0.20694 0.98184 0.0
H33 H 0.15055 0.21247 0.93745 0.0
H34 H 0.33431 0.27925 0.96164 0.0
H35 H 0.30392 0.27426 1.00627 0.0
H36 H 0.28906 0.54801 0.12225 0.0
H37 H 0.28846 0.57953 0.16608 0.0
H38 H 0.18129 0.6589 0.14273 0.0
H39 H 0.18228 0.6272 0.09844 0.0
C40 C 0.9002 0.19625 0.35673 0.0
Eu41 Eu 0.79606 0.17453 0.37423 0.0
C42 C 0.92896 0.21064 0.33124 0.0
C43 C 0.95732 0.17936 0.32212 0.0
C44 C 0.98199 0.19056 0.29747 0.0
C45 C 0.97797 0.23272 0.28149 0.0
C46 C 0.9508 0.26491 0.29084 0.0
C47 C 0.92681 0.25423 0.3155 0.0
C48 C 0.68901 0.08094 0.35848 0.0
C49 C 0.74164 0.23698 0.33454 0.0
C50 C 0.58244 0.1564 0.408 0.0
Eu51 Eu 0.68564 0.18198 0.38866 0.0
C52 C 0.56606 0.15256 0.43516 0.0
C53 C 0.61062 0.16795 0.45397 0.0
C54 C 0.59654 0.16568 0.47984 0.0
C55 C 0.53757 0.14837 0.4875 0.0
C56 C 0.49274 0.13208 0.46858 0.0
C57 C 0.50691 0.1341 0.44259 0.0
C58 C 0.78906 0.27973 0.40321 0.0
C59 C 0.73924 0.12007 0.42813 0.0
O60 O 0.89101 0.23755 0.36724 0.0
O61 O 0.85441 0.14151 0.35967 0.0
O62 O 0.73137 0.0726 0.36774 0.0
O63 O 0.70531 0.13586 0.35823 0.0
O64 O 0.78914 0.234 0.34289 0.0
O65 O 0.69069 0.21189 0.34765 0.0
O66 O 0.5949 0.11508 0.40023 0.0
O67 O 0.62187 0.21063 0.40002 0.0
O68 O 0.74144 0.28128 0.39613 0.0
O69 O 0.77917 0.22607 0.4042 0.0
O70 O 0.69151 0.12077 0.41896 0.0
O71 O 0.79073 0.14617 0.41552 0.0
H72 H 0.95973 0.14573 0.33394 0.0
H73 H 0.00292 0.16533 0.29068 0.0
H74 H 0.94838 0.2986 0.27908 0.0
H75 H 0.90614 0.2798 0.32212 0.0
H76 H 0.65671 0.1827 0.44861 0.0
H77 H 0.63232 0.17923 0.49382 0.0
H78 H 0.44672 0.11784 0.47387 0.0
H79 H 0.47191 0.12179 0.42834 0.0
C80 C 0.71787 0.95499 0.69373 0.0
Eu81 Eu 0.63577 0.85434 0.71381 0.0
C82 C 0.72249 0.97782 0.66715 0.0
C83 C 0.76453 0.97703 0.65017 0.0
C84 C 0.76451 0.99107 0.62428 0.0
C85 C 0.72292 0.00699 0.61476 0.0
C86 C 0.68214 0.00978 0.63185 0.0
C87 C 0.68169 -0.0049 0.65772 0.0
C88 C 0.62449 0.74548 0.70132 0.0
C89 C 0.52114 0.7851 0.67808 0.0
C90 C 0.443 0.63606 0.75167 0.0
Eu91 Eu 0.5271 0.74102 0.73561 0.0
C92 C 0.42749 0.61393 0.77809 0.0
C93 C 0.45219 0.65516 0.79843 0.0
C94 C 0.43973 0.63523 0.82368 0.0
C95 C 0.40248 0.57342 0.82921 0.0
C96 C 0.37792 0.532 0.80875 0.0
C97 C 0.3904 0.55216 0.78337 0.0
C98 C 0.53273 0.84651 0.7487 0.0
C99 C 0.64174 0.81455 0.7724 0.0
O100 O 0.67424 0.95159 0.70796 0.0
O101 O 0.72428 0.90741 0.69628 0.0
O102 O 0.63945 0.78892 0.68503 0.0
O103 O 0.61654 0.76203 0.72276 0.0
O104 O 0.56493 0.83882 0.68509 0.0
O105 O 0.50317 0.73721 0.69312 0.0
O106 O 0.49573 0.64609 0.74399 0.0
O107 O 0.43304 0.68006 0.74544 0.0
O108 O 0.51405 0.80022 0.76372 0.0
O109 O 0.54545 0.83418 0.72707 0.0
O110 O 0.59293 0.76217 0.76754 0.0
O111 O 0.6648 0.85947 0.75553 0.0
H112 H 0.79651 0.96396 0.65679 0.0
H113 H 0.79701 0.98929 0.61164 0.0
H114 H 0.64935 0.02159 0.62506 0.0
H115 H 0.64831 -0.00416 0.67013 0.0
H116 H 0.48115 0.70302 0.79478 0.0
H117 H 0.45858 0.66852 0.83888 0.0
H118 H 0.34956 0.48401 0.81237 0.0
H119 H 0.37129 0.51957 0.76794 0.0
C120 C 0.83335 0.7494 0.0218 0.0
Eu121 Eu 0.82388 0.65009 0.04007 0.0
C122 C 0.82571 0.76792 0.99589 0.0
C123 C 0.8554 0.76118 0.97465 0.0
C124 C 0.84436 0.77491 0.95003 0.0
C125 C 0.80284 0.79501 0.94599 0.0
C126 C 0.77373 0.80229 0.96738 0.0
C127 C 0.78525 0.78912 0.99202 0.0
C128 C 0.9021 0.61026 0.03107 0.0
C129 C 0.75114 0.54426 0.99646 0.0
C130 C 0.76826 0.41988 0.07127 0.0
Eu131 Eu 0.78014 0.51976 0.05237 0.0
C132 C 0.76445 0.39792 0.09793 0.0
C133 C 0.70821 0.35649 0.10845 0.0
C134 C 0.70335 0.33911 0.13413 0.0
C135 C 0.75466 0.36253 0.14994 0.0
C136 C 0.81115 0.40258 0.13921 0.0
C137 C 0.81604 0.42005 0.11355 0.0
C138 C 0.69845 0.55515 0.06112 0.0
C139 C 0.85383 0.62627 0.09583 0.0
O140 O 0.78421 0.70698 0.03254 0.0
O141 O 0.87966 0.74173 0.02552 0.0
O142 O 0.91869 0.66258 0.04143 0.0
O143 O 0.84721 0.58365 0.02597 0.0
O144 O 0.76464 0.59805 1.00572 0.0
O145 O 0.76203 0.50691 1.01 0.0
O146 O 0.82011 0.46517 0.06388 0.0
O147 O 0.72271 0.42532 0.06333 0.0
O148 O 0.68642 0.50406 0.05089 0.0
O149 O 0.7536 0.58545 0.06667 0.0
O150 O 0.83779 0.57147 0.08703 0.0
O151 O 0.84572 0.66495 0.08198 0.0
H152 H 0.88655 0.74446 0.97696 0.0
H153 H 0.86828 0.76949 0.93415 0.0
H154 H 0.74063 0.8165 0.96507 0.0
H155 H 0.76138 0.79413 1.00805 0.0
H156 H 0.66763 0.33839 0.09694 0.0
H157 H 0.65912 0.30842 0.14177 0.0
H158 H 0.85175 0.42038 0.15067 0.0
H159 H 0.86021 0.45162 0.1061 0.0
C160 C 0.04297 0.76525 0.35973 0.0
Eu161 Eu 0.14335 0.77982 0.37808 0.0
C162 C 0.02174 0.75502 0.33281 0.0
C163 C 0.05958 0.79175 0.31309 0.0
C164 C 0.0421 0.77838 0.28748 0.0
C165 C 0.98659 0.72752 0.28083 0.0
C166 C 0.94844 0.69117 0.30063 0.0
C167 C 0.96585 0.70484 0.32632 0.0
C168 C 0.25264 0.87166 0.36371 0.0
C169 C 0.20906 0.73107 0.34172 0.0
C170 C 0.35562 0.78785 0.41533 0.0
Eu171 Eu 0.25473 0.77795 0.39978 0.0
C172 C 0.37438 0.78157 0.44133 0.0
C173 C 0.33206 0.73877 0.45827 0.0
C174 C 0.34767 0.73613 0.48361 0.0
C175 C 0.40589 0.77643 0.49272 0.0
C176 C 0.44876 0.81851 0.47563 0.0
C177 C 0.43301 0.82116 0.45014 0.0
C178 C 0.14655 0.68347 0.41321 0.0
C179 C 0.18981 0.82904 0.43604 0.0
O180 O 0.04739 0.72098 0.37029 0.0
O181 O 0.089 0.81868 0.36521 0.0
O182 O 0.20708 0.84581 0.34825 0.0
O183 O 0.23755 0.84883 0.3855 0.0
O184 O 0.15658 0.7247 0.34828 0.0
O185 O 0.25648 0.75759 0.35722 0.0
O186 O 0.34849 0.83475 0.41179 0.0
O187 O 0.31208 0.73832 0.40506 0.0
O188 O 0.19265 0.70769 0.42844 0.0
O189 O 0.16076 0.70821 0.39168 0.0
O190 O 0.24093 0.83096 0.43045 0.0
O191 O 0.14269 0.80448 0.42025 0.0
H192 H 0.10335 0.83039 0.31736 0.0
H193 H 0.0723 0.80803 0.27288 0.0
H194 H 0.90575 0.65118 0.29629 0.0
H195 H 0.93628 0.67526 0.34111 0.0
H196 H 0.28639 0.70785 0.45209 0.0
H197 H 0.31388 0.70265 0.49615 0.0
H198 H 0.49385 0.85055 0.48215 0.0
H199 H 0.46616 0.85496 0.43749 0.0
C200 C 0.2332 0.09345 0.68415 0.0
Eu201 Eu 0.3304 0.18047 0.70527 0.0
C202 C 0.21999 0.05678 0.66054 0.0
C203 C 0.17595 0.0535 0.64355 0.0
C204 C 0.16685 0.0249 0.6198 0.0
C205 C 0.20148 -0.00139 0.61248 0.0
C206 C 0.24422 0.0001 0.62991 0.0
C207 C 0.25362 0.02916 0.65364 0.0
C208 C 0.37287 0.29882 0.694 0.0
C209 C 0.4436 0.20074 0.66922 0.0
C210 C 0.56108 0.36322 0.73562 0.0
Eu211 Eu 0.45886 0.27072 0.72256 0.0
C212 C 0.58376 0.39174 0.76105 0.0
C213 C 0.63498 0.39371 0.77178 0.0
C214 C 0.65319 0.41494 0.79679 0.0
C215 C 0.62063 0.43484 0.81166 0.0
C216 C 0.5703 0.4344 0.80059 0.0
C217 C 0.55204 0.41307 0.77565 0.0
C218 C 0.41171 0.15964 0.74468 0.0
C219 C 0.3477 0.24185 0.75957 0.0
O220 O 0.26243 0.08434 0.70264 0.0
O221 O 0.25225 0.15087 0.68046 0.0
O222 O 0.31941 0.2646 0.70332 0.0
O223 O 0.40005 0.26989 0.69222 0.0
O224 O 0.38512 0.16964 0.67399 0.0
O225 O 0.48213 0.2446 0.68455 0.0
O226 O 0.51651 0.36828 0.72589 0.0
O227 O 0.55391 0.30885 0.73251 0.0
O228 O 0.44544 0.21049 0.75634 0.0
O229 O 0.40491 0.17024 0.72175 0.0
O230 O 0.39867 0.2855 0.74988 0.0
O231 O 0.315 0.1904 0.74702 0.0
H232 H 0.14948 0.07447 0.64842 0.0
H233 H 0.13291 0.02376 0.60705 0.0
H234 H 0.27175 0.98048 0.62489 0.0
H235 H 0.28821 0.03128 0.66627 0.0
H236 H 0.66005 0.3773 0.76105 0.0
H237 H 0.69176 0.41395 0.80473 0.0
H238 H 0.54471 0.45028 0.81126 0.0
H239 H 0.51227 0.41225 0.76806 0.0
C240 C 0.1638 0.68612 0.29925 0.0
C241 C 0.2145 0.71204 0.31545 0.0
C242 C 0.16788 0.67171 0.27375 0.0
C243 C 0.22404 0.68313 0.26403 0.0
C244 C 0.27534 0.70858 0.28028 0.0
C245 C 0.26996 0.72269 0.30583 0.0
C246 C 0.11199 0.64465 0.25715 0.0
C247 C 0.33612 0.72192 0.27053 0.0
C248 C 0.22041 0.59536 0.20459 0.0
C249 C 0.23193 0.63759 0.18509 0.0
C250 C 0.21851 0.60985 0.23035 0.0
C251 C 0.2286 0.66812 0.23685 0.0
C252 C 0.24026 0.711 0.21727 0.0
C253 C 0.24155 0.69514 0.19161 0.0
C254 C 0.20493 0.56248 0.25057 0.0
C255 C 0.25091 0.77349 0.2234 0.0
H256 H 0.12059 0.67768 0.30635 0.0
H257 H 0.30938 0.74297 0.3181 0.0
H258 H 0.1196 0.67345 0.24009 0.0
H259 H 0.10179 0.59939 0.25017 0.0
H260 H 0.07199 0.63975 0.26749 0.0
H261 H 0.37091 0.73901 0.28585 0.0
H262 H 0.33297 0.6805 0.2621 0.0
H263 H 0.35108 0.7564 0.25515 0.0
H264 H 0.21195 0.55045 0.19966 0.0
H265 H 0.2509 0.72809 0.17665 0.0
H266 H 0.16302 0.55217 0.26082 0.0
H267 H 0.24181 0.57996 0.26494 0.0
H268 H 0.1993 0.5197 0.2424 0.0
H269 H 0.20995 0.76998 0.23221 0.0
H270 H 0.26234 0.80255 0.20614 0.0
H271 H 0.28805 0.79606 0.23752 0.0
C272 C 0.51774 0.23137 0.63317 0.0
C273 C 0.46446 0.18767 0.64487 0.0
C274 C 0.53273 0.22221 0.60833 0.0
C275 C 0.49383 0.16785 0.59505 0.0
C276 C 0.442 0.12208 0.60744 0.0
C277 C 0.42781 0.13274 0.63207 0.0
C278 C 0.5885 0.27202 0.59579 0.0
C279 C 0.39923 0.06303 0.59435 0.0
C280 C 0.48813 0.17479 0.52256 0.0
C281 C 0.524 0.15026 0.51505 0.0
C282 C 0.4779 0.18046 0.5485 0.0
C283 C 0.50422 0.16124 0.56749 0.0
C284 C 0.53944 0.13522 0.56006 0.0
C285 C 0.54899 0.13016 0.53394 0.0
C286 C 0.43921 0.20749 0.55561 0.0
C287 C 0.56675 0.11249 0.57968 0.0
H288 H 0.54624 0.27393 0.64289 0.0
H289 H 0.3869 0.0983 0.64106 0.0
H290 H 0.61619 0.25367 0.5878 0.0
H291 H 0.57525 0.29118 0.57964 0.0
H292 H 0.61662 0.30923 0.60933 0.0
H293 H 0.37516 0.02627 0.60852 0.0
H294 H 0.36503 0.06865 0.58352 0.0
H295 H 0.42277 0.0486 0.58074 0.0
H296 H 0.46919 0.19103 0.50814 0.0
H297 H 0.5759 0.1102 0.52827 0.0
H298 H 0.46512 0.24783 0.56797 0.0
H299 H 0.39962 0.17413 0.56671 0.0
H300 H 0.42284 0.22114 0.53857 0.0
H301 H 0.59862 0.15051 0.59205 0.0
H302 H 0.59121 0.09148 0.57075 0.0
H303 H 0.53094 0.07853 0.59222 0.0
C304 C 0.30442 0.52457 0.97552 0.0
C305 C 0.3022 0.47324 0.98638 0.0
C306 C 0.32434 0.54183 0.95027 0.0
C307 C 0.34337 0.5075 0.93573 0.0
C308 C 0.34399 0.45741 0.94705 0.0
C309 C 0.3229 0.44056 0.97213 0.0
C310 C 0.32268 0.59532 0.9388 0.0
C311 C 0.36536 0.42064 0.93238 0.0
C312 C 0.32943 0.51019 0.8634 0.0
C313 C 0.38832 0.55309 0.85627 0.0
C314 C 0.31448 0.49433 0.88916 0.0
C315 C 0.3595 0.52198 0.90827 0.0
C316 C 0.41944 0.56385 0.90113 0.0
C317 C 0.43311 0.57884 0.87524 0.0
C318 C 0.25015 0.449 0.89597 0.0
C319 C 0.46896 0.59349 0.92086 0.0
H320 H 0.28808 0.5497 0.98633 0.0
H321 H 0.32177 0.40107 0.98048 0.0
H322 H 0.36744 0.62815 0.9309 0.0
H323 H 0.28997 0.57979 0.92271 0.0
H324 H 0.30952 0.61905 0.95297 0.0
H325 H 0.36629 0.3852 0.94436 0.0
H326 H 0.33539 0.3986 0.91572 0.0
H327 H 0.41127 0.45059 0.92478 0.0
H328 H 0.29446 0.49038 0.84893 0.0
H329 H 0.47901 0.61109 0.86984 0.0
H330 H 0.23165 0.47052 0.90871 0.0
H331 H 0.24842 0.41052 0.9066 0.0
H332 H 0.22071 0.43096 0.87882 0.0
H333 H 0.4584 0.62049 0.93434 0.0
H334 H 0.51356 0.62376 0.91209 0.0
H335 H 0.47206 0.55844 0.93226 0.0
C336 C 0.7008 0.27639 0.30034 0.0
C337 C 0.74315 0.26016 0.30831 0.0
C338 C 0.70031 0.29501 0.275 0.0
C339 C 0.74246 0.29639 0.25712 0.0
C340 C 0.78505 0.27982 0.2651 0.0
C341 C 0.78517 0.26246 0.29055 0.0
C342 C 0.65437 0.31264 0.26728 0.0
C343 C 0.8304 0.27989 0.2467 0.0
C344 C 0.71144 0.28585 0.18546 0.0
C345 C 0.74931 0.34584 0.17756 0.0
C346 C 0.70738 0.26947 0.21137 0.0
C347 C 0.7419 0.31414 0.22993 0.0
C348 C 0.77918 0.37497 0.22215 0.0
C349 C 0.78239 0.38999 0.19613 0.0
C350 C 0.66776 0.20393 0.21878 0.0
C351 C 0.81661 0.42406 0.24126 0.0
H352 H 0.66798 0.27448 0.31389 0.0
H353 H 0.81715 0.24873 0.2963 0.0
H354 H 0.67736 0.35911 0.25924 0.0
H355 H 0.62466 0.28173 0.25206 0.0
H356 H 0.62595 0.31101 0.2836 0.0
H357 H 0.85405 0.25741 0.25496 0.0
H358 H 0.80824 0.25635 0.22865 0.0
H359 H 0.86434 0.32723 0.24183 0.0
H360 H 0.68609 0.25127 0.17127 0.0
H361 H 0.81075 0.43654 0.19029 0.0
H362 H 0.63641 0.19993 0.23422 0.0
H363 H 0.69608 0.18576 0.22634 0.0
H364 H 0.641 0.17539 0.20237 0.0
H365 H 0.78774 0.42418 0.257 0.0
H366 H 0.84011 0.46975 0.23241 0.0
H367 H 0.85089 0.41498 0.24991 0.0
C368 C 0.46329 0.72366 0.63972 0.0
C369 C 0.49622 0.77984 0.65198 0.0
C370 C 0.44652 0.7202 0.61383 0.0
C371 C 0.46285 0.77417 0.60005 0.0
C372 C 0.4945 0.83079 0.6126 0.0
C373 C 0.51071 0.83288 0.63832 0.0
C374 C 0.41308 0.65902 0.60103 0.0
C375 C 0.51258 0.88946 0.59873 0.0
C376 C 0.47526 0.7793 0.52748 0.0
C377 C 0.4207 0.77533 0.52017 0.0
C378 C 0.48899 0.77751 0.5534 0.0
C379 C 0.44733 0.77204 0.57245 0.0
C380 C 0.39231 0.76822 0.56517 0.0
C381 C 0.37966 0.76983 0.53915 0.0
C382 C 0.54833 0.78208 0.56042 0.0
C383 C 0.3473 0.7637 0.58488 0.0
H384 H 0.45229 0.6826 0.65008 0.0
H385 H 0.53595 0.87664 0.6476 0.0
H386 H 0.37238 0.65358 0.59106 0.0
H387 H 0.44238 0.65551 0.58635 0.0
H388 H 0.39918 0.62127 0.61484 0.0
H389 H 0.534 0.92938 0.61167 0.0
H390 H 0.5449 0.89612 0.58329 0.0
H391 H 0.47264 0.8878 0.58961 0.0
H392 H 0.50696 0.78314 0.5129 0.0
H393 H 0.33788 0.76784 0.53367 0.0
H394 H 0.54052 0.74345 0.57278 0.0
H395 H 0.57631 0.82418 0.57151 0.0
H396 H 0.57417 0.78253 0.54332 0.0
H397 H 0.33461 0.72416 0.5975 0.0
H398 H 0.30574 0.75914 0.57604 0.0
H399 H 0.36792 0.80471 0.59717 0.0
C400 C 0.71768 0.5682 0.95497 0.0
C401 C 0.72773 0.52809 0.96982 0.0
C402 C 0.69814 0.55476 0.9294 0.0
C403 C 0.68852 0.49992 0.91829 0.0
C404 C 0.69771 0.45888 0.93328 0.0
C405 C 0.71708 0.47338 0.95881 0.0
C406 C 0.68846 0.59958 0.91419 0.0
C407 C 0.6881 0.39999 0.92218 0.0
C408 C 0.59362 0.43713 0.85779 0.0
C409 C 0.63794 0.45413 0.83884 0.0
C410 C 0.60928 0.45285 0.8836 0.0
C411 C 0.67082 0.48615 0.89077 0.0
C412 C 0.71573 0.50447 0.87169 0.0
C413 C 0.69879 0.48834 0.84602 0.0
C414 C 0.5599 0.43271 0.90326 0.0
C415 C 0.78184 0.54048 0.87845 0.0
H416 H 0.72567 0.61061 0.96322 0.0
H417 H 0.72467 0.44206 0.97003 0.0
H418 H 0.71836 0.61484 0.89724 0.0
H419 H 0.64142 0.57757 0.90702 0.0
H420 H 0.69746 0.63995 0.92567 0.0
H421 H 0.69557 0.37221 0.93651 0.0
H422 H 0.64159 0.37307 0.91455 0.0
H423 H 0.71938 0.4094 0.90596 0.0
H424 H 0.54649 0.41011 0.85257 0.0
H425 H 0.73337 0.50267 0.83152 0.0
H426 H 0.56555 0.4722 0.91446 0.0
H427 H 0.5628 0.40096 0.91692 0.0
H428 H 0.51429 0.40984 0.89444 0.0
H429 H 0.7918 0.583 0.88836 0.0
H430 H 0.81117 0.5522 0.86134 0.0
H431 H 0.7936 0.51416 0.89182 0.0
C432 C 0.37996 0.46707 0.11717 0.0
C433 C 0.3474 0.42497 0.09782 0.0
C434 C 0.44247 0.49262 0.11902 0.0
C435 C 0.47203 0.47407 0.10157 0.0
C436 C 0.43803 0.42511 0.08463 0.0
C437 C 0.3758 0.40141 0.08279 0.0
C438 C 0.47699 0.54421 0.13749 0.0
C439 C 0.46795 0.40233 0.06642 0.0
C440 C 0.61546 0.57567 0.06722 0.0
C441 C 0.65239 0.55509 0.07724 0.0
C442 C 0.55807 0.55511 0.07741 0.0
C443 C 0.53752 0.51181 0.09742 0.0
C444 C 0.57764 0.4967 0.10947 0.0
C445 C 0.63521 0.519 0.09922 0.0
C446 C 0.51705 0.57398 0.06468 0.0
C447 C 0.55768 0.45111 0.13089 0.0
H448 H 0.35782 0.48472 0.12918 0.0
H449 H 0.35029 0.36807 0.06816 0.0
H450 H 0.51769 0.54449 0.14494 0.0
H451 H 0.49197 0.58772 0.1274 0.0
H452 H 0.44843 0.542 0.15387 0.0
H453 H 0.43497 0.35849 0.0575 0.0
H454 H 0.4905 0.43602 0.05096 0.0
H455 H 0.50289 0.39648 0.07646 0.0
H456 H 0.62922 0.60334 0.0501 0.0
H457 H 0.6643 0.50296 0.10668 0.0
H458 H 0.49121 0.58333 0.07918 0.0
H459 H 0.48421 0.5366 0.05228 0.0
H460 H 0.54258 0.61494 0.05264 0.0
H461 H 0.52541 0.4549 0.14377 0.0
H462 H 0.59671 0.45665 0.14235 0.0
H463 H 0.53464 0.40478 0.12263 0.0
C464 C 0.05663 0.59314 0.39625 0.0
C465 C 0.09372 0.62349 0.41715 0.0
C466 C 0.00885 0.53401 0.39867 0.0
C467 C -0.00281 0.50506 0.42277 0.0
C468 C 0.03373 0.53586 0.44413 0.0
C469 C 0.08218 0.59496 0.44101 0.0
C470 C 0.97093 0.5026 0.37535 0.0
C471 C 0.02153 0.50652 0.47015 0.0
C472 C 0.83615 0.38189 0.42225 0.0
C473 C 0.84178 0.33266 0.41408 0.0
C474 C 0.887 0.4372 0.42828 0.0
C475 C 0.94464 0.44355 0.42525 0.0
C476 C 0.95027 0.39236 0.41934 0.0
C477 C 0.89824 0.33681 0.41419 0.0
C478 C 0.87905 0.49028 0.43528 0.0
C479 C 0.01109 0.39756 0.41577 0.0
H480 H 0.06568 0.61516 0.37775 0.0
H481 H 0.11107 0.6187 0.45715 0.0
H482 H 0.96976 0.45902 0.37205 0.0
H483 H 0.9239 0.49216 0.37847 0.0
H484 H -0.01184 0.53058 0.3578 0.0
H485 H 0.05397 0.53692 0.48484 0.0
H486 H 0.97525 0.4935 0.47635 0.0
H487 H 0.02406 0.46439 0.46921 0.0
H488 H 0.79208 0.37806 0.42284 0.0
H489 H 0.90216 0.2981 0.40851 0.0
H490 H 0.88826 0.51965 0.41828 0.0
H491 H 0.91121 0.51812 0.45053 0.0
H492 H 0.83251 0.47534 0.44187 0.0
H493 H 0.02989 0.41931 0.39707 0.0
H494 H 0.00805 0.35253 0.41598 0.0
H495 H 0.04312 0.42642 0.43084 0.0
C496 C 0.45433 0.10887 0.77096 0.0
C497 C 0.41443 0.1052 0.75171 0.0
C498 C 0.47068 0.06427 0.77328 0.0
C499 C 0.44495 0.01409 0.75645 0.0
C500 C 0.39997 0.00712 0.73875 0.0
C501 C 0.38567 0.05328 0.73639 0.0
C502 C 0.5194 0.07374 0.79214 0.0
C503 C 0.37004 0.95307 0.72109 0.0
C504 C 0.53752 0.94294 0.73638 0.0
C505 C 0.51445 0.8922 0.75229 0.0
C506 C 0.51626 0.98388 0.73804 0.0
C507 C 0.46959 0.97252 0.75551 0.0
C508 C 0.44646 0.92152 0.77176 0.0
C509 C 0.46989 0.88236 0.77022 0.0
C510 C 0.54315 0.03879 0.72085 0.0
C511 C 0.39559 0.90715 0.79007 0.0
H512 H 0.4765 0.1489 0.78295 0.0
H513 H 0.35447 0.05027 0.72162 0.0
H514 H 0.50609 0.03193 0.80327 0.0
H515 H 0.56108 0.08453 0.78156 0.0
H516 H 0.52994 0.11136 0.80568 0.0
H517 H 0.33 0.94994 0.71133 0.0
H518 H 0.40256 0.95667 0.70627 0.0
H519 H 0.35594 0.91054 0.73183 0.0
H520 H 0.57176 0.95027 0.72247 0.0
H521 H 0.4515 0.84267 0.78237 0.0
H522 H 0.55905 0.08056 0.73243 0.0
H523 H 0.5083 0.0362 0.70745 0.0
H524 H 0.58155 0.04282 0.70948 0.0
H525 H 0.40772 0.94611 0.80299 0.0
H526 H 0.38387 0.86654 0.80189 0.0
H527 H 0.355 0.89904 0.77917 0.0
C528 C 0.59271 0.64005 0.71278 0.0
C529 C 0.5949 0.68112 0.69451 0.0
C530 C 0.55439 0.57776 0.70957 0.0
C531 C 0.51696 0.55637 0.68763 0.0
C532 C 0.52117 0.59759 0.66847 0.0
C533 C 0.56077 0.6598 0.67205 0.0
C534 C 0.55238 0.5351 0.73014 0.0
C535 C 0.48172 0.57647 0.64492 0.0
C536 C 0.45777 0.39059 0.67552 0.0
C537 C 0.40306 0.36415 0.68885 0.0
C538 C 0.4937 0.45337 0.67356 0.0
C539 C 0.47407 0.49062 0.685 0.0
C540 C 0.41666 0.46416 0.69679 0.0
C541 C 0.38163 0.40079 0.69868 0.0
C542 C 0.55458 0.47967 0.6609 0.0
C543 C 0.3942 0.50279 0.70892 0.0
H544 H 0.61921 0.65696 0.73016 0.0
H545 H 0.56222 0.69186 0.65804 0.0
H546 H 0.50696 0.51127 0.73891 0.0
H547 H 0.56084 0.50012 0.72169 0.0
H548 H 0.58611 0.55902 0.7455 0.0
H549 H 0.49662 0.6127 0.63028 0.0
H550 H 0.48135 0.53657 0.63625 0.0
H551 H 0.43472 0.56238 0.65039 0.0
H552 H 0.47402 0.3621 0.66756 0.0
H553 H 0.33919 0.38023 0.70886 0.0
H554 H 0.59047 0.50024 0.67568 0.0
H555 H 0.56155 0.51606 0.64735 0.0
H556 H 0.56003 0.44481 0.65041 0.0
H557 H 0.42058 0.52373 0.72655 0.0
H558 H 0.34578 0.47602 0.71409 0.0
H559 H 0.40096 0.54002 0.69589 0.0
C560 C 0.09131 0.44513 0.02009 0.0
C561 C 0.07206 0.3958 0.03666 0.0
C562 C 0.06349 0.48011 0.01993 0.0
C563 C 0.01532 0.4654 0.03687 0.0
C564 C -0.00546 0.41463 0.05331 0.0
C565 C 0.02326 0.37993 0.05294 0.0
C566 C 0.08631 0.53334 1.00186 0.0
C567 C 0.94319 0.39812 0.07161 0.0
C568 C 0.98255 0.59268 0.04893 0.0
C569 C 0.93518 0.57726 0.03174 0.0
C570 C 0.00815 0.55543 0.05147 0.0
C571 C 0.98565 0.50227 0.03636 0.0
C572 C 0.93805 0.48703 0.0189 0.0
C573 C 0.91359 0.52491 1.01674 0.0
C574 C 0.05919 0.57282 0.0702 0.0
C575 C 0.91328 0.43101 1.00232 0.0
H576 H 0.12935 0.45725 1.00757 0.0
H577 H 0.00937 0.34232 0.06604 0.0
H578 H 0.0494 0.52789 0.989 0.0
H579 H 0.10161 0.5758 1.01285 0.0
H580 H 0.12432 0.53839 0.98991 0.0
H581 H 0.9315 0.35643 0.08263 0.0
H582 H 0.95547 0.43588 0.08526 0.0
H583 H 0.90263 0.39117 0.06103 0.0
H584 H -0.0016 0.63272 0.06079 0.0
H585 H 0.87671 0.51303 1.00348 0.0
H586 H 0.10036 0.58131 0.0598 0.0
H587 H 0.04781 0.53505 0.0837 0.0
H588 H 0.06955 0.61403 0.08135 0.0
H589 H 0.94889 0.43442 0.98926 0.0
H590 H 0.87414 0.42427 0.99061 0.0
H591 H 0.89907 0.3903 1.01437 0.0
C592 C 0.35868 0.94301 0.37285 0.0
C593 C 0.31564 0.90229 0.35579 0.0
C594 C 0.41981 0.96478 0.36876 0.0
C595 C 0.43816 0.94356 0.34749 0.0
C596 C 0.39471 0.90315 0.3298 0.0
C597 C 0.33362 0.88393 0.33389 0.0
C598 C 0.46464 0.01112 0.38711 0.0
C599 C 0.41209 0.87772 0.30744 0.0
C600 C 0.59902 0.05447 0.33283 0.0
C601 C 0.62854 0.03539 0.34984 0.0
C602 C 0.53667 0.02133 0.32971 0.0
C603 C 0.50334 0.96708 0.34359 0.0
C604 C 0.53381 0.94344 0.3581 0.0
C605 C 0.59665 0.97843 0.3613 0.0
C606 C 0.50625 0.04845 0.31413 0.0
C607 C 0.49944 0.88447 0.37238 0.0
H608 H 0.34423 0.95697 0.38974 0.0
H609 H 0.29983 0.85176 0.32085 0.0
H610 H 0.49468 -0.00442 0.39515 0.0
H611 H 0.49287 0.05381 0.37654 0.0
H612 H 0.44259 0.02089 0.40322 0.0
H613 H 0.37523 0.85628 0.29308 0.0
H614 H 0.45317 0.91322 0.29786 0.0
H615 H 0.42235 0.84283 0.31455 0.0
H616 H 0.62419 0.09808 0.32347 0.0
H617 H 0.6197 0.96357 0.3743 0.0
H618 H 0.48493 0.06647 0.32724 0.0
H619 H 0.47019 0.01365 0.30188 0.0
H620 H 0.53865 0.0861 0.30178 0.0
H621 H 0.47924 0.89175 0.3898 0.0
H622 H 0.52916 0.86648 0.37832 0.0
H623 H 0.46213 0.85009 0.36042 0.0
C624 C 0.27945 0.20166 0.7977 0.0
C625 C 0.33052 0.24897 0.78601 0.0
C626 C 0.26628 0.20509 0.82353 0.0
C627 C 0.30503 0.25711 0.83816 0.0
C628 C 0.3556 0.30591 0.82629 0.0
C629 C 0.36775 0.30124 0.80041 0.0
C630 C 0.2116 0.15225 0.83536 0.0
C631 C 0.39796 0.36233 0.84111 0.0
C632 C 0.24069 0.27756 0.90055 0.0
C633 C 0.26354 0.25324 0.91855 0.0
C634 C 0.25536 0.28101 0.87449 0.0
C635 C 0.29344 0.2591 0.86607 0.0
C636 C 0.31798 0.23602 0.88424 0.0
C637 C 0.30294 0.23358 0.91023 0.0
C638 C 0.22963 0.30764 0.85594 0.0
C639 C 0.35889 0.21233 0.87611 0.0
H640 H 0.25035 0.1611 0.78684 0.0
H641 H 0.40742 0.33814 0.79168 0.0
H642 H 0.22584 0.13268 0.851 0.0
H643 H 0.18211 0.16784 0.84393 0.0
H644 H 0.18486 0.11598 0.82123 0.0
H645 H 0.43229 0.39815 0.82863 0.0
H646 H 0.37244 0.38087 0.85103 0.0
H647 H 0.42157 0.35096 0.85602 0.0
H648 H 0.21135 0.29418 0.90691 0.0
H649 H 0.32063 0.21454 0.92397 0.0
H650 H 0.20495 0.27492 0.84034 0.0
H651 H 0.26675 0.34885 0.84701 0.0
H652 H 0.19849 0.32003 0.86536 0.0
H653 H 0.3341 0.17289 0.86317 0.0
H654 H 0.37619 0.19813 0.89265 0.0
H655 H 0.39778 0.24758 0.86527 0.0
C656 C 0.96312 0.23695 0.23449 0.0
C657 C 0.00114 0.24291 0.25494 0.0
C658 C 0.98478 0.24974 0.20933 0.0
C659 C 0.0462 0.2694 0.20451 0.0
C660 C 0.08456 0.27426 0.22508 0.0
C661 C 0.0614 0.2605 0.25007 0.0
C662 C 0.94216 0.24323 0.18796 0.0
C663 C 0.15046 0.29587 0.22081 0.0
C664 C 0.0961 0.2637 0.13644 0.0
C665 C 0.11695 0.32322 0.12818 0.0
C666 C 0.07243 0.24528 0.16117 0.0
C667 C 0.07083 0.28776 0.17818 0.0
C668 C 0.09237 0.34805 0.16997 0.0
C669 C 0.11456 0.36483 0.14503 0.0
C670 C 0.04902 0.18039 0.16909 0.0
C671 C 0.09256 0.39513 0.1876 0.0
H672 H 0.91624 0.22212 0.23822 0.0
H673 H 0.09082 0.26525 0.26592 0.0
H674 H 0.95702 0.28803 0.17909 0.0
H675 H 0.94278 0.21307 0.17282 0.0
H676 H 0.89512 0.22457 0.19475 0.0
H677 H 0.17365 0.29484 0.23863 0.0
H678 H 0.15573 0.26737 0.20618 0.0
H679 H 0.17326 0.34296 0.21343 0.0
H680 H 0.09784 0.23139 0.12351 0.0
H681 H 0.13137 0.41119 0.13895 0.0
H682 H 0.0011 0.15952 0.17485 0.0
H683 H 0.07452 0.17873 0.18595 0.0
H684 H 0.05264 0.15274 0.15352 0.0
H685 H 0.04589 0.38093 0.19363 0.0
H686 H 0.11221 0.4404 0.17845 0.0
H687 H 0.11882 0.39932 0.20515 0.0
C688 C 0.71993 0.07137 0.57897 0.0
C689 C 0.72176 0.01981 0.58701 0.0
C690 C 0.72128 0.08512 0.55283 0.0
C691 C 0.72374 0.04595 0.53422 0.0
C692 C 0.72365 0.99282 0.54224 0.0
C693 C 0.72314 0.98066 0.5685 0.0
C694 C 0.72154 0.14237 0.54517 0.0
C695 C 0.72443 0.94893 0.52307 0.0
C696 C 0.67923 0.06085 0.46613 0.0
C697 C 0.73557 0.09598 0.45439 0.0
C698 C 0.67465 0.04304 0.49185 0.0
C699 C 0.72769 0.06133 0.50642 0.0
C700 C 0.78467 0.09576 0.49456 0.0
C701 C 0.78792 0.11228 0.46867 0.0
C702 C 0.613 0.00543 0.50355 0.0
C703 C 0.84232 0.1168 0.50946 0.0
H704 H 0.719 0.10185 0.59318 0.0
H705 H 0.72342 0.94015 0.57459 0.0
H706 H 0.76486 0.17368 0.53572 0.0
H707 H 0.68512 0.13202 0.53113 0.0
H708 H 0.71562 0.16598 0.56181 0.0
H709 H 0.7216 0.9084 0.53237 0.0
H710 H 0.68614 0.93381 0.50953 0.0
H711 H 0.76643 0.97172 0.51167 0.0
H712 H 0.63844 0.04787 0.45528 0.0
H713 H 0.83159 0.13986 0.45989 0.0
H714 H 0.60779 0.02972 0.52007 0.0
H715 H 0.60782 0.96225 0.51092 0.0
H716 H 0.57615 -0.00515 0.48965 0.0
H717 H 0.84451 0.14643 0.52546 0.0
H718 H 0.88298 0.14226 0.49738 0.0
H719 H 0.84324 0.0774 0.51796 0.0
C720 C 0.63476 0.78601 0.81823 0.0
C721 C 0.67035 0.8211 0.79774 0.0
C722 C 0.66025 0.7867 0.84203 0.0
C723 C 0.72328 0.82281 0.84548 0.0
C724 C 0.75953 0.85937 0.82505 0.0
C725 C 0.7325 0.85852 0.80142 0.0
C726 C 0.61965 0.74773 0.86335 0.0
C727 C 0.82698 0.89774 0.82792 0.0
C728 C 0.77562 0.85286 0.91475 0.0
C729 C 0.788 0.80594 0.91959 0.0
C730 C 0.75674 0.8604 0.89046 0.0
C731 C 0.75068 0.82052 0.87035 0.0
C732 C 0.76552 0.77469 0.87478 0.0
C733 C 0.78372 0.76782 0.89931 0.0
C734 C 0.74081 0.90944 0.88661 0.0
C735 C 0.75975 0.73117 0.8539 0.0
H736 H 0.58656 0.75745 0.81562 0.0
H737 H 0.7602 0.88537 0.7856 0.0
H738 H 0.63104 0.71242 0.86853 0.0
H739 H 0.62662 0.77563 0.88067 0.0
H740 H 0.57123 0.72498 0.85797 0.0
H741 H 0.84852 0.92553 0.81065 0.0
H742 H 0.8384 0.92831 0.84466 0.0
H743 H 0.84651 0.86813 0.83148 0.0
H744 H 0.77998 0.88341 0.93007 0.0
H745 H 0.79258 0.73109 0.90276 0.0
H746 H 0.6918 0.88849 0.88275 0.0
H747 H 0.76476 0.9375 0.86975 0.0
H748 H 0.75215 0.93949 0.90357 0.0
H749 H 0.71146 0.70063 0.84932 0.0
H750 H 0.77971 0.7029 0.85953 0.0
H751 H 0.78208 0.75622 0.83619 0.0
C752 C 0.01236 0.72069 0.23492 0.0
C753 C 0.96909 0.71241 0.25336 0.0
C754 C -0.0031 0.70801 0.20893 0.0
C755 C 0.93648 0.68577 0.2011 0.0
C756 C 0.8924 0.67633 0.21962 0.0
C757 C 0.90925 0.69007 0.24543 0.0
C758 C 0.04527 0.71835 0.18987 0.0
C759 C 0.8273 0.65172 0.21215 0.0
C760 C 0.89803 0.7011 0.13201 0.0
C761 C 0.87824 0.64277 0.1223 0.0
C762 C 0.91856 0.71618 0.1574 0.0
C763 C 0.91901 0.67182 0.17358 0.0
C764 C 0.90053 0.61338 0.16371 0.0
C765 C 0.88036 0.59954 0.13826 0.0
C766 C 0.93896 0.77937 0.16703 0.0
C767 C 0.90014 0.56468 0.18026 0.0
H768 H 0.05847 0.73667 0.24082 0.0
H769 H 0.87553 0.68408 0.25938 0.0
H770 H 0.03348 0.67533 0.17996 0.0
H771 H 0.04837 0.75092 0.17505 0.0
H772 H 0.09019 0.73615 0.19902 0.0
H773 H 0.79835 0.64623 0.22887 0.0
H774 H 0.8236 0.68254 0.19822 0.0
H775 H 0.80965 0.60708 0.20264 0.0
H776 H 0.89701 0.735 0.11985 0.0
H777 H 0.86521 0.5543 0.13106 0.0
H778 H 0.98509 0.7996 0.17514 0.0
H779 H 0.90886 0.77757 0.18262 0.0
H780 H 0.93892 0.80956 0.15172 0.0
H781 H 0.94291 0.58237 0.19111 0.0
H782 H 0.8934 0.52508 0.16883 0.0
H783 H 0.86321 0.54933 0.19441 0.0
C784 C 0.19474 0.91736 0.5829 0.0
C785 C 0.19452 0.97184 0.58643 0.0
C786 C 0.18983 0.89277 0.55832 0.0
C787 C 0.18495 0.9235 0.53666 0.0
C788 C 0.18406 0.97815 0.54013 0.0
C789 C 0.18877 0.00155 0.56491 0.0
C790 C 0.19097 0.8344 0.5555 0.0
C791 C 0.17994 0.01292 0.51758 0.0
C792 C 0.24077 0.89619 0.47356 0.0
C793 C 0.18693 0.85542 0.46102 0.0
C794 C 0.24056 0.91925 0.49789 0.0
C795 C 0.18508 0.90077 0.51032 0.0
C796 C 0.1304 0.86037 0.49766 0.0
C797 C 0.13194 0.83845 0.47306 0.0
C798 C 0.29994 0.96291 0.51042 0.0
C799 C 0.07038 0.83939 0.51034 0.0
H800 H 0.19855 0.89377 0.5994 0.0
H801 H 0.18955 0.04416 0.56736 0.0
H802 H 0.15125 0.80106 0.54435 0.0
H803 H 0.23174 0.84288 0.54477 0.0
H804 H 0.19117 0.8141 0.57428 0.0
H805 H 0.1762 0.05274 0.52356 0.0
H806 H 0.22058 0.02898 0.50547 0.0
H807 H 0.14036 0.98302 0.50554 0.0
H808 H 0.28359 0.91015 0.46436 0.0
H809 H 0.09021 0.80679 0.46359 0.0
H810 H 0.30568 0.94285 0.52829 0.0
H811 H 0.30054 0.00533 0.51577 0.0
H812 H 0.33903 0.97458 0.49779 0.0
H813 H 0.06778 0.81488 0.52826 0.0
H814 H 0.03193 0.80899 0.49781 0.0
H815 H 0.06571 0.87897 0.51568 0.0
loop_
_geom_bond_atom_site_label_1
_geom_bond_atom_site_label_2
_geom_bond_distance
_geom_bond_site_symmetry_2
_ccdc_geom_bond_type
C0 Eu1 2.835 1_556 S
C0 C2 1.500 . S
C0 O20 1.257 . S
C0 O21 1.260 . S
Eu1 C0 2.835 1_554 S
Eu1 O20 2.473 1_554 S
Eu1 O21 2.480 1_554 S
Eu1 O22 2.430 . S
Eu1 O23 2.670 . S
Eu1 O24 2.394 1_554 S
Eu1 O29 2.355 . S
Eu1 O31 2.374 . S
C2 C0 1.500 . S
C2 C3 1.377 . S
C2 C7 1.377 . S
C3 C2 1.377 . S
C3 C4 1.395 . S
C3 H32 0.931 . S
C4 C3 1.395 . S
C4 C5 1.383 . S
C4 H33 0.931 . S
C5 C4 1.383 . S
C5 C6 1.394 . S
C6 C5 1.394 . S
C6 C7 1.378 . S
C6 H34 0.931 . S
C7 C2 1.377 . S
C7 C6 1.378 . S
C7 H35 0.931 . S
C8 O22 1.259 . S
C8 O23 1.270 . S
C9 O24 1.251 . S
C9 O25 1.251 1_556 S
C10 Eu11 2.835 . S
C10 C12 1.500 . S
C10 O26 1.257 . S
C10 O27 1.260 . S
Eu11 C10 2.835 . S
Eu11 O23 2.355 . S
Eu11 O25 2.374 . S
Eu11 O26 2.473 . S
Eu11 O27 2.480 . S
Eu11 O28 2.430 . S
Eu11 O29 2.670 . S
Eu11 O30 2.394 . S
C12 C10 1.500 . S
C12 C13 1.377 . S
C12 C17 1.377 . S
C13 C12 1.377 . S
C13 C14 1.395 . S
C13 H36 0.931 . S
C14 C13 1.395 . S
C14 C15 1.383 . S
C14 H37 0.931 . S
C15 C14 1.383 . S
C15 C16 1.394 . S
C16 C15 1.394 . S
C16 C17 1.378 . S
C16 H38 0.931 . S
C17 C12 1.377 . S
C17 C16 1.378 . S
C17 H39 0.931 . S
C18 O28 1.259 . S
C18 O29 1.270 . S
C19 O30 1.251 . S
C19 O31 1.251 . S
O20 C0 1.257 . S
O20 Eu1 2.473 1_556 S
O21 C0 1.260 . S
O21 Eu1 2.480 1_556 S
O22 Eu1 2.430 . S
O22 C8 1.259 . S
O23 Eu1 2.670 . S
O23 C8 1.270 . S
O23 Eu11 2.355 . S
O24 Eu1 2.394 1_556 S
O24 C9 1.251 . S
O25 C9 1.251 1_554 S
O25 Eu11 2.374 . S
O26 C10 1.257 . S
O26 Eu11 2.473 . S
O27 C10 1.260 . S
O27 Eu11 2.480 . S
O28 Eu11 2.430 . S
O28 C18 1.259 . S
O29 Eu1 2.355 . S
O29 Eu11 2.670 . S
O29 C18 1.270 . S
O30 Eu11 2.394 . S
O30 C19 1.251 . S
O31 Eu1 2.374 . S
O31 C19 1.251 . S
H32 C3 0.931 . S
H33 C4 0.931 . S
H34 C6 0.931 . S
H35 C7 0.931 . S
H36 C13 0.931 . S
H37 C14 0.931 . S
H38 C16 0.931 . S
H39 C17 0.931 . S
C40 Eu41 2.835 . S
C40 C42 1.500 . S
C40 O60 1.257 . S
C40 O61 1.260 . S
Eu41 C40 2.835 . S
Eu41 O60 2.473 . S
Eu41 O61 2.480 . S
Eu41 O62 2.430 . S
Eu41 O63 2.670 . S
Eu41 O64 2.394 . S
Eu41 O69 2.355 . S
Eu41 O71 2.374 . S
C42 C40 1.500 . S
C42 C43 1.377 . S
C42 C47 1.377 . S
C43 C42 1.377 . S
C43 C44 1.395 . S
C43 H72 0.931 . S
C44 C43 1.395 . S
C44 C45 1.383 . S
C44 H73 0.931 . S
C45 C44 1.383 . S
C45 C46 1.394 1_655 S
C46 C45 1.394 1_455 S
C46 C47 1.378 1_455 S
C46 H74 0.931 . S
C47 C42 1.377 . S
C47 C46 1.378 1_655 S
C47 H75 0.931 . S
C48 O62 1.259 . S
C48 O63 1.270 . S
C49 O64 1.251 . S
C49 O65 1.251 . S
C50 Eu51 2.835 . S
C50 C52 1.500 . S
C50 O66 1.257 . S
C50 O67 1.260 . S
Eu51 C50 2.835 . S
Eu51 O63 2.355 . S
Eu51 O65 2.374 . S
Eu51 O66 2.473 . S
Eu51 O67 2.480 . S
Eu51 O68 2.430 . S
Eu51 O69 2.670 . S
Eu51 O70 2.394 . S
C52 C50 1.500 . S
C52 C53 1.377 . S
C52 C57 1.377 . S
C53 C52 1.377 . S
C53 C54 1.395 . S
C53 H76 0.931 . S
C54 C53 1.395 . S
C54 C55 1.383 . S
C54 H77 0.931 . S
C55 C54 1.383 . S
C55 C56 1.394 . S
C56 C55 1.394 . S
C56 C57 1.378 . S
C56 H78 0.931 . S
C57 C52 1.377 . S
C57 C56 1.378 . S
C57 H79 0.931 . S
C58 O68 1.259 . S
C58 O69 1.270 . S
C59 O70 1.251 . S
C59 O71 1.251 . S
O60 C40 1.257 . S
O60 Eu41 2.473 . S
O61 C40 1.260 . S
O61 Eu41 2.480 . S
O62 Eu41 2.430 . S
O62 C48 1.259 . S
O63 Eu41 2.670 . S
O63 C48 1.270 . S
O63 Eu51 2.355 . S
O64 Eu41 2.394 . S
O64 C49 1.251 . S
O65 C49 1.251 . S
O65 Eu51 2.374 . S
O66 C50 1.257 . S
O66 Eu51 2.473 . S
O67 C50 1.260 . S
O67 Eu51 2.480 . S
O68 Eu51 2.430 . S
O68 C58 1.259 . S
O69 Eu41 2.355 . S
O69 Eu51 2.670 . S
O69 C58 1.270 . S
O70 Eu51 2.394 . S
O70 C59 1.251 . S
O71 Eu41 2.374 . S
O71 C59 1.251 . S
H72 C43 0.931 . S
H73 C44 0.931 . S
H74 C46 0.931 . S
H75 C47 0.931 . S
H76 C53 0.931 . S
H77 C54 0.931 . S
H78 C56 0.931 . S
H79 C57 0.931 . S
C80 Eu81 2.835 . S
C80 C82 1.500 . S
C80 O100 1.257 . S
C80 O101 1.260 . S
Eu81 C80 2.835 . S
Eu81 O100 2.473 . S
Eu81 O101 2.480 . S
Eu81 O102 2.430 . S
Eu81 O103 2.670 . S
Eu81 O104 2.394 . S
Eu81 O109 2.355 . S
Eu81 O111 2.374 . S
C82 C80 1.500 . S
C82 C83 1.377 . S
C82 C87 1.377 . S
C83 C82 1.377 . S
C83 C84 1.395 . S
C83 H112 0.931 . S
C84 C83 1.395 . S
C84 C85 1.383 . S
C84 H113 0.931 . S
C85 C84 1.383 . S
C85 C86 1.394 1_565 S
C86 C85 1.394 1_545 S
C86 C87 1.378 1_545 S
C86 H114 0.931 . S
C87 C82 1.377 . S
C87 C86 1.378 1_565 S
C87 H115 0.931 . S
C88 O102 1.259 . S
C88 O103 1.270 . S
C89 O104 1.251 . S
C89 O105 1.251 . S
C90 Eu91 2.835 . S
C90 C92 1.500 . S
C90 O106 1.257 . S
C90 O107 1.260 . S
Eu91 C90 2.835 . S
Eu91 O103 2.355 . S
Eu91 O105 2.374 . S
Eu91 O106 2.473 . S
Eu91 O107 2.480 . S
Eu91 O108 2.430 . S
Eu91 O109 2.670 . S
Eu91 O110 2.394 . S
C92 C90 1.500 . S
C92 C93 1.377 . S
C92 C97 1.377 . S
C93 C92 1.377 . S
C93 C94 1.395 . S
C93 H116 0.931 . S
C94 C93 1.395 . S
C94 C95 1.383 . S
C94 H117 0.931 . S
C95 C94 1.383 . S
C95 C96 1.394 . S
C96 C95 1.394 . S
C96 C97 1.378 . S
C96 H118 0.931 . S
C97 C92 1.377 . S
C97 C96 1.378 . S
C97 H119 0.931 . S
C98 O108 1.259 . S
C98 O109 1.270 . S
C99 O110 1.251 . S
C99 O111 1.251 . S
O100 C80 1.257 . S
O100 Eu81 2.473 . S
O101 C80 1.260 . S
O101 Eu81 2.480 . S
O102 Eu81 2.430 . S
O102 C88 1.259 . S
O103 Eu81 2.670 . S
O103 C88 1.270 . S
O103 Eu91 2.355 . S
O104 Eu81 2.394 . S
O104 C89 1.251 . S
O105 C89 1.251 . S
O105 Eu91 2.374 . S
O106 C90 1.257 . S
O106 Eu91 2.473 . S
O107 C90 1.260 . S
O107 Eu91 2.480 . S
O108 Eu91 2.430 . S
O108 C98 1.259 . S
O109 Eu81 2.355 . S
O109 Eu91 2.670 . S
O109 C98 1.270 . S
O110 Eu91 2.394 . S
O110 C99 1.251 . S
O111 Eu81 2.374 . S
O111 C99 1.251 . S
H112 C83 0.931 . S
H113 C84 0.931 . S
H114 C86 0.931 . S
H115 C87 0.931 . S
H116 C93 0.931 . S
H117 C94 0.931 . S
H118 C96 0.931 . S
H119 C97 0.931 . S
C120 Eu121 2.835 1_556 S
C120 C122 1.500 . S
C120 O140 1.257 . S
C120 O141 1.260 . S
Eu121 C120 2.835 1_554 S
Eu121 O140 2.473 1_554 S
Eu121 O141 2.480 1_554 S
Eu121 O142 2.430 . S
Eu121 O143 2.670 . S
Eu121 O144 2.394 1_554 S
Eu121 O149 2.355 . S
Eu121 O151 2.374 . S
C122 C120 1.500 . S
C122 C123 1.377 . S
C122 C127 1.377 . S
C123 C122 1.377 . S
C123 C124 1.395 . S
C123 H152 0.931 . S
C124 C123 1.395 . S
C124 C125 1.383 . S
C124 H153 0.931 . S
C125 C124 1.383 . S
C125 C126 1.394 . S
C126 C125 1.394 . S
C126 C127 1.378 . S
C126 H154 0.931 . S
C127 C122 1.377 . S
C127 C126 1.378 . S
C127 H155 0.931 . S
C128 O142 1.259 . S
C128 O143 1.270 . S
C129 O144 1.251 . S
C129 O145 1.251 1_556 S
C130 Eu131 2.835 . S
C130 C132 1.500 . S
C130 O146 1.257 . S
C130 O147 1.260 . S
Eu131 C130 2.835 . S
Eu131 O143 2.355 . S
Eu131 O145 2.374 . S
Eu131 O146 2.473 . S
Eu131 O147 2.480 . S
Eu131 O148 2.430 . S
Eu131 O149 2.670 . S
Eu131 O150 2.394 . S
C132 C130 1.500 . S
C132 C133 1.377 . S
C132 C137 1.377 . S
C133 C132 1.377 . S
C133 C134 1.395 . S
C133 H156 0.931 . S
C134 C133 1.395 . S
C134 C135 1.383 . S
C134 H157 0.931 . S
C135 C134 1.383 . S
C135 C136 1.394 . S
C136 C135 1.394 . S
C136 C137 1.378 . S
C136 H158 0.931 . S
C137 C132 1.377 . S
C137 C136 1.378 . S
C137 H159 0.931 . S
C138 O148 1.259 . S
C138 O149 1.270 . S
C139 O150 1.251 . S
C139 O151 1.251 . S
O140 C120 1.257 . S
O140 Eu121 2.473 1_556 S
O141 C120 1.260 . S
O141 Eu121 2.480 1_556 S
O142 Eu121 2.430 . S
O142 C128 1.259 . S
O143 Eu121 2.670 . S
O143 C128 1.270 . S
O143 Eu131 2.355 . S
O144 Eu121 2.394 1_556 S
O144 C129 1.251 . S
O145 C129 1.251 1_554 S
O145 Eu131 2.374 . S
O146 C130 1.257 . S
O146 Eu131 2.473 . S
O147 C130 1.260 . S
O147 Eu131 2.480 . S
O148 Eu131 2.430 . S
O148 C138 1.259 . S
O149 Eu121 2.355 . S
O149 Eu131 2.670 . S
O149 C138 1.270 . S
O150 Eu131 2.394 . S
O150 C139 1.251 . S
O151 Eu121 2.374 . S
O151 C139 1.251 . S
H152 C123 0.931 . S
H153 C124 0.931 . S
H154 C126 0.931 . S
H155 C127 0.931 . S
H156 C133 0.931 . S
H157 C134 0.931 . S
H158 C136 0.931 . S
H159 C137 0.931 . S
C160 Eu161 2.835 . S
C160 C162 1.500 . S
C160 O180 1.257 . S
C160 O181 1.260 . S
Eu161 C160 2.835 . S
Eu161 O180 2.473 . S
Eu161 O181 2.480 . S
Eu161 O182 2.430 . S
Eu161 O183 2.670 . S
Eu161 O184 2.394 . S
Eu161 O189 2.355 . S
Eu161 O191 2.374 . S
C162 C160 1.500 . S
C162 C163 1.377 . S
C162 C167 1.377 . S
C163 C162 1.377 . S
C163 C164 1.395 . S
C163 H192 0.931 . S
C164 C163 1.395 . S
C164 C165 1.383 . S
C164 H193 0.931 . S
C165 C164 1.383 . S
C165 C166 1.394 1_455 S
C166 C165 1.394 1_655 S
C166 C167 1.378 1_655 S
C166 H194 0.931 . S
C167 C162 1.377 . S
C167 C166 1.378 1_455 S
C167 H195 0.931 . S
C168 O182 1.259 . S
C168 O183 1.270 . S
C169 O184 1.251 . S
C169 O185 1.251 . S
C170 Eu171 2.835 . S
C170 C172 1.500 . S
C170 O186 1.257 . S
C170 O187 1.260 . S
Eu171 C170 2.835 . S
Eu171 O183 2.355 . S
Eu171 O185 2.374 . S
Eu171 O186 2.473 . S
Eu171 O187 2.480 . S
Eu171 O188 2.430 . S
Eu171 O189 2.670 . S
Eu171 O190 2.394 . S
C172 C170 1.500 . S
C172 C173 1.377 . S
C172 C177 1.377 . S
C173 C172 1.377 . S
C173 C174 1.395 . S
C173 H196 0.931 . S
C174 C173 1.395 . S
C174 C175 1.383 . S
C174 H197 0.931 . S
C175 C174 1.383 . S
C175 C176 1.394 . S
C176 C175 1.394 . S
C176 C177 1.378 . S
C176 H198 0.931 . S
C177 C172 1.377 . S
C177 C176 1.378 . S
C177 H199 0.931 . S
C178 O188 1.259 . S
C178 O189 1.270 . S
C179 O190 1.251 . S
C179 O191 1.251 . S
O180 C160 1.257 . S
O180 Eu161 2.473 . S
O181 C160 1.260 . S
O181 Eu161 2.480 . S
O182 Eu161 2.430 . S
O182 C168 1.259 . S
O183 Eu161 2.670 . S
O183 C168 1.270 . S
O183 Eu171 2.355 . S
O184 Eu161 2.394 . S
O184 C169 1.251 . S
O185 C169 1.251 . S
O185 Eu171 2.374 . S
O186 C170 1.257 . S
O186 Eu171 2.473 . S
O187 C170 1.260 . S
O187 Eu171 2.480 . S
O188 Eu171 2.430 . S
O188 C178 1.259 . S
O189 Eu161 2.355 . S
O189 Eu171 2.670 . S
O189 C178 1.270 . S
O190 Eu171 2.394 . S
O190 C179 1.251 . S
O191 Eu161 2.374 . S
O191 C179 1.251 . S
H192 C163 0.931 . S
H193 C164 0.931 . S
H194 C166 0.931 . S
H195 C167 0.931 . S
H196 C173 0.931 . S
H197 C174 0.931 . S
H198 C176 0.931 . S
H199 C177 0.931 . S
C200 Eu201 2.835 . S
C200 C202 1.500 . S
C200 O220 1.257 . S
C200 O221 1.260 . S
Eu201 C200 2.835 . S
Eu201 O220 2.473 . S
Eu201 O221 2.480 . S
Eu201 O222 2.430 . S
Eu201 O223 2.670 . S
Eu201 O224 2.394 . S
Eu201 O229 2.355 . S
Eu201 O231 2.374 . S
C202 C200 1.500 . S
C202 C203 1.377 . S
C202 C207 1.377 . S
C203 C202 1.377 . S
C203 C204 1.395 . S
C203 H232 0.931 . S
C204 C203 1.395 . S
C204 C205 1.383 . S
C204 H233 0.931 . S
C205 C204 1.383 . S
C205 C206 1.394 1_545 S
C206 C205 1.394 1_565 S
C206 C207 1.378 1_565 S
C206 H234 0.931 . S
C207 C202 1.377 . S
C207 C206 1.378 1_545 S
C207 H235 0.931 . S
C208 O222 1.259 . S
C208 O223 1.270 . S
C209 O224 1.251 . S
C209 O225 1.251 . S
C210 Eu211 2.835 . S
C210 C212 1.500 . S
C210 O226 1.257 . S
C210 O227 1.260 . S
Eu211 C210 2.835 . S
Eu211 O223 2.355 . S
Eu211 O225 2.374 . S
Eu211 O226 2.473 . S
Eu211 O227 2.480 . S
Eu211 O228 2.430 . S
Eu211 O229 2.670 . S
Eu211 O230 2.394 . S
C212 C210 1.500 . S
C212 C213 1.377 . S
C212 C217 1.377 . S
C213 C212 1.377 . S
C213 C214 1.395 . S
C213 H236 0.931 . S
C214 C213 1.395 . S
C214 C215 1.383 . S
C214 H237 0.931 . S
C215 C214 1.383 . S
C215 C216 1.394 . S
C216 C215 1.394 . S
C216 C217 1.378 . S
C216 H238 0.931 . S
C217 C212 1.377 . S
C217 C216 1.378 . S
C217 H239 0.931 . S
C218 O228 1.259 . S
C218 O229 1.270 . S
C219 O230 1.251 . S
C219 O231 1.251 . S
O220 C200 1.257 . S
O220 Eu201 2.473 . S
O221 C200 1.260 . S
O221 Eu201 2.480 . S
O222 Eu201 2.430 . S
O222 C208 1.259 . S
O223 Eu201 2.670 . S
O223 C208 1.270 . S
O223 Eu211 2.355 . S
O224 Eu201 2.394 . S
O224 C209 1.251 . S
O225 C209 1.251 . S
O225 Eu211 2.374 . S
O226 C210 1.257 . S
O226 Eu211 2.473 . S
O227 C210 1.260 . S
O227 Eu211 2.480 . S
O228 Eu211 2.430 . S
O228 C218 1.259 . S
O229 Eu201 2.355 . S
O229 Eu211 2.670 . S
O229 C218 1.270 . S
O230 Eu211 2.394 . S
O230 C219 1.251 . S
O231 Eu201 2.374 . S
O231 C219 1.251 . S
H232 C203 0.931 . S
H233 C204 0.931 . S
H234 C206 0.931 . S
H235 C207 0.931 . S
H236 C213 0.931 . S
H237 C214 0.931 . S
H238 C216 0.931 . S
H239 C217 0.931 . S
C240 C241 1.391 . S
C240 C242 1.394 . S
C240 H256 0.931 . S
C241 C240 1.391 . S
C241 C245 1.376 . S
C242 C240 1.394 . S
C242 C243 1.369 . S
C242 C246 1.531 . S
C243 C242 1.369 . S
C243 C244 1.410 . S
C243 C251 1.503 . S
C244 C243 1.410 . S
C244 C245 1.392 . S
C244 C247 1.511 . S
C245 C241 1.376 . S
C245 C244 1.392 . S
C245 H257 0.929 . S
C246 C242 1.531 . S
C246 H258 0.960 . S
C246 H259 0.962 . S
C246 H260 0.960 . S
C247 C244 1.511 . S
C247 H261 0.961 . S
C247 H262 0.961 . S
C247 H263 0.961 . S
C248 C249 1.370 . S
C248 C250 1.363 . S
C248 H264 0.931 . S
C249 C248 1.370 . S
C249 C253 1.408 . S
C250 C248 1.363 . S
C250 C251 1.370 . S
C250 C254 1.524 . S
C251 C243 1.503 . S
C251 C250 1.370 . S
C251 C252 1.403 . S
C252 C251 1.403 . S
C252 C253 1.404 . S
C252 C255 1.539 . S
C253 C249 1.408 . S
C253 C252 1.404 . S
C253 H265 0.930 . S
C254 C250 1.524 . S
C254 H266 0.956 . S
C254 H267 0.961 . S
C254 H268 0.961 . S
C255 C252 1.539 . S
C255 H269 0.958 . S
C255 H270 0.961 . S
C255 H271 0.960 . S
H256 C240 0.931 . S
H257 C245 0.929 . S
H258 C246 0.960 . S
H259 C246 0.962 . S
H260 C246 0.960 . S
H261 C247 0.961 . S
H262 C247 0.961 . S
H263 C247 0.961 . S
H264 C248 0.931 . S
H265 C253 0.930 . S
H266 C254 0.956 . S
H267 C254 0.961 . S
H268 C254 0.961 . S
H269 C255 0.958 . S
H270 C255 0.961 . S
H271 C255 0.960 . S
C272 C273 1.391 . S
C272 C274 1.394 . S
C272 H288 0.931 . S
C273 C272 1.391 . S
C273 C277 1.376 . S
C274 C272 1.394 . S
C274 C275 1.369 . S
C274 C278 1.531 . S
C275 C274 1.369 . S
C275 C276 1.410 . S
C275 C283 1.503 . S
C276 C275 1.410 . S
C276 C277 1.392 . S
C276 C279 1.511 . S
C277 C273 1.376 . S
C277 C276 1.392 . S
C277 H289 0.929 . S
C278 C274 1.531 . S
C278 H290 0.960 . S
C278 H291 0.962 . S
C278 H292 0.960 . S
C279 C276 1.511 . S
C279 H293 0.961 . S
C279 H294 0.961 . S
C279 H295 0.961 . S
C280 C281 1.370 . S
C280 C282 1.363 . S
C280 H296 0.931 . S
C281 C280 1.370 . S
C281 C285 1.408 . S
C282 C280 1.363 . S
C282 C283 1.370 . S
C282 C286 1.524 . S
C283 C275 1.503 . S
C283 C282 1.370 . S
C283 C284 1.403 . S
C284 C283 1.403 . S
C284 C285 1.404 . S
C284 C287 1.539 . S
C285 C281 1.408 . S
C285 C284 1.404 . S
C285 H297 0.930 . S
C286 C282 1.524 . S
C286 H298 0.956 . S
C286 H299 0.961 . S
C286 H300 0.961 . S
C287 C284 1.539 . S
C287 H301 0.958 . S
C287 H302 0.961 . S
C287 H303 0.960 . S
H288 C272 0.931 . S
H289 C277 0.929 . S
H290 C278 0.960 . S
H291 C278 0.962 . S
H292 C278 0.960 . S
H293 C279 0.961 . S
H294 C279 0.961 . S
H295 C279 0.961 . S
H296 C280 0.931 . S
H297 C285 0.930 . S
H298 C286 0.956 . S
H299 C286 0.961 . S
H300 C286 0.961 . S
H301 C287 0.958 . S
H302 C287 0.961 . S
H303 C287 0.960 . S
C304 C305 1.391 . S
C304 C306 1.394 . S
C304 H320 0.931 . S
C305 C304 1.391 . S
C305 C309 1.376 . S
C306 C304 1.394 . S
C306 C307 1.369 . S
C306 C310 1.531 . S
C307 C306 1.369 . S
C307 C308 1.410 . S
C307 C315 1.503 . S
C308 C307 1.410 . S
C308 C309 1.392 . S
C308 C311 1.511 . S
C309 C305 1.376 . S
C309 C308 1.392 . S
C309 H321 0.929 . S
C310 C306 1.531 . S
C310 H322 0.960 . S
C310 H323 0.962 . S
C310 H324 0.960 . S
C311 C308 1.511 . S
C311 H325 0.961 . S
C311 H326 0.961 . S
C311 H327 0.961 . S
C312 C313 1.370 . S
C312 C314 1.363 . S
C312 H328 0.931 . S
C313 C312 1.370 . S
C313 C317 1.408 . S
C314 C312 1.363 . S
C314 C315 1.370 . S
C314 C318 1.524 . S
C315 C307 1.503 . S
C315 C314 1.370 . S
C315 C316 1.403 . S
C316 C315 1.403 . S
C316 C317 1.404 . S
C316 C319 1.539 . S
C317 C313 1.408 . S
C317 C316 1.404 . S
C317 H329 0.930 . S
C318 C314 1.524 . S
C318 H330 0.956 . S
C318 H331 0.961 . S
C318 H332 0.961 . S
C319 C316 1.539 . S
C319 H333 0.958 . S
C319 H334 0.961 . S
C319 H335 0.960 . S
H320 C304 0.931 . S
H321 C309 0.929 . S
H322 C310 0.960 . S
H323 C310 0.962 . S
H324 C310 0.960 . S
H325 C311 0.961 . S
H326 C311 0.961 . S
H327 C311 0.961 . S
H328 C312 0.931 . S
H329 C317 0.930 . S
H330 C318 0.956 . S
H331 C318 0.961 . S
H332 C318 0.961 . S
H333 C319 0.958 . S
H334 C319 0.961 . S
H335 C319 0.960 . S
C336 C337 1.391 . S
C336 C338 1.394 . S
C336 H352 0.931 . S
C337 C336 1.391 . S
C337 C341 1.376 . S
C338 C336 1.394 . S
C338 C339 1.369 . S
C338 C342 1.531 . S
C339 C338 1.369 . S
C339 C340 1.410 . S
C339 C347 1.503 . S
C340 C339 1.410 . S
C340 C341 1.392 . S
C340 C343 1.511 . S
C341 C337 1.376 . S
C341 C340 1.392 . S
C341 H353 0.929 . S
C342 C338 1.531 . S
C342 H354 0.960 . S
C342 H355 0.962 . S
C342 H356 0.960 . S
C343 C340 1.511 . S
C343 H357 0.961 . S
C343 H358 0.961 . S
C343 H359 0.961 . S
C344 C345 1.370 . S
C344 C346 1.363 . S
C344 H360 0.931 . S
C345 C344 1.370 . S
C345 C349 1.408 . S
C346 C344 1.363 . S
C346 C347 1.370 . S
C346 C350 1.524 . S
C347 C339 1.503 . S
C347 C346 1.370 . S
C347 C348 1.403 . S
C348 C347 1.403 . S
C348 C349 1.404 . S
C348 C351 1.539 . S
C349 C345 1.408 . S
C349 C348 1.404 . S
C349 H361 0.930 . S
C350 C346 1.524 . S
C350 H362 0.956 . S
C350 H363 0.961 . S
C350 H364 0.961 . S
C351 C348 1.539 . S
C351 H365 0.958 . S
C351 H366 0.961 . S
C351 H367 0.960 . S
H352 C336 0.931 . S
H353 C341 0.929 . S
H354 C342 0.960 . S
H355 C342 0.962 . S
H356 C342 0.960 . S
H357 C343 0.961 . S
H358 C343 0.961 . S
H359 C343 0.961 . S
H360 C344 0.931 . S
H361 C349 0.930 . S
H362 C350 0.956 . S
H363 C350 0.961 . S
H364 C350 0.961 . S
H365 C351 0.958 . S
H366 C351 0.961 . S
H367 C351 0.960 . S
C368 C369 1.391 . S
C368 C370 1.394 . S
C368 H384 0.931 . S
C369 C368 1.391 . S
C369 C373 1.376 . S
C370 C368 1.394 . S
C370 C371 1.369 . S
C370 C374 1.531 . S
C371 C370 1.369 . S
C371 C372 1.410 . S
C371 C379 1.503 . S
C372 C371 1.410 . S
C372 C373 1.392 . S
C372 C375 1.511 . S
C373 C369 1.376 . S
C373 C372 1.392 . S
C373 H385 0.929 . S
C374 C370 1.531 . S
C374 H386 0.960 . S
C374 H387 0.962 . S
C374 H388 0.960 . S
C375 C372 1.511 . S
C375 H389 0.961 . S
C375 H390 0.961 . S
C375 H391 0.961 . S
C376 C377 1.370 . S
C376 C378 1.363 . S
C376 H392 0.931 . S
C377 C376 1.370 . S
C377 C381 1.408 . S
C378 C376 1.363 . S
C378 C379 1.370 . S
C378 C382 1.524 . S
C379 C371 1.503 . S
C379 C378 1.370 . S
C379 C380 1.403 . S
C380 C379 1.403 . S
C380 C381 1.404 . S
C380 C383 1.539 . S
C381 C377 1.408 . S
C381 C380 1.404 . S
C381 H393 0.930 . S
C382 C378 1.524 . S
C382 H394 0.956 . S
C382 H395 0.961 . S
C382 H396 0.961 . S
C383 C380 1.539 . S
C383 H397 0.958 . S
C383 H398 0.961 . S
C383 H399 0.960 . S
H384 C368 0.931 . S
H385 C373 0.929 . S
H386 C374 0.960 . S
H387 C374 0.962 . S
H388 C374 0.960 . S
H389 C375 0.961 . S
H390 C375 0.961 . S
H391 C375 0.961 . S
H392 C376 0.931 . S
H393 C381 0.930 . S
H394 C382 0.956 . S
H395 C382 0.961 . S
H396 C382 0.961 . S
H397 C383 0.958 . S
H398 C383 0.961 . S
H399 C383 0.960 . S
C400 C401 1.391 . S
C400 C402 1.394 . S
C400 H416 0.931 . S
C401 C400 1.391 . S
C401 C405 1.376 . S
C402 C400 1.394 . S
C402 C403 1.369 . S
C402 C406 1.531 . S
C403 C402 1.369 . S
C403 C404 1.410 . S
C403 C411 1.503 . S
C404 C403 1.410 . S
C404 C405 1.392 . S
C404 C407 1.511 . S
C405 C401 1.376 . S
C405 C404 1.392 . S
C405 H417 0.929 . S
C406 C402 1.531 . S
C406 H418 0.960 . S
C406 H419 0.962 . S
C406 H420 0.960 . S
C407 C404 1.511 . S
C407 H421 0.961 . S
C407 H422 0.961 . S
C407 H423 0.961 . S
C408 C409 1.370 . S
C408 C410 1.363 . S
C408 H424 0.931 . S
C409 C408 1.370 . S
C409 C413 1.408 . S
C410 C408 1.363 . S
C410 C411 1.370 . S
C410 C414 1.524 . S
C411 C403 1.503 . S
C411 C410 1.370 . S
C411 C412 1.403 . S
C412 C411 1.403 . S
C412 C413 1.404 . S
C412 C415 1.539 . S
C413 C409 1.408 . S
C413 C412 1.404 . S
C413 H425 0.930 . S
C414 C410 1.524 . S
C414 H426 0.956 . S
C414 H427 0.961 . S
C414 H428 0.961 . S
C415 C412 1.539 . S
C415 H429 0.958 . S
C415 H430 0.961 . S
C415 H431 0.960 . S
H416 C400 0.931 . S
H417 C405 0.929 . S
H418 C406 0.960 . S
H419 C406 0.962 . S
H420 C406 0.960 . S
H421 C407 0.961 . S
H422 C407 0.961 . S
H423 C407 0.961 . S
H424 C408 0.931 . S
H425 C413 0.930 . S
H426 C414 0.956 . S
H427 C414 0.961 . S
H428 C414 0.961 . S
H429 C415 0.958 . S
H430 C415 0.961 . S
H431 C415 0.960 . S
C432 C433 1.391 . S
C432 C434 1.394 . S
C432 H448 0.931 . S
C433 C432 1.391 . S
C433 C437 1.376 . S
C434 C432 1.394 . S
C434 C435 1.369 . S
C434 C438 1.531 . S
C435 C434 1.369 . S
C435 C436 1.410 . S
C435 C443 1.503 . S
C436 C435 1.410 . S
C436 C437 1.392 . S
C436 C439 1.511 . S
C437 C433 1.376 . S
C437 C436 1.392 . S
C437 H449 0.929 . S
C438 C434 1.531 . S
C438 H450 0.960 . S
C438 H451 0.962 . S
C438 H452 0.960 . S
C439 C436 1.511 . S
C439 H453 0.961 . S
C439 H454 0.961 . S
C439 H455 0.961 . S
C440 C441 1.370 . S
C440 C442 1.363 . S
C440 H456 0.931 . S
C441 C440 1.370 . S
C441 C445 1.408 . S
C442 C440 1.363 . S
C442 C443 1.370 . S
C442 C446 1.524 . S
C443 C435 1.503 . S
C443 C442 1.370 . S
C443 C444 1.403 . S
C444 C443 1.403 . S
C444 C445 1.404 . S
C444 C447 1.539 . S
C445 C441 1.408 . S
C445 C444 1.404 . S
C445 H457 0.930 . S
C446 C442 1.524 . S
C446 H458 0.956 1_554 S
C446 H459 0.961 . S
C446 H460 0.961 1_554 S
C447 C444 1.539 . S
C447 H461 0.958 . S
C447 H462 0.961 . S
C447 H463 0.960 . S
H448 C432 0.931 . S
H449 C437 0.929 . S
H450 C438 0.960 . S
H451 C438 0.962 . S
H452 C438 0.960 . S
H453 C439 0.961 . S
H454 C439 0.961 . S
H455 C439 0.961 . S
H456 C440 0.931 . S
H457 C445 0.930 . S
H458 C446 0.956 1_556 S
H459 C446 0.961 . S
H460 C446 0.961 1_556 S
H461 C447 0.958 . S
H462 C447 0.961 . S
H463 C447 0.960 . S
C464 C465 1.408 . S
C464 C466 1.396 1_455 S
C464 H480 0.912 1_455 S
C465 C464 1.408 . S
C465 C469 1.376 . S
C466 C464 1.396 1_655 S
C466 C467 1.369 1_655 S
C466 C470 1.531 . S
C467 C466 1.369 1_455 S
C467 C468 1.410 . S
C467 C475 1.503 1_455 S
C468 C467 1.410 . S
C468 C469 1.392 . S
C468 C471 1.511 . S
C469 C465 1.376 . S
C469 C468 1.392 . S
C469 H481 0.929 . S
C470 C466 1.531 . S
C470 H482 0.960 . S
C470 H483 0.962 . S
C470 H484 0.960 . S
C471 C468 1.511 . S
C471 H485 0.961 . S
C471 H486 0.961 . S
C471 H487 0.961 . S
C472 C473 1.370 . S
C472 C474 1.363 . S
C472 H488 0.931 . S
C473 C472 1.370 . S
C473 C477 1.408 . S
C474 C472 1.363 . S
C474 C475 1.370 . S
C474 C478 1.524 1_655 S
C475 C467 1.503 1_655 S
C475 C474 1.370 . S
C475 C476 1.403 . S
C476 C475 1.403 . S
C476 C477 1.404 . S
C476 C479 1.539 . S
C477 C473 1.408 . S
C477 C476 1.404 . S
C477 H489 0.930 . S
C478 C474 1.524 1_455 S
C478 H490 0.956 1_455 S
C478 H491 0.961 . S
C478 H492 0.961 . S
C479 C476 1.539 . S
C479 H493 0.958 . S
C479 H494 0.961 . S
C479 H495 0.960 1_655 S
H480 C464 0.912 1_655 S
H481 C469 0.929 . S
H482 C470 0.960 . S
H483 C470 0.962 . S
H484 C470 0.960 . S
H485 C471 0.961 . S
H486 C471 0.961 . S
H487 C471 0.961 . S
H488 C472 0.931 . S
H489 C477 0.930 . S
H490 C478 0.956 1_655 S
H491 C478 0.961 . S
H492 C478 0.961 . S
H493 C479 0.958 . S
H494 C479 0.961 . S
H495 C479 0.960 1_455 S
C496 C497 1.391 . S
C496 C498 1.394 . S
C496 H512 0.931 . S
C497 C496 1.391 . S
C497 C501 1.376 . S
C498 C496 1.394 . S
C498 C499 1.369 . S
C498 C502 1.531 . S
C499 C498 1.369 . S
C499 C500 1.410 1_545 S
C499 C507 1.503 1_545 S
C500 C499 1.410 1_565 S
C500 C501 1.392 1_565 S
C500 C503 1.511 . S
C501 C497 1.376 . S
C501 C500 1.392 1_545 S
C501 H513 0.929 1_545 S
C502 C498 1.531 . S
C502 H514 0.960 . S
C502 H515 0.962 . S
C502 H516 0.960 . S
C503 C500 1.511 . S
C503 H517 0.961 . S
C503 H518 0.961 . S
C503 H519 0.961 . S
C504 C505 1.370 . S
C504 C506 1.363 . S
C504 H520 0.931 . S
C505 C504 1.370 . S
C505 C509 1.408 . S
C506 C504 1.363 . S
C506 C507 1.370 . S
C506 C510 1.524 . S
C507 C499 1.503 1_565 S
C507 C506 1.370 . S
C507 C508 1.403 . S
C508 C507 1.403 . S
C508 C509 1.404 . S
C508 C511 1.538 1_565 S
C509 C505 1.408 . S
C509 C508 1.404 . S
C509 H521 0.930 . S
C510 C506 1.524 . S
C510 H522 0.956 1_565 S
C510 H523 0.961 . S
C510 H524 0.961 . S
C511 C508 1.538 1_545 S
C511 H525 0.961 . S
C511 H526 0.958 1_545 S
C511 H527 0.961 1_545 S
H512 C496 0.931 . S
H513 C501 0.929 1_565 S
H514 C502 0.960 . S
H515 C502 0.962 . S
H516 C502 0.960 . S
H517 C503 0.961 . S
H518 C503 0.961 . S
H519 C503 0.961 . S
H520 C504 0.931 . S
H521 C509 0.930 . S
H522 C510 0.956 1_545 S
H523 C510 0.961 . S
H524 C510 0.961 . S
H525 C511 0.961 . S
H526 C511 0.958 1_565 S
H527 C511 0.961 1_565 S
C528 C529 1.391 . S
C528 C530 1.394 . S
C528 H544 0.931 . S
C529 C528 1.391 . S
C529 C533 1.376 . S
C530 C528 1.394 . S
C530 C531 1.369 . S
C530 C534 1.531 . S
C531 C530 1.369 . S
C531 C532 1.410 . S
C531 C539 1.503 . S
C532 C531 1.410 . S
C532 C533 1.392 . S
C532 C535 1.511 . S
C533 C529 1.376 . S
C533 C532 1.392 . S
C533 H545 0.929 . S
C534 C530 1.531 . S
C534 H546 0.960 . S
C534 H547 0.962 . S
C534 H548 0.960 . S
C535 C532 1.511 . S
C535 H549 0.961 . S
C535 H550 0.961 . S
C535 H551 0.961 . S
C536 C537 1.370 . S
C536 C538 1.363 . S
C536 H552 0.931 . S
C537 C536 1.370 . S
C537 C541 1.408 . S
C538 C536 1.363 . S
C538 C539 1.370 . S
C538 C542 1.524 . S
C539 C531 1.503 . S
C539 C538 1.370 . S
C539 C540 1.403 . S
C540 C539 1.403 . S
C540 C541 1.404 . S
C540 C543 1.539 . S
C541 C537 1.408 . S
C541 C540 1.404 . S
C541 H553 0.930 . S
C542 C538 1.524 . S
C542 H554 0.956 . S
C542 H555 0.961 . S
C542 H556 0.961 . S
C543 C540 1.539 . S
C543 H557 0.958 . S
C543 H558 0.961 . S
C543 H559 0.960 . S
H544 C528 0.931 . S
H545 C533 0.929 . S
H546 C534 0.960 . S
H547 C534 0.962 . S
H548 C534 0.960 . S
H549 C535 0.961 . S
H550 C535 0.961 . S
H551 C535 0.961 . S
H552 C536 0.931 . S
H553 C541 0.930 . S
H554 C542 0.956 . S
H555 C542 0.961 . S
H556 C542 0.961 . S
H557 C543 0.958 . S
H558 C543 0.961 . S
H559 C543 0.960 . S
C560 C561 1.391 . S
C560 C562 1.394 . S
C560 H576 0.931 1_554 S
C561 C560 1.391 . S
C561 C565 1.376 . S
C562 C560 1.394 . S
C562 C563 1.369 . S
C562 C566 1.531 1_554 S
C563 C562 1.369 . S
C563 C564 1.410 1_455 S
C563 C571 1.503 1_455 S
C564 C563 1.410 1_655 S
C564 C565 1.392 1_655 S
C564 C567 1.511 . S
C565 C561 1.376 . S
C565 C564 1.392 1_455 S
C565 H577 0.929 . S
C566 C562 1.531 1_556 S
C566 H578 0.960 . S
C566 H579 0.962 . S
C566 H580 0.960 . S
C567 C564 1.511 . S
C567 H581 0.961 . S
C567 H582 0.961 . S
C567 H583 0.961 . S
C568 C569 1.370 . S
C568 C570 1.379 . S
C568 H584 0.931 . S
C569 C568 1.370 . S
C569 C573 1.408 . S
C570 C568 1.379 . S
C570 C571 1.370 . S
C570 C574 1.509 1_655 S
C571 C563 1.503 1_655 S
C571 C570 1.370 . S
C571 C572 1.403 . S
C572 C571 1.403 . S
C572 C573 1.404 . S
C572 C575 1.539 1_554 S
C573 C569 1.408 . S
C573 C572 1.404 . S
C573 H585 0.930 1_554 S
C574 C570 1.509 1_455 S
C574 H586 0.956 . S
C574 H587 0.961 . S
C574 H588 0.961 . S
C575 C572 1.539 1_556 S
C575 H589 0.958 . S
C575 H590 0.961 . S
C575 H591 0.960 . S
H576 C560 0.931 1_556 S
H577 C565 0.929 . S
H578 C566 0.960 . S
H579 C566 0.962 . S
H580 C566 0.960 . S
H581 C567 0.961 . S
H582 C567 0.961 . S
H583 C567 0.961 . S
H584 C568 0.931 . S
H585 C573 0.930 1_556 S
H586 C574 0.956 . S
H587 C574 0.961 . S
H588 C574 0.961 . S
H589 C575 0.958 . S
H590 C575 0.961 . S
H591 C575 0.960 . S
C592 C593 1.391 . S
C592 C594 1.394 . S
C592 H608 0.931 . S
C593 C592 1.391 . S
C593 C597 1.376 . S
C594 C592 1.394 . S
C594 C595 1.369 . S
C594 C598 1.531 . S
C595 C594 1.369 . S
C595 C596 1.410 . S
C595 C603 1.503 1_565 S
C596 C595 1.410 . S
C596 C597 1.392 . S
C596 C599 1.511 . S
C597 C593 1.376 . S
C597 C596 1.392 . S
C597 H609 0.929 . S
C598 C594 1.531 . S
C598 H610 0.960 . S
C598 H611 0.962 1_565 S
C598 H612 0.960 . S
C599 C596 1.511 . S
C599 H613 0.961 . S
C599 H614 0.961 1_565 S
C599 H615 0.961 . S
C600 C601 1.370 . S
C600 C602 1.363 . S
C600 H616 0.931 . S
C601 C600 1.370 . S
C601 C605 1.408 . S
C602 C600 1.363 . S
C602 C603 1.370 . S
C602 C606 1.524 . S
C603 C595 1.503 1_545 S
C603 C602 1.370 . S
C603 C604 1.403 1_545 S
C604 C603 1.403 1_565 S
C604 C605 1.404 1_565 S
C604 C607 1.539 . S
C605 C601 1.408 . S
C605 C604 1.404 1_545 S
C605 H617 0.930 1_545 S
C606 C602 1.524 . S
C606 H618 0.956 . S
C606 H619 0.961 . S
C606 H620 0.961 . S
C607 C604 1.539 . S
C607 H621 0.958 . S
C607 H622 0.961 . S
C607 H623 0.960 . S
H608 C592 0.931 . S
H609 C597 0.929 . S
H610 C598 0.960 . S
H611 C598 0.962 1_545 S
H612 C598 0.960 . S
H613 C599 0.961 . S
H614 C599 0.961 1_545 S
H615 C599 0.961 . S
H616 C600 0.931 . S
H617 C605 0.930 1_565 S
H618 C606 0.956 . S
H619 C606 0.961 . S
H620 C606 0.961 . S
H621 C607 0.958 . S
H622 C607 0.961 . S
H623 C607 0.960 . S
C624 C625 1.391 . S
C624 C626 1.394 . S
C624 H640 0.931 . S
C625 C624 1.391 . S
C625 C629 1.376 . S
C626 C624 1.394 . S
C626 C627 1.369 . S
C626 C630 1.531 . S
C627 C626 1.369 . S
C627 C628 1.410 . S
C627 C635 1.503 . S
C628 C627 1.410 . S
C628 C629 1.392 . S
C628 C631 1.511 . S
C629 C625 1.376 . S
C629 C628 1.392 . S
C629 H641 0.929 . S
C630 C626 1.531 . S
C630 H642 0.960 . S
C630 H643 0.962 . S
C630 H644 0.960 . S
C631 C628 1.511 . S
C631 H645 0.961 . S
C631 H646 0.961 . S
C631 H647 0.961 . S
C632 C633 1.370 . S
C632 C634 1.363 . S
C632 H648 0.931 . S
C633 C632 1.370 . S
C633 C637 1.408 . S
C634 C632 1.363 . S
C634 C635 1.370 . S
C634 C638 1.524 . S
C635 C627 1.503 . S
C635 C634 1.370 . S
C635 C636 1.403 . S
C636 C635 1.403 . S
C636 C637 1.404 . S
C636 C639 1.539 . S
C637 C633 1.408 . S
C637 C636 1.404 . S
C637 H649 0.930 . S
C638 C634 1.524 . S
C638 H650 0.956 . S
C638 H651 0.961 . S
C638 H652 0.961 . S
C639 C636 1.539 . S
C639 H653 0.958 . S
C639 H654 0.961 . S
C639 H655 0.960 . S
H640 C624 0.931 . S
H641 C629 0.929 . S
H642 C630 0.960 . S
H643 C630 0.962 . S
H644 C630 0.960 . S
H645 C631 0.961 . S
H646 C631 0.961 . S
H647 C631 0.961 . S
H648 C632 0.931 . S
H649 C637 0.930 . S
H650 C638 0.956 . S
H651 C638 0.961 . S
H652 C638 0.961 . S
H653 C639 0.958 . S
H654 C639 0.961 . S
H655 C639 0.960 . S
C656 C657 1.391 . S
C656 C658 1.394 . S
C656 H672 0.931 1_455 S
C657 C656 1.391 . S
C657 C661 1.376 . S
C658 C656 1.394 . S
C658 C659 1.369 . S
C658 C662 1.531 . S
C659 C658 1.369 . S
C659 C660 1.410 . S
C659 C667 1.503 . S
C660 C659 1.410 . S
C660 C661 1.392 . S
C660 C663 1.511 . S
C661 C657 1.376 . S
C661 C660 1.392 . S
C661 H673 0.929 . S
C662 C658 1.531 . S
C662 H674 0.960 . S
C662 H675 0.962 1_455 S
C662 H676 0.960 . S
C663 C660 1.511 . S
C663 H677 0.961 . S
C663 H678 0.961 . S
C663 H679 0.961 . S
C664 C665 1.370 . S
C664 C666 1.363 . S
C664 H680 0.931 . S
C665 C664 1.370 . S
C665 C669 1.408 . S
C666 C664 1.363 . S
C666 C667 1.370 . S
C666 C670 1.524 . S
C667 C659 1.503 . S
C667 C666 1.370 . S
C667 C668 1.403 . S
C668 C667 1.403 . S
C668 C669 1.404 . S
C668 C671 1.539 . S
C669 C665 1.408 . S
C669 C668 1.404 . S
C669 H681 0.930 . S
C670 C666 1.524 . S
C670 H682 0.956 1_455 S
C670 H683 0.961 . S
C670 H684 0.961 1_455 S
C671 C668 1.539 . S
C671 H685 0.958 . S
C671 H686 0.961 . S
C671 H687 0.960 . S
H672 C656 0.931 1_655 S
H673 C661 0.929 . S
H674 C662 0.960 . S
H675 C662 0.962 1_655 S
H676 C662 0.960 . S
H677 C663 0.961 . S
H678 C663 0.961 . S
H679 C663 0.961 . S
H680 C664 0.931 . S
H681 C669 0.930 . S
H682 C670 0.956 1_655 S
H683 C670 0.961 . S
H684 C670 0.961 1_655 S
H685 C671 0.958 . S
H686 C671 0.961 . S
H687 C671 0.960 . S
C688 C689 1.391 . S
C688 C690 1.394 . S
C688 H704 0.931 . S
C689 C688 1.391 . S
C689 C693 1.376 1_545 S
C690 C688 1.394 . S
C690 C691 1.369 . S
C690 C694 1.531 . S
C691 C690 1.369 . S
C691 C692 1.410 . S
C691 C699 1.503 . S
C692 C691 1.410 . S
C692 C693 1.392 1_545 S
C692 C695 1.511 1_545 S
C693 C689 1.376 1_565 S
C693 C692 1.392 1_565 S
C693 H705 0.929 . S
C694 C690 1.531 . S
C694 H706 0.960 . S
C694 H707 0.962 . S
C694 H708 0.960 . S
C695 C692 1.511 1_565 S
C695 H709 0.961 . S
C695 H710 0.961 . S
C695 H711 0.961 1_565 S
C696 C697 1.370 . S
C696 C698 1.363 . S
C696 H712 0.931 . S
C697 C696 1.370 . S
C697 C701 1.408 . S
C698 C696 1.363 . S
C698 C699 1.370 . S
C698 C702 1.524 . S
C699 C691 1.503 . S
C699 C698 1.370 . S
C699 C700 1.403 . S
C700 C699 1.403 . S
C700 C701 1.404 . S
C700 C703 1.539 . S
C701 C697 1.408 . S
C701 C700 1.404 . S
C701 H713 0.930 . S
C702 C698 1.524 . S
C702 H714 0.956 . S
C702 H715 0.961 1_545 S
C702 H716 0.961 . S
C703 C700 1.539 . S
C703 H717 0.958 . S
C703 H718 0.961 . S
C703 H719 0.960 . S
H704 C688 0.931 . S
H705 C693 0.929 . S
H706 C694 0.960 . S
H707 C694 0.962 . S
H708 C694 0.960 . S
H709 C695 0.961 . S
H710 C695 0.961 . S
H711 C695 0.961 1_545 S
H712 C696 0.931 . S
H713 C701 0.930 . S
H714 C702 0.956 . S
H715 C702 0.961 1_565 S
H716 C702 0.961 . S
H717 C703 0.958 . S
H718 C703 0.961 . S
H719 C703 0.960 . S
C720 C721 1.391 . S
C720 C722 1.394 . S
C720 H736 0.931 . S
C721 C720 1.391 . S
C721 C725 1.376 . S
C722 C720 1.394 . S
C722 C723 1.369 . S
C722 C726 1.531 . S
C723 C722 1.369 . S
C723 C724 1.410 . S
C723 C731 1.503 . S
C724 C723 1.410 . S
C724 C725 1.392 . S
C724 C727 1.511 . S
C725 C721 1.376 . S
C725 C724 1.392 . S
C725 H737 0.929 . S
C726 C722 1.531 . S
C726 H738 0.960 . S
C726 H739 0.962 . S
C726 H740 0.960 . S
C727 C724 1.511 . S
C727 H741 0.961 . S
C727 H742 0.961 . S
C727 H743 0.961 . S
C728 C729 1.370 . S
C728 C730 1.363 . S
C728 H744 0.931 . S
C729 C728 1.370 . S
C729 C733 1.408 . S
C730 C728 1.363 . S
C730 C731 1.370 . S
C730 C734 1.524 . S
C731 C723 1.503 . S
C731 C730 1.370 . S
C731 C732 1.403 . S
C732 C731 1.403 . S
C732 C733 1.404 . S
C732 C735 1.539 . S
C733 C729 1.408 . S
C733 C732 1.404 . S
C733 H745 0.930 . S
C734 C730 1.524 . S
C734 H746 0.956 . S
C734 H747 0.961 . S
C734 H748 0.961 . S
C735 C732 1.539 . S
C735 H749 0.958 . S
C735 H750 0.961 . S
C735 H751 0.960 . S
H736 C720 0.931 . S
H737 C725 0.929 . S
H738 C726 0.960 . S
H739 C726 0.962 . S
H740 C726 0.960 . S
H741 C727 0.961 . S
H742 C727 0.961 . S
H743 C727 0.961 . S
H744 C728 0.931 . S
H745 C733 0.930 . S
H746 C734 0.956 . S
H747 C734 0.961 . S
H748 C734 0.961 . S
H749 C735 0.958 . S
H750 C735 0.961 . S
H751 C735 0.960 . S
C752 C753 1.391 1_455 S
C752 C754 1.394 . S
C752 H768 0.931 . S
C753 C752 1.391 1_655 S
C753 C757 1.376 . S
C754 C752 1.394 . S
C754 C755 1.369 1_455 S
C754 C758 1.531 . S
C755 C754 1.369 1_655 S
C755 C756 1.410 . S
C755 C763 1.503 . S
C756 C755 1.410 . S
C756 C757 1.392 . S
C756 C759 1.511 . S
C757 C753 1.376 . S
C757 C756 1.392 . S
C757 H769 0.929 . S
C758 C754 1.531 . S
C758 H770 0.960 . S
C758 H771 0.962 . S
C758 H772 0.960 . S
C759 C756 1.511 . S
C759 H773 0.961 . S
C759 H774 0.961 . S
C759 H775 0.961 . S
C760 C761 1.370 . S
C760 C762 1.363 . S
C760 H776 0.931 . S
C761 C760 1.370 . S
C761 C765 1.408 . S
C762 C760 1.363 . S
C762 C763 1.370 . S
C762 C766 1.524 . S
C763 C755 1.503 . S
C763 C762 1.370 . S
C763 C764 1.403 . S
C764 C763 1.403 . S
C764 C765 1.404 . S
C764 C767 1.539 . S
C765 C761 1.408 . S
C765 C764 1.404 . S
C765 H777 0.930 . S
C766 C762 1.524 . S
C766 H778 0.956 . S
C766 H779 0.961 . S
C766 H780 0.961 . S
C767 C764 1.539 . S
C767 H781 0.958 . S
C767 H782 0.961 . S
C767 H783 0.960 . S
H768 C752 0.931 . S
H769 C757 0.929 . S
H770 C758 0.960 . S
H771 C758 0.962 . S
H772 C758 0.960 . S
H773 C759 0.961 . S
H774 C759 0.961 . S
H775 C759 0.961 . S
H776 C760 0.931 . S
H777 C765 0.930 . S
H778 C766 0.956 . S
H779 C766 0.961 . S
H780 C766 0.961 . S
H781 C767 0.958 . S
H782 C767 0.961 . S
H783 C767 0.960 . S
C784 C785 1.391 . S
C784 C786 1.394 . S
C784 H800 0.931 . S
C785 C784 1.391 . S
C785 C789 1.376 1_565 S
C786 C784 1.394 . S
C786 C787 1.369 . S
C786 C790 1.531 . S
C787 C786 1.369 . S
C787 C788 1.410 . S
C787 C795 1.503 . S
C788 C787 1.410 . S
C788 C789 1.392 1_565 S
C788 C791 1.511 1_565 S
C789 C785 1.376 1_545 S
C789 C788 1.392 1_545 S
C789 H801 0.929 . S
C790 C786 1.531 . S
C790 H802 0.960 . S
C790 H803 0.962 . S
C790 H804 0.960 . S
C791 C788 1.511 1_545 S
C791 H805 0.961 . S
C791 H806 0.961 . S
C791 H807 0.961 . S
C792 C793 1.370 . S
C792 C794 1.363 . S
C792 H808 0.931 . S
C793 C792 1.370 . S
C793 C797 1.408 . S
C794 C792 1.363 . S
C794 C795 1.370 . S
C794 C798 1.524 . S
C795 C787 1.503 . S
C795 C794 1.370 . S
C795 C796 1.403 . S
C796 C795 1.403 . S
C796 C797 1.404 . S
C796 C799 1.539 . S
C797 C793 1.408 . S
C797 C796 1.404 . S
C797 H809 0.930 . S
C798 C794 1.524 . S
C798 H810 0.956 . S
C798 H811 0.961 . S
C798 H812 0.961 . S
C799 C796 1.539 . S
C799 H813 0.958 . S
C799 H814 0.961 . S
C799 H815 0.960 . S
H800 C784 0.931 . S
H801 C789 0.929 . S
H802 C790 0.960 . S
H803 C790 0.962 . S
H804 C790 0.960 . S
H805 C791 0.961 . S
H806 C791 0.961 . S
H807 C791 0.961 . S
H808 C792 0.931 . S
H809 C797 0.930 . S
H810 C798 0.956 . S
H811 C798 0.961 . S
H812 C798 0.961 . S
H813 C799 0.958 . S
H814 C799 0.961 . S
H815 C799 0.960 . S
C241 C169 1.132 . S
C249 C15 1.148 . S
C273 C209 1.146 . S
C281 C55 1.138 . S
C305 C9 1.150 . S
C313 C95 1.139 . S
C337 C49 1.149 . S
C345 C135 1.147 . S
C369 C89 1.140 . S
C377 C175 1.138 . S
C401 C129 1.134 . S
C409 C215 1.140 . S
C433 C18 0.855 . S
C441 C138 0.878 . S
C465 C178 0.893 . S
C473 C58 0.876 . S
C497 C218 0.863 . S
C505 C98 0.875 . S
C529 C88 1.053 . S
C537 C208 1.059 . S
C561 C8 1.057 . S
C569 C128 1.057 . S
C593 C168 1.053 . S
C601 C48 1.059 . S
C625 C219 1.182 . S
C633 C5 1.181 . S
C657 C45 1.163 1_455 S
C665 C19 1.188 . S
C689 C85 1.196 1_545 S
C697 C59 1.189 . S
C721 C99 1.197 . S
C729 C125 1.163 . S
C753 C165 1.137 1_655 S
C761 C139 1.192 . S
C785 C205 1.197 1_565 S
C793 C179 1.190 . S
