# Generated by pormake.
# Topology upc, (4)-cn, num edge types: 1
# Building blocks:
#     Node 0, Type 0, BuildingBlock: NAWXER_clean_sbu_0, # of connection points: 4
#     Node 1, Type 0, BuildingBlock: NAWXER_clean_sbu_0, # of connection points: 4
#     Node 2, Type 0, BuildingBlock: NAWXER_clean_sbu_0, # of connection points: 4
#     Node 3, Type 0, BuildingBlock: NAWXER_clean_sbu_0, # of connection points: 4
#     Node 4, Type 0, BuildingBlock: NAWXER_clean_sbu_0, # of connection points: 4
#     Node 5, Type 0, BuildingBlock: NAWXER_clean_sbu_0, # of connection points: 4
#     Node 6, Type 0, BuildingBlock: NAWXER_clean_sbu_0, # of connection points: 4
#     Node 7, Type 0, BuildingBlock: NAWXER_clean_sbu_0, # of connection points: 4
#     Node 8, Type 0, BuildingBlock: NAWXER_clean_sbu_0, # of connection points: 4
#     Node 9, Type 0, BuildingBlock: NAWXER_clean_sbu_0, # of connection points: 4
#     Node 10, Type 0, BuildingBlock: NAWXER_clean_sbu_0, # of connection points: 4
#     Node 11, Type 0, BuildingBlock: NAWXER_clean_sbu_0, # of connection points: 4
#     Node 12, Type 0, BuildingBlock: NAWXER_clean_sbu_0, # of connection points: 4
#     Node 13, Type 0, BuildingBlock: NAWXER_clean_sbu_0, # of connection points: 4
#     Node 14, Type 0, BuildingBlock: NAWXER_clean_sbu_0, # of connection points: 4
#     Node 15, Type 0, BuildingBlock: NAWXER_clean_sbu_0, # of connection points: 4
#     Edge 16, Type (0, 0), BuildingBlock: ZUJKAS_clean_linker_0, # of connection points: 2
#     Edge 17, Type (0, 0), BuildingBlock: ZUJKAS_clean_linker_0, # of connection points: 2
#     Edge 18, Type (0, 0), BuildingBlock: ZUJKAS_clean_linker_0, # of connection points: 2
#     Edge 19, Type (0, 0), BuildingBlock: ZUJKAS_clean_linker_0, # of connection points: 2
#     Edge 20, Type (0, 0), BuildingBlock: ZUJKAS_clean_linker_0, # of connection points: 2
#     Edge 21, Type (0, 0), BuildingBlock: ZUJKAS_clean_linker_0, # of connection points: 2
#     Edge 22, Type (0, 0), BuildingBlock: ZUJKAS_clean_linker_0, # of connection points: 2
#     Edge 23, Type (0, 0), BuildingBlock: ZUJKAS_clean_linker_0, # of connection points: 2
#     Edge 24, Type (0, 0), BuildingBlock: ZUJKAS_clean_linker_0, # of connection points: 2
#     Edge 25, Type (0, 0), BuildingBlock: ZUJKAS_clean_linker_0, # of connection points: 2
#     Edge 26, Type (0, 0), BuildingBlock: ZUJKAS_clean_linker_0, # of connection points: 2
#     Edge 27, Type (0, 0), BuildingBlock: ZUJKAS_clean_linker_0, # of connection points: 2
#     Edge 28, Type (0, 0), BuildingBlock: ZUJKAS_clean_linker_0, # of connection points: 2
#     Edge 29, Type (0, 0), BuildingBlock: ZUJKAS_clean_linker_0, # of connection points: 2
#     Edge 30, Type (0, 0), BuildingBlock: ZUJKAS_clean_linker_0, # of connection points: 2
#     Edge 31, Type (0, 0), BuildingBlock: ZUJKAS_clean_linker_0, # of connection points: 2
#     Edge 32, Type (0, 0), BuildingBlock: ZUJKAS_clean_linker_0, # of connection points: 2
#     Edge 33, Type (0, 0), BuildingBlock: ZUJKAS_clean_linker_0, # of connection points: 2
#     Edge 34, Type (0, 0), BuildingBlock: ZUJKAS_clean_linker_0, # of connection points: 2
#     Edge 35, Type (0, 0), BuildingBlock: ZUJKAS_clean_linker_0, # of connection points: 2
#     Edge 36, Type (0, 0), BuildingBlock: ZUJKAS_clean_linker_0, # of connection points: 2
#     Edge 37, Type (0, 0), BuildingBlock: ZUJKAS_clean_linker_0, # of connection points: 2
#     Edge 38, Type (0, 0), BuildingBlock: ZUJKAS_clean_linker_0, # of connection points: 2
#     Edge 39, Type (0, 0), BuildingBlock: ZUJKAS_clean_linker_0, # of connection points: 2
#     Edge 40, Type (0, 0), BuildingBlock: ZUJKAS_clean_linker_0, # of connection points: 2
#     Edge 41, Type (0, 0), BuildingBlock: ZUJKAS_clean_linker_0, # of connection points: 2
#     Edge 42, Type (0, 0), BuildingBlock: ZUJKAS_clean_linker_0, # of connection points: 2
#     Edge 43, Type (0, 0), BuildingBlock: ZUJKAS_clean_linker_0, # of connection points: 2
#     Edge 44, Type (0, 0), BuildingBlock: ZUJKAS_clean_linker_0, # of connection points: 2
#     Edge 45, Type (0, 0), BuildingBlock: ZUJKAS_clean_linker_0, # of connection points: 2
#     Edge 46, Type (0, 0), BuildingBlock: ZUJKAS_clean_linker_0, # of connection points: 2
#     Edge 47, Type (0, 0), BuildingBlock: ZUJKAS_clean_linker_0, # of connection points: 2
# Relax obj value: 0.229
# Max RMSD: 0.220
# Mean RMSD: 0.220
data_MOF--net-upc--node1-NAWXER_clean_sbu_0--edge1-ZUJKAS_clean_linker_0
_symmetry_space_group_name_H-M    P1
_symmetry_Int_Tables_number       1
_symmetry_cell_setting            triclinic
loop_
_symmetry_equiv_pos_as_xyz
'x, y, z'
_cell_length_a     46.846273
_cell_length_b     46.8112
_cell_length_c     53.740546
_cell_angle_alpha  90.014881
_cell_angle_beta   90.006557
_cell_angle_gamma 90.008357
loop_
_atom_site_label
_atom_site_type_symbol
_atom_site_fract_x
_atom_site_fract_y
_atom_site_fract_z
_atom_type_partial_charge
C0 C 0.09617 0.56719 0.15167 0.0
C1 C 0.1605 0.63055 0.10593 0.0
O2 O 0.08236 0.58541 0.13839 0.0
Zn3 Zn 0.09335 0.61908 0.11175 0.0
O4 O 0.12319 0.56602 0.14986 0.0
Zn5 Zn 0.12765 0.59631 0.12596 0.0
O6 O 0.11278 0.6327 0.14779 0.0
O7 O 0.07643 0.65117 0.12699 0.0
O8 O 0.16639 0.60803 0.11804 0.0
O9 O 0.13429 0.63677 0.10181 0.0
O10 O 0.07594 0.60892 0.08151 0.0
O11 O 0.10904 0.57797 0.09243 0.0
C12 C 0.09306 0.65163 0.14561 0.0
C13 C 0.08916 0.58586 0.07744 0.0
C14 C 0.9139 0.08768 0.07479 0.0
C15 C 0.85437 0.08307 0.14688 0.0
O16 O 0.92146 0.10753 0.08994 0.0
Zn17 Zn 0.90354 0.12423 0.12434 0.0
O18 O 0.89188 0.07305 0.07942 0.0
Zn19 Zn 0.88264 0.08853 0.11069 0.0
O20 O 0.86025 0.12774 0.1032 0.0
O21 O 0.88792 0.16193 0.11733 0.0
O22 O 0.85437 0.06753 0.12754 0.0
O23 O 0.87093 0.10494 0.14823 0.0
O24 O 0.93572 0.12215 0.14666 0.0
O25 O 0.91908 0.08002 0.13529 0.0
C26 C 0.86478 0.15439 0.10696 0.0
C27 C 0.93682 0.09505 0.14805 0.0
C28 C 0.4286 0.85169 0.14186 0.0
C29 C 0.42212 0.91713 0.07376 0.0
O30 O 0.40736 0.86872 0.14491 0.0
Zn31 Zn 0.38781 0.90345 0.12395 0.0
O32 O 0.44346 0.853 0.12217 0.0
Zn33 Zn 0.42241 0.88319 0.10771 0.0
O34 O 0.43276 0.91793 0.13382 0.0
O35 O 0.39142 0.9335 0.14813 0.0
O36 O 0.43651 0.89452 0.07652 0.0
O37 O 0.40317 0.92382 0.09004 0.0
O38 O 0.3496 0.88898 0.11788 0.0
O39 O 0.38234 0.86224 0.10016 0.0
C40 C 0.41853 0.93464 0.14824 0.0
C41 C 0.3561 0.86679 0.10558 0.0
C42 C 0.5891 0.42698 0.07697 0.0
C43 C 0.6514 0.41987 0.14731 0.0
O44 O 0.58023 0.4068 0.09122 0.0
Zn45 Zn 0.59691 0.38642 0.12453 0.0
O46 O 0.61238 0.43939 0.08191 0.0
Zn47 Zn 0.62094 0.4209 0.11211 0.0
O48 O 0.63885 0.3802 0.10215 0.0
O49 O 0.60867 0.34777 0.11556 0.0
O50 O 0.65224 0.43704 0.12906 0.0
O51 O 0.63224 0.40023 0.14818 0.0
O52 O 0.56564 0.39058 0.14763 0.0
O53 O 0.58631 0.43141 0.13787 0.0
C54 C 0.63212 0.35388 0.10499 0.0
C55 C 0.56731 0.41753 0.15021 0.0
C56 C 0.0908 0.94458 0.33969 0.0
C57 C 0.15437 0.87768 0.38273 0.0
O58 O 0.07702 0.9243 0.3505 0.0
Zn59 Zn 0.0875 0.88784 0.3744 0.0
O60 O 0.11758 0.94678 0.34317 0.0
Zn61 Zn 0.12169 0.91374 0.36435 0.0
O62 O 0.10923 0.88067 0.33791 0.0
O63 O 0.07279 0.8577 0.35489 0.0
O64 O 0.16024 0.90199 0.37358 0.0
O65 O 0.12816 0.87014 0.38445 0.0
O66 O 0.06763 0.89371 0.40454 0.0
O67 O 0.09965 0.92728 0.39793 0.0
C68 C 0.09007 0.86105 0.33694 0.0
C69 C 0.0792 0.91693 0.41107 0.0
C70 C 0.59279 0.08374 0.41187 0.0
C71 C 0.65761 0.0792 0.34323 0.0
O72 O 0.58601 0.10322 0.39609 0.0
Zn73 Zn 0.60585 0.11931 0.3622 0.0
O74 O 0.6152 0.06922 0.40851 0.0
Zn75 Zn 0.62628 0.08428 0.37762 0.0
O76 O 0.64706 0.1243 0.38597 0.0
O77 O 0.62025 0.15743 0.36887 0.0
O78 O 0.65646 0.06377 0.36261 0.0
O79 O 0.6405 0.10046 0.3407 0.0
O80 O 0.57559 0.11611 0.33815 0.0
O81 O 0.59153 0.07447 0.35149 0.0
C82 C 0.64244 0.15069 0.38106 0.0
C83 C 0.57464 0.08899 0.33746 0.0
C84 C 0.42419 0.59939 0.41264 0.0
C85 C 0.42859 0.65785 0.3398 0.0
O86 O 0.40433 0.59166 0.39759 0.0
Zn87 Zn 0.38761 0.60895 0.363 0.0
O88 O 0.43877 0.62142 0.40781 0.0
Zn89 Zn 0.42321 0.63023 0.37643 0.0
O90 O 0.38391 0.65259 0.38364 0.0
O91 O 0.34987 0.62452 0.36983 0.0
O92 O 0.44411 0.6583 0.35914 0.0
O93 O 0.40679 0.64119 0.3387 0.0
O94 O 0.38988 0.57633 0.34111 0.0
O95 O 0.43187 0.59338 0.35234 0.0
C96 C 0.35729 0.64787 0.37993 0.0
C97 C 0.41697 0.57532 0.3398 0.0
C98 C 0.91804 0.42055 0.41325 0.0
C99 C 0.85869 0.41356 0.34096 0.0
O100 O 0.92747 0.40051 0.39912 0.0
Zn101 Zn 0.91214 0.3802 0.36524 0.0
O102 O 0.89475 0.43276 0.4079 0.0
Zn103 Zn 0.88726 0.41422 0.37749 0.0
O104 O 0.86987 0.37332 0.38724 0.0
O105 O 0.90028 0.34138 0.37326 0.0
O106 O 0.8563 0.42999 0.35963 0.0
O107 O 0.87815 0.39425 0.34054 0.0
O108 O 0.94424 0.38492 0.34316 0.0
O109 O 0.92282 0.42543 0.3528 0.0
C110 C 0.87689 0.34713 0.38407 0.0
C111 C 0.94239 0.41189 0.34083 0.0
C112 C 0.92614 0.35522 0.83829 0.0
C113 C 0.92899 0.41339 0.91152 0.0
O114 O 0.94299 0.35409 0.85674 0.0
Zn115 Zn 0.9248 0.38323 0.87502 0.0
O116 O 0.90531 0.3731 0.83821 0.0
Zn117 Zn 0.88947 0.40631 0.86325 0.0
O118 O 0.89236 0.43898 0.84144 0.0
O119 O 0.93396 0.4197 0.8508 0.0
O120 O 0.90866 0.42214 0.8974 0.0
O121 O 0.94252 0.39099 0.90576 0.0
O122 O 0.88481 0.36289 0.88389 0.0
O123 O 0.85139 0.39252 0.87145 0.0
C124 C 0.91936 0.43862 0.839 0.0
C125 C 0.85827 0.36881 0.88121 0.0
C126 C 0.06669 0.92102 0.83778 0.0
C127 C 0.13608 0.85958 0.88006 0.0
O128 O 0.06683 0.89392 0.83944 0.0
Zn129 Zn 0.0987 0.8909 0.86202 0.0
O130 O 0.08489 0.93556 0.85048 0.0
Zn131 Zn 0.12068 0.92603 0.87549 0.0
O132 O 0.15007 0.94553 0.85882 0.0
O133 O 0.13246 0.90846 0.83834 0.0
O134 O 0.14147 0.8861 0.88366 0.0
O135 O 0.11282 0.85271 0.86952 0.0
O136 O 0.08111 0.90867 0.89616 0.0
O137 O 0.11167 0.94236 0.90649 0.0
C138 C 0.14994 0.9296 0.83972 0.0
C139 C 0.08915 0.92851 0.91113 0.0
C140 C 0.5856 0.15409 0.84301 0.0
C141 C 0.58512 0.09356 0.91464 0.0
O142 O 0.56947 0.15458 0.86197 0.0
Zn143 Zn 0.58831 0.12487 0.87887 0.0
O144 O 0.60636 0.13617 0.84182 0.0
Zn145 Zn 0.62302 0.10207 0.86558 0.0
O146 O 0.61934 0.07022 0.84301 0.0
O147 O 0.5781 0.08918 0.85394 0.0
O148 O 0.60479 0.08501 0.89973 0.0
O149 O 0.57177 0.11636 0.90991 0.0
O150 O 0.62863 0.14495 0.88694 0.0
O151 O 0.66144 0.11549 0.87307 0.0
C152 C 0.59227 0.07066 0.84128 0.0
C153 C 0.65502 0.13902 0.88339 0.0
C154 C 0.35388 0.58937 0.84183 0.0
C155 C 0.41409 0.58925 0.91372 0.0
O156 O 0.35341 0.57312 0.86072 0.0
Zn157 Zn 0.38284 0.5922 0.87787 0.0
O158 O 0.37161 0.61032 0.84082 0.0
Zn159 Zn 0.40534 0.62727 0.86476 0.0
O160 O 0.43734 0.62396 0.84232 0.0
O161 O 0.41875 0.58248 0.85313 0.0
O162 O 0.4224 0.60912 0.89891 0.0
O163 O 0.39147 0.57563 0.90888 0.0
O164 O 0.36234 0.6323 0.88598 0.0
O165 O 0.39145 0.66554 0.87231 0.0
C166 C 0.4372 0.59686 0.84059 0.0
C167 C 0.36798 0.65879 0.88253 0.0
C168 C 0.91401 0.08907 0.57318 0.0
C169 C 0.91645 0.15374 0.64222 0.0
O170 O 0.92794 0.11183 0.57668 0.0
Zn171 Zn 0.91242 0.12258 0.60764 0.0
O172 O 0.89454 0.08186 0.5888 0.0
Zn173 Zn 0.87768 0.10108 0.62257 0.0
O174 O 0.83928 0.11482 0.61537 0.0
O175 O 0.8722 0.14291 0.59965 0.0
O176 O 0.89553 0.13614 0.64451 0.0
O177 O 0.93214 0.15299 0.62298 0.0
O178 O 0.92274 0.08816 0.63378 0.0
O179 O 0.88157 0.0704 0.64635 0.0
C180 C 0.84582 0.13768 0.60403 0.0
C181 C 0.90869 0.07052 0.64745 0.0
C182 C 0.4378 0.91998 0.64982 0.0
C183 C 0.36821 0.85882 0.60745 0.0
O184 O 0.43754 0.89289 0.64813 0.0
Zn185 Zn 0.40571 0.89 0.6255 0.0
O186 O 0.41971 0.93461 0.63709 0.0
Zn187 Zn 0.3839 0.92521 0.61204 0.0
O188 O 0.35459 0.94483 0.6287 0.0
O189 O 0.372 0.90769 0.64916 0.0
O190 O 0.36294 0.88536 0.60386 0.0
O191 O 0.39144 0.85186 0.61799 0.0
O192 O 0.42341 0.90772 0.59136 0.0
O193 O 0.39297 0.94151 0.58106 0.0
C194 C 0.35462 0.9289 0.64779 0.0
C195 C 0.41544 0.92759 0.57641 0.0
C196 C 0.58019 0.35822 0.64841 0.0
C197 C 0.57816 0.41919 0.57694 0.0
O198 O 0.56318 0.35811 0.63004 0.0
Zn199 Zn 0.58182 0.38763 0.61255 0.0
O200 O 0.60123 0.37585 0.64897 0.0
Zn201 Zn 0.61757 0.40972 0.62496 0.0
O202 O 0.61512 0.44163 0.64768 0.0
O203 O 0.57323 0.42343 0.63766 0.0
O204 O 0.59864 0.42707 0.59129 0.0
O205 O 0.56431 0.39677 0.58202 0.0
O206 O 0.62146 0.36688 0.60329 0.0
O207 O 0.65543 0.39548 0.61644 0.0
C208 C 0.5881 0.44171 0.64997 0.0
C209 C 0.6481 0.37217 0.60618 0.0
C210 C 0.15252 0.58849 0.64552 0.0
C211 C 0.09056 0.58742 0.57473 0.0
O212 O 0.15274 0.57216 0.62667 0.0
Zn213 Zn 0.12271 0.59087 0.60998 0.0
O214 O 0.13458 0.60923 0.64678 0.0
Zn215 Zn 0.10013 0.62574 0.62341 0.0
O216 O 0.06868 0.62215 0.64642 0.0
O217 O 0.0875 0.58085 0.63537 0.0
O218 O 0.08245 0.60729 0.58963 0.0
O219 O 0.11345 0.57407 0.57918 0.0
O220 O 0.14263 0.63116 0.60147 0.0
O221 O 0.11344 0.66412 0.61554 0.0
C222 C 0.06917 0.59506 0.64819 0.0
C223 C 0.13678 0.6576 0.60497 0.0
H224 H 0.2115 0.63837 0.12951 0.0
H225 H 0.24437 0.67851 0.12481 0.0
H226 H 0.19405 0.7104 0.06356 0.0
H227 H 0.16008 0.67119 0.06931 0.0
H228 H 0.2785 0.69852 0.09228 0.0
H229 H 0.19395 0.77982 0.10497 0.0
H230 H 0.18723 0.74224 0.109 0.0
H231 H 0.18752 0.75778 0.0783 0.0
C232 C 0.20761 0.65374 0.11483 0.0
C233 C 0.18305 0.65172 0.0999 0.0
C234 C 0.22641 0.67681 0.1122 0.0
C235 C 0.22135 0.69817 0.09432 0.0
C236 C 0.19791 0.69498 0.07817 0.0
H237 H 0.35685 0.82605 0.06896 0.0
H238 H 0.32356 0.7862 0.06343 0.0
C239 C 0.17869 0.6723 0.08123 0.0
C240 C 0.24022 0.72394 0.09317 0.0
H241 H 0.2397 0.79701 0.0939 0.0
C242 C 0.26997 0.72005 0.09268 0.0
C243 C 0.22928 0.75219 0.09412 0.0
C244 C 0.19778 0.7583 0.0969 0.0
C245 C 0.28896 0.74333 0.09343 0.0
C246 C 0.278 0.7716 0.09343 0.0
C247 C 0.24825 0.77548 0.0936 0.0
C248 C 0.29685 0.79737 0.09488 0.0
C249 C 0.32052 0.73716 0.09539 0.0
C250 C 0.29196 0.81825 0.11323 0.0
C251 C 0.31034 0.84166 0.11577 0.0
C252 C 0.33434 0.84453 0.10028 0.0
C253 C 0.33869 0.82427 0.08133 0.0
C254 C 0.31984 0.80124 0.07838 0.0
H255 H 0.32457 0.7154 0.10286 0.0
H256 H 0.33025 0.73825 0.0766 0.0
H257 H 0.33141 0.75285 0.10764 0.0
H258 H 0.27436 0.81603 0.12616 0.0
H259 H 0.30647 0.85678 0.13066 0.0
H260 H 0.81335 0.14521 0.08401 0.0
H261 H 0.77373 0.17879 0.07937 0.0
H262 H 0.82433 0.24509 0.11334 0.0
H263 H 0.8641 0.2116 0.11819 0.0
H264 H 0.7701 0.23829 0.13482 0.0
H265 H 0.76216 0.24701 0.03204 0.0
H266 H 0.76256 0.21106 0.04375 0.0
H267 H 0.79352 0.23329 0.04752 0.0
C268 C 0.81628 0.16705 0.09015 0.0
C269 C 0.84201 0.17566 0.10146 0.0
C270 C 0.79358 0.18628 0.08738 0.0
C271 C 0.79609 0.21456 0.0958 0.0
C272 C 0.82193 0.22341 0.1066 0.0
H273 H 0.68264 0.35981 0.07994 0.0
H274 H 0.72122 0.32486 0.07637 0.0
C275 C 0.8447 0.20423 0.10929 0.0
C276 C 0.77118 0.23432 0.09494 0.0
H277 H 0.72437 0.26755 0.05555 0.0
C278 C 0.76014 0.24471 0.11748 0.0
C279 C 0.75826 0.24283 0.0723 0.0
C280 C 0.76982 0.23322 0.04748 0.0
C281 C 0.73643 0.2631 0.11804 0.0
C282 C 0.72311 0.27113 0.09546 0.0
C283 C 0.73435 0.26107 0.07286 0.0
C284 C 0.69831 0.291 0.09506 0.0
C285 C 0.7261 0.27426 0.14281 0.0
C286 C 0.67216 0.28328 0.10596 0.0
C287 C 0.64992 0.3032 0.10793 0.0
C288 C 0.65344 0.33129 0.09909 0.0
C289 C 0.67916 0.33843 0.08702 0.0
C290 C 0.7013 0.31847 0.08496 0.0
H291 H 0.74204 0.2708 0.15782 0.0
H292 H 0.72127 0.29744 0.14165 0.0
H293 H 0.70617 0.26296 0.14807 0.0
H294 H 0.66926 0.26207 0.11359 0.0
H295 H 0.63046 0.29693 0.11734 0.0
H296 H 0.14925 0.82664 0.40715 0.0
H297 H 0.18511 0.78892 0.41099 0.0
H298 H 0.2469 0.84251 0.37424 0.0
H299 H 0.21116 0.88049 0.37038 0.0
H300 H 0.23905 0.78641 0.35285 0.0
H301 H 0.25841 0.78172 0.45476 0.0
H302 H 0.22154 0.78208 0.44543 0.0
H303 H 0.24351 0.81278 0.4396 0.0
C304 C 0.17063 0.83068 0.40032 0.0
C305 C 0.17729 0.85668 0.38847 0.0
C306 C 0.19114 0.80908 0.4026 0.0
C307 C 0.21875 0.81292 0.39303 0.0
C308 C 0.22576 0.83913 0.38187 0.0
H309 H 0.36633 0.70012 0.40158 0.0
H310 H 0.33241 0.7396 0.40573 0.0
C311 C 0.20532 0.86088 0.37978 0.0
C312 C 0.23946 0.7888 0.39283 0.0
H313 H 0.27779 0.74402 0.43043 0.0
C314 C 0.2476 0.77721 0.3698 0.0
C315 C 0.25069 0.77688 0.41496 0.0
C316 C 0.24334 0.78907 0.44013 0.0
C317 C 0.2663 0.75378 0.3683 0.0
C318 C 0.27702 0.74139 0.39045 0.0
C319 C 0.26932 0.75331 0.41348 0.0
C320 C 0.29681 0.7165 0.38986 0.0
C321 C 0.27473 0.74267 0.34299 0.0
C322 C 0.28789 0.69007 0.38023 0.0
C323 C 0.30722 0.66737 0.37789 0.0
C324 C 0.33591 0.67063 0.38516 0.0
C325 C 0.34445 0.69681 0.39573 0.0
C326 C 0.32507 0.71945 0.39813 0.0
H327 H 0.26983 0.75827 0.328 0.0
H328 H 0.29787 0.73759 0.34238 0.0
H329 H 0.26272 0.72274 0.33905 0.0
H330 H 0.26606 0.68716 0.37408 0.0
H331 H 0.29984 0.64754 0.36974 0.0
H332 H 0.83533 0.34778 0.41974 0.0
H333 H 0.79691 0.31303 0.42577 0.0
H334 H 0.83087 0.26199 0.36578 0.0
H335 H 0.87024 0.29568 0.36091 0.0
H336 H 0.756 0.30045 0.39788 0.0
H337 H 0.81399 0.19935 0.41166 0.0
H338 H 0.832 0.23337 0.41208 0.0
H339 H 0.82501 0.21536 0.38299 0.0
C340 C 0.83501 0.3287 0.40834 0.0
C341 C 0.85602 0.32429 0.39006 0.0
C342 C 0.81292 0.30889 0.41168 0.0
C343 C 0.81096 0.28446 0.3965 0.0
C344 C 0.83221 0.27995 0.37841 0.0
H345 H 0.65212 0.2013 0.35737 0.0
H346 H 0.69216 0.23391 0.3632 0.0
C347 C 0.85473 0.29938 0.37551 0.0
C348 C 0.78555 0.26513 0.39818 0.0
H349 H 0.76521 0.195 0.39766 0.0
C350 C 0.75813 0.27738 0.39822 0.0
C351 C 0.78793 0.23495 0.39916 0.0
C352 C 0.81635 0.22006 0.40177 0.0
C353 C 0.73328 0.2605 0.39839 0.0
C354 C 0.7357 0.23034 0.39724 0.0
C355 C 0.7631 0.21806 0.39809 0.0
C356 C 0.71032 0.21114 0.39454 0.0
C357 C 0.70478 0.27539 0.40024 0.0
C358 C 0.70731 0.18676 0.40964 0.0
C359 C 0.68479 0.16753 0.40579 0.0
C360 C 0.66446 0.17246 0.38702 0.0
C361 C 0.66705 0.19717 0.37234 0.0
C362 C 0.68995 0.216 0.37578 0.0
H363 H 0.70675 0.29601 0.41035 0.0
H364 H 0.69687 0.28026 0.38125 0.0
H365 H 0.68872 0.262 0.40998 0.0
H366 H 0.72267 0.18233 0.4242 0.0
H367 H 0.68348 0.1486 0.41733 0.0
H368 H 0.80088 0.37047 0.87096 0.0
H369 H 0.76608 0.33181 0.8758 0.0
H370 H 0.83098 0.27841 0.90846 0.0
H371 H 0.86588 0.31688 0.90378 0.0
H372 H 0.77124 0.27746 0.85345 0.0
H373 H 0.76265 0.26834 0.95617 0.0
H374 H 0.77702 0.29962 0.94098 0.0
H375 H 0.79852 0.26808 0.94431 0.0
C376 C 0.80766 0.3507 0.87961 0.0
C377 C 0.83623 0.34687 0.88701 0.0
C378 C 0.78774 0.32857 0.88228 0.0
C379 C 0.79582 0.30225 0.89267 0.0
C380 C 0.82409 0.29864 0.90076 0.0
H381 H 0.7118 0.13787 0.8707 0.0
H382 H 0.74649 0.17683 0.87428 0.0
C383 C 0.84407 0.32069 0.89798 0.0
C384 C 0.77531 0.27793 0.89334 0.0
H385 H 0.74113 0.23133 0.93231 0.0
C386 C 0.7646 0.26744 0.8707 0.0
C387 C 0.76653 0.26492 0.91586 0.0
C388 C 0.77653 0.2759 0.94076 0.0
C389 C 0.74572 0.2441 0.86994 0.0
C390 C 0.73745 0.23067 0.8924 0.0
C391 C 0.74775 0.24142 0.91509 0.0
C392 C 0.71742 0.20598 0.89254 0.0
C393 C 0.73443 0.23421 0.84509 0.0
C394 C 0.68987 0.20903 0.90242 0.0
C395 C 0.66997 0.1868 0.90041 0.0
C396 C 0.67728 0.16092 0.88865 0.0
C397 C 0.70538 0.15745 0.87986 0.0
C398 C 0.72522 0.17978 0.88176 0.0
H399 H 0.7382 0.25023 0.8302 0.0
H400 H 0.74535 0.2141 0.8397 0.0
H401 H 0.71117 0.22977 0.8462 0.0
H402 H 0.68342 0.22901 0.9109 0.0
H403 H 0.64857 0.19024 0.90743 0.0
H404 H 0.31663 0.65156 0.90612 0.0
H405 H 0.27747 0.68594 0.90947 0.0
H406 H 0.32928 0.74997 0.87371 0.0
H407 H 0.36864 0.71574 0.87023 0.0
H408 H 0.27392 0.74301 0.93124 0.0
H409 H 0.25684 0.7417 0.82888 0.0
H410 H 0.27755 0.71476 0.84476 0.0
H411 H 0.29267 0.74936 0.83886 0.0
C412 C 0.31991 0.67307 0.89926 0.0
C413 C 0.34581 0.68079 0.88776 0.0
C414 C 0.29745 0.6927 0.9012 0.0
C415 C 0.30028 0.72039 0.89151 0.0
C416 C 0.32649 0.72859 0.88102 0.0
H417 H 0.18733 0.86723 0.90371 0.0
H418 H 0.22612 0.83269 0.90834 0.0
C419 C 0.34905 0.70902 0.87919 0.0
C420 C 0.27538 0.74014 0.89129 0.0
H421 H 0.22894 0.77414 0.85217 0.0
C422 C 0.26407 0.74986 0.91398 0.0
C423 C 0.26226 0.74868 0.86876 0.0
C424 C 0.27271 0.73797 0.84389 0.0
C425 C 0.24034 0.76833 0.91468 0.0
C426 C 0.22767 0.77741 0.89211 0.0
C427 C 0.23871 0.76728 0.86947 0.0
C428 C 0.20313 0.79765 0.8914 0.0
C429 C 0.22876 0.77765 0.93957 0.0
C430 C 0.17719 0.78951 0.88035 0.0
C431 C 0.15488 0.80924 0.87768 0.0
C432 C 0.15816 0.83765 0.88577 0.0
C433 C 0.18395 0.84552 0.89738 0.0
C434 C 0.20618 0.82575 0.90014 0.0
H435 H 0.23608 0.76344 0.95485 0.0
H436 H 0.23636 0.79961 0.94366 0.0
H437 H 0.20506 0.77797 0.93941 0.0
H438 H 0.17438 0.76798 0.87336 0.0
H439 H 0.13543 0.80243 0.86854 0.0
H440 H 0.63946 0.32102 0.58257 0.0
H441 H 0.67311 0.28134 0.57836 0.0
H442 H 0.73891 0.33213 0.61279 0.0
H443 H 0.70539 0.372 0.61716 0.0
H444 H 0.72899 0.27666 0.55532 0.0
H445 H 0.73141 0.25992 0.65768 0.0
H446 H 0.70435 0.2812 0.64257 0.0
H447 H 0.73945 0.29559 0.64747 0.0
C448 C 0.6612 0.32397 0.58895 0.0
C449 C 0.66962 0.34973 0.60035 0.0
C450 C 0.68042 0.30121 0.58652 0.0
C451 C 0.7084 0.30359 0.59561 0.0
C452 C 0.71729 0.32967 0.60597 0.0
H453 H 0.85283 0.18833 0.57922 0.0
H454 H 0.81859 0.22746 0.57532 0.0
C455 C 0.69812 0.35252 0.6083 0.0
C456 C 0.72777 0.27836 0.59532 0.0
H457 H 0.76258 0.23152 0.63354 0.0
C458 C 0.73637 0.26678 0.5724 0.0
C459 C 0.737 0.26518 0.61762 0.0
C460 C 0.72745 0.27587 0.64277 0.0
C461 C 0.75439 0.24272 0.57121 0.0
C462 C 0.76419 0.22999 0.59353 0.0
C463 C 0.75517 0.24131 0.61642 0.0
C464 C 0.7841 0.20515 0.59372 0.0
C465 C 0.76247 0.23087 0.54608 0.0
C466 C 0.77619 0.17944 0.60531 0.0
C467 C 0.79576 0.15693 0.60757 0.0
C468 C 0.82381 0.15976 0.59852 0.0
C469 C 0.8314 0.18528 0.5863 0.0
C470 C 0.81178 0.20771 0.58396 0.0
H471 H 0.74764 0.23822 0.53127 0.0
H472 H 0.78427 0.23827 0.54119 0.0
H473 H 0.7626 0.20715 0.54634 0.0
H474 H 0.75499 0.177 0.61308 0.0
H475 H 0.78918 0.13771 0.61721 0.0
H476 H 0.13542 0.71466 0.61674 0.0
H477 H 0.17419 0.74945 0.61262 0.0
H478 H 0.2268 0.68557 0.57751 0.0
H479 H 0.1882 0.65071 0.58143 0.0
H480 H 0.22831 0.74314 0.63449 0.0
H481 H 0.23749 0.75564 0.5321 0.0
H482 H 0.20622 0.7407 0.54686 0.0
H483 H 0.23769 0.71927 0.5428 0.0
C484 C 0.15501 0.70813 0.60768 0.0
C485 C 0.15861 0.67983 0.59939 0.0
C486 C 0.17722 0.72804 0.60543 0.0
C487 C 0.20337 0.72023 0.59459 0.0
C488 C 0.20669 0.69228 0.58556 0.0
H489 H 0.36835 0.80178 0.61939 0.0
H490 H 0.32898 0.7677 0.61496 0.0
C491 C 0.18457 0.67231 0.58791 0.0
C492 C 0.22784 0.74056 0.59451 0.0
H493 H 0.27486 0.77566 0.55656 0.0
C494 C 0.23841 0.75031 0.61744 0.0
C495 C 0.24097 0.75004 0.57226 0.0
C496 C 0.22992 0.74112 0.54707 0.0
C497 C 0.26193 0.76892 0.61876 0.0
C498 C 0.2755 0.77785 0.59656 0.0
C499 C 0.26466 0.76852 0.57358 0.0
C500 C 0.30042 0.79758 0.59699 0.0
C501 C 0.27186 0.7792 0.64393 0.0
C502 C 0.29786 0.82541 0.58754 0.0
C503 C 0.32034 0.84495 0.59003 0.0
C504 C 0.34598 0.83701 0.60184 0.0
C505 C 0.34895 0.80867 0.61021 0.0
C506 C 0.32639 0.78919 0.60783 0.0
H507 H 0.25565 0.77527 0.65863 0.0
H508 H 0.29166 0.76767 0.64916 0.0
H509 H 0.27678 0.80241 0.64344 0.0
H510 H 0.27808 0.83232 0.57902 0.0
H511 H 0.31727 0.86655 0.58331 0.0
H512 H 0.98166 0.38937 0.30843 0.0
H513 H 0.00953 0.41469 0.27682 0.0
H514 H 0.97291 0.49462 0.30062 0.0
H515 H 0.94506 0.46957 0.33233 0.0
H516 H 0.98755 0.44847 0.2375 0.0
H517 H 0.05932 0.51139 0.2988 0.0
H518 H 0.0395 0.48078 0.30976 0.0
H519 H 0.022 0.51466 0.30597 0.0
C520 C 0.97978 0.41238 0.30719 0.0
C521 C 0.96114 0.42741 0.32303 0.0
C522 C 0.99567 0.42681 0.28903 0.0
C523 C 0.99352 0.45658 0.28647 0.0
C524 C 0.97528 0.4717 0.30248 0.0
H525 H 0.03848 0.56351 0.15995 0.0
H526 H 0.01382 0.53567 0.19196 0.0
C527 C 0.95928 0.4573 0.32058 0.0
C528 C 0.0094 0.47166 0.2664 0.0
H529 H 0.0595 0.52335 0.25583 0.0
C530 C 1.00337 0.46477 0.2415 0.0
C531 C 0.0302 0.49274 0.27162 0.0
C532 C 0.0384 0.50023 0.29797 0.0
C533 C 0.01718 0.47876 0.22171 0.0
C534 C 0.0374 0.50041 0.22693 0.0
C535 C 0.04383 0.50691 0.25183 0.0
C536 C 0.05223 0.51651 0.20684 0.0
C537 C 0.01026 0.47003 0.19536 0.0
C538 C 0.08206 0.51523 0.20465 0.0
C539 C 0.09624 0.53111 0.18636 0.0
C540 C 0.08091 0.54887 0.16998 0.0
C541 C 0.05098 0.54997 0.17213 0.0
C542 C 0.03681 0.53397 0.19039 0.0
H543 H 0.99981 0.44874 0.19462 0.0
H544 H 0.99541 0.48589 0.18712 0.0
H545 H 0.02985 0.46945 0.18374 0.0
H546 H 0.09441 0.50198 0.2172 0.0
H547 H 0.11929 0.52981 0.18535 0.0
H548 H 0.94446 0.03767 0.15575 0.0
H549 H 0.97269 0.01458 0.18835 0.0
H550 H 1.00162 0.09693 0.2139 0.0
H551 H 0.97331 0.12029 0.18145 0.0
H552 H 0.03185 0.01668 0.19965 0.0
H553 H 0.96558 0.06046 0.27647 0.0
H554 H 0.95418 0.0611 0.24438 0.0
H555 H 0.97991 0.0866 0.2554 0.0
C556 C 0.95702 0.05092 0.16813 0.0
C557 C 0.95644 0.0809 0.16601 0.0
C558 C 0.97314 0.03766 0.18679 0.0
C559 C 0.98888 0.05403 0.20385 0.0
C560 C 0.98922 0.08388 0.20124 0.0
H561 H 0.11415 0.98571 0.30947 0.0
H562 H 0.09014 0.01346 0.277 0.0
C563 C 0.97317 0.09719 0.18254 0.0
C564 C 1.0044 0.03984 0.22462 0.0
H565 H 0.00624 0.03364 0.28802 0.0
C566 C 0.02634 0.02046 0.21898 0.0
C567 C 0.99693 0.04449 0.24983 0.0
C568 C 0.97271 0.06409 0.257 0.0
C569 C 0.04112 0.00577 0.23785 0.0
C570 C 0.03397 0.0108 0.26307 0.0
C571 C 0.01191 0.03003 0.26871 0.0
C572 C 0.04837 0.99538 0.2838 0.0
C573 C 0.06378 0.98443 0.2306 0.0
C574 C 0.03271 0.97673 0.29903 0.0
C575 C 0.04634 0.9609 0.31768 0.0
C576 C 0.07593 0.96354 0.32164 0.0
C577 C 0.09137 0.98306 0.30693 0.0
C578 C 0.07772 0.99881 0.28822 0.0
H579 H 0.06235 0.97846 0.21063 0.0
H580 H 0.08516 0.99389 0.23393 0.0
H581 H 0.06202 0.96473 0.24202 0.0
H582 H 0.01002 0.97385 0.29606 0.0
H583 H 0.03373 0.94614 0.32864 0.0
H584 H 0.55655 0.03326 0.33779 0.0
H585 H 0.52875 0.00846 0.30582 0.0
H586 H 0.52461 0.08615 0.26278 0.0
H587 H 0.55103 0.11132 0.29526 0.0
H588 H 0.4761 0.06101 0.25985 0.0
H589 H 0.55826 0.97876 0.24189 0.0
H590 H 0.54641 0.97794 0.27358 0.0
H591 H 0.56481 0.00898 0.26186 0.0
C592 C 0.54953 0.04508 0.32158 0.0
C593 C 0.5561 0.07425 0.31905 0.0
C594 C 0.53389 0.03079 0.30314 0.0
C595 C 0.52521 0.04512 0.2814 0.0
C596 C 0.53114 0.07446 0.27922 0.0
H597 H 0.47413 0.95292 0.14683 0.0
H598 H 0.49942 0.98154 0.17799 0.0
C599 C 0.54625 0.08888 0.29787 0.0
C600 C 0.50985 0.02978 0.26098 0.0
H601 H 0.51272 0.9709 0.22338 0.0
C602 C 0.48425 0.04139 0.2518 0.0
C603 C 0.52064 1.00447 0.24994 0.0
C604 C 0.54919 0.99199 0.25713 0.0
C605 C 0.46903 0.02832 0.2323 0.0
C606 C 0.47898 1.00214 0.22224 0.0
C607 C 0.50479 0.99075 0.23117 0.0
C608 C 0.46305 0.98612 0.20257 0.0
C609 C 0.44289 0.04326 0.2223 0.0
C610 C 0.43411 0.97905 0.20579 0.0
C611 C 0.41947 0.96327 0.18771 0.0
C612 C 0.43359 0.95343 0.16626 0.0
C613 C 0.46259 0.96026 0.16309 0.0
C614 C 0.4771 0.97656 0.18097 0.0
H615 H 0.44401 0.06668 0.22553 0.0
H616 H 0.44019 0.03946 0.20204 0.0
H617 H 0.42371 0.03517 0.23214 0.0
H618 H 0.42292 0.98519 0.22258 0.0
H619 H 0.39727 0.95796 0.19097 0.0
H620 H 0.56522 0.47494 0.16003 0.0
H621 H 0.53794 0.4993 0.19253 0.0
H622 H 0.50057 0.41906 0.21461 0.0
H623 H 0.52795 0.39442 0.18227 0.0
H624 H 0.47873 0.50242 0.20124 0.0
H625 H 0.53537 0.44994 0.2797 0.0
H626 H 0.54863 0.44907 0.24817 0.0
H627 H 0.51992 0.42591 0.25735 0.0
C628 C 0.5511 0.46243 0.17169 0.0
C629 C 0.54894 0.43265 0.16857 0.0
C630 C 0.5355 0.47643 0.19028 0.0
C631 C 0.51757 0.46096 0.2063 0.0
C632 C 0.51469 0.43137 0.20279 0.0
H633 H 0.39208 0.53771 0.30712 0.0
H634 H 0.4157 0.50872 0.27527 0.0
C635 C 0.53023 0.41734 0.18415 0.0
C636 C 0.50213 0.47586 0.22675 0.0
H637 H 0.49649 0.47992 0.29012 0.0
C638 C 0.48253 0.49745 0.22067 0.0
C639 C 0.50739 0.46962 0.25213 0.0
C640 C 0.52914 0.44756 0.25985 0.0
C641 C 0.46794 0.51282 0.23922 0.0
C642 C 0.4728 0.50621 0.26459 0.0
C643 C 0.49254 0.48475 0.27068 0.0
C644 C 0.45844 0.52216 0.28504 0.0
C645 C 0.44797 0.53652 0.23154 0.0
C646 C 0.47465 0.53851 0.30178 0.0
C647 C 0.46124 0.55501 0.3201 0.0
C648 C 0.43128 0.55537 0.32221 0.0
C649 C 0.41516 0.53805 0.30603 0.0
C650 C 0.42862 0.5216 0.28766 0.0
H651 H 0.45152 0.54317 0.21193 0.0
H652 H 0.4256 0.52899 0.23326 0.0
H653 H 0.45063 0.55546 0.24376 0.0
H654 H 0.4977 0.53915 0.30021 0.0
H655 H 0.47436 0.56802 0.33223 0.0
H656 H 0.03143 0.61864 0.68146 0.0
H657 H 1.00408 0.59408 0.71386 0.0
H658 H 0.03753 0.51317 0.68904 0.0
H659 H 0.06478 0.53746 0.65648 0.0
H660 H 0.97849 0.51202 0.69949 0.0
H661 H 0.04031 0.56004 0.77717 0.0
H662 H 0.02498 0.58527 0.75581 0.0
H663 H 0.05234 0.56124 0.74528 0.0
C664 C 0.03282 0.59559 0.68273 0.0
C665 C 0.05047 0.58007 0.66639 0.0
C666 C 0.0173 0.5816 0.7014 0.0
C667 C 0.01913 0.55182 0.70418 0.0
C668 C 0.03591 0.53618 0.68736 0.0
H669 H 0.97663 0.44346 0.82951 0.0
H670 H 0.99984 0.47192 0.79714 0.0
C671 C 0.05148 0.55013 0.66873 0.0
C672 C 1.00394 0.53694 0.72478 0.0
H673 H 1.0007 0.53134 0.78819 0.0
C674 C 0.98326 0.51631 0.71888 0.0
C675 C 0.01047 0.54226 0.7501 0.0
C676 C 0.0334 0.56321 0.75759 0.0
C677 C 0.96881 0.50101 0.73757 0.0
C678 C 0.97494 0.50672 0.7629 0.0
C679 C 0.99578 0.5272 0.7688 0.0
C680 C 0.96075 0.49084 0.78348 0.0
C681 C 0.94761 0.47833 0.73004 0.0
C682 C 0.9311 0.49257 0.78705 0.0
C683 C 0.91772 0.47637 0.80563 0.0
C684 C 0.93375 0.45812 0.82107 0.0
C685 C 0.96358 0.45722 0.81797 0.0
C686 C 0.97692 0.47348 0.79944 0.0
H687 H 0.95011 0.47207 0.71022 0.0
H688 H 0.94996 0.45898 0.74181 0.0
H689 H 0.92564 0.4867 0.7326 0.0
H690 H 0.91823 0.50623 0.77527 0.0
H691 H 0.89474 0.47768 0.80749 0.0
H692 H 0.02802 0.89672 0.80576 0.0
H693 H 0.99955 0.92055 0.77371 0.0
H694 H 0.03351 1.00204 0.79651 0.0
H695 H 0.06186 0.97847 0.82877 0.0
H696 H 0.97452 1.0032 0.78741 0.0
H697 H 0.03318 0.953 0.70899 0.0
H698 H 0.01849 0.92819 0.73105 0.0
H699 H 0.04626 0.95231 0.74058 0.0
C700 C 0.02929 0.91974 0.80412 0.0
C701 C 0.0474 0.93562 0.81982 0.0
C702 C 0.01313 0.93332 0.78564 0.0
C703 C 0.01478 0.96304 0.78237 0.0
C704 C 0.03202 0.97906 0.79856 0.0
H705 H 0.9664 0.06613 0.65496 0.0
H706 H 0.99125 0.03939 0.68751 0.0
C707 C 0.04822 0.96552 0.81703 0.0
C708 C 0.99885 0.97744 0.76191 0.0
H709 H 0.99279 0.98095 0.69855 0.0
C710 C 0.97846 0.9983 0.76798 0.0
C711 C 1.00429 0.97134 0.73653 0.0
C712 C 0.02691 0.95019 0.72878 0.0
C713 C 0.9632 0.01299 0.74941 0.0
C714 C 0.96816 0.00641 0.72405 0.0
C715 C 0.98875 0.98576 0.71798 0.0
C716 C 0.95289 0.02144 0.70355 0.0
C717 C 0.94238 0.03595 0.7571 0.0
C718 C 0.92307 0.0197 0.70128 0.0
C719 C 0.90875 0.03494 0.68262 0.0
C720 C 0.92397 0.05219 0.66576 0.0
C721 C 0.95394 0.05313 0.66761 0.0
C722 C 0.96822 0.03785 0.68624 0.0
H723 H 0.94603 0.04309 0.77656 0.0
H724 H 0.94395 0.05477 0.7446 0.0
H725 H 0.92032 0.02742 0.75584 0.0
H726 H 0.91081 0.00673 0.7141 0.0
H727 H 0.88569 0.03362 0.68174 0.0
H728 H 0.5347 0.06621 0.83286 0.0
H729 H 0.51051 0.03837 0.80063 0.0
H730 H 0.59145 1.00472 0.77621 0.0
H731 H 0.6159 0.03266 0.8083 0.0
H732 H 0.55785 0.02606 0.7373 0.0
H733 H 0.49535 0.95215 0.79681 0.0
H734 H 0.49084 0.98923 0.80446 0.0
H735 H 0.52513 0.97264 0.80852 0.0
C736 C 0.54738 0.05261 0.82088 0.0
C737 C 0.5773 0.05166 0.82329 0.0
C738 C 0.53347 0.0366 0.80248 0.0
C739 C 0.54911 0.01921 0.78612 0.0
C740 C 0.57891 0.01791 0.78866 0.0
H741 H 0.4752 0.8954 0.68276 0.0
H742 H 0.50374 0.91917 0.71483 0.0
C743 C 0.59286 0.03384 0.80711 0.0
C744 C 0.53452 1.00345 0.76565 0.0
H745 H 0.48332 0.95321 0.75379 0.0
C746 C 0.54166 0.01002 0.74091 0.0
C747 C 0.51359 0.98231 0.77032 0.0
C748 C 0.5059 0.97341 0.79645 0.0
C749 C 0.52801 0.99651 0.72076 0.0
C750 C 0.5064 0.97607 0.72544 0.0
C751 C 0.49972 0.96903 0.75018 0.0
C752 C 0.49028 0.96188 0.70497 0.0
C753 C 0.53703 1.00405 0.69463 0.0
C754 C 0.47325 0.97796 0.68864 0.0
C755 C 0.45691 0.96444 0.67025 0.0
C756 C 0.45714 0.93449 0.66782 0.0
C757 C 0.47458 0.91849 0.68397 0.0
C758 C 0.49085 0.93203 0.7024 0.0
H759 H 0.55852 0.01409 0.69426 0.0
H760 H 0.53731 0.98482 0.68253 0.0
H761 H 0.52157 0.01952 0.68668 0.0
H762 H 0.47205 1.00097 0.69051 0.0
H763 H 0.44361 0.97746 0.65829 0.0
H764 H 0.53083 0.44773 0.65889 0.0
H765 H 0.50776 0.47655 0.69106 0.0
H766 H 0.58984 0.50815 0.71468 0.0
H767 H 0.61319 0.4792 0.68263 0.0
H768 H 0.55587 0.48835 0.75401 0.0
H769 H 0.49514 0.56317 0.69403 0.0
H770 H 0.48947 0.52617 0.6867 0.0
H771 H 0.52424 0.54168 0.6824 0.0
C772 C 0.54401 0.46106 0.6707 0.0
C773 C 0.57392 0.46117 0.66806 0.0
C774 C 0.53074 0.47764 0.68905 0.0
C775 C 0.54701 0.49478 0.70515 0.0
C776 C 0.57682 0.49518 0.70242 0.0
H777 H 0.47514 0.62084 0.80776 0.0
H778 H 0.5036 0.59655 0.77593 0.0
C779 C 0.59014 0.47868 0.684 0.0
C780 C 0.53301 0.5112 0.72552 0.0
H781 H 0.48294 0.56265 0.73706 0.0
C782 C 0.54006 0.50472 0.7503 0.0
C783 C 0.51258 0.53278 0.72071 0.0
C784 C 0.50505 0.54162 0.69453 0.0
C785 C 0.52672 0.5187 0.77036 0.0
C786 C 0.50553 0.53954 0.76555 0.0
C787 C 0.49902 0.54653 0.74077 0.0
C788 C 0.48955 0.55405 0.78591 0.0
C789 C 0.53559 0.51119 0.79654 0.0
C790 C 0.47223 0.53827 0.80222 0.0
C791 C 0.45593 0.55209 0.82047 0.0
C792 C 0.45651 0.58205 0.82277 0.0
C793 C 0.47426 0.59776 0.80665 0.0
C794 C 0.49048 0.58391 0.78835 0.0
H795 H 0.55694 0.50087 0.79698 0.0
H796 H 0.5361 0.53047 0.80857 0.0
H797 H 0.51992 0.49595 0.80452 0.0
H798 H 0.47073 0.51528 0.80044 0.0
H799 H 0.4424 0.5393 0.83241 0.0
H800 H 0.06367 0.7015 0.1409 0.0
H801 H 0.06209 0.74109 0.17047 0.0
H802 H 0.11446 0.69302 0.22158 0.0
H803 H 0.11692 0.65368 0.19179 0.0
H804 H 0.04205 0.744 0.21711 0.0
H805 H 0.15787 0.76727 0.21635 0.0
H806 H 0.14125 0.74401 0.19383 0.0
H807 H 0.15076 0.73072 0.22417 0.0
C808 C 0.07483 0.69936 0.15845 0.0
C809 C 0.09063 0.67466 0.16402 0.0
C810 C 0.07393 0.72198 0.17526 0.0
C811 C 0.08868 0.72013 0.19788 0.0
C812 C 0.10365 0.69511 0.20385 0.0
H813 H 0.06321 0.80972 0.33356 0.0
H814 H 0.06133 0.77811 0.29753 0.0
C815 C 0.10486 0.67261 0.18693 0.0
C816 C 0.08803 0.74418 0.21549 0.0
H817 H 0.13101 0.78728 0.25012 0.0
C818 C 0.06146 0.75375 0.22413 0.0
C819 C 0.11337 0.75727 0.22407 0.0
C820 C 0.14239 0.74951 0.2139 0.0
C821 C 0.05961 0.77528 0.24212 0.0
C822 C 0.08505 0.78677 0.25212 0.0
C823 C 0.11155 0.77812 0.24262 0.0
C824 C 0.08485 0.80666 0.27333 0.0
C825 C 0.03046 0.78541 0.2502 0.0
C826 C 0.09944 0.83276 0.27182 0.0
C827 C 0.10113 0.85055 0.29255 0.0
C828 C 0.08807 0.84252 0.315 0.0
C829 C 0.07323 0.81652 0.31639 0.0
C830 C 0.07191 0.79858 0.29578 0.0
H831 H 0.0144 0.78221 0.23524 0.0
H832 H 0.02346 0.77282 0.26659 0.0
H833 H 0.03074 0.80837 0.2554 0.0
H834 H 0.10974 0.83921 0.25466 0.0
H835 H 0.11258 0.87058 0.29098 0.0
H836 H 0.825 0.03344 0.15389 0.0
H837 H 0.79348 0.0215 0.18861 0.0
H838 H 0.81012 0.10385 0.22167 0.0
H839 H 0.84219 0.11574 0.18741 0.0
H840 H 0.81099 0.05846 0.25564 0.0
H841 H 0.71409 0.05708 0.19541 0.0
H842 H 0.74255 0.03332 0.18683 0.0
H843 H 0.74776 0.07125 0.18481 0.0
C844 C 0.82195 0.049 0.16858 0.0
C845 C 0.83576 0.07567 0.16787 0.0
C846 C 0.80398 0.04211 0.18834 0.0
C847 C 0.79933 0.06195 0.2074 0.0
C848 C 0.81357 0.08829 0.20704 0.0
H849 H 0.66951 0.11099 0.30222 0.0
H850 H 0.70428 0.10049 0.26977 0.0
C851 C 0.83174 0.0951 0.18744 0.0
C852 C 0.77861 0.05619 0.22728 0.0
H853 H 0.70714 0.05229 0.23834 0.0
C854 C 0.78829 0.05663 0.25197 0.0
C855 C 0.74912 0.05383 0.22216 0.0
C856 C 0.7376 0.05402 0.19591 0.0
C857 C 0.769 0.0565 0.27184 0.0
C858 C 0.73947 0.05536 0.26666 0.0
C859 C 0.7299 0.05312 0.24204 0.0
C860 C 0.71811 0.06056 0.28612 0.0
C861 C 0.78022 0.05947 0.29805 0.0
C862 C 0.71445 0.04141 0.30587 0.0
C863 C 0.69475 0.04747 0.32459 0.0
C864 C 0.67836 0.07263 0.32358 0.0
C865 C 0.68184 0.09147 0.30351 0.0
C866 C 0.7016 0.08547 0.28494 0.0
H867 H 0.80345 0.06428 0.29846 0.0
H868 H 0.76869 0.07671 0.30806 0.0
H869 H 0.77662 0.03921 0.30829 0.0
H870 H 0.72682 0.02189 0.30681 0.0
H871 H 0.69232 0.03244 0.33977 0.0
H872 H 0.47845 0.6865 0.33191 0.0
H873 H 0.4904 0.71714 0.29657 0.0
H874 H 0.40753 0.70081 0.26451 0.0
H875 H 0.39566 0.6696 0.29937 0.0
H876 H 0.45221 0.6989 0.23007 0.0
H877 H 0.4559 0.79683 0.28909 0.0
H878 H 0.4795 0.76819 0.29759 0.0
H879 H 0.44158 0.76349 0.30034 0.0
C880 C 0.46279 0.68944 0.31731 0.0
C881 C 0.43598 0.67598 0.31847 0.0
C882 C 0.46968 0.70689 0.29718 0.0
C883 C 0.44969 0.71139 0.27822 0.0
C884 C 0.42321 0.69747 0.27905 0.0
H885 H 0.39815 0.83967 0.1836 0.0
H886 H 0.40987 0.8051 0.2159 0.0
C887 C 0.41641 0.6798 0.299 0.0
C888 C 0.45539 0.73172 0.25799 0.0
H889 H 0.45935 0.80305 0.24601 0.0
C890 C 0.45429 0.72166 0.23344 0.0
C891 C 0.45809 0.7613 0.26272 0.0
C892 C 0.45867 0.77326 0.28882 0.0
C893 C 0.45396 0.74065 0.21334 0.0
C894 C 0.4553 0.77028 0.21815 0.0
C895 C 0.45835 0.78022 0.2426 0.0
C896 C 0.4493 0.79137 0.19862 0.0
C897 C 0.45021 0.72906 0.18733 0.0
C898 C 0.46774 0.79498 0.17837 0.0
C899 C 0.46097 0.81457 0.15973 0.0
C900 C 0.43582 0.8309 0.16133 0.0
C901 C 0.41766 0.8274 0.18186 0.0
C902 C 0.42435 0.80776 0.20034 0.0
H903 H 0.44564 0.70577 0.18726 0.0
H904 H 0.43252 0.7403 0.17768 0.0
H905 H 0.47004 0.73275 0.17651 0.0
H906 H 0.48726 0.7827 0.177 0.0
H907 H 0.47548 0.81701 0.14418 0.0
H908 H 0.70152 0.44922 0.14579 0.0
H909 H 0.73903 0.44976 0.17735 0.0
H910 H 0.68744 0.39621 0.22479 0.0
H911 H 0.65015 0.39482 0.19302 0.0
H912 H 0.73915 0.46799 0.22504 0.0
H913 H 0.76143 0.35184 0.22064 0.0
H914 H 0.73965 0.3699 0.19786 0.0
H915 H 0.72468 0.35939 0.22732 0.0
C916 C 0.69815 0.43761 0.16297 0.0
C917 C 0.6731 0.42173 0.16692 0.0
C918 C 0.71956 0.43794 0.18093 0.0
C919 C 0.71614 0.42253 0.20306 0.0
C920 C 0.69071 0.40757 0.20747 0.0
H921 H 0.80722 0.44043 0.34033 0.0
H922 H 0.77421 0.44418 0.30534 0.0
C923 C 0.66942 0.40693 0.1894 0.0
C924 C 0.7392 0.42212 0.2216 0.0
H925 H 0.78152 0.37716 0.25499 0.0
C926 C 0.74864 0.44819 0.23148 0.0
C927 C 0.75188 0.39626 0.22944 0.0
C928 C 0.74412 0.3678 0.21807 0.0
C929 C 0.76992 0.44902 0.24973 0.0
C930 C 0.7813 0.42302 0.25869 0.0
C931 C 0.77248 0.39703 0.24823 0.0
C932 C 0.80183 0.42206 0.27939 0.0
C933 C 0.78012 0.47769 0.25902 0.0
C934 C 0.82787 0.40768 0.27648 0.0
C935 C 0.84644 0.40493 0.29656 0.0
C936 C 0.83928 0.41672 0.31975 0.0
C937 C 0.81333 0.43138 0.32256 0.0
C938 C 0.79459 0.43375 0.30256 0.0
H939 H 0.77649 0.49471 0.24497 0.0
H940 H 0.76795 0.48353 0.27599 0.0
H941 H 0.80318 0.47719 0.26377 0.0
H942 H 0.83369 0.39839 0.25872 0.0
H943 H 0.86641 0.39366 0.2939 0.0
H944 H 0.88351 0.16565 0.68261 0.0
H945 H 0.89285 0.20096 0.71499 0.0
H946 H 0.97206 0.22385 0.67921 0.0
H947 H 0.96268 0.18892 0.64636 0.0
H948 H 0.93951 0.20446 0.74729 0.0
H949 H 0.93001 0.30038 0.68653 0.0
H950 H 0.91806 0.26546 0.67682 0.0
H951 H 0.95546 0.27384 0.67694 0.0
C952 C 0.90291 0.1782 0.68159 0.0
C953 C 0.92227 0.1747 0.6619 0.0
C954 C 0.90822 0.19828 0.7001 0.0
C955 C 0.93296 0.21508 0.69922 0.0
C956 C 0.95262 0.21135 0.67987 0.0
H957 H 0.97225 0.32129 0.82902 0.0
H958 H 0.97859 0.28816 0.79429 0.0
C959 C 0.94724 0.19137 0.66122 0.0
C960 C 0.9378 0.23657 0.71867 0.0
H961 H 0.93894 0.30836 0.72903 0.0
C962 C 0.9397 0.2272 0.74337 0.0
C963 C 0.9379 0.2661 0.71325 0.0
C964 C 0.93505 0.27719 0.68699 0.0
C965 C 0.94057 0.2467 0.76306 0.0
C966 C 0.94016 0.27624 0.75767 0.0
C967 C 0.93937 0.28562 0.73292 0.0
C968 C 0.93769 0.29766 0.77753 0.0
C969 C 0.94042 0.23554 0.78943 0.0
C970 C 0.913 0.31448 0.77897 0.0
C971 C 0.9094 0.33356 0.79857 0.0
C972 C 0.93044 0.33596 0.81705 0.0
C973 C 0.95551 0.31959 0.81519 0.0
C974 C 0.95918 0.30067 0.79544 0.0
H975 H 0.93503 0.21244 0.79026 0.0
H976 H 0.96192 0.23844 0.79771 0.0
H977 H 0.92486 0.2475 0.80101 0.0
H978 H 0.89622 0.31236 0.76521 0.0
H979 H 0.88992 0.34597 0.7995 0.0
H980 H 0.31965 0.97505 0.65283 0.0
H981 H 0.28583 0.98445 0.68642 0.0
H982 H 0.31051 0.9057 0.72215 0.0
H983 H 0.34478 0.89633 0.68893 0.0
H984 H 0.2404 0.95114 0.6988 0.0
H985 H 0.31325 0.96277 0.77919 0.0
H986 H 0.32555 0.96451 0.74738 0.0
H987 H 0.31996 0.93048 0.76219 0.0
C988 C 0.31806 0.95984 0.66795 0.0
C989 C 0.33481 0.93493 0.6683 0.0
C990 C 0.29882 0.96532 0.68711 0.0
C991 C 0.29613 0.94601 0.70685 0.0
C992 C 0.31289 0.9212 0.70732 0.0
H993 H 0.15939 0.89712 0.79843 0.0
H994 H 0.19372 0.90628 0.76523 0.0
C995 C 0.33224 0.91576 0.68825 0.0
C996 C 0.27423 0.9505 0.72601 0.0
H997 H 0.26432 0.95085 0.78873 0.0
C998 C 0.24559 0.95161 0.71847 0.0
C999 C 0.2812 0.95167 0.75155 0.0
C1000 C 0.3117 0.95261 0.76055 0.0
C1001 C 0.22354 0.95203 0.73598 0.0
C1002 C 0.23049 0.95069 0.76152 0.0
C1003 C 0.25914 0.95145 0.76906 0.0
C1004 C 0.20854 0.94637 0.78066 0.0
C1005 C 0.19305 0.95335 0.72699 0.0
C1006 C 0.20607 0.96563 0.80047 0.0
C1007 C 0.18678 0.96028 0.81962 0.0
C1008 C 0.16977 0.93553 0.8192 0.0
C1009 C 0.17212 0.91642 0.79917 0.0
C1010 C 0.19152 0.92173 0.78011 0.0
H1011 H 0.19162 0.96359 0.70838 0.0
H1012 H 0.18453 0.93132 0.72527 0.0
H1013 H 0.17934 0.96537 0.7402 0.0
H1014 H 0.21926 0.98463 0.80122 0.0
H1015 H 0.18537 0.97544 0.8348 0.0
H1016 H 0.62016 0.16465 0.80332 0.0
H1017 H 0.61236 0.19941 0.77013 0.0
H1018 H 0.53153 0.22283 0.80275 0.0
H1019 H 0.53935 0.18855 0.83634 0.0
H1020 H 0.5676 0.20392 0.73584 0.0
H1021 H 0.57479 0.29879 0.79805 0.0
H1022 H 0.58572 0.26358 0.80782 0.0
H1023 H 0.54849 0.27259 0.8065 0.0
C1024 C 0.60071 0.17716 0.80341 0.0
C1025 C 0.5805 0.17415 0.82251 0.0
C1026 C 0.59627 0.1969 0.78445 0.0
C1027 C 0.57157 0.21379 0.78432 0.0
C1028 C 0.55095 0.21027 0.80291 0.0
H1029 H 0.5347 0.32287 0.65601 0.0
H1030 H 0.52868 0.28809 0.68954 0.0
C1031 C 0.55545 0.19068 0.82199 0.0
C1032 C 0.56794 0.23555 0.76492 0.0
H1033 H 0.56661 0.30749 0.75552 0.0
C1034 C 0.56713 0.22658 0.74005 0.0
C1035 C 0.56752 0.26499 0.77073 0.0
C1036 C 0.5694 0.27569 0.79719 0.0
C1037 C 0.56676 0.24643 0.72062 0.0
C1038 C 0.56663 0.27587 0.72643 0.0
C1039 C 0.56656 0.28482 0.75131 0.0
C1040 C 0.56918 0.29773 0.70699 0.0
C1041 C 0.56784 0.2358 0.69411 0.0
C1042 C 0.59355 0.31506 0.70632 0.0
C1043 C 0.59696 0.33505 0.68742 0.0
C1044 C 0.57603 0.33791 0.66889 0.0
C1045 C 0.55131 0.32091 0.66992 0.0
C1046 C 0.54785 0.30102 0.68896 0.0
H1047 H 0.57354 0.21279 0.69305 0.0
H1048 H 0.54657 0.23863 0.68536 0.0
H1049 H 0.5836 0.24819 0.68307 0.0
H1050 H 0.61018 0.31273 0.72019 0.0
H1051 H 0.6162 0.34789 0.68711 0.0
H1052 H 0.34356 0.62405 0.8022 0.0
H1053 H 0.30932 0.61619 0.76865 0.0
H1054 H 0.28592 0.53502 0.80073 0.0
H1055 H 0.3197 0.54291 0.83472 0.0
H1056 H 0.30563 0.57159 0.73416 0.0
H1057 H 0.20983 0.57784 0.79529 0.0
H1058 H 0.24479 0.5889 0.80557 0.0
H1059 H 0.23608 0.55159 0.80374 0.0
C1060 C 0.33117 0.60451 0.80211 0.0
C1061 C 0.33405 0.58422 0.82116 0.0
C1062 C 0.31172 0.60003 0.78293 0.0
C1063 C 0.295 0.57521 0.78252 0.0
C1064 C 0.29836 0.55452 0.80109 0.0
H1065 H 0.18754 0.54255 0.65209 0.0
H1066 H 0.2218 0.535 0.68578 0.0
C1067 C 0.31767 0.55906 0.8204 0.0
C1068 C 0.27356 0.57161 0.76284 0.0
H1069 H 0.20183 0.57105 0.75251 0.0
C1070 C 0.28292 0.57118 0.73807 0.0
C1071 C 0.24406 0.57123 0.76828 0.0
C1072 C 0.23295 0.57262 0.79463 0.0
C1073 C 0.2634 0.57143 0.71839 0.0
C1074 C 0.23389 0.57152 0.72383 0.0
C1075 C 0.22455 0.57087 0.74859 0.0
C1076 C 0.21241 0.57502 0.70418 0.0
C1077 C 0.27448 0.57303 0.69204 0.0
C1078 C 0.19539 0.59964 0.70395 0.0
C1079 C 0.17568 0.60391 0.68496 0.0
C1080 C 0.1728 0.58362 0.66589 0.0
C1081 C 0.18955 0.5587 0.66642 0.0
C1082 C 0.20913 0.55436 0.68556 0.0
H1083 H 0.29756 0.57843 0.69139 0.0
H1084 H 0.2715 0.55201 0.68285 0.0
H1085 H 0.2625 0.58925 0.68117 0.0
H1086 H 0.19771 0.61577 0.71828 0.0
H1087 H 0.16303 0.62328 0.68505 0.0
H1088 H 0.09535 0.52787 0.07289 0.0
H1089 H 0.06951 0.49677 0.04376 0.0
H1090 H 0.03304 0.57089 0.00825 0.0
H1091 H 0.05885 0.60187 0.03684 0.0
H1092 H 0.00965 0.49658 0.04155 0.0
H1093 H 0.05574 0.52153 0.94911 0.0
H1094 H 0.07381 0.53006 0.97786 0.0
H1095 H 0.04581 0.55282 0.96636 0.0
C1096 C 0.08255 0.53748 0.05834 0.0
C1097 C 0.07902 0.56725 0.05715 0.0
C1098 C 0.06768 0.51973 0.04186 0.0
C1099 C 0.04951 0.53158 0.02381 0.0
C1100 C 0.04729 0.56132 0.02176 0.0
H1101 H 0.92257 0.47084 0.91909 0.0
H1102 H 0.9492 0.50017 0.94902 0.0
C1103 C 0.06196 0.57899 0.03821 0.0
C1104 C 0.03042 0.51322 0.00885 0.0
H1105 H 0.01028 0.49835 0.94926 0.0
C1106 C 0.00996 0.49667 0.02137 0.0
C1107 C 0.03071 0.51374 0.98256 0.0
C1108 C 0.05287 0.53029 0.96817 0.0
C1109 C 0.98935 0.48102 0.00824 0.0
C1110 C 0.98947 0.48179 0.98196 0.0
C1111 C 0.01004 0.49817 0.96945 0.0
C1112 C 0.96976 0.46424 0.96693 0.0
C1113 C 0.96727 0.46425 0.02253 0.0
C1114 C 0.97198 0.43442 0.96765 0.0
C1115 C 0.95692 0.41773 0.95067 0.0
C1116 C 0.9394 0.4306 0.93262 0.0
C1117 C 0.93574 0.46037 0.93293 0.0
C1118 C 0.95105 0.47712 0.94987 0.0
H1119 H 0.96532 0.47187 0.04204 0.0
H1120 H 0.94604 0.46568 0.01342 0.0
H1121 H 0.97366 0.44143 0.02302 0.0
H1122 H 0.98659 0.42411 0.98044 0.0
H1123 H 0.96011 0.39481 0.95088 0.0
H1124 H 0.1061 0.95703 0.95244 0.0
H1125 H 0.07576 0.98347 0.98126 0.0
H1126 H 1.00085 0.95037 0.94452 0.0
H1127 H 0.03121 0.92343 0.91571 0.0
H1128 H 0.03928 0.02563 0.96366 0.0
H1129 H 0.98025 0.94421 0.01848 0.0
H1130 H 0.01248 0.93598 0.0015 0.0
H1131 H 0.97902 0.93904 0.98537 0.0
C1132 C 0.08315 0.95473 0.95094 0.0
C1133 C 0.07096 0.9383 0.93178 0.0
C1134 C 0.06587 0.96992 0.96736 0.0
C1135 C 0.03612 0.96894 0.96495 0.0
C1136 C 0.02379 0.9511 0.94687 0.0
H1137 H 0.89731 0.06019 0.03287 0.0
H1138 H 0.92798 0.03442 0.00386 0.0
C1139 C 0.04113 0.93568 0.93047 0.0
C1140 C 0.01837 0.9889 0.97957 0.0
H1141 H 0.96443 0.9922 0.02199 0.0
C1142 C 0.02298 0.01836 0.97652 0.0
C1143 C 0.99714 0.97928 -0.00379 0.0
C1144 C 0.99201 0.94791 0.00082 0.0
C1145 C 0.00659 0.03854 0.98947 0.0
C1146 C 0.98532 0.02892 0.00605 0.0
C1147 C 0.98074 0.99946 0.00913 0.0
C1148 C 0.96743 0.04885 0.02058 0.0
C1149 C 0.01175 0.06993 0.98494 0.0
C1150 C 0.97955 0.06649 0.03891 0.0
C1151 C 0.96202 0.08154 0.05542 0.0
C1152 C 0.93222 0.07872 0.05395 0.0
C1153 C 0.92024 0.06263 0.03449 0.0
C1154 C 0.9377 0.04782 0.01796 0.0
H1155 H 0.0238 0.07367 0.96743 0.0
H1156 H 0.99126 0.08181 0.98402 0.0
H1157 H 0.02445 0.07881 0.00056 0.0
H1158 H 1.00248 0.06725 0.04141 0.0
H1159 H 0.97177 0.09354 0.07042 0.0
H1160 H 0.41855 0.97544 0.07369 0.0
H1161 H 0.44525 0.00765 0.04621 0.0
H1162 H 0.4728 0.9356 0.00232 0.0
H1163 H 0.44654 0.90342 0.02972 0.0
H1164 H 0.51749 0.96866 0.02343 0.0
H1165 H 0.43817 0.03578 0.97325 0.0
H1166 H 0.43333 0.03271 0.00635 0.0
H1167 H 0.429 1.00177 0.98699 0.0
C1168 C 0.4294 0.96665 0.05762 0.0
C1169 C 0.43068 0.93698 0.05388 0.0
C1170 C 0.44471 0.98503 0.042 0.0
C1171 C 0.46107 0.9739 0.02236 0.0
C1172 C 0.4604 0.94453 0.01746 0.0
H1173 H 0.58798 0.03545 0.91893 0.0
H1174 H 0.56013 0.00595 0.94772 0.0
C1175 C 0.44531 0.92622 0.03307 0.0
C1176 C 0.48161 0.99207 0.0088 0.0
H1177 H 0.48681 0.04812 0.96865 0.0
C1178 C 0.51083 0.98603 0.0114 0.0
C1179 C 0.47277 0.01477 0.99336 0.0
C1180 C 0.44161 0.02164 0.98958 0.0
C1181 C 0.53157 1.0022 -0.00105 0.0
C1182 C 0.52274 0.02466 0.9832 0.0
C1183 C 0.4935 0.03087 0.9808 0.0
C1184 C 0.54327 0.04179 0.96857 0.0
C1185 C 0.56269 0.99539 0.00306 0.0
C1186 C 0.54351 0.07157 0.97114 0.0
C1187 C 0.55918 0.08836 0.95467 0.0
C1188 C 0.5749 0.07566 0.93533 0.0
C1189 C 0.57632 0.04575 0.93384 0.0
C1190 C 0.56039 0.0289 0.95026 0.0
H1191 H 0.56606 0.98338 0.02065 0.0
H1192 H 0.57049 0.9819 0.9875 0.0
H1193 H 0.57577 0.01517 0.0036 0.0
H1194 H 0.53053 0.08189 0.9852 0.0
H1195 H 0.55779 0.11139 0.95628 0.0
H1196 H 0.4719 0.59524 0.91923 0.0
H1197 H 0.50227 0.56808 0.94798 0.0
H1198 H 0.42734 0.5327 0.98294 0.0
H1199 H 0.39698 0.55942 0.95432 0.0
H1200 H 0.50436 0.56211 0.00234 0.0
H1201 H 0.47104 0.46292 0.95339 0.0
H1202 H 0.46535 0.49809 0.94053 0.0
H1203 H 0.44227 0.48481 0.96459 0.0
C1204 C 0.46194 0.58231 0.93351 0.0
C1205 C 0.43214 0.57912 0.93436 0.0
C1206 C 0.47927 0.5667 0.94978 0.0
C1207 C 0.46693 0.54789 0.96705 0.0
C1208 C 0.43719 0.54664 0.96933 0.0
H1209 H 0.53123 0.42189 0.0711 0.0
H1210 H 0.5012 0.45025 0.04297 0.0
C1211 C 0.41992 0.56204 0.95306 0.0
C1212 C 0.48491 0.52805 0.98151 0.0
H1213 H 0.49939 0.45714 0.98954 0.0
C1214 C 0.50342 0.53918 -0.00048 0.0
C1215 C 0.48349 0.49816 0.97768 0.0
C1216 C 0.46466 0.4852 0.95787 0.0
C1217 C 0.52026 0.52108 0.01423 0.0
C1218 C 0.51884 0.49118 0.01041 0.0
C1219 C 0.50034 0.48006 0.99238 0.0
C1220 C 0.53673 0.47125 0.02488 0.0
C1221 C 0.53902 0.53405 0.03409 0.0
C1222 C 0.5665 0.47266 0.02296 0.0
C1223 C 0.58359 0.45658 0.03888 0.0
C1224 C 0.57118 0.43862 0.05684 0.0
C1225 C 0.54135 0.4355 0.0574 0.0
C1226 C 0.52421 0.45179 0.04148 0.0
H1227 H 0.53245 0.55623 0.0387 0.0
H1228 H 0.53851 0.52102 0.05135 0.0
H1229 H 0.56139 0.53472 0.02731 0.0
H1230 H 0.57651 0.48705 0.0098 0.0
H1231 H 0.60654 0.45916 0.03783 0.0
H1232 H 0.0832 0.9743 0.42019 0.0
H1233 H 0.05364 1.00204 0.44911 0.0
H1234 H 0.01572 0.92423 0.47651 0.0
H1235 H 0.04509 0.89644 0.44788 0.0
H1236 H 0.99172 0.99821 0.44637 0.0
H1237 H 0.03354 0.97102 0.54029 0.0
H1238 H 0.05453 0.96679 0.51232 0.0
H1239 H 0.02724 0.94128 0.51983 0.0
C1240 C 0.0692 0.96309 0.4329 0.0
C1241 C 0.06637 0.93324 0.43173 0.0
C1242 C 0.05222 0.97894 0.44927 0.0
C1243 C 0.03259 0.96511 0.46491 0.0
C1244 C 0.03097 0.93524 0.46478 0.0
H1245 H 0.90631 0.03116 0.56975 0.0
H1246 H 0.93107 0.99876 0.54101 0.0
C1247 C 0.04772 0.91943 0.44835 0.0
C1248 C 0.01178 0.98186 0.4795 0.0
H1249 H 0.99024 0.99694 0.53866 0.0
C1250 C 0.99141 0.99805 0.46656 0.0
C1251 C 0.01118 0.98107 0.50576 0.0
C1252 C 0.03289 0.96429 0.52046 0.0
C1253 C 0.97045 0.01368 0.47924 0.0
C1254 C 0.97026 0.01351 0.50555 0.0
C1255 C 0.99031 0.99686 0.51848 0.0
C1256 C 0.95144 0.03261 0.52008 0.0
C1257 C 0.94861 0.0301 0.46437 0.0
C1258 C 0.95413 0.06225 0.51735 0.0
C1259 C 0.94005 0.08066 0.53359 0.0
C1260 C 0.92314 0.06978 0.553 0.0
C1261 C 0.91902 0.04012 0.55483 0.0
C1262 C 0.93328 0.02163 0.53856 0.0
H1263 H 0.94563 0.02067 0.44557 0.0
H1264 H 0.92765 0.03063 0.474 0.0
H1265 H 0.95611 0.0524 0.4619 0.0
H1266 H 0.96841 0.07118 0.50354 0.0
H1267 H 0.94363 0.10342 0.53171 0.0
H1268 H 0.60707 0.05633 0.45445 0.0
H1269 H 0.57483 0.03122 0.48251 0.0
H1270 H 0.50242 0.06557 0.443 0.0
H1271 H 0.53477 0.09065 0.41442 0.0
H1272 H 0.52906 0.04679 0.51356 0.0
H1273 H 0.49516 0.97803 0.43437 0.0
H1274 H 0.52552 1.00166 0.43251 0.0
H1275 H 0.48996 0.01578 0.43027 0.0
C1276 C 0.58427 0.05907 0.45204 0.0
C1277 C 0.57338 0.07512 0.43207 0.0
C1278 C 0.5659 0.0447 0.46809 0.0
C1279 C 0.53635 0.04601 0.4644 0.0
C1280 C 0.52526 0.06391 0.44577 0.0
H1281 H 0.39859 0.95636 0.5352 0.0
H1282 H 0.42905 0.98294 0.50657 0.0
C1283 C 0.54371 0.07846 0.42967 0.0
C1284 C 0.51767 0.0268 0.47889 0.0
H1285 H 0.47482 0.96809 0.47357 0.0
C1286 C 0.51712 0.02963 0.50486 0.0
C1287 C 0.50245 1.00425 0.4674 0.0
C1288 C 0.50337 0.99947 0.43963 0.0
C1289 C 0.50142 0.01066 0.51969 0.0
C1290 C 0.48634 0.98803 0.50821 0.0
C1291 C 0.48669 0.98532 0.48224 0.0
C1292 C 0.46858 0.96815 0.52286 0.0
C1293 C 0.50064 0.01527 0.54748 0.0
C1294 C 0.48086 0.94986 0.5406 0.0
C1295 C 0.46346 0.93444 0.55695 0.0
C1296 C 0.43365 0.93734 0.55575 0.0
C1297 C 0.42153 0.95392 0.53666 0.0
C1298 C 0.43887 0.96913 0.5203 0.0
H1299 H 0.50865 0.03678 0.55277 0.0
H1300 H 0.47858 0.01276 0.55471 0.0
H1301 H 0.51431 0.99906 0.55669 0.0
H1302 H 0.50384 0.94854 0.54251 0.0
H1303 H 0.47334 0.92188 0.57152 0.0
H1304 H 0.54577 0.40305 0.53752 0.0
H1305 H 0.52006 0.43423 0.50889 0.0
H1306 H 0.56004 0.50789 0.54227 0.0
H1307 H 0.58627 0.47667 0.57087 0.0
H1308 H 0.48145 0.47453 0.5262 0.0
H1309 H 0.56519 0.52493 0.46765 0.0
H1310 H 0.57155 0.49291 0.48554 0.0
H1311 H 0.57149 0.52722 0.50056 0.0
C1312 C 0.54966 0.42585 0.53836 0.0
C1313 C 0.56792 0.43748 0.55649 0.0
C1314 C 0.53489 0.44361 0.52205 0.0
C1315 C 0.53812 0.4733 0.52351 0.0
C1316 C 0.55757 0.48496 0.54063 0.0
H1317 H 0.45452 0.61563 0.45324 0.0
H1318 H 0.47929 0.58443 0.48247 0.0
C1319 C 0.57256 0.46713 0.55693 0.0
C1320 C 0.51908 0.49195 0.5088 0.0
H1321 H 0.51846 0.54417 0.46464 0.0
C1322 C 0.48949 0.48969 0.51264 0.0
C1323 C 0.52972 0.5117 0.49125 0.0
C1324 C 0.5612 0.51425 0.48578 0.0
C1325 C 0.4702 0.50698 0.49956 0.0
C1326 C 0.48084 0.52675 0.48205 0.0
C1327 C 0.51042 0.52901 0.47821 0.0
C1328 C 0.46184 0.54537 0.46729 0.0
C1329 C 0.4387 0.50437 0.50491 0.0
C1330 C 0.44295 0.53371 0.44972 0.0
C1331 C 0.42851 0.55156 0.43304 0.0
C1332 C 0.43317 0.58119 0.4336 0.0
C1333 C 0.45065 0.59284 0.4523 0.0
C1334 C 0.46488 0.57507 0.46896 0.0
H1335 H 0.43461 0.49335 0.52287 0.0
H1336 H 0.42841 0.52574 0.50542 0.0
H1337 H 0.42843 0.49176 0.48989 0.0
H1338 H 0.44062 0.51078 0.44795 0.0
H1339 H 0.41539 0.54201 0.41868 0.0
H1340 H 0.89982 0.45361 0.45162 0.0
H1341 H 0.92936 0.48227 0.47946 0.0
H1342 H 0.0052 0.44399 0.44855 0.0
H1343 H 0.9757 0.41526 0.4203 0.0
H1344 H 0.97285 0.46921 0.51498 0.0
H1345 H 0.01291 0.53094 0.43373 0.0
H1346 H 0.98243 0.50744 0.43178 0.0
H1347 H 0.0179 0.49291 0.43213 0.0
C1348 C 0.92278 0.45084 0.45106 0.0
C1349 C 0.9355 0.43246 0.43358 0.0
C1350 C 0.93959 0.46725 0.46697 0.0
C1351 C 0.96939 0.46567 0.46559 0.0
C1352 C 0.98218 0.44581 0.44949 0.0
H1353 H 0.1065 0.55574 0.53481 0.0
H1354 H 0.07528 0.52891 0.50706 0.0
C1355 C 0.96532 0.42922 0.43358 0.0
C1356 C 0.98683 0.48622 0.47985 0.0
H1357 H 0.03171 0.54314 0.47313 0.0
C1358 C 0.98571 0.48542 0.5059 0.0
C1359 C 1.00325 0.50748 0.46781 0.0
C1360 C 1.00411 0.51004 0.43982 0.0
C1361 C 1.00127 0.50493 0.52033 0.0
C1362 C 0.01784 0.5261 0.50829 0.0
C1363 C 0.01877 0.52701 0.48223 0.0
C1364 C 0.03618 0.54592 0.5225 0.0
C1365 C 1.00055 0.5022 0.54832 0.0
C1366 C 0.02449 0.56551 0.53948 0.0
C1367 C 0.04235 0.58102 0.5554 0.0
C1368 C 0.07205 0.57701 0.55449 0.0
C1369 C 0.08366 0.55907 0.5361 0.0
C1370 C 0.06587 0.54371 0.52022 0.0
H1371 H 0.99146 0.48141 0.55437 0.0
H1372 H 0.02233 0.50436 0.55625 0.0
H1373 H 0.9871 0.5195 0.55617 0.0
H1374 H 1.00157 0.56787 0.54112 0.0
H1375 H 0.03283 0.5947 0.56939 0.0
loop_
_geom_bond_atom_site_label_1
_geom_bond_atom_site_label_2
_geom_bond_distance
_geom_bond_site_symmetry_2
_ccdc_geom_bond_type
C0 O2 1.247 . S
C0 O4 1.258 . S
C1 O8 1.247 . S
C1 O9 1.258 . S
O2 C0 1.247 . S
O2 Zn3 2.028 . S
Zn3 O2 2.028 . S
Zn3 O7 2.035 . S
Zn3 O9 2.035 . S
Zn3 O10 2.028 . S
O4 C0 1.258 . S
O4 Zn5 2.035 . S
Zn5 O4 2.035 . S
Zn5 O6 2.028 . S
Zn5 O8 2.028 . S
Zn5 O11 2.035 . S
O6 Zn5 2.028 . S
O6 C12 1.247 . S
O7 Zn3 2.035 . S
O7 C12 1.258 . S
O8 C1 1.247 . S
O8 Zn5 2.028 . S
O9 C1 1.258 . S
O9 Zn3 2.035 . S
O10 Zn3 2.028 . S
O10 C13 1.247 . S
O11 Zn5 2.035 . S
O11 C13 1.258 . S
C12 O6 1.247 . S
C12 O7 1.258 . S
C13 O10 1.247 . S
C13 O11 1.258 . S
C14 O16 1.247 . S
C14 O18 1.258 . S
C15 O22 1.247 . S
C15 O23 1.258 . S
O16 C14 1.247 . S
O16 Zn17 2.028 . S
Zn17 O16 2.028 . S
Zn17 O21 2.035 . S
Zn17 O23 2.035 . S
Zn17 O24 2.028 . S
O18 C14 1.258 . S
O18 Zn19 2.035 . S
Zn19 O18 2.035 . S
Zn19 O20 2.028 . S
Zn19 O22 2.028 . S
Zn19 O25 2.035 . S
O20 Zn19 2.028 . S
O20 C26 1.247 . S
O21 Zn17 2.035 . S
O21 C26 1.258 . S
O22 C15 1.247 . S
O22 Zn19 2.028 . S
O23 C15 1.258 . S
O23 Zn17 2.035 . S
O24 Zn17 2.028 . S
O24 C27 1.247 . S
O25 Zn19 2.035 . S
O25 C27 1.258 . S
C26 O20 1.247 . S
C26 O21 1.258 . S
C27 O24 1.247 . S
C27 O25 1.258 . S
C28 O30 1.247 . S
C28 O32 1.258 . S
C29 O36 1.247 . S
C29 O37 1.258 . S
O30 C28 1.247 . S
O30 Zn31 2.028 . S
Zn31 O30 2.028 . S
Zn31 O35 2.035 . S
Zn31 O37 2.035 . S
Zn31 O38 2.028 . S
O32 C28 1.258 . S
O32 Zn33 2.035 . S
Zn33 O32 2.035 . S
Zn33 O34 2.028 . S
Zn33 O36 2.028 . S
Zn33 O39 2.035 . S
O34 Zn33 2.028 . S
O34 C40 1.247 . S
O35 Zn31 2.035 . S
O35 C40 1.258 . S
O36 C29 1.247 . S
O36 Zn33 2.028 . S
O37 C29 1.258 . S
O37 Zn31 2.035 . S
O38 Zn31 2.028 . S
O38 C41 1.247 . S
O39 Zn33 2.035 . S
O39 C41 1.258 . S
C40 O34 1.247 . S
C40 O35 1.258 . S
C41 O38 1.247 . S
C41 O39 1.258 . S
C42 O44 1.247 . S
C42 O46 1.258 . S
C43 O50 1.247 . S
C43 O51 1.258 . S
O44 C42 1.247 . S
O44 Zn45 2.028 . S
Zn45 O44 2.028 . S
Zn45 O49 2.035 . S
Zn45 O51 2.035 . S
Zn45 O52 2.028 . S
O46 C42 1.258 . S
O46 Zn47 2.035 . S
Zn47 O46 2.035 . S
Zn47 O48 2.028 . S
Zn47 O50 2.028 . S
Zn47 O53 2.035 . S
O48 Zn47 2.028 . S
O48 C54 1.247 . S
O49 Zn45 2.035 . S
O49 C54 1.258 . S
O50 C43 1.247 . S
O50 Zn47 2.028 . S
O51 C43 1.258 . S
O51 Zn45 2.035 . S
O52 Zn45 2.028 . S
O52 C55 1.247 . S
O53 Zn47 2.035 . S
O53 C55 1.258 . S
C54 O48 1.247 . S
C54 O49 1.258 . S
C55 O52 1.247 . S
C55 O53 1.258 . S
C56 O58 1.247 . S
C56 O60 1.258 . S
C57 O64 1.247 . S
C57 O65 1.258 . S
O58 C56 1.247 . S
O58 Zn59 2.028 . S
Zn59 O58 2.028 . S
Zn59 O63 2.035 . S
Zn59 O65 2.035 . S
Zn59 O66 2.028 . S
O60 C56 1.258 . S
O60 Zn61 2.035 . S
Zn61 O60 2.035 . S
Zn61 O62 2.028 . S
Zn61 O64 2.028 . S
Zn61 O67 2.035 . S
O62 Zn61 2.028 . S
O62 C68 1.247 . S
O63 Zn59 2.035 . S
O63 C68 1.258 . S
O64 C57 1.247 . S
O64 Zn61 2.028 . S
O65 C57 1.258 . S
O65 Zn59 2.035 . S
O66 Zn59 2.028 . S
O66 C69 1.247 . S
O67 Zn61 2.035 . S
O67 C69 1.258 . S
C68 O62 1.247 . S
C68 O63 1.258 . S
C69 O66 1.247 . S
C69 O67 1.258 . S
C70 O72 1.247 . S
C70 O74 1.258 . S
C71 O78 1.247 . S
C71 O79 1.258 . S
O72 C70 1.247 . S
O72 Zn73 2.028 . S
Zn73 O72 2.028 . S
Zn73 O77 2.035 . S
Zn73 O79 2.035 . S
Zn73 O80 2.028 . S
O74 C70 1.258 . S
O74 Zn75 2.035 . S
Zn75 O74 2.035 . S
Zn75 O76 2.028 . S
Zn75 O78 2.028 . S
Zn75 O81 2.035 . S
O76 Zn75 2.028 . S
O76 C82 1.247 . S
O77 Zn73 2.035 . S
O77 C82 1.258 . S
O78 C71 1.247 . S
O78 Zn75 2.028 . S
O79 C71 1.258 . S
O79 Zn73 2.035 . S
O80 Zn73 2.028 . S
O80 C83 1.247 . S
O81 Zn75 2.035 . S
O81 C83 1.258 . S
C82 O76 1.247 . S
C82 O77 1.258 . S
C83 O80 1.247 . S
C83 O81 1.258 . S
C84 O86 1.247 . S
C84 O88 1.258 . S
C85 O92 1.247 . S
C85 O93 1.258 . S
O86 C84 1.247 . S
O86 Zn87 2.028 . S
Zn87 O86 2.028 . S
Zn87 O91 2.035 . S
Zn87 O93 2.035 . S
Zn87 O94 2.028 . S
O88 C84 1.258 . S
O88 Zn89 2.035 . S
Zn89 O88 2.035 . S
Zn89 O90 2.028 . S
Zn89 O92 2.028 . S
Zn89 O95 2.035 . S
O90 Zn89 2.028 . S
O90 C96 1.247 . S
O91 Zn87 2.035 . S
O91 C96 1.258 . S
O92 C85 1.247 . S
O92 Zn89 2.028 . S
O93 C85 1.258 . S
O93 Zn87 2.035 . S
O94 Zn87 2.028 . S
O94 C97 1.247 . S
O95 Zn89 2.035 . S
O95 C97 1.258 . S
C96 O90 1.247 . S
C96 O91 1.258 . S
C97 O94 1.247 . S
C97 O95 1.258 . S
C98 O100 1.247 . S
C98 O102 1.258 . S
C99 O106 1.247 . S
C99 O107 1.258 . S
O100 C98 1.247 . S
O100 Zn101 2.028 . S
Zn101 O100 2.028 . S
Zn101 O105 2.035 . S
Zn101 O107 2.035 . S
Zn101 O108 2.028 . S
O102 C98 1.258 . S
O102 Zn103 2.035 . S
Zn103 O102 2.035 . S
Zn103 O104 2.028 . S
Zn103 O106 2.028 . S
Zn103 O109 2.035 . S
O104 Zn103 2.028 . S
O104 C110 1.247 . S
O105 Zn101 2.035 . S
O105 C110 1.258 . S
O106 C99 1.247 . S
O106 Zn103 2.028 . S
O107 C99 1.258 . S
O107 Zn101 2.035 . S
O108 Zn101 2.028 . S
O108 C111 1.247 . S
O109 Zn103 2.035 . S
O109 C111 1.258 . S
C110 O104 1.247 . S
C110 O105 1.258 . S
C111 O108 1.247 . S
C111 O109 1.258 . S
C112 O114 1.247 . S
C112 O116 1.258 . S
C113 O120 1.247 . S
C113 O121 1.258 . S
O114 C112 1.247 . S
O114 Zn115 2.028 . S
Zn115 O114 2.028 . S
Zn115 O119 2.035 . S
Zn115 O121 2.035 . S
Zn115 O122 2.028 . S
O116 C112 1.258 . S
O116 Zn117 2.035 . S
Zn117 O116 2.035 . S
Zn117 O118 2.028 . S
Zn117 O120 2.028 . S
Zn117 O123 2.035 . S
O118 Zn117 2.028 . S
O118 C124 1.247 . S
O119 Zn115 2.035 . S
O119 C124 1.258 . S
O120 C113 1.247 . S
O120 Zn117 2.028 . S
O121 C113 1.258 . S
O121 Zn115 2.035 . S
O122 Zn115 2.028 . S
O122 C125 1.247 . S
O123 Zn117 2.035 . S
O123 C125 1.258 . S
C124 O118 1.247 . S
C124 O119 1.258 . S
C125 O122 1.247 . S
C125 O123 1.258 . S
C126 O128 1.247 . S
C126 O130 1.258 . S
C127 O134 1.247 . S
C127 O135 1.258 . S
O128 C126 1.247 . S
O128 Zn129 2.028 . S
Zn129 O128 2.028 . S
Zn129 O133 2.035 . S
Zn129 O135 2.035 . S
Zn129 O136 2.028 . S
O130 C126 1.258 . S
O130 Zn131 2.035 . S
Zn131 O130 2.035 . S
Zn131 O132 2.028 . S
Zn131 O134 2.028 . S
Zn131 O137 2.035 . S
O132 Zn131 2.028 . S
O132 C138 1.247 . S
O133 Zn129 2.035 . S
O133 C138 1.258 . S
O134 C127 1.247 . S
O134 Zn131 2.028 . S
O135 C127 1.258 . S
O135 Zn129 2.035 . S
O136 Zn129 2.028 . S
O136 C139 1.247 . S
O137 Zn131 2.035 . S
O137 C139 1.258 . S
C138 O132 1.247 . S
C138 O133 1.258 . S
C139 O136 1.247 . S
C139 O137 1.258 . S
C140 O142 1.247 . S
C140 O144 1.258 . S
C141 O148 1.247 . S
C141 O149 1.258 . S
O142 C140 1.247 . S
O142 Zn143 2.028 . S
Zn143 O142 2.028 . S
Zn143 O147 2.035 . S
Zn143 O149 2.035 . S
Zn143 O150 2.028 . S
O144 C140 1.258 . S
O144 Zn145 2.035 . S
Zn145 O144 2.035 . S
Zn145 O146 2.028 . S
Zn145 O148 2.028 . S
Zn145 O151 2.035 . S
O146 Zn145 2.028 . S
O146 C152 1.247 . S
O147 Zn143 2.035 . S
O147 C152 1.258 . S
O148 C141 1.247 . S
O148 Zn145 2.028 . S
O149 C141 1.258 . S
O149 Zn143 2.035 . S
O150 Zn143 2.028 . S
O150 C153 1.247 . S
O151 Zn145 2.035 . S
O151 C153 1.258 . S
C152 O146 1.247 . S
C152 O147 1.258 . S
C153 O150 1.247 . S
C153 O151 1.258 . S
C154 O156 1.247 . S
C154 O158 1.258 . S
C155 O162 1.247 . S
C155 O163 1.258 . S
O156 C154 1.247 . S
O156 Zn157 2.028 . S
Zn157 O156 2.028 . S
Zn157 O161 2.035 . S
Zn157 O163 2.035 . S
Zn157 O164 2.028 . S
O158 C154 1.258 . S
O158 Zn159 2.035 . S
Zn159 O158 2.035 . S
Zn159 O160 2.028 . S
Zn159 O162 2.028 . S
Zn159 O165 2.035 . S
O160 Zn159 2.028 . S
O160 C166 1.247 . S
O161 Zn157 2.035 . S
O161 C166 1.258 . S
O162 C155 1.247 . S
O162 Zn159 2.028 . S
O163 C155 1.258 . S
O163 Zn157 2.035 . S
O164 Zn157 2.028 . S
O164 C167 1.247 . S
O165 Zn159 2.035 . S
O165 C167 1.258 . S
C166 O160 1.247 . S
C166 O161 1.258 . S
C167 O164 1.247 . S
C167 O165 1.258 . S
C168 O170 1.247 . S
C168 O172 1.258 . S
C169 O176 1.247 . S
C169 O177 1.258 . S
O170 C168 1.247 . S
O170 Zn171 2.028 . S
Zn171 O170 2.028 . S
Zn171 O175 2.035 . S
Zn171 O177 2.035 . S
Zn171 O178 2.028 . S
O172 C168 1.258 . S
O172 Zn173 2.035 . S
Zn173 O172 2.035 . S
Zn173 O174 2.028 . S
Zn173 O176 2.028 . S
Zn173 O179 2.035 . S
O174 Zn173 2.028 . S
O174 C180 1.247 . S
O175 Zn171 2.035 . S
O175 C180 1.258 . S
O176 C169 1.247 . S
O176 Zn173 2.028 . S
O177 C169 1.258 . S
O177 Zn171 2.035 . S
O178 Zn171 2.028 . S
O178 C181 1.247 . S
O179 Zn173 2.035 . S
O179 C181 1.258 . S
C180 O174 1.247 . S
C180 O175 1.258 . S
C181 O178 1.247 . S
C181 O179 1.258 . S
C182 O184 1.247 . S
C182 O186 1.258 . S
C183 O190 1.247 . S
C183 O191 1.258 . S
O184 C182 1.247 . S
O184 Zn185 2.028 . S
Zn185 O184 2.028 . S
Zn185 O189 2.035 . S
Zn185 O191 2.035 . S
Zn185 O192 2.028 . S
O186 C182 1.258 . S
O186 Zn187 2.035 . S
Zn187 O186 2.035 . S
Zn187 O188 2.028 . S
Zn187 O190 2.028 . S
Zn187 O193 2.035 . S
O188 Zn187 2.028 . S
O188 C194 1.247 . S
O189 Zn185 2.035 . S
O189 C194 1.258 . S
O190 C183 1.247 . S
O190 Zn187 2.028 . S
O191 C183 1.258 . S
O191 Zn185 2.035 . S
O192 Zn185 2.028 . S
O192 C195 1.247 . S
O193 Zn187 2.035 . S
O193 C195 1.258 . S
C194 O188 1.247 . S
C194 O189 1.258 . S
C195 O192 1.247 . S
C195 O193 1.258 . S
C196 O198 1.247 . S
C196 O200 1.258 . S
C197 O204 1.247 . S
C197 O205 1.258 . S
O198 C196 1.247 . S
O198 Zn199 2.028 . S
Zn199 O198 2.028 . S
Zn199 O203 2.035 . S
Zn199 O205 2.035 . S
Zn199 O206 2.028 . S
O200 C196 1.258 . S
O200 Zn201 2.035 . S
Zn201 O200 2.035 . S
Zn201 O202 2.028 . S
Zn201 O204 2.028 . S
Zn201 O207 2.035 . S
O202 Zn201 2.028 . S
O202 C208 1.247 . S
O203 Zn199 2.035 . S
O203 C208 1.258 . S
O204 C197 1.247 . S
O204 Zn201 2.028 . S
O205 C197 1.258 . S
O205 Zn199 2.035 . S
O206 Zn199 2.028 . S
O206 C209 1.247 . S
O207 Zn201 2.035 . S
O207 C209 1.258 . S
C208 O202 1.247 . S
C208 O203 1.258 . S
C209 O206 1.247 . S
C209 O207 1.258 . S
C210 O212 1.247 . S
C210 O214 1.258 . S
C211 O218 1.247 . S
C211 O219 1.258 . S
O212 C210 1.247 . S
O212 Zn213 2.028 . S
Zn213 O212 2.028 . S
Zn213 O217 2.035 . S
Zn213 O219 2.035 . S
Zn213 O220 2.028 . S
O214 C210 1.258 . S
O214 Zn215 2.035 . S
Zn215 O214 2.035 . S
Zn215 O216 2.028 . S
Zn215 O218 2.028 . S
Zn215 O221 2.035 . S
O216 Zn215 2.028 . S
O216 C222 1.247 . S
O217 Zn213 2.035 . S
O217 C222 1.258 . S
O218 C211 1.247 . S
O218 Zn215 2.028 . S
O219 C211 1.258 . S
O219 Zn213 2.035 . S
O220 Zn213 2.028 . S
O220 C223 1.247 . S
O221 Zn215 2.035 . S
O221 C223 1.258 . S
C222 O216 1.247 . S
C222 O217 1.258 . S
C223 O220 1.247 . S
C223 O221 1.258 . S
H224 C232 0.929 . S
H225 C234 0.930 . S
H226 C236 0.930 . S
H227 C239 0.929 . S
H228 C242 0.930 . S
H229 C244 0.960 . S
H230 C244 0.960 . S
H231 C244 0.960 . S
C232 H224 0.929 . S
C232 C233 1.377 . S
C232 C234 1.384 . S
C233 C232 1.377 . S
C233 C239 1.390 . S
C234 H225 0.930 . S
C234 C232 1.384 . S
C234 C235 1.372 . S
C235 C234 1.372 . S
C235 C236 1.400 . S
C235 C240 1.490 . S
C236 H226 0.930 . S
C236 C235 1.400 . S
C236 C239 1.386 . S
H237 C253 0.930 . S
H238 C254 0.931 . S
C239 H227 0.929 . S
C239 C233 1.390 . S
C239 C236 1.386 . S
C240 C235 1.490 . S
C240 C242 1.395 . S
C240 C243 1.403 . S
H241 C247 0.930 . S
C242 H228 0.930 . S
C242 C240 1.395 . S
C242 C245 1.403 . S
C243 C240 1.403 . S
C243 C244 1.524 . S
C243 C247 1.400 . S
C244 H229 0.960 . S
C244 H230 0.960 . S
C244 H231 0.960 . S
C244 C243 1.524 . S
C245 C242 1.403 . S
C245 C246 1.392 . S
C245 C249 1.495 . S
C246 C245 1.392 . S
C246 C247 1.385 . S
C246 C248 1.478 . S
C247 H241 0.930 . S
C247 C243 1.400 . S
C247 C246 1.385 . S
C248 C246 1.478 . S
C248 C250 1.381 . S
C248 C254 1.383 . S
C249 C245 1.495 . S
C249 H255 0.959 . S
C249 H256 0.961 . S
C249 H257 0.960 . S
C250 C248 1.381 . S
C250 C251 1.394 . S
C250 H258 0.930 . S
C251 C250 1.394 . S
C251 C252 1.383 . S
C251 H259 0.929 . S
C252 C251 1.383 . S
C252 C253 1.377 . S
C253 H237 0.930 . S
C253 C252 1.377 . S
C253 C254 1.379 . S
C254 H238 0.931 . S
C254 C248 1.383 . S
C254 C253 1.379 . S
H255 C249 0.959 . S
H256 C249 0.961 . S
H257 C249 0.960 . S
H258 C250 0.930 . S
H259 C251 0.929 . S
H260 C268 0.929 . S
H261 C270 0.930 . S
H262 C272 0.930 . S
H263 C275 0.929 . S
H264 C278 0.930 . S
H265 C280 0.960 . S
H266 C280 0.960 . S
H267 C280 0.960 . S
C268 H260 0.929 . S
C268 C269 1.377 . S
C268 C270 1.384 . S
C269 C268 1.377 . S
C269 C275 1.390 . S
C270 H261 0.930 . S
C270 C268 1.384 . S
C270 C271 1.372 . S
C271 C270 1.372 . S
C271 C272 1.400 . S
C271 C276 1.490 . S
C272 H262 0.930 . S
C272 C271 1.400 . S
C272 C275 1.386 . S
H273 C289 0.930 . S
H274 C290 0.931 . S
C275 H263 0.929 . S
C275 C269 1.390 . S
C275 C272 1.386 . S
C276 C271 1.490 . S
C276 C278 1.395 . S
C276 C279 1.403 . S
H277 C283 0.930 . S
C278 H264 0.930 . S
C278 C276 1.395 . S
C278 C281 1.403 . S
C279 C276 1.403 . S
C279 C280 1.524 . S
C279 C283 1.400 . S
C280 H265 0.960 . S
C280 H266 0.960 . S
C280 H267 0.960 . S
C280 C279 1.524 . S
C281 C278 1.403 . S
C281 C282 1.392 . S
C281 C285 1.495 . S
C282 C281 1.392 . S
C282 C283 1.385 . S
C282 C284 1.478 . S
C283 H277 0.930 . S
C283 C279 1.400 . S
C283 C282 1.385 . S
C284 C282 1.478 . S
C284 C286 1.381 . S
C284 C290 1.383 . S
C285 C281 1.495 . S
C285 H291 0.959 . S
C285 H292 0.961 . S
C285 H293 0.960 . S
C286 C284 1.381 . S
C286 C287 1.394 . S
C286 H294 0.930 . S
C287 C286 1.394 . S
C287 C288 1.383 . S
C287 H295 0.929 . S
C288 C287 1.383 . S
C288 C289 1.377 . S
C289 H273 0.930 . S
C289 C288 1.377 . S
C289 C290 1.379 . S
C290 H274 0.931 . S
C290 C284 1.383 . S
C290 C289 1.379 . S
H291 C285 0.959 . S
H292 C285 0.961 . S
H293 C285 0.960 . S
H294 C286 0.930 . S
H295 C287 0.929 . S
H296 C304 0.929 . S
H297 C306 0.930 . S
H298 C308 0.930 . S
H299 C311 0.929 . S
H300 C314 0.930 . S
H301 C316 0.960 . S
H302 C316 0.960 . S
H303 C316 0.960 . S
C304 H296 0.929 . S
C304 C305 1.377 . S
C304 C306 1.384 . S
C305 C304 1.377 . S
C305 C311 1.390 . S
C306 H297 0.930 . S
C306 C304 1.384 . S
C306 C307 1.372 . S
C307 C306 1.372 . S
C307 C308 1.400 . S
C307 C312 1.490 . S
C308 H298 0.930 . S
C308 C307 1.400 . S
C308 C311 1.386 . S
H309 C325 0.930 . S
H310 C326 0.931 . S
C311 H299 0.929 . S
C311 C305 1.390 . S
C311 C308 1.386 . S
C312 C307 1.490 . S
C312 C314 1.395 . S
C312 C315 1.403 . S
H313 C319 0.930 . S
C314 H300 0.930 . S
C314 C312 1.395 . S
C314 C317 1.403 . S
C315 C312 1.403 . S
C315 C316 1.524 . S
C315 C319 1.400 . S
C316 H301 0.960 . S
C316 H302 0.960 . S
C316 H303 0.960 . S
C316 C315 1.524 . S
C317 C314 1.403 . S
C317 C318 1.392 . S
C317 C321 1.495 . S
C318 C317 1.392 . S
C318 C319 1.385 . S
C318 C320 1.478 . S
C319 H313 0.930 . S
C319 C315 1.400 . S
C319 C318 1.385 . S
C320 C318 1.478 . S
C320 C322 1.381 . S
C320 C326 1.383 . S
C321 C317 1.495 . S
C321 H327 0.959 . S
C321 H328 0.961 . S
C321 H329 0.960 . S
C322 C320 1.381 . S
C322 C323 1.394 . S
C322 H330 0.930 . S
C323 C322 1.394 . S
C323 C324 1.383 . S
C323 H331 0.929 . S
C324 C323 1.383 . S
C324 C325 1.377 . S
C325 H309 0.930 . S
C325 C324 1.377 . S
C325 C326 1.379 . S
C326 H310 0.931 . S
C326 C320 1.383 . S
C326 C325 1.379 . S
H327 C321 0.959 . S
H328 C321 0.961 . S
H329 C321 0.960 . S
H330 C322 0.930 . S
H331 C323 0.929 . S
H332 C340 0.929 . S
H333 C342 0.930 . S
H334 C344 0.930 . S
H335 C347 0.929 . S
H336 C350 0.930 . S
H337 C352 0.960 . S
H338 C352 0.960 . S
H339 C352 0.960 . S
C340 H332 0.929 . S
C340 C341 1.377 . S
C340 C342 1.384 . S
C341 C340 1.377 . S
C341 C347 1.390 . S
C342 H333 0.930 . S
C342 C340 1.384 . S
C342 C343 1.372 . S
C343 C342 1.372 . S
C343 C344 1.400 . S
C343 C348 1.490 . S
C344 H334 0.930 . S
C344 C343 1.400 . S
C344 C347 1.386 . S
H345 C361 0.930 . S
H346 C362 0.931 . S
C347 H335 0.929 . S
C347 C341 1.390 . S
C347 C344 1.386 . S
C348 C343 1.490 . S
C348 C350 1.395 . S
C348 C351 1.403 . S
H349 C355 0.930 . S
C350 H336 0.930 . S
C350 C348 1.395 . S
C350 C353 1.403 . S
C351 C348 1.403 . S
C351 C352 1.524 . S
C351 C355 1.400 . S
C352 H337 0.960 . S
C352 H338 0.960 . S
C352 H339 0.960 . S
C352 C351 1.524 . S
C353 C350 1.403 . S
C353 C354 1.392 . S
C353 C357 1.495 . S
C354 C353 1.392 . S
C354 C355 1.385 . S
C354 C356 1.478 . S
C355 H349 0.930 . S
C355 C351 1.400 . S
C355 C354 1.385 . S
C356 C354 1.478 . S
C356 C358 1.381 . S
C356 C362 1.383 . S
C357 C353 1.495 . S
C357 H363 0.959 . S
C357 H364 0.961 . S
C357 H365 0.960 . S
C358 C356 1.381 . S
C358 C359 1.394 . S
C358 H366 0.930 . S
C359 C358 1.394 . S
C359 C360 1.383 . S
C359 H367 0.929 . S
C360 C359 1.383 . S
C360 C361 1.377 . S
C361 H345 0.930 . S
C361 C360 1.377 . S
C361 C362 1.379 . S
C362 H346 0.931 . S
C362 C356 1.383 . S
C362 C361 1.379 . S
H363 C357 0.959 . S
H364 C357 0.961 . S
H365 C357 0.960 . S
H366 C358 0.930 . S
H367 C359 0.929 . S
H368 C376 0.929 . S
H369 C378 0.930 . S
H370 C380 0.930 . S
H371 C383 0.929 . S
H372 C386 0.930 . S
H373 C388 0.960 . S
H374 C388 0.960 . S
H375 C388 0.960 . S
C376 H368 0.929 . S
C376 C377 1.377 . S
C376 C378 1.384 . S
C377 C376 1.377 . S
C377 C383 1.390 . S
C378 H369 0.930 . S
C378 C376 1.384 . S
C378 C379 1.372 . S
C379 C378 1.372 . S
C379 C380 1.400 . S
C379 C384 1.490 . S
C380 H370 0.930 . S
C380 C379 1.400 . S
C380 C383 1.386 . S
H381 C397 0.930 . S
H382 C398 0.931 . S
C383 H371 0.929 . S
C383 C377 1.390 . S
C383 C380 1.386 . S
C384 C379 1.490 . S
C384 C386 1.395 . S
C384 C387 1.403 . S
H385 C391 0.930 . S
C386 H372 0.930 . S
C386 C384 1.395 . S
C386 C389 1.403 . S
C387 C384 1.403 . S
C387 C388 1.524 . S
C387 C391 1.400 . S
C388 H373 0.960 . S
C388 H374 0.960 . S
C388 H375 0.960 . S
C388 C387 1.524 . S
C389 C386 1.403 . S
C389 C390 1.392 . S
C389 C393 1.495 . S
C390 C389 1.392 . S
C390 C391 1.385 . S
C390 C392 1.478 . S
C391 H385 0.930 . S
C391 C387 1.400 . S
C391 C390 1.385 . S
C392 C390 1.478 . S
C392 C394 1.381 . S
C392 C398 1.383 . S
C393 C389 1.495 . S
C393 H399 0.959 . S
C393 H400 0.961 . S
C393 H401 0.960 . S
C394 C392 1.381 . S
C394 C395 1.394 . S
C394 H402 0.930 . S
C395 C394 1.394 . S
C395 C396 1.383 . S
C395 H403 0.929 . S
C396 C395 1.383 . S
C396 C397 1.377 . S
C397 H381 0.930 . S
C397 C396 1.377 . S
C397 C398 1.379 . S
C398 H382 0.931 . S
C398 C392 1.383 . S
C398 C397 1.379 . S
H399 C393 0.959 . S
H400 C393 0.961 . S
H401 C393 0.960 . S
H402 C394 0.930 . S
H403 C395 0.929 . S
H404 C412 0.929 . S
H405 C414 0.930 . S
H406 C416 0.930 . S
H407 C419 0.929 . S
H408 C422 0.930 . S
H409 C424 0.960 . S
H410 C424 0.960 . S
H411 C424 0.960 . S
C412 H404 0.929 . S
C412 C413 1.377 . S
C412 C414 1.384 . S
C413 C412 1.377 . S
C413 C419 1.390 . S
C414 H405 0.930 . S
C414 C412 1.384 . S
C414 C415 1.372 . S
C415 C414 1.372 . S
C415 C416 1.400 . S
C415 C420 1.490 . S
C416 H406 0.930 . S
C416 C415 1.400 . S
C416 C419 1.386 . S
H417 C433 0.930 . S
H418 C434 0.931 . S
C419 H407 0.929 . S
C419 C413 1.390 . S
C419 C416 1.386 . S
C420 C415 1.490 . S
C420 C422 1.395 . S
C420 C423 1.403 . S
H421 C427 0.930 . S
C422 H408 0.930 . S
C422 C420 1.395 . S
C422 C425 1.403 . S
C423 C420 1.403 . S
C423 C424 1.524 . S
C423 C427 1.400 . S
C424 H409 0.960 . S
C424 H410 0.960 . S
C424 H411 0.960 . S
C424 C423 1.524 . S
C425 C422 1.403 . S
C425 C426 1.392 . S
C425 C429 1.495 . S
C426 C425 1.392 . S
C426 C427 1.385 . S
C426 C428 1.478 . S
C427 H421 0.930 . S
C427 C423 1.400 . S
C427 C426 1.385 . S
C428 C426 1.478 . S
C428 C430 1.381 . S
C428 C434 1.383 . S
C429 C425 1.495 . S
C429 H435 0.959 . S
C429 H436 0.961 . S
C429 H437 0.960 . S
C430 C428 1.381 . S
C430 C431 1.394 . S
C430 H438 0.930 . S
C431 C430 1.394 . S
C431 C432 1.383 . S
C431 H439 0.929 . S
C432 C431 1.383 . S
C432 C433 1.377 . S
C433 H417 0.930 . S
C433 C432 1.377 . S
C433 C434 1.379 . S
C434 H418 0.931 . S
C434 C428 1.383 . S
C434 C433 1.379 . S
H435 C429 0.959 . S
H436 C429 0.961 . S
H437 C429 0.960 . S
H438 C430 0.930 . S
H439 C431 0.929 . S
H440 C448 0.929 . S
H441 C450 0.930 . S
H442 C452 0.930 . S
H443 C455 0.929 . S
H444 C458 0.930 . S
H445 C460 0.960 . S
H446 C460 0.960 . S
H447 C460 0.960 . S
C448 H440 0.929 . S
C448 C449 1.377 . S
C448 C450 1.384 . S
C449 C448 1.377 . S
C449 C455 1.390 . S
C450 H441 0.930 . S
C450 C448 1.384 . S
C450 C451 1.372 . S
C451 C450 1.372 . S
C451 C452 1.400 . S
C451 C456 1.490 . S
C452 H442 0.930 . S
C452 C451 1.400 . S
C452 C455 1.386 . S
H453 C469 0.930 . S
H454 C470 0.931 . S
C455 H443 0.929 . S
C455 C449 1.390 . S
C455 C452 1.386 . S
C456 C451 1.490 . S
C456 C458 1.395 . S
C456 C459 1.403 . S
H457 C463 0.930 . S
C458 H444 0.930 . S
C458 C456 1.395 . S
C458 C461 1.403 . S
C459 C456 1.403 . S
C459 C460 1.524 . S
C459 C463 1.400 . S
C460 H445 0.960 . S
C460 H446 0.960 . S
C460 H447 0.960 . S
C460 C459 1.524 . S
C461 C458 1.403 . S
C461 C462 1.392 . S
C461 C465 1.495 . S
C462 C461 1.392 . S
C462 C463 1.385 . S
C462 C464 1.478 . S
C463 H457 0.930 . S
C463 C459 1.400 . S
C463 C462 1.385 . S
C464 C462 1.478 . S
C464 C466 1.381 . S
C464 C470 1.383 . S
C465 C461 1.495 . S
C465 H471 0.959 . S
C465 H472 0.961 . S
C465 H473 0.960 . S
C466 C464 1.381 . S
C466 C467 1.394 . S
C466 H474 0.930 . S
C467 C466 1.394 . S
C467 C468 1.383 . S
C467 H475 0.929 . S
C468 C467 1.383 . S
C468 C469 1.377 . S
C469 H453 0.930 . S
C469 C468 1.377 . S
C469 C470 1.379 . S
C470 H454 0.931 . S
C470 C464 1.383 . S
C470 C469 1.379 . S
H471 C465 0.959 . S
H472 C465 0.961 . S
H473 C465 0.960 . S
H474 C466 0.930 . S
H475 C467 0.929 . S
H476 C484 0.929 . S
H477 C486 0.930 . S
H478 C488 0.930 . S
H479 C491 0.929 . S
H480 C494 0.930 . S
H481 C496 0.960 . S
H482 C496 0.960 . S
H483 C496 0.960 . S
C484 H476 0.929 . S
C484 C485 1.377 . S
C484 C486 1.384 . S
C485 C484 1.377 . S
C485 C491 1.390 . S
C486 H477 0.930 . S
C486 C484 1.384 . S
C486 C487 1.372 . S
C487 C486 1.372 . S
C487 C488 1.400 . S
C487 C492 1.490 . S
C488 H478 0.930 . S
C488 C487 1.400 . S
C488 C491 1.386 . S
H489 C505 0.930 . S
H490 C506 0.931 . S
C491 H479 0.929 . S
C491 C485 1.390 . S
C491 C488 1.386 . S
C492 C487 1.490 . S
C492 C494 1.395 . S
C492 C495 1.403 . S
H493 C499 0.930 . S
C494 H480 0.930 . S
C494 C492 1.395 . S
C494 C497 1.403 . S
C495 C492 1.403 . S
C495 C496 1.524 . S
C495 C499 1.400 . S
C496 H481 0.960 . S
C496 H482 0.960 . S
C496 H483 0.960 . S
C496 C495 1.524 . S
C497 C494 1.403 . S
C497 C498 1.392 . S
C497 C501 1.495 . S
C498 C497 1.392 . S
C498 C499 1.385 . S
C498 C500 1.478 . S
C499 H493 0.930 . S
C499 C495 1.400 . S
C499 C498 1.385 . S
C500 C498 1.478 . S
C500 C502 1.381 . S
C500 C506 1.383 . S
C501 C497 1.495 . S
C501 H507 0.959 . S
C501 H508 0.961 . S
C501 H509 0.960 . S
C502 C500 1.381 . S
C502 C503 1.394 . S
C502 H510 0.930 . S
C503 C502 1.394 . S
C503 C504 1.383 . S
C503 H511 0.929 . S
C504 C503 1.383 . S
C504 C505 1.377 . S
C505 H489 0.930 . S
C505 C504 1.377 . S
C505 C506 1.379 . S
C506 H490 0.931 . S
C506 C500 1.383 . S
C506 C505 1.379 . S
H507 C501 0.959 . S
H508 C501 0.961 . S
H509 C501 0.960 . S
H510 C502 0.930 . S
H511 C503 0.929 . S
H512 C520 0.929 . S
H513 C522 0.930 . S
H514 C524 0.930 . S
H515 C527 0.929 . S
H516 C530 0.930 . S
H517 C532 0.960 1_455 S
H518 C532 0.960 . S
H519 C532 0.960 . S
C520 H512 0.929 . S
C520 C521 1.377 . S
C520 C522 1.384 . S
C521 C520 1.377 . S
C521 C527 1.390 . S
C522 H513 0.930 . S
C522 C520 1.384 . S
C522 C523 1.372 . S
C523 C522 1.372 . S
C523 C524 1.400 . S
C523 C528 1.490 . S
C524 H514 0.930 . S
C524 C523 1.400 . S
C524 C527 1.386 . S
H525 C541 0.929 1_455 S
H526 C542 0.931 . S
C527 H515 0.929 . S
C527 C521 1.390 . S
C527 C524 1.386 . S
C528 C523 1.490 . S
C528 C530 1.395 . S
C528 C531 1.403 . S
H529 C535 0.927 1_455 S
C530 H516 0.930 . S
C530 C528 1.395 . S
C530 C533 1.403 . S
C531 C528 1.403 . S
C531 C532 1.524 . S
C531 C535 1.400 . S
C532 H517 0.960 1_655 S
C532 H518 0.960 . S
C532 H519 0.960 . S
C532 C531 1.524 . S
C533 C530 1.403 . S
C533 C534 1.392 . S
C533 C537 1.495 . S
C534 C533 1.392 . S
C534 C535 1.385 . S
C534 C536 1.478 . S
C535 H529 0.927 1_655 S
C535 C531 1.400 . S
C535 C534 1.385 . S
C536 C534 1.478 . S
C536 C538 1.381 . S
C536 C542 1.383 . S
C537 C533 1.495 . S
C537 H543 0.959 . S
C537 H544 0.961 . S
C537 H545 0.960 . S
C538 C536 1.381 . S
C538 C539 1.394 1_655 S
C538 H546 0.930 . S
C539 C538 1.394 1_455 S
C539 C540 1.383 . S
C539 H547 0.929 . S
C540 C539 1.383 . S
C540 C541 1.375 1_455 S
C541 H525 0.929 1_655 S
C541 C540 1.375 1_655 S
C541 C542 1.382 . S
C542 H526 0.931 . S
C542 C536 1.383 . S
C542 C541 1.382 . S
H543 C537 0.959 . S
H544 C537 0.961 . S
H545 C537 0.960 . S
H546 C538 0.930 . S
H547 C539 0.929 . S
H548 C556 0.929 . S
H549 C558 0.930 . S
H550 C560 0.930 . S
H551 C563 0.929 . S
H552 C566 0.930 . S
H553 C568 0.960 . S
H554 C568 0.960 . S
H555 C568 0.960 . S
C556 H548 0.929 . S
C556 C557 1.377 1_565 S
C556 C558 1.384 . S
C557 C556 1.377 1_545 S
C557 C563 1.390 . S
C558 H549 0.930 . S
C558 C556 1.384 . S
C558 C559 1.372 . S
C559 C558 1.372 . S
C559 C560 1.400 1_565 S
C559 C564 1.490 . S
C560 H550 0.930 . S
C560 C559 1.400 1_545 S
C560 C563 1.386 . S
H561 C577 0.930 . S
H562 C578 0.931 . S
C563 H551 0.929 . S
C563 C557 1.390 . S
C563 C560 1.386 . S
C564 C559 1.490 . S
C564 C566 1.395 . S
C564 C567 1.403 . S
H565 C571 0.930 . S
C566 H552 0.930 . S
C566 C564 1.395 . S
C566 C569 1.403 . S
C567 C564 1.403 . S
C567 C568 1.524 . S
C567 C571 1.400 . S
C568 H553 0.960 . S
C568 H554 0.960 . S
C568 H555 0.960 . S
C568 C567 1.524 . S
C569 C566 1.403 . S
C569 C570 1.392 . S
C569 C573 1.495 1_655 S
C570 C569 1.392 . S
C570 C571 1.385 . S
C570 C572 1.478 . S
C571 H565 0.930 . S
C571 C567 1.400 . S
C571 C570 1.385 . S
C572 C570 1.478 . S
C572 C574 1.381 . S
C572 C578 1.383 . S
C573 C569 1.495 1_455 S
C573 H579 0.959 . S
C573 H580 0.961 . S
C573 H581 0.960 . S
C574 C572 1.381 . S
C574 C575 1.394 1_655 S
C574 H582 0.930 . S
C575 C574 1.394 1_455 S
C575 C576 1.383 . S
C575 H583 0.929 . S
C576 C575 1.383 . S
C576 C577 1.377 . S
C577 H561 0.930 . S
C577 C576 1.377 . S
C577 C578 1.379 1_455 S
C578 H562 0.931 . S
C578 C572 1.383 . S
C578 C577 1.379 1_655 S
H579 C573 0.959 . S
H580 C573 0.961 . S
H581 C573 0.960 . S
H582 C574 0.930 . S
H583 C575 0.929 . S
H584 C592 0.929 . S
H585 C594 0.930 . S
H586 C596 0.930 . S
H587 C599 0.929 . S
H588 C602 0.930 . S
H589 C604 0.960 . S
H590 C604 0.960 . S
H591 C604 0.960 . S
C592 H584 0.929 . S
C592 C593 1.377 1_565 S
C592 C594 1.384 . S
C593 C592 1.377 1_545 S
C593 C599 1.390 . S
C594 H585 0.930 . S
C594 C592 1.384 . S
C594 C595 1.372 . S
C595 C594 1.372 . S
C595 C596 1.400 1_565 S
C595 C600 1.490 . S
C596 H586 0.930 . S
C596 C595 1.400 1_545 S
C596 C599 1.386 . S
H597 C613 0.930 . S
H598 C614 0.931 . S
C599 H587 0.929 . S
C599 C593 1.390 . S
C599 C596 1.386 . S
C600 C595 1.490 . S
C600 C602 1.395 . S
C600 C603 1.403 . S
H601 C607 0.930 . S
C602 H588 0.930 . S
C602 C600 1.395 . S
C602 C605 1.403 . S
C603 C600 1.403 . S
C603 C604 1.524 . S
C603 C607 1.400 . S
C604 H589 0.960 . S
C604 H590 0.960 . S
C604 H591 0.960 . S
C604 C603 1.524 . S
C605 C602 1.403 . S
C605 C606 1.392 . S
C605 C609 1.495 . S
C606 C605 1.392 . S
C606 C607 1.385 . S
C606 C608 1.478 . S
C607 H601 0.930 . S
C607 C603 1.400 . S
C607 C606 1.385 . S
C608 C606 1.478 . S
C608 C610 1.381 . S
C608 C614 1.383 . S
C609 C605 1.495 . S
C609 H615 0.959 . S
C609 H616 0.961 . S
C609 H617 0.960 . S
C610 C608 1.381 . S
C610 C611 1.394 . S
C610 H618 0.930 . S
C611 C610 1.394 . S
C611 C612 1.383 . S
C611 H619 0.929 . S
C612 C611 1.383 . S
C612 C613 1.377 . S
C613 H597 0.930 . S
C613 C612 1.377 . S
C613 C614 1.379 . S
C614 H598 0.931 . S
C614 C608 1.383 . S
C614 C613 1.379 . S
H615 C609 0.959 . S
H616 C609 0.961 . S
H617 C609 0.960 . S
H618 C610 0.930 . S
H619 C611 0.929 . S
H620 C628 0.929 . S
H621 C630 0.930 . S
H622 C632 0.930 . S
H623 C635 0.929 . S
H624 C638 0.930 . S
H625 C640 0.960 . S
H626 C640 0.960 . S
H627 C640 0.960 . S
C628 H620 0.929 . S
C628 C629 1.377 . S
C628 C630 1.384 . S
C629 C628 1.377 . S
C629 C635 1.390 . S
C630 H621 0.930 . S
C630 C628 1.384 . S
C630 C631 1.372 . S
C631 C630 1.372 . S
C631 C632 1.400 . S
C631 C636 1.490 . S
C632 H622 0.930 . S
C632 C631 1.400 . S
C632 C635 1.386 . S
H633 C649 0.930 . S
H634 C650 0.931 . S
C635 H623 0.929 . S
C635 C629 1.390 . S
C635 C632 1.386 . S
C636 C631 1.490 . S
C636 C638 1.395 . S
C636 C639 1.403 . S
H637 C643 0.930 . S
C638 H624 0.930 . S
C638 C636 1.395 . S
C638 C641 1.403 . S
C639 C636 1.403 . S
C639 C640 1.524 . S
C639 C643 1.400 . S
C640 H625 0.960 . S
C640 H626 0.960 . S
C640 H627 0.960 . S
C640 C639 1.524 . S
C641 C638 1.403 . S
C641 C642 1.392 . S
C641 C645 1.495 . S
C642 C641 1.392 . S
C642 C643 1.385 . S
C642 C644 1.478 . S
C643 H637 0.930 . S
C643 C639 1.400 . S
C643 C642 1.385 . S
C644 C642 1.478 . S
C644 C646 1.381 . S
C644 C650 1.383 . S
C645 C641 1.495 . S
C645 H651 0.959 . S
C645 H652 0.961 . S
C645 H653 0.960 . S
C646 C644 1.381 . S
C646 C647 1.394 . S
C646 H654 0.930 . S
C647 C646 1.394 . S
C647 C648 1.383 . S
C647 H655 0.929 . S
C648 C647 1.383 . S
C648 C649 1.377 . S
C649 H633 0.930 . S
C649 C648 1.377 . S
C649 C650 1.379 . S
C650 H634 0.931 . S
C650 C644 1.383 . S
C650 C649 1.379 . S
H651 C645 0.959 . S
H652 C645 0.961 . S
H653 C645 0.960 . S
H654 C646 0.930 . S
H655 C647 0.929 . S
H656 C664 0.929 . S
H657 C666 0.930 . S
H658 C668 0.930 . S
H659 C671 0.929 . S
H660 C674 0.930 . S
H661 C676 0.960 . S
H662 C676 0.960 . S
H663 C676 0.960 . S
C664 H656 0.929 . S
C664 C665 1.377 . S
C664 C666 1.384 . S
C665 C664 1.377 . S
C665 C671 1.390 . S
C666 H657 0.930 . S
C666 C664 1.384 . S
C666 C667 1.372 . S
C667 C666 1.372 . S
C667 C668 1.400 . S
C667 C672 1.490 . S
C668 H658 0.930 . S
C668 C667 1.400 . S
C668 C671 1.386 . S
H669 C685 0.930 . S
H670 C686 0.931 . S
C671 H659 0.929 . S
C671 C665 1.390 . S
C671 C668 1.386 . S
C672 C667 1.490 . S
C672 C674 1.395 . S
C672 C675 1.403 . S
H673 C679 0.930 . S
C674 H660 0.930 . S
C674 C672 1.395 . S
C674 C677 1.403 . S
C675 C672 1.403 . S
C675 C676 1.524 . S
C675 C679 1.400 . S
C676 H661 0.960 . S
C676 H662 0.960 . S
C676 H663 0.960 . S
C676 C675 1.524 . S
C677 C674 1.403 . S
C677 C678 1.392 . S
C677 C681 1.495 1_455 S
C678 C677 1.392 . S
C678 C679 1.385 . S
C678 C680 1.478 . S
C679 H673 0.930 . S
C679 C675 1.400 . S
C679 C678 1.385 . S
C680 C678 1.478 . S
C680 C682 1.381 1_455 S
C680 C686 1.383 . S
C681 C677 1.495 1_655 S
C681 H687 0.959 . S
C681 H688 0.961 . S
C681 H689 0.960 . S
C682 C680 1.381 1_655 S
C682 C683 1.394 . S
C682 H690 0.930 . S
C683 C682 1.394 . S
C683 C684 1.383 . S
C683 H691 0.929 . S
C684 C683 1.383 . S
C684 C685 1.377 1_655 S
C685 H669 0.930 . S
C685 C684 1.377 1_455 S
C685 C686 1.379 . S
C686 H670 0.931 . S
C686 C680 1.383 . S
C686 C685 1.379 . S
H687 C681 0.959 . S
H688 C681 0.961 . S
H689 C681 0.960 . S
H690 C682 0.930 . S
H691 C683 0.929 . S
H692 C700 0.929 . S
H693 C702 0.930 . S
H694 C704 0.930 . S
H695 C707 0.929 . S
H696 C710 0.930 . S
H697 C712 0.960 . S
H698 C712 0.960 . S
H699 C712 0.960 . S
C700 H692 0.929 . S
C700 C701 1.377 . S
C700 C702 1.384 . S
C701 C700 1.377 . S
C701 C707 1.390 1_565 S
C702 H693 0.930 . S
C702 C700 1.384 . S
C702 C703 1.372 1_565 S
C703 C702 1.372 1_545 S
C703 C704 1.400 . S
C703 C708 1.490 . S
C704 H694 0.930 . S
C704 C703 1.400 . S
C704 C707 1.386 . S
H705 C721 0.930 . S
H706 C722 0.931 . S
C707 H695 0.929 . S
C707 C701 1.390 1_545 S
C707 C704 1.386 . S
C708 C703 1.490 . S
C708 C710 1.395 . S
C708 C711 1.403 . S
H709 C715 0.930 . S
C710 H696 0.930 . S
C710 C708 1.395 . S
C710 C713 1.403 . S
C711 C708 1.403 . S
C711 C712 1.524 . S
C711 C715 1.400 . S
C712 H697 0.960 . S
C712 H698 0.960 . S
C712 H699 0.960 . S
C712 C711 1.524 . S
C713 C710 1.403 . S
C713 C714 1.392 . S
C713 C717 1.495 1_455 S
C714 C713 1.392 . S
C714 C715 1.385 . S
C714 C716 1.478 . S
C715 H709 0.930 . S
C715 C711 1.400 . S
C715 C714 1.385 . S
C716 C714 1.478 . S
C716 C718 1.381 1_455 S
C716 C722 1.383 . S
C717 C713 1.495 1_655 S
C717 H723 0.959 . S
C717 H724 0.961 . S
C717 H725 0.960 . S
C718 C716 1.381 1_655 S
C718 C719 1.394 . S
C718 H726 0.930 . S
C719 C718 1.394 . S
C719 C720 1.383 . S
C719 H727 0.929 . S
C720 C719 1.383 . S
C720 C721 1.377 1_655 S
C721 H705 0.930 . S
C721 C720 1.377 1_455 S
C721 C722 1.379 . S
C722 H706 0.931 . S
C722 C716 1.383 . S
C722 C721 1.379 . S
H723 C717 0.959 . S
H724 C717 0.961 . S
H725 C717 0.960 . S
H726 C718 0.930 . S
H727 C719 0.929 . S
H728 C736 0.929 . S
H729 C738 0.930 . S
H730 C740 0.930 . S
H731 C743 0.929 . S
H732 C746 0.930 . S
H733 C748 0.960 1_565 S
H734 C748 0.960 . S
H735 C748 0.960 . S
C736 H728 0.929 . S
C736 C737 1.377 . S
C736 C738 1.384 . S
C737 C736 1.377 . S
C737 C743 1.390 . S
C738 H729 0.930 . S
C738 C736 1.384 . S
C738 C739 1.372 . S
C739 C738 1.372 . S
C739 C740 1.400 . S
C739 C744 1.490 . S
C740 H730 0.930 . S
C740 C739 1.400 . S
C740 C743 1.386 . S
H741 C757 0.930 . S
H742 C758 0.931 . S
C743 H731 0.929 . S
C743 C737 1.390 . S
C743 C740 1.386 . S
C744 C739 1.490 . S
C744 C746 1.395 . S
C744 C747 1.403 . S
H745 C751 0.930 1_565 S
C746 H732 0.930 . S
C746 C744 1.395 . S
C746 C749 1.403 . S
C747 C744 1.403 . S
C747 C748 1.524 . S
C747 C751 1.400 . S
C748 H733 0.960 1_545 S
C748 H734 0.960 . S
C748 H735 0.960 . S
C748 C747 1.524 . S
C749 C746 1.403 . S
C749 C750 1.392 . S
C749 C753 1.495 . S
C750 C749 1.392 . S
C750 C751 1.385 . S
C750 C752 1.478 . S
C751 H745 0.930 1_545 S
C751 C747 1.400 . S
C751 C750 1.385 . S
C752 C750 1.478 . S
C752 C754 1.381 . S
C752 C758 1.383 . S
C753 C749 1.495 . S
C753 H759 0.959 . S
C753 H760 0.961 . S
C753 H761 0.960 . S
C754 C752 1.381 . S
C754 C755 1.394 . S
C754 H762 0.930 . S
C755 C754 1.394 . S
C755 C756 1.383 1_545 S
C755 H763 0.929 1_545 S
C756 C755 1.383 1_565 S
C756 C757 1.377 . S
C757 H741 0.930 . S
C757 C756 1.377 . S
C757 C758 1.379 1_565 S
C758 H742 0.931 . S
C758 C752 1.383 . S
C758 C757 1.379 1_545 S
H759 C753 0.959 . S
H760 C753 0.961 . S
H761 C753 0.960 . S
H762 C754 0.930 . S
H763 C755 0.929 1_565 S
H764 C772 0.929 . S
H765 C774 0.930 . S
H766 C776 0.930 . S
H767 C779 0.929 . S
H768 C782 0.930 . S
H769 C784 0.960 . S
H770 C784 0.960 . S
H771 C784 0.960 . S
C772 H764 0.929 . S
C772 C773 1.377 . S
C772 C774 1.384 . S
C773 C772 1.377 . S
C773 C779 1.390 . S
C774 H765 0.930 . S
C774 C772 1.384 . S
C774 C775 1.372 . S
C775 C774 1.372 . S
C775 C776 1.400 . S
C775 C780 1.490 . S
C776 H766 0.930 . S
C776 C775 1.400 . S
C776 C779 1.386 . S
H777 C793 0.930 . S
H778 C794 0.931 . S
C779 H767 0.929 . S
C779 C773 1.390 . S
C779 C776 1.386 . S
C780 C775 1.490 . S
C780 C782 1.395 . S
C780 C783 1.403 . S
H781 C787 0.930 . S
C782 H768 0.930 . S
C782 C780 1.395 . S
C782 C785 1.403 . S
C783 C780 1.403 . S
C783 C784 1.524 . S
C783 C787 1.400 . S
C784 H769 0.960 . S
C784 H770 0.960 . S
C784 H771 0.960 . S
C784 C783 1.524 . S
C785 C782 1.403 . S
C785 C786 1.392 . S
C785 C789 1.495 . S
C786 C785 1.392 . S
C786 C787 1.385 . S
C786 C788 1.478 . S
C787 H781 0.930 . S
C787 C783 1.400 . S
C787 C786 1.385 . S
C788 C786 1.478 . S
C788 C790 1.381 . S
C788 C794 1.383 . S
C789 C785 1.495 . S
C789 H795 0.959 . S
C789 H796 0.961 . S
C789 H797 0.960 . S
C790 C788 1.381 . S
C790 C791 1.394 . S
C790 H798 0.930 . S
C791 C790 1.394 . S
C791 C792 1.383 . S
C791 H799 0.929 . S
C792 C791 1.383 . S
C792 C793 1.377 . S
C793 H777 0.930 . S
C793 C792 1.377 . S
C793 C794 1.379 . S
C794 H778 0.931 . S
C794 C788 1.383 . S
C794 C793 1.379 . S
H795 C789 0.959 . S
H796 C789 0.961 . S
H797 C789 0.960 . S
H798 C790 0.930 . S
H799 C791 0.929 . S
H800 C808 0.929 . S
H801 C810 0.930 . S
H802 C812 0.930 . S
H803 C815 0.929 . S
H804 C818 0.930 . S
H805 C820 0.960 . S
H806 C820 0.960 . S
H807 C820 0.960 . S
C808 H800 0.929 . S
C808 C809 1.377 . S
C808 C810 1.384 . S
C809 C808 1.377 . S
C809 C815 1.390 . S
C810 H801 0.930 . S
C810 C808 1.384 . S
C810 C811 1.372 . S
C811 C810 1.372 . S
C811 C812 1.400 . S
C811 C816 1.490 . S
C812 H802 0.930 . S
C812 C811 1.400 . S
C812 C815 1.386 . S
H813 C829 0.930 . S
H814 C830 0.931 . S
C815 H803 0.929 . S
C815 C809 1.390 . S
C815 C812 1.386 . S
C816 C811 1.490 . S
C816 C818 1.395 . S
C816 C819 1.403 . S
H817 C823 0.930 . S
C818 H804 0.930 . S
C818 C816 1.395 . S
C818 C821 1.403 . S
C819 C816 1.403 . S
C819 C820 1.524 . S
C819 C823 1.400 . S
C820 H805 0.960 . S
C820 H806 0.960 . S
C820 H807 0.960 . S
C820 C819 1.524 . S
C821 C818 1.403 . S
C821 C822 1.392 . S
C821 C825 1.495 . S
C822 C821 1.392 . S
C822 C823 1.385 . S
C822 C824 1.478 . S
C823 H817 0.930 . S
C823 C819 1.400 . S
C823 C822 1.385 . S
C824 C822 1.478 . S
C824 C826 1.381 . S
C824 C830 1.383 . S
C825 C821 1.495 . S
C825 H831 0.959 . S
C825 H832 0.961 . S
C825 H833 0.960 . S
C826 C824 1.381 . S
C826 C827 1.394 . S
C826 H834 0.930 . S
C827 C826 1.394 . S
C827 C828 1.383 . S
C827 H835 0.929 . S
C828 C827 1.383 . S
C828 C829 1.377 . S
C829 H813 0.930 . S
C829 C828 1.377 . S
C829 C830 1.379 . S
C830 H814 0.931 . S
C830 C824 1.383 . S
C830 C829 1.379 . S
H831 C825 0.959 . S
H832 C825 0.961 . S
H833 C825 0.960 . S
H834 C826 0.930 . S
H835 C827 0.929 . S
H836 C844 0.929 . S
H837 C846 0.930 . S
H838 C848 0.930 . S
H839 C851 0.929 . S
H840 C854 0.930 . S
H841 C856 0.960 . S
H842 C856 0.960 . S
H843 C856 0.960 . S
C844 H836 0.929 . S
C844 C845 1.377 . S
C844 C846 1.384 . S
C845 C844 1.377 . S
C845 C851 1.390 . S
C846 H837 0.930 . S
C846 C844 1.384 . S
C846 C847 1.372 . S
C847 C846 1.372 . S
C847 C848 1.400 . S
C847 C852 1.490 . S
C848 H838 0.930 . S
C848 C847 1.400 . S
C848 C851 1.386 . S
H849 C865 0.930 . S
H850 C866 0.931 . S
C851 H839 0.929 . S
C851 C845 1.390 . S
C851 C848 1.386 . S
C852 C847 1.490 . S
C852 C854 1.395 . S
C852 C855 1.403 . S
H853 C859 0.930 . S
C854 H840 0.930 . S
C854 C852 1.395 . S
C854 C857 1.403 . S
C855 C852 1.403 . S
C855 C856 1.524 . S
C855 C859 1.400 . S
C856 H841 0.960 . S
C856 H842 0.960 . S
C856 H843 0.960 . S
C856 C855 1.524 . S
C857 C854 1.403 . S
C857 C858 1.392 . S
C857 C861 1.495 . S
C858 C857 1.392 . S
C858 C859 1.385 . S
C858 C860 1.478 . S
C859 H853 0.930 . S
C859 C855 1.400 . S
C859 C858 1.385 . S
C860 C858 1.478 . S
C860 C862 1.381 . S
C860 C866 1.383 . S
C861 C857 1.495 . S
C861 H867 0.959 . S
C861 H868 0.961 . S
C861 H869 0.960 . S
C862 C860 1.381 . S
C862 C863 1.394 . S
C862 H870 0.930 . S
C863 C862 1.394 . S
C863 C864 1.383 . S
C863 H871 0.929 . S
C864 C863 1.383 . S
C864 C865 1.377 . S
C865 H849 0.930 . S
C865 C864 1.377 . S
C865 C866 1.379 . S
C866 H850 0.931 . S
C866 C860 1.383 . S
C866 C865 1.379 . S
H867 C861 0.959 . S
H868 C861 0.961 . S
H869 C861 0.960 . S
H870 C862 0.930 . S
H871 C863 0.929 . S
H872 C880 0.929 . S
H873 C882 0.930 . S
H874 C884 0.930 . S
H875 C887 0.929 . S
H876 C890 0.930 . S
H877 C892 0.960 . S
H878 C892 0.960 . S
H879 C892 0.960 . S
C880 H872 0.929 . S
C880 C881 1.377 . S
C880 C882 1.384 . S
C881 C880 1.377 . S
C881 C887 1.390 . S
C882 H873 0.930 . S
C882 C880 1.384 . S
C882 C883 1.372 . S
C883 C882 1.372 . S
C883 C884 1.400 . S
C883 C888 1.490 . S
C884 H874 0.930 . S
C884 C883 1.400 . S
C884 C887 1.386 . S
H885 C901 0.930 . S
H886 C902 0.931 . S
C887 H875 0.929 . S
C887 C881 1.390 . S
C887 C884 1.386 . S
C888 C883 1.490 . S
C888 C890 1.395 . S
C888 C891 1.403 . S
H889 C895 0.930 . S
C890 H876 0.930 . S
C890 C888 1.395 . S
C890 C893 1.403 . S
C891 C888 1.403 . S
C891 C892 1.524 . S
C891 C895 1.400 . S
C892 H877 0.960 . S
C892 H878 0.960 . S
C892 H879 0.960 . S
C892 C891 1.524 . S
C893 C890 1.403 . S
C893 C894 1.392 . S
C893 C897 1.495 . S
C894 C893 1.392 . S
C894 C895 1.385 . S
C894 C896 1.478 . S
C895 H889 0.930 . S
C895 C891 1.400 . S
C895 C894 1.385 . S
C896 C894 1.478 . S
C896 C898 1.381 . S
C896 C902 1.383 . S
C897 C893 1.495 . S
C897 H903 0.959 . S
C897 H904 0.961 . S
C897 H905 0.960 . S
C898 C896 1.381 . S
C898 C899 1.394 . S
C898 H906 0.930 . S
C899 C898 1.394 . S
C899 C900 1.383 . S
C899 H907 0.929 . S
C900 C899 1.383 . S
C900 C901 1.377 . S
C901 H885 0.930 . S
C901 C900 1.377 . S
C901 C902 1.379 . S
C902 H886 0.931 . S
C902 C896 1.383 . S
C902 C901 1.379 . S
H903 C897 0.959 . S
H904 C897 0.961 . S
H905 C897 0.960 . S
H906 C898 0.930 . S
H907 C899 0.929 . S
H908 C916 0.929 . S
H909 C918 0.930 . S
H910 C920 0.930 . S
H911 C923 0.929 . S
H912 C926 0.930 . S
H913 C928 0.960 . S
H914 C928 0.960 . S
H915 C928 0.960 . S
C916 H908 0.929 . S
C916 C917 1.377 . S
C916 C918 1.384 . S
C917 C916 1.377 . S
C917 C923 1.390 . S
C918 H909 0.930 . S
C918 C916 1.384 . S
C918 C919 1.372 . S
C919 C918 1.372 . S
C919 C920 1.400 . S
C919 C924 1.490 . S
C920 H910 0.930 . S
C920 C919 1.400 . S
C920 C923 1.386 . S
H921 C937 0.930 . S
H922 C938 0.931 . S
C923 H911 0.929 . S
C923 C917 1.390 . S
C923 C920 1.386 . S
C924 C919 1.490 . S
C924 C926 1.395 . S
C924 C927 1.403 . S
H925 C931 0.930 . S
C926 H912 0.930 . S
C926 C924 1.395 . S
C926 C929 1.403 . S
C927 C924 1.403 . S
C927 C928 1.524 . S
C927 C931 1.400 . S
C928 H913 0.960 . S
C928 H914 0.960 . S
C928 H915 0.960 . S
C928 C927 1.524 . S
C929 C926 1.403 . S
C929 C930 1.392 . S
C929 C933 1.495 . S
C930 C929 1.392 . S
C930 C931 1.385 . S
C930 C932 1.478 . S
C931 H925 0.930 . S
C931 C927 1.400 . S
C931 C930 1.385 . S
C932 C930 1.478 . S
C932 C934 1.381 . S
C932 C938 1.383 . S
C933 C929 1.495 . S
C933 H939 0.959 . S
C933 H940 0.961 . S
C933 H941 0.960 . S
C934 C932 1.381 . S
C934 C935 1.394 . S
C934 H942 0.930 . S
C935 C934 1.394 . S
C935 C936 1.383 . S
C935 H943 0.929 . S
C936 C935 1.383 . S
C936 C937 1.377 . S
C937 H921 0.930 . S
C937 C936 1.377 . S
C937 C938 1.379 . S
C938 H922 0.931 . S
C938 C932 1.383 . S
C938 C937 1.379 . S
H939 C933 0.959 . S
H940 C933 0.961 . S
H941 C933 0.960 . S
H942 C934 0.930 . S
H943 C935 0.929 . S
H944 C952 0.929 . S
H945 C954 0.930 . S
H946 C956 0.930 . S
H947 C959 0.929 . S
H948 C962 0.930 . S
H949 C964 0.960 . S
H950 C964 0.960 . S
H951 C964 0.960 . S
C952 H944 0.929 . S
C952 C953 1.377 . S
C952 C954 1.384 . S
C953 C952 1.377 . S
C953 C959 1.390 . S
C954 H945 0.930 . S
C954 C952 1.384 . S
C954 C955 1.372 . S
C955 C954 1.372 . S
C955 C956 1.400 . S
C955 C960 1.490 . S
C956 H946 0.930 . S
C956 C955 1.400 . S
C956 C959 1.386 . S
H957 C973 0.930 . S
H958 C974 0.931 . S
C959 H947 0.929 . S
C959 C953 1.390 . S
C959 C956 1.386 . S
C960 C955 1.490 . S
C960 C962 1.395 . S
C960 C963 1.403 . S
H961 C967 0.930 . S
C962 H948 0.930 . S
C962 C960 1.395 . S
C962 C965 1.403 . S
C963 C960 1.403 . S
C963 C964 1.524 . S
C963 C967 1.400 . S
C964 H949 0.960 . S
C964 H950 0.960 . S
C964 H951 0.960 . S
C964 C963 1.524 . S
C965 C962 1.403 . S
C965 C966 1.392 . S
C965 C969 1.495 . S
C966 C965 1.392 . S
C966 C967 1.385 . S
C966 C968 1.478 . S
C967 H961 0.930 . S
C967 C963 1.400 . S
C967 C966 1.385 . S
C968 C966 1.478 . S
C968 C970 1.381 . S
C968 C974 1.383 . S
C969 C965 1.495 . S
C969 H975 0.959 . S
C969 H976 0.961 . S
C969 H977 0.960 . S
C970 C968 1.381 . S
C970 C971 1.394 . S
C970 H978 0.930 . S
C971 C970 1.394 . S
C971 C972 1.383 . S
C971 H979 0.929 . S
C972 C971 1.383 . S
C972 C973 1.377 . S
C973 H957 0.930 . S
C973 C972 1.377 . S
C973 C974 1.379 . S
C974 H958 0.931 . S
C974 C968 1.383 . S
C974 C973 1.379 . S
H975 C969 0.959 . S
H976 C969 0.961 . S
H977 C969 0.960 . S
H978 C970 0.930 . S
H979 C971 0.929 . S
H980 C988 0.929 . S
H981 C990 0.930 . S
H982 C992 0.930 . S
H983 C995 0.929 . S
H984 C998 0.930 . S
H985 C1000 0.960 . S
H986 C1000 0.960 . S
H987 C1000 0.960 . S
C988 H980 0.929 . S
C988 C989 1.377 . S
C988 C990 1.384 . S
C989 C988 1.377 . S
C989 C995 1.390 . S
C990 H981 0.930 . S
C990 C988 1.384 . S
C990 C991 1.372 . S
C991 C990 1.372 . S
C991 C992 1.400 . S
C991 C996 1.490 . S
C992 H982 0.930 . S
C992 C991 1.400 . S
C992 C995 1.386 . S
H993 C1009 0.930 . S
H994 C1010 0.931 . S
C995 H983 0.929 . S
C995 C989 1.390 . S
C995 C992 1.386 . S
C996 C991 1.490 . S
C996 C998 1.395 . S
C996 C999 1.403 . S
H997 C1003 0.930 . S
C998 H984 0.930 . S
C998 C996 1.395 . S
C998 C1001 1.403 . S
C999 C996 1.403 . S
C999 C1000 1.524 . S
C999 C1003 1.400 . S
C1000 H985 0.960 . S
C1000 H986 0.960 . S
C1000 H987 0.960 . S
C1000 C999 1.524 . S
C1001 C998 1.403 . S
C1001 C1002 1.392 . S
C1001 C1005 1.495 . S
C1002 C1001 1.392 . S
C1002 C1003 1.385 . S
C1002 C1004 1.478 . S
C1003 H997 0.930 . S
C1003 C999 1.400 . S
C1003 C1002 1.385 . S
C1004 C1002 1.478 . S
C1004 C1006 1.381 . S
C1004 C1010 1.383 . S
C1005 C1001 1.495 . S
C1005 H1011 0.959 . S
C1005 H1012 0.961 . S
C1005 H1013 0.960 . S
C1006 C1004 1.381 . S
C1006 C1007 1.394 . S
C1006 H1014 0.930 . S
C1007 C1006 1.394 . S
C1007 C1008 1.383 . S
C1007 H1015 0.929 . S
C1008 C1007 1.383 . S
C1008 C1009 1.377 . S
C1009 H993 0.930 . S
C1009 C1008 1.377 . S
C1009 C1010 1.379 . S
C1010 H994 0.931 . S
C1010 C1004 1.383 . S
C1010 C1009 1.379 . S
H1011 C1005 0.959 . S
H1012 C1005 0.961 . S
H1013 C1005 0.960 . S
H1014 C1006 0.930 . S
H1015 C1007 0.929 . S
H1016 C1024 0.929 . S
H1017 C1026 0.930 . S
H1018 C1028 0.930 . S
H1019 C1031 0.929 . S
H1020 C1034 0.930 . S
H1021 C1036 0.960 . S
H1022 C1036 0.960 . S
H1023 C1036 0.960 . S
C1024 H1016 0.929 . S
C1024 C1025 1.377 . S
C1024 C1026 1.384 . S
C1025 C1024 1.377 . S
C1025 C1031 1.390 . S
C1026 H1017 0.930 . S
C1026 C1024 1.384 . S
C1026 C1027 1.372 . S
C1027 C1026 1.372 . S
C1027 C1028 1.400 . S
C1027 C1032 1.490 . S
C1028 H1018 0.930 . S
C1028 C1027 1.400 . S
C1028 C1031 1.386 . S
H1029 C1045 0.930 . S
H1030 C1046 0.931 . S
C1031 H1019 0.929 . S
C1031 C1025 1.390 . S
C1031 C1028 1.386 . S
C1032 C1027 1.490 . S
C1032 C1034 1.395 . S
C1032 C1035 1.403 . S
H1033 C1039 0.930 . S
C1034 H1020 0.930 . S
C1034 C1032 1.395 . S
C1034 C1037 1.403 . S
C1035 C1032 1.403 . S
C1035 C1036 1.524 . S
C1035 C1039 1.400 . S
C1036 H1021 0.960 . S
C1036 H1022 0.960 . S
C1036 H1023 0.960 . S
C1036 C1035 1.524 . S
C1037 C1034 1.403 . S
C1037 C1038 1.392 . S
C1037 C1041 1.495 . S
C1038 C1037 1.392 . S
C1038 C1039 1.385 . S
C1038 C1040 1.478 . S
C1039 H1033 0.930 . S
C1039 C1035 1.400 . S
C1039 C1038 1.385 . S
C1040 C1038 1.478 . S
C1040 C1042 1.381 . S
C1040 C1046 1.383 . S
C1041 C1037 1.495 . S
C1041 H1047 0.959 . S
C1041 H1048 0.961 . S
C1041 H1049 0.960 . S
C1042 C1040 1.381 . S
C1042 C1043 1.394 . S
C1042 H1050 0.930 . S
C1043 C1042 1.394 . S
C1043 C1044 1.383 . S
C1043 H1051 0.929 . S
C1044 C1043 1.383 . S
C1044 C1045 1.377 . S
C1045 H1029 0.930 . S
C1045 C1044 1.377 . S
C1045 C1046 1.379 . S
C1046 H1030 0.931 . S
C1046 C1040 1.383 . S
C1046 C1045 1.379 . S
H1047 C1041 0.959 . S
H1048 C1041 0.961 . S
H1049 C1041 0.960 . S
H1050 C1042 0.930 . S
H1051 C1043 0.929 . S
H1052 C1060 0.929 . S
H1053 C1062 0.930 . S
H1054 C1064 0.930 . S
H1055 C1067 0.929 . S
H1056 C1070 0.930 . S
H1057 C1072 0.960 . S
H1058 C1072 0.960 . S
H1059 C1072 0.960 . S
C1060 H1052 0.929 . S
C1060 C1061 1.377 . S
C1060 C1062 1.384 . S
C1061 C1060 1.377 . S
C1061 C1067 1.390 . S
C1062 H1053 0.930 . S
C1062 C1060 1.384 . S
C1062 C1063 1.372 . S
C1063 C1062 1.372 . S
C1063 C1064 1.400 . S
C1063 C1068 1.490 . S
C1064 H1054 0.930 . S
C1064 C1063 1.400 . S
C1064 C1067 1.386 . S
H1065 C1081 0.930 . S
H1066 C1082 0.931 . S
C1067 H1055 0.929 . S
C1067 C1061 1.390 . S
C1067 C1064 1.386 . S
C1068 C1063 1.490 . S
C1068 C1070 1.395 . S
C1068 C1071 1.403 . S
H1069 C1075 0.930 . S
C1070 H1056 0.930 . S
C1070 C1068 1.395 . S
C1070 C1073 1.403 . S
C1071 C1068 1.403 . S
C1071 C1072 1.524 . S
C1071 C1075 1.400 . S
C1072 H1057 0.960 . S
C1072 H1058 0.960 . S
C1072 H1059 0.960 . S
C1072 C1071 1.524 . S
C1073 C1070 1.403 . S
C1073 C1074 1.392 . S
C1073 C1077 1.495 . S
C1074 C1073 1.392 . S
C1074 C1075 1.385 . S
C1074 C1076 1.478 . S
C1075 H1069 0.930 . S
C1075 C1071 1.400 . S
C1075 C1074 1.385 . S
C1076 C1074 1.478 . S
C1076 C1078 1.381 . S
C1076 C1082 1.383 . S
C1077 C1073 1.495 . S
C1077 H1083 0.959 . S
C1077 H1084 0.961 . S
C1077 H1085 0.960 . S
C1078 C1076 1.381 . S
C1078 C1079 1.394 . S
C1078 H1086 0.930 . S
C1079 C1078 1.394 . S
C1079 C1080 1.383 . S
C1079 H1087 0.929 . S
C1080 C1079 1.383 . S
C1080 C1081 1.377 . S
C1081 H1065 0.930 . S
C1081 C1080 1.377 . S
C1081 C1082 1.379 . S
C1082 H1066 0.931 . S
C1082 C1076 1.383 . S
C1082 C1081 1.379 . S
H1083 C1077 0.959 . S
H1084 C1077 0.961 . S
H1085 C1077 0.960 . S
H1086 C1078 0.930 . S
H1087 C1079 0.929 . S
H1088 C1096 0.929 . S
H1089 C1098 0.930 . S
H1090 C1100 0.930 1_655 S
H1091 C1103 0.929 . S
H1092 C1106 0.930 . S
H1093 C1108 0.960 1_556 S
H1094 C1108 0.947 1_556 S
H1095 C1108 0.960 . S
C1096 H1088 0.929 . S
C1096 C1097 1.377 . S
C1096 C1098 1.384 . S
C1097 C1096 1.377 . S
C1097 C1103 1.390 . S
C1098 H1089 0.930 . S
C1098 C1096 1.384 . S
C1098 C1099 1.372 . S
C1099 C1098 1.372 . S
C1099 C1100 1.400 . S
C1099 C1104 1.490 . S
C1100 H1090 0.930 1_455 S
C1100 C1099 1.400 . S
C1100 C1103 1.386 . S
H1101 C1117 0.930 . S
H1102 C1118 0.931 . S
C1103 H1091 0.929 . S
C1103 C1097 1.390 . S
C1103 C1100 1.386 . S
C1104 C1099 1.490 . S
C1104 C1106 1.395 . S
C1104 C1107 1.403 1_455 S
H1105 C1111 0.930 . S
C1106 H1092 0.930 . S
C1106 C1104 1.395 . S
C1106 C1109 1.403 1_554 S
C1107 C1104 1.403 1_655 S
C1107 C1108 1.524 . S
C1107 C1111 1.400 1_554 S
C1108 H1093 0.960 1_554 S
C1108 H1094 0.947 1_554 S
C1108 H1095 0.960 . S
C1108 C1107 1.524 . S
C1109 C1106 1.403 1_556 S
C1109 C1110 1.392 1_455 S
C1109 C1113 1.495 . S
C1110 C1109 1.392 1_655 S
C1110 C1111 1.385 . S
C1110 C1112 1.478 . S
C1111 H1105 0.930 . S
C1111 C1107 1.400 1_556 S
C1111 C1110 1.385 . S
C1112 C1110 1.478 . S
C1112 C1114 1.381 . S
C1112 C1118 1.383 . S
C1113 C1109 1.495 . S
C1113 H1119 0.959 1_556 S
C1113 H1120 0.961 . S
C1113 H1121 0.960 . S
C1114 C1112 1.381 . S
C1114 C1115 1.394 . S
C1114 H1122 0.930 1_655 S
C1115 C1114 1.394 . S
C1115 C1116 1.383 . S
C1115 H1123 0.929 . S
C1116 C1115 1.383 . S
C1116 C1117 1.377 . S
C1117 H1101 0.930 . S
C1117 C1116 1.377 . S
C1117 C1118 1.379 . S
C1118 H1102 0.931 . S
C1118 C1112 1.383 . S
C1118 C1117 1.379 . S
H1119 C1113 0.959 1_554 S
H1120 C1113 0.961 . S
H1121 C1113 0.960 . S
H1122 C1114 0.930 1_455 S
H1123 C1115 0.929 . S
H1124 C1132 0.929 . S
H1125 C1134 0.930 . S
H1126 C1136 0.930 . S
H1127 C1139 0.929 . S
H1128 C1142 0.930 . S
H1129 C1144 0.960 . S
H1130 C1144 0.960 . S
H1131 C1144 0.960 . S
C1132 H1124 0.929 . S
C1132 C1133 1.377 . S
C1132 C1134 1.384 . S
C1133 C1132 1.377 . S
C1133 C1139 1.390 . S
C1134 H1125 0.930 . S
C1134 C1132 1.384 . S
C1134 C1135 1.372 . S
C1135 C1134 1.372 . S
C1135 C1136 1.400 . S
C1135 C1140 1.490 . S
C1136 H1126 0.930 . S
C1136 C1135 1.400 . S
C1136 C1139 1.386 . S
H1137 C1153 0.930 . S
H1138 C1154 0.931 . S
C1139 H1127 0.929 . S
C1139 C1133 1.390 . S
C1139 C1136 1.386 . S
C1140 C1135 1.490 . S
C1140 C1142 1.395 1_566 S
C1140 C1143 1.403 1_455 S
H1141 C1147 0.930 . S
C1142 H1128 0.930 . S
C1142 C1140 1.395 1_544 S
C1142 C1145 1.403 . S
C1143 C1140 1.403 1_655 S
C1143 C1144 1.524 . S
C1143 C1147 1.400 1_556 S
C1144 H1129 0.960 . S
C1144 H1130 0.960 . S
C1144 H1131 0.960 . S
C1144 C1143 1.524 . S
C1145 C1142 1.403 . S
C1145 C1146 1.392 1_455 S
C1145 C1149 1.495 . S
C1146 C1145 1.392 1_655 S
C1146 C1147 1.385 1_545 S
C1146 C1148 1.478 . S
C1147 H1141 0.930 . S
C1147 C1143 1.400 1_554 S
C1147 C1146 1.385 1_565 S
C1148 C1146 1.478 . S
C1148 C1150 1.381 . S
C1148 C1154 1.383 . S
C1149 C1145 1.495 . S
C1149 H1155 0.959 . S
C1149 H1156 0.961 . S
C1149 H1157 0.960 . S
C1150 C1148 1.381 . S
C1150 C1151 1.394 . S
C1150 H1158 0.930 . S
C1151 C1150 1.394 . S
C1151 C1152 1.383 . S
C1151 H1159 0.929 . S
C1152 C1151 1.383 . S
C1152 C1153 1.377 . S
C1153 H1137 0.930 . S
C1153 C1152 1.377 . S
C1153 C1154 1.379 . S
C1154 H1138 0.931 . S
C1154 C1148 1.383 . S
C1154 C1153 1.379 . S
H1155 C1149 0.959 . S
H1156 C1149 0.961 . S
H1157 C1149 0.960 . S
H1158 C1150 0.930 . S
H1159 C1151 0.929 . S
H1160 C1168 0.929 . S
H1161 C1170 0.930 . S
H1162 C1172 0.930 . S
H1163 C1175 0.929 . S
H1164 C1178 0.930 . S
H1165 C1180 0.960 . S
H1166 C1180 0.960 . S
H1167 C1180 0.960 1_565 S
C1168 H1160 0.929 . S
C1168 C1169 1.377 . S
C1168 C1170 1.384 . S
C1169 C1168 1.377 . S
C1169 C1175 1.390 . S
C1170 H1161 0.930 . S
C1170 C1168 1.384 . S
C1170 C1171 1.372 . S
C1171 C1170 1.372 . S
C1171 C1172 1.400 . S
C1171 C1176 1.490 . S
C1172 H1162 0.930 . S
C1172 C1171 1.400 . S
C1172 C1175 1.386 . S
H1173 C1189 0.930 . S
H1174 C1190 0.931 . S
C1175 H1163 0.929 . S
C1175 C1169 1.390 . S
C1175 C1172 1.386 . S
C1176 C1171 1.490 . S
C1176 C1178 1.395 . S
C1176 C1179 1.403 1_565 S
H1177 C1183 0.930 . S
C1178 H1164 0.930 . S
C1178 C1176 1.395 . S
C1178 C1181 1.403 1_554 S
C1179 C1176 1.403 1_545 S
C1179 C1180 1.524 . S
C1179 C1183 1.400 1_554 S
C1180 H1165 0.960 . S
C1180 H1166 0.960 . S
C1180 H1167 0.960 1_545 S
C1180 C1179 1.524 . S
C1181 C1178 1.403 1_556 S
C1181 C1182 1.392 1_565 S
C1181 C1185 1.495 . S
C1182 C1181 1.392 1_545 S
C1182 C1183 1.385 . S
C1182 C1184 1.478 . S
C1183 H1177 0.930 . S
C1183 C1179 1.400 1_556 S
C1183 C1182 1.385 . S
C1184 C1182 1.478 . S
C1184 C1186 1.381 . S
C1184 C1190 1.383 . S
C1185 C1181 1.495 . S
C1185 H1191 0.959 . S
C1185 H1192 0.961 . S
C1185 H1193 0.940 1_565 S
C1186 C1184 1.381 . S
C1186 C1187 1.394 . S
C1186 H1194 0.930 . S
C1187 C1186 1.394 . S
C1187 C1188 1.383 . S
C1187 H1195 0.929 . S
C1188 C1187 1.383 . S
C1188 C1189 1.377 . S
C1189 H1173 0.930 . S
C1189 C1188 1.377 . S
C1189 C1190 1.379 . S
C1190 H1174 0.931 . S
C1190 C1184 1.383 . S
C1190 C1189 1.379 . S
H1191 C1185 0.959 . S
H1192 C1185 0.961 . S
H1193 C1185 0.940 1_545 S
H1194 C1186 0.930 . S
H1195 C1187 0.929 . S
H1196 C1204 0.929 . S
H1197 C1206 0.930 . S
H1198 C1208 0.930 . S
H1199 C1211 0.929 . S
H1200 C1214 0.930 1_556 S
H1201 C1216 0.960 . S
H1202 C1216 0.960 . S
H1203 C1216 0.960 . S
C1204 H1196 0.929 . S
C1204 C1205 1.377 . S
C1204 C1206 1.384 . S
C1205 C1204 1.377 . S
C1205 C1211 1.390 . S
C1206 H1197 0.930 . S
C1206 C1204 1.384 . S
C1206 C1207 1.372 . S
C1207 C1206 1.372 . S
C1207 C1208 1.400 . S
C1207 C1212 1.490 . S
C1208 H1198 0.930 . S
C1208 C1207 1.400 . S
C1208 C1211 1.386 . S
H1209 C1225 0.930 . S
H1210 C1226 0.931 . S
C1211 H1199 0.929 . S
C1211 C1205 1.390 . S
C1211 C1208 1.386 . S
C1212 C1207 1.490 . S
C1212 C1214 1.396 1_556 S
C1212 C1215 1.403 . S
H1213 C1219 0.930 . S
C1214 H1200 0.930 1_554 S
C1214 C1212 1.396 1_554 S
C1214 C1217 1.402 . S
C1215 C1212 1.403 . S
C1215 C1216 1.524 . S
C1215 C1219 1.400 1_556 S
C1216 H1201 0.960 . S
C1216 H1202 0.960 . S
C1216 H1203 0.960 . S
C1216 C1215 1.524 . S
C1217 C1214 1.402 . S
C1217 C1218 1.392 . S
C1217 C1221 1.495 . S
C1218 C1217 1.392 . S
C1218 C1219 1.385 . S
C1218 C1220 1.478 . S
C1219 H1213 0.930 . S
C1219 C1215 1.400 1_554 S
C1219 C1218 1.385 . S
C1220 C1218 1.478 . S
C1220 C1222 1.381 . S
C1220 C1226 1.383 . S
C1221 C1217 1.495 . S
C1221 H1227 0.959 . S
C1221 H1228 0.961 . S
C1221 H1229 0.960 . S
C1222 C1220 1.381 . S
C1222 C1223 1.394 . S
C1222 H1230 0.930 . S
C1223 C1222 1.394 . S
C1223 C1224 1.383 . S
C1223 H1231 0.929 . S
C1224 C1223 1.383 . S
C1224 C1225 1.377 . S
C1225 H1209 0.930 . S
C1225 C1224 1.377 . S
C1225 C1226 1.379 . S
C1226 H1210 0.931 . S
C1226 C1220 1.383 . S
C1226 C1225 1.379 . S
H1227 C1221 0.959 . S
H1228 C1221 0.961 . S
H1229 C1221 0.960 . S
H1230 C1222 0.930 . S
H1231 C1223 0.929 . S
H1232 C1240 0.929 . S
H1233 C1242 0.930 . S
H1234 C1244 0.930 . S
H1235 C1247 0.929 . S
H1236 C1250 0.930 . S
H1237 C1252 0.960 . S
H1238 C1252 0.960 . S
H1239 C1252 0.960 . S
C1240 H1232 0.929 . S
C1240 C1241 1.377 . S
C1240 C1242 1.384 . S
C1241 C1240 1.377 . S
C1241 C1247 1.390 . S
C1242 H1233 0.930 . S
C1242 C1240 1.384 . S
C1242 C1243 1.372 . S
C1243 C1242 1.372 . S
C1243 C1244 1.400 . S
C1243 C1248 1.490 . S
C1244 H1234 0.930 . S
C1244 C1243 1.400 . S
C1244 C1247 1.386 . S
H1245 C1261 0.930 . S
H1246 C1262 0.931 . S
C1247 H1235 0.929 . S
C1247 C1241 1.390 . S
C1247 C1244 1.386 . S
C1248 C1243 1.490 . S
C1248 C1250 1.395 1_465 S
C1248 C1251 1.403 . S
H1249 C1255 0.932 . S
C1250 H1236 0.930 . S
C1250 C1248 1.395 1_645 S
C1250 C1253 1.403 . S
C1251 C1248 1.403 . S
C1251 C1252 1.524 . S
C1251 C1255 1.400 1_565 S
C1252 H1237 0.960 . S
C1252 H1238 0.960 . S
C1252 H1239 0.960 . S
C1252 C1251 1.524 . S
C1253 C1250 1.403 . S
C1253 C1254 1.392 . S
C1253 C1257 1.495 . S
C1254 C1253 1.392 . S
C1254 C1255 1.385 1_655 S
C1254 C1256 1.478 . S
C1255 H1249 0.932 . S
C1255 C1251 1.400 1_545 S
C1255 C1254 1.385 1_455 S
C1256 C1254 1.478 . S
C1256 C1258 1.381 . S
C1256 C1262 1.383 . S
C1257 C1253 1.495 . S
C1257 H1263 0.959 . S
C1257 H1264 0.961 . S
C1257 H1265 0.960 . S
C1258 C1256 1.381 . S
C1258 C1259 1.394 . S
C1258 H1266 0.930 . S
C1259 C1258 1.394 . S
C1259 C1260 1.383 . S
C1259 H1267 0.929 . S
C1260 C1259 1.383 . S
C1260 C1261 1.377 . S
C1261 H1245 0.930 . S
C1261 C1260 1.377 . S
C1261 C1262 1.379 . S
C1262 H1246 0.931 . S
C1262 C1256 1.383 . S
C1262 C1261 1.379 . S
H1263 C1257 0.959 . S
H1264 C1257 0.961 . S
H1265 C1257 0.960 . S
H1266 C1258 0.930 . S
H1267 C1259 0.929 . S
H1268 C1276 0.929 . S
H1269 C1278 0.930 1_565 S
H1270 C1280 0.930 . S
H1271 C1283 0.929 . S
H1272 C1286 0.930 . S
H1273 C1288 0.954 1_565 S
H1274 C1288 0.960 1_565 S
H1275 C1288 0.960 . S
C1276 H1268 0.929 . S
C1276 C1277 1.377 . S
C1276 C1278 1.384 . S
C1277 C1276 1.377 . S
C1277 C1283 1.390 . S
C1278 H1269 0.930 1_545 S
C1278 C1276 1.384 . S
C1278 C1279 1.372 . S
C1279 C1278 1.372 . S
C1279 C1280 1.400 . S
C1279 C1284 1.490 . S
C1280 H1270 0.930 . S
C1280 C1279 1.400 . S
C1280 C1283 1.386 . S
H1281 C1297 0.930 . S
H1282 C1298 0.931 1_545 S
C1283 H1271 0.929 . S
C1283 C1277 1.390 . S
C1283 C1280 1.386 . S
C1284 C1279 1.490 . S
C1284 C1286 1.395 . S
C1284 C1287 1.403 . S
H1285 C1291 0.930 . S
C1286 H1272 0.930 . S
C1286 C1284 1.395 . S
C1286 C1289 1.403 1_545 S
C1287 C1284 1.403 . S
C1287 C1288 1.524 . S
C1287 C1291 1.400 1_545 S
C1288 H1273 0.954 1_545 S
C1288 H1274 0.960 1_545 S
C1288 H1275 0.960 . S
C1288 C1287 1.524 . S
C1289 C1286 1.403 1_565 S
C1289 C1290 1.392 . S
C1289 C1293 1.495 . S
C1290 C1289 1.392 . S
C1290 C1291 1.385 . S
C1290 C1292 1.478 . S
C1291 H1285 0.930 . S
C1291 C1287 1.400 1_565 S
C1291 C1290 1.385 . S
C1292 C1290 1.478 . S
C1292 C1294 1.381 . S
C1292 C1298 1.383 . S
C1293 C1289 1.495 . S
C1293 H1299 0.959 . S
C1293 H1300 0.948 1_565 S
C1293 H1301 0.960 . S
C1294 C1292 1.381 . S
C1294 C1295 1.394 . S
C1294 H1302 0.930 . S
C1295 C1294 1.394 . S
C1295 C1296 1.383 . S
C1295 H1303 0.929 . S
C1296 C1295 1.383 . S
C1296 C1297 1.377 . S
C1297 H1281 0.930 . S
C1297 C1296 1.377 . S
C1297 C1298 1.379 . S
C1298 H1282 0.931 1_565 S
C1298 C1292 1.383 . S
C1298 C1297 1.379 . S
H1299 C1293 0.959 . S
H1300 C1293 0.948 1_545 S
H1301 C1293 0.960 . S
H1302 C1294 0.930 . S
H1303 C1295 0.929 . S
H1304 C1312 0.929 . S
H1305 C1314 0.930 . S
H1306 C1316 0.930 . S
H1307 C1319 0.929 . S
H1308 C1322 0.930 . S
H1309 C1324 0.960 . S
H1310 C1324 0.960 . S
H1311 C1324 0.960 . S
C1312 H1304 0.929 . S
C1312 C1313 1.377 . S
C1312 C1314 1.384 . S
C1313 C1312 1.377 . S
C1313 C1319 1.390 . S
C1314 H1305 0.930 . S
C1314 C1312 1.384 . S
C1314 C1315 1.372 . S
C1315 C1314 1.372 . S
C1315 C1316 1.400 . S
C1315 C1320 1.490 . S
C1316 H1306 0.930 . S
C1316 C1315 1.400 . S
C1316 C1319 1.386 . S
H1317 C1333 0.930 . S
H1318 C1334 0.931 . S
C1319 H1307 0.929 . S
C1319 C1313 1.390 . S
C1319 C1316 1.386 . S
C1320 C1315 1.490 . S
C1320 C1322 1.395 . S
C1320 C1323 1.403 . S
H1321 C1327 0.930 . S
C1322 H1308 0.930 . S
C1322 C1320 1.395 . S
C1322 C1325 1.403 . S
C1323 C1320 1.403 . S
C1323 C1324 1.524 . S
C1323 C1327 1.400 . S
C1324 H1309 0.960 . S
C1324 H1310 0.960 . S
C1324 H1311 0.960 . S
C1324 C1323 1.524 . S
C1325 C1322 1.403 . S
C1325 C1326 1.392 . S
C1325 C1329 1.495 . S
C1326 C1325 1.392 . S
C1326 C1327 1.385 . S
C1326 C1328 1.478 . S
C1327 H1321 0.930 . S
C1327 C1323 1.400 . S
C1327 C1326 1.385 . S
C1328 C1326 1.478 . S
C1328 C1330 1.381 . S
C1328 C1334 1.383 . S
C1329 C1325 1.495 . S
C1329 H1335 0.959 . S
C1329 H1336 0.961 . S
C1329 H1337 0.960 . S
C1330 C1328 1.381 . S
C1330 C1331 1.394 . S
C1330 H1338 0.930 . S
C1331 C1330 1.394 . S
C1331 C1332 1.383 . S
C1331 H1339 0.929 . S
C1332 C1331 1.383 . S
C1332 C1333 1.377 . S
C1333 H1317 0.930 . S
C1333 C1332 1.377 . S
C1333 C1334 1.379 . S
C1334 H1318 0.931 . S
C1334 C1328 1.383 . S
C1334 C1333 1.379 . S
H1335 C1329 0.959 . S
H1336 C1329 0.961 . S
H1337 C1329 0.960 . S
H1338 C1330 0.930 . S
H1339 C1331 0.929 . S
H1340 C1348 0.929 . S
H1341 C1350 0.930 . S
H1342 C1352 0.930 . S
H1343 C1355 0.929 . S
H1344 C1358 0.930 . S
H1345 C1360 0.960 . S
H1346 C1360 0.960 . S
H1347 C1360 0.960 . S
C1348 H1340 0.929 . S
C1348 C1349 1.377 . S
C1348 C1350 1.384 . S
C1349 C1348 1.377 . S
C1349 C1355 1.390 . S
C1350 H1341 0.930 . S
C1350 C1348 1.384 . S
C1350 C1351 1.372 . S
C1351 C1350 1.372 . S
C1351 C1352 1.400 . S
C1351 C1356 1.490 . S
C1352 H1342 0.930 . S
C1352 C1351 1.400 . S
C1352 C1355 1.386 . S
H1353 C1369 0.930 . S
H1354 C1370 0.931 . S
C1355 H1343 0.929 . S
C1355 C1349 1.390 . S
C1355 C1352 1.386 . S
C1356 C1351 1.490 . S
C1356 C1358 1.395 . S
C1356 C1359 1.403 1_655 S
H1357 C1363 0.930 . S
C1358 H1344 0.930 . S
C1358 C1356 1.395 . S
C1358 C1361 1.403 . S
C1359 C1356 1.403 1_455 S
C1359 C1360 1.524 . S
C1359 C1363 1.400 . S
C1360 H1345 0.960 . S
C1360 H1346 0.960 . S
C1360 H1347 0.960 . S
C1360 C1359 1.524 . S
C1361 C1358 1.403 . S
C1361 C1362 1.392 1_655 S
C1361 C1365 1.495 . S
C1362 C1361 1.392 1_455 S
C1362 C1363 1.385 . S
C1362 C1364 1.478 . S
C1363 H1357 0.930 . S
C1363 C1359 1.400 . S
C1363 C1362 1.385 . S
C1364 C1362 1.478 . S
C1364 C1366 1.381 . S
C1364 C1370 1.383 . S
C1365 C1361 1.495 . S
C1365 H1371 0.959 . S
C1365 H1372 0.961 . S
C1365 H1373 0.960 . S
C1366 C1364 1.381 . S
C1366 C1367 1.394 . S
C1366 H1374 0.930 . S
C1367 C1366 1.394 . S
C1367 C1368 1.383 . S
C1367 H1375 0.929 . S
C1368 C1367 1.383 . S
C1368 C1369 1.377 . S
C1369 H1353 0.930 . S
C1369 C1368 1.377 . S
C1369 C1370 1.379 . S
C1370 H1354 0.931 . S
C1370 C1364 1.383 . S
C1370 C1369 1.379 . S
H1371 C1365 0.959 . S
H1372 C1365 0.961 . S
H1373 C1365 0.960 . S
H1374 C1366 0.930 . S
H1375 C1367 0.929 . S
C233 C1 2.001 . S
C252 C41 1.990 . S
C269 C26 2.005 . S
C288 C54 1.986 . S
C305 C57 2.003 . S
C324 C96 1.986 . S
C341 C110 2.004 . S
C360 C82 1.996 . S
C377 C125 2.005 . S
C396 C153 1.995 . S
C413 C167 2.002 . S
C432 C127 2.011 . S
C449 C209 2.000 . S
C468 C180 2.001 . S
C485 C223 2.005 . S
C504 C183 1.998 . S
C521 C111 1.623 . S
C540 C0 1.646 . S
C557 C27 1.625 . S
C576 C56 1.599 . S
C593 C83 1.627 . S
C612 C40 1.603 . S
C629 C55 1.625 . S
C648 C97 1.597 . S
C665 C222 1.619 . S
C684 C124 1.597 . S
C701 C126 1.619 . S
C720 C181 1.598 . S
C737 C152 1.629 . S
C756 C182 1.637 . S
C773 C208 1.628 . S
C792 C166 1.630 . S
C809 C12 0.277 . S
C828 C68 0.203 . S
C845 C15 0.259 . S
C864 C71 0.308 . S
C881 C85 0.253 . S
C900 C28 0.331 . S
C917 C43 0.278 . S
C936 C99 0.208 . S
C953 C169 0.275 . S
C972 C112 0.284 . S
C989 C194 0.254 . S
C1008 C138 0.204 . S
C1025 C140 0.275 . S
C1044 C196 0.275 . S
C1061 C154 0.275 . S
C1080 C210 0.276 . S
C1097 C13 1.840 . S
C1116 C113 1.829 . S
C1133 C139 1.842 . S
C1152 C14 1.843 . S
C1169 C29 1.839 . S
C1188 C141 1.845 . S
C1205 C155 1.839 . S
C1224 C42 1.826 . S
C1241 C69 1.842 . S
C1260 C168 1.842 . S
C1277 C70 1.838 . S
C1296 C195 1.834 . S
C1313 C197 1.842 . S
C1332 C84 1.845 . S
C1349 C98 1.839 . S
C1368 C211 1.842 . S
