# Generated by pormake.
# Topology snp, (6)-cn, num edge types: 1
# Building blocks:
#     Node 0, Type 0, BuildingBlock: GEDQOX_clean_sbu_0, # of connection points: 6
#     Node 1, Type 0, BuildingBlock: GEDQOX_clean_sbu_0, # of connection points: 6
#     Node 2, Type 0, BuildingBlock: GEDQOX_clean_sbu_0, # of connection points: 6
#     Node 3, Type 0, BuildingBlock: GEDQOX_clean_sbu_0, # of connection points: 6
#     Edge 4, Type (0, 0), BuildingBlock: ZUJKAS_clean_linker_0, # of connection points: 2
#     Edge 5, Type (0, 0), BuildingBlock: ZUJKAS_clean_linker_0, # of connection points: 2
#     Edge 6, Type (0, 0), BuildingBlock: ZUJKAS_clean_linker_0, # of connection points: 2
#     Edge 7, Type (0, 0), BuildingBlock: ZUJKAS_clean_linker_0, # of connection points: 2
#     Edge 8, Type (0, 0), BuildingBlock: ZUJKAS_clean_linker_0, # of connection points: 2
#     Edge 9, Type (0, 0), BuildingBlock: ZUJKAS_clean_linker_0, # of connection points: 2
#     Edge 10, Type (0, 0), BuildingBlock: ZUJKAS_clean_linker_0, # of connection points: 2
#     Edge 11, Type (0, 0), BuildingBlock: ZUJKAS_clean_linker_0, # of connection points: 2
#     Edge 12, Type (0, 0), BuildingBlock: ZUJKAS_clean_linker_0, # of connection points: 2
#     Edge 13, Type (0, 0), BuildingBlock: ZUJKAS_clean_linker_0, # of connection points: 2
#     Edge 14, Type (0, 0), BuildingBlock: ZUJKAS_clean_linker_0, # of connection points: 2
#     Edge 15, Type (0, 0), BuildingBlock: ZUJKAS_clean_linker_0, # of connection points: 2
# Relax obj value: 0.189
# Max RMSD: 0.207
# Mean RMSD: 0.196
data_MOF--net-snp--node1-GEDQOX_clean_sbu_0--edge1-ZUJKAS_clean_linker_0
_symmetry_space_group_name_H-M    P1
_symmetry_Int_Tables_number       1
_symmetry_cell_setting            triclinic
loop_
_symmetry_equiv_pos_as_xyz
'x, y, z'
_cell_length_a     32.736139
_cell_length_b     32.095583
_cell_length_c     44.03483
_cell_angle_alpha  87.522881
_cell_angle_beta   102.11842
_cell_angle_gamma 94.735532
loop_
_atom_site_label
_atom_site_type_symbol
_atom_site_fract_x
_atom_site_fract_y
_atom_site_fract_z
_atom_type_partial_charge
Nd0 Nd 0.27342 0.03848 0.07652 0.0
Nd1 Nd 0.24236 0.10526 0.1126 0.0
C2 C 0.3069 0.98289 0.04848 0.0
C3 C 0.29736 0.9694 1.0158 0.0
C4 C 0.32967 0.96084 1.00101 0.0
C5 C 0.32059 0.94932 0.96975 0.0
C6 C 0.27895 0.94603 0.95269 0.0
C7 C 0.24677 0.95483 0.96764 0.0
C8 C 0.25585 0.96645 0.99872 0.0
C9 C 0.18787 0.04274 0.06293 0.0
C10 C 0.24989 0.12537 0.04014 0.0
C11 C 0.20776 0.15992 0.14086 0.0
C12 C 0.20133 0.16414 0.17278 0.0
C13 C 0.19789 0.12882 0.19233 0.0
C14 C 0.19211 0.13324 0.22263 0.0
C15 C 0.18999 0.17311 0.23411 0.0
C16 C 0.19371 0.20839 0.21444 0.0
C17 C 0.19927 0.20391 0.18409 0.0
C18 C 0.32704 0.09555 0.12692 0.0
C19 C 0.25475 0.01549 0.14602 0.0
O20 O 0.32369 0.0211 0.05335 0.0
O21 O 0.27783 0.97295 0.06446 0.0
O22 O 0.20972 0.03562 0.04264 0.0
O23 O 0.21155 0.0464 0.08933 0.0
O24 O 0.27362 0.09367 0.04218 0.0
O25 O 0.23129 0.13375 0.06286 0.0
O26 O 0.18644 0.12869 0.12513 0.0
O27 O 0.2465 0.16504 0.13718 0.0
O28 O 0.30532 0.10097 0.14769 0.0
O29 O 0.30432 0.0963 0.10015 0.0
O30 O 0.23102 0.0473 0.14176 0.0
O31 O 0.28028 0.00955 0.127 0.0
H32 H 0.36193 0.96315 1.01361 0.0
H33 H 0.34612 0.94251 0.95905 0.0
H34 H 0.21446 0.95337 0.95516 0.0
H35 H 0.23027 0.97335 1.00933 0.0
H36 H 0.1998 0.09778 0.18422 0.0
H37 H 0.18994 0.10545 0.23723 0.0
H38 H 0.19178 0.2395 0.22237 0.0
H39 H 0.20194 0.23156 0.16942 0.0
Nd40 Nd 0.03164 0.23743 0.65828 0.0
Nd41 Nd 0.95191 0.23663 0.687 0.0
C42 C 0.09947 0.25012 0.63436 0.0
C43 C 0.10736 0.24393 0.60314 0.0
C44 C 0.07406 0.23218 0.57861 0.0
C45 C 0.08142 0.22573 0.54905 0.0
C46 C 0.12234 0.23068 0.54337 0.0
C47 C 0.15564 0.24247 0.56812 0.0
C48 C 0.14818 0.24901 0.59771 0.0
C49 C 0.98934 0.16077 0.66164 0.0
C50 C 0.94175 0.23728 0.61022 0.0
C51 C 0.88604 0.21978 0.71288 0.0
C52 C 0.88114 0.20427 0.74422 0.0
C53 C 0.9096 0.17765 0.76195 0.0
C54 C 0.90529 0.16373 0.7918 0.0
C55 C 0.87262 0.17639 0.80479 0.0
C56 C 0.84442 0.2034 0.78704 0.0
C57 C 0.84861 0.2171 0.75707 0.0
C58 C 0.99248 0.31383 0.67988 0.0
C59 C 0.04241 0.23364 0.73354 0.0
O60 O 0.07495 0.27969 0.6364 0.0
O61 O 0.09096 0.21598 0.64994 0.0
O62 O 0.00884 0.17254 0.63963 0.0
O63 O 0.99493 0.18801 0.68223 0.0
O64 O 0.98261 0.24576 0.61397 0.0
O65 O 0.92274 0.23165 0.63412 0.0
O66 O 0.8988 0.19342 0.69564 0.0
O67 O 0.90433 0.25738 0.71133 0.0
O68 O 0.97514 0.30351 0.70333 0.0
O69 O 0.98608 0.2848 0.66083 0.0
O70 O 0.00237 0.22053 0.72917 0.0
O71 O 0.05971 0.24795 0.7102 0.0
H72 H 0.04229 0.22796 0.58232 0.0
H73 H 0.05491 0.21729 0.53056 0.0
H74 H 0.18759 0.24604 0.56478 0.0
H75 H 0.17432 0.2578 0.6164 0.0
H76 H 0.93537 0.16774 0.75278 0.0
H77 H 0.92796 0.14351 0.80492 0.0
H78 H 0.81872 0.21353 0.79616 0.0
H79 H 0.82645 0.23782 0.74392 0.0
Nd80 Nd 0.79483 0.90395 0.13489 0.0
Nd81 Nd 0.80741 0.98634 0.17359 0.0
C82 C 0.79402 0.84544 0.094 0.0
C83 C 0.81113 0.84124 0.06589 0.0
C84 C 0.84135 0.87095 0.05787 0.0
C85 C 0.85537 0.86774 0.03011 0.0
C86 C 0.83978 0.83444 1.01004 0.0
C87 C 0.81006 0.80442 1.01856 0.0
C88 C 0.7958 0.80791 0.04611 0.0
C89 C 0.72435 0.93255 0.14856 0.0
C90 C 0.81376 -0.00417 0.10036 0.0
C91 C 0.79847 0.05317 0.20391 0.0
C92 C 0.80602 0.06664 0.23666 0.0
C93 C 0.77195 0.06908 0.25117 0.0
C94 C 0.77825 0.08185 0.28192 0.0
C95 C 0.81883 0.09292 0.29899 0.0
C96 C 0.85295 0.09062 0.28438 0.0
C97 C 0.84664 0.07766 0.25363 0.0
C98 C 0.87691 0.94262 0.1791 0.0
C99 C 0.80478 0.89497 0.20936 0.0
O100 O 0.82097 0.84801 0.12053 0.0
O101 O 0.76466 0.87143 0.09154 0.0
O102 O 0.7306 0.89312 0.14879 0.0
O103 O 0.75379 0.95478 0.14033 0.0
O104 O 0.81139 0.9545 0.09988 0.0
O105 O 0.81069 0.01609 0.12532 0.0
O106 O 0.76833 0.02373 0.19567 0.0
O107 O 0.83117 0.04919 0.19163 0.0
O108 O 0.87128 0.96597 0.201 0.0
O109 O 0.84963 0.94764 0.15473 0.0
O110 O 0.79269 0.93359 0.20788 0.0
O111 O 0.81287 0.87731 0.1848 0.0
H112 H 0.85383 0.89678 0.07295 0.0
H113 H 0.87857 0.89116 1.02444 0.0
H114 H 0.79702 0.77868 1.00353 0.0
H115 H 0.77235 0.78477 0.0518 0.0
H116 H 0.74025 0.06101 0.23872 0.0
H117 H 0.75122 0.08263 0.29239 0.0
H118 H 0.8846 0.09951 0.29653 0.0
H119 H 0.87364 0.07649 0.24317 0.0
Nd120 Nd 0.10455 0.8152 0.56074 0.0
Nd121 Nd 0.02914 0.80142 0.59028 0.0
C122 C 0.16919 0.84233 0.53566 0.0
C123 C 0.17733 0.85092 0.50419 0.0
C124 C 0.14583 0.84283 0.47768 0.0
C125 C 0.15421 0.85049 0.44791 0.0
C126 C 0.19431 0.86638 0.44406 0.0
C127 C 0.22567 0.87451 0.47083 0.0
C128 C 0.21722 0.86684 0.50055 0.0
C129 C 0.08795 0.73434 0.5799 0.0
C130 C 0.01617 0.78821 0.51502 0.0
C131 C 0.96477 0.77976 0.6169 0.0
C132 C 0.95625 0.78204 0.64856 0.0
C133 C 0.98429 0.76806 0.67507 0.0
C134 C 0.97638 0.77242 0.70484 0.0
C135 C 0.94055 0.79127 0.70879 0.0
C136 C 0.91256 0.80507 0.68218 0.0
C137 C 0.92027 0.80038 0.65245 0.0
C138 C 0.04415 0.88228 0.56923 0.0
C139 C 0.11562 0.83124 0.63604 0.0
O140 O 0.14505 0.86727 0.54517 0.0
O141 O 0.16092 0.8031 0.54299 0.0
O142 O 0.10015 0.74399 0.55413 0.0
O143 O 0.08637 0.76646 0.59483 0.0
O144 O 0.05355 0.808 0.51683 0.0
O145 O 1.00163 0.77733 0.54041 0.0
O146 O 0.99136 0.75332 0.61262 0.0
O147 O 0.96933 0.8156 0.6023 0.0
O148 O 0.03735 0.87223 0.5967 0.0
O149 O 0.04606 0.84956 0.55507 0.0
O150 O 0.07868 0.81091 0.63441 0.0
O151 O 0.13075 0.8404 0.61065 0.0
H152 H 0.11484 0.83037 0.48001 0.0
H153 H 0.12941 0.84338 0.42793 0.0
H154 H 0.25668 0.88733 0.46885 0.0
H155 H 0.24193 0.87335 0.52073 0.0
H156 H 0.01259 0.75425 0.67288 0.0
H157 H 0.99882 0.76185 0.72483 0.0
H158 H 0.88444 0.81928 0.68431 0.0
H159 H 0.89825 0.81153 0.63242 0.0
H160 H 0.88394 0.86587 0.15904 0.0
H161 H 0.94293 0.84661 0.13789 0.0
H162 H 0.01596 0.95635 0.17817 0.0
H163 H 0.9565 0.97586 0.19831 0.0
H164 H 0.95755 0.90698 0.095 0.0
H165 H 0.10683 0.87853 0.17443 0.0
H166 H 0.05693 0.86774 0.18582 0.0
H167 H 0.08316 0.91956 0.18917 0.0
C168 C 0.91306 0.88497 0.16398 0.0
C169 C 0.91552 0.92304 0.17887 0.0
C170 C 0.94693 0.8736 0.15247 0.0
C171 C 0.98361 0.90025 0.15617 0.0
C172 C 0.9881 0.935 0.17534 0.0
H173 H 0.12947 0.06453 0.09281 0.0
H174 H 0.07348 0.0167 0.10608 0.0
C175 C 0.95405 0.94637 0.18673 0.0
C176 C 0.01041 0.90042 0.13318 0.0
H177 H 0.11179 0.92726 0.12934 0.0
C178 C 0.99145 0.90949 0.1021 0.0
C179 C 0.05444 0.90331 0.14234 0.0
C180 C 0.0764 0.89129 0.17476 0.0
C181 C 0.01521 0.92759 0.08133 0.0
C182 C 0.05857 0.93597 0.09202 0.0
C183 C 0.07817 0.92125 0.12153 0.0
C184 C 0.08251 0.9676 0.0765 0.0
C185 C 0.9935 0.94209 0.04945 0.0
C186 C 0.10363 0.95651 0.0539 0.0
C187 C 0.13493 0.98426 0.04572 0.0
C188 C 0.1457 0.02264 0.06076 0.0
C189 C 0.12141 0.03524 0.08086 0.0
C190 C 0.08977 0.00787 0.08858 0.0
H191 H 0.96085 0.92783 0.04299 0.0
H192 H 0.99259 0.97662 0.04901 0.0
H193 H 0.01118 0.93422 0.0318 0.0
H194 H 0.09826 0.92542 0.04451 0.0
H195 H 0.15361 0.97373 0.03035 0.0
H196 H 0.97818 0.8788 0.52033 0.0
H197 H 0.92511 0.92982 0.50962 0.0
H198 H 0.00744 0.01538 0.57172 0.0
H199 H 0.05946 0.96381 0.58353 0.0
H200 H 0.90218 0.94377 0.56786 0.0
H201 H 0.9362 0.09604 0.51131 0.0
H202 H 0.94556 0.04643 0.4968 0.0
H203 H 0.98262 0.0706 0.5284 0.0
C204 C 0.98583 0.90948 0.53028 0.0
C205 C 0.02265 0.9176 0.55294 0.0
C206 C 0.95546 0.93858 0.52404 0.0
C207 C 0.96235 0.97639 0.53973 0.0
C208 C 1.00175 0.98669 0.55887 0.0
H209 H 0.00511 0.07982 0.66732 0.0
H210 H 0.96358 0.02716 0.6335 0.0
C211 C 0.03151 0.9572 0.56579 0.0
C212 C 0.92672 -0.00175 0.54512 0.0
H213 H 0.91758 0.09848 0.56254 0.0
C214 C 0.9034 0.97761 0.56547 0.0
C215 C 0.92684 0.04207 0.54123 0.0
C216 C 0.94876 0.06511 0.51795 0.0
C217 C 0.88953 0.0002 0.58737 0.0
C218 C 0.89837 0.04386 0.58794 0.0
C219 C 0.91197 0.06467 0.56265 0.0
C220 C 0.9109 0.06497 0.61789 0.0
C221 C 0.87195 0.97699 0.61279 0.0
C222 C 0.89336 0.10182 0.62258 0.0
C223 C 0.91661 0.13118 0.64313 0.0
C224 C 0.95818 0.12481 0.65776 0.0
C225 C 0.97304 0.08542 0.65651 0.0
C226 C 0.94924 0.05536 0.63699 0.0
H227 H 0.85354 0.94773 0.60402 0.0
H228 H 0.89819 0.96826 0.63177 0.0
H229 H 0.85178 -0.00326 0.62254 0.0
H230 H 0.86389 0.10983 0.60804 0.0
H231 H 0.9038 0.16066 0.64422 0.0
H232 H 0.65892 0.8897 0.16837 0.0
H233 H 0.59213 0.91652 0.172 0.0
H234 H 0.63546 0.03897 0.14202 0.0
H235 H 0.70244 0.01264 0.13909 0.0
H236 H 0.59188 0.04236 0.18885 0.0
H237 H 0.50446 0.94018 0.09428 0.0
H238 H 0.5334 0.91282 0.12722 0.0
H239 H 0.56089 0.94694 0.10351 0.0
C240 C 0.65421 0.92239 0.16282 0.0
C241 C 0.68551 0.94903 0.15312 0.0
C242 C 0.61609 0.93761 0.16478 0.0
C243 C 0.60861 0.97951 0.15668 0.0
C244 C 0.64056 0.0065 0.14826 0.0
H245 H 0.37739 0.08919 0.08602 0.0
H246 H 0.44645 0.06154 0.0961 0.0
C247 C 0.67873 0.9914 0.14651 0.0
C248 C 0.56693 -0.00499 0.15534 0.0
H249 H 0.46485 0.98305 0.11705 0.0
C250 C 0.56399 0.02931 0.1733 0.0
C251 C 0.53081 0.97818 0.13471 0.0
C252 C 0.53241 0.94275 0.1136 0.0
C253 C 0.52591 0.04764 0.17087 0.0
C254 C 0.48979 0.03061 0.15037 0.0
C255 C 0.49262 -0.00412 0.13284 0.0
C256 C 0.44913 0.04959 0.14523 0.0
C257 C 0.52505 0.08595 0.18936 0.0
C258 C 0.42787 0.05226 0.16957 0.0
C259 C 0.38851 0.06843 0.16388 0.0
C260 C 0.36975 0.08158 0.1337 0.0
C261 C 0.39122 0.07921 0.10948 0.0
C262 C 0.43058 0.06339 0.11521 0.0
H263 H 0.55702 0.10077 0.19811 0.0
H264 H 0.50577 0.10946 0.17512 0.0
H265 H 0.51093 0.07683 0.20971 0.0
H266 H 0.44124 0.04096 0.19276 0.0
H267 H 0.3723 0.06955 0.18286 0.0
H268 H 0.01908 0.34174 0.6276 0.0
H269 H 0.04021 0.41367 0.61375 0.0
H270 H 0.02213 0.45471 0.70167 0.0
H271 H 1.00083 0.38255 0.7157 0.0
H272 H 0.98104 0.50004 0.64931 0.0
H273 H 0.14811 0.48735 0.64609 0.0
H274 H 0.11259 0.44871 0.62403 0.0
H275 H 0.11856 0.44876 0.66555 0.0
C276 C 0.02031 0.36596 0.64422 0.0
C277 C 0.00847 0.35663 0.67277 0.0
C278 C 0.03251 0.407 0.63631 0.0
C279 C 0.03322 0.43938 0.65686 0.0
C280 C 0.02201 0.43005 0.6856 0.0
H281 H 0.06892 0.71037 0.63564 0.0
H282 H 0.05601 0.63906 0.65524 0.0
C283 C 0.0099 0.38892 0.69358 0.0
C284 C 0.04273 0.48326 0.6473 0.0
H285 H 0.11777 0.54942 0.62366 0.0
C286 C 0.01106 0.51103 0.64399 0.0
C287 C 0.08181 0.49727 0.64019 0.0
C288 C 0.11739 0.46911 0.64438 0.0
C289 C 0.01704 0.55226 0.63294 0.0
C290 C 0.05604 0.56622 0.62562 0.0
C291 C 0.08787 0.53856 0.62923 0.0
C292 C 0.06433 0.60939 0.61395 0.0
C293 C 0.98111 0.58008 0.62829 0.0
C294 C 0.0743 0.61628 0.58456 0.0
C295 C 0.08197 0.65699 0.5734 0.0
C296 C 0.07995 0.69136 0.59154 0.0
C297 C 0.07038 0.6844 0.62108 0.0
C298 C 0.06281 0.64373 0.63224 0.0
H299 H 0.95059 0.56169 0.62723 0.0
H300 H 0.98596 0.60142 0.64811 0.0
H301 H 0.97937 0.59946 0.60661 0.0
H302 H 0.07577 0.59014 0.57016 0.0
H303 H 0.08936 0.66154 0.55058 0.0
H304 H 0.17754 0.27519 0.51267 0.0
H305 H 0.18928 0.26397 0.46064 0.0
H306 H 0.09668 0.15918 0.45033 0.0
H307 H 0.08503 0.1698 0.5024 0.0
H308 H 0.21493 0.19354 0.43618 0.0
H309 H 0.05669 0.23126 0.37243 0.0
H310 H 0.07652 0.24387 0.41265 0.0
H311 H 0.05652 0.1914 0.40231 0.0
C312 C 0.15986 0.24952 0.49948 0.0
C313 C 0.1301 0.2236 0.51178 0.0
C314 C 0.16649 0.24329 0.46964 0.0
C315 C 0.14336 0.21119 0.45133 0.0
C316 C 0.11419 0.18479 0.46369 0.0
H317 H 0.1373 0.12556 0.26507 0.0
H318 H 0.12737 0.13374 0.31805 0.0
C319 C 0.10755 0.19096 0.49352 0.0
C320 C 0.15009 0.20506 0.41945 0.0
H321 H 0.1007 0.20406 0.34288 0.0
C322 C 0.19 0.19601 0.41577 0.0
C323 C 0.11754 0.20819 0.3928 0.0
C324 C 0.07449 0.21958 0.39508 0.0
C325 C 0.19806 0.18939 0.38626 0.0
C326 C 0.16552 0.1926 0.35962 0.0
C327 C 0.12559 0.20153 0.36331 0.0
C328 C 0.17234 0.18723 0.32769 0.0
C329 C 0.24111 0.17816 0.38389 0.0
C330 C 0.20066 0.21479 0.31534 0.0
C331 C 0.20645 0.21017 0.28508 0.0
C332 C 0.18398 0.17789 0.26644 0.0
C333 C 0.15553 0.1504 0.27888 0.0
C334 C 0.14963 0.15518 0.30911 0.0
H335 H 0.25902 0.16654 0.40652 0.0
H336 H 0.23906 0.15387 0.36631 0.0
H337 H 0.25893 0.20638 0.37657 0.0
H338 H 0.21805 0.24017 0.32904 0.0
H339 H 0.22883 0.23171 0.27638 0.0
H340 H 0.85356 0.2211 0.85125 0.0
H341 H 0.8465 0.19614 0.90343 0.0
H342 H 0.87311 0.07252 0.88236 0.0
H343 H 0.88071 0.09733 0.83044 0.0
H344 H 0.79327 0.13787 0.92282 0.0
H345 H 0.95438 0.08958 0.96355 0.0
H346 H 0.93942 0.1207 0.92846 0.0
H347 H 0.92861 0.06475 0.92822 0.0
C348 C 0.85787 0.18857 0.85771 0.0
C349 C 0.86802 0.16133 0.83663 0.0
C350 C 0.85397 0.17436 0.88764 0.0
C351 C 0.86014 0.13258 0.89724 0.0
C352 C 0.8695 0.10518 0.87602 0.0
H353 H 0.82701 0.96361 0.0471 0.0
H354 H 0.83891 0.00056 1.00002 0.0
C355 C 0.8737 0.11941 0.84621 0.0
C356 C 0.85551 0.11725 0.929 0.0
H357 H 0.90406 0.06343 0.9935 0.0
C358 C 0.81773 0.12209 0.93844 0.0
C359 C 0.88747 0.09686 0.94962 0.0
C360 C 0.92989 0.09305 0.9421 0.0
C361 C 0.81039 0.10552 0.96714 0.0
C362 C 0.84176 0.08378 0.98715 0.0
C363 C 0.87993 0.07994 0.97813 0.0
C364 C 0.83459 0.06219 1.01648 0.0
C365 C 0.7685 0.10992 0.97534 0.0
C366 C 0.8285 0.0845 0.0418 0.0
C367 C 0.82182 0.0633 0.06918 0.0
C368 C 0.82102 0.01935 0.07172 0.0
C369 C 0.82734 -0.00263 0.04625 0.0
C370 C 0.83423 0.0185 1.01914 0.0
H371 H 0.7452 0.12129 0.95522 0.0
H372 H 0.75587 0.07951 0.98391 0.0
H373 H 0.77248 0.13263 0.99423 0.0
H374 H 0.82922 0.11832 0.04046 0.0
H375 H 0.81722 0.0813 0.08826 0.0
H376 H 0.92991 0.77848 0.49953 0.0
H377 H 0.88574 0.78681 0.44744 0.0
H378 H 0.99605 0.79961 0.40786 0.0
H379 H 0.0401 0.79151 0.45941 0.0
H380 H 0.94441 0.86681 0.39377 0.0
H381 H 0.85328 0.7137 0.36861 0.0
H382 H 0.85404 0.73547 0.40573 0.0
H383 H 0.90153 0.71908 0.39742 0.0
C384 C 0.94463 0.78184 0.47962 0.0
C385 C 0.98857 0.78451 0.48368 0.0
C386 C 0.91934 0.78663 0.44984 0.0
C387 C 0.93759 0.7938 0.42371 0.0
C388 C 0.98126 0.79416 0.42764 0.0
H389 H 0.84594 0.82348 0.22549 0.0
H390 H 0.87337 0.79651 0.2781 0.0
C391 C 0.00641 0.7895 0.45721 0.0
C392 C 0.91226 0.80547 0.39278 0.0
H393 H 0.8368 0.76896 0.33172 0.0
C394 C 0.92077 0.84544 0.38027 0.0
C395 C 0.88161 0.7775 0.37512 0.0
C396 C 0.87207 0.73388 0.38716 0.0
C397 C 0.89979 0.85815 0.35058 0.0
C398 C 0.86888 0.83036 0.33294 0.0
C399 C 0.86024 0.79033 0.34538 0.0
C400 C 0.84659 0.84236 0.30112 0.0
C401 C 0.91169 0.90094 0.33802 0.0
C402 C 0.82103 0.87604 0.29652 0.0
C403 C 0.80536 0.89159 0.26652 0.0
C404 C 0.81473 0.87363 0.24041 0.0
C405 C 0.83803 0.83809 0.245 0.0
C406 C 0.85379 0.82261 0.27509 0.0
H407 H 0.94201 0.91467 0.3515 0.0
H408 H 0.91404 0.89951 0.31329 0.0
H409 H 0.88716 0.92227 0.33936 0.0
H410 H 0.81456 0.89139 0.31625 0.0
H411 H 0.78728 0.91879 0.26395 0.0
H412 H 0.09461 0.81138 0.69186 0.0
H413 H 0.1315 0.83239 0.74333 0.0
H414 H 0.22837 0.89965 0.70394 0.0
H415 H 0.19107 0.87894 0.65161 0.0
H416 H 0.21248 0.81659 0.77489 0.0
H417 H 0.19399 0.98741 0.75783 0.0
H418 H 0.16358 0.94939 0.73152 0.0
H419 H 0.21747 0.96323 0.73029 0.0
C420 C 0.12375 0.83069 0.69387 0.0
C421 C 0.13973 0.84357 0.66736 0.0
C422 C 0.14488 0.84262 0.7235 0.0
C423 C 0.18249 0.86796 0.72759 0.0
C424 C 0.19903 0.88061 0.70133 0.0
H425 H 0.32059 0.97104 0.90601 0.0
H426 H 0.30216 0.9516 0.85124 0.0
C427 C 0.17782 0.86853 0.67144 0.0
C428 C 0.20384 0.88047 0.75957 0.0
H429 H 0.22744 0.96401 0.80751 0.0
C430 C 0.21611 0.84888 0.78194 0.0
C431 C 0.20869 0.92261 0.76881 0.0
C432 C 0.19504 0.95774 0.74602 0.0
C433 C 0.2322 0.85812 0.8133 0.0
C434 C 0.23551 0.90006 0.82278 0.0
C435 C 0.22478 0.93187 0.80025 0.0
C436 C 0.2476 0.91114 0.85617 0.0
C437 C 0.2453 0.82277 0.83604 0.0
C438 C 0.22295 0.89515 0.87715 0.0
C439 C 0.23344 0.90608 0.9084 0.0
C440 C 0.26877 0.93349 0.91948 0.0
C441 C 0.2935 0.94946 0.89841 0.0
C442 C 0.28285 0.9386 0.86704 0.0
H443 H 0.25278 0.7954 0.82416 0.0
H444 H 0.27307 0.83284 0.8541 0.0
H445 H 0.21916 0.81249 0.84776 0.0
H446 H 0.1952 0.8745 0.86927 0.0
H447 H 0.21385 0.89289 0.92394 0.0
H448 H 0.85051 0.89699 0.96718 0.0
H449 H 0.869 0.89044 0.91654 0.0
H450 H 0.87978 0.75827 0.93471 0.0
H451 H 0.86067 0.76449 0.985 0.0
H452 H 0.93697 0.86546 0.89883 0.0
H453 H 0.80008 0.75685 0.85182 0.0
H454 H 0.80435 0.78414 0.88743 0.0
H455 H 0.83104 0.73731 0.88728 0.0
C456 C 0.85706 0.86657 0.96046 0.0
C457 C 0.85362 0.83117 0.98004 0.0
C458 C 0.8675 0.86283 0.93143 0.0
C459 C 0.87481 0.82366 0.92134 0.0
C460 C 0.87297 0.7886 0.9414 0.0
H461 H 0.94872 0.73487 0.75798 0.0
H462 H 0.93417 0.74383 0.80964 0.0
C463 C 0.86218 0.79223 0.97026 0.0
C464 C 0.88445 0.81944 0.88997 0.0
H465 H 0.85353 0.76607 0.82233 0.0
C466 C 0.91854 0.8439 0.88207 0.0
C467 C 0.86034 0.79146 0.86788 0.0
C468 C 0.82166 0.76627 0.87386 0.0
C469 C 0.92965 0.84046 0.85311 0.0
C470 C 0.906 0.81194 0.83136 0.0
C471 C 0.87184 0.78766 0.83913 0.0
C472 C 0.91591 0.80711 0.80026 0.0
C473 C 0.96709 0.86678 0.84613 0.0
C474 C 0.91022 0.83959 0.77773 0.0
C475 C 0.91831 0.83449 0.74815 0.0
C476 C 0.93245 0.79682 0.74047 0.0
C477 C 0.93832 0.76442 0.76319 0.0
C478 C 0.92983 0.76942 0.79268 0.0
H479 H 0.98677 0.88108 0.86735 0.0
H480 H 0.98674 0.8477 0.83533 0.0
H481 H 0.95612 0.89233 0.82937 0.0
H482 H 0.89906 0.86877 0.78293 0.0
H483 H 0.91377 0.86021 0.73133 0.0
H484 H 0.31549 0.9698 0.18278 0.0
H485 H 0.31025 0.9321 0.23203 0.0
H486 H 0.1815 0.96167 0.21948 0.0
H487 H 0.18634 -0.00167 0.17081 0.0
H488 H 0.29307 0.96787 0.28355 0.0
H489 H 0.17228 0.83993 0.24524 0.0
H490 H 0.19883 0.86977 0.21844 0.0
H491 H 0.15469 0.88955 0.23013 0.0
C492 C 0.28586 0.96716 0.19023 0.0
C493 C 0.25138 0.98702 0.17296 0.0
C494 C 0.28292 0.94588 0.21842 0.0
C495 C 0.24528 0.94355 0.22935 0.0
C496 C 0.21058 0.96213 0.21138 0.0
H497 H 0.14356 0.89932 0.39238 0.0
H498 H 0.15912 0.91416 0.34087 0.0
C499 C 0.21356 0.98345 0.18359 0.0
C500 C 0.24266 0.92554 0.26072 0.0
H501 H 0.18077 0.86032 0.29867 0.0
C502 C 0.26912 0.9437 0.28689 0.0
C503 C 0.21119 0.8942 0.26514 0.0
C504 C 0.18295 0.87197 0.23819 0.0
C505 C 0.26351 0.93308 0.31718 0.0
C506 C 0.23095 0.90294 0.32149 0.0
C507 C 0.20554 0.88361 0.29539 0.0
C508 C 0.22149 0.89249 0.35271 0.0
C509 C 0.29109 0.95578 0.3442 0.0
C510 C 0.25108 0.87472 0.37645 0.0
C511 C 0.24221 0.86603 0.40595 0.0
C512 C 0.20342 0.87471 0.41237 0.0
C513 C 0.17357 0.89181 0.3883 0.0
C514 C 0.18249 0.90049 0.35882 0.0
H515 H 0.30837 0.98417 0.3365 0.0
H516 H 0.27226 0.96513 0.36067 0.0
H517 H 0.31444 0.93463 0.3569 0.0
H518 H 0.28104 0.86741 0.37213 0.0
H519 H 0.26565 0.8521 0.42367 0.0
H520 H 0.01687 0.20554 0.78642 0.0
H521 H 0.05983 0.19583 0.83816 0.0
H522 H 0.17 0.24321 0.80488 0.0
H523 H 0.12709 0.25337 0.75268 0.0
H524 H 0.12783 0.14379 0.85192 0.0
H525 H 0.17618 0.30842 0.88594 0.0
H526 H 0.13187 0.29471 0.85506 0.0
H527 H 0.18416 0.29383 0.84873 0.0
C528 C 0.05017 0.2143 0.79 0.0
C529 C 0.06853 0.23014 0.76528 0.0
C530 C 0.07467 0.20872 0.81966 0.0
C531 C 0.11799 0.21909 0.82539 0.0
C532 C 0.13649 0.2356 0.80101 0.0
H533 H 0.28302 0.11792 0.98867 0.0
H534 H 0.2563 0.14504 0.93621 0.0
C535 C 0.11194 0.24117 0.77118 0.0
C536 C 0.14371 0.20994 0.85651 0.0
H537 H 0.2032 0.25529 0.92162 0.0
C538 C 0.14456 0.16812 0.8671 0.0
C539 C 0.16519 0.24184 0.87624 0.0
C540 C 0.16426 0.28731 0.86616 0.0
C541 C 0.16589 0.15728 0.89707 0.0
C542 C 0.18747 0.18912 0.91686 0.0
C543 C 0.18693 0.23099 0.90625 0.0
C544 C 0.20864 0.1792 0.9492 0.0
C545 C 0.16406 0.1119 0.90769 0.0
C546 C 0.19208 0.19126 0.97411 0.0
C547 C 0.20737 0.17595 1.00424 0.0
C548 C 0.23947 0.14829 1.00989 0.0
C549 C 0.25799 0.13881 0.98516 0.0
C550 C 0.24274 0.1542 0.95511 0.0
H551 H 0.13938 0.09258 0.89199 0.0
H552 H 0.19465 0.09916 0.90803 0.0
H553 H 0.15794 0.10868 0.93158 0.0
H554 H 0.1658 0.21067 0.96999 0.0
H555 H 0.19246 0.18402 1.02271 0.0
H556 H 0.88278 0.07641 0.34852 0.0
H557 H 0.89436 0.10173 0.40141 0.0
H558 H 0.78088 0.16587 0.37709 0.0
H559 H 0.77008 0.1424 0.32378 0.0
H560 H 0.84328 0.21541 0.40852 0.0
H561 H 0.83871 0.06299 0.47205 0.0
H562 H 0.87671 0.06684 0.44789 0.0
H563 H 0.82189 0.06771 0.43035 0.0
C564 C 0.86033 0.09608 0.3543 0.0
C565 C 0.8254 0.10721 0.33169 0.0
C566 C 0.86667 0.11001 0.38478 0.0
C567 C 0.83804 0.13503 0.39354 0.0
C568 C 0.80321 0.14624 0.37106 0.0
H569 H 0.86459 0.19475 0.59095 0.0
H570 H 0.83301 0.17207 0.53805 0.0
C571 C 0.79692 0.13249 0.34056 0.0
C572 C 0.84564 0.15152 0.42557 0.0
H573 H 0.86637 0.12265 0.50262 0.0
C574 C 0.848 0.19502 0.42906 0.0
C575 C 0.85103 0.12507 0.45251 0.0
C576 C 0.84652 0.07805 0.45057 0.0
C577 C 0.85741 0.2128 0.45857 0.0
C578 C 0.86541 0.18646 0.48546 0.0
C579 C 0.86095 0.14291 0.48205 0.0
C580 C 0.88173 0.20343 0.51703 0.0
C581 C 0.85872 0.25972 0.46058 0.0
C582 C 0.91935 0.22884 0.52283 0.0
C583 C 0.93721 0.24198 0.55283 0.0
C584 C 0.91817 0.22971 0.57799 0.0
C585 C 0.87979 0.20526 0.57209 0.0
C586 C 0.86188 0.192 0.54189 0.0
H587 H 0.83809 0.27359 0.43998 0.0
H588 H 0.84897 0.26895 0.48186 0.0
H589 H 0.89118 0.27322 0.46115 0.0
H590 H 0.9359 0.23726 0.50433 0.0
H591 H 0.96693 0.26052 0.55644 0.0
loop_
_geom_bond_atom_site_label_1
_geom_bond_atom_site_label_2
_geom_bond_distance
_geom_bond_site_symmetry_2
_ccdc_geom_bond_type
Nd0 C2 2.836 1_554 S
Nd0 O20 2.500 . S
Nd0 O21 2.492 . S
Nd0 O22 2.487 . S
Nd0 O23 2.682 1_565 S
Nd0 O24 2.410 1_565 S
Nd0 O29 2.414 1_565 S
Nd0 O31 2.424 . S
Nd1 C11 2.836 . S
Nd1 O23 2.414 . S
Nd1 O25 2.424 . S
Nd1 O26 2.500 . S
Nd1 O27 2.492 . S
Nd1 O28 2.487 . S
Nd1 O29 2.682 . S
Nd1 O30 2.410 . S
C2 Nd0 2.836 1_556 S
C2 C3 1.498 . S
C2 O20 1.258 1_556 S
C2 O21 1.239 1_556 S
C3 C2 1.498 . S
C3 C4 1.366 . S
C3 C8 1.407 . S
C4 C3 1.366 . S
C4 C5 1.392 . S
C4 H32 0.930 . S
C5 C4 1.392 . S
C5 C6 1.398 . S
C5 H33 0.929 . S
C6 C5 1.398 . S
C6 C7 1.352 . S
C7 C6 1.352 . S
C7 C8 1.384 . S
C7 H34 0.930 . S
C8 C3 1.407 . S
C8 C7 1.384 . S
C8 H35 0.929 . S
C9 O22 1.241 1_545 S
C9 O23 1.273 . S
C10 O24 1.251 . S
C10 O25 1.268 . S
C11 Nd1 2.836 . S
C11 C12 1.498 . S
C11 O26 1.258 . S
C11 O27 1.239 . S
C12 C11 1.498 . S
C12 C13 1.366 . S
C12 C17 1.407 . S
C13 C12 1.366 . S
C13 C14 1.392 . S
C13 H36 0.930 . S
C14 C13 1.392 . S
C14 C15 1.398 . S
C14 H37 0.929 . S
C15 C14 1.398 . S
C15 C16 1.352 . S
C16 C15 1.352 . S
C16 C17 1.384 . S
C16 H38 0.930 . S
C17 C12 1.407 . S
C17 C16 1.384 . S
C17 H39 0.929 . S
C18 O28 1.241 . S
C18 O29 1.273 . S
C19 O30 1.251 1_565 S
C19 O31 1.268 . S
O20 Nd0 2.500 . S
O20 C2 1.258 1_554 S
O21 Nd0 2.492 . S
O21 C2 1.239 1_554 S
O22 Nd0 2.487 . S
O22 C9 1.241 1_565 S
O23 Nd0 2.682 1_545 S
O23 Nd1 2.414 . S
O23 C9 1.273 . S
O24 Nd0 2.410 1_545 S
O24 C10 1.251 . S
O25 Nd1 2.424 . S
O25 C10 1.268 . S
O26 Nd1 2.500 . S
O26 C11 1.258 . S
O27 Nd1 2.492 . S
O27 C11 1.239 . S
O28 Nd1 2.487 . S
O28 C18 1.241 . S
O29 Nd0 2.414 1_545 S
O29 Nd1 2.682 . S
O29 C18 1.273 . S
O30 Nd1 2.410 . S
O30 C19 1.251 1_545 S
O31 Nd0 2.424 . S
O31 C19 1.268 . S
H32 C4 0.930 . S
H33 C5 0.929 . S
H34 C7 0.930 . S
H35 C8 0.929 . S
H36 C13 0.930 . S
H37 C14 0.929 . S
H38 C16 0.930 . S
H39 C17 0.929 . S
Nd40 C42 2.836 . S
Nd40 O60 2.500 . S
Nd40 O61 2.492 . S
Nd40 O62 2.487 . S
Nd40 O63 2.682 . S
Nd40 O64 2.410 . S
Nd40 O69 2.414 . S
Nd40 O71 2.424 . S
Nd41 C51 2.836 . S
Nd41 O63 2.414 1_655 S
Nd41 O65 2.424 . S
Nd41 O66 2.500 . S
Nd41 O67 2.492 . S
Nd41 O68 2.487 1_655 S
Nd41 O69 2.682 1_655 S
Nd41 O70 2.410 1_655 S
C42 Nd40 2.836 . S
C42 C43 1.498 . S
C42 O60 1.258 . S
C42 O61 1.239 . S
C43 C42 1.498 . S
C43 C44 1.366 . S
C43 C48 1.407 . S
C44 C43 1.366 . S
C44 C45 1.392 . S
C44 H72 0.930 . S
C45 C44 1.392 . S
C45 C46 1.398 . S
C45 H73 0.929 . S
C46 C45 1.398 . S
C46 C47 1.352 . S
C47 C46 1.352 . S
C47 C48 1.384 . S
C47 H74 0.930 . S
C48 C43 1.407 . S
C48 C47 1.384 . S
C48 H75 0.929 . S
C49 O62 1.241 . S
C49 O63 1.273 . S
C50 O64 1.251 . S
C50 O65 1.268 1_455 S
C51 Nd41 2.836 . S
C51 C52 1.498 . S
C51 O66 1.258 . S
C51 O67 1.239 . S
C52 C51 1.498 . S
C52 C53 1.366 . S
C52 C57 1.407 . S
C53 C52 1.366 . S
C53 C54 1.392 . S
C53 H76 0.930 . S
C54 C53 1.392 . S
C54 C55 1.398 . S
C54 H77 0.929 . S
C55 C54 1.398 . S
C55 C56 1.352 . S
C56 C55 1.352 . S
C56 C57 1.384 . S
C56 H78 0.930 . S
C57 C52 1.407 . S
C57 C56 1.384 . S
C57 H79 0.929 . S
C58 O68 1.241 . S
C58 O69 1.273 . S
C59 O70 1.251 . S
C59 O71 1.268 . S
O60 Nd40 2.500 . S
O60 C42 1.258 . S
O61 Nd40 2.492 . S
O61 C42 1.239 . S
O62 Nd40 2.487 . S
O62 C49 1.241 . S
O63 Nd40 2.682 . S
O63 Nd41 2.414 1_455 S
O63 C49 1.273 . S
O64 Nd40 2.410 . S
O64 C50 1.251 . S
O65 Nd41 2.424 . S
O65 C50 1.268 1_655 S
O66 Nd41 2.500 . S
O66 C51 1.258 . S
O67 Nd41 2.492 . S
O67 C51 1.239 . S
O68 Nd41 2.487 1_455 S
O68 C58 1.241 . S
O69 Nd40 2.414 . S
O69 Nd41 2.682 1_455 S
O69 C58 1.273 . S
O70 Nd41 2.410 1_455 S
O70 C59 1.251 . S
O71 Nd40 2.424 . S
O71 C59 1.268 . S
H72 C44 0.930 . S
H73 C45 0.929 . S
H74 C47 0.930 . S
H75 C48 0.929 . S
H76 C53 0.930 . S
H77 C54 0.929 . S
H78 C56 0.930 . S
H79 C57 0.929 . S
Nd80 C82 2.836 . S
Nd80 O100 2.500 . S
Nd80 O101 2.492 . S
Nd80 O102 2.487 . S
Nd80 O103 2.682 1_565 S
Nd80 O104 2.410 1_565 S
Nd80 O109 2.414 1_565 S
Nd80 O111 2.424 . S
Nd81 C91 2.836 . S
Nd81 O103 2.414 . S
Nd81 O105 2.424 . S
Nd81 O106 2.500 . S
Nd81 O107 2.492 . S
Nd81 O108 2.487 . S
Nd81 O109 2.682 . S
Nd81 O110 2.410 . S
C82 Nd80 2.836 . S
C82 C83 1.498 . S
C82 O100 1.258 . S
C82 O101 1.239 . S
C83 C82 1.498 . S
C83 C84 1.366 1_554 S
C83 C88 1.407 1_554 S
C84 C83 1.366 1_556 S
C84 C85 1.392 . S
C84 H112 0.930 1_556 S
C85 C84 1.392 . S
C85 C86 1.398 . S
C85 H113 0.929 . S
C86 C85 1.398 . S
C86 C87 1.352 . S
C87 C86 1.352 . S
C87 C88 1.384 . S
C87 H114 0.930 . S
C88 C83 1.407 1_556 S
C88 C87 1.384 . S
C88 H115 0.929 1_556 S
C89 O102 1.242 1_545 S
C89 O103 1.273 . S
C90 O104 1.251 . S
C90 O105 1.268 . S
C91 Nd81 2.836 . S
C91 C92 1.498 . S
C91 O106 1.258 . S
C91 O107 1.239 . S
C92 C91 1.498 . S
C92 C93 1.366 . S
C92 C97 1.407 . S
C93 C92 1.366 . S
C93 C94 1.392 . S
C93 H116 0.930 . S
C94 C93 1.392 . S
C94 C95 1.398 . S
C94 H117 0.929 . S
C95 C94 1.398 . S
C95 C96 1.352 . S
C96 C95 1.352 . S
C96 C97 1.384 . S
C96 H118 0.930 . S
C97 C92 1.407 . S
C97 C96 1.384 . S
C97 H119 0.929 . S
C98 O108 1.241 . S
C98 O109 1.273 . S
C99 O110 1.251 1_565 S
C99 O111 1.268 . S
O100 Nd80 2.500 . S
O100 C82 1.258 . S
O101 Nd80 2.492 . S
O101 C82 1.239 . S
O102 Nd80 2.487 . S
O102 C89 1.242 1_565 S
O103 Nd80 2.682 1_545 S
O103 Nd81 2.414 . S
O103 C89 1.273 . S
O104 Nd80 2.410 1_545 S
O104 C90 1.251 . S
O105 Nd81 2.424 . S
O105 C90 1.268 . S
O106 Nd81 2.500 . S
O106 C91 1.258 . S
O107 Nd81 2.492 . S
O107 C91 1.239 . S
O108 Nd81 2.487 . S
O108 C98 1.241 . S
O109 Nd80 2.414 1_545 S
O109 Nd81 2.682 . S
O109 C98 1.273 . S
O110 Nd81 2.410 . S
O110 C99 1.251 1_545 S
O111 Nd80 2.424 . S
O111 C99 1.268 . S
H112 C84 0.930 1_554 S
H113 C85 0.929 . S
H114 C87 0.930 . S
H115 C88 0.929 1_554 S
H116 C93 0.930 . S
H117 C94 0.929 . S
H118 C96 0.930 . S
H119 C97 0.929 . S
Nd120 C122 2.836 . S
Nd120 O140 2.500 . S
Nd120 O141 2.492 . S
Nd120 O142 2.487 . S
Nd120 O143 2.682 1_455 S
Nd120 O144 2.410 1_455 S
Nd120 O149 2.414 . S
Nd120 O151 2.424 . S
Nd121 C131 2.836 . S
Nd121 O143 2.414 . S
Nd121 O145 2.424 . S
Nd121 O146 2.500 . S
Nd121 O147 2.492 . S
Nd121 O148 2.487 . S
Nd121 O149 2.682 1_655 S
Nd121 O150 2.410 1_655 S
C122 Nd120 2.836 . S
C122 C123 1.498 . S
C122 O140 1.258 . S
C122 O141 1.239 . S
C123 C122 1.498 . S
C123 C124 1.366 . S
C123 C128 1.407 . S
C124 C123 1.366 . S
C124 C125 1.392 . S
C124 H152 0.930 . S
C125 C124 1.392 . S
C125 C126 1.398 . S
C125 H153 0.929 . S
C126 C125 1.398 . S
C126 C127 1.352 . S
C127 C126 1.352 . S
C127 C128 1.384 . S
C127 H154 0.930 . S
C128 C123 1.407 . S
C128 C127 1.384 . S
C128 H155 0.929 . S
C129 O142 1.241 . S
C129 O143 1.273 1_455 S
C130 O144 1.251 . S
C130 O145 1.268 . S
C131 Nd121 2.836 . S
C131 C132 1.498 . S
C131 O146 1.258 . S
C131 O147 1.239 . S
C132 C131 1.498 . S
C132 C133 1.366 . S
C132 C137 1.407 . S
C133 C132 1.366 . S
C133 C134 1.392 . S
C133 H156 0.930 . S
C134 C133 1.392 . S
C134 C135 1.398 . S
C134 H157 0.929 . S
C135 C134 1.398 . S
C135 C136 1.352 . S
C136 C135 1.352 . S
C136 C137 1.384 . S
C136 H158 0.930 . S
C137 C132 1.407 . S
C137 C136 1.384 . S
C137 H159 0.929 . S
C138 O148 1.241 . S
C138 O149 1.273 1_655 S
C139 O150 1.251 . S
C139 O151 1.268 . S
O140 Nd120 2.500 . S
O140 C122 1.258 . S
O141 Nd120 2.492 . S
O141 C122 1.239 . S
O142 Nd120 2.487 . S
O142 C129 1.241 . S
O143 Nd120 2.682 1_655 S
O143 Nd121 2.414 . S
O143 C129 1.273 1_655 S
O144 Nd120 2.410 1_655 S
O144 C130 1.251 . S
O145 Nd121 2.424 . S
O145 C130 1.268 . S
O146 Nd121 2.500 . S
O146 C131 1.258 . S
O147 Nd121 2.492 . S
O147 C131 1.239 . S
O148 Nd121 2.487 . S
O148 C138 1.241 . S
O149 Nd120 2.414 . S
O149 Nd121 2.682 1_455 S
O149 C138 1.273 1_455 S
O150 Nd121 2.410 1_455 S
O150 C139 1.251 . S
O151 Nd120 2.424 . S
O151 C139 1.268 . S
H152 C124 0.930 . S
H153 C125 0.929 . S
H154 C127 0.930 . S
H155 C128 0.929 . S
H156 C133 0.930 . S
H157 C134 0.929 . S
H158 C136 0.930 . S
H159 C137 0.929 . S
H160 C168 0.929 . S
H161 C170 0.930 . S
H162 C172 0.930 . S
H163 C175 0.929 . S
H164 C178 0.930 . S
H165 C180 0.960 . S
H166 C180 0.960 . S
H167 C180 0.960 1_545 S
C168 H160 0.929 . S
C168 C169 1.377 1_565 S
C168 C170 1.384 . S
C169 C168 1.377 1_545 S
C169 C175 1.390 . S
C170 H161 0.930 . S
C170 C168 1.384 . S
C170 C171 1.372 1_565 S
C171 C170 1.372 1_545 S
C171 C172 1.400 . S
C171 C176 1.490 . S
C172 H162 0.930 . S
C172 C171 1.400 . S
C172 C175 1.386 . S
H173 C189 0.930 . S
H174 C190 0.931 . S
C175 H163 0.929 . S
C175 C169 1.390 . S
C175 C172 1.386 . S
C176 C171 1.490 . S
C176 C178 1.395 . S
C176 C179 1.403 1_655 S
H177 C183 0.925 1_565 S
C178 H164 0.930 . S
C178 C176 1.395 . S
C178 C181 1.403 1_655 S
C179 C176 1.403 1_455 S
C179 C180 1.524 1_545 S
C179 C183 1.400 . S
C180 H165 0.960 . S
C180 H166 0.960 . S
C180 H167 0.960 1_565 S
C180 C179 1.524 1_565 S
C181 C178 1.403 1_455 S
C181 C182 1.392 . S
C181 C185 1.495 . S
C182 C181 1.392 . S
C182 C183 1.385 . S
C182 C184 1.478 . S
C183 H177 0.925 1_545 S
C183 C179 1.400 . S
C183 C182 1.385 . S
C184 C182 1.478 . S
C184 C186 1.381 1_545 S
C184 C190 1.383 . S
C185 C181 1.495 . S
C185 H191 0.959 1_455 S
C185 H192 0.961 . S
C185 H193 0.960 . S
C186 C184 1.381 1_565 S
C186 C187 1.394 . S
C186 H194 0.930 . S
C187 C186 1.394 . S
C187 C188 1.383 1_565 S
C187 H195 0.929 . S
C188 C187 1.383 1_545 S
C188 C189 1.377 . S
C189 H173 0.930 . S
C189 C188 1.377 . S
C189 C190 1.379 . S
C190 H174 0.931 . S
C190 C184 1.383 . S
C190 C189 1.379 . S
H191 C185 0.959 1_655 S
H192 C185 0.961 . S
H193 C185 0.960 . S
H194 C186 0.930 . S
H195 C187 0.929 . S
H196 C204 0.929 . S
H197 C206 0.930 . S
H198 C208 0.936 . S
H199 C211 0.929 . S
H200 C214 0.930 . S
H201 C216 0.960 . S
H202 C216 0.960 . S
H203 C216 0.960 . S
C204 H196 0.929 . S
C204 C205 1.377 1_455 S
C204 C206 1.384 . S
C205 C204 1.377 1_655 S
C205 C211 1.390 . S
C206 H197 0.930 . S
C206 C204 1.384 . S
C206 C207 1.372 . S
C207 C206 1.372 . S
C207 C208 1.394 1_455 S
C207 C212 1.490 . S
C208 H198 0.936 . S
C208 C207 1.394 1_655 S
C208 C211 1.386 . S
H209 C225 0.930 . S
H210 C226 0.931 . S
C211 H199 0.929 . S
C211 C205 1.390 . S
C211 C208 1.386 . S
C212 C207 1.490 . S
C212 C214 1.395 1_465 S
C212 C215 1.403 . S
H213 C219 0.930 . S
C214 H200 0.930 . S
C214 C212 1.395 1_645 S
C214 C217 1.403 . S
C215 C212 1.403 . S
C215 C216 1.524 . S
C215 C219 1.400 1_565 S
C216 H201 0.960 . S
C216 H202 0.960 . S
C216 H203 0.960 . S
C216 C215 1.524 . S
C217 C214 1.403 . S
C217 C218 1.392 1_655 S
C217 C221 1.495 . S
C218 C217 1.392 1_455 S
C218 C219 1.385 . S
C218 C220 1.478 . S
C219 H213 0.930 . S
C219 C215 1.400 1_545 S
C219 C218 1.385 . S
C220 C218 1.478 . S
C220 C222 1.381 . S
C220 C226 1.383 . S
C221 C217 1.495 . S
C221 H227 0.959 . S
C221 H228 0.961 . S
C221 H229 0.960 . S
C222 C220 1.381 . S
C222 C223 1.394 . S
C222 H230 0.930 . S
C223 C222 1.394 . S
C223 C224 1.383 . S
C223 H231 0.929 . S
C224 C223 1.383 . S
C224 C225 1.377 . S
C225 H209 0.930 . S
C225 C224 1.377 . S
C225 C226 1.379 . S
C226 H210 0.931 . S
C226 C220 1.383 . S
C226 C225 1.379 . S
H227 C221 0.959 . S
H228 C221 0.961 . S
H229 C221 0.960 . S
H230 C222 0.930 . S
H231 C223 0.929 . S
H232 C240 0.929 . S
H233 C242 0.930 . S
H234 C244 0.930 . S
H235 C247 0.929 . S
H236 C250 0.930 . S
H237 C252 0.960 . S
H238 C252 0.960 . S
H239 C252 0.960 . S
C240 H232 0.929 . S
C240 C241 1.377 . S
C240 C242 1.384 . S
C241 C240 1.377 . S
C241 C247 1.390 1_545 S
C242 H233 0.930 . S
C242 C240 1.384 . S
C242 C243 1.372 . S
C243 C242 1.372 . S
C243 C244 1.400 1_545 S
C243 C248 1.490 . S
C244 H234 0.930 . S
C244 C243 1.400 1_565 S
C244 C247 1.386 . S
H245 C261 0.930 . S
H246 C262 0.931 . S
C247 H235 0.929 . S
C247 C241 1.390 1_565 S
C247 C244 1.386 . S
C248 C243 1.490 . S
C248 C250 1.395 . S
C248 C251 1.403 1_545 S
H249 C255 0.930 . S
C250 H236 0.930 . S
C250 C248 1.395 . S
C250 C253 1.403 . S
C251 C248 1.403 1_565 S
C251 C252 1.524 . S
C251 C255 1.400 . S
C252 H237 0.960 . S
C252 H238 0.960 . S
C252 H239 0.960 . S
C252 C251 1.524 . S
C253 C250 1.403 . S
C253 C254 1.392 . S
C253 C257 1.495 . S
C254 C253 1.392 . S
C254 C255 1.385 1_545 S
C254 C256 1.478 . S
C255 H249 0.930 . S
C255 C251 1.400 . S
C255 C254 1.385 1_565 S
C256 C254 1.478 . S
C256 C258 1.381 . S
C256 C262 1.383 . S
C257 C253 1.495 . S
C257 H263 0.959 . S
C257 H264 0.961 . S
C257 H265 0.960 . S
C258 C256 1.381 . S
C258 C259 1.394 . S
C258 H266 0.930 . S
C259 C258 1.394 . S
C259 C260 1.383 . S
C259 H267 0.929 . S
C260 C259 1.383 . S
C260 C261 1.377 . S
C261 H245 0.930 . S
C261 C260 1.377 . S
C261 C262 1.379 . S
C262 H246 0.931 . S
C262 C256 1.383 . S
C262 C261 1.379 . S
H263 C257 0.959 . S
H264 C257 0.961 . S
H265 C257 0.960 . S
H266 C258 0.930 . S
H267 C259 0.929 . S
H268 C276 0.929 1_655 S
H269 C278 0.930 1_655 S
H270 C280 0.930 . S
H271 C283 0.929 . S
H272 C286 0.930 . S
H273 C288 0.960 . S
H274 C288 0.960 . S
H275 C288 0.960 . S
C276 H268 0.929 1_455 S
C276 C277 1.377 . S
C276 C278 1.384 . S
C277 C276 1.377 . S
C277 C283 1.390 . S
C278 H269 0.930 1_455 S
C278 C276 1.384 . S
C278 C279 1.372 . S
C279 C278 1.372 . S
C279 C280 1.400 . S
C279 C284 1.490 . S
C280 H270 0.930 . S
C280 C279 1.400 . S
C280 C283 1.386 . S
H281 C297 0.930 . S
H282 C298 0.931 . S
C283 H271 0.929 . S
C283 C277 1.390 . S
C283 C280 1.386 . S
C284 C279 1.490 . S
C284 C286 1.395 1_455 S
C284 C287 1.403 . S
H285 C291 0.930 . S
C286 H272 0.930 . S
C286 C284 1.395 1_655 S
C286 C289 1.403 . S
C287 C284 1.403 . S
C287 C288 1.524 . S
C287 C291 1.400 . S
C288 H273 0.960 . S
C288 H274 0.960 . S
C288 H275 0.960 . S
C288 C287 1.524 . S
C289 C286 1.403 . S
C289 C290 1.392 1_655 S
C289 C293 1.495 . S
C290 C289 1.392 1_455 S
C290 C291 1.385 . S
C290 C292 1.478 . S
C291 H285 0.930 . S
C291 C287 1.400 . S
C291 C290 1.385 . S
C292 C290 1.478 . S
C292 C294 1.381 1_455 S
C292 C298 1.383 . S
C293 C289 1.495 . S
C293 H299 0.959 . S
C293 H300 0.961 . S
C293 H301 0.960 . S
C294 C292 1.381 1_655 S
C294 C295 1.394 . S
C294 H302 0.930 . S
C295 C294 1.394 . S
C295 C296 1.383 . S
C295 H303 0.929 . S
C296 C295 1.383 . S
C296 C297 1.377 1_655 S
C297 H281 0.930 . S
C297 C296 1.377 1_455 S
C297 C298 1.379 . S
C298 H282 0.931 . S
C298 C292 1.383 . S
C298 C297 1.379 . S
H299 C293 0.959 . S
H300 C293 0.961 . S
H301 C293 0.960 . S
H302 C294 0.930 . S
H303 C295 0.929 . S
H304 C312 0.929 . S
H305 C314 0.930 . S
H306 C316 0.930 . S
H307 C319 0.929 . S
H308 C322 0.930 . S
H309 C324 0.960 . S
H310 C324 0.960 . S
H311 C324 0.960 . S
C312 H304 0.929 . S
C312 C313 1.377 . S
C312 C314 1.384 . S
C313 C312 1.377 . S
C313 C319 1.390 . S
C314 H305 0.930 . S
C314 C312 1.384 . S
C314 C315 1.372 . S
C315 C314 1.372 . S
C315 C316 1.400 . S
C315 C320 1.490 . S
C316 H306 0.930 . S
C316 C315 1.400 . S
C316 C319 1.386 . S
H317 C333 0.930 . S
H318 C334 0.931 . S
C319 H307 0.929 . S
C319 C313 1.390 . S
C319 C316 1.386 . S
C320 C315 1.490 . S
C320 C322 1.395 . S
C320 C323 1.403 . S
H321 C327 0.930 . S
C322 H308 0.930 . S
C322 C320 1.395 . S
C322 C325 1.403 . S
C323 C320 1.403 . S
C323 C324 1.524 . S
C323 C327 1.400 . S
C324 H309 0.960 . S
C324 H310 0.960 . S
C324 H311 0.960 . S
C324 C323 1.524 . S
C325 C322 1.403 . S
C325 C326 1.392 . S
C325 C329 1.495 . S
C326 C325 1.392 . S
C326 C327 1.385 . S
C326 C328 1.478 . S
C327 H321 0.930 . S
C327 C323 1.400 . S
C327 C326 1.385 . S
C328 C326 1.478 . S
C328 C330 1.381 . S
C328 C334 1.383 . S
C329 C325 1.495 . S
C329 H335 0.959 . S
C329 H336 0.961 . S
C329 H337 0.960 . S
C330 C328 1.381 . S
C330 C331 1.394 . S
C330 H338 0.930 . S
C331 C330 1.394 . S
C331 C332 1.383 . S
C331 H339 0.929 . S
C332 C331 1.383 . S
C332 C333 1.377 . S
C333 H317 0.930 . S
C333 C332 1.377 . S
C333 C334 1.379 . S
C334 H318 0.931 . S
C334 C328 1.383 . S
C334 C333 1.379 . S
H335 C329 0.959 . S
H336 C329 0.961 . S
H337 C329 0.960 . S
H338 C330 0.930 . S
H339 C331 0.929 . S
H340 C348 0.929 . S
H341 C350 0.930 . S
H342 C352 0.930 . S
H343 C355 0.929 . S
H344 C358 0.930 . S
H345 C360 0.960 . S
H346 C360 0.960 . S
H347 C360 0.960 . S
C348 H340 0.929 . S
C348 C349 1.377 . S
C348 C350 1.384 . S
C349 C348 1.377 . S
C349 C355 1.390 . S
C350 H341 0.930 . S
C350 C348 1.384 . S
C350 C351 1.372 . S
C351 C350 1.372 . S
C351 C352 1.400 . S
C351 C356 1.490 . S
C352 H342 0.930 . S
C352 C351 1.400 . S
C352 C355 1.386 . S
H353 C369 0.930 . S
H354 C370 0.931 . S
C355 H343 0.929 . S
C355 C349 1.390 . S
C355 C352 1.386 . S
C356 C351 1.490 . S
C356 C358 1.395 . S
C356 C359 1.403 . S
H357 C363 0.930 . S
C358 H344 0.930 . S
C358 C356 1.395 . S
C358 C361 1.403 . S
C359 C356 1.403 . S
C359 C360 1.524 . S
C359 C363 1.400 . S
C360 H345 0.960 . S
C360 H346 0.960 . S
C360 H347 0.960 . S
C360 C359 1.524 . S
C361 C358 1.403 . S
C361 C362 1.392 . S
C361 C365 1.495 . S
C362 C361 1.392 . S
C362 C363 1.385 . S
C362 C364 1.478 . S
C363 H357 0.930 . S
C363 C359 1.400 . S
C363 C362 1.385 . S
C364 C362 1.478 . S
C364 C366 1.381 1_556 S
C364 C370 1.383 . S
C365 C361 1.495 . S
C365 H371 0.959 . S
C365 H372 0.961 . S
C365 H373 0.960 . S
C366 C364 1.381 1_554 S
C366 C367 1.394 . S
C366 H374 0.930 . S
C367 C366 1.394 . S
C367 C368 1.383 . S
C367 H375 0.929 . S
C368 C367 1.383 . S
C368 C369 1.377 . S
C369 H353 0.930 . S
C369 C368 1.377 . S
C369 C370 1.379 1_554 S
C370 H354 0.931 . S
C370 C364 1.383 . S
C370 C369 1.379 1_556 S
H371 C365 0.959 . S
H372 C365 0.961 . S
H373 C365 0.960 . S
H374 C366 0.930 . S
H375 C367 0.929 . S
H376 C384 0.929 . S
H377 C386 0.930 . S
H378 C388 0.930 . S
H379 C391 0.929 . S
H380 C394 0.930 . S
H381 C396 0.960 . S
H382 C396 0.960 . S
H383 C396 0.960 . S
C384 H376 0.929 . S
C384 C385 1.377 . S
C384 C386 1.384 . S
C385 C384 1.377 . S
C385 C391 1.390 . S
C386 H377 0.930 . S
C386 C384 1.384 . S
C386 C387 1.372 . S
C387 C386 1.372 . S
C387 C388 1.400 . S
C387 C392 1.490 . S
C388 H378 0.930 . S
C388 C387 1.400 . S
C388 C391 1.386 . S
H389 C405 0.930 . S
H390 C406 0.931 . S
C391 H379 0.929 . S
C391 C385 1.390 . S
C391 C388 1.386 . S
C392 C387 1.490 . S
C392 C394 1.395 . S
C392 C395 1.403 . S
H393 C399 0.930 . S
C394 H380 0.930 . S
C394 C392 1.395 . S
C394 C397 1.403 . S
C395 C392 1.403 . S
C395 C396 1.524 . S
C395 C399 1.400 . S
C396 H381 0.960 . S
C396 H382 0.960 . S
C396 H383 0.960 . S
C396 C395 1.524 . S
C397 C394 1.403 . S
C397 C398 1.392 . S
C397 C401 1.495 . S
C398 C397 1.392 . S
C398 C399 1.385 . S
C398 C400 1.478 . S
C399 H393 0.930 . S
C399 C395 1.400 . S
C399 C398 1.385 . S
C400 C398 1.478 . S
C400 C402 1.381 . S
C400 C406 1.383 . S
C401 C397 1.495 . S
C401 H407 0.959 . S
C401 H408 0.961 . S
C401 H409 0.960 . S
C402 C400 1.381 . S
C402 C403 1.394 . S
C402 H410 0.930 . S
C403 C402 1.394 . S
C403 C404 1.383 . S
C403 H411 0.942 . S
C404 C403 1.383 . S
C404 C405 1.377 . S
C405 H389 0.930 . S
C405 C404 1.377 . S
C405 C406 1.379 . S
C406 H390 0.931 . S
C406 C400 1.383 . S
C406 C405 1.379 . S
H407 C401 0.959 . S
H408 C401 0.961 . S
H409 C401 0.960 . S
H410 C402 0.930 . S
H411 C403 0.942 . S
H412 C420 0.929 . S
H413 C422 0.930 . S
H414 C424 0.930 . S
H415 C427 0.929 . S
H416 C430 0.930 . S
H417 C432 0.960 . S
H418 C432 0.960 . S
H419 C432 0.960 . S
C420 H412 0.929 . S
C420 C421 1.377 . S
C420 C422 1.384 . S
C421 C420 1.377 . S
C421 C427 1.390 . S
C422 H413 0.930 . S
C422 C420 1.384 . S
C422 C423 1.372 . S
C423 C422 1.372 . S
C423 C424 1.400 . S
C423 C428 1.490 . S
C424 H414 0.930 . S
C424 C423 1.400 . S
C424 C427 1.386 . S
H425 C441 0.930 . S
H426 C442 0.931 . S
C427 H415 0.929 . S
C427 C421 1.390 . S
C427 C424 1.386 . S
C428 C423 1.490 . S
C428 C430 1.395 . S
C428 C431 1.403 . S
H429 C435 0.930 . S
C430 H416 0.930 . S
C430 C428 1.395 . S
C430 C433 1.403 . S
C431 C428 1.403 . S
C431 C432 1.524 . S
C431 C435 1.400 . S
C432 H417 0.960 . S
C432 H418 0.960 . S
C432 H419 0.960 . S
C432 C431 1.524 . S
C433 C430 1.403 . S
C433 C434 1.392 . S
C433 C437 1.495 . S
C434 C433 1.392 . S
C434 C435 1.385 . S
C434 C436 1.478 . S
C435 H429 0.930 . S
C435 C431 1.400 . S
C435 C434 1.385 . S
C436 C434 1.478 . S
C436 C438 1.381 . S
C436 C442 1.383 . S
C437 C433 1.495 . S
C437 H443 0.959 . S
C437 H444 0.961 . S
C437 H445 0.960 . S
C438 C436 1.381 . S
C438 C439 1.394 . S
C438 H446 0.930 . S
C439 C438 1.394 . S
C439 C440 1.383 . S
C439 H447 0.929 . S
C440 C439 1.383 . S
C440 C441 1.377 . S
C441 H425 0.930 . S
C441 C440 1.377 . S
C441 C442 1.379 . S
C442 H426 0.931 . S
C442 C436 1.383 . S
C442 C441 1.379 . S
H443 C437 0.959 . S
H444 C437 0.961 . S
H445 C437 0.960 . S
H446 C438 0.930 . S
H447 C439 0.929 . S
H448 C456 0.929 . S
H449 C458 0.930 . S
H450 C460 0.930 . S
H451 C463 0.929 . S
H452 C466 0.930 . S
H453 C468 0.960 . S
H454 C468 0.960 . S
H455 C468 0.960 . S
C456 H448 0.929 . S
C456 C457 1.377 . S
C456 C458 1.384 . S
C457 C456 1.377 . S
C457 C463 1.390 . S
C458 H449 0.930 . S
C458 C456 1.384 . S
C458 C459 1.372 . S
C459 C458 1.372 . S
C459 C460 1.400 . S
C459 C464 1.490 . S
C460 H450 0.930 . S
C460 C459 1.400 . S
C460 C463 1.386 . S
H461 C477 0.930 . S
H462 C478 0.931 . S
C463 H451 0.929 . S
C463 C457 1.390 . S
C463 C460 1.386 . S
C464 C459 1.490 . S
C464 C466 1.395 . S
C464 C467 1.403 . S
H465 C471 0.930 . S
C466 H452 0.930 . S
C466 C464 1.395 . S
C466 C469 1.403 . S
C467 C464 1.403 . S
C467 C468 1.524 . S
C467 C471 1.400 . S
C468 H453 0.960 . S
C468 H454 0.960 . S
C468 H455 0.960 . S
C468 C467 1.524 . S
C469 C466 1.403 . S
C469 C470 1.392 . S
C469 C473 1.495 . S
C470 C469 1.392 . S
C470 C471 1.385 . S
C470 C472 1.478 . S
C471 H465 0.930 . S
C471 C467 1.400 . S
C471 C470 1.385 . S
C472 C470 1.478 . S
C472 C474 1.381 . S
C472 C478 1.383 . S
C473 C469 1.495 . S
C473 H479 0.959 . S
C473 H480 0.961 . S
C473 H481 0.960 . S
C474 C472 1.381 . S
C474 C475 1.394 . S
C474 H482 0.930 . S
C475 C474 1.394 . S
C475 C476 1.383 . S
C475 H483 0.929 . S
C476 C475 1.383 . S
C476 C477 1.377 . S
C477 H461 0.930 . S
C477 C476 1.377 . S
C477 C478 1.379 . S
C478 H462 0.931 . S
C478 C472 1.383 . S
C478 C477 1.379 . S
H479 C473 0.959 . S
H480 C473 0.961 . S
H481 C473 0.960 . S
H482 C474 0.930 . S
H483 C475 0.929 . S
H484 C492 0.929 . S
H485 C494 0.930 . S
H486 C496 0.930 . S
H487 C499 0.929 1_545 S
H488 C502 0.930 . S
H489 C504 0.960 . S
H490 C504 0.960 . S
H491 C504 0.960 . S
C492 H484 0.929 . S
C492 C493 1.377 . S
C492 C494 1.384 . S
C493 C492 1.377 . S
C493 C499 1.390 . S
C494 H485 0.930 . S
C494 C492 1.384 . S
C494 C495 1.372 . S
C495 C494 1.372 . S
C495 C496 1.400 . S
C495 C500 1.490 . S
C496 H486 0.930 . S
C496 C495 1.400 . S
C496 C499 1.386 . S
H497 C513 0.930 . S
H498 C514 0.931 . S
C499 H487 0.929 1_565 S
C499 C493 1.390 . S
C499 C496 1.386 . S
C500 C495 1.490 . S
C500 C502 1.395 . S
C500 C503 1.403 . S
H501 C507 0.930 . S
C502 H488 0.930 . S
C502 C500 1.395 . S
C502 C505 1.403 . S
C503 C500 1.403 . S
C503 C504 1.524 . S
C503 C507 1.400 . S
C504 H489 0.960 . S
C504 H490 0.960 . S
C504 H491 0.960 . S
C504 C503 1.524 . S
C505 C502 1.403 . S
C505 C506 1.392 . S
C505 C509 1.495 . S
C506 C505 1.392 . S
C506 C507 1.385 . S
C506 C508 1.478 . S
C507 H501 0.930 . S
C507 C503 1.400 . S
C507 C506 1.385 . S
C508 C506 1.478 . S
C508 C510 1.381 . S
C508 C514 1.383 . S
C509 C505 1.495 . S
C509 H515 0.959 . S
C509 H516 0.961 . S
C509 H517 0.960 . S
C510 C508 1.381 . S
C510 C511 1.394 . S
C510 H518 0.930 . S
C511 C510 1.394 . S
C511 C512 1.383 . S
C511 H519 0.929 . S
C512 C511 1.383 . S
C512 C513 1.377 . S
C513 H497 0.930 . S
C513 C512 1.377 . S
C513 C514 1.379 . S
C514 H498 0.931 . S
C514 C508 1.383 . S
C514 C513 1.379 . S
H515 C509 0.959 . S
H516 C509 0.961 . S
H517 C509 0.960 . S
H518 C510 0.930 . S
H519 C511 0.929 . S
H520 C528 0.929 . S
H521 C530 0.930 . S
H522 C532 0.930 . S
H523 C535 0.929 . S
H524 C538 0.930 . S
H525 C540 0.960 . S
H526 C540 0.960 . S
H527 C540 0.960 . S
C528 H520 0.929 . S
C528 C529 1.377 . S
C528 C530 1.384 . S
C529 C528 1.377 . S
C529 C535 1.390 . S
C530 H521 0.930 . S
C530 C528 1.384 . S
C530 C531 1.372 . S
C531 C530 1.372 . S
C531 C532 1.400 . S
C531 C536 1.490 . S
C532 H522 0.930 . S
C532 C531 1.400 . S
C532 C535 1.386 . S
H533 C549 0.930 . S
H534 C550 0.931 . S
C535 H523 0.929 . S
C535 C529 1.390 . S
C535 C532 1.386 . S
C536 C531 1.490 . S
C536 C538 1.395 . S
C536 C539 1.403 . S
H537 C543 0.930 . S
C538 H524 0.930 . S
C538 C536 1.395 . S
C538 C541 1.403 . S
C539 C536 1.403 . S
C539 C540 1.524 . S
C539 C543 1.400 . S
C540 H525 0.960 . S
C540 H526 0.960 . S
C540 H527 0.960 . S
C540 C539 1.524 . S
C541 C538 1.403 . S
C541 C542 1.392 . S
C541 C545 1.495 . S
C542 C541 1.392 . S
C542 C543 1.385 . S
C542 C544 1.478 . S
C543 H537 0.930 . S
C543 C539 1.400 . S
C543 C542 1.385 . S
C544 C542 1.478 . S
C544 C546 1.381 . S
C544 C550 1.383 . S
C545 C541 1.495 . S
C545 H551 0.959 . S
C545 H552 0.961 . S
C545 H553 0.960 . S
C546 C544 1.381 . S
C546 C547 1.394 . S
C546 H554 0.930 . S
C547 C546 1.394 . S
C547 C548 1.383 . S
C547 H555 0.929 . S
C548 C547 1.383 . S
C548 C549 1.377 . S
C549 H533 0.930 . S
C549 C548 1.377 . S
C549 C550 1.379 . S
C550 H534 0.931 . S
C550 C544 1.383 . S
C550 C549 1.379 . S
H551 C545 0.959 . S
H552 C545 0.961 . S
H553 C545 0.960 . S
H554 C546 0.930 . S
H555 C547 0.929 . S
H556 C564 0.929 . S
H557 C566 0.930 . S
H558 C568 0.930 . S
H559 C571 0.929 . S
H560 C574 0.930 . S
H561 C576 0.960 . S
H562 C576 0.960 . S
H563 C576 0.960 . S
C564 H556 0.929 . S
C564 C565 1.377 . S
C564 C566 1.384 . S
C565 C564 1.377 . S
C565 C571 1.390 . S
C566 H557 0.930 . S
C566 C564 1.384 . S
C566 C567 1.372 . S
C567 C566 1.372 . S
C567 C568 1.400 . S
C567 C572 1.490 . S
C568 H558 0.930 . S
C568 C567 1.400 . S
C568 C571 1.386 . S
H569 C585 0.930 . S
H570 C586 0.931 . S
C571 H559 0.929 . S
C571 C565 1.390 . S
C571 C568 1.386 . S
C572 C567 1.490 . S
C572 C574 1.395 . S
C572 C575 1.403 . S
H573 C579 0.930 . S
C574 H560 0.930 . S
C574 C572 1.395 . S
C574 C577 1.403 . S
C575 C572 1.403 . S
C575 C576 1.524 . S
C575 C579 1.400 . S
C576 H561 0.960 . S
C576 H562 0.960 . S
C576 H563 0.960 . S
C576 C575 1.524 . S
C577 C574 1.403 . S
C577 C578 1.392 . S
C577 C581 1.495 1_655 S
C578 C577 1.392 . S
C578 C579 1.385 . S
C578 C580 1.478 . S
C579 H573 0.930 . S
C579 C575 1.400 . S
C579 C578 1.385 . S
C580 C578 1.478 . S
C580 C582 1.381 . S
C580 C586 1.383 . S
C581 C577 1.495 1_455 S
C581 H587 0.959 . S
C581 H588 0.961 . S
C581 H589 0.960 . S
C582 C580 1.381 . S
C582 C583 1.394 1_655 S
C582 H590 0.930 1_655 S
C583 C582 1.394 1_455 S
C583 C584 1.383 1_455 S
C583 H591 0.929 . S
C584 C583 1.383 1_655 S
C584 C585 1.377 . S
C585 H569 0.930 . S
C585 C584 1.377 . S
C585 C586 1.379 . S
C586 H570 0.931 . S
C586 C580 1.383 . S
C586 C585 1.379 . S
H587 C581 0.959 . S
H588 C581 0.961 . S
H589 C581 0.960 . S
H590 C582 0.930 1_455 S
H591 C583 0.929 . S
C169 C98 0.949 . S
C188 C9 0.970 . S
C205 C138 1.097 . S
C224 C49 1.085 . S
C241 C89 0.883 . S
C260 C18 0.847 . S
C277 C58 0.978 . S
C296 C129 1.016 1_655 S
C313 C46 1.008 . S
C332 C15 1.004 . S
C349 C55 1.787 . S
C368 C90 1.798 . S
C385 C130 2.157 . S
C404 C99 2.084 . S
C421 C139 1.294 . S
C440 C6 1.319 . S
C457 C86 1.014 . S
C476 C135 0.999 . S
C493 C19 1.800 . S
C512 C126 1.785 . S
C529 C59 2.158 . S
C548 C10 2.092 1_556 S
C565 C95 1.312 . S
C584 C50 1.303 1_655 S
