# Generated by pormake.
# Topology umb, (4)-cn, num edge types: 1
# Building blocks:
#     Node 0, Type 0, BuildingBlock: QUQFOY_clean_sbu_1, # of connection points: 4
#     Node 1, Type 0, BuildingBlock: QUQFOY_clean_sbu_1, # of connection points: 4
#     Node 2, Type 0, BuildingBlock: QUQFOY_clean_sbu_1, # of connection points: 4
#     Node 3, Type 0, BuildingBlock: QUQFOY_clean_sbu_1, # of connection points: 4
#     Node 4, Type 0, BuildingBlock: QUQFOY_clean_sbu_1, # of connection points: 4
#     Node 5, Type 0, BuildingBlock: QUQFOY_clean_sbu_1, # of connection points: 4
#     Node 6, Type 0, BuildingBlock: QUQFOY_clean_sbu_1, # of connection points: 4
#     Node 7, Type 0, BuildingBlock: QUQFOY_clean_sbu_1, # of connection points: 4
#     Node 8, Type 0, BuildingBlock: QUQFOY_clean_sbu_1, # of connection points: 4
#     Node 9, Type 0, BuildingBlock: QUQFOY_clean_sbu_1, # of connection points: 4
#     Node 10, Type 0, BuildingBlock: QUQFOY_clean_sbu_1, # of connection points: 4
#     Node 11, Type 0, BuildingBlock: QUQFOY_clean_sbu_1, # of connection points: 4
#     Edge 12, Type (0, 0), BuildingBlock: EYOCIG_clean_linker_4, # of connection points: 2
#     Edge 13, Type (0, 0), BuildingBlock: EYOCIG_clean_linker_4, # of connection points: 2
#     Edge 14, Type (0, 0), BuildingBlock: EYOCIG_clean_linker_4, # of connection points: 2
#     Edge 15, Type (0, 0), BuildingBlock: EYOCIG_clean_linker_4, # of connection points: 2
#     Edge 16, Type (0, 0), BuildingBlock: EYOCIG_clean_linker_4, # of connection points: 2
#     Edge 17, Type (0, 0), BuildingBlock: EYOCIG_clean_linker_4, # of connection points: 2
#     Edge 18, Type (0, 0), BuildingBlock: EYOCIG_clean_linker_4, # of connection points: 2
#     Edge 19, Type (0, 0), BuildingBlock: EYOCIG_clean_linker_4, # of connection points: 2
#     Edge 20, Type (0, 0), BuildingBlock: EYOCIG_clean_linker_4, # of connection points: 2
#     Edge 21, Type (0, 0), BuildingBlock: EYOCIG_clean_linker_4, # of connection points: 2
#     Edge 22, Type (0, 0), BuildingBlock: EYOCIG_clean_linker_4, # of connection points: 2
#     Edge 23, Type (0, 0), BuildingBlock: EYOCIG_clean_linker_4, # of connection points: 2
#     Edge 24, Type (0, 0), BuildingBlock: EYOCIG_clean_linker_4, # of connection points: 2
#     Edge 25, Type (0, 0), BuildingBlock: EYOCIG_clean_linker_4, # of connection points: 2
#     Edge 26, Type (0, 0), BuildingBlock: EYOCIG_clean_linker_4, # of connection points: 2
#     Edge 27, Type (0, 0), BuildingBlock: EYOCIG_clean_linker_4, # of connection points: 2
#     Edge 28, Type (0, 0), BuildingBlock: EYOCIG_clean_linker_4, # of connection points: 2
#     Edge 29, Type (0, 0), BuildingBlock: EYOCIG_clean_linker_4, # of connection points: 2
#     Edge 30, Type (0, 0), BuildingBlock: EYOCIG_clean_linker_4, # of connection points: 2
#     Edge 31, Type (0, 0), BuildingBlock: EYOCIG_clean_linker_4, # of connection points: 2
#     Edge 32, Type (0, 0), BuildingBlock: EYOCIG_clean_linker_4, # of connection points: 2
#     Edge 33, Type (0, 0), BuildingBlock: EYOCIG_clean_linker_4, # of connection points: 2
#     Edge 34, Type (0, 0), BuildingBlock: EYOCIG_clean_linker_4, # of connection points: 2
#     Edge 35, Type (0, 0), BuildingBlock: EYOCIG_clean_linker_4, # of connection points: 2
# Relax obj value: 0.090
# Max RMSD: 0.163
# Mean RMSD: 0.163
data_MOF--net-umb--node1-QUQFOY_clean_sbu_1--edge1-EYOCIG_clean_linker_4
_symmetry_space_group_name_H-M    P1
_symmetry_Int_Tables_number       1
_symmetry_cell_setting            triclinic
loop_
_symmetry_equiv_pos_as_xyz
'x, y, z'
_cell_length_a     41.264748
_cell_length_b     41.251303
_cell_length_c     31.368156
_cell_angle_alpha  89.98913
_cell_angle_beta   90.000651
_cell_angle_gamma 119.98389
loop_
_atom_site_label
_atom_site_type_symbol
_atom_site_fract_x
_atom_site_fract_y
_atom_site_fract_z
_atom_type_partial_charge
O0 O 0.56744 0.16707 0.41406 0.0
Cd1 Cd 0.56114 0.15467 0.3527 0.0
Cd2 Cd 0.53437 0.20478 0.35471 0.0
O3 O 0.52515 0.18526 0.4191 0.0
O4 O 0.56976 0.11102 0.34882 0.0
O5 O 0.51484 0.10714 0.33709 0.0
C6 C 0.53441 0.09077 0.34118 0.0
C7 C 0.5155 0.21844 0.28975 0.0
C8 C 0.54819 0.17663 0.43626 0.0
C9 C 0.61145 0.23193 0.33612 0.0
O10 O 0.58919 0.23877 0.35654 0.0
O11 O 0.60081 0.2 0.31954 0.0
O12 O 0.51496 0.23515 0.32457 0.0
O13 O 0.52136 0.19041 0.29291 0.0
O14 O 0.39657 0.56909 0.74755 0.0
Cd15 Cd 0.40276 0.56198 0.68638 0.0
Cd16 Cd 0.32618 0.53568 0.68834 0.0
O17 O 0.33603 0.52728 0.75307 0.0
O18 O 0.45533 0.57132 0.68343 0.0
O19 O 0.40495 0.51591 0.67181 0.0
C20 C 0.4408 0.53597 0.67623 0.0
C21 C 0.29246 0.51642 0.62415 0.0
C22 C 0.36775 0.55043 0.76995 0.0
C23 C 0.37601 0.61226 0.66773 0.0
O24 O 0.34728 0.59056 0.68903 0.0
O25 O 0.3974 0.60134 0.65204 0.0
O26 O 0.27598 0.51651 0.65934 0.0
O27 O 0.32618 0.52177 0.62656 0.0
O28 O 0.82556 0.39812 0.08095 0.0
Cd29 Cd 0.8381 0.40465 1.0195 0.0
Cd30 Cd 0.78742 0.32787 0.02148 0.0
O31 O 0.80669 0.33749 0.08585 0.0
O32 O 0.88135 0.4572 1.01622 0.0
O33 O 0.88599 0.40675 1.00337 0.0
C34 C 0.90195 0.44261 1.00789 0.0
C35 C 0.77358 0.29449 0.95703 0.0
C36 C 0.81565 0.36919 0.10309 0.0
C37 C 0.76102 0.37837 1.00182 0.0
O38 O 0.75383 0.34933 0.02263 0.0
O39 O 0.79324 0.39965 0.98595 0.0
O40 O 0.75666 0.27783 0.99199 0.0
O41 O 0.80189 0.32822 0.95982 0.0
O42 O 0.42415 0.82703 0.41421 0.0
Cd43 Cd 0.43028 0.83957 0.35279 0.0
Cd44 Cd 0.45635 0.78913 0.35498 0.0
O45 O 0.46631 0.80871 0.41919 0.0
O46 O 0.42051 0.88252 0.34955 0.0
O47 O 0.47586 0.88774 0.33693 0.0
C48 C 0.45568 0.90341 0.34146 0.0
C49 C 0.47493 0.77514 0.2901 0.0
C50 C 0.44341 0.81747 0.4364 0.0
C51 C 0.3797 0.76244 0.33529 0.0
O52 O 0.40142 0.75545 0.35665 0.0
O53 O 0.39068 0.79458 0.31914 0.0
O54 O 0.4753 0.75838 0.32495 0.0
O55 O 0.4695 0.80345 0.29319 0.0
O56 O 0.59481 0.42557 0.74774 0.0
Cd57 Cd 0.58832 0.43216 0.68654 0.0
Cd58 Cd 0.66478 0.4591 0.68815 0.0
O59 O 0.65502 0.46849 0.75263 0.0
O60 O 0.53575 0.42271 0.68374 0.0
O61 O 0.58605 0.4781 0.67168 0.0
C62 C 0.55021 0.45803 0.67632 0.0
C63 C 0.69811 0.47828 0.62359 0.0
C64 C 0.62355 0.44516 0.76989 0.0
C65 C 0.61547 0.38226 0.66825 0.0
O66 O 0.64413 0.40422 0.68951 0.0
O67 O 0.59387 0.39285 0.65244 0.0
O68 O 0.71488 0.47858 0.65871 0.0
O69 O 0.66427 0.47256 0.62623 0.0
O70 O 0.16536 0.59579 0.08117 0.0
Cd71 Cd 0.15299 0.58917 1.01973 0.0
Cd72 Cd 0.20341 0.66609 0.02146 0.0
O73 O 0.18416 0.65643 0.08584 0.0
O74 O 0.10978 0.53663 1.01621 0.0
O75 O 0.1052 0.58715 1.00348 0.0
C76 C 0.08922 0.55127 1.00791 0.0
C77 C 0.21751 0.6985 0.95649 0.0
C78 C 0.17529 0.62478 0.10319 0.0
C79 C 0.2302 0.61585 1.0032 0.0
O80 O 0.23713 0.64498 0.0236 0.0
O81 O 0.19825 0.5946 0.98668 0.0
O82 O 0.23416 0.71574 0.99134 0.0
O83 O 0.1893 0.66474 0.9596 0.0
O84 O 0.82465 0.42442 0.30709 0.0
Cd85 Cd 0.83782 0.43169 0.36823 0.0
Cd86 Cd 0.7874 0.45805 0.36616 0.0
O87 O 0.80656 0.46675 0.30161 0.0
O88 O 0.88139 0.42291 0.37158 0.0
O89 O 0.88575 0.47814 0.38256 0.0
C90 C 0.90191 0.45837 0.37845 0.0
C91 C 0.77329 0.47761 0.43049 0.0
C92 C 0.81504 0.44352 0.28468 0.0
C93 C 0.76085 0.38136 0.38638 0.0
O94 O 0.75369 0.40309 0.36529 0.0
O95 O 0.79303 0.39244 0.40249 0.0
O96 O 0.75664 0.47752 0.39535 0.0
O97 O 0.80149 0.47201 0.42795 0.0
O98 O 0.39749 0.82691 0.6401 0.0
Cd99 Cd 0.40347 0.83944 0.70133 0.0
Cd100 Cd 0.32639 0.78984 0.69925 0.0
O101 O 0.33715 0.80924 0.6348 0.0
O102 O 0.45572 0.88304 0.70514 0.0
O103 O 0.4047 0.88712 0.71626 0.0
C104 C 0.44063 0.90341 0.71219 0.0
C105 C 0.29337 0.77475 0.76391 0.0
C106 C 0.36879 0.81755 0.61779 0.0
C107 C 0.3758 0.76204 0.71737 0.0
O108 O 0.34688 0.75569 0.69694 0.0
O109 O 0.39731 0.79378 0.73429 0.0
O110 O 0.27637 0.75882 0.72867 0.0
O111 O 0.32726 0.80282 0.76144 0.0
O112 O 0.56821 0.3989 0.9735 0.0
Cd113 Cd 0.56136 0.4051 0.03462 0.0
Cd114 Cd 0.53442 0.32775 0.03257 0.0
O115 O 0.52572 0.3385 0.96814 0.0
O116 O 0.57029 0.45749 0.03803 0.0
O117 O 0.51503 0.40669 0.04911 0.0
C118 C 0.53485 0.4426 0.04494 0.0
C119 C 0.51551 0.29425 0.09695 0.0
C120 C 0.54899 0.37018 0.95117 0.0
C121 C 0.61136 0.37799 0.05168 0.0
O122 O 0.58926 0.34896 0.03107 0.0
O123 O 0.60053 0.3991 0.06839 0.0
O124 O 0.51526 0.27757 0.06176 0.0
O125 O 0.52111 0.32807 0.09447 0.0
O126 O 0.1664 0.56978 0.3069 0.0
Cd127 Cd 0.15333 0.5631 0.36801 0.0
Cd128 Cd 0.20332 0.53556 0.36631 0.0
O129 O 0.18421 0.52717 0.30173 0.0
O130 O 0.11026 0.57267 0.37135 0.0
O131 O 0.10512 0.51713 0.38261 0.0
C132 C 0.08938 0.53728 0.37839 0.0
C133 C 0.21698 0.51663 0.43122 0.0
C134 C 0.17595 0.55053 0.28467 0.0
C135 C 0.23058 0.61261 0.38506 0.0
O136 O 0.23737 0.59029 0.36471 0.0
O137 O 0.19869 0.60203 0.40172 0.0
O138 O 0.23364 0.51607 0.39637 0.0
O139 O 0.18899 0.52256 0.42813 0.0
O140 O 0.59404 0.16744 0.63999 0.0
Cd141 Cd 0.58751 0.15479 0.70121 0.0
Cd142 Cd 0.66492 0.20398 0.69956 0.0
O143 O 0.65432 0.18479 0.63497 0.0
O144 O 0.53479 0.11191 0.70451 0.0
O145 O 0.58496 0.10653 0.7164 0.0
C146 C 0.54911 0.09092 0.71195 0.0
C147 C 0.69816 0.21843 0.76417 0.0
C148 C 0.62278 0.17666 0.61781 0.0
C149 C 0.61579 0.23225 0.71764 0.0
O150 O 0.6448 0.2385 0.69749 0.0
O151 O 0.59398 0.20047 0.73429 0.0
O152 O 0.71508 0.2345 0.72895 0.0
O153 O 0.66415 0.1906 0.76169 0.0
O154 O 0.42407 0.59665 0.97277 0.0
Cd155 Cd 0.43053 0.58972 0.03394 0.0
Cd156 Cd 0.45624 0.66645 0.03268 0.0
O157 O 0.46573 0.65732 0.96813 0.0
O158 O 0.42101 0.53706 0.03639 0.0
O159 O 0.47632 0.58724 0.04899 0.0
C160 C 0.45624 0.55142 0.04415 0.0
C161 C 0.47479 0.69938 0.09733 0.0
C162 C 0.4429 0.62572 0.95078 0.0
C163 C 0.37965 0.61564 0.05222 0.0
O164 O 0.40127 0.64466 0.03129 0.0
O165 O 0.39087 0.59458 0.06813 0.0
O166 O 0.47476 0.71622 0.06241 0.0
O167 O 0.46973 0.66579 0.09443 0.0
C168 C 0.57547 0.18135 0.51134 0.0
C169 C 0.55761 0.18099 0.48062 0.0
C170 C 0.60018 0.18134 0.54276 0.0
C171 C 0.61772 0.18094 0.57343 0.0
C172 C 0.39032 0.57894 0.84456 0.0
C173 C 0.37286 0.5607 0.81404 0.0
C174 C 0.41504 0.60372 0.87588 0.0
C175 C 0.43307 0.62103 0.90657 0.0
C176 C 0.81042 0.41603 0.20973 0.0
C177 C 0.81072 0.43391 0.24039 0.0
C178 C 0.81056 0.39146 0.17821 0.0
C179 C 0.81103 0.37412 0.14741 0.0
C180 C 0.41625 0.81276 0.5115 0.0
C181 C 0.43406 0.81311 0.48076 0.0
C182 C 0.39153 0.81278 0.54288 0.0
C183 C 0.37396 0.81319 0.57349 0.0
C184 C 0.57648 0.39311 0.87629 0.0
C185 C 0.55852 0.37543 0.90687 0.0
C186 C 0.60118 0.41797 0.84498 0.0
C187 C 0.61863 0.4359 0.81428 0.0
C188 C 0.18081 0.57806 0.20972 0.0
C189 C 0.18041 0.5601 0.24036 0.0
C190 C 0.18067 0.60267 0.17827 0.0
C191 C 0.18007 0.61999 0.1475 0.0
C192 C 0.7106 0.31294 0.37094 0.0
C193 C 0.73578 0.34277 0.38121 0.0
C194 C 0.67945 0.28175 0.35417 0.0
C195 C 0.64985 0.25683 0.34285 0.0
C196 C 0.39305 0.71177 0.69818 0.0
C197 C 0.38887 0.73686 0.71008 0.0
C198 C 0.39293 0.68054 0.68138 0.0
C199 C 0.38886 0.65079 0.67185 0.0
C200 C 0.67932 0.39641 0.03323 0.0
C201 C 0.64978 0.39172 0.04482 0.0
C202 C 0.71044 0.39626 1.01655 0.0
C203 C 0.73573 0.39165 1.0067 0.0
C204 C 0.31127 0.71153 0.3491 0.0
C205 C 0.34116 0.73697 0.33958 0.0
C206 C 0.28005 0.68039 0.36579 0.0
C207 C 0.25527 0.65094 0.37767 0.0
C208 C 0.599 0.31407 0.68187 0.0
C209 C 0.60297 0.34381 0.67245 0.0
C210 C 0.59887 0.28278 0.69847 0.0
C211 C 0.60296 0.25761 0.71026 0.0
C212 C 0.28004 0.59762 1.02086 0.0
C213 C 0.2551 0.60234 1.00973 0.0
C214 C 0.31124 0.59756 0.03737 0.0
C215 C 0.34107 0.60213 0.04737 0.0
C216 C 0.50258 0.0168 0.33796 0.0
C217 C 0.51686 0.05052 0.33938 0.0
C218 C 0.4861 0.97723 0.33803 0.0
C219 C 0.47236 0.94357 0.33956 0.0
C220 C 0.48385 0.5051 0.67416 0.0
C221 C 0.46405 0.519 0.67507 0.0
C222 C 0.5071 0.48881 0.67418 0.0
C223 C 0.52693 0.47495 0.67512 0.0
C224 C 0.9758 0.48548 1.0041 0.0
C225 C 0.94212 0.46577 1.00579 0.0
C226 C 0.01535 0.50852 1.0041 0.0
C227 C 0.04903 0.52817 1.0058 0.0
C228 C 0.01546 0.50641 0.38051 0.0
C229 C 0.04917 0.52036 0.37957 0.0
C230 C 0.97589 0.4899 0.38052 0.0
C231 C 0.94216 0.47573 0.37962 0.0
C232 C 0.5058 0.01702 0.71433 0.0
C233 C 0.52567 0.05072 0.71328 0.0
C234 C 0.48276 0.97744 0.7144 0.0
C235 C 0.46334 0.94369 0.71343 0.0
C236 C 0.48693 0.50823 0.04662 0.0
C237 C 0.47308 0.52807 0.04552 0.0
C238 C 0.50336 0.4851 0.04681 0.0
C239 C 0.51751 0.46552 0.046 0.0
C240 C 0.51255 0.24639 0.21341 0.0
C241 C 0.51392 0.23348 0.24801 0.0
C242 C 0.51253 0.26269 0.17286 0.0
C243 C 0.5139 0.27713 0.13837 0.0
C244 C 0.24497 0.51356 0.50748 0.0
C245 C 0.23204 0.51498 0.47293 0.0
C246 C 0.26113 0.51347 0.5481 0.0
C247 C 0.27534 0.5148 0.58273 0.0
C248 C 0.74539 0.26291 0.88102 0.0
C249 C 0.75839 0.27748 0.91547 0.0
C250 C 0.72927 0.24664 0.84038 0.0
C251 C 0.71523 0.2339 0.80564 0.0
C252 C 0.47735 0.7304 0.17342 0.0
C253 C 0.47616 0.71608 0.13893 0.0
C254 C 0.47737 0.7468 0.21388 0.0
C255 C 0.47624 0.7599 0.24842 0.0
C256 C 0.72926 0.48118 0.54739 0.0
C257 C 0.71511 0.47986 0.58207 0.0
C258 C 0.74525 0.48104 0.50664 0.0
C259 C 0.75798 0.47948 0.47198 0.0
C260 C 0.24577 0.72927 0.88023 0.0
C261 C 0.23272 0.71506 0.9148 0.0
C262 C 0.26208 0.74567 0.83974 0.0
C263 C 0.2764 0.75897 0.80529 0.0
loop_
_geom_bond_atom_site_label_1
_geom_bond_atom_site_label_2
_geom_bond_distance
_geom_bond_site_symmetry_2
_ccdc_geom_bond_type
O0 Cd1 2.223 . S
O0 C8 1.315 . S
Cd1 O0 2.223 . S
Cd1 O4 2.297 . S
Cd1 O5 2.439 . S
Cd1 O11 2.240 . S
Cd2 O3 2.240 . S
Cd2 O10 2.223 . S
Cd2 O12 2.297 . S
Cd2 O13 2.439 . S
O3 Cd2 2.240 . S
O3 C8 1.279 . S
O4 Cd1 2.297 . S
O4 C6 1.247 . S
O5 Cd1 2.439 . S
O5 C6 1.208 . S
C6 O4 1.247 . S
C6 O5 1.208 . S
C7 O12 1.247 . S
C7 O13 1.208 . S
C8 O0 1.315 . S
C8 O3 1.279 . S
C9 O10 1.315 . S
C9 O11 1.279 . S
O10 Cd2 2.223 . S
O10 C9 1.315 . S
O11 Cd1 2.240 . S
O11 C9 1.279 . S
O12 Cd2 2.297 . S
O12 C7 1.247 . S
O13 Cd2 2.439 . S
O13 C7 1.208 . S
O14 Cd15 2.223 . S
O14 C22 1.315 . S
Cd15 O14 2.223 . S
Cd15 O18 2.297 . S
Cd15 O19 2.439 . S
Cd15 O25 2.240 . S
Cd16 O17 2.240 . S
Cd16 O24 2.223 . S
Cd16 O26 2.297 . S
Cd16 O27 2.439 . S
O17 Cd16 2.240 . S
O17 C22 1.279 . S
O18 Cd15 2.297 . S
O18 C20 1.247 . S
O19 Cd15 2.439 . S
O19 C20 1.208 . S
C20 O18 1.247 . S
C20 O19 1.208 . S
C21 O26 1.247 . S
C21 O27 1.208 . S
C22 O14 1.315 . S
C22 O17 1.279 . S
C23 O24 1.315 . S
C23 O25 1.279 . S
O24 Cd16 2.223 . S
O24 C23 1.315 . S
O25 Cd15 2.240 . S
O25 C23 1.279 . S
O26 Cd16 2.297 . S
O26 C21 1.247 . S
O27 Cd16 2.439 . S
O27 C21 1.208 . S
O28 Cd29 2.223 . S
O28 C36 1.315 . S
Cd29 O28 2.223 . S
Cd29 O32 2.297 . S
Cd29 O33 2.439 1_554 S
Cd29 O39 2.240 1_554 S
Cd30 O31 2.240 . S
Cd30 O38 2.223 . S
Cd30 O40 2.297 1_554 S
Cd30 O41 2.439 1_554 S
O31 Cd30 2.240 . S
O31 C36 1.279 . S
O32 Cd29 2.297 . S
O32 C34 1.247 1_554 S
O33 Cd29 2.439 1_556 S
O33 C34 1.208 . S
C34 O32 1.247 1_556 S
C34 O33 1.208 . S
C35 O40 1.247 . S
C35 O41 1.208 . S
C36 O28 1.315 . S
C36 O31 1.279 . S
C37 O38 1.315 . S
C37 O39 1.279 1_554 S
O38 Cd30 2.223 . S
O38 C37 1.315 . S
O39 Cd29 2.240 1_556 S
O39 C37 1.279 1_556 S
O40 Cd30 2.297 1_556 S
O40 C35 1.247 . S
O41 Cd30 2.439 1_556 S
O41 C35 1.208 . S
O42 Cd43 2.223 . S
O42 C50 1.315 . S
Cd43 O42 2.223 . S
Cd43 O46 2.297 . S
Cd43 O47 2.439 . S
Cd43 O53 2.240 . S
Cd44 O45 2.240 . S
Cd44 O52 2.223 . S
Cd44 O54 2.297 . S
Cd44 O55 2.439 . S
O45 Cd44 2.240 . S
O45 C50 1.279 . S
O46 Cd43 2.297 . S
O46 C48 1.247 . S
O47 Cd43 2.439 . S
O47 C48 1.208 . S
C48 O46 1.247 . S
C48 O47 1.208 . S
C49 O54 1.247 . S
C49 O55 1.208 . S
C50 O42 1.315 . S
C50 O45 1.279 . S
C51 O52 1.315 . S
C51 O53 1.279 . S
O52 Cd44 2.223 . S
O52 C51 1.315 . S
O53 Cd43 2.240 . S
O53 C51 1.279 . S
O54 Cd44 2.297 . S
O54 C49 1.247 . S
O55 Cd44 2.439 . S
O55 C49 1.208 . S
O56 Cd57 2.223 . S
O56 C64 1.315 . S
Cd57 O56 2.223 . S
Cd57 O60 2.297 . S
Cd57 O61 2.439 . S
Cd57 O67 2.240 . S
Cd58 O59 2.240 . S
Cd58 O66 2.223 . S
Cd58 O68 2.297 . S
Cd58 O69 2.439 . S
O59 Cd58 2.240 . S
O59 C64 1.279 . S
O60 Cd57 2.297 . S
O60 C62 1.247 . S
O61 Cd57 2.439 . S
O61 C62 1.208 . S
C62 O60 1.247 . S
C62 O61 1.208 . S
C63 O68 1.247 . S
C63 O69 1.208 . S
C64 O56 1.315 . S
C64 O59 1.279 . S
C65 O66 1.315 . S
C65 O67 1.279 . S
O66 Cd58 2.223 . S
O66 C65 1.315 . S
O67 Cd57 2.240 . S
O67 C65 1.279 . S
O68 Cd58 2.297 . S
O68 C63 1.247 . S
O69 Cd58 2.439 . S
O69 C63 1.208 . S
O70 Cd71 2.223 . S
O70 C78 1.315 . S
Cd71 O70 2.223 . S
Cd71 O74 2.297 . S
Cd71 O75 2.439 1_554 S
Cd71 O81 2.240 1_554 S
Cd72 O73 2.240 . S
Cd72 O80 2.223 . S
Cd72 O82 2.297 1_554 S
Cd72 O83 2.439 1_554 S
O73 Cd72 2.240 . S
O73 C78 1.279 . S
O74 Cd71 2.297 . S
O74 C76 1.247 1_554 S
O75 Cd71 2.439 1_556 S
O75 C76 1.208 . S
C76 O74 1.247 1_556 S
C76 O75 1.208 . S
C77 O82 1.247 . S
C77 O83 1.208 . S
C78 O70 1.315 . S
C78 O73 1.279 . S
C79 O80 1.315 . S
C79 O81 1.279 1_554 S
O80 Cd72 2.223 . S
O80 C79 1.315 . S
O81 Cd71 2.240 1_556 S
O81 C79 1.279 1_556 S
O82 Cd72 2.297 1_556 S
O82 C77 1.247 . S
O83 Cd72 2.439 1_556 S
O83 C77 1.208 . S
O84 Cd85 2.223 . S
O84 C92 1.315 . S
Cd85 O84 2.223 . S
Cd85 O88 2.297 . S
Cd85 O89 2.439 . S
Cd85 O95 2.240 . S
Cd86 O87 2.240 . S
Cd86 O94 2.223 . S
Cd86 O96 2.297 . S
Cd86 O97 2.439 . S
O87 Cd86 2.240 . S
O87 C92 1.279 . S
O88 Cd85 2.297 . S
O88 C90 1.247 . S
O89 Cd85 2.439 . S
O89 C90 1.208 . S
C90 O88 1.247 . S
C90 O89 1.208 . S
C91 O96 1.247 . S
C91 O97 1.208 . S
C92 O84 1.315 . S
C92 O87 1.279 . S
C93 O94 1.315 . S
C93 O95 1.279 . S
O94 Cd86 2.223 . S
O94 C93 1.315 . S
O95 Cd85 2.240 . S
O95 C93 1.279 . S
O96 Cd86 2.297 . S
O96 C91 1.247 . S
O97 Cd86 2.439 . S
O97 C91 1.208 . S
O98 Cd99 2.223 . S
O98 C106 1.315 . S
Cd99 O98 2.223 . S
Cd99 O102 2.297 . S
Cd99 O103 2.439 . S
Cd99 O109 2.240 . S
Cd100 O101 2.240 . S
Cd100 O108 2.223 . S
Cd100 O110 2.297 . S
Cd100 O111 2.439 . S
O101 Cd100 2.240 . S
O101 C106 1.279 . S
O102 Cd99 2.297 . S
O102 C104 1.247 . S
O103 Cd99 2.439 . S
O103 C104 1.208 . S
C104 O102 1.247 . S
C104 O103 1.208 . S
C105 O110 1.247 . S
C105 O111 1.208 . S
C106 O98 1.315 . S
C106 O101 1.279 . S
C107 O108 1.315 . S
C107 O109 1.279 . S
O108 Cd100 2.223 . S
O108 C107 1.315 . S
O109 Cd99 2.240 . S
O109 C107 1.279 . S
O110 Cd100 2.297 . S
O110 C105 1.247 . S
O111 Cd100 2.439 . S
O111 C105 1.208 . S
O112 Cd113 2.223 1_556 S
O112 C120 1.315 . S
Cd113 O112 2.223 1_554 S
Cd113 O116 2.297 1_554 S
Cd113 O117 2.439 . S
Cd113 O123 2.240 . S
Cd114 O115 2.240 1_554 S
Cd114 O122 2.223 1_554 S
Cd114 O124 2.297 . S
Cd114 O125 2.439 . S
O115 Cd114 2.240 1_556 S
O115 C120 1.279 . S
O116 Cd113 2.297 1_556 S
O116 C118 1.247 1_556 S
O117 Cd113 2.439 . S
O117 C118 1.208 . S
C118 O116 1.247 1_554 S
C118 O117 1.208 . S
C119 O124 1.247 . S
C119 O125 1.208 . S
C120 O112 1.315 . S
C120 O115 1.279 . S
C121 O122 1.315 1_554 S
C121 O123 1.279 . S
O122 Cd114 2.223 1_556 S
O122 C121 1.315 1_556 S
O123 Cd113 2.240 . S
O123 C121 1.279 . S
O124 Cd114 2.297 . S
O124 C119 1.247 . S
O125 Cd114 2.439 . S
O125 C119 1.208 . S
O126 Cd127 2.223 . S
O126 C134 1.315 . S
Cd127 O126 2.223 . S
Cd127 O130 2.297 . S
Cd127 O131 2.439 . S
Cd127 O137 2.240 . S
Cd128 O129 2.240 . S
Cd128 O136 2.223 . S
Cd128 O138 2.297 . S
Cd128 O139 2.439 . S
O129 Cd128 2.240 . S
O129 C134 1.279 . S
O130 Cd127 2.297 . S
O130 C132 1.247 . S
O131 Cd127 2.439 . S
O131 C132 1.208 . S
C132 O130 1.247 . S
C132 O131 1.208 . S
C133 O138 1.247 . S
C133 O139 1.208 . S
C134 O126 1.315 . S
C134 O129 1.279 . S
C135 O136 1.315 . S
C135 O137 1.279 . S
O136 Cd128 2.223 . S
O136 C135 1.315 . S
O137 Cd127 2.240 . S
O137 C135 1.279 . S
O138 Cd128 2.297 . S
O138 C133 1.247 . S
O139 Cd128 2.439 . S
O139 C133 1.208 . S
O140 Cd141 2.223 . S
O140 C148 1.315 . S
Cd141 O140 2.223 . S
Cd141 O144 2.297 . S
Cd141 O145 2.439 . S
Cd141 O151 2.240 . S
Cd142 O143 2.240 . S
Cd142 O150 2.223 . S
Cd142 O152 2.297 . S
Cd142 O153 2.439 . S
O143 Cd142 2.240 . S
O143 C148 1.279 . S
O144 Cd141 2.297 . S
O144 C146 1.247 . S
O145 Cd141 2.439 . S
O145 C146 1.208 . S
C146 O144 1.247 . S
C146 O145 1.208 . S
C147 O152 1.247 . S
C147 O153 1.208 . S
C148 O140 1.315 . S
C148 O143 1.279 . S
C149 O150 1.315 . S
C149 O151 1.279 . S
O150 Cd142 2.223 . S
O150 C149 1.315 . S
O151 Cd141 2.240 . S
O151 C149 1.279 . S
O152 Cd142 2.297 . S
O152 C147 1.247 . S
O153 Cd142 2.439 . S
O153 C147 1.208 . S
O154 Cd155 2.223 1_556 S
O154 C162 1.315 . S
Cd155 O154 2.223 1_554 S
Cd155 O158 2.297 1_554 S
Cd155 O159 2.439 . S
Cd155 O165 2.240 . S
Cd156 O157 2.240 1_554 S
Cd156 O164 2.223 1_554 S
Cd156 O166 2.297 . S
Cd156 O167 2.439 . S
O157 Cd156 2.240 1_556 S
O157 C162 1.279 . S
O158 Cd155 2.297 1_556 S
O158 C160 1.247 1_556 S
O159 Cd155 2.439 . S
O159 C160 1.208 . S
C160 O158 1.247 1_554 S
C160 O159 1.208 . S
C161 O166 1.247 . S
C161 O167 1.208 . S
C162 O154 1.315 . S
C162 O157 1.279 . S
C163 O164 1.315 1_554 S
C163 O165 1.279 . S
O164 Cd156 2.223 1_556 S
O164 C163 1.315 1_556 S
O165 Cd155 2.240 . S
O165 C163 1.279 . S
O166 Cd156 2.297 . S
O166 C161 1.247 . S
O167 Cd156 2.439 . S
O167 C161 1.208 . S
C168 C169 1.170 . S
C168 C170 1.380 . S
C169 C168 1.170 . S
C170 C168 1.380 . S
C170 C171 1.170 . S
C171 C170 1.170 . S
C172 C173 1.170 . S
C172 C174 1.380 . S
C173 C172 1.170 . S
C174 C172 1.380 . S
C174 C175 1.170 . S
C175 C174 1.170 . S
C176 C177 1.170 . S
C176 C178 1.380 . S
C177 C176 1.170 . S
C178 C176 1.380 . S
C178 C179 1.170 . S
C179 C178 1.170 . S
C180 C181 1.170 . S
C180 C182 1.380 . S
C181 C180 1.170 . S
C182 C180 1.380 . S
C182 C183 1.170 . S
C183 C182 1.170 . S
C184 C185 1.170 . S
C184 C186 1.380 . S
C185 C184 1.170 . S
C186 C184 1.380 . S
C186 C187 1.170 . S
C187 C186 1.170 . S
C188 C189 1.170 . S
C188 C190 1.380 . S
C189 C188 1.170 . S
C190 C188 1.380 . S
C190 C191 1.170 . S
C191 C190 1.170 . S
C192 C193 1.170 . S
C192 C194 1.380 . S
C193 C192 1.170 . S
C194 C192 1.380 . S
C194 C195 1.170 . S
C195 C194 1.170 . S
C196 C197 1.170 . S
C196 C198 1.380 . S
C197 C196 1.170 . S
C198 C196 1.380 . S
C198 C199 1.170 . S
C199 C198 1.170 . S
C200 C201 1.170 . S
C200 C202 1.380 . S
C201 C200 1.170 . S
C202 C200 1.380 . S
C202 C203 1.170 . S
C203 C202 1.170 . S
C204 C205 1.170 . S
C204 C206 1.380 . S
C205 C204 1.170 . S
C206 C204 1.380 . S
C206 C207 1.170 . S
C207 C206 1.170 . S
C208 C209 1.170 . S
C208 C210 1.380 . S
C209 C208 1.170 . S
C210 C208 1.380 . S
C210 C211 1.170 . S
C211 C210 1.170 . S
C212 C213 1.170 . S
C212 C214 1.380 . S
C213 C212 1.170 . S
C214 C212 1.380 . S
C214 C215 1.170 . S
C215 C214 1.170 . S
C216 C217 1.170 . S
C216 C218 1.380 1_545 S
C217 C216 1.170 . S
C218 C216 1.380 1_565 S
C218 C219 1.170 . S
C219 C218 1.170 . S
C220 C221 1.170 . S
C220 C222 1.380 . S
C221 C220 1.170 . S
C222 C220 1.380 . S
C222 C223 1.170 . S
C223 C222 1.170 . S
C224 C225 1.170 . S
C224 C226 1.380 1_655 S
C225 C224 1.170 . S
C226 C224 1.380 1_455 S
C226 C227 1.170 . S
C227 C226 1.170 . S
C228 C229 1.170 . S
C228 C230 1.380 1_455 S
C229 C228 1.170 . S
C230 C228 1.380 1_655 S
C230 C231 1.170 . S
C231 C230 1.170 . S
C232 C233 1.170 . S
C232 C234 1.380 1_545 S
C233 C232 1.170 . S
C234 C232 1.380 1_565 S
C234 C235 1.170 . S
C235 C234 1.170 . S
C236 C237 1.170 . S
C236 C238 1.380 . S
C237 C236 1.170 . S
C238 C236 1.380 . S
C238 C239 1.170 . S
C239 C238 1.170 . S
C240 C241 1.170 . S
C240 C242 1.380 . S
C241 C240 1.170 . S
C242 C240 1.380 . S
C242 C243 1.170 . S
C243 C242 1.170 . S
C244 C245 1.170 . S
C244 C246 1.380 . S
C245 C244 1.170 . S
C246 C244 1.380 . S
C246 C247 1.170 . S
C247 C246 1.170 . S
C248 C249 1.170 . S
C248 C250 1.380 . S
C249 C248 1.170 . S
C250 C248 1.380 . S
C250 C251 1.170 . S
C251 C250 1.170 . S
C252 C253 1.170 . S
C252 C254 1.380 . S
C253 C252 1.170 . S
C254 C252 1.380 . S
C254 C255 1.170 . S
C255 C254 1.170 . S
C256 C257 1.170 . S
C256 C258 1.380 . S
C257 C256 1.170 . S
C258 C256 1.380 . S
C258 C259 1.170 . S
C259 C258 1.170 . S
C260 C261 1.170 . S
C260 C262 1.380 . S
C261 C260 1.170 . S
C262 C260 1.380 . S
C262 C263 1.170 . S
C263 C262 1.170 . S
C169 C8 1.603 . S
C171 C148 1.600 . S
C173 C22 1.611 . S
C175 C162 1.643 . S
C177 C92 1.589 . S
C179 C36 1.628 . S
C181 C50 1.615 . S
C183 C106 1.592 . S
C185 C120 1.589 . S
C187 C64 1.626 . S
C189 C134 1.589 . S
C191 C78 1.628 . S
C193 C93 0.981 . S
C195 C9 0.994 . S
C197 C107 0.977 . S
C199 C23 0.952 . S
C201 C121 0.994 . S
C203 C37 0.979 . S
C205 C51 0.973 . S
C207 C135 0.993 . S
C209 C65 0.949 . S
C211 C149 0.972 . S
C213 C79 0.994 . S
C215 C163 0.982 . S
C217 C6 1.424 . S
C219 C48 1.393 . S
C221 C20 1.406 . S
C223 C62 1.404 . S
C225 C34 1.411 . S
C227 C76 1.407 . S
C229 C132 1.392 . S
C231 C90 1.419 . S
C233 C146 1.388 . S
C235 C104 1.423 . S
C237 C160 1.401 . S
C239 C118 1.409 . S
C241 C7 1.403 . S
C243 C119 1.374 . S
C245 C133 1.404 . S
C247 C21 1.380 . S
C249 C35 1.393 . S
C251 C147 1.396 . S
C253 C161 1.375 . S
C255 C49 1.389 . S
C257 C63 1.397 . S
C259 C91 1.392 . S
C261 C77 1.393 . S
C263 C105 1.373 . S
