# Generated by pormake.
# Topology smq, (6)-cn, num edge types: 1
# Building blocks:
#     Node 0, Type 0, BuildingBlock: IZENUY_clean_sbu_0, # of connection points: 6
#     Node 1, Type 0, BuildingBlock: IZENUY_clean_sbu_0, # of connection points: 6
#     Node 2, Type 0, BuildingBlock: IZENUY_clean_sbu_0, # of connection points: 6
#     Node 3, Type 0, BuildingBlock: IZENUY_clean_sbu_0, # of connection points: 6
#     Node 4, Type 0, BuildingBlock: IZENUY_clean_sbu_0, # of connection points: 6
#     Node 5, Type 0, BuildingBlock: IZENUY_clean_sbu_0, # of connection points: 6
#     Node 6, Type 0, BuildingBlock: IZENUY_clean_sbu_0, # of connection points: 6
#     Node 7, Type 0, BuildingBlock: IZENUY_clean_sbu_0, # of connection points: 6
#     Node 8, Type 0, BuildingBlock: IZENUY_clean_sbu_0, # of connection points: 6
#     Node 9, Type 0, BuildingBlock: IZENUY_clean_sbu_0, # of connection points: 6
#     Node 10, Type 0, BuildingBlock: IZENUY_clean_sbu_0, # of connection points: 6
#     Node 11, Type 0, BuildingBlock: IZENUY_clean_sbu_0, # of connection points: 6
#     Node 12, Type 0, BuildingBlock: IZENUY_clean_sbu_0, # of connection points: 6
#     Node 13, Type 0, BuildingBlock: IZENUY_clean_sbu_0, # of connection points: 6
#     Node 14, Type 0, BuildingBlock: IZENUY_clean_sbu_0, # of connection points: 6
#     Node 15, Type 0, BuildingBlock: IZENUY_clean_sbu_0, # of connection points: 6
#     Node 16, Type 0, BuildingBlock: IZENUY_clean_sbu_0, # of connection points: 6
#     Node 17, Type 0, BuildingBlock: IZENUY_clean_sbu_0, # of connection points: 6
#     Node 18, Type 0, BuildingBlock: IZENUY_clean_sbu_0, # of connection points: 6
#     Node 19, Type 0, BuildingBlock: IZENUY_clean_sbu_0, # of connection points: 6
#     Node 20, Type 0, BuildingBlock: IZENUY_clean_sbu_0, # of connection points: 6
#     Node 21, Type 0, BuildingBlock: IZENUY_clean_sbu_0, # of connection points: 6
#     Node 22, Type 0, BuildingBlock: IZENUY_clean_sbu_0, # of connection points: 6
#     Node 23, Type 0, BuildingBlock: IZENUY_clean_sbu_0, # of connection points: 6
#     Edge 24, Type (0, 0), BuildingBlock: CIFDUS_clean_linker_0, # of connection points: 2
#     Edge 25, Type (0, 0), BuildingBlock: CIFDUS_clean_linker_0, # of connection points: 2
#     Edge 26, Type (0, 0), BuildingBlock: CIFDUS_clean_linker_0, # of connection points: 2
#     Edge 27, Type (0, 0), BuildingBlock: CIFDUS_clean_linker_0, # of connection points: 2
#     Edge 28, Type (0, 0), BuildingBlock: CIFDUS_clean_linker_0, # of connection points: 2
#     Edge 29, Type (0, 0), BuildingBlock: CIFDUS_clean_linker_0, # of connection points: 2
#     Edge 30, Type (0, 0), BuildingBlock: CIFDUS_clean_linker_0, # of connection points: 2
#     Edge 31, Type (0, 0), BuildingBlock: CIFDUS_clean_linker_0, # of connection points: 2
#     Edge 32, Type (0, 0), BuildingBlock: CIFDUS_clean_linker_0, # of connection points: 2
#     Edge 33, Type (0, 0), BuildingBlock: CIFDUS_clean_linker_0, # of connection points: 2
#     Edge 34, Type (0, 0), BuildingBlock: CIFDUS_clean_linker_0, # of connection points: 2
#     Edge 35, Type (0, 0), BuildingBlock: CIFDUS_clean_linker_0, # of connection points: 2
#     Edge 36, Type (0, 0), BuildingBlock: CIFDUS_clean_linker_0, # of connection points: 2
#     Edge 37, Type (0, 0), BuildingBlock: CIFDUS_clean_linker_0, # of connection points: 2
#     Edge 38, Type (0, 0), BuildingBlock: CIFDUS_clean_linker_0, # of connection points: 2
#     Edge 39, Type (0, 0), BuildingBlock: CIFDUS_clean_linker_0, # of connection points: 2
#     Edge 40, Type (0, 0), BuildingBlock: CIFDUS_clean_linker_0, # of connection points: 2
#     Edge 41, Type (0, 0), BuildingBlock: CIFDUS_clean_linker_0, # of connection points: 2
#     Edge 42, Type (0, 0), BuildingBlock: CIFDUS_clean_linker_0, # of connection points: 2
#     Edge 43, Type (0, 0), BuildingBlock: CIFDUS_clean_linker_0, # of connection points: 2
#     Edge 44, Type (0, 0), BuildingBlock: CIFDUS_clean_linker_0, # of connection points: 2
#     Edge 45, Type (0, 0), BuildingBlock: CIFDUS_clean_linker_0, # of connection points: 2
#     Edge 46, Type (0, 0), BuildingBlock: CIFDUS_clean_linker_0, # of connection points: 2
#     Edge 47, Type (0, 0), BuildingBlock: CIFDUS_clean_linker_0, # of connection points: 2
#     Edge 48, Type (0, 0), BuildingBlock: CIFDUS_clean_linker_0, # of connection points: 2
#     Edge 49, Type (0, 0), BuildingBlock: CIFDUS_clean_linker_0, # of connection points: 2
#     Edge 50, Type (0, 0), BuildingBlock: CIFDUS_clean_linker_0, # of connection points: 2
#     Edge 51, Type (0, 0), BuildingBlock: CIFDUS_clean_linker_0, # of connection points: 2
#     Edge 52, Type (0, 0), BuildingBlock: CIFDUS_clean_linker_0, # of connection points: 2
#     Edge 53, Type (0, 0), BuildingBlock: CIFDUS_clean_linker_0, # of connection points: 2
#     Edge 54, Type (0, 0), BuildingBlock: CIFDUS_clean_linker_0, # of connection points: 2
#     Edge 55, Type (0, 0), BuildingBlock: CIFDUS_clean_linker_0, # of connection points: 2
#     Edge 56, Type (0, 0), BuildingBlock: CIFDUS_clean_linker_0, # of connection points: 2
#     Edge 57, Type (0, 0), BuildingBlock: CIFDUS_clean_linker_0, # of connection points: 2
#     Edge 58, Type (0, 0), BuildingBlock: CIFDUS_clean_linker_0, # of connection points: 2
#     Edge 59, Type (0, 0), BuildingBlock: CIFDUS_clean_linker_0, # of connection points: 2
#     Edge 60, Type (0, 0), BuildingBlock: CIFDUS_clean_linker_0, # of connection points: 2
#     Edge 61, Type (0, 0), BuildingBlock: CIFDUS_clean_linker_0, # of connection points: 2
#     Edge 62, Type (0, 0), BuildingBlock: CIFDUS_clean_linker_0, # of connection points: 2
#     Edge 63, Type (0, 0), BuildingBlock: CIFDUS_clean_linker_0, # of connection points: 2
#     Edge 64, Type (0, 0), BuildingBlock: CIFDUS_clean_linker_0, # of connection points: 2
#     Edge 65, Type (0, 0), BuildingBlock: CIFDUS_clean_linker_0, # of connection points: 2
#     Edge 66, Type (0, 0), BuildingBlock: CIFDUS_clean_linker_0, # of connection points: 2
#     Edge 67, Type (0, 0), BuildingBlock: CIFDUS_clean_linker_0, # of connection points: 2
#     Edge 68, Type (0, 0), BuildingBlock: CIFDUS_clean_linker_0, # of connection points: 2
#     Edge 69, Type (0, 0), BuildingBlock: CIFDUS_clean_linker_0, # of connection points: 2
#     Edge 70, Type (0, 0), BuildingBlock: CIFDUS_clean_linker_0, # of connection points: 2
#     Edge 71, Type (0, 0), BuildingBlock: CIFDUS_clean_linker_0, # of connection points: 2
#     Edge 72, Type (0, 0), BuildingBlock: CIFDUS_clean_linker_0, # of connection points: 2
#     Edge 73, Type (0, 0), BuildingBlock: CIFDUS_clean_linker_0, # of connection points: 2
#     Edge 74, Type (0, 0), BuildingBlock: CIFDUS_clean_linker_0, # of connection points: 2
#     Edge 75, Type (0, 0), BuildingBlock: CIFDUS_clean_linker_0, # of connection points: 2
#     Edge 76, Type (0, 0), BuildingBlock: CIFDUS_clean_linker_0, # of connection points: 2
#     Edge 77, Type (0, 0), BuildingBlock: CIFDUS_clean_linker_0, # of connection points: 2
#     Edge 78, Type (0, 0), BuildingBlock: CIFDUS_clean_linker_0, # of connection points: 2
#     Edge 79, Type (0, 0), BuildingBlock: CIFDUS_clean_linker_0, # of connection points: 2
#     Edge 80, Type (0, 0), BuildingBlock: CIFDUS_clean_linker_0, # of connection points: 2
#     Edge 81, Type (0, 0), BuildingBlock: CIFDUS_clean_linker_0, # of connection points: 2
#     Edge 82, Type (0, 0), BuildingBlock: CIFDUS_clean_linker_0, # of connection points: 2
#     Edge 83, Type (0, 0), BuildingBlock: CIFDUS_clean_linker_0, # of connection points: 2
#     Edge 84, Type (0, 0), BuildingBlock: CIFDUS_clean_linker_0, # of connection points: 2
#     Edge 85, Type (0, 0), BuildingBlock: CIFDUS_clean_linker_0, # of connection points: 2
#     Edge 86, Type (0, 0), BuildingBlock: CIFDUS_clean_linker_0, # of connection points: 2
#     Edge 87, Type (0, 0), BuildingBlock: CIFDUS_clean_linker_0, # of connection points: 2
#     Edge 88, Type (0, 0), BuildingBlock: CIFDUS_clean_linker_0, # of connection points: 2
#     Edge 89, Type (0, 0), BuildingBlock: CIFDUS_clean_linker_0, # of connection points: 2
#     Edge 90, Type (0, 0), BuildingBlock: CIFDUS_clean_linker_0, # of connection points: 2
#     Edge 91, Type (0, 0), BuildingBlock: CIFDUS_clean_linker_0, # of connection points: 2
#     Edge 92, Type (0, 0), BuildingBlock: CIFDUS_clean_linker_0, # of connection points: 2
#     Edge 93, Type (0, 0), BuildingBlock: CIFDUS_clean_linker_0, # of connection points: 2
#     Edge 94, Type (0, 0), BuildingBlock: CIFDUS_clean_linker_0, # of connection points: 2
#     Edge 95, Type (0, 0), BuildingBlock: CIFDUS_clean_linker_0, # of connection points: 2
# Relax obj value: 0.236
# Max RMSD: 0.214
# Mean RMSD: 0.213
data_MOF--net-smq--node1-IZENUY_clean_sbu_0--edge1-CIFDUS_clean_linker_0
_symmetry_space_group_name_H-M    P1
_symmetry_Int_Tables_number       1
_symmetry_cell_setting            triclinic
loop_
_symmetry_equiv_pos_as_xyz
'x, y, z'
_cell_length_a     39.900642
_cell_length_b     39.910521
_cell_length_c     39.947615
_cell_angle_alpha  89.918252
_cell_angle_beta   90.192599
_cell_angle_gamma 90.061962
loop_
_atom_site_label
_atom_site_type_symbol
_atom_site_fract_x
_atom_site_fract_y
_atom_site_fract_z
_atom_type_partial_charge
Fe0 Fe 0.00843 0.18773 0.3046 0.0
Fe1 Fe 1.00067 0.18784 0.22902 0.0
O2 O 0.00522 0.21054 0.26659 0.0
Fe3 Fe 0.00675 0.255 0.26588 0.0
O4 O 0.04707 0.2559 0.28755 0.0
O5 O 0.03541 0.21805 0.32575 0.0
O6 O 0.04668 0.16718 0.29038 0.0
C7 C 0.04821 0.15085 0.26345 0.0
C8 C 0.96581 0.23867 0.32185 0.0
O9 O 0.02352 0.15104 0.24369 0.0
C10 C 0.95965 0.24371 0.21693 0.0
O11 O 0.98103 0.15307 0.29069 0.0
O12 O 0.96072 0.17113 0.24288 0.0
O13 O 0.9834 0.25941 0.30526 0.0
O14 O 0.9712 0.20752 0.32062 0.0
C15 C 0.04653 0.23487 0.21018 0.0
O16 O 0.97761 0.21993 0.20689 0.0
O17 O 0.96641 0.25855 0.244 0.0
C18 C 0.95746 0.15411 0.26929 0.0
O19 O 0.03985 0.20408 0.21359 0.0
O20 O 0.03036 0.25713 0.22618 0.0
C21 C 0.05383 0.24132 0.31482 0.0
Fe22 Fe 0.32222 0.50701 0.81057 0.0
Fe23 Fe 0.31942 0.50457 0.73467 0.0
O24 O 0.29805 0.50606 0.77315 0.0
Fe25 Fe 0.25353 0.50707 0.77404 0.0
O26 O 0.25357 0.54624 0.79768 0.0
O27 O 0.29251 0.53221 0.83417 0.0
O28 O 0.34199 0.54651 0.79837 0.0
C29 C 0.35707 0.55043 0.77101 0.0
C30 C 0.27219 0.46309 0.82757 0.0
O31 O 0.35639 0.52722 0.74959 0.0
C32 C 0.26324 0.46357 0.72159 0.0
O33 O 0.35661 0.48109 0.79388 0.0
O34 O 0.33719 0.4641 0.74538 0.0
O35 O 0.25073 0.48139 0.81255 0.0
O36 O 0.30327 0.4685 0.82489 0.0
C37 C 0.27095 0.55009 0.71938 0.0
O38 O 0.28687 0.48225 0.71226 0.0
O39 O 0.24941 0.46806 0.74972 0.0
C40 C 0.35497 0.45909 0.77103 0.0
O41 O 0.302 0.54439 0.7221 0.0
O42 O 0.24965 0.53287 0.7357 0.0
C43 C 0.26985 0.55185 0.82423 0.0
Fe44 Fe 1.00221 0.75573 0.27076 0.0
Fe45 Fe 1.00085 0.81965 0.31415 0.0
O46 O 0.0032 0.80007 0.27431 0.0
Fe47 Fe 0.00726 0.82495 0.23806 0.0
O48 O 0.98406 0.79613 0.2109 0.0
O49 O 0.96474 0.75671 0.24417 0.0
O50 O 0.97453 0.74973 0.30725 0.0
C51 C 0.95504 0.76975 0.32238 0.0
C52 C 0.05008 0.77503 0.22147 0.0
O53 O 0.96046 0.80086 0.32213 0.0
C54 C 0.05008 0.85662 0.28399 0.0
O55 O 0.03978 0.75193 0.29644 0.0
O56 O 0.02312 0.78613 0.33617 0.0
O57 O 0.04684 0.80575 0.22779 0.0
O58 O 0.02971 0.75386 0.23364 0.0
C59 C 0.96067 0.86066 0.27272 0.0
O60 O 0.04159 0.83937 0.30894 0.0
O61 O 0.0313 0.85826 0.25849 0.0
C62 C 0.04374 0.76486 0.32503 0.0
O63 O 0.97788 0.85677 0.29913 0.0
O64 O 0.96798 0.84559 0.24607 0.0
C65 C 0.96364 0.77251 0.21666 0.0
Fe66 Fe 0.68808 0.50585 0.8023 0.0
Fe67 Fe 0.69316 0.49745 0.72654 0.0
O68 O 0.71277 0.5007 0.76598 0.0
Fe69 Fe 0.75706 0.49866 0.76824 0.0
O70 O 0.75521 0.462 0.79436 0.0
O71 O 0.71549 0.4795 0.82866 0.0
O72 O 0.66439 0.46766 0.7941 0.0
C73 C 0.64844 0.46209 0.76754 0.0
C74 C 0.74087 0.54703 0.81783 0.0
O75 O 0.654 0.47938 0.74176 0.0
C76 C 0.74946 0.53679 0.71269 0.0
O77 O 0.65708 0.53375 0.78124 0.0
O78 O 0.67711 0.53903 0.73012 0.0
O79 O 0.76105 0.52634 0.80487 0.0
O80 O 0.70975 0.54385 0.81384 0.0
C81 C 0.7401 0.45016 0.71844 0.0
O82 O 0.72805 0.51558 0.70313 0.0
O83 O 0.76121 0.53583 0.742 0.0
C84 C 0.66006 0.55029 0.75404 0.0
O85 O 0.70912 0.45554 0.72153 0.0
O86 O 0.76119 0.46992 0.73201 0.0
C87 C 0.73873 0.45909 0.8211 0.0
Fe88 Fe 1.00138 0.82813 0.77607 0.0
Fe89 Fe 0.99966 0.76263 0.73612 0.0
O90 O 1.00216 0.80698 0.7373 0.0
Fe91 Fe 0.00505 0.83114 0.70015 0.0
O92 O 0.04482 0.84876 0.71303 0.0
O93 O 0.02601 0.86423 0.76185 0.0
O94 O 0.04012 0.80863 0.78851 0.0
C95 C 0.04381 0.77733 0.7916 0.0
C96 C 0.95814 0.86584 0.73935 0.0
O97 O 0.02524 0.757 0.7751 0.0
C98 C 0.95758 0.78481 0.68227 0.0
O99 O 0.97719 0.79652 0.79847 0.0
O100 O 0.96031 0.76204 0.75934 0.0
O101 O 0.98045 0.8667 0.71674 0.0
O102 O 0.96207 0.84787 0.76502 0.0
C103 C 0.04583 0.77462 0.68611 0.0
O104 O 0.97369 0.76167 0.69737 0.0
O105 O 0.96603 0.81502 0.68499 0.0
C106 C 0.95687 0.77485 0.7879 0.0
O107 O 0.03854 0.75912 0.71268 0.0
O108 O 0.02931 0.80003 0.67679 0.0
C109 C 0.04828 0.86539 0.73946 0.0
Fe110 Fe 0.6727 0.50004 0.26951 0.0
Fe111 Fe 0.74118 0.50562 0.23556 0.0
O112 O 0.69697 0.50277 0.23276 0.0
Fe113 Fe 0.67626 0.50237 0.19351 0.0
O114 O 0.65356 0.54041 0.20372 0.0
O115 O 0.63565 0.52059 0.25143 0.0
O116 O 0.6867 0.54081 0.28267 0.0
C117 C 0.71705 0.54832 0.28758 0.0
C118 C 0.64295 0.4526 0.23084 0.0
O119 O 0.74049 0.53132 0.27422 0.0
C120 C 0.72932 0.46067 0.18174 0.0
O121 O 0.70478 0.47936 0.29501 0.0
O122 O 0.7441 0.46657 0.25908 0.0
O123 O 0.64197 0.47429 0.20751 0.0
O124 O 0.65821 0.45879 0.25778 0.0
C125 C 0.72884 0.54938 0.18385 0.0
O126 O 0.74861 0.48052 0.19754 0.0
O127 O 0.69805 0.46491 0.18125 0.0
C128 C 0.7292 0.46142 0.28633 0.0
O129 O 0.74207 0.54461 0.21217 0.0
O130 O 0.70679 0.52957 0.17243 0.0
C131 C 0.63488 0.54282 0.22886 0.0
Fe132 Fe 0.00495 0.19159 0.77915 0.0
Fe133 Fe 0.00458 0.25821 0.741 0.0
O134 O 0.00478 0.21376 0.74083 0.0
Fe135 Fe 0.00452 0.191 0.70277 0.0
O136 O 0.97852 0.15619 0.71913 0.0
O137 O 0.96466 0.1731 0.76955 0.0
O138 O 0.98243 0.22351 0.80288 0.0
C139 C 0.96216 0.24561 0.79298 0.0
C140 C 0.04829 0.15313 0.7393 0.0
O141 O 0.96557 0.25938 0.76478 0.0
C142 C 0.04831 0.24565 0.68962 0.0
O143 O 0.04493 0.20958 0.79056 0.0
O144 O 0.03065 0.26175 0.77947 0.0
O145 O 0.04394 0.17031 0.71322 0.0
O146 O 0.02764 0.15504 0.76314 0.0
C147 C 0.96036 0.24138 0.6873 0.0
O148 O 0.04315 0.26036 0.71709 0.0
O149 O 0.02979 0.22175 0.67987 0.0
C150 C 0.04967 0.24069 0.79416 0.0
O151 O 0.97888 0.2622 0.70271 0.0
O152 O 0.96559 0.2103 0.6895 0.0
C153 C 0.95819 0.15634 0.74357 0.0
Fe154 Fe 0.32847 0.49915 0.20673 0.0
Fe155 Fe 0.31745 0.5052 0.28178 0.0
O156 O 0.30075 0.50503 0.24078 0.0
Fe157 Fe 0.25721 0.51129 0.2346 0.0
O158 O 0.25445 0.48241 0.19841 0.0
O159 O 0.30579 0.46267 0.19254 0.0
O160 O 0.35596 0.46934 0.22988 0.0
C161 C 0.34888 0.45113 0.25517 0.0
C162 C 0.2832 0.54874 0.18238 0.0
O163 O 0.3296 0.46199 0.27766 0.0
C164 C 0.27561 0.55837 0.28535 0.0
O165 O 0.35267 0.53635 0.21851 0.0
O166 O 0.35914 0.51964 0.26982 0.0
O167 O 0.26423 0.54745 0.20761 0.0
O168 O 0.30553 0.52668 0.17775 0.0
C169 C 0.25547 0.47337 0.29147 0.0
O170 O 0.30556 0.54839 0.28708 0.0
O171 O 0.25333 0.54127 0.27003 0.0
C172 C 0.36597 0.54013 0.24688 0.0
O173 O 0.27942 0.49072 0.30248 0.0
O174 O 0.24642 0.47554 0.26126 0.0
C175 C 0.27472 0.46068 0.18689 0.0
Fe176 Fe 0.26616 1.00163 0.25431 0.0
Fe177 Fe 0.3074 0.99785 0.18897 0.0
O178 O 0.26846 1.00112 0.2099 0.0
Fe179 Fe 0.23125 0.00338 0.18591 0.0
O180 O 0.2219 0.04454 0.20242 0.0
O181 O 0.22971 0.03005 0.25522 0.0
O182 O 0.29251 0.03868 0.25681 0.0
C183 C 0.32057 0.04263 0.24275 0.0
C184 C 0.21202 0.96221 0.23913 0.0
O185 O 0.33045 0.02304 0.21986 0.0
C186 C 0.26516 0.95239 0.15521 0.0
O187 O 0.30242 0.97384 0.26081 0.0
O188 O 0.31714 0.95912 0.2099 0.0
O189 O 0.2047 0.98362 0.21713 0.0
O190 O 0.23939 0.96416 0.25503 0.0
C191 C 0.27574 0.04248 0.1482 0.0
O192 O 0.29083 0.9713 0.15449 0.0
O193 O 0.23872 0.96196 0.16945 0.0
C194 C 0.31753 0.95427 0.241 0.0
O195 O 0.30063 0.03697 0.16667 0.0
O196 O 0.2504 0.02358 0.14947 0.0
C197 C 0.21747 0.0498 0.23334 0.0
Fe198 Fe 0.50374 0.7293 0.69025 0.0
Fe199 Fe 0.50578 0.76956 0.75538 0.0
O200 O 0.50492 0.76828 0.71092 0.0
Fe201 Fe 0.50554 0.80538 0.68654 0.0
O202 O 0.47817 0.78836 0.65317 0.0
O203 O 0.46326 0.73899 0.67257 0.0
O204 O 0.48188 0.70732 0.72346 0.0
C205 C 0.46189 0.71773 0.74543 0.0
C206 C 0.54711 0.76598 0.64932 0.0
O207 O 0.4663 0.74607 0.75885 0.0
C208 C 0.55099 0.81938 0.73931 0.0
O209 O 0.54398 0.71805 0.70767 0.0
O210 O 0.53103 0.73085 0.75972 0.0
O211 O 0.54426 0.79284 0.66554 0.0
O212 O 0.52539 0.74327 0.65247 0.0
C213 C 0.46298 0.82407 0.73708 0.0
O214 O 0.54505 0.79282 0.75551 0.0
O215 O 0.53207 0.82877 0.71563 0.0
C216 C 0.54936 0.71544 0.73876 0.0
O217 O 0.48096 0.80847 0.75829 0.0
O218 O 0.46767 0.82068 0.70604 0.0
C219 C 0.45711 0.76451 0.65496 0.0
Fe220 Fe 0.73809 0.00712 0.25675 0.0
Fe221 Fe 0.71078 1.00175 0.18433 0.0
O222 O 0.74467 0.00328 0.21309 0.0
Fe223 Fe 0.78601 1.00036 0.19805 0.0
O224 O 0.79162 0.96156 0.22014 0.0
O225 O 0.7754 0.98142 0.26865 0.0
O226 O 0.71367 0.9688 0.25784 0.0
C227 C 0.68885 0.96172 0.23936 0.0
C228 C 0.79257 0.04755 0.24946 0.0
O229 O 0.68292 0.97811 0.21268 0.0
C230 C 0.75916 0.04464 0.15406 0.0
O231 O 0.69998 0.03307 0.25241 0.0
O232 O 0.69497 0.0416 0.1982 0.0
O233 O 0.80508 0.02457 0.23191 0.0
O234 O 0.76225 0.04618 0.25831 0.0
C235 C 0.75259 0.95497 0.1573 0.0
O236 O 0.73331 0.02596 0.15151 0.0
O237 O 0.78157 0.03887 0.17557 0.0
C238 C 0.68806 0.04949 0.22784 0.0
O239 O 0.72381 0.9611 0.16835 0.0
O240 O 0.77573 0.97603 0.161 0.0
C241 C 0.79218 0.96034 0.25161 0.0
Fe242 Fe 0.49937 0.23991 0.74982 0.0
Fe243 Fe 0.50622 0.21149 0.67797 0.0
O244 O 0.50299 0.24578 0.70598 0.0
Fe245 Fe 0.50317 0.28688 0.68939 0.0
O246 O 0.54188 0.29592 0.71065 0.0
O247 O 0.52497 0.27775 0.7601 0.0
O248 O 0.53796 0.21584 0.752 0.0
C249 C 0.54612 0.19129 0.73384 0.0
C250 C 0.45736 0.29335 0.74175 0.0
O251 O 0.53097 0.18513 0.70659 0.0
C252 C 0.45912 0.25513 0.64814 0.0
O253 O 0.47354 0.20151 0.74635 0.0
O254 O 0.46736 0.19385 0.69201 0.0
O255 O 0.47912 0.30602 0.72294 0.0
O256 O 0.45993 0.26337 0.75137 0.0
C257 C 0.55014 0.25507 0.64944 0.0
O258 O 0.48094 0.2321 0.64473 0.0
O259 O 0.46412 0.27899 0.6682 0.0
C260 C 0.45848 0.18812 0.72163 0.0
O261 O 0.54606 0.2265 0.66197 0.0
O262 O 0.52744 0.27675 0.65217 0.0
C263 C 0.54461 0.29553 0.74215 0.0
Fe264 Fe 0.3036 0.00552 0.82306 0.0
Fe265 Fe 0.22843 0.9982 0.81339 0.0
O266 O 0.26839 0.00436 0.79594 0.0
Fe267 Fe 0.27208 0.00843 0.75192 0.0
O268 O 0.3 0.97272 0.74968 0.0
O269 O 0.33162 0.98369 0.79387 0.0
O270 O 0.29426 0.96388 0.83987 0.0
C271 C 0.26655 0.95602 0.85241 0.0
C272 C 0.31996 0.05501 0.77814 0.0
O273 O 0.24277 0.97648 0.8508 0.0
C274 C 0.2139 0.04309 0.7612 0.0
O275 O 0.2808 0.02892 0.85618 0.0
O276 O 0.23097 0.03782 0.83385 0.0
O277 O 0.30764 0.03819 0.75402 0.0
O278 O 0.31593 0.04608 0.80804 0.0
C279 C 0.22321 0.95661 0.76118 0.0
O280 O 0.20536 0.01925 0.78004 0.0
O281 O 0.24381 0.04488 0.75091 0.0
C282 C 0.25468 0.04708 0.85259 0.0
O283 O 0.22551 0.9584 0.7926 0.0
O284 O 0.237 0.97885 0.74281 0.0
C285 C 0.32571 0.96713 0.76739 0.0
Fe286 Fe 0.50502 0.80744 0.32518 0.0
Fe287 Fe 0.50477 0.73107 0.3263 0.0
O288 O 0.50454 0.7688 0.30323 0.0
Fe289 Fe 0.50369 0.76772 0.2588 0.0
O290 O 0.52971 0.80585 0.25367 0.0
O291 O 0.54363 0.82015 0.30516 0.0
O292 O 0.53126 0.79187 0.36011 0.0
C293 C 0.55176 0.76759 0.35996 0.0
C294 C 0.45974 0.81892 0.27214 0.0
O295 O 0.54527 0.74129 0.34376 0.0
C296 C 0.45952 0.71445 0.27815 0.0
O297 O 0.46583 0.79749 0.34639 0.0
O298 O 0.48255 0.74795 0.3627 0.0
O299 O 0.46509 0.7915 0.25754 0.0
O300 O 0.47954 0.82982 0.29436 0.0
C301 C 0.54472 0.71446 0.27006 0.0
O302 O 0.46459 0.71862 0.30915 0.0
O303 O 0.47736 0.72959 0.25654 0.0
C304 C 0.46176 0.77176 0.36415 0.0
O305 O 0.52662 0.70684 0.29474 0.0
O306 O 0.54221 0.74294 0.25642 0.0
C307 C 0.54843 0.8218 0.274 0.0
Fe308 Fe 0.73872 0.00909 0.75665 0.0
Fe309 Fe 0.69928 0.00712 0.82317 0.0
O310 O 0.73768 0.0068 0.8009 0.0
Fe311 Fe 0.77541 0.00417 0.82398 0.0
O312 O 0.78829 0.04485 0.80925 0.0
O313 O 0.77738 0.03545 0.75574 0.0
O314 O 0.71475 0.04792 0.7558 0.0
C315 C 0.68698 0.0529 0.77003 0.0
C316 C 0.79052 0.96554 0.76743 0.0
O317 O 0.67682 0.03365 0.79305 0.0
C318 C 0.73758 0.95753 0.85596 0.0
O319 O 0.70051 0.98328 0.75115 0.0
O320 O 0.68559 0.96933 0.80261 0.0
O321 O 0.79982 0.98358 0.79151 0.0
O322 O 0.76259 0.97018 0.75342 0.0
C323 C 0.73778 0.04864 0.86098 0.0
O324 O 0.71468 0.97964 0.85735 0.0
O325 O 0.76386 0.96295 0.83929 0.0
C326 C 0.68483 0.9643 0.77144 0.0
O327 O 0.71105 0.04578 0.84445 0.0
O328 O 0.75856 0.02484 0.86103 0.0
C329 C 0.79153 0.05259 0.77879 0.0
Fe330 Fe 0.5002 0.20054 0.33255 0.0
Fe331 Fe 0.50557 0.27607 0.32479 0.0
O332 O 0.50371 0.23601 0.30608 0.0
Fe333 Fe 0.50573 0.23218 0.2619 0.0
O334 O 0.46673 0.20865 0.25981 0.0
O335 O 0.47467 0.17587 0.30352 0.0
O336 O 0.46105 0.21565 0.3501 0.0
C337 C 0.45904 0.24304 0.3654 0.0
C338 C 0.54678 0.1788 0.28682 0.0
O339 O 0.48206 0.26453 0.3624 0.0
C340 C 0.54886 0.28464 0.27024 0.0
O341 O 0.52629 0.21887 0.36625 0.0
O342 O 0.54531 0.26565 0.34413 0.0
O343 O 0.53134 0.19337 0.26293 0.0
O344 O 0.53836 0.18308 0.31683 0.0
C345 C 0.46165 0.28781 0.27415 0.0
O346 O 0.52889 0.29652 0.29135 0.0
O347 O 0.54528 0.25521 0.25958 0.0
C348 C 0.54928 0.24074 0.36325 0.0
O349 O 0.46639 0.28744 0.30546 0.0
O350 O 0.48026 0.27075 0.25449 0.0
C351 C 0.45888 0.18335 0.27707 0.0
Fe352 Fe 0.26435 0.26567 0.00493 0.0
Fe353 Fe 0.19353 0.29796 0.00722 0.0
O354 O 0.22005 0.2624 0.00445 0.0
Fe355 Fe 0.20172 0.22252 1.00011 0.0
O356 O 0.23622 0.19949 0.01893 0.0
O357 O 0.268 0.23788 0.04151 0.0
O358 O 0.26512 0.30142 0.03408 0.0
C359 C 0.243 0.315 0.05241 0.0
C360 C 0.2507 0.2168 0.95443 0.0
O361 O 0.21215 0.31111 0.04649 0.0
C362 C 0.15982 0.26051 0.96038 0.0
O363 O 0.26404 0.29323 0.96883 0.0
O364 O 0.22134 0.3254 0.98297 0.0
O365 O 0.21949 0.21852 0.95903 0.0
O366 O 0.27086 0.23033 0.97524 0.0
C367 C 0.16449 0.24878 0.0501 0.0
O368 O 0.17324 0.28824 0.96702 0.0
O369 O 0.16301 0.23681 0.98078 0.0
C370 C 0.24639 0.31917 0.96455 0.0
O371 O 0.16164 0.27574 0.03302 0.0
O372 O 0.18385 0.22565 0.04094 0.0
C373 C 0.25738 0.20805 0.04074 0.0
Fe374 Fe 0.19398 0.78795 1.00132 0.0
Fe375 Fe 0.25076 0.73657 0.0024 0.0
O376 O 0.20742 0.74599 0.00463 0.0
Fe377 Fe 0.17698 0.71404 0.00952 0.0
O378 O 0.15655 0.72534 0.96992 0.0
O379 O 0.1532 0.77808 0.98285 0.0
O380 O 0.21046 0.79066 0.95955 0.0
C381 C 0.24124 0.78781 0.95308 0.0
C382 C 0.15622 0.76547 0.05324 0.0
O383 O 0.26037 0.77108 0.97249 0.0
C384 C 0.22588 0.6919 0.0527 0.0
O385 O 0.23194 0.80635 0.01915 0.0
O386 O 0.2602 0.76331 0.03859 0.0
O387 O 0.14883 0.74008 0.03543 0.0
O388 O 0.17737 0.78664 0.04314 0.0
C389 C 0.22321 0.68598 0.96401 0.0
O390 O 0.24833 0.70059 0.03182 0.0
O391 O 0.19569 0.70036 0.04851 0.0
C392 C 0.25302 0.79416 0.0393 0.0
O393 O 0.24426 0.70961 0.96614 0.0
O394 O 0.20012 0.68274 0.98543 0.0
C395 C 0.14642 0.75443 0.96307 0.0
Fe396 Fe 0.76809 0.74053 0.50833 0.0
Fe397 Fe 0.80681 0.67377 0.50256 0.0
O398 O 0.76855 0.69635 0.50389 0.0
Fe399 Fe 0.7306 0.67397 0.50071 0.0
O400 O 0.72013 0.69525 0.46242 0.0
O401 O 0.73082 0.74637 0.48078 0.0
O402 O 0.79336 0.74602 0.47101 0.0
C403 C 0.82083 0.73175 0.46493 0.0
C404 C 0.71352 0.72555 0.54653 0.0
O405 O 0.83073 0.70726 0.48242 0.0
C406 C 0.76597 0.63487 0.5437 0.0
O407 O 0.8053 0.74131 0.53642 0.0
O408 O 0.81806 0.68799 0.54369 0.0
O409 O 0.70576 0.70342 0.5253 0.0
O410 O 0.74221 0.73887 0.54596 0.0
C411 C 0.77166 0.6421 0.45388 0.0
O412 O 0.78978 0.63611 0.52289 0.0
O413 O 0.73986 0.65211 0.53939 0.0
C414 C 0.81964 0.71804 0.55304 0.0
O415 O 0.79775 0.65829 0.46095 0.0
O416 O 0.74774 0.64036 0.47454 0.0
C417 C 0.71773 0.72659 0.45937 0.0
Fe418 Fe 0.82292 0.23131 1.00159 0.0
Fe419 Fe 0.75506 0.26706 0.00524 0.0
O420 O 0.79952 0.26851 0.00418 0.0
Fe421 Fe 0.82135 0.30718 0.00598 0.0
O422 O 0.85709 0.29321 0.98024 0.0
O423 O 0.84052 0.24421 0.96189 0.0
O424 O 0.79164 0.20844 0.97783 0.0
C425 C 0.76772 0.21785 0.9594 0.0
C426 C 0.85781 0.26869 0.04893 0.0
O427 O 0.75235 0.24484 0.96531 0.0
C428 C 0.76816 0.31655 0.05102 0.0
O429 O 0.80595 0.21636 0.04061 0.0
O430 O 0.75305 0.2273 0.02906 0.0
O431 O 0.8415 0.29541 0.04522 0.0
O432 O 0.85864 0.24748 0.02547 0.0
C433 C 0.7704 0.32228 0.96284 0.0
O434 O 0.75415 0.28879 0.04521 0.0
O435 O 0.78986 0.32829 0.03127 0.0
C436 C 0.77515 0.21151 0.04579 0.0
O437 O 0.75 0.30646 0.98148 0.0
O438 O 0.80167 0.32078 0.96764 0.0
C439 C 0.85715 0.27071 0.95787 0.0
Fe440 Fe 0.23771 0.26875 0.50745 0.0
Fe441 Fe 0.27433 0.33582 0.50621 0.0
O442 O 0.23645 0.31301 0.5052 0.0
Fe443 Fe 0.19814 0.33547 0.50227 0.0
O444 O 0.17444 0.30622 0.52869 0.0
O445 O 0.21135 0.26797 0.54423 0.0
O446 O 0.27437 0.26803 0.53639 0.0
C447 C 0.28671 0.29077 0.5552 0.0
C448 C 0.18585 0.2825 0.45976 0.0
O449 O 0.28294 0.32142 0.54821 0.0
C450 C 0.24089 0.36504 0.45441 0.0
O451 O 0.26442 0.26569 0.47044 0.0
O452 O 0.30027 0.30283 0.48862 0.0
O453 O 0.18613 0.31377 0.46434 0.0
O454 O 0.20139 0.26271 0.47936 0.0
C455 C 0.23392 0.37419 0.54619 0.0
O456 O 0.26692 0.34999 0.46417 0.0
O457 O 0.21579 0.3682 0.47393 0.0
C458 C 0.29301 0.27911 0.46911 0.0
O459 O 0.25593 0.37368 0.52374 0.0
O460 O 0.2073 0.35802 0.54133 0.0
C461 C 0.18373 0.2828 0.54806 0.0
Fe462 Fe 0.82583 0.70198 0.00399 0.0
Fe463 Fe 0.82362 0.77818 1.00009 0.0
O464 O 0.80211 0.73948 0.00174 0.0
Fe465 Fe 0.75769 0.73898 1.00097 0.0
O466 O 0.75525 0.71568 0.03997 0.0
O467 O 0.79566 0.67939 0.03015 0.0
O468 O 0.84597 0.7152 0.043 0.0
C469 C 0.86269 0.74184 0.04564 0.0
C470 C 0.77621 0.68434 0.95913 0.0
O471 O 0.86082 0.76373 0.02288 0.0
C472 C 0.76909 0.79062 0.95741 0.0
O473 O 0.86013 0.71814 0.97727 0.0
O474 O 0.84147 0.76715 0.96008 0.0
O475 O 0.75474 0.70048 0.97601 0.0
O476 O 0.8071 0.68606 0.96583 0.0
C477 C 0.77483 0.79267 0.04495 0.0
O478 O 0.79118 0.80108 0.97733 0.0
O479 O 0.75605 0.76214 0.9614 0.0
C480 C 0.85873 0.74115 0.95522 0.0
O481 O 0.80596 0.7904 0.03964 0.0
O482 O 0.75374 0.7776 0.02628 0.0
C483 C 0.7706 0.68893 0.04697 0.0
Fe484 Fe 0.77138 0.25916 0.50126 0.0
Fe485 Fe 0.80831 0.32723 0.50043 0.0
O486 O 0.77075 0.30345 0.49934 0.0
Fe487 Fe 0.73216 0.32483 0.49657 0.0
O488 O 0.71944 0.30868 0.53666 0.0
O489 O 0.73248 0.25606 0.52617 0.0
O490 O 0.79414 0.25937 0.54076 0.0
C491 C 0.82125 0.27468 0.54652 0.0
C492 C 0.72021 0.26829 0.45659 0.0
O493 O 0.8313 0.29777 0.52726 0.0
C494 C 0.76899 0.35922 0.45099 0.0
O495 O 0.81023 0.2554 0.47691 0.0
O496 O 0.82334 0.30733 0.46289 0.0
O497 O 0.70967 0.2916 0.47489 0.0
O498 O 0.74852 0.25521 0.46169 0.0
C499 C 0.76806 0.36328 0.54172 0.0
O500 O 0.79204 0.36103 0.47298 0.0
O501 O 0.74338 0.34142 0.45601 0.0
C502 C 0.82564 0.27614 0.45834 0.0
O503 O 0.79537 0.34786 0.53885 0.0
O504 O 0.747 0.36236 0.51814 0.0
C505 C 0.71686 0.27786 0.5433 0.0
Fe506 Fe 0.27693 0.68292 0.50332 0.0
Fe507 Fe 0.24002 0.74996 0.50718 0.0
O508 O 0.239 0.70562 0.50504 0.0
Fe509 Fe 0.20088 0.68267 0.50487 0.0
O510 O 0.2129 0.66035 0.54311 0.0
O511 O 0.2601 0.64473 0.5218 0.0
O512 O 0.28799 0.69686 0.54477 0.0
C513 C 0.2907 0.72736 0.55283 0.0
C514 C 0.24032 0.65273 0.45463 0.0
O515 O 0.27746 0.75054 0.53512 0.0
C516 C 0.1859 0.73501 0.46231 0.0
O517 O 0.30202 0.71605 0.48484 0.0
O518 O 0.26571 0.75376 0.46923 0.0
O519 O 0.21693 0.64998 0.47612 0.0
O520 O 0.26668 0.6689 0.46158 0.0
C521 C 0.18747 0.73576 0.55035 0.0
O522 O 0.20274 0.75546 0.48013 0.0
O523 O 0.1864 0.70389 0.46776 0.0
C524 C 0.29438 0.7407 0.46678 0.0
O525 O 0.21469 0.75096 0.54495 0.0
O526 O 0.17814 0.71154 0.5322 0.0
C527 C 0.23944 0.64355 0.54543 0.0
H528 H 0.08652 0.19387 0.17479 0.0
H529 H 0.05824 0.29778 0.18415 0.0
H530 H 0.09202 0.31175 0.13491 0.0
H531 H 0.1281 0.29353 0.08764 0.0
H532 H 0.15404 0.18867 0.0797 0.0
H533 H 0.12223 0.17615 0.12958 0.0
C534 C 0.08773 0.21967 0.16625 0.0
C535 C 0.06968 0.24466 0.18301 0.0
C536 C 0.10651 0.22735 0.13782 0.0
C537 C 0.07194 0.278 0.17171 0.0
C538 C 0.09106 0.28597 0.14342 0.0
C539 C 0.12653 0.26798 0.09676 0.0
C540 C 0.14337 0.24217 0.07975 0.0
C541 C 0.10809 0.26071 0.12592 0.0
C542 C 0.14142 0.20916 0.09215 0.0
C543 C 0.12324 0.20186 0.1208 0.0
H544 H 0.308 0.57115 0.66716 0.0
H545 H 0.20806 0.5762 0.70773 0.0
H546 H 0.1889 0.60613 0.65746 0.0
H547 H 0.20061 0.62887 0.60054 0.0
H548 H 0.30063 0.61875 0.56051 0.0
H549 H 0.3194 0.59254 0.61187 0.0
C550 C 0.28205 0.57908 0.66537 0.0
C551 C 0.25956 0.57157 0.69129 0.0
C552 C 0.27106 0.59497 0.63614 0.0
C553 C 0.22595 0.58177 0.68815 0.0
C554 C 0.21496 0.5987 0.65934 0.0
C555 C 0.2264 0.62067 0.60306 0.0
C556 C 0.24899 0.62555 0.57646 0.0
C557 C 0.23722 0.60499 0.63287 0.0
C558 C 0.28244 0.61499 0.58024 0.0
C559 C 0.29339 0.60015 0.60977 0.0
H560 H 0.86184 0.71323 0.10858 0.0
H561 H 0.91534 0.7845 0.04717 0.0
H562 H 0.95056 0.79969 0.09442 0.0
H563 H 0.96516 0.7948 0.15289 0.0
H564 H 0.91321 0.72455 0.21654 0.0
H565 H 0.87837 0.70705 0.16875 0.0
C566 C 0.88151 0.73174 0.10553 0.0
C567 C 0.88585 0.74769 0.07425 0.0
C568 C 0.90171 0.74086 0.13324 0.0
C569 C 0.91125 0.77189 0.07085 0.0
C570 C 0.93145 0.78069 0.09792 0.0
C571 C 0.94622 0.77565 0.15663 0.0
C572 C 0.94176 0.76123 0.18851 0.0
C573 C 0.92661 0.76572 0.12924 0.0
C574 C 0.91717 0.73623 0.19238 0.0
C575 C 0.89729 0.72618 0.16501 0.0
H576 H 0.70124 0.42694 0.66827 0.0
H577 H 0.80332 0.42669 0.70436 0.0
H578 H 0.82149 0.39918 0.6526 0.0
H579 H 0.8083 0.37822 0.59553 0.0
H580 H 0.70613 0.38393 0.55965 0.0
H581 H 0.68828 0.40689 0.6128 0.0
C582 C 0.72746 0.42049 0.66524 0.0
C583 C 0.75087 0.42873 0.69028 0.0
C584 C 0.73783 0.4063 0.63507 0.0
C585 C 0.78476 0.42045 0.68552 0.0
C586 C 0.79518 0.405 0.65583 0.0
C587 C 0.78222 0.38476 0.59934 0.0
C588 C 0.75871 0.3797 0.57345 0.0
C589 C 0.77198 0.39846 0.6301 0.0
C590 C 0.72492 0.38803 0.57885 0.0
C591 C 0.71455 0.40091 0.60939 0.0
H592 H 0.08024 0.81583 0.8338 0.0
H593 H 0.05495 0.71252 0.8143 0.0
H594 H 0.08497 0.69561 0.86543 0.0
H595 H 0.11645 0.71111 0.91757 0.0
H596 H 0.13696 0.81582 0.93626 0.0
H597 H 0.1104 0.83101 0.88388 0.0
C598 C 0.08129 0.78947 0.84037 0.0
C599 C 0.06519 0.76554 0.82 0.0
C600 C 0.09744 0.78017 0.87015 0.0
C601 C 0.06716 0.73156 0.8293 0.0
C602 C 0.08415 0.72191 0.85872 0.0
C603 C 0.11489 0.73721 0.9102 0.0
C604 C 0.12842 0.76224 0.9313 0.0
C605 C 0.09897 0.74611 0.87971 0.0
C606 C 0.12638 0.79596 0.92108 0.0
C607 C 0.11135 0.80477 0.89088 0.0
H608 H 0.77676 0.55901 0.31988 0.0
H609 H 0.67357 0.59172 0.31659 0.0
H610 H 0.68177 0.62366 0.36772 0.0
H611 H 0.71646 0.63836 0.4159 0.0
H612 H 0.82033 0.60908 0.41887 0.0
H613 H 0.81363 0.57947 0.3654 0.0
C614 C 0.75626 0.5736 0.33002 0.0
C615 C 0.72445 0.57242 0.31471 0.0
C616 C 0.76105 0.59196 0.35968 0.0
C617 C 0.6982 0.59171 0.32809 0.0
C618 C 0.70278 0.60992 0.35743 0.0
C619 C 0.7376 0.62544 0.4048 0.0
C620 C 0.76858 0.62509 0.42142 0.0
C621 C 0.73375 0.60938 0.37392 0.0
C622 C 0.79612 0.60921 0.40651 0.0
C623 C 0.7923 0.5924 0.376 0.0
H624 H 0.9712 0.28081 0.84962 0.0
H625 H 0.89591 0.2316 0.78984 0.0
H626 H 0.85567 0.23608 0.83591 0.0
H627 H 0.84425 0.2487 0.89521 0.0
H628 H 0.91891 0.29989 0.95438 0.0
H629 H 0.95719 0.30025 0.90655 0.0
C630 C 0.9456 0.27212 0.84646 0.0
C631 C 0.93613 0.25636 0.81647 0.0
C632 C 0.92285 0.27462 0.8731 0.0
C633 C 0.90329 0.24447 0.81257 0.0
C634 C 0.88052 0.24666 0.83902 0.0
C635 C 0.86884 0.26015 0.89746 0.0
C636 C 0.87909 0.27372 0.92833 0.0
C637 C 0.89037 0.26078 0.86972 0.0
C638 C 0.91064 0.28912 0.93089 0.0
C639 C 0.93249 0.28929 0.90358 0.0
H640 H 0.27388 0.41141 0.30778 0.0
H641 H 0.20268 0.48845 0.3316 0.0
H642 H 0.18876 0.45984 0.38425 0.0
H643 H 0.20344 0.41688 0.42724 0.0
H644 H 0.27841 0.34281 0.40316 0.0
H645 H 0.28425 0.36603 0.34737 0.0
C646 C 0.25431 0.42107 0.32392 0.0
C647 C 0.23862 0.45131 0.3156 0.0
C648 C 0.24784 0.40543 0.35472 0.0
C649 C 0.21424 0.46452 0.33715 0.0
C650 C 0.20677 0.44846 0.3675 0.0
C651 C 0.22068 0.40567 0.40959 0.0
C652 C 0.24096 0.37861 0.41976 0.0
C653 C 0.22441 0.41955 0.37721 0.0
C654 C 0.26304 0.36418 0.39642 0.0
C655 C 0.26631 0.37726 0.3643 0.0
H656 H 0.16741 0.07459 0.19489 0.0
H657 H 0.20724 0.07701 0.29538 0.0
H658 H 0.15864 0.10943 0.31396 0.0
H659 H 0.10291 0.13424 0.30201 0.0
H660 H 0.06287 0.12772 0.2016 0.0
H661 H 0.11328 0.09964 0.18285 0.0
C662 C 0.16583 0.08266 0.22076 0.0
C663 C 0.19098 0.07351 0.24367 0.0
C664 C 0.1374 0.10011 0.23146 0.0
C665 C 0.1882 0.0838 0.27721 0.0
C666 C 0.16034 0.10217 0.28789 0.0
C667 C 0.10525 0.12654 0.2761 0.0
C668 C 0.07889 0.1327 0.25344 0.0
C669 C 0.1344 0.10988 0.26535 0.0
C670 C 0.08243 0.12281 0.21982 0.0
C671 C 0.1114 0.10693 0.20892 0.0
H672 H 0.43108 0.67336 0.70671 0.0
H673 H 0.43536 0.70736 0.80893 0.0
H674 H 0.40154 0.65864 0.82644 0.0
H675 H 0.37549 0.60306 0.81251 0.0
H676 H 0.37652 0.56994 0.70948 0.0
H677 H 0.40405 0.62124 0.6927 0.0
C678 C 0.42436 0.67037 0.73287 0.0
C679 C 0.43591 0.69368 0.75654 0.0
C680 C 0.40646 0.64195 0.74269 0.0
C681 C 0.42658 0.6898 0.7902 0.0
C682 C 0.40765 0.66171 0.8002 0.0
C683 C 0.38184 0.60715 0.78646 0.0
C684 C 0.37444 0.58221 0.76245 0.0
C685 C 0.39829 0.63702 0.77673 0.0
C686 C 0.38248 0.58815 0.7287 0.0
C687 C 0.39803 0.61769 0.71891 0.0
H688 H 0.90387 0.8648 0.31012 0.0
H689 H 0.95892 0.91304 0.23077 0.0
H690 H 0.91235 0.95135 0.22078 0.0
H691 H 0.85452 0.96664 0.22995 0.0
H692 H 0.79594 0.91702 0.30568 0.0
H693 H 0.84546 0.88388 0.3224 0.0
C694 C 0.90568 0.88425 0.29121 0.0
C695 C 0.93454 0.8864 0.27113 0.0
C696 C 0.87819 0.90548 0.28481 0.0
C697 C 0.93681 0.91115 0.24636 0.0
C698 C 0.91023 0.93291 0.24062 0.0
C699 C 0.85262 0.94872 0.25034 0.0
C700 C 0.8217 0.94365 0.26623 0.0
C701 C 0.88056 0.92957 0.25895 0.0
C702 C 0.81959 0.92106 0.29305 0.0
C703 C 0.84779 0.90209 0.30239 0.0
H704 H 0.64611 0.40199 0.80089 0.0
H705 H 0.59245 0.46344 0.72967 0.0
H706 H 0.55356 0.4178 0.71862 0.0
H707 H 0.53853 0.35924 0.7242 0.0
H708 H 0.59176 0.29528 0.79303 0.0
H709 H 0.62695 0.34308 0.81047 0.0
C710 C 0.62545 0.40546 0.78352 0.0
C711 C 0.62227 0.43594 0.76589 0.0
C712 C 0.60346 0.3786 0.7766 0.0
C713 C 0.59559 0.44013 0.74327 0.0
C714 C 0.57336 0.41405 0.73689 0.0
C715 C 0.5577 0.35582 0.74325 0.0
C716 C 0.5631 0.32388 0.75696 0.0
C717 C 0.57773 0.38298 0.75258 0.0
C718 C 0.5874 0.31974 0.78208 0.0
C719 C 0.60752 0.347 0.79186 0.0
H720 H 0.16271 0.96102 0.78751 0.0
H721 H 0.21661 0.91394 0.707 0.0
H722 H 0.1656 0.88255 0.69125 0.0
H723 H 0.10668 0.8662 0.70372 0.0
H724 H 0.05528 0.91445 0.78567 0.0
H725 H 0.10466 0.94797 0.79755 0.0
C726 C 0.16338 0.94381 0.76649 0.0
C727 C 0.19331 0.93902 0.74882 0.0
C728 C 0.13451 0.92618 0.75798 0.0
C729 C 0.19375 0.91758 0.72108 0.0
C730 C 0.1647 0.8997 0.71223 0.0
C731 C 0.10625 0.88435 0.7239 0.0
C732 C 0.07743 0.88764 0.74398 0.0
C733 C 0.13506 0.90343 0.73094 0.0
C734 C 0.07718 0.91118 0.77006 0.0
C735 C 0.10539 0.93039 0.77689 0.0
H736 H 0.53027 0.64922 0.27466 0.0
H737 H 0.60129 0.71733 0.22994 0.0
H738 H 0.63407 0.66927 0.20948 0.0
H739 H 0.64465 0.60762 0.20923 0.0
H740 H 0.57377 0.54179 0.25757 0.0
H741 H 0.5385 0.58949 0.27161 0.0
C742 C 0.55298 0.65379 0.26047 0.0
C743 C 0.56377 0.68682 0.25442 0.0
C744 C 0.57159 0.62639 0.24946 0.0
C745 C 0.59265 0.69212 0.23513 0.0
C746 C 0.61136 0.66466 0.22357 0.0
C747 C 0.62114 0.60383 0.22225 0.0
C748 C 0.61172 0.57131 0.23243 0.0
C749 C 0.60139 0.63164 0.2312 0.0
C750 C 0.58151 0.56659 0.24965 0.0
C751 C 0.56141 0.59383 0.25774 0.0
H752 H 0.83833 0.05265 0.72878 0.0
H753 H 0.80231 0.10988 0.81279 0.0
H754 H 0.85013 0.1477 0.80843 0.0
H755 H 0.90432 0.16173 0.78413 0.0
H756 H 0.94213 0.10469 0.70077 0.0
H757 H 0.89164 0.06963 0.70147 0.0
C758 C 0.8406 0.07393 0.74549 0.0
C759 C 0.81678 0.07858 0.771 0.0
C760 C 0.86882 0.09521 0.74341 0.0
C761 C 0.82032 0.10586 0.79295 0.0
C762 C 0.84776 0.12737 0.79061 0.0
C763 C 0.90161 0.14163 0.76606 0.0
C764 C 0.92729 0.13552 0.7428 0.0
C765 C 0.8726 0.12173 0.76657 0.0
C766 C 0.92292 0.10978 0.71916 0.0
C767 C 0.89401 0.08974 0.71952 0.0
H768 H 0.40837 0.31395 0.3057 0.0
H769 H 0.46441 0.32143 0.21393 0.0
H770 H 0.43341 0.37239 0.19879 0.0
H771 H 0.39385 0.41788 0.21468 0.0
H772 H 0.33979 0.40916 0.30794 0.0
H773 H 0.3667 0.35601 0.31937 0.0
C774 C 0.41351 0.32643 0.28211 0.0
C775 C 0.43877 0.31403 0.26109 0.0
C776 C 0.3963 0.35596 0.27407 0.0
C777 C 0.4449 0.33031 0.23047 0.0
C778 C 0.42744 0.35969 0.22201 0.0
C779 C 0.38794 0.40429 0.23743 0.0
C780 C 0.36515 0.41803 0.26059 0.0
C781 C 0.4037 0.3733 0.24411 0.0
C782 C 0.35747 0.3997 0.28975 0.0
C783 C 0.37279 0.36909 0.29637 0.0
H784 H 0.25208 0.14204 0.03003 0.0
H785 H 0.29179 0.21321 0.10111 0.0
H786 H 0.30497 0.16691 0.13982 0.0
H787 H 0.29916 0.10642 0.15535 0.0
H788 H 0.2538 0.03836 0.08458 0.0
H789 H 0.2487 0.08343 0.0437 0.0
C790 C 0.26377 0.14771 0.05393 0.0
C791 C 0.27048 0.18117 0.06288 0.0
C792 C 0.26999 0.12143 0.07615 0.0
C793 C 0.28629 0.1877 0.09366 0.0
C794 C 0.29358 0.16125 0.11582 0.0
C795 C 0.28871 0.10156 0.13072 0.0
C796 C 0.27682 0.06922 0.12281 0.0
C797 C 0.2847 0.12805 0.10765 0.0
C798 C 0.26294 0.06308 0.09114 0.0
C799 C 0.26002 0.08881 0.06781 0.0
H800 H 0.207 0.82097 0.9055 0.0
H801 H 0.30649 0.81012 0.94664 0.0
H802 H 0.3247 0.86033 0.91614 0.0
H803 H 0.30973 0.91183 0.88369 0.0
H804 H 0.20758 0.92367 0.8495 0.0
H805 H 0.19305 0.86906 0.87168 0.0
C806 C 0.23287 0.82921 0.90749 0.0
C807 C 0.25519 0.81205 0.92867 0.0
C808 C 0.24252 0.8589 0.89164 0.0
C809 C 0.28874 0.82284 0.93047 0.0
C810 C 0.29904 0.85183 0.91337 0.0
C811 C 0.28443 0.90223 0.88103 0.0
C812 C 0.25968 0.92204 0.86544 0.0
C813 C 0.27576 0.87084 0.89491 0.0
C814 C 0.22699 0.90927 0.86193 0.0
C815 C 0.21863 0.87789 0.87442 0.0
H816 H 0.60877 0.7341 0.34782 0.0
H817 H 0.56474 0.80431 0.41677 0.0
H818 H 0.61529 0.80188 0.4519 0.0
H819 H 0.66961 0.77469 0.46578 0.0
H820 H 0.71183 0.70379 0.39634 0.0
H821 H 0.66474 0.71211 0.35823 0.0
C822 C 0.61027 0.749 0.37048 0.0
C823 C 0.58287 0.76879 0.38011 0.0
C824 C 0.63922 0.74751 0.39031 0.0
C825 C 0.58545 0.78862 0.40905 0.0
C826 C 0.61432 0.78723 0.4291 0.0
C827 C 0.6689 0.76198 0.4418 0.0
C828 C 0.69405 0.7387 0.43375 0.0
C829 C 0.64112 0.76618 0.42034 0.0
C830 C 0.69269 0.72184 0.40294 0.0
C831 C 0.66567 0.72639 0.38128 0.0
H832 H 0.80558 0.17274 0.92879 0.0
H833 H 0.70362 0.2078 0.93414 0.0
H834 H 0.6848 0.15851 0.90208 0.0
H835 H 0.69751 0.10216 0.87781 0.0
H836 H 0.80007 0.06722 0.87934 0.0
H837 H 0.8183 0.1194 0.90411 0.0
C838 C 0.77918 0.16983 0.92273 0.0
C839 C 0.75596 0.19354 0.93414 0.0
C840 C 0.7686 0.14098 0.9062 0.0
C841 C 0.72199 0.18984 0.92553 0.0
C842 C 0.71124 0.16146 0.90762 0.0
C843 C 0.72376 0.10605 0.88375 0.0
C844 C 0.74725 0.0805 0.87726 0.0
C845 C 0.73426 0.13625 0.89881 0.0
C846 C 0.78128 0.08602 0.8847 0.0
C847 C 0.79188 0.11604 0.8986 0.0
H848 H 0.3581 0.29579 0.47233 0.0
H849 H 0.28928 0.23211 0.41822 0.0
H850 H 0.33547 0.21312 0.3823 0.0
H851 H 0.39533 0.21732 0.36484 0.0
H852 H 0.46153 0.28345 0.41944 0.0
H853 H 0.41619 0.29867 0.45683 0.0
C854 C 0.3529 0.27771 0.45273 0.0
C855 C 0.32014 0.26561 0.4478 0.0
C856 C 0.37918 0.26736 0.43229 0.0
C857 C 0.31425 0.24189 0.42249 0.0
C858 C 0.34064 0.2311 0.40196 0.0
C859 C 0.39977 0.23473 0.3852 0.0
C860 C 0.4317 0.24934 0.38933 0.0
C861 C 0.37321 0.24398 0.40643 0.0
C862 C 0.43716 0.27207 0.41558 0.0
C863 C 0.41125 0.2808 0.43699 0.0
H864 H 0.81357 0.82938 0.08641 0.0
H865 H 0.71042 0.81414 0.05718 0.0
H866 H 0.69359 0.86221 0.09129 0.0
H867 H 0.70931 0.91156 0.12585 0.0
H868 H 0.8136 0.92695 0.15099 0.0
H869 H 0.82875 0.87598 0.12178 0.0
C870 C 0.78731 0.83629 0.08757 0.0
C871 C 0.76338 0.8184 0.06894 0.0
C872 C 0.77804 0.86434 0.10619 0.0
C873 C 0.72943 0.82758 0.07119 0.0
C874 C 0.71981 0.85518 0.09053 0.0
C875 C 0.73526 0.90358 0.12496 0.0
C876 C 0.76032 0.92329 0.14007 0.0
C877 C 0.74406 0.87427 0.10752 0.0
C878 C 0.79388 0.91261 0.13897 0.0
C879 C 0.80261 0.88334 0.12245 0.0
H880 H 0.59857 0.21281 0.62569 0.0
H881 H 0.57162 0.31734 0.63355 0.0
H882 H 0.62261 0.33336 0.60463 0.0
H883 H 0.67316 0.31818 0.57523 0.0
H884 H 0.6999 0.21406 0.56332 0.0
H885 H 0.65097 0.19747 0.59637 0.0
C886 C 0.60392 0.23905 0.621 0.0
C887 C 0.58112 0.26379 0.63139 0.0
C888 C 0.63327 0.24821 0.60387 0.0
C889 C 0.58845 0.29773 0.62535 0.0
C890 C 0.61771 0.30699 0.60899 0.0
C891 C 0.6686 0.29179 0.57997 0.0
C892 C 0.69009 0.2674 0.56661 0.0
C893 C 0.64007 0.28247 0.59789 0.0
C894 C 0.6837 0.23337 0.57325 0.0
C895 C 0.65564 0.22387 0.59198 0.0
H896 H 0.33598 0.77843 0.55336 0.0
H897 H 0.30202 0.69271 0.60981 0.0
H898 H 0.34995 0.69792 0.64755 0.0
H899 H 0.4038 0.72324 0.66119 0.0
H900 H 0.43985 0.80773 0.6041 0.0
H901 H 0.3888 0.80662 0.56988 0.0
C902 C 0.33869 0.76153 0.57449 0.0
C903 C 0.31553 0.73533 0.57899 0.0
C904 C 0.36697 0.76401 0.59549 0.0
C905 C 0.31957 0.71312 0.60601 0.0
C906 C 0.34705 0.71593 0.62742 0.0
C907 C 0.40058 0.74148 0.64128 0.0
C908 C 0.42589 0.76516 0.63483 0.0
C909 C 0.37137 0.74063 0.62177 0.0
C910 C 0.42091 0.789 0.60936 0.0
C911 C 0.3917 0.78842 0.58983 0.0
H912 H 0.84288 0.76456 0.89379 0.0
H913 H 0.92086 0.71331 0.94846 0.0
H914 H 0.95716 0.7154 0.89912 0.0
H915 H 0.96853 0.7373 0.84244 0.0
H916 H 0.89012 0.78714 0.78736 0.0
H917 H 0.85167 0.77963 0.83462 0.0
C918 C 0.86774 0.75362 0.89474 0.0
C919 C 0.87953 0.73936 0.92479 0.0
C920 C 0.88815 0.75449 0.86619 0.0
C921 C 0.91143 0.72462 0.92563 0.0
C922 C 0.93214 0.72584 0.89747 0.0
C923 C 0.94265 0.74545 0.84053 0.0
C924 C 0.93178 0.76229 0.81156 0.0
C925 C 0.921 0.74134 0.86787 0.0
C926 C 0.89858 0.77348 0.80928 0.0
C927 C 0.87684 0.76957 0.83641 0.0
H928 H 0.7435 0.34495 0.39003 0.0
H929 H 0.79615 0.42185 0.44479 0.0
H930 H 0.79151 0.45974 0.39666 0.0
H931 H 0.76735 0.47259 0.34096 0.0
H932 H 0.7164 0.39502 0.28585 0.0
H933 H 0.72573 0.35546 0.33195 0.0
C934 C 0.75421 0.36993 0.39126 0.0
C935 C 0.76967 0.38088 0.42099 0.0
C936 C 0.75178 0.3913 0.36343 0.0
C937 C 0.78403 0.41299 0.42217 0.0
C938 C 0.78129 0.43464 0.39472 0.0
C939 C 0.75922 0.44671 0.33884 0.0
C940 C 0.74155 0.43636 0.31021 0.0
C941 C 0.76461 0.42429 0.36548 0.0
C942 C 0.73047 0.40313 0.30762 0.0
C943 C 0.73556 0.3807 0.33404 0.0
H944 H 0.08983 0.20153 0.83228 0.0
H945 H 0.0617 0.30483 0.81724 0.0
H946 H 0.09477 0.32107 0.86649 0.0
H947 H 0.12884 0.30484 0.91663 0.0
H948 H 0.15268 0.20024 0.93123 0.0
H949 H 0.1242 0.18586 0.87964 0.0
C950 C 0.09102 0.22772 0.83945 0.0
C951 C 0.07303 0.25182 0.82107 0.0
C952 C 0.10914 0.23667 0.86817 0.0
C953 C 0.07524 0.28564 0.83087 0.0
C954 C 0.09402 0.29494 0.8592 0.0
C955 C 0.12776 0.27899 0.90839 0.0
C956 C 0.14247 0.25366 0.92819 0.0
C957 C 0.11056 0.27053 0.87853 0.0
C958 C 0.14106 0.22025 0.917 0.0
C959 C 0.1249 0.2119 0.8873 0.0
H960 H 0.22418 0.55729 0.32953 0.0
H961 H 0.30778 0.61689 0.29598 0.0
H962 H 0.30241 0.65318 0.34486 0.0
H963 H 0.27878 0.66344 0.40012 0.0
H964 H 0.1969 0.60257 0.43588 0.0
H965 H 0.19672 0.57122 0.3832 0.0
C966 C 0.24037 0.57895 0.33244 0.0
C967 C 0.26612 0.58476 0.30916 0.0
C968 C 0.23803 0.59885 0.36139 0.0
C969 C 0.2876 0.61229 0.31351 0.0
C970 C 0.28477 0.63277 0.3416 0.0
C971 C 0.26079 0.64337 0.39643 0.0
C972 C 0.23837 0.63487 0.42219 0.0
C973 C 0.26094 0.62548 0.36627 0.0
C974 C 0.21472 0.60933 0.41662 0.0
C975 C 0.21456 0.59145 0.38648 0.0
H976 H 0.87773 0.31106 0.09986 0.0
H977 H 0.87262 0.20677 0.07115 0.0
H978 H 0.89758 0.19034 0.124 0.0
H979 H 0.92472 0.20492 0.17586 0.0
H980 H 0.93702 0.3083 0.2043 0.0
H981 H 0.9042 0.32579 0.15489 0.0
C982 C 0.88221 0.28481 0.10528 0.0
C983 C 0.87388 0.26024 0.08125 0.0
C984 C 0.89744 0.27535 0.13581 0.0
C985 C 0.87944 0.22627 0.08874 0.0
C986 C 0.89345 0.21675 0.11914 0.0
C987 C 0.91989 0.23135 0.17153 0.0
C988 C 0.93349 0.25531 0.1934 0.0
C989 C 0.90303 0.24103 0.14248 0.0
C990 C 0.92662 0.28938 0.18786 0.0
C991 C 0.90832 0.29933 0.15936 0.0
H992 H 0.30054 0.4331 0.67601 0.0
H993 H 0.19815 0.44113 0.70882 0.0
H994 H 0.17927 0.41239 0.65741 0.0
H995 H 0.19245 0.39009 0.59989 0.0
H996 H 0.2959 0.39006 0.56782 0.0
H997 H 0.3135 0.41117 0.62164 0.0
C998 C 0.274 0.42829 0.67221 0.0
C999 C 0.2508 0.43945 0.69611 0.0
C1000 C 0.26345 0.41387 0.64212 0.0
C1001 C 0.2166 0.43257 0.69096 0.0
C1002 C 0.20583 0.41661 0.6613 0.0
C1003 C 0.21876 0.39493 0.60473 0.0
C1004 C 0.24266 0.38884 0.57936 0.0
C1005 C 0.22903 0.40811 0.63609 0.0
C1006 C 0.27673 0.39496 0.58631 0.0
C1007 C 0.28701 0.40682 0.61733 0.0
H1008 H 0.11713 0.72206 0.089 0.0
H1009 H 0.15869 0.82206 0.09115 0.0
H1010 H 0.13262 0.83222 0.1451 0.0
H1011 H 0.09605 0.81409 0.19032 0.0
H1012 H 0.05336 0.71465 0.1888 0.0
H1013 H 0.08258 0.7027 0.13646 0.0
C1014 C 0.12028 0.74613 0.10118 0.0
C1015 C 0.13936 0.77141 0.08566 0.0
C1016 C 0.10536 0.75184 0.13252 0.0
C1017 C 0.1438 0.80223 0.1022 0.0
C1018 C 0.12903 0.80808 0.13319 0.0
C1019 C 0.09335 0.78962 0.17881 0.0
C1020 C 0.07226 0.76544 0.19339 0.0
C1021 C 0.10954 0.7832 0.14842 0.0
C1022 C 0.06942 0.73377 0.17819 0.0
C1023 C 0.08589 0.72701 0.14807 0.0
H1024 H 0.7763 0.52266 0.65323 0.0
H1025 H 0.74589 0.60446 0.71638 0.0
H1026 H 0.74881 0.64308 0.66861 0.0
H1027 H 0.75353 0.65152 0.60756 0.0
H1028 H 0.78599 0.56995 0.54501 0.0
H1029 H 0.78864 0.53281 0.59388 0.0
C1030 C 0.77145 0.5492 0.6566 0.0
C1031 C 0.7612 0.56105 0.68796 0.0
C1032 C 0.7727 0.57086 0.62908 0.0
C1033 C 0.75449 0.5952 0.69241 0.0
C1034 C 0.75563 0.61705 0.66505 0.0
C1035 C 0.7612 0.62559 0.60484 0.0
C1036 C 0.76871 0.61295 0.57297 0.0
C1037 C 0.76352 0.60484 0.63307 0.0
C1038 C 0.77965 0.57979 0.56945 0.0
C1039 C 0.78127 0.55872 0.59729 0.0
H1040 H 0.84775 0.97842 0.73466 0.0
H1041 H 0.78798 0.89824 0.77514 0.0
H1042 H 0.83508 0.85931 0.76886 0.0
H1043 H 0.89511 0.85012 0.75775 0.0
H1044 H 0.95445 0.9298 0.71534 0.0
H1045 H 0.90568 0.96712 0.71624 0.0
C1046 C 0.84484 0.95212 0.74095 0.0
C1047 C 0.81455 0.94085 0.75483 0.0
C1048 C 0.87209 0.93015 0.73756 0.0
C1049 C 0.81095 0.90705 0.7637 0.0
C1050 C 0.83798 0.88501 0.76053 0.0
C1051 C 0.8972 0.87561 0.7485 0.0
C1052 C 0.92833 0.88755 0.7371 0.0
C1053 C 0.86896 0.89658 0.7485 0.0
C1054 C 0.93073 0.92027 0.72445 0.0
C1055 C 0.9029 0.94155 0.72498 0.0
H1056 H 0.53627 0.33659 0.22939 0.0
H1057 H 0.61582 0.28549 0.2816 0.0
H1058 H 0.65346 0.3331 0.27172 0.0
H1059 H 0.66083 0.39203 0.25479 0.0
H1060 H 0.58163 0.44294 0.20164 0.0
H1061 H 0.5466 0.39252 0.20489 0.0
C1062 C 0.56225 0.33553 0.23745 0.0
C1063 C 0.57362 0.30765 0.25577 0.0
C1064 C 0.58342 0.36314 0.23205 0.0
C1065 C 0.60695 0.30652 0.26685 0.0
C1066 C 0.62824 0.33388 0.26158 0.0
C1067 C 0.63603 0.39187 0.24358 0.0
C1068 C 0.62347 0.42121 0.22856 0.0
C1069 C 0.61632 0.36277 0.24529 0.0
C1070 C 0.59166 0.42066 0.21349 0.0
C1071 C 0.57166 0.39189 0.21543 0.0
H1072 H 0.14803 0.03712 0.77388 0.0
H1073 H 0.2187 0.10174 0.72368 0.0
H1074 H 0.17287 0.1407 0.70973 0.0
H1075 H 0.11261 0.15762 0.71512 0.0
H1076 H 0.04497 0.09253 0.7688 0.0
H1077 H 0.0899 0.05235 0.77789 0.0
C1078 C 0.15377 0.05964 0.75976 0.0
C1079 C 0.18701 0.0665 0.75004 0.0
C1080 C 0.12768 0.08186 0.75249 0.0
C1081 C 0.19344 0.09578 0.73153 0.0
C1082 C 0.16721 0.11807 0.72364 0.0
C1083 C 0.10778 0.13439 0.72839 0.0
C1084 C 0.07548 0.12801 0.7413 0.0
C1085 C 0.13421 0.11156 0.73439 0.0
C1086 C 0.06958 0.09808 0.7588 0.0
C1087 C 0.09526 0.0751 0.76402 0.0
H1088 H 0.376 0.5976 0.21007 0.0
H1089 H 0.40342 0.54899 0.30291 0.0
H1090 H 0.43241 0.5992 0.32132 0.0
H1091 H 0.44917 0.65707 0.31221 0.0
H1092 H 0.4254 0.7062 0.21897 0.0
H1093 H 0.39549 0.6559 0.19979 0.0
C1094 C 0.38876 0.59787 0.23408 0.0
C1095 C 0.38742 0.56944 0.25502 0.0
C1096 C 0.40554 0.62714 0.24477 0.0
C1097 C 0.40392 0.57039 0.2862 0.0
C1098 C 0.42042 0.59921 0.29693 0.0
C1099 C 0.43704 0.65702 0.28786 0.0
C1100 C 0.43889 0.68555 0.26731 0.0
C1101 C 0.42098 0.62783 0.27668 0.0
C1102 C 0.42392 0.68465 0.23541 0.0
C1103 C 0.40702 0.65584 0.22439 0.0
H1104 H 0.84985 0.03975 0.28369 0.0
H1105 H 0.78725 0.11438 0.23715 0.0
H1106 H 0.83326 0.1552 0.24008 0.0
H1107 H 0.89352 0.16697 0.24972 0.0
H1108 H 0.95514 0.09238 0.29808 0.0
H1109 H 0.90735 0.05406 0.30066 0.0
C1110 C 0.84603 0.06535 0.27529 0.0
C1111 C 0.8153 0.07435 0.26057 0.0
C1112 C 0.87264 0.08831 0.27669 0.0
C1113 C 0.81054 0.10727 0.24923 0.0
C1114 C 0.837 0.13036 0.25043 0.0
C1115 C 0.89631 0.14239 0.26103 0.0
C1116 C 0.92788 0.13217 0.27313 0.0
C1117 C 0.86852 0.12075 0.26304 0.0
C1118 C 0.93113 0.10063 0.28838 0.0
C1119 C 0.90384 0.07875 0.28988 0.0
H1120 H 0.46598 0.34738 0.78044 0.0
H1121 H 0.39092 0.29101 0.72708 0.0
H1122 H 0.35148 0.33788 0.73211 0.0
H1123 H 0.34113 0.39735 0.74612 0.0
H1124 H 0.41617 0.45292 0.80078 0.0
H1125 H 0.45298 0.40397 0.80093 0.0
C1126 C 0.44051 0.34501 0.77109 0.0
C1127 C 0.43097 0.31578 0.75397 0.0
C1128 C 0.41838 0.37219 0.77362 0.0
C1129 C 0.39834 0.31303 0.74112 0.0
C1130 C 0.37606 0.34002 0.74353 0.0
C1131 C 0.36549 0.3986 0.75819 0.0
C1132 C 0.37626 0.42884 0.77285 0.0
C1133 C 0.38625 0.37013 0.75874 0.0
C1134 C 0.4075 0.43001 0.78909 0.0
C1135 C 0.42851 0.40203 0.78922 0.0
H1136 H 0.18527 0.93947 0.29873 0.0
H1137 H 0.18114 0.92722 0.19151 0.0
H1138 H 0.132 0.89189 0.19638 0.0
H1139 H 0.08662 0.86987 0.22967 0.0
H1140 H 0.08734 0.8814 0.33689 0.0
H1141 H 0.14085 0.91196 0.3336 0.0
C1142 C 0.17403 0.92821 0.2767 0.0
C1143 C 0.18712 0.9355 0.24482 0.0
C1144 C 0.14455 0.90873 0.27956 0.0
C1145 C 0.17194 0.92143 0.21632 0.0
C1146 C 0.14351 0.90159 0.21901 0.0
C1147 C 0.09839 0.87913 0.25239 0.0
C1148 C 0.08269 0.87423 0.28334 0.0
C1149 C 0.12898 0.89608 0.25029 0.0
C1150 C 0.09877 0.8854 0.31266 0.0
C1151 C 0.12938 0.90276 0.31076 0.0
H1152 H 0.59742 0.68535 0.70261 0.0
H1153 H 0.55163 0.68419 0.80024 0.0
H1154 H 0.58251 0.63304 0.81456 0.0
H1155 H 0.61939 0.58588 0.79715 0.0
H1156 H 0.66307 0.5887 0.69819 0.0
H1157 H 0.63588 0.64145 0.68675 0.0
C1158 C 0.59439 0.67415 0.72719 0.0
C1159 C 0.57204 0.68837 0.75013 0.0
C1160 C 0.61147 0.64454 0.7349 0.0
C1161 C 0.56877 0.67377 0.78205 0.0
C1162 C 0.58618 0.64432 0.79015 0.0
C1163 C 0.62286 0.59806 0.77313 0.0
C1164 C 0.64284 0.58277 0.74849 0.0
C1165 C 0.607 0.62895 0.76641 0.0
C1166 C 0.64748 0.5993 0.71762 0.0
C1167 C 0.63205 0.62974 0.71095 0.0
H1168 H 0.76195 0.89581 0.84166 0.0
H1169 H 0.70853 0.95096 0.91733 0.0
H1170 H 0.7098 0.90202 0.95433 0.0
H1171 H 0.7313 0.84545 0.96719 0.0
H1172 H 0.78281 0.78952 0.89105 0.0
H1173 H 0.77665 0.83651 0.85183 0.0
C1174 C 0.75037 0.89695 0.86618 0.0
C1175 C 0.73569 0.92708 0.87705 0.0
C1176 C 0.75068 0.86851 0.88704 0.0
C1177 C 0.72016 0.92811 0.90853 0.0
C1178 C 0.72091 0.90015 0.92968 0.0
C1179 C 0.74009 0.84326 0.9416 0.0
C1180 C 0.75702 0.81409 0.93166 0.0
C1181 C 0.73666 0.87045 0.91945 0.0
C1182 C 0.76908 0.81156 0.89884 0.0
C1183 C 0.76592 0.83856 0.87664 0.0
H1184 H 0.81646 0.16448 0.07129 0.0
H1185 H 0.71206 0.19235 0.06644 0.0
H1186 H 0.697 0.14145 0.09751 0.0
H1187 H 0.71421 0.08893 0.12681 0.0
H1188 H 0.81913 0.06274 0.12951 0.0
H1189 H 0.83311 0.11277 0.0978 0.0
C1190 C 0.79034 0.15972 0.07709 0.0
C1191 C 0.76547 0.1824 0.06672 0.0
C1192 C 0.7819 0.13033 0.09416 0.0
C1193 C 0.73177 0.17541 0.07431 0.0
C1194 C 0.72313 0.14621 0.09189 0.0
C1195 C 0.73996 0.09399 0.11978 0.0
C1196 C 0.7656 0.0722 0.13037 0.0
C1197 C 0.74802 0.12334 0.10183 0.0
C1198 C 0.79898 0.0792 0.12167 0.0
C1199 C 0.80705 0.10787 0.10369 0.0
H1200 H 0.40465 0.2938 0.65844 0.0
H1201 H 0.44206 0.21539 0.59434 0.0
H1202 H 0.38953 0.21638 0.56231 0.0
H1203 H 0.33449 0.24252 0.55035 0.0
H1204 H 0.29911 0.32225 0.61385 0.0
H1205 H 0.34917 0.31722 0.64886 0.0
C1206 C 0.40149 0.27691 0.6374 0.0
C1207 C 0.42756 0.25496 0.62842 0.0
C1208 C 0.37139 0.2776 0.61929 0.0
C1209 C 0.42259 0.23281 0.60154 0.0
C1210 C 0.39251 0.2333 0.58331 0.0
C1211 C 0.3374 0.2581 0.5724 0.0
C1212 C 0.31308 0.28252 0.57978 0.0
C1213 C 0.36686 0.25585 0.59175 0.0
C1214 C 0.31744 0.30315 0.6079 0.0
C1215 C 0.34614 0.30047 0.62772 0.0
H1216 H 0.23497 0.8068 0.1025 0.0
H1217 H 0.3038 0.83712 0.02557 0.0
H1218 H 0.31647 0.88885 0.05624 0.0
H1219 H 0.30152 0.92908 0.10129 0.0
H1220 H 0.23027 0.89853 0.17631 0.0
H1221 H 0.22484 0.84379 0.1503 0.0
C1222 C 0.25385 0.82409 0.09332 0.0
C1223 C 0.26924 0.81782 0.06247 0.0
C1224 C 0.2597 0.85441 0.11028 0.0
C1225 C 0.29253 0.84103 0.0499 0.0
C1226 C 0.29931 0.87087 0.06716 0.0
C1227 C 0.28515 0.91027 0.11207 0.0
C1228 C 0.26542 0.91838 0.14006 0.0
C1229 C 0.28205 0.87846 0.09678 0.0
C1230 C 0.24465 0.89352 0.15398 0.0
C1231 C 0.24183 0.86195 0.13936 0.0
H1232 H 0.64726 0.71337 0.54106 0.0
H1233 H 0.7189 0.76755 0.60142 0.0
H1234 H 0.67323 0.78771 0.6373 0.0
H1235 H 0.61255 0.78745 0.65284 0.0
H1236 H 0.54299 0.73165 0.59145 0.0
H1237 H 0.58824 0.71508 0.55439 0.0
C1238 C 0.65315 0.72954 0.56209 0.0
C1239 C 0.68663 0.73857 0.56871 0.0
C1240 C 0.62697 0.74098 0.58232 0.0
C1241 C 0.69341 0.76001 0.59582 0.0
C1242 C 0.66727 0.77157 0.6163 0.0
C1243 C 0.60737 0.77219 0.63098 0.0
C1244 C 0.57443 0.7608 0.62488 0.0
C1245 C 0.63388 0.76202 0.60993 0.0
C1246 C 0.56809 0.74065 0.59676 0.0
C1247 C 0.59397 0.73105 0.57559 0.0
H1248 H 0.21559 0.19013 0.90385 0.0
H1249 H 0.31075 0.18242 0.95473 0.0
H1250 H 0.32141 0.1287 0.92689 0.0
H1251 H 0.30021 0.08085 0.89259 0.0
H1252 H 0.20165 0.08893 0.84771 0.0
H1253 H 0.19553 0.14481 0.86964 0.0
C1254 C 0.23895 0.17699 0.90857 0.0
C1255 C 0.26213 0.19007 0.93156 0.0
C1256 C 0.24388 0.1455 0.89431 0.0
C1257 C 0.29249 0.17296 0.93699 0.0
C1258 C 0.29833 0.14197 0.92149 0.0
C1259 C 0.27735 0.09478 0.88791 0.0
C1260 C 0.25135 0.08025 0.86886 0.0
C1261 C 0.27357 0.12736 0.90104 0.0
C1262 C 0.22206 0.09899 0.86259 0.0
C1263 C 0.21851 0.13124 0.87488 0.0
H1264 H 0.36038 0.73388 0.47716 0.0
H1265 H 0.28969 0.78048 0.40982 0.0
H1266 H 0.33621 0.79774 0.37317 0.0
H1267 H 0.39704 0.79444 0.35807 0.0
H1268 H 0.46506 0.744 0.42556 0.0
H1269 H 0.41945 0.73345 0.46446 0.0
C1270 C 0.35492 0.74792 0.4545 0.0
C1271 C 0.32149 0.75541 0.44596 0.0
C1272 C 0.38144 0.75694 0.43354 0.0
C1273 C 0.31516 0.77429 0.41691 0.0
C1274 C 0.34176 0.78397 0.39592 0.0
C1275 C 0.4018 0.78167 0.38159 0.0
C1276 C 0.43437 0.76989 0.38894 0.0
C1277 C 0.37502 0.77476 0.40363 0.0
C1278 C 0.44024 0.75308 0.41927 0.0
C1279 C 0.41416 0.74702 0.44152 0.0
H1280 H 0.61144 0.26077 0.34545 0.0
H1281 H 0.55647 0.21429 0.42589 0.0
H1282 H 0.6072 0.21352 0.46056 0.0
H1283 H 0.66544 0.23197 0.46992 0.0
H1284 H 0.72057 0.27781 0.38949 0.0
H1285 H 0.67182 0.27216 0.35233 0.0
C1286 C 0.61068 0.25035 0.37054 0.0
C1287 C 0.5802 0.2383 0.38348 0.0
C1288 C 0.64003 0.24949 0.39002 0.0
C1289 C 0.5796 0.22404 0.41561 0.0
C1290 C 0.60858 0.22355 0.43537 0.0
C1291 C 0.66705 0.23942 0.44382 0.0
C1292 C 0.6965 0.25465 0.43205 0.0
C1293 C 0.63874 0.2368 0.42306 0.0
C1294 C 0.69834 0.26519 0.39863 0.0
C1295 C 0.67032 0.26248 0.37764 0.0
H1296 H 0.16095 0.31543 0.40521 0.0
H1297 H 0.16215 0.21854 0.45344 0.0
H1298 H 0.12284 0.19701 0.41171 0.0
H1299 H 0.08558 0.20653 0.36373 0.0
H1300 H 0.08482 0.30281 0.31448 0.0
H1301 H 0.12678 0.32365 0.35426 0.0
C1302 C 0.15272 0.28955 0.40653 0.0
C1303 C 0.16423 0.26875 0.43273 0.0
C1304 C 0.13016 0.27725 0.38232 0.0
C1305 C 0.1537 0.23514 0.43368 0.0
C1306 C 0.13112 0.22282 0.40986 0.0
C1307 C 0.0947 0.23206 0.36156 0.0
C1308 C 0.08175 0.25322 0.3364 0.0
C1309 C 0.11879 0.24379 0.38443 0.0
C1310 C 0.09429 0.28602 0.33361 0.0
C1311 C 0.11818 0.29798 0.35645 0.0
H1312 H 0.27512 0.67611 0.92053 0.0
H1313 H 0.17684 0.63894 0.9462 0.0
H1314 H 0.18083 0.59637 0.90274 0.0
H1315 H 0.21361 0.56723 0.85923 0.0
H1316 H 0.31293 0.60232 0.83597 0.0
H1317 H 0.30705 0.64824 0.87602 0.0
C1318 C 0.25452 0.6588 0.91654 0.0
C1319 C 0.22589 0.66064 0.93691 0.0
C1320 C 0.25708 0.634 0.89166 0.0
C1321 C 0.19941 0.63795 0.93124 0.0
C1322 C 0.20156 0.6136 0.90624 0.0
C1323 C 0.23355 0.58543 0.86256 0.0
C1324 C 0.26344 0.58188 0.84454 0.0
C1325 C 0.23041 0.61111 0.8865 0.0
C1326 C 0.28957 0.60495 0.84948 0.0
C1327 C 0.2863 0.63104 0.87249 0.0
H1328 H 0.90469 0.80436 0.35241 0.0
H1329 H 0.94771 0.70541 0.34479 0.0
H1330 H 0.90981 0.68513 0.38817 0.0
H1331 H 0.86667 0.69613 0.43033 0.0
H1332 H 0.82238 0.79445 0.43711 0.0
H1333 H 0.85876 0.8144 0.39203 0.0
C1334 C 0.90564 0.77828 0.36006 0.0
C1335 C 0.92928 0.75653 0.34556 0.0
C1336 C 0.88383 0.76677 0.3851 0.0
C1337 C 0.92983 0.72273 0.35549 0.0
C1338 C 0.90829 0.71113 0.38046 0.0
C1339 C 0.86508 0.72197 0.42203 0.0
C1340 C 0.84229 0.74395 0.43739 0.0
C1341 C 0.88565 0.73308 0.39584 0.0
C1342 C 0.83991 0.77713 0.42583 0.0
C1343 C 0.86067 0.78852 0.40007 0.0
H1344 H 0.70148 0.4315 0.87122 0.0
H1345 H 0.79858 0.42699 0.82394 0.0
H1346 H 0.81613 0.38341 0.86279 0.0
H1347 H 0.80476 0.34761 0.9107 0.0
H1348 H 0.70779 0.3503 0.95813 0.0
H1349 H 0.68918 0.39326 0.91838 0.0
C1350 C 0.72649 0.42102 0.86957 0.0
C1351 C 0.74875 0.43265 0.84493 0.0
C1352 C 0.73641 0.39557 0.89182 0.0
C1353 C 0.78092 0.4185 0.84268 0.0
C1354 C 0.79104 0.39358 0.86489 0.0
C1355 C 0.77951 0.35754 0.91236 0.0
C1356 C 0.7578 0.34607 0.93748 0.0
C1357 C 0.76908 0.38207 0.8896 0.0
C1358 C 0.72498 0.35876 0.93896 0.0
C1359 C 0.7144 0.38342 0.91637 0.0
H1360 H 0.14607 0.69889 0.58995 0.0
H1361 H 0.1775 0.80035 0.57 0.0
H1362 H 0.13657 0.82135 0.61034 0.0
H1363 H 0.0901 0.81099 0.64966 0.0
H1364 H 0.06172 0.70942 0.6731 0.0
H1365 H 0.1032 0.68827 0.63327 0.0
C1366 C 0.14401 0.72558 0.59459 0.0
C1367 C 0.16455 0.74807 0.57678 0.0
C1368 C 0.1209 0.73742 0.61839 0.0
C1369 C 0.16202 0.78254 0.58341 0.0
C1370 C 0.13851 0.79456 0.60637 0.0
C1371 C 0.09313 0.78422 0.64608 0.0
C1372 C 0.07264 0.76177 0.66397 0.0
C1373 C 0.11756 0.77227 0.62373 0.0
C1374 C 0.0772 0.72716 0.65961 0.0
C1375 C 0.10082 0.71509 0.63675 0.0
H1376 H 0.69286 0.59014 0.14302 0.0
H1377 H 0.79362 0.56913 0.17607 0.0
H1378 H 0.8156 0.61084 0.13682 0.0
H1379 H 0.80622 0.65155 0.0912 0.0
H1380 H 0.7052 0.67604 0.0615 0.0
H1381 H 0.68316 0.635 0.10143 0.0
C1382 C 0.7196 0.59489 0.14165 0.0
C1383 C 0.74167 0.57642 0.16206 0.0
C1384 C 0.73195 0.61949 0.11963 0.0
C1385 C 0.7762 0.58309 0.16058 0.0
C1386 C 0.78876 0.60683 0.13807 0.0
C1387 C 0.77938 0.64798 0.09368 0.0
C1388 C 0.75734 0.66648 0.07328 0.0
C1389 C 0.76691 0.6249 0.1172 0.0
C1390 C 0.72262 0.66209 0.07701 0.0
C1391 C 0.71003 0.63854 0.09971 0.0
H1392 H 0.86966 0.31115 0.57761 0.0
H1393 H 0.82159 0.21426 0.57907 0.0
H1394 H 0.85969 0.19575 0.62347 0.0
H1395 H 0.9082 0.20636 0.66027 0.0
H1396 H 0.95492 0.30398 0.65998 0.0
H1397 H 0.91565 0.32294 0.61696 0.0
C1398 C 0.86749 0.28597 0.58766 0.0
C1399 C 0.84305 0.264 0.57473 0.0
C1400 C 0.88925 0.27562 0.61342 0.0
C1401 C 0.84021 0.23167 0.58847 0.0
C1402 C 0.86205 0.22104 0.61382 0.0
C1403 C 0.90972 0.23184 0.6509 0.0
C1404 C 0.93472 0.2536 0.66319 0.0
C1405 C 0.8869 0.24269 0.62624 0.0
C1406 C 0.93599 0.28667 0.65104 0.0
C1407 C 0.9136 0.29752 0.62631 0.0
H1408 H 0.31192 0.41247 0.1564 0.0
H1409 H 0.21019 0.44789 0.166 0.0
H1410 H 0.19118 0.40484 0.1267 0.0
H1411 H 0.20385 0.3586 0.08785 0.0
H1412 H 0.30605 0.32467 0.07757 0.0
H1413 H 0.32431 0.36565 0.11905 0.0
C1414 C 0.28552 0.41084 0.15006 0.0
C1415 C 0.26258 0.43368 0.16414 0.0
C1416 C 0.27482 0.38627 0.12723 0.0
C1417 C 0.22848 0.43084 0.15557 0.0
C1418 C 0.21758 0.4062 0.13304 0.0
C1419 C 0.2301 0.35995 0.09483 0.0
C1420 C 0.25353 0.33852 0.07938 0.0
C1421 C 0.24058 0.38397 0.11847 0.0
C1422 C 0.28745 0.34084 0.0888 0.0
C1423 C 0.29795 0.36432 0.11256 0.0
H1424 H 0.361 0.08173 0.20485 0.0
H1425 H 0.33077 0.06382 0.30681 0.0
H1426 H 0.37069 0.10618 0.32649 0.0
H1427 H 0.4157 0.14688 0.31473 0.0
H1428 H 0.44277 0.168 0.21244 0.0
H1429 H 0.40241 0.1261 0.19274 0.0
C1430 C 0.36321 0.08719 0.23136 0.0
C1431 C 0.34338 0.06943 0.25444 0.0
C1432 C 0.38558 0.11216 0.24236 0.0
C1433 C 0.34587 0.07714 0.28864 0.0
C1434 C 0.36872 0.10128 0.29987 0.0
C1435 C 0.41261 0.14237 0.28812 0.0
C1436 C 0.4324 0.16023 0.26506 0.0
C1437 C 0.38892 0.11872 0.27699 0.0
C1438 C 0.42779 0.15459 0.23065 0.0
C1439 C 0.40485 0.13053 0.2194 0.0
H1440 H 0.37226 0.93447 0.80549 0.0
H1441 H 0.33248 0.94021 0.70501 0.0
H1442 H 0.37079 0.89616 0.68712 0.0
H1443 H 0.41573 0.85625 0.69972 0.0
H1444 H 0.45473 0.8491 0.80042 0.0
H1445 H 0.41637 0.89317 0.81848 0.0
C1446 C 0.37213 0.92624 0.77962 0.0
C1447 C 0.34968 0.94089 0.75658 0.0
C1448 C 0.39394 0.90046 0.76955 0.0
C1449 C 0.34949 0.92947 0.72329 0.0
C1450 C 0.3714 0.90424 0.71301 0.0
C1451 C 0.41587 0.86424 0.72566 0.0
C1452 C 0.43828 0.84939 0.7486 0.0
C1453 C 0.39371 0.88956 0.73591 0.0
C1454 C 0.43778 0.85997 0.78218 0.0
C1455 C 0.41592 0.88531 0.79252 0.0
H1456 H 0.64122 0.929 0.20204 0.0
H1457 H 0.68362 0.93381 0.30152 0.0
H1458 H 0.64492 0.89053 0.32042 0.0
H1459 H 0.59827 0.85216 0.30942 0.0
H1460 H 0.55622 0.84577 0.20996 0.0
H1461 H 0.5957 0.88843 0.19041 0.0
C1462 C 0.64194 0.92063 0.22787 0.0
C1463 C 0.66523 0.93497 0.25033 0.0
C1464 C 0.61973 0.8953 0.23863 0.0
C1465 C 0.66603 0.92339 0.28362 0.0
C1466 C 0.64385 0.89859 0.29452 0.0
C1467 C 0.59772 0.85997 0.28341 0.0
C1468 C 0.57404 0.84582 0.26129 0.0
C1469 C 0.62051 0.88448 0.27232 0.0
C1470 C 0.57411 0.85611 0.22759 0.0
C1471 C 0.59662 0.88066 0.2164 0.0
H1472 H 0.64399 0.09006 0.80703 0.0
H1473 H 0.67927 0.07637 0.70611 0.0
H1474 H 0.63865 0.11777 0.68579 0.0
H1475 H 0.59148 0.15655 0.69661 0.0
H1476 H 0.55957 0.17326 0.79825 0.0
H1477 H 0.60039 0.13219 0.81841 0.0
C1478 C 0.64284 0.09627 0.7806 0.0
C1479 C 0.66438 0.07994 0.75805 0.0
C1480 C 0.61991 0.12059 0.76924 0.0
C1481 C 0.66301 0.08861 0.72396 0.0
C1482 C 0.63967 0.11218 0.71233 0.0
C1483 C 0.59357 0.15119 0.72317 0.0
C1484 C 0.57227 0.16768 0.74588 0.0
C1485 C 0.61774 0.12809 0.73469 0.0
C1486 C 0.57563 0.16094 0.78027 0.0
C1487 C 0.59892 0.13738 0.7918 0.0
H1488 H 0.84294 0.77919 0.57305 0.0
H1489 H 0.84788 0.67376 0.59688 0.0
H1490 H 0.89032 0.68471 0.6394 0.0
H1491 H 0.92869 0.7239 0.66795 0.0
H1492 H 0.92286 0.82937 0.64395 0.0
H1493 H 0.87851 0.81856 0.60386 0.0
C1494 C 0.85301 0.75866 0.58779 0.0
C1495 C 0.84246 0.72575 0.58138 0.0
C1496 C 0.87768 0.76501 0.61217 0.0
C1497 C 0.85578 0.69943 0.6009 0.0
C1498 C 0.88014 0.70559 0.62529 0.0
C1499 C 0.91766 0.74449 0.65401 0.0
C1500 C 0.92959 0.77726 0.65886 0.0
C1501 C 0.89179 0.73823 0.63076 0.0
C1502 C 0.91461 0.80371 0.64072 0.0
C1503 C 0.88905 0.79766 0.61768 0.0
H1504 H 0.80354 0.36582 0.0808 0.0
H1505 H 0.70839 0.31442 0.08454 0.0
H1506 H 0.68878 0.3537 0.12722 0.0
H1507 H 0.69738 0.40496 0.16005 0.0
H1508 H 0.79276 0.45601 0.15648 0.0
H1509 H 0.81378 0.41418 0.11713 0.0
C1510 C 0.77853 0.36313 0.09105 0.0
C1511 C 0.75719 0.33766 0.07918 0.0
C1512 C 0.76751 0.38573 0.11541 0.0
C1513 C 0.72518 0.33395 0.09318 0.0
C1514 C 0.71394 0.35645 0.11745 0.0
C1515 C 0.72283 0.40686 0.15074 0.0
C1516 C 0.74335 0.43381 0.16069 0.0
C1517 C 0.73467 0.38282 0.12819 0.0
C1518 C 0.77646 0.43558 0.14906 0.0
C1519 C 0.78843 0.41177 0.12649 0.0
H1520 H 0.0878 0.20881 0.64921 0.0
H1521 H 0.06713 0.31054 0.67868 0.0
H1522 H 0.10693 0.33131 0.63685 0.0
H1523 H 0.14624 0.32033 0.59033 0.0
H1524 H 0.17012 0.2183 0.56451 0.0
H1525 H 0.13046 0.19773 0.60638 0.0
C1526 C 0.09219 0.23552 0.64652 0.0
C1527 C 0.07444 0.25817 0.66668 0.0
C1528 C 0.11551 0.24715 0.62296 0.0
C1529 C 0.08062 0.29267 0.66343 0.0
C1530 C 0.10321 0.30453 0.63943 0.0
C1531 C 0.14265 0.29363 0.59399 0.0
C1532 C 0.16064 0.27079 0.57422 0.0
C1533 C 0.12052 0.282 0.61878 0.0
C1534 C 0.15642 0.23626 0.57947 0.0
C1535 C 0.13375 0.22452 0.60333 0.0
H1536 H 0.23253 0.59485 0.17808 0.0
H1537 H 0.32291 0.56291 0.12841 0.0
H1538 H 0.31447 0.60532 0.08516 0.0
H1539 H 0.28031 0.65043 0.05997 0.0
H1540 H 0.18912 0.681 0.109 0.0
H1541 H 0.19918 0.64058 0.15372 0.0
C1542 C 0.25049 0.59719 0.15789 0.0
C1543 C 0.27824 0.57542 0.15661 0.0
C1544 C 0.24535 0.62154 0.13278 0.0
C1545 C 0.30118 0.57904 0.1301 0.0
C1546 C 0.29641 0.6034 0.10528 0.0
C1547 C 0.26282 0.64848 0.0806 0.0
C1548 C 0.23395 0.66878 0.08093 0.0
C1549 C 0.26845 0.62466 0.10617 0.0
C1550 C 0.21145 0.66563 0.10785 0.0
C1551 C 0.21716 0.64247 0.13353 0.0
H1552 H 0.86475 0.3132 0.41682 0.0
H1553 H 0.8394 0.21101 0.44224 0.0
H1554 H 0.87999 0.19058 0.40157 0.0
H1555 H 0.9236 0.20168 0.3602 0.0
H1556 H 0.94946 0.30386 0.33525 0.0
H1557 H 0.90748 0.32429 0.3745 0.0
C1558 C 0.86799 0.28643 0.41348 0.0
C1559 C 0.84919 0.26368 0.43276 0.0
C1560 C 0.89148 0.27485 0.39026 0.0
C1561 C 0.85364 0.2291 0.42788 0.0
C1562 C 0.87685 0.21738 0.40464 0.0
C1563 C 0.92013 0.22845 0.36329 0.0
C1564 C 0.93987 0.25119 0.34497 0.0
C1565 C 0.8961 0.24004 0.38595 0.0
C1566 C 0.93474 0.28577 0.34913 0.0
C1567 C 0.91075 0.2975 0.37157 0.0
H1568 H 0.20741 0.36752 0.93602 0.0
H1569 H 0.3068 0.32496 0.93324 0.0
H1570 H 0.32298 0.365 0.89 0.0
H1571 H 0.30948 0.41269 0.85389 0.0
H1572 H 0.20988 0.4548 0.85526 0.0
H1573 H 0.19315 0.41406 0.89789 0.0
C1574 C 0.23264 0.36709 0.92603 0.0
C1575 C 0.25594 0.34345 0.93812 0.0
C1576 C 0.24172 0.38998 0.90082 0.0
C1577 C 0.28838 0.34289 0.92449 0.0
C1578 C 0.29768 0.3658 0.89975 0.0
C1579 C 0.28406 0.41298 0.86344 0.0
C1580 C 0.26106 0.43698 0.85155 0.0
C1581 C 0.27462 0.38952 0.88786 0.0
C1582 C 0.22811 0.43663 0.86392 0.0
C1583 C 0.21856 0.41342 0.88842 0.0
H1584 H 0.16094 0.70042 0.40951 0.0
H1585 H 0.15761 0.79732 0.45727 0.0
H1586 H 0.11343 0.81507 0.41848 0.0
H1587 H 0.07365 0.80182 0.37326 0.0
H1588 H 0.07812 0.70555 0.32448 0.0
H1589 H 0.12405 0.68865 0.36164 0.0
C1590 C 0.15069 0.72552 0.41133 0.0
C1591 C 0.16228 0.74742 0.43649 0.0
C1592 C 0.12534 0.73548 0.38904 0.0
C1593 C 0.14915 0.78001 0.43815 0.0
C1594 C 0.12375 0.79008 0.41612 0.0
C1595 C 0.08462 0.77708 0.37084 0.0
C1596 C 0.07215 0.75469 0.34659 0.0
C1597 C 0.11126 0.7678 0.39191 0.0
C1598 C 0.08713 0.72309 0.34312 0.0
C1599 C 0.11336 0.71345 0.36435 0.0
H1600 H 0.70395 0.59177 0.85327 0.0
H1601 H 0.806 0.56092 0.83514 0.0
H1602 H 0.826 0.60137 0.87653 0.0
H1603 H 0.81429 0.64386 0.91943 0.0
H1604 H 0.71191 0.67358 0.93793 0.0
H1605 H 0.6924 0.63509 0.89476 0.0
C1606 C 0.73062 0.59392 0.85816 0.0
C1607 C 0.75339 0.57312 0.84116 0.0
C1608 C 0.74191 0.61691 0.88223 0.0
C1609 C 0.78786 0.57648 0.84787 0.0
C1610 C 0.79933 0.59958 0.87161 0.0
C1611 C 0.7877 0.642 0.91403 0.0
C1612 C 0.76463 0.6615 0.93218 0.0
C1613 C 0.77654 0.61964 0.88922 0.0
C1614 C 0.73028 0.65881 0.92459 0.0
C1615 C 0.71905 0.6368 0.89985 0.0
H1616 H 0.58017 0.86815 0.70211 0.0
H1617 H 0.5848 0.82051 0.79911 0.0
H1618 H 0.62795 0.86034 0.81687 0.0
H1619 H 0.66184 0.91049 0.80588 0.0
H1620 H 0.65786 0.95766 0.70863 0.0
H1621 H 0.61705 0.91588 0.6898 0.0
C1622 C 0.59066 0.86641 0.72714 0.0
C1623 C 0.57893 0.84167 0.74943 0.0
C1624 C 0.61548 0.88929 0.73711 0.0
C1625 C 0.59326 0.83937 0.78152 0.0
C1626 C 0.61786 0.86219 0.79171 0.0
C1627 C 0.65213 0.9116 0.7805 0.0
C1628 C 0.66254 0.93744 0.7588 0.0
C1629 C 0.62875 0.88754 0.76988 0.0
C1630 C 0.65021 0.93812 0.72584 0.0
C1631 C 0.62678 0.91432 0.71512 0.0
H1632 H 0.57491 0.16075 0.22666 0.0
H1633 H 0.58143 0.14269 0.3332 0.0
H1634 H 0.62593 0.10246 0.32455 0.0
H1635 H 0.66238 0.07091 0.28717 0.0
H1636 H 0.65701 0.08853 0.18063 0.0
H1637 H 0.61323 0.1302 0.18903 0.0
C1638 C 0.58608 0.14803 0.24794 0.0
C1639 C 0.57443 0.15474 0.28044 0.0
C1640 C 0.61207 0.12468 0.24293 0.0
C1641 C 0.58952 0.13808 0.30777 0.0
C1642 C 0.61515 0.11496 0.30295 0.0
C1643 C 0.65179 0.08394 0.26577 0.0
C1644 C 0.66292 0.0763 0.23337 0.0
C1645 C 0.6265 0.10787 0.27068 0.0
C1646 C 0.64888 0.09366 0.20595 0.0
C1647 C 0.62374 0.11756 0.21067 0.0
H1648 H 0.3477 0.07491 0.71887 0.0
H1649 H 0.34354 0.09988 0.82393 0.0
H1650 H 0.3855 0.14339 0.81595 0.0
H1651 H 0.42572 0.17277 0.77978 0.0
H1652 H 0.42931 0.14807 0.6746 0.0
H1653 H 0.38553 0.10643 0.68215 0.0
C1654 C 0.35569 0.0901 0.73993 0.0
C1655 C 0.34268 0.08376 0.77193 0.0
C1656 C 0.3801 0.11511 0.73531 0.0
C1657 C 0.35335 0.10384 0.79897 0.0
C1658 C 0.37743 0.1288 0.79451 0.0
C1659 C 0.41691 0.1583 0.75853 0.0
C1660 C 0.43114 0.16346 0.72682 0.0
C1661 C 0.39144 0.1343 0.7629 0.0
C1662 C 0.41905 0.14466 0.69945 0.0
C1663 C 0.39391 0.12075 0.70366 0.0
H1664 H 0.42887 0.86616 0.30937 0.0
H1665 H 0.42514 0.81731 0.21308 0.0
H1666 H 0.37854 0.8533 0.19611 0.0
H1667 H 0.34147 0.90073 0.20741 0.0
H1668 H 0.3447 0.9494 0.30382 0.0
H1669 H 0.3886 0.91079 0.32227 0.0
C1670 C 0.41786 0.86344 0.28464 0.0
C1671 C 0.43076 0.83958 0.26226 0.0
C1672 C 0.39097 0.88397 0.2752 0.0
C1673 C 0.41578 0.8357 0.23063 0.0
C1674 C 0.38917 0.85624 0.22093 0.0
C1675 C 0.35158 0.90273 0.23258 0.0
C1676 C 0.34019 0.92813 0.25409 0.0
C1677 C 0.37693 0.88074 0.24285 0.0
C1678 C 0.35308 0.93007 0.28679 0.0
C1679 C 0.37833 0.90817 0.29726 0.0
loop_
_geom_bond_atom_site_label_1
_geom_bond_atom_site_label_2
_geom_bond_distance
_geom_bond_site_symmetry_2
_ccdc_geom_bond_type
Fe0 O2 1.918 . S
Fe0 O5 2.019 . S
Fe0 O6 2.025 . S
Fe0 O11 1.954 1_455 S
Fe0 O14 1.974 1_455 S
Fe1 O2 1.918 . S
Fe1 O9 2.018 . S
Fe1 O12 1.974 1_455 S
Fe1 O16 1.954 1_455 S
Fe1 O19 2.025 . S
O2 Fe0 1.918 . S
O2 Fe1 1.918 . S
O2 Fe3 1.918 . S
Fe3 O2 1.918 . S
Fe3 O4 2.023 . S
Fe3 O13 1.955 1_455 S
Fe3 O17 1.976 1_455 S
Fe3 O20 2.017 . S
O4 Fe3 2.023 . S
O4 C21 1.295 . S
O5 Fe0 2.019 . S
O5 C21 1.235 . S
O6 Fe0 2.025 . S
O6 C7 1.295 . S
C7 O6 1.295 . S
C7 O9 1.235 . S
C8 O13 1.287 . S
C8 O14 1.255 . S
O9 Fe1 2.018 . S
O9 C7 1.235 . S
C10 O16 1.287 . S
C10 O17 1.255 . S
O11 Fe0 1.954 1_655 S
O11 C18 1.287 . S
O12 Fe1 1.974 1_655 S
O12 C18 1.255 . S
O13 Fe3 1.955 1_655 S
O13 C8 1.287 . S
O14 Fe0 1.974 1_655 S
O14 C8 1.255 . S
C15 O19 1.295 . S
C15 O20 1.235 . S
O16 Fe1 1.954 1_655 S
O16 C10 1.287 . S
O17 Fe3 1.976 1_655 S
O17 C10 1.255 . S
C18 O11 1.287 . S
C18 O12 1.255 . S
O19 Fe1 2.025 . S
O19 C15 1.295 . S
O20 Fe3 2.017 . S
O20 C15 1.235 . S
C21 O4 1.295 . S
C21 O5 1.235 . S
Fe22 O24 1.918 . S
Fe22 O27 1.997 . S
Fe22 O28 2.002 . S
Fe22 O33 1.976 . S
Fe22 O36 1.996 . S
Fe23 O24 1.918 . S
Fe23 O31 1.997 . S
Fe23 O34 1.996 . S
Fe23 O38 1.976 . S
Fe23 O41 2.002 . S
O24 Fe22 1.918 . S
O24 Fe23 1.918 . S
O24 Fe25 1.918 . S
Fe25 O24 1.918 . S
Fe25 O26 2.002 . S
Fe25 O35 1.976 . S
Fe25 O39 1.996 . S
Fe25 O42 1.997 . S
O26 Fe25 2.002 . S
O26 C43 1.295 . S
O27 Fe22 1.997 . S
O27 C43 1.235 . S
O28 Fe22 2.002 . S
O28 C29 1.295 . S
C29 O28 1.295 . S
C29 O31 1.235 . S
C30 O35 1.287 . S
C30 O36 1.255 . S
O31 Fe23 1.997 . S
O31 C29 1.235 . S
C32 O38 1.287 . S
C32 O39 1.255 . S
O33 Fe22 1.976 . S
O33 C40 1.287 . S
O34 Fe23 1.996 . S
O34 C40 1.255 . S
O35 Fe25 1.976 . S
O35 C30 1.287 . S
O36 Fe22 1.996 . S
O36 C30 1.255 . S
C37 O41 1.295 . S
C37 O42 1.235 . S
O38 Fe23 1.976 . S
O38 C32 1.287 . S
O39 Fe25 1.996 . S
O39 C32 1.255 . S
C40 O33 1.287 . S
C40 O34 1.255 . S
O41 Fe23 2.002 . S
O41 C37 1.295 . S
O42 Fe25 1.997 . S
O42 C37 1.235 . S
C43 O26 1.295 . S
C43 O27 1.235 . S
Fe44 O46 1.918 . S
Fe44 O49 1.997 1_455 S
Fe44 O50 2.002 1_455 S
Fe44 O55 1.976 . S
Fe44 O58 1.996 . S
Fe45 O46 1.918 . S
Fe45 O53 1.997 1_455 S
Fe45 O56 1.996 . S
Fe45 O60 1.976 . S
Fe45 O63 2.002 1_455 S
O46 Fe44 1.918 . S
O46 Fe45 1.918 . S
O46 Fe47 1.918 . S
Fe47 O46 1.918 . S
Fe47 O48 2.002 1_455 S
Fe47 O57 1.976 . S
Fe47 O61 1.996 . S
Fe47 O64 1.997 1_455 S
O48 Fe47 2.002 1_655 S
O48 C65 1.295 . S
O49 Fe44 1.997 1_655 S
O49 C65 1.235 . S
O50 Fe44 2.002 1_655 S
O50 C51 1.295 . S
C51 O50 1.295 . S
C51 O53 1.235 . S
C52 O57 1.287 . S
C52 O58 1.255 . S
O53 Fe45 1.997 1_655 S
O53 C51 1.235 . S
C54 O60 1.287 . S
C54 O61 1.255 . S
O55 Fe44 1.976 . S
O55 C62 1.287 . S
O56 Fe45 1.996 . S
O56 C62 1.255 . S
O57 Fe47 1.976 . S
O57 C52 1.287 . S
O58 Fe44 1.996 . S
O58 C52 1.255 . S
C59 O63 1.295 . S
C59 O64 1.235 . S
O60 Fe45 1.976 . S
O60 C54 1.287 . S
O61 Fe47 1.996 . S
O61 C54 1.255 . S
C62 O55 1.287 . S
C62 O56 1.255 . S
O63 Fe45 2.002 1_655 S
O63 C59 1.295 . S
O64 Fe47 1.997 1_655 S
O64 C59 1.235 . S
C65 O48 1.295 . S
C65 O49 1.235 . S
Fe66 O68 1.918 . S
Fe66 O71 1.997 . S
Fe66 O72 2.002 . S
Fe66 O77 1.976 . S
Fe66 O80 1.996 . S
Fe67 O68 1.918 . S
Fe67 O75 1.997 . S
Fe67 O78 1.996 . S
Fe67 O82 1.976 . S
Fe67 O85 2.002 . S
O68 Fe66 1.918 . S
O68 Fe67 1.918 . S
O68 Fe69 1.918 . S
Fe69 O68 1.918 . S
Fe69 O70 2.002 . S
Fe69 O79 1.976 . S
Fe69 O83 1.996 . S
Fe69 O86 1.997 . S
O70 Fe69 2.002 . S
O70 C87 1.295 . S
O71 Fe66 1.997 . S
O71 C87 1.235 . S
O72 Fe66 2.002 . S
O72 C73 1.295 . S
C73 O72 1.295 . S
C73 O75 1.235 . S
C74 O79 1.287 . S
C74 O80 1.255 . S
O75 Fe67 1.997 . S
O75 C73 1.235 . S
C76 O82 1.287 . S
C76 O83 1.255 . S
O77 Fe66 1.976 . S
O77 C84 1.287 . S
O78 Fe67 1.996 . S
O78 C84 1.255 . S
O79 Fe69 1.976 . S
O79 C74 1.287 . S
O80 Fe66 1.996 . S
O80 C74 1.255 . S
C81 O85 1.295 . S
C81 O86 1.235 . S
O82 Fe67 1.976 . S
O82 C76 1.287 . S
O83 Fe69 1.996 . S
O83 C76 1.255 . S
C84 O77 1.287 . S
C84 O78 1.255 . S
O85 Fe67 2.002 . S
O85 C81 1.295 . S
O86 Fe69 1.997 . S
O86 C81 1.235 . S
C87 O70 1.295 . S
C87 O71 1.235 . S
Fe88 O90 1.919 . S
Fe88 O93 1.997 . S
Fe88 O94 2.002 . S
Fe88 O99 1.976 1_455 S
Fe88 O102 1.996 1_455 S
Fe89 O90 1.919 . S
Fe89 O97 1.997 . S
Fe89 O100 1.996 1_455 S
Fe89 O104 1.976 1_455 S
Fe89 O107 2.002 . S
O90 Fe88 1.919 . S
O90 Fe89 1.919 . S
O90 Fe91 1.919 . S
Fe91 O90 1.919 . S
Fe91 O92 2.002 . S
Fe91 O101 1.976 1_455 S
Fe91 O105 1.996 1_455 S
Fe91 O108 1.997 . S
O92 Fe91 2.002 . S
O92 C109 1.295 . S
O93 Fe88 1.997 . S
O93 C109 1.235 . S
O94 Fe88 2.002 . S
O94 C95 1.295 . S
C95 O94 1.295 . S
C95 O97 1.235 . S
C96 O101 1.287 . S
C96 O102 1.255 . S
O97 Fe89 1.997 . S
O97 C95 1.235 . S
C98 O104 1.287 . S
C98 O105 1.255 . S
O99 Fe88 1.976 1_655 S
O99 C106 1.287 . S
O100 Fe89 1.996 1_655 S
O100 C106 1.255 . S
O101 Fe91 1.976 1_655 S
O101 C96 1.287 . S
O102 Fe88 1.996 1_655 S
O102 C96 1.255 . S
C103 O107 1.295 . S
C103 O108 1.235 . S
O104 Fe89 1.976 1_655 S
O104 C98 1.287 . S
O105 Fe91 1.996 1_655 S
O105 C98 1.255 . S
C106 O99 1.287 . S
C106 O100 1.255 . S
O107 Fe89 2.002 . S
O107 C103 1.295 . S
O108 Fe91 1.997 . S
O108 C103 1.235 . S
C109 O92 1.295 . S
C109 O93 1.235 . S
Fe110 O112 1.918 . S
Fe110 O115 1.997 . S
Fe110 O116 2.002 . S
Fe110 O121 1.976 . S
Fe110 O124 1.996 . S
Fe111 O112 1.918 . S
Fe111 O119 1.997 . S
Fe111 O122 1.996 . S
Fe111 O126 1.976 . S
Fe111 O129 2.002 . S
O112 Fe110 1.918 . S
O112 Fe111 1.918 . S
O112 Fe113 1.918 . S
Fe113 O112 1.918 . S
Fe113 O114 2.002 . S
Fe113 O123 1.976 . S
Fe113 O127 1.996 . S
Fe113 O130 1.997 . S
O114 Fe113 2.002 . S
O114 C131 1.295 . S
O115 Fe110 1.997 . S
O115 C131 1.235 . S
O116 Fe110 2.002 . S
O116 C117 1.295 . S
C117 O116 1.295 . S
C117 O119 1.235 . S
C118 O123 1.287 . S
C118 O124 1.255 . S
O119 Fe111 1.997 . S
O119 C117 1.235 . S
C120 O126 1.287 . S
C120 O127 1.255 . S
O121 Fe110 1.976 . S
O121 C128 1.287 . S
O122 Fe111 1.996 . S
O122 C128 1.255 . S
O123 Fe113 1.976 . S
O123 C118 1.287 . S
O124 Fe110 1.996 . S
O124 C118 1.255 . S
C125 O129 1.295 . S
C125 O130 1.235 . S
O126 Fe111 1.976 . S
O126 C120 1.287 . S
O127 Fe113 1.996 . S
O127 C120 1.255 . S
C128 O121 1.287 . S
C128 O122 1.255 . S
O129 Fe111 2.002 . S
O129 C125 1.295 . S
O130 Fe113 1.997 . S
O130 C125 1.235 . S
C131 O114 1.295 . S
C131 O115 1.235 . S
Fe132 O134 1.918 . S
Fe132 O137 1.997 1_455 S
Fe132 O138 2.002 1_455 S
Fe132 O143 1.976 . S
Fe132 O146 1.996 . S
Fe133 O134 1.918 . S
Fe133 O141 1.997 1_455 S
Fe133 O144 1.996 . S
Fe133 O148 1.976 . S
Fe133 O151 2.002 1_455 S
O134 Fe132 1.918 . S
O134 Fe133 1.918 . S
O134 Fe135 1.918 . S
Fe135 O134 1.918 . S
Fe135 O136 2.002 1_455 S
Fe135 O145 1.976 . S
Fe135 O149 1.996 . S
Fe135 O152 1.997 1_455 S
O136 Fe135 2.002 1_655 S
O136 C153 1.295 . S
O137 Fe132 1.997 1_655 S
O137 C153 1.235 . S
O138 Fe132 2.002 1_655 S
O138 C139 1.295 . S
C139 O138 1.295 . S
C139 O141 1.235 . S
C140 O145 1.287 . S
C140 O146 1.255 . S
O141 Fe133 1.997 1_655 S
O141 C139 1.235 . S
C142 O148 1.287 . S
C142 O149 1.255 . S
O143 Fe132 1.976 . S
O143 C150 1.287 . S
O144 Fe133 1.996 . S
O144 C150 1.255 . S
O145 Fe135 1.976 . S
O145 C140 1.287 . S
O146 Fe132 1.996 . S
O146 C140 1.255 . S
C147 O151 1.295 . S
C147 O152 1.235 . S
O148 Fe133 1.976 . S
O148 C142 1.287 . S
O149 Fe135 1.996 . S
O149 C142 1.255 . S
C150 O143 1.287 . S
C150 O144 1.255 . S
O151 Fe133 2.002 1_655 S
O151 C147 1.295 . S
O152 Fe135 1.997 1_655 S
O152 C147 1.235 . S
C153 O136 1.295 . S
C153 O137 1.235 . S
Fe154 O156 1.918 . S
Fe154 O159 1.997 . S
Fe154 O160 2.002 . S
Fe154 O165 1.976 . S
Fe154 O168 1.996 . S
Fe155 O156 1.918 . S
Fe155 O163 1.997 . S
Fe155 O166 1.996 . S
Fe155 O170 1.976 . S
Fe155 O173 2.002 . S
O156 Fe154 1.918 . S
O156 Fe155 1.918 . S
O156 Fe157 1.918 . S
Fe157 O156 1.918 . S
Fe157 O158 2.002 . S
Fe157 O167 1.976 . S
Fe157 O171 1.996 . S
Fe157 O174 1.997 . S
O158 Fe157 2.002 . S
O158 C175 1.295 . S
O159 Fe154 1.997 . S
O159 C175 1.235 . S
O160 Fe154 2.002 . S
O160 C161 1.295 . S
C161 O160 1.295 . S
C161 O163 1.235 . S
C162 O167 1.287 . S
C162 O168 1.255 . S
O163 Fe155 1.997 . S
O163 C161 1.235 . S
C164 O170 1.287 . S
C164 O171 1.255 . S
O165 Fe154 1.976 . S
O165 C172 1.287 . S
O166 Fe155 1.996 . S
O166 C172 1.255 . S
O167 Fe157 1.976 . S
O167 C162 1.287 . S
O168 Fe154 1.996 . S
O168 C162 1.255 . S
C169 O173 1.295 . S
C169 O174 1.235 . S
O170 Fe155 1.976 . S
O170 C164 1.287 . S
O171 Fe157 1.996 . S
O171 C164 1.255 . S
C172 O165 1.287 . S
C172 O166 1.255 . S
O173 Fe155 2.002 . S
O173 C169 1.295 . S
O174 Fe157 1.997 . S
O174 C169 1.235 . S
C175 O158 1.295 . S
C175 O159 1.235 . S
Fe176 O178 1.918 . S
Fe176 O181 1.997 . S
Fe176 O182 2.002 . S
Fe176 O187 1.976 1_545 S
Fe176 O190 1.996 1_545 S
Fe177 O178 1.918 . S
Fe177 O185 1.997 . S
Fe177 O188 1.996 1_545 S
Fe177 O192 1.976 1_545 S
Fe177 O195 2.002 . S
O178 Fe176 1.918 . S
O178 Fe177 1.918 . S
O178 Fe179 1.918 . S
Fe179 O178 1.918 . S
Fe179 O180 2.002 . S
Fe179 O189 1.976 1_545 S
Fe179 O193 1.996 1_545 S
Fe179 O196 1.997 . S
O180 Fe179 2.002 . S
O180 C197 1.295 . S
O181 Fe176 1.997 . S
O181 C197 1.235 . S
O182 Fe176 2.002 . S
O182 C183 1.295 . S
C183 O182 1.295 . S
C183 O185 1.235 . S
C184 O189 1.287 . S
C184 O190 1.255 . S
O185 Fe177 1.997 . S
O185 C183 1.235 . S
C186 O192 1.287 . S
C186 O193 1.255 . S
O187 Fe176 1.976 1_565 S
O187 C194 1.287 . S
O188 Fe177 1.996 1_565 S
O188 C194 1.255 . S
O189 Fe179 1.976 1_565 S
O189 C184 1.287 . S
O190 Fe176 1.996 1_565 S
O190 C184 1.255 . S
C191 O195 1.295 . S
C191 O196 1.235 . S
O192 Fe177 1.976 1_565 S
O192 C186 1.287 . S
O193 Fe179 1.996 1_565 S
O193 C186 1.255 . S
C194 O187 1.287 . S
C194 O188 1.255 . S
O195 Fe177 2.002 . S
O195 C191 1.295 . S
O196 Fe179 1.997 . S
O196 C191 1.235 . S
C197 O180 1.295 . S
C197 O181 1.235 . S
Fe198 O200 1.918 . S
Fe198 O203 1.997 . S
Fe198 O204 2.002 . S
Fe198 O209 1.976 . S
Fe198 O212 1.996 . S
Fe199 O200 1.918 . S
Fe199 O207 1.997 . S
Fe199 O210 1.996 . S
Fe199 O214 1.976 . S
Fe199 O217 2.002 . S
O200 Fe198 1.918 . S
O200 Fe199 1.918 . S
O200 Fe201 1.918 . S
Fe201 O200 1.918 . S
Fe201 O202 2.002 . S
Fe201 O211 1.976 . S
Fe201 O215 1.996 . S
Fe201 O218 1.997 . S
O202 Fe201 2.002 . S
O202 C219 1.295 . S
O203 Fe198 1.997 . S
O203 C219 1.235 . S
O204 Fe198 2.002 . S
O204 C205 1.295 . S
C205 O204 1.295 . S
C205 O207 1.235 . S
C206 O211 1.287 . S
C206 O212 1.255 . S
O207 Fe199 1.997 . S
O207 C205 1.235 . S
C208 O214 1.287 . S
C208 O215 1.255 . S
O209 Fe198 1.976 . S
O209 C216 1.287 . S
O210 Fe199 1.996 . S
O210 C216 1.255 . S
O211 Fe201 1.976 . S
O211 C206 1.287 . S
O212 Fe198 1.996 . S
O212 C206 1.255 . S
C213 O217 1.295 . S
C213 O218 1.235 . S
O214 Fe199 1.976 . S
O214 C208 1.287 . S
O215 Fe201 1.996 . S
O215 C208 1.255 . S
C216 O209 1.287 . S
C216 O210 1.255 . S
O217 Fe199 2.002 . S
O217 C213 1.295 . S
O218 Fe201 1.997 . S
O218 C213 1.235 . S
C219 O202 1.295 . S
C219 O203 1.235 . S
Fe220 O222 1.918 . S
Fe220 O225 1.997 1_545 S
Fe220 O226 2.002 1_545 S
Fe220 O231 1.976 . S
Fe220 O234 1.996 . S
Fe221 O222 1.918 . S
Fe221 O229 1.997 1_545 S
Fe221 O232 1.996 . S
Fe221 O236 1.976 . S
Fe221 O239 2.002 1_545 S
O222 Fe220 1.918 . S
O222 Fe221 1.918 . S
O222 Fe223 1.918 . S
Fe223 O222 1.918 . S
Fe223 O224 2.002 1_545 S
Fe223 O233 1.976 . S
Fe223 O237 1.996 . S
Fe223 O240 1.997 1_545 S
O224 Fe223 2.002 1_565 S
O224 C241 1.295 . S
O225 Fe220 1.997 1_565 S
O225 C241 1.235 . S
O226 Fe220 2.002 1_565 S
O226 C227 1.295 . S
C227 O226 1.295 . S
C227 O229 1.235 . S
C228 O233 1.287 . S
C228 O234 1.255 . S
O229 Fe221 1.997 1_565 S
O229 C227 1.235 . S
C230 O236 1.287 . S
C230 O237 1.255 . S
O231 Fe220 1.976 . S
O231 C238 1.287 . S
O232 Fe221 1.996 . S
O232 C238 1.255 . S
O233 Fe223 1.976 . S
O233 C228 1.287 . S
O234 Fe220 1.996 . S
O234 C228 1.255 . S
C235 O239 1.295 . S
C235 O240 1.235 . S
O236 Fe221 1.976 . S
O236 C230 1.287 . S
O237 Fe223 1.996 . S
O237 C230 1.255 . S
C238 O231 1.287 . S
C238 O232 1.255 . S
O239 Fe221 2.002 1_565 S
O239 C235 1.295 . S
O240 Fe223 1.997 1_565 S
O240 C235 1.235 . S
C241 O224 1.295 . S
C241 O225 1.235 . S
Fe242 O244 1.918 . S
Fe242 O247 1.997 . S
Fe242 O248 2.002 . S
Fe242 O253 1.976 . S
Fe242 O256 1.996 . S
Fe243 O244 1.918 . S
Fe243 O251 1.997 . S
Fe243 O254 1.996 . S
Fe243 O258 1.976 . S
Fe243 O261 2.002 . S
O244 Fe242 1.918 . S
O244 Fe243 1.918 . S
O244 Fe245 1.918 . S
Fe245 O244 1.918 . S
Fe245 O246 2.002 . S
Fe245 O255 1.976 . S
Fe245 O259 1.996 . S
Fe245 O262 1.997 . S
O246 Fe245 2.002 . S
O246 C263 1.295 . S
O247 Fe242 1.997 . S
O247 C263 1.235 . S
O248 Fe242 2.002 . S
O248 C249 1.295 . S
C249 O248 1.295 . S
C249 O251 1.235 . S
C250 O255 1.287 . S
C250 O256 1.255 . S
O251 Fe243 1.997 . S
O251 C249 1.235 . S
C252 O258 1.287 . S
C252 O259 1.255 . S
O253 Fe242 1.976 . S
O253 C260 1.287 . S
O254 Fe243 1.996 . S
O254 C260 1.255 . S
O255 Fe245 1.976 . S
O255 C250 1.287 . S
O256 Fe242 1.996 . S
O256 C250 1.255 . S
C257 O261 1.295 . S
C257 O262 1.235 . S
O258 Fe243 1.976 . S
O258 C252 1.287 . S
O259 Fe245 1.996 . S
O259 C252 1.255 . S
C260 O253 1.287 . S
C260 O254 1.255 . S
O261 Fe243 2.002 . S
O261 C257 1.295 . S
O262 Fe245 1.997 . S
O262 C257 1.235 . S
C263 O246 1.295 . S
C263 O247 1.235 . S
Fe264 O266 1.918 . S
Fe264 O269 1.997 1_545 S
Fe264 O270 2.002 1_545 S
Fe264 O275 1.976 . S
Fe264 O278 1.996 . S
Fe265 O266 1.918 . S
Fe265 O273 1.997 1_545 S
Fe265 O276 1.996 . S
Fe265 O280 1.976 . S
Fe265 O283 2.002 1_545 S
O266 Fe264 1.918 . S
O266 Fe265 1.918 . S
O266 Fe267 1.918 . S
Fe267 O266 1.918 . S
Fe267 O268 2.002 1_545 S
Fe267 O277 1.976 . S
Fe267 O281 1.996 . S
Fe267 O284 1.997 1_545 S
O268 Fe267 2.002 1_565 S
O268 C285 1.295 . S
O269 Fe264 1.997 1_565 S
O269 C285 1.235 . S
O270 Fe264 2.002 1_565 S
O270 C271 1.295 . S
C271 O270 1.295 . S
C271 O273 1.235 . S
C272 O277 1.287 . S
C272 O278 1.255 . S
O273 Fe265 1.997 1_565 S
O273 C271 1.235 . S
C274 O280 1.287 . S
C274 O281 1.255 . S
O275 Fe264 1.976 . S
O275 C282 1.287 . S
O276 Fe265 1.996 . S
O276 C282 1.255 . S
O277 Fe267 1.976 . S
O277 C272 1.287 . S
O278 Fe264 1.996 . S
O278 C272 1.255 . S
C279 O283 1.295 . S
C279 O284 1.235 . S
O280 Fe265 1.976 . S
O280 C274 1.287 . S
O281 Fe267 1.996 . S
O281 C274 1.255 . S
C282 O275 1.287 . S
C282 O276 1.255 . S
O283 Fe265 2.002 1_565 S
O283 C279 1.295 . S
O284 Fe267 1.997 1_565 S
O284 C279 1.235 . S
C285 O268 1.295 . S
C285 O269 1.235 . S
Fe286 O288 1.918 . S
Fe286 O291 1.997 . S
Fe286 O292 2.002 . S
Fe286 O297 1.976 . S
Fe286 O300 1.996 . S
Fe287 O288 1.918 . S
Fe287 O295 1.997 . S
Fe287 O298 1.996 . S
Fe287 O302 1.976 . S
Fe287 O305 2.002 . S
O288 Fe286 1.918 . S
O288 Fe287 1.918 . S
O288 Fe289 1.918 . S
Fe289 O288 1.918 . S
Fe289 O290 2.002 . S
Fe289 O299 1.976 . S
Fe289 O303 1.996 . S
Fe289 O306 1.997 . S
O290 Fe289 2.002 . S
O290 C307 1.295 . S
O291 Fe286 1.997 . S
O291 C307 1.235 . S
O292 Fe286 2.002 . S
O292 C293 1.295 . S
C293 O292 1.295 . S
C293 O295 1.235 . S
C294 O299 1.287 . S
C294 O300 1.255 . S
O295 Fe287 1.997 . S
O295 C293 1.235 . S
C296 O302 1.287 . S
C296 O303 1.255 . S
O297 Fe286 1.976 . S
O297 C304 1.287 . S
O298 Fe287 1.996 . S
O298 C304 1.255 . S
O299 Fe289 1.976 . S
O299 C294 1.287 . S
O300 Fe286 1.996 . S
O300 C294 1.255 . S
C301 O305 1.295 . S
C301 O306 1.235 . S
O302 Fe287 1.976 . S
O302 C296 1.287 . S
O303 Fe289 1.996 . S
O303 C296 1.255 . S
C304 O297 1.287 . S
C304 O298 1.255 . S
O305 Fe287 2.002 . S
O305 C301 1.295 . S
O306 Fe289 1.997 . S
O306 C301 1.235 . S
C307 O290 1.295 . S
C307 O291 1.235 . S
Fe308 O310 1.918 . S
Fe308 O313 1.997 . S
Fe308 O314 2.002 . S
Fe308 O319 1.976 1_545 S
Fe308 O322 1.996 1_545 S
Fe309 O310 1.918 . S
Fe309 O317 1.997 . S
Fe309 O320 1.996 1_545 S
Fe309 O324 1.976 1_545 S
Fe309 O327 2.002 . S
O310 Fe308 1.918 . S
O310 Fe309 1.918 . S
O310 Fe311 1.918 . S
Fe311 O310 1.918 . S
Fe311 O312 2.002 . S
Fe311 O321 1.976 1_545 S
Fe311 O325 1.996 1_545 S
Fe311 O328 1.997 . S
O312 Fe311 2.002 . S
O312 C329 1.295 . S
O313 Fe308 1.997 . S
O313 C329 1.235 . S
O314 Fe308 2.002 . S
O314 C315 1.295 . S
C315 O314 1.295 . S
C315 O317 1.235 . S
C316 O321 1.287 . S
C316 O322 1.255 . S
O317 Fe309 1.997 . S
O317 C315 1.235 . S
C318 O324 1.287 . S
C318 O325 1.255 . S
O319 Fe308 1.976 1_565 S
O319 C326 1.287 . S
O320 Fe309 1.996 1_565 S
O320 C326 1.255 . S
O321 Fe311 1.976 1_565 S
O321 C316 1.287 . S
O322 Fe308 1.996 1_565 S
O322 C316 1.255 . S
C323 O327 1.295 . S
C323 O328 1.235 . S
O324 Fe309 1.976 1_565 S
O324 C318 1.287 . S
O325 Fe311 1.996 1_565 S
O325 C318 1.255 . S
C326 O319 1.287 . S
C326 O320 1.255 . S
O327 Fe309 2.002 . S
O327 C323 1.295 . S
O328 Fe311 1.997 . S
O328 C323 1.235 . S
C329 O312 1.295 . S
C329 O313 1.235 . S
Fe330 O332 1.918 . S
Fe330 O335 1.997 . S
Fe330 O336 2.002 . S
Fe330 O341 1.976 . S
Fe330 O344 1.996 . S
Fe331 O332 1.918 . S
Fe331 O339 1.997 . S
Fe331 O342 1.996 . S
Fe331 O346 1.976 . S
Fe331 O349 2.002 . S
O332 Fe330 1.918 . S
O332 Fe331 1.918 . S
O332 Fe333 1.918 . S
Fe333 O332 1.918 . S
Fe333 O334 2.002 . S
Fe333 O343 1.976 . S
Fe333 O347 1.996 . S
Fe333 O350 1.997 . S
O334 Fe333 2.002 . S
O334 C351 1.295 . S
O335 Fe330 1.997 . S
O335 C351 1.235 . S
O336 Fe330 2.002 . S
O336 C337 1.295 . S
C337 O336 1.295 . S
C337 O339 1.235 . S
C338 O343 1.287 . S
C338 O344 1.255 . S
O339 Fe331 1.997 . S
O339 C337 1.235 . S
C340 O346 1.287 . S
C340 O347 1.255 . S
O341 Fe330 1.976 . S
O341 C348 1.287 . S
O342 Fe331 1.996 . S
O342 C348 1.255 . S
O343 Fe333 1.976 . S
O343 C338 1.287 . S
O344 Fe330 1.996 . S
O344 C338 1.255 . S
C345 O349 1.295 . S
C345 O350 1.235 . S
O346 Fe331 1.976 . S
O346 C340 1.287 . S
O347 Fe333 1.996 . S
O347 C340 1.255 . S
C348 O341 1.287 . S
C348 O342 1.255 . S
O349 Fe331 2.002 . S
O349 C345 1.295 . S
O350 Fe333 1.997 . S
O350 C345 1.235 . S
C351 O334 1.295 . S
C351 O335 1.235 . S
Fe352 O354 1.918 . S
Fe352 O357 1.997 . S
Fe352 O358 2.002 . S
Fe352 O363 1.976 1_554 S
Fe352 O366 1.996 1_554 S
Fe353 O354 1.918 . S
Fe353 O361 1.997 . S
Fe353 O364 1.996 1_554 S
Fe353 O368 1.976 1_554 S
Fe353 O371 2.002 . S
O354 Fe352 1.918 . S
O354 Fe353 1.918 . S
O354 Fe355 1.918 . S
Fe355 O354 1.918 . S
Fe355 O356 2.002 . S
Fe355 O365 1.976 1_554 S
Fe355 O369 1.996 1_554 S
Fe355 O372 1.997 . S
O356 Fe355 2.002 . S
O356 C373 1.295 . S
O357 Fe352 1.997 . S
O357 C373 1.235 . S
O358 Fe352 2.002 . S
O358 C359 1.295 . S
C359 O358 1.295 . S
C359 O361 1.235 . S
C360 O365 1.287 . S
C360 O366 1.255 . S
O361 Fe353 1.997 . S
O361 C359 1.235 . S
C362 O368 1.287 . S
C362 O369 1.255 . S
O363 Fe352 1.976 1_556 S
O363 C370 1.287 . S
O364 Fe353 1.996 1_556 S
O364 C370 1.255 . S
O365 Fe355 1.976 1_556 S
O365 C360 1.287 . S
O366 Fe352 1.996 1_556 S
O366 C360 1.255 . S
C367 O371 1.295 . S
C367 O372 1.235 . S
O368 Fe353 1.976 1_556 S
O368 C362 1.287 . S
O369 Fe355 1.996 1_556 S
O369 C362 1.255 . S
C370 O363 1.287 . S
C370 O364 1.255 . S
O371 Fe353 2.002 . S
O371 C367 1.295 . S
O372 Fe355 1.997 . S
O372 C367 1.235 . S
C373 O356 1.295 . S
C373 O357 1.235 . S
Fe374 O376 1.918 . S
Fe374 O379 1.997 1_554 S
Fe374 O380 2.002 1_554 S
Fe374 O385 1.976 . S
Fe374 O388 1.996 . S
Fe375 O376 1.918 . S
Fe375 O383 1.997 1_554 S
Fe375 O386 1.996 . S
Fe375 O390 1.976 . S
Fe375 O393 2.002 1_554 S
O376 Fe374 1.918 . S
O376 Fe375 1.918 . S
O376 Fe377 1.918 . S
Fe377 O376 1.918 . S
Fe377 O378 2.002 1_554 S
Fe377 O387 1.976 . S
Fe377 O391 1.996 . S
Fe377 O394 1.997 1_554 S
O378 Fe377 2.002 1_556 S
O378 C395 1.295 . S
O379 Fe374 1.997 1_556 S
O379 C395 1.235 . S
O380 Fe374 2.002 1_556 S
O380 C381 1.295 . S
C381 O380 1.295 . S
C381 O383 1.235 . S
C382 O387 1.287 . S
C382 O388 1.255 . S
O383 Fe375 1.997 1_556 S
O383 C381 1.235 . S
C384 O390 1.287 . S
C384 O391 1.255 . S
O385 Fe374 1.976 . S
O385 C392 1.287 . S
O386 Fe375 1.996 . S
O386 C392 1.255 . S
O387 Fe377 1.976 . S
O387 C382 1.287 . S
O388 Fe374 1.996 . S
O388 C382 1.255 . S
C389 O393 1.295 . S
C389 O394 1.235 . S
O390 Fe375 1.976 . S
O390 C384 1.287 . S
O391 Fe377 1.996 . S
O391 C384 1.255 . S
C392 O385 1.287 . S
C392 O386 1.255 . S
O393 Fe375 2.002 1_556 S
O393 C389 1.295 . S
O394 Fe377 1.997 1_556 S
O394 C389 1.235 . S
C395 O378 1.295 . S
C395 O379 1.235 . S
Fe396 O398 1.918 . S
Fe396 O401 1.997 . S
Fe396 O402 2.002 . S
Fe396 O407 1.976 . S
Fe396 O410 1.996 . S
Fe397 O398 1.918 . S
Fe397 O405 1.997 . S
Fe397 O408 1.996 . S
Fe397 O412 1.976 . S
Fe397 O415 2.002 . S
O398 Fe396 1.918 . S
O398 Fe397 1.918 . S
O398 Fe399 1.918 . S
Fe399 O398 1.918 . S
Fe399 O400 2.002 . S
Fe399 O409 1.976 . S
Fe399 O413 1.996 . S
Fe399 O416 1.997 . S
O400 Fe399 2.002 . S
O400 C417 1.295 . S
O401 Fe396 1.997 . S
O401 C417 1.235 . S
O402 Fe396 2.002 . S
O402 C403 1.295 . S
C403 O402 1.295 . S
C403 O405 1.235 . S
C404 O409 1.287 . S
C404 O410 1.255 . S
O405 Fe397 1.997 . S
O405 C403 1.235 . S
C406 O412 1.287 . S
C406 O413 1.255 . S
O407 Fe396 1.976 . S
O407 C414 1.287 . S
O408 Fe397 1.996 . S
O408 C414 1.255 . S
O409 Fe399 1.976 . S
O409 C404 1.287 . S
O410 Fe396 1.996 . S
O410 C404 1.255 . S
C411 O415 1.295 . S
C411 O416 1.235 . S
O412 Fe397 1.976 . S
O412 C406 1.287 . S
O413 Fe399 1.996 . S
O413 C406 1.255 . S
C414 O407 1.287 . S
C414 O408 1.255 . S
O415 Fe397 2.002 . S
O415 C411 1.295 . S
O416 Fe399 1.997 . S
O416 C411 1.235 . S
C417 O400 1.295 . S
C417 O401 1.235 . S
Fe418 O420 1.918 . S
Fe418 O423 1.997 1_554 S
Fe418 O424 2.002 1_554 S
Fe418 O429 1.976 . S
Fe418 O432 1.996 . S
Fe419 O420 1.918 . S
Fe419 O427 1.997 1_554 S
Fe419 O430 1.996 . S
Fe419 O434 1.976 . S
Fe419 O437 2.002 1_554 S
O420 Fe418 1.918 . S
O420 Fe419 1.918 . S
O420 Fe421 1.918 . S
Fe421 O420 1.918 . S
Fe421 O422 2.002 1_554 S
Fe421 O431 1.976 . S
Fe421 O435 1.996 . S
Fe421 O438 1.997 1_554 S
O422 Fe421 2.002 1_556 S
O422 C439 1.295 . S
O423 Fe418 1.997 1_556 S
O423 C439 1.235 . S
O424 Fe418 2.002 1_556 S
O424 C425 1.295 . S
C425 O424 1.295 . S
C425 O427 1.235 . S
C426 O431 1.287 . S
C426 O432 1.255 . S
O427 Fe419 1.997 1_556 S
O427 C425 1.235 . S
C428 O434 1.287 . S
C428 O435 1.255 . S
O429 Fe418 1.976 . S
O429 C436 1.287 . S
O430 Fe419 1.996 . S
O430 C436 1.255 . S
O431 Fe421 1.976 . S
O431 C426 1.287 . S
O432 Fe418 1.996 . S
O432 C426 1.255 . S
C433 O437 1.295 . S
C433 O438 1.235 . S
O434 Fe419 1.976 . S
O434 C428 1.287 . S
O435 Fe421 1.996 . S
O435 C428 1.255 . S
C436 O429 1.287 . S
C436 O430 1.255 . S
O437 Fe419 2.002 1_556 S
O437 C433 1.295 . S
O438 Fe421 1.997 1_556 S
O438 C433 1.235 . S
C439 O422 1.295 . S
C439 O423 1.235 . S
Fe440 O442 1.918 . S
Fe440 O445 1.997 . S
Fe440 O446 2.002 . S
Fe440 O451 1.976 . S
Fe440 O454 1.996 . S
Fe441 O442 1.918 . S
Fe441 O449 1.997 . S
Fe441 O452 1.996 . S
Fe441 O456 1.976 . S
Fe441 O459 2.002 . S
O442 Fe440 1.918 . S
O442 Fe441 1.918 . S
O442 Fe443 1.918 . S
Fe443 O442 1.918 . S
Fe443 O444 2.002 . S
Fe443 O453 1.976 . S
Fe443 O457 1.996 . S
Fe443 O460 1.997 . S
O444 Fe443 2.002 . S
O444 C461 1.295 . S
O445 Fe440 1.997 . S
O445 C461 1.235 . S
O446 Fe440 2.002 . S
O446 C447 1.295 . S
C447 O446 1.295 . S
C447 O449 1.235 . S
C448 O453 1.287 . S
C448 O454 1.255 . S
O449 Fe441 1.997 . S
O449 C447 1.235 . S
C450 O456 1.287 . S
C450 O457 1.255 . S
O451 Fe440 1.976 . S
O451 C458 1.287 . S
O452 Fe441 1.996 . S
O452 C458 1.255 . S
O453 Fe443 1.976 . S
O453 C448 1.287 . S
O454 Fe440 1.996 . S
O454 C448 1.255 . S
C455 O459 1.295 . S
C455 O460 1.235 . S
O456 Fe441 1.976 . S
O456 C450 1.287 . S
O457 Fe443 1.996 . S
O457 C450 1.255 . S
C458 O451 1.287 . S
C458 O452 1.255 . S
O459 Fe441 2.002 . S
O459 C455 1.295 . S
O460 Fe443 1.997 . S
O460 C455 1.235 . S
C461 O444 1.295 . S
C461 O445 1.235 . S
Fe462 O464 1.918 . S
Fe462 O467 1.997 . S
Fe462 O468 2.002 . S
Fe462 O473 1.976 1_554 S
Fe462 O476 1.996 1_554 S
Fe463 O464 1.918 . S
Fe463 O471 1.997 . S
Fe463 O474 1.996 1_554 S
Fe463 O478 1.976 1_554 S
Fe463 O481 2.002 . S
O464 Fe462 1.918 . S
O464 Fe463 1.918 . S
O464 Fe465 1.918 . S
Fe465 O464 1.918 . S
Fe465 O466 2.002 . S
Fe465 O475 1.976 1_554 S
Fe465 O479 1.996 1_554 S
Fe465 O482 1.997 . S
O466 Fe465 2.002 . S
O466 C483 1.295 . S
O467 Fe462 1.997 . S
O467 C483 1.235 . S
O468 Fe462 2.002 . S
O468 C469 1.295 . S
C469 O468 1.295 . S
C469 O471 1.235 . S
C470 O475 1.287 . S
C470 O476 1.255 . S
O471 Fe463 1.997 . S
O471 C469 1.235 . S
C472 O478 1.287 . S
C472 O479 1.255 . S
O473 Fe462 1.976 1_556 S
O473 C480 1.287 . S
O474 Fe463 1.996 1_556 S
O474 C480 1.255 . S
O475 Fe465 1.976 1_556 S
O475 C470 1.287 . S
O476 Fe462 1.996 1_556 S
O476 C470 1.255 . S
C477 O481 1.295 . S
C477 O482 1.235 . S
O478 Fe463 1.976 1_556 S
O478 C472 1.287 . S
O479 Fe465 1.996 1_556 S
O479 C472 1.255 . S
C480 O473 1.287 . S
C480 O474 1.255 . S
O481 Fe463 2.002 . S
O481 C477 1.295 . S
O482 Fe465 1.997 . S
O482 C477 1.235 . S
C483 O466 1.295 . S
C483 O467 1.235 . S
Fe484 O486 1.918 . S
Fe484 O489 1.997 . S
Fe484 O490 2.002 . S
Fe484 O495 1.976 . S
Fe484 O498 1.996 . S
Fe485 O486 1.918 . S
Fe485 O493 1.997 . S
Fe485 O496 1.996 . S
Fe485 O500 1.976 . S
Fe485 O503 2.002 . S
O486 Fe484 1.918 . S
O486 Fe485 1.918 . S
O486 Fe487 1.918 . S
Fe487 O486 1.918 . S
Fe487 O488 2.002 . S
Fe487 O497 1.976 . S
Fe487 O501 1.996 . S
Fe487 O504 1.997 . S
O488 Fe487 2.002 . S
O488 C505 1.295 . S
O489 Fe484 1.997 . S
O489 C505 1.235 . S
O490 Fe484 2.002 . S
O490 C491 1.295 . S
C491 O490 1.295 . S
C491 O493 1.235 . S
C492 O497 1.287 . S
C492 O498 1.255 . S
O493 Fe485 1.997 . S
O493 C491 1.235 . S
C494 O500 1.287 . S
C494 O501 1.255 . S
O495 Fe484 1.976 . S
O495 C502 1.287 . S
O496 Fe485 1.996 . S
O496 C502 1.255 . S
O497 Fe487 1.976 . S
O497 C492 1.287 . S
O498 Fe484 1.996 . S
O498 C492 1.255 . S
C499 O503 1.295 . S
C499 O504 1.235 . S
O500 Fe485 1.976 . S
O500 C494 1.287 . S
O501 Fe487 1.996 . S
O501 C494 1.255 . S
C502 O495 1.287 . S
C502 O496 1.255 . S
O503 Fe485 2.002 . S
O503 C499 1.295 . S
O504 Fe487 1.997 . S
O504 C499 1.235 . S
C505 O488 1.295 . S
C505 O489 1.235 . S
Fe506 O508 1.918 . S
Fe506 O511 1.997 . S
Fe506 O512 2.002 . S
Fe506 O517 1.976 . S
Fe506 O520 1.996 . S
Fe507 O508 1.918 . S
Fe507 O515 1.997 . S
Fe507 O518 1.996 . S
Fe507 O522 1.976 . S
Fe507 O525 2.002 . S
O508 Fe506 1.918 . S
O508 Fe507 1.918 . S
O508 Fe509 1.918 . S
Fe509 O508 1.918 . S
Fe509 O510 2.002 . S
Fe509 O519 1.976 . S
Fe509 O523 1.996 . S
Fe509 O526 1.997 . S
O510 Fe509 2.002 . S
O510 C527 1.295 . S
O511 Fe506 1.997 . S
O511 C527 1.235 . S
O512 Fe506 2.002 . S
O512 C513 1.295 . S
C513 O512 1.295 . S
C513 O515 1.235 . S
C514 O519 1.287 . S
C514 O520 1.255 . S
O515 Fe507 1.997 . S
O515 C513 1.235 . S
C516 O522 1.287 . S
C516 O523 1.255 . S
O517 Fe506 1.976 . S
O517 C524 1.287 . S
O518 Fe507 1.996 . S
O518 C524 1.255 . S
O519 Fe509 1.976 . S
O519 C514 1.287 . S
O520 Fe506 1.996 . S
O520 C514 1.255 . S
C521 O525 1.295 . S
C521 O526 1.235 . S
O522 Fe507 1.976 . S
O522 C516 1.287 . S
O523 Fe509 1.996 . S
O523 C516 1.255 . S
C524 O517 1.287 . S
C524 O518 1.255 . S
O525 Fe507 2.002 . S
O525 C521 1.295 . S
O526 Fe509 1.997 . S
O526 C521 1.235 . S
C527 O510 1.295 . S
C527 O511 1.235 . S
H528 C534 0.930 . S
H529 C537 0.930 . S
H530 C538 0.930 . S
H531 C539 0.930 . S
H532 C542 0.930 . S
H533 C543 0.930 . S
C534 H528 0.930 . S
C534 C535 1.355 . S
C534 C536 1.415 . S
C535 C534 1.355 . S
C535 C537 1.419 . S
C536 C534 1.415 . S
C536 C541 1.425 . S
C536 C543 1.409 . S
C537 H529 0.930 . S
C537 C535 1.419 . S
C537 C538 1.362 . S
C538 H530 0.930 . S
C538 C537 1.362 . S
C538 C541 1.409 . S
C539 H531 0.930 . S
C539 C540 1.355 . S
C539 C541 1.415 . S
C540 C539 1.355 . S
C540 C542 1.419 . S
C541 C536 1.425 . S
C541 C538 1.409 . S
C541 C539 1.415 . S
C542 H532 0.930 . S
C542 C540 1.419 . S
C542 C543 1.362 . S
C543 H533 0.930 . S
C543 C536 1.409 . S
C543 C542 1.362 . S
H544 C550 0.930 . S
H545 C553 0.930 . S
H546 C554 0.930 . S
H547 C555 0.930 . S
H548 C558 0.930 . S
H549 C559 0.930 . S
C550 H544 0.930 . S
C550 C551 1.355 . S
C550 C552 1.415 . S
C551 C550 1.355 . S
C551 C553 1.419 . S
C552 C550 1.415 . S
C552 C557 1.425 . S
C552 C559 1.409 . S
C553 H545 0.930 . S
C553 C551 1.419 . S
C553 C554 1.362 . S
C554 H546 0.930 . S
C554 C553 1.362 . S
C554 C557 1.409 . S
C555 H547 0.930 . S
C555 C556 1.355 . S
C555 C557 1.415 . S
C556 C555 1.355 . S
C556 C558 1.419 . S
C557 C552 1.425 . S
C557 C554 1.409 . S
C557 C555 1.415 . S
C558 H548 0.930 . S
C558 C556 1.419 . S
C558 C559 1.362 . S
C559 H549 0.930 . S
C559 C552 1.409 . S
C559 C558 1.362 . S
H560 C566 0.930 . S
H561 C569 0.930 . S
H562 C570 0.930 . S
H563 C571 0.930 . S
H564 C574 0.930 . S
H565 C575 0.930 . S
C566 H560 0.930 . S
C566 C567 1.355 . S
C566 C568 1.415 . S
C567 C566 1.355 . S
C567 C569 1.419 . S
C568 C566 1.415 . S
C568 C573 1.425 . S
C568 C575 1.409 . S
C569 H561 0.930 . S
C569 C567 1.419 . S
C569 C570 1.362 . S
C570 H562 0.930 . S
C570 C569 1.362 . S
C570 C573 1.409 . S
C571 H563 0.930 . S
C571 C572 1.355 . S
C571 C573 1.415 . S
C572 C571 1.355 . S
C572 C574 1.419 . S
C573 C568 1.425 . S
C573 C570 1.409 . S
C573 C571 1.415 . S
C574 H564 0.930 . S
C574 C572 1.419 . S
C574 C575 1.362 . S
C575 H565 0.930 . S
C575 C568 1.409 . S
C575 C574 1.362 . S
H576 C582 0.930 . S
H577 C585 0.930 . S
H578 C586 0.930 . S
H579 C587 0.930 . S
H580 C590 0.930 . S
H581 C591 0.930 . S
C582 H576 0.930 . S
C582 C583 1.355 . S
C582 C584 1.415 . S
C583 C582 1.355 . S
C583 C585 1.419 . S
C584 C582 1.415 . S
C584 C589 1.425 . S
C584 C591 1.409 . S
C585 H577 0.930 . S
C585 C583 1.419 . S
C585 C586 1.362 . S
C586 H578 0.930 . S
C586 C585 1.362 . S
C586 C589 1.409 . S
C587 H579 0.930 . S
C587 C588 1.355 . S
C587 C589 1.415 . S
C588 C587 1.355 . S
C588 C590 1.419 . S
C589 C584 1.425 . S
C589 C586 1.409 . S
C589 C587 1.415 . S
C590 H580 0.930 . S
C590 C588 1.419 . S
C590 C591 1.362 . S
C591 H581 0.930 . S
C591 C584 1.409 . S
C591 C590 1.362 . S
H592 C598 0.930 . S
H593 C601 0.930 . S
H594 C602 0.930 . S
H595 C603 0.930 . S
H596 C606 0.930 . S
H597 C607 0.930 . S
C598 H592 0.930 . S
C598 C599 1.355 . S
C598 C600 1.415 . S
C599 C598 1.355 . S
C599 C601 1.419 . S
C600 C598 1.415 . S
C600 C605 1.425 . S
C600 C607 1.409 . S
C601 H593 0.930 . S
C601 C599 1.419 . S
C601 C602 1.362 . S
C602 H594 0.930 . S
C602 C601 1.362 . S
C602 C605 1.409 . S
C603 H595 0.930 . S
C603 C604 1.355 . S
C603 C605 1.415 . S
C604 C603 1.355 . S
C604 C606 1.419 . S
C605 C600 1.425 . S
C605 C602 1.409 . S
C605 C603 1.415 . S
C606 H596 0.930 . S
C606 C604 1.419 . S
C606 C607 1.362 . S
C607 H597 0.930 . S
C607 C600 1.409 . S
C607 C606 1.362 . S
H608 C614 0.930 . S
H609 C617 0.930 . S
H610 C618 0.930 . S
H611 C619 0.930 . S
H612 C622 0.930 . S
H613 C623 0.930 . S
C614 H608 0.930 . S
C614 C615 1.355 . S
C614 C616 1.415 . S
C615 C614 1.355 . S
C615 C617 1.419 . S
C616 C614 1.415 . S
C616 C621 1.425 . S
C616 C623 1.409 . S
C617 H609 0.930 . S
C617 C615 1.419 . S
C617 C618 1.362 . S
C618 H610 0.930 . S
C618 C617 1.362 . S
C618 C621 1.409 . S
C619 H611 0.930 . S
C619 C620 1.355 . S
C619 C621 1.415 . S
C620 C619 1.355 . S
C620 C622 1.419 . S
C621 C616 1.425 . S
C621 C618 1.409 . S
C621 C619 1.415 . S
C622 H612 0.930 . S
C622 C620 1.419 . S
C622 C623 1.362 . S
C623 H613 0.930 . S
C623 C616 1.409 . S
C623 C622 1.362 . S
H624 C630 0.930 . S
H625 C633 0.930 . S
H626 C634 0.930 . S
H627 C635 0.930 . S
H628 C638 0.930 . S
H629 C639 0.930 . S
C630 H624 0.930 . S
C630 C631 1.355 . S
C630 C632 1.415 . S
C631 C630 1.355 . S
C631 C633 1.419 . S
C632 C630 1.415 . S
C632 C637 1.425 . S
C632 C639 1.409 . S
C633 H625 0.930 . S
C633 C631 1.419 . S
C633 C634 1.362 . S
C634 H626 0.930 . S
C634 C633 1.362 . S
C634 C637 1.409 . S
C635 H627 0.930 . S
C635 C636 1.355 . S
C635 C637 1.415 . S
C636 C635 1.355 . S
C636 C638 1.419 . S
C637 C632 1.425 . S
C637 C634 1.409 . S
C637 C635 1.415 . S
C638 H628 0.930 . S
C638 C636 1.419 . S
C638 C639 1.362 . S
C639 H629 0.930 . S
C639 C632 1.409 . S
C639 C638 1.362 . S
H640 C646 0.930 . S
H641 C649 0.930 . S
H642 C650 0.930 . S
H643 C651 0.930 . S
H644 C654 0.930 . S
H645 C655 0.930 . S
C646 H640 0.930 . S
C646 C647 1.355 . S
C646 C648 1.415 . S
C647 C646 1.355 . S
C647 C649 1.419 . S
C648 C646 1.415 . S
C648 C653 1.425 . S
C648 C655 1.409 . S
C649 H641 0.930 . S
C649 C647 1.419 . S
C649 C650 1.362 . S
C650 H642 0.930 . S
C650 C649 1.362 . S
C650 C653 1.409 . S
C651 H643 0.930 . S
C651 C652 1.355 . S
C651 C653 1.415 . S
C652 C651 1.355 . S
C652 C654 1.419 . S
C653 C648 1.425 . S
C653 C650 1.409 . S
C653 C651 1.415 . S
C654 H644 0.930 . S
C654 C652 1.419 . S
C654 C655 1.362 . S
C655 H645 0.930 . S
C655 C648 1.409 . S
C655 C654 1.362 . S
H656 C662 0.930 . S
H657 C665 0.930 . S
H658 C666 0.930 . S
H659 C667 0.930 . S
H660 C670 0.930 . S
H661 C671 0.930 . S
C662 H656 0.930 . S
C662 C663 1.355 . S
C662 C664 1.415 . S
C663 C662 1.355 . S
C663 C665 1.419 . S
C664 C662 1.415 . S
C664 C669 1.425 . S
C664 C671 1.409 . S
C665 H657 0.930 . S
C665 C663 1.419 . S
C665 C666 1.362 . S
C666 H658 0.930 . S
C666 C665 1.362 . S
C666 C669 1.409 . S
C667 H659 0.930 . S
C667 C668 1.355 . S
C667 C669 1.415 . S
C668 C667 1.355 . S
C668 C670 1.419 . S
C669 C664 1.425 . S
C669 C666 1.409 . S
C669 C667 1.415 . S
C670 H660 0.930 . S
C670 C668 1.419 . S
C670 C671 1.362 . S
C671 H661 0.930 . S
C671 C664 1.409 . S
C671 C670 1.362 . S
H672 C678 0.930 . S
H673 C681 0.930 . S
H674 C682 0.930 . S
H675 C683 0.930 . S
H676 C686 0.930 . S
H677 C687 0.930 . S
C678 H672 0.930 . S
C678 C679 1.355 . S
C678 C680 1.415 . S
C679 C678 1.355 . S
C679 C681 1.419 . S
C680 C678 1.415 . S
C680 C685 1.425 . S
C680 C687 1.409 . S
C681 H673 0.930 . S
C681 C679 1.419 . S
C681 C682 1.362 . S
C682 H674 0.930 . S
C682 C681 1.362 . S
C682 C685 1.409 . S
C683 H675 0.930 . S
C683 C684 1.355 . S
C683 C685 1.415 . S
C684 C683 1.355 . S
C684 C686 1.419 . S
C685 C680 1.425 . S
C685 C682 1.409 . S
C685 C683 1.415 . S
C686 H676 0.930 . S
C686 C684 1.419 . S
C686 C687 1.362 . S
C687 H677 0.930 . S
C687 C680 1.409 . S
C687 C686 1.362 . S
H688 C694 0.930 . S
H689 C697 0.930 . S
H690 C698 0.930 . S
H691 C699 0.930 . S
H692 C702 0.930 . S
H693 C703 0.930 . S
C694 H688 0.930 . S
C694 C695 1.355 . S
C694 C696 1.415 . S
C695 C694 1.355 . S
C695 C697 1.419 . S
C696 C694 1.415 . S
C696 C701 1.425 . S
C696 C703 1.409 . S
C697 H689 0.930 . S
C697 C695 1.419 . S
C697 C698 1.362 . S
C698 H690 0.930 . S
C698 C697 1.362 . S
C698 C701 1.409 . S
C699 H691 0.930 . S
C699 C700 1.355 . S
C699 C701 1.415 . S
C700 C699 1.355 . S
C700 C702 1.419 . S
C701 C696 1.425 . S
C701 C698 1.409 . S
C701 C699 1.415 . S
C702 H692 0.930 . S
C702 C700 1.419 . S
C702 C703 1.362 . S
C703 H693 0.930 . S
C703 C696 1.409 . S
C703 C702 1.362 . S
H704 C710 0.930 . S
H705 C713 0.930 . S
H706 C714 0.930 . S
H707 C715 0.930 . S
H708 C718 0.930 . S
H709 C719 0.930 . S
C710 H704 0.930 . S
C710 C711 1.355 . S
C710 C712 1.415 . S
C711 C710 1.355 . S
C711 C713 1.419 . S
C712 C710 1.415 . S
C712 C717 1.425 . S
C712 C719 1.409 . S
C713 H705 0.930 . S
C713 C711 1.419 . S
C713 C714 1.362 . S
C714 H706 0.930 . S
C714 C713 1.362 . S
C714 C717 1.409 . S
C715 H707 0.930 . S
C715 C716 1.355 . S
C715 C717 1.415 . S
C716 C715 1.355 . S
C716 C718 1.419 . S
C717 C712 1.425 . S
C717 C714 1.409 . S
C717 C715 1.415 . S
C718 H708 0.930 . S
C718 C716 1.419 . S
C718 C719 1.362 . S
C719 H709 0.930 . S
C719 C712 1.409 . S
C719 C718 1.362 . S
H720 C726 0.930 . S
H721 C729 0.930 . S
H722 C730 0.930 . S
H723 C731 0.930 . S
H724 C734 0.930 . S
H725 C735 0.930 . S
C726 H720 0.930 . S
C726 C727 1.355 . S
C726 C728 1.415 . S
C727 C726 1.355 . S
C727 C729 1.419 . S
C728 C726 1.415 . S
C728 C733 1.425 . S
C728 C735 1.409 . S
C729 H721 0.930 . S
C729 C727 1.419 . S
C729 C730 1.362 . S
C730 H722 0.930 . S
C730 C729 1.362 . S
C730 C733 1.409 . S
C731 H723 0.930 . S
C731 C732 1.355 . S
C731 C733 1.415 . S
C732 C731 1.355 . S
C732 C734 1.419 . S
C733 C728 1.425 . S
C733 C730 1.409 . S
C733 C731 1.415 . S
C734 H724 0.930 . S
C734 C732 1.419 . S
C734 C735 1.362 . S
C735 H725 0.930 . S
C735 C728 1.409 . S
C735 C734 1.362 . S
H736 C742 0.930 . S
H737 C745 0.930 . S
H738 C746 0.930 . S
H739 C747 0.930 . S
H740 C750 0.930 . S
H741 C751 0.930 . S
C742 H736 0.930 . S
C742 C743 1.355 . S
C742 C744 1.415 . S
C743 C742 1.355 . S
C743 C745 1.419 . S
C744 C742 1.415 . S
C744 C749 1.425 . S
C744 C751 1.409 . S
C745 H737 0.930 . S
C745 C743 1.419 . S
C745 C746 1.362 . S
C746 H738 0.930 . S
C746 C745 1.362 . S
C746 C749 1.409 . S
C747 H739 0.930 . S
C747 C748 1.355 . S
C747 C749 1.415 . S
C748 C747 1.355 . S
C748 C750 1.419 . S
C749 C744 1.425 . S
C749 C746 1.409 . S
C749 C747 1.415 . S
C750 H740 0.930 . S
C750 C748 1.419 . S
C750 C751 1.362 . S
C751 H741 0.930 . S
C751 C744 1.409 . S
C751 C750 1.362 . S
H752 C758 0.930 . S
H753 C761 0.930 . S
H754 C762 0.930 . S
H755 C763 0.930 . S
H756 C766 0.930 . S
H757 C767 0.930 . S
C758 H752 0.930 . S
C758 C759 1.355 . S
C758 C760 1.415 . S
C759 C758 1.355 . S
C759 C761 1.419 . S
C760 C758 1.415 . S
C760 C765 1.425 . S
C760 C767 1.409 . S
C761 H753 0.930 . S
C761 C759 1.419 . S
C761 C762 1.362 . S
C762 H754 0.930 . S
C762 C761 1.362 . S
C762 C765 1.409 . S
C763 H755 0.930 . S
C763 C764 1.355 . S
C763 C765 1.415 . S
C764 C763 1.355 . S
C764 C766 1.419 . S
C765 C760 1.425 . S
C765 C762 1.409 . S
C765 C763 1.415 . S
C766 H756 0.930 . S
C766 C764 1.419 . S
C766 C767 1.362 . S
C767 H757 0.930 . S
C767 C760 1.409 . S
C767 C766 1.362 . S
H768 C774 0.930 . S
H769 C777 0.930 . S
H770 C778 0.930 . S
H771 C779 0.930 . S
H772 C782 0.930 . S
H773 C783 0.930 . S
C774 H768 0.930 . S
C774 C775 1.355 . S
C774 C776 1.415 . S
C775 C774 1.355 . S
C775 C777 1.419 . S
C776 C774 1.415 . S
C776 C781 1.425 . S
C776 C783 1.409 . S
C777 H769 0.930 . S
C777 C775 1.419 . S
C777 C778 1.362 . S
C778 H770 0.930 . S
C778 C777 1.362 . S
C778 C781 1.409 . S
C779 H771 0.930 . S
C779 C780 1.355 . S
C779 C781 1.415 . S
C780 C779 1.355 . S
C780 C782 1.419 . S
C781 C776 1.425 . S
C781 C778 1.409 . S
C781 C779 1.415 . S
C782 H772 0.930 . S
C782 C780 1.419 . S
C782 C783 1.362 . S
C783 H773 0.930 . S
C783 C776 1.409 . S
C783 C782 1.362 . S
H784 C790 0.930 . S
H785 C793 0.930 . S
H786 C794 0.930 . S
H787 C795 0.930 . S
H788 C798 0.930 . S
H789 C799 0.930 . S
C790 H784 0.930 . S
C790 C791 1.355 . S
C790 C792 1.415 . S
C791 C790 1.355 . S
C791 C793 1.419 . S
C792 C790 1.415 . S
C792 C797 1.425 . S
C792 C799 1.409 . S
C793 H785 0.930 . S
C793 C791 1.419 . S
C793 C794 1.362 . S
C794 H786 0.930 . S
C794 C793 1.362 . S
C794 C797 1.409 . S
C795 H787 0.930 . S
C795 C796 1.355 . S
C795 C797 1.415 . S
C796 C795 1.355 . S
C796 C798 1.419 . S
C797 C792 1.425 . S
C797 C794 1.409 . S
C797 C795 1.415 . S
C798 H788 0.930 . S
C798 C796 1.419 . S
C798 C799 1.362 . S
C799 H789 0.930 . S
C799 C792 1.409 . S
C799 C798 1.362 . S
H800 C806 0.930 . S
H801 C809 0.930 . S
H802 C810 0.930 . S
H803 C811 0.930 . S
H804 C814 0.930 . S
H805 C815 0.930 . S
C806 H800 0.930 . S
C806 C807 1.355 . S
C806 C808 1.415 . S
C807 C806 1.355 . S
C807 C809 1.419 . S
C808 C806 1.415 . S
C808 C813 1.425 . S
C808 C815 1.409 . S
C809 H801 0.930 . S
C809 C807 1.419 . S
C809 C810 1.362 . S
C810 H802 0.930 . S
C810 C809 1.362 . S
C810 C813 1.409 . S
C811 H803 0.930 . S
C811 C812 1.355 . S
C811 C813 1.415 . S
C812 C811 1.355 . S
C812 C814 1.419 . S
C813 C808 1.425 . S
C813 C810 1.409 . S
C813 C811 1.415 . S
C814 H804 0.930 . S
C814 C812 1.419 . S
C814 C815 1.362 . S
C815 H805 0.930 . S
C815 C808 1.409 . S
C815 C814 1.362 . S
H816 C822 0.930 . S
H817 C825 0.930 . S
H818 C826 0.930 . S
H819 C827 0.930 . S
H820 C830 0.930 . S
H821 C831 0.930 . S
C822 H816 0.930 . S
C822 C823 1.355 . S
C822 C824 1.415 . S
C823 C822 1.355 . S
C823 C825 1.419 . S
C824 C822 1.415 . S
C824 C829 1.425 . S
C824 C831 1.409 . S
C825 H817 0.930 . S
C825 C823 1.419 . S
C825 C826 1.362 . S
C826 H818 0.930 . S
C826 C825 1.362 . S
C826 C829 1.409 . S
C827 H819 0.930 . S
C827 C828 1.355 . S
C827 C829 1.415 . S
C828 C827 1.355 . S
C828 C830 1.419 . S
C829 C824 1.425 . S
C829 C826 1.409 . S
C829 C827 1.415 . S
C830 H820 0.930 . S
C830 C828 1.419 . S
C830 C831 1.362 . S
C831 H821 0.930 . S
C831 C824 1.409 . S
C831 C830 1.362 . S
H832 C838 0.930 . S
H833 C841 0.930 . S
H834 C842 0.930 . S
H835 C843 0.930 . S
H836 C846 0.930 . S
H837 C847 0.930 . S
C838 H832 0.930 . S
C838 C839 1.355 . S
C838 C840 1.415 . S
C839 C838 1.355 . S
C839 C841 1.419 . S
C840 C838 1.415 . S
C840 C845 1.425 . S
C840 C847 1.409 . S
C841 H833 0.930 . S
C841 C839 1.419 . S
C841 C842 1.362 . S
C842 H834 0.930 . S
C842 C841 1.362 . S
C842 C845 1.409 . S
C843 H835 0.930 . S
C843 C844 1.355 . S
C843 C845 1.415 . S
C844 C843 1.355 . S
C844 C846 1.419 . S
C845 C840 1.425 . S
C845 C842 1.409 . S
C845 C843 1.415 . S
C846 H836 0.930 . S
C846 C844 1.419 . S
C846 C847 1.362 . S
C847 H837 0.930 . S
C847 C840 1.409 . S
C847 C846 1.362 . S
H848 C854 0.930 . S
H849 C857 0.930 . S
H850 C858 0.930 . S
H851 C859 0.930 . S
H852 C862 0.930 . S
H853 C863 0.930 . S
C854 H848 0.930 . S
C854 C855 1.355 . S
C854 C856 1.415 . S
C855 C854 1.355 . S
C855 C857 1.419 . S
C856 C854 1.415 . S
C856 C861 1.425 . S
C856 C863 1.409 . S
C857 H849 0.930 . S
C857 C855 1.419 . S
C857 C858 1.362 . S
C858 H850 0.930 . S
C858 C857 1.362 . S
C858 C861 1.409 . S
C859 H851 0.930 . S
C859 C860 1.355 . S
C859 C861 1.415 . S
C860 C859 1.355 . S
C860 C862 1.419 . S
C861 C856 1.425 . S
C861 C858 1.409 . S
C861 C859 1.415 . S
C862 H852 0.930 . S
C862 C860 1.419 . S
C862 C863 1.362 . S
C863 H853 0.930 . S
C863 C856 1.409 . S
C863 C862 1.362 . S
H864 C870 0.930 . S
H865 C873 0.930 . S
H866 C874 0.930 . S
H867 C875 0.930 . S
H868 C878 0.930 . S
H869 C879 0.930 . S
C870 H864 0.930 . S
C870 C871 1.355 . S
C870 C872 1.415 . S
C871 C870 1.355 . S
C871 C873 1.419 . S
C872 C870 1.415 . S
C872 C877 1.425 . S
C872 C879 1.409 . S
C873 H865 0.930 . S
C873 C871 1.419 . S
C873 C874 1.362 . S
C874 H866 0.930 . S
C874 C873 1.362 . S
C874 C877 1.409 . S
C875 H867 0.930 . S
C875 C876 1.355 . S
C875 C877 1.415 . S
C876 C875 1.355 . S
C876 C878 1.419 . S
C877 C872 1.425 . S
C877 C874 1.409 . S
C877 C875 1.415 . S
C878 H868 0.930 . S
C878 C876 1.419 . S
C878 C879 1.362 . S
C879 H869 0.930 . S
C879 C872 1.409 . S
C879 C878 1.362 . S
H880 C886 0.930 . S
H881 C889 0.930 . S
H882 C890 0.930 . S
H883 C891 0.930 . S
H884 C894 0.930 . S
H885 C895 0.930 . S
C886 H880 0.930 . S
C886 C887 1.355 . S
C886 C888 1.415 . S
C887 C886 1.355 . S
C887 C889 1.419 . S
C888 C886 1.415 . S
C888 C893 1.425 . S
C888 C895 1.409 . S
C889 H881 0.930 . S
C889 C887 1.419 . S
C889 C890 1.362 . S
C890 H882 0.930 . S
C890 C889 1.362 . S
C890 C893 1.409 . S
C891 H883 0.930 . S
C891 C892 1.355 . S
C891 C893 1.415 . S
C892 C891 1.355 . S
C892 C894 1.419 . S
C893 C888 1.425 . S
C893 C890 1.409 . S
C893 C891 1.415 . S
C894 H884 0.930 . S
C894 C892 1.419 . S
C894 C895 1.362 . S
C895 H885 0.930 . S
C895 C888 1.409 . S
C895 C894 1.362 . S
H896 C902 0.930 . S
H897 C905 0.930 . S
H898 C906 0.930 . S
H899 C907 0.930 . S
H900 C910 0.930 . S
H901 C911 0.930 . S
C902 H896 0.930 . S
C902 C903 1.355 . S
C902 C904 1.415 . S
C903 C902 1.355 . S
C903 C905 1.419 . S
C904 C902 1.415 . S
C904 C909 1.425 . S
C904 C911 1.409 . S
C905 H897 0.930 . S
C905 C903 1.419 . S
C905 C906 1.362 . S
C906 H898 0.930 . S
C906 C905 1.362 . S
C906 C909 1.409 . S
C907 H899 0.930 . S
C907 C908 1.355 . S
C907 C909 1.415 . S
C908 C907 1.355 . S
C908 C910 1.419 . S
C909 C904 1.425 . S
C909 C906 1.409 . S
C909 C907 1.415 . S
C910 H900 0.930 . S
C910 C908 1.419 . S
C910 C911 1.362 . S
C911 H901 0.930 . S
C911 C904 1.409 . S
C911 C910 1.362 . S
H912 C918 0.930 . S
H913 C921 0.930 . S
H914 C922 0.930 . S
H915 C923 0.930 . S
H916 C926 0.930 . S
H917 C927 0.930 . S
C918 H912 0.930 . S
C918 C919 1.355 . S
C918 C920 1.415 . S
C919 C918 1.355 . S
C919 C921 1.419 . S
C920 C918 1.415 . S
C920 C925 1.425 . S
C920 C927 1.409 . S
C921 H913 0.930 . S
C921 C919 1.419 . S
C921 C922 1.362 . S
C922 H914 0.930 . S
C922 C921 1.362 . S
C922 C925 1.409 . S
C923 H915 0.930 . S
C923 C924 1.355 . S
C923 C925 1.415 . S
C924 C923 1.355 . S
C924 C926 1.419 . S
C925 C920 1.425 . S
C925 C922 1.409 . S
C925 C923 1.415 . S
C926 H916 0.930 . S
C926 C924 1.419 . S
C926 C927 1.362 . S
C927 H917 0.930 . S
C927 C920 1.409 . S
C927 C926 1.362 . S
H928 C934 0.930 . S
H929 C937 0.930 . S
H930 C938 0.930 . S
H931 C939 0.930 . S
H932 C942 0.930 . S
H933 C943 0.930 . S
C934 H928 0.930 . S
C934 C935 1.355 . S
C934 C936 1.415 . S
C935 C934 1.355 . S
C935 C937 1.419 . S
C936 C934 1.415 . S
C936 C941 1.425 . S
C936 C943 1.409 . S
C937 H929 0.930 . S
C937 C935 1.419 . S
C937 C938 1.362 . S
C938 H930 0.930 . S
C938 C937 1.362 . S
C938 C941 1.409 . S
C939 H931 0.930 . S
C939 C940 1.355 . S
C939 C941 1.415 . S
C940 C939 1.355 . S
C940 C942 1.419 . S
C941 C936 1.425 . S
C941 C938 1.409 . S
C941 C939 1.415 . S
C942 H932 0.930 . S
C942 C940 1.419 . S
C942 C943 1.362 . S
C943 H933 0.930 . S
C943 C936 1.409 . S
C943 C942 1.362 . S
H944 C950 0.930 . S
H945 C953 0.930 . S
H946 C954 0.930 . S
H947 C955 0.930 . S
H948 C958 0.930 . S
H949 C959 0.930 . S
C950 H944 0.930 . S
C950 C951 1.355 . S
C950 C952 1.415 . S
C951 C950 1.355 . S
C951 C953 1.419 . S
C952 C950 1.415 . S
C952 C957 1.425 . S
C952 C959 1.409 . S
C953 H945 0.930 . S
C953 C951 1.419 . S
C953 C954 1.362 . S
C954 H946 0.930 . S
C954 C953 1.362 . S
C954 C957 1.409 . S
C955 H947 0.930 . S
C955 C956 1.355 . S
C955 C957 1.415 . S
C956 C955 1.355 . S
C956 C958 1.419 . S
C957 C952 1.425 . S
C957 C954 1.409 . S
C957 C955 1.415 . S
C958 H948 0.930 . S
C958 C956 1.419 . S
C958 C959 1.362 . S
C959 H949 0.930 . S
C959 C952 1.409 . S
C959 C958 1.362 . S
H960 C966 0.930 . S
H961 C969 0.930 . S
H962 C970 0.930 . S
H963 C971 0.930 . S
H964 C974 0.930 . S
H965 C975 0.930 . S
C966 H960 0.930 . S
C966 C967 1.355 . S
C966 C968 1.415 . S
C967 C966 1.355 . S
C967 C969 1.419 . S
C968 C966 1.415 . S
C968 C973 1.425 . S
C968 C975 1.409 . S
C969 H961 0.930 . S
C969 C967 1.419 . S
C969 C970 1.362 . S
C970 H962 0.930 . S
C970 C969 1.362 . S
C970 C973 1.409 . S
C971 H963 0.930 . S
C971 C972 1.355 . S
C971 C973 1.415 . S
C972 C971 1.355 . S
C972 C974 1.419 . S
C973 C968 1.425 . S
C973 C970 1.409 . S
C973 C971 1.415 . S
C974 H964 0.930 . S
C974 C972 1.419 . S
C974 C975 1.362 . S
C975 H965 0.930 . S
C975 C968 1.409 . S
C975 C974 1.362 . S
H976 C982 0.930 . S
H977 C985 0.930 . S
H978 C986 0.930 . S
H979 C987 0.930 . S
H980 C990 0.930 . S
H981 C991 0.930 . S
C982 H976 0.930 . S
C982 C983 1.355 . S
C982 C984 1.415 . S
C983 C982 1.355 . S
C983 C985 1.419 . S
C984 C982 1.415 . S
C984 C989 1.425 . S
C984 C991 1.409 . S
C985 H977 0.930 . S
C985 C983 1.419 . S
C985 C986 1.362 . S
C986 H978 0.930 . S
C986 C985 1.362 . S
C986 C989 1.409 . S
C987 H979 0.930 . S
C987 C988 1.355 . S
C987 C989 1.415 . S
C988 C987 1.355 . S
C988 C990 1.419 . S
C989 C984 1.425 . S
C989 C986 1.409 . S
C989 C987 1.415 . S
C990 H980 0.930 . S
C990 C988 1.419 . S
C990 C991 1.362 . S
C991 H981 0.930 . S
C991 C984 1.409 . S
C991 C990 1.362 . S
H992 C998 0.930 . S
H993 C1001 0.930 . S
H994 C1002 0.930 . S
H995 C1003 0.930 . S
H996 C1006 0.930 . S
H997 C1007 0.930 . S
C998 H992 0.930 . S
C998 C999 1.355 . S
C998 C1000 1.415 . S
C999 C998 1.355 . S
C999 C1001 1.419 . S
C1000 C998 1.415 . S
C1000 C1005 1.425 . S
C1000 C1007 1.409 . S
C1001 H993 0.930 . S
C1001 C999 1.419 . S
C1001 C1002 1.362 . S
C1002 H994 0.930 . S
C1002 C1001 1.362 . S
C1002 C1005 1.409 . S
C1003 H995 0.930 . S
C1003 C1004 1.355 . S
C1003 C1005 1.415 . S
C1004 C1003 1.355 . S
C1004 C1006 1.419 . S
C1005 C1000 1.425 . S
C1005 C1002 1.409 . S
C1005 C1003 1.415 . S
C1006 H996 0.930 . S
C1006 C1004 1.419 . S
C1006 C1007 1.362 . S
C1007 H997 0.930 . S
C1007 C1000 1.409 . S
C1007 C1006 1.362 . S
H1008 C1014 0.930 . S
H1009 C1017 0.930 . S
H1010 C1018 0.930 . S
H1011 C1019 0.930 . S
H1012 C1022 0.930 . S
H1013 C1023 0.930 . S
C1014 H1008 0.930 . S
C1014 C1015 1.355 . S
C1014 C1016 1.415 . S
C1015 C1014 1.355 . S
C1015 C1017 1.419 . S
C1016 C1014 1.415 . S
C1016 C1021 1.425 . S
C1016 C1023 1.409 . S
C1017 H1009 0.930 . S
C1017 C1015 1.419 . S
C1017 C1018 1.362 . S
C1018 H1010 0.930 . S
C1018 C1017 1.362 . S
C1018 C1021 1.409 . S
C1019 H1011 0.930 . S
C1019 C1020 1.355 . S
C1019 C1021 1.415 . S
C1020 C1019 1.355 . S
C1020 C1022 1.419 . S
C1021 C1016 1.425 . S
C1021 C1018 1.409 . S
C1021 C1019 1.415 . S
C1022 H1012 0.930 . S
C1022 C1020 1.419 . S
C1022 C1023 1.362 . S
C1023 H1013 0.930 . S
C1023 C1016 1.409 . S
C1023 C1022 1.362 . S
H1024 C1030 0.930 . S
H1025 C1033 0.930 . S
H1026 C1034 0.930 . S
H1027 C1035 0.930 . S
H1028 C1038 0.930 . S
H1029 C1039 0.930 . S
C1030 H1024 0.930 . S
C1030 C1031 1.355 . S
C1030 C1032 1.415 . S
C1031 C1030 1.355 . S
C1031 C1033 1.419 . S
C1032 C1030 1.415 . S
C1032 C1037 1.425 . S
C1032 C1039 1.409 . S
C1033 H1025 0.930 . S
C1033 C1031 1.419 . S
C1033 C1034 1.362 . S
C1034 H1026 0.930 . S
C1034 C1033 1.362 . S
C1034 C1037 1.409 . S
C1035 H1027 0.930 . S
C1035 C1036 1.355 . S
C1035 C1037 1.415 . S
C1036 C1035 1.355 . S
C1036 C1038 1.419 . S
C1037 C1032 1.425 . S
C1037 C1034 1.409 . S
C1037 C1035 1.415 . S
C1038 H1028 0.930 . S
C1038 C1036 1.419 . S
C1038 C1039 1.362 . S
C1039 H1029 0.930 . S
C1039 C1032 1.409 . S
C1039 C1038 1.362 . S
H1040 C1046 0.930 . S
H1041 C1049 0.930 . S
H1042 C1050 0.930 . S
H1043 C1051 0.930 . S
H1044 C1054 0.930 . S
H1045 C1055 0.930 . S
C1046 H1040 0.930 . S
C1046 C1047 1.355 . S
C1046 C1048 1.415 . S
C1047 C1046 1.355 . S
C1047 C1049 1.419 . S
C1048 C1046 1.415 . S
C1048 C1053 1.425 . S
C1048 C1055 1.409 . S
C1049 H1041 0.930 . S
C1049 C1047 1.419 . S
C1049 C1050 1.362 . S
C1050 H1042 0.930 . S
C1050 C1049 1.362 . S
C1050 C1053 1.409 . S
C1051 H1043 0.930 . S
C1051 C1052 1.355 . S
C1051 C1053 1.415 . S
C1052 C1051 1.355 . S
C1052 C1054 1.419 . S
C1053 C1048 1.425 . S
C1053 C1050 1.409 . S
C1053 C1051 1.415 . S
C1054 H1044 0.930 . S
C1054 C1052 1.419 . S
C1054 C1055 1.362 . S
C1055 H1045 0.930 . S
C1055 C1048 1.409 . S
C1055 C1054 1.362 . S
H1056 C1062 0.930 . S
H1057 C1065 0.930 . S
H1058 C1066 0.930 . S
H1059 C1067 0.930 . S
H1060 C1070 0.930 . S
H1061 C1071 0.930 . S
C1062 H1056 0.930 . S
C1062 C1063 1.355 . S
C1062 C1064 1.415 . S
C1063 C1062 1.355 . S
C1063 C1065 1.419 . S
C1064 C1062 1.415 . S
C1064 C1069 1.425 . S
C1064 C1071 1.409 . S
C1065 H1057 0.930 . S
C1065 C1063 1.419 . S
C1065 C1066 1.362 . S
C1066 H1058 0.930 . S
C1066 C1065 1.362 . S
C1066 C1069 1.409 . S
C1067 H1059 0.930 . S
C1067 C1068 1.355 . S
C1067 C1069 1.415 . S
C1068 C1067 1.355 . S
C1068 C1070 1.419 . S
C1069 C1064 1.425 . S
C1069 C1066 1.409 . S
C1069 C1067 1.415 . S
C1070 H1060 0.930 . S
C1070 C1068 1.419 . S
C1070 C1071 1.362 . S
C1071 H1061 0.930 . S
C1071 C1064 1.409 . S
C1071 C1070 1.362 . S
H1072 C1078 0.930 . S
H1073 C1081 0.930 . S
H1074 C1082 0.930 . S
H1075 C1083 0.930 . S
H1076 C1086 0.930 . S
H1077 C1087 0.930 . S
C1078 H1072 0.930 . S
C1078 C1079 1.355 . S
C1078 C1080 1.415 . S
C1079 C1078 1.355 . S
C1079 C1081 1.419 . S
C1080 C1078 1.415 . S
C1080 C1085 1.425 . S
C1080 C1087 1.409 . S
C1081 H1073 0.930 . S
C1081 C1079 1.419 . S
C1081 C1082 1.362 . S
C1082 H1074 0.930 . S
C1082 C1081 1.362 . S
C1082 C1085 1.409 . S
C1083 H1075 0.930 . S
C1083 C1084 1.355 . S
C1083 C1085 1.415 . S
C1084 C1083 1.355 . S
C1084 C1086 1.419 . S
C1085 C1080 1.425 . S
C1085 C1082 1.409 . S
C1085 C1083 1.415 . S
C1086 H1076 0.930 . S
C1086 C1084 1.419 . S
C1086 C1087 1.362 . S
C1087 H1077 0.930 . S
C1087 C1080 1.409 . S
C1087 C1086 1.362 . S
H1088 C1094 0.930 . S
H1089 C1097 0.930 . S
H1090 C1098 0.930 . S
H1091 C1099 0.930 . S
H1092 C1102 0.930 . S
H1093 C1103 0.930 . S
C1094 H1088 0.930 . S
C1094 C1095 1.355 . S
C1094 C1096 1.415 . S
C1095 C1094 1.355 . S
C1095 C1097 1.419 . S
C1096 C1094 1.415 . S
C1096 C1101 1.425 . S
C1096 C1103 1.409 . S
C1097 H1089 0.930 . S
C1097 C1095 1.419 . S
C1097 C1098 1.362 . S
C1098 H1090 0.930 . S
C1098 C1097 1.362 . S
C1098 C1101 1.409 . S
C1099 H1091 0.930 . S
C1099 C1100 1.355 . S
C1099 C1101 1.415 . S
C1100 C1099 1.355 . S
C1100 C1102 1.419 . S
C1101 C1096 1.425 . S
C1101 C1098 1.409 . S
C1101 C1099 1.415 . S
C1102 H1092 0.930 . S
C1102 C1100 1.419 . S
C1102 C1103 1.362 . S
C1103 H1093 0.930 . S
C1103 C1096 1.409 . S
C1103 C1102 1.362 . S
H1104 C1110 0.930 . S
H1105 C1113 0.930 . S
H1106 C1114 0.930 . S
H1107 C1115 0.930 . S
H1108 C1118 0.930 . S
H1109 C1119 0.930 . S
C1110 H1104 0.930 . S
C1110 C1111 1.355 . S
C1110 C1112 1.415 . S
C1111 C1110 1.355 . S
C1111 C1113 1.419 . S
C1112 C1110 1.415 . S
C1112 C1117 1.425 . S
C1112 C1119 1.409 . S
C1113 H1105 0.930 . S
C1113 C1111 1.419 . S
C1113 C1114 1.362 . S
C1114 H1106 0.930 . S
C1114 C1113 1.362 . S
C1114 C1117 1.409 . S
C1115 H1107 0.930 . S
C1115 C1116 1.355 . S
C1115 C1117 1.415 . S
C1116 C1115 1.355 . S
C1116 C1118 1.419 . S
C1117 C1112 1.425 . S
C1117 C1114 1.409 . S
C1117 C1115 1.415 . S
C1118 H1108 0.930 . S
C1118 C1116 1.419 . S
C1118 C1119 1.362 . S
C1119 H1109 0.930 . S
C1119 C1112 1.409 . S
C1119 C1118 1.362 . S
H1120 C1126 0.930 . S
H1121 C1129 0.930 . S
H1122 C1130 0.930 . S
H1123 C1131 0.930 . S
H1124 C1134 0.930 . S
H1125 C1135 0.930 . S
C1126 H1120 0.930 . S
C1126 C1127 1.355 . S
C1126 C1128 1.415 . S
C1127 C1126 1.355 . S
C1127 C1129 1.419 . S
C1128 C1126 1.415 . S
C1128 C1133 1.425 . S
C1128 C1135 1.409 . S
C1129 H1121 0.930 . S
C1129 C1127 1.419 . S
C1129 C1130 1.362 . S
C1130 H1122 0.930 . S
C1130 C1129 1.362 . S
C1130 C1133 1.409 . S
C1131 H1123 0.930 . S
C1131 C1132 1.355 . S
C1131 C1133 1.415 . S
C1132 C1131 1.355 . S
C1132 C1134 1.419 . S
C1133 C1128 1.425 . S
C1133 C1130 1.409 . S
C1133 C1131 1.415 . S
C1134 H1124 0.930 . S
C1134 C1132 1.419 . S
C1134 C1135 1.362 . S
C1135 H1125 0.930 . S
C1135 C1128 1.409 . S
C1135 C1134 1.362 . S
H1136 C1142 0.930 . S
H1137 C1145 0.930 . S
H1138 C1146 0.930 . S
H1139 C1147 0.930 . S
H1140 C1150 0.930 . S
H1141 C1151 0.930 . S
C1142 H1136 0.930 . S
C1142 C1143 1.355 . S
C1142 C1144 1.415 . S
C1143 C1142 1.355 . S
C1143 C1145 1.419 . S
C1144 C1142 1.415 . S
C1144 C1149 1.425 . S
C1144 C1151 1.409 . S
C1145 H1137 0.930 . S
C1145 C1143 1.419 . S
C1145 C1146 1.362 . S
C1146 H1138 0.930 . S
C1146 C1145 1.362 . S
C1146 C1149 1.409 . S
C1147 H1139 0.930 . S
C1147 C1148 1.355 . S
C1147 C1149 1.415 . S
C1148 C1147 1.355 . S
C1148 C1150 1.419 . S
C1149 C1144 1.425 . S
C1149 C1146 1.409 . S
C1149 C1147 1.415 . S
C1150 H1140 0.930 . S
C1150 C1148 1.419 . S
C1150 C1151 1.362 . S
C1151 H1141 0.930 . S
C1151 C1144 1.409 . S
C1151 C1150 1.362 . S
H1152 C1158 0.930 . S
H1153 C1161 0.930 . S
H1154 C1162 0.930 . S
H1155 C1163 0.930 . S
H1156 C1166 0.930 . S
H1157 C1167 0.930 . S
C1158 H1152 0.930 . S
C1158 C1159 1.355 . S
C1158 C1160 1.415 . S
C1159 C1158 1.355 . S
C1159 C1161 1.419 . S
C1160 C1158 1.415 . S
C1160 C1165 1.425 . S
C1160 C1167 1.409 . S
C1161 H1153 0.930 . S
C1161 C1159 1.419 . S
C1161 C1162 1.362 . S
C1162 H1154 0.930 . S
C1162 C1161 1.362 . S
C1162 C1165 1.409 . S
C1163 H1155 0.930 . S
C1163 C1164 1.355 . S
C1163 C1165 1.415 . S
C1164 C1163 1.355 . S
C1164 C1166 1.419 . S
C1165 C1160 1.425 . S
C1165 C1162 1.409 . S
C1165 C1163 1.415 . S
C1166 H1156 0.930 . S
C1166 C1164 1.419 . S
C1166 C1167 1.362 . S
C1167 H1157 0.930 . S
C1167 C1160 1.409 . S
C1167 C1166 1.362 . S
H1168 C1174 0.930 . S
H1169 C1177 0.930 . S
H1170 C1178 0.930 . S
H1171 C1179 0.930 . S
H1172 C1182 0.930 . S
H1173 C1183 0.930 . S
C1174 H1168 0.930 . S
C1174 C1175 1.355 . S
C1174 C1176 1.415 . S
C1175 C1174 1.355 . S
C1175 C1177 1.419 . S
C1176 C1174 1.415 . S
C1176 C1181 1.425 . S
C1176 C1183 1.409 . S
C1177 H1169 0.930 . S
C1177 C1175 1.419 . S
C1177 C1178 1.362 . S
C1178 H1170 0.930 . S
C1178 C1177 1.362 . S
C1178 C1181 1.409 . S
C1179 H1171 0.930 . S
C1179 C1180 1.355 . S
C1179 C1181 1.415 . S
C1180 C1179 1.355 . S
C1180 C1182 1.419 . S
C1181 C1176 1.425 . S
C1181 C1178 1.409 . S
C1181 C1179 1.415 . S
C1182 H1172 0.930 . S
C1182 C1180 1.419 . S
C1182 C1183 1.362 . S
C1183 H1173 0.930 . S
C1183 C1176 1.409 . S
C1183 C1182 1.362 . S
H1184 C1190 0.930 . S
H1185 C1193 0.930 . S
H1186 C1194 0.930 . S
H1187 C1195 0.930 . S
H1188 C1198 0.930 . S
H1189 C1199 0.930 . S
C1190 H1184 0.930 . S
C1190 C1191 1.355 . S
C1190 C1192 1.415 . S
C1191 C1190 1.355 . S
C1191 C1193 1.419 . S
C1192 C1190 1.415 . S
C1192 C1197 1.425 . S
C1192 C1199 1.409 . S
C1193 H1185 0.930 . S
C1193 C1191 1.419 . S
C1193 C1194 1.362 . S
C1194 H1186 0.930 . S
C1194 C1193 1.362 . S
C1194 C1197 1.409 . S
C1195 H1187 0.930 . S
C1195 C1196 1.355 . S
C1195 C1197 1.415 . S
C1196 C1195 1.355 . S
C1196 C1198 1.419 . S
C1197 C1192 1.425 . S
C1197 C1194 1.409 . S
C1197 C1195 1.415 . S
C1198 H1188 0.930 . S
C1198 C1196 1.419 . S
C1198 C1199 1.362 . S
C1199 H1189 0.930 . S
C1199 C1192 1.409 . S
C1199 C1198 1.362 . S
H1200 C1206 0.930 . S
H1201 C1209 0.930 . S
H1202 C1210 0.930 . S
H1203 C1211 0.930 . S
H1204 C1214 0.930 . S
H1205 C1215 0.930 . S
C1206 H1200 0.930 . S
C1206 C1207 1.355 . S
C1206 C1208 1.415 . S
C1207 C1206 1.355 . S
C1207 C1209 1.419 . S
C1208 C1206 1.415 . S
C1208 C1213 1.425 . S
C1208 C1215 1.409 . S
C1209 H1201 0.930 . S
C1209 C1207 1.419 . S
C1209 C1210 1.362 . S
C1210 H1202 0.930 . S
C1210 C1209 1.362 . S
C1210 C1213 1.409 . S
C1211 H1203 0.930 . S
C1211 C1212 1.355 . S
C1211 C1213 1.415 . S
C1212 C1211 1.355 . S
C1212 C1214 1.419 . S
C1213 C1208 1.425 . S
C1213 C1210 1.409 . S
C1213 C1211 1.415 . S
C1214 H1204 0.930 . S
C1214 C1212 1.419 . S
C1214 C1215 1.362 . S
C1215 H1205 0.930 . S
C1215 C1208 1.409 . S
C1215 C1214 1.362 . S
H1216 C1222 0.930 . S
H1217 C1225 0.930 . S
H1218 C1226 0.930 . S
H1219 C1227 0.930 . S
H1220 C1230 0.930 . S
H1221 C1231 0.930 . S
C1222 H1216 0.930 . S
C1222 C1223 1.355 . S
C1222 C1224 1.415 . S
C1223 C1222 1.355 . S
C1223 C1225 1.419 . S
C1224 C1222 1.415 . S
C1224 C1229 1.425 . S
C1224 C1231 1.409 . S
C1225 H1217 0.930 . S
C1225 C1223 1.419 . S
C1225 C1226 1.362 . S
C1226 H1218 0.930 . S
C1226 C1225 1.362 . S
C1226 C1229 1.409 . S
C1227 H1219 0.930 . S
C1227 C1228 1.355 . S
C1227 C1229 1.415 . S
C1228 C1227 1.355 . S
C1228 C1230 1.419 . S
C1229 C1224 1.425 . S
C1229 C1226 1.409 . S
C1229 C1227 1.415 . S
C1230 H1220 0.930 . S
C1230 C1228 1.419 . S
C1230 C1231 1.362 . S
C1231 H1221 0.930 . S
C1231 C1224 1.409 . S
C1231 C1230 1.362 . S
H1232 C1238 0.930 . S
H1233 C1241 0.930 . S
H1234 C1242 0.930 . S
H1235 C1243 0.930 . S
H1236 C1246 0.930 . S
H1237 C1247 0.930 . S
C1238 H1232 0.930 . S
C1238 C1239 1.355 . S
C1238 C1240 1.415 . S
C1239 C1238 1.355 . S
C1239 C1241 1.419 . S
C1240 C1238 1.415 . S
C1240 C1245 1.425 . S
C1240 C1247 1.409 . S
C1241 H1233 0.930 . S
C1241 C1239 1.419 . S
C1241 C1242 1.362 . S
C1242 H1234 0.930 . S
C1242 C1241 1.362 . S
C1242 C1245 1.409 . S
C1243 H1235 0.930 . S
C1243 C1244 1.355 . S
C1243 C1245 1.415 . S
C1244 C1243 1.355 . S
C1244 C1246 1.419 . S
C1245 C1240 1.425 . S
C1245 C1242 1.409 . S
C1245 C1243 1.415 . S
C1246 H1236 0.930 . S
C1246 C1244 1.419 . S
C1246 C1247 1.362 . S
C1247 H1237 0.930 . S
C1247 C1240 1.409 . S
C1247 C1246 1.362 . S
H1248 C1254 0.930 . S
H1249 C1257 0.930 . S
H1250 C1258 0.930 . S
H1251 C1259 0.930 . S
H1252 C1262 0.930 . S
H1253 C1263 0.930 . S
C1254 H1248 0.930 . S
C1254 C1255 1.355 . S
C1254 C1256 1.415 . S
C1255 C1254 1.355 . S
C1255 C1257 1.419 . S
C1256 C1254 1.415 . S
C1256 C1261 1.425 . S
C1256 C1263 1.409 . S
C1257 H1249 0.930 . S
C1257 C1255 1.419 . S
C1257 C1258 1.362 . S
C1258 H1250 0.930 . S
C1258 C1257 1.362 . S
C1258 C1261 1.409 . S
C1259 H1251 0.930 . S
C1259 C1260 1.355 . S
C1259 C1261 1.415 . S
C1260 C1259 1.355 . S
C1260 C1262 1.419 . S
C1261 C1256 1.425 . S
C1261 C1258 1.409 . S
C1261 C1259 1.415 . S
C1262 H1252 0.930 . S
C1262 C1260 1.419 . S
C1262 C1263 1.362 . S
C1263 H1253 0.930 . S
C1263 C1256 1.409 . S
C1263 C1262 1.362 . S
H1264 C1270 0.930 . S
H1265 C1273 0.930 . S
H1266 C1274 0.930 . S
H1267 C1275 0.930 . S
H1268 C1278 0.930 . S
H1269 C1279 0.930 . S
C1270 H1264 0.930 . S
C1270 C1271 1.355 . S
C1270 C1272 1.415 . S
C1271 C1270 1.355 . S
C1271 C1273 1.419 . S
C1272 C1270 1.415 . S
C1272 C1277 1.425 . S
C1272 C1279 1.409 . S
C1273 H1265 0.930 . S
C1273 C1271 1.419 . S
C1273 C1274 1.362 . S
C1274 H1266 0.930 . S
C1274 C1273 1.362 . S
C1274 C1277 1.409 . S
C1275 H1267 0.930 . S
C1275 C1276 1.355 . S
C1275 C1277 1.415 . S
C1276 C1275 1.355 . S
C1276 C1278 1.419 . S
C1277 C1272 1.425 . S
C1277 C1274 1.409 . S
C1277 C1275 1.415 . S
C1278 H1268 0.930 . S
C1278 C1276 1.419 . S
C1278 C1279 1.362 . S
C1279 H1269 0.930 . S
C1279 C1272 1.409 . S
C1279 C1278 1.362 . S
H1280 C1286 0.930 . S
H1281 C1289 0.930 . S
H1282 C1290 0.930 . S
H1283 C1291 0.930 . S
H1284 C1294 0.930 . S
H1285 C1295 0.930 . S
C1286 H1280 0.930 . S
C1286 C1287 1.355 . S
C1286 C1288 1.415 . S
C1287 C1286 1.355 . S
C1287 C1289 1.419 . S
C1288 C1286 1.415 . S
C1288 C1293 1.425 . S
C1288 C1295 1.409 . S
C1289 H1281 0.930 . S
C1289 C1287 1.419 . S
C1289 C1290 1.362 . S
C1290 H1282 0.930 . S
C1290 C1289 1.362 . S
C1290 C1293 1.409 . S
C1291 H1283 0.930 . S
C1291 C1292 1.355 . S
C1291 C1293 1.415 . S
C1292 C1291 1.355 . S
C1292 C1294 1.419 . S
C1293 C1288 1.425 . S
C1293 C1290 1.409 . S
C1293 C1291 1.415 . S
C1294 H1284 0.930 . S
C1294 C1292 1.419 . S
C1294 C1295 1.362 . S
C1295 H1285 0.930 . S
C1295 C1288 1.409 . S
C1295 C1294 1.362 . S
H1296 C1302 0.930 . S
H1297 C1305 0.930 . S
H1298 C1306 0.930 . S
H1299 C1307 0.930 . S
H1300 C1310 0.930 . S
H1301 C1311 0.930 . S
C1302 H1296 0.930 . S
C1302 C1303 1.355 . S
C1302 C1304 1.415 . S
C1303 C1302 1.355 . S
C1303 C1305 1.419 . S
C1304 C1302 1.415 . S
C1304 C1309 1.425 . S
C1304 C1311 1.409 . S
C1305 H1297 0.930 . S
C1305 C1303 1.419 . S
C1305 C1306 1.362 . S
C1306 H1298 0.930 . S
C1306 C1305 1.362 . S
C1306 C1309 1.409 . S
C1307 H1299 0.930 . S
C1307 C1308 1.355 . S
C1307 C1309 1.415 . S
C1308 C1307 1.355 . S
C1308 C1310 1.419 . S
C1309 C1304 1.425 . S
C1309 C1306 1.409 . S
C1309 C1307 1.415 . S
C1310 H1300 0.930 . S
C1310 C1308 1.419 . S
C1310 C1311 1.362 . S
C1311 H1301 0.930 . S
C1311 C1304 1.409 . S
C1311 C1310 1.362 . S
H1312 C1318 0.930 . S
H1313 C1321 0.930 . S
H1314 C1322 0.930 . S
H1315 C1323 0.930 . S
H1316 C1326 0.930 . S
H1317 C1327 0.930 . S
C1318 H1312 0.930 . S
C1318 C1319 1.355 . S
C1318 C1320 1.415 . S
C1319 C1318 1.355 . S
C1319 C1321 1.419 . S
C1320 C1318 1.415 . S
C1320 C1325 1.425 . S
C1320 C1327 1.409 . S
C1321 H1313 0.930 . S
C1321 C1319 1.419 . S
C1321 C1322 1.362 . S
C1322 H1314 0.930 . S
C1322 C1321 1.362 . S
C1322 C1325 1.409 . S
C1323 H1315 0.930 . S
C1323 C1324 1.355 . S
C1323 C1325 1.415 . S
C1324 C1323 1.355 . S
C1324 C1326 1.419 . S
C1325 C1320 1.425 . S
C1325 C1322 1.409 . S
C1325 C1323 1.415 . S
C1326 H1316 0.930 . S
C1326 C1324 1.419 . S
C1326 C1327 1.362 . S
C1327 H1317 0.930 . S
C1327 C1320 1.409 . S
C1327 C1326 1.362 . S
H1328 C1334 0.930 . S
H1329 C1337 0.930 . S
H1330 C1338 0.930 . S
H1331 C1339 0.930 . S
H1332 C1342 0.930 . S
H1333 C1343 0.930 . S
C1334 H1328 0.930 . S
C1334 C1335 1.355 . S
C1334 C1336 1.415 . S
C1335 C1334 1.355 . S
C1335 C1337 1.419 . S
C1336 C1334 1.415 . S
C1336 C1341 1.425 . S
C1336 C1343 1.409 . S
C1337 H1329 0.930 . S
C1337 C1335 1.419 . S
C1337 C1338 1.362 . S
C1338 H1330 0.930 . S
C1338 C1337 1.362 . S
C1338 C1341 1.409 . S
C1339 H1331 0.930 . S
C1339 C1340 1.355 . S
C1339 C1341 1.415 . S
C1340 C1339 1.355 . S
C1340 C1342 1.419 . S
C1341 C1336 1.425 . S
C1341 C1338 1.409 . S
C1341 C1339 1.415 . S
C1342 H1332 0.930 . S
C1342 C1340 1.419 . S
C1342 C1343 1.362 . S
C1343 H1333 0.930 . S
C1343 C1336 1.409 . S
C1343 C1342 1.362 . S
H1344 C1350 0.930 . S
H1345 C1353 0.930 . S
H1346 C1354 0.930 . S
H1347 C1355 0.930 . S
H1348 C1358 0.930 . S
H1349 C1359 0.930 . S
C1350 H1344 0.930 . S
C1350 C1351 1.355 . S
C1350 C1352 1.415 . S
C1351 C1350 1.355 . S
C1351 C1353 1.419 . S
C1352 C1350 1.415 . S
C1352 C1357 1.425 . S
C1352 C1359 1.409 . S
C1353 H1345 0.930 . S
C1353 C1351 1.419 . S
C1353 C1354 1.362 . S
C1354 H1346 0.930 . S
C1354 C1353 1.362 . S
C1354 C1357 1.409 . S
C1355 H1347 0.930 . S
C1355 C1356 1.355 . S
C1355 C1357 1.415 . S
C1356 C1355 1.355 . S
C1356 C1358 1.419 . S
C1357 C1352 1.425 . S
C1357 C1354 1.409 . S
C1357 C1355 1.415 . S
C1358 H1348 0.930 . S
C1358 C1356 1.419 . S
C1358 C1359 1.362 . S
C1359 H1349 0.930 . S
C1359 C1352 1.409 . S
C1359 C1358 1.362 . S
H1360 C1366 0.930 . S
H1361 C1369 0.930 . S
H1362 C1370 0.930 . S
H1363 C1371 0.930 . S
H1364 C1374 0.930 . S
H1365 C1375 0.930 . S
C1366 H1360 0.930 . S
C1366 C1367 1.355 . S
C1366 C1368 1.415 . S
C1367 C1366 1.355 . S
C1367 C1369 1.419 . S
C1368 C1366 1.415 . S
C1368 C1373 1.425 . S
C1368 C1375 1.409 . S
C1369 H1361 0.930 . S
C1369 C1367 1.419 . S
C1369 C1370 1.362 . S
C1370 H1362 0.930 . S
C1370 C1369 1.362 . S
C1370 C1373 1.409 . S
C1371 H1363 0.930 . S
C1371 C1372 1.355 . S
C1371 C1373 1.415 . S
C1372 C1371 1.355 . S
C1372 C1374 1.419 . S
C1373 C1368 1.425 . S
C1373 C1370 1.409 . S
C1373 C1371 1.415 . S
C1374 H1364 0.930 . S
C1374 C1372 1.419 . S
C1374 C1375 1.362 . S
C1375 H1365 0.930 . S
C1375 C1368 1.409 . S
C1375 C1374 1.362 . S
H1376 C1382 0.930 . S
H1377 C1385 0.930 . S
H1378 C1386 0.930 . S
H1379 C1387 0.930 . S
H1380 C1390 0.930 . S
H1381 C1391 0.930 . S
C1382 H1376 0.930 . S
C1382 C1383 1.355 . S
C1382 C1384 1.415 . S
C1383 C1382 1.355 . S
C1383 C1385 1.419 . S
C1384 C1382 1.415 . S
C1384 C1389 1.425 . S
C1384 C1391 1.409 . S
C1385 H1377 0.930 . S
C1385 C1383 1.419 . S
C1385 C1386 1.362 . S
C1386 H1378 0.930 . S
C1386 C1385 1.362 . S
C1386 C1389 1.409 . S
C1387 H1379 0.930 . S
C1387 C1388 1.355 . S
C1387 C1389 1.415 . S
C1388 C1387 1.355 . S
C1388 C1390 1.419 . S
C1389 C1384 1.425 . S
C1389 C1386 1.409 . S
C1389 C1387 1.415 . S
C1390 H1380 0.930 . S
C1390 C1388 1.419 . S
C1390 C1391 1.362 . S
C1391 H1381 0.930 . S
C1391 C1384 1.409 . S
C1391 C1390 1.362 . S
H1392 C1398 0.930 . S
H1393 C1401 0.930 . S
H1394 C1402 0.930 . S
H1395 C1403 0.930 . S
H1396 C1406 0.930 . S
H1397 C1407 0.930 . S
C1398 H1392 0.930 . S
C1398 C1399 1.355 . S
C1398 C1400 1.415 . S
C1399 C1398 1.355 . S
C1399 C1401 1.419 . S
C1400 C1398 1.415 . S
C1400 C1405 1.425 . S
C1400 C1407 1.409 . S
C1401 H1393 0.930 . S
C1401 C1399 1.419 . S
C1401 C1402 1.362 . S
C1402 H1394 0.930 . S
C1402 C1401 1.362 . S
C1402 C1405 1.409 . S
C1403 H1395 0.930 . S
C1403 C1404 1.355 . S
C1403 C1405 1.415 . S
C1404 C1403 1.355 . S
C1404 C1406 1.419 . S
C1405 C1400 1.425 . S
C1405 C1402 1.409 . S
C1405 C1403 1.415 . S
C1406 H1396 0.930 . S
C1406 C1404 1.419 . S
C1406 C1407 1.362 . S
C1407 H1397 0.930 . S
C1407 C1400 1.409 . S
C1407 C1406 1.362 . S
H1408 C1414 0.930 . S
H1409 C1417 0.930 . S
H1410 C1418 0.930 . S
H1411 C1419 0.930 . S
H1412 C1422 0.930 . S
H1413 C1423 0.930 . S
C1414 H1408 0.930 . S
C1414 C1415 1.355 . S
C1414 C1416 1.415 . S
C1415 C1414 1.355 . S
C1415 C1417 1.419 . S
C1416 C1414 1.415 . S
C1416 C1421 1.425 . S
C1416 C1423 1.409 . S
C1417 H1409 0.930 . S
C1417 C1415 1.419 . S
C1417 C1418 1.362 . S
C1418 H1410 0.930 . S
C1418 C1417 1.362 . S
C1418 C1421 1.409 . S
C1419 H1411 0.930 . S
C1419 C1420 1.355 . S
C1419 C1421 1.415 . S
C1420 C1419 1.355 . S
C1420 C1422 1.419 . S
C1421 C1416 1.425 . S
C1421 C1418 1.409 . S
C1421 C1419 1.415 . S
C1422 H1412 0.930 . S
C1422 C1420 1.419 . S
C1422 C1423 1.362 . S
C1423 H1413 0.930 . S
C1423 C1416 1.409 . S
C1423 C1422 1.362 . S
H1424 C1430 0.930 . S
H1425 C1433 0.930 . S
H1426 C1434 0.930 . S
H1427 C1435 0.930 . S
H1428 C1438 0.930 . S
H1429 C1439 0.930 . S
C1430 H1424 0.930 . S
C1430 C1431 1.355 . S
C1430 C1432 1.415 . S
C1431 C1430 1.355 . S
C1431 C1433 1.419 . S
C1432 C1430 1.415 . S
C1432 C1437 1.425 . S
C1432 C1439 1.409 . S
C1433 H1425 0.930 . S
C1433 C1431 1.419 . S
C1433 C1434 1.362 . S
C1434 H1426 0.930 . S
C1434 C1433 1.362 . S
C1434 C1437 1.409 . S
C1435 H1427 0.930 . S
C1435 C1436 1.355 . S
C1435 C1437 1.415 . S
C1436 C1435 1.355 . S
C1436 C1438 1.419 . S
C1437 C1432 1.425 . S
C1437 C1434 1.409 . S
C1437 C1435 1.415 . S
C1438 H1428 0.930 . S
C1438 C1436 1.419 . S
C1438 C1439 1.362 . S
C1439 H1429 0.930 . S
C1439 C1432 1.409 . S
C1439 C1438 1.362 . S
H1440 C1446 0.930 . S
H1441 C1449 0.930 . S
H1442 C1450 0.930 . S
H1443 C1451 0.930 . S
H1444 C1454 0.930 . S
H1445 C1455 0.930 . S
C1446 H1440 0.930 . S
C1446 C1447 1.355 . S
C1446 C1448 1.415 . S
C1447 C1446 1.355 . S
C1447 C1449 1.419 . S
C1448 C1446 1.415 . S
C1448 C1453 1.425 . S
C1448 C1455 1.409 . S
C1449 H1441 0.930 . S
C1449 C1447 1.419 . S
C1449 C1450 1.362 . S
C1450 H1442 0.930 . S
C1450 C1449 1.362 . S
C1450 C1453 1.409 . S
C1451 H1443 0.930 . S
C1451 C1452 1.355 . S
C1451 C1453 1.415 . S
C1452 C1451 1.355 . S
C1452 C1454 1.419 . S
C1453 C1448 1.425 . S
C1453 C1450 1.409 . S
C1453 C1451 1.415 . S
C1454 H1444 0.930 . S
C1454 C1452 1.419 . S
C1454 C1455 1.362 . S
C1455 H1445 0.930 . S
C1455 C1448 1.409 . S
C1455 C1454 1.362 . S
H1456 C1462 0.930 . S
H1457 C1465 0.930 . S
H1458 C1466 0.930 . S
H1459 C1467 0.930 . S
H1460 C1470 0.930 . S
H1461 C1471 0.930 . S
C1462 H1456 0.930 . S
C1462 C1463 1.355 . S
C1462 C1464 1.415 . S
C1463 C1462 1.355 . S
C1463 C1465 1.419 . S
C1464 C1462 1.415 . S
C1464 C1469 1.425 . S
C1464 C1471 1.409 . S
C1465 H1457 0.930 . S
C1465 C1463 1.419 . S
C1465 C1466 1.362 . S
C1466 H1458 0.930 . S
C1466 C1465 1.362 . S
C1466 C1469 1.409 . S
C1467 H1459 0.930 . S
C1467 C1468 1.355 . S
C1467 C1469 1.415 . S
C1468 C1467 1.355 . S
C1468 C1470 1.419 . S
C1469 C1464 1.425 . S
C1469 C1466 1.409 . S
C1469 C1467 1.415 . S
C1470 H1460 0.930 . S
C1470 C1468 1.419 . S
C1470 C1471 1.362 . S
C1471 H1461 0.930 . S
C1471 C1464 1.409 . S
C1471 C1470 1.362 . S
H1472 C1478 0.930 . S
H1473 C1481 0.930 . S
H1474 C1482 0.930 . S
H1475 C1483 0.930 . S
H1476 C1486 0.930 . S
H1477 C1487 0.930 . S
C1478 H1472 0.930 . S
C1478 C1479 1.355 . S
C1478 C1480 1.415 . S
C1479 C1478 1.355 . S
C1479 C1481 1.419 . S
C1480 C1478 1.415 . S
C1480 C1485 1.425 . S
C1480 C1487 1.409 . S
C1481 H1473 0.930 . S
C1481 C1479 1.419 . S
C1481 C1482 1.362 . S
C1482 H1474 0.930 . S
C1482 C1481 1.362 . S
C1482 C1485 1.409 . S
C1483 H1475 0.930 . S
C1483 C1484 1.355 . S
C1483 C1485 1.415 . S
C1484 C1483 1.355 . S
C1484 C1486 1.419 . S
C1485 C1480 1.425 . S
C1485 C1482 1.409 . S
C1485 C1483 1.415 . S
C1486 H1476 0.930 . S
C1486 C1484 1.419 . S
C1486 C1487 1.362 . S
C1487 H1477 0.930 . S
C1487 C1480 1.409 . S
C1487 C1486 1.362 . S
H1488 C1494 0.930 . S
H1489 C1497 0.930 . S
H1490 C1498 0.930 . S
H1491 C1499 0.930 . S
H1492 C1502 0.930 . S
H1493 C1503 0.930 . S
C1494 H1488 0.930 . S
C1494 C1495 1.355 . S
C1494 C1496 1.415 . S
C1495 C1494 1.355 . S
C1495 C1497 1.419 . S
C1496 C1494 1.415 . S
C1496 C1501 1.425 . S
C1496 C1503 1.409 . S
C1497 H1489 0.930 . S
C1497 C1495 1.419 . S
C1497 C1498 1.362 . S
C1498 H1490 0.930 . S
C1498 C1497 1.362 . S
C1498 C1501 1.409 . S
C1499 H1491 0.930 . S
C1499 C1500 1.355 . S
C1499 C1501 1.415 . S
C1500 C1499 1.355 . S
C1500 C1502 1.419 . S
C1501 C1496 1.425 . S
C1501 C1498 1.409 . S
C1501 C1499 1.415 . S
C1502 H1492 0.930 . S
C1502 C1500 1.419 . S
C1502 C1503 1.362 . S
C1503 H1493 0.930 . S
C1503 C1496 1.409 . S
C1503 C1502 1.362 . S
H1504 C1510 0.930 . S
H1505 C1513 0.930 . S
H1506 C1514 0.930 . S
H1507 C1515 0.930 . S
H1508 C1518 0.930 . S
H1509 C1519 0.930 . S
C1510 H1504 0.930 . S
C1510 C1511 1.355 . S
C1510 C1512 1.415 . S
C1511 C1510 1.355 . S
C1511 C1513 1.419 . S
C1512 C1510 1.415 . S
C1512 C1517 1.425 . S
C1512 C1519 1.409 . S
C1513 H1505 0.930 . S
C1513 C1511 1.419 . S
C1513 C1514 1.362 . S
C1514 H1506 0.930 . S
C1514 C1513 1.362 . S
C1514 C1517 1.409 . S
C1515 H1507 0.930 . S
C1515 C1516 1.355 . S
C1515 C1517 1.415 . S
C1516 C1515 1.355 . S
C1516 C1518 1.419 . S
C1517 C1512 1.425 . S
C1517 C1514 1.409 . S
C1517 C1515 1.415 . S
C1518 H1508 0.930 . S
C1518 C1516 1.419 . S
C1518 C1519 1.362 . S
C1519 H1509 0.930 . S
C1519 C1512 1.409 . S
C1519 C1518 1.362 . S
H1520 C1526 0.930 . S
H1521 C1529 0.930 . S
H1522 C1530 0.930 . S
H1523 C1531 0.930 . S
H1524 C1534 0.930 . S
H1525 C1535 0.930 . S
C1526 H1520 0.930 . S
C1526 C1527 1.355 . S
C1526 C1528 1.415 . S
C1527 C1526 1.355 . S
C1527 C1529 1.419 . S
C1528 C1526 1.415 . S
C1528 C1533 1.425 . S
C1528 C1535 1.409 . S
C1529 H1521 0.930 . S
C1529 C1527 1.419 . S
C1529 C1530 1.362 . S
C1530 H1522 0.930 . S
C1530 C1529 1.362 . S
C1530 C1533 1.409 . S
C1531 H1523 0.930 . S
C1531 C1532 1.355 . S
C1531 C1533 1.415 . S
C1532 C1531 1.355 . S
C1532 C1534 1.419 . S
C1533 C1528 1.425 . S
C1533 C1530 1.409 . S
C1533 C1531 1.415 . S
C1534 H1524 0.930 . S
C1534 C1532 1.419 . S
C1534 C1535 1.362 . S
C1535 H1525 0.930 . S
C1535 C1528 1.409 . S
C1535 C1534 1.362 . S
H1536 C1542 0.930 . S
H1537 C1545 0.930 . S
H1538 C1546 0.930 . S
H1539 C1547 0.930 . S
H1540 C1550 0.930 . S
H1541 C1551 0.930 . S
C1542 H1536 0.930 . S
C1542 C1543 1.355 . S
C1542 C1544 1.415 . S
C1543 C1542 1.355 . S
C1543 C1545 1.419 . S
C1544 C1542 1.415 . S
C1544 C1549 1.425 . S
C1544 C1551 1.409 . S
C1545 H1537 0.930 . S
C1545 C1543 1.419 . S
C1545 C1546 1.362 . S
C1546 H1538 0.930 . S
C1546 C1545 1.362 . S
C1546 C1549 1.409 . S
C1547 H1539 0.930 . S
C1547 C1548 1.355 . S
C1547 C1549 1.415 . S
C1548 C1547 1.355 . S
C1548 C1550 1.419 . S
C1549 C1544 1.425 . S
C1549 C1546 1.409 . S
C1549 C1547 1.415 . S
C1550 H1540 0.930 . S
C1550 C1548 1.419 . S
C1550 C1551 1.362 . S
C1551 H1541 0.930 . S
C1551 C1544 1.409 . S
C1551 C1550 1.362 . S
H1552 C1558 0.930 . S
H1553 C1561 0.930 . S
H1554 C1562 0.930 . S
H1555 C1563 0.930 . S
H1556 C1566 0.930 . S
H1557 C1567 0.930 . S
C1558 H1552 0.930 . S
C1558 C1559 1.355 . S
C1558 C1560 1.415 . S
C1559 C1558 1.355 . S
C1559 C1561 1.419 . S
C1560 C1558 1.415 . S
C1560 C1565 1.425 . S
C1560 C1567 1.409 . S
C1561 H1553 0.930 . S
C1561 C1559 1.419 . S
C1561 C1562 1.362 . S
C1562 H1554 0.930 . S
C1562 C1561 1.362 . S
C1562 C1565 1.409 . S
C1563 H1555 0.930 . S
C1563 C1564 1.355 . S
C1563 C1565 1.415 . S
C1564 C1563 1.355 . S
C1564 C1566 1.419 . S
C1565 C1560 1.425 . S
C1565 C1562 1.409 . S
C1565 C1563 1.415 . S
C1566 H1556 0.930 . S
C1566 C1564 1.419 . S
C1566 C1567 1.362 . S
C1567 H1557 0.930 . S
C1567 C1560 1.409 . S
C1567 C1566 1.362 . S
H1568 C1574 0.930 . S
H1569 C1577 0.930 . S
H1570 C1578 0.930 . S
H1571 C1579 0.930 . S
H1572 C1582 0.930 . S
H1573 C1583 0.930 . S
C1574 H1568 0.930 . S
C1574 C1575 1.355 . S
C1574 C1576 1.415 . S
C1575 C1574 1.355 . S
C1575 C1577 1.419 . S
C1576 C1574 1.415 . S
C1576 C1581 1.425 . S
C1576 C1583 1.409 . S
C1577 H1569 0.930 . S
C1577 C1575 1.419 . S
C1577 C1578 1.362 . S
C1578 H1570 0.930 . S
C1578 C1577 1.362 . S
C1578 C1581 1.409 . S
C1579 H1571 0.930 . S
C1579 C1580 1.355 . S
C1579 C1581 1.415 . S
C1580 C1579 1.355 . S
C1580 C1582 1.419 . S
C1581 C1576 1.425 . S
C1581 C1578 1.409 . S
C1581 C1579 1.415 . S
C1582 H1572 0.930 . S
C1582 C1580 1.419 . S
C1582 C1583 1.362 . S
C1583 H1573 0.930 . S
C1583 C1576 1.409 . S
C1583 C1582 1.362 . S
H1584 C1590 0.930 . S
H1585 C1593 0.930 . S
H1586 C1594 0.930 . S
H1587 C1595 0.930 . S
H1588 C1598 0.930 . S
H1589 C1599 0.930 . S
C1590 H1584 0.930 . S
C1590 C1591 1.355 . S
C1590 C1592 1.415 . S
C1591 C1590 1.355 . S
C1591 C1593 1.419 . S
C1592 C1590 1.415 . S
C1592 C1597 1.425 . S
C1592 C1599 1.409 . S
C1593 H1585 0.930 . S
C1593 C1591 1.419 . S
C1593 C1594 1.362 . S
C1594 H1586 0.930 . S
C1594 C1593 1.362 . S
C1594 C1597 1.409 . S
C1595 H1587 0.930 . S
C1595 C1596 1.355 . S
C1595 C1597 1.415 . S
C1596 C1595 1.355 . S
C1596 C1598 1.419 . S
C1597 C1592 1.425 . S
C1597 C1594 1.409 . S
C1597 C1595 1.415 . S
C1598 H1588 0.930 . S
C1598 C1596 1.419 . S
C1598 C1599 1.362 . S
C1599 H1589 0.930 . S
C1599 C1592 1.409 . S
C1599 C1598 1.362 . S
H1600 C1606 0.930 . S
H1601 C1609 0.930 . S
H1602 C1610 0.930 . S
H1603 C1611 0.930 . S
H1604 C1614 0.930 . S
H1605 C1615 0.930 . S
C1606 H1600 0.930 . S
C1606 C1607 1.355 . S
C1606 C1608 1.415 . S
C1607 C1606 1.355 . S
C1607 C1609 1.419 . S
C1608 C1606 1.415 . S
C1608 C1613 1.425 . S
C1608 C1615 1.409 . S
C1609 H1601 0.930 . S
C1609 C1607 1.419 . S
C1609 C1610 1.362 . S
C1610 H1602 0.930 . S
C1610 C1609 1.362 . S
C1610 C1613 1.409 . S
C1611 H1603 0.930 . S
C1611 C1612 1.355 . S
C1611 C1613 1.415 . S
C1612 C1611 1.355 . S
C1612 C1614 1.419 . S
C1613 C1608 1.425 . S
C1613 C1610 1.409 . S
C1613 C1611 1.415 . S
C1614 H1604 0.930 . S
C1614 C1612 1.419 . S
C1614 C1615 1.362 . S
C1615 H1605 0.930 . S
C1615 C1608 1.409 . S
C1615 C1614 1.362 . S
H1616 C1622 0.930 . S
H1617 C1625 0.930 . S
H1618 C1626 0.930 . S
H1619 C1627 0.930 . S
H1620 C1630 0.930 . S
H1621 C1631 0.930 . S
C1622 H1616 0.930 . S
C1622 C1623 1.355 . S
C1622 C1624 1.415 . S
C1623 C1622 1.355 . S
C1623 C1625 1.419 . S
C1624 C1622 1.415 . S
C1624 C1629 1.425 . S
C1624 C1631 1.409 . S
C1625 H1617 0.930 . S
C1625 C1623 1.419 . S
C1625 C1626 1.362 . S
C1626 H1618 0.930 . S
C1626 C1625 1.362 . S
C1626 C1629 1.409 . S
C1627 H1619 0.930 . S
C1627 C1628 1.355 . S
C1627 C1629 1.415 . S
C1628 C1627 1.355 . S
C1628 C1630 1.419 . S
C1629 C1624 1.425 . S
C1629 C1626 1.409 . S
C1629 C1627 1.415 . S
C1630 H1620 0.930 . S
C1630 C1628 1.419 . S
C1630 C1631 1.362 . S
C1631 H1621 0.930 . S
C1631 C1624 1.409 . S
C1631 C1630 1.362 . S
H1632 C1638 0.930 . S
H1633 C1641 0.930 . S
H1634 C1642 0.930 . S
H1635 C1643 0.930 . S
H1636 C1646 0.930 . S
H1637 C1647 0.930 . S
C1638 H1632 0.930 . S
C1638 C1639 1.355 . S
C1638 C1640 1.415 . S
C1639 C1638 1.355 . S
C1639 C1641 1.419 . S
C1640 C1638 1.415 . S
C1640 C1645 1.425 . S
C1640 C1647 1.409 . S
C1641 H1633 0.930 . S
C1641 C1639 1.419 . S
C1641 C1642 1.362 . S
C1642 H1634 0.930 . S
C1642 C1641 1.362 . S
C1642 C1645 1.409 . S
C1643 H1635 0.930 . S
C1643 C1644 1.355 . S
C1643 C1645 1.415 . S
C1644 C1643 1.355 . S
C1644 C1646 1.419 . S
C1645 C1640 1.425 . S
C1645 C1642 1.409 . S
C1645 C1643 1.415 . S
C1646 H1636 0.930 . S
C1646 C1644 1.419 . S
C1646 C1647 1.362 . S
C1647 H1637 0.930 . S
C1647 C1640 1.409 . S
C1647 C1646 1.362 . S
H1648 C1654 0.930 . S
H1649 C1657 0.930 . S
H1650 C1658 0.930 . S
H1651 C1659 0.930 . S
H1652 C1662 0.930 . S
H1653 C1663 0.930 . S
C1654 H1648 0.930 . S
C1654 C1655 1.355 . S
C1654 C1656 1.415 . S
C1655 C1654 1.355 . S
C1655 C1657 1.419 . S
C1656 C1654 1.415 . S
C1656 C1661 1.425 . S
C1656 C1663 1.409 . S
C1657 H1649 0.930 . S
C1657 C1655 1.419 . S
C1657 C1658 1.362 . S
C1658 H1650 0.930 . S
C1658 C1657 1.362 . S
C1658 C1661 1.409 . S
C1659 H1651 0.930 . S
C1659 C1660 1.355 . S
C1659 C1661 1.415 . S
C1660 C1659 1.355 . S
C1660 C1662 1.419 . S
C1661 C1656 1.425 . S
C1661 C1658 1.409 . S
C1661 C1659 1.415 . S
C1662 H1652 0.930 . S
C1662 C1660 1.419 . S
C1662 C1663 1.362 . S
C1663 H1653 0.930 . S
C1663 C1656 1.409 . S
C1663 C1662 1.362 . S
H1664 C1670 0.930 . S
H1665 C1673 0.930 . S
H1666 C1674 0.930 . S
H1667 C1675 0.930 . S
H1668 C1678 0.930 . S
H1669 C1679 0.930 . S
C1670 H1664 0.930 . S
C1670 C1671 1.355 . S
C1670 C1672 1.415 . S
C1671 C1670 1.355 . S
C1671 C1673 1.419 . S
C1672 C1670 1.415 . S
C1672 C1677 1.425 . S
C1672 C1679 1.409 . S
C1673 H1665 0.930 . S
C1673 C1671 1.419 . S
C1673 C1674 1.362 . S
C1674 H1666 0.930 . S
C1674 C1673 1.362 . S
C1674 C1677 1.409 . S
C1675 H1667 0.930 . S
C1675 C1676 1.355 . S
C1675 C1677 1.415 . S
C1676 C1675 1.355 . S
C1676 C1678 1.419 . S
C1677 C1672 1.425 . S
C1677 C1674 1.409 . S
C1677 C1675 1.415 . S
C1678 H1668 0.930 . S
C1678 C1676 1.419 . S
C1678 C1679 1.362 . S
C1679 H1669 0.930 . S
C1679 C1672 1.409 . S
C1679 C1678 1.362 . S
C535 C15 1.176 . S
C540 C367 1.232 . S
C551 C37 1.216 . S
C556 C527 1.236 . S
C567 C469 1.243 . S
C572 C65 1.235 . S
C583 C81 1.213 . S
C588 C499 1.231 . S
C599 C95 1.205 . S
C604 C395 1.231 . S
C615 C117 1.159 . S
C620 C411 1.226 . S
C631 C139 1.225 . S
C636 C439 1.238 . S
C647 C169 1.149 . S
C652 C450 1.174 . S
C663 C197 1.216 . S
C668 C7 1.239 . S
C679 C205 1.217 . S
C684 C29 1.242 . S
C695 C59 1.244 . S
C700 C241 1.237 . S
C711 C73 1.255 . S
C716 C263 1.246 . S
C727 C279 1.233 . S
C732 C109 1.259 . S
C743 C301 1.237 . S
C748 C131 1.262 . S
C759 C329 1.198 . S
C764 C153 1.264 . S
C775 C345 1.187 . S
C780 C161 1.240 . S
C791 C373 1.181 . S
C796 C191 1.224 . S
C807 C381 1.189 . S
C812 C271 1.226 . S
C823 C293 1.256 . S
C828 C417 1.242 . S
C839 C425 1.234 . S
C844 C323 1.241 . S
C855 C458 1.197 . S
C860 C337 1.211 . S
C871 C477 1.182 . S
C876 C235 1.222 . S
C887 C257 1.236 . S
C892 C505 1.175 . S
C903 C513 1.228 . S
C908 C219 1.257 . S
C919 C480 1.238 . S
C924 C106 1.245 . S
C935 C494 1.250 . S
C940 C128 1.242 . S
C951 C150 1.185 . S
C956 C362 1.182 . S
C967 C164 1.173 . S
C972 C514 1.204 . S
C983 C426 1.187 . S
C988 C10 1.196 . S
C999 C32 1.216 . S
C1004 C455 1.243 . S
C1015 C382 1.203 . S
C1020 C52 1.226 . S
C1031 C76 1.246 . S
C1036 C406 1.238 . S
C1047 C316 1.243 . S
C1052 C96 1.243 . S
C1063 C340 1.245 . S
C1068 C118 1.236 . S
C1079 C274 1.236 . S
C1084 C140 1.217 . S
C1095 C172 1.220 . S
C1100 C296 1.236 . S
C1111 C228 1.229 . S
C1116 C18 1.209 . S
C1127 C250 1.171 . S
C1132 C40 1.210 . S
C1143 C184 1.194 . S
C1148 C54 1.232 . S
C1159 C216 1.180 . S
C1164 C84 1.186 . S
C1175 C318 1.253 . S
C1180 C472 1.234 . S
C1191 C436 1.236 . S
C1196 C230 1.212 . S
C1207 C252 1.290 . S
C1212 C447 1.257 . S
C1223 C392 1.196 . S
C1228 C186 1.190 . S
C1239 C404 1.245 . S
C1244 C206 1.228 . S
C1255 C360 1.242 . S
C1260 C282 1.220 . S
C1271 C524 1.186 . S
C1276 C304 1.190 . S
C1287 C348 1.235 . S
C1292 C492 1.205 . S
C1303 C448 1.349 . S
C1308 C21 1.361 . S
C1319 C389 1.385 . S
C1324 C43 1.380 . S
C1335 C51 1.389 . S
C1340 C403 1.410 . S
C1351 C87 1.408 . S
C1356 C433 1.403 . S
C1367 C521 1.384 . S
C1372 C103 1.407 . S
C1383 C125 1.384 . S
C1388 C483 1.408 . S
C1399 C491 1.415 . S
C1404 C147 1.391 . S
C1415 C175 1.379 . S
C1420 C359 1.398 . S
C1431 C183 1.411 . S
C1436 C351 1.388 . S
C1447 C285 1.399 . S
C1452 C213 1.376 . S
C1463 C227 1.404 . S
C1468 C307 1.383 . S
C1479 C315 1.414 . S
C1484 C249 1.416 . S
C1495 C414 1.357 . S
C1500 C98 1.363 . S
C1511 C428 1.359 . S
C1516 C120 1.353 . S
C1527 C142 1.396 . S
C1532 C461 1.379 . S
C1543 C162 1.339 . S
C1548 C384 1.338 . S
C1559 C502 1.364 . S
C1564 C8 1.370 . S
C1575 C370 1.366 . S
C1580 C30 1.359 . S
C1591 C516 1.374 . S
C1596 C62 1.380 . S
C1607 C74 1.381 . S
C1612 C470 1.377 . S
C1623 C208 1.359 . S
C1628 C326 1.353 . S
C1639 C338 1.332 . S
C1644 C238 1.332 . S
C1655 C272 1.344 . S
C1660 C260 1.338 . S
C1671 C294 1.387 . S
C1676 C194 1.386 . S
