# Generated by pormake.
# Topology kag, (6)-cn, num edge types: 1
# Building blocks:
#     Node 0, Type 0, BuildingBlock: KUMJIN_clean_sbu_1, # of connection points: 6
#     Node 1, Type 0, BuildingBlock: KUMJIN_clean_sbu_1, # of connection points: 6
#     Node 2, Type 0, BuildingBlock: KUMJIN_clean_sbu_1, # of connection points: 6
#     Edge 3, Type (0, 0), BuildingBlock: FUNLAD_clean_linker_0, # of connection points: 2
#     Edge 4, Type (0, 0), BuildingBlock: FUNLAD_clean_linker_0, # of connection points: 2
#     Edge 5, Type (0, 0), BuildingBlock: FUNLAD_clean_linker_0, # of connection points: 2
#     Edge 6, Type (0, 0), BuildingBlock: FUNLAD_clean_linker_0, # of connection points: 2
#     Edge 7, Type (0, 0), BuildingBlock: FUNLAD_clean_linker_0, # of connection points: 2
#     Edge 8, Type (0, 0), BuildingBlock: FUNLAD_clean_linker_0, # of connection points: 2
#     Edge 9, Type (0, 0), BuildingBlock: FUNLAD_clean_linker_0, # of connection points: 2
#     Edge 10, Type (0, 0), BuildingBlock: FUNLAD_clean_linker_0, # of connection points: 2
#     Edge 11, Type (0, 0), BuildingBlock: FUNLAD_clean_linker_0, # of connection points: 2
# Relax obj value: 0.081
# Max RMSD: 0.176
# Mean RMSD: 0.118
data_MOF--net-kag--node1-KUMJIN_clean_sbu_1--edge1-FUNLAD_clean_linker_0
_symmetry_space_group_name_H-M    P1
_symmetry_Int_Tables_number       1
_symmetry_cell_setting            triclinic
loop_
_symmetry_equiv_pos_as_xyz
'x, y, z'
_cell_length_a     35.490643
_cell_length_b     45.164613
_cell_length_c     17.467512
_cell_angle_alpha  108.39085
_cell_angle_beta   96.738956
_cell_angle_gamma 101.35105
loop_
_atom_site_label
_atom_site_type_symbol
_atom_site_fract_x
_atom_site_fract_y
_atom_site_fract_z
_atom_type_partial_charge
Eu0 Eu 0.0426 0.54937 0.04467 0.0
C1 C 0.08839 0.42386 0.9047 0.0
N2 N 0.06354 0.43574 0.86433 0.0
C3 C 0.09624 0.42503 0.74978 0.0
C4 C 0.11959 0.41347 0.87047 0.0
C5 C 0.06597 0.43536 0.78662 0.0
C6 C 0.12352 0.41446 0.79237 0.0
C7 C 0.10683 0.4087 0.02231 0.0
C8 C 0.08201 0.42159 0.97968 0.0
C9 C 0.13907 0.3997 0.9904 0.0
C10 C 0.1454 0.40203 0.91457 0.0
Eu11 Eu 1.0137 0.45339 0.93061 0.0
N12 N 0.05029 0.43017 0.00844 0.0
C13 C 0.09773 0.40419 0.09428 0.0
C14 C 0.03952 0.42313 0.07455 0.0
C15 C 0.06351 0.41086 0.11958 0.0
H16 H 0.04497 0.44375 0.75421 0.0
H17 H 0.05526 0.40608 0.17306 0.0
H18 H 0.06256 0.56294 0.24848 0.0
H19 H 0.9527 0.60433 0.88407 0.0
H20 H 1.01213 0.42643 0.09244 0.0
H21 H 0.11605 0.39436 0.12883 0.0
H22 H 1.00223 0.57397 0.90149 0.0
H23 H 0.09865 0.42538 0.68887 0.0
H24 H 0.15867 0.39009 0.0228 0.0
H25 H 0.16986 0.39431 0.88983 0.0
H26 H 1.0334 0.58293 0.37026 0.0
H27 H 0.14709 0.40665 0.76393 0.0
H28 H 0.91841 0.62492 -0.00235 0.0
N29 N 1.01914 0.57043 0.16687 0.0
C30 C 0.98954 0.58509 0.16053 0.0
C31 C 1.02034 0.58321 0.31137 0.0
C32 C 0.97317 0.59841 0.22937 0.0
C33 C 1.03619 0.57111 0.2418 0.0
C34 C 0.98822 0.59643 0.30486 0.0
N35 N 0.99462 0.57659 0.02201 0.0
C36 C 0.98704 0.58273 0.95085 0.0
C37 C 0.94928 0.60641 0.07957 0.0
C38 C 0.97755 0.58893 0.08652 0.0
C39 C 0.93995 0.61159 0.0054 0.0
C40 C 0.95921 0.59996 0.94106 0.0
H41 H 0.97639 0.60629 0.35914 0.0
H42 H 0.93038 0.62452 0.27361 0.0
H43 H 0.90955 0.63161 0.14246 0.0
O44 O 0.08688 0.57738 0.0005 0.0
O45 O 0.97761 0.52549 0.98187 0.0
O46 O 0.96726 0.47491 0.99109 0.0
O47 O 0.07721 0.59717 0.12406 0.0
O48 O 0.04485 0.53165 0.90885 0.0
O49 O 0.99894 0.48278 0.8532 0.0
O50 O 0.98119 0.40353 0.90343 0.0
O51 O 0.07385 0.4845 0.93331 0.0
O52 O 0.08694 0.52085 0.06277 0.0
O53 O 0.97452 0.42616 0.81275 0.0
O54 O 1.00237 0.47234 0.06062 0.0
O55 O 0.05272 0.51786 0.12038 0.0
C56 C 0.95381 0.49909 0.98259 0.0
C57 C 0.14163 0.61016 0.10234 0.0
C58 C 0.20597 0.64397 0.11157 0.0
C59 C 0.22288 0.62827 0.15931 0.0
C60 C 0.15895 0.595 0.15065 0.0
C61 C 0.19943 0.60394 0.17857 0.0
C62 C 0.16515 0.63449 0.08279 0.0
C63 C 1.02152 0.50809 0.84574 0.0
C64 C 0.09916 0.60059 0.07131 0.0
C65 C 0.94351 0.61438 0.22156 0.0
C66 C 0.93171 0.61849 0.14693 0.0
C67 C 0.09928 0.50308 0.00044 0.0
C68 C 0.91777 0.39094 0.82268 0.0
C69 C 0.86003 0.35569 0.83987 0.0
C70 C 0.83608 0.37155 0.80593 0.0
C71 C 0.89313 0.40634 0.78859 0.0
C72 C 0.90093 0.3655 0.84768 0.0
C73 C 0.8526 0.39665 0.78041 0.0
C74 C 1.026 0.4944 0.12602 0.0
C75 C 0.96089 0.40168 0.83425 0.0
H76 H 0.25412 0.63516 0.18301 0.0
H77 H 0.14115 0.57634 0.16683 0.0
H78 H 0.21266 0.59212 0.21571 0.0
H79 H 0.1516 0.6458 0.04453 0.0
H80 H 0.80451 0.36435 0.79828 0.0
H81 H 0.90507 0.4261 0.7689 0.0
H82 H 0.91981 0.35384 0.87493 0.0
H83 H 0.8339 0.40873 0.75443 0.0
Eu84 Eu 0.49939 0.9854 0.95464 0.0
C85 C 0.6551 0.95906 0.02877 0.0
N86 N 0.64283 0.98278 0.08184 0.0
C87 C 0.66005 0.96418 0.19217 0.0
C88 C 0.66942 0.93626 0.0554 0.0
C89 C 0.64583 0.98614 0.16298 0.0
C90 C 0.67162 0.93899 0.13805 0.0
C91 C 0.66575 0.93322 0.89142 0.0
C92 C 0.65252 0.95729 0.94725 0.0
C93 C 0.67928 0.91006 0.9173 0.0
C94 C 0.68101 0.91153 -0.00102 0.0
Eu95 Eu 0.61607 0.01707 0.02602 0.0
N96 N 0.63876 0.9798 0.92343 0.0
C97 C 0.66616 0.9337 0.81186 0.0
C98 C 0.64304 0.98222 0.84871 0.0
C99 C 0.65562 0.95875 0.79109 0.0
H100 H 0.63641 0.00541 0.20448 0.0
H101 H 0.65786 0.96035 0.73118 0.0
H102 H 0.47454 0.95935 0.74924 0.0
H103 H 0.45289 0.07674 0.18832 0.0
H104 H 0.63772 0.00252 0.83329 0.0
H105 H 0.67618 0.91569 0.76726 0.0
H106 H 0.48581 0.0334 0.13807 0.0
H107 H 0.66186 0.96658 0.25621 0.0
H108 H 0.68914 0.89123 0.87494 0.0
H109 H 0.69186 0.89366 0.01815 0.0
H110 H 0.4384 0.97407 0.64247 0.0
H111 H 0.6824 0.9219 0.16078 0.0
H112 H 0.41514 0.09421 0.08981 0.0
N113 N 0.4631 0.9957 0.84849 0.0
C114 C 0.44408 0.01943 0.87254 0.0
C115 C 0.43994 0.98713 0.7069 0.0
C116 C 0.42254 0.02826 0.81382 0.0
C117 C 0.46081 0.97913 0.76727 0.0
C118 C 0.42088 0.01191 0.73025 0.0
N119 N 0.46815 0.02667 0.01174 0.0
C120 C 0.46999 0.04084 0.09406 0.0
C121 C 0.4269 0.05987 0.98265 0.0
C122 C 0.44627 0.0351 0.95624 0.0
C123 C 0.42964 0.0751 0.0671 0.0
C124 C 0.45104 0.06537 0.12293 0.0
H125 H 0.40469 0.01804 0.68331 0.0
H126 H 0.38681 0.06019 0.79591 0.0
H127 H 0.39059 0.08781 0.94351 0.0
O128 O 0.46927 0.9516 0.00744 0.0
O129 O 0.52513 0.03749 0.96488 0.0
O130 O 0.58128 0.0546 0.06351 0.0
O131 O 0.44363 0.95142 0.8888 0.0
O132 O 0.52354 0.99425 0.08955 0.0
O133 O 0.58423 0.03131 0.1312 0.0
O134 O 0.66211 0.05213 0.00508 0.0
O135 O 0.58272 0.96996 0.0349 0.0
O136 O 0.5383 0.95133 0.9164 0.0
O137 O 0.66794 0.04454 0.12084 0.0
O138 O 0.58788 0.01933 0.90413 0.0
O139 O 0.53691 0.97417 0.85849 0.0
C140 C 0.55429 0.06057 0.01645 0.0
C141 C 0.43949 0.90112 0.90478 0.0
C142 C 0.42015 0.84705 0.91091 0.0
C143 C 0.4352 0.835 0.8395 0.0
C144 C 0.45437 0.88851 0.83356 0.0
C145 C 0.45209 0.85563 0.80117 0.0
C146 C 0.42254 0.88033 0.94336 0.0
C147 C 0.55328 0.01447 0.14704 0.0
C148 C 0.44299 0.93601 0.9404 0.0
C149 C 0.40341 0.05304 0.84015 0.0
C150 C 0.40555 0.06876 0.92425 0.0
C151 C 0.55992 0.94568 0.97354 0.0
C152 C 0.68837 0.09823 0.1247 0.0
C153 C 0.70475 0.15317 0.12273 0.0
C154 C 0.69853 0.16474 0.20373 0.0
C155 C 0.68259 0.11047 0.20601 0.0
C156 C 0.69971 0.11981 0.08372 0.0
C157 C 0.68764 0.14349 0.24498 0.0
C158 C 0.56098 0.9971 0.84451 0.0
C159 C 0.68077 0.06309 0.08103 0.0
H160 H 0.43329 0.80951 0.81228 0.0
H161 H 0.46811 0.90409 0.80324 0.0
H162 H 0.46361 0.84612 0.7463 0.0
H163 H 0.41163 0.89016 -0.00101 0.0
H164 H 0.70265 0.19029 0.23573 0.0
H165 H 0.67368 0.09458 0.23938 0.0
H166 H 0.7038 0.11053 0.02081 0.0
H167 H 0.683 0.15266 0.3074 0.0
Eu168 Eu 0.51456 0.45198 0.95037 0.0
C169 C 0.63666 0.58141 0.0889 0.0
N170 N 0.60645 0.5704 0.1221 0.0
C171 C 0.64876 0.58737 0.25334 0.0
C172 C 0.67473 0.59506 0.13693 0.0
C173 C 0.61158 0.57371 0.20324 0.0
C174 C 0.6805 0.59796 0.22 0.0
C175 C 0.66079 0.58881 0.97006 0.0
C176 C 0.62962 0.57825 0.00608 0.0
C177 C 0.6989 0.60168 0.01731 0.0
C178 C 0.70581 0.60492 0.10051 0.0
Eu179 Eu 0.54465 0.5507 0.03526 0.0
N180 N 0.59235 0.56583 0.96155 0.0
C181 C 0.65261 0.58691 0.88807 0.0
C182 C 0.58391 0.56662 0.88408 0.0
C183 C 0.61392 0.57626 0.84537 0.0
H184 H 0.58691 0.56579 0.22903 0.0
H185 H 0.60707 0.57621 0.78328 0.0
H186 H 0.51519 0.42635 0.74754 0.0
H187 H 0.40029 0.41979 0.11405 0.0
H188 H 0.55407 0.56104 0.85279 0.0
H189 H 0.67575 0.59474 0.85821 0.0
H190 H 0.46668 0.44474 0.10017 0.0
H191 H 0.65292 0.58974 0.31757 0.0
H192 H 0.72316 0.6097 0.99037 0.0
H193 H 0.73533 0.61514 0.13622 0.0
H194 H 0.46809 0.39645 0.61686 0.0
H195 H 0.70932 0.60831 0.25887 0.0
H196 H 0.34881 0.38981 0.98972 0.0
N197 N 0.47257 0.42265 0.82203 0.0
C198 C 0.43526 0.40889 0.82471 0.0
C199 C 0.45836 0.40009 0.67484 0.0
C200 C 0.40764 0.39077 0.75172 0.0
C201 C 0.48482 0.41754 0.74885 0.0
C202 C 0.41949 0.38692 0.67622 0.0
N203 N 0.45194 0.43019 0.97014 0.0
C204 C 0.44413 0.43195 0.04596 0.0
C205 C 0.38676 0.39745 0.90563 0.0
C206 C 0.42487 0.41215 0.90075 0.0
C207 C 0.37779 0.40073 0.98341 0.0
C208 C 0.40673 0.41774 0.05381 0.0
H209 H 0.39914 0.3732 0.61877 0.0
H210 H 0.3477 0.36282 0.70087 0.0
H211 H 0.32945 0.36868 0.83552 0.0
O212 O 0.53753 0.42583 0.02376 0.0
O213 O 0.46325 0.47569 0.96975 0.0
O214 O 0.47849 0.53157 0.00421 0.0
O215 O 0.5221 0.40343 0.89179 0.0
O216 O 0.53886 0.48001 0.08538 0.0
O217 O 0.52007 0.52785 0.12334 0.0
O218 O 0.54078 0.59743 0.02135 0.0
O219 O 0.58913 0.52073 0.04995 0.0
O220 O 0.57376 0.47626 0.93256 0.0
O221 O 0.53624 0.58959 0.13734 0.0
O222 O 0.51266 0.52428 0.90263 0.0
O223 O 0.53496 0.47805 0.86521 0.0
C224 C 0.45338 0.50342 0.98529 0.0
C225 C 0.56701 0.38363 0.96203 0.0
C226 C 0.58875 0.33589 0.96846 0.0
C227 C 0.62679 0.35131 0.96507 0.0
C228 C 0.6051 0.3984 0.95898 0.0
C229 C 0.63479 0.38226 0.9605 0.0
C230 C 0.55895 0.35249 0.96687 0.0
C231 C 0.52654 0.50223 0.13792 0.0
C232 C 0.53518 0.40018 0.96069 0.0
C233 C 0.36936 0.37668 0.75632 0.0
C234 C 0.35898 0.37996 0.83303 0.0
C235 C 0.60007 0.49944 0.99118 0.0
C236 C 0.53227 0.64268 0.13723 0.0
C237 C 0.52445 0.69542 0.13535 0.0
C238 C 0.52339 0.70459 0.21976 0.0
C239 C 0.53089 0.65288 0.22147 0.0
C240 C 0.52945 0.66431 0.09414 0.0
C241 C 0.52662 0.68354 0.26218 0.0
C242 C 0.51938 0.49958 0.84629 0.0
C243 C 0.5367 0.60951 0.09726 0.0
H244 H 0.65037 0.3393 0.96459 0.0
H245 H 0.61179 0.42233 0.95536 0.0
H246 H 0.66416 0.39372 0.95775 0.0
H247 H 0.52951 0.34142 0.97039 0.0
H248 H 0.52042 0.72839 0.25356 0.0
H249 H 0.53322 0.63713 0.25652 0.0
H250 H 0.53042 0.65689 0.02921 0.0
H251 H 0.5258 0.69106 0.32713 0.0
C252 C 1.0004 0.4833 0.69248 0.0
C253 C 1.02196 0.50941 0.76213 0.0
C254 C 1.003 0.48344 0.61338 0.0
C255 C 1.02681 0.50999 0.60193 0.0
C256 C 0.04783 0.53627 0.67164 0.0
C257 C 0.04544 0.53603 0.75076 0.0
C258 C 1.03203 0.51076 0.51909 0.0
C259 C 1.00802 0.49081 0.44812 0.0
C260 C 1.01388 0.49161 0.36576 0.0
C261 C 0.98162 0.47871 0.30014 0.0
C262 C 0.98572 0.47918 0.22193 0.0
C263 C 1.02225 0.49254 0.20771 0.0
H264 H 0.07676 0.51296 0.39843 0.0
C265 C 0.05487 0.50447 0.27236 0.0
C266 C 0.0508 0.504 0.35062 0.0
H267 H 0.08356 0.51417 0.26237 0.0
H268 H 0.98219 0.46228 0.69879 0.0
H269 H 0.98705 0.46224 0.56202 0.0
H270 H 0.06655 0.557 0.66495 0.0
H271 H 0.06248 0.55658 0.80293 0.0
H272 H 0.05619 0.52931 0.51728 0.0
H273 H 0.98189 0.47407 0.44969 0.0
H274 H 0.95296 0.46862 0.30963 0.0
H275 H 0.96011 0.46966 0.17297 0.0
C276 C 0.52415 0.99685 0.25492 0.0
C277 C 0.55279 0.01773 0.23422 0.0
C278 C 0.52577 0.9983 0.3366 0.0
C279 C 0.55627 0.02062 0.39947 0.0
C280 C 0.58397 0.04222 0.37898 0.0
C281 C 0.58238 0.04075 0.29752 0.0
C282 C 0.56028 0.02246 0.48697 0.0
C283 C 0.54478 0.99773 0.51061 0.0
C284 C 0.5503 0.99865 0.59755 0.0
C285 C 0.54055 0.96942 0.61197 0.0
C286 C 0.5446 0.96886 0.69204 0.0
C287 C 0.55831 0.99758 0.75982 0.0
H288 H 0.57115 0.05068 0.65849 0.0
C289 C 0.56841 0.02685 0.74602 0.0
C290 C 0.56418 0.02748 0.66586 0.0
H291 H 0.57867 0.0494 0.79733 0.0
H292 H 0.50078 0.97895 0.2079 0.0
H293 H 0.503 0.98194 0.34984 0.0
H294 H 0.6075 0.05994 0.42602 0.0
H295 H 0.60484 0.0574 0.2842 0.0
H296 H 0.57888 0.04446 0.53247 0.0
H297 H 0.52872 0.97498 0.46392 0.0
H298 H 0.52972 0.94682 0.56099 0.0
H299 H 0.53687 0.9459 0.70092 0.0
C300 C 0.53728 0.48361 0.70702 0.0
C301 C 0.51492 0.49909 0.76044 0.0
C302 C 0.5347 0.48457 0.62743 0.0
C303 C 0.51009 0.50159 0.59958 0.0
C304 C 0.48725 0.51657 0.65281 0.0
C305 C 0.48964 0.5154 0.73229 0.0
C306 C 0.50699 0.5041 0.51586 0.0
C307 C 0.53258 0.4965 0.46602 0.0
C308 C 0.52906 0.4982 0.38192 0.0
C309 C 0.54532 0.47765 0.32431 0.0
C310 C 0.54397 0.4788 0.24523 0.0
C311 C 0.52689 0.501 0.22189 0.0
H312 H 0.49969 0.53716 0.4023 0.0
C313 C 0.51072 0.52181 0.27961 0.0
C314 C 0.51169 0.52038 0.35889 0.0
H315 H 0.49742 0.53923 0.26366 0.0
H316 H 0.55743 0.47119 0.72712 0.0
H317 H 0.5521 0.47177 0.58867 0.0
H318 H 0.46776 0.52961 0.63322 0.0
H319 H 0.47196 0.52754 0.77203 0.0
H320 H 0.4826 0.51263 0.49482 0.0
H321 H 0.55693 0.48772 0.48565 0.0
H322 H 0.5591 0.46048 0.34047 0.0
H323 H 0.55688 0.46244 0.20278 0.0
C324 C 0.15799 0.49596 0.93335 0.0
C325 C 0.14214 0.50485 0.00504 0.0
C326 C 0.19829 0.49774 0.93783 0.0
C327 C 0.22409 0.50869 0.01452 0.0
C328 C 0.20812 0.51783 0.08602 0.0
C329 C 0.16783 0.51575 0.08143 0.0
C330 C 0.26771 0.51213 0.02316 0.0
C331 C 0.28552 0.49674 0.96341 0.0
C332 C 0.32901 0.49947 0.97206 0.0
C333 C 0.34227 0.47572 0.91572 0.0
C334 C 0.38238 0.47724 0.9198 0.0
C335 C 0.41075 0.50261 0.98026 0.0
H336 H 0.34896 0.54466 0.07537 0.0
C337 C 0.3978 0.5269 0.03568 0.0
C338 C 0.35749 0.52533 0.03196 0.0
H339 H 0.41886 0.54695 0.08268 0.0
H340 H 0.1393 0.48811 0.87347 0.0
H341 H 0.20906 0.49123 0.88094 0.0
H342 H 0.22692 0.52654 0.14612 0.0
H343 H 0.15678 0.52259 0.13802 0.0
H344 H 0.28555 0.52703 0.08293 0.0
H345 H 0.26735 0.47999 0.90575 0.0
H346 H 0.32146 0.45574 0.86794 0.0
H347 H 0.39118 0.45884 0.87413 0.0
C348 C 0.74655 0.1722 0.03293 0.0
C349 C 0.71707 0.17598 0.0797 0.0
C350 C 0.75965 0.19456 0.99593 0.0
C351 C 0.74368 0.2214 0.00538 0.0
C352 C 0.7132 0.22448 0.04951 0.0
C353 C 0.70017 0.20215 0.08667 0.0
C354 C 0.75796 0.24667 0.97054 0.0
C355 C 0.79424 0.2529 0.95385 0.0
C356 C 0.8095 0.27919 0.9231 0.0
C357 C 0.84087 0.27698 0.88129 0.0
C358 C 0.85704 0.3016 0.85366 0.0
C359 C 0.84243 0.32922 0.86798 0.0
H360 H 0.77176 0.31016 0.97227 0.0
C361 C 0.81118 0.33156 0.91031 0.0
C362 C 0.79493 0.30689 0.93775 0.0
H363 H 0.79982 0.35284 0.92394 0.0
H364 H 0.76017 0.1523 0.02635 0.0
H365 H 0.78215 0.19054 0.95994 0.0
H366 H 0.69993 0.24461 0.05675 0.0
H367 H 0.67693 0.20546 0.12108 0.0
H368 H 0.73816 0.26126 0.96125 0.0
H369 H 0.81408 0.23835 0.96317 0.0
H370 H 0.85285 0.25603 0.86964 0.0
H371 H 0.88082 0.29887 0.82054 0.0
C372 C 0.55919 0.90741 0.05074 0.0
C373 C 0.55499 0.91251 0.97522 0.0
C374 C 0.55439 0.87622 0.05321 0.0
C375 C 0.54587 0.84933 0.98011 0.0
C376 C 0.54273 0.85453 0.90464 0.0
C377 C 0.54678 0.88577 0.90216 0.0
C378 C 0.5417 0.81597 0.98193 0.0
C379 C 0.52453 0.80639 0.03801 0.0
C380 C 0.52133 0.77422 0.04718 0.0
C381 C 0.4923 0.76377 0.08749 0.0
C382 C 0.4916 0.73659 0.10976 0.0
C383 C 0.52038 0.71923 0.0937 0.0
H384 H 0.57173 0.76308 0.99537 0.0
C385 C 0.54809 0.72831 0.04865 0.0
C386 C 0.5486 0.75559 0.02555 0.0
H387 H 0.57083 0.71563 0.03594 0.0
H388 H 0.56584 0.92757 0.10814 0.0
H389 H 0.5581 0.87326 0.11256 0.0
H390 H 0.5366 0.83434 0.84743 0.0
H391 H 0.54397 0.88906 0.84314 0.0
H392 H 0.55172 0.79886 0.9347 0.0
H393 H 0.51136 0.82302 0.07953 0.0
H394 H 0.47085 0.77745 0.10482 0.0
H395 H 0.46954 0.73005 0.14347 0.0
C396 C 0.89384 0.52203 0.97572 0.0
C397 C 0.91049 0.49625 0.97652 0.0
C398 C 0.8534 0.51927 0.97284 0.0
C399 C 0.82814 0.49015 0.96784 0.0
C400 C 0.84449 0.46403 0.96569 0.0
C401 C 0.88499 0.46715 0.97129 0.0
C402 C 0.7846 0.48575 0.96072 0.0
C403 C 0.76774 0.50881 0.00192 0.0
C404 C 0.72435 0.50411 -0.00161 0.0
C405 C 0.71059 0.51963 0.06888 0.0
C406 C 0.67039 0.51701 0.0672 0.0
C407 C 0.64268 0.50007 0.99404 0.0
H408 H 0.70601 0.47385 0.86991 0.0
C409 C 0.65632 0.48404 0.92354 0.0
C410 C 0.69658 0.48587 0.92576 0.0
H411 H 0.63592 0.47053 0.86607 0.0
H412 H 0.91191 0.5443 0.97661 0.0
H413 H 0.8418 0.53967 0.9723 0.0
H414 H 0.82588 0.44113 0.96071 0.0
H415 H 0.89622 0.44648 0.97081 0.0
H416 H 0.76603 0.46197 0.92474 0.0
H417 H 0.78661 0.5315 0.04424 0.0
H418 H 0.73106 0.53369 0.12596 0.0
H419 H 0.66101 0.5284 0.12352 0.0
C420 C 0.26747 0.66821 0.07201 0.0
C421 C 0.23069 0.67036 0.09243 0.0
C422 C 0.29042 0.69293 0.05311 0.0
C423 C 0.27709 0.72044 0.05459 0.0
C424 C 0.24032 0.72248 0.07474 0.0
C425 C 0.21748 0.69786 0.09388 0.0
C426 C 0.29949 0.74676 0.03165 0.0
C427 C 0.3386 0.75334 0.03603 0.0
C428 C 0.36016 0.77892 0.00931 0.0
C429 C 0.3959 0.77616 0.98445 0.0
C430 C 0.41595 0.7987 0.95454 0.0
C431 C 0.40075 0.82464 0.94923 0.0
H432 H 0.31927 0.80952 0.02907 0.0
C433 C 0.36585 0.82818 0.97742 0.0
C434 C 0.34587 0.80571 0.00752 0.0
H435 H 0.35331 0.84786 0.97417 0.0
H436 H 0.27818 0.64707 0.0688 0.0
H437 H 0.31796 0.68986 0.03527 0.0
H438 H 0.22923 0.7433 0.07598 0.0
H439 H 0.18955 0.70052 0.11043 0.0
H440 H 0.28261 0.76114 0.01008 0.0
H441 H 0.35552 0.73887 0.05711 0.0
H442 H 0.40789 0.75605 0.98623 0.0
H443 H 0.44319 0.79563 0.93483 0.0
C444 C 0.60799 0.29284 0.01773 0.0
C445 C 0.58029 0.30256 0.97256 0.0
C446 C 0.60067 0.26137 0.01937 0.0
C447 C 0.56516 0.23863 0.97628 0.0
C448 C 0.53753 0.24841 0.9314 0.0
C449 C 0.54488 0.27984 0.92965 0.0
C450 C 0.55618 0.20432 0.97345 0.0
C451 C 0.57571 0.19338 0.02593 0.0
C452 C 0.56771 0.15901 0.02288 0.0
C453 C 0.59139 0.15152 0.081 0.0
C454 C 0.58645 0.11986 0.07995 0.0
C455 C 0.55746 0.09452 0.02079 0.0
H456 H 0.51884 0.13779 0.91829 0.0
C457 C 0.53309 0.1019 0.96349 0.0
C458 C 0.53811 0.13365 0.96434 0.0
H459 H 0.51054 0.08303 0.9167 0.0
H460 H 0.63549 0.30961 0.05222 0.0
H461 H 0.62338 0.25506 0.05333 0.0
H462 H 0.51005 0.23156 0.89688 0.0
H463 H 0.52304 0.28606 0.893 0.0
H464 H 0.53191 0.18775 0.92619 0.0
H465 H 0.59905 0.21042 0.07478 0.0
H466 H 0.61424 0.17026 0.12739 0.0
H467 H 0.6057 0.11526 0.12534 0.0
loop_
_geom_bond_atom_site_label_1
_geom_bond_atom_site_label_2
_geom_bond_distance
_geom_bond_site_symmetry_2
_ccdc_geom_bond_type
Eu0 N29 2.600 1_455 S
Eu0 N35 2.562 1_455 S
Eu0 O44 2.462 1_554 S
Eu0 O45 2.373 1_455 S
Eu0 O47 2.432 . S
Eu0 O48 2.290 1_454 S
Eu0 O52 2.335 . S
Eu0 O55 2.372 . S
Eu0 C64 2.787 . S
C1 N2 1.365 . S
C1 C4 1.405 . S
C1 C8 1.448 . S
N2 C1 1.365 . S
N2 C5 1.319 1_455 S
N2 Eu11 2.600 1_455 S
C3 C5 1.397 1_455 S
C3 C6 1.367 . S
C3 H23 0.931 . S
C4 C1 1.405 . S
C4 C6 1.403 . S
C4 C10 1.439 . S
C5 N2 1.319 1_655 S
C5 C3 1.397 1_655 S
C5 H16 0.930 . S
C6 C3 1.367 . S
C6 C4 1.403 . S
C6 H27 0.929 . S
C7 C8 1.430 . S
C7 C9 1.387 . S
C7 C13 1.404 1_556 S
C8 C1 1.448 . S
C8 C7 1.430 . S
C8 N12 1.351 . S
C9 C7 1.387 . S
C9 C10 1.374 . S
C9 H24 0.931 . S
C10 C4 1.439 . S
C10 C9 1.374 . S
C10 H25 0.931 . S
Eu11 N2 2.600 1_655 S
Eu11 N12 2.562 1_655 S
Eu11 O46 2.335 . S
Eu11 O49 2.372 . S
Eu11 O50 2.462 1_556 S
Eu11 O51 2.373 1_655 S
Eu11 O53 2.432 . S
Eu11 O54 2.291 1_656 S
Eu11 C75 2.787 . S
N12 C8 1.351 . S
N12 Eu11 2.562 1_455 S
N12 C14 1.325 1_556 S
C13 C7 1.404 1_554 S
C13 C15 1.366 . S
C13 H21 0.930 . S
C14 N12 1.325 1_554 S
C14 C15 1.416 . S
C14 H20 0.929 . S
C15 C13 1.366 . S
C15 C14 1.416 . S
C15 H17 0.930 . S
H16 C5 0.930 . S
H17 C15 0.930 . S
H18 C33 0.930 . S
H19 C40 0.930 . S
H20 C14 0.929 . S
H21 C13 0.930 . S
H22 C36 0.929 . S
H23 C3 0.931 . S
H24 C9 0.931 . S
H25 C10 0.931 . S
H26 C31 0.932 . S
H27 C6 0.929 . S
H28 C39 0.930 . S
N29 Eu0 2.600 1_655 S
N29 C30 1.365 . S
N29 C33 1.319 1_655 S
C30 N29 1.365 . S
C30 C32 1.405 . S
C30 C38 1.448 . S
C31 H26 0.932 . S
C31 C33 1.397 1_655 S
C31 C34 1.367 . S
C32 C30 1.405 . S
C32 C34 1.403 . S
C32 C65 1.439 . S
C33 H18 0.930 . S
C33 N29 1.319 1_455 S
C33 C31 1.397 1_455 S
C34 C31 1.367 . S
C34 C32 1.403 . S
C34 H41 0.929 . S
N35 Eu0 2.562 1_655 S
N35 C36 1.325 1_554 S
N35 C38 1.351 . S
C36 H22 0.929 . S
C36 N35 1.325 1_556 S
C36 C40 1.416 . S
C37 C38 1.430 . S
C37 C39 1.404 1_554 S
C37 C66 1.387 . S
C38 C30 1.448 . S
C38 N35 1.351 . S
C38 C37 1.430 . S
C39 H28 0.930 . S
C39 C37 1.404 1_556 S
C39 C40 1.366 . S
C40 H19 0.930 . S
C40 C36 1.416 . S
C40 C39 1.366 . S
H41 C34 0.929 . S
H42 C65 0.931 . S
H43 C66 0.931 . S
O44 Eu0 2.462 1_556 S
O44 C64 1.252 1_556 S
O45 Eu0 2.373 1_655 S
O45 C56 1.248 1_554 S
O46 Eu11 2.335 . S
O46 C56 1.264 . S
O47 Eu0 2.432 . S
O47 C64 1.268 . S
O48 Eu0 2.290 1_656 S
O48 C63 1.254 . S
O49 Eu11 2.372 . S
O49 C63 1.257 . S
O50 Eu11 2.462 1_554 S
O50 C75 1.252 1_554 S
O51 Eu11 2.373 1_455 S
O51 C67 1.249 1_556 S
O52 Eu0 2.335 . S
O52 C67 1.264 . S
O53 Eu11 2.432 . S
O53 C75 1.268 . S
O54 Eu11 2.291 1_454 S
O54 C74 1.255 . S
O55 Eu0 2.372 . S
O55 C74 1.257 . S
C56 O45 1.248 1_556 S
C56 O46 1.264 . S
C57 C60 1.382 . S
C57 C62 1.390 . S
C57 C64 1.506 . S
C58 C59 1.398 . S
C58 C62 1.392 . S
C59 C58 1.398 . S
C59 C61 1.372 . S
C59 H76 0.931 . S
C60 C57 1.382 . S
C60 C61 1.390 . S
C60 H77 0.931 . S
C61 C59 1.372 . S
C61 C60 1.390 . S
C61 H78 0.929 . S
C62 C57 1.390 . S
C62 C58 1.392 . S
C62 H79 0.930 1_554 S
C63 O48 1.254 . S
C63 O49 1.257 . S
C64 Eu0 2.787 . S
C64 O44 1.252 1_554 S
C64 O47 1.268 . S
C64 C57 1.506 . S
C65 C32 1.439 . S
C65 H42 0.931 . S
C65 C66 1.374 . S
C66 C37 1.387 . S
C66 H43 0.931 . S
C66 C65 1.374 . S
C67 O51 1.249 1_554 S
C67 O52 1.264 . S
C68 C71 1.382 . S
C68 C72 1.390 . S
C68 C75 1.506 . S
C69 C70 1.398 . S
C69 C72 1.392 . S
C70 C69 1.398 . S
C70 C73 1.372 . S
C70 H80 0.931 . S
C71 C68 1.382 . S
C71 C73 1.390 . S
C71 H81 0.931 . S
C72 C68 1.390 . S
C72 C69 1.392 . S
C72 H82 0.930 1_556 S
C73 C70 1.372 . S
C73 C71 1.390 . S
C73 H83 0.929 . S
C74 O54 1.255 . S
C74 O55 1.257 . S
C75 Eu11 2.787 . S
C75 O50 1.252 1_556 S
C75 O53 1.268 . S
C75 C68 1.506 . S
H76 C59 0.931 . S
H77 C60 0.931 . S
H78 C61 0.929 . S
H79 C62 0.930 1_556 S
H80 C70 0.931 . S
H81 C71 0.931 . S
H82 C72 0.930 1_554 S
H83 C73 0.929 . S
Eu84 N113 2.600 . S
Eu84 N119 2.562 1_566 S
Eu84 O128 2.462 1_556 S
Eu84 O129 2.373 1_565 S
Eu84 O131 2.432 . S
Eu84 O132 2.291 1_566 S
Eu84 O136 2.335 . S
Eu84 O139 2.372 . S
Eu84 C148 2.787 . S
C85 N86 1.365 1_565 S
C85 C88 1.405 . S
C85 C92 1.448 . S
N86 C85 1.365 1_545 S
N86 C89 1.319 . S
N86 Eu95 2.600 . S
C87 C89 1.397 . S
C87 C90 1.367 1_545 S
C87 H107 0.931 . S
C88 C85 1.405 . S
C88 C90 1.403 . S
C88 C94 1.439 . S
C89 N86 1.319 . S
C89 C87 1.397 . S
C89 H100 0.930 . S
C90 C87 1.367 1_565 S
C90 C88 1.403 . S
C90 H111 0.929 . S
C91 C92 1.430 1_556 S
C91 C93 1.387 1_556 S
C91 C97 1.404 . S
C92 C85 1.448 . S
C92 C91 1.430 1_554 S
C92 N96 1.351 1_554 S
C93 C91 1.387 1_554 S
C93 C94 1.374 . S
C93 H108 0.931 . S
C94 C88 1.439 . S
C94 C93 1.374 . S
C94 H109 0.931 . S
Eu95 N86 2.600 . S
Eu95 N96 2.562 1_544 S
Eu95 O130 2.335 . S
Eu95 O133 2.372 . S
Eu95 O134 2.462 1_554 S
Eu95 O135 2.373 1_545 S
Eu95 O137 2.432 . S
Eu95 O138 2.291 1_544 S
Eu95 C159 2.787 . S
N96 C92 1.351 1_556 S
N96 Eu95 2.562 1_566 S
N96 C98 1.325 . S
C97 C91 1.404 . S
C97 C99 1.366 . S
C97 H105 0.930 . S
C98 N96 1.325 . S
C98 C99 1.416 . S
C98 H104 0.929 . S
C99 C97 1.366 . S
C99 C98 1.416 . S
C99 H101 0.930 . S
H100 C89 0.930 . S
H101 C99 0.930 . S
H102 C117 0.930 . S
H103 C124 0.930 . S
H104 C98 0.929 . S
H105 C97 0.930 . S
H106 C120 0.929 . S
H107 C87 0.931 . S
H108 C93 0.931 . S
H109 C94 0.931 . S
H110 C115 0.931 . S
H111 C90 0.929 . S
H112 C123 0.930 . S
N113 Eu84 2.600 . S
N113 C114 1.365 1_565 S
N113 C117 1.319 . S
C114 N113 1.365 1_545 S
C114 C116 1.405 . S
C114 C122 1.448 . S
C115 H110 0.931 . S
C115 C117 1.397 . S
C115 C118 1.367 1_565 S
C116 C114 1.405 . S
C116 C118 1.403 . S
C116 C149 1.439 . S
C117 H102 0.930 . S
C117 N113 1.319 . S
C117 C115 1.397 . S
C118 C115 1.367 1_545 S
C118 C116 1.403 . S
C118 H125 0.929 . S
N119 Eu84 2.562 1_544 S
N119 C120 1.325 . S
N119 C122 1.351 1_554 S
C120 H106 0.929 . S
C120 N119 1.325 . S
C120 C124 1.416 . S
C121 C122 1.430 1_554 S
C121 C123 1.404 . S
C121 C150 1.387 1_554 S
C122 C114 1.448 . S
C122 N119 1.351 1_556 S
C122 C121 1.430 1_556 S
C123 H112 0.930 . S
C123 C121 1.404 . S
C123 C124 1.366 . S
C124 H103 0.930 . S
C124 C120 1.416 . S
C124 C123 1.366 . S
H125 C118 0.929 . S
H126 C149 0.931 . S
H127 C150 0.931 . S
O128 Eu84 2.462 1_554 S
O128 C148 1.252 1_554 S
O129 Eu84 2.373 1_545 S
O129 C140 1.249 1_556 S
O130 Eu95 2.335 . S
O130 C140 1.264 . S
O131 Eu84 2.432 . S
O131 C148 1.268 . S
O132 Eu84 2.291 1_544 S
O132 C147 1.255 . S
O133 Eu95 2.372 . S
O133 C147 1.257 . S
O134 Eu95 2.462 1_556 S
O134 C159 1.252 1_556 S
O135 Eu95 2.373 1_565 S
O135 C151 1.249 1_554 S
O136 Eu84 2.335 . S
O136 C151 1.264 . S
O137 Eu95 2.432 . S
O137 C159 1.268 . S
O138 Eu95 2.291 1_566 S
O138 C158 1.251 . S
O139 Eu84 2.372 . S
O139 C158 1.257 . S
C140 O129 1.249 1_554 S
C140 O130 1.264 . S
C141 C144 1.382 . S
C141 C146 1.390 1_556 S
C141 C148 1.506 . S
C142 C143 1.398 1_554 S
C142 C146 1.392 . S
C143 C142 1.398 1_556 S
C143 C145 1.372 . S
C143 H160 0.931 . S
C144 C141 1.382 . S
C144 C145 1.390 . S
C144 H161 0.931 . S
C145 C143 1.372 . S
C145 C144 1.390 . S
C145 H162 0.929 . S
C146 C141 1.390 1_554 S
C146 C142 1.392 . S
C146 H163 0.930 . S
C147 O132 1.255 . S
C147 O133 1.257 . S
C148 Eu84 2.787 . S
C148 O128 1.252 1_556 S
C148 O131 1.268 . S
C148 C141 1.506 . S
C149 C116 1.439 . S
C149 H126 0.931 . S
C149 C150 1.374 . S
C150 C121 1.387 1_556 S
C150 H127 0.931 . S
C150 C149 1.374 . S
C151 O135 1.249 1_556 S
C151 O136 1.264 . S
C152 C155 1.382 . S
C152 C156 1.390 1_554 S
C152 C159 1.506 . S
C153 C154 1.398 1_556 S
C153 C156 1.392 . S
C154 C153 1.398 1_554 S
C154 C157 1.372 . S
C154 H164 0.931 . S
C155 C152 1.382 . S
C155 C157 1.390 . S
C155 H165 0.931 . S
C156 C152 1.390 1_556 S
C156 C153 1.392 . S
C156 H166 0.930 . S
C157 C154 1.372 . S
C157 C155 1.390 . S
C157 H167 0.929 . S
C158 O138 1.251 . S
C158 O139 1.257 . S
C159 Eu95 2.787 . S
C159 O134 1.252 1_554 S
C159 O137 1.268 . S
C159 C152 1.506 . S
H160 C143 0.931 . S
H161 C144 0.931 . S
H162 C145 0.929 . S
H163 C146 0.930 . S
H164 C154 0.931 . S
H165 C155 0.931 . S
H166 C156 0.930 . S
H167 C157 0.929 . S
Eu168 N197 2.600 . S
Eu168 N203 2.562 . S
Eu168 O212 2.462 1_556 S
Eu168 O213 2.373 . S
Eu168 O215 2.432 . S
Eu168 O216 2.291 1_556 S
Eu168 O220 2.335 . S
Eu168 O223 2.372 . S
Eu168 C232 2.787 . S
C169 N170 1.365 . S
C169 C172 1.405 . S
C169 C176 1.448 . S
N170 C169 1.365 . S
N170 C173 1.319 . S
N170 Eu179 2.600 . S
C171 C173 1.397 . S
C171 C174 1.367 . S
C171 H191 0.931 . S
C172 C169 1.405 . S
C172 C174 1.403 . S
C172 C178 1.439 . S
C173 N170 1.319 . S
C173 C171 1.397 . S
C173 H184 0.930 . S
C174 C171 1.367 . S
C174 C172 1.403 . S
C174 H195 0.929 . S
C175 C176 1.430 . S
C175 C177 1.387 . S
C175 C181 1.416 . S
C176 C169 1.448 . S
C176 C175 1.430 . S
C176 N180 1.351 . S
C177 C175 1.387 . S
C177 C178 1.374 . S
C177 H192 0.931 . S
C178 C172 1.439 . S
C178 C177 1.374 . S
C178 H193 0.931 . S
Eu179 N170 2.600 . S
Eu179 N180 2.562 . S
Eu179 O214 2.335 . S
Eu179 O217 2.372 . S
Eu179 O218 2.462 1_554 S
Eu179 O219 2.373 . S
Eu179 O221 2.432 . S
Eu179 O222 2.291 1_554 S
Eu179 C243 2.787 . S
N180 C176 1.351 . S
N180 Eu179 2.562 . S
N180 C182 1.325 1_554 S
C181 C175 1.416 . S
C181 C183 1.359 1_554 S
C181 H189 0.925 1_554 S
C182 N180 1.325 1_556 S
C182 C183 1.416 . S
C182 H188 0.929 . S
C183 C181 1.359 1_556 S
C183 C182 1.416 . S
C183 H185 0.930 . S
H184 C173 0.930 . S
H185 C183 0.930 . S
H186 C201 0.930 . S
H187 C208 0.930 . S
H188 C182 0.929 . S
H189 C181 0.925 1_556 S
H190 C204 0.929 . S
H191 C171 0.931 . S
H192 C177 0.931 . S
H193 C178 0.931 . S
H194 C199 0.931 . S
H195 C174 0.929 . S
H196 C207 0.933 . S
N197 Eu168 2.600 . S
N197 C198 1.365 . S
N197 C201 1.319 . S
C198 N197 1.365 . S
C198 C200 1.405 . S
C198 C206 1.448 . S
C199 H194 0.931 . S
C199 C201 1.397 . S
C199 C202 1.367 . S
C200 C198 1.405 . S
C200 C202 1.403 . S
C200 C233 1.439 . S
C201 H186 0.930 . S
C201 N197 1.319 . S
C201 C199 1.397 . S
C202 C199 1.367 . S
C202 C200 1.403 . S
C202 H209 0.929 . S
N203 Eu168 2.562 . S
N203 C204 1.325 1_556 S
N203 C206 1.351 . S
C204 H190 0.929 . S
C204 N203 1.325 1_554 S
C204 C208 1.416 . S
C205 C206 1.430 . S
C205 C207 1.399 1_556 S
C205 C234 1.387 . S
C206 C198 1.448 . S
C206 N203 1.351 . S
C206 C205 1.430 . S
C207 H196 0.933 . S
C207 C205 1.399 1_554 S
C207 C208 1.369 . S
C208 H187 0.930 . S
C208 C204 1.416 . S
C208 C207 1.369 . S
H209 C202 0.929 . S
H210 C233 0.931 . S
H211 C234 0.931 . S
O212 Eu168 2.462 1_554 S
O212 C232 1.252 1_554 S
O213 Eu168 2.373 . S
O213 C224 1.249 . S
O214 Eu179 2.335 . S
O214 C224 1.264 1_554 S
O215 Eu168 2.432 . S
O215 C232 1.268 . S
O216 Eu168 2.291 1_554 S
O216 C231 1.255 . S
O217 Eu179 2.372 . S
O217 C231 1.257 . S
O218 Eu179 2.462 1_556 S
O218 C243 1.252 1_556 S
O219 Eu179 2.373 . S
O219 C235 1.249 . S
O220 Eu168 2.335 . S
O220 C235 1.264 1_556 S
O221 Eu179 2.432 . S
O221 C243 1.268 . S
O222 Eu179 2.291 1_556 S
O222 C242 1.255 . S
O223 Eu168 2.372 . S
O223 C242 1.257 . S
C224 O213 1.249 . S
C224 O214 1.264 1_556 S
C225 C228 1.382 . S
C225 C230 1.390 1_556 S
C225 C232 1.506 . S
C226 C227 1.398 . S
C226 C230 1.392 1_556 S
C227 C226 1.398 . S
C227 C229 1.372 . S
C227 H244 0.931 . S
C228 C225 1.382 . S
C228 C229 1.390 . S
C228 H245 0.931 . S
C229 C227 1.372 . S
C229 C228 1.390 . S
C229 H246 0.929 . S
C230 C225 1.390 1_554 S
C230 C226 1.392 1_554 S
C230 H247 0.930 . S
C231 O216 1.255 . S
C231 O217 1.257 . S
C232 Eu168 2.787 . S
C232 O212 1.252 1_556 S
C232 O215 1.268 . S
C232 C225 1.506 . S
C233 C200 1.439 . S
C233 H210 0.931 . S
C233 C234 1.374 . S
C234 C205 1.387 . S
C234 H211 0.931 . S
C234 C233 1.374 . S
C235 O219 1.249 . S
C235 O220 1.264 1_554 S
C236 C239 1.382 . S
C236 C240 1.388 1_554 S
C236 C243 1.506 . S
C237 C238 1.398 . S
C237 C240 1.392 1_554 S
C238 C237 1.398 . S
C238 C241 1.372 . S
C238 H248 0.931 . S
C239 C236 1.382 . S
C239 C241 1.390 . S
C239 H249 0.931 . S
C240 C236 1.388 1_556 S
C240 C237 1.392 1_556 S
C240 H250 0.931 . S
C241 C238 1.372 . S
C241 C239 1.390 . S
C241 H251 0.929 . S
C242 O222 1.255 . S
C242 O223 1.257 . S
C243 Eu179 2.787 . S
C243 O218 1.252 1_554 S
C243 O221 1.268 . S
C243 C236 1.506 . S
H244 C227 0.931 . S
H245 C228 0.931 . S
H246 C229 0.929 . S
H247 C230 0.930 . S
H248 C238 0.931 . S
H249 C239 0.931 . S
H250 C240 0.931 . S
H251 C241 0.929 . S
C252 C253 1.389 . S
C252 C254 1.383 . S
C252 H268 0.951 . S
C253 C252 1.389 . S
C253 C257 1.378 1_655 S
C254 C252 1.383 . S
C254 C255 1.402 1_655 S
C254 H269 0.951 . S
C255 C254 1.402 1_455 S
C255 C256 1.375 . S
C255 C258 1.481 . S
C256 C255 1.375 . S
C256 C257 1.367 . S
C256 H270 0.951 . S
C257 C253 1.378 1_455 S
C257 C256 1.367 . S
C257 H271 0.950 . S
C258 C255 1.481 . S
C258 C259 1.297 1_455 S
C258 H272 0.950 . S
C259 C258 1.297 1_655 S
C259 C260 1.479 . S
C259 H273 0.950 . S
C260 C259 1.479 . S
C260 C261 1.375 . S
C260 C266 1.404 1_655 S
C261 C260 1.375 . S
C261 C262 1.369 . S
C261 H274 0.950 . S
C262 C261 1.369 . S
C262 C263 1.392 . S
C262 H275 0.951 . S
C263 C262 1.392 . S
C263 C265 1.384 1_655 S
H264 C266 0.949 . S
C265 C263 1.384 1_455 S
C265 C266 1.385 . S
C265 H267 0.950 . S
C266 C260 1.404 1_455 S
C266 H264 0.949 . S
C266 C265 1.385 . S
H267 C265 0.950 . S
H268 C252 0.951 . S
H269 C254 0.951 . S
H270 C256 0.951 . S
H271 C257 0.950 . S
H272 C258 0.950 . S
H273 C259 0.950 . S
H274 C261 0.950 . S
H275 C262 0.951 . S
C276 C277 1.386 1_565 S
C276 C278 1.383 . S
C276 H292 0.951 . S
C277 C276 1.386 1_545 S
C277 C281 1.383 . S
C278 C276 1.383 . S
C278 C279 1.402 1_565 S
C278 H293 0.951 . S
C279 C278 1.402 1_545 S
C279 C280 1.375 . S
C279 C282 1.481 . S
C280 C279 1.375 . S
C280 C281 1.367 . S
C280 H294 0.951 . S
C281 C277 1.383 . S
C281 C280 1.367 . S
C281 H295 0.950 . S
C282 C279 1.481 . S
C282 C283 1.332 . S
C282 H296 0.950 . S
C283 C282 1.332 . S
C283 C284 1.468 . S
C283 H297 0.925 1_545 S
C284 C283 1.468 . S
C284 C285 1.375 1_545 S
C284 C290 1.404 . S
C285 C284 1.375 1_565 S
C285 C286 1.369 . S
C285 H298 0.950 . S
C286 C285 1.369 . S
C286 C287 1.392 . S
C286 H299 0.951 . S
C287 C286 1.392 . S
C287 C289 1.384 1_565 S
H288 C290 0.949 . S
C289 C287 1.384 1_545 S
C289 C290 1.385 . S
C289 H291 0.950 . S
C290 C284 1.404 . S
C290 H288 0.949 . S
C290 C289 1.385 . S
H291 C289 0.950 . S
H292 C276 0.951 . S
H293 C278 0.951 . S
H294 C280 0.951 . S
H295 C281 0.950 . S
H296 C282 0.950 . S
H297 C283 0.925 1_565 S
H298 C285 0.950 . S
H299 C286 0.951 . S
C300 C301 1.386 . S
C300 C302 1.383 . S
C300 H316 0.951 . S
C301 C300 1.386 . S
C301 C305 1.383 . S
C302 C300 1.383 . S
C302 C303 1.402 . S
C302 H317 0.951 . S
C303 C302 1.402 . S
C303 C304 1.375 . S
C303 C306 1.481 . S
C304 C303 1.375 . S
C304 C305 1.367 . S
C304 H318 0.951 . S
C305 C301 1.383 . S
C305 C304 1.367 . S
C305 H319 0.950 . S
C306 C303 1.481 . S
C306 C307 1.297 . S
C306 H320 0.950 . S
C307 C306 1.297 . S
C307 C308 1.479 . S
C307 H321 0.950 . S
C308 C307 1.479 . S
C308 C309 1.375 . S
C308 C314 1.404 . S
C309 C308 1.375 . S
C309 C310 1.369 . S
C309 H322 0.950 . S
C310 C309 1.369 . S
C310 C311 1.392 . S
C310 H323 0.951 . S
C311 C310 1.392 . S
C311 C313 1.384 . S
H312 C314 0.949 . S
C313 C311 1.384 . S
C313 C314 1.385 . S
C313 H315 0.950 . S
C314 C308 1.404 . S
C314 H312 0.949 . S
C314 C313 1.385 . S
H315 C313 0.950 . S
H316 C300 0.951 . S
H317 C302 0.951 . S
H318 C304 0.951 . S
H319 C305 0.950 . S
H320 C306 0.950 . S
H321 C307 0.950 . S
H322 C309 0.950 . S
H323 C310 0.951 . S
C324 C325 1.386 1_556 S
C324 C326 1.383 . S
C324 H340 0.951 . S
C325 C324 1.386 1_554 S
C325 C329 1.383 . S
C326 C324 1.383 . S
C326 C327 1.402 1_556 S
C326 H341 0.951 . S
C327 C326 1.402 1_554 S
C327 C328 1.375 . S
C327 C330 1.481 . S
C328 C327 1.375 . S
C328 C329 1.367 . S
C328 H342 0.951 . S
C329 C325 1.383 . S
C329 C328 1.367 . S
C329 H343 0.950 . S
C330 C327 1.481 . S
C330 C331 1.297 1_554 S
C330 H344 0.950 . S
C331 C330 1.297 1_556 S
C331 C332 1.479 . S
C331 H345 0.950 . S
C332 C331 1.479 . S
C332 C333 1.375 . S
C332 C338 1.404 1_556 S
C333 C332 1.375 . S
C333 C334 1.369 . S
C333 H346 0.950 . S
C334 C333 1.369 . S
C334 C335 1.392 . S
C334 H347 0.951 . S
C335 C334 1.392 . S
C335 C337 1.384 1_556 S
H336 C338 0.949 . S
C337 C335 1.384 1_554 S
C337 C338 1.385 . S
C337 H339 0.950 . S
C338 C332 1.404 1_554 S
C338 H336 0.949 . S
C338 C337 1.385 . S
H339 C337 0.950 . S
H340 C324 0.951 . S
H341 C326 0.951 . S
H342 C328 0.951 . S
H343 C329 0.950 . S
H344 C330 0.950 . S
H345 C331 0.950 . S
H346 C333 0.950 . S
H347 C334 0.951 . S
C348 C349 1.386 . S
C348 C350 1.383 . S
C348 H364 0.951 1_556 S
C349 C348 1.386 . S
C349 C353 1.383 . S
C350 C348 1.383 . S
C350 C351 1.402 . S
C350 H365 0.951 1_556 S
C351 C350 1.402 . S
C351 C352 1.375 . S
C351 C354 1.481 . S
C352 C351 1.375 . S
C352 C353 1.367 . S
C352 H366 0.951 . S
C353 C349 1.383 . S
C353 C352 1.367 . S
C353 H367 0.950 . S
C354 C351 1.481 . S
C354 C355 1.297 . S
C354 H368 0.950 . S
C355 C354 1.297 . S
C355 C356 1.479 . S
C355 H369 0.950 1_556 S
C356 C355 1.479 . S
C356 C357 1.375 1_556 S
C356 C362 1.404 . S
C357 C356 1.375 1_554 S
C357 C358 1.369 . S
C357 H370 0.950 . S
C358 C357 1.369 . S
C358 C359 1.392 . S
C358 H371 0.951 . S
C359 C358 1.392 . S
C359 C361 1.384 1_554 S
H360 C362 0.949 . S
C361 C359 1.384 1_556 S
C361 C362 1.385 . S
C361 H363 0.950 . S
C362 C356 1.404 . S
C362 H360 0.949 . S
C362 C361 1.385 . S
H363 C361 0.950 . S
H364 C348 0.951 1_554 S
H365 C350 0.951 1_554 S
H366 C352 0.951 . S
H367 C353 0.950 . S
H368 C354 0.950 . S
H369 C355 0.950 1_554 S
H370 C357 0.950 . S
H371 C358 0.951 . S
C372 C373 1.386 1_554 S
C372 C374 1.383 1_554 S
C372 H388 0.951 . S
C373 C372 1.386 1_556 S
C373 C377 1.383 . S
C374 C372 1.383 1_556 S
C374 C375 1.402 . S
C374 H389 0.951 1_556 S
C375 C374 1.402 . S
C375 C376 1.375 . S
C375 C378 1.481 . S
C376 C375 1.375 . S
C376 C377 1.367 . S
C376 H390 0.951 . S
C377 C373 1.383 . S
C377 C376 1.367 . S
C377 H391 0.950 . S
C378 C375 1.481 . S
C378 C379 1.297 . S
C378 H392 0.950 . S
C379 C378 1.297 . S
C379 C380 1.479 . S
C379 H393 0.950 . S
C380 C379 1.479 . S
C380 C381 1.375 1_556 S
C380 C386 1.404 . S
C381 C380 1.375 1_554 S
C381 C382 1.369 . S
C381 H394 0.950 . S
C382 C381 1.369 . S
C382 C383 1.392 1_554 S
C382 H395 0.951 . S
C383 C382 1.392 1_556 S
C383 C385 1.384 . S
H384 C386 0.949 . S
C385 C383 1.384 . S
C385 C386 1.385 . S
C385 H387 0.950 . S
C386 C380 1.404 . S
C386 H384 0.949 . S
C386 C385 1.385 . S
H387 C385 0.950 . S
H388 C372 0.951 . S
H389 C374 0.951 1_554 S
H390 C376 0.951 . S
H391 C377 0.950 . S
H392 C378 0.950 . S
H393 C379 0.950 . S
H394 C381 0.950 . S
H395 C382 0.951 . S
C396 C397 1.386 1_554 S
C396 C398 1.383 . S
C396 H412 0.951 . S
C397 C396 1.386 1_556 S
C397 C401 1.383 . S
C398 C396 1.383 . S
C398 C399 1.402 1_554 S
C398 H413 0.951 . S
C399 C398 1.402 1_556 S
C399 C400 1.375 . S
C399 C402 1.481 . S
C400 C399 1.375 . S
C400 C401 1.367 . S
C400 H414 0.951 . S
C401 C397 1.383 . S
C401 C400 1.367 . S
C401 H415 0.950 . S
C402 C399 1.481 . S
C402 C403 1.297 . S
C402 H416 0.950 . S
C403 C402 1.297 . S
C403 C404 1.479 . S
C403 H417 0.950 1_556 S
C404 C403 1.479 . S
C404 C405 1.375 1_556 S
C404 C410 1.404 . S
C405 C404 1.375 1_554 S
C405 C406 1.369 . S
C405 H418 0.950 . S
C406 C405 1.369 . S
C406 C407 1.397 . S
C406 H419 0.951 . S
C407 C406 1.397 . S
C407 C409 1.377 1_554 S
H408 C410 0.949 . S
C409 C407 1.377 1_556 S
C409 C410 1.385 . S
C409 H411 0.950 . S
C410 C404 1.404 . S
C410 H408 0.949 . S
C410 C409 1.385 . S
H411 C409 0.950 . S
H412 C396 0.951 . S
H413 C398 0.951 . S
H414 C400 0.951 . S
H415 C401 0.950 . S
H416 C402 0.950 . S
H417 C403 0.950 1_554 S
H418 C405 0.950 . S
H419 C406 0.951 . S
C420 C421 1.386 1_554 S
C420 C422 1.383 . S
C420 H436 0.951 . S
C421 C420 1.386 1_556 S
C421 C425 1.383 . S
C422 C420 1.383 . S
C422 C423 1.402 1_554 S
C422 H437 0.951 . S
C423 C422 1.402 1_556 S
C423 C424 1.375 . S
C423 C426 1.481 . S
C424 C423 1.375 . S
C424 C425 1.367 . S
C424 H438 0.951 . S
C425 C421 1.383 . S
C425 C424 1.367 . S
C425 H439 0.950 . S
C426 C423 1.481 . S
C426 C427 1.297 1_556 S
C426 H440 0.950 . S
C427 C426 1.297 1_554 S
C427 C428 1.479 . S
C427 H441 0.950 . S
C428 C427 1.479 . S
C428 C429 1.375 . S
C428 C434 1.404 1_554 S
C429 C428 1.375 . S
C429 C430 1.369 . S
C429 H442 0.950 . S
C430 C429 1.369 . S
C430 C431 1.392 . S
C430 H443 0.951 . S
C431 C430 1.392 . S
C431 C433 1.384 1_554 S
H432 C434 0.949 . S
C433 C431 1.384 1_556 S
C433 C434 1.385 . S
C433 H435 0.950 . S
C434 C428 1.404 1_556 S
C434 H432 0.949 . S
C434 C433 1.385 . S
H435 C433 0.950 . S
H436 C420 0.951 . S
H437 C422 0.951 . S
H438 C424 0.951 . S
H439 C425 0.950 . S
H440 C426 0.950 . S
H441 C427 0.950 . S
H442 C429 0.950 . S
H443 C430 0.951 . S
C444 C445 1.386 . S
C444 C446 1.383 . S
C444 H460 0.951 1_554 S
C445 C444 1.386 . S
C445 C449 1.383 . S
C446 C444 1.383 . S
C446 C447 1.402 . S
C446 H461 0.951 1_554 S
C447 C446 1.402 . S
C447 C448 1.375 . S
C447 C450 1.481 . S
C448 C447 1.375 . S
C448 C449 1.367 . S
C448 H462 0.951 . S
C449 C445 1.383 . S
C449 C448 1.367 . S
C449 H463 0.950 . S
C450 C447 1.481 . S
C450 C451 1.297 . S
C450 H464 0.950 . S
C451 C450 1.297 . S
C451 C452 1.479 . S
C451 H465 0.950 . S
C452 C451 1.479 . S
C452 C453 1.375 . S
C452 C458 1.404 . S
C453 C452 1.375 . S
C453 C454 1.369 . S
C453 H466 0.950 1_554 S
C454 C453 1.369 . S
C454 C455 1.392 . S
C454 H467 0.951 1_554 S
C455 C454 1.392 . S
C455 C457 1.384 . S
H456 C458 0.949 . S
C457 C455 1.384 . S
C457 C458 1.385 . S
C457 H459 0.950 . S
C458 C452 1.404 . S
C458 H456 0.949 . S
C458 C457 1.385 . S
H459 C457 0.950 . S
H460 C444 0.951 1_556 S
H461 C446 0.951 1_556 S
H462 C448 0.951 . S
H463 C449 0.950 . S
H464 C450 0.950 . S
H465 C451 0.950 . S
H466 C453 0.950 1_556 S
H467 C454 0.951 1_556 S
C253 C63 1.497 . S
C263 C74 1.478 1_655 S
C277 C147 1.508 . S
C287 C158 1.538 . S
C301 C242 1.462 . S
C311 C231 1.508 . S
C325 C67 2.267 . S
C335 C224 2.276 . S
C349 C153 0.853 . S
C359 C69 0.658 1_554 S
C373 C151 1.577 . S
C383 C237 1.478 1_556 S
C397 C56 2.279 . S
C407 C235 2.272 . S
C421 C58 0.852 1_556 S
C431 C142 0.705 . S
C445 C226 1.474 1_554 S
C455 C140 1.555 . S
