# Generated by pormake.
# Topology sxc, (6)-cn, num edge types: 1
# Building blocks:
#     Node 0, Type 0, BuildingBlock: BETDEL_clean_sbu_0, # of connection points: 6
#     Node 1, Type 0, BuildingBlock: BETDEL_clean_sbu_0, # of connection points: 6
#     Node 2, Type 0, BuildingBlock: BETDEL_clean_sbu_0, # of connection points: 6
#     Edge 3, Type (0, 0), BuildingBlock: TEMPAE_clean_linker_10, # of connection points: 2
#     Edge 4, Type (0, 0), BuildingBlock: TEMPAE_clean_linker_10, # of connection points: 2
#     Edge 5, Type (0, 0), BuildingBlock: TEMPAE_clean_linker_10, # of connection points: 2
#     Edge 6, Type (0, 0), BuildingBlock: TEMPAE_clean_linker_10, # of connection points: 2
#     Edge 7, Type (0, 0), BuildingBlock: TEMPAE_clean_linker_10, # of connection points: 2
#     Edge 8, Type (0, 0), BuildingBlock: TEMPAE_clean_linker_10, # of connection points: 2
#     Edge 9, Type (0, 0), BuildingBlock: TEMPAE_clean_linker_10, # of connection points: 2
#     Edge 10, Type (0, 0), BuildingBlock: TEMPAE_clean_linker_10, # of connection points: 2
#     Edge 11, Type (0, 0), BuildingBlock: TEMPAE_clean_linker_10, # of connection points: 2
# Relax obj value: 0.045
# Max RMSD: 0.049
# Mean RMSD: 0.037
data_MOF--net-sxc--node1-BETDEL_clean_sbu_0--edge1-TEMPAE_clean_linker_10
_symmetry_space_group_name_H-M    P1
_symmetry_Int_Tables_number       1
_symmetry_cell_setting            triclinic
loop_
_symmetry_equiv_pos_as_xyz
'x, y, z'
_cell_length_a     16.229858
_cell_length_b     15.729719
_cell_length_c     44.378176
_cell_angle_alpha  90.977563
_cell_angle_beta   93.962869
_cell_angle_gamma 113.6623
loop_
_atom_site_label
_atom_site_type_symbol
_atom_site_fract_x
_atom_site_fract_y
_atom_site_fract_z
_atom_type_partial_charge
Dy0 Dy 0.14235 0.05666 0.01825 0.0
C1 C 0.78119 0.83908 0.02906 0.0
C2 C 0.31578 0.18229 0.01444 0.0
Dy3 Dy 0.94612 0.9678 0.01663 0.0
O4 O 0.284 0.13678 0.038 0.0
O5 O 0.2538 0.15419 0.99203 0.0
O6 O 0.15118 1.00535 0.06452 0.0
O7 O 0.04736 0.04889 0.05231 0.0
C8 C 0.08062 0.01519 0.07308 0.0
C9 C 1.00322 1.00556 0.96115 0.0
O10 O 0.95551 0.1123 0.02516 0.0
O11 O 0.10269 0.17709 0.01212 0.0
O12 O 0.79654 0.88752 0.00509 0.0
O13 O 0.85467 0.86606 0.04682 0.0
O14 O 0.92908 1.00789 0.96952 0.0
O15 O 0.0405 0.97616 0.9821 0.0
O16 O 0.13364 0.91358 0.00775 0.0
O17 O 0.98858 0.84872 0.02249 0.0
C18 C 1.02786 0.18526 0.01866 0.0
C19 C 0.06299 0.84081 0.01532 0.0
Dy20 Dy 0.93373 1.0024 0.35342 0.0
C21 C 0.28875 0.15811 0.32481 0.0
C22 C 0.76432 0.97099 0.36875 0.0
Dy23 Dy 0.12155 0.09032 0.34466 0.0
O24 O 0.78382 0.93044 0.34638 0.0
O25 O 0.83894 0.01784 0.38504 0.0
O26 O 0.90404 0.93423 0.30677 0.0
O27 O 1.0043 0.06896 0.31398 0.0
C28 C 0.9663 1.00214 0.29477 0.0
C29 C 0.08948 0.09108 0.40341 0.0
O30 O 0.08478 0.20795 0.33245 0.0
O31 O 0.96305 0.15482 0.3605 0.0
O32 O 0.26592 0.18961 0.34852 0.0
O33 O 0.22045 0.08689 0.31242 0.0
O34 O 0.15184 0.15848 0.39122 0.0
O35 O 0.05094 0.02385 0.38432 0.0
O36 O 0.96149 0.87782 0.36222 0.0
O37 O 0.09959 0.9385 0.34177 0.0
C38 C 1.02268 0.22266 0.3465 0.0
C39 C 1.03128 0.86739 0.35176 0.0
Dy40 Dy 0.03821 0.94106 0.68356 0.0
C41 C 0.25308 0.31941 0.67863 0.0
C42 C 0.90851 0.76927 0.69401 0.0
Dy43 Dy 0.12458 0.14271 0.68423 0.0
O44 O 0.95283 0.78983 0.67001 0.0
O45 O 0.94109 0.84045 0.71309 0.0
O46 O 0.07945 0.92896 0.63743 0.0
O47 O 0.04427 0.04034 0.64836 0.0
C48 C 0.07398 1.00451 0.62826 0.0
C49 C 0.0874 0.07944 0.73939 0.0
O50 O 0.98102 0.13501 0.67497 0.0
O51 O 0.91902 0.98204 0.68766 0.0
O52 O 0.21118 0.28769 0.7025 0.0
O53 O 0.21873 0.25606 0.65679 0.0
O54 O 0.08019 0.15364 0.72967 0.0
O55 O 0.11784 0.04314 0.71956 0.0
O56 O 0.18173 0.94814 0.6914 0.0
O57 O 0.24496 0.10329 0.68097 0.0
C58 C 0.90923 0.05988 0.68132 0.0
C59 C 0.25407 0.02452 0.68636 0.0
C60 C 0.10932 0.3547 0.031 0.0
C61 C 1.02973 0.28007 0.01978 0.0
C62 C 0.11647 0.44658 0.03075 0.0
C63 C 0.04319 0.46488 0.01801 0.0
C64 C 0.96254 0.38967 0.00652 0.0
C65 C 0.95622 0.29781 0.00802 0.0
C66 C 0.20242 0.52391 0.04428 0.0
C67 C 0.88384 0.40645 0.99199 0.0
C68 C 1.02442 0.69075 0.04001 0.0
C69 C 0.06451 0.74762 0.01655 0.0
C70 C 1.01857 0.59942 0.04103 0.0
C71 C 0.05057 0.56261 0.01736 0.0
C72 C 0.09076 0.61973 0.99345 0.0
C73 C 0.09877 0.71235 0.99362 0.0
C74 C 0.97854 0.54257 0.06754 0.0
C75 C 0.12313 0.58226 0.96731 0.0
H76 H 0.16621 0.34103 0.04023 0.0
H77 H 0.89516 0.24025 0.99898 0.0
H78 H 0.23501 0.57264 0.02668 0.0
H79 H 0.18667 0.56427 0.06206 0.0
H80 H 0.25163 0.49749 0.05439 0.0
H81 H 0.82756 0.341 0.98299 0.0
H82 H 0.85787 0.44089 0.00864 0.0
H83 H 0.90632 0.45391 0.97318 0.0
H84 H 0.99799 0.71817 0.0578 0.0
H85 H 0.12848 0.75592 0.97524 0.0
H86 H 1.02743 0.5174 0.0786 0.0
H87 H 0.9171 0.48051 0.05963 0.0
H88 H 0.96018 0.58284 0.08468 0.0
H89 H 0.17759 0.56073 0.97555 0.0
H90 H 0.14913 0.63419 0.94987 0.0
H91 H 0.06699 0.5196 0.95657 0.0
C92 C 0.40076 0.12271 0.29875 0.0
C93 C 0.38222 0.17929 0.31944 0.0
C94 C 0.48097 0.11004 0.30293 0.0
C95 C 0.54157 0.15507 0.32831 0.0
C96 C 0.53077 0.22583 0.34541 0.0
C97 C 0.4504 0.23783 0.34054 0.0
C98 C 0.49395 0.03819 0.28313 0.0
C99 C 0.5969 0.27836 0.3717 0.0
C100 C 0.62079 0.99179 0.37036 0.0
C101 C 0.70722 0.01962 0.36093 0.0
C102 C 0.56668 0.03795 0.36047 0.0
C103 C 0.60132 0.11295 0.34097 0.0
C104 C 0.69009 0.14295 0.33242 0.0
C105 C 0.7415 0.09469 0.34218 0.0
C106 C 0.47183 1.00495 0.37019 0.0
C107 C 0.72993 0.22256 0.3119 0.0
H108 H 0.34862 0.0799 0.28173 0.0
H109 H 0.43668 0.28417 0.35584 0.0
H110 H 0.5656 0.06156 0.2782 0.0
H111 H 0.47528 0.97256 0.29515 0.0
H112 H 0.45114 0.02332 0.26142 0.0
H113 H 0.58921 0.34307 0.37831 0.0
H114 H 0.58462 0.23374 0.39144 0.0
H115 H 0.66748 0.29651 0.36624 0.0
H116 H 0.59528 0.93343 0.38479 0.0
H117 H 0.80821 0.11436 0.33444 0.0
H118 H 0.42241 0.97804 0.35012 0.0
H119 H 0.46122 0.06376 0.3808 0.0
H120 H 0.45727 0.949 0.38652 0.0
H121 H 0.71166 0.19568 0.28802 0.0
H122 H 0.80482 0.25511 0.31554 0.0
H123 H 0.70393 0.27705 0.3153 0.0
C124 C 0.7869 0.61516 0.67552 0.0
C125 C 0.81591 0.69618 0.69423 0.0
C126 C 0.69553 0.55208 0.67272 0.0
C127 C 0.63122 0.57261 0.68801 0.0
C128 C 0.66059 0.65439 0.70697 0.0
C129 C 0.75257 0.71422 0.71022 0.0
C130 C 0.66765 0.46406 0.65314 0.0
C131 C 0.59445 0.68047 0.72309 0.0
C132 C 0.38182 0.45352 0.65905 0.0
C133 C 0.34797 0.38796 0.68089 0.0
C134 C 0.47384 0.51507 0.6612 0.0
C135 C 0.53359 0.50769 0.68496 0.0
C136 C 0.49949 0.43957 0.70653 0.0
C137 C 0.40708 0.38185 0.70451 0.0
C138 C 0.50694 0.58863 0.63831 0.0
C139 C 0.56075 0.42709 0.73166 0.0
H140 H 0.83552 0.60157 0.66289 0.0
H141 H 0.77419 0.77781 0.7242 0.0
H142 H 0.62825 0.40283 0.6659 0.0
H143 H 0.62332 0.46603 0.63324 0.0
H144 H 0.7266 0.45424 0.645 0.0
H145 H 0.54563 0.69028 0.70622 0.0
H146 H 0.55515 0.62381 0.73749 0.0
H147 H 0.62842 0.74539 0.73752 0.0
H148 H 0.33623 0.45749 0.64062 0.0
H149 H 0.38134 0.32952 0.72103 0.0
H150 H 0.56072 0.57996 0.62615 0.0
H151 H 0.53698 0.65853 0.65002 0.0
H152 H 0.45195 0.58604 0.62147 0.0
H153 H 0.61761 0.41667 0.7221 0.0
H154 H 0.52461 0.36697 0.7454 0.0
H155 H 0.59026 0.49063 0.74683 0.0
C156 C 0.75444 1.0016 0.70216 0.0
C157 C 0.81488 0.05937 0.68233 0.0
C158 C 0.66515 0.99636 0.70353 0.0
C159 C 0.63066 0.04622 0.68345 0.0
C160 C 0.69112 0.1038 0.66295 0.0
C161 C 0.78198 0.11122 0.66315 0.0
C162 C 0.60816 0.93711 0.72692 0.0
C163 C 0.66057 0.1579 0.64038 0.0
C164 C 0.36642 0.95202 0.67481 0.0
C165 C 0.34905 0.02604 0.68686 0.0
C166 C 0.45622 0.95827 0.67276 0.0
C167 C 0.53293 0.03911 0.68439 0.0
C168 C 0.51489 0.11269 0.6975 0.0
C169 C 0.42487 0.10623 0.69775 0.0
C170 C 0.46698 0.87736 0.65746 0.0
C171 C 0.58996 0.19975 0.71158 0.0
H172 H 0.77762 0.96086 0.71727 0.0
H173 H 0.8264 0.15564 0.64745 0.0
H174 H 0.56658 0.97024 0.73675 0.0
H175 H 0.56198 0.86898 0.71612 0.0
H176 H 0.65023 0.92402 0.74557 0.0
H177 H 0.69886 0.16927 0.61994 0.0
H178 H 0.58743 0.12218 0.63324 0.0
H179 H 0.67355 0.22717 0.65078 0.0
H180 H 0.3097 0.88994 0.66581 0.0
H181 H 0.4139 0.16463 0.7071 0.0
H182 H 0.45166 0.82005 0.67325 0.0
H183 H 0.53575 0.89548 0.65016 0.0
H184 H 0.41768 0.85024 0.63733 0.0
H185 H 0.65168 0.18901 0.7189 0.0
H186 H 0.56765 0.22591 0.73151 0.0
H187 H 0.60726 0.25474 0.69492 0.0
C188 C 0.73202 0.67381 0.04038 0.0
C189 C 0.70924 0.7454 0.02954 0.0
C190 C 0.67033 0.58097 0.03689 0.0
C191 C 0.58238 0.5596 0.02337 0.0
C192 C 0.55786 0.63205 0.01332 0.0
C193 C 0.62261 0.72433 0.01587 0.0
C194 C 0.70012 0.50569 0.04701 0.0
C195 C 0.46353 0.61202 0.99987 0.0
C196 C 0.43907 0.31321 0.99215 0.0
C197 C 0.39033 0.27489 0.0169 0.0
C198 C 0.50341 0.40571 0.99405 0.0
C199 C 0.51551 0.46152 0.0208 0.0
C200 C 0.46524 0.42299 0.04563 0.0
C201 C 0.40468 0.32962 0.04358 0.0
C202 C 0.55831 0.44372 0.96753 0.0
C203 C 0.4737 0.48097 0.07411 0.0
H204 H 0.7999 0.68992 0.0503 0.0
H205 H 0.60571 0.77987 0.00721 0.0
H206 H 0.65867 0.46674 0.06505 0.0
H207 H 0.68973 0.45527 0.02782 0.0
H208 H 0.77234 0.53399 0.05574 0.0
H209 H 0.45431 0.67648 0.99442 0.0
H210 H 0.44835 0.56733 0.97887 0.0
H211 H 0.41351 0.57331 0.01588 0.0
H212 H 0.42692 0.2709 0.97144 0.0
H213 H 0.36522 0.30062 0.0625 0.0
H214 H 0.6314 0.47103 0.97494 0.0
H215 H 0.54451 0.50254 0.95861 0.0
H216 H 0.5433 0.39024 0.9489 0.0
H217 H 0.54371 0.50723 0.08483 0.0
H218 H 0.42684 0.44124 0.09087 0.0
H219 H 0.45932 0.54239 0.06846 0.0
C220 C 0.99318 0.3493 0.37181 0.0
C221 C 1.02048 0.31554 0.34667 0.0
C222 C 0.99651 0.43994 0.37309 0.0
C223 C 1.02458 0.49667 0.34812 0.0
C224 C 0.0494 0.4615 0.32226 0.0
C225 C 0.04864 0.37191 0.32208 0.0
C226 C 0.97173 0.47561 0.40138 0.0
C227 C 0.07613 0.51821 0.29469 0.0
C228 C 0.95055 0.69665 0.34186 0.0
C229 C 1.03101 0.77349 0.35064 0.0
C230 C 0.94798 0.60642 0.34032 0.0
C231 C 1.02709 0.59243 0.34892 0.0
C232 C 0.10836 0.6699 0.35822 0.0
C233 C 0.10977 0.75991 0.35837 0.0
C234 C 0.86089 0.52624 0.32917 0.0
C235 C 0.19333 0.65755 0.3685 0.0
H236 H 0.97199 0.30586 0.39092 0.0
H237 H 0.06896 0.34538 0.30249 0.0
H238 H 1.02841 0.54062 0.41039 0.0
H239 H 0.91249 0.49264 0.39606 0.0
H240 H 0.95542 0.42429 0.41931 0.0
H241 H 0.08945 0.47907 0.27592 0.0
H242 H 1.02177 0.54013 0.28656 0.0
H243 H 0.13773 0.58226 0.30059 0.0
H244 H 0.88984 0.70744 0.33554 0.0
H245 H 0.17179 0.81943 0.36533 0.0
H246 H 0.8367 0.47656 0.34728 0.0
H247 H 0.87245 0.48777 0.30985 0.0
H248 H 0.80681 0.54957 0.32183 0.0
H249 H 0.18016 0.61 0.38748 0.0
H250 H 0.24998 0.7245 0.37604 0.0
H251 H 0.21452 0.6251 0.34986 0.0
C252 C 0.92987 0.92842 0.24246 0.0
C253 C 0.98051 1.00547 0.26207 0.0
C254 C 0.94262 0.92943 0.21143 0.0
C255 C 1.0077 1.00948 0.19962 0.0
C256 C 0.05867 0.0878 0.21933 0.0
C257 C 0.04455 0.08481 0.25032 0.0
C258 C 0.88715 0.84429 0.19132 0.0
C259 C 0.12884 0.17443 0.20773 0.0
C260 C 0.10608 0.97968 0.12668 0.0
C261 C 0.05856 1.01068 0.10507 0.0
C262 C 0.09006 0.97885 0.15741 0.0
C263 C 1.02476 1.00978 0.1669 0.0
C264 C 0.9757 0.04018 0.14511 0.0
C265 C 0.99307 0.04012 0.11443 0.0
C266 C 0.14358 0.94539 0.17977 0.0
C267 C 0.90543 0.07351 0.15426 0.0
H268 H 0.88038 0.8668 0.25142 0.0
H269 H 0.08396 0.14451 0.26539 0.0
H270 H 0.85016 0.86299 0.17242 0.0
H271 H 0.93223 0.81622 0.18118 0.0
H272 H 0.83757 0.78863 0.20382 0.0
H273 H 0.16065 0.23041 0.22573 0.0
H274 H 0.18244 0.15783 0.19825 0.0
H275 H 0.09776 0.20096 0.18916 0.0
H276 H 0.15664 0.95658 0.11958 0.0
H277 H 0.95616 0.06418 0.09783 0.0
H278 H 0.09716 0.88601 0.19176 0.0
H279 H 0.18226 1.00156 0.1971 0.0
H280 H 0.19156 0.92316 0.16873 0.0
H281 H 0.85245 0.01781 0.16561 0.0
H282 H 0.87286 0.09451 0.13463 0.0
H283 H 0.93688 0.13371 0.17078 0.0
C284 C 1.01345 1.00967 0.44834 0.0
C285 C 0.08187 0.08525 0.43651 0.0
C286 C 1.00861 1.00168 0.47979 0.0
C287 C 0.07447 0.07028 0.4999 0.0
C288 C 0.14242 0.14782 0.48798 0.0
C289 C 0.14488 0.15466 0.45647 0.0
C290 C 0.93433 0.91854 0.49151 0.0
C291 C 0.2146 0.22191 0.50849 0.0
C292 C 1.03335 0.08049 0.58349 0.0
C293 C 0.07802 0.02775 0.59602 0.0
C294 C 1.03134 0.095 0.55222 0.0
C295 C 0.07649 0.05734 0.53323 0.0
C296 C 0.1238 1.0064 0.54608 0.0
C297 C 0.12332 0.99166 0.57719 0.0
C298 C 0.97926 0.14872 0.53938 0.0
C299 C 0.17433 0.96651 0.5269 0.0
H300 H 0.96416 0.95623 0.433 0.0
H301 H 0.19781 0.21345 0.44747 0.0
H302 H 0.96378 0.87422 0.50323 0.0
H303 H 0.8989 0.94143 0.50829 0.0
H304 H 0.88409 0.87572 0.4731 0.0
H305 H 0.25966 0.28037 0.49577 0.0
H306 H 0.18343 0.24995 0.52535 0.0
H307 H 0.25633 0.19114 0.52122 0.0
H308 H 0.9978 0.10804 0.59796 0.0
H309 H 0.15835 0.95125 0.58683 0.0
H310 H 0.92455 0.10376 0.52257 0.0
H311 H 1.02421 0.20889 0.52734 0.0
H312 H 0.94885 0.17454 0.55715 0.0
H313 H 0.12661 0.91533 0.50965 0.0
H314 H 0.21046 0.93152 0.54054 0.0
H315 H 0.22422 0.02247 0.51465 0.0
C316 C 0.11005 0.13656 0.79318 0.0
C317 C 0.08919 0.06194 0.77209 0.0
C318 C 0.10552 0.12281 0.82426 0.0
C319 C 0.07677 0.03163 0.83467 0.0
C320 C 0.05835 0.95604 0.81357 0.0
C321 C 0.06603 0.97231 0.78249 0.0
C322 C 0.1278 0.20582 0.84584 0.0
C323 C 1.02592 0.85761 0.82362 0.0
C324 C 0.10557 0.01214 0.92023 0.0
C325 C 1.02236 1.0072 0.92889 0.0
C326 C 0.1238 0.01728 0.88951 0.0
C327 C 0.05662 0.01573 0.867 0.0
C328 C 0.97152 1.00744 0.87571 0.0
C329 C 0.9559 1.00435 0.90646 0.0
C330 C 0.21589 0.02774 0.88126 0.0
C331 C 0.89743 1.00444 0.85259 0.0
H332 H 0.12923 0.2063 0.78532 0.0
H333 H 0.05004 0.91457 0.76625 0.0
H334 H 0.06523 0.20311 0.85522 0.0
H335 H 0.17457 0.20466 0.86512 0.0
H336 H 0.15916 0.27265 0.83464 0.0
H337 H 1.02325 0.80789 0.80511 0.0
H338 H 0.07054 0.85282 0.843 0.0
H339 H 0.95726 0.8363 0.83142 0.0
H340 H 0.1571 0.01434 0.9375 0.0
H341 H 0.89111 0.9998 0.91292 0.0
H342 H 0.25129 0.09716 0.87211 0.0
H343 H 0.20951 0.97513 0.86327 0.0
H344 H 0.25817 0.02049 0.901 0.0
H345 H 0.91771 0.07233 0.84189 0.0
H346 H 0.83261 0.98919 0.86275 0.0
H347 H 0.88622 0.95076 0.83439 0.0
loop_
_geom_bond_atom_site_label_1
_geom_bond_atom_site_label_2
_geom_bond_distance
_geom_bond_site_symmetry_2
_ccdc_geom_bond_type
Dy0 O4 2.398 . S
Dy0 O5 2.491 1_554 S
Dy0 O6 2.403 . S
Dy0 O7 2.664 1_545 S
Dy0 O11 2.326 . S
Dy0 O15 2.310 1_554 S
Dy0 O16 2.351 1_545 S
C1 O12 1.185 1_554 S
C1 O13 1.355 . S
C2 O4 1.185 . S
C2 O5 1.355 1_554 S
Dy3 O7 2.310 1_655 S
Dy3 O10 2.351 1_565 S
Dy3 O12 2.398 1_554 S
Dy3 O13 2.491 . S
Dy3 O14 2.403 1_554 S
Dy3 O15 2.664 1_664 S
Dy3 O17 2.326 1_554 S
O4 Dy0 2.398 . S
O4 C2 1.185 . S
O5 Dy0 2.491 1_556 S
O5 C2 1.355 1_556 S
O6 Dy0 2.403 . S
O6 C8 1.254 . S
O7 Dy0 2.664 1_565 S
O7 Dy3 2.310 1_455 S
O7 C8 1.268 1_565 S
C8 O6 1.254 . S
C8 O7 1.268 1_545 S
C9 O14 1.254 1_445 S
C9 O15 1.268 . S
O10 Dy3 2.351 1_545 S
O10 C18 1.249 1_655 S
O11 Dy0 2.326 . S
O11 C18 1.267 . S
O12 C1 1.185 1_556 S
O12 Dy3 2.398 1_556 S
O13 C1 1.355 . S
O13 Dy3 2.491 . S
O14 Dy3 2.403 1_556 S
O14 C9 1.254 1_665 S
O15 Dy0 2.310 1_556 S
O15 Dy3 2.664 1_446 S
O15 C9 1.268 . S
O16 Dy0 2.351 1_565 S
O16 C19 1.249 . S
O17 Dy3 2.326 1_556 S
O17 C19 1.267 1_656 S
C18 O10 1.249 1_455 S
C18 O11 1.267 . S
C19 O16 1.249 . S
C19 O17 1.267 1_454 S
Dy20 O24 2.398 . S
Dy20 O25 2.491 1_565 S
Dy20 O26 2.403 . S
Dy20 O27 2.664 1_665 S
Dy20 O31 2.326 1_565 S
Dy20 O35 2.310 1_565 S
Dy20 O36 2.351 . S
C21 O32 1.185 . S
C21 O33 1.355 . S
C22 O24 1.185 1_545 S
C22 O25 1.355 . S
Dy23 O27 2.310 . S
Dy23 O30 2.351 . S
Dy23 O32 2.398 . S
Dy23 O33 2.491 . S
Dy23 O34 2.403 . S
Dy23 O35 2.664 1_455 S
Dy23 O37 2.326 1_545 S
O24 Dy20 2.398 . S
O24 C22 1.185 1_565 S
O25 Dy20 2.491 1_545 S
O25 C22 1.355 . S
O26 Dy20 2.403 . S
O26 C28 1.254 1_565 S
O27 Dy20 2.664 1_445 S
O27 Dy23 2.310 . S
O27 C28 1.268 1_455 S
C28 O26 1.254 1_545 S
C28 O27 1.268 1_655 S
C29 O34 1.254 . S
C29 O35 1.268 1_455 S
O30 Dy23 2.351 . S
O30 C38 1.249 . S
O31 Dy20 2.326 1_545 S
O31 C38 1.267 1_655 S
O32 C21 1.185 . S
O32 Dy23 2.398 . S
O33 C21 1.355 . S
O33 Dy23 2.491 . S
O34 Dy23 2.403 . S
O34 C29 1.254 . S
O35 Dy20 2.310 1_545 S
O35 Dy23 2.664 1_655 S
O35 C29 1.268 1_655 S
O36 Dy20 2.351 . S
O36 C39 1.249 1_655 S
O37 Dy23 2.326 1_565 S
O37 C39 1.267 . S
C38 O30 1.249 . S
C38 O31 1.267 1_455 S
C39 O36 1.249 1_455 S
C39 O37 1.267 . S
Dy40 O44 2.398 . S
Dy40 O45 2.491 . S
Dy40 O46 2.403 . S
Dy40 O47 2.664 1_665 S
Dy40 O51 2.326 . S
Dy40 O55 2.310 1_565 S
Dy40 O56 2.351 1_655 S
C41 O52 1.185 . S
C41 O53 1.355 . S
C42 O44 1.185 . S
C42 O45 1.355 . S
Dy43 O47 2.310 . S
Dy43 O50 2.351 1_455 S
Dy43 O52 2.398 . S
Dy43 O53 2.491 . S
Dy43 O54 2.403 . S
Dy43 O55 2.664 1_455 S
Dy43 O57 2.326 . S
O44 Dy40 2.398 . S
O44 C42 1.185 . S
O45 Dy40 2.491 . S
O45 C42 1.355 . S
O46 Dy40 2.403 . S
O46 C48 1.254 1_665 S
O47 Dy40 2.664 1_445 S
O47 Dy43 2.310 . S
O47 C48 1.268 . S
C48 O46 1.254 1_445 S
C48 O47 1.268 . S
C49 O54 1.254 . S
C49 O55 1.268 1_455 S
O50 Dy43 2.351 1_655 S
O50 C58 1.249 . S
O51 Dy40 2.326 . S
O51 C58 1.267 1_565 S
O52 C41 1.185 . S
O52 Dy43 2.398 . S
O53 C41 1.355 . S
O53 Dy43 2.491 . S
O54 Dy43 2.403 . S
O54 C49 1.254 . S
O55 Dy40 2.310 1_545 S
O55 Dy43 2.664 1_655 S
O55 C49 1.268 1_655 S
O56 Dy40 2.351 1_455 S
O56 C59 1.249 1_565 S
O57 Dy43 2.326 . S
O57 C59 1.267 . S
C58 O50 1.249 . S
C58 O51 1.267 1_545 S
C59 O56 1.249 1_545 S
C59 O57 1.267 . S
C60 C61 1.391 . S
C60 C62 1.394 . S
C60 H76 0.931 . S
C61 C60 1.391 . S
C61 C65 1.376 1_454 S
C62 C60 1.394 . S
C62 C63 1.369 . S
C62 C66 1.531 . S
C63 C62 1.369 . S
C63 C64 1.410 1_454 S
C63 C71 1.503 . S
C64 C63 1.410 1_656 S
C64 C65 1.392 . S
C64 C67 1.511 . S
C65 C61 1.376 1_656 S
C65 C64 1.392 . S
C65 H77 0.929 . S
C66 C62 1.531 . S
C66 H78 0.960 . S
C66 H79 0.962 . S
C66 H80 0.960 . S
C67 C64 1.511 . S
C67 H81 0.961 . S
C67 H82 0.961 . S
C67 H83 0.961 . S
C68 C69 1.370 1_655 S
C68 C70 1.363 . S
C68 H84 0.931 . S
C69 C68 1.370 1_455 S
C69 C73 1.408 1_554 S
C70 C68 1.363 . S
C70 C71 1.370 1_655 S
C70 C74 1.524 . S
C71 C63 1.503 . S
C71 C70 1.370 1_455 S
C71 C72 1.403 1_554 S
C72 C71 1.403 1_556 S
C72 C73 1.404 . S
C72 C75 1.539 . S
C73 C69 1.408 1_556 S
C73 C72 1.404 . S
C73 H85 0.930 . S
C74 C70 1.524 . S
C74 H86 0.956 . S
C74 H87 0.961 . S
C74 H88 0.961 . S
C75 C72 1.539 . S
C75 H89 0.958 . S
C75 H90 0.961 . S
C75 H91 0.960 . S
H76 C60 0.931 . S
H77 C65 0.929 . S
H78 C66 0.960 . S
H79 C66 0.962 . S
H80 C66 0.960 . S
H81 C67 0.961 . S
H82 C67 0.961 . S
H83 C67 0.961 . S
H84 C68 0.931 . S
H85 C73 0.930 . S
H86 C74 0.956 . S
H87 C74 0.961 . S
H88 C74 0.961 . S
H89 C75 0.958 . S
H90 C75 0.961 . S
H91 C75 0.960 . S
C92 C93 1.391 1_565 S
C92 C94 1.394 . S
C92 H108 0.931 . S
C93 C92 1.391 1_545 S
C93 C97 1.376 . S
C94 C92 1.394 . S
C94 C95 1.369 1_565 S
C94 C98 1.531 . S
C95 C94 1.369 1_545 S
C95 C96 1.410 . S
C95 C103 1.503 . S
C96 C95 1.410 . S
C96 C97 1.392 . S
C96 C99 1.511 . S
C97 C93 1.376 . S
C97 C96 1.392 . S
C97 H109 0.929 . S
C98 C94 1.531 . S
C98 H110 0.960 . S
C98 H111 0.962 . S
C98 H112 0.960 . S
C99 C96 1.511 . S
C99 H113 0.961 . S
C99 H114 0.961 . S
C99 H115 0.961 . S
C100 C101 1.370 1_565 S
C100 C102 1.363 . S
C100 H116 0.931 . S
C101 C100 1.370 1_545 S
C101 C105 1.408 . S
C102 C100 1.363 . S
C102 C103 1.370 1_565 S
C102 C106 1.524 . S
C103 C95 1.503 . S
C103 C102 1.370 1_545 S
C103 C104 1.403 . S
C104 C103 1.403 . S
C104 C105 1.404 . S
C104 C107 1.539 . S
C105 C101 1.408 . S
C105 C104 1.404 . S
C105 H117 0.930 . S
C106 C102 1.524 . S
C106 H118 0.956 . S
C106 H119 0.961 . S
C106 H120 0.961 . S
C107 C104 1.539 . S
C107 H121 0.958 . S
C107 H122 0.961 . S
C107 H123 0.960 . S
H108 C92 0.931 . S
H109 C97 0.929 . S
H110 C98 0.960 . S
H111 C98 0.962 . S
H112 C98 0.960 . S
H113 C99 0.961 . S
H114 C99 0.961 . S
H115 C99 0.961 . S
H116 C100 0.931 . S
H117 C105 0.930 . S
H118 C106 0.956 . S
H119 C106 0.961 . S
H120 C106 0.961 . S
H121 C107 0.958 . S
H122 C107 0.961 . S
H123 C107 0.960 . S
C124 C125 1.391 . S
C124 C126 1.394 . S
C124 H140 0.931 . S
C125 C124 1.391 . S
C125 C129 1.376 . S
C126 C124 1.394 . S
C126 C127 1.369 . S
C126 C130 1.531 . S
C127 C126 1.369 . S
C127 C128 1.410 . S
C127 C135 1.503 . S
C128 C127 1.410 . S
C128 C129 1.392 . S
C128 C131 1.511 . S
C129 C125 1.376 . S
C129 C128 1.392 . S
C129 H141 0.929 . S
C130 C126 1.531 . S
C130 H142 0.960 . S
C130 H143 0.962 . S
C130 H144 0.960 . S
C131 C128 1.511 . S
C131 H145 0.961 . S
C131 H146 0.961 . S
C131 H147 0.961 . S
C132 C133 1.370 . S
C132 C134 1.363 . S
C132 H148 0.931 . S
C133 C132 1.370 . S
C133 C137 1.408 . S
C134 C132 1.363 . S
C134 C135 1.370 . S
C134 C138 1.524 . S
C135 C127 1.503 . S
C135 C134 1.370 . S
C135 C136 1.403 . S
C136 C135 1.403 . S
C136 C137 1.404 . S
C136 C139 1.539 . S
C137 C133 1.408 . S
C137 C136 1.404 . S
C137 H149 0.930 . S
C138 C134 1.524 . S
C138 H150 0.956 . S
C138 H151 0.961 . S
C138 H152 0.961 . S
C139 C136 1.539 . S
C139 H153 0.958 . S
C139 H154 0.961 . S
C139 H155 0.960 . S
H140 C124 0.931 . S
H141 C129 0.929 . S
H142 C130 0.960 . S
H143 C130 0.962 . S
H144 C130 0.960 . S
H145 C131 0.961 . S
H146 C131 0.961 . S
H147 C131 0.961 . S
H148 C132 0.931 . S
H149 C137 0.930 . S
H150 C138 0.956 . S
H151 C138 0.961 . S
H152 C138 0.961 . S
H153 C139 0.958 . S
H154 C139 0.961 . S
H155 C139 0.960 . S
C156 C157 1.391 1_565 S
C156 C158 1.394 . S
C156 H172 0.931 . S
C157 C156 1.391 1_545 S
C157 C161 1.376 . S
C158 C156 1.394 . S
C158 C159 1.369 1_565 S
C158 C162 1.531 . S
C159 C158 1.369 1_545 S
C159 C160 1.410 . S
C159 C167 1.503 . S
C160 C159 1.410 . S
C160 C161 1.392 . S
C160 C163 1.511 . S
C161 C157 1.376 . S
C161 C160 1.392 . S
C161 H173 0.929 . S
C162 C158 1.531 . S
C162 H174 0.960 . S
C162 H175 0.962 . S
C162 H176 0.960 . S
C163 C160 1.511 . S
C163 H177 0.961 . S
C163 H178 0.961 . S
C163 H179 0.961 . S
C164 C165 1.370 . S
C164 C166 1.363 . S
C164 H180 0.931 1_545 S
C165 C164 1.370 . S
C165 C169 1.408 . S
C166 C164 1.363 . S
C166 C167 1.370 . S
C166 C170 1.524 1_545 S
C167 C159 1.503 . S
C167 C166 1.370 . S
C167 C168 1.403 . S
C168 C167 1.403 . S
C168 C169 1.404 . S
C168 C171 1.539 . S
C169 C165 1.408 . S
C169 C168 1.404 . S
C169 H181 0.930 . S
C170 C166 1.524 1_565 S
C170 H182 0.956 . S
C170 H183 0.961 1_565 S
C170 H184 0.961 . S
C171 C168 1.539 . S
C171 H185 0.958 . S
C171 H186 0.961 . S
C171 H187 0.960 . S
H172 C156 0.931 . S
H173 C161 0.929 . S
H174 C162 0.960 . S
H175 C162 0.962 . S
H176 C162 0.960 . S
H177 C163 0.961 . S
H178 C163 0.961 . S
H179 C163 0.961 . S
H180 C164 0.931 1_565 S
H181 C169 0.930 . S
H182 C170 0.956 . S
H183 C170 0.961 1_545 S
H184 C170 0.961 . S
H185 C171 0.958 . S
H186 C171 0.961 . S
H187 C171 0.960 . S
C188 C189 1.391 . S
C188 C190 1.394 . S
C188 H204 0.931 . S
C189 C188 1.391 . S
C189 C193 1.376 1_554 S
C190 C188 1.394 . S
C190 C191 1.369 . S
C190 C194 1.531 . S
C191 C190 1.369 . S
C191 C192 1.410 1_554 S
C191 C199 1.503 . S
C192 C191 1.410 1_556 S
C192 C193 1.392 . S
C192 C195 1.511 . S
C193 C189 1.376 1_556 S
C193 C192 1.392 . S
C193 H205 0.929 . S
C194 C190 1.531 . S
C194 H206 0.960 . S
C194 H207 0.962 . S
C194 H208 0.960 . S
C195 C192 1.511 . S
C195 H209 0.961 . S
C195 H210 0.961 . S
C195 H211 0.961 . S
C196 C197 1.370 1_556 S
C196 C198 1.363 . S
C196 H212 0.931 . S
C197 C196 1.370 1_554 S
C197 C201 1.408 . S
C198 C196 1.363 . S
C198 C199 1.370 1_556 S
C198 C202 1.524 . S
C199 C191 1.503 . S
C199 C198 1.370 1_554 S
C199 C200 1.403 . S
C200 C199 1.403 . S
C200 C201 1.404 . S
C200 C203 1.539 . S
C201 C197 1.408 . S
C201 C200 1.404 . S
C201 H213 0.930 . S
C202 C198 1.524 . S
C202 H214 0.956 . S
C202 H215 0.961 . S
C202 H216 0.961 . S
C203 C200 1.539 . S
C203 H217 0.958 . S
C203 H218 0.961 . S
C203 H219 0.960 . S
H204 C188 0.931 . S
H205 C193 0.929 . S
H206 C194 0.960 . S
H207 C194 0.962 . S
H208 C194 0.960 . S
H209 C195 0.961 . S
H210 C195 0.961 . S
H211 C195 0.961 . S
H212 C196 0.931 . S
H213 C201 0.930 . S
H214 C202 0.956 . S
H215 C202 0.961 . S
H216 C202 0.961 . S
H217 C203 0.958 . S
H218 C203 0.961 . S
H219 C203 0.960 . S
C220 C221 1.391 1_655 S
C220 C222 1.394 . S
C220 H236 0.931 . S
C221 C220 1.391 1_455 S
C221 C225 1.376 . S
C222 C220 1.394 . S
C222 C223 1.369 1_655 S
C222 C226 1.531 . S
C223 C222 1.369 1_455 S
C223 C224 1.410 . S
C223 C231 1.503 . S
C224 C223 1.410 . S
C224 C225 1.392 . S
C224 C227 1.511 . S
C225 C221 1.376 . S
C225 C224 1.392 . S
C225 H237 0.929 . S
C226 C222 1.531 . S
C226 H238 0.960 . S
C226 H239 0.962 . S
C226 H240 0.960 . S
C227 C224 1.511 . S
C227 H241 0.961 . S
C227 H242 0.961 . S
C227 H243 0.961 . S
C228 C229 1.370 1_655 S
C228 C230 1.363 . S
C228 H244 0.931 . S
C229 C228 1.370 1_455 S
C229 C233 1.408 . S
C230 C228 1.363 . S
C230 C231 1.370 1_655 S
C230 C234 1.524 . S
C231 C223 1.503 . S
C231 C230 1.370 1_455 S
C231 C232 1.403 . S
C232 C231 1.403 . S
C232 C233 1.404 . S
C232 C235 1.539 . S
C233 C229 1.408 . S
C233 C232 1.404 . S
C233 H245 0.930 . S
C234 C230 1.524 . S
C234 H246 0.956 . S
C234 H247 0.961 . S
C234 H248 0.961 . S
C235 C232 1.539 . S
C235 H249 0.958 . S
C235 H250 0.961 . S
C235 H251 0.960 . S
H236 C220 0.931 . S
H237 C225 0.929 . S
H238 C226 0.960 . S
H239 C226 0.962 . S
H240 C226 0.960 . S
H241 C227 0.961 . S
H242 C227 0.961 . S
H243 C227 0.961 . S
H244 C228 0.931 . S
H245 C233 0.930 . S
H246 C234 0.956 . S
H247 C234 0.961 . S
H248 C234 0.961 . S
H249 C235 0.958 . S
H250 C235 0.961 . S
H251 C235 0.960 . S
C252 C253 1.391 1_565 S
C252 C254 1.394 . S
C252 H268 0.931 . S
C253 C252 1.391 1_545 S
C253 C257 1.376 1_455 S
C254 C252 1.394 . S
C254 C255 1.369 . S
C254 C258 1.531 . S
C255 C254 1.369 . S
C255 C256 1.410 1_465 S
C255 C263 1.503 . S
C256 C255 1.410 1_645 S
C256 C257 1.392 . S
C256 C259 1.511 . S
C257 C253 1.376 1_655 S
C257 C256 1.392 . S
C257 H269 0.929 . S
C258 C254 1.531 . S
C258 H270 0.960 . S
C258 H271 0.962 . S
C258 H272 0.960 . S
C259 C256 1.511 . S
C259 H273 0.961 . S
C259 H274 0.961 . S
C259 H275 0.961 . S
C260 C261 1.370 . S
C260 C262 1.363 . S
C260 H276 0.931 . S
C261 C260 1.370 . S
C261 C265 1.408 1_445 S
C262 C260 1.363 . S
C262 C263 1.370 1_545 S
C262 C266 1.524 . S
C263 C255 1.503 . S
C263 C262 1.370 1_565 S
C263 C264 1.403 1_455 S
C264 C263 1.403 1_655 S
C264 C265 1.404 . S
C264 C267 1.539 . S
C265 C261 1.408 1_665 S
C265 C264 1.404 . S
C265 H277 0.930 . S
C266 C262 1.524 . S
C266 H278 0.956 . S
C266 H279 0.961 . S
C266 H280 0.961 . S
C267 C264 1.539 . S
C267 H281 0.958 . S
C267 H282 0.961 . S
C267 H283 0.960 . S
H268 C252 0.931 . S
H269 C257 0.929 . S
H270 C258 0.960 . S
H271 C258 0.962 . S
H272 C258 0.960 . S
H273 C259 0.961 . S
H274 C259 0.961 . S
H275 C259 0.961 . S
H276 C260 0.931 . S
H277 C265 0.930 . S
H278 C266 0.956 . S
H279 C266 0.961 . S
H280 C266 0.961 . S
H281 C267 0.958 . S
H282 C267 0.961 . S
H283 C267 0.960 . S
C284 C285 1.391 1_665 S
C284 C286 1.394 . S
C284 H300 0.931 . S
C285 C284 1.391 1_445 S
C285 C289 1.376 . S
C286 C284 1.394 . S
C286 C287 1.369 1_665 S
C286 C290 1.531 . S
C287 C286 1.369 1_445 S
C287 C288 1.410 . S
C287 C295 1.503 . S
C288 C287 1.410 . S
C288 C289 1.392 . S
C288 C291 1.511 . S
C289 C285 1.376 . S
C289 C288 1.392 . S
C289 H301 0.929 . S
C290 C286 1.531 . S
C290 H302 0.960 . S
C290 H303 0.962 . S
C290 H304 0.960 . S
C291 C288 1.511 . S
C291 H305 0.961 . S
C291 H306 0.961 . S
C291 H307 0.961 . S
C292 C293 1.370 1_655 S
C292 C294 1.363 . S
C292 H308 0.931 . S
C293 C292 1.370 1_455 S
C293 C297 1.408 . S
C294 C292 1.363 . S
C294 C295 1.370 1_655 S
C294 C298 1.524 . S
C295 C287 1.503 . S
C295 C294 1.370 1_455 S
C295 C296 1.403 1_545 S
C296 C295 1.403 1_565 S
C296 C297 1.404 1_565 S
C296 C299 1.539 . S
C297 C293 1.408 . S
C297 C296 1.404 1_545 S
C297 H309 0.930 1_545 S
C298 C294 1.524 . S
C298 H310 0.956 . S
C298 H311 0.961 . S
C298 H312 0.961 . S
C299 C296 1.539 . S
C299 H313 0.958 . S
C299 H314 0.961 . S
C299 H315 0.960 . S
H300 C284 0.931 . S
H301 C289 0.929 . S
H302 C290 0.960 . S
H303 C290 0.962 . S
H304 C290 0.960 . S
H305 C291 0.961 . S
H306 C291 0.961 . S
H307 C291 0.961 . S
H308 C292 0.931 . S
H309 C297 0.930 1_565 S
H310 C298 0.956 . S
H311 C298 0.961 . S
H312 C298 0.961 . S
H313 C299 0.958 . S
H314 C299 0.961 . S
H315 C299 0.960 . S
C316 C317 1.391 . S
C316 C318 1.394 . S
C316 H332 0.931 . S
C317 C316 1.391 . S
C317 C321 1.376 1_455 S
C318 C316 1.394 . S
C318 C319 1.369 . S
C318 C322 1.531 . S
C319 C318 1.369 . S
C319 C320 1.410 1_455 S
C319 C327 1.503 . S
C320 C319 1.410 1_655 S
C320 C321 1.392 . S
C320 C323 1.511 1_545 S
C321 C317 1.376 1_655 S
C321 C320 1.392 . S
C321 H333 0.929 1_545 S
C322 C318 1.531 . S
C322 H334 0.960 . S
C322 H335 0.962 . S
C322 H336 0.960 . S
C323 C320 1.511 1_565 S
C323 H337 0.961 . S
C323 H338 0.961 . S
C323 H339 0.961 1_565 S
C324 C325 1.370 1_565 S
C324 C326 1.363 . S
C324 H340 0.931 . S
C325 C324 1.370 1_545 S
C325 C329 1.408 . S
C326 C324 1.363 . S
C326 C327 1.370 1_565 S
C326 C330 1.524 . S
C327 C319 1.503 . S
C327 C326 1.370 1_545 S
C327 C328 1.403 . S
C328 C327 1.403 . S
C328 C329 1.404 . S
C328 C331 1.539 1_455 S
C329 C325 1.408 . S
C329 C328 1.404 . S
C329 H341 0.930 . S
C330 C326 1.524 . S
C330 H342 0.956 . S
C330 H343 0.961 1_455 S
C330 H344 0.961 . S
C331 C328 1.539 1_655 S
C331 H345 0.958 1_655 S
C331 H346 0.961 . S
C331 H347 0.960 . S
H332 C316 0.931 . S
H333 C321 0.929 1_565 S
H334 C322 0.960 . S
H335 C322 0.962 . S
H336 C322 0.960 . S
H337 C323 0.961 . S
H338 C323 0.961 . S
H339 C323 0.961 1_545 S
H340 C324 0.931 . S
H341 C329 0.930 . S
H342 C330 0.956 . S
H343 C330 0.961 1_655 S
H344 C330 0.961 . S
H345 C331 0.958 1_455 S
H346 C331 0.961 . S
H347 C331 0.960 . S
C61 C18 1.868 . S
C69 C19 1.857 . S
C93 C21 0.645 . S
C101 C22 0.685 . S
C125 C42 1.170 . S
C133 C41 1.167 . S
C157 C58 2.425 . S
C165 C59 2.421 . S
C189 C1 1.130 . S
C197 C2 1.154 . S
C221 C38 1.867 . S
C229 C39 1.863 . S
C253 C28 1.439 1_455 S
C261 C8 1.474 . S
C285 C29 1.441 . S
C293 C48 1.447 . S
C317 C49 1.441 . S
C325 C9 1.453 . S
