# Generated by pormake.
# Topology bsn, (6)-cn, num edge types: 1
# Building blocks:
#     Node 0, Type 0, BuildingBlock: VOLQOD_clean_sbu_1, # of connection points: 6
#     Node 1, Type 0, BuildingBlock: VOLQOD_clean_sbu_1, # of connection points: 6
#     Node 2, Type 0, BuildingBlock: VOLQOD_clean_sbu_1, # of connection points: 6
#     Node 3, Type 0, BuildingBlock: VOLQOD_clean_sbu_1, # of connection points: 6
#     Edge 4, Type (0, 0), BuildingBlock: FUNLAD_clean_linker_0, # of connection points: 2
#     Edge 5, Type (0, 0), BuildingBlock: FUNLAD_clean_linker_0, # of connection points: 2
#     Edge 6, Type (0, 0), BuildingBlock: FUNLAD_clean_linker_0, # of connection points: 2
#     Edge 7, Type (0, 0), BuildingBlock: FUNLAD_clean_linker_0, # of connection points: 2
#     Edge 8, Type (0, 0), BuildingBlock: FUNLAD_clean_linker_0, # of connection points: 2
#     Edge 9, Type (0, 0), BuildingBlock: FUNLAD_clean_linker_0, # of connection points: 2
#     Edge 10, Type (0, 0), BuildingBlock: FUNLAD_clean_linker_0, # of connection points: 2
#     Edge 11, Type (0, 0), BuildingBlock: FUNLAD_clean_linker_0, # of connection points: 2
#     Edge 12, Type (0, 0), BuildingBlock: FUNLAD_clean_linker_0, # of connection points: 2
#     Edge 13, Type (0, 0), BuildingBlock: FUNLAD_clean_linker_0, # of connection points: 2
#     Edge 14, Type (0, 0), BuildingBlock: FUNLAD_clean_linker_0, # of connection points: 2
#     Edge 15, Type (0, 0), BuildingBlock: FUNLAD_clean_linker_0, # of connection points: 2
# Relax obj value: 0.019
# Max RMSD: 0.063
# Mean RMSD: 0.061
data_MOF--net-bsn--node1-VOLQOD_clean_sbu_1--edge1-FUNLAD_clean_linker_0
_symmetry_space_group_name_H-M    P1
_symmetry_Int_Tables_number       1
_symmetry_cell_setting            triclinic
loop_
_symmetry_equiv_pos_as_xyz
'x, y, z'
_cell_length_a     37.80858
_cell_length_b     37.971552
_cell_length_c     19.696246
_cell_angle_alpha  90.035328
_cell_angle_beta   89.862556
_cell_angle_gamma 89.309652
loop_
_atom_site_label
_atom_site_type_symbol
_atom_site_fract_x
_atom_site_fract_y
_atom_site_fract_z
_atom_type_partial_charge
O0 O 0.02936 0.2496 0.51343 0.0
Zn1 Zn 0.03858 0.26358 0.41623 0.0
O2 O 0.00243 0.24467 0.35729 0.0
Zn3 Zn 0.02297 0.20955 0.2969 0.0
Zn4 Zn 0.96599 0.22281 0.41149 0.0
Zn5 Zn 0.98192 0.28255 0.30369 0.0
O6 O 0.01043 0.22051 0.1999 0.0
O7 O 0.99679 0.27762 0.20564 0.0
O8 O 0.08762 0.2495 0.38392 0.0
O9 O 0.07584 0.21218 0.30034 0.0
O10 O 0.00923 0.15998 0.32325 0.0
O11 O 0.97068 0.17022 0.40621 0.0
O12 O 0.91713 0.23647 0.37782 0.0
O13 O 0.03599 0.31635 0.41653 0.0
O14 O 0.92909 0.27842 0.30299 0.0
O15 O 0.99452 0.33049 0.34137 0.0
C16 C 0.00066 0.24142 0.54346 0.0
C17 C 0.00407 0.25 0.17116 0.0
C18 C 0.98846 0.14887 0.36938 0.0
C19 C 0.09789 0.229 0.33631 0.0
C20 C 0.907 0.25901 0.33377 0.0
C21 C 0.01711 0.33933 0.38603 0.0
O22 O 0.97274 0.23415 0.51027 0.0
O23 O 0.02739 0.73135 0.4474 0.0
Zn24 Zn 0.0341 0.7206 0.54652 0.0
O25 O -0.00122 0.74506 0.60072 0.0
Zn26 Zn 0.02132 0.78049 0.65636 0.0
Zn27 Zn 0.96439 0.7674 0.54129 0.0
Zn28 Zn 0.97527 0.71151 0.65921 0.0
O29 O 0.00603 0.77534 0.7538 0.0
O30 O 0.9888 0.71952 0.75687 0.0
O31 O 0.08362 0.7312 0.57849 0.0
O32 O 0.07409 0.77238 0.65673 0.0
O33 O 0.0109 0.82985 0.62158 0.0
O34 O 0.97191 0.81956 0.54003 0.0
O35 O 0.91423 0.75912 0.57411 0.0
O36 O 0.02734 0.66851 0.55318 0.0
O37 O 0.92292 0.72041 0.657 0.0
O38 O 0.98485 0.66107 0.62956 0.0
C39 C -0.00018 0.74057 0.4144 0.0
C40 C 0.99697 0.74804 0.78696 0.0
C41 C 0.99077 0.84079 0.57397 0.0
C42 C 0.09508 0.75212 0.62383 0.0
C43 C 0.90233 0.73987 0.62185 0.0
C44 C 0.00681 0.64851 0.58639 0.0
O45 O 0.97192 0.75163 0.44457 0.0
O46 O 0.49304 0.72493 0.71534 0.0
Zn47 Zn 0.4778 0.71553 0.81145 0.0
O48 O 0.4995 0.74926 0.87165 0.0
Zn49 Zn 0.53413 0.72647 0.9293 0.0
Zn50 Zn 0.5222 0.78575 0.81885 0.0
Zn51 Zn 0.4636 0.76952 0.92971 0.0
O52 O 0.52588 0.73884 0.02791 0.0
O53 O 0.4683 0.75138 0.02513 0.0
O54 O 0.48941 0.66536 0.84036 0.0
O55 O 0.52785 0.67437 0.92357 0.0
O56 O 0.584 0.73685 0.89839 0.0
O57 O 0.57489 0.77806 0.82031 0.0
O58 O 0.51116 0.83431 0.85787 0.0
O59 O 0.42487 0.72266 0.81078 0.0
O60 O 0.47153 0.82124 0.93717 0.0
O61 O 0.41458 0.76171 0.89256 0.0
C62 C 0.50186 0.75345 0.68591 0.0
C63 C 0.49643 0.74423 0.05819 0.0
C64 C 0.59572 0.75782 0.85331 0.0
C65 C 0.50976 0.65365 0.88701 0.0
C66 C 0.49075 0.84353 0.90665 0.0
C67 C 0.40357 0.74215 0.84464 0.0
O68 O 0.50951 0.78102 0.71974 0.0
O69 O 0.50377 0.22195 0.26835 0.0
Zn70 Zn 0.51939 0.21453 0.17104 0.0
O71 O 0.49946 0.25108 0.11329 0.0
Zn72 Zn 0.46461 0.23131 0.05341 0.0
Zn73 Zn 0.47726 0.28709 0.16866 0.0
Zn74 Zn 0.53624 0.27152 0.0581 0.0
O75 O 0.47359 0.2457 0.95663 0.0
O76 O 0.53133 0.2561 0.96058 0.0
O77 O 0.50805 0.1657 0.13499 0.0
O78 O 0.4705 0.17908 0.05216 0.0
O79 O 0.41474 0.2429 0.08439 0.0
O80 O 0.42453 0.28339 0.1632 0.0
O81 O 0.49098 0.33587 0.13812 0.0
O82 O 0.57216 0.21928 0.17357 0.0
O83 O 0.53037 0.32414 0.0571 0.0
O84 O 0.5847 0.25976 0.0961 0.0
C85 C 0.49511 0.25036 0.29927 0.0
C86 C 0.50317 0.25042 0.92691 0.0
C87 C 0.40337 0.26451 0.12918 0.0
C88 C 0.4883 0.15646 0.08579 0.0
C89 C 0.51193 0.34607 0.0915 0.0
C90 C 0.59444 0.23834 0.14248 0.0
O91 O 0.48815 0.2787 0.267 0.0
C92 C 0.99306 0.40116 0.39335 0.0
C93 C 0.02045 0.37671 0.40612 0.0
C94 C 0.99524 0.43574 0.41755 0.0
C95 C 0.02505 0.44657 0.45443 0.0
C96 C 0.0529 0.42249 0.46495 0.0
C97 C 0.0505 0.38785 0.44174 0.0
C98 C 0.02848 0.48299 0.48075 0.0
C99 C 0.00063 0.50276 0.50128 0.0
C100 C 0.00414 0.53941 0.52687 0.0
C101 C 0.97812 0.5534 0.57058 0.0
C102 C 0.97963 0.58845 0.59239 0.0
C103 C 0.00698 0.61039 0.57003 0.0
H104 H 0.05192 0.5518 0.47053 0.0
C105 C 0.03329 0.59618 0.52708 0.0
C106 C 0.03188 0.56119 0.50564 0.0
H107 H 0.05466 0.61234 0.50853 0.0
H108 H 0.96959 0.3934 0.36598 0.0
H109 H 0.97374 0.45396 0.4068 0.0
H110 H 0.07634 0.4303 0.49241 0.0
H111 H 0.07219 0.36974 0.45203 0.0
H112 H 0.0551 0.49293 0.48684 0.0
H113 H 0.97439 0.49139 0.50159 0.0
H114 H 0.95634 0.53726 0.58737 0.0
H115 H 0.95879 0.5986 0.62506 0.0
C116 C 0.64599 0.77601 0.77839 0.0
C117 C 0.63363 0.75623 0.83376 0.0
C118 C 0.6806 0.77162 0.75447 0.0
C119 C 0.70394 0.74745 0.7858 0.0
C120 C 0.69181 0.72846 0.84236 0.0
C121 C 0.65714 0.73278 0.86613 0.0
C122 C 0.74043 0.73995 0.76006 0.0
C123 C 0.75751 0.75973 0.71366 0.0
C124 C 0.79409 0.75205 0.68854 0.0
C125 C 0.80618 0.7697 0.63033 0.0
C126 C 0.84091 0.76491 0.60698 0.0
C127 C 0.86445 0.74234 0.64149 0.0
H128 H 0.81012 0.71536 0.76819 0.0
C129 C 0.85216 0.72407 0.69882 0.0
C130 C 0.81758 0.72897 0.72232 0.0
H131 H 0.86959 0.70666 0.72711 0.0
H132 H 0.62858 0.79418 0.75187 0.0
H133 H 0.68819 0.78651 0.7102 0.0
H134 H 0.70906 0.70968 0.86771 0.0
H135 H 0.64856 0.71704 0.90881 0.0
H136 H 0.75338 0.71671 0.7806 0.0
H137 H 0.74455 0.78283 0.69256 0.0
H138 H 0.78883 0.78771 0.60323 0.0
H139 H 0.84947 0.77952 0.56281 0.0
C140 C 0.5296 0.39467 0.01308 0.0
C141 C 0.51352 0.38394 0.07402 0.0
C142 C 0.5295 0.43012 -0.00571 0.0
C143 C 0.51344 0.45567 0.03624 0.0
C144 C 0.49828 0.44514 0.098 0.0
C145 C 0.49799 0.4096 0.11646 0.0
C146 C 0.51322 0.49356 0.01807 0.0
C147 C 0.51232 0.50516 0.95342 0.0
C148 C 0.51241 0.54316 0.93602 0.0
C149 C 0.49496 0.55497 0.87727 0.0
C150 C 0.49421 0.59082 0.86063 0.0
C151 C 0.51147 0.61542 0.90194 0.0
H152 H 0.54505 0.55934 0.02079 0.0
C153 C 0.52986 0.6033 0.95956 0.0
C154 C 0.53032 0.56765 0.97642 0.0
H155 H 0.54369 0.62141 -0.00763 0.0
H156 H 0.5419 0.37563 0.97924 0.0
H157 H 0.54239 0.43744 0.94733 0.0
H158 H 0.48613 0.46442 0.13159 0.0
H159 H 0.48554 0.40224 0.16388 0.0
H160 H 0.51204 0.51244 0.05952 0.0
H161 H 0.50972 0.48643 0.91207 0.0
H162 H 0.48134 0.53651 0.84486 0.0
H163 H 0.47998 0.59924 0.8157 0.0
C164 C 0.84537 0.23505 0.33481 0.0
C165 C 0.86936 0.26069 0.31299 0.0
C166 C 0.81099 0.23433 0.30879 0.0
C167 C 0.79969 0.25956 0.26074 0.0
C168 C 0.82344 0.28568 0.24049 0.0
C169 C 0.85778 0.28632 0.2663 0.0
C170 C 0.76428 0.25875 0.22775 0.0
C171 C 0.73644 0.24089 0.25236 0.0
C172 C 0.70108 0.23976 0.21914 0.0
C173 C 0.67718 0.21404 0.24068 0.0
C174 C 0.64304 0.21283 0.21401 0.0
C175 C 0.63182 0.23745 0.16507 0.0
H176 H 0.70708 0.2849 0.15183 0.0
C177 C 0.65589 0.26277 0.14223 0.0
C178 C 0.69007 0.26407 0.16913 0.0
H179 H 0.64801 0.28236 0.10509 0.0
H180 H 0.85351 0.2147 0.37021 0.0
H181 H 0.79407 0.21316 0.32488 0.0
H182 H 0.8156 0.30544 0.20362 0.0
H183 H 0.87551 0.3065 0.2483 0.0
H184 H 0.76149 0.27361 0.18108 0.0
H185 H 0.73927 0.22615 0.2992 0.0
H186 H 0.68478 0.19498 0.27906 0.0
H187 H 0.62523 0.19294 0.23289 0.0
C188 C 0.34254 0.23879 0.12533 0.0
C189 C 0.36533 0.26542 0.14738 0.0
C190 C 0.30787 0.23719 0.15003 0.0
C191 C 0.29531 0.26227 0.19727 0.0
C192 C 0.31748 0.28991 0.21628 0.0
C193 C 0.35215 0.29137 0.19204 0.0
C194 C 0.25941 0.26065 0.22781 0.0
C195 C 0.24152 0.23045 0.23583 0.0
C196 C 0.2057 0.22912 0.26671 0.0
C197 C 0.18258 0.20266 0.24582 0.0
C198 C 0.14793 0.20181 0.27044 0.0
C199 C 0.13581 0.22715 0.31743 0.0
H200 H 0.21171 0.27344 0.33549 0.0
C201 C 0.15959 0.25246 0.34134 0.0
C202 C 0.19419 0.25348 0.3162 0.0
H203 H 0.15119 0.27222 0.37784 0.0
H204 H 0.35177 0.21852 0.09063 0.0
H205 H 0.29114 0.21625 0.13208 0.0
H206 H 0.30832 0.30988 0.25173 0.0
H207 H 0.36888 0.31244 0.20966 0.0
H208 H 0.2479 0.28523 0.24609 0.0
H209 H 0.25283 0.20581 0.21744 0.0
H210 H 0.19096 0.18324 0.20859 0.0
H211 H 0.13041 0.18175 0.25136 0.0
C212 C 0.35404 0.72582 0.76658 0.0
C213 C 0.36581 0.74398 0.82437 0.0
C214 C 0.31923 0.72981 0.7438 0.0
C215 C 0.29513 0.75189 0.77875 0.0
C216 C 0.30681 0.7696 0.83707 0.0
C217 C 0.34166 0.76568 0.85973 0.0
C218 C 0.25821 0.75844 0.75495 0.0
C219 C 0.24107 0.73753 0.7107 0.0
C220 C 0.20405 0.74384 0.68712 0.0
C221 C 0.1919 0.72484 0.6307 0.0
C222 C 0.1569 0.72832 0.60866 0.0
C223 C 0.13306 0.7509 0.64272 0.0
H224 H 0.18786 0.78156 0.7651 0.0
C225 C 0.14532 0.77047 0.69835 0.0
C226 C 0.18027 0.76691 0.72054 0.0
H227 H 0.12764 0.78791 0.72623 0.0
H228 H 0.37198 0.70914 0.73764 0.0
H229 H 0.31196 0.71633 0.69767 0.0
H230 H 0.28897 0.78687 0.86498 0.0
H231 H 0.34978 0.78017 0.90431 0.0
H232 H 0.24492 0.78154 0.77551 0.0
H233 H 0.25441 0.71437 0.69047 0.0
H234 H 0.20947 0.70683 0.60392 0.0
H235 H 0.1484 0.71275 0.56573 0.0
C236 C 0.5077 0.90723 0.89637 0.0
C237 C 0.49095 0.88019 0.93245 0.0
C238 C 0.50887 0.94137 0.92317 0.0
C239 C 0.49351 0.94898 -0.01317 0.0
C240 C 0.47717 0.92189 0.023 0.0
C241 C 0.47558 0.88801 -0.00405 0.0
C242 C 0.49451 0.98461 0.01764 0.0
C243 C 0.49329 0.01422 0.98035 0.0
C244 C 0.49128 0.04993 0.0108 0.0
C245 C 0.47375 0.07666 0.97474 0.0
C246 C 0.47185 0.11083 0.00047 0.0
C247 C 0.48803 0.11933 0.06256 0.0
H248 H 0.52154 0.03824 0.10189 0.0
C249 C 0.50559 0.09254 0.09897 0.0
C250 C 0.50713 0.0581 0.07344 0.0
H251 H 0.51857 0.09825 0.14661 0.0
H252 H 0.52006 0.90201 0.84767 0.0
H253 H 0.52242 0.96152 0.89465 0.0
H254 H 0.46533 0.92701 0.07224 0.0
H255 H 0.46279 0.86778 0.02561 0.0
H256 H 0.49325 0.9864 0.07266 0.0
H257 H 0.49092 0.01228 0.92549 0.0
H258 H 0.46144 0.0711 0.92633 0.0
H259 H 0.4583 0.13076 0.97063 0.0
C260 C 0.97316 0.88978 0.49552 0.0
C261 C 0.98991 0.87866 0.55567 0.0
C262 C 0.97285 0.92524 0.4768 0.0
C263 C 0.98924 0.9505 0.51792 0.0
C264 C 0.00538 0.93956 0.57864 0.0
C265 C 0.00602 0.90397 0.59709 0.0
C266 C 0.98866 0.9885 0.50013 0.0
C267 C 0.9878 0.0003 0.43558 0.0
C268 C 0.98693 0.03836 0.41833 0.0
C269 C 0.00276 0.04986 0.35783 0.0
C270 C 0.00291 0.08568 0.34112 0.0
C271 C 0.98659 0.11065 0.38407 0.0
H272 H 0.95639 0.05514 0.50632 0.0
C273 C 0.96966 0.09888 0.44342 0.0
C274 C 0.96987 0.0632 0.46043 0.0
H275 H 0.95666 0.11731 0.47759 0.0
H276 H 0.96036 0.87105 0.46245 0.0
H277 H 0.95922 0.93281 0.4307 0.0
H278 H 0.01785 0.95858 0.6116 0.0
H279 H 0.01899 0.89634 0.64389 0.0
H280 H 0.9906 0.00726 0.54158 0.0
H281 H 0.9896 0.98165 0.39384 0.0
H282 H 0.01567 0.03115 0.32409 0.0
H283 H 0.01603 0.09381 0.29487 0.0
C284 C 0.00767 0.22133 0.05681 0.0
C285 C 0.00542 0.25217 0.09619 0.0
C286 C 0.00901 0.22325 -0.01392 0.0
C287 C 0.0082 0.2561 0.95317 0.0
C288 C 0.00659 0.28692 -0.00757 0.0
C289 C 0.00488 0.28501 0.06322 0.0
C290 C 0.01005 0.25898 0.8782 0.0
C291 C 0.99628 0.23461 0.83661 0.0
C292 C 0.99774 0.23734 0.76162 0.0
C293 C 0.97075 0.22216 0.72312 0.0
C294 C 0.97151 0.22379 0.65232 0.0
C295 C -0.0003 0.2401 0.61849 0.0
H296 H 0.04781 0.26469 0.75604 0.0
C297 C 0.02704 0.25486 0.65706 0.0
C298 C 0.02605 0.25358 0.72793 0.0
H299 H 0.04921 0.26748 0.63254 0.0
H300 H 0.00837 0.19561 0.08055 0.0
H301 H 0.01131 0.19898 0.95746 0.0
H302 H 0.00628 0.31254 0.96824 0.0
H303 H 0.00345 0.30929 0.09205 0.0
H304 H 0.02135 0.28274 0.85695 0.0
H305 H 0.98172 0.21274 0.85803 0.0
H306 H 0.94885 0.2092 0.74791 0.0
H307 H 0.95016 0.21192 0.62413 0.0
C308 C 0.99151 0.7188 0.90047 0.0
C309 C 0.99546 0.74967 0.86196 0.0
C310 C 0.98992 0.72041 0.97127 0.0
C311 C 0.99212 0.75297 0.00497 0.0
C312 C 0.99546 0.78382 0.96652 0.0
C313 C 0.99744 0.78221 0.89578 0.0
C314 C 0.99003 0.75571 0.07992 0.0
C315 C 0.00225 0.73027 0.12153 0.0
C316 C 0.0011 0.73347 0.19648 0.0
C317 C 0.0275 0.71675 0.23508 0.0
C318 C 0.02726 0.7193 0.3058 0.0
C319 C 0.00018 0.73812 0.33945 0.0
H320 H 0.95248 0.76444 0.20187 0.0
C321 C 0.97334 0.75431 0.30081 0.0
C322 C 0.97381 0.75207 0.23002 0.0
H323 H 0.95199 0.76883 0.32518 0.0
H324 H 0.98967 0.69334 0.876 0.0
H325 H 0.98632 0.69619 -0.00072 0.0
H326 H 0.99689 0.80925 -0.00868 0.0
H327 H 0.00019 0.80652 0.86764 0.0
H328 H 0.98011 0.78032 0.10125 0.0
H329 H 0.01555 0.70725 0.10024 0.0
H330 H 0.0486 0.70199 0.2104 0.0
H331 H 0.04817 0.70626 0.33407 0.0
C332 C 0.52592 0.74283 0.17207 0.0
C333 C 0.4948 0.74264 0.13317 0.0
C334 C 0.5242 0.74221 0.24296 0.0
C335 C 0.49128 0.74119 0.27629 0.0
C336 C 0.46028 0.74017 0.23743 0.0
C337 C 0.46196 0.74123 0.16665 0.0
C338 C 0.48839 0.74005 0.3513 0.0
C339 C 0.51173 0.75567 0.39272 0.0
C340 C 0.50836 0.75488 0.46774 0.0
C341 C 0.52171 0.78291 0.506 0.0
C342 C 0.51919 0.78277 0.57682 0.0
C343 C 0.50375 0.75424 0.61085 0.0
H344 H 0.48342 0.70372 0.47403 0.0
C345 C 0.49078 0.72598 0.57247 0.0
C346 C 0.49305 0.72628 0.50173 0.0
H347 H 0.47893 0.70348 0.59702 0.0
H348 H 0.55164 0.74374 0.14783 0.0
H349 H 0.54867 0.74199 0.27138 0.0
H350 H 0.43463 0.739 0.26193 0.0
H351 H 0.43749 0.74077 0.1382 0.0
H352 H 0.46511 0.72772 0.37273 0.0
H353 H 0.53297 0.77114 0.37115 0.0
H354 H 0.53392 0.8051 0.48101 0.0
H355 H 0.5297 0.80483 0.60485 0.0
C356 C 0.50793 0.22323 0.41285 0.0
C357 C 0.4928 0.25062 0.37424 0.0
C358 C 0.50606 0.22398 0.48375 0.0
C359 C 0.4888 0.25207 0.5173 0.0
C360 C 0.47308 0.27898 0.47868 0.0
C361 C 0.47532 0.27848 0.40796 0.0
C362 C 0.48586 0.25368 0.59227 0.0
C363 C 0.51077 0.24043 0.63407 0.0
C364 C 0.50817 0.24334 0.70901 0.0
C365 C 0.5393 0.24512 0.74741 0.0
C366 C 0.53773 0.24792 0.8181 0.0
C367 C 0.50492 0.24841 0.85192 0.0
H368 H 0.45084 0.24121 0.71494 0.0
C369 C 0.47376 0.2461 0.81343 0.0
C370 C 0.47535 0.24359 0.74277 0.0
H371 H 0.44806 0.24611 0.83784 0.0
H372 H 0.52142 0.20132 0.38837 0.0
H373 H 0.51763 0.2023 0.51199 0.0
H374 H 0.45934 0.30072 0.50333 0.0
H375 H 0.46309 0.29984 0.37974 0.0
H376 H 0.46354 0.26832 0.6134 0.0
H377 H 0.53487 0.22903 0.61288 0.0
H378 H 0.56491 0.24467 0.7226 0.0
H379 H 0.56226 0.24936 0.84621 0.0
loop_
_geom_bond_atom_site_label_1
_geom_bond_atom_site_label_2
_geom_bond_distance
_geom_bond_site_symmetry_2
_ccdc_geom_bond_type
O0 Zn1 1.953 . S
O0 C16 1.225 . S
Zn1 O0 1.953 . S
Zn1 O2 1.949 . S
Zn1 O8 1.919 . S
Zn1 O13 1.924 . S
O2 Zn1 1.949 . S
O2 Zn3 1.923 . S
O2 Zn4 1.950 1_455 S
O2 Zn5 1.945 1_455 S
Zn3 O2 1.923 . S
Zn3 O6 1.933 . S
Zn3 O9 1.941 . S
Zn3 O10 1.965 . S
Zn4 O2 1.950 1_655 S
Zn4 O11 1.938 . S
Zn4 O12 1.906 . S
Zn4 O22 1.953 . S
Zn5 O2 1.945 1_655 S
Zn5 O7 1.932 . S
Zn5 O14 1.977 . S
Zn5 O15 1.910 . S
O6 Zn3 1.933 . S
O6 C17 1.226 . S
O7 Zn5 1.932 . S
O7 C17 1.307 1_655 S
O8 Zn1 1.919 . S
O8 C19 1.253 . S
O9 Zn3 1.941 . S
O9 C19 1.283 . S
O10 Zn3 1.965 . S
O10 C18 1.303 . S
O11 Zn4 1.938 . S
O11 C18 1.247 1_655 S
O12 Zn4 1.906 . S
O12 C20 1.304 . S
O13 Zn1 1.924 . S
O13 C21 1.311 . S
O14 Zn5 1.977 . S
O14 C20 1.272 . S
O15 Zn5 1.910 . S
O15 C21 1.231 1_655 S
C16 O0 1.225 . S
C16 O22 1.298 1_455 S
C17 O6 1.226 . S
C17 O7 1.307 1_455 S
C18 O10 1.303 . S
C18 O11 1.247 1_455 S
C19 O8 1.253 . S
C19 O9 1.283 . S
C20 O12 1.304 . S
C20 O14 1.272 . S
C21 O13 1.311 . S
C21 O15 1.231 1_455 S
O22 Zn4 1.953 . S
O22 C16 1.298 1_655 S
O23 Zn24 1.953 . S
O23 C39 1.225 . S
Zn24 O23 1.953 . S
Zn24 O25 1.949 . S
Zn24 O31 1.919 . S
Zn24 O36 1.924 . S
O25 Zn24 1.949 . S
O25 Zn26 1.923 . S
O25 Zn27 1.950 1_455 S
O25 Zn28 1.945 1_455 S
Zn26 O25 1.923 . S
Zn26 O29 1.933 . S
Zn26 O32 1.941 . S
Zn26 O33 1.965 . S
Zn27 O25 1.950 1_655 S
Zn27 O34 1.938 . S
Zn27 O35 1.906 . S
Zn27 O45 1.953 . S
Zn28 O25 1.945 1_655 S
Zn28 O30 1.932 . S
Zn28 O37 1.977 . S
Zn28 O38 1.910 . S
O29 Zn26 1.933 . S
O29 C40 1.226 . S
O30 Zn28 1.932 . S
O30 C40 1.307 1_655 S
O31 Zn24 1.919 . S
O31 C42 1.253 . S
O32 Zn26 1.941 . S
O32 C42 1.283 . S
O33 Zn26 1.965 . S
O33 C41 1.303 1_455 S
O34 Zn27 1.938 . S
O34 C41 1.247 . S
O35 Zn27 1.906 . S
O35 C43 1.304 . S
O36 Zn24 1.924 . S
O36 C44 1.311 . S
O37 Zn28 1.977 . S
O37 C43 1.272 . S
O38 Zn28 1.910 . S
O38 C44 1.231 1_655 S
C39 O23 1.225 . S
C39 O45 1.298 1_455 S
C40 O29 1.226 . S
C40 O30 1.307 1_455 S
C41 O33 1.303 1_655 S
C41 O34 1.247 . S
C42 O31 1.253 . S
C42 O32 1.283 . S
C43 O35 1.304 . S
C43 O37 1.272 . S
C44 O36 1.311 . S
C44 O38 1.231 1_455 S
O45 Zn27 1.953 . S
O45 C39 1.298 1_655 S
O46 Zn47 1.953 . S
O46 C62 1.225 . S
Zn47 O46 1.953 . S
Zn47 O48 1.949 . S
Zn47 O54 1.919 . S
Zn47 O59 1.924 . S
O48 Zn47 1.949 . S
O48 Zn49 1.923 . S
O48 Zn50 1.950 . S
O48 Zn51 1.945 . S
Zn49 O48 1.923 . S
Zn49 O52 1.933 1_556 S
Zn49 O55 1.941 . S
Zn49 O56 1.965 . S
Zn50 O48 1.950 . S
Zn50 O57 1.938 . S
Zn50 O58 1.906 . S
Zn50 O68 1.953 . S
Zn51 O48 1.945 . S
Zn51 O53 1.932 1_556 S
Zn51 O60 1.977 . S
Zn51 O61 1.910 . S
O52 Zn49 1.933 1_554 S
O52 C63 1.226 . S
O53 Zn51 1.932 1_554 S
O53 C63 1.307 . S
O54 Zn47 1.919 . S
O54 C65 1.253 . S
O55 Zn49 1.941 . S
O55 C65 1.283 . S
O56 Zn49 1.965 . S
O56 C64 1.303 . S
O57 Zn50 1.938 . S
O57 C64 1.247 . S
O58 Zn50 1.906 . S
O58 C66 1.304 . S
O59 Zn47 1.924 . S
O59 C67 1.311 . S
O60 Zn51 1.977 . S
O60 C66 1.272 . S
O61 Zn51 1.910 . S
O61 C67 1.231 . S
C62 O46 1.225 . S
C62 O68 1.298 . S
C63 O52 1.226 . S
C63 O53 1.307 . S
C64 O56 1.303 . S
C64 O57 1.247 . S
C65 O54 1.253 . S
C65 O55 1.283 . S
C66 O58 1.304 . S
C66 O60 1.272 . S
C67 O59 1.311 . S
C67 O61 1.231 . S
O68 Zn50 1.953 . S
O68 C62 1.298 . S
O69 Zn70 1.953 . S
O69 C85 1.225 . S
Zn70 O69 1.953 . S
Zn70 O71 1.949 . S
Zn70 O77 1.919 . S
Zn70 O82 1.924 . S
O71 Zn70 1.949 . S
O71 Zn72 1.923 . S
O71 Zn73 1.950 . S
O71 Zn74 1.945 . S
Zn72 O71 1.923 . S
Zn72 O75 1.933 1_554 S
Zn72 O78 1.941 . S
Zn72 O79 1.965 . S
Zn73 O71 1.950 . S
Zn73 O80 1.938 . S
Zn73 O81 1.906 . S
Zn73 O91 1.953 . S
Zn74 O71 1.945 . S
Zn74 O76 1.932 1_554 S
Zn74 O83 1.977 . S
Zn74 O84 1.910 . S
O75 Zn72 1.933 1_556 S
O75 C86 1.226 . S
O76 Zn74 1.932 1_556 S
O76 C86 1.307 . S
O77 Zn70 1.919 . S
O77 C88 1.253 . S
O78 Zn72 1.941 . S
O78 C88 1.283 . S
O79 Zn72 1.965 . S
O79 C87 1.303 . S
O80 Zn73 1.938 . S
O80 C87 1.247 . S
O81 Zn73 1.906 . S
O81 C89 1.304 . S
O82 Zn70 1.924 . S
O82 C90 1.311 . S
O83 Zn74 1.977 . S
O83 C89 1.272 . S
O84 Zn74 1.910 . S
O84 C90 1.231 . S
C85 O69 1.225 . S
C85 O91 1.298 . S
C86 O75 1.226 . S
C86 O76 1.307 . S
C87 O79 1.303 . S
C87 O80 1.247 . S
C88 O77 1.253 . S
C88 O78 1.283 . S
C89 O81 1.304 . S
C89 O83 1.272 . S
C90 O82 1.311 . S
C90 O84 1.231 . S
O91 Zn73 1.953 . S
O91 C85 1.298 . S
C92 C93 1.386 1_655 S
C92 C94 1.383 . S
C92 H108 0.951 . S
C93 C92 1.386 1_455 S
C93 C97 1.383 . S
C94 C92 1.383 . S
C94 C95 1.402 1_655 S
C94 H109 0.951 . S
C95 C94 1.402 1_455 S
C95 C96 1.375 . S
C95 C98 1.481 . S
C96 C95 1.375 . S
C96 C97 1.367 . S
C96 H110 0.951 . S
C97 C93 1.383 . S
C97 C96 1.367 . S
C97 H111 0.950 . S
C98 C95 1.481 . S
C98 C99 1.297 . S
C98 H112 0.950 . S
C99 C98 1.297 . S
C99 C100 1.479 . S
C99 H113 0.950 1_455 S
C100 C99 1.479 . S
C100 C101 1.375 1_455 S
C100 C106 1.404 . S
C101 C100 1.375 1_655 S
C101 C102 1.369 . S
C101 H114 0.950 . S
C102 C101 1.369 . S
C102 C103 1.392 1_655 S
C102 H115 0.951 . S
C103 C102 1.392 1_455 S
C103 C105 1.384 . S
H104 C106 0.949 . S
C105 C103 1.384 . S
C105 C106 1.385 . S
C105 H107 0.950 . S
C106 C100 1.404 . S
C106 H104 0.949 . S
C106 C105 1.385 . S
H107 C105 0.950 . S
H108 C92 0.951 . S
H109 C94 0.951 . S
H110 C96 0.951 . S
H111 C97 0.950 . S
H112 C98 0.950 . S
H113 C99 0.950 1_655 S
H114 C101 0.950 . S
H115 C102 0.951 . S
C116 C117 1.386 . S
C116 C118 1.383 . S
C116 H132 0.951 . S
C117 C116 1.386 . S
C117 C121 1.383 . S
C118 C116 1.383 . S
C118 C119 1.402 . S
C118 H133 0.951 . S
C119 C118 1.402 . S
C119 C120 1.375 . S
C119 C122 1.481 . S
C120 C119 1.375 . S
C120 C121 1.367 . S
C120 H134 0.951 . S
C121 C117 1.383 . S
C121 C120 1.367 . S
C121 H135 0.950 . S
C122 C119 1.481 . S
C122 C123 1.297 . S
C122 H136 0.950 . S
C123 C122 1.297 . S
C123 C124 1.479 . S
C123 H137 0.950 . S
C124 C123 1.479 . S
C124 C125 1.375 . S
C124 C130 1.404 . S
C125 C124 1.375 . S
C125 C126 1.369 . S
C125 H138 0.950 . S
C126 C125 1.369 . S
C126 C127 1.392 . S
C126 H139 0.951 . S
C127 C126 1.392 . S
C127 C129 1.384 . S
H128 C130 0.949 . S
C129 C127 1.384 . S
C129 C130 1.385 . S
C129 H131 0.950 . S
C130 C124 1.404 . S
C130 H128 0.949 . S
C130 C129 1.385 . S
H131 C129 0.950 . S
H132 C116 0.951 . S
H133 C118 0.951 . S
H134 C120 0.951 . S
H135 C121 0.950 . S
H136 C122 0.950 . S
H137 C123 0.950 . S
H138 C125 0.950 . S
H139 C126 0.951 . S
C140 C141 1.386 . S
C140 C142 1.383 1_554 S
C140 H156 0.951 1_554 S
C141 C140 1.386 . S
C141 C145 1.383 . S
C142 C140 1.383 1_556 S
C142 C143 1.402 1_556 S
C142 H157 0.951 . S
C143 C142 1.402 1_554 S
C143 C144 1.375 . S
C143 C146 1.481 . S
C144 C143 1.375 . S
C144 C145 1.367 . S
C144 H158 0.951 . S
C145 C141 1.383 . S
C145 C144 1.367 . S
C145 H159 0.950 . S
C146 C143 1.481 . S
C146 C147 1.297 1_554 S
C146 H160 0.950 . S
C147 C146 1.297 1_556 S
C147 C148 1.479 . S
C147 H161 0.950 . S
C148 C147 1.479 . S
C148 C149 1.375 . S
C148 C154 1.404 1_556 S
C149 C148 1.375 . S
C149 C150 1.369 . S
C149 H162 0.950 . S
C150 C149 1.369 . S
C150 C151 1.392 . S
C150 H163 0.951 . S
C151 C150 1.392 . S
C151 C153 1.384 . S
H152 C154 0.949 . S
C153 C151 1.384 . S
C153 C154 1.385 1_556 S
C153 H155 0.950 1_556 S
C154 C148 1.404 1_554 S
C154 H152 0.949 . S
C154 C153 1.385 1_554 S
H155 C153 0.950 1_554 S
H156 C140 0.951 1_556 S
H157 C142 0.951 . S
H158 C144 0.951 . S
H159 C145 0.950 . S
H160 C146 0.950 . S
H161 C147 0.950 . S
H162 C149 0.950 . S
H163 C150 0.951 . S
C164 C165 1.386 . S
C164 C166 1.383 . S
C164 H180 0.951 . S
C165 C164 1.386 . S
C165 C169 1.383 . S
C166 C164 1.383 . S
C166 C167 1.402 . S
C166 H181 0.951 . S
C167 C166 1.402 . S
C167 C168 1.375 . S
C167 C170 1.481 . S
C168 C167 1.375 . S
C168 C169 1.367 . S
C168 H182 0.951 . S
C169 C165 1.383 . S
C169 C168 1.367 . S
C169 H183 0.950 . S
C170 C167 1.481 . S
C170 C171 1.297 . S
C170 H184 0.950 . S
C171 C170 1.297 . S
C171 C172 1.479 . S
C171 H185 0.950 . S
C172 C171 1.479 . S
C172 C173 1.375 . S
C172 C178 1.404 . S
C173 C172 1.375 . S
C173 C174 1.369 . S
C173 H186 0.950 . S
C174 C173 1.369 . S
C174 C175 1.392 . S
C174 H187 0.951 . S
C175 C174 1.392 . S
C175 C177 1.384 . S
H176 C178 0.949 . S
C177 C175 1.384 . S
C177 C178 1.385 . S
C177 H179 0.950 . S
C178 C172 1.404 . S
C178 H176 0.949 . S
C178 C177 1.385 . S
H179 C177 0.950 . S
H180 C164 0.951 . S
H181 C166 0.951 . S
H182 C168 0.951 . S
H183 C169 0.950 . S
H184 C170 0.950 . S
H185 C171 0.950 . S
H186 C173 0.950 . S
H187 C174 0.951 . S
C188 C189 1.386 . S
C188 C190 1.383 . S
C188 H204 0.951 . S
C189 C188 1.386 . S
C189 C193 1.383 . S
C190 C188 1.383 . S
C190 C191 1.402 . S
C190 H205 0.951 . S
C191 C190 1.402 . S
C191 C192 1.375 . S
C191 C194 1.481 . S
C192 C191 1.375 . S
C192 C193 1.367 . S
C192 H206 0.951 . S
C193 C189 1.383 . S
C193 C192 1.367 . S
C193 H207 0.950 . S
C194 C191 1.481 . S
C194 C195 1.297 . S
C194 H208 0.950 . S
C195 C194 1.297 . S
C195 C196 1.479 . S
C195 H209 0.950 . S
C196 C195 1.479 . S
C196 C197 1.375 . S
C196 C202 1.404 . S
C197 C196 1.375 . S
C197 C198 1.369 . S
C197 H210 0.950 . S
C198 C197 1.369 . S
C198 C199 1.392 . S
C198 H211 0.951 . S
C199 C198 1.392 . S
C199 C201 1.384 . S
H200 C202 0.949 . S
C201 C199 1.384 . S
C201 C202 1.385 . S
C201 H203 0.950 . S
C202 C196 1.404 . S
C202 H200 0.949 . S
C202 C201 1.385 . S
H203 C201 0.950 . S
H204 C188 0.951 . S
H205 C190 0.951 . S
H206 C192 0.951 . S
H207 C193 0.950 . S
H208 C194 0.950 . S
H209 C195 0.950 . S
H210 C197 0.950 . S
H211 C198 0.951 . S
C212 C213 1.386 . S
C212 C214 1.383 . S
C212 H228 0.951 . S
C213 C212 1.386 . S
C213 C217 1.383 . S
C214 C212 1.383 . S
C214 C215 1.402 . S
C214 H229 0.951 . S
C215 C214 1.402 . S
C215 C216 1.375 . S
C215 C218 1.481 . S
C216 C215 1.375 . S
C216 C217 1.367 . S
C216 H230 0.951 . S
C217 C213 1.383 . S
C217 C216 1.367 . S
C217 H231 0.950 . S
C218 C215 1.481 . S
C218 C219 1.297 . S
C218 H232 0.950 . S
C219 C218 1.297 . S
C219 C220 1.479 . S
C219 H233 0.950 . S
C220 C219 1.479 . S
C220 C221 1.375 . S
C220 C226 1.404 . S
C221 C220 1.375 . S
C221 C222 1.369 . S
C221 H234 0.950 . S
C222 C221 1.369 . S
C222 C223 1.392 . S
C222 H235 0.951 . S
C223 C222 1.392 . S
C223 C225 1.384 . S
H224 C226 0.949 . S
C225 C223 1.384 . S
C225 C226 1.385 . S
C225 H227 0.950 . S
C226 C220 1.404 . S
C226 H224 0.949 . S
C226 C225 1.385 . S
H227 C225 0.950 . S
H228 C212 0.951 . S
H229 C214 0.951 . S
H230 C216 0.951 . S
H231 C217 0.950 . S
H232 C218 0.950 . S
H233 C219 0.950 . S
H234 C221 0.950 . S
H235 C222 0.951 . S
C236 C237 1.386 . S
C236 C238 1.383 . S
C236 H252 0.951 . S
C237 C236 1.386 . S
C237 C241 1.383 1_556 S
C238 C236 1.383 . S
C238 C239 1.402 . S
C238 H253 0.951 . S
C239 C238 1.402 . S
C239 C240 1.375 1_556 S
C239 C242 1.481 1_556 S
C240 C239 1.375 1_554 S
C240 C241 1.367 . S
C240 H254 0.951 . S
C241 C237 1.383 1_554 S
C241 C240 1.367 . S
C241 H255 0.950 . S
C242 C239 1.481 1_554 S
C242 C243 1.297 1_564 S
C242 H256 0.950 . S
C243 C242 1.297 1_546 S
C243 C244 1.479 1_556 S
C243 H257 0.950 . S
C244 C243 1.479 1_554 S
C244 C245 1.375 1_554 S
C244 C250 1.404 . S
C245 C244 1.375 1_556 S
C245 C246 1.365 1_556 S
C245 H258 0.950 . S
C246 C245 1.365 1_554 S
C246 C247 1.403 . S
C246 H259 0.943 1_554 S
C247 C246 1.403 . S
C247 C249 1.384 . S
H248 C250 0.949 . S
C249 C247 1.384 . S
C249 C250 1.385 . S
C249 H251 0.950 . S
C250 C244 1.404 . S
C250 H248 0.949 . S
C250 C249 1.385 . S
H251 C249 0.950 . S
H252 C236 0.951 . S
H253 C238 0.951 . S
H254 C240 0.951 . S
H255 C241 0.950 . S
H256 C242 0.950 . S
H257 C243 0.950 . S
H258 C245 0.950 . S
H259 C246 0.943 1_556 S
C260 C261 1.386 . S
C260 C262 1.383 . S
C260 H276 0.951 . S
C261 C260 1.386 . S
C261 C265 1.383 1_455 S
C262 C260 1.383 . S
C262 C263 1.402 1_455 S
C262 H277 0.951 . S
C263 C262 1.402 1_655 S
C263 C264 1.375 . S
C263 C266 1.481 . S
C264 C263 1.375 . S
C264 C265 1.367 . S
C264 H278 0.951 . S
C265 C261 1.383 1_655 S
C265 C264 1.367 . S
C265 H279 0.950 . S
C266 C263 1.481 . S
C266 C267 1.297 1_565 S
C266 H280 0.950 1_565 S
C267 C266 1.297 1_545 S
C267 C268 1.479 . S
C267 H281 0.950 1_645 S
C268 C267 1.479 . S
C268 C269 1.375 1_655 S
C268 C274 1.404 . S
C269 C268 1.375 1_455 S
C269 C270 1.369 . S
C269 H282 0.950 . S
C270 C269 1.369 . S
C270 C271 1.392 . S
C270 H283 0.951 . S
C271 C270 1.392 . S
C271 C273 1.384 1_455 S
H272 C274 0.949 . S
C273 C271 1.384 1_655 S
C273 C274 1.385 . S
C273 H275 0.950 . S
C274 C268 1.404 . S
C274 H272 0.949 . S
C274 C273 1.385 . S
H275 C273 0.950 . S
H276 C260 0.951 . S
H277 C262 0.951 . S
H278 C264 0.951 . S
H279 C265 0.950 . S
H280 C266 0.950 1_545 S
H281 C267 0.950 1_465 S
H282 C269 0.950 . S
H283 C270 0.951 . S
C284 C285 1.386 1_655 S
C284 C286 1.383 . S
C284 H300 0.951 . S
C285 C284 1.386 1_455 S
C285 C289 1.383 . S
C286 C284 1.383 . S
C286 C287 1.402 1_654 S
C286 H301 0.951 1_554 S
C287 C286 1.402 1_456 S
C287 C288 1.375 1_556 S
C287 C290 1.481 . S
C288 C287 1.375 1_554 S
C288 C289 1.367 . S
C288 H302 0.951 1_554 S
C289 C285 1.383 . S
C289 C288 1.367 . S
C289 H303 0.950 . S
C290 C287 1.481 . S
C290 C291 1.297 1_455 S
C290 H304 0.950 . S
C291 C290 1.297 1_655 S
C291 C292 1.479 . S
C291 H305 0.950 . S
C292 C291 1.479 . S
C292 C293 1.375 . S
C292 C298 1.404 1_655 S
C293 C292 1.375 . S
C293 C294 1.369 . S
C293 H306 0.950 . S
C294 C293 1.369 . S
C294 C295 1.392 1_655 S
C294 H307 0.951 . S
C295 C294 1.392 1_455 S
C295 C297 1.384 . S
H296 C298 0.949 . S
C297 C295 1.384 . S
C297 C298 1.385 . S
C297 H299 0.950 . S
C298 C292 1.404 1_455 S
C298 H296 0.949 . S
C298 C297 1.385 . S
H299 C297 0.950 . S
H300 C284 0.951 . S
H301 C286 0.951 1_556 S
H302 C288 0.951 1_556 S
H303 C289 0.950 . S
H304 C290 0.950 . S
H305 C291 0.950 . S
H306 C293 0.950 . S
H307 C294 0.951 . S
C308 C309 1.386 . S
C308 C310 1.383 . S
C308 H324 0.951 . S
C309 C308 1.386 . S
C309 C313 1.383 1_455 S
C310 C308 1.383 . S
C310 C311 1.402 1_556 S
C310 H325 0.951 1_556 S
C311 C310 1.402 1_554 S
C311 C312 1.375 1_454 S
C311 C314 1.482 . S
C312 C311 1.375 1_656 S
C312 C313 1.367 . S
C312 H326 0.951 1_556 S
C313 C309 1.383 1_655 S
C313 C312 1.367 . S
C313 H327 0.950 . S
C314 C311 1.482 . S
C314 C315 1.313 . S
C314 H328 0.931 1_455 S
C315 C314 1.313 . S
C315 C316 1.479 . S
C315 H329 0.950 . S
C316 C315 1.479 . S
C316 C317 1.375 . S
C316 C322 1.404 1_455 S
C317 C316 1.375 . S
C317 C318 1.369 . S
C317 H330 0.950 . S
C318 C317 1.369 . S
C318 C319 1.392 . S
C318 H331 0.951 . S
C319 C318 1.392 . S
C319 C321 1.384 1_455 S
H320 C322 0.949 . S
C321 C319 1.384 1_655 S
C321 C322 1.385 . S
C321 H323 0.950 . S
C322 C316 1.404 1_655 S
C322 H320 0.949 . S
C322 C321 1.385 . S
H323 C321 0.950 . S
H324 C308 0.951 . S
H325 C310 0.951 1_554 S
H326 C312 0.951 1_554 S
H327 C313 0.950 . S
H328 C314 0.931 1_655 S
H329 C315 0.950 . S
H330 C317 0.950 . S
H331 C318 0.951 . S
C332 C333 1.386 . S
C332 C334 1.383 . S
C332 H348 0.951 . S
C333 C332 1.386 . S
C333 C337 1.383 . S
C334 C332 1.383 . S
C334 C335 1.402 . S
C334 H349 0.951 . S
C335 C334 1.402 . S
C335 C336 1.375 . S
C335 C338 1.481 . S
C336 C335 1.375 . S
C336 C337 1.367 . S
C336 H350 0.951 . S
C337 C333 1.383 . S
C337 C336 1.367 . S
C337 H351 0.950 . S
C338 C335 1.481 . S
C338 C339 1.297 . S
C338 H352 0.950 . S
C339 C338 1.297 . S
C339 C340 1.479 . S
C339 H353 0.950 . S
C340 C339 1.479 . S
C340 C341 1.375 . S
C340 C346 1.404 . S
C341 C340 1.375 . S
C341 C342 1.369 . S
C341 H354 0.950 . S
C342 C341 1.369 . S
C342 C343 1.392 . S
C342 H355 0.951 . S
C343 C342 1.392 . S
C343 C345 1.384 . S
H344 C346 0.949 . S
C345 C343 1.384 . S
C345 C346 1.385 . S
C345 H347 0.950 . S
C346 C340 1.404 . S
C346 H344 0.949 . S
C346 C345 1.385 . S
H347 C345 0.950 . S
H348 C332 0.951 . S
H349 C334 0.951 . S
H350 C336 0.951 . S
H351 C337 0.950 . S
H352 C338 0.950 . S
H353 C339 0.950 . S
H354 C341 0.950 . S
H355 C342 0.951 . S
C356 C357 1.386 . S
C356 C358 1.383 . S
C356 H372 0.951 . S
C357 C356 1.386 . S
C357 C361 1.383 . S
C358 C356 1.383 . S
C358 C359 1.402 . S
C358 H373 0.951 . S
C359 C358 1.402 . S
C359 C360 1.375 . S
C359 C362 1.481 . S
C360 C359 1.375 . S
C360 C361 1.367 . S
C360 H374 0.951 . S
C361 C357 1.383 . S
C361 C360 1.367 . S
C361 H375 0.950 . S
C362 C359 1.481 . S
C362 C363 1.297 . S
C362 H376 0.950 . S
C363 C362 1.297 . S
C363 C364 1.479 . S
C363 H377 0.950 . S
C364 C363 1.479 . S
C364 C365 1.375 . S
C364 C370 1.404 . S
C365 C364 1.375 . S
C365 C366 1.369 . S
C365 H378 0.950 . S
C366 C365 1.369 . S
C366 C367 1.392 . S
C366 H379 0.951 . S
C367 C366 1.392 . S
C367 C369 1.384 . S
H368 C370 0.949 . S
C369 C367 1.384 . S
C369 C370 1.385 . S
C369 H371 0.950 . S
C370 C364 1.404 . S
C370 H368 0.949 . S
C370 C369 1.385 . S
H371 C369 0.950 . S
H372 C356 0.951 . S
H373 C358 0.951 . S
H374 C360 0.951 . S
H375 C361 0.950 . S
H376 C362 0.950 . S
H377 C363 0.950 . S
H378 C365 0.950 . S
H379 C366 0.951 . S
C93 C21 1.584 . S
C103 C44 1.565 . S
C117 C64 1.637 . S
C127 C43 1.629 . S
C141 C89 1.626 . S
C151 C65 1.621 . S
C165 C20 1.560 . S
C175 C90 1.572 . S
C189 C87 1.618 . S
C199 C19 1.617 . S
C213 C67 1.565 . S
C223 C42 1.579 . S
C237 C66 1.551 . S
C247 C88 1.533 . S
C261 C41 1.627 1_455 S
C271 C18 1.606 . S
C285 C17 1.254 . S
C295 C16 1.249 . S
C309 C40 1.246 . S
C319 C39 1.243 . S
C333 C63 1.256 . S
C343 C62 1.245 . S
C357 C85 1.254 . S
C367 C86 1.249 . S
