# Generated by pormake.
# Topology zfu, (5)-cn, num edge types: 1
# Building blocks:
#     Node 0, Type 0, BuildingBlock: XOMCOT_clean_sbu_1, # of connection points: 5
#     Node 1, Type 0, BuildingBlock: XOMCOT_clean_sbu_1, # of connection points: 5
#     Node 2, Type 0, BuildingBlock: XOMCOT_clean_sbu_1, # of connection points: 5
#     Node 3, Type 0, BuildingBlock: XOMCOT_clean_sbu_1, # of connection points: 5
#     Node 4, Type 0, BuildingBlock: XOMCOT_clean_sbu_1, # of connection points: 5
#     Node 5, Type 0, BuildingBlock: XOMCOT_clean_sbu_1, # of connection points: 5
#     Node 6, Type 0, BuildingBlock: XOMCOT_clean_sbu_1, # of connection points: 5
#     Node 7, Type 0, BuildingBlock: XOMCOT_clean_sbu_1, # of connection points: 5
#     Edge 8, Type (0, 0), BuildingBlock: OJICUG_clean_linker_0, # of connection points: 2
#     Edge 9, Type (0, 0), BuildingBlock: OJICUG_clean_linker_0, # of connection points: 2
#     Edge 10, Type (0, 0), BuildingBlock: OJICUG_clean_linker_0, # of connection points: 2
#     Edge 11, Type (0, 0), BuildingBlock: OJICUG_clean_linker_0, # of connection points: 2
#     Edge 12, Type (0, 0), BuildingBlock: OJICUG_clean_linker_0, # of connection points: 2
#     Edge 13, Type (0, 0), BuildingBlock: OJICUG_clean_linker_0, # of connection points: 2
#     Edge 14, Type (0, 0), BuildingBlock: OJICUG_clean_linker_0, # of connection points: 2
#     Edge 15, Type (0, 0), BuildingBlock: OJICUG_clean_linker_0, # of connection points: 2
#     Edge 16, Type (0, 0), BuildingBlock: OJICUG_clean_linker_0, # of connection points: 2
#     Edge 17, Type (0, 0), BuildingBlock: OJICUG_clean_linker_0, # of connection points: 2
#     Edge 18, Type (0, 0), BuildingBlock: OJICUG_clean_linker_0, # of connection points: 2
#     Edge 19, Type (0, 0), BuildingBlock: OJICUG_clean_linker_0, # of connection points: 2
#     Edge 20, Type (0, 0), BuildingBlock: OJICUG_clean_linker_0, # of connection points: 2
#     Edge 21, Type (0, 0), BuildingBlock: OJICUG_clean_linker_0, # of connection points: 2
#     Edge 22, Type (0, 0), BuildingBlock: OJICUG_clean_linker_0, # of connection points: 2
#     Edge 23, Type (0, 0), BuildingBlock: OJICUG_clean_linker_0, # of connection points: 2
#     Edge 24, Type (0, 0), BuildingBlock: OJICUG_clean_linker_0, # of connection points: 2
#     Edge 25, Type (0, 0), BuildingBlock: OJICUG_clean_linker_0, # of connection points: 2
#     Edge 26, Type (0, 0), BuildingBlock: OJICUG_clean_linker_0, # of connection points: 2
#     Edge 27, Type (0, 0), BuildingBlock: OJICUG_clean_linker_0, # of connection points: 2
# Relax obj value: 0.136
# Max RMSD: 0.160
# Mean RMSD: 0.160
data_MOF--net-zfu--node1-XOMCOT_clean_sbu_1--edge1-OJICUG_clean_linker_0
_symmetry_space_group_name_H-M    P1
_symmetry_Int_Tables_number       1
_symmetry_cell_setting            triclinic
loop_
_symmetry_equiv_pos_as_xyz
'x, y, z'
_cell_length_a     28.450062
_cell_length_b     28.616699
_cell_length_c     21.057978
_cell_angle_alpha  90.153801
_cell_angle_beta   89.912402
_cell_angle_gamma 90.133888
loop_
_atom_site_label
_atom_site_type_symbol
_atom_site_fract_x
_atom_site_fract_y
_atom_site_fract_z
_atom_type_partial_charge
C0 C 0.46514 0.70477 0.02604 0.0
C1 C 0.49152 0.66556 0.03836 0.0
N2 N 0.5301 0.66696 0.00142 0.0
N3 N 0.4876 0.73143 -0.01738 0.0
C4 C 0.52679 0.70693 0.96782 0.0
H5 H 0.43163 0.71324 0.0474 0.0
Co6 Co 0.46752 0.78919 0.94841 0.0
C7 C 0.57257 0.82074 0.94495 0.0
O8 O 0.58765 0.80155 0.89201 0.0
N9 N 0.44853 0.84733 0.91408 0.0
C10 C 0.43811 0.92423 0.90727 0.0
C11 C 0.45894 0.88898 0.94102 0.0
C12 C 0.4217 0.85842 0.86295 0.0
N13 N 0.41484 0.90512 0.85812 0.0
O14 O 0.47925 0.76533 0.86511 0.0
H15 H 0.47955 0.89347 -0.01633 0.0
H16 H 0.4064 0.83289 0.83106 0.0
O17 O 0.52994 0.81517 0.96233 0.0
C18 C 0.44249 0.7396 0.85876 0.0
O19 O 0.41081 0.74004 0.90432 0.0
N20 N 0.44925 0.80867 0.02884 0.0
C21 C 0.40631 0.79884 0.14598 0.0
C22 C 0.45558 0.80087 0.14137 0.0
C23 C 0.47659 0.80553 0.0818 0.0
C24 C 0.40172 0.81291 0.03354 0.0
C25 C 0.3794 0.80838 0.09196 0.0
H26 H 0.51404 0.80021 0.07767 0.0
H27 H 0.38059 0.81422 -0.00907 0.0
H28 H 0.55246 0.71814 0.93309 0.0
H29 H 0.4826 0.63767 0.07089 0.0
H30 H 0.43961 0.9612 0.91816 0.0
H31 H 0.47751 0.79404 0.18229 0.0
H32 H 0.34137 0.80678 0.09325 0.0
C33 C 0.90771 0.94897 0.26734 0.0
C34 C 0.94947 0.97227 0.27767 0.0
N35 N 0.94571 1.01574 0.25365 0.0
N36 N 0.87768 0.97767 0.23707 0.0
C37 C 0.90185 1.01798 0.22935 0.0
H38 H 0.89996 0.91316 0.28002 0.0
Co39 Co 0.81755 0.96358 0.20487 0.0
C40 C 0.78504 0.06599 0.20356 0.0
O41 O 0.7875 0.07266 0.14197 0.0
N42 N 0.75684 0.95077 0.17211 0.0
C43 C 0.67915 0.95266 0.16334 0.0
C44 C 0.71707 0.96869 0.19689 0.0
C45 C 0.74184 0.92324 0.12345 0.0
N46 N 0.69425 0.92362 0.117 0.0
O47 O 0.84034 0.97809 0.12184 0.0
H48 H 0.71547 0.99167 0.23766 0.0
H49 H 0.76538 0.90277 0.09422 0.0
O50 O 0.79696 1.02665 0.22698 0.0
C51 C 0.86212 0.93954 0.11145 0.0
O52 O 0.85697 0.90526 0.15241 0.0
N53 N 0.79911 0.94229 0.2842 0.0
C54 C 0.80473 0.89204 0.39614 0.0
C55 C 0.8109 0.94073 0.39657 0.0
C56 C 0.80835 0.96536 0.33956 0.0
C57 C 0.7887 0.89579 0.2841 0.0
C58 C 0.79108 0.86995 0.33979 0.0
H59 H 0.8196 1.00141 0.33885 0.0
H60 H 0.78322 0.87764 0.23963 0.0
H61 H 0.88813 1.0478 0.20399 0.0
H62 H 0.98025 0.95818 0.30085 0.0
H63 H 0.64313 0.96216 0.17312 0.0
H64 H 0.82244 0.95879 0.43907 0.0
H65 H 0.78606 0.83243 0.33781 0.0
C66 C 0.65495 0.40655 0.51266 0.0
C67 C 0.63117 0.44765 0.52379 0.0
N68 N 0.58706 0.44308 0.50119 0.0
N69 N 0.62596 0.37609 0.48331 0.0
C70 C 0.58492 0.39935 0.47692 0.0
H71 H 0.69125 0.39949 0.52438 0.0
Co72 Co 0.6408 0.31621 0.45196 0.0
C73 C 0.53983 0.27925 0.44969 0.0
O74 O 0.53634 0.27652 0.38761 0.0
N75 N 0.6546 0.25574 0.42021 0.0
C76 C 0.65672 0.17822 0.41535 0.0
C77 C 0.6383 0.21599 0.44666 0.0
C78 C 0.68324 0.24097 0.3725 0.0
N79 N 0.68536 0.19365 0.36885 0.0
O80 O 0.62561 0.33758 0.36857 0.0
H81 H 0.61534 0.21438 0.48758 0.0
H82 H 0.70344 0.26432 0.34266 0.0
O83 O 0.57757 0.29495 0.47477 0.0
C84 C 0.66416 0.35962 0.35751 0.0
O85 O 0.69881 0.3556 0.39843 0.0
N86 N 0.66287 0.29931 0.53145 0.0
C87 C 0.714 0.30747 0.64281 0.0
C88 C 0.66493 0.31264 0.64355 0.0
C89 C 0.63986 0.30877 0.58684 0.0
C90 C 0.70982 0.28997 0.53112 0.0
C91 C 0.7361 0.29362 0.5865 0.0
H92 H 0.60345 0.31922 0.58625 0.0
H93 H 0.72793 0.28431 0.48661 0.0
H94 H 0.55459 0.38503 0.45274 0.0
H95 H 0.64537 0.47851 0.54663 0.0
H96 H 0.64977 0.14196 0.42654 0.0
H97 H 0.6468 0.32427 0.68599 0.0
H98 H 0.77388 0.28922 0.58428 0.0
C99 C 0.19967 0.1496 0.76439 0.0
C100 C 0.15835 0.12598 0.77643 0.0
N101 N 0.1619 0.08254 0.75195 0.0
N102 N 0.2292 0.12116 0.73246 0.0
C103 C 0.20518 0.08063 0.7256 0.0
H104 H 0.2075 0.18539 0.77729 0.0
Co105 Co 0.289 0.13545 0.69918 0.0
C106 C 0.32791 1.03685 0.69139 0.0
O107 O 0.33872 1.03948 0.63084 0.0
N108 N 0.34938 0.14877 0.66569 0.0
C109 C 0.42731 0.15263 0.66017 0.0
C110 C 0.3898 0.13365 0.69196 0.0
C111 C 0.36345 0.17705 0.61746 0.0
N112 N 0.41095 0.18015 0.61342 0.0
O113 O 0.26551 0.12178 0.61616 0.0
H114 H 0.39195 0.11138 0.73326 0.0
H115 H 0.3395 0.19659 0.58784 0.0
O116 O 0.3086 0.07167 0.71896 0.0
C117 C 0.24311 0.16003 0.60663 0.0
O118 O 0.24732 0.19392 0.64858 0.0
N119 N 0.30813 0.1561 0.77855 0.0
C120 C 0.30036 0.20613 0.89074 0.0
C121 C 0.29726 0.15713 0.89113 0.0
C122 C 0.30108 0.13253 0.83394 0.0
C123 C 0.31623 0.20304 0.7786 0.0
C124 C 0.31279 0.22878 0.8344 0.0
H125 H 0.29266 0.09578 0.83327 0.0
H126 H 0.32035 0.22141 0.73414 0.0
H127 H 0.21863 0.05079 0.69971 0.0
H128 H 0.12804 0.1398 0.80121 0.0
H129 H 0.46402 0.14721 0.67137 0.0
H130 H 0.28711 0.13852 0.93375 0.0
H131 H 0.31577 0.2665 0.83248 0.0
C132 C 0.95279 0.90275 0.73359 0.0
C133 C 0.97661 0.94382 0.72226 0.0
N134 N 1.0201 0.94022 0.74709 0.0
N135 N 0.98113 0.87318 0.76528 0.0
C136 C 1.02188 0.89701 0.7728 0.0
H137 H 0.91674 0.89523 0.72079 0.0
Co138 Co 0.96464 0.81444 0.79918 0.0
C139 C 0.06833 0.78269 0.79722 0.0
O140 O 0.08043 0.79431 0.85533 0.0
N141 N 0.9492 0.75517 0.83346 0.0
C142 C 0.9416 0.67786 0.83941 0.0
C143 C 0.9604 0.7142 0.80528 0.0
C144 C 0.92396 0.74261 0.88556 0.0
N145 N 0.91888 0.69565 0.88995 0.0
O146 O 0.98041 0.83752 0.8817 0.0
H147 H 0.97998 0.71096 0.76143 0.0
H148 H 0.90829 0.76725 0.91835 0.0
O149 O 1.02669 0.79063 0.77766 0.0
C150 C 0.9427 0.86107 0.89171 0.0
O151 O 0.90818 0.85757 0.85047 0.0
N152 N 0.94218 0.79598 0.72035 0.0
C153 C 0.89159 0.80243 0.60853 0.0
C154 C 0.94085 0.80564 0.60763 0.0
C155 C 0.9657 0.80262 0.6646 0.0
C156 C 0.89492 0.78823 0.72098 0.0
C157 C 0.86889 0.791 0.66536 0.0
H158 H 1.00267 0.81134 0.66478 0.0
H159 H 0.87659 0.78458 0.76572 0.0
H160 H 1.05155 0.88371 0.79916 0.0
H161 H 0.9628 0.97412 0.69801 0.0
H162 H 0.94388 0.64107 0.82766 0.0
H163 H 0.95947 0.81528 0.56469 0.0
H164 H 0.83094 0.78815 0.6677 0.0
C165 C 0.70644 0.45839 0.96685 0.0
C166 C 0.66742 0.48511 0.95323 0.0
N167 N 0.66928 0.52412 -0.011 0.0
N168 N 0.73318 0.48107 0.01007 0.0
C169 C 0.70921 0.52072 0.02309 0.0
H170 H 0.71485 0.42474 0.94633 0.0
Co171 Co 0.79134 0.46394 0.04635 0.0
C172 C 0.83435 0.56118 0.05625 0.0
O173 O 0.84569 0.55782 0.11651 0.0
N174 N 0.85012 0.44833 0.08276 0.0
C175 C 0.92762 0.44001 0.091 0.0
C176 C 0.89197 0.46036 0.05714 0.0
C177 C 0.86143 0.42084 0.13298 0.0
N178 N 0.90851 0.41526 0.13872 0.0
O179 O 0.76591 0.47743 0.12851 0.0
H180 H 0.89629 0.48136 0.01488 0.0
H181 H 0.83578 0.40363 0.16293 0.0
O182 O 0.81369 0.52713 0.02863 0.0
C183 C 0.74086 0.44043 0.136 0.0
O184 O 0.74296 0.4076 0.09225 0.0
N185 N 0.81235 0.44324 0.96774 0.0
C186 C 0.80657 0.39361 0.8551 0.0
C187 C 0.80617 0.44273 0.85456 0.0
C188 C 0.80916 0.46718 0.91203 0.0
C189 C 0.81833 0.39604 0.96807 0.0
C190 C 0.81607 0.3705 0.91205 0.0
H191 H 0.80283 0.5043 0.91225 0.0
H192 H 0.81975 0.37748 0.01268 0.0
H193 H 0.72105 0.54689 0.05671 0.0
H194 H 0.63942 0.47619 0.92059 0.0
H195 H 0.96484 0.44237 0.08065 0.0
H196 H 0.79849 0.46177 0.81144 0.0
H197 H 0.81721 0.3327 0.91413 0.0
C198 C 0.15463 0.19596 0.23064 0.0
C199 C 0.13141 0.15431 0.22017 0.0
N200 N 0.0878 0.15768 0.24495 0.0
N201 N 0.12575 0.22548 0.26182 0.0
C202 C 0.08541 0.20116 0.26987 0.0
H203 H 0.19048 0.20399 0.21732 0.0
Co204 Co 0.13936 0.28541 0.29401 0.0
C205 C 1.03941 0.32221 0.30174 0.0
O206 O 1.04143 0.33113 0.3629 0.0
N207 N 0.15201 0.34588 0.32658 0.0
C208 C 0.15189 0.42328 0.33405 0.0
C209 C 0.13422 0.38549 0.30192 0.0
C210 C 0.18108 0.36077 0.37366 0.0
N211 N 0.18185 0.40809 0.37904 0.0
O212 O 0.12581 0.26264 0.37734 0.0
H213 H 0.11055 0.38702 0.26186 0.0
H214 H 0.20237 0.33749 0.40193 0.0
O215 O 0.07489 0.30416 0.27376 0.0
C216 C 0.1646 0.24102 0.38731 0.0
O217 O 0.19884 0.2458 0.34578 0.0
N218 N 0.15986 0.30394 0.21439 0.0
C219 C 0.20996 0.29585 0.10211 0.0
C220 C 0.16075 0.29183 0.10203 0.0
C221 C 0.13614 0.29577 0.15925 0.0
C222 C 0.20692 0.31281 0.21399 0.0
C223 C 0.23272 0.30917 0.15813 0.0
H224 H 0.09942 0.28648 0.16025 0.0
H225 H 0.22546 0.31774 0.25829 0.0
H226 H 0.05542 0.21455 0.29575 0.0
H227 H 0.14562 0.12392 0.19629 0.0
H228 H 0.14322 0.45934 0.32439 0.0
H229 H 0.14208 0.2809 0.05971 0.0
H230 H 0.27061 0.31281 0.15981 0.0
C231 C 0.40544 0.64939 0.48124 0.0
C232 C 0.44705 0.62616 0.47072 0.0
N233 N 0.44354 0.58308 0.49611 0.0
N234 N 0.37561 0.6211 0.51291 0.0
C235 C 0.39986 0.58099 0.52139 0.0
H236 H 0.39757 0.68489 0.46737 0.0
Co237 Co 0.31542 0.63681 0.54372 0.0
C238 C 0.28589 0.53207 0.54584 0.0
O239 O 0.29724 0.52055 0.60416 0.0
N240 N 0.25479 0.65164 0.57494 0.0
C241 C 0.17693 0.65162 0.58253 0.0
C242 C 0.2148 0.63376 0.55057 0.0
C243 C 0.24003 0.68084 0.6219 0.0
N244 N 0.19244 0.68164 0.62735 0.0
O245 O 0.33721 0.62489 0.62781 0.0
H246 H 0.21302 0.60952 0.51119 0.0
H247 H 0.26362 0.70178 0.65052 0.0
O248 O 0.29345 0.57352 0.52605 0.0
C249 C 0.35945 0.66343 0.63687 0.0
O250 O 0.35567 0.69653 0.59396 0.0
N251 N 0.29795 0.65517 0.4628 0.0
C252 C 0.31217 0.70065 0.34857 0.0
C253 C 0.31423 0.65166 0.35162 0.0
C254 C 0.30736 0.62943 0.40973 0.0
C255 C 0.28996 0.70199 0.45893 0.0
C256 C 0.29667 0.72555 0.40191 0.0
H257 H 0.31603 0.59282 0.41348 0.0
H258 H 0.28405 0.7221 0.50174 0.0
H259 H 0.38636 0.55144 0.54767 0.0
H260 H 0.47751 0.63999 0.44627 0.0
H261 H 0.14061 0.64272 0.57327 0.0
H262 H 0.3257 0.63123 0.31111 0.0
H263 H 0.29499 0.76335 0.40172 0.0
C264 C 0.6159 0.5797 0.93597 0.0
C265 C 0.63505 0.56105 -0.00812 0.0
H266 H 0.56799 0.62936 0.89538 0.0
C267 C 0.61997 0.57859 0.0508 0.0
H268 H 0.62722 0.56681 0.89006 0.0
C269 C 0.58548 0.61333 0.05384 0.0
C270 C 0.56649 0.63218 -0.00201 0.0
H271 H 0.63411 0.56455 0.09447 0.0
H272 H 0.57375 0.62579 0.09979 0.0
C273 C 0.58241 0.6155 0.93898 0.0
C274 C 1.00402 0.13386 0.24854 0.0
C275 C 1.05193 0.12186 0.24687 0.0
H276 H 0.93276 0.10961 0.25216 0.0
C277 C 0.0642 0.07429 0.2476 0.0
H278 H 0.99334 0.17012 0.24751 0.0
C279 C 1.02948 1.0396 0.25024 0.0
C280 C 0.98156 0.05158 0.25165 0.0
H281 H 0.10072 0.06381 0.24699 0.0
H282 H 1.0402 1.00335 0.25031 0.0
C283 C 0.96927 0.09915 0.25062 0.0
C284 C 0.56246 0.52601 0.49885 0.0
C285 C 0.55069 0.47827 0.50038 0.0
H286 H 0.53785 0.59655 0.49656 0.0
C287 C 0.50286 0.46561 0.5008 0.0
H288 H 0.59885 0.53705 0.49784 0.0
C289 C 0.46773 0.49987 0.4999 0.0
C290 C 0.47959 0.5476 0.49789 0.0
H291 H 0.49257 0.4292 0.5025 0.0
H292 H 0.43128 0.48897 0.49986 0.0
C293 C 0.52741 0.56018 0.49739 0.0
C294 C 0.10395 0.96408 0.74968 0.0
C295 C 0.05602 0.97599 0.74882 0.0
H296 H 0.17524 0.98863 0.75127 0.0
C297 C 1.04367 1.02355 0.74961 0.0
H298 H 0.11464 0.9278 0.74872 0.0
C299 C 0.0783 0.05832 0.75118 0.0
C300 C 0.12623 1.04649 0.7514 0.0
H301 H 1.00714 1.03397 0.74973 0.0
H302 H 0.06748 0.09455 0.75123 0.0
C303 C 0.13866 0.99893 0.75057 0.0
C304 C 0.31569 0.76737 0.27109 0.0
C305 C 0.33488 0.72594 0.29553 0.0
H306 H 0.32388 0.82393 0.2053 0.0
C307 C 0.37883 0.71075 0.27328 0.0
H308 H 0.28206 0.7801 0.28787 0.0
C309 C 0.40274 0.7358 0.22683 0.0
C310 C 0.38345 0.77687 0.20158 0.0
H311 H 0.39524 0.67971 0.2924 0.0
H312 H 0.43578 0.72206 0.20934 0.0
C313 C 0.3397 0.79253 0.22425 0.0
C314 C 0.85356 0.82781 0.44055 0.0
C315 C 0.82085 0.86393 0.45053 0.0
H316 H 0.90174 0.77971 0.48317 0.0
C317 C 0.80832 0.87623 0.51271 0.0
H318 H 0.86441 0.8182 0.39295 0.0
C319 C 0.82947 0.85403 0.5641 0.0
C320 C 0.86394 0.81957 0.55413 0.0
H321 H 0.78338 0.90408 0.52149 0.0
H322 H 0.82074 0.8657 0.61165 0.0
C323 C 0.87517 0.80602 0.49196 0.0
C324 C 0.7526 0.33322 0.81053 0.0
C325 C 0.78809 0.3668 0.80046 0.0
H326 H 0.70147 0.28775 0.76829 0.0
C327 C 0.80171 0.37754 0.7382 0.0
H328 H 0.74071 0.32489 0.85807 0.0
C329 C 0.77921 0.35613 0.68689 0.0
C330 C 0.74237 0.32407 0.69706 0.0
H331 H 0.82879 0.40338 0.72925 0.0
H332 H 0.78905 0.36647 0.63923 0.0
C333 C 0.72983 0.3122 0.7593 0.0
C334 C 0.29515 0.22257 0.00735 0.0
C335 C 0.28237 0.23366 0.94497 0.0
H336 H 0.28238 0.23427 0.10615 0.0
C337 C 0.24828 0.26836 0.93446 0.0
H338 H 0.32114 0.19584 0.01658 0.0
C339 C 0.22593 0.2902 -0.0145 0.0
C340 C 0.2377 0.2781 0.04788 0.0
H341 H 0.23717 0.277 0.88674 0.0
H342 H 0.19857 0.31555 0.97627 0.0
C343 C 0.27321 0.24483 0.05839 0.0
C344 C 0.37833 0.6552 0.7524 0.0
C345 C 0.38908 0.67346 0.69266 0.0
H346 H 0.38809 0.66191 0.85262 0.0
C347 C 0.42479 0.70761 0.68737 0.0
H348 H 0.35122 0.62885 0.75774 0.0
C349 C 0.44601 0.7266 0.74142 0.0
C350 C 0.43158 0.71186 0.80154 0.0
H351 H 0.43435 0.72175 0.64144 0.0
H352 H 0.47072 0.75522 0.73625 0.0
C353 C 0.39936 0.67441 0.8065 0.0
C354 C 0.92861 0.89685 0.06187 0.0
C355 C 0.89269 0.93058 0.05622 0.0
H356 H 0.97379 0.84836 0.01343 0.0
C357 C 0.88178 0.94822 -0.00371 0.0
H358 H 0.93821 0.8832 0.10801 0.0
C359 C 0.90242 0.9283 0.94237 0.0
C360 C 0.93429 0.89075 0.9478 0.0
H361 H 0.85447 0.97419 -0.00932 0.0
H362 H 0.89069 0.93989 0.89609 0.0
C363 C 0.94939 0.87708 0.00798 0.0
C364 C 0.72531 0.44658 0.25261 0.0
C365 C 0.71187 0.43064 0.19257 0.0
H366 H 0.71937 0.43647 0.35279 0.0
C367 C 0.67493 0.39774 0.18761 0.0
H368 H 0.75348 0.47184 0.25778 0.0
C369 C 0.65536 0.37729 0.24183 0.0
C370 C 0.67272 0.38939 0.30166 0.0
H371 H 0.6634 0.38533 0.14153 0.0
H372 H 0.62983 0.3494 0.23662 0.0
C373 C 0.70591 0.42598 0.30678 0.0
C374 C 0.20718 0.17481 0.43662 0.0
C375 C 0.17377 0.21099 0.44264 0.0
H376 H 0.25527 0.12915 0.48452 0.0
C377 C 0.15659 0.22247 0.50283 0.0
H378 H 0.22052 0.16482 0.39031 0.0
C379 C 0.17655 0.20189 0.55653 0.0
C380 C 0.21363 0.16942 0.55067 0.0
H381 H 0.1309 0.25004 0.50871 0.0
H382 H 0.16526 0.21391 0.60294 0.0
C383 C 0.22691 0.15401 0.49031 0.0
C384 C 0.39819 0.93132 0.74834 0.0
C385 C 0.3869 0.93095 0.8133 0.0
H386 H 0.38859 0.96534 0.65834 0.0
C387 C 0.35231 0.96169 0.83577 0.0
H388 H 0.42516 0.90821 0.73017 0.0
C389 C 0.33103 0.9938 0.79505 0.0
C390 C 0.34461 0.99692 0.73092 0.0
H391 H 0.34301 0.96191 0.88566 0.0
H392 H 0.30511 1.01734 0.81464 0.0
C393 C 0.37736 0.96418 0.70746 0.0
C394 C 0.65391 0.84933 0.97732 0.0
C395 C 0.6049 0.848 -0.013 0.0
H396 H 0.72085 0.87438 0.01034 0.0
C397 C 0.58638 0.87246 0.03917 0.0
H398 H 0.66952 0.83099 0.93751 0.0
C399 C 0.61553 0.89651 0.08125 0.0
C400 C 0.66465 0.89796 0.07247 0.0
H401 H 0.54895 0.87313 0.04806 0.0
H402 H 0.59884 0.91354 0.12108 0.0
C403 C 0.68345 0.87405 0.0195 0.0
C404 C 0.74915 0.14605 0.22462 0.0
C405 C 0.76271 0.10145 0.24624 0.0
H406 H 0.71397 0.2108 0.24687 0.0
C407 C 0.75249 0.08958 0.30951 0.0
H408 H 0.75633 0.15649 0.17617 0.0
C409 C 0.72875 0.12042 0.34953 0.0
C410 C 0.7138 0.16432 0.32785 0.0
H411 H 0.76156 0.05571 0.3282 0.0
H412 H 0.72163 0.10942 0.39773 0.0
C413 C 0.72508 0.17728 0.26514 0.0
C414 C 0.51205 0.25338 0.55715 0.0
C415 C 0.50326 0.25784 0.49175 0.0
H416 H 0.48959 0.22621 0.64657 0.0
C417 C 0.46099 0.239 0.46761 0.0
H418 H 0.54391 0.26694 0.57797 0.0
C419 C 0.42932 0.21515 0.50778 0.0
C420 C 0.43964 0.20921 0.57261 0.0
H421 H 0.45292 0.24169 0.41752 0.0
H422 H 0.39783 0.19974 0.4878 0.0
C423 C 0.4809 0.22951 0.59675 0.0
C424 C 0.85675 0.63848 0.9131 0.0
C425 C 0.89213 0.66862 0.93501 0.0
H426 H 0.80923 0.5829 0.93467 0.0
C427 C 0.90503 0.6669 -0.00068 0.0
H428 H 0.84622 0.63933 0.86371 0.0
C429 C 0.88479 0.63342 0.04004 0.0
C430 C 0.85105 0.60141 0.01709 0.0
H431 H 0.93261 0.68957 0.017 0.0
H432 H 0.89711 0.6313 0.08857 0.0
C433 C 0.83603 0.60578 0.95373 0.0
C434 C 0.96603 0.3714 0.28762 0.0
C435 C 0.99979 0.3404 0.26238 0.0
H436 H 0.90951 0.4193 0.26746 0.0
C437 C 0.99806 0.33028 0.19699 0.0
H438 H 0.96609 0.37999 0.33773 0.0
C439 C 0.96631 0.35316 0.15721 0.0
C440 C 0.93451 0.38596 0.18174 0.0
H441 H 1.02241 0.30586 0.17582 0.0
H442 H 0.96755 0.34642 0.1066 0.0
C443 C 0.93351 0.39382 0.24761 0.0
C444 C 0.24322 0.51422 0.44466 0.0
C445 C 0.26085 0.49847 0.50309 0.0
H446 H 0.20661 0.49842 0.35945 0.0
C447 C 0.25307 0.45137 0.5197 0.0
H448 H 0.24751 0.55014 0.43015 0.0
C449 C 0.22789 0.4212 0.47888 0.0
C450 C 0.2099 0.43754 0.42067 0.0
H451 H 0.26599 0.43794 0.5644 0.0
H452 H 0.22172 0.38548 0.49351 0.0
C453 C 0.2187 0.48435 0.4041 0.0
C454 C 0.17964 0.72648 0.7282 0.0
C455 C 0.16296 0.70901 0.66973 0.0
H456 H 0.1631 0.76341 0.81469 0.0
C457 C 0.11573 0.71742 0.65377 0.0
H458 H 0.21568 0.72058 0.74238 0.0
C459 C 0.08576 0.74108 0.69518 0.0
C460 C 0.10188 0.75818 0.75385 0.0
H461 H 0.10141 0.70567 0.60896 0.0
H462 H 1.04951 0.74524 0.68109 0.0
C463 C 0.14939 0.7508 0.76986 0.0
loop_
_geom_bond_atom_site_label_1
_geom_bond_atom_site_label_2
_geom_bond_distance
_geom_bond_site_symmetry_2
_ccdc_geom_bond_type
C0 C1 1.351 . S
C0 N3 1.368 . S
C0 H5 0.931 . S
C1 C0 1.351 . S
C1 N2 1.373 . S
C1 H29 0.930 . S
N2 C1 1.373 . S
N2 C4 1.340 . S
N3 C0 1.368 . S
N3 C4 1.321 . S
N3 Co6 2.135 . S
C4 N2 1.340 . S
C4 N3 1.321 . S
C4 H28 0.930 1_556 S
H5 C0 0.931 . S
Co6 N3 2.135 . S
Co6 N9 2.121 . S
Co6 O14 2.055 . S
Co6 O17 2.039 . S
Co6 N20 2.140 1_556 S
C7 O8 1.227 . S
C7 O17 1.265 1_554 S
O8 C7 1.227 . S
N9 Co6 2.121 . S
N9 C11 1.375 1_556 S
N9 C12 1.313 . S
C10 C11 1.338 1_556 S
C10 N13 1.376 . S
C10 H30 0.930 1_556 S
C11 N9 1.375 1_554 S
C11 C10 1.338 1_554 S
C11 H15 0.931 . S
C12 N9 1.313 . S
C12 N13 1.344 . S
C12 H16 0.930 . S
N13 C10 1.376 . S
N13 C12 1.344 . S
O14 Co6 2.055 . S
O14 C18 1.253 . S
H15 C11 0.931 . S
H16 C12 0.930 . S
O17 Co6 2.039 . S
O17 C7 1.265 1_556 S
C18 O14 1.253 . S
C18 O19 1.227 . S
O19 C18 1.227 . S
N20 Co6 2.140 1_554 S
N20 C23 1.346 . S
N20 C24 1.345 . S
C21 C22 1.387 . S
C21 C25 1.391 . S
C22 C21 1.387 . S
C22 C23 1.369 . S
C22 H31 0.929 . S
C23 N20 1.346 . S
C23 C22 1.369 . S
C23 H26 0.928 . S
C24 N20 1.345 . S
C24 C25 1.371 . S
C24 H27 0.931 . S
C25 C21 1.391 . S
C25 C24 1.371 . S
C25 H32 0.930 . S
H26 C23 0.928 . S
H27 C24 0.931 . S
H28 C4 0.930 1_554 S
H29 C1 0.930 . S
H30 C10 0.930 1_554 S
H31 C22 0.929 . S
H32 C25 0.930 . S
C33 C34 1.351 . S
C33 N36 1.368 . S
C33 H38 0.931 . S
C34 C33 1.351 . S
C34 N35 1.373 1_565 S
C34 H62 0.930 . S
N35 C34 1.373 1_545 S
N35 C37 1.340 . S
N36 C33 1.368 . S
N36 C37 1.321 1_565 S
N36 Co39 2.135 . S
C37 N35 1.340 . S
C37 N36 1.321 1_545 S
C37 H61 0.930 . S
H38 C33 0.931 . S
Co39 N36 2.135 . S
Co39 N42 2.121 . S
Co39 O47 2.055 . S
Co39 O50 2.039 . S
Co39 N53 2.140 . S
C40 O41 1.227 1_545 S
C40 O50 1.265 1_545 S
O41 C40 1.227 1_565 S
N42 Co39 2.121 . S
N42 C44 1.375 . S
N42 C45 1.313 . S
C43 C44 1.338 . S
C43 N46 1.377 . S
C43 H63 0.930 . S
C44 N42 1.375 . S
C44 C43 1.338 . S
C44 H48 0.931 . S
C45 N42 1.313 . S
C45 N46 1.344 . S
C45 H49 0.930 . S
N46 C43 1.377 . S
N46 C45 1.344 . S
O47 Co39 2.055 . S
O47 C51 1.253 . S
H48 C44 0.931 . S
H49 C45 0.930 . S
O50 Co39 2.039 . S
O50 C40 1.265 1_565 S
C51 O47 1.253 . S
C51 O52 1.227 . S
O52 C51 1.227 . S
N53 Co39 2.140 . S
N53 C56 1.346 . S
N53 C57 1.345 . S
C54 C55 1.387 . S
C54 C58 1.391 . S
C55 C54 1.387 . S
C55 C56 1.369 . S
C55 H64 0.929 . S
C56 N53 1.346 . S
C56 C55 1.369 . S
C56 H59 0.928 . S
C57 N53 1.345 . S
C57 C58 1.371 . S
C57 H60 0.931 . S
C58 C54 1.391 . S
C58 C57 1.371 . S
C58 H65 0.930 . S
H59 C56 0.928 . S
H60 C57 0.931 . S
H61 C37 0.930 . S
H62 C34 0.930 . S
H63 C43 0.930 . S
H64 C55 0.929 . S
H65 C58 0.930 . S
C66 C67 1.351 . S
C66 N69 1.368 . S
C66 H71 0.931 . S
C67 C66 1.351 . S
C67 N68 1.373 . S
C67 H95 0.930 . S
N68 C67 1.373 . S
N68 C70 1.340 . S
N69 C66 1.368 . S
N69 C70 1.321 . S
N69 Co72 2.135 . S
C70 N68 1.340 . S
C70 N69 1.321 . S
C70 H94 0.930 . S
H71 C66 0.931 . S
Co72 N69 2.135 . S
Co72 N75 2.121 . S
Co72 O80 2.055 . S
Co72 O83 2.039 . S
Co72 N86 2.140 . S
C73 O74 1.227 . S
C73 O83 1.265 . S
O74 C73 1.227 . S
N75 Co72 2.121 . S
N75 C77 1.375 . S
N75 C78 1.313 . S
C76 C77 1.338 . S
C76 N79 1.377 . S
C76 H96 0.930 . S
C77 N75 1.375 . S
C77 C76 1.338 . S
C77 H81 0.931 . S
C78 N75 1.313 . S
C78 N79 1.344 . S
C78 H82 0.930 . S
N79 C76 1.377 . S
N79 C78 1.344 . S
O80 Co72 2.055 . S
O80 C84 1.253 . S
H81 C77 0.931 . S
H82 C78 0.930 . S
O83 Co72 2.039 . S
O83 C73 1.265 . S
C84 O80 1.253 . S
C84 O85 1.227 . S
O85 C84 1.227 . S
N86 Co72 2.140 . S
N86 C89 1.346 . S
N86 C90 1.345 . S
C87 C88 1.387 . S
C87 C91 1.391 . S
C88 C87 1.387 . S
C88 C89 1.369 . S
C88 H97 0.929 . S
C89 N86 1.346 . S
C89 C88 1.369 . S
C89 H92 0.928 . S
C90 N86 1.345 . S
C90 C91 1.371 . S
C90 H93 0.931 . S
C91 C87 1.391 . S
C91 C90 1.371 . S
C91 H98 0.930 . S
H92 C89 0.928 . S
H93 C90 0.931 . S
H94 C70 0.930 . S
H95 C67 0.930 . S
H96 C76 0.930 . S
H97 C88 0.929 . S
H98 C91 0.930 . S
C99 C100 1.351 . S
C99 N102 1.368 . S
C99 H104 0.931 . S
C100 C99 1.351 . S
C100 N101 1.373 1_545 S
C100 H128 0.930 . S
N101 C100 1.373 1_565 S
N101 C103 1.340 . S
N102 C99 1.368 . S
N102 C103 1.321 1_545 S
N102 Co105 2.135 . S
C103 N101 1.340 . S
C103 N102 1.321 1_565 S
C103 H127 0.930 . S
H104 C99 0.931 . S
Co105 N102 2.135 . S
Co105 N108 2.121 . S
Co105 O113 2.055 . S
Co105 O116 2.039 . S
Co105 N119 2.140 . S
C106 O107 1.227 1_565 S
C106 O116 1.265 1_565 S
O107 C106 1.227 1_545 S
N108 Co105 2.121 . S
N108 C110 1.375 . S
N108 C111 1.313 . S
C109 C110 1.338 . S
C109 N112 1.377 . S
C109 H129 0.930 . S
C110 N108 1.375 . S
C110 C109 1.338 . S
C110 H114 0.931 . S
C111 N108 1.313 . S
C111 N112 1.344 . S
C111 H115 0.930 . S
N112 C109 1.377 . S
N112 C111 1.344 . S
O113 Co105 2.055 . S
O113 C117 1.253 . S
H114 C110 0.931 . S
H115 C111 0.930 . S
O116 Co105 2.039 . S
O116 C106 1.265 1_545 S
C117 O113 1.253 . S
C117 O118 1.227 . S
O118 C117 1.227 . S
N119 Co105 2.140 . S
N119 C122 1.346 . S
N119 C123 1.345 . S
C120 C121 1.387 . S
C120 C124 1.391 . S
C121 C120 1.387 . S
C121 C122 1.369 . S
C121 H130 0.929 . S
C122 N119 1.346 . S
C122 C121 1.369 . S
C122 H125 0.928 . S
C123 N119 1.345 . S
C123 C124 1.371 . S
C123 H126 0.931 . S
C124 C120 1.391 . S
C124 C123 1.371 . S
C124 H131 0.930 . S
H125 C122 0.928 . S
H126 C123 0.931 . S
H127 C103 0.930 . S
H128 C100 0.930 . S
H129 C109 0.930 . S
H130 C121 0.929 . S
H131 C124 0.930 . S
C132 C133 1.351 . S
C132 N135 1.368 . S
C132 H137 0.931 . S
C133 C132 1.351 . S
C133 N134 1.373 1_655 S
C133 H161 0.930 . S
N134 C133 1.373 1_455 S
N134 C136 1.340 . S
N135 C132 1.368 . S
N135 C136 1.321 1_655 S
N135 Co138 2.135 . S
C136 N134 1.340 . S
C136 N135 1.321 1_455 S
C136 H160 0.930 . S
H137 C132 0.931 . S
Co138 N135 2.135 . S
Co138 N141 2.121 . S
Co138 O146 2.055 . S
Co138 O149 2.039 . S
Co138 N152 2.140 . S
C139 O140 1.227 1_455 S
C139 O149 1.265 1_455 S
O140 C139 1.227 1_655 S
N141 Co138 2.121 . S
N141 C143 1.375 . S
N141 C144 1.313 . S
C142 C143 1.338 . S
C142 N145 1.377 . S
C142 H162 0.930 . S
C143 N141 1.375 . S
C143 C142 1.338 . S
C143 H147 0.931 . S
C144 N141 1.313 . S
C144 N145 1.344 . S
C144 H148 0.930 . S
N145 C142 1.377 . S
N145 C144 1.344 . S
O146 Co138 2.055 . S
O146 C150 1.253 . S
H147 C143 0.931 . S
H148 C144 0.930 . S
O149 Co138 2.039 . S
O149 C139 1.265 1_655 S
C150 O146 1.253 . S
C150 O151 1.227 . S
O151 C150 1.227 . S
N152 Co138 2.140 . S
N152 C155 1.346 . S
N152 C156 1.345 . S
C153 C154 1.387 . S
C153 C157 1.391 . S
C154 C153 1.387 . S
C154 C155 1.369 . S
C154 H163 0.929 . S
C155 N152 1.346 . S
C155 C154 1.369 . S
C155 H158 0.928 . S
C156 N152 1.345 . S
C156 C157 1.371 . S
C156 H159 0.931 . S
C157 C153 1.391 . S
C157 C156 1.371 . S
C157 H164 0.930 . S
H158 C155 0.928 . S
H159 C156 0.931 . S
H160 C136 0.930 . S
H161 C133 0.930 . S
H162 C142 0.930 . S
H163 C154 0.929 . S
H164 C157 0.930 . S
C165 C166 1.351 . S
C165 N168 1.368 . S
C165 H170 0.931 . S
C166 C165 1.351 . S
C166 N167 1.373 . S
C166 H194 0.930 . S
N167 C166 1.373 . S
N167 C169 1.340 . S
N168 C165 1.368 . S
N168 C169 1.321 . S
N168 Co171 2.135 . S
C169 N167 1.340 . S
C169 N168 1.321 . S
C169 H193 0.930 . S
H170 C165 0.931 . S
Co171 N168 2.135 . S
Co171 N174 2.121 . S
Co171 O179 2.055 . S
Co171 O182 2.039 . S
Co171 N185 2.140 1_554 S
C172 O173 1.227 1_554 S
C172 O182 1.265 . S
O173 C172 1.227 1_556 S
N174 Co171 2.121 . S
N174 C176 1.375 . S
N174 C177 1.313 . S
C175 C176 1.338 . S
C175 N178 1.377 . S
C175 H195 0.930 . S
C176 N174 1.375 . S
C176 C175 1.338 . S
C176 H180 0.931 1_554 S
C177 N174 1.313 . S
C177 N178 1.344 . S
C177 H181 0.930 . S
N178 C175 1.377 . S
N178 C177 1.344 . S
O179 Co171 2.055 . S
O179 C183 1.253 . S
H180 C176 0.931 1_556 S
H181 C177 0.930 . S
O182 Co171 2.039 . S
O182 C172 1.265 . S
C183 O179 1.253 . S
C183 O184 1.227 . S
O184 C183 1.227 . S
N185 Co171 2.140 1_556 S
N185 C188 1.346 . S
N185 C189 1.345 . S
C186 C187 1.387 . S
C186 C190 1.391 . S
C187 C186 1.387 . S
C187 C188 1.369 . S
C187 H196 0.929 . S
C188 N185 1.346 . S
C188 C187 1.369 . S
C188 H191 0.928 . S
C189 N185 1.345 . S
C189 C190 1.371 . S
C189 H192 0.931 1_556 S
C190 C186 1.391 . S
C190 C189 1.371 . S
C190 H197 0.930 . S
H191 C188 0.928 . S
H192 C189 0.931 1_554 S
H193 C169 0.930 . S
H194 C166 0.930 . S
H195 C175 0.930 . S
H196 C187 0.929 . S
H197 C190 0.930 . S
C198 C199 1.351 . S
C198 N201 1.368 . S
C198 H203 0.931 . S
C199 C198 1.351 . S
C199 N200 1.373 1_455 S
C199 H227 0.930 . S
N200 C199 1.373 1_655 S
N200 C202 1.340 . S
N201 C198 1.368 . S
N201 C202 1.321 1_455 S
N201 Co204 2.135 . S
C202 N200 1.340 . S
C202 N201 1.321 1_655 S
C202 H226 0.930 . S
H203 C198 0.931 . S
Co204 N201 2.135 . S
Co204 N207 2.121 . S
Co204 O212 2.055 . S
Co204 O215 2.039 . S
Co204 N218 2.140 . S
C205 O206 1.227 1_655 S
C205 O215 1.265 1_655 S
O206 C205 1.227 1_455 S
N207 Co204 2.121 . S
N207 C209 1.375 . S
N207 C210 1.313 . S
C208 C209 1.338 . S
C208 N211 1.377 . S
C208 H228 0.930 . S
C209 N207 1.375 . S
C209 C208 1.338 . S
C209 H213 0.931 . S
C210 N207 1.313 . S
C210 N211 1.344 . S
C210 H214 0.930 . S
N211 C208 1.377 . S
N211 C210 1.344 . S
O212 Co204 2.055 . S
O212 C216 1.253 . S
H213 C209 0.931 . S
H214 C210 0.930 . S
O215 Co204 2.039 . S
O215 C205 1.265 1_455 S
C216 O212 1.253 . S
C216 O217 1.227 . S
O217 C216 1.227 . S
N218 Co204 2.140 . S
N218 C221 1.346 . S
N218 C222 1.345 . S
C219 C220 1.387 . S
C219 C223 1.391 . S
C220 C219 1.387 . S
C220 C221 1.369 . S
C220 H229 0.929 . S
C221 N218 1.346 . S
C221 C220 1.369 . S
C221 H224 0.928 . S
C222 N218 1.345 . S
C222 C223 1.371 . S
C222 H225 0.931 . S
C223 C219 1.391 . S
C223 C222 1.371 . S
C223 H230 0.930 . S
H224 C221 0.928 . S
H225 C222 0.931 . S
H226 C202 0.930 . S
H227 C199 0.930 . S
H228 C208 0.930 . S
H229 C220 0.929 . S
H230 C223 0.930 . S
C231 C232 1.351 . S
C231 N234 1.368 . S
C231 H236 0.931 . S
C232 C231 1.351 . S
C232 N233 1.373 . S
C232 H260 0.930 . S
N233 C232 1.373 . S
N233 C235 1.340 . S
N234 C231 1.368 . S
N234 C235 1.321 . S
N234 Co237 2.135 . S
C235 N233 1.340 . S
C235 N234 1.321 . S
C235 H259 0.930 . S
H236 C231 0.931 . S
Co237 N234 2.135 . S
Co237 N240 2.121 . S
Co237 O245 2.055 . S
Co237 O248 2.039 . S
Co237 N251 2.140 . S
C238 O239 1.227 . S
C238 O248 1.265 . S
O239 C238 1.227 . S
N240 Co237 2.121 . S
N240 C242 1.375 . S
N240 C243 1.313 . S
C241 C242 1.338 . S
C241 N244 1.377 . S
C241 H261 0.930 . S
C242 N240 1.375 . S
C242 C241 1.338 . S
C242 H246 0.931 . S
C243 N240 1.313 . S
C243 N244 1.344 . S
C243 H247 0.930 . S
N244 C241 1.377 . S
N244 C243 1.344 . S
O245 Co237 2.055 . S
O245 C249 1.253 . S
H246 C242 0.931 . S
H247 C243 0.930 . S
O248 Co237 2.039 . S
O248 C238 1.265 . S
C249 O245 1.253 . S
C249 O250 1.227 . S
O250 C249 1.227 . S
N251 Co237 2.140 . S
N251 C254 1.346 . S
N251 C255 1.345 . S
C252 C253 1.387 . S
C252 C256 1.391 . S
C253 C252 1.387 . S
C253 C254 1.369 . S
C253 H262 0.929 . S
C254 N251 1.346 . S
C254 C253 1.369 . S
C254 H257 0.928 . S
C255 N251 1.345 . S
C255 C256 1.371 . S
C255 H258 0.931 . S
C256 C252 1.391 . S
C256 C255 1.371 . S
C256 H263 0.930 . S
H257 C254 0.928 . S
H258 C255 0.931 . S
H259 C235 0.930 . S
H260 C232 0.930 . S
H261 C241 0.930 . S
H262 C253 0.929 . S
H263 C256 0.930 . S
C264 C265 1.387 1_556 S
C264 H268 0.950 . S
C264 C273 1.390 . S
C265 C264 1.387 1_554 S
C265 C267 1.387 . S
H266 C273 0.950 . S
C267 C265 1.387 . S
C267 C269 1.390 . S
C267 H271 0.950 . S
H268 C264 0.950 . S
C269 C267 1.390 . S
C269 C270 1.387 . S
C269 H272 0.950 . S
C270 C269 1.387 . S
C270 C273 1.387 1_554 S
H271 C267 0.950 . S
H272 C269 0.950 . S
C273 C264 1.390 . S
C273 H266 0.950 . S
C273 C270 1.387 1_556 S
C274 C275 1.387 . S
C274 H278 0.950 . S
C274 C283 1.390 . S
C275 C274 1.387 . S
C275 C277 1.387 . S
H276 C283 0.950 . S
C277 C275 1.387 . S
C277 C279 1.390 . S
C277 H281 0.950 . S
H278 C274 0.950 . S
C279 C277 1.390 . S
C279 C280 1.387 . S
C279 H282 0.950 . S
C280 C279 1.387 . S
C280 C283 1.387 . S
H281 C277 0.950 . S
H282 C279 0.950 . S
C283 C274 1.390 . S
C283 H276 0.950 . S
C283 C280 1.387 . S
C284 C285 1.387 . S
C284 H288 0.950 . S
C284 C293 1.390 . S
C285 C284 1.387 . S
C285 C287 1.387 . S
H286 C293 0.950 . S
C287 C285 1.387 . S
C287 C289 1.390 . S
C287 H291 0.950 . S
H288 C284 0.950 . S
C289 C287 1.390 . S
C289 C290 1.387 . S
C289 H292 0.950 . S
C290 C289 1.387 . S
C290 C293 1.387 . S
H291 C287 0.950 . S
H292 C289 0.950 . S
C293 C284 1.390 . S
C293 H286 0.950 . S
C293 C290 1.387 . S
C294 C295 1.387 . S
C294 H298 0.950 . S
C294 C303 1.390 . S
C295 C294 1.387 . S
C295 C297 1.387 . S
H296 C303 0.950 . S
C297 C295 1.387 . S
C297 C299 1.390 . S
C297 H301 0.950 . S
H298 C294 0.950 . S
C299 C297 1.390 . S
C299 C300 1.387 . S
C299 H302 0.950 . S
C300 C299 1.387 . S
C300 C303 1.387 . S
H301 C297 0.950 . S
H302 C299 0.950 . S
C303 C294 1.390 . S
C303 H296 0.950 . S
C303 C300 1.387 . S
C304 C305 1.387 . S
C304 H308 0.950 . S
C304 C313 1.390 . S
C305 C304 1.387 . S
C305 C307 1.387 . S
H306 C313 0.950 . S
C307 C305 1.387 . S
C307 C309 1.390 . S
C307 H311 0.950 . S
H308 C304 0.950 . S
C309 C307 1.390 . S
C309 C310 1.387 . S
C309 H312 0.950 . S
C310 C309 1.387 . S
C310 C313 1.387 . S
H311 C307 0.950 . S
H312 C309 0.950 . S
C313 C304 1.390 . S
C313 H306 0.950 . S
C313 C310 1.387 . S
C314 C315 1.387 . S
C314 H318 0.950 . S
C314 C323 1.390 . S
C315 C314 1.387 . S
C315 C317 1.387 . S
H316 C323 0.950 . S
C317 C315 1.387 . S
C317 C319 1.390 . S
C317 H321 0.950 . S
H318 C314 0.950 . S
C319 C317 1.390 . S
C319 C320 1.387 . S
C319 H322 0.950 . S
C320 C319 1.387 . S
C320 C323 1.387 . S
H321 C317 0.950 . S
H322 C319 0.950 . S
C323 C314 1.390 . S
C323 H316 0.950 . S
C323 C320 1.387 . S
C324 C325 1.387 . S
C324 H328 0.950 . S
C324 C333 1.390 . S
C325 C324 1.387 . S
C325 C327 1.387 . S
H326 C333 0.950 . S
C327 C325 1.387 . S
C327 C329 1.390 . S
C327 H331 0.950 . S
H328 C324 0.950 . S
C329 C327 1.390 . S
C329 C330 1.387 . S
C329 H332 0.950 . S
C330 C329 1.387 . S
C330 C333 1.387 . S
H331 C327 0.950 . S
H332 C329 0.950 . S
C333 C324 1.390 . S
C333 H326 0.950 . S
C333 C330 1.387 . S
C334 C335 1.387 1_554 S
C334 H338 0.950 . S
C334 C343 1.390 . S
C335 C334 1.387 1_556 S
C335 C337 1.387 . S
H336 C343 0.950 . S
C337 C335 1.387 . S
C337 C339 1.390 1_556 S
C337 H341 0.950 . S
H338 C334 0.950 . S
C339 C337 1.390 1_554 S
C339 C340 1.387 . S
C339 H342 0.950 . S
C340 C339 1.387 . S
C340 C343 1.387 . S
H341 C337 0.950 . S
H342 C339 0.950 . S
C343 C334 1.390 . S
C343 H336 0.950 . S
C343 C340 1.387 . S
C344 C345 1.387 . S
C344 H348 0.950 . S
C344 C353 1.390 . S
C345 C344 1.387 . S
C345 C347 1.387 . S
H346 C353 0.950 . S
C347 C345 1.387 . S
C347 C349 1.390 . S
C347 H351 0.950 . S
H348 C344 0.950 . S
C349 C347 1.390 . S
C349 C350 1.387 . S
C349 H352 0.950 . S
C350 C349 1.387 . S
C350 C353 1.387 . S
H351 C347 0.950 . S
H352 C349 0.950 . S
C353 C344 1.390 . S
C353 H346 0.950 . S
C353 C350 1.387 . S
C354 C355 1.387 . S
C354 H358 0.950 . S
C354 C363 1.390 . S
C355 C354 1.387 . S
C355 C357 1.387 1_554 S
H356 C363 0.950 . S
C357 C355 1.387 1_556 S
C357 C359 1.390 . S
C357 H361 0.950 . S
H358 C354 0.950 . S
C359 C357 1.390 . S
C359 C360 1.387 . S
C359 H362 0.950 . S
C360 C359 1.387 . S
C360 C363 1.387 1_556 S
H361 C357 0.950 . S
H362 C359 0.950 . S
C363 C354 1.390 . S
C363 H356 0.950 . S
C363 C360 1.387 1_554 S
C364 C365 1.387 . S
C364 H368 0.950 . S
C364 C373 1.390 . S
C365 C364 1.387 . S
C365 C367 1.387 . S
H366 C373 0.950 . S
C367 C365 1.387 . S
C367 C369 1.390 . S
C367 H371 0.950 . S
H368 C364 0.950 . S
C369 C367 1.390 . S
C369 C370 1.387 . S
C369 H372 0.950 . S
C370 C369 1.387 . S
C370 C373 1.387 . S
H371 C367 0.950 . S
H372 C369 0.950 . S
C373 C364 1.390 . S
C373 H366 0.950 . S
C373 C370 1.387 . S
C374 C375 1.387 . S
C374 H378 0.950 . S
C374 C383 1.390 . S
C375 C374 1.387 . S
C375 C377 1.387 . S
H376 C383 0.950 . S
C377 C375 1.387 . S
C377 C379 1.390 . S
C377 H381 0.950 . S
H378 C374 0.950 . S
C379 C377 1.390 . S
C379 C380 1.387 . S
C379 H382 0.950 . S
C380 C379 1.387 . S
C380 C383 1.387 . S
H381 C377 0.950 . S
H382 C379 0.950 . S
C383 C374 1.390 . S
C383 H376 0.950 . S
C383 C380 1.387 . S
C384 C385 1.387 . S
C384 H388 0.950 . S
C384 C393 1.390 . S
C385 C384 1.387 . S
C385 C387 1.387 . S
H386 C393 0.950 . S
C387 C385 1.387 . S
C387 C389 1.390 . S
C387 H391 0.950 . S
H388 C384 0.950 . S
C389 C387 1.390 . S
C389 C390 1.387 . S
C389 H392 0.950 . S
C390 C389 1.387 . S
C390 C393 1.387 . S
H391 C387 0.950 . S
H392 C389 0.950 . S
C393 C384 1.390 . S
C393 H386 0.950 . S
C393 C390 1.387 . S
C394 C395 1.387 . S
C394 H398 0.950 1_554 S
C394 C403 1.390 . S
C395 C394 1.387 . S
C395 C397 1.387 . S
H396 C403 0.950 . S
C397 C395 1.387 . S
C397 C399 1.390 . S
C397 H401 0.950 . S
H398 C394 0.950 1_556 S
C399 C397 1.390 . S
C399 C400 1.387 . S
C399 H402 0.950 . S
C400 C399 1.387 . S
C400 C403 1.387 . S
H401 C397 0.950 . S
H402 C399 0.950 . S
C403 C394 1.390 . S
C403 H396 0.950 . S
C403 C400 1.387 . S
C404 C405 1.387 . S
C404 H408 0.950 . S
C404 C413 1.390 . S
C405 C404 1.387 . S
C405 C407 1.387 . S
H406 C413 0.950 . S
C407 C405 1.387 . S
C407 C409 1.390 . S
C407 H411 0.950 . S
H408 C404 0.950 . S
C409 C407 1.390 . S
C409 C410 1.387 . S
C409 H412 0.950 . S
C410 C409 1.387 . S
C410 C413 1.387 . S
H411 C407 0.950 . S
H412 C409 0.950 . S
C413 C404 1.390 . S
C413 H406 0.950 . S
C413 C410 1.387 . S
C414 C415 1.387 . S
C414 H418 0.950 . S
C414 C423 1.390 . S
C415 C414 1.387 . S
C415 C417 1.387 . S
H416 C423 0.950 . S
C417 C415 1.387 . S
C417 C419 1.390 . S
C417 H421 0.950 . S
H418 C414 0.950 . S
C419 C417 1.390 . S
C419 C420 1.387 . S
C419 H422 0.950 . S
C420 C419 1.387 . S
C420 C423 1.387 . S
H421 C417 0.950 . S
H422 C419 0.950 . S
C423 C414 1.390 . S
C423 H416 0.950 . S
C423 C420 1.387 . S
C424 C425 1.387 . S
C424 H428 0.950 . S
C424 C433 1.390 . S
C425 C424 1.387 . S
C425 C427 1.387 . S
H426 C433 0.950 . S
C427 C425 1.387 . S
C427 C429 1.390 . S
C427 H431 0.950 . S
H428 C424 0.950 . S
C429 C427 1.390 . S
C429 C430 1.387 . S
C429 H432 0.950 . S
C430 C429 1.387 . S
C430 C433 1.387 . S
H431 C427 0.950 . S
H432 C429 0.950 . S
C433 C424 1.390 . S
C433 H426 0.950 . S
C433 C430 1.387 . S
C434 C435 1.387 . S
C434 H438 0.950 . S
C434 C443 1.390 . S
C435 C434 1.387 . S
C435 C437 1.387 . S
H436 C443 0.950 . S
C437 C435 1.387 . S
C437 C439 1.390 . S
C437 H441 0.950 . S
H438 C434 0.950 . S
C439 C437 1.390 . S
C439 C440 1.387 . S
C439 H442 0.950 . S
C440 C439 1.387 . S
C440 C443 1.387 . S
H441 C437 0.950 . S
H442 C439 0.950 . S
C443 C434 1.390 . S
C443 H436 0.950 . S
C443 C440 1.387 . S
C444 C445 1.387 . S
C444 H448 0.950 . S
C444 C453 1.390 . S
C445 C444 1.387 . S
C445 C447 1.387 . S
H446 C453 0.950 . S
C447 C445 1.387 . S
C447 C449 1.390 . S
C447 H451 0.950 . S
H448 C444 0.950 . S
C449 C447 1.390 . S
C449 C450 1.387 . S
C449 H452 0.950 . S
C450 C449 1.387 . S
C450 C453 1.387 . S
H451 C447 0.950 . S
H452 C449 0.950 . S
C453 C444 1.390 . S
C453 H446 0.950 . S
C453 C450 1.387 . S
C454 C455 1.387 . S
C454 H458 0.950 . S
C454 C463 1.390 . S
C455 C454 1.387 . S
C455 C457 1.387 . S
H456 C463 0.950 . S
C457 C455 1.387 . S
C457 C459 1.390 . S
C457 H461 0.950 . S
H458 C454 0.950 . S
C459 C457 1.390 . S
C459 C460 1.387 . S
C459 H462 0.950 . S
C460 C459 1.387 . S
C460 C463 1.387 . S
H461 C457 0.950 . S
H462 C459 0.950 . S
C463 C454 1.390 . S
C463 H456 0.950 . S
C463 C460 1.387 . S
C265 N167 1.291 . S
C270 N2 1.289 1_554 S
C275 N200 1.290 . S
C280 N35 1.289 . S
C285 N68 1.289 . S
C290 N233 1.291 . S
C295 N134 1.289 . S
C300 N101 1.290 . S
C305 C252 1.024 . S
C310 C21 1.023 . S
C315 C54 1.024 . S
C320 C153 1.023 . S
C325 C186 1.024 . S
C330 C87 1.023 . S
C335 C120 1.023 . S
C340 C219 1.024 . S
C345 C249 1.725 . S
C350 C18 1.725 . S
C355 C51 1.724 . S
C360 C150 1.724 . S
C365 C183 1.725 . S
C370 C84 1.726 . S
C375 C216 1.724 . S
C380 C117 1.724 . S
C385 N13 1.695 . S
C390 C106 1.673 . S
C395 C7 1.672 . S
C400 N46 1.694 . S
C405 C40 1.674 . S
C410 N79 1.696 . S
C415 C73 1.671 . S
C420 N112 1.695 . S
C425 N145 1.694 . S
C430 C172 1.671 1_556 S
C435 C205 1.674 . S
C440 N178 1.696 . S
C445 C238 1.672 . S
C450 N211 1.696 . S
C455 N244 1.695 . S
C460 C139 1.673 . S
