# Generated by pormake.
# Topology son, (6)-cn, num edge types: 1
# Building blocks:
#     Node 0, Type 0, BuildingBlock: BETFEN_clean_sbu_0, # of connection points: 6
#     Node 1, Type 0, BuildingBlock: BETFEN_clean_sbu_0, # of connection points: 6
#     Node 2, Type 0, BuildingBlock: BETFEN_clean_sbu_0, # of connection points: 6
#     Node 3, Type 0, BuildingBlock: BETFEN_clean_sbu_0, # of connection points: 6
#     Node 4, Type 0, BuildingBlock: BETFEN_clean_sbu_0, # of connection points: 6
#     Node 5, Type 0, BuildingBlock: BETFEN_clean_sbu_0, # of connection points: 6
#     Node 6, Type 0, BuildingBlock: BETFEN_clean_sbu_0, # of connection points: 6
#     Node 7, Type 0, BuildingBlock: BETFEN_clean_sbu_0, # of connection points: 6
#     Node 8, Type 0, BuildingBlock: BETFEN_clean_sbu_0, # of connection points: 6
#     Node 9, Type 0, BuildingBlock: BETFEN_clean_sbu_0, # of connection points: 6
#     Node 10, Type 0, BuildingBlock: BETFEN_clean_sbu_0, # of connection points: 6
#     Node 11, Type 0, BuildingBlock: BETFEN_clean_sbu_0, # of connection points: 6
#     Node 12, Type 0, BuildingBlock: BETFEN_clean_sbu_0, # of connection points: 6
#     Node 13, Type 0, BuildingBlock: BETFEN_clean_sbu_0, # of connection points: 6
#     Node 14, Type 0, BuildingBlock: BETFEN_clean_sbu_0, # of connection points: 6
#     Node 15, Type 0, BuildingBlock: BETFEN_clean_sbu_0, # of connection points: 6
#     Node 16, Type 0, BuildingBlock: BETFEN_clean_sbu_0, # of connection points: 6
#     Node 17, Type 0, BuildingBlock: BETFEN_clean_sbu_0, # of connection points: 6
#     Node 18, Type 0, BuildingBlock: BETFEN_clean_sbu_0, # of connection points: 6
#     Node 19, Type 0, BuildingBlock: BETFEN_clean_sbu_0, # of connection points: 6
#     Node 20, Type 0, BuildingBlock: BETFEN_clean_sbu_0, # of connection points: 6
#     Node 21, Type 0, BuildingBlock: BETFEN_clean_sbu_0, # of connection points: 6
#     Node 22, Type 0, BuildingBlock: BETFEN_clean_sbu_0, # of connection points: 6
#     Node 23, Type 0, BuildingBlock: BETFEN_clean_sbu_0, # of connection points: 6
#     Node 24, Type 0, BuildingBlock: BETFEN_clean_sbu_0, # of connection points: 6
#     Node 25, Type 0, BuildingBlock: BETFEN_clean_sbu_0, # of connection points: 6
#     Node 26, Type 0, BuildingBlock: BETFEN_clean_sbu_0, # of connection points: 6
#     Node 27, Type 0, BuildingBlock: BETFEN_clean_sbu_0, # of connection points: 6
#     Node 28, Type 0, BuildingBlock: BETFEN_clean_sbu_0, # of connection points: 6
#     Node 29, Type 0, BuildingBlock: BETFEN_clean_sbu_0, # of connection points: 6
#     Node 30, Type 0, BuildingBlock: BETFEN_clean_sbu_0, # of connection points: 6
#     Node 31, Type 0, BuildingBlock: BETFEN_clean_sbu_0, # of connection points: 6
#     Edge 32, Type (0, 0), BuildingBlock: UVAHIK_clean_linker_0, # of connection points: 2
#     Edge 33, Type (0, 0), BuildingBlock: UVAHIK_clean_linker_0, # of connection points: 2
#     Edge 34, Type (0, 0), BuildingBlock: UVAHIK_clean_linker_0, # of connection points: 2
#     Edge 35, Type (0, 0), BuildingBlock: UVAHIK_clean_linker_0, # of connection points: 2
#     Edge 36, Type (0, 0), BuildingBlock: UVAHIK_clean_linker_0, # of connection points: 2
#     Edge 37, Type (0, 0), BuildingBlock: UVAHIK_clean_linker_0, # of connection points: 2
#     Edge 38, Type (0, 0), BuildingBlock: UVAHIK_clean_linker_0, # of connection points: 2
#     Edge 39, Type (0, 0), BuildingBlock: UVAHIK_clean_linker_0, # of connection points: 2
#     Edge 40, Type (0, 0), BuildingBlock: UVAHIK_clean_linker_0, # of connection points: 2
#     Edge 41, Type (0, 0), BuildingBlock: UVAHIK_clean_linker_0, # of connection points: 2
#     Edge 42, Type (0, 0), BuildingBlock: UVAHIK_clean_linker_0, # of connection points: 2
#     Edge 43, Type (0, 0), BuildingBlock: UVAHIK_clean_linker_0, # of connection points: 2
#     Edge 44, Type (0, 0), BuildingBlock: UVAHIK_clean_linker_0, # of connection points: 2
#     Edge 45, Type (0, 0), BuildingBlock: UVAHIK_clean_linker_0, # of connection points: 2
#     Edge 46, Type (0, 0), BuildingBlock: UVAHIK_clean_linker_0, # of connection points: 2
#     Edge 47, Type (0, 0), BuildingBlock: UVAHIK_clean_linker_0, # of connection points: 2
#     Edge 48, Type (0, 0), BuildingBlock: UVAHIK_clean_linker_0, # of connection points: 2
#     Edge 49, Type (0, 0), BuildingBlock: UVAHIK_clean_linker_0, # of connection points: 2
#     Edge 50, Type (0, 0), BuildingBlock: UVAHIK_clean_linker_0, # of connection points: 2
#     Edge 51, Type (0, 0), BuildingBlock: UVAHIK_clean_linker_0, # of connection points: 2
#     Edge 52, Type (0, 0), BuildingBlock: UVAHIK_clean_linker_0, # of connection points: 2
#     Edge 53, Type (0, 0), BuildingBlock: UVAHIK_clean_linker_0, # of connection points: 2
#     Edge 54, Type (0, 0), BuildingBlock: UVAHIK_clean_linker_0, # of connection points: 2
#     Edge 55, Type (0, 0), BuildingBlock: UVAHIK_clean_linker_0, # of connection points: 2
#     Edge 56, Type (0, 0), BuildingBlock: UVAHIK_clean_linker_0, # of connection points: 2
#     Edge 57, Type (0, 0), BuildingBlock: UVAHIK_clean_linker_0, # of connection points: 2
#     Edge 58, Type (0, 0), BuildingBlock: UVAHIK_clean_linker_0, # of connection points: 2
#     Edge 59, Type (0, 0), BuildingBlock: UVAHIK_clean_linker_0, # of connection points: 2
#     Edge 60, Type (0, 0), BuildingBlock: UVAHIK_clean_linker_0, # of connection points: 2
#     Edge 61, Type (0, 0), BuildingBlock: UVAHIK_clean_linker_0, # of connection points: 2
#     Edge 62, Type (0, 0), BuildingBlock: UVAHIK_clean_linker_0, # of connection points: 2
#     Edge 63, Type (0, 0), BuildingBlock: UVAHIK_clean_linker_0, # of connection points: 2
#     Edge 64, Type (0, 0), BuildingBlock: UVAHIK_clean_linker_0, # of connection points: 2
#     Edge 65, Type (0, 0), BuildingBlock: UVAHIK_clean_linker_0, # of connection points: 2
#     Edge 66, Type (0, 0), BuildingBlock: UVAHIK_clean_linker_0, # of connection points: 2
#     Edge 67, Type (0, 0), BuildingBlock: UVAHIK_clean_linker_0, # of connection points: 2
#     Edge 68, Type (0, 0), BuildingBlock: UVAHIK_clean_linker_0, # of connection points: 2
#     Edge 69, Type (0, 0), BuildingBlock: UVAHIK_clean_linker_0, # of connection points: 2
#     Edge 70, Type (0, 0), BuildingBlock: UVAHIK_clean_linker_0, # of connection points: 2
#     Edge 71, Type (0, 0), BuildingBlock: UVAHIK_clean_linker_0, # of connection points: 2
#     Edge 72, Type (0, 0), BuildingBlock: UVAHIK_clean_linker_0, # of connection points: 2
#     Edge 73, Type (0, 0), BuildingBlock: UVAHIK_clean_linker_0, # of connection points: 2
#     Edge 74, Type (0, 0), BuildingBlock: UVAHIK_clean_linker_0, # of connection points: 2
#     Edge 75, Type (0, 0), BuildingBlock: UVAHIK_clean_linker_0, # of connection points: 2
#     Edge 76, Type (0, 0), BuildingBlock: UVAHIK_clean_linker_0, # of connection points: 2
#     Edge 77, Type (0, 0), BuildingBlock: UVAHIK_clean_linker_0, # of connection points: 2
#     Edge 78, Type (0, 0), BuildingBlock: UVAHIK_clean_linker_0, # of connection points: 2
#     Edge 79, Type (0, 0), BuildingBlock: UVAHIK_clean_linker_0, # of connection points: 2
#     Edge 80, Type (0, 0), BuildingBlock: UVAHIK_clean_linker_0, # of connection points: 2
#     Edge 81, Type (0, 0), BuildingBlock: UVAHIK_clean_linker_0, # of connection points: 2
#     Edge 82, Type (0, 0), BuildingBlock: UVAHIK_clean_linker_0, # of connection points: 2
#     Edge 83, Type (0, 0), BuildingBlock: UVAHIK_clean_linker_0, # of connection points: 2
#     Edge 84, Type (0, 0), BuildingBlock: UVAHIK_clean_linker_0, # of connection points: 2
#     Edge 85, Type (0, 0), BuildingBlock: UVAHIK_clean_linker_0, # of connection points: 2
#     Edge 86, Type (0, 0), BuildingBlock: UVAHIK_clean_linker_0, # of connection points: 2
#     Edge 87, Type (0, 0), BuildingBlock: UVAHIK_clean_linker_0, # of connection points: 2
#     Edge 88, Type (0, 0), BuildingBlock: UVAHIK_clean_linker_0, # of connection points: 2
#     Edge 89, Type (0, 0), BuildingBlock: UVAHIK_clean_linker_0, # of connection points: 2
#     Edge 90, Type (0, 0), BuildingBlock: UVAHIK_clean_linker_0, # of connection points: 2
#     Edge 91, Type (0, 0), BuildingBlock: UVAHIK_clean_linker_0, # of connection points: 2
#     Edge 92, Type (0, 0), BuildingBlock: UVAHIK_clean_linker_0, # of connection points: 2
#     Edge 93, Type (0, 0), BuildingBlock: UVAHIK_clean_linker_0, # of connection points: 2
#     Edge 94, Type (0, 0), BuildingBlock: UVAHIK_clean_linker_0, # of connection points: 2
#     Edge 95, Type (0, 0), BuildingBlock: UVAHIK_clean_linker_0, # of connection points: 2
#     Edge 96, Type (0, 0), BuildingBlock: UVAHIK_clean_linker_0, # of connection points: 2
#     Edge 97, Type (0, 0), BuildingBlock: UVAHIK_clean_linker_0, # of connection points: 2
#     Edge 98, Type (0, 0), BuildingBlock: UVAHIK_clean_linker_0, # of connection points: 2
#     Edge 99, Type (0, 0), BuildingBlock: UVAHIK_clean_linker_0, # of connection points: 2
#     Edge 100, Type (0, 0), BuildingBlock: UVAHIK_clean_linker_0, # of connection points: 2
#     Edge 101, Type (0, 0), BuildingBlock: UVAHIK_clean_linker_0, # of connection points: 2
#     Edge 102, Type (0, 0), BuildingBlock: UVAHIK_clean_linker_0, # of connection points: 2
#     Edge 103, Type (0, 0), BuildingBlock: UVAHIK_clean_linker_0, # of connection points: 2
#     Edge 104, Type (0, 0), BuildingBlock: UVAHIK_clean_linker_0, # of connection points: 2
#     Edge 105, Type (0, 0), BuildingBlock: UVAHIK_clean_linker_0, # of connection points: 2
#     Edge 106, Type (0, 0), BuildingBlock: UVAHIK_clean_linker_0, # of connection points: 2
#     Edge 107, Type (0, 0), BuildingBlock: UVAHIK_clean_linker_0, # of connection points: 2
#     Edge 108, Type (0, 0), BuildingBlock: UVAHIK_clean_linker_0, # of connection points: 2
#     Edge 109, Type (0, 0), BuildingBlock: UVAHIK_clean_linker_0, # of connection points: 2
#     Edge 110, Type (0, 0), BuildingBlock: UVAHIK_clean_linker_0, # of connection points: 2
#     Edge 111, Type (0, 0), BuildingBlock: UVAHIK_clean_linker_0, # of connection points: 2
#     Edge 112, Type (0, 0), BuildingBlock: UVAHIK_clean_linker_0, # of connection points: 2
#     Edge 113, Type (0, 0), BuildingBlock: UVAHIK_clean_linker_0, # of connection points: 2
#     Edge 114, Type (0, 0), BuildingBlock: UVAHIK_clean_linker_0, # of connection points: 2
#     Edge 115, Type (0, 0), BuildingBlock: UVAHIK_clean_linker_0, # of connection points: 2
#     Edge 116, Type (0, 0), BuildingBlock: UVAHIK_clean_linker_0, # of connection points: 2
#     Edge 117, Type (0, 0), BuildingBlock: UVAHIK_clean_linker_0, # of connection points: 2
#     Edge 118, Type (0, 0), BuildingBlock: UVAHIK_clean_linker_0, # of connection points: 2
#     Edge 119, Type (0, 0), BuildingBlock: UVAHIK_clean_linker_0, # of connection points: 2
#     Edge 120, Type (0, 0), BuildingBlock: UVAHIK_clean_linker_0, # of connection points: 2
#     Edge 121, Type (0, 0), BuildingBlock: UVAHIK_clean_linker_0, # of connection points: 2
#     Edge 122, Type (0, 0), BuildingBlock: UVAHIK_clean_linker_0, # of connection points: 2
#     Edge 123, Type (0, 0), BuildingBlock: UVAHIK_clean_linker_0, # of connection points: 2
#     Edge 124, Type (0, 0), BuildingBlock: UVAHIK_clean_linker_0, # of connection points: 2
#     Edge 125, Type (0, 0), BuildingBlock: UVAHIK_clean_linker_0, # of connection points: 2
#     Edge 126, Type (0, 0), BuildingBlock: UVAHIK_clean_linker_0, # of connection points: 2
#     Edge 127, Type (0, 0), BuildingBlock: UVAHIK_clean_linker_0, # of connection points: 2
# Relax obj value: 0.121
# Max RMSD: 0.156
# Mean RMSD: 0.155
data_MOF--net-son--node1-BETFEN_clean_sbu_0--edge1-UVAHIK_clean_linker_0
_symmetry_space_group_name_H-M    P1
_symmetry_Int_Tables_number       1
_symmetry_cell_setting            triclinic
loop_
_symmetry_equiv_pos_as_xyz
'x, y, z'
_cell_length_a     129.41645
_cell_length_b     69.608064
_cell_length_c     30.17359
_cell_angle_alpha  89.960172
_cell_angle_beta   89.990092
_cell_angle_gamma 90.021841
loop_
_atom_site_label
_atom_site_type_symbol
_atom_site_fract_x
_atom_site_fract_y
_atom_site_fract_z
_atom_type_partial_charge
Pr0 Pr 0.31107 0.26041 0.18774 0.0
Pr1 Pr 0.29792 0.25622 0.27734 0.0
C2 C 0.31841 0.26235 0.10436 0.0
C3 C 0.31533 0.25795 0.05824 0.0
C4 C 0.30618 0.26541 0.03991 0.0
C5 C 0.30387 0.26255 0.9951 0.0
C6 C 0.31061 0.25208 0.96761 0.0
C7 C 0.31958 0.24408 0.98654 0.0
C8 C 0.32192 0.24705 0.03129 0.0
C9 C 0.3093 0.2929 0.24164 0.0
C10 C 0.28557 0.25493 0.18309 0.0
C11 C 0.28951 0.26587 0.3559 0.0
C12 C 0.29046 0.26123 0.40327 0.0
C13 C 0.29823 0.24886 0.41865 0.0
C14 C 0.29946 0.24564 0.46418 0.0
C15 C 0.29293 0.25475 0.49508 0.0
C16 C 0.28506 0.2669 0.47922 0.0
C17 C 0.28385 0.2701 0.43376 0.0
C18 C 0.30197 0.21946 0.24351 0.0
C19 C 0.32368 0.24862 0.27594 0.0
O20 O 0.32039 0.24785 0.13081 0.0
O21 O 0.3136 0.27655 0.124 0.0
O22 O 0.30202 0.28156 0.23205 0.0
O23 O 0.31792 0.28756 0.22338 0.0
O24 O 0.28459 0.25992 0.22519 0.0
O25 O 0.29462 0.25215 0.1642 0.0
O26 O 0.29738 0.27494 0.33824 0.0
O27 O 0.28558 0.25262 0.33003 0.0
O28 O 0.30474 0.23531 0.22722 0.0
O29 O 0.2969 0.2223 0.28019 0.0
O30 O 0.32356 0.24726 0.23236 0.0
O31 O 0.31548 0.25408 0.2993 0.0
H32 H 0.30091 0.27383 0.05989 0.0
H33 H 0.29695 0.26911 0.98175 0.0
H34 H 0.32486 0.23561 0.96669 0.0
H35 H 0.329 0.24111 0.04467 0.0
H36 H 0.30343 0.24193 0.39549 0.0
H37 H 0.30552 0.23604 0.47518 0.0
H38 H 0.28 0.27437 0.50199 0.0
H39 H 0.27787 0.27982 0.42244 0.0
Pr40 Pr 0.93247 0.99663 0.18364 0.0
Pr41 Pr 0.94552 1.00196 0.2661 0.0
C42 C 0.92383 0.99408 0.10214 0.0
C43 C 0.92622 0.99594 0.05455 0.0
C44 C 0.91864 0.99099 0.02348 0.0
C45 C 0.92076 0.99178 0.97808 0.0
C46 C 0.93055 0.99754 0.96265 0.0
C47 C 0.93813 1.00276 0.99401 0.0
C48 C 0.93599 1.00191 0.03961 0.0
C49 C 0.93417 0.964 0.23764 0.0
C50 C 0.95781 0.99882 0.1735 0.0
C51 C 0.9542 1.00002 0.34762 0.0
C52 C 0.95166 1.0007 0.39532 0.0
C53 C 0.95923 0.00681 0.42539 0.0
C54 C 0.95718 0.00726 0.4709 0.0
C55 C 0.94747 1.00158 0.48746 0.0
C56 C 0.93985 0.99556 0.45707 0.0
C57 C 0.94192 0.99517 0.41141 0.0
C58 C 0.94343 0.03556 0.21665 0.0
C59 C 0.91968 0.0073 0.27112 0.0
O60 O 0.92371 0.00979 0.12591 0.0
O61 O 0.92798 0.97952 0.12286 0.0
O62 O 0.94159 0.97487 0.22699 0.0
O63 O 0.92557 0.96975 0.21998 0.0
O64 O 0.95874 0.99421 0.21577 0.0
O65 O 0.9488 1.00306 0.15604 0.0
O66 O 0.95116 0.98493 0.32532 0.0
O67 O 0.9533 0.016 0.32525 0.0
O68 O 0.93614 0.02388 0.22436 0.0
O69 O 0.95199 0.03029 0.23557 0.0
O70 O 0.91947 0.00832 0.22764 0.0
O71 O 0.92828 1.00303 0.29289 0.0
H72 H 0.91106 0.98636 0.03438 0.0
H73 H 0.91469 0.98798 0.95502 0.0
H74 H 0.94577 0.00711 0.98337 0.0
H75 H 0.94197 1.00571 0.06314 0.0
H76 H 0.96681 0.0111 0.41366 0.0
H77 H 0.96328 0.0117 0.4932 0.0
H78 H 0.93226 0.99132 0.46852 0.0
H79 H 0.93594 0.9905 0.38874 0.0
Pr80 Pr 0.30934 0.99128 0.07922 0.0
Pr81 Pr 0.29629 1.00202 0.98367 0.0
C82 C 0.31861 0.99154 0.15901 0.0
C83 C 0.31655 0.99722 0.20511 0.0
C84 C 0.32447 0.99582 0.23653 0.0
C85 C 0.32235 0.99832 0.2816 0.0
C86 C 0.31222 1.00218 0.29613 0.0
C87 C 0.30436 1.00434 0.26421 0.0
C88 C 0.30651 1.00188 0.21907 0.0
C89 C 0.3051 0.95896 0.02488 0.0
C90 C 0.28394 1.00097 0.0807 0.0
C91 C 0.28636 0.99918 0.9055 0.0
C92 C 0.28854 0.9946 0.85887 0.0
C93 C 0.28056 0.99581 0.82766 0.0
C94 C 0.2827 0.99412 0.78241 0.0
C95 C 0.29289 0.99123 0.76746 0.0
C96 C 0.30083 0.98935 0.79913 0.0
C97 C 0.29867 0.99104 0.84446 0.0
C98 C 0.30158 0.03486 0.03265 0.0
C99 C 0.32228 0.99948 0.98594 0.0
O100 O 0.32003 1.00522 0.12962 0.0
O101 O 0.31303 0.97718 0.14429 0.0
O102 O 0.30257 0.97618 0.01961 0.0
O103 O 0.31003 0.95765 0.06228 0.0
O104 O 0.28294 0.99979 0.03691 0.0
O105 O 0.29283 0.99946 0.10204 0.0
O106 O 0.28664 0.98507 0.93434 0.0
O107 O 0.29054 0.01509 0.92009 0.0
O108 O 0.30324 0.01755 0.04264 0.0
O109 O 0.29692 0.03562 0.99447 0.0
O110 O 0.32247 0.99878 0.02986 0.0
O111 O 0.31368 0.99886 0.96176 0.0
H112 H 0.33225 0.99205 0.22637 0.0
H113 H 0.32856 0.99634 0.3052 0.0
H114 H 0.29652 0.00756 0.27419 0.0
H115 H 0.30028 1.00298 0.19523 0.0
H116 H 0.27272 0.99876 0.8382 0.0
H117 H 0.27641 0.99589 0.75907 0.0
H118 H 0.30873 0.98687 0.78885 0.0
H119 H 0.30494 0.99014 0.86816 0.0
Pr120 Pr 0.93165 0.26715 0.08029 0.0
Pr121 Pr 0.94581 0.25963 0.98569 0.0
C122 C 0.92231 0.26469 0.15983 0.0
C123 C 0.92482 0.26028 0.20631 0.0
C124 C 0.91687 0.25957 0.23774 0.0
C125 C 0.91916 0.25804 0.2829 0.0
C126 C 0.92949 0.25727 0.29753 0.0
C127 C 0.93744 0.2573 0.26564 0.0
C128 C 0.93513 0.25879 0.22042 0.0
C129 C 0.93442 0.30032 0.02692 0.0
C130 C 0.95755 0.26427 0.08309 0.0
C131 C 0.95526 0.26459 0.907 0.0
C132 C 0.95275 0.26892 0.8605 0.0
C133 C 0.96074 0.26987 0.82926 0.0
C134 C 0.95849 0.27124 0.78403 0.0
C135 C 0.94819 0.27162 0.76913 0.0
C136 C 0.94019 0.27136 0.80085 0.0
C137 C 0.94246 0.27001 0.84615 0.0
C138 C 0.94346 0.22621 0.03671 0.0
C139 C 0.91973 0.25569 0.98665 0.0
O140 O 0.92232 0.25046 0.13129 0.0
O141 O 0.92642 0.28051 0.14427 0.0
O142 O 0.9376 0.28355 0.02103 0.0
O143 O 0.92939 0.30068 0.06419 0.0
O144 O 0.95862 0.26602 0.0394 0.0
O145 O 0.94855 0.26315 0.10374 0.0
O146 O 0.95433 0.27849 0.93615 0.0
O147 O 0.95197 0.24794 0.92147 0.0
O148 O 0.93975 0.24261 0.04433 0.0
O149 O 0.94885 0.2268 1.00031 0.0
O150 O 0.91928 0.25676 0.03046 0.0
O151 O 0.92836 0.25801 0.96312 0.0
H152 H 0.90888 0.26089 0.22747 0.0
H153 H 0.91285 0.25829 0.30645 0.0
H154 H 0.94546 0.25646 0.27567 0.0
H155 H 0.94138 0.25938 0.19659 0.0
H156 H 0.96873 0.26884 0.83973 0.0
H157 H 0.96484 0.27117 0.76065 0.0
H158 H 0.93218 0.2719 0.79062 0.0
H159 H 0.93618 0.26921 0.86986 0.0
Pr160 Pr 0.6971 0.75139 0.73905 0.0
Pr161 Pr 0.68366 0.74703 0.82819 0.0
C162 C 0.70575 0.74227 0.66062 0.0
C163 C 0.70474 0.74685 0.61313 0.0
C164 C 0.71298 0.74293 0.58445 0.0
C165 C 0.71189 0.74558 0.53873 0.0
C166 C 0.70249 0.75217 0.52074 0.0
C167 C 0.69434 0.75665 0.54988 0.0
C168 C 0.69545 0.754 0.59566 0.0
C169 C 0.69242 0.7881 0.77158 0.0
C170 C 0.67115 0.75691 0.73838 0.0
C171 C 0.67593 0.74481 0.91098 0.0
C172 C 0.6788 0.74776 0.95795 0.0
C173 C 0.67792 0.73222 0.98735 0.0
C174 C 0.68063 0.73424 0.03188 0.0
C175 C 0.68423 0.75191 0.04827 0.0
C176 C 0.68503 0.76758 0.01893 0.0
C177 C 0.68238 0.76551 0.97407 0.0
C178 C 0.68611 0.71432 0.77521 0.0
C179 C 0.70917 0.7528 0.83429 0.0
O180 O 0.69807 0.73268 0.67834 0.0
O181 O 0.7095 0.75566 0.6866 0.0
O182 O 0.68978 0.77224 0.78825 0.0
O183 O 0.69771 0.78525 0.73552 0.0
O184 O 0.67101 0.75871 0.78191 0.0
O185 O 0.67961 0.75204 0.71605 0.0
O186 O 0.67464 0.75989 0.88547 0.0
O187 O 0.68043 0.73041 0.89087 0.0
O188 O 0.69315 0.7262 0.78477 0.0
O189 O 0.67743 0.71909 0.7938 0.0
O190 O 0.71032 0.74809 0.79206 0.0
O191 O 0.70005 0.75525 0.85281 0.0
H192 H 0.72022 0.73744 0.59734 0.0
H193 H 0.71838 0.7423 0.5174 0.0
H194 H 0.68697 0.76158 0.53722 0.0
H195 H 0.68898 0.75709 0.61731 0.0
H196 H 0.67511 0.71843 0.97581 0.0
H197 H 0.67976 0.72197 0.05368 0.0
H198 H 0.68784 0.78135 0.03053 0.0
H199 H 0.68318 0.77774 0.95211 0.0
Pr200 Pr 0.04414 0.00995 0.72763 0.0
Pr201 Pr 0.05732 0.01875 0.82376 0.0
C202 C 0.0342 0.01386 0.64971 0.0
C203 C 0.03644 0.0182 0.60299 0.0
C204 C 0.02825 0.01986 0.57293 0.0
C205 C 0.03018 0.02105 0.52742 0.0
C206 C 0.04037 0.0205 0.51111 0.0
C207 C 0.04859 0.01968 0.54166 0.0
C208 C 0.04664 0.01852 0.58723 0.0
C209 C 0.04875 0.97625 0.7749 0.0
C210 C 0.07016 0.01091 0.73008 0.0
C211 C 0.0668 0.01696 0.90297 0.0
C212 C 0.06474 0.01151 0.94925 0.0
C213 C 0.07301 0.00984 0.97889 0.0
C214 C 0.07118 0.00782 0.02433 0.0
C215 C 0.06102 0.00757 0.04102 0.0
C216 C 0.05273 0.00827 0.0108 0.0
C217 C 0.05458 0.01023 0.9653 0.0
C218 C 0.0538 0.05203 0.77151 0.0
C219 C 0.03177 0.01125 0.82475 0.0
O220 O 0.03493 0.0279 0.67851 0.0
O221 O 0.03793 0.99755 0.66425 0.0
O222 O 0.05073 0.99333 0.78573 0.0
O223 O 0.04407 0.97621 0.73676 0.0
O224 O 0.07028 0.01098 0.774 0.0
O225 O 0.06159 0.0123 0.70578 0.0
O226 O 0.06759 1.00321 0.8734 0.0
O227 O 0.06176 0.03207 0.88872 0.0
O228 O 0.05098 0.03505 0.76469 0.0
O229 O 0.05864 0.05246 0.80919 0.0
O230 O 0.03085 0.0129 0.78099 0.0
O231 O 0.04064 0.01175 0.84637 0.0
H232 H 0.02032 0.01958 0.58454 0.0
H233 H 0.02368 0.02202 0.50493 0.0
H234 H 0.05653 0.01908 0.5303 0.0
H235 H 0.05306 0.01711 0.61002 0.0
H236 H 0.0809 0.01082 0.96708 0.0
H237 H 0.07774 0.00692 0.04651 0.0
H238 H 0.04481 0.00824 0.02241 0.0
H239 H 0.04808 0.01157 0.94287 0.0
Pr240 Pr 0.69358 0.00861 0.01265 0.0
Pr241 Pr 0.68117 0.01759 0.92015 0.0
C242 C 0.70434 0.00967 0.08918 0.0
C243 C 0.70219 0.00901 0.1371 0.0
C244 C 0.7104 0.00883 0.16734 0.0
C245 C 0.70848 0.00819 0.21298 0.0
C246 C 0.69829 0.00769 0.22931 0.0
C247 C 0.69007 0.00788 0.19867 0.0
C248 C 0.692 0.00853 0.153 0.0
C249 C 0.68706 0.97675 0.96464 0.0
C250 C 0.66805 0.0085 0.01213 0.0
C251 C 0.67198 0.0148 0.84024 0.0
C252 C 0.67444 0.01045 0.79364 0.0
C253 C 0.66637 0.00823 0.76316 0.0
C254 C 0.66847 1.00632 0.7179 0.0
C255 C 0.67871 1.00665 0.70215 0.0
C256 C 0.68682 0.00821 0.73312 0.0
C257 C 0.68469 0.01014 0.77847 0.0
C258 C 0.68272 0.0506 0.97433 0.0
C259 C 0.70678 0.01809 0.91888 0.0
O260 O 0.70128 0.02512 0.06814 0.0
O261 O 0.70266 0.99382 0.06698 0.0
O262 O 0.69075 0.99194 0.94747 0.0
O263 O 0.68707 0.97756 0.00778 0.0
O264 O 0.66824 0.00735 0.96835 0.0
O265 O 0.67643 0.0117 0.03631 0.0
O266 O 0.67214 1.00058 0.86878 0.0
O267 O 0.67592 0.03075 0.85583 0.0
O268 O 0.68603 0.03398 0.98115 0.0
O269 O 0.6782 0.0509 0.93592 0.0
O270 O 0.70721 0.01438 0.96202 0.0
O271 O 0.69807 0.0194 0.89646 0.0
H272 H 0.71832 0.00926 0.15565 0.0
H273 H 0.715 0.00835 0.23549 0.0
H274 H 0.68213 0.00728 0.20993 0.0
H275 H 0.68556 0.00861 0.13008 0.0
H276 H 0.6584 0.00846 0.77424 0.0
H277 H 0.66205 1.0048 0.69516 0.0
H278 H 0.69478 0.00865 0.72219 0.0
H279 H 0.69104 0.01194 0.80153 0.0
Pr280 Pr 0.0445 0.75731 0.03102 0.0
Pr281 Pr 0.05866 0.752 0.93547 0.0
C282 C 0.03507 0.75029 0.10901 0.0
C283 C 0.0378 0.74533 0.15495 0.0
C284 C 0.02994 0.74307 0.18647 0.0
C285 C 0.03238 0.74057 0.23127 0.0
C286 C 0.04274 0.74035 0.24545 0.0
C287 C 0.05061 0.74202 0.21339 0.0
C288 C 0.04816 0.74449 0.16852 0.0
C289 C 0.04772 0.79221 0.98641 0.0
C290 C 0.0703 0.76259 0.03011 0.0
C291 C 0.06754 0.75846 0.85607 0.0
C292 C 0.06563 0.75433 0.80886 0.0
C293 C 0.07392 0.7544 0.77898 0.0
C294 C 0.07219 0.75165 0.73365 0.0
C295 C 0.06212 0.74884 0.71721 0.0
C296 C 0.05385 0.74837 0.74755 0.0
C297 C 0.05559 0.75107 0.79294 0.0
C298 C 0.05671 0.71813 0.98651 0.0
C299 C 0.03286 0.74754 0.93347 0.0
O300 O 0.03635 0.73703 0.07863 0.0
O301 O 0.03789 0.76745 0.09597 0.0
O302 O 0.05049 0.77562 0.97451 0.0
O303 O 0.04273 0.79097 0.02376 0.0
O304 O 0.07044 0.76408 0.98631 0.0
O305 O 0.06194 0.75784 0.05342 0.0
O306 O 0.06113 0.77046 0.87504 0.0
O307 O 0.07012 0.74396 0.8815 0.0
O308 O 0.05311 0.73455 0.99337 0.0
O309 O 0.06163 0.71842 0.94881 0.0
O310 O 0.03177 0.7507 0.97679 0.0
O311 O 0.04181 0.74744 0.91225 0.0
H312 H 0.0219 0.74385 0.17661 0.0
H313 H 0.02612 0.73956 0.255 0.0
H314 H 0.05867 0.74166 0.22304 0.0
H315 H 0.05433 0.74625 0.1446 0.0
H316 H 0.08173 0.75682 0.79066 0.0
H317 H 0.07877 0.75175 0.71146 0.0
H318 H 0.04598 0.74643 0.73614 0.0
H319 H 0.04907 0.75095 0.81549 0.0
Pr320 Pr 0.31252 0.76332 0.67696 0.0
Pr321 Pr 0.29927 0.75728 0.76618 0.0
C322 C 0.32018 0.76607 0.59416 0.0
C323 C 0.31733 0.76293 0.54727 0.0
C324 C 0.31827 0.77831 0.5175 0.0
C325 C 0.31557 0.7761 0.47301 0.0
C326 C 0.31192 0.75838 0.45708 0.0
C327 C 0.31105 0.74287 0.48683 0.0
C328 C 0.31368 0.74514 0.53163 0.0
C329 C 0.30949 0.7956 0.73071 0.0
C330 C 0.28705 0.75667 0.67112 0.0
C331 C 0.29046 0.76525 0.84492 0.0
C332 C 0.29144 0.76056 0.89234 0.0
C333 C 0.28315 0.76429 0.9209 0.0
C334 C 0.28424 0.76176 0.96664 0.0
C335 C 0.29368 0.75549 0.98477 0.0
C336 C 0.30188 0.75115 0.95577 0.0
C337 C 0.30077 0.75368 0.90995 0.0
C338 C 0.30429 0.72121 0.73073 0.0
C339 C 0.32526 0.75335 0.76654 0.0
O340 O 0.32173 0.75105 0.61961 0.0
O341 O 0.31544 0.78019 0.61432 0.0
O342 O 0.30269 0.78318 0.72156 0.0
O343 O 0.31818 0.79169 0.71118 0.0
O344 O 0.28595 0.76059 0.7138 0.0
O345 O 0.29617 0.75495 0.65207 0.0
O346 O 0.298 0.77537 0.82774 0.0
O347 O 0.28697 0.75179 0.81846 0.0
O348 O 0.30674 0.73742 0.71531 0.0
O349 O 0.29916 0.72333 0.76749 0.0
O350 O 0.32547 0.75229 0.72287 0.0
O351 O 0.31672 0.75728 0.78916 0.0
H352 H 0.32111 0.79212 0.52872 0.0
H353 H 0.31648 0.78825 0.45088 0.0
H354 H 0.3082 0.72908 0.47558 0.0
H355 H 0.31283 0.73304 0.55394 0.0
H356 H 0.27588 0.76959 0.90789 0.0
H357 H 0.27772 0.76493 0.98789 0.0
H358 H 0.30928 0.74645 0.96856 0.0
H359 H 0.30729 0.75076 0.8884 0.0
Pr360 Pr 0.93278 0.49603 0.67526 0.0
Pr361 Pr 0.94681 0.50391 0.77038 0.0
C362 C 0.92314 0.50018 0.5967 0.0
C363 C 0.92582 0.50189 0.54948 0.0
C364 C 0.91791 0.5032 0.51795 0.0
C365 C 0.92025 0.50347 0.4727 0.0
C366 C 0.93057 0.50241 0.45808 0.0
C367 C 0.9385 0.5014 0.49001 0.0
C368 C 0.93614 0.50114 0.53532 0.0
C369 C 0.93526 0.4632 0.72952 0.0
C370 C 0.95869 0.49552 0.67297 0.0
C371 C 0.95658 0.49884 0.84832 0.0
C372 C 0.95407 0.49459 0.89487 0.0
C373 C 0.96206 0.49306 0.92596 0.0
C374 C 0.95982 0.49139 0.97116 0.0
C375 C 0.94951 0.49132 0.98614 0.0
C376 C 0.94151 0.49223 0.95457 0.0
C377 C 0.94377 0.49385 0.90931 0.0
C378 C 0.9432 0.53757 0.72133 0.0
C379 C 0.92082 0.50623 0.76997 0.0
O380 O 0.92546 0.51475 0.62235 0.0
O381 O 0.92503 0.48347 0.61491 0.0
O382 O 0.93851 0.47997 0.73521 0.0
O383 O 0.93033 0.46264 0.69193 0.0
O384 O 0.95965 0.49761 0.71666 0.0
O385 O 0.94977 0.49531 0.65148 0.0
O386 O 0.95542 0.48495 0.81935 0.0
O387 O 0.95345 0.51559 0.83383 0.0
O388 O 0.94078 0.52057 0.71147 0.0
O389 O 0.94796 0.53753 0.75935 0.0
O390 O 0.92044 0.5061 0.72605 0.0
O391 O 0.92943 0.50369 0.79338 0.0
H392 H 0.9099 0.50364 0.5283 0.0
H393 H 0.91394 0.50398 0.44915 0.0
H394 H 0.94653 0.50079 0.47999 0.0
H395 H 0.94235 0.50008 0.55928 0.0
H396 H 0.97006 0.49377 0.91541 0.0
H397 H 0.96617 0.49095 0.99448 0.0
H398 H 0.93349 0.49195 0.96488 0.0
H399 H 0.93749 0.49506 0.88572 0.0
Pr400 Pr 0.31069 0.49181 0.58598 0.0
Pr401 Pr 0.29695 0.49674 0.49717 0.0
C402 C 0.3192 0.49132 0.66761 0.0
C403 C 0.31636 0.49428 0.71439 0.0
C404 C 0.32417 0.49628 0.74618 0.0
C405 C 0.32168 0.4983 0.79104 0.0
C406 C 0.3113 0.49834 0.80506 0.0
C407 C 0.30347 0.49655 0.77289 0.0
C408 C 0.30598 0.4946 0.72793 0.0
C409 C 0.30924 0.46016 0.52958 0.0
C410 C 0.28483 0.49247 0.59275 0.0
C411 C 0.2886 0.48794 0.41793 0.0
C412 C 0.28998 0.49223 0.37037 0.0
C413 C 0.28146 0.49132 0.34179 0.0
C414 C 0.28275 0.49381 0.29607 0.0
C415 C 0.29262 0.4972 0.27792 0.0
C416 C 0.30111 0.49857 0.30696 0.0
C417 C 0.2998 0.49614 0.3527 0.0
C418 C 0.30085 0.53305 0.53394 0.0
C419 C 0.32257 0.50492 0.49594 0.0
O420 O 0.3193 0.50651 0.64198 0.0
O421 O 0.31535 0.47606 0.6483 0.0
O422 O 0.30184 0.47107 0.5402 0.0
O423 O 0.3178 0.46528 0.54881 0.0
O424 O 0.28371 0.49192 0.54913 0.0
O425 O 0.29389 0.49374 0.61253 0.0
O426 O 0.29591 0.47782 0.43681 0.0
O427 O 0.28495 0.50166 0.44326 0.0
O428 O 0.3038 0.51702 0.54875 0.0
O429 O 0.29569 0.53061 0.49737 0.0
O430 O 0.32279 0.50551 0.53963 0.0
O431 O 0.31423 0.49981 0.47322 0.0
H432 H 0.33222 0.49601 0.73635 0.0
H433 H 0.32791 0.49939 0.81488 0.0
H434 H 0.29541 0.49675 0.78243 0.0
H435 H 0.29984 0.49318 0.70381 0.0
H436 H 0.27382 0.48836 0.35476 0.0
H437 H 0.27601 0.493 0.27492 0.0
H438 H 0.30883 0.50096 0.29427 0.0
H439 H 0.30651 0.4969 0.37415 0.0
Pr440 Pr 0.93324 0.76539 0.58108 0.0
Pr441 Pr 0.94688 0.76209 0.49134 0.0
C442 C 0.92486 0.76397 0.66288 0.0
C443 C 0.92797 0.76162 0.70951 0.0
C444 C 0.92044 0.7573 0.74135 0.0
C445 C 0.92312 0.75572 0.78609 0.0
C446 C 0.93341 0.75843 0.79993 0.0
C447 C 0.94097 0.76256 0.7677 0.0
C448 C 0.93827 0.76411 0.72286 0.0
C449 C 0.93443 0.79798 0.5272 0.0
C450 C 0.95902 0.76702 0.58722 0.0
C451 C 0.95514 0.77188 0.41254 0.0
C452 C 0.95408 0.76742 0.36499 0.0
C453 C 0.96251 0.77024 0.33657 0.0
C454 C 0.96142 0.7676 0.29082 0.0
C455 C 0.95185 0.76213 0.27253 0.0
C456 C 0.94348 0.75883 0.3014 0.0
C457 C 0.94458 0.76143 0.34717 0.0
C458 C 0.94331 0.72516 0.52538 0.0
C459 C 0.92125 0.75363 0.4905 0.0
O460 O 0.92568 0.74888 0.63724 0.0
O461 O 0.92766 0.77997 0.64347 0.0
O462 O 0.94185 0.78687 0.53635 0.0
O463 O 0.92599 0.79266 0.54723 0.0
O464 O 0.96008 0.76748 0.54354 0.0
O465 O 0.95004 0.76508 0.60734 0.0
O466 O 0.94738 0.781 0.43083 0.0
O467 O 0.9592 0.75866 0.43817 0.0
O468 O 0.94026 0.74087 0.54158 0.0
O469 O 0.94843 0.72832 0.48898 0.0
O470 O 0.92121 0.75207 0.53405 0.0
O471 O 0.9295 0.75938 0.46787 0.0
H472 H 0.91244 0.7554 0.73166 0.0
H473 H 0.91708 0.75279 0.80998 0.0
H474 H 0.94898 0.76452 0.7771 0.0
H475 H 0.94421 0.7674 0.6987 0.0
H476 H 0.9699 0.77483 0.34969 0.0
H477 H 0.96808 0.76995 0.26977 0.0
H478 H 0.93597 0.75481 0.28856 0.0
H479 H 0.93796 0.75918 0.36854 0.0
Pr480 Pr 0.69489 0.25411 0.24111 0.0
Pr481 Pr 0.68269 0.24376 0.33296 0.0
C482 C 0.70562 0.25441 0.16441 0.0
C483 C 0.70345 0.25456 0.11649 0.0
C484 C 0.71165 0.2553 0.08621 0.0
C485 C 0.70971 0.2556 0.04057 0.0
C486 C 0.69952 0.25519 0.02426 0.0
C487 C 0.69131 0.25439 0.05494 0.0
C488 C 0.69326 0.25408 0.10062 0.0
C489 C 0.68826 0.28515 0.29165 0.0
C490 C 0.66945 0.2529 0.24152 0.0
C491 C 0.67353 0.24563 0.41308 0.0
C492 C 0.67589 0.25008 0.45973 0.0
C493 C 0.66777 0.25179 0.49017 0.0
C494 C 0.66982 0.25383 0.53544 0.0
C495 C 0.68005 0.25418 0.55126 0.0
C496 C 0.68819 0.25312 0.52034 0.0
C497 C 0.68613 0.25105 0.47497 0.0
C498 C 0.68424 0.21137 0.27692 0.0
C499 C 0.7083 0.24396 0.33381 0.0
O500 O 0.70328 0.23862 0.18582 0.0
O501 O 0.70323 0.27002 0.18629 0.0
O502 O 0.69215 0.26989 0.30745 0.0
O503 O 0.68802 0.28486 0.2485 0.0
O504 O 0.66964 0.25407 0.2853 0.0
O505 O 0.67786 0.25001 0.2174 0.0
O506 O 0.67333 0.25993 0.38471 0.0
O507 O 0.67782 0.23006 0.39724 0.0
O508 O 0.68753 0.22807 0.27083 0.0
O509 O 0.67977 0.21066 0.31541 0.0
O510 O 0.70865 0.24839 0.29103 0.0
O511 O 0.69962 0.24194 0.35619 0.0
H512 H 0.71956 0.25562 0.09787 0.0
H513 H 0.71623 0.25592 0.01805 0.0
H514 H 0.68336 0.25429 0.0437 0.0
H515 H 0.68683 0.25355 0.12356 0.0
H516 H 0.65982 0.25105 0.47904 0.0
H517 H 0.66336 0.25496 0.55814 0.0
H518 H 0.69616 0.25319 0.53132 0.0
H519 H 0.69251 0.24965 0.45195 0.0
Pr520 Pr 0.04763 0.5185 0.24671 0.0
Pr521 Pr 0.06139 0.52196 0.33616 0.0
C522 C 0.03958 0.52802 0.16734 0.0
C523 C 0.04053 0.52314 0.11996 0.0
C524 C 0.03207 0.52596 0.09168 0.0
C525 C 0.03309 0.52311 0.04598 0.0
C526 C 0.04261 0.51743 0.02755 0.0
C527 C 0.051 0.51409 0.0563 0.0
C528 C 0.04996 0.51689 0.10204 0.0
C529 C 0.05044 0.48179 0.28308 0.0
C530 C 0.07317 0.50891 0.24593 0.0
C531 C 0.06968 0.52088 0.41815 0.0
C532 C 0.06658 0.51822 0.46472 0.0
C533 C 0.07412 0.51393 0.49649 0.0
C534 C 0.07144 0.51211 0.54119 0.0
C535 C 0.06114 0.51456 0.55506 0.0
C536 C 0.05356 0.51865 0.5229 0.0
C537 C 0.05626 0.52042 0.4781 0.0
C538 C 0.06023 0.55439 0.28159 0.0
C539 C 0.03559 0.52421 0.34212 0.0
O540 O 0.04751 0.53678 0.18518 0.0
O541 O 0.03528 0.5153 0.1936 0.0
O542 O 0.05392 0.49742 0.29815 0.0
O543 O 0.04517 0.48497 0.24709 0.0
O544 O 0.07332 0.50805 0.28958 0.0
O545 O 0.06492 0.51454 0.2232 0.0
O546 O 0.06917 0.5058 0.39231 0.0
O547 O 0.06661 0.53673 0.39887 0.0
O548 O 0.05283 0.54331 0.29119 0.0
O549 O 0.06867 0.54918 0.30172 0.0
O550 O 0.03457 0.52503 0.29847 0.0
O551 O 0.04453 0.5217 0.36225 0.0
H552 H 0.02473 0.53075 0.10487 0.0
H553 H 0.02642 0.52549 0.02503 0.0
H554 H 0.05847 0.50991 0.04338 0.0
H555 H 0.0566 0.51464 0.12328 0.0
H556 H 0.08213 0.51225 0.48678 0.0
H557 H 0.0775 0.50922 0.56505 0.0
H558 H 0.04554 0.5204 0.53231 0.0
H559 H 0.05031 0.52366 0.45399 0.0
Pr560 Pr 0.69732 0.50978 0.52098 0.0
Pr561 Pr 0.68443 0.51431 0.43836 0.0
C562 C 0.70591 0.51288 0.60235 0.0
C563 C 0.70337 0.51178 0.65012 0.0
C564 C 0.70923 0.49973 0.67763 0.0
C565 C 0.70737 0.49903 0.72327 0.0
C566 C 0.69963 0.5105 0.7426 0.0
C567 C 0.69365 0.52238 0.71479 0.0
C568 C 0.69549 0.523 0.66904 0.0
C569 C 0.69479 0.47524 0.47538 0.0
C570 C 0.67141 0.50584 0.52654 0.0
C571 C 0.67606 0.51564 0.3564 0.0
C572 C 0.67882 0.51292 0.30931 0.0
C573 C 0.68815 0.51993 0.29184 0.0
C574 C 0.6902 0.51856 0.24636 0.0
C575 C 0.68299 0.51004 0.21744 0.0
C576 C 0.67381 0.50247 0.2355 0.0
C577 C 0.67175 0.50395 0.28087 0.0
C578 C 0.6866 0.54775 0.48923 0.0
C579 C 0.70969 0.51154 0.42855 0.0
O580 O 0.70239 0.52756 0.57985 0.0
O581 O 0.70575 0.49685 0.57988 0.0
O582 O 0.6877 0.48754 0.48113 0.0
O583 O 0.70332 0.48031 0.4948 0.0
O584 O 0.67118 0.50425 0.48316 0.0
O585 O 0.68009 0.50976 0.548 0.0
O586 O 0.67566 0.50034 0.38153 0.0
O587 O 0.68 0.53057 0.37651 0.0
O588 O 0.69387 0.53642 0.47935 0.0
O589 O 0.67791 0.54205 0.4723 0.0
O590 O 0.71054 0.51699 0.47026 0.0
O591 O 0.7007 0.5068 0.41157 0.0
H592 H 0.71534 0.49092 0.66383 0.0
H593 H 0.712 0.48944 0.74337 0.0
H594 H 0.6877 0.53156 0.72845 0.0
H595 H 0.69084 0.53244 0.64865 0.0
H596 H 0.69377 0.52684 0.31315 0.0
H597 H 0.69731 0.52468 0.23376 0.0
H598 H 0.66817 0.49544 0.21454 0.0
H599 H 0.66453 0.49835 0.29368 0.0
Pr600 Pr 0.04817 0.25649 0.5093 0.0
Pr601 Pr 0.06114 0.24991 0.42736 0.0
C602 C 0.03933 0.25553 0.59069 0.0
C603 C 0.04174 0.25556 0.63856 0.0
C604 C 0.03404 0.26101 0.6687 0.0
C605 C 0.03597 0.26086 0.71433 0.0
C606 C 0.04568 0.25524 0.73099 0.0
C607 C 0.05344 0.24998 0.7005 0.0
C608 C 0.05149 0.25012 0.65471 0.0
C609 C 0.0509 0.28978 0.45914 0.0
C610 C 0.0741 0.25927 0.51508 0.0
C611 C 0.06962 0.24654 0.34567 0.0
C612 C 0.06735 0.24935 0.29818 0.0
C613 C 0.07506 0.24538 0.26694 0.0
C614 C 0.07305 0.24709 0.22155 0.0
C615 C 0.06325 0.25287 0.20626 0.0
C616 C 0.05552 0.25696 0.23786 0.0
C617 C 0.05756 0.25522 0.28341 0.0
C618 C 0.05856 0.21745 0.48148 0.0
C619 C 0.03589 0.25416 0.41676 0.0
O620 O 0.04173 0.24013 0.5681 0.0
O621 O 0.04103 0.27141 0.5688 0.0
O622 O 0.05797 0.27769 0.46713 0.0
O623 O 0.04223 0.2851 0.47807 0.0
O624 O 0.07448 0.26012 0.4716 0.0
O625 O 0.06534 0.25599 0.53648 0.0
O626 O 0.07064 0.26188 0.3703 0.0
O627 O 0.06467 0.23266 0.36566 0.0
O628 O 0.05144 0.22895 0.47057 0.0
O629 O 0.06731 0.22243 0.46388 0.0
O630 O 0.03483 0.24968 0.45903 0.0
O631 O 0.045 0.2577 0.39949 0.0
H632 H 0.02649 0.26535 0.65691 0.0
H633 H 0.02986 0.26534 0.73656 0.0
H634 H 0.06097 0.24542 0.71203 0.0
H635 H 0.05755 0.24588 0.63198 0.0
H636 H 0.08265 0.24068 0.27765 0.0
H637 H 0.07914 0.24348 0.19841 0.0
H638 H 0.04792 0.26162 0.22744 0.0
H639 H 0.05148 0.25833 0.30704 0.0
Pr640 Pr 0.80992 0.26705 0.67459 0.0
Pr641 Pr 0.79634 0.26257 0.76442 0.0
C642 C 0.81808 0.26562 0.59249 0.0
C643 C 0.81491 0.26317 0.54584 0.0
C644 C 0.80588 0.27171 0.52915 0.0
C645 C 0.80337 0.27005 0.48414 0.0
C646 C 0.80982 0.25977 0.45499 0.0
C647 C 0.8187 0.25079 0.47231 0.0
C648 C 0.82122 0.25253 0.51719 0.0
C649 C 0.80819 0.29952 0.72862 0.0
C650 C 0.78414 0.26831 0.66901 0.0
C651 C 0.78784 0.27171 0.84317 0.0
C652 C 0.78865 0.26693 0.89054 0.0
C653 C 0.79657 0.25499 0.90635 0.0
C654 C 0.79778 0.25198 0.95198 0.0
C655 C 0.79109 0.2609 0.98259 0.0
C656 C 0.78304 0.27253 0.96628 0.0
C657 C 0.78185 0.27551 0.92072 0.0
C658 C 0.80014 0.22606 0.72828 0.0
C659 C 0.82207 0.2556 0.76526 0.0
O660 O 0.81742 0.25053 0.61829 0.0
O661 O 0.81541 0.28165 0.61208 0.0
O662 O 0.80099 0.28784 0.71984 0.0
O663 O 0.81665 0.29495 0.7078 0.0
O664 O 0.78313 0.26826 0.7127 0.0
O665 O 0.7931 0.26675 0.64854 0.0
O666 O 0.79578 0.28075 0.8261 0.0
O667 O 0.7839 0.25866 0.81675 0.0
O668 O 0.80307 0.24204 0.71308 0.0
O669 O 0.79507 0.22868 0.76505 0.0
O670 O 0.82226 0.2546 0.72162 0.0
O671 O 0.81368 0.26045 0.78793 0.0
H672 H 0.80085 0.27991 0.55069 0.0
H673 H 0.79651 0.27727 0.47202 0.0
H674 H 0.82374 0.24242 0.45115 0.0
H675 H 0.82818 0.24571 0.52946 0.0
H676 H 0.80192 0.2483 0.88347 0.0
H677 H 0.80398 0.24276 0.96329 0.0
H678 H 0.77785 0.27984 0.98878 0.0
H679 H 0.77576 0.28492 0.9091 0.0
Pr680 Pr 0.43311 1.00062 0.67727 0.0
Pr681 Pr 0.44706 0.00759 0.77281 0.0
C682 C 0.424 1.00619 0.59805 0.0
C683 C 0.42611 1.00266 0.55076 0.0
C684 C 0.41787 1.0018 0.52073 0.0
C685 C 0.41973 0.99939 0.47541 0.0
C686 C 0.4299 0.99782 0.45914 0.0
C687 C 0.43814 0.99833 0.48961 0.0
C688 C 0.43626 1.00071 0.53499 0.0
C689 C 0.43603 0.96707 0.72859 0.0
C690 C 0.45898 0.99823 0.67578 0.0
C691 C 0.4566 1.00176 0.851 0.0
C692 C 0.45405 0.9964 0.8969 0.0
C693 C 0.46198 0.99499 0.92833 0.0
C694 C 0.45965 0.99217 0.97314 0.0
C695 C 0.44931 0.99077 0.98739 0.0
C696 C 0.44139 0.99157 0.9554 0.0
C697 C 0.44375 0.99437 0.91054 0.0
C698 C 0.44346 0.04183 0.72585 0.0
C699 C 0.42114 0.01008 0.77191 0.0
O700 O 0.4298 0.01908 0.61753 0.0
O701 O 0.42212 0.99113 0.62289 0.0
O702 O 0.43899 0.98392 0.73582 0.0
O703 O 0.43126 0.96679 0.69055 0.0
O704 O 0.45995 1.00142 0.71912 0.0
O705 O 0.45007 0.9976 0.65425 0.0
O706 O 0.45586 0.98838 0.82056 0.0
O707 O 0.45313 0.01851 0.83802 0.0
O708 O 0.44082 0.02501 0.71536 0.0
O709 O 0.44837 0.04131 0.76346 0.0
O710 O 0.42091 0.01131 0.72806 0.0
O711 O 0.42966 1.00649 0.79516 0.0
H712 H 0.40998 1.0032 0.53231 0.0
H713 H 0.41319 0.99871 0.45311 0.0
H714 H 0.44607 0.99736 0.47832 0.0
H715 H 0.44274 1.00131 0.55769 0.0
H716 H 0.46998 0.99669 0.91842 0.0
H717 H 0.46593 0.99185 0.99681 0.0
H718 H 0.43337 0.99029 0.96511 0.0
H719 H 0.43752 0.99545 0.88667 0.0
Pr720 Pr 0.81023 0.99539 0.58364 0.0
Pr721 Pr 0.79664 1.00074 0.4944 0.0
C722 C 0.81859 0.99526 0.6655 0.0
C723 C 0.81559 0.99809 0.71212 0.0
C724 C 0.82326 1.00176 0.74376 0.0
C725 C 0.82066 1.0038 0.78849 0.0
C726 C 0.81033 1.00219 0.80252 0.0
C727 C 0.80263 0.99871 0.7705 0.0
C728 C 0.80524 0.99672 0.72567 0.0
C729 C 0.80894 0.9638 0.52671 0.0
C730 C 0.78443 0.99456 0.58946 0.0
C731 C 0.78823 0.99243 0.415 0.0
C732 C 0.7894 0.99704 0.36756 0.0
C733 C 0.7809 0.99507 0.33916 0.0
C734 C 0.78206 0.99761 0.29341 0.0
C735 C 0.79178 1.00212 0.2751 0.0
C736 C 0.80022 1.00464 0.30396 0.0
C737 C 0.79904 1.00214 0.34974 0.0
C738 C 0.80025 0.03687 0.53299 0.0
C739 C 0.82229 0.00841 0.49394 0.0
O740 O 0.81855 0.01047 0.63992 0.0
O741 O 0.81502 0.97983 0.646 0.0
O742 O 0.80154 0.97486 0.53669 0.0
O743 O 0.81735 0.96858 0.54764 0.0
O744 O 0.78341 0.99465 0.54579 0.0
O745 O 0.79341 0.99608 0.60981 0.0
O746 O 0.79573 0.98249 0.433 0.0
O747 O 0.78452 1.00583 0.44107 0.0
O748 O 0.80327 0.02076 0.5471 0.0
O749 O 0.7952 0.03462 0.49606 0.0
O750 O 0.82245 0.00897 0.53763 0.0
O751 O 0.81395 1.00358 0.47095 0.0
H752 H 0.83129 1.00281 0.73392 0.0
H753 H 0.8268 1.00621 0.81224 0.0
H754 H 0.79458 0.99761 0.78005 0.0
H755 H 0.7992 0.99397 0.70166 0.0
H756 H 0.7734 0.99116 0.35228 0.0
H757 H 0.77535 0.9959 0.27236 0.0
H758 H 0.80783 0.00793 0.2911 0.0
H759 H 0.80572 1.00371 0.37109 0.0
Pr760 Pr 0.43389 0.26982 0.57741 0.0
Pr761 Pr 0.44748 0.26578 0.4879 0.0
C762 C 0.42559 0.26911 0.65939 0.0
C763 C 0.42868 0.26635 0.70593 0.0
C764 C 0.42108 0.2624 0.73774 0.0
C765 C 0.42375 0.26044 0.78241 0.0
C766 C 0.43409 0.26238 0.79621 0.0
C767 C 0.44171 0.26614 0.76401 0.0
C768 C 0.43903 0.26807 0.71923 0.0
C769 C 0.43478 0.30187 0.52172 0.0
C770 C 0.45967 0.27159 0.58309 0.0
C771 C 0.45565 0.27501 0.40857 0.0
C772 C 0.45458 0.27027 0.36115 0.0
C773 C 0.46309 0.27243 0.33289 0.0
C774 C 0.46203 0.26961 0.2872 0.0
C775 C 0.45239 0.26465 0.26877 0.0
C776 C 0.44393 0.26198 0.2975 0.0
C777 C 0.44501 0.26474 0.34323 0.0
C778 C 0.44427 0.22917 0.52445 0.0
C779 C 0.42196 0.25653 0.4877 0.0
O780 O 0.42593 0.25399 0.6336 0.0
O781 O 0.42883 0.28484 0.64005 0.0
O782 O 0.44231 0.29107 0.53129 0.0
O783 O 0.42642 0.29654 0.54232 0.0
O784 O 0.46069 0.2718 0.53942 0.0
O785 O 0.45072 0.26967 0.60342 0.0
O786 O 0.4479 0.28425 0.42667 0.0
O787 O 0.45973 0.26196 0.43459 0.0
O788 O 0.44108 0.24498 0.53964 0.0
O789 O 0.44934 0.23205 0.48778 0.0
O790 O 0.42186 0.25585 0.53137 0.0
O791 O 0.43018 0.26196 0.46458 0.0
H792 H 0.41305 0.26109 0.72809 0.0
H793 H 0.41766 0.25782 0.80629 0.0
H794 H 0.44976 0.2675 0.77337 0.0
H795 H 0.44502 0.27105 0.69509 0.0
H796 H 0.47054 0.27665 0.34609 0.0
H797 H 0.46876 0.27146 0.26627 0.0
H798 H 0.43637 0.25834 0.28456 0.0
H799 H 0.43833 0.263 0.36446 0.0
Pr800 Pr 0.19393 0.75182 0.25122 0.0
Pr801 Pr 0.18054 0.74894 0.3409 0.0
C802 C 0.20217 0.74181 0.1726 0.0
C803 C 0.20114 0.74641 0.12504 0.0
C804 C 0.20981 0.74525 0.09738 0.0
C805 C 0.20885 0.74814 0.05165 0.0
C806 C 0.19915 0.75218 0.03257 0.0
C807 C 0.19051 0.7538 0.0607 0.0
C808 C 0.1915 0.75098 0.10646 0.0
C809 C 0.19015 0.78904 0.28278 0.0
C810 C 0.16815 0.75927 0.2509 0.0
C811 C 0.17279 0.74851 0.42382 0.0
C812 C 0.17583 0.7529 0.46975 0.0
C813 C 0.16817 0.75549 0.50198 0.0
C814 C 0.17085 0.75792 0.54652 0.0
C815 C 0.18129 0.75777 0.55974 0.0
C816 C 0.18897 0.75568 0.52703 0.0
C817 C 0.18627 0.75329 0.48243 0.0
C818 C 0.18225 0.71576 0.28894 0.0
C819 C 0.20618 0.75229 0.34619 0.0
O820 O 0.19437 0.73281 0.19093 0.0
O821 O 0.20633 0.7549 0.19828 0.0
O822 O 0.18715 0.77353 0.30019 0.0
O823 O 0.19529 0.7855 0.24666 0.0
O824 O 0.16806 0.76111 0.29441 0.0
O825 O 0.17647 0.7538 0.22846 0.0
O826 O 0.17148 0.76302 0.39666 0.0
O827 O 0.17738 0.73378 0.40545 0.0
O828 O 0.1895 0.72727 0.29785 0.0
O829 O 0.17371 0.72106 0.308 0.0
O830 O 0.20711 0.74749 0.3039 0.0
O831 O 0.19716 0.75572 0.36482 0.0
H832 H 0.21733 0.7418 0.11107 0.0
H833 H 0.21571 0.74713 0.03122 0.0
H834 H 0.18291 0.75667 0.04728 0.0
H835 H 0.18468 0.75198 0.12718 0.0
H836 H 0.16007 0.75512 0.49284 0.0
H837 H 0.16473 0.75925 0.5708 0.0
H838 H 0.19708 0.75575 0.53595 0.0
H839 H 0.19231 0.75134 0.45801 0.0
Pr840 Pr 0.54405 1.00587 0.23199 0.0
Pr841 Pr 0.55841 0.01068 0.32696 0.0
C842 C 0.53478 0.01299 0.15373 0.0
C843 C 0.53742 0.01788 0.10764 0.0
C844 C 0.52951 0.02256 0.07787 0.0
C845 C 0.53166 0.02493 0.03277 0.0
C846 C 0.54178 0.02258 0.01648 0.0
C847 C 0.54977 0.0186 0.04686 0.0
C848 C 0.5476 0.01626 0.09205 0.0
C849 C 0.54714 0.97069 0.27585 0.0
C850 C 0.56992 1.00089 0.23187 0.0
C851 C 0.56668 1.00385 0.4073 0.0
C852 C 0.56501 0.0095 0.45383 0.0
C853 C 0.57298 0.00711 0.4848 0.0
C854 C 0.57121 0.01067 0.52984 0.0
C855 C 0.56141 0.01659 0.54476 0.0
C856 C 0.55352 0.01948 0.51331 0.0
C857 C 0.55531 0.016 0.46827 0.0
C858 C 0.55589 0.04504 0.2784 0.0
C859 C 0.53256 0.01571 0.32915 0.0
O860 O 0.53609 0.02628 0.18402 0.0
O861 O 0.53754 0.99581 0.16685 0.0
O862 O 0.55041 0.98706 0.28713 0.0
O863 O 0.54166 0.97239 0.23989 0.0
O864 O 0.57023 0.99907 0.27562 0.0
O865 O 0.56145 1.00559 0.20931 0.0
O866 O 0.55939 0.99328 0.38963 0.0
O867 O 0.57039 0.01689 0.38019 0.0
O868 O 0.55245 0.02857 0.27074 0.0
O869 O 0.56097 0.04453 0.31569 0.0
O870 O 0.53136 0.01267 0.2859 0.0
O871 O 0.54154 0.01552 0.35008 0.0
H872 H 0.52161 0.02387 0.08932 0.0
H873 H 0.52536 0.02836 0.01055 0.0
H874 H 0.55763 0.01654 0.03554 0.0
H875 H 0.55381 0.01257 0.11458 0.0
H876 H 0.5805 1.00201 0.47431 0.0
H877 H 0.57742 0.00812 0.55314 0.0
H878 H 0.54593 0.02429 0.52355 0.0
H879 H 0.54905 0.01799 0.44485 0.0
Pr880 Pr 0.19513 0.01421 0.51271 0.0
Pr881 Pr 0.18231 0.02028 0.43017 0.0
C882 C 0.20391 0.01574 0.59411 0.0
C883 C 0.20151 0.01589 0.64192 0.0
C884 C 0.20942 0.01185 0.67226 0.0
C885 C 0.20746 0.01201 0.71785 0.0
C886 C 0.19753 0.01622 0.73422 0.0
C887 C 0.18958 0.02011 0.70355 0.0
C888 C 0.19155 0.01997 0.6578 0.0
C889 C 0.19298 0.98068 0.46304 0.0
C890 C 0.16924 0.01025 0.51714 0.0
C891 C 0.17389 0.02365 0.34843 0.0
C892 C 0.17616 0.02061 0.30106 0.0
C893 C 0.16824 0.02312 0.26997 0.0
C894 C 0.17025 0.02132 0.22461 0.0
C895 C 0.18025 0.01695 0.20924 0.0
C896 C 0.18818 0.01425 0.24071 0.0
C897 C 0.18615 0.01605 0.28622 0.0
C898 C 0.18439 0.05269 0.48476 0.0
C899 C 0.20756 0.01662 0.42023 0.0
O900 O 0.20144 0.03099 0.57112 0.0
O901 O 0.20226 0.99972 0.57275 0.0
O902 O 0.18574 0.99258 0.46994 0.0
O903 O 0.20145 0.98568 0.48307 0.0
O904 O 0.16908 0.00912 0.47368 0.0
O905 O 0.17786 0.01417 0.53905 0.0
O906 O 0.17272 0.00841 0.37333 0.0
O907 O 0.17896 0.03744 0.36817 0.0
O908 O 0.19165 0.04156 0.4738 0.0
O909 O 0.17572 0.04735 0.46702 0.0
O910 O 0.20851 0.02128 0.46246 0.0
O911 O 0.19851 0.01273 0.4028 0.0
H912 H 0.21714 0.00856 0.66065 0.0
H913 H 0.21373 0.0086 0.74027 0.0
H914 H 0.18186 0.02356 0.71491 0.0
H915 H 0.18534 0.02311 0.63486 0.0
H916 H 0.16051 0.02678 0.28076 0.0
H917 H 0.16399 0.02383 0.20152 0.0
H918 H 0.19594 0.01066 0.23021 0.0
H919 H 0.19238 0.01407 0.30975 0.0
Pr920 Pr 0.54635 0.75324 0.52919 0.0
Pr921 Pr 0.55817 0.74219 0.43738 0.0
C922 C 0.53563 0.754 0.60593 0.0
C923 C 0.53772 0.75375 0.65393 0.0
C924 C 0.52949 0.75503 0.68392 0.0
C925 C 0.53133 0.75509 0.72963 0.0
C926 C 0.54148 0.75389 0.74631 0.0
C927 C 0.54972 0.75257 0.71594 0.0
C928 C 0.54786 0.75248 0.67018 0.0
C929 C 0.55343 0.78406 0.47893 0.0
C930 C 0.57182 0.75125 0.52772 0.0
C931 C 0.56715 0.74353 0.35679 0.0
C932 C 0.56467 0.7486 0.31057 0.0
C933 C 0.57262 0.74939 0.27911 0.0
C934 C 0.57035 0.75217 0.23422 0.0
C935 C 0.56006 0.75418 0.21981 0.0
C936 C 0.55211 0.75391 0.25178 0.0
C937 C 0.5544 0.75115 0.29675 0.0
C938 C 0.55628 0.70977 0.49349 0.0
C939 C 0.53261 0.74478 0.43631 0.0
O940 O 0.53761 0.73815 0.58416 0.0
O941 O 0.53843 0.76951 0.58451 0.0
O942 O 0.5493 0.76902 0.46295 0.0
O943 O 0.55367 0.7836 0.52208 0.0
O944 O 0.57149 0.75206 0.48394 0.0
O945 O 0.56346 0.74885 0.55251 0.0
O946 O 0.5679 0.75758 0.38559 0.0
O947 O 0.56244 0.72834 0.3725 0.0
O948 O 0.55321 0.72661 0.49984 0.0
O949 O 0.5607 0.70899 0.4549 0.0
O950 O 0.53239 0.74932 0.47906 0.0
O951 O 0.54122 0.74167 0.41419 0.0
H952 H 0.52161 0.7561 0.67197 0.0
H953 H 0.52481 0.7564 0.7519 0.0
H954 H 0.55762 0.75139 0.72754 0.0
H955 H 0.55432 0.75144 0.64747 0.0
H956 H 0.58058 0.7473 0.28911 0.0
H957 H 0.57666 0.75204 0.21063 0.0
H958 H 0.54412 0.75567 0.24202 0.0
H959 H 0.54815 0.75056 0.32058 0.0
Pr960 Pr 0.81048 0.76489 0.18388 0.0
Pr961 Pr 0.79724 0.76109 0.27353 0.0
C962 C 0.81784 0.7659 0.10041 0.0
C963 C 0.81465 0.7615 0.0544 0.0
C964 C 0.80561 0.76939 0.03606 0.0
C965 C 0.80324 0.76658 0.99129 0.0
C966 C 0.80981 0.75572 0.96383 0.0
C967 C 0.81865 0.74726 0.9828 0.0
C968 C 0.82106 0.7502 0.02751 0.0
C969 C 0.80863 0.79783 0.23657 0.0
C970 C 0.78494 0.75996 0.17886 0.0
C971 C 0.7888 0.77087 0.35198 0.0
C972 C 0.78966 0.76612 0.39934 0.0
C973 C 0.79721 0.75327 0.41467 0.0
C974 C 0.79839 0.74996 0.4602 0.0
C975 C 0.79205 0.75947 0.49117 0.0
C976 C 0.7844 0.77211 0.47536 0.0
C977 C 0.78323 0.7754 0.4299 0.0
C978 C 0.8014 0.72414 0.24101 0.0
C979 C 0.8231 0.75433 0.27309 0.0
O980 O 0.81955 0.75142 0.12725 0.0
O981 O 0.81332 0.78051 0.11969 0.0
O982 O 0.8014 0.7862 0.22782 0.0
O983 O 0.81715 0.79277 0.21706 0.0
O984 O 0.78394 0.76486 0.22104 0.0
O985 O 0.79399 0.75706 0.16015 0.0
O986 O 0.79676 0.77973 0.33458 0.0
O987 O 0.78478 0.75779 0.32588 0.0
O988 O 0.80417 0.73989 0.22406 0.0
O989 O 0.79629 0.72725 0.27746 0.0
O990 O 0.82315 0.75284 0.22951 0.0
O991 O 0.81475 0.75936 0.29597 0.0
H992 H 0.80048 0.77814 0.05598 0.0
H993 H 0.79642 0.77349 0.97793 0.0
H994 H 0.82379 0.73848 0.96301 0.0
H995 H 0.82805 0.74391 0.0409 0.0
H996 H 0.80227 0.74602 0.39147 0.0
H997 H 0.80428 0.73998 0.47114 0.0
H998 H 0.77948 0.7799 0.49817 0.0
H999 H 0.77743 0.7855 0.41864 0.0
Pr1000 Pr 0.43249 0.50333 0.18659 0.0
Pr1001 Pr 0.44571 0.50678 0.27605 0.0
C1002 C 0.42493 0.50209 0.10342 0.0
C1003 C 0.42783 0.50689 0.05751 0.0
C1004 C 0.42006 0.50947 0.02576 0.0
C1005 C 0.42261 0.51226 0.98117 0.0
C1006 C 0.433 0.51246 0.96741 0.0
C1007 C 0.4408 0.51037 0.99963 0.0
C1008 C 0.43824 0.50764 0.04431 0.0
C1009 C 0.43417 0.47029 0.23915 0.0
C1010 C 0.45802 0.50762 0.18159 0.0
C1011 C 0.45394 0.49712 0.35494 0.0
C1012 C 0.45282 0.50176 0.40239 0.0
C1013 C 0.46142 0.50049 0.43044 0.0
C1014 C 0.46035 0.50348 0.47608 0.0
C1015 C 0.45063 0.50773 0.49466 0.0
C1016 C 0.44207 0.50943 0.46614 0.0
C1017 C 0.44315 0.50652 0.42048 0.0
C1018 C 0.44189 0.54388 0.24346 0.0
C1019 C 0.41995 0.51428 0.27558 0.0
O1020 O 0.42305 0.51635 0.13058 0.0
O1021 O 0.43003 0.48794 0.12185 0.0
O1022 O 0.44145 0.48177 0.23034 0.0
O1023 O 0.42565 0.47561 0.22001 0.0
O1024 O 0.45894 0.50242 0.22361 0.0
O1025 O 0.449 0.51116 0.16308 0.0
O1026 O 0.44623 0.48788 0.33658 0.0
O1027 O 0.45802 0.51029 0.3292 0.0
O1028 O 0.43896 0.52825 0.22648 0.0
O1029 O 0.44705 0.54055 0.27965 0.0
O1030 O 0.41999 0.51599 0.23206 0.0
O1031 O 0.4282 0.50873 0.29841 0.0
H1032 H 0.412 0.50883 0.03528 0.0
H1033 H 0.41641 0.51361 0.95724 0.0
H1034 H 0.44888 0.5107 0.99026 0.0
H1035 H 0.44437 0.50573 0.06836 0.0
H1036 H 0.46895 0.49689 0.41712 0.0
H1037 H 0.46716 0.50239 0.49683 0.0
H1038 H 0.43445 0.51247 0.47919 0.0
H1039 H 0.43639 0.5076 0.39943 0.0
Pr1040 Pr 0.80905 0.49565 0.07816 0.0
Pr1041 Pr 0.79607 0.50639 0.98266 0.0
C1042 C 0.81829 0.49583 0.15798 0.0
C1043 C 0.81621 0.50133 0.20417 0.0
C1044 C 0.82416 0.5 0.2355 0.0
C1045 C 0.82204 0.50231 0.28062 0.0
C1046 C 0.81189 0.50592 0.29526 0.0
C1047 C 0.80401 0.50802 0.26344 0.0
C1048 C 0.80615 0.50575 0.21825 0.0
C1049 C 0.80529 0.4634 0.0229 0.0
C1050 C 0.78356 0.50417 0.07913 0.0
C1051 C 0.78628 0.5035 0.9042 0.0
C1052 C 0.78846 0.49856 0.85779 0.0
C1053 C 0.78048 0.49953 0.82656 0.0
C1054 C 0.78261 0.49754 0.78138 0.0
C1055 C 0.79281 0.4946 0.76655 0.0
C1056 C 0.80075 0.49293 0.79826 0.0
C1057 C 0.79859 0.49491 0.84352 0.0
C1058 C 0.8008 0.53921 0.03295 0.0
C1059 C 0.82207 0.50463 0.98559 0.0
O1060 O 0.81965 0.50962 0.12883 0.0
O1061 O 0.81277 0.48144 0.14304 0.0
O1062 O 0.80264 0.48056 0.0177 0.0
O1063 O 0.81009 0.46213 0.06058 0.0
O1064 O 0.78266 0.50316 0.03529 0.0
O1065 O 0.79241 0.50307 0.1008 0.0
O1066 O 0.78634 0.48954 0.93346 0.0
O1067 O 0.79064 0.51932 0.91843 0.0
O1068 O 0.80269 0.52192 0.04234 0.0
O1069 O 0.79616 0.53997 0.99471 0.0
O1070 O 0.82217 0.50392 0.0295 0.0
O1071 O 0.81351 0.50371 0.96116 0.0
H1072 H 0.83195 0.49641 0.22523 0.0
H1073 H 0.82827 0.50038 0.30415 0.0
H1074 H 0.79615 0.51105 0.27353 0.0
H1075 H 0.79991 0.50679 0.19447 0.0
H1076 H 0.77263 0.50254 0.837 0.0
H1077 H 0.77633 0.49915 0.75797 0.0
H1078 H 0.80865 0.4904 0.78806 0.0
H1079 H 0.80487 0.49419 0.86725 0.0
Pr1080 Pr 0.43374 0.77356 0.08809 0.0
Pr1081 Pr 0.44826 0.76503 0.99553 0.0
C1082 C 0.42419 0.77147 0.16735 0.0
C1083 C 0.42677 0.76895 0.21454 0.0
C1084 C 0.41884 0.76592 0.24531 0.0
C1085 C 0.421 0.76539 0.29073 0.0
C1086 C 0.43116 0.76794 0.30632 0.0
C1087 C 0.43916 0.7704 0.27513 0.0
C1088 C 0.43698 0.77092 0.22965 0.0
C1089 C 0.43555 0.80552 0.0304 0.0
C1090 C 0.45966 0.77567 0.0922 0.0
C1091 C 0.45777 0.76931 0.91674 0.0
C1092 C 0.45537 0.77362 0.87005 0.0
C1093 C 0.46347 0.77678 0.84015 0.0
C1094 C 0.4615 0.77829 0.79469 0.0
C1095 C 0.45136 0.77657 0.77817 0.0
C1096 C 0.4432 0.77416 0.8086 0.0
C1097 C 0.44519 0.77268 0.85413 0.0
C1098 C 0.44614 0.73202 0.04829 0.0
C1099 C 0.42226 0.76007 0.99495 0.0
O1100 O 0.42529 0.75656 0.14125 0.0
O1101 O 0.42726 0.7876 0.14931 0.0
O1102 O 0.43925 0.78899 0.02684 0.0
O1103 O 0.43037 0.80626 0.0673 0.0
O1104 O 0.46084 0.77349 0.04867 0.0
O1105 O 0.45066 0.77515 0.11299 0.0
O1106 O 0.45703 0.78335 0.94563 0.0
O1107 O 0.45427 0.75285 0.93156 0.0
O1108 O 0.44244 0.7485 0.05589 0.0
O1109 O 0.45145 0.7325 0.01167 0.0
O1110 O 0.42167 0.76147 0.03868 0.0
O1111 O 0.43092 0.76267 0.9719 0.0
H1112 H 0.41091 0.76437 0.23427 0.0
H1113 H 0.41468 0.76312 0.31368 0.0
H1114 H 0.44706 0.77256 0.28588 0.0
H1115 H 0.44322 0.77337 0.20635 0.0
H1116 H 0.47138 0.77752 0.85182 0.0
H1117 H 0.46795 0.78052 0.7724 0.0
H1118 H 0.43532 0.77262 0.79715 0.0
H1119 H 0.43883 0.77014 0.87675 0.0
Pr1120 Pr 0.19664 0.25516 0.75009 0.0
Pr1121 Pr 0.18365 0.24974 0.83237 0.0
C1122 C 0.20533 0.25342 0.66852 0.0
C1123 C 0.20279 0.25391 0.62082 0.0
C1124 C 0.21048 0.25921 0.59046 0.0
C1125 C 0.2084 0.25957 0.54497 0.0
C1126 C 0.19855 0.25463 0.52872 0.0
C1127 C 0.19083 0.24938 0.55941 0.0
C1128 C 0.19292 0.24906 0.60505 0.0
C1129 C 0.19485 0.28871 0.80004 0.0
C1130 C 0.17083 0.26034 0.74509 0.0
C1131 C 0.17503 0.247 0.91389 0.0
C1132 C 0.17735 0.249 0.96151 0.0
C1133 C 0.16956 0.24506 0.99245 0.0
C1134 C 0.17162 0.24591 0.0379 0.0
C1135 C 0.18153 0.25071 0.05353 0.0
C1136 C 0.18932 0.25496 0.02228 0.0
C1137 C 0.18725 0.25406 0.97664 0.0
C1138 C 0.18527 0.21722 0.77791 0.0
C1139 C 0.20898 0.25145 0.84237 0.0
O1140 O 0.20246 0.23825 0.691 0.0
O1141 O 0.20422 0.2694 0.69066 0.0
O1142 O 0.18747 0.2772 0.79251 0.0
O1143 O 0.20333 0.28328 0.78065 0.0
O1144 O 0.17062 0.2615 0.78854 0.0
O1145 O 0.17942 0.25603 0.72341 0.0
O1146 O 0.17474 0.26267 0.88998 0.0
O1147 O 0.17935 0.23258 0.89336 0.0
O1148 O 0.19271 0.22797 0.78892 0.0
O1149 O 0.17668 0.22302 0.79554 0.0
O1150 O 0.20984 0.24693 0.80005 0.0
O1151 O 0.20001 0.25589 0.85995 0.0
H1152 H 0.21815 0.26295 0.60195 0.0
H1153 H 0.21458 0.26339 0.52245 0.0
H1154 H 0.18313 0.24571 0.54821 0.0
H1155 H 0.18686 0.24501 0.62797 0.0
H1156 H 0.16188 0.24115 0.98142 0.0
H1157 H 0.16539 0.24288 0.06086 0.0
H1158 H 0.19706 0.25856 0.03307 0.0
H1159 H 0.19338 0.25707 0.95322 0.0
Pr1160 Pr 0.54754 0.50919 0.74795 0.0
Pr1161 Pr 0.5606 0.51238 0.83829 0.0
C1162 C 0.5392 0.51885 0.66929 0.0
C1163 C 0.54015 0.51409 0.62181 0.0
C1164 C 0.53138 0.51478 0.59461 0.0
C1165 C 0.53225 0.51172 0.54892 0.0
C1166 C 0.54194 0.508 0.52944 0.0
C1167 C 0.55068 0.50685 0.55712 0.0
C1168 C 0.54979 0.50982 0.60284 0.0
C1169 C 0.55175 0.47203 0.77914 0.0
C1170 C 0.57346 0.50367 0.74875 0.0
C1171 C 0.56803 0.51286 0.92168 0.0
C1172 C 0.56499 0.50782 0.96725 0.0
C1173 C 0.57264 0.50575 0.99973 0.0
C1174 C 0.56992 0.50293 0.04411 0.0
C1175 C 0.55946 0.50218 0.05688 0.0
C1176 C 0.5518 0.50369 0.0239 0.0
C1177 C 0.55455 0.50645 0.97945 0.0
C1178 C 0.55835 0.54592 0.78777 0.0
C1179 C 0.5351 0.50734 0.84213 0.0
O1180 O 0.54703 0.52793 0.68718 0.0
O1181 O 0.53509 0.50585 0.69537 0.0
O1182 O 0.55448 0.48764 0.79679 0.0
O1183 O 0.54667 0.47542 0.7428 0.0
O1184 O 0.57346 0.50146 0.79216 0.0
O1185 O 0.56509 0.5087 0.72609 0.0
O1186 O 0.56986 0.49874 0.89404 0.0
O1187 O 0.56306 0.52725 0.90365 0.0
O1188 O 0.55132 0.53378 0.79552 0.0
O1189 O 0.5669 0.54112 0.80738 0.0
O1190 O 0.53422 0.51285 0.8003 0.0
O1191 O 0.54411 0.50387 0.86084 0.0
H1192 H 0.52387 0.51799 0.60863 0.0
H1193 H 0.52533 0.51237 0.52885 0.0
H1194 H 0.55827 0.50422 0.54336 0.0
H1195 H 0.55668 0.50918 0.6232 0.0
H1196 H 0.58074 0.50688 0.99096 0.0
H1197 H 0.57601 0.50206 0.06864 0.0
H1198 H 0.54369 0.50293 0.03251 0.0
H1199 H 0.54852 0.50798 0.95481 0.0
Pr1200 Pr 0.19538 0.51629 0.01277 0.0
Pr1201 Pr 0.182 0.52225 0.93071 0.0
C1202 C 0.2041 0.51683 0.09433 0.0
C1203 C 0.20165 0.51744 0.14213 0.0
C1204 C 0.20918 0.51158 0.17265 0.0
C1205 C 0.20721 0.51223 0.21822 0.0
C1206 C 0.19764 0.5188 0.23443 0.0
C1207 C 0.19004 0.52448 0.20357 0.0
C1208 C 0.19203 0.52382 0.15783 0.0
C1209 C 0.19429 0.48389 0.9585 0.0
C1210 C 0.16971 0.50972 0.01843 0.0
C1211 C 0.17313 0.52355 0.8495 0.0
C1212 C 0.17569 0.5235 0.80181 0.0
C1213 C 0.16818 0.52928 0.77117 0.0
C1214 C 0.17025 0.5289 0.72566 0.0
C1215 C 0.17991 0.52269 0.70964 0.0
C1216 C 0.1875 0.51715 0.74064 0.0
C1217 C 0.18541 0.51755 0.78631 0.0
C1218 C 0.18296 0.5538 0.98817 0.0
C1219 C 0.20758 0.52515 0.92095 0.0
O1220 O 0.20228 0.53232 0.07103 0.0
O1221 O 0.20187 0.501 0.07311 0.0
O1222 O 0.18668 0.49459 0.9679 0.0
O1223 O 0.20268 0.48964 0.9781 0.0
O1224 O 0.16938 0.50904 0.97493 0.0
O1225 O 0.17826 0.51439 0.03992 0.0
O1226 O 0.1747 0.50761 0.87147 0.0
O1227 O 0.17558 0.5389 0.8721 0.0
O1228 O 0.19058 0.54368 0.97642 0.0
O1229 O 0.1745 0.54808 0.9691 0.0
O1230 O 0.2086 0.52568 0.96447 0.0
O1231 O 0.19861 0.52203 0.90173 0.0
H1232 H 0.21663 0.5065 0.1612 0.0
H1233 H 0.21318 0.5074 0.24076 0.0
H1234 H 0.18261 0.52976 0.21475 0.0
H1235 H 0.1861 0.52838 0.13478 0.0
H1236 H 0.16065 0.53402 0.78247 0.0
H1237 H 0.16427 0.53363 0.70303 0.0
H1238 H 0.195 0.51216 0.72963 0.0
H1239 H 0.19134 0.51305 0.80945 0.0
Pr1240 Pr 0.54554 0.25147 0.02184 0.0
Pr1241 Pr 0.55816 0.24222 0.92995 0.0
C1242 C 0.53477 0.25073 0.09847 0.0
C1243 C 0.53692 0.25111 0.14646 0.0
C1244 C 0.52871 0.25201 0.17664 0.0
C1245 C 0.53061 0.25246 0.22232 0.0
C1246 C 0.54079 0.25206 0.23881 0.0
C1247 C 0.54902 0.25118 0.20825 0.0
C1248 C 0.5471 0.2507 0.16252 0.0
C1249 C 0.55242 0.28317 0.97393 0.0
C1250 C 0.57107 0.25077 0.0225 0.0
C1251 C 0.56727 0.24496 0.84977 0.0
C1252 C 0.56468 0.24957 0.80336 0.0
C1253 C 0.5726 0.25082 0.77185 0.0
C1254 C 0.57028 0.25317 0.72686 0.0
C1255 C 0.55995 0.25429 0.71237 0.0
C1256 C 0.55202 0.25353 0.74438 0.0
C1257 C 0.55437 0.25119 0.78944 0.0
C1258 C 0.55636 0.20921 0.9841 0.0
C1259 C 0.5325 0.24238 0.9277 0.0
O1260 O 0.53756 0.23519 0.07711 0.0
O1261 O 0.53671 0.26655 0.0765 0.0
O1262 O 0.54869 0.26803 0.95679 0.0
O1263 O 0.55225 0.28244 0.01707 0.0
O1264 O 0.57107 0.25209 0.97872 0.0
O1265 O 0.56257 0.24769 0.04599 0.0
O1266 O 0.5673 0.25908 0.87856 0.0
O1267 O 0.56325 0.22908 0.86534 0.0
O1268 O 0.55304 0.22584 0.99085 0.0
O1269 O 0.56103 0.20896 0.94598 0.0
O1270 O 0.53195 0.2463 0.97071 0.0
O1271 O 0.54128 0.24061 0.90591 0.0
H1272 H 0.5208 0.25241 0.16486 0.0
H1273 H 0.52409 0.25342 0.24471 0.0
H1274 H 0.55694 0.25062 0.21966 0.0
H1275 H 0.55355 0.24998 0.1397 0.0
H1276 H 0.58061 0.24943 0.78189 0.0
H1277 H 0.57659 0.25343 0.70328 0.0
H1278 H 0.54399 0.2546 0.7346 0.0
H1279 H 0.54813 0.25022 0.81329 0.0
C1280 C 0.21767 0.26617 0.90675 0.0
C1281 C 0.21802 0.25286 0.87179 0.0
C1282 C 0.22513 0.26599 0.93982 0.0
C1283 C 0.251 0.24897 0.97021 0.0
H1284 H 0.2402 0.25335 0.08991 0.0
C1285 C 0.27718 0.23823 0.12047 0.0
C1286 C 0.2765 0.25193 0.15453 0.0
C1287 C 0.26965 0.23721 0.08772 0.0
C1288 C 0.24334 0.25229 0.05672 0.0
H1289 H 0.22676 0.22963 0.84245 0.0
H1290 H 0.23999 0.22921 0.90102 0.0
H1291 H 0.22838 0.2541 0.02701 0.0
H1292 H 0.26713 0.27458 0.18266 0.0
H1293 H 0.25383 0.27294 0.1247 0.0
H1294 H 0.26597 0.2473 0.99988 0.0
C1295 C 0.23388 0.2398 0.90256 0.0
C1296 C 0.23659 0.25271 0.02067 0.0
C1297 C 0.22636 0.24005 0.86903 0.0
C1298 C 0.26778 0.26385 0.15683 0.0
C1299 C 0.26022 0.26292 0.12362 0.0
C1300 C 0.25776 0.24856 0.00628 0.0
C1301 C 0.23313 0.25242 0.93897 0.0
C1302 C 0.24035 0.25119 0.97701 0.0
C1303 C 0.26127 0.24996 0.08799 0.0
C1304 C 0.25401 0.25025 0.04994 0.0
H1305 H 0.21141 0.27646 0.90928 0.0
H1306 H 0.22451 0.27626 0.96665 0.0
H1307 H 0.25414 0.24799 0.937 0.0
H1308 H 0.28376 0.22865 0.11831 0.0
H1309 H 0.27053 0.22671 0.06151 0.0
C1310 C 0.02354 0.99193 0.88323 0.0
C1311 C 0.02272 0.00693 0.85234 0.0
C1312 C 0.01622 0.98975 0.91661 0.0
C1313 C 0.9904 1.00497 0.95536 0.0
H1314 H 0.00224 0.99555 0.07164 0.0
C1315 C 0.96656 0.0156 0.11212 0.0
C1316 C 0.96682 1.00095 0.14414 0.0
C1317 C 0.97376 0.01606 0.07795 0.0
C1318 C -0.00119 0.99796 0.03937 0.0
H1319 H 0.01341 0.0309 0.83039 0.0
H1320 H 0.00048 0.02728 0.8895 0.0
H1321 H 0.01342 0.99623 0.00657 0.0
H1322 H 0.97514 0.97593 0.16731 0.0
H1323 H 0.98792 0.97669 0.10686 0.0
H1324 H 0.97581 0.00692 0.9883 0.0
C1325 C 0.00676 0.01703 0.88753 0.0
C1326 C 0.00519 0.99833 1.00202 0.0
C1327 C 0.0141 0.0191 0.85364 0.0
C1328 C 0.97484 0.98741 0.14309 0.0
C1329 C 0.98209 0.98783 0.10845 0.0
C1330 C 0.98402 1.00464 0.99271 0.0
C1331 C 0.00796 1.0027 0.92024 0.0
C1332 C 0.00106 1.00189 0.95959 0.0
C1333 C 0.98137 1.00181 0.07475 0.0
C1334 C 0.98817 1.00131 0.03517 0.0
H1335 H 0.03013 0.98231 0.88262 0.0
H1336 H 0.01722 0.97826 0.94046 0.0
H1337 H 0.98696 0.00748 0.92316 0.0
H1338 H 0.96052 0.02639 0.11257 0.0
H1339 H 0.97319 0.02734 0.05331 0.0
C1340 C 0.21582 1.00106 0.35585 0.0
C1341 C 0.21656 0.01435 0.39076 0.0
C1342 C 0.22326 1.00049 0.32272 0.0
C1343 C 0.24962 0.01424 0.2924 0.0
H1344 H 0.23874 0.01113 0.17264 0.0
C1345 C 0.27648 0.01931 0.1427 0.0
C1346 C 0.27503 1.0058 0.10873 0.0
C1347 C 0.26899 0.02196 0.17515 0.0
C1348 C 0.2419 0.01182 0.20583 0.0
H1349 H 0.22596 0.03673 0.41991 0.0
H1350 H 0.2392 0.03574 0.36127 0.0
H1351 H 0.22688 0.01233 0.23542 0.0
H1352 H 0.26446 0.98513 0.08042 0.0
H1353 H 0.25123 0.98951 0.13801 0.0
H1354 H 0.26463 0.01343 0.26297 0.0
C1355 C 0.23277 0.0258 0.35981 0.0
C1356 C 0.23512 0.01254 0.24181 0.0
C1357 C 0.22525 0.02634 0.39338 0.0
C1358 C 0.26568 0.99571 0.1062 0.0
C1359 C 0.25816 0.99822 0.13919 0.0
C1360 C 0.2564 0.01346 0.25642 0.0
C1361 C 0.23164 0.01324 0.32348 0.0
C1362 C 0.23891 0.01357 0.28549 0.0
C1363 C 0.2599 0.01098 0.17476 0.0
C1364 C 0.25262 0.01217 0.21271 0.0
H1365 H 0.20928 0.99137 0.3534 0.0
H1366 H 0.22234 0.99027 0.29594 0.0
H1367 H 0.25275 0.01481 0.32565 0.0
H1368 H 0.2836 0.02744 0.14499 0.0
H1369 H 0.27045 0.03228 0.20125 0.0
C1370 C 0.01795 0.24559 0.39128 0.0
C1371 C 0.02693 0.25673 0.38725 0.0
C1372 C 0.01029 0.24656 0.35845 0.0
C1373 C 0.00746 0.2595 0.24026 0.0
H1374 H 0.97812 0.2591 0.26547 0.0
C1375 C 0.97561 0.27276 0.10718 0.0
C1376 C 0.96664 0.26165 0.11173 0.0
C1377 C 0.98336 0.27179 0.13966 0.0
C1378 C 0.9863 0.25902 0.25787 0.0
H1379 H 0.03462 0.27868 0.34807 0.0
H1380 H 0.02129 0.28058 0.29191 0.0
H1381 H 0.99043 0.25833 0.32658 0.0
H1382 H 0.95903 0.23972 0.15115 0.0
H1383 H 0.97252 0.23774 0.20666 0.0
H1384 H 0.00332 0.26019 0.17153 0.0
C1385 C 0.02025 0.27064 0.3192 0.0
C1386 C 0.99333 0.25856 0.29291 0.0
C1387 C 0.02786 0.26961 0.35157 0.0
C1388 C 0.96581 0.24874 0.14736 0.0
C1389 C 0.9735 0.24768 0.17934 0.0
C1390 C 0.00042 0.25996 0.20521 0.0
C1391 C 0.01152 0.25875 0.32149 0.0
C1392 C 0.00399 0.25883 0.28449 0.0
C1393 C 0.9822 0.25961 0.17671 0.0
C1394 C 0.98976 0.25965 0.21364 0.0
H1395 H 0.01708 0.23555 0.41846 0.0
H1396 H 0.00361 0.23723 0.36108 0.0
H1397 H 0.01564 0.25942 0.23269 0.0
H1398 H 0.97639 0.28282 0.07997 0.0
H1399 H 0.99002 0.28113 0.13677 0.0
C1400 C 0.72693 0.74403 0.8615 0.0
C1401 C 0.71815 0.75579 0.86355 0.0
C1402 C 0.73439 0.74491 0.89524 0.0
C1403 C 0.73642 0.75892 0.01319 0.0
H1404 H 0.7659 0.75416 0.99414 0.0
C1405 C 0.76727 0.76949 0.15185 0.0
C1406 C 0.77589 0.75733 0.1498 0.0
C1407 C 0.75981 0.76897 0.11806 0.0
C1408 C 0.75766 0.7553 1.00005 0.0
H1409 H 0.71065 0.77874 0.90003 0.0
H1410 H 0.72367 0.7806 0.95769 0.0
H1411 H 0.75426 0.75451 0.93059 0.0
H1412 H 0.7831 0.73408 0.11325 0.0
H1413 H 0.77009 0.73289 0.05545 0.0
H1414 H 0.73983 0.75971 0.08266 0.0
C1415 C 0.7247 0.77025 0.93126 0.0
C1416 C 0.75101 0.7555 0.96359 0.0
C1417 C 0.71728 0.76927 0.898 0.0
C1418 C 0.77659 0.74384 0.11531 0.0
C1419 C 0.76919 0.74325 0.08196 0.0
C1420 C 0.74307 0.75874 0.04965 0.0
C1421 C 0.73315 0.75765 0.9312 0.0
C1422 C 0.74031 0.75733 0.96972 0.0
C1423 C 0.7609 0.75623 0.08203 0.0
C1424 C 0.75377 0.75684 0.04351 0.0
H1425 H 0.72774 0.73346 0.8354 0.0
H1426 H 0.74083 0.73501 0.89427 0.0
H1427 H 0.72818 0.76001 0.01913 0.0
H1428 H 0.7666 0.78008 0.17797 0.0
H1429 H 0.75349 0.77914 0.11903 0.0
C1430 C 0.77624 0.9837 0.65912 0.0
C1431 C 0.77533 0.99338 0.61848 0.0
C1432 C 0.76869 0.98566 0.69163 0.0
C1433 C 0.74218 1.00313 0.71376 0.0
H1434 H 0.75299 0.01079 0.83252 0.0
C1435 C 0.71615 0.02994 0.85276 0.0
C1436 C 0.71629 0.0192 0.89219 0.0
C1437 C 0.7239 0.0277 0.82126 0.0
C1438 C 0.74986 0.00853 0.79963 0.0
H1439 H 0.7656 0.01187 0.57876 0.0
H1440 H 0.75232 0.01559 0.63604 0.0
H1441 H 0.76482 1.00377 0.77171 0.0
H1442 H 0.72503 0.99873 0.93116 0.0
H1443 H 0.73874 0.99482 0.87574 0.0
H1444 H 0.72724 0.00813 0.74169 0.0
C1445 C 0.75884 1.00628 0.6426 0.0
C1446 C 0.75661 1.00443 0.76477 0.0
C1447 C 0.7664 1.00413 0.60972 0.0
C1448 C 0.72478 0.00728 0.90116 0.0
C1449 C 0.73259 1.00498 0.86936 0.0
C1450 C 0.73545 0.00733 0.74856 0.0
C1451 C 0.76009 0.99756 0.68445 0.0
C1452 C 0.75285 1.00165 0.72142 0.0
C1453 C 0.73197 0.01462 0.82839 0.0
C1454 C 0.73922 0.01015 0.79181 0.0
H1455 H 0.78303 0.97515 0.66647 0.0
H1456 H 0.76975 0.97829 0.72293 0.0
H1457 H 0.73902 1.00082 0.68097 0.0
H1458 H 0.70974 0.03941 0.84523 0.0
H1459 H 0.72337 0.0357 0.79052 0.0
C1460 C 0.96701 0.77866 0.65645 0.0
C1461 C 0.96804 0.76834 0.61674 0.0
C1462 C 0.97422 0.77656 0.69031 0.0
C1463 C 7e-05 0.75765 0.71883 0.0
H1464 H 0.98781 0.75218 0.83566 0.0
C1465 C 0.02455 0.73403 0.86644 0.0
C1466 C 0.0237 0.74529 0.90491 0.0
C1467 C 0.01721 0.73541 0.83286 0.0
C1468 C 0.99135 0.75381 0.80335 0.0
H1469 H 0.97766 0.74854 0.58005 0.0
H1470 H 0.99039 0.7447 0.63971 0.0
H1471 H 0.9768 0.75872 0.77188 0.0
H1472 H 0.01416 0.76581 0.9399 0.0
H1473 H 0.0012 0.76826 0.88089 0.0
H1474 H 0.01462 0.75271 0.75034 0.0
C1475 C 0.98402 0.75457 0.64446 0.0
C1476 C 0.98506 0.75763 0.76676 0.0
C1477 C 0.97679 0.75682 0.61021 0.0
C1478 C 0.01493 0.75685 0.91075 0.0
C1479 C 0.00756 0.75831 0.87685 0.0
C1480 C 0.00636 0.75379 0.75541 0.0
C1481 C 0.98258 0.7639 0.68548 0.0
C1482 C 0.98935 0.75971 0.7241 0.0
C1483 C 0.00887 0.74816 0.83684 0.0
C1484 C 0.00207 0.75184 0.79809 0.0
H1485 H 0.96033 0.78772 0.66214 0.0
H1486 H 0.97304 0.78438 0.72092 0.0
H1487 H 0.00363 0.75937 0.68658 0.0
H1488 H 0.03121 0.72487 0.86126 0.0
H1489 H 0.01828 0.72701 0.803 0.0
C1490 C 0.22444 0.74367 0.36744 0.0
C1491 C 0.21529 0.75391 0.37544 0.0
C1492 C 0.23237 0.74362 0.39918 0.0
C1493 C 0.23618 0.75124 0.51935 0.0
H1494 H 0.26518 0.75543 0.48914 0.0
C1495 C 0.26858 0.76332 0.64991 0.0
C1496 C 0.278 0.75396 0.64204 0.0
C1497 C 0.26065 0.76248 0.61824 0.0
C1498 C 0.25711 0.754 0.49812 0.0
H1499 H 0.20756 0.77321 0.42134 0.0
H1500 H 0.2213 0.77327 0.47569 0.0
H1501 H 0.25226 0.75575 0.43035 0.0
H1502 H 0.28626 0.73525 0.59667 0.0
H1503 H 0.27248 0.73348 0.54248 0.0
H1504 H 0.24102 0.74952 0.5871 0.0
C1505 C 0.22229 0.76482 0.44586 0.0
C1506 C 0.24972 0.75419 0.46438 0.0
C1507 C 0.21443 0.76484 0.41447 0.0
C1508 C 0.27915 0.74293 0.60334 0.0
C1509 C 0.27127 0.74199 0.57207 0.0
C1510 C 0.24357 0.75103 0.55309 0.0
C1511 C 0.23124 0.75385 0.43919 0.0
C1512 C 0.23917 0.75292 0.47464 0.0
C1513 C 0.26204 0.75216 0.57847 0.0
C1514 C 0.25412 0.75243 0.54287 0.0
H1515 H 0.2253 0.73511 0.33771 0.0
H1516 H 0.23921 0.73505 0.39314 0.0
H1517 H 0.2281 0.74992 0.52829 0.0
H1518 H 0.2675 0.77195 0.67942 0.0
H1519 H 0.25362 0.7705 0.6241 0.0
C1520 C 0.96731 0.48553 0.60334 0.0
C1521 C 0.96796 0.49479 0.64463 0.0
C1522 C 0.97492 0.48829 0.57138 0.0
C1523 C 0.00124 0.50628 0.55076 0.0
H1524 H 0.99016 0.51802 0.43424 0.0
C1525 C 0.02756 0.53397 0.41296 0.0
C1526 C 0.02649 0.52527 0.37124 0.0
C1527 C 0.02002 0.53152 0.44538 0.0
C1528 C 0.99338 0.5146 0.46642 0.0
H1529 H 0.97741 0.51312 0.68606 0.0
H1530 H 0.99085 0.51796 0.62984 0.0
H1531 H 0.97845 0.50962 0.49452 0.0
H1532 H 0.01649 0.50815 0.32954 0.0
H1533 H 0.00322 0.50364 0.3866 0.0
H1534 H 0.01617 0.51111 0.52266 0.0
C1535 C 0.98442 0.50854 0.62237 0.0
C1536 C 0.98668 0.50976 0.50096 0.0
C1537 C 0.97677 0.50571 0.65461 0.0
C1538 C 0.01742 0.51514 0.36136 0.0
C1539 C 0.00987 0.51252 0.39411 0.0
C1540 C 0.00794 0.51107 0.51618 0.0
C1541 C 0.98334 0.50042 0.57987 0.0
C1542 C 0.99054 0.50549 0.54346 0.0
C1543 C 0.01129 0.52014 0.43696 0.0
C1544 C 0.00408 0.51532 0.47363 0.0
H1545 H 0.96065 0.47683 0.59492 0.0
H1546 H 0.97402 0.48142 0.5394 0.0
H1547 H 0.00444 0.50289 0.583 0.0
H1548 H 0.03446 0.54204 0.42118 0.0
H1549 H 0.02121 0.53804 0.47756 0.0
C1550 C 0.27672 0.48547 0.66535 0.0
C1551 C 0.27574 0.4928 0.62216 0.0
C1552 C 0.26916 0.48905 0.69709 0.0
C1553 C 0.24241 0.50521 0.7147 0.0
H1554 H 0.25312 0.52169 0.82873 0.0
C1555 C 0.21523 0.53372 0.84841 0.0
C1556 C 0.2166 0.52641 0.89141 0.0
C1557 C 0.22283 0.53127 0.81628 0.0
C1558 C 0.25001 0.51696 0.79725 0.0
H1559 H 0.2658 0.50859 0.5774 0.0
H1560 H 0.25244 0.51488 0.63322 0.0
H1561 H 0.26507 0.51273 0.76976 0.0
H1562 H 0.2272 0.51177 0.9354 0.0
H1563 H 0.24058 0.50726 0.87887 0.0
H1564 H 0.22736 0.50925 0.74224 0.0
C1565 C 0.2591 0.50634 0.64239 0.0
C1566 C 0.25684 0.5118 0.76346 0.0
C1567 C 0.2667 0.50269 0.6104 0.0
C1568 C 0.22602 0.5177 0.9026 0.0
C1569 C 0.23364 0.51508 0.87015 0.0
C1570 C 0.23558 0.51032 0.74853 0.0
C1571 C 0.26044 0.50009 0.68644 0.0
C1572 C 0.25311 0.50578 0.7219 0.0
C1573 C 0.23195 0.52126 0.82624 0.0
C1574 C 0.2393 0.51626 0.79021 0.0
H1575 H 0.28354 0.47751 0.67512 0.0
H1576 H 0.27029 0.48358 0.73037 0.0
H1577 H 0.23931 0.50044 0.68323 0.0
H1578 H 0.20805 0.54064 0.83904 0.0
H1579 H 0.22141 0.53669 0.78318 0.0
C1580 C 0.7663 0.25824 0.64738 0.0
C1581 C 0.77505 0.26968 0.64006 0.0
C1582 C 0.75889 0.25614 0.61386 0.0
C1583 C 0.75721 0.25959 0.49179 0.0
H1584 H 0.72787 0.25288 0.5119 0.0
C1585 C 0.726 0.25585 0.35292 0.0
C1586 C 0.71782 0.24301 0.36036 0.0
C1587 C 0.73365 0.25833 0.3853 0.0
C1588 C 0.73607 0.25453 0.50586 0.0
H1589 H 0.78258 0.28915 0.5942 0.0
H1590 H 0.76952 0.28615 0.53672 0.0
H1591 H 0.73914 0.2605 0.57416 0.0
H1592 H 0.71171 0.22137 0.405 0.0
H1593 H 0.72509 0.22542 0.46076 0.0
H1594 H 0.75408 0.25378 0.42332 0.0
C1595 C 0.76849 0.27822 0.56731 0.0
C1596 C 0.74251 0.25891 0.54153 0.0
C1597 C 0.7759 0.28012 0.60041 0.0
C1598 C 0.71789 0.23154 0.39867 0.0
C1599 C 0.72549 0.23396 0.43077 0.0
C1600 C 0.75074 0.25532 0.45606 0.0
C1601 C 0.76013 0.26561 0.57286 0.0
C1602 C 0.75316 0.26145 0.53495 0.0
C1603 C 0.73318 0.24795 0.42533 0.0
C1604 C 0.74013 0.25261 0.46281 0.0
H1605 H 0.76556 0.2499 0.67753 0.0
H1606 H 0.75254 0.24627 0.61916 0.0
H1607 H 0.76541 0.26107 0.48565 0.0
H1608 H 0.72607 0.26498 0.32382 0.0
H1609 H 0.73953 0.26919 0.38025 0.0
C1610 C 0.71841 0.49584 0.36555 0.0
C1611 C 0.71867 0.50992 0.39886 0.0
C1612 C 0.72559 0.49601 0.33129 0.0
C1613 C 0.75063 0.51469 0.29431 0.0
H1614 H 0.73872 0.50744 0.17734 0.0
C1615 C 0.77544 0.5228 0.13897 0.0
C1616 C 0.77452 0.50832 0.10688 0.0
C1617 C 0.76811 0.52465 0.1724 0.0
C1618 C 0.74217 0.50933 0.20974 0.0
H1619 H 0.72699 0.53455 0.42415 0.0
H1620 H 0.73974 0.53489 0.36361 0.0
H1621 H 0.72758 0.50696 0.24253 0.0
H1622 H 0.76504 0.48498 0.08284 0.0
H1623 H 0.7521 0.48799 0.14203 0.0
H1624 H 0.76524 0.51679 0.26167 0.0
C1625 C 0.73391 0.52372 0.36425 0.0
C1626 C 0.7358 0.50906 0.2471 0.0
C1627 C 0.72668 0.52349 0.39894 0.0
C1628 C 0.76581 0.49638 0.10704 0.0
C1629 C 0.75846 0.4981 0.14098 0.0
C1630 C 0.757 0.51491 0.25694 0.0
C1631 C 0.73319 0.51033 0.32933 0.0
C1632 C 0.73998 0.51155 0.28981 0.0
C1633 C 0.75974 0.51186 0.17487 0.0
C1634 C 0.75285 0.51216 0.21423 0.0
H1635 H 0.71239 0.48502 0.36506 0.0
H1636 H 0.72501 0.48518 0.30564 0.0
H1637 H 0.75407 0.51645 0.32678 0.0
H1638 H 0.78211 0.53224 0.13926 0.0
H1639 H 0.76919 0.53571 0.1972 0.0
C1640 C 0.46769 0.98483 0.6097 0.0
C1641 C 0.46821 0.99651 0.64758 0.0
C1642 C 0.475 0.98661 0.57612 0.0
C1643 C 0.5003 0.00706 0.54557 0.0
H1644 H 0.48785 0.01024 0.4287 0.0
C1645 C 0.52437 0.02969 0.39585 0.0
C1646 C 0.52347 0.01812 0.35793 0.0
C1647 C 0.5171 0.02847 0.42978 0.0
C1648 C 0.49145 0.00923 0.461 0.0
H1649 H 0.47716 0.01822 0.68166 0.0
H1650 H 0.49007 0.02138 0.62258 0.0
H1651 H 0.47703 1.00368 0.49308 0.0
H1652 H 0.51395 0.99715 0.32423 0.0
H1653 H 0.50118 0.99487 0.38389 0.0
H1654 H 0.51473 0.0125 0.51349 0.0
C1655 C 0.48399 0.0108 0.61903 0.0
C1656 C 0.48527 1.00542 0.49792 0.0
C1657 C 0.47666 0.00893 0.65296 0.0
C1658 C 0.51474 1.00637 0.35294 0.0
C1659 C 0.50748 1.00501 0.38723 0.0
C1660 C 0.50649 0.01084 0.50863 0.0
C1661 C 0.48296 1.0002 0.5795 0.0
C1662 C 0.48964 1.0042 0.54057 0.0
C1663 C 0.50882 0.01551 0.42675 0.0
C1664 C 0.50213 0.01198 0.46592 0.0
H1665 H 0.46128 0.97502 0.60494 0.0
H1666 H 0.47416 0.97787 0.54664 0.0
H1667 H 0.50389 1.00605 0.57791 0.0
H1668 H 0.53101 0.03899 0.40032 0.0
H1669 H 0.5182 0.03715 0.45919 0.0
C1670 C 0.47725 0.2607 0.60613 0.0
C1671 C 0.46873 0.27281 0.61227 0.0
C1672 C 0.4844 0.25812 0.64051 0.0
C1673 C 0.48525 0.26149 0.76274 0.0
H1674 H 0.51452 0.25219 0.74699 0.0
C1675 C 0.51511 0.25513 0.90644 0.0
C1676 C 0.52312 0.24181 0.90017 0.0
C1677 C 0.50779 0.25813 0.87289 0.0
C1678 C 0.50633 0.25455 0.75183 0.0
H1679 H 0.46136 0.29293 0.65695 0.0
H1680 H 0.474 0.28912 0.71595 0.0
H1681 H 0.50397 0.26077 0.68309 0.0
H1682 H 0.52921 0.2199 0.85633 0.0
H1683 H 0.51637 0.22481 0.79859 0.0
H1684 H 0.48766 0.2554 0.83162 0.0
C1685 C 0.47504 0.28107 0.68557 0.0
C1686 C 0.50029 0.25949 0.7152 0.0
C1687 C 0.46789 0.28345 0.65159 0.0
C1688 C 0.52316 0.23039 0.86181 0.0
C1689 C 0.51588 0.23333 0.82856 0.0
C1690 C 0.4913 0.25664 0.79941 0.0
C1691 C 0.48313 0.26775 0.68125 0.0
C1692 C 0.48968 0.263 0.72019 0.0
C1693 C 0.50841 0.2478 0.83285 0.0
C1694 C 0.50189 0.253 0.79427 0.0
H1695 H 0.47796 0.25214 0.57629 0.0
H1696 H 0.49053 0.24771 0.63614 0.0
H1697 H 0.47704 0.2637 0.76766 0.0
H1698 H 0.51499 0.26424 0.93553 0.0
H1699 H 0.50209 0.26937 0.87711 0.0
C1700 C 0.46805 0.78839 0.15986 0.0
C1701 C 0.46876 0.77718 0.1213 0.0
C1702 C 0.47524 0.78629 0.1939 0.0
C1703 C 0.50035 0.76398 0.22446 0.0
H1704 H 0.48795 0.76214 0.34162 0.0
C1705 C 0.52266 0.73355 0.37127 0.0
C1706 C 0.52312 0.74517 0.40926 0.0
C1707 C 0.51542 0.73717 0.3382 0.0
C1708 C 0.49153 0.76276 0.30919 0.0
H1709 H 0.47782 0.75577 0.08683 0.0
H1710 H 0.4904 0.75185 0.14665 0.0
H1711 H 0.47735 0.77049 0.27762 0.0
H1712 H 0.51589 0.7688 0.4441 0.0
H1713 H 0.50303 0.77508 0.38606 0.0
H1714 H 0.51448 0.75588 0.25606 0.0
C1715 C 0.48437 0.76249 0.15041 0.0
C1716 C 0.48548 0.76765 0.27247 0.0
C1717 C 0.4772 0.76478 0.11598 0.0
C1718 C 0.51562 0.7595 0.41534 0.0
C1719 C 0.50833 0.76316 0.38199 0.0
C1720 C 0.50636 0.75898 0.26111 0.0
C1721 C 0.48323 0.77271 0.19045 0.0
C1722 C 0.48981 0.76828 0.2296 0.0
C1723 C 0.50847 0.75254 0.34229 0.0
C1724 C 0.502 0.75817 0.30381 0.0
H1725 H 0.46161 0.79811 0.16466 0.0
H1726 H 0.4743 0.7948 0.22366 0.0
H1727 H 0.50397 0.76459 0.19214 0.0
H1728 H 0.52831 0.7223 0.36589 0.0
H1729 H 0.51553 0.72842 0.30852 0.0
C1730 C 0.51733 0.51708 0.86717 0.0
C1731 C 0.52599 0.50508 0.87096 0.0
C1732 C 0.50973 0.51699 0.90035 0.0
C1733 C 0.5071 0.50528 0.01918 0.0
H1734 H 0.47772 0.50976 0.99727 0.0
C1735 C 0.47572 0.49748 0.15635 0.0
C1736 C 0.4671 0.50957 0.15242 0.0
C1737 C 0.48329 0.49734 0.12305 0.0
C1738 C 0.48592 0.50872 1.00395 0.0
H1739 H 0.53311 0.48249 0.9101 0.0
H1740 H 0.51985 0.48207 0.9669 0.0
H1741 H 0.48963 0.50813 0.93477 0.0
H1742 H 0.46001 0.53204 0.11285 0.0
H1743 H 0.47322 0.53209 0.05587 0.0
H1744 H 0.50339 0.5059 0.08836 0.0
C1745 C 0.51903 0.49198 0.93943 0.0
C1746 C 0.49273 0.50778 0.96811 0.0
C1747 C 0.52658 0.49214 0.90666 0.0
C1748 C 0.46651 0.52234 0.11641 0.0
C1749 C 0.47403 0.52227 0.08353 0.0
C1750 C 0.50029 0.50623 0.05503 0.0
C1751 C 0.5107 0.50483 0.93751 0.0
C1752 C 0.50339 0.50601 0.97532 0.0
C1753 C 0.48233 0.50936 0.08564 0.0
C1754 C 0.48963 0.50803 0.04782 0.0
H1755 H 0.51673 0.52724 0.8401 0.0
H1756 H 0.50338 0.52706 0.89797 0.0
H1757 H 0.51531 0.50425 0.02586 0.0
H1758 H 0.47632 0.48745 0.18368 0.0
H1759 H 0.48962 0.48723 0.12558 0.0
C1760 C 0.41197 0.24986 0.41808 0.0
C1761 C 0.41226 0.25179 0.46438 0.0
C1762 C 0.40261 0.24625 0.39651 0.0
C1763 C 0.37533 0.23132 0.41708 0.0
H1764 H 0.37008 0.26025 0.30962 0.0
C1765 C 0.33462 0.24701 0.34465 0.0
C1766 C 0.33361 0.24496 0.29853 0.0
C1767 C 0.34431 0.24508 0.36475 0.0
C1768 C 0.37148 0.25193 0.33937 0.0
H1769 H 0.40297 0.25117 0.52441 0.0
H1770 H 0.38675 0.24552 0.48694 0.0
H1771 H 0.38708 0.26172 0.34385 0.0
H1772 H 0.34191 0.23836 0.23767 0.0
H1773 H 0.35867 0.2352 0.27274 0.0
H1774 H 0.35952 0.2222 0.4132 0.0
C1775 C 0.39373 0.24627 0.46718 0.0
C1776 C 0.38123 0.25266 0.35885 0.0
C1777 C 0.40306 0.24968 0.48868 0.0
C1778 C 0.34239 0.24024 0.27324 0.0
C1779 C 0.35202 0.23846 0.29321 0.0
C1780 C 0.36552 0.23077 0.39782 0.0
C1781 C 0.39336 0.24468 0.42084 0.0
C1782 C 0.38325 0.24252 0.39817 0.0
C1783 C 0.35311 0.24121 0.33895 0.0
C1784 C 0.36351 0.24117 0.35896 0.0
H1785 H 0.41894 0.25126 0.39847 0.0
H1786 H 0.40261 0.24482 0.36078 0.0
H1787 H 0.37668 0.22307 0.44697 0.0
H1788 H 0.32801 0.25058 0.36506 0.0
H1789 H 0.34499 0.24732 0.40015 0.0
C1790 C 0.84133 0.01406 0.49429 0.0
C1791 C 0.83207 0.01224 0.4703 0.0
C1792 C 0.85073 0.01605 0.47232 0.0
C1793 C 0.86278 1.00534 0.36498 0.0
H1794 H 0.88544 0.03559 0.41223 0.0
C1795 C 0.90083 0.01431 0.27126 0.0
C1796 C 0.90992 0.01056 0.29527 0.0
C1797 C 0.89142 0.01632 0.29297 0.0
C1798 C 0.87918 0.02701 0.39893 0.0
H1799 H 0.82536 0.01202 0.40442 0.0
H1800 H 0.8418 0.01595 0.36595 0.0
H1801 H 0.8685 0.03687 0.44801 0.0
H1802 H 0.91632 1.00663 0.36113 0.0
H1803 H 0.89971 0.01024 0.39932 0.0
H1804 H 0.87343 0.9956 0.31579 0.0
C1805 C 0.8418 0.01536 0.40182 0.0
C1806 C 0.86949 0.02773 0.41931 0.0
C1807 C 0.83237 0.0132 0.42384 0.0
C1808 C 0.90944 0.00945 0.34173 0.0
C1809 C 0.89997 0.0116 0.36357 0.0
C1810 C 0.87241 1.00478 0.34444 0.0
C1811 C 0.8511 0.01644 0.42584 0.0
C1812 C 0.8612 0.01679 0.4027 0.0
C1813 C 0.89087 0.01472 0.3392 0.0
C1814 C 0.8807 0.01553 0.36132 0.0
H1815 H 0.84139 0.01334 0.53015 0.0
H1816 H 0.85775 0.01656 0.49185 0.0
H1817 H 0.85664 0.99641 0.3519 0.0
H1818 H 0.90091 0.0154 0.23546 0.0
H1819 H 0.88453 0.019 0.2735 0.0
C1820 C 0.41061 0.00916 0.84171 0.0
C1821 C 0.41118 0.01179 0.7956 0.0
C1822 C 0.40103 0.00922 0.86315 0.0
C1823 C 0.37354 0.02291 0.84889 0.0
H1824 H 0.36884 0.98274 0.93569 0.0
C1825 C 0.33297 1.00379 0.91703 0.0
C1826 C 0.33236 1.0011 0.96314 0.0
C1827 C 0.34259 1.00564 0.89629 0.0
C1828 C 0.37007 0.99413 0.91178 0.0
H1829 H 0.40215 0.0172 0.73611 0.0
H1830 H 0.38557 0.01699 0.77334 0.0
H1831 H 0.38581 0.98599 0.9016 0.0
H1832 H 0.34142 0.99815 0.0235 0.0
H1833 H 0.35804 1.00141 0.98738 0.0
H1834 H 0.35772 0.03086 0.85883 0.0
C1835 C 0.39249 0.0151 0.79306 0.0
C1836 C 0.37979 0.99606 0.89242 0.0
C1837 C 0.40203 0.01509 0.77168 0.0
C1838 C 0.34155 1.00019 0.98792 0.0
C1839 C 0.35112 1.00195 0.96723 0.0
C1840 C 0.36379 0.02093 0.86816 0.0
C1841 C 0.39186 0.01189 0.8389 0.0
C1842 C 0.38164 0.01045 0.86076 0.0
C1843 C 0.35174 1.00469 0.92127 0.0
C1844 C 0.36197 1.00654 0.89983 0.0
H1845 H 0.41751 1.00667 0.86119 0.0
H1846 H 0.40081 0.00699 0.89867 0.0
H1847 H 0.37476 0.03428 0.82494 0.0
H1848 H 0.32604 1.00456 0.89698 0.0
H1849 H 0.34287 0.00759 0.8607 0.0
C1850 C 0.83212 0.25164 0.83573 0.0
C1851 C 0.83183 0.25204 0.78921 0.0
C1852 C 0.84153 0.24944 0.85792 0.0
C1853 C 0.869 0.23545 0.84132 0.0
H1854 H 0.87352 0.26865 0.94259 0.0
C1855 C 0.90931 0.25241 0.91667 0.0
C1856 C 0.90986 0.25232 0.96321 0.0
C1857 C 0.89977 0.25037 0.89535 0.0
C1858 C 0.87233 0.25915 0.91461 0.0
H1859 H 0.84117 0.24997 0.7295 0.0
H1860 H 0.85748 0.24663 0.76806 0.0
H1861 H 0.8567 0.26831 0.90664 0.0
H1862 H 0.90084 0.24924 0.02369 0.0
H1863 H 0.88437 0.2458 0.98652 0.0
H1864 H 0.8848 0.22675 0.84889 0.0
C1865 C 0.85046 0.24763 0.78751 0.0
C1866 C 0.86269 0.25887 0.89416 0.0
C1867 C 0.84109 0.2497 0.76539 0.0
C1868 C 0.90074 0.2496 0.98781 0.0
C1869 C 0.89126 0.24767 0.96659 0.0
C1870 C 0.8787 0.23585 0.86164 0.0
C1871 C 0.85082 0.24772 0.834 0.0
C1872 C 0.86091 0.24707 0.85719 0.0
C1873 C 0.89065 0.24833 0.92025 0.0
C1874 C 0.88044 0.24772 0.89844 0.0
H1875 H 0.82512 0.25325 0.85505 0.0
H1876 H 0.84153 0.24925 0.89381 0.0
H1877 H 0.86785 0.22602 0.81323 0.0
H1878 H 0.91619 0.25443 0.89673 0.0
H1879 H 0.89948 0.251 0.8595 0.0
C1880 C 0.58296 0.75467 0.59545 0.0
C1881 C 0.58204 0.75304 0.54919 0.0
C1882 C 0.59271 0.75644 0.61509 0.0
C1883 C 0.62007 0.74572 0.59538 0.0
H1884 H 0.62513 0.78363 0.6869 0.0
C1885 C 0.66076 0.75735 0.66811 0.0
C1886 C 0.66127 0.75929 0.7144 0.0
C1887 C 0.65123 0.75824 0.64633 0.0
C1888 C 0.62382 0.77287 0.66163 0.0
H1889 H 0.59065 0.752 0.48734 0.0
H1890 H 0.60753 0.75501 0.52165 0.0
H1891 H 0.60801 0.78126 0.65341 0.0
H1892 H 0.65219 0.7642 0.77394 0.0
H1893 H 0.6357 0.76533 0.73624 0.0
H1894 H 0.63577 0.73699 0.60408 0.0
C1895 C 0.60075 0.75483 0.5427 0.0
C1896 C 0.61401 0.77151 0.64254 0.0
C1897 C 0.59105 0.7532 0.52309 0.0
C1898 C 0.65211 0.76265 0.73823 0.0
C1899 C 0.64262 0.76344 0.71655 0.0
C1900 C 0.62984 0.74698 0.61465 0.0
C1901 C 0.60169 0.75643 0.58885 0.0
C1902 C 0.61205 0.7579 0.60932 0.0
C1903 C 0.64204 0.76102 0.67043 0.0
C1904 C 0.63182 0.7605 0.64815 0.0
H1905 H 0.57618 0.75463 0.61647 0.0
H1906 H 0.59323 0.75751 0.65083 0.0
H1907 H 0.61873 0.73494 0.57016 0.0
H1908 H 0.66767 0.75485 0.64873 0.0
H1909 H 0.65106 0.7566 0.61064 0.0
C1910 C 0.0894 0.00977 0.73305 0.0
C1911 C 0.08028 0.00951 0.70763 0.0
C1912 C 0.09903 0.00879 0.71276 0.0
C1913 C 0.11231 0.99336 0.61225 0.0
H1914 H 0.1335 0.02906 0.65099 0.0
C1915 C 0.15025 1.00438 0.51708 0.0
C1916 C 0.15938 0.00783 0.54109 0.0
C1917 C 0.14077 1.00324 0.53862 0.0
C1918 C 0.12773 0.01877 0.64033 0.0
H1919 H 0.07418 0.0078 0.64076 0.0
H1920 H 0.09116 1.00605 0.60512 0.0
H1921 H 0.11642 0.03013 0.68482 0.0
H1922 H 0.16573 0.01219 0.60682 0.0
H1923 H 0.14909 0.00988 0.64476 0.0
H1924 H 0.12363 0.98192 0.5679 0.0
C1925 C 0.09075 0.00695 0.64091 0.0
C1926 C 0.11794 0.01946 0.65952 0.0
C1927 C 0.08105 0.00805 0.66128 0.0
C1928 C 0.15884 0.00961 0.58739 0.0
C1929 C 0.1493 0.00839 0.60905 0.0
C1930 C 0.12213 0.99259 0.59321 0.0
C1931 C 0.09982 0.00747 0.66655 0.0
C1932 C 0.11013 0.00681 0.64556 0.0
C1933 C 0.14016 1.0054 0.58476 0.0
C1934 C 0.12993 1.00537 0.60687 0.0
H1935 H 0.08916 0.01083 0.76885 0.0
H1936 H 0.10589 0.00893 0.73335 0.0
H1937 H 0.10646 0.98327 0.60137 0.0
H1938 H 0.15036 1.00294 0.48134 0.0
H1939 H 0.13387 1.00122 0.51884 0.0
C1940 C 0.64887 1.00511 0.00915 0.0
C1941 C 0.65797 1.00621 0.03446 0.0
C1942 C 0.63929 1.00316 0.02971 0.0
C1943 C 0.62676 0.9873 0.13206 0.0
H1944 H 0.60438 0.02034 0.09323 0.0
C1945 C 0.58904 0.99597 0.23075 0.0
C1946 C 0.57974 0.99856 0.20742 0.0
C1947 C 0.59844 0.99527 0.20832 0.0
C1948 C 0.61049 0.01077 0.10395 0.0
H1949 H 0.66415 1.00592 0.10134 0.0
H1950 H 0.64733 1.00248 0.13734 0.0
H1951 H 0.62119 0.0226 0.05733 0.0
H1952 H 0.57301 1.00168 0.14192 0.0
H1953 H 0.58945 1.00007 0.10264 0.0
H1954 H 0.61606 0.9754 0.17859 0.0
C1955 C 0.64767 1.00306 0.10149 0.0
C1956 C 0.62013 0.01213 0.08352 0.0
C1957 C 0.65729 1.00514 0.08089 0.0
C1958 C 0.58003 0.9998 0.16095 0.0
C1959 C 0.58946 0.999 0.13845 0.0
C1960 C 0.61709 0.98584 0.15233 0.0
C1961 C 0.63859 1.00217 0.07604 0.0
C1962 C 0.62837 1.0005 0.09756 0.0
C1963 C 0.59878 0.99701 0.16198 0.0
C1964 C 0.60887 0.99766 0.13871 0.0
H1965 H 0.64909 1.00586 0.9733 0.0
H1966 H 0.63242 1.00229 0.0093 0.0
H1967 H 0.63295 0.97798 0.14307 0.0
H1968 H 0.58913 0.995 0.26657 0.0
H1969 H 0.60548 0.99401 0.22752 0.0
C1970 C 0.08086 0.76431 0.09993 0.0
C1971 C 0.08021 0.76554 0.05349 0.0
C1972 C 0.09044 0.76588 0.12112 0.0
C1973 C 0.1178 0.75742 0.10055 0.0
H1974 H 0.12244 0.78881 0.20471 0.0
C1975 C 0.15807 0.76319 0.18045 0.0
C1976 C 0.15836 0.76262 0.22696 0.0
C1977 C 0.14867 0.76552 0.15831 0.0
C1978 C 0.12124 0.77983 0.17587 0.0
H1979 H 0.0891 0.77 0.99313 0.0
H1980 H 0.10567 0.77257 0.03013 0.0
H1981 H 0.10548 0.78888 0.16915 0.0
H1982 H 0.14902 0.76427 0.2867 0.0
H1983 H 0.13272 0.76778 0.24824 0.0
H1984 H 0.13339 0.74786 0.10774 0.0
C1985 C 0.09881 0.77026 0.05002 0.0
C1986 C 0.11155 0.77991 0.15557 0.0
C1987 C 0.08928 0.76886 0.02892 0.0
C1988 C 0.1491 0.76474 0.25082 0.0
C1989 C 0.13973 0.7669 0.22874 0.0
C1990 C 0.12745 0.75718 0.12105 0.0
C1991 C 0.09951 0.76852 0.09619 0.0
C1992 C 0.10975 0.76867 0.11778 0.0
C1993 C 0.13937 0.76717 0.18224 0.0
C1994 C 0.12928 0.76832 0.15907 0.0
H1995 H 0.07403 0.76181 0.11984 0.0
H1996 H 0.0908 0.76441 0.15683 0.0
H1997 H 0.11656 0.74843 0.07172 0.0
H1998 H 0.16508 0.76174 0.16113 0.0
H1999 H 0.14868 0.76597 0.12243 0.0
C2000 C 0.34447 0.7496 0.76729 0.0
C2001 C 0.33511 0.75093 0.79074 0.0
C2002 C 0.35386 0.74847 0.78983 0.0
C2003 C 0.36553 0.76034 0.89753 0.0
H2004 H 0.38842 0.72978 0.85369 0.0
C2005 C 0.40331 0.75322 0.99471 0.0
C2006 C 0.41252 0.75617 0.97086 0.0
C2007 C 0.39395 0.75086 0.97266 0.0
C2008 C 0.3821 0.73846 0.86607 0.0
H2009 H 0.32824 0.7514 0.85635 0.0
H2010 H 0.34464 0.74905 0.89574 0.0
H2011 H 0.37169 0.72823 0.81633 0.0
H2012 H 0.41912 0.75827 0.90487 0.0
H2013 H 0.40265 0.75413 0.86627 0.0
H2014 H 0.37592 0.77053 0.94726 0.0
C2015 C 0.34472 0.7493 0.85985 0.0
C2016 C 0.37253 0.7376 0.84474 0.0
C2017 C 0.33532 0.75056 0.83728 0.0
C2018 C 0.41218 0.75607 0.92427 0.0
C2019 C 0.40277 0.75362 0.90215 0.0
C2020 C 0.37506 0.7611 0.91896 0.0
C2021 C 0.35411 0.74851 0.83635 0.0
C2022 C 0.36415 0.74861 0.86012 0.0
C2023 C 0.39355 0.75134 0.92624 0.0
C2024 C 0.38345 0.75022 0.9034 0.0
H2025 H 0.34461 0.7499 0.73141 0.0
H2026 H 0.36093 0.74815 0.77069 0.0
H2027 H 0.35931 0.76931 0.90969 0.0
H2028 H 0.40326 0.75301 0.0306 0.0
H2029 H 0.38699 0.7488 0.99204 0.0
C2030 C 0.90171 0.51106 0.76973 0.0
C2031 C 0.91093 0.50867 0.79378 0.0
C2032 C 0.89224 0.51224 0.7915 0.0
C2033 C 0.87965 0.49836 0.89545 0.0
H2034 H 0.85788 0.53222 0.854 0.0
C2035 C 0.8413 0.50675 0.98848 0.0
C2036 C 0.83218 0.50632 0.96314 0.0
C2037 C 0.85091 0.50799 0.96801 0.0
C2038 C 0.86387 0.52259 0.86562 0.0
H2039 H 0.91744 0.50622 0.85985 0.0
H2040 H 0.90085 0.50856 0.898 0.0
H2041 H 0.87492 0.53357 0.81938 0.0
H2042 H 0.82603 0.50711 0.89622 0.0
H2043 H 0.84294 0.50925 0.86034 0.0
H2044 H 0.8686 0.48738 0.94166 0.0
C2045 C 0.90098 0.50921 0.86213 0.0
C2046 C 0.87362 0.52337 0.84592 0.0
C2047 C 0.91048 0.50798 0.84029 0.0
C2048 C 0.8329 0.5074 0.91671 0.0
C2049 C 0.84257 0.50872 0.89618 0.0
C2050 C 0.86993 0.49764 0.91524 0.0
C2051 C 0.89176 0.51114 0.83788 0.0
C2052 C 0.88159 0.51118 0.86047 0.0
C2053 C 0.85165 0.50888 0.92171 0.0
C2054 C 0.86193 0.50969 0.90042 0.0
H2055 H 0.90172 0.51166 0.73386 0.0
H2056 H 0.88528 0.51345 0.77182 0.0
H2057 H 0.88557 0.48853 0.90684 0.0
H2058 H 0.84107 0.50604 0.02433 0.0
H2059 H 0.85778 0.50837 0.98852 0.0
C2060 C 0.34153 0.51131 0.49553 0.0
C2061 C 0.33221 0.50945 0.47197 0.0
C2062 C 0.35078 0.51468 0.47328 0.0
C2063 C 0.36277 0.50875 0.36369 0.0
H2064 H 0.38463 0.5394 0.41614 0.0
C2065 C 0.40113 0.52195 0.27423 0.0
C2066 C 0.41007 0.5176 0.29882 0.0
C2067 C 0.39157 0.52344 0.29504 0.0
C2068 C 0.37859 0.53077 0.40127 0.0
H2069 H 0.32525 0.51029 0.40661 0.0
H2070 H 0.34143 0.51661 0.36767 0.0
H2071 H 0.3677 0.53807 0.4518 0.0
H2072 H 0.41602 0.5123 0.36495 0.0
H2073 H 0.3992 0.51502 0.40145 0.0
H2074 H 0.37366 0.50153 0.31312 0.0
C2075 C 0.34158 0.51505 0.40337 0.0
C2076 C 0.36891 0.52996 0.42164 0.0
C2077 C 0.33231 0.5115 0.42567 0.0
C2078 C 0.40928 0.51558 0.34505 0.0
C2079 C 0.39968 0.51722 0.36597 0.0
C2080 C 0.3724 0.50973 0.34314 0.0
C2081 C 0.35094 0.51644 0.42693 0.0
C2082 C 0.36093 0.51872 0.40339 0.0
C2083 C 0.39072 0.52076 0.34093 0.0
C2084 C 0.38042 0.52057 0.362 0.0
H2085 H 0.34175 0.50972 0.53123 0.0
H2086 H 0.35784 0.5153 0.49243 0.0
H2087 H 0.35688 0.49967 0.34916 0.0
H2088 H 0.40144 0.52376 0.2386 0.0
H2089 H 0.38479 0.52643 0.27512 0.0
C2090 C 0.84221 0.74976 0.27236 0.0
C2091 C 0.83295 0.75106 0.29658 0.0
C2092 C 0.85164 0.74762 0.29399 0.0
C2093 C 0.86395 0.75588 0.40231 0.0
H2094 H 0.88632 0.72646 0.35009 0.0
C2095 C 0.90253 0.74514 0.49156 0.0
C2096 C 0.91143 0.74985 0.46705 0.0
C2097 C 0.89301 0.74322 0.47068 0.0
C2098 C 0.88014 0.73478 0.36484 0.0
H2099 H 0.82631 0.7505 0.36256 0.0
H2100 H 0.84282 0.74627 0.40049 0.0
H2101 H 0.86928 0.72622 0.31525 0.0
H2102 H 0.91736 0.75536 0.40096 0.0
H2103 H 0.90058 0.75182 0.36428 0.0
H2104 H 0.87481 0.76427 0.45208 0.0
C2105 C 0.84278 0.74736 0.36469 0.0
C2106 C 0.8704 0.73469 0.34495 0.0
C2107 C 0.83332 0.7497 0.34299 0.0
C2108 C 0.91065 0.7518 0.42079 0.0
C2109 C 0.90107 0.7497 0.39979 0.0
C2110 C 0.87365 0.75579 0.42241 0.0
C2111 C 0.85206 0.74652 0.34042 0.0
C2112 C 0.86221 0.74541 0.36321 0.0
C2113 C 0.89215 0.7458 0.42477 0.0
C2114 C 0.88185 0.74537 0.40368 0.0
H2115 H 0.84223 0.75087 0.23654 0.0
H2116 H 0.85862 0.74739 0.27425 0.0
H2117 H 0.8579 0.7646 0.4168 0.0
H2118 H 0.90283 0.74338 0.5272 0.0
H2119 H 0.88626 0.73993 0.49057 0.0
C2120 C 0.65868 0.25408 0.17255 0.0
C2121 C 0.65935 0.25445 0.21904 0.0
C2122 C 0.64906 0.25494 0.15167 0.0
C2123 C 0.62171 0.24455 0.17134 0.0
H2124 H 0.61709 0.2769 0.06859 0.0
C2125 C 0.58144 0.25281 0.09242 0.0
C2126 C 0.58104 0.25253 0.04589 0.0
C2127 C 0.59093 0.25413 0.11427 0.0
C2128 C 0.61829 0.26766 0.09701 0.0
H2129 H 0.65046 0.25634 0.27999 0.0
H2130 H 0.63374 0.25785 0.24347 0.0
H2131 H 0.63394 0.27706 0.10489 0.0
H2132 H 0.59029 0.25351 0.98582 0.0
H2133 H 0.60677 0.25547 0.02392 0.0
H2134 H 0.60616 0.23487 0.16317 0.0
C2135 C 0.64064 0.25672 0.22326 0.0
C2136 C 0.62793 0.26777 0.11775 0.0
C2137 C 0.65023 0.25595 0.24412 0.0
C2138 C 0.5903 0.25376 0.02171 0.0
C2139 C 0.59977 0.25501 0.04354 0.0
C2140 C 0.6121 0.24436 0.1505 0.0
C2141 C 0.63995 0.25609 0.17689 0.0
C2142 C 0.62973 0.25619 0.15505 0.0
C2143 C 0.60019 0.25515 0.09004 0.0
C2144 C 0.61029 0.25587 0.11303 0.0
H2145 H 0.66555 0.25294 0.15225 0.0
H2146 H 0.64873 0.25428 0.11583 0.0
H2147 H 0.62294 0.23527 0.19969 0.0
H2148 H 0.57445 0.25199 0.11205 0.0
H2149 H 0.591 0.25446 0.15016 0.0
C2150 C 0.0918 0.49975 0.24648 0.0
C2151 C 0.08286 0.50445 0.22223 0.0
C2152 C 0.10124 0.49729 0.22512 0.0
C2153 C 0.11368 0.48793 0.11847 0.0
H2154 H 0.13611 0.5183 0.1672 0.0
C2155 C 0.15068 0.50422 0.02048 0.0
C2156 C 0.16011 0.50589 0.04329 0.0
C2157 C 0.14147 0.50159 0.04356 0.0
C2158 C 0.13001 0.50941 0.15363 0.0
H2159 H 0.07676 0.50932 0.15618 0.0
H2160 H 0.09336 0.50492 0.11872 0.0
H2161 H 0.11945 0.51781 0.20452 0.0
H2162 H 0.16731 0.50548 0.10819 0.0
H2163 H 0.1512 0.5004 0.14861 0.0
H2164 H 0.12424 0.47946 0.06761 0.0
C2165 C 0.09298 0.50319 0.15437 0.0
C2166 C 0.12046 0.50921 0.17491 0.0
C2167 C 0.0835 0.50579 0.17583 0.0
C2168 C 0.16016 0.50438 0.0897 0.0
C2169 C 0.15092 0.50156 0.11283 0.0
C2170 C 0.12329 0.48796 0.09737 0.0
C2171 C 0.10196 0.49935 0.17902 0.0
C2172 C 0.11218 0.49865 0.15727 0.0
C2173 C 0.14146 0.50037 0.09001 0.0
C2174 C 0.13153 0.49892 0.11439 0.0
H2175 H 0.0916 0.49842 0.28224 0.0
H2176 H 0.10803 0.49407 0.24477 0.0
H2177 H 0.10744 0.47951 0.10453 0.0
H2178 H 0.15035 0.5054 0.98471 0.0
H2179 H 0.13433 0.5011 0.02493 0.0
C2180 C 0.66122 0.50436 0.59741 0.0
C2181 C 0.66158 0.50372 0.55088 0.0
C2182 C 0.65174 0.50304 0.61953 0.0
C2183 C 0.62424 0.51233 0.60243 0.0
H2184 H 0.61987 0.47815 0.70217 0.0
C2185 C 0.58389 0.50203 0.6788 0.0
C2186 C 0.5834 0.50143 0.72527 0.0
C2187 C 0.59343 0.50094 0.65719 0.0
C2188 C 0.62099 0.48792 0.67463 0.0
H2189 H 0.65229 0.50086 0.49118 0.0
H2190 H 0.6359 0.49868 0.52971 0.0
H2191 H 0.63682 0.47946 0.66662 0.0
H2192 H 0.59252 0.49893 0.78547 0.0
H2193 H 0.60905 0.49751 0.74796 0.0
H2194 H 0.60856 0.52114 0.61071 0.0
C2195 C 0.6429 0.50032 0.54904 0.0
C2196 C 0.63069 0.48865 0.65437 0.0
C2197 C 0.65232 0.50148 0.52705 0.0
C2198 C 0.5926 0.49936 0.74959 0.0
C2199 C 0.60211 0.49842 0.72806 0.0
C2200 C 0.61459 0.51173 0.62287 0.0
C2201 C 0.64249 0.50126 0.59539 0.0
C2202 C 0.63237 0.5008 0.61799 0.0
C2203 C 0.60265 0.49937 0.68165 0.0
C2204 C 0.61284 0.49949 0.65915 0.0
H2205 H 0.66822 0.50605 0.61667 0.0
H2206 H 0.6516 0.50386 0.65537 0.0
H2207 H 0.62539 0.52201 0.57474 0.0
H2208 H 0.57694 0.50348 0.65909 0.0
H2209 H 0.59357 0.5014 0.62132 0.0
C2210 C 0.15187 0.26644 0.74452 0.0
C2211 C 0.16105 0.26311 0.7208 0.0
C2212 C 0.14245 0.26779 0.72254 0.0
C2213 C 0.13038 0.27722 0.61536 0.0
H2214 H 0.10799 0.24614 0.66225 0.0
C2215 C 0.09326 0.26261 0.51704 0.0
C2216 C 0.08382 0.26162 0.53999 0.0
C2217 C 0.10254 0.26428 0.53999 0.0
C2218 C 0.1141 0.25517 0.64917 0.0
H2219 H 0.16758 0.25921 0.65518 0.0
H2220 H 0.151 0.26168 0.61657 0.0
H2221 H 0.12464 0.24645 0.69989 0.0
H2222 H 0.0767 0.26195 0.60507 0.0
H2223 H 0.09298 0.26523 0.64533 0.0
H2224 H 0.11984 0.28604 0.56476 0.0
C2225 C 0.15118 0.26323 0.65228 0.0
C2226 C 0.12363 0.25527 0.67061 0.0
C2227 C 0.16064 0.26175 0.67437 0.0
C2228 C 0.08385 0.26259 0.58647 0.0
C2229 C 0.09317 0.26439 0.6095 0.0
C2230 C 0.1208 0.27725 0.59408 0.0
C2231 C 0.14199 0.26595 0.67634 0.0
C2232 C 0.13187 0.2662 0.65374 0.0
C2233 C 0.10262 0.26512 0.58645 0.0
C2234 C 0.11258 0.26608 0.61055 0.0
H2235 H 0.15189 0.26769 0.7803 0.0
H2236 H 0.1355 0.27017 0.74176 0.0
H2237 H 0.13658 0.28595 0.60206 0.0
H2238 H 0.09353 0.2618 0.4812 0.0
H2239 H 0.10968 0.26444 0.52124 0.0
C2240 C 0.28602 0.25059 0.57255 0.0
C2241 C 0.29451 0.25217 0.54366 0.0
C2242 C 0.2875 0.24911 0.61837 0.0
C2243 C 0.30726 0.2376 0.70372 0.0
H2244 H 0.28925 0.26683 0.78116 0.0
C2245 C 0.31667 0.25115 0.88831 0.0
C2246 C 0.30852 0.25021 0.91914 0.0
C2247 C 0.31472 0.25014 0.84279 0.0
C2248 C 0.29427 0.25838 0.76006 0.0
H2249 H 0.31124 0.2534 0.54059 0.0
H2250 H 0.31382 0.25082 0.62033 0.0
H2251 H 0.28632 0.2673 0.70136 0.0
H2252 H 0.29191 0.24698 0.92578 0.0
H2253 H 0.28852 0.24545 0.84631 0.0
H2254 H 0.31529 0.22891 0.76247 0.0
C2255 C 0.30601 0.25043 0.60755 0.0
C2256 C 0.29258 0.25863 0.71426 0.0
C2257 C 0.30453 0.25191 0.56174 0.0
C2258 C 0.29837 0.24807 0.9031 0.0
C2259 C 0.29642 0.24716 0.85751 0.0
C2260 C 0.30896 0.23739 0.74951 0.0
C2261 C 0.29751 0.24916 0.63651 0.0
C2262 C 0.29909 0.24834 0.68544 0.0
C2263 C 0.30457 0.24826 0.82679 0.0
C2264 C 0.30252 0.24787 0.77823 0.0
H2265 H 0.2782 0.25044 0.55975 0.0
H2266 H 0.28078 0.24781 0.63957 0.0
H2267 H 0.31232 0.22924 0.68264 0.0
H2268 H 0.32456 0.25319 0.89923 0.0
H2269 H 0.32117 0.25133 0.82005 0.0
C2270 C 0.93986 0.98671 0.55648 0.0
C2271 C 0.94542 1.00171 0.53623 0.0
C2272 C 0.93827 0.98651 0.60243 0.0
C2273 C 0.94858 1.00669 0.70754 0.0
H2274 H 0.92237 0.98962 0.75569 0.0
C2275 C 0.93845 0.01299 0.89478 0.0
C2276 C 0.93278 0.99789 0.91405 0.0
C2277 C 0.94014 0.01358 0.84887 0.0
C2278 C 0.92979 0.99421 0.7429 0.0
H2279 H 0.9534 0.02857 0.54872 0.0
H2280 H 0.95061 0.02824 0.62861 0.0
H2281 H 0.92486 0.99051 0.6757 0.0
H2282 H 0.92481 0.97116 0.90001 0.0
H2283 H 0.92778 0.97214 0.82039 0.0
H2284 H 0.95351 0.01036 0.77481 0.0
C2285 C 0.94764 0.01642 0.60909 0.0
C2286 C 0.93121 0.99473 0.69691 0.0
C2287 C 0.94924 0.01661 0.56317 0.0
C2288 C 0.92903 0.98322 0.88629 0.0
C2289 C 0.93072 0.9838 0.84051 0.0
C2290 C 0.94715 1.00616 0.75358 0.0
C2291 C 0.94218 1.00131 0.62942 0.0
C2292 C 0.94063 1.00094 0.67854 0.0
C2293 C 0.93622 0.99906 0.82104 0.0
C2294 C 0.93775 0.99986 0.77193 0.0
H2295 H 0.93693 0.97485 0.53696 0.0
H2296 H 0.93415 0.9745 0.6169 0.0
H2297 H 0.95599 0.01128 0.6947 0.0
H2298 H 0.94137 0.02462 0.91503 0.0
H2299 H 0.94432 0.02567 0.83508 0.0
C2300 C 0.31665 0.01136 0.37463 0.0
C2301 C 0.30981 1.00269 0.34442 0.0
C2302 C 0.31475 0.01055 0.42026 0.0
C2303 C 0.29419 1.00099 0.50338 0.0
H2304 H 0.31735 0.99094 0.58153 0.0
C2305 C 0.2885 0.98253 0.68861 0.0
C2306 C 0.29524 0.99129 0.71907 0.0
C2307 C 0.29035 0.98371 0.643 0.0
C2308 C 0.31081 0.99395 0.56024 0.0
H2309 H 0.29557 0.98645 0.33875 0.0
H2310 H 0.29226 0.98504 0.41814 0.0
H2311 H 0.32027 0.99413 0.50205 0.0
H2312 H 0.30927 0.00814 0.72512 0.0
H2313 H 0.31254 0.01011 0.64572 0.0
H2314 H 0.28473 1.00073 0.5616 0.0
C2315 C 0.29902 0.99272 0.40658 0.0
C2316 C 0.31248 0.99581 0.51462 0.0
C2317 C 0.30091 0.99355 0.36096 0.0
C2318 C 0.304 1.00095 0.70274 0.0
C2319 C 0.30587 1.00212 0.65713 0.0
C2320 C 0.29251 0.9991 0.54899 0.0
C2321 C 0.30597 1.00102 0.43687 0.0
C2322 C 0.30419 0.99936 0.48557 0.0
C2323 C 0.29901 0.99368 0.62665 0.0
C2324 C 0.3008 0.99553 0.57802 0.0
H2325 H 0.3235 0.01876 0.363 0.0
H2326 H 0.32017 0.01742 0.44254 0.0
H2327 H 0.28764 1.00399 0.48212 0.0
H2328 H 0.28176 0.97472 0.70002 0.0
H2329 H 0.28502 0.97675 0.62052 0.0
C2330 C 0.93999 0.26898 0.36234 0.0
C2331 C 0.9319 0.25752 0.34587 0.0
C2332 C 0.94183 0.27027 0.40795 0.0
C2333 C 0.9289 0.2633 0.51632 0.0
H2334 H 0.95681 0.26551 0.56266 0.0
C2335 C 0.93785 0.25952 0.7042 0.0
C2336 C 0.94584 0.2712 0.72072 0.0
C2337 C 0.93606 0.25812 0.65857 0.0
C2338 C 0.94896 0.26515 0.55025 0.0
H2339 H 0.91965 0.23788 0.36464 0.0
H2340 H 0.92289 0.24004 0.44411 0.0
H2341 H 0.95407 0.26192 0.48315 0.0
H2342 H 0.958 0.29106 0.70196 0.0
H2343 H 0.95486 0.28865 0.62243 0.0
H2344 H 0.92379 0.26652 0.58341 0.0
C2345 C 0.92769 0.24835 0.42178 0.0
C2346 C 0.94739 0.26306 0.50461 0.0
C2347 C 0.92584 0.24707 0.37617 0.0
C2348 C 0.95188 0.2817 0.69041 0.0
C2349 C 0.95009 0.2803 0.64477 0.0
C2350 C 0.93047 0.26537 0.56195 0.0
C2351 C 0.93564 0.26012 0.43832 0.0
C2352 C 0.93734 0.26211 0.48702 0.0
C2353 C 0.94221 0.26836 0.62822 0.0
C2354 C 0.94053 0.26634 0.57953 0.0
H2355 H 0.94471 0.27747 0.34008 0.0
H2356 H 0.94793 0.27967 0.41945 0.0
H2357 H 0.92105 0.26296 0.50392 0.0
H2358 H 0.93316 0.25096 0.72644 0.0
H2359 H 0.93001 0.24859 0.64703 0.0
C2360 C 0.68375 0.7696 0.1211 0.0
C2361 C 0.68705 0.75376 0.09592 0.0
C2362 C 0.68575 0.77045 0.16674 0.0
C2363 C 0.69182 0.73856 0.26171 0.0
H2364 H 0.69881 0.78597 0.32204 0.0
C2365 C 0.70505 0.73911 0.44387 0.0
C2366 C 0.70108 0.75351 0.47177 0.0
C2367 C 0.70348 0.7399 0.39807 0.0
C2368 C 0.69676 0.77265 0.30573 0.0
H2369 H 0.69551 0.72692 0.09846 0.0
H2370 H 0.69909 0.72848 0.17757 0.0
H2371 H 0.69602 0.78614 0.2419 0.0
H2372 H 0.6925 0.78026 0.47297 0.0
H2373 H 0.68965 0.7815 0.39291 0.0
H2374 H 0.69257 0.72504 0.32529 0.0
C2375 C 0.69472 0.74002 0.1625 0.0
C2376 C 0.69516 0.77274 0.25978 0.0
C2377 C 0.69269 0.73914 0.11707 0.0
C2378 C 0.69559 0.76884 0.45253 0.0
C2379 C 0.69404 0.76966 0.40659 0.0
C2380 C 0.69344 0.73846 0.30749 0.0
C2381 C 0.69112 0.7555 0.18815 0.0
C2382 C 0.69273 0.75566 0.23713 0.0
C2383 C 0.6979 0.7551 0.37883 0.0
C2384 C 0.69599 0.75546 0.3301 0.0
H2385 H 0.67933 0.78103 0.10584 0.0
H2386 H 0.68279 0.78252 0.18545 0.0
H2387 H 0.68972 0.72521 0.24565 0.0
H2388 H 0.7092 0.72697 0.45748 0.0
H2389 H 0.70668 0.72856 0.37768 0.0
C2390 C 0.05088 0.99744 0.10858 0.0
C2391 C 0.0591 0.00784 0.08974 0.0
C2392 C 0.04889 0.99846 0.15414 0.0
C2393 C 0.06094 0.01173 0.26138 0.0
H2394 H 0.0326 0.01616 0.30163 0.0
C2395 C 0.05069 0.02969 0.44341 0.0
C2396 C 0.04237 0.01967 0.4625 0.0
C2397 C 0.0527 0.02831 0.39792 0.0
C2398 C 0.04055 0.01472 0.29102 0.0
H2399 H 0.07157 0.02773 0.10427 0.0
H2400 H 0.06814 0.0294 0.18341 0.0
H2401 H 0.03621 0.01304 0.22265 0.0
H2402 H 0.02974 1.00006 0.44859 0.0
H2403 H 0.03322 0.9977 0.36954 0.0
H2404 H 0.06529 0.01342 0.32972 0.0
C2405 C 0.06333 0.02018 0.16315 0.0
C2406 C 0.04262 0.01291 0.2457 0.0
C2407 C 0.06531 0.01918 0.11768 0.0
C2408 C 0.03609 0.0083 0.43492 0.0
C2409 C 0.0381 0.00691 0.38952 0.0
C2410 C 0.05888 0.01353 0.30669 0.0
C2411 C 0.05507 0.00991 0.18196 0.0
C2412 C 0.05285 0.01142 0.23029 0.0
C2413 C 0.04644 0.01685 0.37042 0.0
C2414 C 0.04865 0.01508 0.32211 0.0
H2415 H 0.04601 0.9884 0.08816 0.0
H2416 H 0.04254 0.99016 0.16763 0.0
H2417 H 0.0689 0.01033 0.25074 0.0
H2418 H 0.05561 0.03874 0.46356 0.0
H2419 H 0.0591 0.03638 0.38422 0.0
C2420 C 0.68916 0.99548 0.63631 0.0
C2421 C 0.68085 1.00614 0.65355 0.0
C2422 C 0.69112 0.99516 0.59061 0.0
C2423 C 0.6786 1.00475 0.48186 0.0
H2424 H 0.70676 1.00667 0.43828 0.0
C2425 C 0.68811 0.01763 0.2968 0.0
C2426 C 0.69626 0.00703 0.27803 0.0
C2427 C 0.68627 0.01713 0.34252 0.0
C2428 C 0.69885 1.0059 0.44987 0.0
H2429 H 0.66827 0.02528 0.63604 0.0
H2430 H 0.67168 0.02477 0.55678 0.0
H2431 H 0.70354 1.00643 0.51795 0.0
H2432 H 0.70876 0.98729 0.29298 0.0
H2433 H 0.70557 0.98647 0.3726 0.0
H2434 H 0.6739 1.00432 0.41383 0.0
C2435 C 0.67656 0.01629 0.57836 0.0
C2436 C 0.697 1.00575 0.49562 0.0
C2437 C 0.6746 0.01657 0.62394 0.0
C2438 C 0.70251 0.99589 0.30627 0.0
C2439 C 0.70068 0.99541 0.352 0.0
C2440 C 0.68045 1.00493 0.43616 0.0
C2441 C 0.68483 1.00554 0.561 0.0
C2442 C 0.68684 1.00526 0.51225 0.0
C2443 C 0.69254 1.00603 0.37075 0.0
C2444 C 0.69059 1.00558 0.41952 0.0
H2445 H 0.69408 0.98713 0.65808 0.0
H2446 H 0.69748 0.98654 0.57844 0.0
H2447 H 0.67068 1.004 0.49337 0.0
H2448 H 0.68324 0.02661 0.27625 0.0
H2449 H 0.68003 0.02573 0.35584 0.0
C2450 C 0.0531 0.751 0.31163 0.0
C2451 C 0.04527 0.73935 0.29364 0.0
C2452 C 0.05509 0.75094 0.35721 0.0
C2453 C 0.04294 0.73906 0.46503 0.0
H2454 H 0.07099 0.74317 0.5091 0.0
C2455 C 0.05284 0.73389 0.6522 0.0
C2456 C 0.06026 0.74685 0.66859 0.0
C2457 C 0.05107 0.73222 0.60656 0.0
C2458 C 0.0631 0.7422 0.49736 0.0
H2459 H 0.03361 0.71805 0.30961 0.0
H2460 H 0.03713 0.71787 0.38905 0.0
H2461 H 0.06792 0.74135 0.42952 0.0
H2462 H 0.07148 0.7685 0.64946 0.0
H2463 H 0.06844 0.7655 0.57016 0.0
H2464 H 0.03813 0.73997 0.53294 0.0
C2465 C 0.04161 0.72733 0.36798 0.0
C2466 C 0.06134 0.74116 0.45167 0.0
C2467 C 0.0396 0.72741 0.32238 0.0
C2468 C 0.06585 0.75809 0.63811 0.0
C2469 C 0.0641 0.75638 0.59253 0.0
C2470 C 0.04471 0.74007 0.51075 0.0
C2471 C 0.04933 0.73921 0.38607 0.0
C2472 C 0.05123 0.73969 0.43485 0.0
C2473 C 0.05669 0.74343 0.57613 0.0
C2474 C 0.05481 0.74178 0.52751 0.0
H2475 H 0.0575 0.76063 0.29066 0.0
H2476 H 0.06099 0.7605 0.36996 0.0
H2477 H 0.03505 0.73824 0.45332 0.0
H2478 H 0.04848 0.72482 0.6746 0.0
H2479 H 0.0454 0.72192 0.59508 0.0
C2480 C 0.30067 0.73927 0.05339 0.0
C2481 C 0.2951 0.7544 0.03376 0.0
C2482 C 0.30222 0.73873 0.09935 0.0
C2483 C 0.30273 0.77044 0.19748 0.0
H2484 H 0.30021 0.72312 0.2645 0.0
C2485 C 0.3035 0.77083 0.3879 0.0
C2486 C 0.30912 0.75631 0.40948 0.0
C2487 C 0.30148 0.76971 0.34249 0.0
C2488 C 0.30105 0.73642 0.24622 0.0
H2489 H 0.28684 0.78088 0.0473 0.0
H2490 H 0.28939 0.77976 0.12715 0.0
H2491 H 0.29742 0.72282 0.18437 0.0
H2492 H 0.31683 0.72897 0.40038 0.0
H2493 H 0.31339 0.72706 0.32081 0.0
H2494 H 0.30644 0.78406 0.2589 0.0
C2495 C 0.29263 0.76837 0.10706 0.0
C2496 C 0.29945 0.73624 0.20028 0.0
C2497 C 0.29106 0.76888 0.06125 0.0
C2498 C 0.31241 0.74032 0.38477 0.0
C2499 C 0.31043 0.73924 0.33916 0.0
C2500 C 0.30435 0.7706 0.24326 0.0
C2501 C 0.29829 0.75337 0.1267 0.0
C2502 C 0.3002 0.75329 0.17541 0.0
C2503 C 0.30507 0.75408 0.31731 0.0
C2504 C 0.30346 0.75364 0.26835 0.0
H2505 H 0.30382 0.72781 0.03325 0.0
H2506 H 0.30667 0.72703 0.11336 0.0
H2507 H 0.30358 0.78376 0.17927 0.0
H2508 H 0.30069 0.78316 0.40616 0.0
H2509 H 0.29711 0.78118 0.32708 0.0
C2510 C 0.94063 0.48939 0.39318 0.0
C2511 C 0.93297 0.50181 0.40974 0.0
C2512 C 0.94255 0.48821 0.3476 0.0
C2513 C 0.93859 0.51429 0.24155 0.0
H2514 H 0.94334 0.46427 0.18887 0.0
C2515 C 0.93944 0.50336 0.05182 0.0
C2516 C 0.94719 0.49133 0.03456 0.0
C2517 C 0.93767 0.50432 0.09751 0.0
C2518 C 0.94213 0.47837 0.2031 0.0
H2519 H 0.92154 0.52312 0.39113 0.0
H2520 H 0.92475 0.5208 0.31177 0.0
H2521 H 0.94056 0.46688 0.26861 0.0
H2522 H 0.95896 0.47048 0.05198 0.0
H2523 H 0.95594 0.47232 0.13171 0.0
H2524 H 0.94012 0.52578 0.17605 0.0
C2525 C 0.92934 0.51206 0.33402 0.0
C2526 C 0.94055 0.47988 0.24887 0.0
C2527 C 0.92741 0.51323 0.37956 0.0
C2528 C 0.95299 0.48003 0.06414 0.0
C2529 C 0.95119 0.48095 0.10985 0.0
C2530 C 0.94015 0.51278 0.1958 0.0
C2531 C 0.93689 0.49944 0.31738 0.0
C2532 C 0.93874 0.49786 0.26871 0.0
C2533 C 0.94358 0.49326 0.12717 0.0
C2534 C 0.94192 0.4948 0.17595 0.0
H2535 H 0.945 0.48024 0.41536 0.0
H2536 H 0.94851 0.47851 0.33606 0.0
H2537 H 0.93739 0.52841 0.25572 0.0
H2538 H 0.9349 0.51243 0.03011 0.0
H2539 H 0.93165 0.51377 0.10962 0.0
C2540 C 0.31427 0.51231 0.88099 0.0
C2541 C 0.30873 0.4998 0.85314 0.0
C2542 C 0.3122 0.51304 0.92648 0.0
C2543 C 0.29253 0.49993 0.01126 0.0
H2544 H 0.31571 0.50373 0.09216 0.0
C2545 C 0.2885 0.48667 0.19997 0.0
C2546 C 0.29408 0.49867 0.22891 0.0
C2547 C 0.29004 0.48764 0.15411 0.0
C2548 C 0.30914 0.50291 0.07007 0.0
H2549 H 0.29662 0.47828 0.85155 0.0
H2550 H 0.29303 0.47948 0.93083 0.0
H2551 H 0.31878 0.50391 0.01251 0.0
H2552 H 0.30553 0.52141 0.23175 0.0
H2553 H 0.30825 0.52299 0.15181 0.0
H2554 H 0.2829 0.49871 0.06898 0.0
C2555 C 0.29888 0.48896 0.91742 0.0
C2556 C 0.31089 0.50302 0.02429 0.0
C2557 C 0.30094 0.48827 0.87188 0.0
C2558 C 0.3012 0.51174 0.21063 0.0
C2559 C 0.30277 0.51266 0.16474 0.0
C2560 C 0.29077 0.49977 0.05707 0.0
C2561 C 0.30454 0.50125 0.94542 0.0
C2562 C 0.30262 0.50149 0.99423 0.0
C2563 C 0.29723 0.50057 0.13589 0.0
C2564 C 0.29906 0.5012 0.08707 0.0
H2565 H 0.3202 0.52163 0.86758 0.0
H2566 H 0.31657 0.52295 0.94679 0.0
H2567 H 0.28595 0.49903 0.98919 0.0
H2568 H 0.28309 0.47617 0.21278 0.0
H2569 H 0.28576 0.4779 0.13299 0.0
C2570 C 0.94298 0.7707 0.86689 0.0
C2571 C 0.93613 0.75736 0.8479 0.0
C2572 C 0.9451 0.77029 0.91239 0.0
C2573 C 0.93424 0.75292 0.01879 0.0
H2574 H 0.96169 0.76373 0.06375 0.0
C2575 C 0.94435 0.74593 0.20499 0.0
C2576 C 0.95053 0.7605 0.22352 0.0
C2577 C 0.94289 0.7448 0.15908 0.0
C2578 C 0.95395 0.76085 0.05176 0.0
H2579 H 0.92644 0.73265 0.86181 0.0
H2580 H 0.93016 0.73188 0.94096 0.0
H2581 H 0.9587 0.76302 0.98392 0.0
H2582 H 0.95992 0.78543 0.20788 0.0
H2583 H 0.95742 0.78338 0.12804 0.0
H2584 H 0.92948 0.75081 0.08658 0.0
C2585 C 0.93374 0.74293 0.92087 0.0
C2586 C 0.95224 0.76045 0.00595 0.0
C2587 C 0.93161 0.74336 0.87542 0.0
C2588 C 0.95527 0.7738 0.19484 0.0
C2589 C 0.95383 0.77264 0.14897 0.0
C2590 C 0.93595 0.75328 0.06456 0.0
C2591 C 0.94043 0.75651 0.94007 0.0
C2592 C 0.94235 0.75654 0.98884 0.0
C2593 C 0.94758 0.75819 0.13048 0.0
C2594 C 0.94583 0.75732 0.08166 0.0
H2595 H 0.9465 0.78183 0.84682 0.0
H2596 H 0.95019 0.78112 0.92605 0.0
H2597 H 0.92648 0.75018 0.0069 0.0
H2598 H 0.9407 0.73526 0.22594 0.0
H2599 H 0.93815 0.73331 0.14594 0.0
C2600 C 0.6761 0.24406 0.62952 0.0
C2601 C 0.68216 0.25487 0.59988 0.0
C2602 C 0.67803 0.24452 0.67511 0.0
C2603 C 0.69823 0.25653 0.75792 0.0
H2604 H 0.6751 0.2564 0.83963 0.0
C2605 C 0.70348 0.26716 0.94716 0.0
C2606 C 0.69748 0.2556 0.97552 0.0
C2607 C 0.70165 0.2674 0.90143 0.0
C2608 C 0.68165 0.25623 0.81732 0.0
H2609 H 0.69503 0.27473 0.59533 0.0
H2610 H 0.69838 0.27563 0.67499 0.0
H2611 H 0.67189 0.25639 0.76007 0.0
H2612 H 0.68488 0.23505 0.9775 0.0
H2613 H 0.68166 0.23554 0.89789 0.0
H2614 H 0.70798 0.25641 0.8153 0.0
C2615 C 0.69219 0.26657 0.66283 0.0
C2616 C 0.67982 0.25623 0.7716 0.0
C2617 C 0.69027 0.26608 0.61711 0.0
C2618 C 0.68956 0.24436 0.95686 0.0
C2619 C 0.68771 0.24463 0.91113 0.0
C2620 C 0.70007 0.25658 0.80368 0.0
C2621 C 0.68608 0.25582 0.69246 0.0
C2622 C 0.68808 0.25628 0.74123 0.0
C2623 C 0.69374 0.25614 0.88278 0.0
C2624 C 0.6918 0.25635 0.834 0.0
H2625 H 0.66994 0.23493 0.61742 0.0
H2626 H 0.6733 0.23574 0.6967 0.0
H2627 H 0.70479 0.2563 0.73562 0.0
H2628 H 0.70953 0.27626 0.96035 0.0
H2629 H 0.70634 0.27667 0.88074 0.0
C2630 C 0.05002 0.50109 0.96 0.0
C2631 C 0.04389 0.51571 0.97853 0.0
C2632 C 0.05148 0.49994 0.91408 0.0
C2633 C 0.04048 0.51607 0.80675 0.0
H2634 H 0.06798 0.50557 0.76201 0.0
C2635 C 0.05151 0.5265 0.62218 0.0
C2636 C 0.05842 0.5133 0.603 0.0
C2637 C 0.04938 0.52591 0.66766 0.0
C2638 C 0.06022 0.50825 0.77386 0.0
H2639 H 0.03456 0.54071 0.96287 0.0
H2640 H 0.03703 0.53861 0.88304 0.0
H2641 H 0.06494 0.50601 0.84168 0.0
H2642 H 0.06818 0.48867 0.61652 0.0
H2643 H 0.06442 0.48758 0.69563 0.0
H2644 H 0.03577 0.51837 0.73891 0.0
C2645 C 0.0406 0.52785 0.90397 0.0
C2646 C 0.05847 0.50851 0.81962 0.0
C2647 C 0.03917 0.52903 0.94984 0.0
C2648 C 0.06297 0.49927 0.6303 0.0
C2649 C 0.06082 0.49866 0.67573 0.0
C2650 C 0.04222 0.51577 0.76096 0.0
C2651 C 0.04682 0.51336 0.88549 0.0
C2652 C 0.04859 0.51251 0.83668 0.0
C2653 C 0.05407 0.51209 0.69512 0.0
C2654 C 0.05213 0.51194 0.74388 0.0
H2655 H 0.05365 0.49041 0.98095 0.0
H2656 H 0.05619 0.48842 0.90095 0.0
H2657 H 0.03274 0.51892 0.81871 0.0
H2658 H 0.04798 0.53765 0.60229 0.0
H2659 H 0.04425 0.53665 0.68147 0.0
C2660 C 0.69481 0.50656 0.15126 0.0
C2661 C 0.68484 0.50958 0.16857 0.0
C2662 C 0.69651 0.50644 0.10539 0.0
C2663 C 0.6831 0.49973 0.99833 0.0
H2664 H 0.70664 0.52687 0.94934 0.0
C2665 C 0.68791 0.51145 0.8095 0.0
C2666 C 0.69793 0.51026 0.79158 0.0
C2667 C 0.68637 0.51126 0.85544 0.0
C2668 C 0.7001 0.51899 0.96242 0.0
H2669 H 0.66888 0.51523 0.15065 0.0
H2670 H 0.67182 0.51471 0.07101 0.0
H2671 H 0.70397 0.52638 0.02933 0.0
H2672 H 0.71419 0.5082 0.80849 0.0
H2673 H 0.71148 0.50725 0.88821 0.0
H2674 H 0.67926 0.49216 0.93162 0.0
C2675 C 0.67831 0.5122 0.09293 0.0
C2676 C 0.69857 0.51874 0.00835 0.0
C2677 C 0.67662 0.51244 0.13871 0.0
C2678 C 0.70635 0.50888 0.82092 0.0
C2679 C 0.70481 0.50861 0.86681 0.0
C2680 C 0.68466 0.49988 0.95243 0.0
C2681 C 0.68827 0.50923 0.07568 0.0
C2682 C 0.69003 0.50917 0.02686 0.0
C2683 C 0.6948 0.50981 0.88476 0.0
C2684 C 0.69316 0.50956 0.93379 0.0
H2685 H 0.70131 0.50404 0.1731 0.0
H2686 H 0.70426 0.50389 0.09318 0.0
H2687 H 0.67652 0.49199 0.01155 0.0
H2688 H 0.68123 0.51233 0.78804 0.0
H2689 H 0.67855 0.51246 0.86795 0.0
C2690 C 0.03986 0.24854 0.80934 0.0
C2691 C 0.0476 0.25483 0.7799 0.0
C2692 C 0.04152 0.24855 0.85521 0.0
C2693 C 0.06229 0.24977 0.94032 0.0
H2694 H 0.03998 0.26483 0.01871 0.0
C2695 C 0.06876 0.26115 0.12829 0.0
C2696 C 0.06114 0.25425 0.15758 0.0
C2697 C 0.06702 0.26159 0.08249 0.0
C2698 C 0.04627 0.26038 0.99738 0.0
H2699 H 0.06319 0.26613 0.77622 0.0
H2700 H 0.06609 0.26614 0.85614 0.0
H2701 H 0.03723 0.26475 0.93876 0.0
H2702 H 0.04563 0.24251 0.16106 0.0
H2703 H 0.04258 0.24337 0.08127 0.0
H2704 H 0.07133 0.24542 0.99894 0.0
C2705 C 0.05876 0.26096 0.84367 0.0
C2706 C 0.04469 0.26032 0.95141 0.0
C2707 C 0.0571 0.26095 0.79772 0.0
C2708 C 0.05164 0.24815 0.13971 0.0
C2709 C 0.04989 0.24862 0.09384 0.0
C2710 C 0.06387 0.24985 0.98627 0.0
C2711 C 0.05097 0.25483 0.8731 0.0
C2712 C 0.05268 0.255 0.92219 0.0
C2713 C 0.05759 0.25518 0.06454 0.0
C2714 C 0.05588 0.25516 0.01548 0.0
H2715 H 0.03252 0.24338 0.79692 0.0
H2716 H 0.03541 0.24337 0.87664 0.0
H2717 H 0.06858 0.24527 0.91904 0.0
H2718 H 0.07609 0.26634 0.14076 0.0
H2719 H 0.07306 0.26711 0.06114 0.0
C2720 C 0.78427 0.2571 0.06041 0.0
C2721 C 0.79272 0.25875 0.0313 0.0
C2722 C 0.7858 0.25605 0.10628 0.0
C2723 C 0.80575 0.24575 0.19158 0.0
H2724 H 0.78767 0.27504 0.26861 0.0
C2725 C 0.81554 0.25983 0.37526 0.0
C2726 C 0.8075 0.25879 0.40657 0.0
C2727 C 0.81345 0.25899 0.32986 0.0
C2728 C 0.79271 0.26658 0.24764 0.0
H2729 H 0.80944 0.26064 0.02797 0.0
H2730 H 0.8121 0.25877 0.10774 0.0
H2731 H 0.78458 0.27486 0.18885 0.0
H2732 H 0.7909 0.25589 0.41423 0.0
H2733 H 0.78724 0.25457 0.33488 0.0
H2734 H 0.81394 0.23763 0.25032 0.0
C2735 C 0.80428 0.25799 0.0951 0.0
C2736 C 0.79093 0.26646 0.20187 0.0
C2737 C 0.80275 0.25905 0.04926 0.0
C2738 C 0.79728 0.25698 0.39114 0.0
C2739 C 0.79518 0.2562 0.34562 0.0
C2740 C 0.80753 0.24589 0.23731 0.0
C2741 C 0.79583 0.25662 0.12426 0.0
C2742 C 0.79748 0.25616 0.17319 0.0
C2743 C 0.80325 0.25715 0.31441 0.0
C2744 C 0.80108 0.25642 0.26591 0.0
H2745 H 0.77645 0.25653 0.04774 0.0
H2746 H 0.77912 0.25468 0.12766 0.0
H2747 H 0.81083 0.23738 0.17064 0.0
H2748 H 0.82348 0.26165 0.38576 0.0
H2749 H 0.81983 0.26014 0.30679 0.0
C2750 C 0.43969 0.98392 0.3943 0.0
C2751 C 0.43186 0.99604 0.41057 0.0
C2752 C 0.4415 0.98235 0.34867 0.0
C2753 C 0.4291 0.99066 0.23954 0.0
H2754 H 0.4572 0.98974 0.19506 0.0
C2755 C 0.43867 1.00027 0.05364 0.0
C2756 C 0.44684 0.98949 0.03559 0.0
C2757 C 0.43671 1.00004 0.09924 0.0
C2758 C 0.4493 0.9897 0.2069 0.0
H2759 H 0.41997 0.01636 0.39127 0.0
H2760 H 0.42309 0.01355 0.31199 0.0
H2761 H 0.45413 0.99133 0.27471 0.0
H2762 H 0.45916 0.96953 0.05147 0.0
H2763 H 0.45571 0.96903 0.13098 0.0
H2764 H 0.42427 0.9891 0.17179 0.0
C2765 C 0.42772 1.00499 0.33445 0.0
C2766 C 0.44754 0.99063 0.25264 0.0
C2767 C 0.42592 1.00659 0.38 0.0
C2768 C 0.45289 0.97821 0.06429 0.0
C2769 C 0.45093 0.97796 0.10992 0.0
C2770 C 0.43086 0.9897 0.19383 0.0
C2771 C 0.43552 0.99284 0.31815 0.0
C2772 C 0.43742 0.99125 0.26953 0.0
C2773 C 0.44286 0.98899 0.12806 0.0
C2774 C 0.44099 0.98933 0.17686 0.0
H2775 H 0.44433 0.9754 0.41678 0.0
H2776 H 0.44749 0.97268 0.33726 0.0
H2777 H 0.4212 0.99078 0.2514 0.0
H2778 H 0.43396 0.00939 0.0327 0.0
H2779 H 0.43054 0.00895 0.11204 0.0
C2780 C 0.81258 0.01739 0.8776 0.0
C2781 C 0.80768 1.00372 0.85048 0.0
C2782 C 0.81048 0.01823 0.92304 0.0
C2783 C 0.79151 1.00291 0.00855 0.0
H2784 H 0.81448 0.01074 0.08903 0.0
C2785 C 0.78807 0.99056 0.19764 0.0
C2786 C 0.79316 1.0035 0.22608 0.0
C2787 C 0.78956 0.99143 0.15176 0.0
C2788 C 0.80795 0.00879 0.06704 0.0
H2789 H 0.79665 0.98026 0.85012 0.0
H2790 H 0.793 0.98168 0.92934 0.0
H2791 H 0.81752 0.01073 0.00934 0.0
H2792 H 0.80366 0.02777 0.22806 0.0
H2793 H 0.80629 0.02922 0.14803 0.0
H2794 H 0.78197 1.00078 0.06638 0.0
C2795 C 0.79837 0.99195 0.91536 0.0
C2796 C 0.80969 0.00879 0.02127 0.0
C2797 C 0.80047 0.99113 0.86987 0.0
C2798 C 0.79973 0.0174 0.2073 0.0
C2799 C 0.80124 0.01824 0.16137 0.0
C2800 C 0.78978 1.00288 0.05435 0.0
C2801 C 0.80342 1.0054 0.94263 0.0
C2802 C 0.8015 1.0058 0.99139 0.0
C2803 C 0.7962 1.00521 0.13302 0.0
C2804 C 0.79798 1.00575 0.0842 0.0
H2805 H 0.81804 0.02752 0.86366 0.0
H2806 H 0.81436 0.02901 0.94281 0.0
H2807 H 0.78499 1.00086 0.98657 0.0
H2808 H 0.78311 0.97942 0.21088 0.0
H2809 H 0.78568 0.98097 0.13104 0.0
C2810 C 0.44392 0.27375 0.86332 0.0
C2811 C 0.4368 0.26095 0.84413 0.0
C2812 C 0.44603 0.27305 0.9088 0.0
C2813 C 0.43481 0.25619 0.01491 0.0
H2814 H 0.46244 0.26513 0.0601 0.0
C2815 C 0.44468 0.24873 0.2013 0.0
C2816 C 0.4511 0.26294 0.21976 0.0
C2817 C 0.44324 0.2476 0.15537 0.0
C2818 C 0.45466 0.26277 0.04805 0.0
H2819 H 0.42663 0.23687 0.85765 0.0
H2820 H 0.43034 0.23561 0.93678 0.0
H2821 H 0.45947 0.26467 0.98025 0.0
H2822 H 0.46096 0.28722 0.20398 0.0
H2823 H 0.4585 0.28516 0.12415 0.0
H2824 H 0.42999 0.25438 0.08267 0.0
C2825 C 0.43414 0.24647 0.91686 0.0
C2826 C 0.45295 0.26251 1.00223 0.0
C2827 C 0.43202 0.24717 0.87143 0.0
C2828 C 0.45611 0.27586 0.19101 0.0
C2829 C 0.45469 0.2747 0.14513 0.0
C2830 C 0.43652 0.25642 0.0607 0.0
C2831 C 0.44109 0.25952 0.93626 0.0
C2832 C 0.44299 0.25931 0.98504 0.0
C2833 C 0.44819 0.26062 0.12671 0.0
C2834 C 0.44645 0.2598 0.07788 0.0
H2835 H 0.44765 0.2847 0.84343 0.0
H2836 H 0.45133 0.2835 0.92263 0.0
H2837 H 0.42701 0.254 1.00296 0.0
H2838 H 0.44081 0.23836 0.22231 0.0
H2839 H 0.43829 0.2364 0.14229 0.0
C2840 C 0.19117 0.76751 0.96489 0.0
C2841 C 0.198 0.75401 0.9835 0.0
C2842 C 0.18984 0.7687 0.9189 0.0
C2843 C 0.19342 0.74026 0.81605 0.0
H2844 H 0.18972 0.78944 0.75775 0.0
C2845 C 0.19178 0.74691 0.62536 0.0
C2846 C 0.18406 0.75889 0.60763 0.0
C2847 C 0.19393 0.74702 0.67081 0.0
C2848 C 0.19066 0.77558 0.77357 0.0
H2849 H 0.2088 0.73116 0.96781 0.0
H2850 H 0.20672 0.7336 0.8879 0.0
H2851 H 0.19262 0.78831 0.83764 0.0
H2852 H 0.1728 0.78086 0.62382 0.0
H2853 H 0.17648 0.78091 0.70315 0.0
H2854 H 0.19146 0.72754 0.75205 0.0
C2855 C 0.20226 0.74312 0.90886 0.0
C2856 C 0.19231 0.77492 0.81943 0.0
C2857 C 0.20356 0.7419 0.9548 0.0
C2858 C 0.17872 0.77131 0.6364 0.0
C2859 C 0.1809 0.77147 0.68185 0.0
C2860 C 0.19181 0.74093 0.77024 0.0
C2861 C 0.19532 0.75643 0.89027 0.0
C2862 C 0.19369 0.75724 0.84131 0.0
C2863 C 0.18844 0.75916 0.69971 0.0
C2864 C 0.19039 0.75858 0.7484 0.0
H2865 H 0.18683 0.77723 0.98586 0.0
H2866 H 0.18436 0.77901 0.90588 0.0
H2867 H 0.19426 0.72636 0.83178 0.0
H2868 H 0.19598 0.73703 0.60429 0.0
H2869 H 0.19987 0.73752 0.68335 0.0
C2870 C 0.55006 0.0121 0.61166 0.0
C2871 C 0.55932 0.01897 0.59304 0.0
C2872 C 0.54823 0.01361 0.65722 0.0
C2873 C 0.56176 0.01999 0.76459 0.0
H2874 H 0.5342 0.03108 0.80792 0.0
C2875 C 0.55292 0.03197 0.95119 0.0
C2876 C 0.54387 0.02339 0.96786 0.0
C2877 C 0.55489 0.03232 0.90553 0.0
C2878 C 0.54192 0.02781 0.7964 0.0
H2879 H 0.5738 0.03325 0.60781 0.0
H2880 H 0.57058 0.03604 0.68725 0.0
H2881 H 0.53743 0.03029 0.72839 0.0
H2882 H 0.52992 0.00807 0.94926 0.0
H2883 H 0.53333 0.00879 0.86999 0.0
H2884 H 0.56623 0.01748 0.83272 0.0
C2885 C 0.5648 0.02915 0.66671 0.0
C2886 C 0.54378 0.02733 0.75073 0.0
C2887 C 0.56665 0.02758 0.62112 0.0
C2888 C 0.53686 0.01518 0.93766 0.0
C2889 C 0.53882 0.01557 0.89211 0.0
C2890 C 0.5599 0.02052 0.8103 0.0
C2891 C 0.55559 0.02209 0.68542 0.0
C2892 C 0.5537 0.02327 0.73417 0.0
C2893 C 0.54786 0.02413 0.87541 0.0
C2894 C 0.54994 0.02428 0.82679 0.0
H2895 H 0.54432 1.00509 0.59117 0.0
H2896 H 0.54113 0.00771 0.67045 0.0
H2897 H 0.56947 0.01654 0.75312 0.0
H2898 H 0.55844 0.03862 0.9734 0.0
H2899 H 0.56187 0.03924 0.89378 0.0
C2900 C 0.20296 0.02418 0.81234 0.0
C2901 C 0.19557 0.01651 0.78306 0.0
C2902 C 0.20131 0.02398 0.85819 0.0
C2903 C 0.18075 0.01935 0.94348 0.0
H2904 H 0.20375 0.00801 0.02155 0.0
C2905 C 0.17506 0.0074 0.13172 0.0
C2906 C 0.18236 0.01566 0.1606 0.0
C2907 C 0.17676 0.00707 0.0859 0.0
C2908 C 0.19726 0.0114 1.0003 0.0
H2909 H 0.18059 1.00261 0.77955 0.0
H2910 H 0.17771 1.00225 0.85949 0.0
H2911 H 0.20641 0.00845 0.94156 0.0
H2912 H 0.19725 0.02993 0.16341 0.0
H2913 H 0.20023 0.02926 0.08358 0.0
H2914 H 0.1716 0.0223 1.00223 0.0
C2915 C 0.18476 0.00865 0.8469 0.0
C2916 C 0.19879 0.01167 0.95432 0.0
C2917 C 0.18641 0.00886 0.80096 0.0
C2918 C 0.19151 0.02322 0.14236 0.0
C2919 C 0.19322 0.02286 0.09648 0.0
C2920 C 0.17922 0.01906 0.98945 0.0
C2921 C 0.19222 0.01612 0.87619 0.0
C2922 C 0.19056 0.01568 0.92524 0.0
C2923 C 0.18582 0.01494 0.06757 0.0
C2924 C 0.18746 0.0151 0.01852 0.0
H2925 H 0.21002 0.03053 0.7998 0.0
H2926 H 0.20714 0.03021 0.87953 0.0
H2927 H 0.17426 0.0228 0.92227 0.0
H2928 H 0.16802 1.00109 0.14454 0.0
H2929 H 0.17098 1.0005 0.06483 0.0
C2930 C 0.55176 0.76455 0.81293 0.0
C2931 C 0.54341 0.75416 0.79511 0.0
C2932 C 0.55346 0.76506 0.85877 0.0
C2933 C 0.54027 0.75707 0.96666 0.0
H2934 H 0.56821 0.75442 0.01249 0.0
C2935 C 0.54919 0.74579 0.15322 0.0
C2936 C 0.55765 0.75572 0.17152 0.0
C2937 C 0.54728 0.74629 0.10754 0.0
C2938 C 0.56036 0.75543 1.00029 0.0
H2939 H 0.53044 0.73581 0.81185 0.0
H2940 H 0.5334 0.73666 0.89157 0.0
H2941 H 0.56532 0.75372 0.9327 0.0
H2942 H 0.57051 0.77454 0.15592 0.0
H2943 H 0.56718 0.77542 0.07641 0.0
H2944 H 0.53531 0.75868 0.0343 0.0
C2945 C 0.53854 0.74472 0.87018 0.0
C2946 C 0.5587 0.75501 0.95444 0.0
C2947 C 0.53684 0.74422 0.82437 0.0
C2948 C 0.56403 0.76645 0.14297 0.0
C2949 C 0.56212 0.76694 0.0973 0.0
C2950 C 0.54193 0.75747 0.01252 0.0
C2951 C 0.54686 0.75519 0.88805 0.0
C2952 C 0.54863 0.75579 0.93697 0.0
C2953 C 0.55378 0.75672 0.07889 0.0
C2954 C 0.552 0.75662 0.02998 0.0
H2955 H 0.55689 0.77262 0.79151 0.0
H2956 H 0.55985 0.77351 0.8713 0.0
H2957 H 0.53242 0.75802 0.95446 0.0
H2958 H 0.5442 0.73713 0.174 0.0
H2959 H 0.54087 0.73804 0.09454 0.0
C2960 C 0.80361 0.75584 0.55778 0.0
C2961 C 0.7936 0.75678 0.53977 0.0
C2962 C 0.80508 0.75426 0.60359 0.0
C2963 C 0.79186 0.76333 0.71046 0.0
H2964 H 0.81403 0.7322 0.75853 0.0
C2965 C 0.79749 0.7524 0.89932 0.0
C2966 C 0.80768 0.75391 0.91535 0.0
C2967 C 0.79552 0.7516 0.85373 0.0
C2968 C 0.80785 0.74107 0.74561 0.0
H2969 H 0.77728 0.75616 0.55601 0.0
H2970 H 0.77984 0.75336 0.63581 0.0
H2971 H 0.81104 0.73273 0.67871 0.0
H2972 H 0.82376 0.75586 0.89537 0.0
H2973 H 0.82032 0.75418 0.8162 0.0
H2974 H 0.78869 0.7717 0.77741 0.0
C2975 C 0.78657 0.7542 0.61456 0.0
C2976 C 0.80614 0.7414 0.69982 0.0
C2977 C 0.7851 0.75579 0.56875 0.0
C2978 C 0.81583 0.75432 0.88448 0.0
C2979 C 0.81386 0.7534 0.83896 0.0
C2980 C 0.79355 0.76295 0.75627 0.0
C2981 C 0.79658 0.75357 0.63264 0.0
C2982 C 0.79817 0.75264 0.68158 0.0
C2983 C 0.80368 0.75217 0.82298 0.0
C2984 C 0.80161 0.75193 0.77439 0.0
H2985 H 0.81034 0.75687 0.53658 0.0
H2986 H 0.81291 0.75411 0.6163 0.0
H2987 H 0.78575 0.77239 0.69762 0.0
H2988 H 0.79101 0.75173 0.92201 0.0
H2989 H 0.78759 0.75039 0.84255 0.0
C2990 C 0.43016 0.52663 0.89158 0.0
C2991 C 0.43563 0.51402 0.91945 0.0
C2992 C 0.4322 0.52722 0.84605 0.0
C2993 C 0.45157 0.51309 0.7609 0.0
H2994 H 0.42823 0.51705 0.68086 0.0
C2995 C 0.45482 0.49772 0.57289 0.0
C2996 C 0.44938 0.50979 0.54362 0.0
C2997 C 0.45345 0.49923 0.61875 0.0
C2998 C 0.43485 0.51617 0.70272 0.0
H2999 H 0.44757 0.49219 0.92111 0.0
H3000 H 0.45108 0.49313 0.8418 0.0
H3001 H 0.42536 0.51794 0.76062 0.0
H3002 H 0.43837 0.53324 0.54014 0.0
H3003 H 0.43591 0.53573 0.6201 0.0
H3004 H 0.46104 0.51102 0.70282 0.0
C3005 C 0.44533 0.50282 0.85519 0.0
C3006 C 0.43321 0.51671 0.74853 0.0
C3007 C 0.44332 0.50227 0.90075 0.0
C3008 C 0.44257 0.5235 0.56155 0.0
C3009 C 0.44116 0.52495 0.60743 0.0
C3010 C 0.45321 0.51247 0.71505 0.0
C3011 C 0.43973 0.51517 0.82714 0.0
C3012 C 0.44154 0.51511 0.77828 0.0
C3013 C 0.44656 0.51278 0.6366 0.0
C3014 C 0.44486 0.51394 0.68539 0.0
H3015 H 0.4243 0.53608 0.90499 0.0
H3016 H 0.42787 0.53718 0.82567 0.0
H3017 H 0.45819 0.51212 0.78272 0.0
H3018 H 0.45999 0.48676 0.56038 0.0
H3019 H 0.45761 0.48944 0.6402 0.0
C3020 C 0.81629 0.51498 0.37384 0.0
C3021 C 0.8095 0.50624 0.34356 0.0
C3022 C 0.81442 0.51399 0.41946 0.0
C3023 C 0.79396 0.50388 0.50256 0.0
H3024 H 0.81721 0.49409 0.5804 0.0
C3025 C 0.78844 0.48552 0.68791 0.0
C3026 C 0.79517 0.49446 0.71819 0.0
C3027 C 0.79028 0.4866 0.64228 0.0
C3028 C 0.81064 0.49701 0.5592 0.0
H3029 H 0.79535 0.4897 0.33774 0.0
H3030 H 0.79209 0.48801 0.41715 0.0
H3031 H 0.82007 0.49739 0.50091 0.0
H3032 H 0.80914 0.51149 0.72391 0.0
H3033 H 0.81237 0.51328 0.64448 0.0
H3034 H 0.78453 0.50344 0.56088 0.0
C3035 C 0.7988 0.49586 0.40564 0.0
C3036 C 0.81228 0.49895 0.51358 0.0
C3037 C 0.80067 0.49686 0.36003 0.0
C3038 C 0.80389 0.50416 0.70167 0.0
C3039 C 0.80574 0.50523 0.65605 0.0
C3040 C 0.79232 0.50192 0.54818 0.0
C3041 C 0.80571 0.50423 0.43599 0.0
C3042 C 0.80396 0.50242 0.48465 0.0
C3043 C 0.7989 0.49664 0.62574 0.0
C3044 C 0.80064 0.49846 0.57709 0.0
H3045 H 0.82309 0.52255 0.36227 0.0
H3046 H 0.8198 0.52092 0.4418 0.0
H3047 H 0.78739 0.50681 0.48139 0.0
H3048 H 0.78173 0.47768 0.69948 0.0
H3049 H 0.78496 0.47952 0.61992 0.0
C3050 C 0.44064 0.78537 0.71123 0.0
C3051 C 0.4494 0.77637 0.72939 0.0
C3052 C 0.43872 0.78467 0.66555 0.0
C3053 C 0.45153 0.7757 0.55735 0.0
H3054 H 0.42355 0.76733 0.51578 0.0
C3055 C 0.44221 0.76007 0.37286 0.0
C3056 C 0.43332 0.76869 0.35489 0.0
C3057 C 0.44422 0.761 0.41845 0.0
C3058 C 0.4314 0.7699 0.52674 0.0
H3059 H 0.46292 0.75928 0.71342 0.0
H3060 H 0.45961 0.75816 0.63408 0.0
H3061 H 0.42694 0.76932 0.59509 0.0
H3062 H 0.4197 0.78546 0.37096 0.0
H3063 H 0.42318 0.78707 0.45012 0.0
H3064 H 0.45599 0.77629 0.48899 0.0
C3065 C 0.4543 0.76605 0.65501 0.0
C3066 C 0.43334 0.77105 0.5723 0.0
C3067 C 0.45621 0.76672 0.70062 0.0
C3068 C 0.42651 0.77831 0.38368 0.0
C3069 C 0.42852 0.77925 0.42918 0.0
C3070 C 0.44959 0.77456 0.51177 0.0
C3071 C 0.44552 0.77497 0.63684 0.0
C3072 C 0.44344 0.77396 0.58824 0.0
C3073 C 0.43739 0.77059 0.44724 0.0
C3074 C 0.43949 0.77165 0.49583 0.0
H3075 H 0.4353 0.79312 0.73225 0.0
H3076 H 0.43196 0.79194 0.65266 0.0
H3077 H 0.45938 0.77823 0.56836 0.0
H3078 H 0.44757 0.75236 0.35179 0.0
H3079 H 0.45105 0.75394 0.43122 0.0
C3080 C 0.1898 0.26558 0.12123 0.0
C3081 C 0.18369 0.25105 0.10219 0.0
C3082 C 0.19147 0.26615 0.16715 0.0
C3083 C 0.18054 0.24816 0.27351 0.0
H3084 H 0.20721 0.26272 0.32131 0.0
C3085 C 0.19048 0.24026 0.46011 0.0
C3086 C 0.19646 0.25478 0.47997 0.0
C3087 C 0.18885 0.24006 0.41418 0.0
C3088 C 0.19967 0.25884 0.30858 0.0
H3089 H 0.17488 0.22527 0.11669 0.0
H3090 H 0.17782 0.2262 0.19633 0.0
H3091 H 0.20469 0.26181 0.24124 0.0
H3092 H 0.20513 0.28084 0.46678 0.0
H3093 H 0.20229 0.28049 0.38695 0.0
H3094 H 0.17552 0.24514 0.34081 0.0
C3095 C 0.18113 0.23746 0.17601 0.0
C3096 C 0.19822 0.25832 0.26256 0.0
C3097 C 0.17945 0.23691 0.13021 0.0
C3098 C 0.20064 0.26923 0.45265 0.0
C3099 C 0.19902 0.26902 0.40677 0.0
C3100 C 0.18199 0.24866 0.3195 0.0
C3101 C 0.18709 0.25217 0.19524 0.0
C3102 C 0.18864 0.25293 0.24434 0.0
C3103 C 0.19315 0.25438 0.38682 0.0
C3104 C 0.19158 0.25398 0.33771 0.0
H3105 H 0.19309 0.27681 0.10077 0.0
H3106 H 0.196 0.27782 0.18073 0.0
H3107 H 0.17299 0.24428 0.26083 0.0
H3108 H 0.18725 0.22875 0.47992 0.0
H3109 H 0.1844 0.22841 0.4 0.0
C3110 C 0.53719 0.51777 0.45168 0.0
C3111 C 0.54297 0.506 0.48038 0.0
C3112 C 0.5384 0.51644 0.40573 0.0
C3113 C 0.5486 0.48481 0.31657 0.0
H3114 H 0.54874 0.53203 0.24832 0.0
C3115 C 0.56216 0.48879 0.13359 0.0
C3116 C 0.55662 0.50083 0.10464 0.0
C3117 C 0.55995 0.48856 0.17899 0.0
C3118 C 0.54859 0.51868 0.26677 0.0
H3119 H 0.55442 0.48327 0.48275 0.0
H3120 H 0.55674 0.48132 0.40272 0.0
H3121 H 0.54602 0.5333 0.32809 0.0
H3122 H 0.54431 0.5219 0.10085 0.0
H3123 H 0.54036 0.5213 0.17989 0.0
H3124 H 0.55133 0.47025 0.25509 0.0
C3125 C 0.55116 0.49143 0.41576 0.0
C3126 C 0.54702 0.5194 0.31259 0.0
C3127 C 0.54992 0.49272 0.46177 0.0
C3128 C 0.54866 0.51232 0.12209 0.0
C3129 C 0.54648 0.51215 0.16751 0.0
C3130 C 0.55021 0.4841 0.2707 0.0
C3131 C 0.54546 0.50337 0.38713 0.0
C3132 C 0.54701 0.50249 0.33815 0.0
C3133 C 0.55217 0.50042 0.1966 0.0
C3134 C 0.55023 0.50104 0.24525 0.0
H3135 H 0.53186 0.52834 0.4647 0.0
H3136 H 0.53378 0.52569 0.38476 0.0
H3137 H 0.54849 0.47147 0.33503 0.0
H3138 H 0.56827 0.47963 0.12118 0.0
H3139 H 0.56453 0.47945 0.20047 0.0
C3140 C 0.18602 0.51452 0.30116 0.0
C3141 C 0.19568 0.5197 0.28329 0.0
C3142 C 0.18433 0.51491 0.34708 0.0
C3143 C 0.19833 0.5147 0.45489 0.0
H3144 H 0.1721 0.53222 0.50185 0.0
C3145 C 0.19159 0.5272 0.64317 0.0
C3146 C 0.18194 0.52188 0.66082 0.0
C3147 C 0.19334 0.52685 0.59728 0.0
C3148 C 0.17944 0.52707 0.48935 0.0
H3149 H 0.21102 0.52993 0.30016 0.0
H3150 H 0.20808 0.53061 0.37983 0.0
H3151 H 0.1749 0.53189 0.42197 0.0
H3152 H 0.16667 0.51137 0.64357 0.0
H3153 H 0.1697 0.51081 0.56399 0.0
H3154 H 0.20286 0.5099 0.5223 0.0
C3155 C 0.20186 0.52586 0.35847 0.0
C3156 C 0.18104 0.52688 0.44341 0.0
C3157 C 0.20354 0.52548 0.31263 0.0
C3158 C 0.17413 0.51597 0.63129 0.0
C3159 C 0.17588 0.51564 0.5855 0.0
C3160 C 0.19672 0.5149 0.50083 0.0
C3161 C 0.19224 0.5205 0.37642 0.0
C3162 C 0.19051 0.52069 0.42548 0.0
C3163 C 0.18548 0.52117 0.56777 0.0
C3164 C 0.18725 0.52107 0.51874 0.0
H3165 H 0.17982 0.50975 0.27974 0.0
H3166 H 0.17687 0.51044 0.35962 0.0
H3167 H 0.20566 0.50954 0.44239 0.0
H3168 H 0.19775 0.53205 0.66473 0.0
H3169 H 0.2008 0.53142 0.58489 0.0
C3170 C 0.53643 0.24232 0.31718 0.0
C3171 C 0.54278 0.25258 0.2876 0.0
C3172 C 0.53819 0.24299 0.36295 0.0
C3173 C 0.55831 0.25462 0.44664 0.0
H3174 H 0.53499 0.25672 0.52718 0.0
C3175 C 0.56367 0.26651 0.63518 0.0
C3176 C 0.55751 0.25547 0.664 0.0
C3177 C 0.56173 0.26677 0.58951 0.0
C3178 C 0.54159 0.25595 0.50522 0.0
H3179 H 0.55594 0.27179 0.28349 0.0
H3180 H 0.55901 0.27298 0.3632 0.0
H3181 H 0.53198 0.25586 0.44744 0.0
H3182 H 0.5444 0.23607 0.66686 0.0
H3183 H 0.541 0.23659 0.58743 0.0
H3184 H 0.56792 0.25467 0.50442 0.0
C3185 C 0.55274 0.26416 0.35093 0.0
C3186 C 0.53987 0.25543 0.45939 0.0
C3187 C 0.55098 0.26347 0.30513 0.0
C3188 C 0.54922 0.24498 0.6459 0.0
C3189 C 0.54728 0.24525 0.60022 0.0
C3190 C 0.56003 0.25515 0.49246 0.0
C3191 C 0.54636 0.25395 0.38052 0.0
C3192 C 0.5482 0.25471 0.42943 0.0
C3193 C 0.55356 0.25602 0.57133 0.0
C3194 C 0.5517 0.25578 0.52242 0.0
H3195 H 0.53015 0.23351 0.30492 0.0
H3196 H 0.53322 0.23466 0.38453 0.0
H3197 H 0.56492 0.25376 0.42471 0.0
H3198 H 0.57001 0.27504 0.64792 0.0
H3199 H 0.56662 0.27552 0.56845 0.0
C3200 C 0.31677 0.43968 0.46982 0.0
C3201 C 0.30847 0.44395 0.49797 0.0
C3202 C 0.31632 0.42393 0.44102 0.0
C3203 C 0.29828 0.38514 0.39784 0.0
H3204 H 0.32432 0.36289 0.36142 0.0
C3205 C 0.29971 0.32101 0.27378 0.0
C3206 C 0.30849 0.3092 0.27298 0.0
C3207 C 0.29938 0.33731 0.30119 0.0
C3208 C 0.3169 0.36847 0.37177 0.0
H3209 H 0.29316 0.43518 0.5182 0.0
H3210 H 0.2926 0.40686 0.47085 0.0
H3211 H 0.32432 0.39032 0.40936 0.0
H3212 H 0.32353 0.30438 0.30199 0.0
H3213 H 0.3227 0.33151 0.35226 0.0
H3214 H 0.29089 0.36216 0.3633 0.0
C3215 C 0.29934 0.41601 0.46896 0.0
C3216 C 0.31691 0.38482 0.39874 0.0
C3217 C 0.29966 0.43223 0.49662 0.0
C3218 C 0.31673 0.31346 0.30144 0.0
C3219 C 0.31627 0.32929 0.32998 0.0
C3220 C 0.29828 0.36835 0.372 0.0
C3221 C 0.30771 0.41144 0.44074 0.0
C3222 C 0.30761 0.39366 0.41203 0.0
C3223 C 0.3077 0.34187 0.3297 0.0
C3224 C 0.3076 0.35971 0.3582 0.0
H3225 H 0.3236 0.44869 0.46972 0.0
H3226 H 0.3228 0.42169 0.41901 0.0
H3227 H 0.2909 0.3914 0.40627 0.0
H3228 H 0.29326 0.31806 0.25195 0.0
H3229 H 0.29268 0.34653 0.29891 0.0
C3230 C 0.92603 0.82397 0.48251 0.0
C3231 C 0.93508 0.81463 0.49651 0.0
C3232 C 0.92652 0.83968 0.45356 0.0
C3233 C 0.94374 0.87827 0.41325 0.0
H3234 H 0.92392 0.88151 0.31727 0.0
C3235 C 0.94455 0.94007 0.28214 0.0
C3236 C 0.93496 0.94691 0.267 0.0
C3237 C 0.94509 0.92371 0.30941 0.0
C3238 C 0.92944 0.88104 0.3442 0.0
H3239 H 0.95177 0.81456 0.49133 0.0
H3240 H 0.95265 0.84216 0.44086 0.0
H3241 H 0.92386 0.85362 0.3659 0.0
H3242 H 0.91842 0.94223 0.26947 0.0
H3243 H 0.9193 0.9142 0.31739 0.0
H3244 H 0.94919 0.9059 0.39207 0.0
C3245 C 0.94516 0.83731 0.45237 0.0
C3246 C 0.92942 0.86495 0.37207 0.0
C3247 C 0.94466 0.82145 0.48109 0.0
C3248 C 0.92594 0.93722 0.28016 0.0
C3249 C 0.92647 0.92101 0.30749 0.0
C3250 C 0.94371 0.89449 0.38551 0.0
C3251 C 0.93608 0.84659 0.43809 0.0
C3252 C 0.9365 0.86341 0.40725 0.0
C3253 C 0.93604 0.91386 0.32228 0.0
C3254 C 0.93648 0.89622 0.35083 0.0
H3255 H 0.91853 0.8191 0.49383 0.0
H3256 H 0.91938 0.84659 0.44374 0.0
H3257 H 0.94925 0.87764 0.44023 0.0
H3258 H 0.95163 0.94724 0.27258 0.0
H3259 H 0.95261 0.91862 0.31974 0.0
C3260 C 0.30471 0.92388 0.00783 0.0
C3261 C 0.30378 0.94293 0.99297 0.0
C3262 C 0.30412 0.9085 0.97805 0.0
C3263 C 0.308 0.89647 0.85996 0.0
H3264 H 0.29479 0.84852 0.89301 0.0
C3265 C 0.31615 0.82541 0.76728 0.0
C3266 C 0.30791 0.81269 0.75949 0.0
C3267 C 0.31483 0.84165 0.79403 0.0
C3268 C 0.29843 0.86184 0.883 0.0
H3269 H 0.30177 0.96082 0.93497 0.0
H3270 H 0.30059 0.93396 0.88271 0.0
H3271 H 0.29358 0.87628 0.9422 0.0
H3272 H 0.29178 0.80714 0.77364 0.0
H3273 H 0.28946 0.83551 0.82078 0.0
H3274 H 0.31287 0.88204 0.80083 0.0
C3275 C 0.30172 0.93087 0.91756 0.0
C3276 C 0.29783 0.87774 0.91146 0.0
C3277 C 0.30224 0.94629 0.94754 0.0
C3278 C 0.29829 0.81661 0.77919 0.0
C3279 C 0.29698 0.83284 0.8063 0.0
C3280 C 0.30865 0.88055 0.83163 0.0
C3281 C 0.3027 0.91174 0.93241 0.0
C3282 C 0.3027 0.89522 0.9006 0.0
C3283 C 0.30524 0.84564 0.81395 0.0
C3284 C 0.30398 0.86293 0.84297 0.0
H3285 H 0.30599 0.92084 0.04262 0.0
H3286 H 0.30509 0.89405 0.99073 0.0
H3287 H 0.31192 0.9096 0.85055 0.0
H3288 H 0.32367 0.8228 0.75273 0.0
H3289 H 0.32142 0.85095 0.79967 0.0
C3290 C 0.9379 0.44979 0.80606 0.0
C3291 C 0.93642 0.44681 0.76047 0.0
C3292 C 0.93841 0.43413 0.83532 0.0
C3293 C 0.94352 0.3819 0.84084 0.0
H3294 H 0.92666 0.38344 0.94689 0.0
C3295 C 0.93717 0.31427 0.95092 0.0
C3296 C 0.93573 0.31689 0.99662 0.0
C3297 C 0.9378 0.33016 0.92235 0.0
C3298 C 0.93159 0.3828 0.91794 0.0
H3299 H 0.93437 0.4252 0.70965 0.0
H3300 H 0.93544 0.39787 0.76048 0.0
H3301 H 0.92712 0.41114 0.89771 0.0
H3302 H 0.934 0.3381 0.04846 0.0
H3303 H 0.93551 0.36575 0.99942 0.0
H3304 H 0.94815 0.35372 0.86124 0.0
C3305 C 0.93624 0.41225 0.7737 0.0
C3306 C 0.93181 0.39874 0.8896 0.0
C3307 C 0.93557 0.4279 0.74463 0.0
C3308 C 0.93508 0.33566 0.01331 0.0
C3309 C 0.93586 0.35153 0.98498 0.0
C3310 C 0.94341 0.36602 0.86952 0.0
C3311 C 0.93757 0.41516 0.81947 0.0
C3312 C 0.93772 0.39846 0.85055 0.0
C3313 C 0.93709 0.34908 0.93891 0.0
C3314 C 0.9374 0.36616 0.90847 0.0
H3315 H 0.93835 0.46421 0.81928 0.0
H3316 H 0.93945 0.43687 0.87037 0.0
H3317 H 0.94823 0.38129 0.81121 0.0
H3318 H 0.93745 0.29994 0.93704 0.0
H3319 H 0.93855 0.32754 0.88714 0.0
C3320 C 0.69694 0.69154 0.72953 0.0
C3321 C 0.6872 0.69787 0.74425 0.0
C3322 C 0.69776 0.67577 0.70063 0.0
C3323 C 0.69667 0.63455 0.66136 0.0
H3324 H 0.67733 0.63138 0.56359 0.0
C3325 C 0.69724 0.5717 0.53261 0.0
C3326 C 0.68759 0.56512 0.51754 0.0
C3327 C 0.69794 0.58829 0.55906 0.0
C3328 C 0.68271 0.63185 0.59096 0.0
H3329 H 0.67073 0.69267 0.74003 0.0
H3330 H 0.67213 0.66547 0.68965 0.0
H3331 H 0.67719 0.65944 0.61157 0.0
H3332 H 0.6711 0.57049 0.51928 0.0
H3333 H 0.67226 0.5989 0.56571 0.0
H3334 H 0.70202 0.60668 0.64134 0.0
C3335 C 0.67914 0.67264 0.70018 0.0
C3336 C 0.68266 0.64803 0.61846 0.0
C3337 C 0.67833 0.68819 0.72932 0.0
C3338 C 0.67868 0.57529 0.52991 0.0
C3339 C 0.67936 0.59172 0.55638 0.0
C3340 C 0.69666 0.61822 0.63397 0.0
C3341 C 0.68885 0.66619 0.68542 0.0
C3342 C 0.68952 0.6495 0.6544 0.0
C3343 C 0.68899 0.59862 0.57109 0.0
C3344 C 0.68957 0.61649 0.59877 0.0
H3345 H 0.70392 0.69872 0.74051 0.0
H3346 H 0.70534 0.67124 0.6897 0.0
H3347 H 0.70201 0.63517 0.68887 0.0
H3348 H 0.70424 0.56416 0.52368 0.0
H3349 H 0.7055 0.59317 0.56943 0.0
C3350 C 0.05071 0.06644 0.69573 0.0
C3351 C 0.05282 0.06872 0.7411 0.0
C3352 C 0.05053 0.08244 0.66724 0.0
C3353 C 0.061 0.13182 0.65849 0.0
H3354 H 0.04075 0.13856 0.5651 0.0
C3355 C 0.0475 0.19455 0.52596 0.0
C3356 C 0.05726 0.2003 0.51034 0.0
C3357 C 0.04649 0.17833 0.55342 0.0
C3358 C 0.04642 0.13695 0.5912 0.0
H3359 H 0.05633 0.08954 0.79222 0.0
H3360 H 0.05601 0.1173 0.743 0.0
H3361 H 0.03966 0.11055 0.61421 0.0
H3362 H 0.0736 0.19349 0.5112 0.0
H3363 H 0.07187 0.1654 0.55881 0.0
H3364 H 0.06776 0.15813 0.63587 0.0
C3365 C 0.05454 0.10322 0.7291 0.0
C3366 C 0.04586 0.12079 0.61907 0.0
C3367 C 0.05467 0.0873 0.75742 0.0
C3368 C 0.06597 0.18949 0.5227 0.0
C3369 C 0.06498 0.17341 0.55026 0.0
C3370 C 0.06161 0.14783 0.63051 0.0
C3371 C 0.05259 0.10103 0.68351 0.0
C3372 C 0.05313 0.11805 0.65321 0.0
C3373 C 0.05524 0.16761 0.56617 0.0
C3374 C 0.05435 0.15063 0.59642 0.0
H3375 H 0.04958 0.05226 0.68195 0.0
H3376 H 0.04915 0.08016 0.63224 0.0
H3377 H 0.06681 0.13012 0.68403 0.0
H3378 H 0.04065 0.2026 0.51703 0.0
H3379 H 0.03889 0.17438 0.56533 0.0
C3380 C 0.68511 0.06432 0.0505 0.0
C3381 C 0.68361 0.06713 1.00491 0.0
C3382 C 0.68562 0.08005 0.07942 0.0
C3383 C 0.67935 0.1326 0.08563 0.0
H3384 H 0.69626 0.13021 0.19152 0.0
C3385 C 0.68666 0.19847 0.19991 0.0
C3386 C 0.68497 0.19519 0.24528 0.0
C3387 C 0.6869 0.18307 0.16999 0.0
C3388 C 0.69148 0.13105 0.16212 0.0
H3389 H 0.6816 0.08852 0.95359 0.0
H3390 H 0.68293 0.11597 1.00332 0.0
H3391 H 0.69608 0.1031 0.14036 0.0
H3392 H 0.68232 0.1733 0.29505 0.0
H3393 H 0.68299 0.14637 0.24301 0.0
H3394 H 0.67498 0.16082 0.10719 0.0
C3395 C 0.6834 0.10169 0.01739 0.0
C3396 C 0.69131 0.11544 0.13282 0.0
C3397 C 0.68272 0.08595 0.98867 0.0
C3398 C 0.68366 0.17623 0.26025 0.0
C3399 C 0.68409 0.16082 0.23052 0.0
C3400 C 0.67966 0.14831 0.11457 0.0
C3401 C 0.68478 0.09902 0.06333 0.0
C3402 C 0.68517 0.11589 0.09422 0.0
C3403 C 0.68563 0.16406 0.185 0.0
C3404 C 0.68566 0.14766 0.15331 0.0
H3405 H 0.68561 0.04994 0.06402 0.0
H3406 H 0.68646 0.07724 0.11452 0.0
H3407 H 0.67435 0.13348 0.05694 0.0
H3408 H 0.68756 0.21296 0.18741 0.0
H3409 H 0.68812 0.186 0.13513 0.0
C3410 C 0.05765 0.68277 1.00124 0.0
C3411 C 0.05615 0.70151 0.01717 0.0
C3412 C 0.0575 0.66704 0.03028 0.0
C3413 C 0.06162 0.65408 0.14755 0.0
H3414 H 0.04782 0.60662 0.1154 0.0
C3415 C 0.06813 0.58269 0.24275 0.0
C3416 C 0.05939 0.57134 0.25187 0.0
C3417 C 0.06739 0.59874 0.21486 0.0
C3418 C 0.05167 0.6198 0.12501 0.0
H3419 H 0.0537 0.71857 0.07615 0.0
H3420 H 0.05333 0.69115 0.12696 0.0
H3421 H 0.04694 0.63432 0.06565 0.0
H3422 H 0.043 0.56811 0.23927 0.0
H3423 H 0.04175 0.59596 0.18997 0.0
H3424 H 0.06639 0.63954 0.20679 0.0
C3425 C 0.05453 0.68854 0.09195 0.0
C3426 C 0.05124 0.63564 0.09631 0.0
C3427 C 0.05459 0.70424 0.0628 0.0
C3428 C 0.0499 0.57644 0.23253 0.0
C3429 C 0.04919 0.59238 0.20422 0.0
C3430 C 0.06215 0.63819 0.17602 0.0
C3431 C 0.056 0.66972 0.07607 0.0
C3432 C 0.05623 0.65298 0.10714 0.0
C3433 C 0.05792 0.60378 0.19511 0.0
C3434 C 0.0572 0.62082 0.1651 0.0
H3435 H 0.05897 0.68026 0.96626 0.0
H3436 H 0.05879 0.6528 0.01696 0.0
H3437 H 0.06563 0.66714 0.15681 0.0
H3438 H 0.07555 0.57915 0.25713 0.0
H3439 H 0.0743 0.60706 0.20824 0.0
C3440 C 0.80246 0.45064 0.94551 0.0
C3441 C 0.80409 0.44734 0.99093 0.0
C3442 C 0.80204 0.43519 0.91554 0.0
C3443 C 0.79817 0.38215 0.90978 0.0
H3444 H 0.81323 0.38594 0.79906 0.0
C3445 C 0.79757 0.32134 0.77732 0.0
C3446 C 0.80708 0.31675 0.7574 0.0
C3447 C 0.79662 0.33762 0.80449 0.0
C3448 C 0.809 0.38461 0.8299 0.0
H3449 H 0.80653 0.42531 0.04053 0.0
H3450 H 0.80574 0.39849 0.98872 0.0
H3451 H 0.81245 0.41364 0.84866 0.0
H3452 H 0.82301 0.32579 0.75011 0.0
H3453 H 0.82135 0.35415 0.79719 0.0
H3454 H 0.79489 0.35302 0.89145 0.0
C3455 C 0.80468 0.41291 0.97604 0.0
C3456 C 0.80846 0.40059 0.85815 0.0
C3457 C 0.80519 0.42831 0.00577 0.0
C3458 C 0.81557 0.32891 0.76492 0.0
C3459 C 0.8146 0.34526 0.79174 0.0
C3460 C 0.79865 0.36623 0.88139 0.0
C3461 C 0.80318 0.41609 0.93043 0.0
C3462 C 0.80314 0.39952 0.89877 0.0
C3463 C 0.80512 0.34984 0.81201 0.0
C3464 C 0.80418 0.36714 0.84127 0.0
H3465 H 0.80182 0.46515 0.93297 0.0
H3466 H 0.80085 0.43821 0.8807 0.0
H3467 H 0.79392 0.38083 0.94055 0.0
H3468 H 0.79085 0.31236 0.77188 0.0
H3469 H 0.78917 0.34077 0.81914 0.0
C3470 C 0.43844 0.95297 0.80456 0.0
C3471 C 0.43726 0.95038 0.75871 0.0
C3472 C 0.43893 0.93708 0.83315 0.0
C3473 C 0.43297 0.88425 0.83707 0.0
H3474 H 0.44853 0.88667 0.94666 0.0
C3475 C 0.43874 0.81819 0.95342 0.0
C3476 C 0.43667 0.82158 0.99845 0.0
C3477 C 0.43936 0.83356 0.92333 0.0
C3478 C 0.44412 0.88579 0.9162 0.0
H3479 H 0.43583 0.9292 0.70667 0.0
H3480 H 0.43715 0.90151 0.75583 0.0
H3481 H 0.44881 0.91393 0.89588 0.0
H3482 H 0.43367 0.84363 0.04735 0.0
H3483 H 0.43497 0.87043 0.9952 0.0
H3484 H 0.42849 0.85588 0.85733 0.0
C3485 C 0.43738 0.91572 0.77033 0.0
C3486 C 0.44422 0.90151 0.88707 0.0
C3487 C 0.43673 0.93161 0.74192 0.0
C3488 C 0.43532 0.8406 0.01286 0.0
C3489 C 0.43612 0.85595 0.98303 0.0
C3490 C 0.43301 0.86843 0.86589 0.0
C3491 C 0.43837 0.91815 0.81654 0.0
C3492 C 0.43856 0.90109 0.84715 0.0
C3493 C 0.43808 0.85264 0.93783 0.0
C3494 C 0.4385 0.86907 0.90602 0.0
H3495 H 0.43862 0.96729 0.81853 0.0
H3496 H 0.43947 0.93974 0.86842 0.0
H3497 H 0.42832 0.88334 0.80732 0.0
H3498 H 0.43962 0.80365 0.94126 0.0
H3499 H 0.44089 0.83052 0.88874 0.0
C3500 C 0.81686 0.82411 0.28078 0.0
C3501 C 0.80785 0.81449 0.26726 0.0
C3502 C 0.81634 0.83982 0.30964 0.0
C3503 C 0.79914 0.87822 0.35039 0.0
H3504 H 0.81918 0.88172 0.44545 0.0
C3505 C 0.79861 0.94038 0.48063 0.0
C3506 C 0.80819 0.94704 0.4963 0.0
C3507 C 0.79804 0.92409 0.45319 0.0
C3508 C 0.8136 0.8812 0.41875 0.0
H3509 H 0.79118 0.81394 0.27335 0.0
H3510 H 0.79024 0.84165 0.32363 0.0
H3511 H 0.81911 0.85372 0.3973 0.0
H3512 H 0.82471 0.94213 0.49443 0.0
H3513 H 0.8238 0.91425 0.44604 0.0
H3514 H 0.79377 0.90593 0.37123 0.0
C3515 C 0.79773 0.83697 0.31179 0.0
C3516 C 0.81354 0.86502 0.39118 0.0
C3517 C 0.79826 0.82105 0.28317 0.0
C3518 C 0.81719 0.93728 0.4833 0.0
C3519 C 0.81664 0.92113 0.45572 0.0
C3520 C 0.79925 0.89454 0.3778 0.0
C3521 C 0.80678 0.84651 0.32557 0.0
C3522 C 0.80638 0.86337 0.35632 0.0
C3523 C 0.80706 0.9141 0.44058 0.0
C3524 C 0.80657 0.89639 0.41216 0.0
H3525 H 0.82437 0.81945 0.26914 0.0
H3526 H 0.82346 0.84691 0.31904 0.0
H3527 H 0.79356 0.8775 0.32366 0.0
H3528 H 0.79153 0.94758 0.49014 0.0
H3529 H 0.79051 0.91911 0.44267 0.0
C3530 C 0.42627 0.3285 0.47955 0.0
C3531 C 0.43535 0.31888 0.49201 0.0
C3532 C 0.42668 0.34487 0.4526 0.0
C3533 C 0.44381 0.37239 0.37539 0.0
H3534 H 0.42384 0.41279 0.39727 0.0
C3535 C 0.44456 0.44666 0.28438 0.0
C3536 C 0.43495 0.45337 0.26906 0.0
C3537 C 0.44513 0.43048 0.3122 0.0
C3538 C 0.42943 0.40161 0.39048 0.0
H3539 H 0.45202 0.31882 0.4856 0.0
H3540 H 0.45279 0.34766 0.43924 0.0
H3541 H 0.42392 0.38435 0.44414 0.0
H3542 H 0.41843 0.44843 0.2711 0.0
H3543 H 0.4194 0.42047 0.31962 0.0
H3544 H 0.44936 0.38997 0.32189 0.0
C3545 C 0.4453 0.34241 0.44968 0.0
C3546 C 0.42946 0.38518 0.41731 0.0
C3547 C 0.44487 0.32591 0.47649 0.0
C3548 C 0.42595 0.44365 0.28233 0.0
C3549 C 0.4265 0.42766 0.3104 0.0
C3550 C 0.44383 0.38895 0.34872 0.0
C3551 C 0.4362 0.35225 0.43759 0.0
C3552 C 0.43655 0.37016 0.40986 0.0
C3553 C 0.43609 0.42082 0.32571 0.0
C3554 C 0.43654 0.40366 0.35555 0.0
H3555 H 0.4188 0.32337 0.49062 0.0
H3556 H 0.41947 0.35166 0.4433 0.0
H3557 H 0.44932 0.36113 0.36819 0.0
H3558 H 0.45163 0.45385 0.27471 0.0
H3559 H 0.45263 0.42569 0.32361 0.0
C3560 C 0.17442 0.57961 0.0327 0.0
C3561 C 0.18352 0.57041 0.01893 0.0
C3562 C 0.17481 0.5954 0.06135 0.0
C3563 C 0.19188 0.62107 0.14161 0.0
H3564 H 0.17191 0.66194 0.12481 0.0
C3565 C 0.19261 0.69286 0.24193 0.0
C3566 C 0.18301 0.69936 0.25768 0.0
C3567 C 0.19317 0.67735 0.21226 0.0
C3568 C 0.1775 0.6506 0.1302 0.0
H3569 H 0.2002 0.57047 0.02473 0.0
H3570 H 0.20093 0.59831 0.07415 0.0
H3571 H 0.17204 0.63471 0.07429 0.0
H3572 H 0.16647 0.69467 0.25473 0.0
H3573 H 0.16742 0.6678 0.20309 0.0
H3574 H 0.19737 0.63724 0.19743 0.0
C3575 C 0.19345 0.59317 0.06334 0.0
C3576 C 0.17756 0.63489 0.10125 0.0
C3577 C 0.19305 0.57726 0.03477 0.0
C3578 C 0.17399 0.69003 0.24318 0.0
C3579 C 0.17454 0.67469 0.21332 0.0
C3580 C 0.19186 0.6369 0.17043 0.0
C3581 C 0.18433 0.60256 0.07687 0.0
C3582 C 0.18465 0.61974 0.10681 0.0
C3583 C 0.18412 0.66813 0.19739 0.0
C3584 C 0.18458 0.65175 0.16543 0.0
H3585 H 0.16695 0.57456 0.02144 0.0
H3586 H 0.16759 0.60187 0.07167 0.0
H3587 H 0.19739 0.60965 0.14736 0.0
H3588 H 0.1997 0.69976 0.25254 0.0
H3589 H 0.20068 0.67276 0.20043 0.0
C3590 C 0.55389 0.05945 0.20273 0.0
C3591 C 0.55504 0.06191 0.24866 0.0
C3592 C 0.5536 0.07539 0.17436 0.0
C3593 C 0.54827 0.12737 0.1703 0.0
H3594 H 0.56584 0.12686 0.06632 0.0
C3595 C 0.55379 0.19522 0.06018 0.0
C3596 C 0.55551 0.1926 0.01464 0.0
C3597 C 0.55345 0.17938 0.08897 0.0
C3598 C 0.56072 0.12721 0.09467 0.0
H3599 H 0.55679 0.08289 0.30101 0.0
H3600 H 0.55607 0.11084 0.25156 0.0
H3601 H 0.56544 0.09906 0.11519 0.0
H3602 H 0.55802 0.17142 0.96332 0.0
H3603 H 0.55698 0.14383 0.01269 0.0
H3604 H 0.54332 0.15528 0.14944 0.0
C3605 C 0.55537 0.09659 0.23747 0.0
C3606 C 0.56055 0.11123 0.12287 0.0
C3607 C 0.55583 0.08061 0.26574 0.0
C3608 C 0.55673 0.17387 0.99835 0.0
C3609 C 0.55623 0.15803 0.02688 0.0
C3610 C 0.54831 0.14327 0.14172 0.0
C3611 C 0.55435 0.09417 0.19139 0.0
C3612 C 0.55435 0.11111 0.16109 0.0
C3613 C 0.5547 0.1605 0.07279 0.0
C3614 C 0.55456 0.14349 0.10343 0.0
H3615 H 0.55353 0.04518 0.18857 0.0
H3616 H 0.55279 0.07303 0.13905 0.0
H3617 H 0.54334 0.12765 0.19931 0.0
H3618 H 0.55301 0.20953 0.07376 0.0
H3619 H 0.55244 0.18203 0.12404 0.0
C3620 C 0.19505 0.07568 0.53055 0.0
C3621 C 0.18536 0.06926 0.5155 0.0
C3622 C 0.19578 0.09136 0.55974 0.0
C3623 C 0.18044 0.11869 0.64199 0.0
H3624 H 0.2002 0.15968 0.62225 0.0
C3625 C 0.17703 0.19059 0.73505 0.0
C3626 C 0.18605 0.20022 0.74833 0.0
C3627 C 0.17755 0.17447 0.70746 0.0
C3628 C 0.19473 0.14825 0.62872 0.0
H3629 H 0.16886 0.07422 0.51939 0.0
H3630 H 0.17011 0.10133 0.57018 0.0
H3631 H 0.20013 0.13166 0.57333 0.0
H3632 H 0.20273 0.20057 0.74266 0.0
H3633 H 0.2037 0.17212 0.69498 0.0
H3634 H 0.17506 0.13498 0.69739 0.0
C3635 C 0.17716 0.09428 0.55972 0.0
C3636 C 0.19469 0.13217 0.60056 0.0
C3637 C 0.17644 0.07879 0.53033 0.0
C3638 C 0.19564 0.19343 0.73302 0.0
C3639 C 0.19618 0.17718 0.70546 0.0
C3640 C 0.18053 0.13463 0.67025 0.0
C3641 C 0.18682 0.10079 0.5749 0.0
C3642 C 0.18742 0.11733 0.60643 0.0
C3643 C 0.18713 0.16737 0.6925 0.0
C3644 C 0.18755 0.14983 0.66367 0.0
H3645 H 0.20207 0.06861 0.51972 0.0
H3646 H 0.20334 0.09591 0.57098 0.0
H3647 H 0.17488 0.10736 0.64809 0.0
H3648 H 0.16951 0.19556 0.74586 0.0
H3649 H 0.17039 0.1677 0.6975 0.0
C3650 C 0.5657 0.57547 0.75247 0.0
C3651 C 0.55723 0.56317 0.75911 0.0
C3652 C 0.56483 0.59171 0.72533 0.0
C3653 C 0.54976 0.61198 0.63275 0.0
H3654 H 0.56257 0.65994 0.66832 0.0
C3655 C 0.5572 0.6746 0.51013 0.0
C3656 C 0.5554 0.69344 0.52491 0.0
C3657 C 0.55663 0.65906 0.53953 0.0
C3658 C 0.55887 0.64672 0.658 0.0
H3659 H 0.54113 0.5584 0.74278 0.0
H3660 H 0.53963 0.58668 0.69468 0.0
H3661 H 0.56295 0.63236 0.71839 0.0
H3662 H 0.55177 0.7108 0.58229 0.0
H3663 H 0.55076 0.68365 0.63387 0.0
H3664 H 0.54575 0.62631 0.57219 0.0
C3665 C 0.54698 0.5837 0.71044 0.0
C3666 C 0.55918 0.63084 0.68655 0.0
C3667 C 0.54783 0.56752 0.73806 0.0
C3668 C 0.55305 0.69643 0.56983 0.0
C3669 C 0.55257 0.68088 0.59942 0.0
C3670 C 0.54954 0.62782 0.60401 0.0
C3671 C 0.55547 0.59603 0.7038 0.0
C3672 C 0.5547 0.6132 0.67419 0.0
C3673 C 0.55436 0.66197 0.58463 0.0
C3674 C 0.55415 0.64537 0.61611 0.0
H3675 H 0.57306 0.57252 0.76817 0.0
H3676 H 0.57157 0.60072 0.72058 0.0
H3677 H 0.54629 0.59861 0.62202 0.0
H3678 H 0.55908 0.67186 0.47572 0.0
H3679 H 0.5582 0.64477 0.52706 0.0
C3680 C 0.30735 0.19839 0.18001 0.0
C3681 C 0.30383 0.2003 0.22379 0.0
C3682 C 0.3084 0.18014 0.16086 0.0
C3683 C 0.31079 0.1282 0.18637 0.0
H3684 H 0.2986 0.12154 0.07019 0.0
C3685 C 0.30422 0.05297 0.10418 0.0
C3686 C 0.30456 0.05222 0.05771 0.0
C3687 C 0.30523 0.0707 0.12619 0.0
C3688 C 0.30224 0.1231 0.10228 0.0
H3689 H 0.29893 0.18468 0.28228 0.0
H3690 H 0.30086 0.15288 0.24909 0.0
H3691 H 0.29863 0.15309 0.10431 0.0
H3692 H 0.30699 0.0689 0.99805 0.0
H3693 H 0.30932 0.0993 0.03596 0.0
H3694 H 0.31449 0.09816 0.18414 0.0
C3695 C 0.30282 0.16541 0.22951 0.0
C3696 C 0.30222 0.14128 0.1219 0.0
C3697 C 0.30165 0.18364 0.24842 0.0
C3698 C 0.30658 0.06912 0.03393 0.0
C3699 C 0.30779 0.08663 0.05573 0.0
C3700 C 0.31093 0.10997 0.16646 0.0
C3701 C 0.30606 0.16343 0.1853 0.0
C3702 C 0.30648 0.14409 0.16416 0.0
C3703 C 0.30673 0.08787 0.10203 0.0
C3704 C 0.30668 0.10717 0.12401 0.0
H3705 H 0.30908 0.21099 0.16025 0.0
H3706 H 0.31099 0.17909 0.12682 0.0
H3707 H 0.31417 0.12992 0.21896 0.0
H3708 H 0.3026 0.04011 0.12322 0.0
H3709 H 0.30435 0.07103 0.16186 0.0
C3710 C 0.95118 0.19616 0.06463 0.0
C3711 C 0.94277 0.20884 0.0646 0.0
C3712 C 0.95034 0.17799 0.0836 0.0
C3713 C 0.93439 0.14618 0.15523 0.0
H3714 H 0.94851 0.10678 0.08741 0.0
C3715 C 0.93234 0.06355 0.19358 0.0
C3716 C 0.9421 0.0548 0.19667 0.0
C3717 C 0.9314 0.08241 0.17747 0.0
C3718 C 0.94453 0.1176 0.10675 0.0
H3719 H 0.92698 0.21291 0.08617 0.0
H3720 H 0.92536 0.18061 0.11886 0.0
H3721 H 0.94873 0.13982 0.06151 0.0
H3722 H 0.95846 0.05861 0.18433 0.0
H3723 H 0.95681 0.09117 0.15527 0.0
H3724 H 0.93013 0.12353 0.20022 0.0
C3725 C 0.93268 0.1849 0.10464 0.0
C3726 C 0.94471 0.13662 0.09212 0.0
C3727 C 0.9336 0.20339 0.08609 0.0
C3728 C 0.95085 0.06501 0.18239 0.0
C3729 C 0.94989 0.08363 0.16564 0.0
C3730 C 0.93412 0.12699 0.16969 0.0
C3731 C 0.94097 0.17174 0.10224 0.0
C3732 C 0.93989 0.15129 0.11672 0.0
C3733 C 0.94018 0.09262 0.16331 0.0
C3734 C 0.93941 0.11259 0.14606 0.0
H3735 H 0.95839 0.20012 0.04871 0.0
H3736 H 0.95701 0.16861 0.08253 0.0
H3737 H 0.93059 0.15706 0.175 0.0
H3738 H 0.92547 0.05601 0.20454 0.0
H3739 H 0.92382 0.08895 0.17577 0.0
C3740 C 0.68883 0.95585 0.89689 0.0
C3741 C 0.68548 0.9584 0.94078 0.0
C3742 C 0.68844 0.93761 0.87707 0.0
C3743 C 0.68771 0.88601 0.90833 0.0
H3744 H 0.6816 0.87797 0.78403 0.0
C3745 C 0.68555 0.80965 0.83178 0.0
C3746 C 0.69032 0.80736 0.79031 0.0
C3747 C 0.68407 0.82807 0.84958 0.0
C3748 C 0.68339 0.87997 0.81877 0.0
H3749 H 0.67854 0.94418 0.99735 0.0
H3750 H 0.67765 0.91268 0.96275 0.0
H3751 H 0.6806 0.9103 0.81508 0.0
H3752 H 0.69716 0.8225 0.73477 0.0
H3753 H 0.69465 0.85443 0.7657 0.0
H3754 H 0.69059 0.85576 0.91201 0.0
C3755 C 0.68085 0.9245 0.94388 0.0
C3756 C 0.68284 0.89854 0.83655 0.0
C3757 C 0.68129 0.94262 0.96363 0.0
C3758 C 0.69343 0.8238 0.76678 0.0
C3759 C 0.69193 0.84215 0.7844 0.0
C3760 C 0.68825 0.86747 0.89059 0.0
C3761 C 0.68465 0.9216 0.90074 0.0
C3762 C 0.68502 0.90182 0.88157 0.0
C3763 C 0.68729 0.84456 0.82616 0.0
C3764 C 0.68616 0.8642 0.84551 0.0
H3765 H 0.69211 0.96775 0.87848 0.0
H3766 H 0.69147 0.93592 0.84385 0.0
H3767 H 0.68964 0.88798 0.94295 0.0
H3768 H 0.68309 0.79722 0.85065 0.0
H3769 H 0.68039 0.8294 0.88166 0.0
C3770 C 0.05311 0.9583 0.84523 0.0
C3771 C 0.05137 0.95847 0.7993 0.0
C3772 C 0.05442 0.94075 0.86768 0.0
C3773 C 0.0604 0.88893 0.84977 0.0
H3774 H 0.04355 0.8807 0.95416 0.0
C3775 C 0.05145 0.81272 0.91928 0.0
C3776 C 0.05032 0.81078 0.96529 0.0
C3777 C 0.05287 0.83097 0.90026 0.0
C3778 C 0.04847 0.88277 0.9255 0.0
H3779 H 0.05001 0.94067 0.74068 0.0
H3780 H 0.05241 0.9104 0.77935 0.0
H3781 H 0.04425 0.91246 0.92049 0.0
H3782 H 0.05012 0.82619 0.02763 0.0
H3783 H 0.0529 0.85769 0.99501 0.0
H3784 H 0.06456 0.8592 0.85449 0.0
C3785 C 0.05279 0.9236 0.79827 0.0
C3786 C 0.04886 0.90105 0.90623 0.0
C3787 C 0.05135 0.94098 0.77612 0.0
C3788 C 0.05091 0.82727 0.99196 0.0
C3789 C 0.05243 0.84538 0.97318 0.0
C3790 C 0.06006 0.87066 0.8692 0.0
C3791 C 0.05418 0.92318 0.84439 0.0
C3792 C 0.05472 0.90431 0.86775 0.0
C3793 C 0.05322 0.8476 0.927 0.0
C3794 C 0.05399 0.86724 0.90707 0.0
H3795 H 0.05307 0.97158 0.86391 0.0
H3796 H 0.05552 0.9409 0.90326 0.0
H3797 H 0.06508 0.89101 0.82037 0.0
H3798 H 0.05074 0.80033 0.89792 0.0
H3799 H 0.0533 0.8321 0.86452 0.0
C3800 C 0.30547 0.68551 0.73503 0.0
C3801 C 0.30621 0.70237 0.70958 0.0
C3802 C 0.30635 0.66744 0.71515 0.0
C3803 C 0.30126 0.64283 0.61144 0.0
H3804 H 0.31798 0.6017 0.66012 0.0
C3805 C 0.30213 0.56862 0.52713 0.0
C3806 C 0.30303 0.55212 0.55358 0.0
C3807 C 0.30358 0.58691 0.5452 0.0
C3808 C 0.31313 0.61289 0.64637 0.0
H3809 H 0.30856 0.71359 0.64338 0.0
H3810 H 0.30982 0.68182 0.60819 0.0
H3811 H 0.31872 0.6337 0.69312 0.0
H3812 H 0.30624 0.54174 0.61975 0.0
H3813 H 0.30831 0.57374 0.65216 0.0
H3814 H 0.29522 0.62212 0.56624 0.0
C3815 C 0.30869 0.68267 0.64371 0.0
C3816 C 0.31364 0.6313 0.66514 0.0
C3817 C 0.30803 0.70082 0.66382 0.0
C3818 C 0.30556 0.55424 0.59855 0.0
C3819 C 0.3068 0.57264 0.61699 0.0
C3820 C 0.3006 0.62439 0.59318 0.0
C3821 C 0.30777 0.66578 0.66917 0.0
C3822 C 0.30771 0.64647 0.64786 0.0
C3823 C 0.30572 0.5893 0.59063 0.0
C3824 C 0.30654 0.60908 0.61025 0.0
H3825 H 0.30406 0.68629 0.77038 0.0
H3826 H 0.30552 0.65472 0.73558 0.0
H3827 H 0.29645 0.65414 0.5979 0.0
H3828 H 0.30031 0.56742 0.4922 0.0
H3829 H 0.30298 0.59918 0.52329 0.0
C3830 C 0.94285 0.68963 0.51601 0.0
C3831 C 0.94129 0.7057 0.5433 0.0
C3832 C 0.94153 0.67102 0.53246 0.0
C3833 C 0.93089 0.64308 0.62836 0.0
H3834 H 0.94979 0.60404 0.58549 0.0
C3835 C 0.93958 0.57255 0.72155 0.0
C3836 C 0.9405 0.55541 0.69733 0.0
C3837 C 0.93815 0.5901 0.70003 0.0
C3838 C 0.94434 0.61468 0.59728 0.0
H3839 H 0.93702 0.71493 0.60924 0.0
H3840 H 0.93506 0.68236 0.63882 0.0
H3841 H 0.95056 0.63634 0.55477 0.0
H3842 H 0.94054 0.5431 0.63151 0.0
H3843 H 0.9382 0.5741 0.59332 0.0
H3844 H 0.92505 0.62144 0.67242 0.0
C3845 C 0.93705 0.68408 0.6042 0.0
C3846 C 0.94476 0.63328 0.57964 0.0
C3847 C 0.93822 0.70279 0.58741 0.0
C3848 C 0.93972 0.55609 0.65094 0.0
C3849 C 0.93848 0.57382 0.62919 0.0
C3850 C 0.93058 0.62453 0.64639 0.0
C3851 C 0.9388 0.66788 0.57703 0.0
C3852 C 0.93808 0.64784 0.59509 0.0
C3853 C 0.93777 0.59104 0.65359 0.0
C3854 C 0.93736 0.61015 0.63132 0.0
H3855 H 0.94512 0.69143 0.48169 0.0
H3856 H 0.94269 0.65908 0.51003 0.0
H3857 H 0.92548 0.65368 0.64061 0.0
H3858 H 0.94017 0.57245 0.75737 0.0
H3859 H 0.93775 0.60307 0.71979 0.0
C3860 C 0.68427 0.45119 0.43254 0.0
C3861 C 0.69306 0.45562 0.45793 0.0
C3862 C 0.68277 0.4325 0.41632 0.0
C3863 C 0.68929 0.38208 0.43729 0.0
H3864 H 0.68478 0.37436 0.31168 0.0
C3865 C 0.69242 0.30677 0.35583 0.0
C3866 C 0.68684 0.30318 0.31682 0.0
C3867 C 0.69221 0.32504 0.37543 0.0
C3868 C 0.68579 0.37612 0.34704 0.0
H3869 H 0.70709 0.44397 0.48654 0.0
H3870 H 0.70432 0.41136 0.45924 0.0
H3871 H 0.68598 0.40684 0.34098 0.0
H3872 H 0.67615 0.31534 0.26936 0.0
H3873 H 0.67526 0.34671 0.30467 0.0
H3874 H 0.6889 0.35149 0.4439 0.0
C3875 C 0.69864 0.4223 0.45166 0.0
C3876 C 0.68654 0.39483 0.36372 0.0
C3877 C 0.70025 0.44101 0.46706 0.0
C3878 C 0.6806 0.3178 0.29923 0.0
C3879 C 0.68021 0.33589 0.31927 0.0
C3880 C 0.68835 0.36334 0.4208 0.0
C3881 C 0.68991 0.41784 0.42603 0.0
C3882 C 0.68843 0.39801 0.4089 0.0
C3883 C 0.68625 0.34003 0.35691 0.0
C3884 C 0.6867 0.36004 0.37527 0.0
H3885 H 0.67862 0.46218 0.42496 0.0
H3886 H 0.67597 0.42944 0.39665 0.0
H3887 H 0.69066 0.38412 0.4724 0.0
H3888 H 0.69735 0.29578 0.36992 0.0
H3889 H 0.69707 0.32756 0.40402 0.0
C3890 C 0.06211 0.318 0.43873 0.0
C3891 C 0.05247 0.30867 0.43773 0.0
C3892 C 0.06316 0.33668 0.42166 0.0
C3893 C 0.05253 0.36985 0.34077 0.0
H3894 H 0.06046 0.41167 0.41854 0.0
C3895 C 0.04485 0.44779 0.28993 0.0
C3896 C 0.0516 0.46249 0.30312 0.0
C3897 C 0.0459 0.4292 0.30662 0.0
C3898 C 0.05842 0.40019 0.396 0.0
H3899 H 0.03652 0.31115 0.41684 0.0
H3900 H 0.03847 0.34335 0.38542 0.0
H3901 H 0.06103 0.37851 0.44561 0.0
H3902 H 0.06476 0.4693 0.34447 0.0
H3903 H 0.06689 0.43645 0.37276 0.0
H3904 H 0.05013 0.39106 0.29077 0.0
C3905 C 0.04514 0.33644 0.40011 0.0
C3906 C 0.05872 0.38119 0.41166 0.0
C3907 C 0.04403 0.31805 0.41812 0.0
C3908 C 0.05942 0.45823 0.33388 0.0
C3909 C 0.0606 0.4394 0.35015 0.0
C3910 C 0.05241 0.38872 0.32485 0.0
C3911 C 0.05467 0.34606 0.40221 0.0
C3912 C 0.05555 0.36591 0.38445 0.0
C3913 C 0.05389 0.42455 0.33637 0.0
C3914 C 0.05507 0.40427 0.35254 0.0
H3915 H 0.06873 0.31111 0.45389 0.0
H3916 H 0.07059 0.34379 0.42349 0.0
H3917 H 0.05016 0.3583 0.31896 0.0
H3918 H 0.03866 0.45068 0.26667 0.0
H3919 H 0.04034 0.4185 0.2962 0.0
C3920 C 0.80451 0.05749 0.59926 0.0
C3921 C 0.80211 0.05582 0.55401 0.0
C3922 C 0.8054 0.0757 0.61905 0.0
C3923 C 0.81028 0.12696 0.59546 0.0
H3924 H 0.79357 0.13687 0.69943 0.0
C3925 C 0.80399 0.20452 0.66309 0.0
C3926 C 0.80204 0.20687 0.70853 0.0
C3927 C 0.80481 0.18602 0.64468 0.0
C3928 C 0.79849 0.13441 0.671 0.0
H3929 H 0.79911 0.07184 0.49378 0.0
H3930 H 0.80095 0.10345 0.5279 0.0
H3931 H 0.79406 0.10473 0.66803 0.0
H3932 H 0.79993 0.19182 0.77066 0.0
H3933 H 0.80193 0.15989 0.73957 0.0
H3934 H 0.81492 0.15645 0.59869 0.0
C3935 C 0.80206 0.09078 0.54822 0.0
C3936 C 0.79871 0.11588 0.65289 0.0
C3937 C 0.80095 0.07266 0.52874 0.0
C3938 C 0.80133 0.19046 0.7354 0.0
C3939 C 0.80237 0.17206 0.71732 0.0
C3940 C 0.81022 0.14545 0.61405 0.0
C3941 C 0.80414 0.09256 0.59372 0.0
C3942 C 0.80453 0.11196 0.61468 0.0
C3943 C 0.8039 0.16944 0.67149 0.0
C3944 C 0.80425 0.14955 0.65199 0.0
H3945 H 0.80539 0.04476 0.61957 0.0
H3946 H 0.80704 0.07661 0.65418 0.0
H3947 H 0.81489 0.12436 0.5661 0.0
H3948 H 0.8045 0.21694 0.64153 0.0
H3949 H 0.80586 0.1848 0.60922 0.0
C3950 C 0.44431 0.1935 0.5177 0.0
C3951 C 0.44245 0.20986 0.54372 0.0
C3952 C 0.44315 0.17506 0.53538 0.0
C3953 C 0.43232 0.14789 0.63206 0.0
H3954 H 0.45161 0.10887 0.59237 0.0
C3955 C 0.43998 0.07692 0.72648 0.0
C3956 C 0.44113 0.0599 0.70198 0.0
C3957 C 0.43886 0.09463 0.70517 0.0
C3958 C 0.44606 0.1195 0.60334 0.0
H3959 H 0.43784 0.21976 0.60871 0.0
H3960 H 0.43613 0.1875 0.64042 0.0
H3961 H 0.45241 0.14098 0.5607 0.0
H3962 H 0.4421 0.04805 0.6359 0.0
H3963 H 0.44021 0.07919 0.59818 0.0
H3964 H 0.4263 0.1264 0.6761 0.0
C3965 C 0.43824 0.18886 0.60585 0.0
C3966 C 0.44649 0.138 0.58512 0.0
C3967 C 0.43927 0.20739 0.58783 0.0
C3968 C 0.44099 0.06088 0.65552 0.0
C3969 C 0.44004 0.07873 0.63405 0.0
C3970 C 0.43198 0.12943 0.65067 0.0
C3971 C 0.44027 0.17239 0.57995 0.0
C3972 C 0.43965 0.15253 0.59922 0.0
C3973 C 0.43906 0.09584 0.65871 0.0
C3974 C 0.43887 0.11503 0.63666 0.0
H3975 H 0.44668 0.19493 0.48342 0.0
H3976 H 0.44451 0.16289 0.51386 0.0
H3977 H 0.42679 0.15848 0.64333 0.0
H3978 H 0.44013 0.07659 0.76238 0.0
H3979 H 0.43825 0.10749 0.72519 0.0
C3980 C 0.18198 0.95479 0.42833 0.0
C3981 C 0.19167 0.96148 0.44261 0.0
C3982 C 0.18094 0.93622 0.41061 0.0
C3983 C 0.18042 0.89215 0.39823 0.0
H3984 H 0.20221 0.87386 0.32089 0.0
C3985 C 0.18499 0.81187 0.34386 0.0
C3986 C 0.18857 0.80864 0.30054 0.0
C3987 C 0.18443 0.83066 0.36079 0.0
C3988 C 0.19599 0.87873 0.34208 0.0
H3989 H 0.20787 0.95405 0.44919 0.0
H3990 H 0.20608 0.92193 0.41885 0.0
H3991 H 0.20289 0.90643 0.34927 0.0
H3992 H 0.19389 0.82248 0.24035 0.0
H3993 H 0.19271 0.85496 0.26921 0.0
H3994 H 0.17347 0.86433 0.3903 0.0
C3995 C 0.19927 0.93093 0.42077 0.0
C3996 C 0.19645 0.89741 0.35883 0.0
C3997 C 0.20029 0.94935 0.43845 0.0
C3998 C 0.1912 0.82449 0.27405 0.0
C3999 C 0.19059 0.84314 0.29073 0.0
C4000 C 0.17996 0.87336 0.3814 0.0
C4001 C 0.1896 0.92407 0.40655 0.0
C4002 C 0.18872 0.90437 0.38736 0.0
C4003 C 0.18742 0.84651 0.33461 0.0
C4004 C 0.18775 0.86642 0.35305 0.0
H4005 H 0.1752 0.96383 0.43114 0.0
H4006 H 0.1734 0.93146 0.3996 0.0
H4007 H 0.17438 0.89699 0.42041 0.0
H4008 H 0.18292 0.79989 0.36501 0.0
H4009 H 0.182 0.8327 0.3948 0.0
C4010 C 0.55074 0.805 0.41188 0.0
C4011 C 0.55503 0.80219 0.45412 0.0
C4012 C 0.55113 0.82315 0.39166 0.0
C4013 C 0.55448 0.8749 0.42076 0.0
H4014 H 0.55578 0.88138 0.29335 0.0
C4015 C 0.55584 0.94993 0.33383 0.0
C4016 C 0.54898 0.95199 0.29808 0.0
C4017 C 0.55748 0.9318 0.35317 0.0
C4018 C 0.55538 0.8798 0.32903 0.0
H4019 H 0.56362 0.81578 0.50713 0.0
H4020 H 0.56463 0.84709 0.47148 0.0
H4021 H 0.55726 0.84929 0.3252 0.0
H4022 H 0.53858 0.93664 0.25425 0.0
H4023 H 0.5415 0.90529 0.28741 0.0
H4024 H 0.55264 0.9055 0.42434 0.0
C4025 C 0.56064 0.83561 0.4544 0.0
C4026 C 0.55619 0.86136 0.34732 0.0
C4027 C 0.56015 0.81757 0.47472 0.0
C4028 C 0.54391 0.93559 0.28183 0.0
C4029 C 0.54562 0.91755 0.30066 0.0
C4030 C 0.55378 0.89335 0.40245 0.0
C4031 C 0.55591 0.83883 0.41308 0.0
C4032 C 0.55562 0.85859 0.39346 0.0
C4033 C 0.55243 0.91538 0.33651 0.0
C4034 C 0.55407 0.896 0.35633 0.0
H4035 H 0.5467 0.79341 0.39528 0.0
H4036 H 0.54732 0.82503 0.36002 0.0
H4037 H 0.55382 0.87341 0.45637 0.0
H4038 H 0.56004 0.96219 0.34631 0.0
H4039 H 0.56285 0.93056 0.38057 0.0
C4040 C 0.80166 0.68849 0.24922 0.0
C4041 C 0.80334 0.70475 0.22259 0.0
C4042 C 0.80288 0.66997 0.23203 0.0
C4043 C 0.81358 0.64277 0.13517 0.0
H4044 H 0.79439 0.60354 0.17497 0.0
C4045 C 0.80453 0.5741 0.03621 0.0
C4046 C 0.80354 0.55654 0.05876 0.0
C4047 C 0.80601 0.59122 0.05938 0.0
C4048 C 0.79992 0.61423 0.16404 0.0
H4049 H 0.80771 0.71441 0.15705 0.0
H4050 H 0.80953 0.68208 0.12626 0.0
H4051 H 0.79378 0.63547 0.20784 0.0
H4052 H 0.80346 0.543 0.12336 0.0
H4053 H 0.80583 0.5733 0.1645 0.0
H4054 H 0.81935 0.62161 0.08986 0.0
C4055 C 0.80751 0.68354 0.16092 0.0
C4056 C 0.79959 0.63262 0.18291 0.0
C4057 C 0.80642 0.70212 0.17841 0.0
C4058 C 0.80429 0.55635 0.1052 0.0
C4059 C 0.80557 0.57367 0.12864 0.0
C4060 C 0.81381 0.62445 0.11596 0.0
C4061 C 0.80567 0.66715 0.1874 0.0
C4062 C 0.80635 0.64726 0.16847 0.0
C4063 C 0.80636 0.59132 0.10587 0.0
C4064 C 0.80691 0.61003 0.12982 0.0
H4065 H 0.79935 0.69006 0.28355 0.0
H4066 H 0.80163 0.65787 0.25391 0.0
H4067 H 0.81906 0.65342 0.12372 0.0
H4068 H 0.80396 0.57468 1.00041 0.0
H4069 H 0.80647 0.60453 0.04085 0.0
C4070 C 0.44393 0.57945 0.24808 0.0
C4071 C 0.44022 0.56336 0.22491 0.0
C4072 C 0.44292 0.59794 0.23048 0.0
C4073 C 0.43977 0.62324 0.1238 0.0
H4074 H 0.43605 0.66778 0.19942 0.0
C4075 C 0.45112 0.69836 0.06448 0.0
C4076 C 0.44468 0.71407 0.07406 0.0
C4077 C 0.44945 0.6805 0.08413 0.0
C4078 C 0.43698 0.65551 0.17774 0.0
H4079 H 0.43232 0.55405 0.16547 0.0
H4080 H 0.43045 0.58647 0.13458 0.0
H4081 H 0.43456 0.63551 0.2308 0.0
H4082 H 0.43151 0.72338 0.11254 0.0
H4083 H 0.42857 0.69191 0.14762 0.0
H4084 H 0.44216 0.64315 0.07078 0.0
C4085 C 0.43426 0.58476 0.16629 0.0
C4086 C 0.43624 0.63697 0.1958 0.0
C4087 C 0.43527 0.56619 0.18401 0.0
C4088 C 0.43667 0.71162 0.10496 0.0
C4089 C 0.43497 0.69357 0.12483 0.0
C4090 C 0.44051 0.64172 0.10581 0.0
C4091 C 0.43815 0.60089 0.18915 0.0
C4092 C 0.43783 0.62057 0.16924 0.0
C4093 C 0.44125 0.67769 0.1139 0.0
C4094 C 0.43936 0.65812 0.13269 0.0
H4095 H 0.4478 0.57775 0.27967 0.0
H4096 H 0.44618 0.60986 0.24878 0.0
H4097 H 0.44112 0.61105 0.10229 0.0
H4098 H 0.45742 0.69978 0.04106 0.0
H4099 H 0.45462 0.66881 0.07577 0.0
C4100 C 0.2026 0.31887 0.82948 0.0
C4101 C 0.19373 0.30794 0.82047 0.0
C4102 C 0.20177 0.33748 0.84639 0.0
C4103 C 0.18423 0.37898 0.85304 0.0
H4104 H 0.20366 0.39611 0.94246 0.0
C4105 C 0.18369 0.45606 0.93038 0.0
C4106 C 0.19337 0.46442 0.93907 0.0
C4107 C 0.183 0.43689 0.91614 0.0
C4108 C 0.19823 0.39166 0.91712 0.0
H4109 H 0.177 0.3078 0.82278 0.0
H4110 H 0.17552 0.34057 0.85236 0.0
H4111 H 0.20366 0.36264 0.91932 0.0
H4112 H 0.20991 0.45961 0.93752 0.0
H4113 H 0.20874 0.42654 0.91207 0.0
H4114 H 0.17892 0.40817 0.85047 0.0
C4115 C 0.18313 0.3347 0.84605 0.0
C4116 C 0.19822 0.37242 0.90396 0.0
C4117 C 0.18397 0.31592 0.82941 0.0
C4118 C 0.20233 0.45352 0.93161 0.0
C4119 C 0.20165 0.43447 0.91733 0.0
C4120 C 0.18426 0.39832 0.86617 0.0
C4121 C 0.19204 0.34572 0.85461 0.0
C4122 C 0.19134 0.36587 0.87122 0.0
C4123 C 0.19198 0.42574 0.91026 0.0
C4124 C 0.1914 0.40498 0.89784 0.0
H4125 H 0.21023 0.31312 0.82301 0.0
H4126 H 0.20879 0.3456 0.85205 0.0
H4127 H 0.17888 0.37444 0.82751 0.0
H4128 H 0.17665 0.46413 0.93583 0.0
H4129 H 0.17543 0.43064 0.9111 0.0
C4130 C 0.55812 0.3174 0.9727 0.0
C4131 C 0.55431 0.30136 0.94966 0.0
C4132 C 0.55896 0.33528 0.95187 0.0
C4133 C 0.54781 0.36309 0.85964 0.0
H4134 H 0.57016 0.39856 0.88487 0.0
C4135 C 0.55047 0.43646 0.77207 0.0
C4136 C 0.55339 0.4525 0.79737 0.0
C4137 C 0.55135 0.41789 0.78922 0.0
C4138 C 0.56381 0.38892 0.87783 0.0
H4139 H 0.54877 0.29127 0.88607 0.0
H4140 H 0.55027 0.32259 0.84935 0.0
H4141 H 0.57061 0.36611 0.91566 0.0
H4142 H 0.55969 0.46167 0.86036 0.0
H4143 H 0.56114 0.42909 0.89086 0.0
H4144 H 0.54092 0.38588 0.82242 0.0
C4145 C 0.55249 0.32137 0.88383 0.0
C4146 C 0.56407 0.37027 0.89538 0.0
C4147 C 0.5517 0.3034 0.90472 0.0
C4148 C 0.55742 0.44955 0.84006 0.0
C4149 C 0.55827 0.43088 0.8574 0.0
C4150 C 0.54753 0.38172 0.84218 0.0
C4151 C 0.55599 0.33762 0.90739 0.0
C4152 C 0.55605 0.35712 0.88666 0.0
C4153 C 0.55512 0.41481 0.83234 0.0
C4154 C 0.55551 0.39492 0.85106 0.0
H4155 H 0.56022 0.31629 0.00736 0.0
H4156 H 0.56158 0.34744 0.97122 0.0
H4157 H 0.54139 0.35353 0.85291 0.0
H4158 H 0.5474 0.43825 0.73893 0.0
H4159 H 0.54905 0.40592 0.76855 0.0
loop_
_geom_bond_atom_site_label_1
_geom_bond_atom_site_label_2
_geom_bond_distance
_geom_bond_site_symmetry_2
_ccdc_geom_bond_type
Pr0 C2 2.880 . S
Pr0 O20 2.562 . S
Pr0 O21 2.490 . S
Pr0 O22 2.695 . S
Pr0 O23 2.512 . S
Pr0 O25 2.437 . S
Pr0 O28 2.436 . S
Pr0 O30 2.438 . S
Pr1 C11 2.880 . S
Pr1 O22 2.436 . S
Pr1 O24 2.438 . S
Pr1 O26 2.562 . S
Pr1 O27 2.490 . S
Pr1 O28 2.695 . S
Pr1 O29 2.512 . S
Pr1 O31 2.437 . S
C2 Pr0 2.880 . S
C2 C3 1.491 . S
C2 O20 1.254 . S
C2 O21 1.225 . S
C3 C2 1.491 . S
C3 C4 1.392 . S
C3 C8 1.356 . S
C4 C3 1.392 . S
C4 C5 1.368 1_554 S
C4 H32 0.929 . S
C5 C4 1.368 1_556 S
C5 C6 1.386 . S
C5 H33 0.929 . S
C6 C5 1.386 . S
C6 C7 1.373 . S
C7 C6 1.373 . S
C7 C8 1.409 1_556 S
C7 H34 0.931 . S
C8 C3 1.356 . S
C8 C7 1.409 1_554 S
C8 H35 0.930 . S
C9 O22 1.270 . S
C9 O23 1.248 . S
C10 O24 1.267 . S
C10 O25 1.278 . S
C11 Pr1 2.880 . S
C11 C12 1.491 . S
C11 O26 1.254 . S
C11 O27 1.225 . S
C12 C11 1.491 . S
C12 C13 1.392 . S
C12 C17 1.356 . S
C13 C12 1.392 . S
C13 C14 1.368 . S
C13 H36 0.929 . S
C14 C13 1.368 . S
C14 C15 1.386 . S
C14 H37 0.929 . S
C15 C14 1.386 . S
C15 C16 1.373 . S
C16 C15 1.373 . S
C16 C17 1.409 . S
C16 H38 0.931 . S
C17 C12 1.356 . S
C17 C16 1.409 . S
C17 H39 0.930 . S
C18 O28 1.270 . S
C18 O29 1.248 . S
C19 O30 1.267 . S
C19 O31 1.278 . S
O20 Pr0 2.562 . S
O20 C2 1.254 . S
O21 Pr0 2.490 . S
O21 C2 1.225 . S
O22 Pr0 2.695 . S
O22 Pr1 2.436 . S
O22 C9 1.270 . S
O23 Pr0 2.512 . S
O23 C9 1.248 . S
O24 Pr1 2.438 . S
O24 C10 1.267 . S
O25 Pr0 2.437 . S
O25 C10 1.278 . S
O26 Pr1 2.562 . S
O26 C11 1.254 . S
O27 Pr1 2.490 . S
O27 C11 1.225 . S
O28 Pr0 2.436 . S
O28 Pr1 2.695 . S
O28 C18 1.270 . S
O29 Pr1 2.512 . S
O29 C18 1.248 . S
O30 Pr0 2.438 . S
O30 C19 1.267 . S
O31 Pr1 2.437 . S
O31 C19 1.278 . S
H32 C4 0.929 . S
H33 C5 0.929 . S
H34 C7 0.931 . S
H35 C8 0.930 . S
H36 C13 0.929 . S
H37 C14 0.929 . S
H38 C16 0.931 . S
H39 C17 0.930 . S
Pr40 C42 2.880 . S
Pr40 O60 2.562 1_565 S
Pr40 O61 2.490 . S
Pr40 O62 2.695 . S
Pr40 O63 2.512 . S
Pr40 O65 2.437 . S
Pr40 O68 2.436 1_565 S
Pr40 O70 2.438 . S
Pr41 C51 2.880 . S
Pr41 O62 2.436 1_545 S
Pr41 O64 2.438 . S
Pr41 O66 2.562 1_545 S
Pr41 O67 2.490 . S
Pr41 O68 2.695 . S
Pr41 O69 2.512 . S
Pr41 O71 2.437 . S
C42 Pr40 2.880 . S
C42 C43 1.491 . S
C42 O60 1.254 1_565 S
C42 O61 1.225 . S
C43 C42 1.491 . S
C43 C44 1.392 . S
C43 C48 1.356 1_565 S
C44 C43 1.392 . S
C44 C45 1.368 1_554 S
C44 H72 0.929 . S
C45 C44 1.368 1_556 S
C45 C46 1.386 . S
C45 H73 0.929 . S
C46 C45 1.386 . S
C46 C47 1.428 . S
C47 C46 1.428 . S
C47 C48 1.404 1_566 S
C47 H74 0.883 1_565 S
C48 C43 1.356 1_545 S
C48 C47 1.404 1_544 S
C48 H75 0.930 . S
C49 O62 1.270 . S
C49 O63 1.248 . S
C50 O64 1.267 1_565 S
C50 O65 1.278 . S
C51 Pr41 2.880 . S
C51 C52 1.491 . S
C51 O66 1.254 1_545 S
C51 O67 1.225 . S
C52 C51 1.491 . S
C52 C53 1.392 . S
C52 C57 1.356 1_545 S
C53 C52 1.392 . S
C53 C54 1.368 . S
C53 H76 0.929 . S
C54 C53 1.368 . S
C54 C55 1.386 . S
C54 H77 0.929 . S
C55 C54 1.386 . S
C55 C56 1.416 . S
C56 C55 1.416 . S
C56 C57 1.405 1_545 S
C56 H78 0.894 1_545 S
C57 C52 1.356 1_565 S
C57 C56 1.405 1_565 S
C57 H79 0.930 . S
C58 O68 1.270 . S
C58 O69 1.248 . S
C59 O70 1.267 1_545 S
C59 O71 1.278 . S
O60 Pr40 2.562 1_545 S
O60 C42 1.254 1_545 S
O61 Pr40 2.490 . S
O61 C42 1.225 . S
O62 Pr40 2.695 . S
O62 Pr41 2.436 1_565 S
O62 C49 1.270 . S
O63 Pr40 2.512 . S
O63 C49 1.248 . S
O64 Pr41 2.438 . S
O64 C50 1.267 1_545 S
O65 Pr40 2.437 . S
O65 C50 1.278 . S
O66 Pr41 2.562 1_565 S
O66 C51 1.254 1_565 S
O67 Pr41 2.490 . S
O67 C51 1.225 . S
O68 Pr40 2.436 1_545 S
O68 Pr41 2.695 . S
O68 C58 1.270 . S
O69 Pr41 2.512 . S
O69 C58 1.248 . S
O70 Pr40 2.438 . S
O70 C59 1.267 1_565 S
O71 Pr41 2.437 . S
O71 C59 1.278 . S
H72 C44 0.929 . S
H73 C45 0.929 . S
H74 C47 0.883 1_545 S
H75 C48 0.930 . S
H76 C53 0.929 . S
H77 C54 0.929 . S
H78 C56 0.894 1_565 S
H79 C57 0.930 . S
Pr80 C82 2.880 . S
Pr80 O100 2.562 1_565 S
Pr80 O101 2.490 . S
Pr80 O102 2.695 . S
Pr80 O103 2.512 . S
Pr80 O105 2.437 . S
Pr80 O108 2.436 1_565 S
Pr80 O110 2.438 . S
Pr81 C91 2.880 . S
Pr81 O102 2.436 1_546 S
Pr81 O104 2.438 1_556 S
Pr81 O106 2.562 1_545 S
Pr81 O107 2.490 . S
Pr81 O108 2.695 1_556 S
Pr81 O109 2.512 1_556 S
Pr81 O111 2.437 . S
C82 Pr80 2.880 . S
C82 C83 1.491 . S
C82 O100 1.254 1_565 S
C82 O101 1.225 . S
C83 C82 1.491 . S
C83 C84 1.392 . S
C83 C88 1.356 1_565 S
C84 C83 1.392 . S
C84 C85 1.368 . S
C84 H112 0.929 . S
C85 C84 1.368 . S
C85 C86 1.386 . S
C85 H113 0.929 . S
C86 C85 1.386 . S
C86 C87 1.428 . S
C87 C86 1.428 . S
C87 C88 1.404 1_565 S
C87 H114 0.883 1_565 S
C88 C83 1.356 1_545 S
C88 C87 1.404 1_545 S
C88 H115 0.930 . S
C89 O102 1.270 . S
C89 O103 1.248 . S
C90 O104 1.267 1_565 S
C90 O105 1.278 . S
C91 Pr81 2.880 . S
C91 C92 1.491 . S
C91 O106 1.254 1_545 S
C91 O107 1.225 . S
C92 C91 1.491 . S
C92 C93 1.392 . S
C92 C97 1.356 1_545 S
C93 C92 1.392 . S
C93 C94 1.368 . S
C93 H116 0.929 . S
C94 C93 1.368 . S
C94 C95 1.386 . S
C94 H117 0.929 . S
C95 C94 1.386 . S
C95 C96 1.416 . S
C96 C95 1.416 . S
C96 C97 1.405 1_545 S
C96 H118 0.894 1_545 S
C97 C92 1.356 1_565 S
C97 C96 1.405 1_565 S
C97 H119 0.930 . S
C98 O108 1.270 . S
C98 O109 1.248 . S
C99 O110 1.267 1_546 S
C99 O111 1.278 . S
O100 Pr80 2.562 1_545 S
O100 C82 1.254 1_545 S
O101 Pr80 2.490 . S
O101 C82 1.225 . S
O102 Pr80 2.695 . S
O102 Pr81 2.436 1_564 S
O102 C89 1.270 . S
O103 Pr80 2.512 . S
O103 C89 1.248 . S
O104 Pr81 2.438 1_554 S
O104 C90 1.267 1_545 S
O105 Pr80 2.437 . S
O105 C90 1.278 . S
O106 Pr81 2.562 1_565 S
O106 C91 1.254 1_565 S
O107 Pr81 2.490 . S
O107 C91 1.225 . S
O108 Pr80 2.436 1_545 S
O108 Pr81 2.695 1_554 S
O108 C98 1.270 . S
O109 Pr81 2.512 1_554 S
O109 C98 1.248 . S
O110 Pr80 2.438 . S
O110 C99 1.267 1_564 S
O111 Pr81 2.437 . S
O111 C99 1.278 . S
H112 C84 0.929 . S
H113 C85 0.929 . S
H114 C87 0.883 1_545 S
H115 C88 0.930 . S
H116 C93 0.929 . S
H117 C94 0.929 . S
H118 C96 0.894 1_565 S
H119 C97 0.930 . S
Pr120 C122 2.880 . S
Pr120 O140 2.562 . S
Pr120 O141 2.490 . S
Pr120 O142 2.695 . S
Pr120 O143 2.512 . S
Pr120 O145 2.437 . S
Pr120 O148 2.436 . S
Pr120 O150 2.438 . S
Pr121 C131 2.880 . S
Pr121 O142 2.436 1_556 S
Pr121 O144 2.438 1_556 S
Pr121 O146 2.562 . S
Pr121 O147 2.490 . S
Pr121 O148 2.695 1_556 S
Pr121 O149 2.512 1_556 S
Pr121 O151 2.437 . S
C122 Pr120 2.880 . S
C122 C123 1.491 . S
C122 O140 1.254 . S
C122 O141 1.225 . S
C123 C122 1.491 . S
C123 C124 1.392 . S
C123 C128 1.356 . S
C124 C123 1.392 . S
C124 C125 1.368 . S
C124 H152 0.929 . S
C125 C124 1.368 . S
C125 C126 1.386 . S
C125 H153 0.929 . S
C126 C125 1.386 . S
C126 C127 1.373 . S
C127 C126 1.373 . S
C127 C128 1.409 . S
C127 H154 0.931 . S
C128 C123 1.356 . S
C128 C127 1.409 . S
C128 H155 0.930 . S
C129 O142 1.270 . S
C129 O143 1.248 . S
C130 O144 1.267 . S
C130 O145 1.278 . S
C131 Pr121 2.880 . S
C131 C132 1.491 . S
C131 O146 1.254 . S
C131 O147 1.225 . S
C132 C131 1.491 . S
C132 C133 1.392 . S
C132 C137 1.356 . S
C133 C132 1.392 . S
C133 C134 1.368 . S
C133 H156 0.929 . S
C134 C133 1.368 . S
C134 C135 1.386 . S
C134 H157 0.929 . S
C135 C134 1.386 . S
C135 C136 1.373 . S
C136 C135 1.373 . S
C136 C137 1.409 . S
C136 H158 0.931 . S
C137 C132 1.356 . S
C137 C136 1.409 . S
C137 H159 0.930 . S
C138 O148 1.270 . S
C138 O149 1.248 . S
C139 O150 1.267 1_556 S
C139 O151 1.278 . S
O140 Pr120 2.562 . S
O140 C122 1.254 . S
O141 Pr120 2.490 . S
O141 C122 1.225 . S
O142 Pr120 2.695 . S
O142 Pr121 2.436 1_554 S
O142 C129 1.270 . S
O143 Pr120 2.512 . S
O143 C129 1.248 . S
O144 Pr121 2.438 1_554 S
O144 C130 1.267 . S
O145 Pr120 2.437 . S
O145 C130 1.278 . S
O146 Pr121 2.562 . S
O146 C131 1.254 . S
O147 Pr121 2.490 . S
O147 C131 1.225 . S
O148 Pr120 2.436 . S
O148 Pr121 2.695 1_554 S
O148 C138 1.270 . S
O149 Pr121 2.512 1_554 S
O149 C138 1.248 . S
O150 Pr120 2.438 . S
O150 C139 1.267 1_554 S
O151 Pr121 2.437 . S
O151 C139 1.278 . S
H152 C124 0.929 . S
H153 C125 0.929 . S
H154 C127 0.931 . S
H155 C128 0.930 . S
H156 C133 0.929 . S
H157 C134 0.929 . S
H158 C136 0.931 . S
H159 C137 0.930 . S
Pr160 C162 2.880 . S
Pr160 O180 2.562 . S
Pr160 O181 2.490 . S
Pr160 O182 2.695 . S
Pr160 O183 2.512 . S
Pr160 O185 2.437 . S
Pr160 O188 2.436 . S
Pr160 O190 2.438 . S
Pr161 C171 2.880 . S
Pr161 O182 2.436 . S
Pr161 O184 2.438 . S
Pr161 O186 2.562 . S
Pr161 O187 2.490 . S
Pr161 O188 2.695 . S
Pr161 O189 2.512 . S
Pr161 O191 2.437 . S
C162 Pr160 2.880 . S
C162 C163 1.491 . S
C162 O180 1.254 . S
C162 O181 1.225 . S
C163 C162 1.491 . S
C163 C164 1.392 . S
C163 C168 1.356 . S
C164 C163 1.392 . S
C164 C165 1.368 . S
C164 H192 0.929 . S
C165 C164 1.368 . S
C165 C166 1.386 . S
C165 H193 0.929 . S
C166 C165 1.386 . S
C166 C167 1.373 . S
C167 C166 1.373 . S
C167 C168 1.409 . S
C167 H194 0.931 . S
C168 C163 1.356 . S
C168 C167 1.409 . S
C168 H195 0.930 . S
C169 O182 1.270 . S
C169 O183 1.248 . S
C170 O184 1.267 . S
C170 O185 1.278 . S
C171 Pr161 2.880 . S
C171 C172 1.491 . S
C171 O186 1.254 . S
C171 O187 1.225 . S
C172 C171 1.491 . S
C172 C173 1.392 . S
C172 C177 1.356 . S
C173 C172 1.392 . S
C173 C174 1.368 1_556 S
C173 H196 0.929 . S
C174 C173 1.368 1_554 S
C174 C175 1.386 . S
C174 H197 0.929 . S
C175 C174 1.386 . S
C175 C176 1.373 . S
C176 C175 1.373 . S
C176 C177 1.409 1_554 S
C176 H198 0.931 . S
C177 C172 1.356 . S
C177 C176 1.409 1_556 S
C177 H199 0.930 . S
C178 O188 1.270 . S
C178 O189 1.248 . S
C179 O190 1.267 . S
C179 O191 1.278 . S
O180 Pr160 2.562 . S
O180 C162 1.254 . S
O181 Pr160 2.490 . S
O181 C162 1.225 . S
O182 Pr160 2.695 . S
O182 Pr161 2.436 . S
O182 C169 1.270 . S
O183 Pr160 2.512 . S
O183 C169 1.248 . S
O184 Pr161 2.438 . S
O184 C170 1.267 . S
O185 Pr160 2.437 . S
O185 C170 1.278 . S
O186 Pr161 2.562 . S
O186 C171 1.254 . S
O187 Pr161 2.490 . S
O187 C171 1.225 . S
O188 Pr160 2.436 . S
O188 Pr161 2.695 . S
O188 C178 1.270 . S
O189 Pr161 2.512 . S
O189 C178 1.248 . S
O190 Pr160 2.438 . S
O190 C179 1.267 . S
O191 Pr161 2.437 . S
O191 C179 1.278 . S
H192 C164 0.929 . S
H193 C165 0.929 . S
H194 C167 0.931 . S
H195 C168 0.930 . S
H196 C173 0.929 . S
H197 C174 0.929 . S
H198 C176 0.931 . S
H199 C177 0.930 . S
Pr200 C202 2.880 . S
Pr200 O220 2.562 1_565 S
Pr200 O221 2.490 . S
Pr200 O222 2.695 . S
Pr200 O223 2.512 . S
Pr200 O225 2.437 . S
Pr200 O228 2.436 1_565 S
Pr200 O230 2.438 . S
Pr201 C211 2.880 . S
Pr201 O222 2.436 1_545 S
Pr201 O224 2.438 . S
Pr201 O226 2.562 1_545 S
Pr201 O227 2.490 . S
Pr201 O228 2.695 . S
Pr201 O229 2.512 . S
Pr201 O231 2.437 . S
C202 Pr200 2.880 . S
C202 C203 1.491 . S
C202 O220 1.254 1_565 S
C202 O221 1.225 . S
C203 C202 1.491 . S
C203 C204 1.392 . S
C203 C208 1.356 1_565 S
C204 C203 1.392 . S
C204 C205 1.368 . S
C204 H232 0.929 . S
C205 C204 1.368 . S
C205 C206 1.386 . S
C205 H233 0.929 . S
C206 C205 1.386 . S
C206 C207 1.416 . S
C207 C206 1.416 . S
C207 C208 1.405 1_565 S
C207 H234 0.894 1_565 S
C208 C203 1.356 1_545 S
C208 C207 1.405 1_545 S
C208 H235 0.930 . S
C209 O222 1.270 . S
C209 O223 1.248 . S
C210 O224 1.267 1_565 S
C210 O225 1.278 . S
C211 Pr201 2.880 . S
C211 C212 1.491 . S
C211 O226 1.254 1_545 S
C211 O227 1.225 . S
C212 C211 1.491 . S
C212 C213 1.392 . S
C212 C217 1.356 1_545 S
C213 C212 1.392 . S
C213 C214 1.368 1_556 S
C213 H236 0.929 . S
C214 C213 1.368 1_554 S
C214 C215 1.386 . S
C214 H237 0.929 . S
C215 C214 1.386 . S
C215 C216 1.428 . S
C216 C215 1.428 . S
C216 C217 1.404 1_544 S
C216 H238 0.883 1_545 S
C217 C212 1.356 1_565 S
C217 C216 1.404 1_566 S
C217 H239 0.930 . S
C218 O228 1.270 . S
C218 O229 1.248 . S
C219 O230 1.267 1_545 S
C219 O231 1.278 . S
O220 Pr200 2.562 1_545 S
O220 C202 1.254 1_545 S
O221 Pr200 2.490 . S
O221 C202 1.225 . S
O222 Pr200 2.695 . S
O222 Pr201 2.436 1_565 S
O222 C209 1.270 . S
O223 Pr200 2.512 . S
O223 C209 1.248 . S
O224 Pr201 2.438 . S
O224 C210 1.267 1_545 S
O225 Pr200 2.437 . S
O225 C210 1.278 . S
O226 Pr201 2.562 1_565 S
O226 C211 1.254 1_565 S
O227 Pr201 2.490 . S
O227 C211 1.225 . S
O228 Pr200 2.436 1_545 S
O228 Pr201 2.695 . S
O228 C218 1.270 . S
O229 Pr201 2.512 . S
O229 C218 1.248 . S
O230 Pr200 2.438 . S
O230 C219 1.267 1_565 S
O231 Pr201 2.437 . S
O231 C219 1.278 . S
H232 C204 0.929 . S
H233 C205 0.929 . S
H234 C207 0.894 1_545 S
H235 C208 0.930 . S
H236 C213 0.929 . S
H237 C214 0.929 . S
H238 C216 0.883 1_565 S
H239 C217 0.930 . S
Pr240 C242 2.880 . S
Pr240 O260 2.562 1_565 S
Pr240 O261 2.490 . S
Pr240 O262 2.695 1_554 S
Pr240 O263 2.512 1_554 S
Pr240 O265 2.437 . S
Pr240 O268 2.436 1_564 S
Pr240 O270 2.438 1_554 S
Pr241 C251 2.880 . S
Pr241 O262 2.436 1_545 S
Pr241 O264 2.438 . S
Pr241 O266 2.562 1_545 S
Pr241 O267 2.490 . S
Pr241 O268 2.695 . S
Pr241 O269 2.512 . S
Pr241 O271 2.437 . S
C242 Pr240 2.880 . S
C242 C243 1.491 . S
C242 O260 1.254 1_565 S
C242 O261 1.225 . S
C243 C242 1.491 . S
C243 C244 1.392 . S
C243 C248 1.356 1_565 S
C244 C243 1.392 . S
C244 C245 1.368 . S
C244 H272 0.929 . S
C245 C244 1.368 . S
C245 C246 1.386 . S
C245 H273 0.929 . S
C246 C245 1.386 . S
C246 C247 1.416 . S
C247 C246 1.416 . S
C247 C248 1.405 1_565 S
C247 H274 0.894 1_565 S
C248 C243 1.356 1_545 S
C248 C247 1.405 1_545 S
C248 H275 0.930 . S
C249 O262 1.270 . S
C249 O263 1.248 . S
C250 O264 1.267 1_564 S
C250 O265 1.278 . S
C251 Pr241 2.880 . S
C251 C252 1.491 . S
C251 O266 1.254 1_545 S
C251 O267 1.225 . S
C252 C251 1.491 . S
C252 C253 1.392 . S
C252 C257 1.356 1_545 S
C253 C252 1.392 . S
C253 C254 1.368 . S
C253 H276 0.929 . S
C254 C253 1.368 . S
C254 C255 1.386 . S
C254 H277 0.929 . S
C255 C254 1.386 . S
C255 C256 1.428 . S
C256 C255 1.428 . S
C256 C257 1.404 1_545 S
C256 H278 0.883 1_545 S
C257 C252 1.356 1_565 S
C257 C256 1.404 1_565 S
C257 H279 0.930 . S
C258 O268 1.270 . S
C258 O269 1.248 . S
C259 O270 1.267 1_545 S
C259 O271 1.278 . S
O260 Pr240 2.562 1_545 S
O260 C242 1.254 1_545 S
O261 Pr240 2.490 . S
O261 C242 1.225 . S
O262 Pr240 2.695 1_556 S
O262 Pr241 2.436 1_565 S
O262 C249 1.270 . S
O263 Pr240 2.512 1_556 S
O263 C249 1.248 . S
O264 Pr241 2.438 . S
O264 C250 1.267 1_546 S
O265 Pr240 2.437 . S
O265 C250 1.278 . S
O266 Pr241 2.562 1_565 S
O266 C251 1.254 1_565 S
O267 Pr241 2.490 . S
O267 C251 1.225 . S
O268 Pr240 2.436 1_546 S
O268 Pr241 2.695 . S
O268 C258 1.270 . S
O269 Pr241 2.512 . S
O269 C258 1.248 . S
O270 Pr240 2.438 1_556 S
O270 C259 1.267 1_565 S
O271 Pr241 2.437 . S
O271 C259 1.278 . S
H272 C244 0.929 . S
H273 C245 0.929 . S
H274 C247 0.894 1_545 S
H275 C248 0.930 . S
H276 C253 0.929 . S
H277 C254 0.929 . S
H278 C256 0.883 1_565 S
H279 C257 0.930 . S
Pr280 C282 2.880 . S
Pr280 O300 2.562 . S
Pr280 O301 2.490 . S
Pr280 O302 2.695 1_554 S
Pr280 O303 2.512 1_554 S
Pr280 O305 2.437 . S
Pr280 O308 2.436 1_554 S
Pr280 O310 2.438 1_554 S
Pr281 C291 2.880 . S
Pr281 O302 2.436 . S
Pr281 O304 2.438 . S
Pr281 O306 2.562 . S
Pr281 O307 2.490 . S
Pr281 O308 2.695 . S
Pr281 O309 2.512 . S
Pr281 O311 2.437 . S
C282 Pr280 2.880 . S
C282 C283 1.491 . S
C282 O300 1.254 . S
C282 O301 1.225 . S
C283 C282 1.491 . S
C283 C284 1.392 . S
C283 C288 1.356 . S
C284 C283 1.392 . S
C284 C285 1.368 . S
C284 H312 0.929 . S
C285 C284 1.368 . S
C285 C286 1.386 . S
C285 H313 0.929 . S
C286 C285 1.386 . S
C286 C287 1.373 . S
C287 C286 1.373 . S
C287 C288 1.409 . S
C287 H314 0.931 . S
C288 C283 1.356 . S
C288 C287 1.409 . S
C288 H315 0.930 . S
C289 O302 1.270 . S
C289 O303 1.248 . S
C290 O304 1.267 1_554 S
C290 O305 1.278 . S
C291 Pr281 2.880 . S
C291 C292 1.491 . S
C291 O306 1.254 . S
C291 O307 1.225 . S
C292 C291 1.491 . S
C292 C293 1.392 . S
C292 C297 1.356 . S
C293 C292 1.392 . S
C293 C294 1.368 . S
C293 H316 0.929 . S
C294 C293 1.368 . S
C294 C295 1.386 . S
C294 H317 0.929 . S
C295 C294 1.386 . S
C295 C296 1.373 . S
C296 C295 1.373 . S
C296 C297 1.409 . S
C296 H318 0.931 . S
C297 C292 1.356 . S
C297 C296 1.409 . S
C297 H319 0.930 . S
C298 O308 1.270 . S
C298 O309 1.248 . S
C299 O310 1.267 . S
C299 O311 1.278 . S
O300 Pr280 2.562 . S
O300 C282 1.254 . S
O301 Pr280 2.490 . S
O301 C282 1.225 . S
O302 Pr280 2.695 1_556 S
O302 Pr281 2.436 . S
O302 C289 1.270 . S
O303 Pr280 2.512 1_556 S
O303 C289 1.248 . S
O304 Pr281 2.438 . S
O304 C290 1.267 1_556 S
O305 Pr280 2.437 . S
O305 C290 1.278 . S
O306 Pr281 2.562 . S
O306 C291 1.254 . S
O307 Pr281 2.490 . S
O307 C291 1.225 . S
O308 Pr280 2.436 1_556 S
O308 Pr281 2.695 . S
O308 C298 1.270 . S
O309 Pr281 2.512 . S
O309 C298 1.248 . S
O310 Pr280 2.438 1_556 S
O310 C299 1.267 . S
O311 Pr281 2.437 . S
O311 C299 1.278 . S
H312 C284 0.929 . S
H313 C285 0.929 . S
H314 C287 0.931 . S
H315 C288 0.930 . S
H316 C293 0.929 . S
H317 C294 0.929 . S
H318 C296 0.931 . S
H319 C297 0.930 . S
Pr320 C322 2.880 . S
Pr320 O340 2.562 . S
Pr320 O341 2.490 . S
Pr320 O342 2.695 . S
Pr320 O343 2.512 . S
Pr320 O345 2.437 . S
Pr320 O348 2.436 . S
Pr320 O350 2.438 . S
Pr321 C331 2.880 . S
Pr321 O342 2.436 . S
Pr321 O344 2.438 . S
Pr321 O346 2.562 . S
Pr321 O347 2.490 . S
Pr321 O348 2.695 . S
Pr321 O349 2.512 . S
Pr321 O351 2.437 . S
C322 Pr320 2.880 . S
C322 C323 1.491 . S
C322 O340 1.254 . S
C322 O341 1.225 . S
C323 C322 1.491 . S
C323 C324 1.392 . S
C323 C328 1.356 . S
C324 C323 1.392 . S
C324 C325 1.368 . S
C324 H352 0.929 . S
C325 C324 1.368 . S
C325 C326 1.386 . S
C325 H353 0.929 . S
C326 C325 1.386 . S
C326 C327 1.373 . S
C327 C326 1.373 . S
C327 C328 1.409 . S
C327 H354 0.931 . S
C328 C323 1.356 . S
C328 C327 1.409 . S
C328 H355 0.930 . S
C329 O342 1.270 . S
C329 O343 1.248 . S
C330 O344 1.267 . S
C330 O345 1.278 . S
C331 Pr321 2.880 . S
C331 C332 1.491 . S
C331 O346 1.254 . S
C331 O347 1.225 . S
C332 C331 1.491 . S
C332 C333 1.392 . S
C332 C337 1.356 . S
C333 C332 1.392 . S
C333 C334 1.368 . S
C333 H356 0.929 . S
C334 C333 1.368 . S
C334 C335 1.386 1_556 S
C334 H357 0.929 . S
C335 C334 1.386 1_554 S
C335 C336 1.373 1_554 S
C336 C335 1.373 1_556 S
C336 C337 1.409 . S
C336 H358 0.931 1_556 S
C337 C332 1.356 . S
C337 C336 1.409 . S
C337 H359 0.930 . S
C338 O348 1.270 . S
C338 O349 1.248 . S
C339 O350 1.267 . S
C339 O351 1.278 . S
O340 Pr320 2.562 . S
O340 C322 1.254 . S
O341 Pr320 2.490 . S
O341 C322 1.225 . S
O342 Pr320 2.695 . S
O342 Pr321 2.436 . S
O342 C329 1.270 . S
O343 Pr320 2.512 . S
O343 C329 1.248 . S
O344 Pr321 2.438 . S
O344 C330 1.267 . S
O345 Pr320 2.437 . S
O345 C330 1.278 . S
O346 Pr321 2.562 . S
O346 C331 1.254 . S
O347 Pr321 2.490 . S
O347 C331 1.225 . S
O348 Pr320 2.436 . S
O348 Pr321 2.695 . S
O348 C338 1.270 . S
O349 Pr321 2.512 . S
O349 C338 1.248 . S
O350 Pr320 2.438 . S
O350 C339 1.267 . S
O351 Pr321 2.437 . S
O351 C339 1.278 . S
H352 C324 0.929 . S
H353 C325 0.929 . S
H354 C327 0.931 . S
H355 C328 0.930 . S
H356 C333 0.929 . S
H357 C334 0.929 . S
H358 C336 0.931 1_554 S
H359 C337 0.930 . S
Pr360 C362 2.880 . S
Pr360 O380 2.562 . S
Pr360 O381 2.490 . S
Pr360 O382 2.695 . S
Pr360 O383 2.512 . S
Pr360 O385 2.437 . S
Pr360 O388 2.436 . S
Pr360 O390 2.438 . S
Pr361 C371 2.880 . S
Pr361 O382 2.436 . S
Pr361 O384 2.438 . S
Pr361 O386 2.562 . S
Pr361 O387 2.490 . S
Pr361 O388 2.695 . S
Pr361 O389 2.512 . S
Pr361 O391 2.437 . S
C362 Pr360 2.880 . S
C362 C363 1.491 . S
C362 O380 1.254 . S
C362 O381 1.225 . S
C363 C362 1.491 . S
C363 C364 1.392 . S
C363 C368 1.356 . S
C364 C363 1.392 . S
C364 C365 1.368 . S
C364 H392 0.929 . S
C365 C364 1.368 . S
C365 C366 1.386 . S
C365 H393 0.929 . S
C366 C365 1.386 . S
C366 C367 1.373 . S
C367 C366 1.373 . S
C367 C368 1.409 . S
C367 H394 0.931 . S
C368 C363 1.356 . S
C368 C367 1.409 . S
C368 H395 0.930 . S
C369 O382 1.270 . S
C369 O383 1.248 . S
C370 O384 1.267 . S
C370 O385 1.278 . S
C371 Pr361 2.880 . S
C371 C372 1.491 . S
C371 O386 1.254 . S
C371 O387 1.225 . S
C372 C371 1.491 . S
C372 C373 1.392 . S
C372 C377 1.356 . S
C373 C372 1.392 . S
C373 C374 1.368 . S
C373 H396 0.929 . S
C374 C373 1.368 . S
C374 C375 1.386 1_556 S
C374 H397 0.929 . S
C375 C374 1.386 1_554 S
C375 C376 1.373 1_554 S
C376 C375 1.373 1_556 S
C376 C377 1.409 . S
C376 H398 0.931 1_556 S
C377 C372 1.356 . S
C377 C376 1.409 . S
C377 H399 0.930 . S
C378 O388 1.270 . S
C378 O389 1.248 . S
C379 O390 1.267 . S
C379 O391 1.278 . S
O380 Pr360 2.562 . S
O380 C362 1.254 . S
O381 Pr360 2.490 . S
O381 C362 1.225 . S
O382 Pr360 2.695 . S
O382 Pr361 2.436 . S
O382 C369 1.270 . S
O383 Pr360 2.512 . S
O383 C369 1.248 . S
O384 Pr361 2.438 . S
O384 C370 1.267 . S
O385 Pr360 2.437 . S
O385 C370 1.278 . S
O386 Pr361 2.562 . S
O386 C371 1.254 . S
O387 Pr361 2.490 . S
O387 C371 1.225 . S
O388 Pr360 2.436 . S
O388 Pr361 2.695 . S
O388 C378 1.270 . S
O389 Pr361 2.512 . S
O389 C378 1.248 . S
O390 Pr360 2.438 . S
O390 C379 1.267 . S
O391 Pr361 2.437 . S
O391 C379 1.278 . S
H392 C364 0.929 . S
H393 C365 0.929 . S
H394 C367 0.931 . S
H395 C368 0.930 . S
H396 C373 0.929 . S
H397 C374 0.929 . S
H398 C376 0.931 1_554 S
H399 C377 0.930 . S
Pr400 C402 2.880 . S
Pr400 O420 2.562 . S
Pr400 O421 2.490 . S
Pr400 O422 2.695 . S
Pr400 O423 2.512 . S
Pr400 O425 2.437 . S
Pr400 O428 2.436 . S
Pr400 O430 2.438 . S
Pr401 C411 2.880 . S
Pr401 O422 2.436 . S
Pr401 O424 2.438 . S
Pr401 O426 2.562 . S
Pr401 O427 2.490 . S
Pr401 O428 2.695 . S
Pr401 O429 2.512 . S
Pr401 O431 2.437 . S
C402 Pr400 2.880 . S
C402 C403 1.491 . S
C402 O420 1.254 . S
C402 O421 1.225 . S
C403 C402 1.491 . S
C403 C404 1.392 . S
C403 C408 1.356 . S
C404 C403 1.392 . S
C404 C405 1.368 . S
C404 H432 0.929 . S
C405 C404 1.368 . S
C405 C406 1.386 . S
C405 H433 0.929 . S
C406 C405 1.386 . S
C406 C407 1.373 . S
C407 C406 1.373 . S
C407 C408 1.409 . S
C407 H434 0.931 . S
C408 C403 1.356 . S
C408 C407 1.409 . S
C408 H435 0.930 . S
C409 O422 1.270 . S
C409 O423 1.248 . S
C410 O424 1.267 . S
C410 O425 1.278 . S
C411 Pr401 2.880 . S
C411 C412 1.491 . S
C411 O426 1.254 . S
C411 O427 1.225 . S
C412 C411 1.491 . S
C412 C413 1.392 . S
C412 C417 1.356 . S
C413 C412 1.392 . S
C413 C414 1.368 . S
C413 H436 0.929 . S
C414 C413 1.368 . S
C414 C415 1.386 . S
C414 H437 0.929 . S
C415 C414 1.386 . S
C415 C416 1.373 . S
C416 C415 1.373 . S
C416 C417 1.409 . S
C416 H438 0.931 . S
C417 C412 1.356 . S
C417 C416 1.409 . S
C417 H439 0.930 . S
C418 O428 1.270 . S
C418 O429 1.248 . S
C419 O430 1.267 . S
C419 O431 1.278 . S
O420 Pr400 2.562 . S
O420 C402 1.254 . S
O421 Pr400 2.490 . S
O421 C402 1.225 . S
O422 Pr400 2.695 . S
O422 Pr401 2.436 . S
O422 C409 1.270 . S
O423 Pr400 2.512 . S
O423 C409 1.248 . S
O424 Pr401 2.438 . S
O424 C410 1.267 . S
O425 Pr400 2.437 . S
O425 C410 1.278 . S
O426 Pr401 2.562 . S
O426 C411 1.254 . S
O427 Pr401 2.490 . S
O427 C411 1.225 . S
O428 Pr400 2.436 . S
O428 Pr401 2.695 . S
O428 C418 1.270 . S
O429 Pr401 2.512 . S
O429 C418 1.248 . S
O430 Pr400 2.438 . S
O430 C419 1.267 . S
O431 Pr401 2.437 . S
O431 C419 1.278 . S
H432 C404 0.929 . S
H433 C405 0.929 . S
H434 C407 0.931 . S
H435 C408 0.930 . S
H436 C413 0.929 . S
H437 C414 0.929 . S
H438 C416 0.931 . S
H439 C417 0.930 . S
Pr440 C442 2.880 . S
Pr440 O460 2.562 . S
Pr440 O461 2.490 . S
Pr440 O462 2.695 . S
Pr440 O463 2.512 . S
Pr440 O465 2.437 . S
Pr440 O468 2.436 . S
Pr440 O470 2.438 . S
Pr441 C451 2.880 . S
Pr441 O462 2.436 . S
Pr441 O464 2.438 . S
Pr441 O466 2.562 . S
Pr441 O467 2.490 . S
Pr441 O468 2.695 . S
Pr441 O469 2.512 . S
Pr441 O471 2.437 . S
C442 Pr440 2.880 . S
C442 C443 1.491 . S
C442 O460 1.254 . S
C442 O461 1.225 . S
C443 C442 1.491 . S
C443 C444 1.392 . S
C443 C448 1.356 . S
C444 C443 1.392 . S
C444 C445 1.368 . S
C444 H472 0.929 . S
C445 C444 1.368 . S
C445 C446 1.386 . S
C445 H473 0.929 . S
C446 C445 1.386 . S
C446 C447 1.373 . S
C447 C446 1.373 . S
C447 C448 1.409 . S
C447 H474 0.931 . S
C448 C443 1.356 . S
C448 C447 1.409 . S
C448 H475 0.930 . S
C449 O462 1.270 . S
C449 O463 1.248 . S
C450 O464 1.267 . S
C450 O465 1.278 . S
C451 Pr441 2.880 . S
C451 C452 1.491 . S
C451 O466 1.254 . S
C451 O467 1.225 . S
C452 C451 1.491 . S
C452 C453 1.392 . S
C452 C457 1.356 . S
C453 C452 1.392 . S
C453 C454 1.368 . S
C453 H476 0.929 . S
C454 C453 1.368 . S
C454 C455 1.386 . S
C454 H477 0.929 . S
C455 C454 1.386 . S
C455 C456 1.373 . S
C456 C455 1.373 . S
C456 C457 1.409 . S
C456 H478 0.931 . S
C457 C452 1.356 . S
C457 C456 1.409 . S
C457 H479 0.930 . S
C458 O468 1.270 . S
C458 O469 1.248 . S
C459 O470 1.267 . S
C459 O471 1.278 . S
O460 Pr440 2.562 . S
O460 C442 1.254 . S
O461 Pr440 2.490 . S
O461 C442 1.225 . S
O462 Pr440 2.695 . S
O462 Pr441 2.436 . S
O462 C449 1.270 . S
O463 Pr440 2.512 . S
O463 C449 1.248 . S
O464 Pr441 2.438 . S
O464 C450 1.267 . S
O465 Pr440 2.437 . S
O465 C450 1.278 . S
O466 Pr441 2.562 . S
O466 C451 1.254 . S
O467 Pr441 2.490 . S
O467 C451 1.225 . S
O468 Pr440 2.436 . S
O468 Pr441 2.695 . S
O468 C458 1.270 . S
O469 Pr441 2.512 . S
O469 C458 1.248 . S
O470 Pr440 2.438 . S
O470 C459 1.267 . S
O471 Pr441 2.437 . S
O471 C459 1.278 . S
H472 C444 0.929 . S
H473 C445 0.929 . S
H474 C447 0.931 . S
H475 C448 0.930 . S
H476 C453 0.929 . S
H477 C454 0.929 . S
H478 C456 0.931 . S
H479 C457 0.930 . S
Pr480 C482 2.880 . S
Pr480 O500 2.562 . S
Pr480 O501 2.490 . S
Pr480 O502 2.695 . S
Pr480 O503 2.512 . S
Pr480 O505 2.437 . S
Pr480 O508 2.436 . S
Pr480 O510 2.438 . S
Pr481 C491 2.880 . S
Pr481 O502 2.436 . S
Pr481 O504 2.438 . S
Pr481 O506 2.562 . S
Pr481 O507 2.490 . S
Pr481 O508 2.695 . S
Pr481 O509 2.512 . S
Pr481 O511 2.437 . S
C482 Pr480 2.880 . S
C482 C483 1.491 . S
C482 O500 1.254 . S
C482 O501 1.225 . S
C483 C482 1.491 . S
C483 C484 1.392 . S
C483 C488 1.356 . S
C484 C483 1.392 . S
C484 C485 1.368 . S
C484 H512 0.929 . S
C485 C484 1.368 . S
C485 C486 1.386 1_554 S
C485 H513 0.929 . S
C486 C485 1.386 1_556 S
C486 C487 1.373 1_556 S
C487 C486 1.373 1_554 S
C487 C488 1.409 . S
C487 H514 0.931 1_554 S
C488 C483 1.356 . S
C488 C487 1.409 . S
C488 H515 0.930 . S
C489 O502 1.270 . S
C489 O503 1.248 . S
C490 O504 1.267 . S
C490 O505 1.278 . S
C491 Pr481 2.880 . S
C491 C492 1.491 . S
C491 O506 1.254 . S
C491 O507 1.225 . S
C492 C491 1.491 . S
C492 C493 1.392 . S
C492 C497 1.356 . S
C493 C492 1.392 . S
C493 C494 1.368 . S
C493 H516 0.929 . S
C494 C493 1.368 . S
C494 C495 1.386 . S
C494 H517 0.929 . S
C495 C494 1.386 . S
C495 C496 1.373 . S
C496 C495 1.373 . S
C496 C497 1.409 . S
C496 H518 0.931 . S
C497 C492 1.356 . S
C497 C496 1.409 . S
C497 H519 0.930 . S
C498 O508 1.270 . S
C498 O509 1.248 . S
C499 O510 1.267 . S
C499 O511 1.278 . S
O500 Pr480 2.562 . S
O500 C482 1.254 . S
O501 Pr480 2.490 . S
O501 C482 1.225 . S
O502 Pr480 2.695 . S
O502 Pr481 2.436 . S
O502 C489 1.270 . S
O503 Pr480 2.512 . S
O503 C489 1.248 . S
O504 Pr481 2.438 . S
O504 C490 1.267 . S
O505 Pr480 2.437 . S
O505 C490 1.278 . S
O506 Pr481 2.562 . S
O506 C491 1.254 . S
O507 Pr481 2.490 . S
O507 C491 1.225 . S
O508 Pr480 2.436 . S
O508 Pr481 2.695 . S
O508 C498 1.270 . S
O509 Pr481 2.512 . S
O509 C498 1.248 . S
O510 Pr480 2.438 . S
O510 C499 1.267 . S
O511 Pr481 2.437 . S
O511 C499 1.278 . S
H512 C484 0.929 . S
H513 C485 0.929 . S
H514 C487 0.931 1_556 S
H515 C488 0.930 . S
H516 C493 0.929 . S
H517 C494 0.929 . S
H518 C496 0.931 . S
H519 C497 0.930 . S
Pr520 C522 2.880 . S
Pr520 O540 2.562 . S
Pr520 O541 2.490 . S
Pr520 O542 2.695 . S
Pr520 O543 2.512 . S
Pr520 O545 2.437 . S
Pr520 O548 2.436 . S
Pr520 O550 2.438 . S
Pr521 C531 2.880 . S
Pr521 O542 2.436 . S
Pr521 O544 2.438 . S
Pr521 O546 2.562 . S
Pr521 O547 2.490 . S
Pr521 O548 2.695 . S
Pr521 O549 2.512 . S
Pr521 O551 2.437 . S
C522 Pr520 2.880 . S
C522 C523 1.491 . S
C522 O540 1.254 . S
C522 O541 1.225 . S
C523 C522 1.491 . S
C523 C524 1.392 . S
C523 C528 1.356 . S
C524 C523 1.392 . S
C524 C525 1.368 . S
C524 H552 0.929 . S
C525 C524 1.368 . S
C525 C526 1.386 1_554 S
C525 H553 0.929 . S
C526 C525 1.386 1_556 S
C526 C527 1.373 1_556 S
C527 C526 1.373 1_554 S
C527 C528 1.409 . S
C527 H554 0.931 1_554 S
C528 C523 1.356 . S
C528 C527 1.409 . S
C528 H555 0.930 . S
C529 O542 1.270 . S
C529 O543 1.248 . S
C530 O544 1.267 . S
C530 O545 1.278 . S
C531 Pr521 2.880 . S
C531 C532 1.491 . S
C531 O546 1.254 . S
C531 O547 1.225 . S
C532 C531 1.491 . S
C532 C533 1.392 . S
C532 C537 1.356 . S
C533 C532 1.392 . S
C533 C534 1.368 . S
C533 H556 0.929 . S
C534 C533 1.368 . S
C534 C535 1.386 . S
C534 H557 0.929 . S
C535 C534 1.386 . S
C535 C536 1.373 . S
C536 C535 1.373 . S
C536 C537 1.409 . S
C536 H558 0.931 . S
C537 C532 1.356 . S
C537 C536 1.409 . S
C537 H559 0.930 . S
C538 O548 1.270 . S
C538 O549 1.248 . S
C539 O550 1.267 . S
C539 O551 1.278 . S
O540 Pr520 2.562 . S
O540 C522 1.254 . S
O541 Pr520 2.490 . S
O541 C522 1.225 . S
O542 Pr520 2.695 . S
O542 Pr521 2.436 . S
O542 C529 1.270 . S
O543 Pr520 2.512 . S
O543 C529 1.248 . S
O544 Pr521 2.438 . S
O544 C530 1.267 . S
O545 Pr520 2.437 . S
O545 C530 1.278 . S
O546 Pr521 2.562 . S
O546 C531 1.254 . S
O547 Pr521 2.490 . S
O547 C531 1.225 . S
O548 Pr520 2.436 . S
O548 Pr521 2.695 . S
O548 C538 1.270 . S
O549 Pr521 2.512 . S
O549 C538 1.248 . S
O550 Pr520 2.438 . S
O550 C539 1.267 . S
O551 Pr521 2.437 . S
O551 C539 1.278 . S
H552 C524 0.929 . S
H553 C525 0.929 . S
H554 C527 0.931 1_556 S
H555 C528 0.930 . S
H556 C533 0.929 . S
H557 C534 0.929 . S
H558 C536 0.931 . S
H559 C537 0.930 . S
Pr560 C562 2.880 . S
Pr560 O580 2.562 . S
Pr560 O581 2.490 . S
Pr560 O582 2.695 . S
Pr560 O583 2.512 . S
Pr560 O585 2.437 . S
Pr560 O588 2.436 . S
Pr560 O590 2.438 . S
Pr561 C571 2.880 . S
Pr561 O582 2.436 . S
Pr561 O584 2.438 . S
Pr561 O586 2.562 . S
Pr561 O587 2.490 . S
Pr561 O588 2.695 . S
Pr561 O589 2.512 . S
Pr561 O591 2.437 . S
C562 Pr560 2.880 . S
C562 C563 1.491 . S
C562 O580 1.254 . S
C562 O581 1.225 . S
C563 C562 1.491 . S
C563 C564 1.392 . S
C563 C568 1.356 . S
C564 C563 1.392 . S
C564 C565 1.368 . S
C564 H592 0.929 . S
C565 C564 1.368 . S
C565 C566 1.386 . S
C565 H593 0.929 . S
C566 C565 1.386 . S
C566 C567 1.373 . S
C567 C566 1.373 . S
C567 C568 1.409 . S
C567 H594 0.931 . S
C568 C563 1.356 . S
C568 C567 1.409 . S
C568 H595 0.930 . S
C569 O582 1.270 . S
C569 O583 1.248 . S
C570 O584 1.267 . S
C570 O585 1.278 . S
C571 Pr561 2.880 . S
C571 C572 1.491 . S
C571 O586 1.254 . S
C571 O587 1.225 . S
C572 C571 1.491 . S
C572 C573 1.392 . S
C572 C577 1.356 . S
C573 C572 1.392 . S
C573 C574 1.368 . S
C573 H596 0.929 . S
C574 C573 1.368 . S
C574 C575 1.386 . S
C574 H597 0.929 . S
C575 C574 1.386 . S
C575 C576 1.373 . S
C576 C575 1.373 . S
C576 C577 1.409 . S
C576 H598 0.931 . S
C577 C572 1.356 . S
C577 C576 1.409 . S
C577 H599 0.930 . S
C578 O588 1.270 . S
C578 O589 1.248 . S
C579 O590 1.267 . S
C579 O591 1.278 . S
O580 Pr560 2.562 . S
O580 C562 1.254 . S
O581 Pr560 2.490 . S
O581 C562 1.225 . S
O582 Pr560 2.695 . S
O582 Pr561 2.436 . S
O582 C569 1.270 . S
O583 Pr560 2.512 . S
O583 C569 1.248 . S
O584 Pr561 2.438 . S
O584 C570 1.267 . S
O585 Pr560 2.437 . S
O585 C570 1.278 . S
O586 Pr561 2.562 . S
O586 C571 1.254 . S
O587 Pr561 2.490 . S
O587 C571 1.225 . S
O588 Pr560 2.436 . S
O588 Pr561 2.695 . S
O588 C578 1.270 . S
O589 Pr561 2.512 . S
O589 C578 1.248 . S
O590 Pr560 2.438 . S
O590 C579 1.267 . S
O591 Pr561 2.437 . S
O591 C579 1.278 . S
H592 C564 0.929 . S
H593 C565 0.929 . S
H594 C567 0.931 . S
H595 C568 0.930 . S
H596 C573 0.929 . S
H597 C574 0.929 . S
H598 C576 0.931 . S
H599 C577 0.930 . S
Pr600 C602 2.880 . S
Pr600 O620 2.562 . S
Pr600 O621 2.490 . S
Pr600 O622 2.695 . S
Pr600 O623 2.512 . S
Pr600 O625 2.437 . S
Pr600 O628 2.436 . S
Pr600 O630 2.438 . S
Pr601 C611 2.880 . S
Pr601 O622 2.436 . S
Pr601 O624 2.438 . S
Pr601 O626 2.562 . S
Pr601 O627 2.490 . S
Pr601 O628 2.695 . S
Pr601 O629 2.512 . S
Pr601 O631 2.437 . S
C602 Pr600 2.880 . S
C602 C603 1.491 . S
C602 O620 1.254 . S
C602 O621 1.225 . S
C603 C602 1.491 . S
C603 C604 1.392 . S
C603 C608 1.356 . S
C604 C603 1.392 . S
C604 C605 1.368 . S
C604 H632 0.929 . S
C605 C604 1.368 . S
C605 C606 1.386 . S
C605 H633 0.929 . S
C606 C605 1.386 . S
C606 C607 1.373 . S
C607 C606 1.373 . S
C607 C608 1.409 . S
C607 H634 0.931 . S
C608 C603 1.356 . S
C608 C607 1.409 . S
C608 H635 0.930 . S
C609 O622 1.270 . S
C609 O623 1.248 . S
C610 O624 1.267 . S
C610 O625 1.278 . S
C611 Pr601 2.880 . S
C611 C612 1.491 . S
C611 O626 1.254 . S
C611 O627 1.225 . S
C612 C611 1.491 . S
C612 C613 1.392 . S
C612 C617 1.356 . S
C613 C612 1.392 . S
C613 C614 1.368 . S
C613 H636 0.929 . S
C614 C613 1.368 . S
C614 C615 1.386 . S
C614 H637 0.929 . S
C615 C614 1.386 . S
C615 C616 1.373 . S
C616 C615 1.373 . S
C616 C617 1.409 . S
C616 H638 0.931 . S
C617 C612 1.356 . S
C617 C616 1.409 . S
C617 H639 0.930 . S
C618 O628 1.270 . S
C618 O629 1.248 . S
C619 O630 1.267 . S
C619 O631 1.278 . S
O620 Pr600 2.562 . S
O620 C602 1.254 . S
O621 Pr600 2.490 . S
O621 C602 1.225 . S
O622 Pr600 2.695 . S
O622 Pr601 2.436 . S
O622 C609 1.270 . S
O623 Pr600 2.512 . S
O623 C609 1.248 . S
O624 Pr601 2.438 . S
O624 C610 1.267 . S
O625 Pr600 2.437 . S
O625 C610 1.278 . S
O626 Pr601 2.562 . S
O626 C611 1.254 . S
O627 Pr601 2.490 . S
O627 C611 1.225 . S
O628 Pr600 2.436 . S
O628 Pr601 2.695 . S
O628 C618 1.270 . S
O629 Pr601 2.512 . S
O629 C618 1.248 . S
O630 Pr600 2.438 . S
O630 C619 1.267 . S
O631 Pr601 2.437 . S
O631 C619 1.278 . S
H632 C604 0.929 . S
H633 C605 0.929 . S
H634 C607 0.931 . S
H635 C608 0.930 . S
H636 C613 0.929 . S
H637 C614 0.929 . S
H638 C616 0.931 . S
H639 C617 0.930 . S
Pr640 C642 2.880 . S
Pr640 O660 2.562 . S
Pr640 O661 2.490 . S
Pr640 O662 2.695 . S
Pr640 O663 2.512 . S
Pr640 O665 2.437 . S
Pr640 O668 2.436 . S
Pr640 O670 2.438 . S
Pr641 C651 2.880 . S
Pr641 O662 2.436 . S
Pr641 O664 2.438 . S
Pr641 O666 2.562 . S
Pr641 O667 2.490 . S
Pr641 O668 2.695 . S
Pr641 O669 2.512 . S
Pr641 O671 2.437 . S
C642 Pr640 2.880 . S
C642 C643 1.491 . S
C642 O660 1.254 . S
C642 O661 1.225 . S
C643 C642 1.491 . S
C643 C644 1.392 . S
C643 C648 1.356 . S
C644 C643 1.392 . S
C644 C645 1.368 . S
C644 H672 0.929 . S
C645 C644 1.368 . S
C645 C646 1.386 . S
C645 H673 0.929 . S
C646 C645 1.386 . S
C646 C647 1.373 . S
C647 C646 1.373 . S
C647 C648 1.409 . S
C647 H674 0.931 . S
C648 C643 1.356 . S
C648 C647 1.409 . S
C648 H675 0.930 . S
C649 O662 1.270 . S
C649 O663 1.248 . S
C650 O664 1.267 . S
C650 O665 1.278 . S
C651 Pr641 2.880 . S
C651 C652 1.491 . S
C651 O666 1.254 . S
C651 O667 1.225 . S
C652 C651 1.491 . S
C652 C653 1.392 . S
C652 C657 1.356 . S
C653 C652 1.392 . S
C653 C654 1.368 . S
C653 H676 0.929 . S
C654 C653 1.368 . S
C654 C655 1.386 1_556 S
C654 H677 0.929 . S
C655 C654 1.386 1_554 S
C655 C656 1.373 1_554 S
C656 C655 1.373 1_556 S
C656 C657 1.409 . S
C656 H678 0.931 1_556 S
C657 C652 1.356 . S
C657 C656 1.409 . S
C657 H679 0.930 . S
C658 O668 1.270 . S
C658 O669 1.248 . S
C659 O670 1.267 . S
C659 O671 1.278 . S
O660 Pr640 2.562 . S
O660 C642 1.254 . S
O661 Pr640 2.490 . S
O661 C642 1.225 . S
O662 Pr640 2.695 . S
O662 Pr641 2.436 . S
O662 C649 1.270 . S
O663 Pr640 2.512 . S
O663 C649 1.248 . S
O664 Pr641 2.438 . S
O664 C650 1.267 . S
O665 Pr640 2.437 . S
O665 C650 1.278 . S
O666 Pr641 2.562 . S
O666 C651 1.254 . S
O667 Pr641 2.490 . S
O667 C651 1.225 . S
O668 Pr640 2.436 . S
O668 Pr641 2.695 . S
O668 C658 1.270 . S
O669 Pr641 2.512 . S
O669 C658 1.248 . S
O670 Pr640 2.438 . S
O670 C659 1.267 . S
O671 Pr641 2.437 . S
O671 C659 1.278 . S
H672 C644 0.929 . S
H673 C645 0.929 . S
H674 C647 0.931 . S
H675 C648 0.930 . S
H676 C653 0.929 . S
H677 C654 0.929 . S
H678 C656 0.931 1_554 S
H679 C657 0.930 . S
Pr680 C682 2.880 . S
Pr680 O700 2.562 1_565 S
Pr680 O701 2.490 . S
Pr680 O702 2.695 . S
Pr680 O703 2.512 . S
Pr680 O705 2.437 . S
Pr680 O708 2.436 1_565 S
Pr680 O710 2.438 . S
Pr681 C691 2.880 . S
Pr681 O702 2.436 1_545 S
Pr681 O704 2.438 . S
Pr681 O706 2.562 1_545 S
Pr681 O707 2.490 . S
Pr681 O708 2.695 . S
Pr681 O709 2.512 . S
Pr681 O711 2.437 . S
C682 Pr680 2.880 . S
C682 C683 1.491 . S
C682 O700 1.254 1_565 S
C682 O701 1.225 . S
C683 C682 1.491 . S
C683 C684 1.392 . S
C683 C688 1.356 1_565 S
C684 C683 1.392 . S
C684 C685 1.368 . S
C684 H712 0.929 . S
C685 C684 1.368 . S
C685 C686 1.386 . S
C685 H713 0.929 . S
C686 C685 1.386 . S
C686 C687 1.428 . S
C687 C686 1.428 . S
C687 C688 1.404 1_565 S
C687 H714 0.883 1_565 S
C688 C683 1.356 1_545 S
C688 C687 1.404 1_545 S
C688 H715 0.930 . S
C689 O702 1.270 . S
C689 O703 1.248 . S
C690 O704 1.267 1_565 S
C690 O705 1.278 . S
C691 Pr681 2.880 . S
C691 C692 1.491 . S
C691 O706 1.254 1_545 S
C691 O707 1.225 . S
C692 C691 1.491 . S
C692 C693 1.392 . S
C692 C697 1.356 1_545 S
C693 C692 1.392 . S
C693 C694 1.368 . S
C693 H716 0.929 . S
C694 C693 1.368 . S
C694 C695 1.386 1_556 S
C694 H717 0.929 . S
C695 C694 1.386 1_554 S
C695 C696 1.416 1_554 S
C696 C695 1.416 1_556 S
C696 C697 1.405 1_545 S
C696 H718 0.884 1_546 S
C697 C692 1.356 1_565 S
C697 C696 1.405 1_565 S
C697 H719 0.930 . S
C698 O708 1.270 . S
C698 O709 1.248 . S
C699 O710 1.267 1_545 S
C699 O711 1.278 . S
O700 Pr680 2.562 1_545 S
O700 C682 1.254 1_545 S
O701 Pr680 2.490 . S
O701 C682 1.225 . S
O702 Pr680 2.695 . S
O702 Pr681 2.436 1_565 S
O702 C689 1.270 . S
O703 Pr680 2.512 . S
O703 C689 1.248 . S
O704 Pr681 2.438 . S
O704 C690 1.267 1_545 S
O705 Pr680 2.437 . S
O705 C690 1.278 . S
O706 Pr681 2.562 1_565 S
O706 C691 1.254 1_565 S
O707 Pr681 2.490 . S
O707 C691 1.225 . S
O708 Pr680 2.436 1_545 S
O708 Pr681 2.695 . S
O708 C698 1.270 . S
O709 Pr681 2.512 . S
O709 C698 1.248 . S
O710 Pr680 2.438 . S
O710 C699 1.267 1_565 S
O711 Pr681 2.437 . S
O711 C699 1.278 . S
H712 C684 0.929 . S
H713 C685 0.929 . S
H714 C687 0.883 1_545 S
H715 C688 0.930 . S
H716 C693 0.929 . S
H717 C694 0.929 . S
H718 C696 0.884 1_564 S
H719 C697 0.930 . S
Pr720 C722 2.880 . S
Pr720 O740 2.562 1_565 S
Pr720 O741 2.490 . S
Pr720 O742 2.695 . S
Pr720 O743 2.512 . S
Pr720 O745 2.437 . S
Pr720 O748 2.436 1_565 S
Pr720 O750 2.438 . S
Pr721 C731 2.880 . S
Pr721 O742 2.436 1_545 S
Pr721 O744 2.438 . S
Pr721 O746 2.562 1_545 S
Pr721 O747 2.490 . S
Pr721 O748 2.695 . S
Pr721 O749 2.512 . S
Pr721 O751 2.437 . S
C722 Pr720 2.880 . S
C722 C723 1.491 . S
C722 O740 1.254 1_565 S
C722 O741 1.225 . S
C723 C722 1.491 . S
C723 C724 1.392 . S
C723 C728 1.356 1_565 S
C724 C723 1.392 . S
C724 C725 1.368 . S
C724 H752 0.929 . S
C725 C724 1.368 . S
C725 C726 1.386 . S
C725 H753 0.929 . S
C726 C725 1.386 . S
C726 C727 1.428 . S
C727 C726 1.428 . S
C727 C728 1.404 1_565 S
C727 H754 0.883 1_565 S
C728 C723 1.356 1_545 S
C728 C727 1.404 1_545 S
C728 H755 0.930 . S
C729 O742 1.270 . S
C729 O743 1.248 . S
C730 O744 1.267 1_565 S
C730 O745 1.278 . S
C731 Pr721 2.880 . S
C731 C732 1.491 . S
C731 O746 1.254 1_545 S
C731 O747 1.225 . S
C732 C731 1.491 . S
C732 C733 1.392 . S
C732 C737 1.356 1_545 S
C733 C732 1.392 . S
C733 C734 1.368 . S
C733 H756 0.929 . S
C734 C733 1.368 . S
C734 C735 1.386 . S
C734 H757 0.929 . S
C735 C734 1.386 . S
C735 C736 1.416 . S
C736 C735 1.416 . S
C736 C737 1.405 1_545 S
C736 H758 0.894 1_545 S
C737 C732 1.356 1_565 S
C737 C736 1.405 1_565 S
C737 H759 0.930 . S
C738 O748 1.270 . S
C738 O749 1.248 . S
C739 O750 1.267 1_545 S
C739 O751 1.278 . S
O740 Pr720 2.562 1_545 S
O740 C722 1.254 1_545 S
O741 Pr720 2.490 . S
O741 C722 1.225 . S
O742 Pr720 2.695 . S
O742 Pr721 2.436 1_565 S
O742 C729 1.270 . S
O743 Pr720 2.512 . S
O743 C729 1.248 . S
O744 Pr721 2.438 . S
O744 C730 1.267 1_545 S
O745 Pr720 2.437 . S
O745 C730 1.278 . S
O746 Pr721 2.562 1_565 S
O746 C731 1.254 1_565 S
O747 Pr721 2.490 . S
O747 C731 1.225 . S
O748 Pr720 2.436 1_545 S
O748 Pr721 2.695 . S
O748 C738 1.270 . S
O749 Pr721 2.512 . S
O749 C738 1.248 . S
O750 Pr720 2.438 . S
O750 C739 1.267 1_565 S
O751 Pr721 2.437 . S
O751 C739 1.278 . S
H752 C724 0.929 . S
H753 C725 0.929 . S
H754 C727 0.883 1_545 S
H755 C728 0.930 . S
H756 C733 0.929 . S
H757 C734 0.929 . S
H758 C736 0.894 1_565 S
H759 C737 0.930 . S
Pr760 C762 2.880 . S
Pr760 O780 2.562 . S
Pr760 O781 2.490 . S
Pr760 O782 2.695 . S
Pr760 O783 2.512 . S
Pr760 O785 2.437 . S
Pr760 O788 2.436 . S
Pr760 O790 2.438 . S
Pr761 C771 2.880 . S
Pr761 O782 2.436 . S
Pr761 O784 2.438 . S
Pr761 O786 2.562 . S
Pr761 O787 2.490 . S
Pr761 O788 2.695 . S
Pr761 O789 2.512 . S
Pr761 O791 2.437 . S
C762 Pr760 2.880 . S
C762 C763 1.491 . S
C762 O780 1.254 . S
C762 O781 1.225 . S
C763 C762 1.491 . S
C763 C764 1.392 . S
C763 C768 1.356 . S
C764 C763 1.392 . S
C764 C765 1.368 . S
C764 H792 0.929 . S
C765 C764 1.368 . S
C765 C766 1.386 . S
C765 H793 0.929 . S
C766 C765 1.386 . S
C766 C767 1.373 . S
C767 C766 1.373 . S
C767 C768 1.409 . S
C767 H794 0.931 . S
C768 C763 1.356 . S
C768 C767 1.409 . S
C768 H795 0.930 . S
C769 O782 1.270 . S
C769 O783 1.248 . S
C770 O784 1.267 . S
C770 O785 1.278 . S
C771 Pr761 2.880 . S
C771 C772 1.491 . S
C771 O786 1.254 . S
C771 O787 1.225 . S
C772 C771 1.491 . S
C772 C773 1.392 . S
C772 C777 1.356 . S
C773 C772 1.392 . S
C773 C774 1.368 . S
C773 H796 0.929 . S
C774 C773 1.368 . S
C774 C775 1.386 . S
C774 H797 0.929 . S
C775 C774 1.386 . S
C775 C776 1.373 . S
C776 C775 1.373 . S
C776 C777 1.409 . S
C776 H798 0.931 . S
C777 C772 1.356 . S
C777 C776 1.409 . S
C777 H799 0.930 . S
C778 O788 1.270 . S
C778 O789 1.248 . S
C779 O790 1.267 . S
C779 O791 1.278 . S
O780 Pr760 2.562 . S
O780 C762 1.254 . S
O781 Pr760 2.490 . S
O781 C762 1.225 . S
O782 Pr760 2.695 . S
O782 Pr761 2.436 . S
O782 C769 1.270 . S
O783 Pr760 2.512 . S
O783 C769 1.248 . S
O784 Pr761 2.438 . S
O784 C770 1.267 . S
O785 Pr760 2.437 . S
O785 C770 1.278 . S
O786 Pr761 2.562 . S
O786 C771 1.254 . S
O787 Pr761 2.490 . S
O787 C771 1.225 . S
O788 Pr760 2.436 . S
O788 Pr761 2.695 . S
O788 C778 1.270 . S
O789 Pr761 2.512 . S
O789 C778 1.248 . S
O790 Pr760 2.438 . S
O790 C779 1.267 . S
O791 Pr761 2.437 . S
O791 C779 1.278 . S
H792 C764 0.929 . S
H793 C765 0.929 . S
H794 C767 0.931 . S
H795 C768 0.930 . S
H796 C773 0.929 . S
H797 C774 0.929 . S
H798 C776 0.931 . S
H799 C777 0.930 . S
Pr800 C802 2.880 . S
Pr800 O820 2.562 . S
Pr800 O821 2.490 . S
Pr800 O822 2.695 . S
Pr800 O823 2.512 . S
Pr800 O825 2.437 . S
Pr800 O828 2.436 . S
Pr800 O830 2.438 . S
Pr801 C811 2.880 . S
Pr801 O822 2.436 . S
Pr801 O824 2.438 . S
Pr801 O826 2.562 . S
Pr801 O827 2.490 . S
Pr801 O828 2.695 . S
Pr801 O829 2.512 . S
Pr801 O831 2.437 . S
C802 Pr800 2.880 . S
C802 C803 1.491 . S
C802 O820 1.254 . S
C802 O821 1.225 . S
C803 C802 1.491 . S
C803 C804 1.392 . S
C803 C808 1.356 . S
C804 C803 1.392 . S
C804 C805 1.368 . S
C804 H832 0.929 . S
C805 C804 1.368 . S
C805 C806 1.386 1_554 S
C805 H833 0.929 . S
C806 C805 1.386 1_556 S
C806 C807 1.373 1_556 S
C807 C806 1.373 1_554 S
C807 C808 1.409 . S
C807 H834 0.931 1_554 S
C808 C803 1.356 . S
C808 C807 1.409 . S
C808 H835 0.930 . S
C809 O822 1.270 . S
C809 O823 1.248 . S
C810 O824 1.267 . S
C810 O825 1.278 . S
C811 Pr801 2.880 . S
C811 C812 1.491 . S
C811 O826 1.254 . S
C811 O827 1.225 . S
C812 C811 1.491 . S
C812 C813 1.392 . S
C812 C817 1.356 . S
C813 C812 1.392 . S
C813 C814 1.368 . S
C813 H836 0.929 . S
C814 C813 1.368 . S
C814 C815 1.386 . S
C814 H837 0.929 . S
C815 C814 1.386 . S
C815 C816 1.373 . S
C816 C815 1.373 . S
C816 C817 1.409 . S
C816 H838 0.931 . S
C817 C812 1.356 . S
C817 C816 1.409 . S
C817 H839 0.930 . S
C818 O828 1.270 . S
C818 O829 1.248 . S
C819 O830 1.267 . S
C819 O831 1.278 . S
O820 Pr800 2.562 . S
O820 C802 1.254 . S
O821 Pr800 2.490 . S
O821 C802 1.225 . S
O822 Pr800 2.695 . S
O822 Pr801 2.436 . S
O822 C809 1.270 . S
O823 Pr800 2.512 . S
O823 C809 1.248 . S
O824 Pr801 2.438 . S
O824 C810 1.267 . S
O825 Pr800 2.437 . S
O825 C810 1.278 . S
O826 Pr801 2.562 . S
O826 C811 1.254 . S
O827 Pr801 2.490 . S
O827 C811 1.225 . S
O828 Pr800 2.436 . S
O828 Pr801 2.695 . S
O828 C818 1.270 . S
O829 Pr801 2.512 . S
O829 C818 1.248 . S
O830 Pr800 2.438 . S
O830 C819 1.267 . S
O831 Pr801 2.437 . S
O831 C819 1.278 . S
H832 C804 0.929 . S
H833 C805 0.929 . S
H834 C807 0.931 1_556 S
H835 C808 0.930 . S
H836 C813 0.929 . S
H837 C814 0.929 . S
H838 C816 0.931 . S
H839 C817 0.930 . S
Pr840 C842 2.880 . S
Pr840 O860 2.562 1_565 S
Pr840 O861 2.490 . S
Pr840 O862 2.695 . S
Pr840 O863 2.512 . S
Pr840 O865 2.437 . S
Pr840 O868 2.436 1_565 S
Pr840 O870 2.438 . S
Pr841 C851 2.880 . S
Pr841 O862 2.436 1_545 S
Pr841 O864 2.438 . S
Pr841 O866 2.562 1_545 S
Pr841 O867 2.490 . S
Pr841 O868 2.695 . S
Pr841 O869 2.512 . S
Pr841 O871 2.437 . S
C842 Pr840 2.880 . S
C842 C843 1.491 . S
C842 O860 1.254 1_565 S
C842 O861 1.225 . S
C843 C842 1.491 . S
C843 C844 1.392 . S
C843 C848 1.356 1_565 S
C844 C843 1.392 . S
C844 C845 1.368 . S
C844 H872 0.929 . S
C845 C844 1.368 . S
C845 C846 1.386 1_554 S
C845 H873 0.929 . S
C846 C845 1.386 1_556 S
C846 C847 1.416 1_556 S
C847 C846 1.416 1_554 S
C847 C848 1.405 1_565 S
C847 H874 0.884 1_564 S
C848 C843 1.356 1_545 S
C848 C847 1.405 1_545 S
C848 H875 0.930 . S
C849 O862 1.270 . S
C849 O863 1.248 . S
C850 O864 1.267 1_565 S
C850 O865 1.278 . S
C851 Pr841 2.880 . S
C851 C852 1.491 . S
C851 O866 1.254 1_545 S
C851 O867 1.225 . S
C852 C851 1.491 . S
C852 C853 1.392 . S
C852 C857 1.356 1_545 S
C853 C852 1.392 . S
C853 C854 1.368 . S
C853 H876 0.929 . S
C854 C853 1.368 . S
C854 C855 1.386 . S
C854 H877 0.929 . S
C855 C854 1.386 . S
C855 C856 1.428 . S
C856 C855 1.428 . S
C856 C857 1.404 1_545 S
C856 H878 0.883 1_545 S
C857 C852 1.356 1_565 S
C857 C856 1.404 1_565 S
C857 H879 0.930 . S
C858 O868 1.270 . S
C858 O869 1.248 . S
C859 O870 1.267 1_545 S
C859 O871 1.278 . S
O860 Pr840 2.562 1_545 S
O860 C842 1.254 1_545 S
O861 Pr840 2.490 . S
O861 C842 1.225 . S
O862 Pr840 2.695 . S
O862 Pr841 2.436 1_565 S
O862 C849 1.270 . S
O863 Pr840 2.512 . S
O863 C849 1.248 . S
O864 Pr841 2.438 . S
O864 C850 1.267 1_545 S
O865 Pr840 2.437 . S
O865 C850 1.278 . S
O866 Pr841 2.562 1_565 S
O866 C851 1.254 1_565 S
O867 Pr841 2.490 . S
O867 C851 1.225 . S
O868 Pr840 2.436 1_545 S
O868 Pr841 2.695 . S
O868 C858 1.270 . S
O869 Pr841 2.512 . S
O869 C858 1.248 . S
O870 Pr840 2.438 . S
O870 C859 1.267 1_565 S
O871 Pr841 2.437 . S
O871 C859 1.278 . S
H872 C844 0.929 . S
H873 C845 0.929 . S
H874 C847 0.884 1_546 S
H875 C848 0.930 . S
H876 C853 0.929 . S
H877 C854 0.929 . S
H878 C856 0.883 1_565 S
H879 C857 0.930 . S
Pr880 C882 2.880 . S
Pr880 O900 2.562 1_565 S
Pr880 O901 2.490 . S
Pr880 O902 2.695 . S
Pr880 O903 2.512 . S
Pr880 O905 2.437 . S
Pr880 O908 2.436 1_565 S
Pr880 O910 2.438 . S
Pr881 C891 2.880 . S
Pr881 O902 2.436 1_545 S
Pr881 O904 2.438 . S
Pr881 O906 2.562 1_545 S
Pr881 O907 2.490 . S
Pr881 O908 2.695 . S
Pr881 O909 2.512 . S
Pr881 O911 2.437 . S
C882 Pr880 2.880 . S
C882 C883 1.491 . S
C882 O900 1.254 1_565 S
C882 O901 1.225 . S
C883 C882 1.491 . S
C883 C884 1.392 . S
C883 C888 1.356 1_565 S
C884 C883 1.392 . S
C884 C885 1.368 . S
C884 H912 0.929 . S
C885 C884 1.368 . S
C885 C886 1.386 . S
C885 H913 0.929 . S
C886 C885 1.386 . S
C886 C887 1.416 . S
C887 C886 1.416 . S
C887 C888 1.405 1_565 S
C887 H914 0.894 1_565 S
C888 C883 1.356 1_545 S
C888 C887 1.405 1_545 S
C888 H915 0.930 . S
C889 O902 1.270 . S
C889 O903 1.248 . S
C890 O904 1.267 1_565 S
C890 O905 1.278 . S
C891 Pr881 2.880 . S
C891 C892 1.491 . S
C891 O906 1.254 1_545 S
C891 O907 1.225 . S
C892 C891 1.491 . S
C892 C893 1.392 . S
C892 C897 1.356 1_545 S
C893 C892 1.392 . S
C893 C894 1.368 . S
C893 H916 0.929 . S
C894 C893 1.368 . S
C894 C895 1.386 . S
C894 H917 0.929 . S
C895 C894 1.386 . S
C895 C896 1.428 . S
C896 C895 1.428 . S
C896 C897 1.404 1_545 S
C896 H918 0.883 1_545 S
C897 C892 1.356 1_565 S
C897 C896 1.404 1_565 S
C897 H919 0.930 . S
C898 O908 1.270 . S
C898 O909 1.248 . S
C899 O910 1.267 1_545 S
C899 O911 1.278 . S
O900 Pr880 2.562 1_545 S
O900 C882 1.254 1_545 S
O901 Pr880 2.490 . S
O901 C882 1.225 . S
O902 Pr880 2.695 . S
O902 Pr881 2.436 1_565 S
O902 C889 1.270 . S
O903 Pr880 2.512 . S
O903 C889 1.248 . S
O904 Pr881 2.438 . S
O904 C890 1.267 1_545 S
O905 Pr880 2.437 . S
O905 C890 1.278 . S
O906 Pr881 2.562 1_565 S
O906 C891 1.254 1_565 S
O907 Pr881 2.490 . S
O907 C891 1.225 . S
O908 Pr880 2.436 1_545 S
O908 Pr881 2.695 . S
O908 C898 1.270 . S
O909 Pr881 2.512 . S
O909 C898 1.248 . S
O910 Pr880 2.438 . S
O910 C899 1.267 1_565 S
O911 Pr881 2.437 . S
O911 C899 1.278 . S
H912 C884 0.929 . S
H913 C885 0.929 . S
H914 C887 0.894 1_545 S
H915 C888 0.930 . S
H916 C893 0.929 . S
H917 C894 0.929 . S
H918 C896 0.883 1_565 S
H919 C897 0.930 . S
Pr920 C922 2.880 . S
Pr920 O940 2.562 . S
Pr920 O941 2.490 . S
Pr920 O942 2.695 . S
Pr920 O943 2.512 . S
Pr920 O945 2.437 . S
Pr920 O948 2.436 . S
Pr920 O950 2.438 . S
Pr921 C931 2.880 . S
Pr921 O942 2.436 . S
Pr921 O944 2.438 . S
Pr921 O946 2.562 . S
Pr921 O947 2.490 . S
Pr921 O948 2.695 . S
Pr921 O949 2.512 . S
Pr921 O951 2.437 . S
C922 Pr920 2.880 . S
C922 C923 1.491 . S
C922 O940 1.254 . S
C922 O941 1.225 . S
C923 C922 1.491 . S
C923 C924 1.392 . S
C923 C928 1.356 . S
C924 C923 1.392 . S
C924 C925 1.368 . S
C924 H952 0.929 . S
C925 C924 1.368 . S
C925 C926 1.386 . S
C925 H953 0.929 . S
C926 C925 1.386 . S
C926 C927 1.373 . S
C927 C926 1.373 . S
C927 C928 1.409 . S
C927 H954 0.931 . S
C928 C923 1.356 . S
C928 C927 1.409 . S
C928 H955 0.930 . S
C929 O942 1.270 . S
C929 O943 1.248 . S
C930 O944 1.267 . S
C930 O945 1.278 . S
C931 Pr921 2.880 . S
C931 C932 1.491 . S
C931 O946 1.254 . S
C931 O947 1.225 . S
C932 C931 1.491 . S
C932 C933 1.392 . S
C932 C937 1.356 . S
C933 C932 1.392 . S
C933 C934 1.368 . S
C933 H956 0.929 . S
C934 C933 1.368 . S
C934 C935 1.386 . S
C934 H957 0.929 . S
C935 C934 1.386 . S
C935 C936 1.373 . S
C936 C935 1.373 . S
C936 C937 1.409 . S
C936 H958 0.931 . S
C937 C932 1.356 . S
C937 C936 1.409 . S
C937 H959 0.930 . S
C938 O948 1.270 . S
C938 O949 1.248 . S
C939 O950 1.267 . S
C939 O951 1.278 . S
O940 Pr920 2.562 . S
O940 C922 1.254 . S
O941 Pr920 2.490 . S
O941 C922 1.225 . S
O942 Pr920 2.695 . S
O942 Pr921 2.436 . S
O942 C929 1.270 . S
O943 Pr920 2.512 . S
O943 C929 1.248 . S
O944 Pr921 2.438 . S
O944 C930 1.267 . S
O945 Pr920 2.437 . S
O945 C930 1.278 . S
O946 Pr921 2.562 . S
O946 C931 1.254 . S
O947 Pr921 2.490 . S
O947 C931 1.225 . S
O948 Pr920 2.436 . S
O948 Pr921 2.695 . S
O948 C938 1.270 . S
O949 Pr921 2.512 . S
O949 C938 1.248 . S
O950 Pr920 2.438 . S
O950 C939 1.267 . S
O951 Pr921 2.437 . S
O951 C939 1.278 . S
H952 C924 0.929 . S
H953 C925 0.929 . S
H954 C927 0.931 . S
H955 C928 0.930 . S
H956 C933 0.929 . S
H957 C934 0.929 . S
H958 C936 0.931 . S
H959 C937 0.930 . S
Pr960 C962 2.880 . S
Pr960 O980 2.562 . S
Pr960 O981 2.490 . S
Pr960 O982 2.695 . S
Pr960 O983 2.512 . S
Pr960 O985 2.437 . S
Pr960 O988 2.436 . S
Pr960 O990 2.438 . S
Pr961 C971 2.880 . S
Pr961 O982 2.436 . S
Pr961 O984 2.438 . S
Pr961 O986 2.562 . S
Pr961 O987 2.490 . S
Pr961 O988 2.695 . S
Pr961 O989 2.512 . S
Pr961 O991 2.437 . S
C962 Pr960 2.880 . S
C962 C963 1.491 . S
C962 O980 1.254 . S
C962 O981 1.225 . S
C963 C962 1.491 . S
C963 C964 1.392 . S
C963 C968 1.356 . S
C964 C963 1.392 . S
C964 C965 1.368 1_554 S
C964 H992 0.929 . S
C965 C964 1.368 1_556 S
C965 C966 1.386 . S
C965 H993 0.929 . S
C966 C965 1.386 . S
C966 C967 1.373 . S
C967 C966 1.373 . S
C967 C968 1.409 1_556 S
C967 H994 0.931 . S
C968 C963 1.356 . S
C968 C967 1.409 1_554 S
C968 H995 0.930 . S
C969 O982 1.270 . S
C969 O983 1.248 . S
C970 O984 1.267 . S
C970 O985 1.278 . S
C971 Pr961 2.880 . S
C971 C972 1.491 . S
C971 O986 1.254 . S
C971 O987 1.225 . S
C972 C971 1.491 . S
C972 C973 1.392 . S
C972 C977 1.356 . S
C973 C972 1.392 . S
C973 C974 1.368 . S
C973 H996 0.929 . S
C974 C973 1.368 . S
C974 C975 1.386 . S
C974 H997 0.929 . S
C975 C974 1.386 . S
C975 C976 1.373 . S
C976 C975 1.373 . S
C976 C977 1.409 . S
C976 H998 0.931 . S
C977 C972 1.356 . S
C977 C976 1.409 . S
C977 H999 0.930 . S
C978 O988 1.270 . S
C978 O989 1.248 . S
C979 O990 1.267 . S
C979 O991 1.278 . S
O980 Pr960 2.562 . S
O980 C962 1.254 . S
O981 Pr960 2.490 . S
O981 C962 1.225 . S
O982 Pr960 2.695 . S
O982 Pr961 2.436 . S
O982 C969 1.270 . S
O983 Pr960 2.512 . S
O983 C969 1.248 . S
O984 Pr961 2.438 . S
O984 C970 1.267 . S
O985 Pr960 2.437 . S
O985 C970 1.278 . S
O986 Pr961 2.562 . S
O986 C971 1.254 . S
O987 Pr961 2.490 . S
O987 C971 1.225 . S
O988 Pr960 2.436 . S
O988 Pr961 2.695 . S
O988 C978 1.270 . S
O989 Pr961 2.512 . S
O989 C978 1.248 . S
O990 Pr960 2.438 . S
O990 C979 1.267 . S
O991 Pr961 2.437 . S
O991 C979 1.278 . S
H992 C964 0.929 . S
H993 C965 0.929 . S
H994 C967 0.931 . S
H995 C968 0.930 . S
H996 C973 0.929 . S
H997 C974 0.929 . S
H998 C976 0.931 . S
H999 C977 0.930 . S
Pr1000 C1002 2.880 . S
Pr1000 O1020 2.562 . S
Pr1000 O1021 2.490 . S
Pr1000 O1022 2.695 . S
Pr1000 O1023 2.512 . S
Pr1000 O1025 2.437 . S
Pr1000 O1028 2.436 . S
Pr1000 O1030 2.438 . S
Pr1001 C1011 2.880 . S
Pr1001 O1022 2.436 . S
Pr1001 O1024 2.438 . S
Pr1001 O1026 2.562 . S
Pr1001 O1027 2.490 . S
Pr1001 O1028 2.695 . S
Pr1001 O1029 2.512 . S
Pr1001 O1031 2.437 . S
C1002 Pr1000 2.880 . S
C1002 C1003 1.491 . S
C1002 O1020 1.254 . S
C1002 O1021 1.225 . S
C1003 C1002 1.491 . S
C1003 C1004 1.392 . S
C1003 C1008 1.356 . S
C1004 C1003 1.392 . S
C1004 C1005 1.368 1_554 S
C1004 H1032 0.929 . S
C1005 C1004 1.368 1_556 S
C1005 C1006 1.386 . S
C1005 H1033 0.929 . S
C1006 C1005 1.386 . S
C1006 C1007 1.373 . S
C1007 C1006 1.373 . S
C1007 C1008 1.409 1_556 S
C1007 H1034 0.931 . S
C1008 C1003 1.356 . S
C1008 C1007 1.409 1_554 S
C1008 H1035 0.930 . S
C1009 O1022 1.270 . S
C1009 O1023 1.248 . S
C1010 O1024 1.267 . S
C1010 O1025 1.278 . S
C1011 Pr1001 2.880 . S
C1011 C1012 1.491 . S
C1011 O1026 1.254 . S
C1011 O1027 1.225 . S
C1012 C1011 1.491 . S
C1012 C1013 1.392 . S
C1012 C1017 1.356 . S
C1013 C1012 1.392 . S
C1013 C1014 1.368 . S
C1013 H1036 0.929 . S
C1014 C1013 1.368 . S
C1014 C1015 1.386 . S
C1014 H1037 0.929 . S
C1015 C1014 1.386 . S
C1015 C1016 1.373 . S
C1016 C1015 1.373 . S
C1016 C1017 1.409 . S
C1016 H1038 0.931 . S
C1017 C1012 1.356 . S
C1017 C1016 1.409 . S
C1017 H1039 0.930 . S
C1018 O1028 1.270 . S
C1018 O1029 1.248 . S
C1019 O1030 1.267 . S
C1019 O1031 1.278 . S
O1020 Pr1000 2.562 . S
O1020 C1002 1.254 . S
O1021 Pr1000 2.490 . S
O1021 C1002 1.225 . S
O1022 Pr1000 2.695 . S
O1022 Pr1001 2.436 . S
O1022 C1009 1.270 . S
O1023 Pr1000 2.512 . S
O1023 C1009 1.248 . S
O1024 Pr1001 2.438 . S
O1024 C1010 1.267 . S
O1025 Pr1000 2.437 . S
O1025 C1010 1.278 . S
O1026 Pr1001 2.562 . S
O1026 C1011 1.254 . S
O1027 Pr1001 2.490 . S
O1027 C1011 1.225 . S
O1028 Pr1000 2.436 . S
O1028 Pr1001 2.695 . S
O1028 C1018 1.270 . S
O1029 Pr1001 2.512 . S
O1029 C1018 1.248 . S
O1030 Pr1000 2.438 . S
O1030 C1019 1.267 . S
O1031 Pr1001 2.437 . S
O1031 C1019 1.278 . S
H1032 C1004 0.929 . S
H1033 C1005 0.929 . S
H1034 C1007 0.931 . S
H1035 C1008 0.930 . S
H1036 C1013 0.929 . S
H1037 C1014 0.929 . S
H1038 C1016 0.931 . S
H1039 C1017 0.930 . S
Pr1040 C1042 2.880 . S
Pr1040 O1060 2.562 . S
Pr1040 O1061 2.490 . S
Pr1040 O1062 2.695 . S
Pr1040 O1063 2.512 . S
Pr1040 O1065 2.437 . S
Pr1040 O1068 2.436 . S
Pr1040 O1070 2.438 . S
Pr1041 C1051 2.880 . S
Pr1041 O1062 2.436 1_556 S
Pr1041 O1064 2.438 1_556 S
Pr1041 O1066 2.562 . S
Pr1041 O1067 2.490 . S
Pr1041 O1068 2.695 1_556 S
Pr1041 O1069 2.512 1_556 S
Pr1041 O1071 2.437 . S
C1042 Pr1040 2.880 . S
C1042 C1043 1.491 . S
C1042 O1060 1.254 . S
C1042 O1061 1.225 . S
C1043 C1042 1.491 . S
C1043 C1044 1.392 . S
C1043 C1048 1.356 . S
C1044 C1043 1.392 . S
C1044 C1045 1.368 . S
C1044 H1072 0.929 . S
C1045 C1044 1.368 . S
C1045 C1046 1.386 . S
C1045 H1073 0.929 . S
C1046 C1045 1.386 . S
C1046 C1047 1.373 . S
C1047 C1046 1.373 . S
C1047 C1048 1.409 . S
C1047 H1074 0.931 . S
C1048 C1043 1.356 . S
C1048 C1047 1.409 . S
C1048 H1075 0.930 . S
C1049 O1062 1.270 . S
C1049 O1063 1.248 . S
C1050 O1064 1.267 . S
C1050 O1065 1.278 . S
C1051 Pr1041 2.880 . S
C1051 C1052 1.491 . S
C1051 O1066 1.254 . S
C1051 O1067 1.225 . S
C1052 C1051 1.491 . S
C1052 C1053 1.392 . S
C1052 C1057 1.356 . S
C1053 C1052 1.392 . S
C1053 C1054 1.368 . S
C1053 H1076 0.929 . S
C1054 C1053 1.368 . S
C1054 C1055 1.386 . S
C1054 H1077 0.929 . S
C1055 C1054 1.386 . S
C1055 C1056 1.373 . S
C1056 C1055 1.373 . S
C1056 C1057 1.409 . S
C1056 H1078 0.931 . S
C1057 C1052 1.356 . S
C1057 C1056 1.409 . S
C1057 H1079 0.930 . S
C1058 O1068 1.270 . S
C1058 O1069 1.248 . S
C1059 O1070 1.267 1_556 S
C1059 O1071 1.278 . S
O1060 Pr1040 2.562 . S
O1060 C1042 1.254 . S
O1061 Pr1040 2.490 . S
O1061 C1042 1.225 . S
O1062 Pr1040 2.695 . S
O1062 Pr1041 2.436 1_554 S
O1062 C1049 1.270 . S
O1063 Pr1040 2.512 . S
O1063 C1049 1.248 . S
O1064 Pr1041 2.438 1_554 S
O1064 C1050 1.267 . S
O1065 Pr1040 2.437 . S
O1065 C1050 1.278 . S
O1066 Pr1041 2.562 . S
O1066 C1051 1.254 . S
O1067 Pr1041 2.490 . S
O1067 C1051 1.225 . S
O1068 Pr1040 2.436 . S
O1068 Pr1041 2.695 1_554 S
O1068 C1058 1.270 . S
O1069 Pr1041 2.512 1_554 S
O1069 C1058 1.248 . S
O1070 Pr1040 2.438 . S
O1070 C1059 1.267 1_554 S
O1071 Pr1041 2.437 . S
O1071 C1059 1.278 . S
H1072 C1044 0.929 . S
H1073 C1045 0.929 . S
H1074 C1047 0.931 . S
H1075 C1048 0.930 . S
H1076 C1053 0.929 . S
H1077 C1054 0.929 . S
H1078 C1056 0.931 . S
H1079 C1057 0.930 . S
Pr1080 C1082 2.880 . S
Pr1080 O1100 2.562 . S
Pr1080 O1101 2.490 . S
Pr1080 O1102 2.695 . S
Pr1080 O1103 2.512 . S
Pr1080 O1105 2.437 . S
Pr1080 O1108 2.436 . S
Pr1080 O1110 2.438 . S
Pr1081 C1091 2.880 . S
Pr1081 O1102 2.436 1_556 S
Pr1081 O1104 2.438 1_556 S
Pr1081 O1106 2.562 . S
Pr1081 O1107 2.490 . S
Pr1081 O1108 2.695 1_556 S
Pr1081 O1109 2.512 1_556 S
Pr1081 O1111 2.437 . S
C1082 Pr1080 2.880 . S
C1082 C1083 1.491 . S
C1082 O1100 1.254 . S
C1082 O1101 1.225 . S
C1083 C1082 1.491 . S
C1083 C1084 1.392 . S
C1083 C1088 1.356 . S
C1084 C1083 1.392 . S
C1084 C1085 1.368 . S
C1084 H1112 0.929 . S
C1085 C1084 1.368 . S
C1085 C1086 1.386 . S
C1085 H1113 0.929 . S
C1086 C1085 1.386 . S
C1086 C1087 1.373 . S
C1087 C1086 1.373 . S
C1087 C1088 1.409 . S
C1087 H1114 0.931 . S
C1088 C1083 1.356 . S
C1088 C1087 1.409 . S
C1088 H1115 0.930 . S
C1089 O1102 1.270 . S
C1089 O1103 1.248 . S
C1090 O1104 1.267 . S
C1090 O1105 1.278 . S
C1091 Pr1081 2.880 . S
C1091 C1092 1.491 . S
C1091 O1106 1.254 . S
C1091 O1107 1.225 . S
C1092 C1091 1.491 . S
C1092 C1093 1.392 . S
C1092 C1097 1.356 . S
C1093 C1092 1.392 . S
C1093 C1094 1.368 . S
C1093 H1116 0.929 . S
C1094 C1093 1.368 . S
C1094 C1095 1.386 . S
C1094 H1117 0.929 . S
C1095 C1094 1.386 . S
C1095 C1096 1.373 . S
C1096 C1095 1.373 . S
C1096 C1097 1.409 . S
C1096 H1118 0.931 . S
C1097 C1092 1.356 . S
C1097 C1096 1.409 . S
C1097 H1119 0.930 . S
C1098 O1108 1.270 . S
C1098 O1109 1.248 . S
C1099 O1110 1.267 1_556 S
C1099 O1111 1.278 . S
O1100 Pr1080 2.562 . S
O1100 C1082 1.254 . S
O1101 Pr1080 2.490 . S
O1101 C1082 1.225 . S
O1102 Pr1080 2.695 . S
O1102 Pr1081 2.436 1_554 S
O1102 C1089 1.270 . S
O1103 Pr1080 2.512 . S
O1103 C1089 1.248 . S
O1104 Pr1081 2.438 1_554 S
O1104 C1090 1.267 . S
O1105 Pr1080 2.437 . S
O1105 C1090 1.278 . S
O1106 Pr1081 2.562 . S
O1106 C1091 1.254 . S
O1107 Pr1081 2.490 . S
O1107 C1091 1.225 . S
O1108 Pr1080 2.436 . S
O1108 Pr1081 2.695 1_554 S
O1108 C1098 1.270 . S
O1109 Pr1081 2.512 1_554 S
O1109 C1098 1.248 . S
O1110 Pr1080 2.438 . S
O1110 C1099 1.267 1_554 S
O1111 Pr1081 2.437 . S
O1111 C1099 1.278 . S
H1112 C1084 0.929 . S
H1113 C1085 0.929 . S
H1114 C1087 0.931 . S
H1115 C1088 0.930 . S
H1116 C1093 0.929 . S
H1117 C1094 0.929 . S
H1118 C1096 0.931 . S
H1119 C1097 0.930 . S
Pr1120 C1122 2.880 . S
Pr1120 O1140 2.562 . S
Pr1120 O1141 2.490 . S
Pr1120 O1142 2.695 . S
Pr1120 O1143 2.512 . S
Pr1120 O1145 2.437 . S
Pr1120 O1148 2.436 . S
Pr1120 O1150 2.438 . S
Pr1121 C1131 2.880 . S
Pr1121 O1142 2.436 . S
Pr1121 O1144 2.438 . S
Pr1121 O1146 2.562 . S
Pr1121 O1147 2.490 . S
Pr1121 O1148 2.695 . S
Pr1121 O1149 2.512 . S
Pr1121 O1151 2.437 . S
C1122 Pr1120 2.880 . S
C1122 C1123 1.491 . S
C1122 O1140 1.254 . S
C1122 O1141 1.225 . S
C1123 C1122 1.491 . S
C1123 C1124 1.392 . S
C1123 C1128 1.356 . S
C1124 C1123 1.392 . S
C1124 C1125 1.368 . S
C1124 H1152 0.929 . S
C1125 C1124 1.368 . S
C1125 C1126 1.386 . S
C1125 H1153 0.929 . S
C1126 C1125 1.386 . S
C1126 C1127 1.373 . S
C1127 C1126 1.373 . S
C1127 C1128 1.409 . S
C1127 H1154 0.931 . S
C1128 C1123 1.356 . S
C1128 C1127 1.409 . S
C1128 H1155 0.930 . S
C1129 O1142 1.270 . S
C1129 O1143 1.248 . S
C1130 O1144 1.267 . S
C1130 O1145 1.278 . S
C1131 Pr1121 2.880 . S
C1131 C1132 1.491 . S
C1131 O1146 1.254 . S
C1131 O1147 1.225 . S
C1132 C1131 1.491 . S
C1132 C1133 1.392 . S
C1132 C1137 1.356 . S
C1133 C1132 1.392 . S
C1133 C1134 1.368 1_556 S
C1133 H1156 0.929 . S
C1134 C1133 1.368 1_554 S
C1134 C1135 1.386 . S
C1134 H1157 0.929 . S
C1135 C1134 1.386 . S
C1135 C1136 1.373 . S
C1136 C1135 1.373 . S
C1136 C1137 1.409 1_554 S
C1136 H1158 0.931 . S
C1137 C1132 1.356 . S
C1137 C1136 1.409 1_556 S
C1137 H1159 0.930 . S
C1138 O1148 1.270 . S
C1138 O1149 1.248 . S
C1139 O1150 1.267 . S
C1139 O1151 1.278 . S
O1140 Pr1120 2.562 . S
O1140 C1122 1.254 . S
O1141 Pr1120 2.490 . S
O1141 C1122 1.225 . S
O1142 Pr1120 2.695 . S
O1142 Pr1121 2.436 . S
O1142 C1129 1.270 . S
O1143 Pr1120 2.512 . S
O1143 C1129 1.248 . S
O1144 Pr1121 2.438 . S
O1144 C1130 1.267 . S
O1145 Pr1120 2.437 . S
O1145 C1130 1.278 . S
O1146 Pr1121 2.562 . S
O1146 C1131 1.254 . S
O1147 Pr1121 2.490 . S
O1147 C1131 1.225 . S
O1148 Pr1120 2.436 . S
O1148 Pr1121 2.695 . S
O1148 C1138 1.270 . S
O1149 Pr1121 2.512 . S
O1149 C1138 1.248 . S
O1150 Pr1120 2.438 . S
O1150 C1139 1.267 . S
O1151 Pr1121 2.437 . S
O1151 C1139 1.278 . S
H1152 C1124 0.929 . S
H1153 C1125 0.929 . S
H1154 C1127 0.931 . S
H1155 C1128 0.930 . S
H1156 C1133 0.929 . S
H1157 C1134 0.929 . S
H1158 C1136 0.931 . S
H1159 C1137 0.930 . S
Pr1160 C1162 2.880 . S
Pr1160 O1180 2.562 . S
Pr1160 O1181 2.490 . S
Pr1160 O1182 2.695 . S
Pr1160 O1183 2.512 . S
Pr1160 O1185 2.437 . S
Pr1160 O1188 2.436 . S
Pr1160 O1190 2.438 . S
Pr1161 C1171 2.880 . S
Pr1161 O1182 2.436 . S
Pr1161 O1184 2.438 . S
Pr1161 O1186 2.562 . S
Pr1161 O1187 2.490 . S
Pr1161 O1188 2.695 . S
Pr1161 O1189 2.512 . S
Pr1161 O1191 2.437 . S
C1162 Pr1160 2.880 . S
C1162 C1163 1.491 . S
C1162 O1180 1.254 . S
C1162 O1181 1.225 . S
C1163 C1162 1.491 . S
C1163 C1164 1.392 . S
C1163 C1168 1.356 . S
C1164 C1163 1.392 . S
C1164 C1165 1.368 . S
C1164 H1192 0.929 . S
C1165 C1164 1.368 . S
C1165 C1166 1.386 . S
C1165 H1193 0.929 . S
C1166 C1165 1.386 . S
C1166 C1167 1.373 . S
C1167 C1166 1.373 . S
C1167 C1168 1.409 . S
C1167 H1194 0.931 . S
C1168 C1163 1.356 . S
C1168 C1167 1.409 . S
C1168 H1195 0.930 . S
C1169 O1182 1.270 . S
C1169 O1183 1.248 . S
C1170 O1184 1.267 . S
C1170 O1185 1.278 . S
C1171 Pr1161 2.880 . S
C1171 C1172 1.491 . S
C1171 O1186 1.254 . S
C1171 O1187 1.225 . S
C1172 C1171 1.491 . S
C1172 C1173 1.392 . S
C1172 C1177 1.356 . S
C1173 C1172 1.392 . S
C1173 C1174 1.368 1_556 S
C1173 H1196 0.929 . S
C1174 C1173 1.368 1_554 S
C1174 C1175 1.386 . S
C1174 H1197 0.929 . S
C1175 C1174 1.386 . S
C1175 C1176 1.373 . S
C1176 C1175 1.373 . S
C1176 C1177 1.409 1_554 S
C1176 H1198 0.931 . S
C1177 C1172 1.356 . S
C1177 C1176 1.409 1_556 S
C1177 H1199 0.930 . S
C1178 O1188 1.270 . S
C1178 O1189 1.248 . S
C1179 O1190 1.267 . S
C1179 O1191 1.278 . S
O1180 Pr1160 2.562 . S
O1180 C1162 1.254 . S
O1181 Pr1160 2.490 . S
O1181 C1162 1.225 . S
O1182 Pr1160 2.695 . S
O1182 Pr1161 2.436 . S
O1182 C1169 1.270 . S
O1183 Pr1160 2.512 . S
O1183 C1169 1.248 . S
O1184 Pr1161 2.438 . S
O1184 C1170 1.267 . S
O1185 Pr1160 2.437 . S
O1185 C1170 1.278 . S
O1186 Pr1161 2.562 . S
O1186 C1171 1.254 . S
O1187 Pr1161 2.490 . S
O1187 C1171 1.225 . S
O1188 Pr1160 2.436 . S
O1188 Pr1161 2.695 . S
O1188 C1178 1.270 . S
O1189 Pr1161 2.512 . S
O1189 C1178 1.248 . S
O1190 Pr1160 2.438 . S
O1190 C1179 1.267 . S
O1191 Pr1161 2.437 . S
O1191 C1179 1.278 . S
H1192 C1164 0.929 . S
H1193 C1165 0.929 . S
H1194 C1167 0.931 . S
H1195 C1168 0.930 . S
H1196 C1173 0.929 . S
H1197 C1174 0.929 . S
H1198 C1176 0.931 . S
H1199 C1177 0.930 . S
Pr1200 C1202 2.880 . S
Pr1200 O1220 2.562 . S
Pr1200 O1221 2.490 . S
Pr1200 O1222 2.695 1_554 S
Pr1200 O1223 2.512 1_554 S
Pr1200 O1225 2.437 . S
Pr1200 O1228 2.436 1_554 S
Pr1200 O1230 2.438 1_554 S
Pr1201 C1211 2.880 . S
Pr1201 O1222 2.436 . S
Pr1201 O1224 2.438 . S
Pr1201 O1226 2.562 . S
Pr1201 O1227 2.490 . S
Pr1201 O1228 2.695 . S
Pr1201 O1229 2.512 . S
Pr1201 O1231 2.437 . S
C1202 Pr1200 2.880 . S
C1202 C1203 1.491 . S
C1202 O1220 1.254 . S
C1202 O1221 1.225 . S
C1203 C1202 1.491 . S
C1203 C1204 1.392 . S
C1203 C1208 1.356 . S
C1204 C1203 1.392 . S
C1204 C1205 1.368 . S
C1204 H1232 0.929 . S
C1205 C1204 1.368 . S
C1205 C1206 1.386 . S
C1205 H1233 0.929 . S
C1206 C1205 1.386 . S
C1206 C1207 1.373 . S
C1207 C1206 1.373 . S
C1207 C1208 1.409 . S
C1207 H1234 0.931 . S
C1208 C1203 1.356 . S
C1208 C1207 1.409 . S
C1208 H1235 0.930 . S
C1209 O1222 1.270 . S
C1209 O1223 1.248 . S
C1210 O1224 1.267 1_554 S
C1210 O1225 1.278 . S
C1211 Pr1201 2.880 . S
C1211 C1212 1.491 . S
C1211 O1226 1.254 . S
C1211 O1227 1.225 . S
C1212 C1211 1.491 . S
C1212 C1213 1.392 . S
C1212 C1217 1.356 . S
C1213 C1212 1.392 . S
C1213 C1214 1.368 . S
C1213 H1236 0.929 . S
C1214 C1213 1.368 . S
C1214 C1215 1.386 . S
C1214 H1237 0.929 . S
C1215 C1214 1.386 . S
C1215 C1216 1.373 . S
C1216 C1215 1.373 . S
C1216 C1217 1.409 . S
C1216 H1238 0.931 . S
C1217 C1212 1.356 . S
C1217 C1216 1.409 . S
C1217 H1239 0.930 . S
C1218 O1228 1.270 . S
C1218 O1229 1.248 . S
C1219 O1230 1.267 . S
C1219 O1231 1.278 . S
O1220 Pr1200 2.562 . S
O1220 C1202 1.254 . S
O1221 Pr1200 2.490 . S
O1221 C1202 1.225 . S
O1222 Pr1200 2.695 1_556 S
O1222 Pr1201 2.436 . S
O1222 C1209 1.270 . S
O1223 Pr1200 2.512 1_556 S
O1223 C1209 1.248 . S
O1224 Pr1201 2.438 . S
O1224 C1210 1.267 1_556 S
O1225 Pr1200 2.437 . S
O1225 C1210 1.278 . S
O1226 Pr1201 2.562 . S
O1226 C1211 1.254 . S
O1227 Pr1201 2.490 . S
O1227 C1211 1.225 . S
O1228 Pr1200 2.436 1_556 S
O1228 Pr1201 2.695 . S
O1228 C1218 1.270 . S
O1229 Pr1201 2.512 . S
O1229 C1218 1.248 . S
O1230 Pr1200 2.438 1_556 S
O1230 C1219 1.267 . S
O1231 Pr1201 2.437 . S
O1231 C1219 1.278 . S
H1232 C1204 0.929 . S
H1233 C1205 0.929 . S
H1234 C1207 0.931 . S
H1235 C1208 0.930 . S
H1236 C1213 0.929 . S
H1237 C1214 0.929 . S
H1238 C1216 0.931 . S
H1239 C1217 0.930 . S
Pr1240 C1242 2.880 . S
Pr1240 O1260 2.562 . S
Pr1240 O1261 2.490 . S
Pr1240 O1262 2.695 1_554 S
Pr1240 O1263 2.512 1_554 S
Pr1240 O1265 2.437 . S
Pr1240 O1268 2.436 1_554 S
Pr1240 O1270 2.438 1_554 S
Pr1241 C1251 2.880 . S
Pr1241 O1262 2.436 . S
Pr1241 O1264 2.438 . S
Pr1241 O1266 2.562 . S
Pr1241 O1267 2.490 . S
Pr1241 O1268 2.695 . S
Pr1241 O1269 2.512 . S
Pr1241 O1271 2.437 . S
C1242 Pr1240 2.880 . S
C1242 C1243 1.491 . S
C1242 O1260 1.254 . S
C1242 O1261 1.225 . S
C1243 C1242 1.491 . S
C1243 C1244 1.392 . S
C1243 C1248 1.356 . S
C1244 C1243 1.392 . S
C1244 C1245 1.368 . S
C1244 H1272 0.929 . S
C1245 C1244 1.368 . S
C1245 C1246 1.386 . S
C1245 H1273 0.929 . S
C1246 C1245 1.386 . S
C1246 C1247 1.373 . S
C1247 C1246 1.373 . S
C1247 C1248 1.409 . S
C1247 H1274 0.931 . S
C1248 C1243 1.356 . S
C1248 C1247 1.409 . S
C1248 H1275 0.930 . S
C1249 O1262 1.270 . S
C1249 O1263 1.248 . S
C1250 O1264 1.267 1_554 S
C1250 O1265 1.278 . S
C1251 Pr1241 2.880 . S
C1251 C1252 1.491 . S
C1251 O1266 1.254 . S
C1251 O1267 1.225 . S
C1252 C1251 1.491 . S
C1252 C1253 1.392 . S
C1252 C1257 1.356 . S
C1253 C1252 1.392 . S
C1253 C1254 1.368 . S
C1253 H1276 0.929 . S
C1254 C1253 1.368 . S
C1254 C1255 1.386 . S
C1254 H1277 0.929 . S
C1255 C1254 1.386 . S
C1255 C1256 1.373 . S
C1256 C1255 1.373 . S
C1256 C1257 1.409 . S
C1256 H1278 0.931 . S
C1257 C1252 1.356 . S
C1257 C1256 1.409 . S
C1257 H1279 0.930 . S
C1258 O1268 1.270 . S
C1258 O1269 1.248 . S
C1259 O1270 1.267 . S
C1259 O1271 1.278 . S
O1260 Pr1240 2.562 . S
O1260 C1242 1.254 . S
O1261 Pr1240 2.490 . S
O1261 C1242 1.225 . S
O1262 Pr1240 2.695 1_556 S
O1262 Pr1241 2.436 . S
O1262 C1249 1.270 . S
O1263 Pr1240 2.512 1_556 S
O1263 C1249 1.248 . S
O1264 Pr1241 2.438 . S
O1264 C1250 1.267 1_556 S
O1265 Pr1240 2.437 . S
O1265 C1250 1.278 . S
O1266 Pr1241 2.562 . S
O1266 C1251 1.254 . S
O1267 Pr1241 2.490 . S
O1267 C1251 1.225 . S
O1268 Pr1240 2.436 1_556 S
O1268 Pr1241 2.695 . S
O1268 C1258 1.270 . S
O1269 Pr1241 2.512 . S
O1269 C1258 1.248 . S
O1270 Pr1240 2.438 1_556 S
O1270 C1259 1.267 . S
O1271 Pr1241 2.437 . S
O1271 C1259 1.278 . S
H1272 C1244 0.929 . S
H1273 C1245 0.929 . S
H1274 C1247 0.931 . S
H1275 C1248 0.930 . S
H1276 C1253 0.929 . S
H1277 C1254 0.929 . S
H1278 C1256 0.931 . S
H1279 C1257 0.930 . S
C1280 C1281 1.349 . S
C1280 C1282 1.327 . S
C1280 H1305 0.950 . S
C1281 C1280 1.349 . S
C1281 C1297 1.349 . S
C1282 C1280 1.327 . S
C1282 C1301 1.429 . S
C1282 H1306 0.950 . S
C1283 C1300 1.574 1_556 S
C1283 C1302 1.368 . S
C1283 H1307 0.949 . S
H1284 C1288 0.949 . S
C1285 C1286 1.349 . S
C1285 C1287 1.327 . S
C1285 H1308 0.950 . S
C1286 C1285 1.349 . S
C1286 C1298 1.349 . S
C1287 C1285 1.327 . S
C1287 C1303 1.429 . S
C1287 H1309 0.950 . S
C1288 H1284 0.949 . S
C1288 C1296 1.574 1_554 S
C1288 C1304 1.368 . S
H1289 C1297 0.950 . S
H1290 C1295 0.950 . S
H1291 C1296 0.949 . S
H1292 C1298 0.950 . S
H1293 C1299 0.950 . S
H1294 C1300 0.949 . S
C1295 H1290 0.950 . S
C1295 C1297 1.327 . S
C1295 C1301 1.429 . S
C1296 C1288 1.574 1_556 S
C1296 H1291 0.949 . S
C1296 C1302 1.368 . S
C1297 C1281 1.349 . S
C1297 H1289 0.950 . S
C1297 C1295 1.327 . S
C1298 C1286 1.349 . S
C1298 H1292 0.950 . S
C1298 C1299 1.327 . S
C1299 H1293 0.950 . S
C1299 C1298 1.327 . S
C1299 C1303 1.429 . S
C1300 C1283 1.574 1_554 S
C1300 H1294 0.949 . S
C1300 C1304 1.368 . S
C1301 C1282 1.429 . S
C1301 C1295 1.429 . S
C1301 C1302 1.523 . S
C1302 C1283 1.368 . S
C1302 C1296 1.368 . S
C1302 C1301 1.523 . S
C1303 C1287 1.429 . S
C1303 C1299 1.429 . S
C1303 C1304 1.523 . S
C1304 C1288 1.368 . S
C1304 C1300 1.368 . S
C1304 C1303 1.523 . S
H1305 C1280 0.950 . S
H1306 C1282 0.950 . S
H1307 C1283 0.949 . S
H1308 C1285 0.950 . S
H1309 C1287 0.950 . S
C1310 C1311 1.349 1_565 S
C1310 C1312 1.327 . S
C1310 H1335 0.950 . S
C1311 C1310 1.349 1_545 S
C1311 C1327 1.349 . S
C1312 C1310 1.327 . S
C1312 C1331 1.429 1_565 S
C1312 H1336 0.950 . S
C1313 C1330 1.581 1_456 S
C1313 C1332 1.385 . S
C1313 H1337 0.949 . S
H1314 C1318 0.949 . S
C1315 C1316 1.349 1_545 S
C1315 C1317 1.327 . S
C1315 H1338 0.950 . S
C1316 C1315 1.349 1_565 S
C1316 C1328 1.349 . S
C1317 C1315 1.327 . S
C1317 C1333 1.392 1_545 S
C1317 H1339 0.950 . S
C1318 H1314 0.949 . S
C1318 C1326 1.581 1_654 S
C1318 C1334 1.375 . S
H1319 C1327 0.950 . S
H1320 C1325 0.950 . S
H1321 C1326 0.949 . S
H1322 C1328 0.950 . S
H1323 C1329 0.950 . S
H1324 C1330 0.949 . S
C1325 H1320 0.950 . S
C1325 C1327 1.327 . S
C1325 C1331 1.429 . S
C1326 C1318 1.581 1_456 S
C1326 H1321 0.949 . S
C1326 C1332 1.344 1_565 S
C1327 C1311 1.349 . S
C1327 H1319 0.950 . S
C1327 C1325 1.327 . S
C1328 C1316 1.349 . S
C1328 H1322 0.950 . S
C1328 C1329 1.327 . S
C1329 H1323 0.950 . S
C1329 C1328 1.327 . S
C1329 C1333 1.467 . S
C1330 C1313 1.581 1_654 S
C1330 H1324 0.949 . S
C1330 C1334 1.355 1_545 S
C1331 C1312 1.429 1_545 S
C1331 C1325 1.429 . S
C1331 C1332 1.524 . S
C1332 C1313 1.385 . S
C1332 C1326 1.344 1_545 S
C1332 C1331 1.524 . S
C1333 C1317 1.392 1_565 S
C1333 C1329 1.467 . S
C1333 C1334 1.522 . S
C1334 C1318 1.375 . S
C1334 C1330 1.355 1_565 S
C1334 C1333 1.522 . S
H1335 C1310 0.950 . S
H1336 C1312 0.950 . S
H1337 C1313 0.949 . S
H1338 C1315 0.950 . S
H1339 C1317 0.950 . S
C1340 C1341 1.349 1_565 S
C1340 C1342 1.327 . S
C1340 H1365 0.950 . S
C1341 C1340 1.349 1_545 S
C1341 C1357 1.349 . S
C1342 C1340 1.327 . S
C1342 C1361 1.429 1_565 S
C1342 H1366 0.950 . S
C1343 C1360 1.574 . S
C1343 C1362 1.391 . S
C1343 H1367 0.949 . S
H1344 C1348 0.949 . S
C1345 C1346 1.349 1_545 S
C1345 C1347 1.327 . S
C1345 H1368 0.950 . S
C1346 C1345 1.349 1_565 S
C1346 C1358 1.349 . S
C1347 C1345 1.327 . S
C1347 C1363 1.394 1_545 S
C1347 H1369 0.950 . S
C1348 H1344 0.949 . S
C1348 C1356 1.574 . S
C1348 C1364 1.381 . S
H1349 C1357 0.950 . S
H1350 C1355 0.950 . S
H1351 C1356 0.949 . S
H1352 C1358 0.950 . S
H1353 C1359 0.950 . S
H1354 C1360 0.949 . S
C1355 H1350 0.950 . S
C1355 C1357 1.327 . S
C1355 C1361 1.429 . S
C1356 C1348 1.574 . S
C1356 H1351 0.949 . S
C1356 C1362 1.345 1_565 S
C1357 C1341 1.349 . S
C1357 H1349 0.950 . S
C1357 C1355 1.327 . S
C1358 C1346 1.349 . S
C1358 H1352 0.950 . S
C1358 C1359 1.327 . S
C1359 H1353 0.950 . S
C1359 C1358 1.327 . S
C1359 C1363 1.466 . S
C1360 C1343 1.574 . S
C1360 H1354 0.949 . S
C1360 C1364 1.355 1_545 S
C1361 C1342 1.429 1_545 S
C1361 C1355 1.429 . S
C1361 C1362 1.524 . S
C1362 C1343 1.391 . S
C1362 C1356 1.345 1_545 S
C1362 C1361 1.524 . S
C1363 C1347 1.394 1_565 S
C1363 C1359 1.466 . S
C1363 C1364 1.522 . S
C1364 C1348 1.381 . S
C1364 C1360 1.355 1_565 S
C1364 C1363 1.522 . S
H1365 C1340 0.950 . S
H1366 C1342 0.950 . S
H1367 C1343 0.949 . S
H1368 C1345 0.950 . S
H1369 C1347 0.950 . S
C1370 C1371 1.349 . S
C1370 C1372 1.327 . S
C1370 H1395 0.950 . S
C1371 C1370 1.349 . S
C1371 C1387 1.349 . S
C1372 C1370 1.327 . S
C1372 C1391 1.429 . S
C1372 H1396 0.950 . S
C1373 C1390 1.578 1_455 S
C1373 C1392 1.368 . S
C1373 H1397 0.949 . S
H1374 C1378 0.949 . S
C1375 C1376 1.349 . S
C1375 C1377 1.327 . S
C1375 H1398 0.950 . S
C1376 C1375 1.349 . S
C1376 C1388 1.349 . S
C1377 C1375 1.327 . S
C1377 C1393 1.429 . S
C1377 H1399 0.950 . S
C1378 H1374 0.949 . S
C1378 C1386 1.573 . S
C1378 C1394 1.368 . S
H1379 C1387 0.950 . S
H1380 C1385 0.950 . S
H1381 C1386 0.949 1_455 S
H1382 C1388 0.950 . S
H1383 C1389 0.950 . S
H1384 C1390 0.949 . S
C1385 H1380 0.950 . S
C1385 C1387 1.327 . S
C1385 C1391 1.429 . S
C1386 C1378 1.573 . S
C1386 H1381 0.949 1_655 S
C1386 C1392 1.369 1_655 S
C1387 C1371 1.349 . S
C1387 H1379 0.950 . S
C1387 C1385 1.327 . S
C1388 C1376 1.349 . S
C1388 H1382 0.950 . S
C1388 C1389 1.327 . S
C1389 H1383 0.950 . S
C1389 C1388 1.327 . S
C1389 C1393 1.429 . S
C1390 C1373 1.578 1_655 S
C1390 H1384 0.949 . S
C1390 C1394 1.364 . S
C1391 C1372 1.429 . S
C1391 C1385 1.429 . S
C1391 C1392 1.523 . S
C1392 C1373 1.368 . S
C1392 C1386 1.369 1_455 S
C1392 C1391 1.523 . S
C1393 C1377 1.429 . S
C1393 C1389 1.429 . S
C1393 C1394 1.523 . S
C1394 C1378 1.368 . S
C1394 C1390 1.364 . S
C1394 C1393 1.523 . S
H1395 C1370 0.950 . S
H1396 C1372 0.950 . S
H1397 C1373 0.949 . S
H1398 C1375 0.950 . S
H1399 C1377 0.950 . S
C1400 C1401 1.349 . S
C1400 C1402 1.327 . S
C1400 H1425 0.950 . S
C1401 C1400 1.349 . S
C1401 C1417 1.349 . S
C1402 C1400 1.327 . S
C1402 C1421 1.429 . S
C1402 H1426 0.950 . S
C1403 C1420 1.574 1_556 S
C1403 C1422 1.368 . S
C1403 H1427 0.949 . S
H1404 C1408 0.949 . S
C1405 C1406 1.349 . S
C1405 C1407 1.327 . S
C1405 H1428 0.950 . S
C1406 C1405 1.349 . S
C1406 C1418 1.349 . S
C1407 C1405 1.327 . S
C1407 C1423 1.429 . S
C1407 H1429 0.950 . S
C1408 H1404 0.949 . S
C1408 C1416 1.574 1_554 S
C1408 C1424 1.368 . S
H1409 C1417 0.950 . S
H1410 C1415 0.950 . S
H1411 C1416 0.949 . S
H1412 C1418 0.950 . S
H1413 C1419 0.950 . S
H1414 C1420 0.949 . S
C1415 H1410 0.950 . S
C1415 C1417 1.327 . S
C1415 C1421 1.429 . S
C1416 C1408 1.574 1_556 S
C1416 H1411 0.949 . S
C1416 C1422 1.368 . S
C1417 C1401 1.349 . S
C1417 H1409 0.950 . S
C1417 C1415 1.327 . S
C1418 C1406 1.349 . S
C1418 H1412 0.950 . S
C1418 C1419 1.327 . S
C1419 H1413 0.950 . S
C1419 C1418 1.327 . S
C1419 C1423 1.429 . S
C1420 C1403 1.574 1_554 S
C1420 H1414 0.949 . S
C1420 C1424 1.368 . S
C1421 C1402 1.429 . S
C1421 C1415 1.429 . S
C1421 C1422 1.523 . S
C1422 C1403 1.368 . S
C1422 C1416 1.368 . S
C1422 C1421 1.523 . S
C1423 C1407 1.429 . S
C1423 C1419 1.429 . S
C1423 C1424 1.523 . S
C1424 C1408 1.368 . S
C1424 C1420 1.368 . S
C1424 C1423 1.523 . S
H1425 C1400 0.950 . S
H1426 C1402 0.950 . S
H1427 C1403 0.949 . S
H1428 C1405 0.950 . S
H1429 C1407 0.950 . S
C1430 C1431 1.349 . S
C1430 C1432 1.327 . S
C1430 H1455 0.950 . S
C1431 C1430 1.349 . S
C1431 C1447 1.349 1_565 S
C1432 C1430 1.327 . S
C1432 C1451 1.429 . S
C1432 H1456 0.950 . S
C1433 C1450 1.574 . S
C1433 C1452 1.345 1_545 S
C1433 H1457 0.949 . S
H1434 C1438 0.949 . S
C1435 C1436 1.349 . S
C1435 C1437 1.327 . S
C1435 H1458 0.950 . S
C1436 C1435 1.349 . S
C1436 C1448 1.349 1_545 S
C1437 C1435 1.327 . S
C1437 C1453 1.467 . S
C1437 H1459 0.950 . S
C1438 H1434 0.949 . S
C1438 C1446 1.574 . S
C1438 C1454 1.355 1_565 S
H1439 C1447 0.950 . S
H1440 C1445 0.950 . S
H1441 C1446 0.949 . S
H1442 C1448 0.950 . S
H1443 C1449 0.950 . S
H1444 C1450 0.949 . S
C1445 H1440 0.950 . S
C1445 C1447 1.327 . S
C1445 C1451 1.429 1_545 S
C1446 C1438 1.574 . S
C1446 H1441 0.949 . S
C1446 C1452 1.392 . S
C1447 C1431 1.349 1_545 S
C1447 H1439 0.950 . S
C1447 C1445 1.327 . S
C1448 C1436 1.349 1_565 S
C1448 H1442 0.950 . S
C1448 C1449 1.327 . S
C1449 H1443 0.950 . S
C1449 C1448 1.327 . S
C1449 C1453 1.393 1_565 S
C1450 C1433 1.574 . S
C1450 H1444 0.949 . S
C1450 C1454 1.381 . S
C1451 C1432 1.429 . S
C1451 C1445 1.429 1_565 S
C1451 C1452 1.524 . S
C1452 C1433 1.345 1_565 S
C1452 C1446 1.392 . S
C1452 C1451 1.524 . S
C1453 C1437 1.467 . S
C1453 C1449 1.393 1_545 S
C1453 C1454 1.522 . S
C1454 C1438 1.355 1_545 S
C1454 C1450 1.381 . S
C1454 C1453 1.522 . S
H1455 C1430 0.950 . S
H1456 C1432 0.950 . S
H1457 C1433 0.949 . S
H1458 C1435 0.950 . S
H1459 C1437 0.950 . S
C1460 C1461 1.349 . S
C1460 C1462 1.327 . S
C1460 H1485 0.950 . S
C1461 C1460 1.349 . S
C1461 C1477 1.349 . S
C1462 C1460 1.327 . S
C1462 C1481 1.429 . S
C1462 H1486 0.950 . S
C1463 C1480 1.571 . S
C1463 C1482 1.371 1_455 S
C1463 H1487 0.949 1_455 S
H1464 C1468 0.949 . S
C1465 C1466 1.349 . S
C1465 C1467 1.327 . S
C1465 H1488 0.950 . S
C1466 C1465 1.349 . S
C1466 C1478 1.349 . S
C1467 C1465 1.327 . S
C1467 C1483 1.429 . S
C1467 H1489 0.950 . S
C1468 H1464 0.949 . S
C1468 C1476 1.575 1_455 S
C1468 C1484 1.367 . S
H1469 C1477 0.950 . S
H1470 C1475 0.950 . S
H1471 C1476 0.949 . S
H1472 C1478 0.950 . S
H1473 C1479 0.950 . S
H1474 C1480 0.949 . S
C1475 H1470 0.950 . S
C1475 C1477 1.327 . S
C1475 C1481 1.429 . S
C1476 C1468 1.575 1_655 S
C1476 H1471 0.949 . S
C1476 C1482 1.368 . S
C1477 C1461 1.349 . S
C1477 H1469 0.950 . S
C1477 C1475 1.327 . S
C1478 C1466 1.349 . S
C1478 H1472 0.950 . S
C1478 C1479 1.327 . S
C1479 H1473 0.950 . S
C1479 C1478 1.327 . S
C1479 C1483 1.429 . S
C1480 C1463 1.571 . S
C1480 H1474 0.949 . S
C1480 C1484 1.368 . S
C1481 C1462 1.429 . S
C1481 C1475 1.429 . S
C1481 C1482 1.523 . S
C1482 C1463 1.371 1_655 S
C1482 C1476 1.368 . S
C1482 C1481 1.523 . S
C1483 C1467 1.429 . S
C1483 C1479 1.429 . S
C1483 C1484 1.523 . S
C1484 C1468 1.367 . S
C1484 C1480 1.368 . S
C1484 C1483 1.523 . S
H1485 C1460 0.950 . S
H1486 C1462 0.950 . S
H1487 C1463 0.949 1_655 S
H1488 C1465 0.950 . S
H1489 C1467 0.950 . S
C1490 C1491 1.349 . S
C1490 C1492 1.327 . S
C1490 H1515 0.950 . S
C1491 C1490 1.349 . S
C1491 C1507 1.349 . S
C1492 C1490 1.327 . S
C1492 C1511 1.429 . S
C1492 H1516 0.950 . S
C1493 C1510 1.574 . S
C1493 C1512 1.368 . S
C1493 H1517 0.949 . S
H1494 C1498 0.949 . S
C1495 C1496 1.349 . S
C1495 C1497 1.327 . S
C1495 H1518 0.950 . S
C1496 C1495 1.349 . S
C1496 C1508 1.349 . S
C1497 C1495 1.327 . S
C1497 C1513 1.429 . S
C1497 H1519 0.950 . S
C1498 H1494 0.949 . S
C1498 C1506 1.574 . S
C1498 C1514 1.368 . S
H1499 C1507 0.950 . S
H1500 C1505 0.950 . S
H1501 C1506 0.949 . S
H1502 C1508 0.950 . S
H1503 C1509 0.950 . S
H1504 C1510 0.949 . S
C1505 H1500 0.950 . S
C1505 C1507 1.327 . S
C1505 C1511 1.429 . S
C1506 C1498 1.574 . S
C1506 H1501 0.949 . S
C1506 C1512 1.368 . S
C1507 C1491 1.349 . S
C1507 H1499 0.950 . S
C1507 C1505 1.327 . S
C1508 C1496 1.349 . S
C1508 H1502 0.950 . S
C1508 C1509 1.327 . S
C1509 H1503 0.950 . S
C1509 C1508 1.327 . S
C1509 C1513 1.429 . S
C1510 C1493 1.574 . S
C1510 H1504 0.949 . S
C1510 C1514 1.368 . S
C1511 C1492 1.429 . S
C1511 C1505 1.429 . S
C1511 C1512 1.523 . S
C1512 C1493 1.368 . S
C1512 C1506 1.368 . S
C1512 C1511 1.523 . S
C1513 C1497 1.429 . S
C1513 C1509 1.429 . S
C1513 C1514 1.523 . S
C1514 C1498 1.368 . S
C1514 C1510 1.368 . S
C1514 C1513 1.523 . S
H1515 C1490 0.950 . S
H1516 C1492 0.950 . S
H1517 C1493 0.949 . S
H1518 C1495 0.950 . S
H1519 C1497 0.950 . S
C1520 C1521 1.349 . S
C1520 C1522 1.327 . S
C1520 H1545 0.950 . S
C1521 C1520 1.349 . S
C1521 C1537 1.349 . S
C1522 C1520 1.327 . S
C1522 C1541 1.429 . S
C1522 H1546 0.950 . S
C1523 C1540 1.582 1_655 S
C1523 C1542 1.361 . S
C1523 H1547 0.949 . S
H1524 C1528 0.949 . S
C1525 C1526 1.349 . S
C1525 C1527 1.327 . S
C1525 H1548 0.950 . S
C1526 C1525 1.349 . S
C1526 C1538 1.349 . S
C1527 C1525 1.327 . S
C1527 C1543 1.429 . S
C1527 H1549 0.950 . S
C1528 H1524 0.949 . S
C1528 C1536 1.582 1_455 S
C1528 C1544 1.361 . S
H1529 C1537 0.950 . S
H1530 C1535 0.950 . S
H1531 C1536 0.949 . S
H1532 C1538 0.950 . S
H1533 C1539 0.950 . S
H1534 C1540 0.949 . S
C1535 H1530 0.950 . S
C1535 C1537 1.327 . S
C1535 C1541 1.429 . S
C1536 C1528 1.582 1_655 S
C1536 H1531 0.949 . S
C1536 C1542 1.368 . S
C1537 C1521 1.349 . S
C1537 H1529 0.950 . S
C1537 C1535 1.327 . S
C1538 C1526 1.349 . S
C1538 H1532 0.950 . S
C1538 C1539 1.327 . S
C1539 H1533 0.950 . S
C1539 C1538 1.327 . S
C1539 C1543 1.429 . S
C1540 C1523 1.582 1_455 S
C1540 H1534 0.949 . S
C1540 C1544 1.368 . S
C1541 C1522 1.429 . S
C1541 C1535 1.429 . S
C1541 C1542 1.523 . S
C1542 C1523 1.361 . S
C1542 C1536 1.368 . S
C1542 C1541 1.523 . S
C1543 C1527 1.429 . S
C1543 C1539 1.429 . S
C1543 C1544 1.523 . S
C1544 C1528 1.361 . S
C1544 C1540 1.368 . S
C1544 C1543 1.523 . S
H1545 C1520 0.950 . S
H1546 C1522 0.950 . S
H1547 C1523 0.949 . S
H1548 C1525 0.950 . S
H1549 C1527 0.950 . S
C1550 C1551 1.349 . S
C1550 C1552 1.327 . S
C1550 H1575 0.950 . S
C1551 C1550 1.349 . S
C1551 C1567 1.349 . S
C1552 C1550 1.327 . S
C1552 C1571 1.429 . S
C1552 H1576 0.950 . S
C1553 C1570 1.574 . S
C1553 C1572 1.368 . S
C1553 H1577 0.949 . S
H1554 C1558 0.949 . S
C1555 C1556 1.349 . S
C1555 C1557 1.327 . S
C1555 H1578 0.950 . S
C1556 C1555 1.349 . S
C1556 C1568 1.349 . S
C1557 C1555 1.327 . S
C1557 C1573 1.429 . S
C1557 H1579 0.950 . S
C1558 H1554 0.949 . S
C1558 C1566 1.574 . S
C1558 C1574 1.368 . S
H1559 C1567 0.950 . S
H1560 C1565 0.950 . S
H1561 C1566 0.949 . S
H1562 C1568 0.950 . S
H1563 C1569 0.950 . S
H1564 C1570 0.949 . S
C1565 H1560 0.950 . S
C1565 C1567 1.327 . S
C1565 C1571 1.429 . S
C1566 C1558 1.574 . S
C1566 H1561 0.949 . S
C1566 C1572 1.368 . S
C1567 C1551 1.349 . S
C1567 H1559 0.950 . S
C1567 C1565 1.327 . S
C1568 C1556 1.349 . S
C1568 H1562 0.950 . S
C1568 C1569 1.327 . S
C1569 H1563 0.950 . S
C1569 C1568 1.327 . S
C1569 C1573 1.429 . S
C1570 C1553 1.574 . S
C1570 H1564 0.949 . S
C1570 C1574 1.368 . S
C1571 C1552 1.429 . S
C1571 C1565 1.429 . S
C1571 C1572 1.523 . S
C1572 C1553 1.368 . S
C1572 C1566 1.368 . S
C1572 C1571 1.523 . S
C1573 C1557 1.429 . S
C1573 C1569 1.429 . S
C1573 C1574 1.523 . S
C1574 C1558 1.368 . S
C1574 C1570 1.368 . S
C1574 C1573 1.523 . S
H1575 C1550 0.950 . S
H1576 C1552 0.950 . S
H1577 C1553 0.949 . S
H1578 C1555 0.950 . S
H1579 C1557 0.950 . S
C1580 C1581 1.349 . S
C1580 C1582 1.327 . S
C1580 H1605 0.950 . S
C1581 C1580 1.349 . S
C1581 C1597 1.349 . S
C1582 C1580 1.327 . S
C1582 C1601 1.429 . S
C1582 H1606 0.950 . S
C1583 C1600 1.574 . S
C1583 C1602 1.368 . S
C1583 H1607 0.949 . S
H1584 C1588 0.949 . S
C1585 C1586 1.349 . S
C1585 C1587 1.327 . S
C1585 H1608 0.950 . S
C1586 C1585 1.349 . S
C1586 C1598 1.349 . S
C1587 C1585 1.327 . S
C1587 C1603 1.429 . S
C1587 H1609 0.950 . S
C1588 H1584 0.949 . S
C1588 C1596 1.574 . S
C1588 C1604 1.368 . S
H1589 C1597 0.950 . S
H1590 C1595 0.950 . S
H1591 C1596 0.949 . S
H1592 C1598 0.950 . S
H1593 C1599 0.950 . S
H1594 C1600 0.949 . S
C1595 H1590 0.950 . S
C1595 C1597 1.327 . S
C1595 C1601 1.429 . S
C1596 C1588 1.574 . S
C1596 H1591 0.949 . S
C1596 C1602 1.368 . S
C1597 C1581 1.349 . S
C1597 H1589 0.950 . S
C1597 C1595 1.327 . S
C1598 C1586 1.349 . S
C1598 H1592 0.950 . S
C1598 C1599 1.327 . S
C1599 H1593 0.950 . S
C1599 C1598 1.327 . S
C1599 C1603 1.429 . S
C1600 C1583 1.574 . S
C1600 H1594 0.949 . S
C1600 C1604 1.368 . S
C1601 C1582 1.429 . S
C1601 C1595 1.429 . S
C1601 C1602 1.523 . S
C1602 C1583 1.368 . S
C1602 C1596 1.368 . S
C1602 C1601 1.523 . S
C1603 C1587 1.429 . S
C1603 C1599 1.429 . S
C1603 C1604 1.523 . S
C1604 C1588 1.368 . S
C1604 C1600 1.368 . S
C1604 C1603 1.523 . S
H1605 C1580 0.950 . S
H1606 C1582 0.950 . S
H1607 C1583 0.949 . S
H1608 C1585 0.950 . S
H1609 C1587 0.950 . S
C1610 C1611 1.349 . S
C1610 C1612 1.327 . S
C1610 H1635 0.950 . S
C1611 C1610 1.349 . S
C1611 C1627 1.349 . S
C1612 C1610 1.327 . S
C1612 C1631 1.429 . S
C1612 H1636 0.950 . S
C1613 C1630 1.574 . S
C1613 C1632 1.368 . S
C1613 H1637 0.949 . S
H1614 C1618 0.949 . S
C1615 C1616 1.349 . S
C1615 C1617 1.327 . S
C1615 H1638 0.950 . S
C1616 C1615 1.349 . S
C1616 C1628 1.349 . S
C1617 C1615 1.327 . S
C1617 C1633 1.429 . S
C1617 H1639 0.950 . S
C1618 H1614 0.949 . S
C1618 C1626 1.574 . S
C1618 C1634 1.368 . S
H1619 C1627 0.950 . S
H1620 C1625 0.950 . S
H1621 C1626 0.949 . S
H1622 C1628 0.950 . S
H1623 C1629 0.950 . S
H1624 C1630 0.949 . S
C1625 H1620 0.950 . S
C1625 C1627 1.327 . S
C1625 C1631 1.429 . S
C1626 C1618 1.574 . S
C1626 H1621 0.949 . S
C1626 C1632 1.368 . S
C1627 C1611 1.349 . S
C1627 H1619 0.950 . S
C1627 C1625 1.327 . S
C1628 C1616 1.349 . S
C1628 H1622 0.950 . S
C1628 C1629 1.327 . S
C1629 H1623 0.950 . S
C1629 C1628 1.327 . S
C1629 C1633 1.429 . S
C1630 C1613 1.574 . S
C1630 H1624 0.949 . S
C1630 C1634 1.368 . S
C1631 C1612 1.429 . S
C1631 C1625 1.429 . S
C1631 C1632 1.523 . S
C1632 C1613 1.368 . S
C1632 C1626 1.368 . S
C1632 C1631 1.523 . S
C1633 C1617 1.429 . S
C1633 C1629 1.429 . S
C1633 C1634 1.523 . S
C1634 C1618 1.368 . S
C1634 C1630 1.368 . S
C1634 C1633 1.523 . S
H1635 C1610 0.950 . S
H1636 C1612 0.950 . S
H1637 C1613 0.949 . S
H1638 C1615 0.950 . S
H1639 C1617 0.950 . S
C1640 C1641 1.349 . S
C1640 C1642 1.327 . S
C1640 H1665 0.950 . S
C1641 C1640 1.349 . S
C1641 C1657 1.349 1_565 S
C1642 C1640 1.327 . S
C1642 C1661 1.429 . S
C1642 H1666 0.950 . S
C1643 C1660 1.574 . S
C1643 C1662 1.345 1_545 S
C1643 H1667 0.949 . S
H1644 C1648 0.949 . S
C1645 C1646 1.349 . S
C1645 C1647 1.327 . S
C1645 H1668 0.950 . S
C1646 C1645 1.349 . S
C1646 C1658 1.349 1_545 S
C1647 C1645 1.327 . S
C1647 C1663 1.465 . S
C1647 H1669 0.950 . S
C1648 H1644 0.949 . S
C1648 C1656 1.574 . S
C1648 C1664 1.356 1_565 S
H1649 C1657 0.950 . S
H1650 C1655 0.950 . S
H1651 C1656 0.949 . S
H1652 C1658 0.950 . S
H1653 C1659 0.950 . S
H1654 C1660 0.949 . S
C1655 H1650 0.950 . S
C1655 C1657 1.327 . S
C1655 C1661 1.429 1_545 S
C1656 C1648 1.574 . S
C1656 H1651 0.949 . S
C1656 C1662 1.391 . S
C1657 C1641 1.349 1_545 S
C1657 H1649 0.950 . S
C1657 C1655 1.327 . S
C1658 C1646 1.349 1_565 S
C1658 H1652 0.950 . S
C1658 C1659 1.327 . S
C1659 H1653 0.950 . S
C1659 C1658 1.327 . S
C1659 C1663 1.394 1_565 S
C1660 C1643 1.574 . S
C1660 H1654 0.949 . S
C1660 C1664 1.381 . S
C1661 C1642 1.429 . S
C1661 C1655 1.429 1_565 S
C1661 C1662 1.524 . S
C1662 C1643 1.345 1_565 S
C1662 C1656 1.391 . S
C1662 C1661 1.524 . S
C1663 C1647 1.465 . S
C1663 C1659 1.394 1_545 S
C1663 C1664 1.522 . S
C1664 C1648 1.356 1_545 S
C1664 C1660 1.381 . S
C1664 C1663 1.522 . S
H1665 C1640 0.950 . S
H1666 C1642 0.950 . S
H1667 C1643 0.949 . S
H1668 C1645 0.950 . S
H1669 C1647 0.950 . S
C1670 C1671 1.349 . S
C1670 C1672 1.327 . S
C1670 H1695 0.950 . S
C1671 C1670 1.349 . S
C1671 C1687 1.349 . S
C1672 C1670 1.327 . S
C1672 C1691 1.429 . S
C1672 H1696 0.950 . S
C1673 C1690 1.574 . S
C1673 C1692 1.368 . S
C1673 H1697 0.949 . S
H1674 C1678 0.949 . S
C1675 C1676 1.349 . S
C1675 C1677 1.327 . S
C1675 H1698 0.950 . S
C1676 C1675 1.349 . S
C1676 C1688 1.349 . S
C1677 C1675 1.327 . S
C1677 C1693 1.429 . S
C1677 H1699 0.950 . S
C1678 H1674 0.949 . S
C1678 C1686 1.574 . S
C1678 C1694 1.368 . S
H1679 C1687 0.950 . S
H1680 C1685 0.950 . S
H1681 C1686 0.949 . S
H1682 C1688 0.950 . S
H1683 C1689 0.950 . S
H1684 C1690 0.949 . S
C1685 H1680 0.950 . S
C1685 C1687 1.327 . S
C1685 C1691 1.429 . S
C1686 C1678 1.574 . S
C1686 H1681 0.949 . S
C1686 C1692 1.368 . S
C1687 C1671 1.349 . S
C1687 H1679 0.950 . S
C1687 C1685 1.327 . S
C1688 C1676 1.349 . S
C1688 H1682 0.950 . S
C1688 C1689 1.327 . S
C1689 H1683 0.950 . S
C1689 C1688 1.327 . S
C1689 C1693 1.429 . S
C1690 C1673 1.574 . S
C1690 H1684 0.949 . S
C1690 C1694 1.368 . S
C1691 C1672 1.429 . S
C1691 C1685 1.429 . S
C1691 C1692 1.523 . S
C1692 C1673 1.368 . S
C1692 C1686 1.368 . S
C1692 C1691 1.523 . S
C1693 C1677 1.429 . S
C1693 C1689 1.429 . S
C1693 C1694 1.523 . S
C1694 C1678 1.368 . S
C1694 C1690 1.368 . S
C1694 C1693 1.523 . S
H1695 C1670 0.950 . S
H1696 C1672 0.950 . S
H1697 C1673 0.949 . S
H1698 C1675 0.950 . S
H1699 C1677 0.950 . S
C1700 C1701 1.349 . S
C1700 C1702 1.327 . S
C1700 H1725 0.950 . S
C1701 C1700 1.349 . S
C1701 C1717 1.349 . S
C1702 C1700 1.327 . S
C1702 C1721 1.429 . S
C1702 H1726 0.950 . S
C1703 C1720 1.574 . S
C1703 C1722 1.368 . S
C1703 H1727 0.949 . S
H1704 C1708 0.949 . S
C1705 C1706 1.349 . S
C1705 C1707 1.327 . S
C1705 H1728 0.950 . S
C1706 C1705 1.349 . S
C1706 C1718 1.349 . S
C1707 C1705 1.327 . S
C1707 C1723 1.429 . S
C1707 H1729 0.950 . S
C1708 H1704 0.949 . S
C1708 C1716 1.574 . S
C1708 C1724 1.368 . S
H1709 C1717 0.950 . S
H1710 C1715 0.950 . S
H1711 C1716 0.949 . S
H1712 C1718 0.950 . S
H1713 C1719 0.950 . S
H1714 C1720 0.949 . S
C1715 H1710 0.950 . S
C1715 C1717 1.327 . S
C1715 C1721 1.429 . S
C1716 C1708 1.574 . S
C1716 H1711 0.949 . S
C1716 C1722 1.368 . S
C1717 C1701 1.349 . S
C1717 H1709 0.950 . S
C1717 C1715 1.327 . S
C1718 C1706 1.349 . S
C1718 H1712 0.950 . S
C1718 C1719 1.327 . S
C1719 H1713 0.950 . S
C1719 C1718 1.327 . S
C1719 C1723 1.429 . S
C1720 C1703 1.574 . S
C1720 H1714 0.949 . S
C1720 C1724 1.368 . S
C1721 C1702 1.429 . S
C1721 C1715 1.429 . S
C1721 C1722 1.523 . S
C1722 C1703 1.368 . S
C1722 C1716 1.368 . S
C1722 C1721 1.523 . S
C1723 C1707 1.429 . S
C1723 C1719 1.429 . S
C1723 C1724 1.523 . S
C1724 C1708 1.368 . S
C1724 C1720 1.368 . S
C1724 C1723 1.523 . S
H1725 C1700 0.950 . S
H1726 C1702 0.950 . S
H1727 C1703 0.949 . S
H1728 C1705 0.950 . S
H1729 C1707 0.950 . S
C1730 C1731 1.349 . S
C1730 C1732 1.327 . S
C1730 H1755 0.950 . S
C1731 C1730 1.349 . S
C1731 C1747 1.349 . S
C1732 C1730 1.327 . S
C1732 C1751 1.429 . S
C1732 H1756 0.950 . S
C1733 C1750 1.574 1_556 S
C1733 C1752 1.368 . S
C1733 H1757 0.949 . S
H1734 C1738 0.949 . S
C1735 C1736 1.349 . S
C1735 C1737 1.327 . S
C1735 H1758 0.950 . S
C1736 C1735 1.349 . S
C1736 C1748 1.349 . S
C1737 C1735 1.327 . S
C1737 C1753 1.429 . S
C1737 H1759 0.950 . S
C1738 H1734 0.949 . S
C1738 C1746 1.574 1_554 S
C1738 C1754 1.368 . S
H1739 C1747 0.950 . S
H1740 C1745 0.950 . S
H1741 C1746 0.949 . S
H1742 C1748 0.950 . S
H1743 C1749 0.950 . S
H1744 C1750 0.949 . S
C1745 H1740 0.950 . S
C1745 C1747 1.327 . S
C1745 C1751 1.429 . S
C1746 C1738 1.574 1_556 S
C1746 H1741 0.949 . S
C1746 C1752 1.368 . S
C1747 C1731 1.349 . S
C1747 H1739 0.950 . S
C1747 C1745 1.327 . S
C1748 C1736 1.349 . S
C1748 H1742 0.950 . S
C1748 C1749 1.327 . S
C1749 H1743 0.950 . S
C1749 C1748 1.327 . S
C1749 C1753 1.429 . S
C1750 C1733 1.574 1_554 S
C1750 H1744 0.949 . S
C1750 C1754 1.368 . S
C1751 C1732 1.429 . S
C1751 C1745 1.429 . S
C1751 C1752 1.523 . S
C1752 C1733 1.368 . S
C1752 C1746 1.368 . S
C1752 C1751 1.523 . S
C1753 C1737 1.429 . S
C1753 C1749 1.429 . S
C1753 C1754 1.523 . S
C1754 C1738 1.368 . S
C1754 C1750 1.368 . S
C1754 C1753 1.523 . S
H1755 C1730 0.950 . S
H1756 C1732 0.950 . S
H1757 C1733 0.949 . S
H1758 C1735 0.950 . S
H1759 C1737 0.950 . S
C1760 C1761 1.349 . S
C1760 C1762 1.327 . S
C1760 H1785 0.950 . S
C1761 C1760 1.349 . S
C1761 C1777 1.349 . S
C1762 C1760 1.327 . S
C1762 C1781 1.429 . S
C1762 H1786 0.950 . S
C1763 C1780 1.574 . S
C1763 C1782 1.368 . S
C1763 H1787 0.949 . S
H1764 C1768 0.949 . S
C1765 C1766 1.349 . S
C1765 C1767 1.327 . S
C1765 H1788 0.950 . S
C1766 C1765 1.349 . S
C1766 C1778 1.349 . S
C1767 C1765 1.327 . S
C1767 C1783 1.429 . S
C1767 H1789 0.950 . S
C1768 H1764 0.949 . S
C1768 C1776 1.574 . S
C1768 C1784 1.368 . S
H1769 C1777 0.950 . S
H1770 C1775 0.950 . S
H1771 C1776 0.949 . S
H1772 C1778 0.950 . S
H1773 C1779 0.950 . S
H1774 C1780 0.949 . S
C1775 H1770 0.950 . S
C1775 C1777 1.327 . S
C1775 C1781 1.429 . S
C1776 C1768 1.574 . S
C1776 H1771 0.949 . S
C1776 C1782 1.368 . S
C1777 C1761 1.349 . S
C1777 H1769 0.950 . S
C1777 C1775 1.327 . S
C1778 C1766 1.349 . S
C1778 H1772 0.950 . S
C1778 C1779 1.327 . S
C1779 H1773 0.950 . S
C1779 C1778 1.327 . S
C1779 C1783 1.429 . S
C1780 C1763 1.574 . S
C1780 H1774 0.949 . S
C1780 C1784 1.368 . S
C1781 C1762 1.429 . S
C1781 C1775 1.429 . S
C1781 C1782 1.523 . S
C1782 C1763 1.368 . S
C1782 C1776 1.368 . S
C1782 C1781 1.523 . S
C1783 C1767 1.429 . S
C1783 C1779 1.429 . S
C1783 C1784 1.523 . S
C1784 C1768 1.368 . S
C1784 C1780 1.368 . S
C1784 C1783 1.523 . S
H1785 C1760 0.950 . S
H1786 C1762 0.950 . S
H1787 C1763 0.949 . S
H1788 C1765 0.950 . S
H1789 C1767 0.950 . S
C1790 C1791 1.349 . S
C1790 C1792 1.327 . S
C1790 H1815 0.950 . S
C1791 C1790 1.349 . S
C1791 C1807 1.349 1_545 S
C1792 C1790 1.327 . S
C1792 C1811 1.429 . S
C1792 H1816 0.950 . S
C1793 C1810 1.574 . S
C1793 C1812 1.368 1_565 S
C1793 H1817 0.949 . S
H1794 C1798 0.949 . S
C1795 C1796 1.349 1_565 S
C1795 C1797 1.327 . S
C1795 H1818 0.950 . S
C1796 C1795 1.349 1_545 S
C1796 C1808 1.349 . S
C1797 C1795 1.327 . S
C1797 C1813 1.429 1_565 S
C1797 H1819 0.950 . S
C1798 H1794 0.949 . S
C1798 C1806 1.574 . S
C1798 C1814 1.368 . S
H1799 C1807 0.950 . S
H1800 C1805 0.950 . S
H1801 C1806 0.949 . S
H1802 C1808 0.950 . S
H1803 C1809 0.950 . S
H1804 C1810 0.949 . S
C1805 H1800 0.950 . S
C1805 C1807 1.327 . S
C1805 C1811 1.429 1_565 S
C1806 C1798 1.574 . S
C1806 H1801 0.949 . S
C1806 C1812 1.368 . S
C1807 C1791 1.349 1_565 S
C1807 H1799 0.950 . S
C1807 C1805 1.327 . S
C1808 C1796 1.349 . S
C1808 H1802 0.950 . S
C1808 C1809 1.327 . S
C1809 H1803 0.950 . S
C1809 C1808 1.327 . S
C1809 C1813 1.429 . S
C1810 C1793 1.574 . S
C1810 H1804 0.949 . S
C1810 C1814 1.368 1_565 S
C1811 C1792 1.429 . S
C1811 C1805 1.429 1_545 S
C1811 C1812 1.523 . S
C1812 C1793 1.368 1_545 S
C1812 C1806 1.368 . S
C1812 C1811 1.523 . S
C1813 C1797 1.429 1_545 S
C1813 C1809 1.429 . S
C1813 C1814 1.523 . S
C1814 C1798 1.368 . S
C1814 C1810 1.368 1_545 S
C1814 C1813 1.523 . S
H1815 C1790 0.950 . S
H1816 C1792 0.950 . S
H1817 C1793 0.949 . S
H1818 C1795 0.950 . S
H1819 C1797 0.950 . S
C1820 C1821 1.349 1_565 S
C1820 C1822 1.327 . S
C1820 H1845 0.950 . S
C1821 C1820 1.349 1_545 S
C1821 C1837 1.349 . S
C1822 C1820 1.327 . S
C1822 C1841 1.429 1_565 S
C1822 H1846 0.950 . S
C1823 C1840 1.574 . S
C1823 C1842 1.368 . S
C1823 H1847 0.949 . S
H1824 C1828 0.949 . S
C1825 C1826 1.349 . S
C1825 C1827 1.327 . S
C1825 H1848 0.950 . S
C1826 C1825 1.349 . S
C1826 C1838 1.349 1_545 S
C1827 C1825 1.327 . S
C1827 C1843 1.429 . S
C1827 H1849 0.950 . S
C1828 H1824 0.949 . S
C1828 C1836 1.574 . S
C1828 C1844 1.368 1_565 S
H1829 C1837 0.950 . S
H1830 C1835 0.950 . S
H1831 C1836 0.949 . S
H1832 C1838 0.950 . S
H1833 C1839 0.950 . S
H1834 C1840 0.949 . S
C1835 H1830 0.950 . S
C1835 C1837 1.327 . S
C1835 C1841 1.429 . S
C1836 C1828 1.574 . S
C1836 H1831 0.949 . S
C1836 C1842 1.368 1_565 S
C1837 C1821 1.349 . S
C1837 H1829 0.950 . S
C1837 C1835 1.327 . S
C1838 C1826 1.349 1_565 S
C1838 H1832 0.950 . S
C1838 C1839 1.327 . S
C1839 H1833 0.950 . S
C1839 C1838 1.327 . S
C1839 C1843 1.429 1_565 S
C1840 C1823 1.574 . S
C1840 H1834 0.949 . S
C1840 C1844 1.368 . S
C1841 C1822 1.429 1_545 S
C1841 C1835 1.429 . S
C1841 C1842 1.523 . S
C1842 C1823 1.368 . S
C1842 C1836 1.368 1_545 S
C1842 C1841 1.523 . S
C1843 C1827 1.429 . S
C1843 C1839 1.429 1_545 S
C1843 C1844 1.523 . S
C1844 C1828 1.368 1_545 S
C1844 C1840 1.368 . S
C1844 C1843 1.523 . S
H1845 C1820 0.950 . S
H1846 C1822 0.950 . S
H1847 C1823 0.949 . S
H1848 C1825 0.950 . S
H1849 C1827 0.950 . S
C1850 C1851 1.349 . S
C1850 C1852 1.327 . S
C1850 H1875 0.950 . S
C1851 C1850 1.349 . S
C1851 C1867 1.349 . S
C1852 C1850 1.327 . S
C1852 C1871 1.429 . S
C1852 H1876 0.950 . S
C1853 C1870 1.574 . S
C1853 C1872 1.368 . S
C1853 H1877 0.949 . S
H1854 C1858 0.949 . S
C1855 C1856 1.349 . S
C1855 C1857 1.327 . S
C1855 H1878 0.950 . S
C1856 C1855 1.349 . S
C1856 C1868 1.349 . S
C1857 C1855 1.327 . S
C1857 C1873 1.429 . S
C1857 H1879 0.950 . S
C1858 H1854 0.949 . S
C1858 C1866 1.574 . S
C1858 C1874 1.368 . S
H1859 C1867 0.950 . S
H1860 C1865 0.950 . S
H1861 C1866 0.949 . S
H1862 C1868 0.950 . S
H1863 C1869 0.950 . S
H1864 C1870 0.949 . S
C1865 H1860 0.950 . S
C1865 C1867 1.327 . S
C1865 C1871 1.429 . S
C1866 C1858 1.574 . S
C1866 H1861 0.949 . S
C1866 C1872 1.368 . S
C1867 C1851 1.349 . S
C1867 H1859 0.950 . S
C1867 C1865 1.327 . S
C1868 C1856 1.349 . S
C1868 H1862 0.950 . S
C1868 C1869 1.327 . S
C1869 H1863 0.950 . S
C1869 C1868 1.327 . S
C1869 C1873 1.429 . S
C1870 C1853 1.574 . S
C1870 H1864 0.949 . S
C1870 C1874 1.368 . S
C1871 C1852 1.429 . S
C1871 C1865 1.429 . S
C1871 C1872 1.523 . S
C1872 C1853 1.368 . S
C1872 C1866 1.368 . S
C1872 C1871 1.523 . S
C1873 C1857 1.429 . S
C1873 C1869 1.429 . S
C1873 C1874 1.523 . S
C1874 C1858 1.368 . S
C1874 C1870 1.368 . S
C1874 C1873 1.523 . S
H1875 C1850 0.950 . S
H1876 C1852 0.950 . S
H1877 C1853 0.949 . S
H1878 C1855 0.950 . S
H1879 C1857 0.950 . S
C1880 C1881 1.349 . S
C1880 C1882 1.327 . S
C1880 H1905 0.950 . S
C1881 C1880 1.349 . S
C1881 C1897 1.349 . S
C1882 C1880 1.327 . S
C1882 C1901 1.429 . S
C1882 H1906 0.950 . S
C1883 C1900 1.574 . S
C1883 C1902 1.368 . S
C1883 H1907 0.949 . S
H1884 C1888 0.949 . S
C1885 C1886 1.349 . S
C1885 C1887 1.327 . S
C1885 H1908 0.950 . S
C1886 C1885 1.349 . S
C1886 C1898 1.349 . S
C1887 C1885 1.327 . S
C1887 C1903 1.429 . S
C1887 H1909 0.950 . S
C1888 H1884 0.949 . S
C1888 C1896 1.574 . S
C1888 C1904 1.368 . S
H1889 C1897 0.950 . S
H1890 C1895 0.950 . S
H1891 C1896 0.949 . S
H1892 C1898 0.950 . S
H1893 C1899 0.950 . S
H1894 C1900 0.949 . S
C1895 H1890 0.950 . S
C1895 C1897 1.327 . S
C1895 C1901 1.429 . S
C1896 C1888 1.574 . S
C1896 H1891 0.949 . S
C1896 C1902 1.368 . S
C1897 C1881 1.349 . S
C1897 H1889 0.950 . S
C1897 C1895 1.327 . S
C1898 C1886 1.349 . S
C1898 H1892 0.950 . S
C1898 C1899 1.327 . S
C1899 H1893 0.950 . S
C1899 C1898 1.327 . S
C1899 C1903 1.429 . S
C1900 C1883 1.574 . S
C1900 H1894 0.949 . S
C1900 C1904 1.368 . S
C1901 C1882 1.429 . S
C1901 C1895 1.429 . S
C1901 C1902 1.523 . S
C1902 C1883 1.368 . S
C1902 C1896 1.368 . S
C1902 C1901 1.523 . S
C1903 C1887 1.429 . S
C1903 C1899 1.429 . S
C1903 C1904 1.523 . S
C1904 C1888 1.368 . S
C1904 C1900 1.368 . S
C1904 C1903 1.523 . S
H1905 C1880 0.950 . S
H1906 C1882 0.950 . S
H1907 C1883 0.949 . S
H1908 C1885 0.950 . S
H1909 C1887 0.950 . S
C1910 C1911 1.349 1_545 S
C1910 C1912 1.327 . S
C1910 H1935 0.950 . S
C1911 C1910 1.349 1_565 S
C1911 C1927 1.349 . S
C1912 C1910 1.327 . S
C1912 C1931 1.429 1_545 S
C1912 H1936 0.950 . S
C1913 C1930 1.574 . S
C1913 C1932 1.368 . S
C1913 H1937 0.949 . S
H1914 C1918 0.949 . S
C1915 C1916 1.349 . S
C1915 C1917 1.327 . S
C1915 H1938 0.950 . S
C1916 C1915 1.349 . S
C1916 C1928 1.349 1_565 S
C1917 C1915 1.327 . S
C1917 C1933 1.429 . S
C1917 H1939 0.950 . S
C1918 H1914 0.949 . S
C1918 C1926 1.574 . S
C1918 C1934 1.368 1_545 S
H1919 C1927 0.950 . S
H1920 C1925 0.950 . S
H1921 C1926 0.949 . S
H1922 C1928 0.950 . S
H1923 C1929 0.950 . S
H1924 C1930 0.949 . S
C1925 H1920 0.950 . S
C1925 C1927 1.327 . S
C1925 C1931 1.429 . S
C1926 C1918 1.574 . S
C1926 H1921 0.949 . S
C1926 C1932 1.368 1_545 S
C1927 C1911 1.349 . S
C1927 H1919 0.950 . S
C1927 C1925 1.327 . S
C1928 C1916 1.349 1_545 S
C1928 H1922 0.950 . S
C1928 C1929 1.327 . S
C1929 H1923 0.950 . S
C1929 C1928 1.327 . S
C1929 C1933 1.429 1_545 S
C1930 C1913 1.574 . S
C1930 H1924 0.949 . S
C1930 C1934 1.368 . S
C1931 C1912 1.429 1_565 S
C1931 C1925 1.429 . S
C1931 C1932 1.523 . S
C1932 C1913 1.368 . S
C1932 C1926 1.368 1_565 S
C1932 C1931 1.523 . S
C1933 C1917 1.429 . S
C1933 C1929 1.429 1_565 S
C1933 C1934 1.523 . S
C1934 C1918 1.368 1_565 S
C1934 C1930 1.368 . S
C1934 C1933 1.523 . S
H1935 C1910 0.950 . S
H1936 C1912 0.950 . S
H1937 C1913 0.949 . S
H1938 C1915 0.950 . S
H1939 C1917 0.950 . S
C1940 C1941 1.349 1_545 S
C1940 C1942 1.327 . S
C1940 H1965 0.950 . S
C1941 C1940 1.349 1_565 S
C1941 C1957 1.349 . S
C1942 C1940 1.327 . S
C1942 C1961 1.429 1_545 S
C1942 H1966 0.950 . S
C1943 C1960 1.574 . S
C1943 C1962 1.368 . S
C1943 H1967 0.949 . S
H1944 C1948 0.949 . S
C1945 C1946 1.349 . S
C1945 C1947 1.327 . S
C1945 H1968 0.950 . S
C1946 C1945 1.349 . S
C1946 C1958 1.349 1_565 S
C1947 C1945 1.327 . S
C1947 C1963 1.429 . S
C1947 H1969 0.950 . S
C1948 H1944 0.949 . S
C1948 C1956 1.574 . S
C1948 C1964 1.368 1_545 S
H1949 C1957 0.950 . S
H1950 C1955 0.950 . S
H1951 C1956 0.949 . S
H1952 C1958 0.950 . S
H1953 C1959 0.950 . S
H1954 C1960 0.949 . S
C1955 H1950 0.950 . S
C1955 C1957 1.327 . S
C1955 C1961 1.429 . S
C1956 C1948 1.574 . S
C1956 H1951 0.949 . S
C1956 C1962 1.368 1_545 S
C1957 C1941 1.349 . S
C1957 H1949 0.950 . S
C1957 C1955 1.327 . S
C1958 C1946 1.349 1_545 S
C1958 H1952 0.950 . S
C1958 C1959 1.327 . S
C1959 H1953 0.950 . S
C1959 C1958 1.327 . S
C1959 C1963 1.429 1_545 S
C1960 C1943 1.574 . S
C1960 H1954 0.949 . S
C1960 C1964 1.368 . S
C1961 C1942 1.429 1_565 S
C1961 C1955 1.429 . S
C1961 C1962 1.523 . S
C1962 C1943 1.368 . S
C1962 C1956 1.368 1_565 S
C1962 C1961 1.523 . S
C1963 C1947 1.429 . S
C1963 C1959 1.429 1_565 S
C1963 C1964 1.523 . S
C1964 C1948 1.368 1_565 S
C1964 C1960 1.368 . S
C1964 C1963 1.523 . S
H1965 C1940 0.950 . S
H1966 C1942 0.950 . S
H1967 C1943 0.949 . S
H1968 C1945 0.950 . S
H1969 C1947 0.950 . S
C1970 C1971 1.349 . S
C1970 C1972 1.327 . S
C1970 H1995 0.950 . S
C1971 C1970 1.349 . S
C1971 C1987 1.349 . S
C1972 C1970 1.327 . S
C1972 C1991 1.429 . S
C1972 H1996 0.950 . S
C1973 C1990 1.574 . S
C1973 C1992 1.368 . S
C1973 H1997 0.949 . S
H1974 C1978 0.949 . S
C1975 C1976 1.349 . S
C1975 C1977 1.327 . S
C1975 H1998 0.950 . S
C1976 C1975 1.349 . S
C1976 C1988 1.349 . S
C1977 C1975 1.327 . S
C1977 C1993 1.429 . S
C1977 H1999 0.950 . S
C1978 H1974 0.949 . S
C1978 C1986 1.574 . S
C1978 C1994 1.368 . S
H1979 C1987 0.950 . S
H1980 C1985 0.950 . S
H1981 C1986 0.949 . S
H1982 C1988 0.950 . S
H1983 C1989 0.950 . S
H1984 C1990 0.949 . S
C1985 H1980 0.950 . S
C1985 C1987 1.327 . S
C1985 C1991 1.429 . S
C1986 C1978 1.574 . S
C1986 H1981 0.949 . S
C1986 C1992 1.368 . S
C1987 C1971 1.349 . S
C1987 H1979 0.950 . S
C1987 C1985 1.327 . S
C1988 C1976 1.349 . S
C1988 H1982 0.950 . S
C1988 C1989 1.327 . S
C1989 H1983 0.950 . S
C1989 C1988 1.327 . S
C1989 C1993 1.429 . S
C1990 C1973 1.574 . S
C1990 H1984 0.949 . S
C1990 C1994 1.368 . S
C1991 C1972 1.429 . S
C1991 C1985 1.429 . S
C1991 C1992 1.523 . S
C1992 C1973 1.368 . S
C1992 C1986 1.368 . S
C1992 C1991 1.523 . S
C1993 C1977 1.429 . S
C1993 C1989 1.429 . S
C1993 C1994 1.523 . S
C1994 C1978 1.368 . S
C1994 C1990 1.368 . S
C1994 C1993 1.523 . S
H1995 C1970 0.950 . S
H1996 C1972 0.950 . S
H1997 C1973 0.949 . S
H1998 C1975 0.950 . S
H1999 C1977 0.950 . S
C2000 C2001 1.349 . S
C2000 C2002 1.327 . S
C2000 H2025 0.950 . S
C2001 C2000 1.349 . S
C2001 C2017 1.349 . S
C2002 C2000 1.327 . S
C2002 C2021 1.429 . S
C2002 H2026 0.950 . S
C2003 C2020 1.574 . S
C2003 C2022 1.368 . S
C2003 H2027 0.949 . S
H2004 C2008 0.949 . S
C2005 C2006 1.349 . S
C2005 C2007 1.327 . S
C2005 H2028 0.950 . S
C2006 C2005 1.349 . S
C2006 C2018 1.349 . S
C2007 C2005 1.327 . S
C2007 C2023 1.429 . S
C2007 H2029 0.950 . S
C2008 H2004 0.949 . S
C2008 C2016 1.574 . S
C2008 C2024 1.368 . S
H2009 C2017 0.950 . S
H2010 C2015 0.950 . S
H2011 C2016 0.949 . S
H2012 C2018 0.950 . S
H2013 C2019 0.950 . S
H2014 C2020 0.949 . S
C2015 H2010 0.950 . S
C2015 C2017 1.327 . S
C2015 C2021 1.429 . S
C2016 C2008 1.574 . S
C2016 H2011 0.949 . S
C2016 C2022 1.368 . S
C2017 C2001 1.349 . S
C2017 H2009 0.950 . S
C2017 C2015 1.327 . S
C2018 C2006 1.349 . S
C2018 H2012 0.950 . S
C2018 C2019 1.327 . S
C2019 H2013 0.950 . S
C2019 C2018 1.327 . S
C2019 C2023 1.429 . S
C2020 C2003 1.574 . S
C2020 H2014 0.949 . S
C2020 C2024 1.368 . S
C2021 C2002 1.429 . S
C2021 C2015 1.429 . S
C2021 C2022 1.523 . S
C2022 C2003 1.368 . S
C2022 C2016 1.368 . S
C2022 C2021 1.523 . S
C2023 C2007 1.429 . S
C2023 C2019 1.429 . S
C2023 C2024 1.523 . S
C2024 C2008 1.368 . S
C2024 C2020 1.368 . S
C2024 C2023 1.523 . S
H2025 C2000 0.950 . S
H2026 C2002 0.950 . S
H2027 C2003 0.949 . S
H2028 C2005 0.950 . S
H2029 C2007 0.950 . S
C2030 C2031 1.349 . S
C2030 C2032 1.327 . S
C2030 H2055 0.950 . S
C2031 C2030 1.349 . S
C2031 C2047 1.349 . S
C2032 C2030 1.327 . S
C2032 C2051 1.429 . S
C2032 H2056 0.950 . S
C2033 C2050 1.574 . S
C2033 C2052 1.368 . S
C2033 H2057 0.949 . S
H2034 C2038 0.949 . S
C2035 C2036 1.349 . S
C2035 C2037 1.327 . S
C2035 H2058 0.950 . S
C2036 C2035 1.349 . S
C2036 C2048 1.349 . S
C2037 C2035 1.327 . S
C2037 C2053 1.429 . S
C2037 H2059 0.950 . S
C2038 H2034 0.949 . S
C2038 C2046 1.574 . S
C2038 C2054 1.368 . S
H2039 C2047 0.950 . S
H2040 C2045 0.950 . S
H2041 C2046 0.949 . S
H2042 C2048 0.950 . S
H2043 C2049 0.950 . S
H2044 C2050 0.949 . S
C2045 H2040 0.950 . S
C2045 C2047 1.327 . S
C2045 C2051 1.429 . S
C2046 C2038 1.574 . S
C2046 H2041 0.949 . S
C2046 C2052 1.368 . S
C2047 C2031 1.349 . S
C2047 H2039 0.950 . S
C2047 C2045 1.327 . S
C2048 C2036 1.349 . S
C2048 H2042 0.950 . S
C2048 C2049 1.327 . S
C2049 H2043 0.950 . S
C2049 C2048 1.327 . S
C2049 C2053 1.429 . S
C2050 C2033 1.574 . S
C2050 H2044 0.949 . S
C2050 C2054 1.368 . S
C2051 C2032 1.429 . S
C2051 C2045 1.429 . S
C2051 C2052 1.523 . S
C2052 C2033 1.368 . S
C2052 C2046 1.368 . S
C2052 C2051 1.523 . S
C2053 C2037 1.429 . S
C2053 C2049 1.429 . S
C2053 C2054 1.523 . S
C2054 C2038 1.368 . S
C2054 C2050 1.368 . S
C2054 C2053 1.523 . S
H2055 C2030 0.950 . S
H2056 C2032 0.950 . S
H2057 C2033 0.949 . S
H2058 C2035 0.950 . S
H2059 C2037 0.950 . S
C2060 C2061 1.349 . S
C2060 C2062 1.327 . S
C2060 H2085 0.950 . S
C2061 C2060 1.349 . S
C2061 C2077 1.349 . S
C2062 C2060 1.327 . S
C2062 C2081 1.429 . S
C2062 H2086 0.950 . S
C2063 C2080 1.574 . S
C2063 C2082 1.368 . S
C2063 H2087 0.949 . S
H2064 C2068 0.949 . S
C2065 C2066 1.349 . S
C2065 C2067 1.327 . S
C2065 H2088 0.950 . S
C2066 C2065 1.349 . S
C2066 C2078 1.349 . S
C2067 C2065 1.327 . S
C2067 C2083 1.429 . S
C2067 H2089 0.950 . S
C2068 H2064 0.949 . S
C2068 C2076 1.574 . S
C2068 C2084 1.368 . S
H2069 C2077 0.950 . S
H2070 C2075 0.950 . S
H2071 C2076 0.949 . S
H2072 C2078 0.950 . S
H2073 C2079 0.950 . S
H2074 C2080 0.949 . S
C2075 H2070 0.950 . S
C2075 C2077 1.327 . S
C2075 C2081 1.429 . S
C2076 C2068 1.574 . S
C2076 H2071 0.949 . S
C2076 C2082 1.368 . S
C2077 C2061 1.349 . S
C2077 H2069 0.950 . S
C2077 C2075 1.327 . S
C2078 C2066 1.349 . S
C2078 H2072 0.950 . S
C2078 C2079 1.327 . S
C2079 H2073 0.950 . S
C2079 C2078 1.327 . S
C2079 C2083 1.429 . S
C2080 C2063 1.574 . S
C2080 H2074 0.949 . S
C2080 C2084 1.368 . S
C2081 C2062 1.429 . S
C2081 C2075 1.429 . S
C2081 C2082 1.523 . S
C2082 C2063 1.368 . S
C2082 C2076 1.368 . S
C2082 C2081 1.523 . S
C2083 C2067 1.429 . S
C2083 C2079 1.429 . S
C2083 C2084 1.523 . S
C2084 C2068 1.368 . S
C2084 C2080 1.368 . S
C2084 C2083 1.523 . S
H2085 C2060 0.950 . S
H2086 C2062 0.950 . S
H2087 C2063 0.949 . S
H2088 C2065 0.950 . S
H2089 C2067 0.950 . S
C2090 C2091 1.349 . S
C2090 C2092 1.327 . S
C2090 H2115 0.950 . S
C2091 C2090 1.349 . S
C2091 C2107 1.349 . S
C2092 C2090 1.327 . S
C2092 C2111 1.429 . S
C2092 H2116 0.950 . S
C2093 C2110 1.574 . S
C2093 C2112 1.368 . S
C2093 H2117 0.949 . S
H2094 C2098 0.949 . S
C2095 C2096 1.349 . S
C2095 C2097 1.327 . S
C2095 H2118 0.950 . S
C2096 C2095 1.349 . S
C2096 C2108 1.349 . S
C2097 C2095 1.327 . S
C2097 C2113 1.429 . S
C2097 H2119 0.950 . S
C2098 H2094 0.949 . S
C2098 C2106 1.574 . S
C2098 C2114 1.368 . S
H2099 C2107 0.950 . S
H2100 C2105 0.950 . S
H2101 C2106 0.949 . S
H2102 C2108 0.950 . S
H2103 C2109 0.950 . S
H2104 C2110 0.949 . S
C2105 H2100 0.950 . S
C2105 C2107 1.327 . S
C2105 C2111 1.429 . S
C2106 C2098 1.574 . S
C2106 H2101 0.949 . S
C2106 C2112 1.368 . S
C2107 C2091 1.349 . S
C2107 H2099 0.950 . S
C2107 C2105 1.327 . S
C2108 C2096 1.349 . S
C2108 H2102 0.950 . S
C2108 C2109 1.327 . S
C2109 H2103 0.950 . S
C2109 C2108 1.327 . S
C2109 C2113 1.429 . S
C2110 C2093 1.574 . S
C2110 H2104 0.949 . S
C2110 C2114 1.368 . S
C2111 C2092 1.429 . S
C2111 C2105 1.429 . S
C2111 C2112 1.523 . S
C2112 C2093 1.368 . S
C2112 C2106 1.368 . S
C2112 C2111 1.523 . S
C2113 C2097 1.429 . S
C2113 C2109 1.429 . S
C2113 C2114 1.523 . S
C2114 C2098 1.368 . S
C2114 C2110 1.368 . S
C2114 C2113 1.523 . S
H2115 C2090 0.950 . S
H2116 C2092 0.950 . S
H2117 C2093 0.949 . S
H2118 C2095 0.950 . S
H2119 C2097 0.950 . S
C2120 C2121 1.349 . S
C2120 C2122 1.327 . S
C2120 H2145 0.950 . S
C2121 C2120 1.349 . S
C2121 C2137 1.349 . S
C2122 C2120 1.327 . S
C2122 C2141 1.429 . S
C2122 H2146 0.950 . S
C2123 C2140 1.574 . S
C2123 C2142 1.368 . S
C2123 H2147 0.949 . S
H2124 C2128 0.949 . S
C2125 C2126 1.349 . S
C2125 C2127 1.327 . S
C2125 H2148 0.950 . S
C2126 C2125 1.349 . S
C2126 C2138 1.349 . S
C2127 C2125 1.327 . S
C2127 C2143 1.429 . S
C2127 H2149 0.950 . S
C2128 H2124 0.949 . S
C2128 C2136 1.574 . S
C2128 C2144 1.368 . S
H2129 C2137 0.950 . S
H2130 C2135 0.950 . S
H2131 C2136 0.949 . S
H2132 C2138 0.950 . S
H2133 C2139 0.950 . S
H2134 C2140 0.949 . S
C2135 H2130 0.950 . S
C2135 C2137 1.327 . S
C2135 C2141 1.429 . S
C2136 C2128 1.574 . S
C2136 H2131 0.949 . S
C2136 C2142 1.368 . S
C2137 C2121 1.349 . S
C2137 H2129 0.950 . S
C2137 C2135 1.327 . S
C2138 C2126 1.349 . S
C2138 H2132 0.950 . S
C2138 C2139 1.327 . S
C2139 H2133 0.950 . S
C2139 C2138 1.327 . S
C2139 C2143 1.429 . S
C2140 C2123 1.574 . S
C2140 H2134 0.949 . S
C2140 C2144 1.368 . S
C2141 C2122 1.429 . S
C2141 C2135 1.429 . S
C2141 C2142 1.523 . S
C2142 C2123 1.368 . S
C2142 C2136 1.368 . S
C2142 C2141 1.523 . S
C2143 C2127 1.429 . S
C2143 C2139 1.429 . S
C2143 C2144 1.523 . S
C2144 C2128 1.368 . S
C2144 C2140 1.368 . S
C2144 C2143 1.523 . S
H2145 C2120 0.950 . S
H2146 C2122 0.950 . S
H2147 C2123 0.949 . S
H2148 C2125 0.950 . S
H2149 C2127 0.950 . S
C2150 C2151 1.349 . S
C2150 C2152 1.327 . S
C2150 H2175 0.950 . S
C2151 C2150 1.349 . S
C2151 C2167 1.349 . S
C2152 C2150 1.327 . S
C2152 C2171 1.429 . S
C2152 H2176 0.950 . S
C2153 C2170 1.574 . S
C2153 C2172 1.368 . S
C2153 H2177 0.949 . S
H2154 C2158 0.949 . S
C2155 C2156 1.349 . S
C2155 C2157 1.327 . S
C2155 H2178 0.950 . S
C2156 C2155 1.349 . S
C2156 C2168 1.349 . S
C2157 C2155 1.327 . S
C2157 C2173 1.429 . S
C2157 H2179 0.950 . S
C2158 H2154 0.949 . S
C2158 C2166 1.574 . S
C2158 C2174 1.368 . S
H2159 C2167 0.950 . S
H2160 C2165 0.950 . S
H2161 C2166 0.949 . S
H2162 C2168 0.950 . S
H2163 C2169 0.950 . S
H2164 C2170 0.949 . S
C2165 H2160 0.950 . S
C2165 C2167 1.327 . S
C2165 C2171 1.429 . S
C2166 C2158 1.574 . S
C2166 H2161 0.949 . S
C2166 C2172 1.368 . S
C2167 C2151 1.349 . S
C2167 H2159 0.950 . S
C2167 C2165 1.327 . S
C2168 C2156 1.349 . S
C2168 H2162 0.950 . S
C2168 C2169 1.327 . S
C2169 H2163 0.950 . S
C2169 C2168 1.327 . S
C2169 C2173 1.429 . S
C2170 C2153 1.574 . S
C2170 H2164 0.949 . S
C2170 C2174 1.368 . S
C2171 C2152 1.429 . S
C2171 C2165 1.429 . S
C2171 C2172 1.523 . S
C2172 C2153 1.368 . S
C2172 C2166 1.368 . S
C2172 C2171 1.523 . S
C2173 C2157 1.429 . S
C2173 C2169 1.429 . S
C2173 C2174 1.523 . S
C2174 C2158 1.368 . S
C2174 C2170 1.368 . S
C2174 C2173 1.523 . S
H2175 C2150 0.950 . S
H2176 C2152 0.950 . S
H2177 C2153 0.949 . S
H2178 C2155 0.950 . S
H2179 C2157 0.950 . S
C2180 C2181 1.349 . S
C2180 C2182 1.327 . S
C2180 H2205 0.950 . S
C2181 C2180 1.349 . S
C2181 C2197 1.349 . S
C2182 C2180 1.327 . S
C2182 C2201 1.429 . S
C2182 H2206 0.950 . S
C2183 C2200 1.574 . S
C2183 C2202 1.368 . S
C2183 H2207 0.949 . S
H2184 C2188 0.949 . S
C2185 C2186 1.349 . S
C2185 C2187 1.327 . S
C2185 H2208 0.950 . S
C2186 C2185 1.349 . S
C2186 C2198 1.349 . S
C2187 C2185 1.327 . S
C2187 C2203 1.429 . S
C2187 H2209 0.950 . S
C2188 H2184 0.949 . S
C2188 C2196 1.574 . S
C2188 C2204 1.368 . S
H2189 C2197 0.950 . S
H2190 C2195 0.950 . S
H2191 C2196 0.949 . S
H2192 C2198 0.950 . S
H2193 C2199 0.950 . S
H2194 C2200 0.949 . S
C2195 H2190 0.950 . S
C2195 C2197 1.327 . S
C2195 C2201 1.429 . S
C2196 C2188 1.574 . S
C2196 H2191 0.949 . S
C2196 C2202 1.368 . S
C2197 C2181 1.349 . S
C2197 H2189 0.950 . S
C2197 C2195 1.327 . S
C2198 C2186 1.349 . S
C2198 H2192 0.950 . S
C2198 C2199 1.327 . S
C2199 H2193 0.950 . S
C2199 C2198 1.327 . S
C2199 C2203 1.429 . S
C2200 C2183 1.574 . S
C2200 H2194 0.949 . S
C2200 C2204 1.368 . S
C2201 C2182 1.429 . S
C2201 C2195 1.429 . S
C2201 C2202 1.523 . S
C2202 C2183 1.368 . S
C2202 C2196 1.368 . S
C2202 C2201 1.523 . S
C2203 C2187 1.429 . S
C2203 C2199 1.429 . S
C2203 C2204 1.523 . S
C2204 C2188 1.368 . S
C2204 C2200 1.368 . S
C2204 C2203 1.523 . S
H2205 C2180 0.950 . S
H2206 C2182 0.950 . S
H2207 C2183 0.949 . S
H2208 C2185 0.950 . S
H2209 C2187 0.950 . S
C2210 C2211 1.349 . S
C2210 C2212 1.327 . S
C2210 H2235 0.950 . S
C2211 C2210 1.349 . S
C2211 C2227 1.349 . S
C2212 C2210 1.327 . S
C2212 C2231 1.429 . S
C2212 H2236 0.950 . S
C2213 C2230 1.574 . S
C2213 C2232 1.368 . S
C2213 H2237 0.949 . S
H2214 C2218 0.949 . S
C2215 C2216 1.349 . S
C2215 C2217 1.327 . S
C2215 H2238 0.950 . S
C2216 C2215 1.349 . S
C2216 C2228 1.349 . S
C2217 C2215 1.327 . S
C2217 C2233 1.429 . S
C2217 H2239 0.950 . S
C2218 H2214 0.949 . S
C2218 C2226 1.574 . S
C2218 C2234 1.368 . S
H2219 C2227 0.950 . S
H2220 C2225 0.950 . S
H2221 C2226 0.949 . S
H2222 C2228 0.950 . S
H2223 C2229 0.950 . S
H2224 C2230 0.949 . S
C2225 H2220 0.950 . S
C2225 C2227 1.327 . S
C2225 C2231 1.429 . S
C2226 C2218 1.574 . S
C2226 H2221 0.949 . S
C2226 C2232 1.368 . S
C2227 C2211 1.349 . S
C2227 H2219 0.950 . S
C2227 C2225 1.327 . S
C2228 C2216 1.349 . S
C2228 H2222 0.950 . S
C2228 C2229 1.327 . S
C2229 H2223 0.950 . S
C2229 C2228 1.327 . S
C2229 C2233 1.429 . S
C2230 C2213 1.574 . S
C2230 H2224 0.949 . S
C2230 C2234 1.368 . S
C2231 C2212 1.429 . S
C2231 C2225 1.429 . S
C2231 C2232 1.523 . S
C2232 C2213 1.368 . S
C2232 C2226 1.368 . S
C2232 C2231 1.523 . S
C2233 C2217 1.429 . S
C2233 C2229 1.429 . S
C2233 C2234 1.523 . S
C2234 C2218 1.368 . S
C2234 C2230 1.368 . S
C2234 C2233 1.523 . S
H2235 C2210 0.950 . S
H2236 C2212 0.950 . S
H2237 C2213 0.949 . S
H2238 C2215 0.950 . S
H2239 C2217 0.950 . S
C2240 C2241 1.349 . S
C2240 C2242 1.327 . S
C2240 H2265 0.950 . S
C2241 C2240 1.349 . S
C2241 C2257 1.349 . S
C2242 C2240 1.327 . S
C2242 C2261 1.429 . S
C2242 H2266 0.950 . S
C2243 C2260 1.574 . S
C2243 C2262 1.368 . S
C2243 H2267 0.949 . S
H2244 C2248 0.949 . S
C2245 C2246 1.349 . S
C2245 C2247 1.327 . S
C2245 H2268 0.950 . S
C2246 C2245 1.349 . S
C2246 C2258 1.349 . S
C2247 C2245 1.327 . S
C2247 C2263 1.429 . S
C2247 H2269 0.950 . S
C2248 H2244 0.949 . S
C2248 C2256 1.574 . S
C2248 C2264 1.368 . S
H2249 C2257 0.950 . S
H2250 C2255 0.950 . S
H2251 C2256 0.949 . S
H2252 C2258 0.950 . S
H2253 C2259 0.950 . S
H2254 C2260 0.949 . S
C2255 H2250 0.950 . S
C2255 C2257 1.327 . S
C2255 C2261 1.429 . S
C2256 C2248 1.574 . S
C2256 H2251 0.949 . S
C2256 C2262 1.368 . S
C2257 C2241 1.349 . S
C2257 H2249 0.950 . S
C2257 C2255 1.327 . S
C2258 C2246 1.349 . S
C2258 H2252 0.950 . S
C2258 C2259 1.327 . S
C2259 H2253 0.950 . S
C2259 C2258 1.327 . S
C2259 C2263 1.429 . S
C2260 C2243 1.574 . S
C2260 H2254 0.949 . S
C2260 C2264 1.368 . S
C2261 C2242 1.429 . S
C2261 C2255 1.429 . S
C2261 C2262 1.523 . S
C2262 C2243 1.368 . S
C2262 C2256 1.368 . S
C2262 C2261 1.523 . S
C2263 C2247 1.429 . S
C2263 C2259 1.429 . S
C2263 C2264 1.523 . S
C2264 C2248 1.368 . S
C2264 C2260 1.368 . S
C2264 C2263 1.523 . S
H2265 C2240 0.950 . S
H2266 C2242 0.950 . S
H2267 C2243 0.949 . S
H2268 C2245 0.950 . S
H2269 C2247 0.950 . S
C2270 C2271 1.349 . S
C2270 C2272 1.327 1_545 S
C2270 H2295 0.950 1_545 S
C2271 C2270 1.349 . S
C2271 C2287 1.349 . S
C2272 C2270 1.327 1_565 S
C2272 C2291 1.429 1_565 S
C2272 H2296 0.950 . S
C2273 C2290 1.574 . S
C2273 C2292 1.368 . S
C2273 H2297 0.949 . S
H2274 C2278 0.949 . S
C2275 C2276 1.349 . S
C2275 C2277 1.327 1_565 S
C2275 H2298 0.950 1_565 S
C2276 C2275 1.349 . S
C2276 C2288 1.349 . S
C2277 C2275 1.327 1_545 S
C2277 C2293 1.429 1_545 S
C2277 H2299 0.950 . S
C2278 H2274 0.949 . S
C2278 C2286 1.574 . S
C2278 C2294 1.368 . S
H2279 C2287 0.950 . S
H2280 C2285 0.950 . S
H2281 C2286 0.949 . S
H2282 C2288 0.950 . S
H2283 C2289 0.950 . S
H2284 C2290 0.949 . S
C2285 H2280 0.950 . S
C2285 C2287 1.327 . S
C2285 C2291 1.429 . S
C2286 C2278 1.574 . S
C2286 H2281 0.949 . S
C2286 C2292 1.368 1_565 S
C2287 C2271 1.349 . S
C2287 H2279 0.950 . S
C2287 C2285 1.327 . S
C2288 C2276 1.349 . S
C2288 H2282 0.950 . S
C2288 C2289 1.327 . S
C2289 H2283 0.950 . S
C2289 C2288 1.327 . S
C2289 C2293 1.429 . S
C2290 C2273 1.574 . S
C2290 H2284 0.949 . S
C2290 C2294 1.368 1_545 S
C2291 C2272 1.429 1_545 S
C2291 C2285 1.429 . S
C2291 C2292 1.523 . S
C2292 C2273 1.368 . S
C2292 C2286 1.368 1_545 S
C2292 C2291 1.523 . S
C2293 C2277 1.429 1_565 S
C2293 C2289 1.429 . S
C2293 C2294 1.523 . S
C2294 C2278 1.368 . S
C2294 C2290 1.368 1_565 S
C2294 C2293 1.523 . S
H2295 C2270 0.950 1_565 S
H2296 C2272 0.950 . S
H2297 C2273 0.949 . S
H2298 C2275 0.950 1_545 S
H2299 C2277 0.950 . S
C2300 C2301 1.349 . S
C2300 C2302 1.327 . S
C2300 H2325 0.950 . S
C2301 C2300 1.349 . S
C2301 C2317 1.400 . S
C2302 C2300 1.327 . S
C2302 C2321 1.429 . S
C2302 H2326 0.950 . S
C2303 C2320 1.574 . S
C2303 C2322 1.368 1_545 S
C2303 H2327 0.949 . S
H2304 C2308 0.949 . S
C2305 C2306 1.349 . S
C2305 C2307 1.327 . S
C2305 H2328 0.950 . S
C2306 C2305 1.349 . S
C2306 C2318 1.388 . S
C2307 C2305 1.327 . S
C2307 C2323 1.429 . S
C2307 H2329 0.950 . S
C2308 H2304 0.949 . S
C2308 C2316 1.574 . S
C2308 C2324 1.368 1_565 S
H2309 C2317 0.913 1_545 S
H2310 C2315 0.950 . S
H2311 C2316 0.949 . S
H2312 C2318 0.922 1_565 S
H2313 C2319 0.950 . S
H2314 C2320 0.949 . S
C2315 H2310 0.950 . S
C2315 C2317 1.314 1_545 S
C2315 C2321 1.429 1_545 S
C2316 C2308 1.574 . S
C2316 H2311 0.949 . S
C2316 C2322 1.368 . S
C2317 C2301 1.400 . S
C2317 H2309 0.913 1_565 S
C2317 C2315 1.314 1_565 S
C2318 C2306 1.388 . S
C2318 H2312 0.922 1_545 S
C2318 C2319 1.317 1_545 S
C2319 H2313 0.950 . S
C2319 C2318 1.317 1_565 S
C2319 C2323 1.429 1_565 S
C2320 C2303 1.574 . S
C2320 H2314 0.949 . S
C2320 C2324 1.368 . S
C2321 C2302 1.429 . S
C2321 C2315 1.429 1_565 S
C2321 C2322 1.523 . S
C2322 C2303 1.368 1_565 S
C2322 C2316 1.368 . S
C2322 C2321 1.523 . S
C2323 C2307 1.429 . S
C2323 C2319 1.429 1_545 S
C2323 C2324 1.523 . S
C2324 C2308 1.368 1_545 S
C2324 C2320 1.368 . S
C2324 C2323 1.523 . S
H2325 C2300 0.950 . S
H2326 C2302 0.950 . S
H2327 C2303 0.949 . S
H2328 C2305 0.950 . S
H2329 C2307 0.950 . S
C2330 C2331 1.349 . S
C2330 C2332 1.327 . S
C2330 H2355 0.950 . S
C2331 C2330 1.349 . S
C2331 C2347 1.349 . S
C2332 C2330 1.327 . S
C2332 C2351 1.429 . S
C2332 H2356 0.950 . S
C2333 C2350 1.574 . S
C2333 C2352 1.368 . S
C2333 H2357 0.949 . S
H2334 C2338 0.949 . S
C2335 C2336 1.349 . S
C2335 C2337 1.327 . S
C2335 H2358 0.950 . S
C2336 C2335 1.349 . S
C2336 C2348 1.349 . S
C2337 C2335 1.327 . S
C2337 C2353 1.429 . S
C2337 H2359 0.950 . S
C2338 H2334 0.949 . S
C2338 C2346 1.574 . S
C2338 C2354 1.368 . S
H2339 C2347 0.950 . S
H2340 C2345 0.950 . S
H2341 C2346 0.949 . S
H2342 C2348 0.950 . S
H2343 C2349 0.950 . S
H2344 C2350 0.949 . S
C2345 H2340 0.950 . S
C2345 C2347 1.327 . S
C2345 C2351 1.429 . S
C2346 C2338 1.574 . S
C2346 H2341 0.949 . S
C2346 C2352 1.368 . S
C2347 C2331 1.349 . S
C2347 H2339 0.950 . S
C2347 C2345 1.327 . S
C2348 C2336 1.349 . S
C2348 H2342 0.950 . S
C2348 C2349 1.327 . S
C2349 H2343 0.950 . S
C2349 C2348 1.327 . S
C2349 C2353 1.429 . S
C2350 C2333 1.574 . S
C2350 H2344 0.949 . S
C2350 C2354 1.368 . S
C2351 C2332 1.429 . S
C2351 C2345 1.429 . S
C2351 C2352 1.523 . S
C2352 C2333 1.368 . S
C2352 C2346 1.368 . S
C2352 C2351 1.523 . S
C2353 C2337 1.429 . S
C2353 C2349 1.429 . S
C2353 C2354 1.523 . S
C2354 C2338 1.368 . S
C2354 C2350 1.368 . S
C2354 C2353 1.523 . S
H2355 C2330 0.950 . S
H2356 C2332 0.950 . S
H2357 C2333 0.949 . S
H2358 C2335 0.950 . S
H2359 C2337 0.950 . S
C2360 C2361 1.349 . S
C2360 C2362 1.327 . S
C2360 H2385 0.950 . S
C2361 C2360 1.349 . S
C2361 C2377 1.349 . S
C2362 C2360 1.327 . S
C2362 C2381 1.429 . S
C2362 H2386 0.950 . S
C2363 C2380 1.574 . S
C2363 C2382 1.368 . S
C2363 H2387 0.949 . S
H2364 C2368 0.949 . S
C2365 C2366 1.349 . S
C2365 C2367 1.327 . S
C2365 H2388 0.950 . S
C2366 C2365 1.349 . S
C2366 C2378 1.349 . S
C2367 C2365 1.327 . S
C2367 C2383 1.429 . S
C2367 H2389 0.950 . S
C2368 H2364 0.949 . S
C2368 C2376 1.574 . S
C2368 C2384 1.368 . S
H2369 C2377 0.950 . S
H2370 C2375 0.950 . S
H2371 C2376 0.949 . S
H2372 C2378 0.950 . S
H2373 C2379 0.950 . S
H2374 C2380 0.949 . S
C2375 H2370 0.950 . S
C2375 C2377 1.327 . S
C2375 C2381 1.429 . S
C2376 C2368 1.574 . S
C2376 H2371 0.949 . S
C2376 C2382 1.368 . S
C2377 C2361 1.349 . S
C2377 H2369 0.950 . S
C2377 C2375 1.327 . S
C2378 C2366 1.349 . S
C2378 H2372 0.950 . S
C2378 C2379 1.327 . S
C2379 H2373 0.950 . S
C2379 C2378 1.327 . S
C2379 C2383 1.429 . S
C2380 C2363 1.574 . S
C2380 H2374 0.949 . S
C2380 C2384 1.368 . S
C2381 C2362 1.429 . S
C2381 C2375 1.429 . S
C2381 C2382 1.523 . S
C2382 C2363 1.368 . S
C2382 C2376 1.368 . S
C2382 C2381 1.523 . S
C2383 C2367 1.429 . S
C2383 C2379 1.429 . S
C2383 C2384 1.523 . S
C2384 C2368 1.368 . S
C2384 C2380 1.368 . S
C2384 C2383 1.523 . S
H2385 C2360 0.950 . S
H2386 C2362 0.950 . S
H2387 C2363 0.949 . S
H2388 C2365 0.950 . S
H2389 C2367 0.950 . S
C2390 C2391 1.349 . S
C2390 C2392 1.327 1_545 S
C2390 H2415 0.950 1_545 S
C2391 C2390 1.349 . S
C2391 C2407 1.349 . S
C2392 C2390 1.327 1_565 S
C2392 C2411 1.429 1_565 S
C2392 H2416 0.950 . S
C2393 C2410 1.574 . S
C2393 C2412 1.368 . S
C2393 H2417 0.949 . S
H2394 C2398 0.949 . S
C2395 C2396 1.349 . S
C2395 C2397 1.327 1_565 S
C2395 H2418 0.950 1_565 S
C2396 C2395 1.349 . S
C2396 C2408 1.349 . S
C2397 C2395 1.327 1_545 S
C2397 C2413 1.429 1_545 S
C2397 H2419 0.950 . S
C2398 H2394 0.949 . S
C2398 C2406 1.574 . S
C2398 C2414 1.368 . S
H2399 C2407 0.950 . S
H2400 C2405 0.950 . S
H2401 C2406 0.949 . S
H2402 C2408 0.950 . S
H2403 C2409 0.950 . S
H2404 C2410 0.949 . S
C2405 H2400 0.950 . S
C2405 C2407 1.327 . S
C2405 C2411 1.429 . S
C2406 C2398 1.574 . S
C2406 H2401 0.949 . S
C2406 C2412 1.368 1_565 S
C2407 C2391 1.349 . S
C2407 H2399 0.950 . S
C2407 C2405 1.327 . S
C2408 C2396 1.349 . S
C2408 H2402 0.950 . S
C2408 C2409 1.327 . S
C2409 H2403 0.950 . S
C2409 C2408 1.327 . S
C2409 C2413 1.429 . S
C2410 C2393 1.574 . S
C2410 H2404 0.949 . S
C2410 C2414 1.368 1_545 S
C2411 C2392 1.429 1_545 S
C2411 C2405 1.429 . S
C2411 C2412 1.523 . S
C2412 C2393 1.368 . S
C2412 C2406 1.368 1_545 S
C2412 C2411 1.523 . S
C2413 C2397 1.429 1_565 S
C2413 C2409 1.429 . S
C2413 C2414 1.523 . S
C2414 C2398 1.368 . S
C2414 C2410 1.368 1_565 S
C2414 C2413 1.523 . S
H2415 C2390 0.950 1_565 S
H2416 C2392 0.950 . S
H2417 C2393 0.949 . S
H2418 C2395 0.950 1_545 S
H2419 C2397 0.950 . S
C2420 C2421 1.349 . S
C2420 C2422 1.327 1_545 S
C2420 H2445 0.950 1_545 S
C2421 C2420 1.349 . S
C2421 C2437 1.349 . S
C2422 C2420 1.327 1_565 S
C2422 C2441 1.429 1_565 S
C2422 H2446 0.950 . S
C2423 C2440 1.574 . S
C2423 C2442 1.368 . S
C2423 H2447 0.949 . S
H2424 C2428 0.949 . S
C2425 C2426 1.349 . S
C2425 C2427 1.327 1_565 S
C2425 H2448 0.950 1_565 S
C2426 C2425 1.349 . S
C2426 C2438 1.349 . S
C2427 C2425 1.327 1_545 S
C2427 C2443 1.429 1_545 S
C2427 H2449 0.950 . S
C2428 H2424 0.949 . S
C2428 C2436 1.574 . S
C2428 C2444 1.368 . S
H2429 C2437 0.950 . S
H2430 C2435 0.950 . S
H2431 C2436 0.949 . S
H2432 C2438 0.950 . S
H2433 C2439 0.950 . S
H2434 C2440 0.949 . S
C2435 H2430 0.950 . S
C2435 C2437 1.327 . S
C2435 C2441 1.429 . S
C2436 C2428 1.574 . S
C2436 H2431 0.949 . S
C2436 C2442 1.368 1_565 S
C2437 C2421 1.349 . S
C2437 H2429 0.950 . S
C2437 C2435 1.327 . S
C2438 C2426 1.349 . S
C2438 H2432 0.950 . S
C2438 C2439 1.327 . S
C2439 H2433 0.950 . S
C2439 C2438 1.327 . S
C2439 C2443 1.429 . S
C2440 C2423 1.574 . S
C2440 H2434 0.949 . S
C2440 C2444 1.368 1_545 S
C2441 C2422 1.429 1_545 S
C2441 C2435 1.429 . S
C2441 C2442 1.523 . S
C2442 C2423 1.368 . S
C2442 C2436 1.368 1_545 S
C2442 C2441 1.523 . S
C2443 C2427 1.429 1_565 S
C2443 C2439 1.429 . S
C2443 C2444 1.523 . S
C2444 C2428 1.368 . S
C2444 C2440 1.368 1_565 S
C2444 C2443 1.523 . S
H2445 C2420 0.950 1_565 S
H2446 C2422 0.950 . S
H2447 C2423 0.949 . S
H2448 C2425 0.950 1_545 S
H2449 C2427 0.950 . S
C2450 C2451 1.349 . S
C2450 C2452 1.327 . S
C2450 H2475 0.950 . S
C2451 C2450 1.349 . S
C2451 C2467 1.349 . S
C2452 C2450 1.327 . S
C2452 C2471 1.429 . S
C2452 H2476 0.950 . S
C2453 C2470 1.574 . S
C2453 C2472 1.368 . S
C2453 H2477 0.949 . S
H2454 C2458 0.949 . S
C2455 C2456 1.349 . S
C2455 C2457 1.327 . S
C2455 H2478 0.950 . S
C2456 C2455 1.349 . S
C2456 C2468 1.349 . S
C2457 C2455 1.327 . S
C2457 C2473 1.429 . S
C2457 H2479 0.950 . S
C2458 H2454 0.949 . S
C2458 C2466 1.574 . S
C2458 C2474 1.368 . S
H2459 C2467 0.950 . S
H2460 C2465 0.950 . S
H2461 C2466 0.949 . S
H2462 C2468 0.950 . S
H2463 C2469 0.950 . S
H2464 C2470 0.949 . S
C2465 H2460 0.950 . S
C2465 C2467 1.327 . S
C2465 C2471 1.429 . S
C2466 C2458 1.574 . S
C2466 H2461 0.949 . S
C2466 C2472 1.368 . S
C2467 C2451 1.349 . S
C2467 H2459 0.950 . S
C2467 C2465 1.327 . S
C2468 C2456 1.349 . S
C2468 H2462 0.950 . S
C2468 C2469 1.327 . S
C2469 H2463 0.950 . S
C2469 C2468 1.327 . S
C2469 C2473 1.429 . S
C2470 C2453 1.574 . S
C2470 H2464 0.949 . S
C2470 C2474 1.368 . S
C2471 C2452 1.429 . S
C2471 C2465 1.429 . S
C2471 C2472 1.523 . S
C2472 C2453 1.368 . S
C2472 C2466 1.368 . S
C2472 C2471 1.523 . S
C2473 C2457 1.429 . S
C2473 C2469 1.429 . S
C2473 C2474 1.523 . S
C2474 C2458 1.368 . S
C2474 C2470 1.368 . S
C2474 C2473 1.523 . S
H2475 C2450 0.950 . S
H2476 C2452 0.950 . S
H2477 C2453 0.949 . S
H2478 C2455 0.950 . S
H2479 C2457 0.950 . S
C2480 C2481 1.349 . S
C2480 C2482 1.327 . S
C2480 H2505 0.950 . S
C2481 C2480 1.349 . S
C2481 C2497 1.349 . S
C2482 C2480 1.327 . S
C2482 C2501 1.429 . S
C2482 H2506 0.950 . S
C2483 C2500 1.574 . S
C2483 C2502 1.368 . S
C2483 H2507 0.949 . S
H2484 C2488 0.949 . S
C2485 C2486 1.349 . S
C2485 C2487 1.327 . S
C2485 H2508 0.950 . S
C2486 C2485 1.349 . S
C2486 C2498 1.349 . S
C2487 C2485 1.327 . S
C2487 C2503 1.429 . S
C2487 H2509 0.950 . S
C2488 H2484 0.949 . S
C2488 C2496 1.574 . S
C2488 C2504 1.368 . S
H2489 C2497 0.950 . S
H2490 C2495 0.950 . S
H2491 C2496 0.949 . S
H2492 C2498 0.950 . S
H2493 C2499 0.950 . S
H2494 C2500 0.949 . S
C2495 H2490 0.950 . S
C2495 C2497 1.327 . S
C2495 C2501 1.429 . S
C2496 C2488 1.574 . S
C2496 H2491 0.949 . S
C2496 C2502 1.368 . S
C2497 C2481 1.349 . S
C2497 H2489 0.950 . S
C2497 C2495 1.327 . S
C2498 C2486 1.349 . S
C2498 H2492 0.950 . S
C2498 C2499 1.327 . S
C2499 H2493 0.950 . S
C2499 C2498 1.327 . S
C2499 C2503 1.429 . S
C2500 C2483 1.574 . S
C2500 H2494 0.949 . S
C2500 C2504 1.368 . S
C2501 C2482 1.429 . S
C2501 C2495 1.429 . S
C2501 C2502 1.523 . S
C2502 C2483 1.368 . S
C2502 C2496 1.368 . S
C2502 C2501 1.523 . S
C2503 C2487 1.429 . S
C2503 C2499 1.429 . S
C2503 C2504 1.523 . S
C2504 C2488 1.368 . S
C2504 C2500 1.368 . S
C2504 C2503 1.523 . S
H2505 C2480 0.950 . S
H2506 C2482 0.950 . S
H2507 C2483 0.949 . S
H2508 C2485 0.950 . S
H2509 C2487 0.950 . S
C2510 C2511 1.349 . S
C2510 C2512 1.327 . S
C2510 H2535 0.950 . S
C2511 C2510 1.349 . S
C2511 C2527 1.349 . S
C2512 C2510 1.327 . S
C2512 C2531 1.429 . S
C2512 H2536 0.950 . S
C2513 C2530 1.574 . S
C2513 C2532 1.368 . S
C2513 H2537 0.949 . S
H2514 C2518 0.949 . S
C2515 C2516 1.349 . S
C2515 C2517 1.327 . S
C2515 H2538 0.950 . S
C2516 C2515 1.349 . S
C2516 C2528 1.349 . S
C2517 C2515 1.327 . S
C2517 C2533 1.429 . S
C2517 H2539 0.950 . S
C2518 H2514 0.949 . S
C2518 C2526 1.574 . S
C2518 C2534 1.368 . S
H2519 C2527 0.950 . S
H2520 C2525 0.950 . S
H2521 C2526 0.949 . S
H2522 C2528 0.950 . S
H2523 C2529 0.950 . S
H2524 C2530 0.949 . S
C2525 H2520 0.950 . S
C2525 C2527 1.327 . S
C2525 C2531 1.429 . S
C2526 C2518 1.574 . S
C2526 H2521 0.949 . S
C2526 C2532 1.368 . S
C2527 C2511 1.349 . S
C2527 H2519 0.950 . S
C2527 C2525 1.327 . S
C2528 C2516 1.349 . S
C2528 H2522 0.950 . S
C2528 C2529 1.327 . S
C2529 H2523 0.950 . S
C2529 C2528 1.327 . S
C2529 C2533 1.429 . S
C2530 C2513 1.574 . S
C2530 H2524 0.949 . S
C2530 C2534 1.368 . S
C2531 C2512 1.429 . S
C2531 C2525 1.429 . S
C2531 C2532 1.523 . S
C2532 C2513 1.368 . S
C2532 C2526 1.368 . S
C2532 C2531 1.523 . S
C2533 C2517 1.429 . S
C2533 C2529 1.429 . S
C2533 C2534 1.523 . S
C2534 C2518 1.368 . S
C2534 C2530 1.368 . S
C2534 C2533 1.523 . S
H2535 C2510 0.950 . S
H2536 C2512 0.950 . S
H2537 C2513 0.949 . S
H2538 C2515 0.950 . S
H2539 C2517 0.950 . S
C2540 C2541 1.349 . S
C2540 C2542 1.327 . S
C2540 H2565 0.950 . S
C2541 C2540 1.349 . S
C2541 C2557 1.349 . S
C2542 C2540 1.327 . S
C2542 C2561 1.429 . S
C2542 H2566 0.950 . S
C2543 C2560 1.574 1_556 S
C2543 C2562 1.368 . S
C2543 H2567 0.949 . S
H2544 C2548 0.949 . S
C2545 C2546 1.349 . S
C2545 C2547 1.327 . S
C2545 H2568 0.950 . S
C2546 C2545 1.349 . S
C2546 C2558 1.349 . S
C2547 C2545 1.327 . S
C2547 C2563 1.429 . S
C2547 H2569 0.950 . S
C2548 H2544 0.949 . S
C2548 C2556 1.574 . S
C2548 C2564 1.368 . S
H2549 C2557 0.950 . S
H2550 C2555 0.950 . S
H2551 C2556 0.949 1_556 S
H2552 C2558 0.950 . S
H2553 C2559 0.950 . S
H2554 C2560 0.949 . S
C2555 H2550 0.950 . S
C2555 C2557 1.327 . S
C2555 C2561 1.429 . S
C2556 C2548 1.574 . S
C2556 H2551 0.949 1_554 S
C2556 C2562 1.368 1_554 S
C2557 C2541 1.349 . S
C2557 H2549 0.950 . S
C2557 C2555 1.327 . S
C2558 C2546 1.349 . S
C2558 H2552 0.950 . S
C2558 C2559 1.327 . S
C2559 H2553 0.950 . S
C2559 C2558 1.327 . S
C2559 C2563 1.429 . S
C2560 C2543 1.574 1_554 S
C2560 H2554 0.949 . S
C2560 C2564 1.368 . S
C2561 C2542 1.429 . S
C2561 C2555 1.429 . S
C2561 C2562 1.523 . S
C2562 C2543 1.368 . S
C2562 C2556 1.368 1_556 S
C2562 C2561 1.523 . S
C2563 C2547 1.429 . S
C2563 C2559 1.429 . S
C2563 C2564 1.523 . S
C2564 C2548 1.368 . S
C2564 C2560 1.368 . S
C2564 C2563 1.523 . S
H2565 C2540 0.950 . S
H2566 C2542 0.950 . S
H2567 C2543 0.949 . S
H2568 C2545 0.950 . S
H2569 C2547 0.950 . S
C2570 C2571 1.349 . S
C2570 C2572 1.327 . S
C2570 H2595 0.950 . S
C2571 C2570 1.349 . S
C2571 C2587 1.349 . S
C2572 C2570 1.327 . S
C2572 C2591 1.429 . S
C2572 H2596 0.950 . S
C2573 C2590 1.574 . S
C2573 C2592 1.368 1_554 S
C2573 H2597 0.949 1_554 S
H2574 C2578 0.949 . S
C2575 C2576 1.349 . S
C2575 C2577 1.327 . S
C2575 H2598 0.950 . S
C2576 C2575 1.349 . S
C2576 C2588 1.349 . S
C2577 C2575 1.327 . S
C2577 C2593 1.429 . S
C2577 H2599 0.950 . S
C2578 H2574 0.949 . S
C2578 C2586 1.574 1_554 S
C2578 C2594 1.368 . S
H2579 C2587 0.950 . S
H2580 C2585 0.950 . S
H2581 C2586 0.949 . S
H2582 C2588 0.950 . S
H2583 C2589 0.950 . S
H2584 C2590 0.949 . S
C2585 H2580 0.950 . S
C2585 C2587 1.327 . S
C2585 C2591 1.429 . S
C2586 C2578 1.574 1_556 S
C2586 H2581 0.949 . S
C2586 C2592 1.368 . S
C2587 C2571 1.349 . S
C2587 H2579 0.950 . S
C2587 C2585 1.327 . S
C2588 C2576 1.349 . S
C2588 H2582 0.950 . S
C2588 C2589 1.327 . S
C2589 H2583 0.950 . S
C2589 C2588 1.327 . S
C2589 C2593 1.429 . S
C2590 C2573 1.574 . S
C2590 H2584 0.949 . S
C2590 C2594 1.368 . S
C2591 C2572 1.429 . S
C2591 C2585 1.429 . S
C2591 C2592 1.523 . S
C2592 C2573 1.368 1_556 S
C2592 C2586 1.368 . S
C2592 C2591 1.523 . S
C2593 C2577 1.429 . S
C2593 C2589 1.429 . S
C2593 C2594 1.523 . S
C2594 C2578 1.368 . S
C2594 C2590 1.368 . S
C2594 C2593 1.523 . S
H2595 C2570 0.950 . S
H2596 C2572 0.950 . S
H2597 C2573 0.949 1_556 S
H2598 C2575 0.950 . S
H2599 C2577 0.950 . S
C2600 C2601 1.349 . S
C2600 C2602 1.327 . S
C2600 H2625 0.950 . S
C2601 C2600 1.349 . S
C2601 C2617 1.349 . S
C2602 C2600 1.327 . S
C2602 C2621 1.429 . S
C2602 H2626 0.950 . S
C2603 C2620 1.574 . S
C2603 C2622 1.368 . S
C2603 H2627 0.949 . S
H2604 C2608 0.949 . S
C2605 C2606 1.349 . S
C2605 C2607 1.327 . S
C2605 H2628 0.950 . S
C2606 C2605 1.349 . S
C2606 C2618 1.349 . S
C2607 C2605 1.327 . S
C2607 C2623 1.429 . S
C2607 H2629 0.950 . S
C2608 H2604 0.949 . S
C2608 C2616 1.574 . S
C2608 C2624 1.368 . S
H2609 C2617 0.950 . S
H2610 C2615 0.950 . S
H2611 C2616 0.949 . S
H2612 C2618 0.950 . S
H2613 C2619 0.950 . S
H2614 C2620 0.949 . S
C2615 H2610 0.950 . S
C2615 C2617 1.327 . S
C2615 C2621 1.429 . S
C2616 C2608 1.574 . S
C2616 H2611 0.949 . S
C2616 C2622 1.368 . S
C2617 C2601 1.349 . S
C2617 H2609 0.950 . S
C2617 C2615 1.327 . S
C2618 C2606 1.349 . S
C2618 H2612 0.950 . S
C2618 C2619 1.327 . S
C2619 H2613 0.950 . S
C2619 C2618 1.327 . S
C2619 C2623 1.429 . S
C2620 C2603 1.574 . S
C2620 H2614 0.949 . S
C2620 C2624 1.368 . S
C2621 C2602 1.429 . S
C2621 C2615 1.429 . S
C2621 C2622 1.523 . S
C2622 C2603 1.368 . S
C2622 C2616 1.368 . S
C2622 C2621 1.523 . S
C2623 C2607 1.429 . S
C2623 C2619 1.429 . S
C2623 C2624 1.523 . S
C2624 C2608 1.368 . S
C2624 C2620 1.368 . S
C2624 C2623 1.523 . S
H2625 C2600 0.950 . S
H2626 C2602 0.950 . S
H2627 C2603 0.949 . S
H2628 C2605 0.950 . S
H2629 C2607 0.950 . S
C2630 C2631 1.349 . S
C2630 C2632 1.327 . S
C2630 H2655 0.950 . S
C2631 C2630 1.349 . S
C2631 C2647 1.349 . S
C2632 C2630 1.327 . S
C2632 C2651 1.429 . S
C2632 H2656 0.950 . S
C2633 C2650 1.574 . S
C2633 C2652 1.368 . S
C2633 H2657 0.949 . S
H2634 C2638 0.949 . S
C2635 C2636 1.349 . S
C2635 C2637 1.327 . S
C2635 H2658 0.950 . S
C2636 C2635 1.349 . S
C2636 C2648 1.349 . S
C2637 C2635 1.327 . S
C2637 C2653 1.429 . S
C2637 H2659 0.950 . S
C2638 H2634 0.949 . S
C2638 C2646 1.574 . S
C2638 C2654 1.368 . S
H2639 C2647 0.950 . S
H2640 C2645 0.950 . S
H2641 C2646 0.949 . S
H2642 C2648 0.950 . S
H2643 C2649 0.950 . S
H2644 C2650 0.949 . S
C2645 H2640 0.950 . S
C2645 C2647 1.327 . S
C2645 C2651 1.429 . S
C2646 C2638 1.574 . S
C2646 H2641 0.949 . S
C2646 C2652 1.368 . S
C2647 C2631 1.349 . S
C2647 H2639 0.950 . S
C2647 C2645 1.327 . S
C2648 C2636 1.349 . S
C2648 H2642 0.950 . S
C2648 C2649 1.327 . S
C2649 H2643 0.950 . S
C2649 C2648 1.327 . S
C2649 C2653 1.429 . S
C2650 C2633 1.574 . S
C2650 H2644 0.949 . S
C2650 C2654 1.368 . S
C2651 C2632 1.429 . S
C2651 C2645 1.429 . S
C2651 C2652 1.523 . S
C2652 C2633 1.368 . S
C2652 C2646 1.368 . S
C2652 C2651 1.523 . S
C2653 C2637 1.429 . S
C2653 C2649 1.429 . S
C2653 C2654 1.523 . S
C2654 C2638 1.368 . S
C2654 C2650 1.368 . S
C2654 C2653 1.523 . S
H2655 C2630 0.950 . S
H2656 C2632 0.950 . S
H2657 C2633 0.949 . S
H2658 C2635 0.950 . S
H2659 C2637 0.950 . S
C2660 C2661 1.349 . S
C2660 C2662 1.327 . S
C2660 H2685 0.950 . S
C2661 C2660 1.349 . S
C2661 C2677 1.349 . S
C2662 C2660 1.327 . S
C2662 C2681 1.429 . S
C2662 H2686 0.950 . S
C2663 C2680 1.574 1_554 S
C2663 C2682 1.368 . S
C2663 H2687 0.949 . S
H2664 C2668 0.949 . S
C2665 C2666 1.349 . S
C2665 C2667 1.327 . S
C2665 H2688 0.950 . S
C2666 C2665 1.349 . S
C2666 C2678 1.349 . S
C2667 C2665 1.327 . S
C2667 C2683 1.429 . S
C2667 H2689 0.950 . S
C2668 H2664 0.949 . S
C2668 C2676 1.574 . S
C2668 C2684 1.368 . S
H2669 C2677 0.950 . S
H2670 C2675 0.950 . S
H2671 C2676 0.949 1_554 S
H2672 C2678 0.950 . S
H2673 C2679 0.950 . S
H2674 C2680 0.949 . S
C2675 H2670 0.950 . S
C2675 C2677 1.327 . S
C2675 C2681 1.429 . S
C2676 C2668 1.574 . S
C2676 H2671 0.949 1_556 S
C2676 C2682 1.368 1_556 S
C2677 C2661 1.349 . S
C2677 H2669 0.950 . S
C2677 C2675 1.327 . S
C2678 C2666 1.349 . S
C2678 H2672 0.950 . S
C2678 C2679 1.327 . S
C2679 H2673 0.950 . S
C2679 C2678 1.327 . S
C2679 C2683 1.429 . S
C2680 C2663 1.574 1_556 S
C2680 H2674 0.949 . S
C2680 C2684 1.368 . S
C2681 C2662 1.429 . S
C2681 C2675 1.429 . S
C2681 C2682 1.523 . S
C2682 C2663 1.368 . S
C2682 C2676 1.368 1_554 S
C2682 C2681 1.523 . S
C2683 C2667 1.429 . S
C2683 C2679 1.429 . S
C2683 C2684 1.523 . S
C2684 C2668 1.368 . S
C2684 C2680 1.368 . S
C2684 C2683 1.523 . S
H2685 C2660 0.950 . S
H2686 C2662 0.950 . S
H2687 C2663 0.949 . S
H2688 C2665 0.950 . S
H2689 C2667 0.950 . S
C2690 C2691 1.349 . S
C2690 C2692 1.327 . S
C2690 H2715 0.950 . S
C2691 C2690 1.349 . S
C2691 C2707 1.349 . S
C2692 C2690 1.327 . S
C2692 C2711 1.429 . S
C2692 H2716 0.950 . S
C2693 C2710 1.574 . S
C2693 C2712 1.368 . S
C2693 H2717 0.949 . S
H2694 C2698 0.949 . S
C2695 C2696 1.349 . S
C2695 C2697 1.327 . S
C2695 H2718 0.950 . S
C2696 C2695 1.349 . S
C2696 C2708 1.349 . S
C2697 C2695 1.327 . S
C2697 C2713 1.429 . S
C2697 H2719 0.950 . S
C2698 H2694 0.949 . S
C2698 C2706 1.574 1_554 S
C2698 C2714 1.368 . S
H2699 C2707 0.950 . S
H2700 C2705 0.950 . S
H2701 C2706 0.949 . S
H2702 C2708 0.950 . S
H2703 C2709 0.950 . S
H2704 C2710 0.949 1_554 S
C2705 H2700 0.950 . S
C2705 C2707 1.327 . S
C2705 C2711 1.429 . S
C2706 C2698 1.574 1_556 S
C2706 H2701 0.949 . S
C2706 C2712 1.368 . S
C2707 C2691 1.349 . S
C2707 H2699 0.950 . S
C2707 C2705 1.327 . S
C2708 C2696 1.349 . S
C2708 H2702 0.950 . S
C2708 C2709 1.327 . S
C2709 H2703 0.950 . S
C2709 C2708 1.327 . S
C2709 C2713 1.429 . S
C2710 C2693 1.574 . S
C2710 H2704 0.949 1_556 S
C2710 C2714 1.368 1_556 S
C2711 C2692 1.429 . S
C2711 C2705 1.429 . S
C2711 C2712 1.523 . S
C2712 C2693 1.368 . S
C2712 C2706 1.368 . S
C2712 C2711 1.523 . S
C2713 C2697 1.429 . S
C2713 C2709 1.429 . S
C2713 C2714 1.523 . S
C2714 C2698 1.368 . S
C2714 C2710 1.368 1_554 S
C2714 C2713 1.523 . S
H2715 C2690 0.950 . S
H2716 C2692 0.950 . S
H2717 C2693 0.949 . S
H2718 C2695 0.950 . S
H2719 C2697 0.950 . S
C2720 C2721 1.349 . S
C2720 C2722 1.327 . S
C2720 H2745 0.950 . S
C2721 C2720 1.349 . S
C2721 C2737 1.349 . S
C2722 C2720 1.327 . S
C2722 C2741 1.429 . S
C2722 H2746 0.950 . S
C2723 C2740 1.574 . S
C2723 C2742 1.368 . S
C2723 H2747 0.949 . S
H2724 C2728 0.949 . S
C2725 C2726 1.349 . S
C2725 C2727 1.327 . S
C2725 H2748 0.950 . S
C2726 C2725 1.349 . S
C2726 C2738 1.349 . S
C2727 C2725 1.327 . S
C2727 C2743 1.429 . S
C2727 H2749 0.950 . S
C2728 H2724 0.949 . S
C2728 C2736 1.574 . S
C2728 C2744 1.368 . S
H2729 C2737 0.950 . S
H2730 C2735 0.950 . S
H2731 C2736 0.949 . S
H2732 C2738 0.950 . S
H2733 C2739 0.950 . S
H2734 C2740 0.949 . S
C2735 H2730 0.950 . S
C2735 C2737 1.327 . S
C2735 C2741 1.429 . S
C2736 C2728 1.574 . S
C2736 H2731 0.949 . S
C2736 C2742 1.368 . S
C2737 C2721 1.349 . S
C2737 H2729 0.950 . S
C2737 C2735 1.327 . S
C2738 C2726 1.349 . S
C2738 H2732 0.950 . S
C2738 C2739 1.327 . S
C2739 H2733 0.950 . S
C2739 C2738 1.327 . S
C2739 C2743 1.429 . S
C2740 C2723 1.574 . S
C2740 H2734 0.949 . S
C2740 C2744 1.368 . S
C2741 C2722 1.429 . S
C2741 C2735 1.429 . S
C2741 C2742 1.523 . S
C2742 C2723 1.368 . S
C2742 C2736 1.368 . S
C2742 C2741 1.523 . S
C2743 C2727 1.429 . S
C2743 C2739 1.429 . S
C2743 C2744 1.523 . S
C2744 C2728 1.368 . S
C2744 C2740 1.368 . S
C2744 C2743 1.523 . S
H2745 C2720 0.950 . S
H2746 C2722 0.950 . S
H2747 C2723 0.949 . S
H2748 C2725 0.950 . S
H2749 C2727 0.950 . S
C2750 C2751 1.349 . S
C2750 C2752 1.327 1_565 S
C2750 H2775 0.950 1_565 S
C2751 C2750 1.349 . S
C2751 C2767 1.349 . S
C2752 C2750 1.327 1_545 S
C2752 C2771 1.429 1_545 S
C2752 H2776 0.950 . S
C2753 C2770 1.574 . S
C2753 C2772 1.368 . S
C2753 H2777 0.949 . S
H2754 C2758 0.949 . S
C2755 C2756 1.349 . S
C2755 C2757 1.327 1_545 S
C2755 H2778 0.950 1_545 S
C2756 C2755 1.349 . S
C2756 C2768 1.349 . S
C2757 C2755 1.327 1_565 S
C2757 C2773 1.429 1_565 S
C2757 H2779 0.950 . S
C2758 H2754 0.949 . S
C2758 C2766 1.574 . S
C2758 C2774 1.368 . S
H2759 C2767 0.950 . S
H2760 C2765 0.950 . S
H2761 C2766 0.949 . S
H2762 C2768 0.950 . S
H2763 C2769 0.950 . S
H2764 C2770 0.949 . S
C2765 H2760 0.950 . S
C2765 C2767 1.327 . S
C2765 C2771 1.429 . S
C2766 C2758 1.574 . S
C2766 H2761 0.949 . S
C2766 C2772 1.368 1_545 S
C2767 C2751 1.349 . S
C2767 H2759 0.950 . S
C2767 C2765 1.327 . S
C2768 C2756 1.349 . S
C2768 H2762 0.950 . S
C2768 C2769 1.327 . S
C2769 H2763 0.950 . S
C2769 C2768 1.327 . S
C2769 C2773 1.429 . S
C2770 C2753 1.574 . S
C2770 H2764 0.949 . S
C2770 C2774 1.368 1_565 S
C2771 C2752 1.429 1_565 S
C2771 C2765 1.429 . S
C2771 C2772 1.523 . S
C2772 C2753 1.368 . S
C2772 C2766 1.368 1_565 S
C2772 C2771 1.523 . S
C2773 C2757 1.429 1_545 S
C2773 C2769 1.429 . S
C2773 C2774 1.523 . S
C2774 C2758 1.368 . S
C2774 C2770 1.368 1_545 S
C2774 C2773 1.523 . S
H2775 C2750 0.950 1_545 S
H2776 C2752 0.950 . S
H2777 C2753 0.949 . S
H2778 C2755 0.950 1_565 S
H2779 C2757 0.950 . S
C2780 C2781 1.349 . S
C2780 C2782 1.327 . S
C2780 H2805 0.950 . S
C2781 C2780 1.349 . S
C2781 C2797 1.349 . S
C2782 C2780 1.327 . S
C2782 C2801 1.429 . S
C2782 H2806 0.950 . S
C2783 C2800 1.552 1_556 S
C2783 C2802 1.375 1_545 S
C2783 H2807 0.963 . S
H2784 C2788 0.949 . S
C2785 C2786 1.349 . S
C2785 C2787 1.327 . S
C2785 H2808 0.950 . S
C2786 C2785 1.349 . S
C2786 C2798 1.349 . S
C2787 C2785 1.327 . S
C2787 C2803 1.429 . S
C2787 H2809 0.950 . S
C2788 H2784 0.949 . S
C2788 C2796 1.574 . S
C2788 C2804 1.368 1_565 S
H2789 C2797 0.950 . S
H2790 C2795 0.950 1_545 S
H2791 C2796 0.949 1_556 S
H2792 C2798 0.950 . S
H2793 C2799 0.950 1_565 S
H2794 C2800 0.949 . S
C2795 H2790 0.950 1_565 S
C2795 C2797 1.327 . S
C2795 C2801 1.429 . S
C2796 C2788 1.574 . S
C2796 H2791 0.949 1_554 S
C2796 C2802 1.368 1_554 S
C2797 C2781 1.349 . S
C2797 H2789 0.950 . S
C2797 C2795 1.327 . S
C2798 C2786 1.349 . S
C2798 H2792 0.950 . S
C2798 C2799 1.327 . S
C2799 H2793 0.950 1_545 S
C2799 C2798 1.327 . S
C2799 C2803 1.429 . S
C2800 C2783 1.552 1_554 S
C2800 H2794 0.949 . S
C2800 C2804 1.368 . S
C2801 C2782 1.429 . S
C2801 C2795 1.429 . S
C2801 C2802 1.523 . S
C2802 C2783 1.375 1_565 S
C2802 C2796 1.368 1_556 S
C2802 C2801 1.523 . S
C2803 C2787 1.429 . S
C2803 C2799 1.429 . S
C2803 C2804 1.523 . S
C2804 C2788 1.368 1_545 S
C2804 C2800 1.368 . S
C2804 C2803 1.523 . S
H2805 C2780 0.950 . S
H2806 C2782 0.950 . S
H2807 C2783 0.963 . S
H2808 C2785 0.950 . S
H2809 C2787 0.950 . S
C2810 C2811 1.349 . S
C2810 C2812 1.327 . S
C2810 H2835 0.950 . S
C2811 C2810 1.349 . S
C2811 C2827 1.349 . S
C2812 C2810 1.327 . S
C2812 C2831 1.429 . S
C2812 H2836 0.950 . S
C2813 C2830 1.574 . S
C2813 C2832 1.368 1_554 S
C2813 H2837 0.949 1_554 S
H2814 C2818 0.949 . S
C2815 C2816 1.349 . S
C2815 C2817 1.327 . S
C2815 H2838 0.950 . S
C2816 C2815 1.349 . S
C2816 C2828 1.349 . S
C2817 C2815 1.327 . S
C2817 C2833 1.429 . S
C2817 H2839 0.950 . S
C2818 H2814 0.949 . S
C2818 C2826 1.574 1_554 S
C2818 C2834 1.368 . S
H2819 C2827 0.950 . S
H2820 C2825 0.950 . S
H2821 C2826 0.949 . S
H2822 C2828 0.950 . S
H2823 C2829 0.950 . S
H2824 C2830 0.949 . S
C2825 H2820 0.950 . S
C2825 C2827 1.327 . S
C2825 C2831 1.429 . S
C2826 C2818 1.574 1_556 S
C2826 H2821 0.949 . S
C2826 C2832 1.368 . S
C2827 C2811 1.349 . S
C2827 H2819 0.950 . S
C2827 C2825 1.327 . S
C2828 C2816 1.349 . S
C2828 H2822 0.950 . S
C2828 C2829 1.327 . S
C2829 H2823 0.950 . S
C2829 C2828 1.327 . S
C2829 C2833 1.429 . S
C2830 C2813 1.574 . S
C2830 H2824 0.949 . S
C2830 C2834 1.368 . S
C2831 C2812 1.429 . S
C2831 C2825 1.429 . S
C2831 C2832 1.523 . S
C2832 C2813 1.368 1_556 S
C2832 C2826 1.368 . S
C2832 C2831 1.523 . S
C2833 C2817 1.429 . S
C2833 C2829 1.429 . S
C2833 C2834 1.523 . S
C2834 C2818 1.368 . S
C2834 C2830 1.368 . S
C2834 C2833 1.523 . S
H2835 C2810 0.950 . S
H2836 C2812 0.950 . S
H2837 C2813 0.949 1_556 S
H2838 C2815 0.950 . S
H2839 C2817 0.950 . S
C2840 C2841 1.349 . S
C2840 C2842 1.327 . S
C2840 H2865 0.950 . S
C2841 C2840 1.349 . S
C2841 C2857 1.349 . S
C2842 C2840 1.327 . S
C2842 C2861 1.429 . S
C2842 H2866 0.950 . S
C2843 C2860 1.574 . S
C2843 C2862 1.368 . S
C2843 H2867 0.949 . S
H2844 C2848 0.949 . S
C2845 C2846 1.349 . S
C2845 C2847 1.327 . S
C2845 H2868 0.950 . S
C2846 C2845 1.349 . S
C2846 C2858 1.349 . S
C2847 C2845 1.327 . S
C2847 C2863 1.429 . S
C2847 H2869 0.950 . S
C2848 H2844 0.949 . S
C2848 C2856 1.574 . S
C2848 C2864 1.368 . S
H2849 C2857 0.950 . S
H2850 C2855 0.950 . S
H2851 C2856 0.949 . S
H2852 C2858 0.950 . S
H2853 C2859 0.950 . S
H2854 C2860 0.949 . S
C2855 H2850 0.950 . S
C2855 C2857 1.327 . S
C2855 C2861 1.429 . S
C2856 C2848 1.574 . S
C2856 H2851 0.949 . S
C2856 C2862 1.368 . S
C2857 C2841 1.349 . S
C2857 H2849 0.950 . S
C2857 C2855 1.327 . S
C2858 C2846 1.349 . S
C2858 H2852 0.950 . S
C2858 C2859 1.327 . S
C2859 H2853 0.950 . S
C2859 C2858 1.327 . S
C2859 C2863 1.429 . S
C2860 C2843 1.574 . S
C2860 H2854 0.949 . S
C2860 C2864 1.368 . S
C2861 C2842 1.429 . S
C2861 C2855 1.429 . S
C2861 C2862 1.523 . S
C2862 C2843 1.368 . S
C2862 C2856 1.368 . S
C2862 C2861 1.523 . S
C2863 C2847 1.429 . S
C2863 C2859 1.429 . S
C2863 C2864 1.523 . S
C2864 C2848 1.368 . S
C2864 C2860 1.368 . S
C2864 C2863 1.523 . S
H2865 C2840 0.950 . S
H2866 C2842 0.950 . S
H2867 C2843 0.949 . S
H2868 C2845 0.950 . S
H2869 C2847 0.950 . S
C2870 C2871 1.349 . S
C2870 C2872 1.327 1_545 S
C2870 H2895 0.950 1_545 S
C2871 C2870 1.349 . S
C2871 C2887 1.349 . S
C2872 C2870 1.327 1_565 S
C2872 C2891 1.429 1_565 S
C2872 H2896 0.950 . S
C2873 C2890 1.574 . S
C2873 C2892 1.368 . S
C2873 H2897 0.949 . S
H2874 C2878 0.949 . S
C2875 C2876 1.349 . S
C2875 C2877 1.327 1_565 S
C2875 H2898 0.950 1_565 S
C2876 C2875 1.349 . S
C2876 C2888 1.349 . S
C2877 C2875 1.327 1_545 S
C2877 C2893 1.429 1_545 S
C2877 H2899 0.950 . S
C2878 H2874 0.949 . S
C2878 C2886 1.574 . S
C2878 C2894 1.368 . S
H2879 C2887 0.950 . S
H2880 C2885 0.950 . S
H2881 C2886 0.949 . S
H2882 C2888 0.950 . S
H2883 C2889 0.950 . S
H2884 C2890 0.949 . S
C2885 H2880 0.950 . S
C2885 C2887 1.327 . S
C2885 C2891 1.429 . S
C2886 C2878 1.574 . S
C2886 H2881 0.949 . S
C2886 C2892 1.368 1_565 S
C2887 C2871 1.349 . S
C2887 H2879 0.950 . S
C2887 C2885 1.327 . S
C2888 C2876 1.349 . S
C2888 H2882 0.950 . S
C2888 C2889 1.327 . S
C2889 H2883 0.950 . S
C2889 C2888 1.327 . S
C2889 C2893 1.429 . S
C2890 C2873 1.574 . S
C2890 H2884 0.949 . S
C2890 C2894 1.368 1_545 S
C2891 C2872 1.429 1_545 S
C2891 C2885 1.429 . S
C2891 C2892 1.523 . S
C2892 C2873 1.368 . S
C2892 C2886 1.368 1_545 S
C2892 C2891 1.523 . S
C2893 C2877 1.429 1_565 S
C2893 C2889 1.429 . S
C2893 C2894 1.523 . S
C2894 C2878 1.368 . S
C2894 C2890 1.368 1_565 S
C2894 C2893 1.523 . S
H2895 C2870 0.950 1_565 S
H2896 C2872 0.950 . S
H2897 C2873 0.949 . S
H2898 C2875 0.950 1_545 S
H2899 C2877 0.950 . S
C2900 C2901 1.349 . S
C2900 C2902 1.327 . S
C2900 H2925 0.950 . S
C2901 C2900 1.349 . S
C2901 C2917 1.349 . S
C2902 C2900 1.327 . S
C2902 C2921 1.429 . S
C2902 H2926 0.950 . S
C2903 C2920 1.574 . S
C2903 C2922 1.368 1_545 S
C2903 H2927 0.949 . S
H2904 C2908 0.949 . S
C2905 C2906 1.349 . S
C2905 C2907 1.327 . S
C2905 H2928 0.950 . S
C2906 C2905 1.349 . S
C2906 C2918 1.349 . S
C2907 C2905 1.327 . S
C2907 C2923 1.429 . S
C2907 H2929 0.950 . S
C2908 H2904 0.949 . S
C2908 C2916 1.574 1_554 S
C2908 C2924 1.368 1_565 S
H2909 C2917 0.950 1_545 S
H2910 C2915 0.950 . S
H2911 C2916 0.949 . S
H2912 C2918 0.950 1_565 S
H2913 C2919 0.950 . S
H2914 C2920 0.949 1_554 S
C2915 H2910 0.950 . S
C2915 C2917 1.327 1_545 S
C2915 C2921 1.429 1_545 S
C2916 C2908 1.574 1_556 S
C2916 H2911 0.949 . S
C2916 C2922 1.368 . S
C2917 C2901 1.349 . S
C2917 H2909 0.950 1_565 S
C2917 C2915 1.327 1_565 S
C2918 C2906 1.349 . S
C2918 H2912 0.950 1_545 S
C2918 C2919 1.327 1_545 S
C2919 H2913 0.950 . S
C2919 C2918 1.327 1_565 S
C2919 C2923 1.429 1_565 S
C2920 C2903 1.574 . S
C2920 H2914 0.949 1_556 S
C2920 C2924 1.368 1_556 S
C2921 C2902 1.429 . S
C2921 C2915 1.429 1_565 S
C2921 C2922 1.523 . S
C2922 C2903 1.368 1_565 S
C2922 C2916 1.368 . S
C2922 C2921 1.523 . S
C2923 C2907 1.429 . S
C2923 C2919 1.429 1_545 S
C2923 C2924 1.523 . S
C2924 C2908 1.368 1_545 S
C2924 C2920 1.368 1_554 S
C2924 C2923 1.523 . S
H2925 C2900 0.950 . S
H2926 C2902 0.950 . S
H2927 C2903 0.949 . S
H2928 C2905 0.950 . S
H2929 C2907 0.950 . S
C2930 C2931 1.349 . S
C2930 C2932 1.327 . S
C2930 H2955 0.950 . S
C2931 C2930 1.349 . S
C2931 C2947 1.349 . S
C2932 C2930 1.327 . S
C2932 C2951 1.429 . S
C2932 H2956 0.950 . S
C2933 C2950 1.574 1_556 S
C2933 C2952 1.368 . S
C2933 H2957 0.949 . S
H2934 C2938 0.949 1_554 S
C2935 C2936 1.349 . S
C2935 C2937 1.327 . S
C2935 H2958 0.950 . S
C2936 C2935 1.349 . S
C2936 C2948 1.349 . S
C2937 C2935 1.327 . S
C2937 C2953 1.429 . S
C2937 H2959 0.950 . S
C2938 H2934 0.949 1_556 S
C2938 C2946 1.574 . S
C2938 C2954 1.368 1_556 S
H2939 C2947 0.950 . S
H2940 C2945 0.950 . S
H2941 C2946 0.949 . S
H2942 C2948 0.950 . S
H2943 C2949 0.950 . S
H2944 C2950 0.949 . S
C2945 H2940 0.950 . S
C2945 C2947 1.327 . S
C2945 C2951 1.429 . S
C2946 C2938 1.574 . S
C2946 H2941 0.949 . S
C2946 C2952 1.368 . S
C2947 C2931 1.349 . S
C2947 H2939 0.950 . S
C2947 C2945 1.327 . S
C2948 C2936 1.349 . S
C2948 H2942 0.950 . S
C2948 C2949 1.327 . S
C2949 H2943 0.950 . S
C2949 C2948 1.327 . S
C2949 C2953 1.429 . S
C2950 C2933 1.574 1_554 S
C2950 H2944 0.949 . S
C2950 C2954 1.368 . S
C2951 C2932 1.429 . S
C2951 C2945 1.429 . S
C2951 C2952 1.523 . S
C2952 C2933 1.368 . S
C2952 C2946 1.368 . S
C2952 C2951 1.523 . S
C2953 C2937 1.429 . S
C2953 C2949 1.429 . S
C2953 C2954 1.523 . S
C2954 C2938 1.368 1_554 S
C2954 C2950 1.368 . S
C2954 C2953 1.523 . S
H2955 C2930 0.950 . S
H2956 C2932 0.950 . S
H2957 C2933 0.949 . S
H2958 C2935 0.950 . S
H2959 C2937 0.950 . S
C2960 C2961 1.349 . S
C2960 C2962 1.327 . S
C2960 H2985 0.950 . S
C2961 C2960 1.349 . S
C2961 C2977 1.349 . S
C2962 C2960 1.327 . S
C2962 C2981 1.429 . S
C2962 H2986 0.950 . S
C2963 C2980 1.574 . S
C2963 C2982 1.368 . S
C2963 H2987 0.949 . S
H2964 C2968 0.949 . S
C2965 C2966 1.349 . S
C2965 C2967 1.327 . S
C2965 H2988 0.950 . S
C2966 C2965 1.349 . S
C2966 C2978 1.349 . S
C2967 C2965 1.327 . S
C2967 C2983 1.429 . S
C2967 H2989 0.950 . S
C2968 H2964 0.949 . S
C2968 C2976 1.574 . S
C2968 C2984 1.368 . S
H2969 C2977 0.950 . S
H2970 C2975 0.950 . S
H2971 C2976 0.949 . S
H2972 C2978 0.950 . S
H2973 C2979 0.950 . S
H2974 C2980 0.949 . S
C2975 H2970 0.950 . S
C2975 C2977 1.327 . S
C2975 C2981 1.429 . S
C2976 C2968 1.574 . S
C2976 H2971 0.949 . S
C2976 C2982 1.368 . S
C2977 C2961 1.349 . S
C2977 H2969 0.950 . S
C2977 C2975 1.327 . S
C2978 C2966 1.349 . S
C2978 H2972 0.950 . S
C2978 C2979 1.327 . S
C2979 H2973 0.950 . S
C2979 C2978 1.327 . S
C2979 C2983 1.429 . S
C2980 C2963 1.574 . S
C2980 H2974 0.949 . S
C2980 C2984 1.368 . S
C2981 C2962 1.429 . S
C2981 C2975 1.429 . S
C2981 C2982 1.523 . S
C2982 C2963 1.368 . S
C2982 C2976 1.368 . S
C2982 C2981 1.523 . S
C2983 C2967 1.429 . S
C2983 C2979 1.429 . S
C2983 C2984 1.523 . S
C2984 C2968 1.368 . S
C2984 C2980 1.368 . S
C2984 C2983 1.523 . S
H2985 C2960 0.950 . S
H2986 C2962 0.950 . S
H2987 C2963 0.949 . S
H2988 C2965 0.950 . S
H2989 C2967 0.950 . S
C2990 C2991 1.349 . S
C2990 C2992 1.327 . S
C2990 H3015 0.950 . S
C2991 C2990 1.349 . S
C2991 C3007 1.349 . S
C2992 C2990 1.327 . S
C2992 C3011 1.429 . S
C2992 H3016 0.950 . S
C2993 C3010 1.574 . S
C2993 C3012 1.368 . S
C2993 H3017 0.949 . S
H2994 C2998 0.949 . S
C2995 C2996 1.349 . S
C2995 C2997 1.327 . S
C2995 H3018 0.950 . S
C2996 C2995 1.349 . S
C2996 C3008 1.349 . S
C2997 C2995 1.327 . S
C2997 C3013 1.429 . S
C2997 H3019 0.950 . S
C2998 H2994 0.949 . S
C2998 C3006 1.574 . S
C2998 C3014 1.368 . S
H2999 C3007 0.950 . S
H3000 C3005 0.950 . S
H3001 C3006 0.949 . S
H3002 C3008 0.950 . S
H3003 C3009 0.950 . S
H3004 C3010 0.949 . S
C3005 H3000 0.950 . S
C3005 C3007 1.327 . S
C3005 C3011 1.429 . S
C3006 C2998 1.574 . S
C3006 H3001 0.949 . S
C3006 C3012 1.368 . S
C3007 C2991 1.349 . S
C3007 H2999 0.950 . S
C3007 C3005 1.327 . S
C3008 C2996 1.349 . S
C3008 H3002 0.950 . S
C3008 C3009 1.327 . S
C3009 H3003 0.950 . S
C3009 C3008 1.327 . S
C3009 C3013 1.429 . S
C3010 C2993 1.574 . S
C3010 H3004 0.949 . S
C3010 C3014 1.368 . S
C3011 C2992 1.429 . S
C3011 C3005 1.429 . S
C3011 C3012 1.523 . S
C3012 C2993 1.368 . S
C3012 C3006 1.368 . S
C3012 C3011 1.523 . S
C3013 C2997 1.429 . S
C3013 C3009 1.429 . S
C3013 C3014 1.523 . S
C3014 C2998 1.368 . S
C3014 C3010 1.368 . S
C3014 C3013 1.523 . S
H3015 C2990 0.950 . S
H3016 C2992 0.950 . S
H3017 C2993 0.949 . S
H3018 C2995 0.950 . S
H3019 C2997 0.950 . S
C3020 C3021 1.349 . S
C3020 C3022 1.327 . S
C3020 H3045 0.950 . S
C3021 C3020 1.349 . S
C3021 C3037 1.349 . S
C3022 C3020 1.327 . S
C3022 C3041 1.429 . S
C3022 H3046 0.950 . S
C3023 C3040 1.574 . S
C3023 C3042 1.368 . S
C3023 H3047 0.949 . S
H3024 C3028 0.949 . S
C3025 C3026 1.349 . S
C3025 C3027 1.327 . S
C3025 H3048 0.950 . S
C3026 C3025 1.349 . S
C3026 C3038 1.349 . S
C3027 C3025 1.327 . S
C3027 C3043 1.429 . S
C3027 H3049 0.950 . S
C3028 H3024 0.949 . S
C3028 C3036 1.574 . S
C3028 C3044 1.368 . S
H3029 C3037 0.950 . S
H3030 C3035 0.950 . S
H3031 C3036 0.949 . S
H3032 C3038 0.950 . S
H3033 C3039 0.950 . S
H3034 C3040 0.949 . S
C3035 H3030 0.950 . S
C3035 C3037 1.327 . S
C3035 C3041 1.429 . S
C3036 C3028 1.574 . S
C3036 H3031 0.949 . S
C3036 C3042 1.368 . S
C3037 C3021 1.349 . S
C3037 H3029 0.950 . S
C3037 C3035 1.327 . S
C3038 C3026 1.349 . S
C3038 H3032 0.950 . S
C3038 C3039 1.327 . S
C3039 H3033 0.950 . S
C3039 C3038 1.327 . S
C3039 C3043 1.429 . S
C3040 C3023 1.574 . S
C3040 H3034 0.949 . S
C3040 C3044 1.368 . S
C3041 C3022 1.429 . S
C3041 C3035 1.429 . S
C3041 C3042 1.523 . S
C3042 C3023 1.368 . S
C3042 C3036 1.368 . S
C3042 C3041 1.523 . S
C3043 C3027 1.429 . S
C3043 C3039 1.429 . S
C3043 C3044 1.523 . S
C3044 C3028 1.368 . S
C3044 C3040 1.368 . S
C3044 C3043 1.523 . S
H3045 C3020 0.950 . S
H3046 C3022 0.950 . S
H3047 C3023 0.949 . S
H3048 C3025 0.950 . S
H3049 C3027 0.950 . S
C3050 C3051 1.349 . S
C3050 C3052 1.327 . S
C3050 H3075 0.950 . S
C3051 C3050 1.349 . S
C3051 C3067 1.349 . S
C3052 C3050 1.327 . S
C3052 C3071 1.429 . S
C3052 H3076 0.950 . S
C3053 C3070 1.574 . S
C3053 C3072 1.368 . S
C3053 H3077 0.949 . S
H3054 C3058 0.949 . S
C3055 C3056 1.349 . S
C3055 C3057 1.327 . S
C3055 H3078 0.950 . S
C3056 C3055 1.349 . S
C3056 C3068 1.349 . S
C3057 C3055 1.327 . S
C3057 C3073 1.429 . S
C3057 H3079 0.950 . S
C3058 H3054 0.949 . S
C3058 C3066 1.574 . S
C3058 C3074 1.368 . S
H3059 C3067 0.950 . S
H3060 C3065 0.950 . S
H3061 C3066 0.949 . S
H3062 C3068 0.950 . S
H3063 C3069 0.950 . S
H3064 C3070 0.949 . S
C3065 H3060 0.950 . S
C3065 C3067 1.327 . S
C3065 C3071 1.429 . S
C3066 C3058 1.574 . S
C3066 H3061 0.949 . S
C3066 C3072 1.368 . S
C3067 C3051 1.349 . S
C3067 H3059 0.950 . S
C3067 C3065 1.327 . S
C3068 C3056 1.349 . S
C3068 H3062 0.950 . S
C3068 C3069 1.327 . S
C3069 H3063 0.950 . S
C3069 C3068 1.327 . S
C3069 C3073 1.429 . S
C3070 C3053 1.574 . S
C3070 H3064 0.949 . S
C3070 C3074 1.368 . S
C3071 C3052 1.429 . S
C3071 C3065 1.429 . S
C3071 C3072 1.523 . S
C3072 C3053 1.368 . S
C3072 C3066 1.368 . S
C3072 C3071 1.523 . S
C3073 C3057 1.429 . S
C3073 C3069 1.429 . S
C3073 C3074 1.523 . S
C3074 C3058 1.368 . S
C3074 C3070 1.368 . S
C3074 C3073 1.523 . S
H3075 C3050 0.950 . S
H3076 C3052 0.950 . S
H3077 C3053 0.949 . S
H3078 C3055 0.950 . S
H3079 C3057 0.950 . S
C3080 C3081 1.349 . S
C3080 C3082 1.327 . S
C3080 H3105 0.950 . S
C3081 C3080 1.349 . S
C3081 C3097 1.349 . S
C3082 C3080 1.327 . S
C3082 C3101 1.429 . S
C3082 H3106 0.950 . S
C3083 C3100 1.574 . S
C3083 C3102 1.368 . S
C3083 H3107 0.949 . S
H3084 C3088 0.949 . S
C3085 C3086 1.349 . S
C3085 C3087 1.327 . S
C3085 H3108 0.950 . S
C3086 C3085 1.349 . S
C3086 C3098 1.349 . S
C3087 C3085 1.327 . S
C3087 C3103 1.429 . S
C3087 H3109 0.950 . S
C3088 H3084 0.949 . S
C3088 C3096 1.574 . S
C3088 C3104 1.368 . S
H3089 C3097 0.950 . S
H3090 C3095 0.950 . S
H3091 C3096 0.949 . S
H3092 C3098 0.950 . S
H3093 C3099 0.950 . S
H3094 C3100 0.949 . S
C3095 H3090 0.950 . S
C3095 C3097 1.327 . S
C3095 C3101 1.429 . S
C3096 C3088 1.574 . S
C3096 H3091 0.949 . S
C3096 C3102 1.368 . S
C3097 C3081 1.349 . S
C3097 H3089 0.950 . S
C3097 C3095 1.327 . S
C3098 C3086 1.349 . S
C3098 H3092 0.950 . S
C3098 C3099 1.327 . S
C3099 H3093 0.950 . S
C3099 C3098 1.327 . S
C3099 C3103 1.429 . S
C3100 C3083 1.574 . S
C3100 H3094 0.949 . S
C3100 C3104 1.368 . S
C3101 C3082 1.429 . S
C3101 C3095 1.429 . S
C3101 C3102 1.523 . S
C3102 C3083 1.368 . S
C3102 C3096 1.368 . S
C3102 C3101 1.523 . S
C3103 C3087 1.429 . S
C3103 C3099 1.429 . S
C3103 C3104 1.523 . S
C3104 C3088 1.368 . S
C3104 C3100 1.368 . S
C3104 C3103 1.523 . S
H3105 C3080 0.950 . S
H3106 C3082 0.950 . S
H3107 C3083 0.949 . S
H3108 C3085 0.950 . S
H3109 C3087 0.950 . S
C3110 C3111 1.349 . S
C3110 C3112 1.327 . S
C3110 H3135 0.950 . S
C3111 C3110 1.349 . S
C3111 C3127 1.349 . S
C3112 C3110 1.327 . S
C3112 C3131 1.429 . S
C3112 H3136 0.950 . S
C3113 C3130 1.574 . S
C3113 C3132 1.368 . S
C3113 H3137 0.949 . S
H3114 C3118 0.949 . S
C3115 C3116 1.349 . S
C3115 C3117 1.327 . S
C3115 H3138 0.950 . S
C3116 C3115 1.349 . S
C3116 C3128 1.349 . S
C3117 C3115 1.327 . S
C3117 C3133 1.429 . S
C3117 H3139 0.950 . S
C3118 H3114 0.949 . S
C3118 C3126 1.574 . S
C3118 C3134 1.368 . S
H3119 C3127 0.950 . S
H3120 C3125 0.950 . S
H3121 C3126 0.949 . S
H3122 C3128 0.950 . S
H3123 C3129 0.950 . S
H3124 C3130 0.949 . S
C3125 H3120 0.950 . S
C3125 C3127 1.327 . S
C3125 C3131 1.429 . S
C3126 C3118 1.574 . S
C3126 H3121 0.949 . S
C3126 C3132 1.368 . S
C3127 C3111 1.349 . S
C3127 H3119 0.950 . S
C3127 C3125 1.327 . S
C3128 C3116 1.349 . S
C3128 H3122 0.950 . S
C3128 C3129 1.327 . S
C3129 H3123 0.950 . S
C3129 C3128 1.327 . S
C3129 C3133 1.429 . S
C3130 C3113 1.574 . S
C3130 H3124 0.949 . S
C3130 C3134 1.368 . S
C3131 C3112 1.429 . S
C3131 C3125 1.429 . S
C3131 C3132 1.523 . S
C3132 C3113 1.368 . S
C3132 C3126 1.368 . S
C3132 C3131 1.523 . S
C3133 C3117 1.429 . S
C3133 C3129 1.429 . S
C3133 C3134 1.523 . S
C3134 C3118 1.368 . S
C3134 C3130 1.368 . S
C3134 C3133 1.523 . S
H3135 C3110 0.950 . S
H3136 C3112 0.950 . S
H3137 C3113 0.949 . S
H3138 C3115 0.950 . S
H3139 C3117 0.950 . S
C3140 C3141 1.349 . S
C3140 C3142 1.327 . S
C3140 H3165 0.950 . S
C3141 C3140 1.349 . S
C3141 C3157 1.349 . S
C3142 C3140 1.327 . S
C3142 C3161 1.429 . S
C3142 H3166 0.950 . S
C3143 C3160 1.574 . S
C3143 C3162 1.368 . S
C3143 H3167 0.949 . S
H3144 C3148 0.949 . S
C3145 C3146 1.349 . S
C3145 C3147 1.327 . S
C3145 H3168 0.950 . S
C3146 C3145 1.349 . S
C3146 C3158 1.349 . S
C3147 C3145 1.327 . S
C3147 C3163 1.429 . S
C3147 H3169 0.950 . S
C3148 H3144 0.949 . S
C3148 C3156 1.574 . S
C3148 C3164 1.368 . S
H3149 C3157 0.950 . S
H3150 C3155 0.950 . S
H3151 C3156 0.949 . S
H3152 C3158 0.950 . S
H3153 C3159 0.950 . S
H3154 C3160 0.949 . S
C3155 H3150 0.950 . S
C3155 C3157 1.327 . S
C3155 C3161 1.429 . S
C3156 C3148 1.574 . S
C3156 H3151 0.949 . S
C3156 C3162 1.368 . S
C3157 C3141 1.349 . S
C3157 H3149 0.950 . S
C3157 C3155 1.327 . S
C3158 C3146 1.349 . S
C3158 H3152 0.950 . S
C3158 C3159 1.327 . S
C3159 H3153 0.950 . S
C3159 C3158 1.327 . S
C3159 C3163 1.429 . S
C3160 C3143 1.574 . S
C3160 H3154 0.949 . S
C3160 C3164 1.368 . S
C3161 C3142 1.429 . S
C3161 C3155 1.429 . S
C3161 C3162 1.523 . S
C3162 C3143 1.368 . S
C3162 C3156 1.368 . S
C3162 C3161 1.523 . S
C3163 C3147 1.429 . S
C3163 C3159 1.429 . S
C3163 C3164 1.523 . S
C3164 C3148 1.368 . S
C3164 C3160 1.368 . S
C3164 C3163 1.523 . S
H3165 C3140 0.950 . S
H3166 C3142 0.950 . S
H3167 C3143 0.949 . S
H3168 C3145 0.950 . S
H3169 C3147 0.950 . S
C3170 C3171 1.349 . S
C3170 C3172 1.327 . S
C3170 H3195 0.950 . S
C3171 C3170 1.349 . S
C3171 C3187 1.349 . S
C3172 C3170 1.327 . S
C3172 C3191 1.429 . S
C3172 H3196 0.950 . S
C3173 C3190 1.574 . S
C3173 C3192 1.368 . S
C3173 H3197 0.949 . S
H3174 C3178 0.949 . S
C3175 C3176 1.349 . S
C3175 C3177 1.327 . S
C3175 H3198 0.950 . S
C3176 C3175 1.349 . S
C3176 C3188 1.349 . S
C3177 C3175 1.327 . S
C3177 C3193 1.429 . S
C3177 H3199 0.950 . S
C3178 H3174 0.949 . S
C3178 C3186 1.574 . S
C3178 C3194 1.368 . S
H3179 C3187 0.950 . S
H3180 C3185 0.950 . S
H3181 C3186 0.949 . S
H3182 C3188 0.950 . S
H3183 C3189 0.950 . S
H3184 C3190 0.949 . S
C3185 H3180 0.950 . S
C3185 C3187 1.327 . S
C3185 C3191 1.429 . S
C3186 C3178 1.574 . S
C3186 H3181 0.949 . S
C3186 C3192 1.368 . S
C3187 C3171 1.349 . S
C3187 H3179 0.950 . S
C3187 C3185 1.327 . S
C3188 C3176 1.349 . S
C3188 H3182 0.950 . S
C3188 C3189 1.327 . S
C3189 H3183 0.950 . S
C3189 C3188 1.327 . S
C3189 C3193 1.429 . S
C3190 C3173 1.574 . S
C3190 H3184 0.949 . S
C3190 C3194 1.368 . S
C3191 C3172 1.429 . S
C3191 C3185 1.429 . S
C3191 C3192 1.523 . S
C3192 C3173 1.368 . S
C3192 C3186 1.368 . S
C3192 C3191 1.523 . S
C3193 C3177 1.429 . S
C3193 C3189 1.429 . S
C3193 C3194 1.523 . S
C3194 C3178 1.368 . S
C3194 C3190 1.368 . S
C3194 C3193 1.523 . S
H3195 C3170 0.950 . S
H3196 C3172 0.950 . S
H3197 C3173 0.949 . S
H3198 C3175 0.950 . S
H3199 C3177 0.950 . S
C3200 C3201 1.349 . S
C3200 C3202 1.327 . S
C3200 H3225 0.950 . S
C3201 C3200 1.349 . S
C3201 C3217 1.349 . S
C3202 C3200 1.327 . S
C3202 C3221 1.429 . S
C3202 H3226 0.950 . S
C3203 C3220 1.574 . S
C3203 C3222 1.368 . S
C3203 H3227 0.949 . S
H3204 C3208 0.949 . S
C3205 C3206 1.349 . S
C3205 C3207 1.327 . S
C3205 H3228 0.950 . S
C3206 C3205 1.349 . S
C3206 C3218 1.349 . S
C3207 C3205 1.327 . S
C3207 C3223 1.429 . S
C3207 H3229 0.950 . S
C3208 H3204 0.949 . S
C3208 C3216 1.574 . S
C3208 C3224 1.368 . S
H3209 C3217 0.950 . S
H3210 C3215 0.950 . S
H3211 C3216 0.949 . S
H3212 C3218 0.950 . S
H3213 C3219 0.950 . S
H3214 C3220 0.949 . S
C3215 H3210 0.950 . S
C3215 C3217 1.327 . S
C3215 C3221 1.429 . S
C3216 C3208 1.574 . S
C3216 H3211 0.949 . S
C3216 C3222 1.368 . S
C3217 C3201 1.349 . S
C3217 H3209 0.950 . S
C3217 C3215 1.327 . S
C3218 C3206 1.349 . S
C3218 H3212 0.950 . S
C3218 C3219 1.327 . S
C3219 H3213 0.950 . S
C3219 C3218 1.327 . S
C3219 C3223 1.429 . S
C3220 C3203 1.574 . S
C3220 H3214 0.949 . S
C3220 C3224 1.368 . S
C3221 C3202 1.429 . S
C3221 C3215 1.429 . S
C3221 C3222 1.523 . S
C3222 C3203 1.368 . S
C3222 C3216 1.368 . S
C3222 C3221 1.523 . S
C3223 C3207 1.429 . S
C3223 C3219 1.429 . S
C3223 C3224 1.523 . S
C3224 C3208 1.368 . S
C3224 C3220 1.368 . S
C3224 C3223 1.523 . S
H3225 C3200 0.950 . S
H3226 C3202 0.950 . S
H3227 C3203 0.949 . S
H3228 C3205 0.950 . S
H3229 C3207 0.950 . S
C3230 C3231 1.349 . S
C3230 C3232 1.327 . S
C3230 H3255 0.950 . S
C3231 C3230 1.349 . S
C3231 C3247 1.349 . S
C3232 C3230 1.327 . S
C3232 C3251 1.429 . S
C3232 H3256 0.950 . S
C3233 C3250 1.574 . S
C3233 C3252 1.368 . S
C3233 H3257 0.949 . S
H3234 C3238 0.949 . S
C3235 C3236 1.349 . S
C3235 C3237 1.327 . S
C3235 H3258 0.950 . S
C3236 C3235 1.349 . S
C3236 C3248 1.349 . S
C3237 C3235 1.327 . S
C3237 C3253 1.429 . S
C3237 H3259 0.950 . S
C3238 H3234 0.949 . S
C3238 C3246 1.574 . S
C3238 C3254 1.368 . S
H3239 C3247 0.950 . S
H3240 C3245 0.950 . S
H3241 C3246 0.949 . S
H3242 C3248 0.950 . S
H3243 C3249 0.950 . S
H3244 C3250 0.949 . S
C3245 H3240 0.950 . S
C3245 C3247 1.327 . S
C3245 C3251 1.429 . S
C3246 C3238 1.574 . S
C3246 H3241 0.949 . S
C3246 C3252 1.368 . S
C3247 C3231 1.349 . S
C3247 H3239 0.950 . S
C3247 C3245 1.327 . S
C3248 C3236 1.349 . S
C3248 H3242 0.950 . S
C3248 C3249 1.327 . S
C3249 H3243 0.950 . S
C3249 C3248 1.327 . S
C3249 C3253 1.429 . S
C3250 C3233 1.574 . S
C3250 H3244 0.949 . S
C3250 C3254 1.368 . S
C3251 C3232 1.429 . S
C3251 C3245 1.429 . S
C3251 C3252 1.523 . S
C3252 C3233 1.368 . S
C3252 C3246 1.368 . S
C3252 C3251 1.523 . S
C3253 C3237 1.429 . S
C3253 C3249 1.429 . S
C3253 C3254 1.523 . S
C3254 C3238 1.368 . S
C3254 C3250 1.368 . S
C3254 C3253 1.523 . S
H3255 C3230 0.950 . S
H3256 C3232 0.950 . S
H3257 C3233 0.949 . S
H3258 C3235 0.950 . S
H3259 C3237 0.950 . S
C3260 C3261 1.349 . S
C3260 C3262 1.327 . S
C3260 H3285 0.950 1_556 S
C3261 C3260 1.349 . S
C3261 C3277 1.349 . S
C3262 C3260 1.327 . S
C3262 C3281 1.429 . S
C3262 H3286 0.950 . S
C3263 C3280 1.574 . S
C3263 C3282 1.368 . S
C3263 H3287 0.949 . S
H3264 C3268 0.949 . S
C3265 C3266 1.349 . S
C3265 C3267 1.327 . S
C3265 H3288 0.950 . S
C3266 C3265 1.349 . S
C3266 C3278 1.349 . S
C3267 C3265 1.327 . S
C3267 C3283 1.429 . S
C3267 H3289 0.950 . S
C3268 H3264 0.949 . S
C3268 C3276 1.574 . S
C3268 C3284 1.368 . S
H3269 C3277 0.950 . S
H3270 C3275 0.950 . S
H3271 C3276 0.949 . S
H3272 C3278 0.950 . S
H3273 C3279 0.950 . S
H3274 C3280 0.949 . S
C3275 H3270 0.950 . S
C3275 C3277 1.327 . S
C3275 C3281 1.429 . S
C3276 C3268 1.574 . S
C3276 H3271 0.949 . S
C3276 C3282 1.368 . S
C3277 C3261 1.349 . S
C3277 H3269 0.950 . S
C3277 C3275 1.327 . S
C3278 C3266 1.349 . S
C3278 H3272 0.950 . S
C3278 C3279 1.327 . S
C3279 H3273 0.950 . S
C3279 C3278 1.327 . S
C3279 C3283 1.429 . S
C3280 C3263 1.574 . S
C3280 H3274 0.949 . S
C3280 C3284 1.368 . S
C3281 C3262 1.429 . S
C3281 C3275 1.429 . S
C3281 C3282 1.523 . S
C3282 C3263 1.368 . S
C3282 C3276 1.368 . S
C3282 C3281 1.523 . S
C3283 C3267 1.429 . S
C3283 C3279 1.429 . S
C3283 C3284 1.523 . S
C3284 C3268 1.368 . S
C3284 C3280 1.368 . S
C3284 C3283 1.523 . S
H3285 C3260 0.950 1_554 S
H3286 C3262 0.950 . S
H3287 C3263 0.949 . S
H3288 C3265 0.950 . S
H3289 C3267 0.950 . S
C3290 C3291 1.349 . S
C3290 C3292 1.327 . S
C3290 H3315 0.950 . S
C3291 C3290 1.349 . S
C3291 C3307 1.349 . S
C3292 C3290 1.327 . S
C3292 C3311 1.429 . S
C3292 H3316 0.950 . S
C3293 C3310 1.574 . S
C3293 C3312 1.368 . S
C3293 H3317 0.949 . S
H3294 C3298 0.949 . S
C3295 C3296 1.349 . S
C3295 C3297 1.327 . S
C3295 H3318 0.950 . S
C3296 C3295 1.349 . S
C3296 C3308 1.349 . S
C3297 C3295 1.327 . S
C3297 C3313 1.429 . S
C3297 H3319 0.950 . S
C3298 H3294 0.949 . S
C3298 C3306 1.574 . S
C3298 C3314 1.368 . S
H3299 C3307 0.950 . S
H3300 C3305 0.950 . S
H3301 C3306 0.949 . S
H3302 C3308 0.950 1_554 S
H3303 C3309 0.950 . S
H3304 C3310 0.949 . S
C3305 H3300 0.950 . S
C3305 C3307 1.327 . S
C3305 C3311 1.429 . S
C3306 C3298 1.574 . S
C3306 H3301 0.949 . S
C3306 C3312 1.368 . S
C3307 C3291 1.349 . S
C3307 H3299 0.950 . S
C3307 C3305 1.327 . S
C3308 C3296 1.349 . S
C3308 H3302 0.950 1_556 S
C3308 C3309 1.327 . S
C3309 H3303 0.950 . S
C3309 C3308 1.327 . S
C3309 C3313 1.429 . S
C3310 C3293 1.574 . S
C3310 H3304 0.949 . S
C3310 C3314 1.368 . S
C3311 C3292 1.429 . S
C3311 C3305 1.429 . S
C3311 C3312 1.523 . S
C3312 C3293 1.368 . S
C3312 C3306 1.368 . S
C3312 C3311 1.523 . S
C3313 C3297 1.429 . S
C3313 C3309 1.429 . S
C3313 C3314 1.523 . S
C3314 C3298 1.368 . S
C3314 C3310 1.368 . S
C3314 C3313 1.523 . S
H3315 C3290 0.950 . S
H3316 C3292 0.950 . S
H3317 C3293 0.949 . S
H3318 C3295 0.950 . S
H3319 C3297 0.950 . S
C3320 C3321 1.349 . S
C3320 C3322 1.327 . S
C3320 H3345 0.950 . S
C3321 C3320 1.349 . S
C3321 C3337 1.349 . S
C3322 C3320 1.327 . S
C3322 C3341 1.429 . S
C3322 H3346 0.950 . S
C3323 C3340 1.574 . S
C3323 C3342 1.368 . S
C3323 H3347 0.949 . S
H3324 C3328 0.949 . S
C3325 C3326 1.349 . S
C3325 C3327 1.327 . S
C3325 H3348 0.950 . S
C3326 C3325 1.349 . S
C3326 C3338 1.349 . S
C3327 C3325 1.327 . S
C3327 C3343 1.429 . S
C3327 H3349 0.950 . S
C3328 H3324 0.949 . S
C3328 C3336 1.574 . S
C3328 C3344 1.368 . S
H3329 C3337 0.950 . S
H3330 C3335 0.950 . S
H3331 C3336 0.949 . S
H3332 C3338 0.950 . S
H3333 C3339 0.950 . S
H3334 C3340 0.949 . S
C3335 H3330 0.950 . S
C3335 C3337 1.327 . S
C3335 C3341 1.429 . S
C3336 C3328 1.574 . S
C3336 H3331 0.949 . S
C3336 C3342 1.368 . S
C3337 C3321 1.349 . S
C3337 H3329 0.950 . S
C3337 C3335 1.327 . S
C3338 C3326 1.349 . S
C3338 H3332 0.950 . S
C3338 C3339 1.327 . S
C3339 H3333 0.950 . S
C3339 C3338 1.327 . S
C3339 C3343 1.429 . S
C3340 C3323 1.574 . S
C3340 H3334 0.949 . S
C3340 C3344 1.368 . S
C3341 C3322 1.429 . S
C3341 C3335 1.429 . S
C3341 C3342 1.523 . S
C3342 C3323 1.368 . S
C3342 C3336 1.368 . S
C3342 C3341 1.523 . S
C3343 C3327 1.429 . S
C3343 C3339 1.429 . S
C3343 C3344 1.523 . S
C3344 C3328 1.368 . S
C3344 C3340 1.368 . S
C3344 C3343 1.523 . S
H3345 C3320 0.950 . S
H3346 C3322 0.950 . S
H3347 C3323 0.949 . S
H3348 C3325 0.950 . S
H3349 C3327 0.950 . S
C3350 C3351 1.349 . S
C3350 C3352 1.327 . S
C3350 H3375 0.950 . S
C3351 C3350 1.349 . S
C3351 C3367 1.349 . S
C3352 C3350 1.327 . S
C3352 C3371 1.429 . S
C3352 H3376 0.950 . S
C3353 C3370 1.574 . S
C3353 C3372 1.368 . S
C3353 H3377 0.949 . S
H3354 C3358 0.949 . S
C3355 C3356 1.349 . S
C3355 C3357 1.327 . S
C3355 H3378 0.950 . S
C3356 C3355 1.349 . S
C3356 C3368 1.349 . S
C3357 C3355 1.327 . S
C3357 C3373 1.429 . S
C3357 H3379 0.950 . S
C3358 H3354 0.949 . S
C3358 C3366 1.574 . S
C3358 C3374 1.368 . S
H3359 C3367 0.950 . S
H3360 C3365 0.950 . S
H3361 C3366 0.949 . S
H3362 C3368 0.950 . S
H3363 C3369 0.950 . S
H3364 C3370 0.949 . S
C3365 H3360 0.950 . S
C3365 C3367 1.327 . S
C3365 C3371 1.429 . S
C3366 C3358 1.574 . S
C3366 H3361 0.949 . S
C3366 C3372 1.368 . S
C3367 C3351 1.349 . S
C3367 H3359 0.950 . S
C3367 C3365 1.327 . S
C3368 C3356 1.349 . S
C3368 H3362 0.950 . S
C3368 C3369 1.327 . S
C3369 H3363 0.950 . S
C3369 C3368 1.327 . S
C3369 C3373 1.429 . S
C3370 C3353 1.574 . S
C3370 H3364 0.949 . S
C3370 C3374 1.368 . S
C3371 C3352 1.429 . S
C3371 C3365 1.429 . S
C3371 C3372 1.523 . S
C3372 C3353 1.368 . S
C3372 C3366 1.368 . S
C3372 C3371 1.523 . S
C3373 C3357 1.429 . S
C3373 C3369 1.429 . S
C3373 C3374 1.523 . S
C3374 C3358 1.368 . S
C3374 C3370 1.368 . S
C3374 C3373 1.523 . S
H3375 C3350 0.950 . S
H3376 C3352 0.950 . S
H3377 C3353 0.949 . S
H3378 C3355 0.950 . S
H3379 C3357 0.950 . S
C3380 C3381 1.349 . S
C3380 C3382 1.327 . S
C3380 H3405 0.950 . S
C3381 C3380 1.349 . S
C3381 C3397 1.349 . S
C3382 C3380 1.327 . S
C3382 C3401 1.429 . S
C3382 H3406 0.950 . S
C3383 C3400 1.574 . S
C3383 C3402 1.368 . S
C3383 H3407 0.949 . S
H3384 C3388 0.949 . S
C3385 C3386 1.349 . S
C3385 C3387 1.327 . S
C3385 H3408 0.950 . S
C3386 C3385 1.349 . S
C3386 C3398 1.349 . S
C3387 C3385 1.327 . S
C3387 C3403 1.429 . S
C3387 H3409 0.950 . S
C3388 H3384 0.949 . S
C3388 C3396 1.574 . S
C3388 C3404 1.368 . S
H3389 C3397 0.950 1_556 S
H3390 C3395 0.950 . S
H3391 C3396 0.949 . S
H3392 C3398 0.950 . S
H3393 C3399 0.950 . S
H3394 C3400 0.949 . S
C3395 H3390 0.950 . S
C3395 C3397 1.327 . S
C3395 C3401 1.429 . S
C3396 C3388 1.574 . S
C3396 H3391 0.949 . S
C3396 C3402 1.368 . S
C3397 C3381 1.349 . S
C3397 H3389 0.950 1_554 S
C3397 C3395 1.327 . S
C3398 C3386 1.349 . S
C3398 H3392 0.950 . S
C3398 C3399 1.327 . S
C3399 H3393 0.950 . S
C3399 C3398 1.327 . S
C3399 C3403 1.429 . S
C3400 C3383 1.574 . S
C3400 H3394 0.949 . S
C3400 C3404 1.368 . S
C3401 C3382 1.429 . S
C3401 C3395 1.429 . S
C3401 C3402 1.523 . S
C3402 C3383 1.368 . S
C3402 C3396 1.368 . S
C3402 C3401 1.523 . S
C3403 C3387 1.429 . S
C3403 C3399 1.429 . S
C3403 C3404 1.523 . S
C3404 C3388 1.368 . S
C3404 C3400 1.368 . S
C3404 C3403 1.523 . S
H3405 C3380 0.950 . S
H3406 C3382 0.950 . S
H3407 C3383 0.949 . S
H3408 C3385 0.950 . S
H3409 C3387 0.950 . S
C3410 C3411 1.349 . S
C3410 C3412 1.327 . S
C3410 H3435 0.950 1_554 S
C3411 C3410 1.349 . S
C3411 C3427 1.349 . S
C3412 C3410 1.327 . S
C3412 C3431 1.429 . S
C3412 H3436 0.950 . S
C3413 C3430 1.574 . S
C3413 C3432 1.368 . S
C3413 H3437 0.949 . S
H3414 C3418 0.949 . S
C3415 C3416 1.349 . S
C3415 C3417 1.327 . S
C3415 H3438 0.950 . S
C3416 C3415 1.349 . S
C3416 C3428 1.349 . S
C3417 C3415 1.327 . S
C3417 C3433 1.429 . S
C3417 H3439 0.950 . S
C3418 H3414 0.949 . S
C3418 C3426 1.574 . S
C3418 C3434 1.368 . S
H3419 C3427 0.950 . S
H3420 C3425 0.950 . S
H3421 C3426 0.949 . S
H3422 C3428 0.950 . S
H3423 C3429 0.950 . S
H3424 C3430 0.949 . S
C3425 H3420 0.950 . S
C3425 C3427 1.327 . S
C3425 C3431 1.429 . S
C3426 C3418 1.574 . S
C3426 H3421 0.949 . S
C3426 C3432 1.368 . S
C3427 C3411 1.349 . S
C3427 H3419 0.950 . S
C3427 C3425 1.327 . S
C3428 C3416 1.349 . S
C3428 H3422 0.950 . S
C3428 C3429 1.327 . S
C3429 H3423 0.950 . S
C3429 C3428 1.327 . S
C3429 C3433 1.429 . S
C3430 C3413 1.574 . S
C3430 H3424 0.949 . S
C3430 C3434 1.368 . S
C3431 C3412 1.429 . S
C3431 C3425 1.429 . S
C3431 C3432 1.523 . S
C3432 C3413 1.368 . S
C3432 C3426 1.368 . S
C3432 C3431 1.523 . S
C3433 C3417 1.429 . S
C3433 C3429 1.429 . S
C3433 C3434 1.523 . S
C3434 C3418 1.368 . S
C3434 C3430 1.368 . S
C3434 C3433 1.523 . S
H3435 C3410 0.950 1_556 S
H3436 C3412 0.950 . S
H3437 C3413 0.949 . S
H3438 C3415 0.950 . S
H3439 C3417 0.950 . S
C3440 C3441 1.349 . S
C3440 C3442 1.327 . S
C3440 H3465 0.950 . S
C3441 C3440 1.349 . S
C3441 C3457 1.349 . S
C3442 C3440 1.327 . S
C3442 C3461 1.429 . S
C3442 H3466 0.950 . S
C3443 C3460 1.574 . S
C3443 C3462 1.368 . S
C3443 H3467 0.949 . S
H3444 C3448 0.949 . S
C3445 C3446 1.349 . S
C3445 C3447 1.327 . S
C3445 H3468 0.950 . S
C3446 C3445 1.349 . S
C3446 C3458 1.349 . S
C3447 C3445 1.327 . S
C3447 C3463 1.429 . S
C3447 H3469 0.950 . S
C3448 H3444 0.949 . S
C3448 C3456 1.574 . S
C3448 C3464 1.368 . S
H3449 C3457 0.950 1_554 S
H3450 C3455 0.950 . S
H3451 C3456 0.949 . S
H3452 C3458 0.950 . S
H3453 C3459 0.950 . S
H3454 C3460 0.949 . S
C3455 H3450 0.950 . S
C3455 C3457 1.327 . S
C3455 C3461 1.429 . S
C3456 C3448 1.574 . S
C3456 H3451 0.949 . S
C3456 C3462 1.368 . S
C3457 C3441 1.349 . S
C3457 H3449 0.950 1_556 S
C3457 C3455 1.327 . S
C3458 C3446 1.349 . S
C3458 H3452 0.950 . S
C3458 C3459 1.327 . S
C3459 H3453 0.950 . S
C3459 C3458 1.327 . S
C3459 C3463 1.429 . S
C3460 C3443 1.574 . S
C3460 H3454 0.949 . S
C3460 C3464 1.368 . S
C3461 C3442 1.429 . S
C3461 C3455 1.429 . S
C3461 C3462 1.523 . S
C3462 C3443 1.368 . S
C3462 C3456 1.368 . S
C3462 C3461 1.523 . S
C3463 C3447 1.429 . S
C3463 C3459 1.429 . S
C3463 C3464 1.523 . S
C3464 C3448 1.368 . S
C3464 C3460 1.368 . S
C3464 C3463 1.523 . S
H3465 C3440 0.950 . S
H3466 C3442 0.950 . S
H3467 C3443 0.949 . S
H3468 C3445 0.950 . S
H3469 C3447 0.950 . S
C3470 C3471 1.349 . S
C3470 C3472 1.327 . S
C3470 H3495 0.950 . S
C3471 C3470 1.349 . S
C3471 C3487 1.349 . S
C3472 C3470 1.327 . S
C3472 C3491 1.429 . S
C3472 H3496 0.950 . S
C3473 C3490 1.574 . S
C3473 C3492 1.368 . S
C3473 H3497 0.949 . S
H3474 C3478 0.949 . S
C3475 C3476 1.349 . S
C3475 C3477 1.327 . S
C3475 H3498 0.950 . S
C3476 C3475 1.349 . S
C3476 C3488 1.349 . S
C3477 C3475 1.327 . S
C3477 C3493 1.429 . S
C3477 H3499 0.950 . S
C3478 H3474 0.949 . S
C3478 C3486 1.574 . S
C3478 C3494 1.368 . S
H3479 C3487 0.950 . S
H3480 C3485 0.950 . S
H3481 C3486 0.949 . S
H3482 C3488 0.950 1_554 S
H3483 C3489 0.950 . S
H3484 C3490 0.949 . S
C3485 H3480 0.950 . S
C3485 C3487 1.327 . S
C3485 C3491 1.429 . S
C3486 C3478 1.574 . S
C3486 H3481 0.949 . S
C3486 C3492 1.368 . S
C3487 C3471 1.349 . S
C3487 H3479 0.950 . S
C3487 C3485 1.327 . S
C3488 C3476 1.349 . S
C3488 H3482 0.950 1_556 S
C3488 C3489 1.327 . S
C3489 H3483 0.950 . S
C3489 C3488 1.327 . S
C3489 C3493 1.429 . S
C3490 C3473 1.574 . S
C3490 H3484 0.949 . S
C3490 C3494 1.368 . S
C3491 C3472 1.429 . S
C3491 C3485 1.429 . S
C3491 C3492 1.523 . S
C3492 C3473 1.368 . S
C3492 C3486 1.368 . S
C3492 C3491 1.523 . S
C3493 C3477 1.429 . S
C3493 C3489 1.429 . S
C3493 C3494 1.523 . S
C3494 C3478 1.368 . S
C3494 C3490 1.368 . S
C3494 C3493 1.523 . S
H3495 C3470 0.950 . S
H3496 C3472 0.950 . S
H3497 C3473 0.949 . S
H3498 C3475 0.950 . S
H3499 C3477 0.950 . S
C3500 C3501 1.349 . S
C3500 C3502 1.327 . S
C3500 H3525 0.950 . S
C3501 C3500 1.349 . S
C3501 C3517 1.349 . S
C3502 C3500 1.327 . S
C3502 C3521 1.429 . S
C3502 H3526 0.950 . S
C3503 C3520 1.574 . S
C3503 C3522 1.368 . S
C3503 H3527 0.949 . S
H3504 C3508 0.949 . S
C3505 C3506 1.349 . S
C3505 C3507 1.327 . S
C3505 H3528 0.950 . S
C3506 C3505 1.349 . S
C3506 C3518 1.349 . S
C3507 C3505 1.327 . S
C3507 C3523 1.429 . S
C3507 H3529 0.950 . S
C3508 H3504 0.949 . S
C3508 C3516 1.574 . S
C3508 C3524 1.368 . S
H3509 C3517 0.950 . S
H3510 C3515 0.950 . S
H3511 C3516 0.949 . S
H3512 C3518 0.950 . S
H3513 C3519 0.950 . S
H3514 C3520 0.949 . S
C3515 H3510 0.950 . S
C3515 C3517 1.327 . S
C3515 C3521 1.429 . S
C3516 C3508 1.574 . S
C3516 H3511 0.949 . S
C3516 C3522 1.368 . S
C3517 C3501 1.349 . S
C3517 H3509 0.950 . S
C3517 C3515 1.327 . S
C3518 C3506 1.349 . S
C3518 H3512 0.950 . S
C3518 C3519 1.327 . S
C3519 H3513 0.950 . S
C3519 C3518 1.327 . S
C3519 C3523 1.429 . S
C3520 C3503 1.574 . S
C3520 H3514 0.949 . S
C3520 C3524 1.368 . S
C3521 C3502 1.429 . S
C3521 C3515 1.429 . S
C3521 C3522 1.523 . S
C3522 C3503 1.368 . S
C3522 C3516 1.368 . S
C3522 C3521 1.523 . S
C3523 C3507 1.429 . S
C3523 C3519 1.429 . S
C3523 C3524 1.523 . S
C3524 C3508 1.368 . S
C3524 C3520 1.368 . S
C3524 C3523 1.523 . S
H3525 C3500 0.950 . S
H3526 C3502 0.950 . S
H3527 C3503 0.949 . S
H3528 C3505 0.950 . S
H3529 C3507 0.950 . S
C3530 C3531 1.349 . S
C3530 C3532 1.327 . S
C3530 H3555 0.950 . S
C3531 C3530 1.349 . S
C3531 C3547 1.349 . S
C3532 C3530 1.327 . S
C3532 C3551 1.429 . S
C3532 H3556 0.950 . S
C3533 C3550 1.574 . S
C3533 C3552 1.368 . S
C3533 H3557 0.949 . S
H3534 C3538 0.949 . S
C3535 C3536 1.349 . S
C3535 C3537 1.327 . S
C3535 H3558 0.950 . S
C3536 C3535 1.349 . S
C3536 C3548 1.349 . S
C3537 C3535 1.327 . S
C3537 C3553 1.429 . S
C3537 H3559 0.950 . S
C3538 H3534 0.949 . S
C3538 C3546 1.574 . S
C3538 C3554 1.368 . S
H3539 C3547 0.950 . S
H3540 C3545 0.950 . S
H3541 C3546 0.949 . S
H3542 C3548 0.950 . S
H3543 C3549 0.950 . S
H3544 C3550 0.949 . S
C3545 H3540 0.950 . S
C3545 C3547 1.327 . S
C3545 C3551 1.429 . S
C3546 C3538 1.574 . S
C3546 H3541 0.949 . S
C3546 C3552 1.368 . S
C3547 C3531 1.349 . S
C3547 H3539 0.950 . S
C3547 C3545 1.327 . S
C3548 C3536 1.349 . S
C3548 H3542 0.950 . S
C3548 C3549 1.327 . S
C3549 H3543 0.950 . S
C3549 C3548 1.327 . S
C3549 C3553 1.429 . S
C3550 C3533 1.574 . S
C3550 H3544 0.949 . S
C3550 C3554 1.368 . S
C3551 C3532 1.429 . S
C3551 C3545 1.429 . S
C3551 C3552 1.523 . S
C3552 C3533 1.368 . S
C3552 C3546 1.368 . S
C3552 C3551 1.523 . S
C3553 C3537 1.429 . S
C3553 C3549 1.429 . S
C3553 C3554 1.523 . S
C3554 C3538 1.368 . S
C3554 C3550 1.368 . S
C3554 C3553 1.523 . S
H3555 C3530 0.950 . S
H3556 C3532 0.950 . S
H3557 C3533 0.949 . S
H3558 C3535 0.950 . S
H3559 C3537 0.950 . S
C3560 C3561 1.349 . S
C3560 C3562 1.327 . S
C3560 H3585 0.950 . S
C3561 C3560 1.349 . S
C3561 C3577 1.349 . S
C3562 C3560 1.327 . S
C3562 C3581 1.429 . S
C3562 H3586 0.950 . S
C3563 C3580 1.574 . S
C3563 C3582 1.368 . S
C3563 H3587 0.949 . S
H3564 C3568 0.949 . S
C3565 C3566 1.349 . S
C3565 C3567 1.327 . S
C3565 H3588 0.950 . S
C3566 C3565 1.349 . S
C3566 C3578 1.349 . S
C3567 C3565 1.327 . S
C3567 C3583 1.429 . S
C3567 H3589 0.950 . S
C3568 H3564 0.949 . S
C3568 C3576 1.574 . S
C3568 C3584 1.368 . S
H3569 C3577 0.950 . S
H3570 C3575 0.950 . S
H3571 C3576 0.949 . S
H3572 C3578 0.950 . S
H3573 C3579 0.950 . S
H3574 C3580 0.949 . S
C3575 H3570 0.950 . S
C3575 C3577 1.327 . S
C3575 C3581 1.429 . S
C3576 C3568 1.574 . S
C3576 H3571 0.949 . S
C3576 C3582 1.368 . S
C3577 C3561 1.349 . S
C3577 H3569 0.950 . S
C3577 C3575 1.327 . S
C3578 C3566 1.349 . S
C3578 H3572 0.950 . S
C3578 C3579 1.327 . S
C3579 H3573 0.950 . S
C3579 C3578 1.327 . S
C3579 C3583 1.429 . S
C3580 C3563 1.574 . S
C3580 H3574 0.949 . S
C3580 C3584 1.368 . S
C3581 C3562 1.429 . S
C3581 C3575 1.429 . S
C3581 C3582 1.523 . S
C3582 C3563 1.368 . S
C3582 C3576 1.368 . S
C3582 C3581 1.523 . S
C3583 C3567 1.429 . S
C3583 C3579 1.429 . S
C3583 C3584 1.523 . S
C3584 C3568 1.368 . S
C3584 C3580 1.368 . S
C3584 C3583 1.523 . S
H3585 C3560 0.950 . S
H3586 C3562 0.950 . S
H3587 C3563 0.949 . S
H3588 C3565 0.950 . S
H3589 C3567 0.950 . S
C3590 C3591 1.349 . S
C3590 C3592 1.327 . S
C3590 H3615 0.950 . S
C3591 C3590 1.349 . S
C3591 C3607 1.349 . S
C3592 C3590 1.327 . S
C3592 C3611 1.429 . S
C3592 H3616 0.950 . S
C3593 C3610 1.574 . S
C3593 C3612 1.368 . S
C3593 H3617 0.949 . S
H3594 C3598 0.949 . S
C3595 C3596 1.349 . S
C3595 C3597 1.327 . S
C3595 H3618 0.950 . S
C3596 C3595 1.349 . S
C3596 C3608 1.349 . S
C3597 C3595 1.327 . S
C3597 C3613 1.429 . S
C3597 H3619 0.950 . S
C3598 H3594 0.949 . S
C3598 C3606 1.574 . S
C3598 C3614 1.368 . S
H3599 C3607 0.950 . S
H3600 C3605 0.950 . S
H3601 C3606 0.949 . S
H3602 C3608 0.950 1_556 S
H3603 C3609 0.950 . S
H3604 C3610 0.949 . S
C3605 H3600 0.950 . S
C3605 C3607 1.327 . S
C3605 C3611 1.429 . S
C3606 C3598 1.574 . S
C3606 H3601 0.949 . S
C3606 C3612 1.368 . S
C3607 C3591 1.349 . S
C3607 H3599 0.950 . S
C3607 C3605 1.327 . S
C3608 C3596 1.349 . S
C3608 H3602 0.950 1_554 S
C3608 C3609 1.327 . S
C3609 H3603 0.950 . S
C3609 C3608 1.327 . S
C3609 C3613 1.429 . S
C3610 C3593 1.574 . S
C3610 H3604 0.949 . S
C3610 C3614 1.368 . S
C3611 C3592 1.429 . S
C3611 C3605 1.429 . S
C3611 C3612 1.523 . S
C3612 C3593 1.368 . S
C3612 C3606 1.368 . S
C3612 C3611 1.523 . S
C3613 C3597 1.429 . S
C3613 C3609 1.429 . S
C3613 C3614 1.523 . S
C3614 C3598 1.368 . S
C3614 C3610 1.368 . S
C3614 C3613 1.523 . S
H3615 C3590 0.950 . S
H3616 C3592 0.950 . S
H3617 C3593 0.949 . S
H3618 C3595 0.950 . S
H3619 C3597 0.950 . S
C3620 C3621 1.349 . S
C3620 C3622 1.327 . S
C3620 H3645 0.950 . S
C3621 C3620 1.349 . S
C3621 C3637 1.349 . S
C3622 C3620 1.327 . S
C3622 C3641 1.429 . S
C3622 H3646 0.950 . S
C3623 C3640 1.574 . S
C3623 C3642 1.368 . S
C3623 H3647 0.949 . S
H3624 C3628 0.949 . S
C3625 C3626 1.349 . S
C3625 C3627 1.327 . S
C3625 H3648 0.950 . S
C3626 C3625 1.349 . S
C3626 C3638 1.349 . S
C3627 C3625 1.327 . S
C3627 C3643 1.429 . S
C3627 H3649 0.950 . S
C3628 H3624 0.949 . S
C3628 C3636 1.574 . S
C3628 C3644 1.368 . S
H3629 C3637 0.950 . S
H3630 C3635 0.950 . S
H3631 C3636 0.949 . S
H3632 C3638 0.950 . S
H3633 C3639 0.950 . S
H3634 C3640 0.949 . S
C3635 H3630 0.950 . S
C3635 C3637 1.327 . S
C3635 C3641 1.429 . S
C3636 C3628 1.574 . S
C3636 H3631 0.949 . S
C3636 C3642 1.368 . S
C3637 C3621 1.349 . S
C3637 H3629 0.950 . S
C3637 C3635 1.327 . S
C3638 C3626 1.349 . S
C3638 H3632 0.950 . S
C3638 C3639 1.327 . S
C3639 H3633 0.950 . S
C3639 C3638 1.327 . S
C3639 C3643 1.429 . S
C3640 C3623 1.574 . S
C3640 H3634 0.949 . S
C3640 C3644 1.368 . S
C3641 C3622 1.429 . S
C3641 C3635 1.429 . S
C3641 C3642 1.523 . S
C3642 C3623 1.368 . S
C3642 C3636 1.368 . S
C3642 C3641 1.523 . S
C3643 C3627 1.429 . S
C3643 C3639 1.429 . S
C3643 C3644 1.523 . S
C3644 C3628 1.368 . S
C3644 C3640 1.368 . S
C3644 C3643 1.523 . S
H3645 C3620 0.950 . S
H3646 C3622 0.950 . S
H3647 C3623 0.949 . S
H3648 C3625 0.950 . S
H3649 C3627 0.950 . S
C3650 C3651 1.349 . S
C3650 C3652 1.327 . S
C3650 H3675 0.950 . S
C3651 C3650 1.349 . S
C3651 C3667 1.349 . S
C3652 C3650 1.327 . S
C3652 C3671 1.429 . S
C3652 H3676 0.950 . S
C3653 C3670 1.574 . S
C3653 C3672 1.368 . S
C3653 H3677 0.949 . S
H3654 C3658 0.949 . S
C3655 C3656 1.349 . S
C3655 C3657 1.327 . S
C3655 H3678 0.950 . S
C3656 C3655 1.349 . S
C3656 C3668 1.349 . S
C3657 C3655 1.327 . S
C3657 C3673 1.429 . S
C3657 H3679 0.950 . S
C3658 H3654 0.949 . S
C3658 C3666 1.574 . S
C3658 C3674 1.368 . S
H3659 C3667 0.950 . S
H3660 C3665 0.950 . S
H3661 C3666 0.949 . S
H3662 C3668 0.950 . S
H3663 C3669 0.950 . S
H3664 C3670 0.949 . S
C3665 H3660 0.950 . S
C3665 C3667 1.327 . S
C3665 C3671 1.429 . S
C3666 C3658 1.574 . S
C3666 H3661 0.949 . S
C3666 C3672 1.368 . S
C3667 C3651 1.349 . S
C3667 H3659 0.950 . S
C3667 C3665 1.327 . S
C3668 C3656 1.349 . S
C3668 H3662 0.950 . S
C3668 C3669 1.327 . S
C3669 H3663 0.950 . S
C3669 C3668 1.327 . S
C3669 C3673 1.429 . S
C3670 C3653 1.574 . S
C3670 H3664 0.949 . S
C3670 C3674 1.368 . S
C3671 C3652 1.429 . S
C3671 C3665 1.429 . S
C3671 C3672 1.523 . S
C3672 C3653 1.368 . S
C3672 C3666 1.368 . S
C3672 C3671 1.523 . S
C3673 C3657 1.429 . S
C3673 C3669 1.429 . S
C3673 C3674 1.523 . S
C3674 C3658 1.368 . S
C3674 C3670 1.368 . S
C3674 C3673 1.523 . S
H3675 C3650 0.950 . S
H3676 C3652 0.950 . S
H3677 C3653 0.949 . S
H3678 C3655 0.950 . S
H3679 C3657 0.950 . S
C3680 C3681 1.349 . S
C3680 C3682 1.327 . S
C3680 H3705 0.950 . S
C3681 C3680 1.349 . S
C3681 C3697 1.349 . S
C3682 C3680 1.327 . S
C3682 C3701 1.429 . S
C3682 H3706 0.950 . S
C3683 C3700 1.574 . S
C3683 C3702 1.368 . S
C3683 H3707 0.949 . S
H3684 C3688 0.949 . S
C3685 C3686 1.349 . S
C3685 C3687 1.327 . S
C3685 H3708 0.950 . S
C3686 C3685 1.349 . S
C3686 C3698 1.349 . S
C3687 C3685 1.327 . S
C3687 C3703 1.429 . S
C3687 H3709 0.950 . S
C3688 H3684 0.949 . S
C3688 C3696 1.574 . S
C3688 C3704 1.368 . S
H3689 C3697 0.950 . S
H3690 C3695 0.950 . S
H3691 C3696 0.949 . S
H3692 C3698 0.950 . S
H3693 C3699 0.950 . S
H3694 C3700 0.949 . S
C3695 H3690 0.950 . S
C3695 C3697 1.327 . S
C3695 C3701 1.429 . S
C3696 C3688 1.574 . S
C3696 H3691 0.949 . S
C3696 C3702 1.368 . S
C3697 C3681 1.349 . S
C3697 H3689 0.950 . S
C3697 C3695 1.327 . S
C3698 C3686 1.349 . S
C3698 H3692 0.950 . S
C3698 C3699 1.327 . S
C3699 H3693 0.950 . S
C3699 C3698 1.327 . S
C3699 C3703 1.429 . S
C3700 C3683 1.574 . S
C3700 H3694 0.949 . S
C3700 C3704 1.368 . S
C3701 C3682 1.429 . S
C3701 C3695 1.429 . S
C3701 C3702 1.523 . S
C3702 C3683 1.368 . S
C3702 C3696 1.368 . S
C3702 C3701 1.523 . S
C3703 C3687 1.429 . S
C3703 C3699 1.429 . S
C3703 C3704 1.523 . S
C3704 C3688 1.368 . S
C3704 C3700 1.368 . S
C3704 C3703 1.523 . S
H3705 C3680 0.950 . S
H3706 C3682 0.950 . S
H3707 C3683 0.949 . S
H3708 C3685 0.950 . S
H3709 C3687 0.950 . S
C3710 C3711 1.349 . S
C3710 C3712 1.327 . S
C3710 H3735 0.950 . S
C3711 C3710 1.349 . S
C3711 C3727 1.349 . S
C3712 C3710 1.327 . S
C3712 C3731 1.429 . S
C3712 H3736 0.950 . S
C3713 C3730 1.574 . S
C3713 C3732 1.368 . S
C3713 H3737 0.949 . S
H3714 C3718 0.949 . S
C3715 C3716 1.349 . S
C3715 C3717 1.327 . S
C3715 H3738 0.950 . S
C3716 C3715 1.349 . S
C3716 C3728 1.349 . S
C3717 C3715 1.327 . S
C3717 C3733 1.429 . S
C3717 H3739 0.950 . S
C3718 H3714 0.949 . S
C3718 C3726 1.574 . S
C3718 C3734 1.368 . S
H3719 C3727 0.950 . S
H3720 C3725 0.950 . S
H3721 C3726 0.949 . S
H3722 C3728 0.950 . S
H3723 C3729 0.950 . S
H3724 C3730 0.949 . S
C3725 H3720 0.950 . S
C3725 C3727 1.327 . S
C3725 C3731 1.429 . S
C3726 C3718 1.574 . S
C3726 H3721 0.949 . S
C3726 C3732 1.368 . S
C3727 C3711 1.349 . S
C3727 H3719 0.950 . S
C3727 C3725 1.327 . S
C3728 C3716 1.349 . S
C3728 H3722 0.950 . S
C3728 C3729 1.327 . S
C3729 H3723 0.950 . S
C3729 C3728 1.327 . S
C3729 C3733 1.429 . S
C3730 C3713 1.574 . S
C3730 H3724 0.949 . S
C3730 C3734 1.368 . S
C3731 C3712 1.429 . S
C3731 C3725 1.429 . S
C3731 C3732 1.523 . S
C3732 C3713 1.368 . S
C3732 C3726 1.368 . S
C3732 C3731 1.523 . S
C3733 C3717 1.429 . S
C3733 C3729 1.429 . S
C3733 C3734 1.523 . S
C3734 C3718 1.368 . S
C3734 C3730 1.368 . S
C3734 C3733 1.523 . S
H3735 C3710 0.950 . S
H3736 C3712 0.950 . S
H3737 C3713 0.949 . S
H3738 C3715 0.950 . S
H3739 C3717 0.950 . S
C3740 C3741 1.349 . S
C3740 C3742 1.327 . S
C3740 H3765 0.950 . S
C3741 C3740 1.349 . S
C3741 C3757 1.349 . S
C3742 C3740 1.327 . S
C3742 C3761 1.429 . S
C3742 H3766 0.950 . S
C3743 C3760 1.574 . S
C3743 C3762 1.368 . S
C3743 H3767 0.949 . S
H3744 C3748 0.949 . S
C3745 C3746 1.349 . S
C3745 C3747 1.327 . S
C3745 H3768 0.950 . S
C3746 C3745 1.349 . S
C3746 C3758 1.349 . S
C3747 C3745 1.327 . S
C3747 C3763 1.429 . S
C3747 H3769 0.950 . S
C3748 H3744 0.949 . S
C3748 C3756 1.574 . S
C3748 C3764 1.368 . S
H3749 C3757 0.950 . S
H3750 C3755 0.950 . S
H3751 C3756 0.949 . S
H3752 C3758 0.950 . S
H3753 C3759 0.950 . S
H3754 C3760 0.949 . S
C3755 H3750 0.950 . S
C3755 C3757 1.327 . S
C3755 C3761 1.429 . S
C3756 C3748 1.574 . S
C3756 H3751 0.949 . S
C3756 C3762 1.368 . S
C3757 C3741 1.349 . S
C3757 H3749 0.950 . S
C3757 C3755 1.327 . S
C3758 C3746 1.349 . S
C3758 H3752 0.950 . S
C3758 C3759 1.327 . S
C3759 H3753 0.950 . S
C3759 C3758 1.327 . S
C3759 C3763 1.429 . S
C3760 C3743 1.574 . S
C3760 H3754 0.949 . S
C3760 C3764 1.368 . S
C3761 C3742 1.429 . S
C3761 C3755 1.429 . S
C3761 C3762 1.523 . S
C3762 C3743 1.368 . S
C3762 C3756 1.368 . S
C3762 C3761 1.523 . S
C3763 C3747 1.429 . S
C3763 C3759 1.429 . S
C3763 C3764 1.523 . S
C3764 C3748 1.368 . S
C3764 C3760 1.368 . S
C3764 C3763 1.523 . S
H3765 C3740 0.950 . S
H3766 C3742 0.950 . S
H3767 C3743 0.949 . S
H3768 C3745 0.950 . S
H3769 C3747 0.950 . S
C3770 C3771 1.349 . S
C3770 C3772 1.327 . S
C3770 H3795 0.950 . S
C3771 C3770 1.349 . S
C3771 C3787 1.349 . S
C3772 C3770 1.327 . S
C3772 C3791 1.429 . S
C3772 H3796 0.950 . S
C3773 C3790 1.574 . S
C3773 C3792 1.368 . S
C3773 H3797 0.949 . S
H3774 C3778 0.949 . S
C3775 C3776 1.349 . S
C3775 C3777 1.327 . S
C3775 H3798 0.950 . S
C3776 C3775 1.349 . S
C3776 C3788 1.349 . S
C3777 C3775 1.327 . S
C3777 C3793 1.429 . S
C3777 H3799 0.950 . S
C3778 H3774 0.949 . S
C3778 C3786 1.574 . S
C3778 C3794 1.368 . S
H3779 C3787 0.950 . S
H3780 C3785 0.950 . S
H3781 C3786 0.949 . S
H3782 C3788 0.950 . S
H3783 C3789 0.950 . S
H3784 C3790 0.949 . S
C3785 H3780 0.950 . S
C3785 C3787 1.327 . S
C3785 C3791 1.429 . S
C3786 C3778 1.574 . S
C3786 H3781 0.949 . S
C3786 C3792 1.368 . S
C3787 C3771 1.349 . S
C3787 H3779 0.950 . S
C3787 C3785 1.327 . S
C3788 C3776 1.349 . S
C3788 H3782 0.950 . S
C3788 C3789 1.327 . S
C3789 H3783 0.950 . S
C3789 C3788 1.327 . S
C3789 C3793 1.429 . S
C3790 C3773 1.574 . S
C3790 H3784 0.949 . S
C3790 C3794 1.368 . S
C3791 C3772 1.429 . S
C3791 C3785 1.429 . S
C3791 C3792 1.523 . S
C3792 C3773 1.368 . S
C3792 C3786 1.368 . S
C3792 C3791 1.523 . S
C3793 C3777 1.429 . S
C3793 C3789 1.429 . S
C3793 C3794 1.523 . S
C3794 C3778 1.368 . S
C3794 C3790 1.368 . S
C3794 C3793 1.523 . S
H3795 C3770 0.950 . S
H3796 C3772 0.950 . S
H3797 C3773 0.949 . S
H3798 C3775 0.950 . S
H3799 C3777 0.950 . S
C3800 C3801 1.349 . S
C3800 C3802 1.327 . S
C3800 H3825 0.950 . S
C3801 C3800 1.349 . S
C3801 C3817 1.349 . S
C3802 C3800 1.327 . S
C3802 C3821 1.429 . S
C3802 H3826 0.950 . S
C3803 C3820 1.574 . S
C3803 C3822 1.368 . S
C3803 H3827 0.949 . S
H3804 C3808 0.949 . S
C3805 C3806 1.349 . S
C3805 C3807 1.327 . S
C3805 H3828 0.950 . S
C3806 C3805 1.349 . S
C3806 C3818 1.349 . S
C3807 C3805 1.327 . S
C3807 C3823 1.429 . S
C3807 H3829 0.950 . S
C3808 H3804 0.949 . S
C3808 C3816 1.574 . S
C3808 C3824 1.368 . S
H3809 C3817 0.950 . S
H3810 C3815 0.950 . S
H3811 C3816 0.949 . S
H3812 C3818 0.950 . S
H3813 C3819 0.950 . S
H3814 C3820 0.949 . S
C3815 H3810 0.950 . S
C3815 C3817 1.327 . S
C3815 C3821 1.429 . S
C3816 C3808 1.574 . S
C3816 H3811 0.949 . S
C3816 C3822 1.368 . S
C3817 C3801 1.349 . S
C3817 H3809 0.950 . S
C3817 C3815 1.327 . S
C3818 C3806 1.349 . S
C3818 H3812 0.950 . S
C3818 C3819 1.327 . S
C3819 H3813 0.950 . S
C3819 C3818 1.327 . S
C3819 C3823 1.429 . S
C3820 C3803 1.574 . S
C3820 H3814 0.949 . S
C3820 C3824 1.368 . S
C3821 C3802 1.429 . S
C3821 C3815 1.429 . S
C3821 C3822 1.523 . S
C3822 C3803 1.368 . S
C3822 C3816 1.368 . S
C3822 C3821 1.523 . S
C3823 C3807 1.429 . S
C3823 C3819 1.429 . S
C3823 C3824 1.523 . S
C3824 C3808 1.368 . S
C3824 C3820 1.368 . S
C3824 C3823 1.523 . S
H3825 C3800 0.950 . S
H3826 C3802 0.950 . S
H3827 C3803 0.949 . S
H3828 C3805 0.950 . S
H3829 C3807 0.950 . S
C3830 C3831 1.349 . S
C3830 C3832 1.327 . S
C3830 H3855 0.950 . S
C3831 C3830 1.349 . S
C3831 C3847 1.349 . S
C3832 C3830 1.327 . S
C3832 C3851 1.429 . S
C3832 H3856 0.950 . S
C3833 C3850 1.574 . S
C3833 C3852 1.368 . S
C3833 H3857 0.949 . S
H3834 C3838 0.949 . S
C3835 C3836 1.349 . S
C3835 C3837 1.327 . S
C3835 H3858 0.950 . S
C3836 C3835 1.349 . S
C3836 C3848 1.349 . S
C3837 C3835 1.327 . S
C3837 C3853 1.429 . S
C3837 H3859 0.950 . S
C3838 H3834 0.949 . S
C3838 C3846 1.574 . S
C3838 C3854 1.368 . S
H3839 C3847 0.950 . S
H3840 C3845 0.950 . S
H3841 C3846 0.949 . S
H3842 C3848 0.950 . S
H3843 C3849 0.950 . S
H3844 C3850 0.949 . S
C3845 H3840 0.950 . S
C3845 C3847 1.327 . S
C3845 C3851 1.429 . S
C3846 C3838 1.574 . S
C3846 H3841 0.949 . S
C3846 C3852 1.368 . S
C3847 C3831 1.349 . S
C3847 H3839 0.950 . S
C3847 C3845 1.327 . S
C3848 C3836 1.349 . S
C3848 H3842 0.950 . S
C3848 C3849 1.327 . S
C3849 H3843 0.950 . S
C3849 C3848 1.327 . S
C3849 C3853 1.429 . S
C3850 C3833 1.574 . S
C3850 H3844 0.949 . S
C3850 C3854 1.368 . S
C3851 C3832 1.429 . S
C3851 C3845 1.429 . S
C3851 C3852 1.523 . S
C3852 C3833 1.368 . S
C3852 C3846 1.368 . S
C3852 C3851 1.523 . S
C3853 C3837 1.429 . S
C3853 C3849 1.429 . S
C3853 C3854 1.523 . S
C3854 C3838 1.368 . S
C3854 C3850 1.368 . S
C3854 C3853 1.523 . S
H3855 C3830 0.950 . S
H3856 C3832 0.950 . S
H3857 C3833 0.949 . S
H3858 C3835 0.950 . S
H3859 C3837 0.950 . S
C3860 C3861 1.349 . S
C3860 C3862 1.327 . S
C3860 H3885 0.950 . S
C3861 C3860 1.349 . S
C3861 C3877 1.349 . S
C3862 C3860 1.327 . S
C3862 C3881 1.429 . S
C3862 H3886 0.950 . S
C3863 C3880 1.574 . S
C3863 C3882 1.368 . S
C3863 H3887 0.949 . S
H3864 C3868 0.949 . S
C3865 C3866 1.349 . S
C3865 C3867 1.327 . S
C3865 H3888 0.950 . S
C3866 C3865 1.349 . S
C3866 C3878 1.349 . S
C3867 C3865 1.327 . S
C3867 C3883 1.429 . S
C3867 H3889 0.950 . S
C3868 H3864 0.949 . S
C3868 C3876 1.574 . S
C3868 C3884 1.368 . S
H3869 C3877 0.950 . S
H3870 C3875 0.950 . S
H3871 C3876 0.949 . S
H3872 C3878 0.950 . S
H3873 C3879 0.950 . S
H3874 C3880 0.949 . S
C3875 H3870 0.950 . S
C3875 C3877 1.327 . S
C3875 C3881 1.429 . S
C3876 C3868 1.574 . S
C3876 H3871 0.949 . S
C3876 C3882 1.368 . S
C3877 C3861 1.349 . S
C3877 H3869 0.950 . S
C3877 C3875 1.327 . S
C3878 C3866 1.349 . S
C3878 H3872 0.950 . S
C3878 C3879 1.327 . S
C3879 H3873 0.950 . S
C3879 C3878 1.327 . S
C3879 C3883 1.429 . S
C3880 C3863 1.574 . S
C3880 H3874 0.949 . S
C3880 C3884 1.368 . S
C3881 C3862 1.429 . S
C3881 C3875 1.429 . S
C3881 C3882 1.523 . S
C3882 C3863 1.368 . S
C3882 C3876 1.368 . S
C3882 C3881 1.523 . S
C3883 C3867 1.429 . S
C3883 C3879 1.429 . S
C3883 C3884 1.523 . S
C3884 C3868 1.368 . S
C3884 C3880 1.368 . S
C3884 C3883 1.523 . S
H3885 C3860 0.950 . S
H3886 C3862 0.950 . S
H3887 C3863 0.949 . S
H3888 C3865 0.950 . S
H3889 C3867 0.950 . S
C3890 C3891 1.349 . S
C3890 C3892 1.327 . S
C3890 H3915 0.950 . S
C3891 C3890 1.349 . S
C3891 C3907 1.349 . S
C3892 C3890 1.327 . S
C3892 C3911 1.429 . S
C3892 H3916 0.950 . S
C3893 C3910 1.574 . S
C3893 C3912 1.368 . S
C3893 H3917 0.949 . S
H3894 C3898 0.949 . S
C3895 C3896 1.349 . S
C3895 C3897 1.327 . S
C3895 H3918 0.950 . S
C3896 C3895 1.349 . S
C3896 C3908 1.349 . S
C3897 C3895 1.327 . S
C3897 C3913 1.429 . S
C3897 H3919 0.950 . S
C3898 H3894 0.949 . S
C3898 C3906 1.574 . S
C3898 C3914 1.368 . S
H3899 C3907 0.950 . S
H3900 C3905 0.950 . S
H3901 C3906 0.949 . S
H3902 C3908 0.950 . S
H3903 C3909 0.950 . S
H3904 C3910 0.949 . S
C3905 H3900 0.950 . S
C3905 C3907 1.327 . S
C3905 C3911 1.429 . S
C3906 C3898 1.574 . S
C3906 H3901 0.949 . S
C3906 C3912 1.368 . S
C3907 C3891 1.349 . S
C3907 H3899 0.950 . S
C3907 C3905 1.327 . S
C3908 C3896 1.349 . S
C3908 H3902 0.950 . S
C3908 C3909 1.327 . S
C3909 H3903 0.950 . S
C3909 C3908 1.327 . S
C3909 C3913 1.429 . S
C3910 C3893 1.574 . S
C3910 H3904 0.949 . S
C3910 C3914 1.368 . S
C3911 C3892 1.429 . S
C3911 C3905 1.429 . S
C3911 C3912 1.523 . S
C3912 C3893 1.368 . S
C3912 C3906 1.368 . S
C3912 C3911 1.523 . S
C3913 C3897 1.429 . S
C3913 C3909 1.429 . S
C3913 C3914 1.523 . S
C3914 C3898 1.368 . S
C3914 C3910 1.368 . S
C3914 C3913 1.523 . S
H3915 C3890 0.950 . S
H3916 C3892 0.950 . S
H3917 C3893 0.949 . S
H3918 C3895 0.950 . S
H3919 C3897 0.950 . S
C3920 C3921 1.349 . S
C3920 C3922 1.327 . S
C3920 H3945 0.950 . S
C3921 C3920 1.349 . S
C3921 C3937 1.349 . S
C3922 C3920 1.327 . S
C3922 C3941 1.429 . S
C3922 H3946 0.950 . S
C3923 C3940 1.574 . S
C3923 C3942 1.368 . S
C3923 H3947 0.949 . S
H3924 C3928 0.949 . S
C3925 C3926 1.349 . S
C3925 C3927 1.327 . S
C3925 H3948 0.950 . S
C3926 C3925 1.349 . S
C3926 C3938 1.349 . S
C3927 C3925 1.327 . S
C3927 C3943 1.429 . S
C3927 H3949 0.950 . S
C3928 H3924 0.949 . S
C3928 C3936 1.574 . S
C3928 C3944 1.368 . S
H3929 C3937 0.950 . S
H3930 C3935 0.950 . S
H3931 C3936 0.949 . S
H3932 C3938 0.950 . S
H3933 C3939 0.950 . S
H3934 C3940 0.949 . S
C3935 H3930 0.950 . S
C3935 C3937 1.327 . S
C3935 C3941 1.429 . S
C3936 C3928 1.574 . S
C3936 H3931 0.949 . S
C3936 C3942 1.368 . S
C3937 C3921 1.349 . S
C3937 H3929 0.950 . S
C3937 C3935 1.327 . S
C3938 C3926 1.349 . S
C3938 H3932 0.950 . S
C3938 C3939 1.327 . S
C3939 H3933 0.950 . S
C3939 C3938 1.327 . S
C3939 C3943 1.429 . S
C3940 C3923 1.574 . S
C3940 H3934 0.949 . S
C3940 C3944 1.368 . S
C3941 C3922 1.429 . S
C3941 C3935 1.429 . S
C3941 C3942 1.523 . S
C3942 C3923 1.368 . S
C3942 C3936 1.368 . S
C3942 C3941 1.523 . S
C3943 C3927 1.429 . S
C3943 C3939 1.429 . S
C3943 C3944 1.523 . S
C3944 C3928 1.368 . S
C3944 C3940 1.368 . S
C3944 C3943 1.523 . S
H3945 C3920 0.950 . S
H3946 C3922 0.950 . S
H3947 C3923 0.949 . S
H3948 C3925 0.950 . S
H3949 C3927 0.950 . S
C3950 C3951 1.349 . S
C3950 C3952 1.327 . S
C3950 H3975 0.950 . S
C3951 C3950 1.349 . S
C3951 C3967 1.349 . S
C3952 C3950 1.327 . S
C3952 C3971 1.429 . S
C3952 H3976 0.950 . S
C3953 C3970 1.574 . S
C3953 C3972 1.368 . S
C3953 H3977 0.949 . S
H3954 C3958 0.949 . S
C3955 C3956 1.349 . S
C3955 C3957 1.327 . S
C3955 H3978 0.950 . S
C3956 C3955 1.349 . S
C3956 C3968 1.349 . S
C3957 C3955 1.327 . S
C3957 C3973 1.429 . S
C3957 H3979 0.950 . S
C3958 H3954 0.949 . S
C3958 C3966 1.574 . S
C3958 C3974 1.368 . S
H3959 C3967 0.950 . S
H3960 C3965 0.950 . S
H3961 C3966 0.949 . S
H3962 C3968 0.950 . S
H3963 C3969 0.950 . S
H3964 C3970 0.949 . S
C3965 H3960 0.950 . S
C3965 C3967 1.327 . S
C3965 C3971 1.429 . S
C3966 C3958 1.574 . S
C3966 H3961 0.949 . S
C3966 C3972 1.368 . S
C3967 C3951 1.349 . S
C3967 H3959 0.950 . S
C3967 C3965 1.327 . S
C3968 C3956 1.349 . S
C3968 H3962 0.950 . S
C3968 C3969 1.327 . S
C3969 H3963 0.950 . S
C3969 C3968 1.327 . S
C3969 C3973 1.429 . S
C3970 C3953 1.574 . S
C3970 H3964 0.949 . S
C3970 C3974 1.368 . S
C3971 C3952 1.429 . S
C3971 C3965 1.429 . S
C3971 C3972 1.523 . S
C3972 C3953 1.368 . S
C3972 C3966 1.368 . S
C3972 C3971 1.523 . S
C3973 C3957 1.429 . S
C3973 C3969 1.429 . S
C3973 C3974 1.523 . S
C3974 C3958 1.368 . S
C3974 C3970 1.368 . S
C3974 C3973 1.523 . S
H3975 C3950 0.950 . S
H3976 C3952 0.950 . S
H3977 C3953 0.949 . S
H3978 C3955 0.950 . S
H3979 C3957 0.950 . S
C3980 C3981 1.349 . S
C3980 C3982 1.327 . S
C3980 H4005 0.950 . S
C3981 C3980 1.349 . S
C3981 C3997 1.349 . S
C3982 C3980 1.327 . S
C3982 C4001 1.429 . S
C3982 H4006 0.950 . S
C3983 C4000 1.574 . S
C3983 C4002 1.368 . S
C3983 H4007 0.949 . S
H3984 C3988 0.949 . S
C3985 C3986 1.349 . S
C3985 C3987 1.327 . S
C3985 H4008 0.950 . S
C3986 C3985 1.349 . S
C3986 C3998 1.349 . S
C3987 C3985 1.327 . S
C3987 C4003 1.429 . S
C3987 H4009 0.950 . S
C3988 H3984 0.949 . S
C3988 C3996 1.574 . S
C3988 C4004 1.368 . S
H3989 C3997 0.950 . S
H3990 C3995 0.950 . S
H3991 C3996 0.949 . S
H3992 C3998 0.950 . S
H3993 C3999 0.950 . S
H3994 C4000 0.949 . S
C3995 H3990 0.950 . S
C3995 C3997 1.327 . S
C3995 C4001 1.429 . S
C3996 C3988 1.574 . S
C3996 H3991 0.949 . S
C3996 C4002 1.368 . S
C3997 C3981 1.349 . S
C3997 H3989 0.950 . S
C3997 C3995 1.327 . S
C3998 C3986 1.349 . S
C3998 H3992 0.950 . S
C3998 C3999 1.327 . S
C3999 H3993 0.950 . S
C3999 C3998 1.327 . S
C3999 C4003 1.429 . S
C4000 C3983 1.574 . S
C4000 H3994 0.949 . S
C4000 C4004 1.368 . S
C4001 C3982 1.429 . S
C4001 C3995 1.429 . S
C4001 C4002 1.523 . S
C4002 C3983 1.368 . S
C4002 C3996 1.368 . S
C4002 C4001 1.523 . S
C4003 C3987 1.429 . S
C4003 C3999 1.429 . S
C4003 C4004 1.523 . S
C4004 C3988 1.368 . S
C4004 C4000 1.368 . S
C4004 C4003 1.523 . S
H4005 C3980 0.950 . S
H4006 C3982 0.950 . S
H4007 C3983 0.949 . S
H4008 C3985 0.950 . S
H4009 C3987 0.950 . S
C4010 C4011 1.349 . S
C4010 C4012 1.327 . S
C4010 H4035 0.950 . S
C4011 C4010 1.349 . S
C4011 C4027 1.349 . S
C4012 C4010 1.327 . S
C4012 C4031 1.429 . S
C4012 H4036 0.950 . S
C4013 C4030 1.574 . S
C4013 C4032 1.368 . S
C4013 H4037 0.949 . S
H4014 C4018 0.949 . S
C4015 C4016 1.349 . S
C4015 C4017 1.327 . S
C4015 H4038 0.950 . S
C4016 C4015 1.349 . S
C4016 C4028 1.349 . S
C4017 C4015 1.327 . S
C4017 C4033 1.429 . S
C4017 H4039 0.950 . S
C4018 H4014 0.949 . S
C4018 C4026 1.574 . S
C4018 C4034 1.368 . S
H4019 C4027 0.950 . S
H4020 C4025 0.950 . S
H4021 C4026 0.949 . S
H4022 C4028 0.950 . S
H4023 C4029 0.950 . S
H4024 C4030 0.949 . S
C4025 H4020 0.950 . S
C4025 C4027 1.327 . S
C4025 C4031 1.429 . S
C4026 C4018 1.574 . S
C4026 H4021 0.949 . S
C4026 C4032 1.368 . S
C4027 C4011 1.349 . S
C4027 H4019 0.950 . S
C4027 C4025 1.327 . S
C4028 C4016 1.349 . S
C4028 H4022 0.950 . S
C4028 C4029 1.327 . S
C4029 H4023 0.950 . S
C4029 C4028 1.327 . S
C4029 C4033 1.429 . S
C4030 C4013 1.574 . S
C4030 H4024 0.949 . S
C4030 C4034 1.368 . S
C4031 C4012 1.429 . S
C4031 C4025 1.429 . S
C4031 C4032 1.523 . S
C4032 C4013 1.368 . S
C4032 C4026 1.368 . S
C4032 C4031 1.523 . S
C4033 C4017 1.429 . S
C4033 C4029 1.429 . S
C4033 C4034 1.523 . S
C4034 C4018 1.368 . S
C4034 C4030 1.368 . S
C4034 C4033 1.523 . S
H4035 C4010 0.950 . S
H4036 C4012 0.950 . S
H4037 C4013 0.949 . S
H4038 C4015 0.950 . S
H4039 C4017 0.950 . S
C4040 C4041 1.349 . S
C4040 C4042 1.327 . S
C4040 H4065 0.950 . S
C4041 C4040 1.349 . S
C4041 C4057 1.349 . S
C4042 C4040 1.327 . S
C4042 C4061 1.429 . S
C4042 H4066 0.950 . S
C4043 C4060 1.574 . S
C4043 C4062 1.368 . S
C4043 H4067 0.949 . S
H4044 C4048 0.949 . S
C4045 C4046 1.349 . S
C4045 C4047 1.327 . S
C4045 H4068 0.950 . S
C4046 C4045 1.349 . S
C4046 C4058 1.349 . S
C4047 C4045 1.327 . S
C4047 C4063 1.429 . S
C4047 H4069 0.950 . S
C4048 H4044 0.949 . S
C4048 C4056 1.574 . S
C4048 C4064 1.368 . S
H4049 C4057 0.950 . S
H4050 C4055 0.950 . S
H4051 C4056 0.949 . S
H4052 C4058 0.950 . S
H4053 C4059 0.950 . S
H4054 C4060 0.949 . S
C4055 H4050 0.950 . S
C4055 C4057 1.327 . S
C4055 C4061 1.429 . S
C4056 C4048 1.574 . S
C4056 H4051 0.949 . S
C4056 C4062 1.368 . S
C4057 C4041 1.349 . S
C4057 H4049 0.950 . S
C4057 C4055 1.327 . S
C4058 C4046 1.349 . S
C4058 H4052 0.950 . S
C4058 C4059 1.327 . S
C4059 H4053 0.950 . S
C4059 C4058 1.327 . S
C4059 C4063 1.429 . S
C4060 C4043 1.574 . S
C4060 H4054 0.949 . S
C4060 C4064 1.368 . S
C4061 C4042 1.429 . S
C4061 C4055 1.429 . S
C4061 C4062 1.523 . S
C4062 C4043 1.368 . S
C4062 C4056 1.368 . S
C4062 C4061 1.523 . S
C4063 C4047 1.429 . S
C4063 C4059 1.429 . S
C4063 C4064 1.523 . S
C4064 C4048 1.368 . S
C4064 C4060 1.368 . S
C4064 C4063 1.523 . S
H4065 C4040 0.950 . S
H4066 C4042 0.950 . S
H4067 C4043 0.949 . S
H4068 C4045 0.950 . S
H4069 C4047 0.950 . S
C4070 C4071 1.349 . S
C4070 C4072 1.327 . S
C4070 H4095 0.950 . S
C4071 C4070 1.349 . S
C4071 C4087 1.349 . S
C4072 C4070 1.327 . S
C4072 C4091 1.429 . S
C4072 H4096 0.950 . S
C4073 C4090 1.574 . S
C4073 C4092 1.368 . S
C4073 H4097 0.949 . S
H4074 C4078 0.949 . S
C4075 C4076 1.349 . S
C4075 C4077 1.327 . S
C4075 H4098 0.950 . S
C4076 C4075 1.349 . S
C4076 C4088 1.349 . S
C4077 C4075 1.327 . S
C4077 C4093 1.429 . S
C4077 H4099 0.950 . S
C4078 H4074 0.949 . S
C4078 C4086 1.574 . S
C4078 C4094 1.368 . S
H4079 C4087 0.950 . S
H4080 C4085 0.950 . S
H4081 C4086 0.949 . S
H4082 C4088 0.950 . S
H4083 C4089 0.950 . S
H4084 C4090 0.949 . S
C4085 H4080 0.950 . S
C4085 C4087 1.327 . S
C4085 C4091 1.429 . S
C4086 C4078 1.574 . S
C4086 H4081 0.949 . S
C4086 C4092 1.368 . S
C4087 C4071 1.349 . S
C4087 H4079 0.950 . S
C4087 C4085 1.327 . S
C4088 C4076 1.349 . S
C4088 H4082 0.950 . S
C4088 C4089 1.327 . S
C4089 H4083 0.950 . S
C4089 C4088 1.327 . S
C4089 C4093 1.429 . S
C4090 C4073 1.574 . S
C4090 H4084 0.949 . S
C4090 C4094 1.368 . S
C4091 C4072 1.429 . S
C4091 C4085 1.429 . S
C4091 C4092 1.523 . S
C4092 C4073 1.368 . S
C4092 C4086 1.368 . S
C4092 C4091 1.523 . S
C4093 C4077 1.429 . S
C4093 C4089 1.429 . S
C4093 C4094 1.523 . S
C4094 C4078 1.368 . S
C4094 C4090 1.368 . S
C4094 C4093 1.523 . S
H4095 C4070 0.950 . S
H4096 C4072 0.950 . S
H4097 C4073 0.949 . S
H4098 C4075 0.950 . S
H4099 C4077 0.950 . S
C4100 C4101 1.349 . S
C4100 C4102 1.327 . S
C4100 H4125 0.950 . S
C4101 C4100 1.349 . S
C4101 C4117 1.349 . S
C4102 C4100 1.327 . S
C4102 C4121 1.429 . S
C4102 H4126 0.950 . S
C4103 C4120 1.574 . S
C4103 C4122 1.368 . S
C4103 H4127 0.949 . S
H4104 C4108 0.949 . S
C4105 C4106 1.349 . S
C4105 C4107 1.327 . S
C4105 H4128 0.950 . S
C4106 C4105 1.349 . S
C4106 C4118 1.349 . S
C4107 C4105 1.327 . S
C4107 C4123 1.429 . S
C4107 H4129 0.950 . S
C4108 H4104 0.949 . S
C4108 C4116 1.574 . S
C4108 C4124 1.368 . S
H4109 C4117 0.950 . S
H4110 C4115 0.950 . S
H4111 C4116 0.949 . S
H4112 C4118 0.950 . S
H4113 C4119 0.950 . S
H4114 C4120 0.949 . S
C4115 H4110 0.950 . S
C4115 C4117 1.327 . S
C4115 C4121 1.429 . S
C4116 C4108 1.574 . S
C4116 H4111 0.949 . S
C4116 C4122 1.368 . S
C4117 C4101 1.349 . S
C4117 H4109 0.950 . S
C4117 C4115 1.327 . S
C4118 C4106 1.349 . S
C4118 H4112 0.950 . S
C4118 C4119 1.327 . S
C4119 H4113 0.950 . S
C4119 C4118 1.327 . S
C4119 C4123 1.429 . S
C4120 C4103 1.574 . S
C4120 H4114 0.949 . S
C4120 C4124 1.368 . S
C4121 C4102 1.429 . S
C4121 C4115 1.429 . S
C4121 C4122 1.523 . S
C4122 C4103 1.368 . S
C4122 C4116 1.368 . S
C4122 C4121 1.523 . S
C4123 C4107 1.429 . S
C4123 C4119 1.429 . S
C4123 C4124 1.523 . S
C4124 C4108 1.368 . S
C4124 C4120 1.368 . S
C4124 C4123 1.523 . S
H4125 C4100 0.950 . S
H4126 C4102 0.950 . S
H4127 C4103 0.949 . S
H4128 C4105 0.950 . S
H4129 C4107 0.950 . S
C4130 C4131 1.349 . S
C4130 C4132 1.327 . S
C4130 H4155 0.950 . S
C4131 C4130 1.349 . S
C4131 C4147 1.349 . S
C4132 C4130 1.327 . S
C4132 C4151 1.429 . S
C4132 H4156 0.950 . S
C4133 C4150 1.574 . S
C4133 C4152 1.368 . S
C4133 H4157 0.949 . S
H4134 C4138 0.949 . S
C4135 C4136 1.349 . S
C4135 C4137 1.327 . S
C4135 H4158 0.950 . S
C4136 C4135 1.349 . S
C4136 C4148 1.349 . S
C4137 C4135 1.327 . S
C4137 C4153 1.429 . S
C4137 H4159 0.950 . S
C4138 H4134 0.949 . S
C4138 C4146 1.574 . S
C4138 C4154 1.368 . S
H4139 C4147 0.950 . S
H4140 C4145 0.950 . S
H4141 C4146 0.949 . S
H4142 C4148 0.950 . S
H4143 C4149 0.950 . S
H4144 C4150 0.949 . S
C4145 H4140 0.950 . S
C4145 C4147 1.327 . S
C4145 C4151 1.429 . S
C4146 C4138 1.574 . S
C4146 H4141 0.949 . S
C4146 C4152 1.368 . S
C4147 C4131 1.349 . S
C4147 H4139 0.950 . S
C4147 C4145 1.327 . S
C4148 C4136 1.349 . S
C4148 H4142 0.950 . S
C4148 C4149 1.327 . S
C4149 H4143 0.950 . S
C4149 C4148 1.327 . S
C4149 C4153 1.429 . S
C4150 C4133 1.574 . S
C4150 H4144 0.949 . S
C4150 C4154 1.368 . S
C4151 C4132 1.429 . S
C4151 C4145 1.429 . S
C4151 C4152 1.523 . S
C4152 C4133 1.368 . S
C4152 C4146 1.368 . S
C4152 C4151 1.523 . S
C4153 C4137 1.429 . S
C4153 C4149 1.429 . S
C4153 C4154 1.523 . S
C4154 C4138 1.368 . S
C4154 C4150 1.368 . S
C4154 C4153 1.523 . S
H4155 C4130 0.950 . S
H4156 C4132 0.950 . S
H4157 C4133 0.949 . S
H4158 C4135 0.950 . S
H4159 C4137 0.950 . S
C1281 C1139 1.619 . S
C1286 C10 1.619 . S
C1311 C219 1.610 . S
C1316 C50 1.611 . S
C1341 C899 1.610 . S
C1346 C90 1.611 . S
C1371 C619 1.619 . S
C1376 C130 1.619 . S
C1401 C179 1.619 . S
C1406 C970 1.619 . S
C1431 C730 1.610 . S
C1436 C259 1.611 . S
C1461 C450 1.619 . S
C1466 C299 1.619 . S
C1491 C819 1.619 . S
C1496 C330 1.619 . S
C1521 C370 1.614 . S
C1526 C539 1.614 . S
C1551 C410 1.614 . S
C1556 C1219 1.614 . S
C1581 C650 1.619 . S
C1586 C499 1.619 . S
C1611 C579 1.614 . S
C1616 C1050 1.614 . S
C1641 C690 1.610 . S
C1646 C859 1.611 . S
C1671 C770 1.619 . S
C1676 C1259 1.619 . S
C1701 C1090 1.619 . S
C1706 C939 1.619 . S
C1731 C1179 1.614 . S
C1736 C1010 1.614 . S
C1761 C779 1.565 . S
C1766 C19 1.565 . S
C1791 C739 1.564 . S
C1796 C59 1.564 . S
C1821 C699 1.564 . S
C1826 C99 1.564 . S
C1851 C659 1.565 . S
C1856 C139 1.565 . S
C1881 C930 1.565 . S
C1886 C170 1.565 . S
C1911 C210 1.564 . S
C1916 C890 1.564 . S
C1941 C250 1.564 . S
C1946 C850 1.564 . S
C1971 C290 1.565 . S
C1976 C810 1.565 . S
C2001 C339 1.577 . S
C2006 C1099 1.577 . S
C2031 C379 1.566 . S
C2036 C1059 1.566 . S
C2061 C419 1.566 . S
C2066 C1019 1.566 . S
C2091 C979 1.577 . S
C2096 C459 1.577 . S
C2121 C490 1.577 . S
C2126 C1250 1.577 . S
C2151 C530 1.566 . S
C2156 C1210 1.566 . S
C2181 C570 1.566 . S
C2186 C1170 1.566 . S
C2211 C1130 1.577 . S
C2216 C610 1.577 . S
C2241 C15 1.175 . S
C2246 C6 1.175 . S
C2271 C55 1.171 . S
C2276 C46 1.171 . S
C2301 C86 1.171 . S
C2306 C95 1.171 . S
C2331 C126 1.175 . S
C2336 C135 1.175 . S
C2361 C175 1.175 . S
C2366 C166 1.175 . S
C2391 C215 1.171 . S
C2396 C206 1.171 . S
C2421 C255 1.171 . S
C2426 C246 1.171 . S
C2451 C286 1.175 . S
C2456 C295 1.175 . S
C2481 C335 1.179 . S
C2486 C326 1.179 . S
C2511 C366 1.174 . S
C2516 C375 1.174 . S
C2541 C406 1.174 . S
C2546 C415 1.174 . S
C2571 C446 1.179 . S
C2576 C455 1.179 . S
C2601 C495 1.179 . S
C2606 C486 1.179 . S
C2631 C526 1.174 . S
C2636 C535 1.174 . S
C2661 C575 1.174 . S
C2666 C566 1.174 . S
C2691 C606 1.179 . S
C2696 C615 1.179 . S
C2721 C655 1.175 . S
C2726 C646 1.175 . S
C2751 C686 1.171 . S
C2756 C695 1.171 . S
C2781 C726 1.171 . S
C2786 C735 1.171 . S
C2811 C766 1.175 . S
C2816 C775 1.175 . S
C2841 C806 1.175 . S
C2846 C815 1.175 . S
C2871 C855 1.171 . S
C2876 C846 1.171 . S
C2901 C886 1.171 . S
C2906 C895 1.171 . S
C2931 C926 1.175 . S
C2936 C935 1.175 . S
C2961 C975 1.179 . S
C2966 C966 1.179 . S
C2991 C1006 1.174 . S
C2996 C1015 1.174 . S
C3021 C1046 1.174 . S
C3026 C1055 1.174 . S
C3051 C1095 1.179 . S
C3056 C1086 1.179 . S
C3081 C1135 1.179 . S
C3086 C1126 1.179 . S
C3111 C1166 1.174 . S
C3116 C1175 1.174 . S
C3141 C1206 1.174 . S
C3146 C1215 1.174 . S
C3171 C1246 1.179 . S
C3176 C1255 1.179 . S
C3201 C409 2.126 . S
C3206 C9 2.127 . S
C3231 C449 2.084 . S
C3236 C49 2.078 . S
C3261 C89 2.083 1_556 S
C3266 C329 2.078 . S
C3291 C369 2.126 . S
C3296 C129 2.127 1_556 S
C3321 C178 2.127 . S
C3326 C578 2.126 . S
C3351 C218 2.083 . S
C3356 C618 2.078 . S
C3381 C258 2.083 1_554 S
C3386 C498 2.078 . S
C3411 C298 2.127 1_554 S
C3416 C538 2.126 . S
C3441 C1049 2.126 1_556 S
C3446 C649 2.127 . S
C3471 C689 2.083 . S
C3476 C1089 2.078 1_556 S
C3501 C969 2.084 . S
C3506 C729 2.078 . S
C3531 C769 2.127 . S
C3536 C1009 2.126 . S
C3561 C1218 2.126 1_554 S
C3566 C818 2.127 . S
C3591 C858 2.083 . S
C3596 C1258 2.078 1_554 S
C3621 C898 2.083 . S
C3626 C1138 2.078 . S
C3651 C1178 2.126 . S
C3656 C938 2.127 . S
C3681 C18 1.069 . S
C3686 C98 1.074 . S
C3711 C138 1.069 . S
C3716 C58 1.074 . S
C3741 C249 1.068 . S
C3746 C169 1.075 . S
C3771 C209 1.068 . S
C3776 C289 1.075 . S
C3801 C338 1.021 . S
C3806 C418 1.020 . S
C3831 C458 1.021 . S
C3836 C378 1.020 . S
C3861 C569 1.020 . S
C3866 C489 1.021 . S
C3891 C609 1.021 . S
C3896 C529 1.020 . S
C3921 C738 1.068 . S
C3926 C658 1.075 . S
C3951 C778 1.069 . S
C3956 C698 1.074 . S
C3981 C889 1.068 . S
C3986 C809 1.075 . S
C4011 C929 1.069 . S
C4016 C849 1.074 . S
C4041 C978 1.021 . S
C4046 C1058 1.020 . S
C4071 C1018 1.020 . S
C4076 C1098 1.021 . S
C4101 C1129 1.021 . S
C4106 C1209 1.020 . S
C4131 C1249 1.021 . S
C4136 C1169 1.020 . S
