# Generated by pormake.
# Topology crs, (6)-cn, num edge types: 1
# Building blocks:
#     Node 0, Type 0, BuildingBlock: PAMTOO_clean_sbu_0, # of connection points: 6
#     Node 1, Type 0, BuildingBlock: PAMTOO_clean_sbu_0, # of connection points: 6
#     Node 2, Type 0, BuildingBlock: PAMTOO_clean_sbu_0, # of connection points: 6
#     Node 3, Type 0, BuildingBlock: PAMTOO_clean_sbu_0, # of connection points: 6
#     Node 4, Type 0, BuildingBlock: PAMTOO_clean_sbu_0, # of connection points: 6
#     Node 5, Type 0, BuildingBlock: PAMTOO_clean_sbu_0, # of connection points: 6
#     Node 6, Type 0, BuildingBlock: PAMTOO_clean_sbu_0, # of connection points: 6
#     Node 7, Type 0, BuildingBlock: PAMTOO_clean_sbu_0, # of connection points: 6
#     Node 8, Type 0, BuildingBlock: PAMTOO_clean_sbu_0, # of connection points: 6
#     Node 9, Type 0, BuildingBlock: PAMTOO_clean_sbu_0, # of connection points: 6
#     Node 10, Type 0, BuildingBlock: PAMTOO_clean_sbu_0, # of connection points: 6
#     Node 11, Type 0, BuildingBlock: PAMTOO_clean_sbu_0, # of connection points: 6
#     Node 12, Type 0, BuildingBlock: PAMTOO_clean_sbu_0, # of connection points: 6
#     Node 13, Type 0, BuildingBlock: PAMTOO_clean_sbu_0, # of connection points: 6
#     Node 14, Type 0, BuildingBlock: PAMTOO_clean_sbu_0, # of connection points: 6
#     Node 15, Type 0, BuildingBlock: PAMTOO_clean_sbu_0, # of connection points: 6
#     Edge 16, Type (0, 0), BuildingBlock: OJICUG_clean_linker_0, # of connection points: 2
#     Edge 17, Type (0, 0), BuildingBlock: OJICUG_clean_linker_0, # of connection points: 2
#     Edge 18, Type (0, 0), BuildingBlock: OJICUG_clean_linker_0, # of connection points: 2
#     Edge 19, Type (0, 0), BuildingBlock: OJICUG_clean_linker_0, # of connection points: 2
#     Edge 20, Type (0, 0), BuildingBlock: OJICUG_clean_linker_0, # of connection points: 2
#     Edge 21, Type (0, 0), BuildingBlock: OJICUG_clean_linker_0, # of connection points: 2
#     Edge 22, Type (0, 0), BuildingBlock: OJICUG_clean_linker_0, # of connection points: 2
#     Edge 23, Type (0, 0), BuildingBlock: OJICUG_clean_linker_0, # of connection points: 2
#     Edge 24, Type (0, 0), BuildingBlock: OJICUG_clean_linker_0, # of connection points: 2
#     Edge 25, Type (0, 0), BuildingBlock: OJICUG_clean_linker_0, # of connection points: 2
#     Edge 26, Type (0, 0), BuildingBlock: OJICUG_clean_linker_0, # of connection points: 2
#     Edge 27, Type (0, 0), BuildingBlock: OJICUG_clean_linker_0, # of connection points: 2
#     Edge 28, Type (0, 0), BuildingBlock: OJICUG_clean_linker_0, # of connection points: 2
#     Edge 29, Type (0, 0), BuildingBlock: OJICUG_clean_linker_0, # of connection points: 2
#     Edge 30, Type (0, 0), BuildingBlock: OJICUG_clean_linker_0, # of connection points: 2
#     Edge 31, Type (0, 0), BuildingBlock: OJICUG_clean_linker_0, # of connection points: 2
#     Edge 32, Type (0, 0), BuildingBlock: OJICUG_clean_linker_0, # of connection points: 2
#     Edge 33, Type (0, 0), BuildingBlock: OJICUG_clean_linker_0, # of connection points: 2
#     Edge 34, Type (0, 0), BuildingBlock: OJICUG_clean_linker_0, # of connection points: 2
#     Edge 35, Type (0, 0), BuildingBlock: OJICUG_clean_linker_0, # of connection points: 2
#     Edge 36, Type (0, 0), BuildingBlock: OJICUG_clean_linker_0, # of connection points: 2
#     Edge 37, Type (0, 0), BuildingBlock: OJICUG_clean_linker_0, # of connection points: 2
#     Edge 38, Type (0, 0), BuildingBlock: OJICUG_clean_linker_0, # of connection points: 2
#     Edge 39, Type (0, 0), BuildingBlock: OJICUG_clean_linker_0, # of connection points: 2
#     Edge 40, Type (0, 0), BuildingBlock: OJICUG_clean_linker_0, # of connection points: 2
#     Edge 41, Type (0, 0), BuildingBlock: OJICUG_clean_linker_0, # of connection points: 2
#     Edge 42, Type (0, 0), BuildingBlock: OJICUG_clean_linker_0, # of connection points: 2
#     Edge 43, Type (0, 0), BuildingBlock: OJICUG_clean_linker_0, # of connection points: 2
#     Edge 44, Type (0, 0), BuildingBlock: OJICUG_clean_linker_0, # of connection points: 2
#     Edge 45, Type (0, 0), BuildingBlock: OJICUG_clean_linker_0, # of connection points: 2
#     Edge 46, Type (0, 0), BuildingBlock: OJICUG_clean_linker_0, # of connection points: 2
#     Edge 47, Type (0, 0), BuildingBlock: OJICUG_clean_linker_0, # of connection points: 2
#     Edge 48, Type (0, 0), BuildingBlock: OJICUG_clean_linker_0, # of connection points: 2
#     Edge 49, Type (0, 0), BuildingBlock: OJICUG_clean_linker_0, # of connection points: 2
#     Edge 50, Type (0, 0), BuildingBlock: OJICUG_clean_linker_0, # of connection points: 2
#     Edge 51, Type (0, 0), BuildingBlock: OJICUG_clean_linker_0, # of connection points: 2
#     Edge 52, Type (0, 0), BuildingBlock: OJICUG_clean_linker_0, # of connection points: 2
#     Edge 53, Type (0, 0), BuildingBlock: OJICUG_clean_linker_0, # of connection points: 2
#     Edge 54, Type (0, 0), BuildingBlock: OJICUG_clean_linker_0, # of connection points: 2
#     Edge 55, Type (0, 0), BuildingBlock: OJICUG_clean_linker_0, # of connection points: 2
#     Edge 56, Type (0, 0), BuildingBlock: OJICUG_clean_linker_0, # of connection points: 2
#     Edge 57, Type (0, 0), BuildingBlock: OJICUG_clean_linker_0, # of connection points: 2
#     Edge 58, Type (0, 0), BuildingBlock: OJICUG_clean_linker_0, # of connection points: 2
#     Edge 59, Type (0, 0), BuildingBlock: OJICUG_clean_linker_0, # of connection points: 2
#     Edge 60, Type (0, 0), BuildingBlock: OJICUG_clean_linker_0, # of connection points: 2
#     Edge 61, Type (0, 0), BuildingBlock: OJICUG_clean_linker_0, # of connection points: 2
#     Edge 62, Type (0, 0), BuildingBlock: OJICUG_clean_linker_0, # of connection points: 2
#     Edge 63, Type (0, 0), BuildingBlock: OJICUG_clean_linker_0, # of connection points: 2
# Relax obj value: 0.507
# Max RMSD: 0.351
# Mean RMSD: 0.307
data_MOF--net-crs--node1-PAMTOO_clean_sbu_0--edge1-OJICUG_clean_linker_0
_symmetry_space_group_name_H-M    P1
_symmetry_Int_Tables_number       1
_symmetry_cell_setting            triclinic
loop_
_symmetry_equiv_pos_as_xyz
'x, y, z'
_cell_length_a     52.241698
_cell_length_b     34.029096
_cell_length_c     31.984234
_cell_angle_alpha  89.529356
_cell_angle_beta   89.129195
_cell_angle_gamma 59.133259
loop_
_atom_site_label
_atom_site_type_symbol
_atom_site_fract_x
_atom_site_fract_y
_atom_site_fract_z
_atom_type_partial_charge
Dy0 Dy 0.98519 1.00295 0.06504 0.0
Dy1 Dy -0.00164 0.05507 0.9888 0.0
C2 C -0.00659 0.96435 0.96862 0.0
O3 O 0.03484 0.96825 0.06406 0.0
O4 O 0.04078 1.0192 1.02357 0.0
O5 O -0.0094 0.94196 0.09479 0.0
O6 O 0.96303 1.00828 0.12391 0.0
O7 O 0.98821 0.10255 0.04506 0.0
O8 O -0.00697 0.05429 0.09885 0.0
O9 O 0.952 0.0721 0.97797 0.0
O10 O 0.94017 0.05624 0.04271 0.0
O11 O 0.98927 0.11644 0.95555 0.0
O12 O 0.02359 0.0496 0.93318 0.0
C13 C 0.05126 0.98424 0.04915 0.0
O14 O 0.98249 0.96688 1.00676 0.0
O15 O 0.00423 0.99071 0.95794 0.0
C16 C 0.94589 0.95738 0.12772 0.0
C17 C 0.89471 0.95039 0.13557 0.0
C18 C 0.90406 0.95725 0.09614 0.0
C19 C 0.92935 0.96094 0.09229 0.0
C20 C 0.9369 0.95022 0.16706 0.0
C21 C 0.91148 0.94669 0.171 0.0
C22 C 0.97083 0.96527 0.12389 0.0
C23 C -0.00949 0.09298 0.08561 0.0
C24 C 0.93258 0.07318 1.00492 0.0
C25 C 0.03363 0.10824 0.92711 0.0
C26 C 0.08281 0.12044 0.92165 0.0
C27 C 0.07165 0.1169 0.96088 0.0
C28 C 0.0473 0.11068 0.96358 0.0
C29 C 0.04396 0.11332 0.88798 0.0
C30 C 0.06836 0.11954 0.88523 0.0
C31 C 0.01173 0.09374 0.92971 0.0
H32 H 0.89197 0.9595 0.06814 0.0
H33 H 0.9358 0.96712 0.0617 0.0
H34 H 0.94921 0.94818 0.19476 0.0
H35 H 0.90465 0.9419 0.20184 0.0
H36 H 0.082 0.11824 0.98949 0.0
H37 H 0.0398 0.10618 0.99406 0.0
H38 H 0.0339 0.11071 0.85957 0.0
H39 H 0.07662 0.12183 0.85459 0.0
Dy40 Dy 0.98733 0.24889 0.31437 0.0
Dy41 Dy -0.00553 0.31049 0.24067 0.0
C42 C 0.92895 0.33996 0.27908 0.0
O43 O -0.00877 0.21095 0.25346 0.0
O44 O -0.00859 0.25774 0.20136 0.0
O45 O 0.97258 0.20218 0.33112 0.0
O46 O -0.00318 0.21761 0.37578 0.0
O47 O 0.03959 0.24688 0.2436 0.0
O48 O 0.03632 0.22168 0.30909 0.0
O49 O -0.00219 0.34135 0.3022 0.0
O50 O 0.98272 0.30854 0.35222 0.0
O51 O 0.012 0.35372 0.2246 0.0
O52 O 0.98485 0.34411 0.18028 0.0
C53 C -0.00875 0.22057 0.21321 0.0
O54 O 0.94029 0.30611 0.30613 0.0
O55 O 0.94528 0.34653 0.25156 0.0
C56 C 0.95985 0.20317 0.40145 0.0
C57 C 0.91357 0.21237 0.45436 0.0
C58 C 0.91199 0.25116 0.4357 0.0
C59 C 0.93493 0.24657 0.40937 0.0
C60 C 0.96216 0.16464 0.42125 0.0
C61 C 0.93921 0.16916 0.44757 0.0
C62 C 0.98188 0.1972 0.3694 0.0
C63 C 0.05201 0.22024 0.2761 0.0
C64 C -0.00962 0.33872 0.34143 0.0
C65 C 0.02226 0.35737 0.15404 0.0
C66 C 0.06772 0.35038 0.10093 0.0
C67 C 0.06905 0.31072 0.11694 0.0
C68 C 0.04649 0.31421 0.14344 0.0
C69 C 0.02006 0.39683 0.13656 0.0
C70 C 0.04264 0.39341 0.11015 0.0
C71 C 0.0012 0.36212 0.18704 0.0
H72 H 0.89237 0.28483 0.43976 0.0
H73 H 0.93272 0.27662 0.39393 0.0
H74 H 0.98126 0.13086 0.41524 0.0
H75 H 0.94119 0.13875 0.46182 0.0
H76 H 0.08828 0.27713 0.11088 0.0
H77 H 0.0486 0.28346 0.15712 0.0
H78 H 0.00149 0.43041 0.14471 0.0
H79 H 0.04092 0.42446 0.09796 0.0
Dy80 Dy 0.74503 0.24148 0.49716 0.0
Dy81 Dy 0.74053 0.31043 0.57137 0.0
C82 C 0.68219 0.30937 0.54299 0.0
O83 O 0.7483 0.29729 0.4622 0.0
O84 O 0.73104 0.35358 0.51222 0.0
O85 O 0.73236 0.23164 0.43594 0.0
O86 O 0.76429 0.17318 0.4721 0.0
O87 O 0.78454 0.28543 0.54049 0.0
O88 O 0.79207 0.21834 0.51354 0.0
O89 O 0.75126 0.24437 0.60515 0.0
O90 O 0.7375 0.21051 0.55588 0.0
O91 O 0.75876 0.31751 0.62878 0.0
O92 O 0.72022 0.37643 0.60173 0.0
C93 C 0.73892 0.34006 0.47298 0.0
O94 O 0.69616 0.28524 0.50965 0.0
O95 O 0.69557 0.31895 0.57203 0.0
C96 C 0.72844 0.16633 0.43405 0.0
C97 C 0.68638 0.13907 0.42396 0.0
C98 C 0.69704 0.1397 0.46386 0.0
C99 C 0.71774 0.15346 0.4689 0.0
C100 C 0.71866 0.16424 0.39401 0.0
C101 C 0.6977 0.15079 0.38897 0.0
C102 C 0.74672 0.18723 0.43987 0.0
C103 C 0.8021 0.24515 0.52391 0.0
C104 C 0.74459 0.21314 0.59478 0.0
C105 C 0.75672 0.38716 0.63312 0.0
C106 C 0.79621 0.41975 0.63934 0.0
C107 C 0.7864 0.41512 0.60002 0.0
C108 C 0.76693 0.3987 0.59692 0.0
C109 C 0.76528 0.39381 0.67248 0.0
C110 C 0.78492 0.41001 0.67561 0.0
C111 C 0.74113 0.36185 0.6297 0.0
H112 H 0.68834 0.13159 0.49146 0.0
H113 H 0.72452 0.15564 0.50022 0.0
H114 H 0.72644 0.17455 0.36683 0.0
H115 H 0.68992 0.1504 0.35786 0.0
H116 H 0.79506 0.4217 0.57153 0.0
H117 H 0.761 0.39293 0.5662 0.0
H118 H 0.75784 0.38453 0.70067 0.0
H119 H 0.79201 0.41357 0.70628 0.0
Dy120 Dy 0.74366 0.0555 0.82105 0.0
Dy121 Dy 0.73843 0.99612 0.74539 0.0
C122 C 0.80227 0.96932 0.78026 0.0
O123 O 0.75367 0.08298 0.76126 0.0
O124 O 0.73249 0.05954 0.71268 0.0
O125 O 0.74115 0.11696 0.84418 0.0
O126 O 0.75282 0.06011 0.88581 0.0
O127 O 0.69073 0.04847 0.75939 0.0
O128 O 0.69507 0.09491 0.80743 0.0
O129 O 0.74725 0.95406 0.80521 0.0
O130 O 0.72796 1.01169 0.85306 0.0
O131 O 0.73029 0.94246 0.72832 0.0
O132 O 0.74174 0.97604 0.68034 0.0
C133 C 0.74347 0.08541 0.72304 0.0
O134 O 0.7893 0.99324 0.81418 0.0
O135 O 0.78699 0.97232 0.74696 0.0
C136 C 0.77434 0.10434 0.89881 0.0
C137 C 0.82227 0.10629 0.9356 0.0
C138 C 0.82493 0.08946 0.89472 0.0
C139 C 0.80118 0.08835 0.87652 0.0
C140 C 0.77134 0.12192 0.93922 0.0
C141 C 0.79514 0.12285 0.95755 0.0
C142 C 0.75008 0.10012 0.88142 0.0
C143 C 0.67911 0.08533 0.78288 0.0
C144 C 0.73712 0.96884 0.84345 0.0
C145 C 0.70681 0.95428 0.66368 0.0
C146 C 0.65855 0.96019 0.62006 0.0
C147 C 0.65378 0.98326 0.65822 0.0
C148 C 0.67765 0.98057 0.67969 0.0
C149 C 0.7116 0.93235 0.62493 0.0
C150 C 0.68756 0.93554 0.60305 0.0
C151 C 0.73218 0.94812 0.68831 0.0
H152 H 0.84571 0.07574 0.87728 0.0
H153 H 0.80396 0.07413 0.84544 0.0
H154 H 0.75076 0.13416 0.95688 0.0
H155 H 0.7924 0.13622 0.98896 0.0
H156 H 0.63155 1.0031 0.67164 0.0
H157 H 0.67338 0.99819 0.70933 0.0
H158 H 0.73397 0.91206 0.61204 0.0
H159 H 0.69172 0.91756 0.57363 0.0
Dy160 Dy 0.48555 0.75053 0.3152 0.0
Dy161 Dy 0.49379 0.809 0.24045 0.0
C162 C 0.42932 0.83981 0.27827 0.0
O163 O 0.48136 0.71916 0.2544 0.0
O164 O 0.5007 0.74651 0.20532 0.0
O165 O 0.46481 0.71276 0.33487 0.0
O166 O 0.4967 0.71586 0.37508 0.0
O167 O 0.54097 0.75321 0.2511 0.0
O168 O 0.53459 0.71129 0.3029 0.0
O169 O 0.48896 0.84956 0.30014 0.0
O170 O 0.49128 0.80165 0.3529 0.0
O171 O 0.50825 0.85503 0.21982 0.0
O172 O 0.48327 0.83782 0.17818 0.0
C173 C 0.49105 0.71869 0.21581 0.0
O174 O 0.44163 0.81665 0.3125 0.0
O175 O 0.44518 0.83363 0.24426 0.0
C176 C 0.45835 0.70827 0.40673 0.0
C177 C 0.41407 0.7169 0.46296 0.0
C178 C 0.41214 0.75609 0.44474 0.0
C179 C 0.43415 0.75177 0.41661 0.0
C180 C 0.4616 0.66961 0.42743 0.0
C181 C 0.43961 0.67386 0.45545 0.0
C182 C 0.47787 0.70187 0.37102 0.0
C183 C 0.55155 0.71837 0.27706 0.0
C184 C 0.49043 0.83942 0.34053 0.0
C185 C 0.52144 0.84707 0.14926 0.0
C186 C 0.57099 0.8294 0.09995 0.0
C187 C 0.57018 0.79337 0.1204 0.0
C188 C 0.54552 0.80213 0.14486 0.0
C189 C 0.52116 0.88257 0.12638 0.0
C190 C 0.54583 0.87373 0.10157 0.0
C191 C 0.49889 0.85755 0.18182 0.0
H192 H 0.39255 0.78961 0.44963 0.0
H193 H 0.43136 0.78192 0.40065 0.0
H194 H 0.48023 0.63581 0.42004 0.0
H195 H 0.4417 0.64322 0.46935 0.0
H196 H 0.58943 0.75896 0.11958 0.0
H197 H 0.54604 0.77437 0.16243 0.0
H198 H 0.50272 0.91746 0.12967 0.0
H199 H 0.5462 0.90203 0.08641 0.0
Dy200 Dy 0.24193 0.74854 0.48349 0.0
Dy201 Dy 0.23629 0.81781 0.55793 0.0
C202 C 0.17967 0.81395 0.52925 0.0
O203 O 0.23087 0.81476 0.44982 0.0
O204 O 0.24453 0.84834 0.49941 0.0
O205 O 0.22475 0.74077 0.42536 0.0
O206 O 0.26272 0.68215 0.45373 0.0
O207 O 0.28524 0.77289 0.5476 0.0
O208 O 0.28659 0.741 0.48389 0.0
O209 O 0.23234 0.76237 0.59247 0.0
O210 O 0.25096 0.70568 0.54276 0.0
O211 O 0.24819 0.82792 0.6196 0.0
O212 O 0.21733 0.8863 0.58247 0.0
C213 C 0.23747 0.84598 0.46044 0.0
O214 O 0.19753 0.77357 0.51303 0.0
O215 O 0.18948 0.8408 0.54047 0.0
C216 C 0.22617 0.67161 0.42234 0.0
C217 C 0.18511 0.64191 0.41714 0.0
C218 C 0.19514 0.64662 0.45627 0.0
C219 C 0.2154 0.66155 0.45884 0.0
C220 C 0.21746 0.66471 0.3832 0.0
C221 C 0.19705 0.64991 0.38058 0.0
C222 C 0.24214 0.69638 0.42529 0.0
C223 C 0.29962 0.7496 0.51415 0.0
C224 C 0.24231 0.71938 0.58178 0.0
C225 C 0.25416 0.89125 0.61965 0.0
C226 C 0.29888 0.91336 0.62781 0.0
C227 C 0.28877 0.91067 0.58809 0.0
C228 C 0.26673 0.89956 0.58405 0.0
C229 C 0.26347 0.89526 0.65944 0.0
C230 C 0.28572 0.90623 0.66353 0.0
C231 C 0.23475 0.87217 0.61487 0.0
H232 H 0.18602 0.64138 0.48498 0.0
H233 H 0.22142 0.66759 0.4894 0.0
H234 H 0.22531 0.67291 0.35477 0.0
H235 H 0.18986 0.64618 0.35004 0.0
H236 H 0.29883 0.91514 0.55997 0.0
H237 H 0.26039 0.89569 0.55296 0.0
H238 H 0.25431 0.88831 0.68722 0.0
H239 H 0.29301 0.90833 0.69453 0.0
Dy240 Dy 0.24445 0.56338 0.80962 0.0
Dy241 Dy 0.23874 0.50283 0.73531 0.0
C242 C 0.30365 0.47254 0.77309 0.0
O243 O 0.23488 0.60487 0.74941 0.0
O244 O 0.25337 0.54722 0.70159 0.0
O245 O 0.25816 0.61136 0.82485 0.0
O246 O 0.23691 0.59148 0.87216 0.0
O247 O 0.19284 0.56439 0.74212 0.0
O248 O 0.19558 0.58918 0.80756 0.0
O249 O 0.22882 0.47675 0.79601 0.0
O250 O 0.24931 0.50162 0.84448 0.0
O251 O 0.24178 0.44033 0.71407 0.0
O252 O 0.2288 0.4967 0.67128 0.0
C253 C 0.24447 0.59003 0.71105 0.0
O254 O 0.29201 0.50845 0.79784 0.0
O255 O 0.2876 0.46427 0.74741 0.0
C256 C 0.27344 0.60829 0.89365 0.0
C257 C 0.32075 0.59932 0.94212 0.0
C258 C 0.32107 0.56027 0.92712 0.0
C259 C 0.29765 0.56473 0.90293 0.0
C260 C 0.27256 0.64722 0.90954 0.0
C261 C 0.29603 0.64282 0.93357 0.0
C262 C 0.25057 0.61385 0.86414 0.0
C263 C 0.18011 0.59031 0.77512 0.0
C264 C 0.23852 0.47538 0.83437 0.0
C265 C 0.20855 0.45024 0.66013 0.0
C266 C 0.16116 0.44653 0.62352 0.0
C267 C 0.15849 0.46269 0.66467 0.0
C268 C 0.18198 0.46474 0.68278 0.0
C269 C 0.2117 0.43259 0.61974 0.0
C270 C 0.1882 0.43078 0.60153 0.0
C271 C 0.23232 0.45631 0.67675 0.0
H272 H 0.33998 0.52631 0.93264 0.0
H273 H 0.29887 0.53431 0.89039 0.0
H274 H 0.25409 0.68112 0.90238 0.0
H275 H 0.29503 0.67347 0.94497 0.0
H276 H 0.13778 0.47565 0.68214 0.0
H277 H 0.17912 0.47886 0.71392 0.0
H278 H 0.23207 0.42137 0.60183 0.0
H279 H 0.19095 0.41792 0.56991 0.0
Dy280 Dy 0.98516 0.50302 0.56543 0.0
Dy281 Dy -0.00228 0.55593 0.48895 0.0
C282 C -0.00696 0.46469 0.46889 0.0
O283 O 0.03476 0.46908 0.56439 0.0
O284 O 0.04027 0.52018 0.5235 0.0
O285 O -0.00858 0.44178 0.59574 0.0
O286 O 0.96286 0.50822 0.62415 0.0
O287 O 0.98743 0.60342 0.54518 0.0
O288 O -0.00738 0.55492 0.59896 0.0
O289 O 0.95119 0.57357 0.47855 0.0
O290 O 0.93989 0.55466 0.54238 0.0
O291 O 0.98878 0.61734 0.45587 0.0
O292 O 0.02279 0.55047 0.43316 0.0
C293 C 0.05096 0.48538 0.5493 0.0
O294 O 0.98318 0.46594 0.50748 0.0
O295 O 0.00282 0.49225 0.45764 0.0
C296 C 0.94691 0.45585 0.62833 0.0
C297 C 0.89633 0.44723 0.63602 0.0
C298 C 0.90571 0.45403 0.59658 0.0
C299 C 0.93069 0.45852 0.59281 0.0
C300 C 0.938 0.44849 0.66766 0.0
C301 C 0.91288 0.44413 0.67152 0.0
C302 C 0.97135 0.46492 0.62456 0.0
C303 C -0.01008 0.59373 0.5857 0.0
C304 C 0.93209 0.57291 0.50504 0.0
C305 C 0.03313 0.6088 0.42703 0.0
C306 C 0.08245 0.62066 0.4209 0.0
C307 C 0.07177 0.61634 0.46025 0.0
C308 C 0.04736 0.6103 0.46328 0.0
C309 C 0.04299 0.61463 0.38781 0.0
C310 C 0.06746 0.62069 0.38473 0.0
C311 C 0.01109 0.59459 0.42983 0.0
H312 H 0.89378 0.4558 0.56855 0.0
H313 H 0.9371 0.46476 0.56221 0.0
H314 H 0.95008 0.44707 0.69542 0.0
H315 H 0.90604 0.43935 0.70235 0.0
H316 H 0.08254 0.61696 0.4887 0.0
H317 H 0.04022 0.60524 0.49382 0.0
H318 H 0.0325 0.61276 0.35954 0.0
H319 H 0.07533 0.6236 0.35399 0.0
Dy320 Dy 0.24054 0.25154 0.98466 0.0
Dy321 Dy 0.23891 0.31627 0.0602 0.0
C322 C 0.17966 0.3175 0.03422 0.0
O323 O 0.22828 0.31877 0.95218 0.0
O324 O 0.2445 0.34944 1.00122 0.0
O325 O 0.22252 0.24359 0.92751 0.0
O326 O 0.26175 0.18546 0.95427 0.0
O327 O 0.28696 0.26572 0.0472 0.0
O328 O 0.2825 0.25229 0.97883 0.0
O329 O 0.23251 0.26287 0.09375 0.0
O330 O 0.25177 0.20702 0.04348 0.0
O331 O 0.25439 0.32165 0.12089 0.0
O332 O 0.2239 0.38293 0.08674 0.0
C333 C 0.23586 0.34893 0.96269 0.0
O334 O 0.19595 0.27887 1.01416 0.0
O335 O 0.19092 0.34154 0.04823 0.0
C336 C 0.22553 0.17337 0.92392 0.0
C337 C 0.18524 0.14224 0.91885 0.0
C338 C 0.1948 0.14792 0.95798 0.0
C339 C 0.2147 0.16356 0.9605 0.0
C340 C 0.21742 0.1653 0.88482 0.0
C341 C 0.1974 0.14975 0.88226 0.0
C342 C 0.24067 0.19937 0.92659 0.0
C343 C 0.29824 0.25361 1.00951 0.0
C344 C 0.2427 0.22002 0.08256 0.0
C345 C 0.26371 0.38162 0.1213 0.0
C346 C 0.31003 0.4004 0.12787 0.0
C347 C 0.30132 0.39362 0.08853 0.0
C348 C 0.27849 0.38414 0.0853 0.0
C349 C 0.27187 0.38918 0.16063 0.0
C350 C 0.29493 0.3985 0.16392 0.0
C351 C 0.24247 0.36583 0.11776 0.0
H352 H 0.18551 0.14303 0.9867 0.0
H353 H 0.22029 0.17048 0.99099 0.0
H354 H 0.22534 0.17327 0.85634 0.0
H355 H 0.19059 0.14524 0.85173 0.0
H356 H 0.31289 0.39399 0.06026 0.0
H357 H 0.273 0.37736 0.0547 0.0
H358 H 0.26096 0.38669 0.18875 0.0
H359 H 0.30114 0.40378 0.19461 0.0
Dy360 Dy 0.24369 0.06331 0.30903 0.0
Dy361 Dy 0.23819 1.00307 0.23443 0.0
C362 C 0.30296 0.97431 0.27164 0.0
O363 O 0.23464 0.1047 0.24888 0.0
O364 O 0.25335 0.04703 0.20107 0.0
O365 O 0.24928 0.11989 0.32446 0.0
O366 O 0.24284 0.08221 0.37399 0.0
O367 O 0.19239 0.06486 0.24152 0.0
O368 O 0.19506 0.08732 0.30797 0.0
O369 O 0.22788 0.97672 0.29456 0.0
O370 O 0.24902 1.00062 0.34278 0.0
O371 O 0.24198 0.94029 0.21255 0.0
O372 O 0.22799 0.99744 0.1704 0.0
C373 C 0.24446 0.08983 0.21059 0.0
O374 O 0.29145 1.01198 0.29402 0.0
O375 O 0.28674 0.96394 0.24844 0.0
C376 C 0.27493 0.11058 0.38701 0.0
C377 C 0.32248 0.10861 0.42948 0.0
C378 C 0.32627 0.09294 0.38805 0.0
C379 C 0.30279 0.09364 0.3671 0.0
C380 C 0.27106 0.12612 0.4284 0.0
C381 C 0.29471 0.12492 0.4496 0.0
C382 C 0.24974 0.11299 0.36459 0.0
C383 C 0.17958 0.0896 0.27511 0.0
C384 C 0.23807 0.9746 0.3327 0.0
C385 C 0.20853 0.94992 0.15918 0.0
C386 C 0.16149 0.94487 0.12314 0.0
C387 C 0.15849 0.96233 0.16381 0.0
C388 C 0.18182 0.96503 0.18165 0.0
C389 C 0.21203 0.93092 0.11934 0.0
C390 C 0.1887 0.92843 0.1014 0.0
C391 C 0.23209 0.95663 0.17547 0.0
H392 H 0.34759 0.07932 0.37208 0.0
H393 H 0.30643 0.081 0.33529 0.0
H394 H 0.24974 0.13929 0.44428 0.0
H395 H 0.29123 0.13711 0.48155 0.0
H396 H 0.13765 0.97586 0.18106 0.0
H397 H 0.17872 0.98014 0.21237 0.0
H398 H 0.23253 0.91917 0.10161 0.0
H399 H 0.19168 0.91457 0.07015 0.0
Dy400 Dy 0.487 0.24995 0.8146 0.0
Dy401 Dy 0.49505 0.30845 0.73986 0.0
C402 C 0.43057 0.33919 0.77796 0.0
O403 O 0.4821 0.21913 0.75386 0.0
O404 O 0.5018 0.24597 0.70476 0.0
O405 O 0.46635 0.21238 0.83553 0.0
O406 O 0.49837 0.21613 0.87482 0.0
O407 O 0.54234 0.25333 0.75139 0.0
O408 O 0.53575 0.20954 0.80101 0.0
O409 O 0.48947 0.3496 0.79934 0.0
O410 O 0.49406 0.30008 0.85177 0.0
O411 O 0.50885 0.35557 0.72027 0.0
O412 O 0.4853 0.33684 0.67736 0.0
C413 C 0.49184 0.21851 0.71523 0.0
O414 O 0.4431 0.31611 0.81213 0.0
O415 O 0.44635 0.33311 0.74383 0.0
C416 C 0.4584 0.21416 0.90741 0.0
C417 C 0.41034 0.23369 0.96066 0.0
C418 C 0.41225 0.26947 0.94162 0.0
C419 C 0.4362 0.25975 0.9151 0.0
C420 C 0.45804 0.17871 0.92943 0.0
C421 C 0.43414 0.18845 0.9562 0.0
C422 C 0.47894 0.20318 0.87201 0.0
C423 C 0.55278 0.21755 0.77625 0.0
C424 C 0.49216 0.33863 0.83956 0.0
C425 C 0.52114 0.35257 0.64949 0.0
C426 C 0.56758 0.34344 0.59724 0.0
C427 C 0.5685 0.3044 0.61404 0.0
C428 C 0.54546 0.30897 0.64018 0.0
C429 C 0.51924 0.39129 0.63076 0.0
C430 C 0.5423 0.38679 0.60478 0.0
C431 C 0.49954 0.3586 0.68219 0.0
H432 H 0.39409 0.3046 0.9447 0.0
H433 H 0.43626 0.28747 0.89825 0.0
H434 H 0.47508 0.14335 0.92364 0.0
H435 H 0.43294 0.16035 0.97026 0.0
H436 H 0.58787 0.27063 0.6092 0.0
H437 H 0.54731 0.27875 0.65473 0.0
H438 H 0.50059 0.42518 0.63778 0.0
H439 H 0.54097 0.41736 0.592 0.0
Dy440 Dy 0.98814 0.7488 0.8137 0.0
Dy441 Dy -0.00478 0.81018 0.74038 0.0
C442 C 0.92969 0.83994 0.77874 0.0
O443 O -0.00625 0.70952 0.75311 0.0
O444 O 0.98937 0.75974 0.70145 0.0
O445 O 0.97568 0.69922 0.82993 0.0
O446 O -0.00359 0.71972 0.87598 0.0
O447 O 0.03968 0.74519 0.74234 0.0
O448 O 0.03688 0.72399 0.8095 0.0
O449 O 0.00012 0.83932 0.80201 0.0
O450 O 0.98164 0.81019 0.85071 0.0
O451 O 0.01443 0.85083 0.72307 0.0
O452 O 0.98494 0.84471 0.68039 0.0
C453 C -0.00867 0.72094 0.71305 0.0
O454 O 0.94072 0.80342 0.80272 0.0
O455 O 0.94635 0.84913 0.75427 0.0
C456 C 0.96088 0.70097 0.89934 0.0
C457 C 0.91393 0.70812 0.94937 0.0
C458 C 0.91323 0.74771 0.93451 0.0
C459 C 0.93648 0.74415 0.90953 0.0
C460 C 0.96221 0.66147 0.91519 0.0
C461 C 0.93889 0.66498 0.94003 0.0
C462 C 0.9834 0.69649 0.86881 0.0
C463 C 0.05243 0.72044 0.77569 0.0
C464 C -0.00906 0.83861 0.84067 0.0
C465 C 0.02334 0.85431 0.6519 0.0
C466 C 0.06815 0.84564 0.59637 0.0
C467 C 0.07037 0.80666 0.61563 0.0
C468 C 0.04812 0.81099 0.64327 0.0
C469 C 0.02018 0.89288 0.63108 0.0
C470 C 0.0424 0.88861 0.60342 0.0
C471 C 0.00269 0.86047 0.68605 0.0
H472 H 0.8941 0.7814 0.94062 0.0
H473 H 0.93495 0.77497 0.89701 0.0
H474 H 0.98084 0.62787 0.90729 0.0
H475 H 0.94012 0.63395 0.95129 0.0
H476 H 0.09009 0.77316 0.6113 0.0
H477 H 0.05094 0.78093 0.65942 0.0
H478 H 0.00114 0.92657 0.63758 0.0
H479 H 0.03993 0.91912 0.58868 0.0
Dy480 Dy 0.74285 0.55597 0.32024 0.0
Dy481 Dy 0.73746 0.49611 0.24487 0.0
C482 C 0.80146 0.46905 0.28017 0.0
O483 O 0.75244 0.5833 0.2599 0.0
O484 O 0.73254 0.55817 0.21071 0.0
O485 O 0.74067 0.61748 0.34265 0.0
O486 O 0.752 0.56119 0.38485 0.0
O487 O 0.69001 0.55165 0.25584 0.0
O488 O 0.694 0.59425 0.30842 0.0
O489 O 0.74652 0.45427 0.30489 0.0
O490 O 0.72774 0.51176 0.35288 0.0
O491 O 0.7233 0.44903 0.22818 0.0
O492 O 0.74595 0.46795 0.18227 0.0
C493 C 0.74306 0.58461 0.22131 0.0
O494 O 0.78856 0.49391 0.31365 0.0
O495 O 0.78617 0.47116 0.24718 0.0
C496 C 0.77372 0.60523 0.39756 0.0
C497 C 0.82176 0.60651 0.43484 0.0
C498 C 0.82418 0.59098 0.39348 0.0
C499 C 0.80038 0.59018 0.37504 0.0
C500 C 0.77095 0.6216 0.43843 0.0
C501 C 0.7948 0.6222 0.45699 0.0
C502 C 0.74945 0.60102 0.38005 0.0
C503 C 0.67824 0.5867 0.2816 0.0
C504 C 0.73673 0.46899 0.34325 0.0
C505 C 0.70957 0.45184 0.15847 0.0
C506 C 0.66299 0.46062 0.10842 0.0
C507 C 0.66254 0.49977 0.12337 0.0
C508 C 0.68561 0.49539 0.14842 0.0
C509 C 0.71075 0.41287 0.14214 0.0
C510 C 0.68765 0.41717 0.11734 0.0
C511 C 0.73179 0.44618 0.18925 0.0
H512 H 0.84482 0.57798 0.37585 0.0
H513 H 0.803 0.57687 0.34361 0.0
H514 H 0.75053 0.63308 0.45628 0.0
H515 H 0.79223 0.63459 0.48876 0.0
H516 H 0.64367 0.53366 0.11747 0.0
H517 H 0.6842 0.52585 0.16118 0.0
H518 H 0.72904 0.37898 0.14979 0.0
H519 H 0.68871 0.38646 0.10599 0.0
Dy520 Dy 0.74225 0.74341 0.99508 0.0
Dy521 Dy 0.74229 0.80746 0.07024 0.0
C522 C 0.68362 0.80655 0.04782 0.0
O523 O 0.74834 0.79678 0.96096 0.0
O524 O 0.73061 0.85226 1.01154 0.0
O525 O 0.72596 0.73866 0.93484 0.0
O526 O 0.75678 0.67702 0.96831 0.0
O527 O 0.7865 0.77976 0.03938 0.0
O528 O 0.79055 0.71778 1.0052 0.0
O529 O 0.75404 0.74049 0.10295 0.0
O530 O 0.73737 0.70998 0.05433 0.0
O531 O 0.76158 0.81493 0.12635 0.0
O532 O 0.72152 0.87311 0.10129 0.0
C533 C 0.73885 0.83938 0.97222 0.0
O534 O 0.69429 0.7934 1.00993 0.0
O535 O 0.69996 0.80809 0.07752 0.0
C536 C 0.71709 0.67821 0.93345 0.0
C537 C 0.67177 0.65739 0.92575 0.0
C538 C 0.67986 0.66475 0.96533 0.0
C539 C 0.70221 0.67526 0.96912 0.0
C540 C 0.70951 0.67017 0.8939 0.0
C541 C 0.68693 0.65987 0.89003 0.0
C542 C 0.73808 0.6944 0.93746 0.0
C543 C 0.80224 0.74146 1.01862 0.0
C544 C 0.7462 0.71053 0.09273 0.0
C545 C 0.75739 0.88602 0.13177 0.0
C546 C 0.79519 0.9216 0.13835 0.0
C547 C 0.78588 0.91616 0.09892 0.0
C548 C 0.76723 0.89825 0.09564 0.0
C549 C 0.76525 0.89373 0.17121 0.0
C550 C 0.78405 0.91142 0.17452 0.0
C551 C 0.74298 0.85899 0.12838 0.0
H552 H 0.66821 0.66393 0.99333 0.0
H553 H 0.7073 0.68233 0.99988 0.0
H554 H 0.72053 0.67294 0.86603 0.0
H555 H 0.68118 0.65418 0.85918 0.0
H556 H 0.79443 0.92313 0.07052 0.0
H557 H 0.76176 0.89177 0.06489 0.0
H558 H 0.75803 0.88401 0.19935 0.0
H559 H 0.79074 0.91561 0.20526 0.0
Dy560 Dy 0.48498 1.00192 0.56574 0.0
Dy561 Dy 0.49675 0.05648 0.49003 0.0
C562 C 0.49239 0.96591 0.4682 0.0
O563 O 0.53102 0.98676 0.5762 0.0
O564 O 0.54227 1.00405 0.51168 0.0
O565 O 0.49545 0.93933 0.59795 0.0
O566 O 0.46025 1.00502 0.62124 0.0
O567 O 0.49928 0.09181 0.54893 0.0
O568 O 0.47859 0.06614 0.59772 0.0
O569 O 0.44714 0.08949 0.49162 0.0
O570 O 0.44224 0.03728 0.5317 0.0
O571 O 0.4901 0.11876 0.46144 0.0
O572 O 0.51845 0.05334 0.43125 0.0
C573 C 0.55013 0.98699 0.54938 0.0
O574 O 0.4952 0.95556 0.5086 0.0
O575 O 0.48944 1.00502 0.45541 0.0
C576 C 0.45164 0.94474 0.62555 0.0
C577 C 0.40304 0.93093 0.62926 0.0
C578 C 0.41437 0.93526 0.59046 0.0
C579 C 0.43841 0.94227 0.58863 0.0
C580 C 0.44131 0.9385 0.66425 0.0
C581 C 0.4172 0.93143 0.66613 0.0
C582 C 0.47286 0.96068 0.62386 0.0
C583 C 0.48886 0.09328 0.58721 0.0
C584 C 0.43123 0.07249 0.50638 0.0
C585 C 0.53448 0.1057 0.42919 0.0
C586 C 0.58516 0.11426 0.42277 0.0
C587 C 0.57653 0.10454 0.46151 0.0
C588 C 0.55149 0.10012 0.46464 0.0
C589 C 0.54261 0.11607 0.39059 0.0
C590 C 0.56777 0.12044 0.38737 0.0
C591 C 0.51 0.09662 0.43215 0.0
H592 H 0.40423 0.93426 0.56151 0.0
H593 H 0.44591 0.94758 0.55847 0.0
H594 H 0.45103 0.94105 0.69304 0.0
H595 H 0.40883 0.92847 0.69645 0.0
H596 H 0.5891 0.10036 0.4895 0.0
H597 H 0.54567 0.0916 0.49465 0.0
H598 H 0.52989 0.11983 0.36285 0.0
H599 H 0.57401 0.12757 0.35706 0.0
Dy600 Dy 0.49004 0.49697 0.06552 0.0
Dy601 Dy 0.49229 0.56126 0.98985 0.0
C602 C 0.49418 0.46485 0.9674 0.0
O603 O 0.5369 0.48065 0.06802 0.0
O604 O 0.5396 0.51929 1.0102 0.0
O605 O 0.50415 0.43253 0.09682 0.0
O606 O 0.46839 0.49606 0.12299 0.0
O607 O 0.49522 0.59657 0.04817 0.0
O608 O 0.48332 0.56066 0.09927 0.0
O609 O 0.44361 0.58834 0.99947 0.0
O610 O 0.44646 0.52687 0.03372 0.0
O611 O 0.47822 0.62694 0.96126 0.0
O612 O 0.51034 0.5643 0.92962 0.0
C613 C 0.5517 0.49273 0.04281 0.0
O614 O 0.49841 0.45305 1.00742 0.0
O615 O 0.48934 0.50536 0.95528 0.0
C616 C 0.46222 0.43334 0.12642 0.0
C617 C 0.41445 0.41749 0.12979 0.0
C618 C 0.42733 0.41842 0.09115 0.0
C619 C 0.45091 0.4265 0.08947 0.0
C620 C 0.45051 0.43016 0.16514 0.0
C621 C 0.42682 0.4221 0.16686 0.0
C622 C 0.48227 0.45149 0.12415 0.0
C623 C 0.48917 0.59273 0.08772 0.0
C624 C 0.43141 0.56498 1.01262 0.0
C625 C 0.51969 0.62417 0.92808 0.0
C626 C 0.56853 0.6375 0.92322 0.0
C627 C 0.55585 0.63714 0.96217 0.0
C628 C 0.53179 0.6303 0.96459 0.0
C629 C 0.53138 0.62643 0.889 0.0
C630 C 0.55561 0.63324 0.88654 0.0
C631 C 0.49823 0.60862 0.93135 0.0
H632 H 0.41861 0.41421 0.0621 0.0
H633 H 0.45938 0.42951 0.05921 0.0
H634 H 0.45868 0.43616 0.19389 0.0
H635 H 0.41723 0.42184 0.19705 0.0
H636 H 0.56496 0.64115 0.99094 0.0
H637 H 0.52339 0.62807 0.99514 0.0
H638 H 0.52261 0.62101 0.86056 0.0
H639 H 0.56503 0.63315 0.85611 0.0
C640 C -0.00982 0.16675 0.10628 0.0
C641 C -0.00944 0.1262 0.11787 0.0
H642 H -0.0098 0.22736 0.12587 0.0
C643 C -0.00869 0.11742 0.16133 0.0
H644 H 0.98973 0.17528 0.07351 0.0
C645 C -0.00846 0.14754 0.19161 0.0
C646 C -0.00885 0.18807 0.18015 0.0
H647 H -0.00834 0.08695 0.17227 0.0
H648 H -0.00797 0.13881 0.22434 0.0
C649 C -0.0095 0.19689 0.13666 0.0
C650 C 0.85076 0.1935 0.48731 0.0
C651 C 0.83286 0.23247 0.5119 0.0
H652 H 0.89022 0.15679 0.44962 0.0
C653 C 0.84344 0.26193 0.5213 0.0
H654 H 0.8433 0.1701 0.47949 0.0
C655 C 0.87043 0.25416 0.50431 0.0
C656 C 0.88743 0.21676 0.47762 0.0
H657 H 0.83036 0.29207 0.54048 0.0
H658 H 0.87755 0.27821 0.51109 0.0
C659 C 0.87776 0.18575 0.47032 0.0
C660 C 0.75368 0.14907 0.69997 0.0
C661 C 0.74424 0.11798 0.69039 0.0
H662 H 0.76118 0.20274 0.67856 0.0
C663 C 0.73515 0.11871 0.6488 0.0
H664 H 0.76084 0.15013 0.73131 0.0
C665 C 0.73547 0.14893 0.61829 0.0
C666 C 0.74476 0.18018 0.62782 0.0
H667 H 0.72767 0.09573 0.63956 0.0
H668 H 0.72818 0.14787 0.58703 0.0
C669 C 0.75386 0.17955 0.66942 0.0
C670 C 0.8934 0.10803 0.95017 0.0
C671 C 0.90206 0.08894 0.99031 0.0
H672 H 0.86118 0.12907 0.90166 0.0
C673 C 0.88268 0.08005 1.01399 0.0
H674 H 0.90767 0.11562 0.93117 0.0
C675 C 0.85606 0.08759 0.99688 0.0
C676 C 0.84832 0.10414 0.9558 0.0
H677 H 0.88872 0.06512 0.04493 0.0
H678 H 0.84232 0.07822 1.01505 0.0
C679 C 0.86684 0.1155 0.9331 0.0
C680 C 0.10157 0.97546 0.04327 0.0
C681 C 0.08167 0.96632 0.06517 0.0
H682 H 0.14236 0.97572 0.04447 0.0
C683 C 0.08968 0.94553 0.10475 0.0
H684 H 0.09604 0.99146 1.0127 0.0
C685 C 0.11625 0.9368 0.12315 0.0
C686 C 0.13541 0.9481 0.10201 0.0
H687 H 0.07471 0.93835 0.12248 0.0
H688 H 0.12141 0.92242 0.15435 0.0
C689 C 0.1282 0.96627 0.06141 0.0
C690 C 0.00107 0.43189 0.39433 0.0
C691 C -0.00735 0.43183 0.43658 0.0
H692 H 0.00694 0.40407 0.33225 0.0
C693 C 0.98337 0.40044 0.447 0.0
H694 H 0.00826 0.45523 0.38432 0.0
C695 C 0.98265 0.3706 0.4167 0.0
C696 C -0.00896 0.37078 0.37441 0.0
H697 H 0.97657 0.39884 0.47881 0.0
H698 H 0.9754 0.34731 0.42658 0.0
C699 C 0.00025 0.40223 0.36407 0.0
C700 C 0.633 0.35931 0.5777 0.0
C701 C 0.65084 0.32287 0.55052 0.0
H702 H 0.59254 0.39455 0.61335 0.0
C703 C 0.63954 0.29641 0.53471 0.0
H704 H 0.64111 0.38037 0.59021 0.0
C705 C 0.61169 0.30436 0.54823 0.0
C706 C 0.59456 0.33935 0.57718 0.0
H707 H 0.65291 0.26793 0.51385 0.0
H708 H 0.60398 0.28222 0.53721 0.0
C709 C 0.60508 0.36764 0.59071 0.0
C710 C 0.74651 0.89017 0.86687 0.0
C711 C 0.73695 0.93618 0.87652 0.0
H712 H 0.75458 0.82462 0.88815 0.0
C713 C 0.72778 0.95002 0.91841 0.0
H714 H 0.75384 0.87755 0.83538 0.0
C715 C 0.72825 0.91923 0.94916 0.0
C716 C 0.73786 0.87318 0.93943 0.0
H717 H 0.72031 0.98484 0.92768 0.0
H718 H 0.72112 0.93165 0.98075 0.0
C719 C 0.74694 0.85948 0.89752 0.0
C720 C 0.13175 0.36788 0.07291 0.0
C721 C 0.14868 0.33103 0.04563 0.0
H722 H 0.09284 0.40274 0.11195 0.0
C723 C 0.13692 0.30407 0.03277 0.0
H724 H 0.14011 0.38935 0.08338 0.0
C725 C 0.10979 0.31184 0.04906 0.0
C726 C 0.0938 0.34682 0.07839 0.0
H727 H 0.14923 0.27564 1.01145 0.0
H728 H 0.10179 0.28952 0.03974 0.0
C729 C 0.10456 0.37569 0.08914 0.0
C730 C 0.74612 0.39034 0.36698 0.0
C731 C 0.73674 0.43634 0.37647 0.0
H732 H 0.75414 0.32489 0.38863 0.0
C733 C 0.72786 0.45026 0.4184 0.0
H734 H 0.75322 0.37768 0.33544 0.0
C735 C 0.72844 0.41959 0.44934 0.0
C736 C 0.73787 0.37356 0.4398 0.0
H737 H 0.72054 0.48506 0.42757 0.0
H738 H 0.72153 0.43211 0.48095 0.0
C739 C 0.74665 0.35974 0.39784 0.0
C740 C 0.60002 0.98083 0.54012 0.0
C741 C 0.58038 0.97285 0.56433 0.0
H742 H 0.64047 0.9829 0.5389 0.0
C743 C 0.58841 0.95629 0.60535 0.0
H744 H 0.59448 0.99376 0.50847 0.0
C745 C 0.61439 0.95065 0.62269 0.0
C746 C 0.63315 0.96099 0.59936 0.0
H747 H 0.574 0.94945 0.62487 0.0
H748 H 0.61946 0.93931 0.65485 0.0
C749 C 0.6263 0.97473 0.55749 0.0
C750 C 0.00349 0.9294 0.89473 0.0
C751 C -0.00695 0.93152 0.93623 0.0
H752 H 0.01104 0.89986 0.83314 0.0
C753 C 0.98183 0.90237 0.94575 0.0
H754 H 0.01226 0.95093 0.88542 0.0
C755 C 0.98115 0.8726 0.91532 0.0
C756 C -0.00844 0.87059 0.87379 0.0
H757 H 0.97342 0.90253 0.97694 0.0
H758 H 0.97231 0.85112 0.92449 0.0
C759 C 0.00273 0.89979 0.86434 0.0
C760 C 0.1115 0.15441 0.8907 0.0
C761 C 0.10992 0.12385 0.91888 0.0
H762 H 0.13662 0.18422 0.86873 0.0
C763 C 0.13427 0.0969 0.94493 0.0
H764 H 0.09298 0.17586 0.87049 0.0
C765 C 0.15928 0.10157 0.94385 0.0
C766 C 0.16047 0.13316 0.9166 0.0
H767 H 0.13395 0.07231 0.96633 0.0
H768 H 0.17756 0.08085 0.96469 0.0
C769 C 0.13654 0.15903 0.88957 0.0
C770 C 0.63117 0.63521 0.24164 0.0
C771 C 0.64575 0.61979 0.28012 0.0
H772 H 0.58991 0.67997 0.21047 0.0
C773 C 0.62922 0.63749 0.31732 0.0
H774 H 0.64349 0.62234 0.2125 0.0
C775 C 0.59858 0.66928 0.31615 0.0
C776 C 0.58405 0.68532 0.27776 0.0
H777 H 0.63994 0.62622 0.34737 0.0
H778 H 0.58626 0.68184 0.34534 0.0
C779 C 0.60065 0.66835 0.24046 0.0
C780 C 0.34809 0.89344 0.65815 0.0
C781 C 0.32434 0.92074 0.6313 0.0
H782 H 0.39188 0.87474 0.67814 0.0
C783 C 0.3261 0.95283 0.60542 0.0
H784 H 0.34749 0.86802 0.67807 0.0
C785 C 0.35148 0.95648 0.60531 0.0
C786 C 0.37567 0.92812 0.63107 0.0
H787 H 0.30795 0.97481 0.58487 0.0
H788 H 0.35218 0.9815 0.58492 0.0
C789 C 0.37353 0.89713 0.65807 0.0
C790 C 0.10072 0.67165 0.81312 0.0
C791 C 0.08513 0.68734 0.77536 0.0
H792 H 0.14282 0.62925 0.84268 0.0
C793 C 0.10102 0.67043 0.73749 0.0
H794 H 0.08919 0.68402 0.84285 0.0
C795 C 0.13171 0.63826 0.73743 0.0
C796 C 0.14735 0.62301 0.77521 0.0
H797 H 0.08968 0.6816 0.70786 0.0
H798 H 0.14328 0.6259 0.70772 0.0
C799 C 0.13149 0.64028 0.81303 0.0
C800 C 0.81989 0.46448 0.6165 0.0
C801 C 0.82024 0.43044 0.64199 0.0
H802 H 0.84338 0.49723 0.59536 0.0
C803 C 0.84497 0.40389 0.66751 0.0
H804 H 0.80095 0.48574 0.59686 0.0
C805 C 0.86939 0.41009 0.66638 0.0
C806 C 0.86951 0.44306 0.63978 0.0
H807 H 0.84604 0.37692 0.687 0.0
H808 H 0.88863 0.38782 0.68511 0.0
C809 C 0.84423 0.47085 0.61551 0.0
C810 C 0.3507 0.91433 0.23819 0.0
C811 C 0.33548 0.94108 0.27336 0.0
H812 H 0.39229 0.8619 0.21214 0.0
C813 C 0.35131 0.93393 0.3106 0.0
H814 H 0.33909 0.91898 0.20911 0.0
C815 C 0.38166 0.90012 0.31273 0.0
C816 C 0.3969 0.87382 0.2773 0.0
H817 H 0.34008 0.95376 0.33832 0.0
H818 H 0.39332 0.89513 0.34181 0.0
C819 C 0.38114 0.8816 0.23996 0.0
C820 C 0.35165 0.41431 0.73858 0.0
C821 C 0.33624 0.43918 0.77453 0.0
H822 H 0.39348 0.3639 0.71141 0.0
C823 C 0.35208 0.43056 0.81199 0.0
H824 H 0.3401 0.42014 0.70926 0.0
C825 C 0.38258 0.39727 0.81352 0.0
C826 C 0.39802 0.37292 0.77733 0.0
H827 H 0.34076 0.44891 0.8403 0.0
H828 H 0.39418 0.39117 0.84282 0.0
C829 C 0.38223 0.3821 0.73982 0.0
C830 C 0.13849 0.79685 0.53022 0.0
C831 C 0.14877 0.82658 0.54008 0.0
H832 H 0.10456 0.78004 0.53968 0.0
C833 C 0.13044 0.86574 0.56418 0.0
H834 H 0.15192 0.76657 0.51134 0.0
C835 C 0.10335 0.87328 0.58051 0.0
C836 C 0.09403 0.84187 0.57299 0.0
H837 H 0.13765 0.88937 0.57227 0.0
H838 H 0.0906 0.90229 0.60106 0.0
C839 C 0.11141 0.80441 0.54656 0.0
C840 C 0.22803 0.91082 0.35569 0.0
C841 C 0.2374 0.94198 0.36538 0.0
H842 H 0.22072 0.85689 0.3768 0.0
C843 C 0.24659 0.94104 0.40695 0.0
H844 H 0.22081 0.90988 0.32435 0.0
C845 C 0.24643 0.91053 0.43732 0.0
C846 C 0.2372 0.87922 0.42763 0.0
H847 H 0.25404 0.96404 0.41626 0.0
H848 H 0.25378 0.91142 0.46859 0.0
C849 C 0.22801 0.8801 0.38606 0.0
C850 C 0.98867 0.69865 0.63667 0.0
C851 C -0.00898 0.6886 0.68003 0.0
H852 H 0.98646 0.67803 0.57367 0.0
C853 C -0.00708 0.64694 0.69144 0.0
H854 H 0.98716 0.73003 0.62594 0.0
C855 C -0.00752 0.61694 0.66123 0.0
C856 C -0.0099 0.6269 0.6179 0.0
H857 H -0.00525 0.63726 0.72408 0.0
H858 H -0.00595 0.58557 0.67213 0.0
C859 C 0.98823 0.66855 0.60636 0.0
C860 C 0.34948 0.69923 0.48175 0.0
C861 C 0.33103 0.73614 0.50806 0.0
H862 H 0.39048 0.66393 0.44742 0.0
C863 C 0.34178 0.76318 0.52421 0.0
H864 H 0.34174 0.67777 0.46906 0.0
C865 C 0.36973 0.75547 0.51153 0.0
C866 C 0.38744 0.72012 0.48322 0.0
H867 H 0.32788 0.79203 0.54443 0.0
H868 H 0.37697 0.77822 0.52246 0.0
C869 C 0.37749 0.6911 0.46966 0.0
C870 C 0.2539 0.10892 0.13568 0.0
C871 C 0.24458 0.12258 0.17756 0.0
H872 H 0.2607 0.12765 0.07355 0.0
C873 C 0.23487 0.16862 0.18739 0.0
H874 H 0.26149 0.07409 0.12628 0.0
C875 C 0.23441 0.19951 0.15697 0.0
C876 C 0.24366 0.18601 0.11508 0.0
H877 H 0.22743 0.18113 0.21889 0.0
H878 H 0.22666 0.23436 0.16649 0.0
C879 C 0.25344 0.13992 0.10515 0.0
C880 C 0.84533 0.75412 1.01891 0.0
C881 C 0.83306 0.72788 1.00598 0.0
H882 H 0.88073 0.76801 1.01156 0.0
C883 C 0.84931 0.69181 0.97764 0.0
H884 H 0.83358 0.78194 0.04099 0.0
C885 C 0.87637 0.68396 0.96072 0.0
C886 C 0.88767 0.71204 0.97179 0.0
H887 H 0.84053 0.67093 0.96703 0.0
H888 H 0.88764 0.65742 0.93734 0.0
C889 C 0.8723 0.74634 1.00193 0.0
C890 C 0.23477 0.66881 0.68737 0.0
C891 C 0.24439 0.62273 0.67781 0.0
H892 H 0.22657 0.73442 0.66593 0.0
C893 C 0.25349 0.60886 0.63593 0.0
H894 H 0.2275 0.68146 0.71887 0.0
C895 C 0.25293 0.63966 0.60513 0.0
C896 C 0.24327 0.68577 0.61476 0.0
H897 H 0.26101 0.574 0.62673 0.0
H898 H 0.26005 0.62717 0.57355 0.0
C899 C 0.23423 0.69953 0.65665 0.0
C900 C 0.36626 0.11989 0.43242 0.0
C901 C 0.34799 0.10581 0.45194 0.0
H902 H 0.40669 0.12144 0.43483 0.0
C903 C 0.35553 0.08585 0.49182 0.0
H904 H 0.36075 0.13584 0.40184 0.0
C905 C 0.38182 0.07747 0.51065 0.0
C906 C 0.40094 0.08936 0.49018 0.0
H907 H 0.34193 0.07449 0.50751 0.0
H908 H 0.38774 0.06 0.54054 0.0
C909 C 0.3924 0.11203 0.45149 0.0
C910 C 0.81839 0.96714 0.11584 0.0
C911 C 0.81889 0.93295 0.14127 0.0
H912 H 0.84167 1.0003 0.09488 0.0
C913 C 0.84358 0.90665 0.16691 0.0
H914 H 0.79947 0.98818 0.09608 0.0
C915 C 0.86786 0.91316 0.16591 0.0
C916 C 0.86788 0.94623 0.13935 0.0
H917 H 0.84478 0.87954 0.18633 0.0
H918 H 0.88711 0.89095 0.18465 0.0
C919 C 0.8426 0.97386 0.11502 0.0
C920 C 0.66245 0.09353 0.44229 0.0
C921 C 0.66194 0.12945 0.41969 0.0
H922 H 0.63887 0.05991 0.46019 0.0
C923 C 0.63682 0.15846 0.39569 0.0
H924 H 0.6817 0.07031 0.4606 0.0
C925 C 0.61215 0.15282 0.39573 0.0
C926 C 0.61219 0.11798 0.41969 0.0
H927 H 0.6357 0.18678 0.37837 0.0
H928 H 0.59262 0.17688 0.37835 0.0
C929 C 0.63788 0.08776 0.44219 0.0
C930 C 0.85061 0.42442 0.2424 0.0
C931 C 0.83414 0.43649 0.28007 0.0
H932 H 0.89355 0.38505 0.21272 0.0
C933 C 0.84909 0.41627 0.3175 0.0
H934 H 0.83974 0.43942 0.21308 0.0
C935 C 0.87978 0.38414 0.31715 0.0
C936 C 0.89629 0.37262 0.27952 0.0
H937 H 0.83695 0.42466 0.34699 0.0
H938 H 0.89068 0.36893 0.34641 0.0
C939 C 0.88141 0.39335 0.24221 0.0
C940 C 0.11094 0.65501 0.38997 0.0
C941 C 0.10961 0.62392 0.41775 0.0
H942 H 0.13593 0.68511 0.36812 0.0
C943 C 0.13426 0.59633 0.4431 0.0
H944 H 0.0922 0.67695 0.37029 0.0
C945 C 0.15931 0.60089 0.44178 0.0
C946 C 0.16025 0.63304 0.415 0.0
H947 H 0.13415 0.57131 0.46415 0.0
H948 H 0.17782 0.57966 0.4621 0.0
C949 C 0.13603 0.65953 0.38861 0.0
C950 C 0.63196 0.13083 0.74238 0.0
C951 C 0.64666 0.11841 0.78097 0.0
H952 H 0.59067 0.17356 0.71045 0.0
C953 C 0.63036 0.13944 0.81763 0.0
H954 H 0.64414 0.11537 0.71362 0.0
C955 C 0.5998 0.17157 0.8159 0.0
C956 C 0.58521 0.18462 0.77733 0.0
H957 H 0.64118 0.13054 0.84773 0.0
H958 H 0.58759 0.1867 0.84471 0.0
C959 C 0.60156 0.16431 0.7405 0.0
C960 C 0.75468 0.64667 0.19786 0.0
C961 C 0.7444 0.61657 0.18847 0.0
H962 H 0.7634 0.69903 0.17626 0.0
C963 C 0.73511 0.61769 0.14692 0.0
H964 H 0.76205 0.6474 0.22915 0.0
C965 C 0.73597 0.64743 0.11633 0.0
C966 C 0.74614 0.67765 0.12568 0.0
H967 H 0.72697 0.5955 0.13782 0.0
H968 H 0.72839 0.64683 0.08514 0.0
C969 C 0.75548 0.67655 0.16721 0.0
C970 C 0.89272 0.60864 0.45052 0.0
C971 C 0.90161 0.5885 0.49027 0.0
H972 H 0.86035 0.63064 0.40209 0.0
C973 C 0.88248 0.57855 0.51333 0.0
H974 H 0.90679 0.61705 0.43198 0.0
C975 C 0.85588 0.5862 0.496 0.0
C976 C 0.8479 0.60391 0.45529 0.0
H977 H 0.88868 0.56279 0.54394 0.0
H978 H 0.84233 0.5761 0.51369 0.0
C979 C 0.86619 0.6162 0.43322 0.0
C980 C 0.11615 0.43785 0.62305 0.0
C981 C 0.13497 0.45013 0.60235 0.0
H982 H 0.07497 0.43834 0.622 0.0
C983 C 0.12742 0.46927 0.56212 0.0
H984 H 0.12158 0.4227 0.65396 0.0
C985 C 0.10085 0.47828 0.54392 0.0
C986 C 0.08131 0.46801 0.56536 0.0
H987 H 0.14132 0.47949 0.54552 0.0
H988 H 0.09509 0.49494 0.51364 0.0
C989 C 0.08964 0.44642 0.60459 0.0
C990 C 0.62336 0.80602 0.11269 0.0
C991 C 0.59974 0.82238 0.08457 0.0
H992 H 0.66808 0.78884 0.12303 0.0
C993 C 0.60356 0.83394 0.04362 0.0
H994 H 0.62078 0.79742 0.14457 0.0
C995 C 0.63102 0.82851 0.03094 0.0
C996 C 0.65441 0.81293 0.05958 0.0
H997 H 0.58544 0.84688 1.0216 0.0
H998 H 0.6338 0.83715 0.99919 0.0
C999 C 0.6503 0.80166 0.10045 0.0
C1000 C 0.62503 0.43739 0.09972 0.0
C1001 C 0.63659 0.46497 0.0871 0.0
H1002 H 0.58927 0.42426 0.09537 0.0
C1003 C 0.62149 0.49869 0.05646 0.0
H1004 H 0.636 0.41141 0.12355 0.0
C1005 C 0.59474 0.50585 0.04002 0.0
C1006 C 0.58238 0.47984 0.05437 0.0
H1007 H 0.63 0.52021 0.04592 0.0
H1008 H 0.58306 0.53326 1.01762 0.0
C1009 C 0.59817 0.44489 0.08369 0.0
C1010 C 0.36422 0.43979 0.10237 0.0
C1011 C 0.38714 0.41448 0.13099 0.0
H1012 H 0.32165 0.45591 0.0796 0.0
C1013 C 0.38365 0.38666 0.16046 0.0
H1014 H 0.36589 0.46247 0.07999 0.0
C1015 C 0.35813 0.38313 0.16037 0.0
C1016 C 0.33569 0.40738 0.13084 0.0
H1017 H 0.40098 0.36668 0.1828 0.0
H1018 H 0.35645 0.36024 0.18247 0.0
C1019 C 0.33881 0.43624 0.10227 0.0
C1020 C 0.10081 0.17206 0.23778 0.0
C1021 C 0.0847 0.18707 0.27569 0.0
H1022 H 0.14322 0.12887 0.20784 0.0
C1023 C 0.10004 0.16931 0.31338 0.0
H1024 H 0.08967 0.18486 0.2082 0.0
C1025 C 0.1308 0.13777 0.3132 0.0
C1026 C 0.14686 0.1224 0.27531 0.0
H1027 H 0.08834 0.18015 0.34315 0.0
H1028 H 0.14195 0.12511 0.34279 0.0
C1029 C 0.13147 0.13973 0.23758 0.0
C1030 C 0.2461 0.41212 0.93929 0.0
C1031 C 0.23585 0.382 0.92992 0.0
H1032 H 0.25506 0.46414 0.91779 0.0
C1033 C 0.22628 0.38338 0.88849 0.0
H1034 H 0.25386 0.41247 0.97041 0.0
C1035 C 0.22693 0.41343 0.85794 0.0
C1036 C 0.2373 0.44343 0.8673 0.0
H1037 H 0.21827 0.36101 0.87945 0.0
H1038 H 0.21939 0.41289 0.82672 0.0
C1039 C 0.24684 0.44203 0.90875 0.0
C1040 C 0.3301 0.26653 0.96066 0.0
C1041 C 0.32696 0.2495 0.99925 0.0
H1042 H 0.35886 0.27565 0.91901 0.0
C1043 C 0.35091 0.22998 1.0271 0.0
H1044 H 0.31175 0.28254 0.93896 0.0
C1045 C 0.37822 0.2256 1.01537 0.0
C1046 C 0.3813 0.2422 0.97639 0.0
H1047 H 0.34877 0.217 0.05717 0.0
H1048 H 0.39694 0.20893 0.03636 0.0
C1049 C 0.35689 0.26324 0.9495 0.0
C1050 C 0.38526 0.61474 0.97106 0.0
C1051 C 0.40091 0.57847 0.99928 0.0
H1052 H 0.34771 0.6496 0.9307 0.0
C1053 C 0.38844 0.55192 1.01147 0.0
H1054 H 0.39421 0.63581 0.96095 0.0
C1055 C 0.36185 0.55979 0.9941 0.0
C1056 C 0.34699 0.59453 0.9643 0.0
H1057 H 0.39972 0.52386 0.03337 0.0
H1058 H 0.35324 0.538 1.00335 0.0
C1059 C 0.35855 0.62271 0.95379 0.0
C1060 C 0.64398 0.61963 0.95038 0.0
C1061 C 0.64668 0.64915 0.92215 0.0
H1062 H 0.61746 0.59226 0.97229 0.0
C1063 C 0.62427 0.67291 0.89244 0.0
H1064 H 0.66115 0.60029 0.97314 0.0
C1065 C 0.59908 0.66852 0.89207 0.0
C1066 C 0.5959 0.64031 0.92142 0.0
H1067 H 0.62566 0.69623 0.87055 0.0
H1068 H 0.58167 0.68837 0.86979 0.0
C1069 C 0.61891 0.6152 0.94998 0.0
C1070 C 0.88014 0.88117 0.81625 0.0
C1071 C 0.89704 0.87265 0.77925 0.0
H1072 H 0.83701 0.91949 0.84581 0.0
C1073 C 0.88255 0.89645 0.74269 0.0
H1074 H 0.89074 0.86353 0.84494 0.0
C1075 C 0.85175 0.92757 0.74294 0.0
C1076 C 0.83492 0.93668 0.78007 0.0
H1077 H 0.895 0.8905 0.71369 0.0
H1078 H 0.84115 0.94499 0.71419 0.0
C1079 C 0.84947 0.91341 0.8168 0.0
C1080 C 0.50146 0.18438 0.64083 0.0
C1081 C 0.49112 0.18637 0.68239 0.0
H1082 H 0.50896 0.15477 0.57917 0.0
C1083 C 0.47984 0.1573 0.69187 0.0
H1084 H 0.51036 0.20577 0.63162 0.0
C1085 C 0.47896 0.12781 0.66142 0.0
C1086 C 0.4893 0.12581 0.61986 0.0
H1087 H 0.47158 0.15725 0.72311 0.0
H1088 H 0.47014 0.10633 0.67067 0.0
C1089 C 0.5006 0.15484 0.61038 0.0
C1090 C 0.49616 0.36 0.91551 0.0
C1091 C 0.4928 0.3709 0.87233 0.0
H1092 H 0.49932 0.37957 0.97844 0.0
C1093 C 0.49014 0.41315 0.86115 0.0
H1094 H 0.49828 0.32816 0.92609 0.0
C1095 C 0.49073 0.44296 0.89153 0.0
C1096 C 0.49412 0.43205 0.9347 0.0
H1097 H 0.48751 0.42347 0.82864 0.0
H1098 H 0.48847 0.47488 0.88094 0.0
C1099 C 0.49683 0.38976 0.9459 0.0
C1100 C 0.49298 0.86186 0.41672 0.0
C1101 C 0.49095 0.87178 0.37334 0.0
H1102 H 0.49509 0.88228 0.47979 0.0
C1103 C 0.48951 0.91312 0.36199 0.0
H1104 H 0.49414 0.83074 0.42744 0.0
C1105 C 0.49005 0.94297 0.39234 0.0
C1106 C 0.49215 0.93305 0.43571 0.0
H1107 H 0.48792 0.92268 0.32934 0.0
H1108 H 0.48881 0.97414 0.38157 0.0
C1109 C 0.49359 0.89171 0.44711 0.0
C1110 C 0.4814 0.62441 0.16288 0.0
C1111 C 0.48937 0.62529 0.12053 0.0
H1112 H 0.47551 0.65197 0.22517 0.0
C1113 C 0.49803 0.65741 0.11023 0.0
H1114 H 0.47464 0.60051 0.17274 0.0
C1115 C 0.49871 0.68706 0.14069 0.0
C1116 C 0.49063 0.68629 0.18302 0.0
H1117 H 0.50451 0.65963 0.07838 0.0
H1118 H 0.50556 0.71085 0.13084 0.0
C1119 C 0.48193 0.65423 0.1933 0.0
loop_
_geom_bond_atom_site_label_1
_geom_bond_atom_site_label_2
_geom_bond_distance
_geom_bond_site_symmetry_2
_ccdc_geom_bond_type
Dy0 O3 2.307 1_655 S
Dy0 O5 2.395 . S
Dy0 O6 2.379 . S
Dy0 O8 2.339 1_565 S
Dy0 O10 2.298 1_564 S
Dy0 O14 2.275 1_654 S
Dy0 C22 2.738 . S
Dy1 O4 2.298 1_546 S
Dy1 O7 2.275 1_456 S
Dy1 O9 2.307 1_455 S
Dy1 O11 2.395 . S
Dy1 O12 2.379 . S
Dy1 O15 2.339 1_545 S
Dy1 C31 2.738 . S
C2 O14 1.254 . S
C2 O15 1.257 . S
O3 Dy0 2.307 1_455 S
O3 C13 1.266 . S
O4 Dy1 2.298 1_564 S
O4 C13 1.236 . S
O5 Dy0 2.395 . S
O5 C22 1.255 . S
O6 Dy0 2.379 . S
O6 C22 1.249 . S
O7 Dy1 2.275 1_654 S
O7 C23 1.254 . S
O8 Dy0 2.339 1_545 S
O8 C23 1.257 . S
O9 Dy1 2.307 1_655 S
O9 C24 1.266 . S
O10 Dy0 2.298 1_546 S
O10 C24 1.236 . S
O11 Dy1 2.395 . S
O11 C31 1.255 . S
O12 Dy1 2.379 . S
O12 C31 1.249 . S
C13 O3 1.266 . S
C13 O4 1.236 . S
O14 Dy0 2.275 1_456 S
O14 C2 1.254 . S
O15 Dy1 2.339 1_565 S
O15 C2 1.257 . S
C16 C19 1.344 . S
C16 C20 1.328 . S
C16 C22 1.516 . S
C17 C18 1.304 . S
C17 C21 1.323 . S
C18 C17 1.304 . S
C18 C19 1.371 . S
C18 H32 0.930 . S
C19 C16 1.344 . S
C19 C18 1.371 . S
C19 H33 0.931 1_554 S
C20 C16 1.328 . S
C20 C21 1.433 . S
C20 H34 0.931 . S
C21 C17 1.323 . S
C21 C20 1.433 . S
C21 H35 0.933 . S
C22 Dy0 2.738 . S
C22 O5 1.255 . S
C22 O6 1.249 . S
C22 C16 1.516 . S
C23 O7 1.254 . S
C23 O8 1.257 . S
C24 O9 1.266 . S
C24 O10 1.236 . S
C25 C28 1.344 . S
C25 C29 1.328 . S
C25 C31 1.516 . S
C26 C27 1.304 . S
C26 C30 1.323 . S
C27 C26 1.304 . S
C27 C28 1.371 . S
C27 H36 0.930 . S
C28 C25 1.344 . S
C28 C27 1.371 . S
C28 H37 0.931 1_556 S
C29 C25 1.328 . S
C29 C30 1.433 . S
C29 H38 0.931 . S
C30 C26 1.323 . S
C30 C29 1.433 . S
C30 H39 0.933 . S
C31 Dy1 2.738 . S
C31 O11 1.255 . S
C31 O12 1.249 . S
C31 C25 1.516 . S
H32 C18 0.930 . S
H33 C19 0.931 1_556 S
H34 C20 0.931 . S
H35 C21 0.933 . S
H36 C27 0.930 . S
H37 C28 0.931 1_554 S
H38 C29 0.931 . S
H39 C30 0.933 . S
Dy40 O43 2.303 1_655 S
Dy40 O45 2.395 . S
Dy40 O46 2.379 . S
Dy40 O48 2.339 1_655 S
Dy40 O50 2.298 . S
Dy40 O54 2.275 . S
Dy40 C62 2.738 . S
Dy41 O44 2.298 . S
Dy41 O47 2.275 . S
Dy41 O49 2.307 . S
Dy41 O51 2.395 . S
Dy41 O52 2.379 . S
Dy41 O55 2.339 1_455 S
Dy41 C71 2.738 . S
C42 O54 1.254 . S
C42 O55 1.257 . S
O43 Dy40 2.303 1_455 S
O43 C53 1.284 . S
O44 Dy41 2.298 . S
O44 C53 1.236 . S
O45 Dy40 2.395 . S
O45 C62 1.255 . S
O46 Dy40 2.379 . S
O46 C62 1.249 . S
O47 Dy41 2.275 . S
O47 C63 1.254 . S
O48 Dy40 2.339 1_455 S
O48 C63 1.257 . S
O49 Dy41 2.307 . S
O49 C64 1.266 1_455 S
O50 Dy40 2.298 . S
O50 C64 1.236 . S
O51 Dy41 2.395 . S
O51 C71 1.255 . S
O52 Dy41 2.379 . S
O52 C71 1.249 . S
C53 O43 1.284 . S
C53 O44 1.236 . S
O54 Dy40 2.275 . S
O54 C42 1.254 . S
O55 Dy41 2.339 1_655 S
O55 C42 1.257 . S
C56 C59 1.344 . S
C56 C60 1.328 . S
C56 C62 1.516 . S
C57 C58 1.304 . S
C57 C61 1.323 . S
C58 C57 1.304 . S
C58 C59 1.371 . S
C58 H72 0.930 . S
C59 C56 1.344 . S
C59 C58 1.371 . S
C59 H73 0.931 . S
C60 C56 1.328 . S
C60 C61 1.433 . S
C60 H74 0.931 . S
C61 C57 1.323 . S
C61 C60 1.433 . S
C61 H75 0.933 . S
C62 Dy40 2.738 . S
C62 O45 1.255 . S
C62 O46 1.249 . S
C62 C56 1.516 . S
C63 O47 1.254 . S
C63 O48 1.257 . S
C64 O49 1.266 1_655 S
C64 O50 1.236 . S
C65 C68 1.344 . S
C65 C69 1.328 . S
C65 C71 1.516 . S
C66 C67 1.304 . S
C66 C70 1.323 . S
C67 C66 1.304 . S
C67 C68 1.371 . S
C67 H76 0.930 . S
C68 C65 1.344 . S
C68 C67 1.371 . S
C68 H77 0.931 . S
C69 C65 1.328 . S
C69 C70 1.433 . S
C69 H78 0.931 . S
C70 C66 1.323 . S
C70 C69 1.433 . S
C70 H79 0.933 . S
C71 Dy41 2.738 . S
C71 O51 1.255 . S
C71 O52 1.249 . S
C71 C65 1.516 . S
H72 C58 0.930 . S
H73 C59 0.931 . S
H74 C60 0.931 . S
H75 C61 0.933 . S
H76 C67 0.930 . S
H77 C68 0.931 . S
H78 C69 0.931 . S
H79 C70 0.933 . S
Dy80 O83 2.307 . S
Dy80 O85 2.395 . S
Dy80 O86 2.379 . S
Dy80 O88 2.339 . S
Dy80 O90 2.298 . S
Dy80 O94 2.275 . S
Dy80 C102 2.738 . S
Dy81 O84 2.298 . S
Dy81 O87 2.275 . S
Dy81 O89 2.307 . S
Dy81 O91 2.395 . S
Dy81 O92 2.379 . S
Dy81 O95 2.339 . S
Dy81 C111 2.738 . S
C82 O94 1.254 . S
C82 O95 1.257 . S
O83 Dy80 2.307 . S
O83 C93 1.266 . S
O84 Dy81 2.298 . S
O84 C93 1.236 . S
O85 Dy80 2.395 . S
O85 C102 1.255 . S
O86 Dy80 2.379 . S
O86 C102 1.249 . S
O87 Dy81 2.275 . S
O87 C103 1.254 . S
O88 Dy80 2.339 . S
O88 C103 1.257 . S
O89 Dy81 2.307 . S
O89 C104 1.266 . S
O90 Dy80 2.298 . S
O90 C104 1.236 . S
O91 Dy81 2.395 . S
O91 C111 1.255 . S
O92 Dy81 2.379 . S
O92 C111 1.249 . S
C93 O83 1.266 . S
C93 O84 1.236 . S
O94 Dy80 2.275 . S
O94 C82 1.254 . S
O95 Dy81 2.339 . S
O95 C82 1.257 . S
C96 C99 1.344 . S
C96 C100 1.328 . S
C96 C102 1.516 . S
C97 C98 1.304 . S
C97 C101 1.323 . S
C98 C97 1.304 . S
C98 C99 1.371 . S
C98 H112 0.930 . S
C99 C96 1.344 . S
C99 C98 1.371 . S
C99 H113 0.931 . S
C100 C96 1.328 . S
C100 C101 1.433 . S
C100 H114 0.931 . S
C101 C97 1.323 . S
C101 C100 1.433 . S
C101 H115 0.933 . S
C102 Dy80 2.738 . S
C102 O85 1.255 . S
C102 O86 1.249 . S
C102 C96 1.516 . S
C103 O87 1.254 . S
C103 O88 1.257 . S
C104 O89 1.266 . S
C104 O90 1.236 . S
C105 C108 1.344 . S
C105 C109 1.328 . S
C105 C111 1.516 . S
C106 C107 1.304 . S
C106 C110 1.323 . S
C107 C106 1.304 . S
C107 C108 1.371 . S
C107 H116 0.930 . S
C108 C105 1.344 . S
C108 C107 1.371 . S
C108 H117 0.931 . S
C109 C105 1.328 . S
C109 C110 1.433 . S
C109 H118 0.931 . S
C110 C106 1.323 . S
C110 C109 1.433 . S
C110 H119 0.933 . S
C111 Dy81 2.738 . S
C111 O91 1.255 . S
C111 O92 1.249 . S
C111 C105 1.516 . S
H112 C98 0.930 . S
H113 C99 0.931 . S
H114 C100 0.931 . S
H115 C101 0.933 . S
H116 C107 0.930 . S
H117 C108 0.931 . S
H118 C109 0.931 . S
H119 C110 0.933 . S
Dy120 O123 2.307 . S
Dy120 O125 2.395 1_545 S
Dy120 O126 2.379 . S
Dy120 O128 2.339 . S
Dy120 O130 2.298 1_545 S
Dy120 O134 2.275 1_545 S
Dy120 C142 2.738 . S
Dy121 O124 2.298 1_565 S
Dy121 O127 2.275 1_565 S
Dy121 O129 2.307 . S
Dy121 O131 2.395 1_565 S
Dy121 O132 2.379 . S
Dy121 O135 2.339 . S
Dy121 C151 2.738 . S
C122 O134 1.254 . S
C122 O135 1.257 . S
O123 Dy120 2.307 . S
O123 C133 1.266 . S
O124 Dy121 2.298 1_545 S
O124 C133 1.236 . S
O125 Dy120 2.395 1_565 S
O125 C142 1.255 1_565 S
O126 Dy120 2.379 . S
O126 C142 1.249 . S
O127 Dy121 2.275 1_545 S
O127 C143 1.254 . S
O128 Dy120 2.339 . S
O128 C143 1.257 . S
O129 Dy121 2.307 . S
O129 C144 1.266 . S
O130 Dy120 2.298 1_565 S
O130 C144 1.236 . S
O131 Dy121 2.395 1_545 S
O131 C151 1.255 1_545 S
O132 Dy121 2.379 . S
O132 C151 1.249 . S
C133 O123 1.266 . S
C133 O124 1.236 . S
O134 Dy120 2.275 1_565 S
O134 C122 1.254 . S
O135 Dy121 2.339 . S
O135 C122 1.257 . S
C136 C139 1.344 1_545 S
C136 C140 1.328 . S
C136 C142 1.516 . S
C137 C138 1.304 1_545 S
C137 C141 1.323 . S
C138 C137 1.304 1_565 S
C138 C139 1.371 . S
C138 H152 0.930 . S
C139 C136 1.344 1_565 S
C139 C138 1.371 . S
C139 H153 0.931 . S
C140 C136 1.328 . S
C140 C141 1.433 . S
C140 H154 0.931 . S
C141 C137 1.323 . S
C141 C140 1.433 . S
C141 H155 0.933 . S
C142 Dy120 2.738 . S
C142 O125 1.255 1_545 S
C142 O126 1.249 . S
C142 C136 1.516 . S
C143 O127 1.254 . S
C143 O128 1.257 . S
C144 O129 1.266 . S
C144 O130 1.236 . S
C145 C148 1.344 1_565 S
C145 C149 1.328 . S
C145 C151 1.516 . S
C146 C147 1.304 1_565 S
C146 C150 1.323 . S
C147 C146 1.304 1_545 S
C147 C148 1.371 . S
C147 H156 0.930 . S
C148 C145 1.344 1_545 S
C148 C147 1.371 . S
C148 H157 0.931 . S
C149 C145 1.328 . S
C149 C150 1.433 . S
C149 H158 0.931 . S
C150 C146 1.323 . S
C150 C149 1.433 . S
C150 H159 0.933 . S
C151 Dy121 2.738 . S
C151 O131 1.255 1_565 S
C151 O132 1.249 . S
C151 C145 1.516 . S
H152 C138 0.930 . S
H153 C139 0.931 . S
H154 C140 0.931 . S
H155 C141 0.933 . S
H156 C147 0.930 . S
H157 C148 0.931 . S
H158 C149 0.931 . S
H159 C150 0.933 . S
Dy160 O163 2.307 . S
Dy160 O165 2.395 . S
Dy160 O166 2.379 . S
Dy160 O168 2.339 . S
Dy160 O170 2.298 . S
Dy160 O174 2.275 . S
Dy160 C182 2.738 . S
Dy161 O164 2.298 . S
Dy161 O167 2.275 . S
Dy161 O169 2.307 . S
Dy161 O171 2.395 . S
Dy161 O172 2.379 . S
Dy161 O175 2.339 . S
Dy161 C191 2.738 . S
C162 O174 1.254 . S
C162 O175 1.257 . S
O163 Dy160 2.307 . S
O163 C173 1.266 . S
O164 Dy161 2.298 . S
O164 C173 1.236 . S
O165 Dy160 2.395 . S
O165 C182 1.255 . S
O166 Dy160 2.379 . S
O166 C182 1.249 . S
O167 Dy161 2.275 . S
O167 C183 1.254 . S
O168 Dy160 2.339 . S
O168 C183 1.257 . S
O169 Dy161 2.307 . S
O169 C184 1.266 . S
O170 Dy160 2.298 . S
O170 C184 1.236 . S
O171 Dy161 2.395 . S
O171 C191 1.255 . S
O172 Dy161 2.379 . S
O172 C191 1.249 . S
C173 O163 1.266 . S
C173 O164 1.236 . S
O174 Dy160 2.275 . S
O174 C162 1.254 . S
O175 Dy161 2.339 . S
O175 C162 1.257 . S
C176 C179 1.344 . S
C176 C180 1.328 . S
C176 C182 1.516 . S
C177 C178 1.304 . S
C177 C181 1.323 . S
C178 C177 1.304 . S
C178 C179 1.371 . S
C178 H192 0.930 . S
C179 C176 1.344 . S
C179 C178 1.371 . S
C179 H193 0.931 . S
C180 C176 1.328 . S
C180 C181 1.433 . S
C180 H194 0.931 . S
C181 C177 1.323 . S
C181 C180 1.433 . S
C181 H195 0.933 . S
C182 Dy160 2.738 . S
C182 O165 1.255 . S
C182 O166 1.249 . S
C182 C176 1.516 . S
C183 O167 1.254 . S
C183 O168 1.257 . S
C184 O169 1.266 . S
C184 O170 1.236 . S
C185 C188 1.344 . S
C185 C189 1.328 . S
C185 C191 1.516 . S
C186 C187 1.304 . S
C186 C190 1.323 . S
C187 C186 1.304 . S
C187 C188 1.371 . S
C187 H196 0.930 . S
C188 C185 1.344 . S
C188 C187 1.371 . S
C188 H197 0.931 . S
C189 C185 1.328 . S
C189 C190 1.433 . S
C189 H198 0.931 . S
C190 C186 1.323 . S
C190 C189 1.433 . S
C190 H199 0.933 . S
C191 Dy161 2.738 . S
C191 O171 1.255 . S
C191 O172 1.249 . S
C191 C185 1.516 . S
H192 C178 0.930 . S
H193 C179 0.931 . S
H194 C180 0.931 . S
H195 C181 0.933 . S
H196 C187 0.930 . S
H197 C188 0.931 . S
H198 C189 0.931 . S
H199 C190 0.933 . S
Dy200 O203 2.307 . S
Dy200 O205 2.395 . S
Dy200 O206 2.379 . S
Dy200 O208 2.339 . S
Dy200 O210 2.298 . S
Dy200 O214 2.275 . S
Dy200 C222 2.738 . S
Dy201 O204 2.298 . S
Dy201 O207 2.275 . S
Dy201 O209 2.307 . S
Dy201 O211 2.395 . S
Dy201 O212 2.379 . S
Dy201 O215 2.339 . S
Dy201 C231 2.738 . S
C202 O214 1.254 . S
C202 O215 1.257 . S
O203 Dy200 2.307 . S
O203 C213 1.266 . S
O204 Dy201 2.298 . S
O204 C213 1.236 . S
O205 Dy200 2.395 . S
O205 C222 1.255 . S
O206 Dy200 2.379 . S
O206 C222 1.249 . S
O207 Dy201 2.275 . S
O207 C223 1.254 . S
O208 Dy200 2.339 . S
O208 C223 1.257 . S
O209 Dy201 2.307 . S
O209 C224 1.266 . S
O210 Dy200 2.298 . S
O210 C224 1.236 . S
O211 Dy201 2.395 . S
O211 C231 1.255 . S
O212 Dy201 2.379 . S
O212 C231 1.249 . S
C213 O203 1.266 . S
C213 O204 1.236 . S
O214 Dy200 2.275 . S
O214 C202 1.254 . S
O215 Dy201 2.339 . S
O215 C202 1.257 . S
C216 C219 1.344 . S
C216 C220 1.328 . S
C216 C222 1.516 . S
C217 C218 1.304 . S
C217 C221 1.323 . S
C218 C217 1.304 . S
C218 C219 1.371 . S
C218 H232 0.930 . S
C219 C216 1.344 . S
C219 C218 1.371 . S
C219 H233 0.931 . S
C220 C216 1.328 . S
C220 C221 1.433 . S
C220 H234 0.931 . S
C221 C217 1.323 . S
C221 C220 1.433 . S
C221 H235 0.933 . S
C222 Dy200 2.738 . S
C222 O205 1.255 . S
C222 O206 1.249 . S
C222 C216 1.516 . S
C223 O207 1.254 . S
C223 O208 1.257 . S
C224 O209 1.266 . S
C224 O210 1.236 . S
C225 C228 1.344 . S
C225 C229 1.328 . S
C225 C231 1.516 . S
C226 C227 1.304 . S
C226 C230 1.323 . S
C227 C226 1.304 . S
C227 C228 1.371 . S
C227 H236 0.930 . S
C228 C225 1.344 . S
C228 C227 1.371 . S
C228 H237 0.931 . S
C229 C225 1.328 . S
C229 C230 1.433 . S
C229 H238 0.931 . S
C230 C226 1.323 . S
C230 C229 1.433 . S
C230 H239 0.933 . S
C231 Dy201 2.738 . S
C231 O211 1.255 . S
C231 O212 1.249 . S
C231 C225 1.516 . S
H232 C218 0.930 . S
H233 C219 0.931 . S
H234 C220 0.931 . S
H235 C221 0.933 . S
H236 C227 0.930 . S
H237 C228 0.931 . S
H238 C229 0.931 . S
H239 C230 0.933 . S
Dy240 O243 2.307 . S
Dy240 O245 2.395 . S
Dy240 O246 2.379 . S
Dy240 O248 2.339 . S
Dy240 O250 2.298 . S
Dy240 O254 2.275 . S
Dy240 C262 2.738 . S
Dy241 O244 2.298 . S
Dy241 O247 2.275 . S
Dy241 O249 2.307 . S
Dy241 O251 2.395 . S
Dy241 O252 2.379 . S
Dy241 O255 2.339 . S
Dy241 C271 2.738 . S
C242 O254 1.254 . S
C242 O255 1.257 . S
O243 Dy240 2.307 . S
O243 C253 1.266 . S
O244 Dy241 2.298 . S
O244 C253 1.236 . S
O245 Dy240 2.395 . S
O245 C262 1.255 . S
O246 Dy240 2.379 . S
O246 C262 1.249 . S
O247 Dy241 2.275 . S
O247 C263 1.254 . S
O248 Dy240 2.339 . S
O248 C263 1.257 . S
O249 Dy241 2.307 . S
O249 C264 1.266 . S
O250 Dy240 2.298 . S
O250 C264 1.236 . S
O251 Dy241 2.395 . S
O251 C271 1.255 . S
O252 Dy241 2.379 . S
O252 C271 1.249 . S
C253 O243 1.266 . S
C253 O244 1.236 . S
O254 Dy240 2.275 . S
O254 C242 1.254 . S
O255 Dy241 2.339 . S
O255 C242 1.257 . S
C256 C259 1.344 . S
C256 C260 1.328 . S
C256 C262 1.516 . S
C257 C258 1.304 . S
C257 C261 1.323 . S
C258 C257 1.304 . S
C258 C259 1.371 . S
C258 H272 0.930 . S
C259 C256 1.344 . S
C259 C258 1.371 . S
C259 H273 0.931 . S
C260 C256 1.328 . S
C260 C261 1.433 . S
C260 H274 0.931 . S
C261 C257 1.323 . S
C261 C260 1.433 . S
C261 H275 0.933 . S
C262 Dy240 2.738 . S
C262 O245 1.255 . S
C262 O246 1.249 . S
C262 C256 1.516 . S
C263 O247 1.254 . S
C263 O248 1.257 . S
C264 O249 1.266 . S
C264 O250 1.236 . S
C265 C268 1.344 . S
C265 C269 1.328 . S
C265 C271 1.516 . S
C266 C267 1.304 . S
C266 C270 1.323 . S
C267 C266 1.304 . S
C267 C268 1.371 . S
C267 H276 0.930 . S
C268 C265 1.344 . S
C268 C267 1.371 . S
C268 H277 0.931 . S
C269 C265 1.328 . S
C269 C270 1.433 . S
C269 H278 0.931 . S
C270 C266 1.323 . S
C270 C269 1.433 . S
C270 H279 0.933 . S
C271 Dy241 2.738 . S
C271 O251 1.255 . S
C271 O252 1.249 . S
C271 C265 1.516 . S
H272 C258 0.930 . S
H273 C259 0.931 . S
H274 C260 0.931 . S
H275 C261 0.933 . S
H276 C267 0.930 . S
H277 C268 0.931 . S
H278 C269 0.931 . S
H279 C270 0.933 . S
Dy280 O283 2.307 1_655 S
Dy280 O285 2.395 . S
Dy280 O286 2.379 . S
Dy280 O288 2.339 . S
Dy280 O290 2.298 . S
Dy280 O294 2.275 1_655 S
Dy280 C302 2.738 . S
Dy281 O284 2.298 . S
Dy281 O287 2.275 1_455 S
Dy281 O289 2.307 1_455 S
Dy281 O291 2.395 . S
Dy281 O292 2.379 . S
Dy281 O295 2.339 . S
Dy281 C311 2.738 . S
C282 O294 1.254 . S
C282 O295 1.257 . S
O283 Dy280 2.307 1_455 S
O283 C293 1.266 . S
O284 Dy281 2.298 . S
O284 C293 1.236 . S
O285 Dy280 2.395 . S
O285 C302 1.255 . S
O286 Dy280 2.379 . S
O286 C302 1.249 . S
O287 Dy281 2.275 1_655 S
O287 C303 1.254 . S
O288 Dy280 2.339 . S
O288 C303 1.257 . S
O289 Dy281 2.307 1_655 S
O289 C304 1.266 . S
O290 Dy280 2.298 . S
O290 C304 1.236 . S
O291 Dy281 2.395 . S
O291 C311 1.255 . S
O292 Dy281 2.379 . S
O292 C311 1.249 . S
C293 O283 1.266 . S
C293 O284 1.236 . S
O294 Dy280 2.275 1_455 S
O294 C282 1.254 . S
O295 Dy281 2.339 . S
O295 C282 1.257 . S
C296 C299 1.344 . S
C296 C300 1.328 . S
C296 C302 1.516 . S
C297 C298 1.304 . S
C297 C301 1.323 . S
C298 C297 1.304 . S
C298 C299 1.371 . S
C298 H312 0.930 . S
C299 C296 1.344 . S
C299 C298 1.371 . S
C299 H313 0.931 . S
C300 C296 1.328 . S
C300 C301 1.433 . S
C300 H314 0.931 . S
C301 C297 1.323 . S
C301 C300 1.433 . S
C301 H315 0.933 . S
C302 Dy280 2.738 . S
C302 O285 1.255 . S
C302 O286 1.249 . S
C302 C296 1.516 . S
C303 O287 1.254 . S
C303 O288 1.257 . S
C304 O289 1.266 . S
C304 O290 1.236 . S
C305 C308 1.344 . S
C305 C309 1.328 . S
C305 C311 1.516 . S
C306 C307 1.304 . S
C306 C310 1.323 . S
C307 C306 1.304 . S
C307 C308 1.371 . S
C307 H316 0.930 . S
C308 C305 1.344 . S
C308 C307 1.371 . S
C308 H317 0.931 . S
C309 C305 1.328 . S
C309 C310 1.433 . S
C309 H318 0.931 . S
C310 C306 1.323 . S
C310 C309 1.433 . S
C310 H319 0.933 . S
C311 Dy281 2.738 . S
C311 O291 1.255 . S
C311 O292 1.249 . S
C311 C305 1.516 . S
H312 C298 0.930 . S
H313 C299 0.931 . S
H314 C300 0.931 . S
H315 C301 0.933 . S
H316 C307 0.930 . S
H317 C308 0.931 . S
H318 C309 0.931 . S
H319 C310 0.933 . S
Dy320 O323 2.307 . S
Dy320 O325 2.395 . S
Dy320 O326 2.379 . S
Dy320 O328 2.339 . S
Dy320 O330 2.298 1_556 S
Dy320 O334 2.275 1_556 S
Dy320 C342 2.738 . S
Dy321 O324 2.298 1_554 S
Dy321 O327 2.275 1_554 S
Dy321 O329 2.307 . S
Dy321 O331 2.395 . S
Dy321 O332 2.379 . S
Dy321 O335 2.339 . S
Dy321 C351 2.738 . S
C322 O334 1.254 . S
C322 O335 1.257 . S
O323 Dy320 2.307 . S
O323 C333 1.266 . S
O324 Dy321 2.298 1_556 S
O324 C333 1.236 . S
O325 Dy320 2.395 . S
O325 C342 1.255 . S
O326 Dy320 2.379 . S
O326 C342 1.249 . S
O327 Dy321 2.275 1_556 S
O327 C343 1.254 . S
O328 Dy320 2.339 . S
O328 C343 1.257 . S
O329 Dy321 2.307 . S
O329 C344 1.266 . S
O330 Dy320 2.298 1_554 S
O330 C344 1.236 . S
O331 Dy321 2.395 . S
O331 C351 1.255 . S
O332 Dy321 2.379 . S
O332 C351 1.249 . S
C333 O323 1.266 . S
C333 O324 1.236 . S
O334 Dy320 2.275 1_554 S
O334 C322 1.254 . S
O335 Dy321 2.339 . S
O335 C322 1.257 . S
C336 C339 1.344 . S
C336 C340 1.328 . S
C336 C342 1.516 . S
C337 C338 1.304 . S
C337 C341 1.323 . S
C338 C337 1.304 . S
C338 C339 1.371 . S
C338 H352 0.930 . S
C339 C336 1.344 . S
C339 C338 1.371 . S
C339 H353 0.931 1_556 S
C340 C336 1.328 . S
C340 C341 1.433 . S
C340 H354 0.931 . S
C341 C337 1.323 . S
C341 C340 1.433 . S
C341 H355 0.933 . S
C342 Dy320 2.738 . S
C342 O325 1.255 . S
C342 O326 1.249 . S
C342 C336 1.516 . S
C343 O327 1.254 . S
C343 O328 1.257 . S
C344 O329 1.266 . S
C344 O330 1.236 . S
C345 C348 1.344 . S
C345 C349 1.328 . S
C345 C351 1.516 . S
C346 C347 1.304 . S
C346 C350 1.323 . S
C347 C346 1.304 . S
C347 C348 1.371 . S
C347 H356 0.930 . S
C348 C345 1.344 . S
C348 C347 1.371 . S
C348 H357 0.931 1_554 S
C349 C345 1.328 . S
C349 C350 1.433 . S
C349 H358 0.931 . S
C350 C346 1.323 . S
C350 C349 1.433 . S
C350 H359 0.933 . S
C351 Dy321 2.738 . S
C351 O331 1.255 . S
C351 O332 1.249 . S
C351 C345 1.516 . S
H352 C338 0.930 . S
H353 C339 0.931 1_554 S
H354 C340 0.931 . S
H355 C341 0.933 . S
H356 C347 0.930 . S
H357 C348 0.931 1_556 S
H358 C349 0.931 . S
H359 C350 0.933 . S
Dy360 O363 2.307 . S
Dy360 O365 2.395 1_545 S
Dy360 O366 2.379 . S
Dy360 O368 2.339 . S
Dy360 O370 2.298 1_545 S
Dy360 O374 2.275 1_545 S
Dy360 C382 2.738 . S
Dy361 O364 2.298 1_565 S
Dy361 O367 2.275 1_565 S
Dy361 O369 2.307 . S
Dy361 O371 2.395 1_565 S
Dy361 O372 2.379 . S
Dy361 O375 2.339 . S
Dy361 C391 2.738 . S
C362 O374 1.254 . S
C362 O375 1.257 . S
O363 Dy360 2.307 . S
O363 C373 1.266 . S
O364 Dy361 2.298 1_545 S
O364 C373 1.236 . S
O365 Dy360 2.395 1_565 S
O365 C382 1.255 1_565 S
O366 Dy360 2.379 . S
O366 C382 1.249 . S
O367 Dy361 2.275 1_545 S
O367 C383 1.254 . S
O368 Dy360 2.339 . S
O368 C383 1.257 . S
O369 Dy361 2.307 . S
O369 C384 1.266 . S
O370 Dy360 2.298 1_565 S
O370 C384 1.236 . S
O371 Dy361 2.395 1_545 S
O371 C391 1.255 1_545 S
O372 Dy361 2.379 . S
O372 C391 1.249 . S
C373 O363 1.266 . S
C373 O364 1.236 . S
O374 Dy360 2.275 1_565 S
O374 C362 1.254 . S
O375 Dy361 2.339 . S
O375 C362 1.257 . S
C376 C379 1.344 1_545 S
C376 C380 1.328 . S
C376 C382 1.516 . S
C377 C378 1.304 1_545 S
C377 C381 1.323 . S
C378 C377 1.304 1_565 S
C378 C379 1.371 . S
C378 H392 0.930 . S
C379 C376 1.344 1_565 S
C379 C378 1.371 . S
C379 H393 0.931 . S
C380 C376 1.328 . S
C380 C381 1.433 . S
C380 H394 0.931 . S
C381 C377 1.323 . S
C381 C380 1.433 . S
C381 H395 0.933 . S
C382 Dy360 2.738 . S
C382 O365 1.255 1_545 S
C382 O366 1.249 . S
C382 C376 1.516 . S
C383 O367 1.254 . S
C383 O368 1.257 . S
C384 O369 1.266 . S
C384 O370 1.236 . S
C385 C388 1.344 1_565 S
C385 C389 1.328 . S
C385 C391 1.516 . S
C386 C387 1.304 1_565 S
C386 C390 1.323 . S
C387 C386 1.304 1_545 S
C387 C388 1.371 . S
C387 H396 0.930 . S
C388 C385 1.344 1_545 S
C388 C387 1.371 . S
C388 H397 0.931 . S
C389 C385 1.328 . S
C389 C390 1.433 . S
C389 H398 0.931 . S
C390 C386 1.323 . S
C390 C389 1.433 . S
C390 H399 0.933 . S
C391 Dy361 2.738 . S
C391 O371 1.255 1_565 S
C391 O372 1.249 . S
C391 C385 1.516 . S
H392 C378 0.930 . S
H393 C379 0.931 . S
H394 C380 0.931 . S
H395 C381 0.933 . S
H396 C387 0.930 . S
H397 C388 0.931 . S
H398 C389 0.931 . S
H399 C390 0.933 . S
Dy400 O403 2.307 . S
Dy400 O405 2.395 . S
Dy400 O406 2.379 . S
Dy400 O408 2.339 . S
Dy400 O410 2.298 . S
Dy400 O414 2.275 . S
Dy400 C422 2.738 . S
Dy401 O404 2.298 . S
Dy401 O407 2.275 . S
Dy401 O409 2.307 . S
Dy401 O411 2.395 . S
Dy401 O412 2.379 . S
Dy401 O415 2.339 . S
Dy401 C431 2.738 . S
C402 O414 1.254 . S
C402 O415 1.257 . S
O403 Dy400 2.307 . S
O403 C413 1.266 . S
O404 Dy401 2.298 . S
O404 C413 1.236 . S
O405 Dy400 2.395 . S
O405 C422 1.255 . S
O406 Dy400 2.379 . S
O406 C422 1.249 . S
O407 Dy401 2.275 . S
O407 C423 1.254 . S
O408 Dy400 2.339 . S
O408 C423 1.257 . S
O409 Dy401 2.307 . S
O409 C424 1.266 . S
O410 Dy400 2.298 . S
O410 C424 1.236 . S
O411 Dy401 2.395 . S
O411 C431 1.255 . S
O412 Dy401 2.379 . S
O412 C431 1.249 . S
C413 O403 1.266 . S
C413 O404 1.236 . S
O414 Dy400 2.275 . S
O414 C402 1.254 . S
O415 Dy401 2.339 . S
O415 C402 1.257 . S
C416 C419 1.344 . S
C416 C420 1.328 . S
C416 C422 1.516 . S
C417 C418 1.304 . S
C417 C421 1.323 . S
C418 C417 1.304 . S
C418 C419 1.371 . S
C418 H432 0.930 . S
C419 C416 1.344 . S
C419 C418 1.371 . S
C419 H433 0.931 . S
C420 C416 1.328 . S
C420 C421 1.433 . S
C420 H434 0.931 . S
C421 C417 1.323 . S
C421 C420 1.433 . S
C421 H435 0.933 . S
C422 Dy400 2.738 . S
C422 O405 1.255 . S
C422 O406 1.249 . S
C422 C416 1.516 . S
C423 O407 1.254 . S
C423 O408 1.257 . S
C424 O409 1.266 . S
C424 O410 1.236 . S
C425 C428 1.344 . S
C425 C429 1.328 . S
C425 C431 1.516 . S
C426 C427 1.304 . S
C426 C430 1.323 . S
C427 C426 1.304 . S
C427 C428 1.371 . S
C427 H436 0.930 . S
C428 C425 1.344 . S
C428 C427 1.371 . S
C428 H437 0.931 . S
C429 C425 1.328 . S
C429 C430 1.433 . S
C429 H438 0.931 . S
C430 C426 1.323 . S
C430 C429 1.433 . S
C430 H439 0.933 . S
C431 Dy401 2.738 . S
C431 O411 1.255 . S
C431 O412 1.249 . S
C431 C425 1.516 . S
H432 C418 0.930 . S
H433 C419 0.931 . S
H434 C420 0.931 . S
H435 C421 0.933 . S
H436 C427 0.930 . S
H437 C428 0.931 . S
H438 C429 0.931 . S
H439 C430 0.933 . S
Dy440 O443 2.303 1_655 S
Dy440 O445 2.395 . S
Dy440 O446 2.379 . S
Dy440 O448 2.339 1_655 S
Dy440 O450 2.298 . S
Dy440 O454 2.275 . S
Dy440 C462 2.738 . S
Dy441 O444 2.298 . S
Dy441 O447 2.275 . S
Dy441 O449 2.307 . S
Dy441 O451 2.395 . S
Dy441 O452 2.379 . S
Dy441 O455 2.339 1_455 S
Dy441 C471 2.738 . S
C442 O454 1.254 . S
C442 O455 1.257 . S
O443 Dy440 2.303 1_455 S
O443 C453 1.284 . S
O444 Dy441 2.298 . S
O444 C453 1.236 . S
O445 Dy440 2.395 . S
O445 C462 1.255 . S
O446 Dy440 2.379 . S
O446 C462 1.249 . S
O447 Dy441 2.275 . S
O447 C463 1.254 . S
O448 Dy440 2.339 1_455 S
O448 C463 1.257 . S
O449 Dy441 2.307 . S
O449 C464 1.266 1_455 S
O450 Dy440 2.298 . S
O450 C464 1.236 . S
O451 Dy441 2.395 . S
O451 C471 1.255 . S
O452 Dy441 2.379 . S
O452 C471 1.249 . S
C453 O443 1.284 . S
C453 O444 1.236 . S
O454 Dy440 2.275 . S
O454 C442 1.254 . S
O455 Dy441 2.339 1_655 S
O455 C442 1.257 . S
C456 C459 1.344 . S
C456 C460 1.328 . S
C456 C462 1.516 . S
C457 C458 1.304 . S
C457 C461 1.323 . S
C458 C457 1.304 . S
C458 C459 1.371 . S
C458 H472 0.930 . S
C459 C456 1.344 . S
C459 C458 1.371 . S
C459 H473 0.931 . S
C460 C456 1.328 . S
C460 C461 1.433 . S
C460 H474 0.931 . S
C461 C457 1.323 . S
C461 C460 1.433 . S
C461 H475 0.933 . S
C462 Dy440 2.738 . S
C462 O445 1.255 . S
C462 O446 1.249 . S
C462 C456 1.516 . S
C463 O447 1.254 . S
C463 O448 1.257 . S
C464 O449 1.266 1_655 S
C464 O450 1.236 . S
C465 C468 1.344 . S
C465 C469 1.328 . S
C465 C471 1.516 . S
C466 C467 1.304 . S
C466 C470 1.323 . S
C467 C466 1.304 . S
C467 C468 1.371 . S
C467 H476 0.930 . S
C468 C465 1.344 . S
C468 C467 1.371 . S
C468 H477 0.931 . S
C469 C465 1.328 . S
C469 C470 1.433 . S
C469 H478 0.931 . S
C470 C466 1.323 . S
C470 C469 1.433 . S
C470 H479 0.933 . S
C471 Dy441 2.738 . S
C471 O451 1.255 . S
C471 O452 1.249 . S
C471 C465 1.516 . S
H472 C458 0.930 . S
H473 C459 0.931 . S
H474 C460 0.931 . S
H475 C461 0.933 . S
H476 C467 0.930 . S
H477 C468 0.931 . S
H478 C469 0.931 . S
H479 C470 0.933 . S
Dy480 O483 2.307 . S
Dy480 O485 2.395 . S
Dy480 O486 2.379 . S
Dy480 O488 2.339 . S
Dy480 O490 2.298 . S
Dy480 O494 2.275 . S
Dy480 C502 2.738 . S
Dy481 O484 2.298 . S
Dy481 O487 2.275 . S
Dy481 O489 2.307 . S
Dy481 O491 2.395 . S
Dy481 O492 2.379 . S
Dy481 O495 2.339 . S
Dy481 C511 2.738 . S
C482 O494 1.254 . S
C482 O495 1.257 . S
O483 Dy480 2.307 . S
O483 C493 1.266 . S
O484 Dy481 2.298 . S
O484 C493 1.236 . S
O485 Dy480 2.395 . S
O485 C502 1.255 . S
O486 Dy480 2.379 . S
O486 C502 1.249 . S
O487 Dy481 2.275 . S
O487 C503 1.254 . S
O488 Dy480 2.339 . S
O488 C503 1.257 . S
O489 Dy481 2.307 . S
O489 C504 1.266 . S
O490 Dy480 2.298 . S
O490 C504 1.236 . S
O491 Dy481 2.395 . S
O491 C511 1.255 . S
O492 Dy481 2.379 . S
O492 C511 1.249 . S
C493 O483 1.266 . S
C493 O484 1.236 . S
O494 Dy480 2.275 . S
O494 C482 1.254 . S
O495 Dy481 2.339 . S
O495 C482 1.257 . S
C496 C499 1.344 . S
C496 C500 1.328 . S
C496 C502 1.516 . S
C497 C498 1.304 . S
C497 C501 1.323 . S
C498 C497 1.304 . S
C498 C499 1.371 . S
C498 H512 0.930 . S
C499 C496 1.344 . S
C499 C498 1.371 . S
C499 H513 0.931 . S
C500 C496 1.328 . S
C500 C501 1.433 . S
C500 H514 0.931 . S
C501 C497 1.323 . S
C501 C500 1.433 . S
C501 H515 0.933 . S
C502 Dy480 2.738 . S
C502 O485 1.255 . S
C502 O486 1.249 . S
C502 C496 1.516 . S
C503 O487 1.254 . S
C503 O488 1.257 . S
C504 O489 1.266 . S
C504 O490 1.236 . S
C505 C508 1.344 . S
C505 C509 1.328 . S
C505 C511 1.516 . S
C506 C507 1.304 . S
C506 C510 1.323 . S
C507 C506 1.304 . S
C507 C508 1.371 . S
C507 H516 0.930 . S
C508 C505 1.344 . S
C508 C507 1.371 . S
C508 H517 0.931 . S
C509 C505 1.328 . S
C509 C510 1.433 . S
C509 H518 0.931 . S
C510 C506 1.323 . S
C510 C509 1.433 . S
C510 H519 0.933 . S
C511 Dy481 2.738 . S
C511 O491 1.255 . S
C511 O492 1.249 . S
C511 C505 1.516 . S
H512 C498 0.930 . S
H513 C499 0.931 . S
H514 C500 0.931 . S
H515 C501 0.933 . S
H516 C507 0.930 . S
H517 C508 0.931 . S
H518 C509 0.931 . S
H519 C510 0.933 . S
Dy520 O523 2.307 . S
Dy520 O525 2.395 . S
Dy520 O526 2.379 . S
Dy520 O528 2.339 . S
Dy520 O530 2.298 1_556 S
Dy520 O534 2.275 1_556 S
Dy520 C542 2.738 . S
Dy521 O524 2.298 1_554 S
Dy521 O527 2.275 1_554 S
Dy521 O529 2.307 . S
Dy521 O531 2.395 . S
Dy521 O532 2.379 . S
Dy521 O535 2.339 . S
Dy521 C551 2.738 . S
C522 O534 1.254 . S
C522 O535 1.257 . S
O523 Dy520 2.307 . S
O523 C533 1.266 . S
O524 Dy521 2.298 1_556 S
O524 C533 1.236 . S
O525 Dy520 2.395 . S
O525 C542 1.255 . S
O526 Dy520 2.379 . S
O526 C542 1.249 . S
O527 Dy521 2.275 1_556 S
O527 C543 1.254 . S
O528 Dy520 2.339 . S
O528 C543 1.257 . S
O529 Dy521 2.307 . S
O529 C544 1.266 . S
O530 Dy520 2.298 1_554 S
O530 C544 1.236 . S
O531 Dy521 2.395 . S
O531 C551 1.255 . S
O532 Dy521 2.379 . S
O532 C551 1.249 . S
C533 O523 1.266 . S
C533 O524 1.236 . S
O534 Dy520 2.275 1_554 S
O534 C522 1.254 . S
O535 Dy521 2.339 . S
O535 C522 1.257 . S
C536 C539 1.344 . S
C536 C540 1.328 . S
C536 C542 1.516 . S
C537 C538 1.304 . S
C537 C541 1.323 . S
C538 C537 1.304 . S
C538 C539 1.371 . S
C538 H552 0.930 . S
C539 C536 1.344 . S
C539 C538 1.371 . S
C539 H553 0.931 1_556 S
C540 C536 1.328 . S
C540 C541 1.433 . S
C540 H554 0.931 . S
C541 C537 1.323 . S
C541 C540 1.433 . S
C541 H555 0.933 . S
C542 Dy520 2.738 . S
C542 O525 1.255 . S
C542 O526 1.249 . S
C542 C536 1.516 . S
C543 O527 1.254 . S
C543 O528 1.257 . S
C544 O529 1.266 . S
C544 O530 1.236 . S
C545 C548 1.344 . S
C545 C549 1.328 . S
C545 C551 1.516 . S
C546 C547 1.304 . S
C546 C550 1.323 . S
C547 C546 1.304 . S
C547 C548 1.371 . S
C547 H556 0.930 . S
C548 C545 1.344 . S
C548 C547 1.371 . S
C548 H557 0.931 1_554 S
C549 C545 1.328 . S
C549 C550 1.433 . S
C549 H558 0.931 . S
C550 C546 1.323 . S
C550 C549 1.433 . S
C550 H559 0.933 . S
C551 Dy521 2.738 . S
C551 O531 1.255 . S
C551 O532 1.249 . S
C551 C545 1.516 . S
H552 C538 0.930 . S
H553 C539 0.931 1_554 S
H554 C540 0.931 . S
H555 C541 0.933 . S
H556 C547 0.930 . S
H557 C548 0.931 1_556 S
H558 C549 0.931 . S
H559 C550 0.933 . S
Dy560 O563 2.307 . S
Dy560 O565 2.395 . S
Dy560 O566 2.379 . S
Dy560 O568 2.339 1_565 S
Dy560 O570 2.298 1_565 S
Dy560 O574 2.275 . S
Dy560 C582 2.738 . S
Dy561 O564 2.298 1_545 S
Dy561 O567 2.275 . S
Dy561 O569 2.307 . S
Dy561 O571 2.395 . S
Dy561 O572 2.379 . S
Dy561 O575 2.339 1_545 S
Dy561 C591 2.738 . S
C562 O574 1.254 . S
C562 O575 1.257 . S
O563 Dy560 2.307 . S
O563 C573 1.266 . S
O564 Dy561 2.298 1_565 S
O564 C573 1.236 . S
O565 Dy560 2.395 . S
O565 C582 1.255 . S
O566 Dy560 2.379 . S
O566 C582 1.249 . S
O567 Dy561 2.275 . S
O567 C583 1.254 . S
O568 Dy560 2.339 1_545 S
O568 C583 1.257 . S
O569 Dy561 2.307 . S
O569 C584 1.266 . S
O570 Dy560 2.298 1_545 S
O570 C584 1.236 . S
O571 Dy561 2.395 . S
O571 C591 1.255 . S
O572 Dy561 2.379 . S
O572 C591 1.249 . S
C573 O563 1.266 . S
C573 O564 1.236 . S
O574 Dy560 2.275 . S
O574 C562 1.254 . S
O575 Dy561 2.339 1_565 S
O575 C562 1.257 . S
C576 C579 1.344 . S
C576 C580 1.328 . S
C576 C582 1.516 . S
C577 C578 1.304 . S
C577 C581 1.323 . S
C578 C577 1.304 . S
C578 C579 1.371 . S
C578 H592 0.930 . S
C579 C576 1.344 . S
C579 C578 1.371 . S
C579 H593 0.931 . S
C580 C576 1.328 . S
C580 C581 1.433 . S
C580 H594 0.931 . S
C581 C577 1.323 . S
C581 C580 1.433 . S
C581 H595 0.933 . S
C582 Dy560 2.738 . S
C582 O565 1.255 . S
C582 O566 1.249 . S
C582 C576 1.516 . S
C583 O567 1.254 . S
C583 O568 1.257 . S
C584 O569 1.266 . S
C584 O570 1.236 . S
C585 C588 1.344 . S
C585 C589 1.328 . S
C585 C591 1.516 . S
C586 C587 1.304 . S
C586 C590 1.323 . S
C587 C586 1.304 . S
C587 C588 1.371 . S
C587 H596 0.930 . S
C588 C585 1.344 . S
C588 C587 1.371 . S
C588 H597 0.931 . S
C589 C585 1.328 . S
C589 C590 1.433 . S
C589 H598 0.931 . S
C590 C586 1.323 . S
C590 C589 1.433 . S
C590 H599 0.933 . S
C591 Dy561 2.738 . S
C591 O571 1.255 . S
C591 O572 1.249 . S
C591 C585 1.516 . S
H592 C578 0.930 . S
H593 C579 0.931 . S
H594 C580 0.931 . S
H595 C581 0.933 . S
H596 C587 0.930 . S
H597 C588 0.931 . S
H598 C589 0.931 . S
H599 C590 0.933 . S
Dy600 O603 2.307 . S
Dy600 O605 2.395 . S
Dy600 O606 2.379 . S
Dy600 O608 2.339 . S
Dy600 O610 2.298 1_554 S
Dy600 O614 2.275 1_554 S
Dy600 C622 2.738 . S
Dy601 O604 2.298 1_556 S
Dy601 O607 2.275 1_556 S
Dy601 O609 2.307 . S
Dy601 O611 2.395 . S
Dy601 O612 2.379 . S
Dy601 O615 2.339 . S
Dy601 C631 2.738 . S
C602 O614 1.254 . S
C602 O615 1.257 . S
O603 Dy600 2.307 . S
O603 C613 1.266 . S
O604 Dy601 2.298 1_554 S
O604 C613 1.236 . S
O605 Dy600 2.395 . S
O605 C622 1.255 . S
O606 Dy600 2.379 . S
O606 C622 1.249 . S
O607 Dy601 2.275 1_554 S
O607 C623 1.254 . S
O608 Dy600 2.339 . S
O608 C623 1.257 . S
O609 Dy601 2.307 . S
O609 C624 1.266 . S
O610 Dy600 2.298 1_556 S
O610 C624 1.236 . S
O611 Dy601 2.395 . S
O611 C631 1.255 . S
O612 Dy601 2.379 . S
O612 C631 1.249 . S
C613 O603 1.266 . S
C613 O604 1.236 . S
O614 Dy600 2.275 1_556 S
O614 C602 1.254 . S
O615 Dy601 2.339 . S
O615 C602 1.257 . S
C616 C619 1.344 . S
C616 C620 1.328 . S
C616 C622 1.516 . S
C617 C618 1.304 . S
C617 C621 1.323 . S
C618 C617 1.304 . S
C618 C619 1.371 . S
C618 H632 0.930 . S
C619 C616 1.344 . S
C619 C618 1.371 . S
C619 H633 0.931 1_554 S
C620 C616 1.328 . S
C620 C621 1.433 . S
C620 H634 0.931 . S
C621 C617 1.323 . S
C621 C620 1.433 . S
C621 H635 0.933 . S
C622 Dy600 2.738 . S
C622 O605 1.255 . S
C622 O606 1.249 . S
C622 C616 1.516 . S
C623 O607 1.254 . S
C623 O608 1.257 . S
C624 O609 1.266 . S
C624 O610 1.236 . S
C625 C628 1.344 . S
C625 C629 1.328 . S
C625 C631 1.516 . S
C626 C627 1.304 . S
C626 C630 1.323 . S
C627 C626 1.304 . S
C627 C628 1.371 . S
C627 H636 0.930 . S
C628 C625 1.344 . S
C628 C627 1.371 . S
C628 H637 0.931 1_556 S
C629 C625 1.328 . S
C629 C630 1.433 . S
C629 H638 0.931 . S
C630 C626 1.323 . S
C630 C629 1.433 . S
C630 H639 0.933 . S
C631 Dy601 2.738 . S
C631 O611 1.255 . S
C631 O612 1.249 . S
C631 C625 1.516 . S
H632 C618 0.930 . S
H633 C619 0.931 1_556 S
H634 C620 0.931 . S
H635 C621 0.933 . S
H636 C627 0.930 . S
H637 C628 0.931 1_554 S
H638 C629 0.931 . S
H639 C630 0.933 . S
C640 C641 1.387 . S
C640 H644 0.950 . S
C640 C649 1.390 . S
C641 C640 1.387 . S
C641 C643 1.387 1_655 S
H642 C649 0.950 . S
C643 C641 1.387 1_455 S
C643 C645 1.390 . S
C643 H647 0.950 . S
H644 C640 0.950 . S
C645 C643 1.390 . S
C645 C646 1.387 . S
C645 H648 0.950 . S
C646 C645 1.387 . S
C646 C649 1.387 1_455 S
H647 C643 0.950 . S
H648 C645 0.950 . S
C649 C640 1.390 . S
C649 H642 0.950 . S
C649 C646 1.387 1_655 S
C650 C651 1.387 . S
C650 H654 0.950 . S
C650 C659 1.390 . S
C651 C650 1.387 . S
C651 C653 1.387 . S
H652 C659 0.950 . S
C653 C651 1.387 . S
C653 C655 1.390 . S
C653 H657 0.950 . S
H654 C650 0.950 . S
C655 C653 1.390 . S
C655 C656 1.387 . S
C655 H658 0.950 . S
C656 C655 1.387 . S
C656 C659 1.387 . S
H657 C653 0.950 . S
H658 C655 0.950 . S
C659 C650 1.390 . S
C659 H652 0.950 . S
C659 C656 1.387 . S
C660 C661 1.387 . S
C660 H664 0.950 . S
C660 C669 1.390 . S
C661 C660 1.387 . S
C661 C663 1.387 . S
H662 C669 0.950 . S
C663 C661 1.387 . S
C663 C665 1.390 . S
C663 H667 0.950 . S
H664 C660 0.950 . S
C665 C663 1.390 . S
C665 C666 1.387 . S
C665 H668 0.950 . S
C666 C665 1.387 . S
C666 C669 1.387 . S
H667 C663 0.950 . S
H668 C665 0.950 . S
C669 C660 1.390 . S
C669 H662 0.950 . S
C669 C666 1.387 . S
C670 C671 1.387 . S
C670 H674 0.950 1_545 S
C670 C679 1.390 1_545 S
C671 C670 1.387 . S
C671 C673 1.387 . S
H672 C679 0.950 . S
C673 C671 1.387 . S
C673 C675 1.390 . S
C673 H677 0.942 1_556 S
H674 C670 0.950 1_565 S
C675 C673 1.390 . S
C675 C676 1.387 . S
C675 H678 0.950 1_556 S
C676 C675 1.387 . S
C676 C679 1.387 1_545 S
H677 C673 0.942 1_554 S
H678 C675 0.950 1_554 S
C679 C670 1.390 1_565 S
C679 H672 0.950 . S
C679 C676 1.387 1_565 S
C680 C681 1.387 . S
C680 H684 0.950 1_554 S
C680 C689 1.390 . S
C681 C680 1.387 . S
C681 C683 1.387 . S
H682 C689 0.950 1_556 S
C683 C681 1.387 . S
C683 C685 1.390 . S
C683 H687 0.950 . S
H684 C680 0.950 1_556 S
C685 C683 1.390 . S
C685 C686 1.387 . S
C685 H688 0.950 . S
C686 C685 1.387 . S
C686 C689 1.387 . S
H687 C683 0.950 . S
H688 C685 0.950 . S
C689 C680 1.390 . S
C689 H682 0.950 1_554 S
C689 C686 1.387 . S
C690 C691 1.387 . S
C690 H694 0.950 . S
C690 C699 1.390 . S
C691 C690 1.387 . S
C691 C693 1.387 . S
H692 C699 0.950 . S
C693 C691 1.387 . S
C693 C695 1.390 1_455 S
C693 H697 0.950 1_455 S
H694 C690 0.950 . S
C695 C693 1.390 1_655 S
C695 C696 1.387 1_655 S
C695 H698 0.950 . S
C696 C695 1.387 1_455 S
C696 C699 1.387 . S
H697 C693 0.950 1_655 S
H698 C695 0.950 . S
C699 C690 1.390 . S
C699 H692 0.950 . S
C699 C696 1.387 . S
C700 C701 1.387 . S
C700 H704 0.950 . S
C700 C709 1.390 . S
C701 C700 1.387 . S
C701 C703 1.387 . S
H702 C709 0.950 . S
C703 C701 1.387 . S
C703 C705 1.390 . S
C703 H707 0.950 . S
H704 C700 0.950 . S
C705 C703 1.390 . S
C705 C706 1.387 . S
C705 H708 0.950 . S
C706 C705 1.387 . S
C706 C709 1.387 . S
H707 C703 0.950 . S
H708 C705 0.950 . S
C709 C700 1.390 . S
C709 H702 0.950 . S
C709 C706 1.387 . S
C710 C711 1.387 . S
C710 H714 0.950 . S
C710 C719 1.390 . S
C711 C710 1.387 . S
C711 C713 1.387 . S
H712 C719 0.950 . S
C713 C711 1.387 . S
C713 C715 1.390 . S
C713 H717 0.950 . S
H714 C710 0.950 . S
C715 C713 1.390 . S
C715 C716 1.387 . S
C715 H718 0.950 . S
C716 C715 1.387 . S
C716 C719 1.387 . S
H717 C713 0.950 . S
H718 C715 0.950 . S
C719 C710 1.390 . S
C719 H712 0.950 . S
C719 C716 1.387 . S
C720 C721 1.387 . S
C720 H724 0.950 . S
C720 C729 1.390 . S
C721 C720 1.387 . S
C721 C723 1.387 . S
H722 C729 0.950 . S
C723 C721 1.387 . S
C723 C725 1.390 . S
C723 H727 0.950 . S
H724 C720 0.950 . S
C725 C723 1.390 . S
C725 C726 1.387 . S
C725 H728 0.950 1_554 S
C726 C725 1.387 . S
C726 C729 1.387 . S
H727 C723 0.950 . S
H728 C725 0.950 1_556 S
C729 C720 1.390 . S
C729 H722 0.950 . S
C729 C726 1.387 . S
C730 C731 1.387 . S
C730 H734 0.950 . S
C730 C739 1.390 . S
C731 C730 1.387 . S
C731 C733 1.387 . S
H732 C739 0.950 . S
C733 C731 1.387 . S
C733 C735 1.390 . S
C733 H737 0.950 . S
H734 C730 0.950 . S
C735 C733 1.390 . S
C735 C736 1.387 . S
C735 H738 0.950 . S
C736 C735 1.387 . S
C736 C739 1.387 . S
H737 C733 0.950 . S
H738 C735 0.950 . S
C739 C730 1.390 . S
C739 H732 0.950 . S
C739 C736 1.387 . S
C740 C741 1.387 . S
C740 H744 0.950 . S
C740 C749 1.390 . S
C741 C740 1.387 . S
C741 C743 1.387 . S
H742 C749 0.950 . S
C743 C741 1.387 . S
C743 C745 1.390 . S
C743 H747 0.950 . S
H744 C740 0.950 . S
C745 C743 1.390 . S
C745 C746 1.387 . S
C745 H748 0.950 . S
C746 C745 1.387 . S
C746 C749 1.387 . S
H747 C743 0.950 . S
H748 C745 0.950 . S
C749 C740 1.390 . S
C749 H742 0.950 . S
C749 C746 1.387 . S
C750 C751 1.387 . S
C750 H754 0.950 . S
C750 C759 1.390 . S
C751 C750 1.387 . S
C751 C753 1.387 . S
H752 C759 0.950 . S
C753 C751 1.387 . S
C753 C755 1.408 . S
C753 H757 0.950 . S
H754 C750 0.950 . S
C755 C753 1.408 . S
C755 C756 1.389 . S
C755 H758 0.931 1_455 S
C756 C755 1.389 . S
C756 C759 1.387 . S
H757 C753 0.950 . S
H758 C755 0.931 1_655 S
C759 C750 1.390 . S
C759 H752 0.950 . S
C759 C756 1.387 . S
C760 C761 1.387 . S
C760 H764 0.950 . S
C760 C769 1.390 . S
C761 C760 1.387 . S
C761 C763 1.387 . S
H762 C769 0.950 . S
C763 C761 1.387 . S
C763 C765 1.390 . S
C763 H767 0.950 . S
H764 C760 0.950 . S
C765 C763 1.390 . S
C765 C766 1.387 . S
C765 H768 0.950 . S
C766 C765 1.387 . S
C766 C769 1.387 . S
H767 C763 0.950 . S
H768 C765 0.950 . S
C769 C760 1.390 . S
C769 H762 0.950 . S
C769 C766 1.387 . S
C770 C771 1.387 . S
C770 H774 0.950 . S
C770 C779 1.390 . S
C771 C770 1.387 . S
C771 C773 1.387 . S
H772 C779 0.950 . S
C773 C771 1.387 . S
C773 C775 1.390 . S
C773 H777 0.950 . S
H774 C770 0.950 . S
C775 C773 1.390 . S
C775 C776 1.387 . S
C775 H778 0.950 . S
C776 C775 1.387 . S
C776 C779 1.387 . S
H777 C773 0.950 . S
H778 C775 0.950 . S
C779 C770 1.390 . S
C779 H772 0.950 . S
C779 C776 1.387 . S
C780 C781 1.387 . S
C780 H784 0.950 . S
C780 C789 1.390 . S
C781 C780 1.387 . S
C781 C783 1.387 . S
H782 C789 0.950 . S
C783 C781 1.387 . S
C783 C785 1.390 . S
C783 H787 0.950 . S
H784 C780 0.950 . S
C785 C783 1.390 . S
C785 C786 1.387 . S
C785 H788 0.950 . S
C786 C785 1.387 . S
C786 C789 1.387 . S
H787 C783 0.950 . S
H788 C785 0.950 . S
C789 C780 1.390 . S
C789 H782 0.950 . S
C789 C786 1.387 . S
C790 C791 1.387 . S
C790 H794 0.950 . S
C790 C799 1.390 . S
C791 C790 1.387 . S
C791 C793 1.387 . S
H792 C799 0.950 . S
C793 C791 1.387 . S
C793 C795 1.390 . S
C793 H797 0.950 . S
H794 C790 0.950 . S
C795 C793 1.390 . S
C795 C796 1.387 . S
C795 H798 0.950 . S
C796 C795 1.387 . S
C796 C799 1.387 . S
H797 C793 0.950 . S
H798 C795 0.950 . S
C799 C790 1.390 . S
C799 H792 0.950 . S
C799 C796 1.387 . S
C800 C801 1.387 . S
C800 H804 0.950 . S
C800 C809 1.390 . S
C801 C800 1.387 . S
C801 C803 1.387 . S
H802 C809 0.950 . S
C803 C801 1.387 . S
C803 C805 1.390 . S
C803 H807 0.950 . S
H804 C800 0.950 . S
C805 C803 1.390 . S
C805 C806 1.387 . S
C805 H808 0.950 . S
C806 C805 1.387 . S
C806 C809 1.387 . S
H807 C803 0.950 . S
H808 C805 0.950 . S
C809 C800 1.390 . S
C809 H802 0.950 . S
C809 C806 1.387 . S
C810 C811 1.387 . S
C810 H814 0.950 . S
C810 C819 1.390 . S
C811 C810 1.387 . S
C811 C813 1.387 . S
H812 C819 0.950 . S
C813 C811 1.387 . S
C813 C815 1.390 . S
C813 H817 0.950 . S
H814 C810 0.950 . S
C815 C813 1.390 . S
C815 C816 1.387 . S
C815 H818 0.950 . S
C816 C815 1.387 . S
C816 C819 1.387 . S
H817 C813 0.950 . S
H818 C815 0.950 . S
C819 C810 1.390 . S
C819 H812 0.950 . S
C819 C816 1.387 . S
C820 C821 1.387 . S
C820 H824 0.950 . S
C820 C829 1.390 . S
C821 C820 1.387 . S
C821 C823 1.387 . S
H822 C829 0.950 . S
C823 C821 1.387 . S
C823 C825 1.390 . S
C823 H827 0.950 . S
H824 C820 0.950 . S
C825 C823 1.390 . S
C825 C826 1.387 . S
C825 H828 0.950 . S
C826 C825 1.387 . S
C826 C829 1.387 . S
H827 C823 0.950 . S
H828 C825 0.950 . S
C829 C820 1.390 . S
C829 H822 0.950 . S
C829 C826 1.387 . S
C830 C831 1.387 . S
C830 H834 0.950 . S
C830 C839 1.390 . S
C831 C830 1.387 . S
C831 C833 1.387 . S
H832 C839 0.950 . S
C833 C831 1.387 . S
C833 C835 1.390 . S
C833 H837 0.950 . S
H834 C830 0.950 . S
C835 C833 1.390 . S
C835 C836 1.387 . S
C835 H838 0.950 . S
C836 C835 1.387 . S
C836 C839 1.387 . S
H837 C833 0.950 . S
H838 C835 0.950 . S
C839 C830 1.390 . S
C839 H832 0.950 . S
C839 C836 1.387 . S
C840 C841 1.387 . S
C840 H844 0.950 . S
C840 C849 1.390 . S
C841 C840 1.387 . S
C841 C843 1.387 . S
H842 C849 0.950 . S
C843 C841 1.387 . S
C843 C845 1.390 . S
C843 H847 0.950 . S
H844 C840 0.950 . S
C845 C843 1.390 . S
C845 C846 1.387 . S
C845 H848 0.950 . S
C846 C845 1.387 . S
C846 C849 1.387 . S
H847 C843 0.950 . S
H848 C845 0.950 . S
C849 C840 1.390 . S
C849 H842 0.950 . S
C849 C846 1.387 . S
C850 C851 1.387 1_655 S
C850 H854 0.950 . S
C850 C859 1.390 . S
C851 C850 1.387 1_455 S
C851 C853 1.387 . S
H852 C859 0.950 . S
C853 C851 1.387 . S
C853 C855 1.390 . S
C853 H857 0.950 . S
H854 C850 0.950 . S
C855 C853 1.390 . S
C855 C856 1.387 1_455 S
C855 H858 0.950 . S
C856 C855 1.387 1_655 S
C856 C859 1.387 . S
H857 C853 0.950 . S
H858 C855 0.950 . S
C859 C850 1.390 . S
C859 H852 0.950 . S
C859 C856 1.387 . S
C860 C861 1.387 . S
C860 H864 0.950 . S
C860 C869 1.390 . S
C861 C860 1.387 . S
C861 C863 1.387 . S
H862 C869 0.950 . S
C863 C861 1.387 . S
C863 C865 1.390 . S
C863 H867 0.950 . S
H864 C860 0.950 . S
C865 C863 1.390 . S
C865 C866 1.387 . S
C865 H868 0.950 . S
C866 C865 1.387 . S
C866 C869 1.387 . S
H867 C863 0.950 . S
H868 C865 0.950 . S
C869 C860 1.390 . S
C869 H862 0.950 . S
C869 C866 1.387 . S
C870 C871 1.387 . S
C870 H874 0.950 . S
C870 C879 1.390 . S
C871 C870 1.387 . S
C871 C873 1.387 . S
H872 C879 0.950 . S
C873 C871 1.387 . S
C873 C875 1.390 . S
C873 H877 0.950 . S
H874 C870 0.950 . S
C875 C873 1.390 . S
C875 C876 1.387 . S
C875 H878 0.950 . S
C876 C875 1.387 . S
C876 C879 1.387 . S
H877 C873 0.950 . S
H878 C875 0.950 . S
C879 C870 1.390 . S
C879 H872 0.950 . S
C879 C876 1.387 . S
C880 C881 1.387 . S
C880 H884 0.950 1_556 S
C880 C889 1.390 . S
C881 C880 1.387 . S
C881 C883 1.387 . S
H882 C889 0.950 1_554 S
C883 C881 1.387 . S
C883 C885 1.390 . S
C883 H887 0.950 . S
H884 C880 0.950 1_554 S
C885 C883 1.390 . S
C885 C886 1.387 . S
C885 H888 0.950 . S
C886 C885 1.387 . S
C886 C889 1.387 . S
H887 C883 0.950 . S
H888 C885 0.950 . S
C889 C880 1.390 . S
C889 H882 0.950 1_556 S
C889 C886 1.387 . S
C890 C891 1.387 . S
C890 H894 0.950 . S
C890 C899 1.390 . S
C891 C890 1.387 . S
C891 C893 1.387 . S
H892 C899 0.950 . S
C893 C891 1.387 . S
C893 C895 1.390 . S
C893 H897 0.950 . S
H894 C890 0.950 . S
C895 C893 1.390 . S
C895 C896 1.387 . S
C895 H898 0.950 . S
C896 C895 1.387 . S
C896 C899 1.387 . S
H897 C893 0.950 . S
H898 C895 0.950 . S
C899 C890 1.390 . S
C899 H892 0.950 . S
C899 C896 1.387 . S
C900 C901 1.387 . S
C900 H904 0.950 . S
C900 C909 1.390 . S
C901 C900 1.387 . S
C901 C903 1.387 . S
H902 C909 0.950 . S
C903 C901 1.387 . S
C903 C905 1.390 . S
C903 H907 0.950 . S
H904 C900 0.950 . S
C905 C903 1.390 . S
C905 C906 1.387 . S
C905 H908 0.950 . S
C906 C905 1.387 . S
C906 C909 1.387 . S
H907 C903 0.950 . S
H908 C905 0.950 . S
C909 C900 1.390 . S
C909 H902 0.950 . S
C909 C906 1.387 . S
C910 C911 1.387 . S
C910 H914 0.950 1_554 S
C910 C919 1.390 . S
C911 C910 1.387 . S
C911 C913 1.387 . S
H912 C919 0.950 . S
C913 C911 1.387 . S
C913 C915 1.390 . S
C913 H917 0.950 . S
H914 C910 0.950 1_556 S
C915 C913 1.390 . S
C915 C916 1.387 . S
C915 H918 0.950 . S
C916 C915 1.387 . S
C916 C919 1.387 . S
H917 C913 0.950 . S
H918 C915 0.950 . S
C919 C910 1.390 . S
C919 H912 0.950 . S
C919 C916 1.387 . S
C920 C921 1.387 . S
C920 H924 0.950 . S
C920 C929 1.390 . S
C921 C920 1.387 . S
C921 C923 1.387 . S
H922 C929 0.950 . S
C923 C921 1.387 . S
C923 C925 1.390 . S
C923 H927 0.950 . S
H924 C920 0.950 . S
C925 C923 1.390 . S
C925 C926 1.387 . S
C925 H928 0.950 . S
C926 C925 1.387 . S
C926 C929 1.387 . S
H927 C923 0.950 . S
H928 C925 0.950 . S
C929 C920 1.390 . S
C929 H922 0.950 . S
C929 C926 1.387 . S
C930 C931 1.387 . S
C930 H934 0.950 . S
C930 C939 1.390 . S
C931 C930 1.387 . S
C931 C933 1.387 . S
H932 C939 0.950 . S
C933 C931 1.387 . S
C933 C935 1.390 . S
C933 H937 0.950 . S
H934 C930 0.950 . S
C935 C933 1.390 . S
C935 C936 1.387 . S
C935 H938 0.950 . S
C936 C935 1.387 . S
C936 C939 1.387 . S
H937 C933 0.950 . S
H938 C935 0.950 . S
C939 C930 1.390 . S
C939 H932 0.950 . S
C939 C936 1.387 . S
C940 C941 1.387 . S
C940 H944 0.950 . S
C940 C949 1.390 . S
C941 C940 1.387 . S
C941 C943 1.387 . S
H942 C949 0.950 . S
C943 C941 1.387 . S
C943 C945 1.390 . S
C943 H947 0.950 . S
H944 C940 0.950 . S
C945 C943 1.390 . S
C945 C946 1.387 . S
C945 H948 0.950 . S
C946 C945 1.387 . S
C946 C949 1.387 . S
H947 C943 0.950 . S
H948 C945 0.950 . S
C949 C940 1.390 . S
C949 H942 0.950 . S
C949 C946 1.387 . S
C950 C951 1.387 . S
C950 H954 0.950 . S
C950 C959 1.390 . S
C951 C950 1.387 . S
C951 C953 1.387 . S
H952 C959 0.950 . S
C953 C951 1.387 . S
C953 C955 1.390 . S
C953 H957 0.950 . S
H954 C950 0.950 . S
C955 C953 1.390 . S
C955 C956 1.387 . S
C955 H958 0.950 . S
C956 C955 1.387 . S
C956 C959 1.387 . S
H957 C953 0.950 . S
H958 C955 0.950 . S
C959 C950 1.390 . S
C959 H952 0.950 . S
C959 C956 1.387 . S
C960 C961 1.387 . S
C960 H964 0.950 . S
C960 C969 1.390 . S
C961 C960 1.387 . S
C961 C963 1.387 . S
H962 C969 0.950 . S
C963 C961 1.387 . S
C963 C965 1.390 . S
C963 H967 0.950 . S
H964 C960 0.950 . S
C965 C963 1.390 . S
C965 C966 1.387 . S
C965 H968 0.950 . S
C966 C965 1.387 . S
C966 C969 1.387 . S
H967 C963 0.950 . S
H968 C965 0.950 . S
C969 C960 1.390 . S
C969 H962 0.950 . S
C969 C966 1.387 . S
C970 C971 1.387 . S
C970 H974 0.950 . S
C970 C979 1.390 . S
C971 C970 1.387 . S
C971 C973 1.387 . S
H972 C979 0.950 . S
C973 C971 1.387 . S
C973 C975 1.390 . S
C973 H977 0.950 . S
H974 C970 0.950 . S
C975 C973 1.390 . S
C975 C976 1.387 . S
C975 H978 0.950 . S
C976 C975 1.387 . S
C976 C979 1.387 . S
H977 C973 0.950 . S
H978 C975 0.950 . S
C979 C970 1.390 . S
C979 H972 0.950 . S
C979 C976 1.387 . S
C980 C981 1.387 . S
C980 H984 0.950 . S
C980 C989 1.390 . S
C981 C980 1.387 . S
C981 C983 1.387 . S
H982 C989 0.950 . S
C983 C981 1.387 . S
C983 C985 1.390 . S
C983 H987 0.950 . S
H984 C980 0.950 . S
C985 C983 1.390 . S
C985 C986 1.387 . S
C985 H988 0.950 . S
C986 C985 1.387 . S
C986 C989 1.387 . S
H987 C983 0.950 . S
H988 C985 0.950 . S
C989 C980 1.390 . S
C989 H982 0.950 . S
C989 C986 1.387 . S
C990 C991 1.387 . S
C990 H994 0.950 . S
C990 C999 1.390 . S
C991 C990 1.387 . S
C991 C993 1.387 . S
H992 C999 0.950 . S
C993 C991 1.387 . S
C993 C995 1.390 . S
C993 H997 0.950 1_554 S
H994 C990 0.950 . S
C995 C993 1.390 . S
C995 C996 1.387 . S
C995 H998 0.950 . S
C996 C995 1.387 . S
C996 C999 1.387 . S
H997 C993 0.950 1_556 S
H998 C995 0.950 . S
C999 C990 1.390 . S
C999 H992 0.950 . S
C999 C996 1.387 . S
C1000 C1001 1.387 . S
C1000 H1004 0.950 . S
C1000 C1009 1.390 . S
C1001 C1000 1.387 . S
C1001 C1003 1.387 . S
H1002 C1009 0.950 . S
C1003 C1001 1.387 . S
C1003 C1005 1.390 . S
C1003 H1007 0.950 . S
H1004 C1000 0.950 . S
C1005 C1003 1.390 . S
C1005 C1006 1.387 . S
C1005 H1008 0.950 . S
C1006 C1005 1.387 . S
C1006 C1009 1.387 . S
H1007 C1003 0.950 . S
H1008 C1005 0.950 . S
C1009 C1000 1.390 . S
C1009 H1002 0.950 . S
C1009 C1006 1.387 . S
C1010 C1011 1.387 . S
C1010 H1014 0.950 . S
C1010 C1019 1.390 . S
C1011 C1010 1.387 . S
C1011 C1013 1.387 . S
H1012 C1019 0.950 . S
C1013 C1011 1.387 . S
C1013 C1015 1.390 . S
C1013 H1017 0.950 . S
H1014 C1010 0.950 . S
C1015 C1013 1.390 . S
C1015 C1016 1.387 . S
C1015 H1018 0.950 . S
C1016 C1015 1.387 . S
C1016 C1019 1.387 . S
H1017 C1013 0.950 . S
H1018 C1015 0.950 . S
C1019 C1010 1.390 . S
C1019 H1012 0.950 . S
C1019 C1016 1.387 . S
C1020 C1021 1.387 . S
C1020 H1024 0.950 . S
C1020 C1029 1.390 . S
C1021 C1020 1.387 . S
C1021 C1023 1.387 . S
H1022 C1029 0.950 . S
C1023 C1021 1.387 . S
C1023 C1025 1.390 . S
C1023 H1027 0.950 . S
H1024 C1020 0.950 . S
C1025 C1023 1.390 . S
C1025 C1026 1.387 . S
C1025 H1028 0.950 . S
C1026 C1025 1.387 . S
C1026 C1029 1.387 . S
H1027 C1023 0.950 . S
H1028 C1025 0.950 . S
C1029 C1020 1.390 . S
C1029 H1022 0.950 . S
C1029 C1026 1.387 . S
C1030 C1031 1.387 . S
C1030 H1034 0.950 . S
C1030 C1039 1.390 . S
C1031 C1030 1.387 . S
C1031 C1033 1.387 . S
H1032 C1039 0.950 . S
C1033 C1031 1.387 . S
C1033 C1035 1.390 . S
C1033 H1037 0.950 . S
H1034 C1030 0.950 . S
C1035 C1033 1.390 . S
C1035 C1036 1.387 . S
C1035 H1038 0.950 . S
C1036 C1035 1.387 . S
C1036 C1039 1.387 . S
H1037 C1033 0.950 . S
H1038 C1035 0.950 . S
C1039 C1030 1.390 . S
C1039 H1032 0.950 . S
C1039 C1036 1.387 . S
C1040 C1041 1.387 . S
C1040 H1044 0.950 . S
C1040 C1049 1.390 . S
C1041 C1040 1.387 . S
C1041 C1043 1.387 . S
H1042 C1049 0.950 . S
C1043 C1041 1.387 . S
C1043 C1045 1.390 . S
C1043 H1047 0.950 1_556 S
H1044 C1040 0.950 . S
C1045 C1043 1.390 . S
C1045 C1046 1.387 . S
C1045 H1048 0.950 1_556 S
C1046 C1045 1.387 . S
C1046 C1049 1.387 . S
H1047 C1043 0.950 1_554 S
H1048 C1045 0.950 1_554 S
C1049 C1040 1.390 . S
C1049 H1042 0.950 . S
C1049 C1046 1.387 . S
C1050 C1051 1.387 . S
C1050 H1054 0.950 . S
C1050 C1059 1.390 . S
C1051 C1050 1.387 . S
C1051 C1053 1.387 . S
H1052 C1059 0.950 . S
C1053 C1051 1.387 . S
C1053 C1055 1.390 . S
C1053 H1057 0.950 1_556 S
H1054 C1050 0.950 . S
C1055 C1053 1.390 . S
C1055 C1056 1.387 . S
C1055 H1058 0.950 1_556 S
C1056 C1055 1.387 . S
C1056 C1059 1.387 . S
H1057 C1053 0.950 1_554 S
H1058 C1055 0.950 1_554 S
C1059 C1050 1.390 . S
C1059 H1052 0.950 . S
C1059 C1056 1.387 . S
C1060 C1061 1.387 . S
C1060 H1064 0.972 . S
C1060 C1069 1.390 . S
C1061 C1060 1.387 . S
C1061 C1063 1.387 . S
H1062 C1069 0.950 . S
C1063 C1061 1.387 . S
C1063 C1065 1.390 . S
C1063 H1067 0.950 . S
H1064 C1060 0.972 . S
C1065 C1063 1.390 . S
C1065 C1066 1.387 . S
C1065 H1068 0.950 . S
C1066 C1065 1.387 . S
C1066 C1069 1.387 . S
H1067 C1063 0.950 . S
H1068 C1065 0.950 . S
C1069 C1060 1.390 . S
C1069 H1062 0.950 . S
C1069 C1066 1.387 . S
C1070 C1071 1.387 . S
C1070 H1074 0.950 . S
C1070 C1079 1.390 . S
C1071 C1070 1.387 . S
C1071 C1073 1.387 . S
H1072 C1079 0.950 . S
C1073 C1071 1.387 . S
C1073 C1075 1.390 . S
C1073 H1077 0.950 . S
H1074 C1070 0.950 . S
C1075 C1073 1.390 . S
C1075 C1076 1.387 . S
C1075 H1078 0.950 . S
C1076 C1075 1.387 . S
C1076 C1079 1.387 . S
H1077 C1073 0.950 . S
H1078 C1075 0.950 . S
C1079 C1070 1.390 . S
C1079 H1072 0.950 . S
C1079 C1076 1.387 . S
C1080 C1081 1.387 . S
C1080 H1084 0.950 . S
C1080 C1089 1.390 . S
C1081 C1080 1.387 . S
C1081 C1083 1.387 . S
H1082 C1089 0.950 . S
C1083 C1081 1.387 . S
C1083 C1085 1.390 . S
C1083 H1087 0.950 . S
H1084 C1080 0.950 . S
C1085 C1083 1.390 . S
C1085 C1086 1.387 . S
C1085 H1088 0.950 . S
C1086 C1085 1.387 . S
C1086 C1089 1.387 . S
H1087 C1083 0.950 . S
H1088 C1085 0.950 . S
C1089 C1080 1.390 . S
C1089 H1082 0.950 . S
C1089 C1086 1.387 . S
C1090 C1091 1.387 . S
C1090 H1094 0.950 . S
C1090 C1099 1.390 . S
C1091 C1090 1.387 . S
C1091 C1093 1.387 . S
H1092 C1099 0.950 . S
C1093 C1091 1.387 . S
C1093 C1095 1.390 . S
C1093 H1097 0.950 . S
H1094 C1090 0.950 . S
C1095 C1093 1.390 . S
C1095 C1096 1.387 . S
C1095 H1098 0.950 . S
C1096 C1095 1.387 . S
C1096 C1099 1.387 . S
H1097 C1093 0.950 . S
H1098 C1095 0.950 . S
C1099 C1090 1.390 . S
C1099 H1092 0.950 . S
C1099 C1096 1.387 . S
C1100 C1101 1.387 . S
C1100 H1104 0.950 . S
C1100 C1109 1.390 . S
C1101 C1100 1.387 . S
C1101 C1103 1.387 . S
H1102 C1109 0.950 . S
C1103 C1101 1.387 . S
C1103 C1105 1.390 . S
C1103 H1107 0.950 . S
H1104 C1100 0.950 . S
C1105 C1103 1.390 . S
C1105 C1106 1.387 . S
C1105 H1108 0.950 . S
C1106 C1105 1.387 . S
C1106 C1109 1.387 . S
H1107 C1103 0.950 . S
H1108 C1105 0.950 . S
C1109 C1100 1.390 . S
C1109 H1102 0.950 . S
C1109 C1106 1.387 . S
C1110 C1111 1.387 . S
C1110 H1114 0.950 . S
C1110 C1119 1.390 . S
C1111 C1110 1.387 . S
C1111 C1113 1.387 . S
H1112 C1119 0.950 . S
C1113 C1111 1.387 . S
C1113 C1115 1.390 . S
C1113 H1117 0.950 . S
H1114 C1110 0.950 . S
C1115 C1113 1.390 . S
C1115 C1116 1.387 . S
C1115 H1118 0.950 . S
C1116 C1115 1.387 . S
C1116 C1119 1.387 . S
H1117 C1113 0.950 . S
H1118 C1115 0.950 . S
C1119 C1110 1.390 . S
C1119 H1112 0.950 . S
C1119 C1116 1.387 . S
C641 C23 2.499 . S
C646 C53 2.461 . S
C651 C103 1.826 . S
C656 C57 1.649 . S
C661 C133 2.170 . S
C666 C104 2.201 . S
C671 C24 1.600 . S
C676 C137 1.505 . S
C681 C13 1.599 . S
C686 C386 1.504 . S
C691 C282 2.498 . S
C696 C64 2.461 1_455 S
C701 C82 1.824 . S
C706 C426 1.646 . S
C711 C144 2.168 . S
C716 C533 2.201 . S
C721 C322 1.826 . S
C726 C66 1.650 . S
C731 C504 2.169 . S
C736 C93 2.201 . S
C741 C573 1.599 . S
C746 C146 1.504 . S
C751 C2 2.498 . S
C756 C464 2.461 1_455 S
C761 C26 0.688 . S
C766 C337 0.721 . S
C771 C503 1.976 . S
C776 C183 1.975 . S
C781 C226 0.728 . S
C786 C577 0.692 . S
C791 C463 1.976 . S
C796 C263 1.976 . S
C801 C106 0.718 . S
C806 C297 0.680 . S
C811 C362 1.976 . S
C816 C162 1.976 . S
C821 C242 1.976 . S
C826 C402 1.976 . S
C831 C202 1.827 . S
C836 C466 1.649 . S
C841 C384 2.168 . S
C846 C213 2.200 . S
C851 C453 2.461 . S
C856 C303 2.499 . S
C861 C223 1.826 . S
C866 C177 1.649 . S
C871 C373 2.168 . S
C876 C344 2.201 . S
C881 C543 1.824 . S
C886 C457 1.647 . S
C891 C253 2.170 . S
C896 C224 2.202 . S
C901 C377 1.504 . S
C906 C584 1.599 . S
C911 C546 0.717 . S
C916 C17 0.681 . S
C921 C97 0.728 . S
C926 C586 0.689 . S
C931 C482 1.976 . S
C936 C42 1.975 . S
C941 C306 0.680 . S
C946 C217 0.717 . S
C951 C143 1.976 . S
C956 C423 1.975 . S
C961 C493 2.170 . S
C966 C544 2.201 . S
C971 C304 1.599 . S
C976 C497 1.504 . S
C981 C266 1.503 . S
C986 C293 1.596 . S
C991 C186 1.647 . S
C996 C522 1.824 . S
C1001 C506 1.506 . S
C1006 C613 1.600 . S
C1011 C617 0.680 . S
C1016 C346 0.718 . S
C1021 C63 1.976 . S
C1026 C383 1.977 . S
C1031 C333 2.201 . S
C1036 C264 2.170 . S
C1041 C343 1.826 . S
C1046 C417 1.649 . S
C1051 C624 1.599 . S
C1056 C257 1.505 . S
C1061 C537 0.727 . S
C1066 C626 0.692 . S
C1071 C442 1.975 . S
C1076 C122 1.976 . S
C1081 C413 2.461 . S
C1086 C583 2.498 . S
C1091 C424 2.463 . S
C1096 C602 2.499 . S
C1101 C184 2.463 . S
C1106 C562 2.500 . S
C1111 C623 2.499 . S
C1116 C173 2.463 . S
