# Generated by pormake.
# Topology ukj, (4)-cn, num edge types: 1
# Building blocks:
#     Node 0, Type 0, BuildingBlock: ESEHIV_clean_sbu_0, # of connection points: 4
#     Node 1, Type 0, BuildingBlock: ESEHIV_clean_sbu_0, # of connection points: 4
#     Node 2, Type 0, BuildingBlock: ESEHIV_clean_sbu_0, # of connection points: 4
#     Node 3, Type 0, BuildingBlock: ESEHIV_clean_sbu_0, # of connection points: 4
#     Node 4, Type 0, BuildingBlock: ESEHIV_clean_sbu_0, # of connection points: 4
#     Node 5, Type 0, BuildingBlock: ESEHIV_clean_sbu_0, # of connection points: 4
#     Node 6, Type 0, BuildingBlock: ESEHIV_clean_sbu_0, # of connection points: 4
#     Node 7, Type 0, BuildingBlock: ESEHIV_clean_sbu_0, # of connection points: 4
#     Node 8, Type 0, BuildingBlock: ESEHIV_clean_sbu_0, # of connection points: 4
#     Node 9, Type 0, BuildingBlock: ESEHIV_clean_sbu_0, # of connection points: 4
#     Node 10, Type 0, BuildingBlock: ESEHIV_clean_sbu_0, # of connection points: 4
#     Node 11, Type 0, BuildingBlock: ESEHIV_clean_sbu_0, # of connection points: 4
#     Node 12, Type 0, BuildingBlock: ESEHIV_clean_sbu_0, # of connection points: 4
#     Node 13, Type 0, BuildingBlock: ESEHIV_clean_sbu_0, # of connection points: 4
#     Node 14, Type 0, BuildingBlock: ESEHIV_clean_sbu_0, # of connection points: 4
#     Node 15, Type 0, BuildingBlock: ESEHIV_clean_sbu_0, # of connection points: 4
#     Node 16, Type 0, BuildingBlock: ESEHIV_clean_sbu_0, # of connection points: 4
#     Node 17, Type 0, BuildingBlock: ESEHIV_clean_sbu_0, # of connection points: 4
#     Node 18, Type 0, BuildingBlock: ESEHIV_clean_sbu_0, # of connection points: 4
#     Node 19, Type 0, BuildingBlock: ESEHIV_clean_sbu_0, # of connection points: 4
#     Node 20, Type 0, BuildingBlock: ESEHIV_clean_sbu_0, # of connection points: 4
#     Node 21, Type 0, BuildingBlock: ESEHIV_clean_sbu_0, # of connection points: 4
#     Node 22, Type 0, BuildingBlock: ESEHIV_clean_sbu_0, # of connection points: 4
#     Node 23, Type 0, BuildingBlock: ESEHIV_clean_sbu_0, # of connection points: 4
#     Node 24, Type 0, BuildingBlock: ESEHIV_clean_sbu_0, # of connection points: 4
#     Node 25, Type 0, BuildingBlock: ESEHIV_clean_sbu_0, # of connection points: 4
#     Node 26, Type 0, BuildingBlock: ESEHIV_clean_sbu_0, # of connection points: 4
#     Node 27, Type 0, BuildingBlock: ESEHIV_clean_sbu_0, # of connection points: 4
#     Node 28, Type 0, BuildingBlock: ESEHIV_clean_sbu_0, # of connection points: 4
#     Node 29, Type 0, BuildingBlock: ESEHIV_clean_sbu_0, # of connection points: 4
#     Node 30, Type 0, BuildingBlock: ESEHIV_clean_sbu_0, # of connection points: 4
#     Node 31, Type 0, BuildingBlock: ESEHIV_clean_sbu_0, # of connection points: 4
#     Edge 32, Type (0, 0), BuildingBlock: UVAHIK_clean_linker_0, # of connection points: 2
#     Edge 33, Type (0, 0), BuildingBlock: UVAHIK_clean_linker_0, # of connection points: 2
#     Edge 34, Type (0, 0), BuildingBlock: UVAHIK_clean_linker_0, # of connection points: 2
#     Edge 35, Type (0, 0), BuildingBlock: UVAHIK_clean_linker_0, # of connection points: 2
#     Edge 36, Type (0, 0), BuildingBlock: UVAHIK_clean_linker_0, # of connection points: 2
#     Edge 37, Type (0, 0), BuildingBlock: UVAHIK_clean_linker_0, # of connection points: 2
#     Edge 38, Type (0, 0), BuildingBlock: UVAHIK_clean_linker_0, # of connection points: 2
#     Edge 39, Type (0, 0), BuildingBlock: UVAHIK_clean_linker_0, # of connection points: 2
#     Edge 40, Type (0, 0), BuildingBlock: UVAHIK_clean_linker_0, # of connection points: 2
#     Edge 41, Type (0, 0), BuildingBlock: UVAHIK_clean_linker_0, # of connection points: 2
#     Edge 42, Type (0, 0), BuildingBlock: UVAHIK_clean_linker_0, # of connection points: 2
#     Edge 43, Type (0, 0), BuildingBlock: UVAHIK_clean_linker_0, # of connection points: 2
#     Edge 44, Type (0, 0), BuildingBlock: UVAHIK_clean_linker_0, # of connection points: 2
#     Edge 45, Type (0, 0), BuildingBlock: UVAHIK_clean_linker_0, # of connection points: 2
#     Edge 46, Type (0, 0), BuildingBlock: UVAHIK_clean_linker_0, # of connection points: 2
#     Edge 47, Type (0, 0), BuildingBlock: UVAHIK_clean_linker_0, # of connection points: 2
#     Edge 48, Type (0, 0), BuildingBlock: UVAHIK_clean_linker_0, # of connection points: 2
#     Edge 49, Type (0, 0), BuildingBlock: UVAHIK_clean_linker_0, # of connection points: 2
#     Edge 50, Type (0, 0), BuildingBlock: UVAHIK_clean_linker_0, # of connection points: 2
#     Edge 51, Type (0, 0), BuildingBlock: UVAHIK_clean_linker_0, # of connection points: 2
#     Edge 52, Type (0, 0), BuildingBlock: UVAHIK_clean_linker_0, # of connection points: 2
#     Edge 53, Type (0, 0), BuildingBlock: UVAHIK_clean_linker_0, # of connection points: 2
#     Edge 54, Type (0, 0), BuildingBlock: UVAHIK_clean_linker_0, # of connection points: 2
#     Edge 55, Type (0, 0), BuildingBlock: UVAHIK_clean_linker_0, # of connection points: 2
#     Edge 56, Type (0, 0), BuildingBlock: UVAHIK_clean_linker_0, # of connection points: 2
#     Edge 57, Type (0, 0), BuildingBlock: UVAHIK_clean_linker_0, # of connection points: 2
#     Edge 58, Type (0, 0), BuildingBlock: UVAHIK_clean_linker_0, # of connection points: 2
#     Edge 59, Type (0, 0), BuildingBlock: UVAHIK_clean_linker_0, # of connection points: 2
#     Edge 60, Type (0, 0), BuildingBlock: UVAHIK_clean_linker_0, # of connection points: 2
#     Edge 61, Type (0, 0), BuildingBlock: UVAHIK_clean_linker_0, # of connection points: 2
#     Edge 62, Type (0, 0), BuildingBlock: UVAHIK_clean_linker_0, # of connection points: 2
#     Edge 63, Type (0, 0), BuildingBlock: UVAHIK_clean_linker_0, # of connection points: 2
#     Edge 64, Type (0, 0), BuildingBlock: UVAHIK_clean_linker_0, # of connection points: 2
#     Edge 65, Type (0, 0), BuildingBlock: UVAHIK_clean_linker_0, # of connection points: 2
#     Edge 66, Type (0, 0), BuildingBlock: UVAHIK_clean_linker_0, # of connection points: 2
#     Edge 67, Type (0, 0), BuildingBlock: UVAHIK_clean_linker_0, # of connection points: 2
#     Edge 68, Type (0, 0), BuildingBlock: UVAHIK_clean_linker_0, # of connection points: 2
#     Edge 69, Type (0, 0), BuildingBlock: UVAHIK_clean_linker_0, # of connection points: 2
#     Edge 70, Type (0, 0), BuildingBlock: UVAHIK_clean_linker_0, # of connection points: 2
#     Edge 71, Type (0, 0), BuildingBlock: UVAHIK_clean_linker_0, # of connection points: 2
#     Edge 72, Type (0, 0), BuildingBlock: UVAHIK_clean_linker_0, # of connection points: 2
#     Edge 73, Type (0, 0), BuildingBlock: UVAHIK_clean_linker_0, # of connection points: 2
#     Edge 74, Type (0, 0), BuildingBlock: UVAHIK_clean_linker_0, # of connection points: 2
#     Edge 75, Type (0, 0), BuildingBlock: UVAHIK_clean_linker_0, # of connection points: 2
#     Edge 76, Type (0, 0), BuildingBlock: UVAHIK_clean_linker_0, # of connection points: 2
#     Edge 77, Type (0, 0), BuildingBlock: UVAHIK_clean_linker_0, # of connection points: 2
#     Edge 78, Type (0, 0), BuildingBlock: UVAHIK_clean_linker_0, # of connection points: 2
#     Edge 79, Type (0, 0), BuildingBlock: UVAHIK_clean_linker_0, # of connection points: 2
#     Edge 80, Type (0, 0), BuildingBlock: UVAHIK_clean_linker_0, # of connection points: 2
#     Edge 81, Type (0, 0), BuildingBlock: UVAHIK_clean_linker_0, # of connection points: 2
#     Edge 82, Type (0, 0), BuildingBlock: UVAHIK_clean_linker_0, # of connection points: 2
#     Edge 83, Type (0, 0), BuildingBlock: UVAHIK_clean_linker_0, # of connection points: 2
#     Edge 84, Type (0, 0), BuildingBlock: UVAHIK_clean_linker_0, # of connection points: 2
#     Edge 85, Type (0, 0), BuildingBlock: UVAHIK_clean_linker_0, # of connection points: 2
#     Edge 86, Type (0, 0), BuildingBlock: UVAHIK_clean_linker_0, # of connection points: 2
#     Edge 87, Type (0, 0), BuildingBlock: UVAHIK_clean_linker_0, # of connection points: 2
#     Edge 88, Type (0, 0), BuildingBlock: UVAHIK_clean_linker_0, # of connection points: 2
#     Edge 89, Type (0, 0), BuildingBlock: UVAHIK_clean_linker_0, # of connection points: 2
#     Edge 90, Type (0, 0), BuildingBlock: UVAHIK_clean_linker_0, # of connection points: 2
#     Edge 91, Type (0, 0), BuildingBlock: UVAHIK_clean_linker_0, # of connection points: 2
#     Edge 92, Type (0, 0), BuildingBlock: UVAHIK_clean_linker_0, # of connection points: 2
#     Edge 93, Type (0, 0), BuildingBlock: UVAHIK_clean_linker_0, # of connection points: 2
#     Edge 94, Type (0, 0), BuildingBlock: UVAHIK_clean_linker_0, # of connection points: 2
#     Edge 95, Type (0, 0), BuildingBlock: UVAHIK_clean_linker_0, # of connection points: 2
# Relax obj value: 0.004
# Max RMSD: 0.089
# Mean RMSD: 0.089
data_MOF--net-ukj--node1-ESEHIV_clean_sbu_0--edge1-UVAHIK_clean_linker_0
_symmetry_space_group_name_H-M    P1
_symmetry_Int_Tables_number       1
_symmetry_cell_setting            triclinic
loop_
_symmetry_equiv_pos_as_xyz
'x, y, z'
_cell_length_a     49.432149
_cell_length_b     87.675749
_cell_length_c     72.027216
_cell_angle_alpha  90.025324
_cell_angle_beta   89.969505
_cell_angle_gamma 89.850591
loop_
_atom_site_label
_atom_site_type_symbol
_atom_site_fract_x
_atom_site_fract_y
_atom_site_fract_z
_atom_type_partial_charge
Cu0 Cu 0.18757 0.33157 0.26542 0.0
N1 N 0.22481 0.33005 0.26153 0.0
N2 N 0.26854 0.3362 0.2602 0.0
C3 C 0.2445 0.33902 0.26844 0.0
C4 C 0.26384 0.32499 0.2478 0.0
C5 C 0.23686 0.32119 0.24871 0.0
O6 O 0.18061 0.34165 0.28903 0.0
C7 C 0.18453 0.3505 0.23347 0.0
O8 O 0.20796 0.35559 0.23938 0.0
H9 H 0.24094 0.34811 0.27831 0.0
H10 H 0.22642 0.31308 0.23996 0.0
N11 N 0.17347 0.31194 0.26738 0.0
N12 N 0.14416 0.29257 0.26777 0.0
C13 C 0.14786 0.30752 0.264 0.0
C14 C 0.18644 0.2994 0.27345 0.0
C15 C 0.16844 0.28743 0.2737 0.0
C16 C 0.18365 0.35573 0.29276 0.0
O17 O 0.19076 0.3652 0.27951 0.0
H18 H 0.13214 0.31524 0.25934 0.0
H19 H 0.20746 0.29906 0.2776 0.0
O20 O 0.17141 0.34112 0.24354 0.0
H21 H 0.27866 0.32027 0.23832 0.0
H22 H 0.17294 0.27585 0.27788 0.0
Cu23 Cu 0.08728 0.93533 0.25964 0.0
N24 N 0.04968 0.93607 0.25744 0.0
N25 N 1.0061 0.92941 0.25728 0.0
C26 C 0.03112 0.92603 0.26363 0.0
C27 C 1.00903 0.94207 0.24683 0.0
C28 C 0.0359 0.94616 0.247 0.0
O29 O 0.09741 0.92454 0.28224 0.0
C30 C 0.12594 0.9247 0.23226 0.0
O31 O 0.14393 0.92449 0.24568 0.0
H32 H 0.036 0.91606 0.27183 0.0
H33 H 0.04499 0.95552 0.23949 0.0
N34 N 0.10025 0.95516 0.26239 0.0
N35 N 0.12906 0.97476 0.26227 0.0
C36 C 0.12426 0.9604 0.2564 0.0
C37 C 0.08931 0.96661 0.27234 0.0
C38 C 0.10708 0.97874 0.27232 0.0
C39 C 0.09445 0.91048 0.2861 0.0
O40 O 0.08539 0.9011 0.27332 0.0
H41 H 0.13855 0.95359 0.24863 0.0
H42 H 0.07017 0.966 0.27958 0.0
O43 O 0.10132 0.92761 0.23611 0.0
H44 H 0.99297 0.94777 0.23932 0.0
H45 H 0.10426 0.9895 0.27943 0.0
Cu46 Cu 0.18748 0.91654 1.0115 0.0
N47 N 0.21079 0.90105 0.0198 0.0
N48 N 0.2512 0.89057 0.02591 0.0
C49 C 0.23671 0.89943 0.01422 0.0
C50 C 0.23354 0.88622 0.0392 0.0
C51 C 0.20863 0.89268 0.03538 0.0
O52 O 0.19392 0.91962 0.98484 0.0
C53 C 0.21016 0.93411 0.04085 0.0
O54 O 0.23331 0.92726 0.03753 0.0
H55 H 0.24544 0.90597 1.00297 0.0
H56 H 0.1909 0.8924 0.04418 0.0
N57 N 0.1506 0.91201 0.01411 0.0
N58 N 0.1064 0.91745 0.01618 0.0
C59 C 0.13185 0.92277 0.01787 0.0
C60 C 0.13646 0.89931 1.01011 0.0
C61 C 0.10913 0.90268 1.01124 0.0
C62 C 0.19105 0.90741 0.97537 0.0
O63 O 0.18609 0.89467 0.98431 0.0
H64 H 0.13676 0.93457 0.0207 0.0
H65 H 0.14525 0.88853 1.00594 0.0
O66 O 0.19176 0.93377 0.02846 0.0
H67 H 0.23864 0.87959 0.05138 0.0
H68 H 0.09258 0.89499 1.00827 0.0
Cu69 Cu 0.09434 0.32898 1.01029 0.0
N70 N 0.05654 0.32725 1.01165 0.0
N71 N 1.01288 0.33417 0.01264 0.0
C72 C 0.03781 0.33754 1.00609 0.0
C73 C 1.01605 0.32127 0.02261 0.0
C74 C 0.04291 0.31705 0.02199 0.0
O75 O 0.10374 0.33944 0.98736 0.0
C76 C 0.12771 0.34407 0.03817 0.0
O77 O 0.14763 0.34428 0.02609 0.0
H78 H 0.04266 0.34786 0.99855 0.0
H79 H 0.05216 0.30772 0.0295 0.0
N80 N 0.11089 0.30966 1.00949 0.0
N81 N 0.14274 0.29133 1.00943 0.0
C82 C 0.13736 0.30635 1.01198 0.0
C83 C 0.09913 0.2963 1.0052 0.0
C84 C 0.1186 0.28502 1.00521 0.0
C85 C 0.10133 0.35361 0.98395 0.0
O86 O 0.09353 0.36291 0.99723 0.0
H87 H 0.15247 0.31487 0.01507 0.0
H88 H 0.07792 0.29489 1.00199 0.0
O89 O 0.10473 0.33892 0.03335 0.0
H90 H 1.00025 0.31562 0.0304 0.0
H91 H 0.11512 0.27307 1.00233 0.0
Cu92 Cu 0.84395 0.68804 0.75988 0.0
N93 N 0.80607 0.68949 0.76059 0.0
N94 N 0.76255 0.68244 0.76134 0.0
C95 C 0.78778 0.67885 0.75548 0.0
C96 C 0.76507 0.69585 0.77036 0.0
C97 C 0.79185 0.70014 0.76988 0.0
O98 O 0.85457 0.67665 0.73778 0.0
C99 C 0.87728 0.67523 0.78958 0.0
O100 O 0.89745 0.67428 0.77776 0.0
H101 H 0.79307 0.66822 0.74875 0.0
H102 H 0.80063 0.70993 0.77674 0.0
N103 N 0.85948 0.70748 0.75766 0.0
N104 N 0.89046 0.72613 0.75665 0.0
C105 C 0.88546 0.71137 0.76094 0.0
C106 C 0.84764 0.7202 0.75106 0.0
C107 C 0.86661 0.7317 0.75046 0.0
C108 C 0.85139 0.6625 0.73452 0.0
O109 O 0.84207 0.65357 0.74768 0.0
H110 H 0.9006 0.70339 0.76578 0.0
H111 H 0.82678 0.72098 0.74665 0.0
O112 O 0.8542 0.67974 0.78398 0.0
H113 H 0.74884 0.70184 0.77738 0.0
H114 H 0.86305 0.74325 0.74577 0.0
Cu115 Cu 0.93006 0.08412 0.75955 0.0
N116 N 0.94301 0.10377 0.76493 0.0
N117 N 0.97507 0.12173 0.76736 0.0
C118 C 0.96943 0.1071 0.763 0.0
C119 C 0.95102 0.12787 0.77237 0.0
C120 C 0.93124 0.11676 0.7708 0.0
O121 O 0.94224 0.08078 0.73391 0.0
C122 C 0.93411 0.0762 0.79545 0.0
O123 O 0.91851 0.08833 0.79561 0.0
H124 H 0.98428 0.09875 0.75867 0.0
H125 H 0.90993 0.1181 0.77377 0.0
N126 N 0.89245 0.08103 0.75976 0.0
N127 N 0.85434 0.06714 0.75966 0.0
C128 C 0.88167 0.06695 0.75901 0.0
C129 C 0.87123 0.09063 0.76093 0.0
C130 C 0.84769 0.08209 0.76082 0.0
C131 C 0.93216 0.09103 0.72333 0.0
O132 O 0.91463 0.10064 0.73055 0.0
H133 H 0.89389 0.05674 0.75781 0.0
H134 H 0.87268 0.1029 0.76182 0.0
O135 O 0.94321 0.07133 0.77991 0.0
H136 H 0.94782 0.13957 0.77664 0.0
H137 H 0.82734 0.08658 0.7618 0.0
Cu138 Cu 0.84068 0.05879 0.01717 0.0
N139 N 0.80287 0.06037 0.01503 0.0
N140 N 0.76084 0.06999 0.01355 0.0
C141 C 0.78636 0.07205 0.01988 0.0
C142 C 0.76132 0.05651 1.00453 0.0
C143 C 0.78715 0.05061 1.0055 0.0
O144 O 0.8528 0.07074 0.03842 0.0
C145 C 0.8804 0.06572 0.98846 0.0
O146 O 0.89898 0.06581 1.0015 0.0
H147 H 0.79316 0.08221 0.027 0.0
H148 H 0.79431 0.04022 0.99905 0.0
N149 N 0.85058 0.03863 0.02263 0.0
N150 N 0.87607 0.01764 0.02588 0.0
C151 C 0.87234 0.03078 0.01639 0.0
C152 C 0.84017 0.03008 0.03638 0.0
C153 C 0.85586 0.01716 0.03845 0.0
C154 C 0.85205 0.08512 0.04081 0.0
O155 O 0.8444 0.094 0.0271 0.0
H156 H 0.88613 0.03504 1.00595 0.0
H157 H 0.82318 0.03342 0.04495 0.0
O158 O 0.85567 0.06392 0.99289 0.0
H159 H 0.74432 0.05145 0.99736 0.0
H160 H 0.85314 0.00833 0.04878 0.0
Cu161 Cu 0.94088 0.69702 0.0184 0.0
N162 N 0.97857 0.69673 0.01491 0.0
N163 N 0.02122 0.68817 0.01264 0.0
C164 C 0.99659 0.68602 0.02042 0.0
C165 C 1.01861 0.70078 1.00205 0.0
C166 C 0.99239 0.70604 1.00351 0.0
O167 O 0.93237 0.68615 0.0413 0.0
C168 C 0.93557 0.67899 0.98579 0.0
O169 O 0.95778 0.67251 0.99198 0.0
H170 H 0.99131 0.67629 0.0289 0.0
H171 H 0.98361 0.71554 0.99605 0.0
N172 N 0.92902 0.71718 0.02213 0.0
N173 N 0.90244 0.73788 0.02422 0.0
C174 C 0.90593 0.72399 0.01631 0.0
C175 C 0.94044 0.72714 0.03396 0.0
C176 C 0.92412 0.73986 0.03531 0.0
C177 C 0.93242 0.67181 0.04408 0.0
O178 O 0.93716 0.66251 0.03015 0.0
H179 H 0.89133 0.71857 1.00728 0.0
H180 H 0.95884 0.725 0.04166 0.0
O181 O 0.92388 0.68905 0.9958 0.0
H182 H 0.03435 0.70559 0.9934 0.0
H183 H 0.92761 0.74969 0.04408 0.0
Cu184 Cu 0.20061 0.83853 0.75941 0.0
N185 N 0.23671 0.83271 0.75505 0.0
N186 N 0.28178 0.83272 0.75147 0.0
C187 C 0.26016 0.83989 0.75913 0.0
C188 C 0.2715 0.82054 0.74249 0.0
C189 C 0.24387 0.82058 0.7447 0.0
O190 O 0.19736 0.85155 0.78135 0.0
C191 C 0.20118 0.85487 0.72531 0.0
O192 O 0.2261 0.85813 0.73019 0.0
H193 H 0.26127 0.85049 0.76675 0.0
H194 H 0.22977 0.81256 0.73869 0.0
N195 N 0.18065 0.82082 0.76443 0.0
N196 N 0.14686 0.80391 0.76723 0.0
C197 C 0.15423 0.81794 0.76115 0.0
C198 C 0.19028 0.80823 0.7728 0.0
C199 C 0.16964 0.79782 0.7745 0.0
C200 C 0.20788 0.86462 0.7841 0.0
O201 O 0.22211 0.87104 0.77085 0.0
H202 H 0.14066 0.82609 0.75475 0.0
H203 H 0.21095 0.80676 0.7774 0.0
O204 O 0.18624 0.84748 0.73657 0.0
H205 H 0.2831 0.81227 0.73463 0.0
H206 H 0.17147 0.78655 0.78049 0.0
Cu207 Cu 0.09223 0.4287 0.76633 0.0
N208 N 0.05444 0.43029 0.76465 0.0
N209 N 1.01086 0.42337 0.76356 0.0
C210 C 0.03571 0.42011 0.77039 0.0
C211 C 1.0141 0.43607 0.75324 0.0
C212 C 0.04091 0.44028 0.75391 0.0
O213 O 0.10164 0.41847 0.78941 0.0
C214 C 0.12659 0.41369 0.73889 0.0
O215 O 0.1462 0.41363 0.75119 0.0
H216 H 0.04049 0.40997 0.7783 0.0
H217 H 0.05021 0.44946 0.74621 0.0
N218 N 0.10824 0.44811 0.76709 0.0
N219 N 0.1397 0.46654 0.76741 0.0
C220 C 0.13473 0.45148 0.76505 0.0
C221 C 0.09604 0.46147 0.77091 0.0
C222 C 0.11528 0.47283 0.77106 0.0
C223 C 0.09932 0.40435 0.79315 0.0
O224 O 0.09146 0.39486 0.78011 0.0
H225 H 0.15012 0.44296 0.76244 0.0
H226 H 0.07467 0.46285 0.77369 0.0
O227 O 0.10336 0.41872 0.74342 0.0
H228 H 0.99838 0.4416 0.74521 0.0
H229 H 0.11146 0.4848 0.77365 0.0
Cu230 Cu 0.19302 0.42719 0.51281 0.0
N231 N 0.23049 0.42808 0.51659 0.0
N232 N 0.2739 0.42091 0.51817 0.0
C233 C 0.24971 0.41857 0.50991 0.0
C234 C 0.26977 0.4324 0.53032 0.0
C235 C 0.24304 0.4368 0.52929 0.0
O236 O 0.18562 0.41775 0.4889 0.0
C237 C 0.18949 0.40778 0.54444 0.0
O238 O 0.21314 0.40273 0.53878 0.0
H239 H 0.24563 0.40942 0.50022 0.0
H240 H 0.23307 0.44522 0.5379 0.0
N241 N 0.1787 0.44695 0.51174 0.0
N242 N 0.14868 0.46615 0.51137 0.0
C243 C 0.1525 0.45097 0.51369 0.0
C244 C 0.19196 0.45998 0.50808 0.0
C245 C 0.17355 0.47182 0.50786 0.0
C246 C 0.1874 0.40366 0.48484 0.0
O247 O 0.1935 0.39376 0.49788 0.0
H248 H 0.13652 0.44284 0.51631 0.0
H249 H 0.21349 0.46078 0.50558 0.0
O250 O 0.1766 0.41726 0.53433 0.0
H251 H 0.28479 0.43693 0.53975 0.0
H252 H 0.17823 0.4837 0.5054 0.0
Cu253 Cu 0.09312 0.83773 0.50497 0.0
N254 N 0.05544 0.83652 0.50729 0.0
N255 N 1.01204 0.84372 0.50897 0.0
C256 C 0.03682 0.84698 0.5021 0.0
C257 C 1.01519 0.83072 0.51875 0.0
C258 C 0.04192 0.82633 0.5177 0.0
O259 O 0.10187 0.84775 0.4816 0.0
C260 C 0.12926 0.85201 0.53176 0.0
O261 O 0.14827 0.85171 0.51901 0.0
H262 H 0.04166 0.85728 0.49454 0.0
H263 H 0.05117 0.81682 0.52487 0.0
N264 N 0.10821 0.81809 0.50395 0.0
N265 N 0.13869 0.79909 0.50411 0.0
C266 C 0.13427 0.81417 0.5069 0.0
C267 C 0.0957 0.80509 0.49909 0.0
C268 C 0.11436 0.79337 0.49922 0.0
C269 C 0.09996 0.8619 0.47787 0.0
O270 O 0.09322 0.87154 0.49106 0.0
H271 H 0.14982 0.82229 0.51049 0.0
H272 H 0.07455 0.80422 0.49544 0.0
O273 O 0.10553 0.84752 0.52769 0.0
H274 H 0.99948 0.82509 0.52665 0.0
H275 H 0.11021 0.78156 0.49598 0.0
Cu276 Cu 0.85333 0.16809 0.25439 0.0
N277 N 0.81574 0.16997 0.25588 0.0
N278 N 0.77188 0.16386 0.25744 0.0
C279 C 0.79713 0.15898 0.25322 0.0
C280 C 0.77483 0.1785 0.2629 0.0
C281 C 0.80184 0.18219 0.26202 0.0
O282 O 0.86252 0.15671 0.23198 0.0
C283 C 0.88816 0.15515 0.28304 0.0
O284 O 0.90784 0.15482 0.27078 0.0
H285 H 0.80217 0.14745 0.2491 0.0
H286 H 0.81083 0.19289 0.26616 0.0
N287 N 0.86838 0.1875 0.25157 0.0
N288 N 0.89805 0.20676 0.25103 0.0
C289 C 0.89325 0.19226 0.25657 0.0
C290 C 0.85711 0.19932 0.24252 0.0
C291 C 0.87522 0.21121 0.24226 0.0
C292 C 0.85943 0.14254 0.22886 0.0
O293 O 0.85112 0.13358 0.24231 0.0
H294 H 0.90782 0.18504 0.26352 0.0
H295 H 0.83729 0.19919 0.23619 0.0
O296 O 0.8647 0.15954 0.27811 0.0
H297 H 0.75871 0.18598 0.26746 0.0
H298 H 0.87177 0.22224 0.23595 0.0
Cu299 Cu 0.93358 0.58793 0.25678 0.0
N300 N 0.97107 0.58529 0.257 0.0
N301 N 1.01537 0.59041 0.25622 0.0
C302 C 0.99012 0.59574 0.25294 0.0
C303 C 1.01195 0.57605 0.26255 0.0
C304 C 0.98467 0.57298 0.26311 0.0
O305 O 0.92381 0.60001 0.23506 0.0
C306 C 0.90162 0.60128 0.2868 0.0
O307 O 0.88136 0.60256 0.2751 0.0
H308 H 0.98547 0.60721 0.24843 0.0
H309 H 0.97536 0.56262 0.26813 0.0
N310 N 0.91734 0.56887 0.25369 0.0
N311 N 0.88657 0.5502 0.2527 0.0
C312 C 0.89213 0.56454 0.25849 0.0
C313 C 0.92802 0.55693 0.24452 0.0
C314 C 0.90923 0.54539 0.24398 0.0
C315 C 0.92817 0.61412 0.23222 0.0
O316 O 0.93818 0.62254 0.24564 0.0
H317 H 0.87789 0.57197 0.26548 0.0
H318 H 0.9479 0.55674 0.23826 0.0
O319 O 0.92425 0.59614 0.28112 0.0
H320 H 0.02794 0.56834 0.26673 0.0
H321 H 0.9121 0.53436 0.23753 0.0
Cu322 Cu 0.85025 0.58711 0.51591 0.0
N323 N 0.81293 0.58523 0.51199 0.0
N324 N 0.76892 0.591 0.50991 0.0
C325 C 0.79278 0.59438 0.51809 0.0
C326 C 0.77425 0.57919 0.49844 0.0
C327 C 0.80134 0.57568 0.49975 0.0
O328 O 0.85666 0.59707 0.53973 0.0
C329 C 0.85237 0.60612 0.48388 0.0
O330 O 0.82887 0.6111 0.48989 0.0
H331 H 0.7959 0.60396 0.52734 0.0
H332 H 0.81215 0.56722 0.49169 0.0
N333 N 0.86576 0.56766 0.51758 0.0
N334 N 0.89661 0.54888 0.51836 0.0
C335 C 0.89211 0.56395 0.51557 0.0
C336 C 0.85314 0.55454 0.52177 0.0
C337 C 0.87203 0.54296 0.52223 0.0
C338 C 0.85433 0.61117 0.54361 0.0
O339 O 0.84827 0.62091 0.53038 0.0
H340 H 0.90768 0.57224 0.51254 0.0
H341 H 0.83169 0.55349 0.52447 0.0
O342 O 0.8659 0.59692 0.49399 0.0
H343 H 0.75975 0.57379 0.48932 0.0
H344 H 0.86787 0.53109 0.5251 0.0
Cu345 Cu 0.9481 0.16985 0.51259 0.0
N346 N 0.98352 0.1764 0.50808 0.0
N347 N 0.02864 0.17777 0.50595 0.0
C348 C 1.00733 0.16994 0.5129 0.0
C349 C 1.01769 0.18962 0.4966 0.0
C350 C 0.98999 0.18872 0.49792 0.0
O351 O 0.94732 0.15678 0.53456 0.0
C352 C 0.94967 0.15357 0.47857 0.0
O353 O 0.97462 0.15061 0.48373 0.0
H354 H 1.00892 0.15947 0.52078 0.0
H355 H 0.97546 0.19641 0.4917 0.0
N356 N 0.9275 0.18724 0.51817 0.0
N357 N 0.89378 0.20426 0.52094 0.0
C358 C 0.90134 0.19041 0.5143 0.0
C359 C 0.93675 0.19943 0.52749 0.0
C360 C 0.91616 0.20992 0.52918 0.0
C361 C 0.95458 0.14287 0.53596 0.0
O362 O 0.96278 0.13549 0.52111 0.0
H363 H 0.88812 0.18263 0.50701 0.0
H364 H 0.95718 0.20061 0.53267 0.0
O365 O 0.93414 0.16076 0.4897 0.0
H366 H 0.02887 0.19836 0.48931 0.0
H367 H 0.91779 0.22096 0.53578 0.0
Cu368 Cu 0.688 0.32722 0.76567 0.0
N369 N 0.72581 0.3254 0.76455 0.0
N370 N 0.76937 0.3324 0.76391 0.0
C371 C 0.74443 0.33548 0.7707 0.0
C372 C 0.76634 0.31991 0.75318 0.0
C373 C 0.73954 0.31565 0.75358 0.0
O374 O 0.67824 0.33804 0.78833 0.0
C375 C 0.6549 0.3416 0.73701 0.0
O376 O 0.63457 0.3417 0.74875 0.0
H377 H 0.73947 0.34552 0.77877 0.0
H378 H 0.73036 0.30669 0.74543 0.0
N379 N 0.67143 0.30796 0.76668 0.0
N380 N 0.63934 0.28985 0.76718 0.0
C381 C 0.64471 0.30494 0.76544 0.0
C382 C 0.6834 0.29435 0.76939 0.0
C383 C 0.66378 0.28321 0.76965 0.0
C384 C 0.68125 0.35219 0.79162 0.0
O385 O 0.6899 0.36122 0.77835 0.0
H386 H 0.62951 0.3137 0.76369 0.0
H387 H 0.7049 0.29264 0.77122 0.0
O388 O 0.67797 0.33684 0.7423 0.0
H389 H 0.78217 0.31465 0.74496 0.0
H390 H 0.66741 0.27112 0.77138 0.0
Cu391 Cu 0.60469 0.91837 0.75705 0.0
N392 N 0.59131 0.89976 0.74829 0.0
N393 N 0.55886 0.8822 0.74447 0.0
C394 C 0.5683 0.89374 0.75505 0.0
C395 C 0.57716 0.88075 0.73059 0.0
C396 C 0.59713 0.89163 0.73296 0.0
O397 O 0.59834 0.91771 0.78391 0.0
C398 C 0.57058 0.93179 0.72972 0.0
O399 O 0.5533 0.92067 0.73248 0.0
H400 H 0.55743 0.89878 0.76657 0.0
H401 H 0.61361 0.89408 0.72355 0.0
N402 N 0.64171 0.92174 0.75324 0.0
N403 N 0.67961 0.93565 0.75104 0.0
C404 C 0.65275 0.93573 0.75449 0.0
C405 C 0.66227 0.91234 0.74874 0.0
C406 C 0.68573 0.92089 0.74748 0.0
C407 C 0.61145 0.9068 0.79153 0.0
O408 O 0.62765 0.8986 0.78103 0.0
H409 H 0.64117 0.9458 0.75809 0.0
H410 H 0.66034 0.90019 0.7465 0.0
O411 O 0.58832 0.93454 0.74213 0.0
H412 H 0.57567 0.8729 0.71905 0.0
H413 H 0.70563 0.91661 0.74393 0.0
Cu414 Cu 0.69426 0.94881 0.51126 0.0
N415 N 0.73152 0.94667 0.5153 0.0
N416 N 0.77355 0.93724 0.51702 0.0
C417 C 0.74916 0.93622 0.5086 0.0
C418 C 0.77117 0.94878 0.5293 0.0
C419 C 0.74532 0.95455 0.5282 0.0
O420 O 0.68366 0.93774 0.48892 0.0
C421 C 0.65184 0.94116 0.53783 0.0
O422 O 0.63432 0.94212 0.52417 0.0
H423 H 0.74389 0.92758 0.4985 0.0
H424 H 0.73678 0.96352 0.53671 0.0
N425 N 0.6863 0.96946 0.50743 0.0
N426 N 0.66338 0.99149 0.50518 0.0
C427 C 0.66188 0.9763 0.50843 0.0
C428 C 0.70388 0.98064 0.50335 0.0
C429 C 0.68988 0.9942 0.50198 0.0
C430 C 0.68476 0.92337 0.48655 0.0
O431 O 0.69176 0.91456 0.50051 0.0
H432 H 0.64339 0.9702 0.51133 0.0
H433 H 0.72544 0.97905 0.50162 0.0
O434 O 0.67697 0.94269 0.53444 0.0
H435 H 0.78686 0.95255 0.53871 0.0
H436 H 0.69875 1.00523 0.49919 0.0
Cu437 Cu 0.59821 0.32614 0.50902 0.0
N438 N 0.56081 0.32468 0.51284 0.0
N439 N 0.5171 0.33112 0.51508 0.0
C440 C 0.5412 0.33434 0.50711 0.0
C441 C 0.52172 0.3189 0.52602 0.0
C442 C 0.54863 0.31496 0.52459 0.0
O443 O 0.6049 0.33636 0.48545 0.0
C444 C 0.60109 0.3452 0.54094 0.0
O445 O 0.57783 0.35045 0.53487 0.0
H446 H 0.54489 0.34412 0.49831 0.0
H447 H 0.55894 0.30608 0.53227 0.0
N448 N 0.61296 0.30653 0.50689 0.0
N449 N 0.64285 0.28728 0.50617 0.0
C450 C 0.63867 0.30215 0.51035 0.0
C451 C 0.60045 0.29403 0.50036 0.0
C452 C 0.61877 0.28216 0.49991 0.0
C453 C 0.60341 0.35058 0.48209 0.0
O454 O 0.59822 0.36012 0.49571 0.0
H455 H 0.65414 0.30986 0.51531 0.0
H456 H 0.57954 0.29366 0.49598 0.0
O457 O 0.61419 0.33568 0.53099 0.0
H458 H 0.50687 0.31348 0.53486 0.0
H459 H 0.61462 0.27064 0.49534 0.0
Cu460 Cu 0.34427 0.67736 0.26177 0.0
N461 N 0.30683 0.68017 0.2618 0.0
N462 N 0.26254 0.67521 0.2601 0.0
C463 C 0.28786 0.66987 0.25712 0.0
C464 C 0.26584 0.68944 0.26691 0.0
C465 C 0.29313 0.69243 0.26801 0.0
O466 O 0.35435 0.66643 0.2393 0.0
C467 C 0.37597 0.66204 0.29009 0.0
O468 O 0.39562 0.661 0.27787 0.0
H469 H 0.29261 0.65849 0.25232 0.0
H470 H 0.30234 0.70269 0.2734 0.0
N471 N 0.36119 0.69632 0.26045 0.0
N472 N 0.393 0.71439 0.26151 0.0
C473 C 0.38628 0.69996 0.26621 0.0
C474 C 0.35172 0.70883 0.25179 0.0
C475 C 0.37119 0.72 0.25249 0.0
C476 C 0.35027 0.65246 0.23551 0.0
O477 O 0.34025 0.6434 0.24828 0.0
H478 H 0.39971 0.69198 0.27304 0.0
H479 H 0.33227 0.70962 0.24499 0.0
O480 O 0.35338 0.66779 0.28529 0.0
H481 H 0.24975 0.69713 0.27098 0.0
H482 H 0.36944 0.73132 0.24663 0.0
Cu483 Cu 0.44252 0.07779 0.26115 0.0
N484 N 0.4796 0.07425 0.26355 0.0
N485 N 0.52403 0.07896 0.26344 0.0
C486 C 0.49893 0.08489 0.26153 0.0
C487 C 0.52024 0.06397 0.26685 0.0
C488 C 0.49281 0.06109 0.26683 0.0
O489 O 0.43887 0.09271 0.24139 0.0
C490 C 0.43134 0.07446 0.29839 0.0
O491 O 0.44528 0.06198 0.29507 0.0
H492 H 0.49456 0.09677 0.25878 0.0
H493 H 0.48318 0.05015 0.26886 0.0
N494 N 0.42477 0.06011 0.25375 0.0
N495 N 0.39127 0.04335 0.24995 0.0
C496 C 0.39921 0.05642 0.25822 0.0
C497 C 0.43346 0.04906 0.24224 0.0
C498 C 0.41282 0.03867 0.23988 0.0
C499 C 0.41721 0.09554 0.23249 0.0
O500 O 0.39426 0.08967 0.23821 0.0
H501 H 0.38645 0.0635 0.26689 0.0
H502 H 0.45324 0.04871 0.23582 0.0
O503 O 0.42752 0.08384 0.28512 0.0
H504 H 0.53614 0.05561 0.26882 0.0
H505 H 0.41365 0.02851 0.23137 0.0
Cu506 Cu 0.36422 0.10676 0.51707 0.0
N507 N 0.34703 0.12544 0.51289 0.0
N508 N 0.31202 0.14165 0.5114 0.0
C509 C 0.32188 0.12867 0.51892 0.0
C510 C 0.33212 0.14692 0.50041 0.0
C511 C 0.3537 0.13688 0.50136 0.0
O512 O 0.35375 0.10093 0.54231 0.0
C513 C 0.33657 0.09561 0.48493 0.0
O514 O 0.31859 0.10628 0.48836 0.0
H515 H 0.31026 0.12091 0.52744 0.0
H516 H 0.37225 0.13744 0.49343 0.0
N517 N 0.40189 0.10822 0.51551 0.0
N518 N 0.44454 0.09986 0.51292 0.0
C519 C 0.41809 0.09616 0.51221 0.0
C520 C 0.4186 0.12013 0.51809 0.0
C521 C 0.44501 0.11499 0.51644 0.0
C522 C 0.37036 0.09587 0.55438 0.0
O523 O 0.39449 0.09143 0.54901 0.0
H524 H 0.41049 0.08476 0.5098 0.0
H525 H 0.41209 0.1316 0.52139 0.0
O526 O 0.35473 0.09274 0.49701 0.0
H527 H 0.331 0.15697 0.49174 0.0
H528 H 0.4631 0.12173 0.51841 0.0
Cu529 Cu 0.43852 0.67992 0.51571 0.0
N530 N 0.47583 0.68152 0.5116 0.0
N531 N 0.51963 0.67524 0.50966 0.0
C532 C 0.49572 0.67237 0.51806 0.0
C533 C 0.51461 0.6867 0.49763 0.0
C534 C 0.48764 0.69055 0.49889 0.0
O535 O 0.43213 0.67057 0.5398 0.0
C536 C 0.43567 0.65976 0.48477 0.0
O537 O 0.45942 0.65506 0.49062 0.0
H538 H 0.49234 0.66311 0.52771 0.0
H539 H 0.47703 0.69882 0.49043 0.0
N540 N 0.42304 0.69941 0.51658 0.0
N541 N 0.39206 0.71811 0.51647 0.0
C542 C 0.39673 0.70301 0.51417 0.0
C543 C 0.43549 0.71263 0.52052 0.0
C544 C 0.41649 0.72418 0.52044 0.0
C545 C 0.43368 0.65646 0.54378 0.0
O546 O 0.43893 0.64653 0.53059 0.0
H547 H 0.38128 0.69463 0.51122 0.0
H548 H 0.45685 0.71378 0.5234 0.0
O549 O 0.42248 0.66939 0.4945 0.0
H550 H 0.52921 0.69159 0.48816 0.0
H551 H 0.42047 0.73612 0.52302 0.0
Cu552 Cu 0.6847 0.83318 0.27699 0.0
N553 N 0.72165 0.83265 0.2716 0.0
N554 N 0.76459 0.8399 0.26788 0.0
C555 C 0.74086 0.84278 0.27652 0.0
C556 C 0.76019 0.82747 0.25726 0.0
C557 C 0.73373 0.823 0.25965 0.0
O558 O 0.67809 0.84503 0.29946 0.0
C559 C 0.67548 0.8462 0.24107 0.0
O560 O 0.69994 0.85182 0.24283 0.0
H561 H 0.73713 0.85254 0.28537 0.0
H562 H 0.72359 0.81376 0.25256 0.0
N563 N 0.67271 0.81349 0.28182 0.0
N564 N 0.64454 0.79363 0.28295 0.0
C565 C 0.648 0.80822 0.2775 0.0
C566 C 0.6855 0.80188 0.29033 0.0
C567 C 0.66811 0.78958 0.29108 0.0
C568 C 0.67983 0.85943 0.30136 0.0
O569 O 0.68531 0.86792 0.28682 0.0
H570 H 0.63266 0.81514 0.27084 0.0
H571 H 0.70594 0.80236 0.29566 0.0
O572 O 0.66468 0.83943 0.25484 0.0
H573 H 0.77488 0.82225 0.24807 0.0
H574 H 0.67256 0.77853 0.29704 0.0
Cu575 Cu 0.59284 0.42821 0.26588 0.0
N576 N 0.55534 0.43026 0.26435 0.0
N577 N 0.5114 0.42447 0.26358 0.0
C578 C 0.53616 0.42028 0.2697 0.0
C579 C 0.51515 0.43757 0.25413 0.0
C580 C 0.54225 0.4411 0.25462 0.0
O581 O 0.60225 0.41715 0.2884 0.0
C582 C 0.62704 0.41433 0.2374 0.0
O583 O 0.64684 0.41387 0.24954 0.0
H584 H 0.54044 0.40972 0.27691 0.0
H585 H 0.55196 0.45052 0.24762 0.0
N586 N 0.60797 0.44762 0.26806 0.0
N587 N 0.63793 0.46669 0.26872 0.0
C588 C 0.63347 0.45196 0.26409 0.0
C589 C 0.59593 0.45999 0.27544 0.0
C590 C 0.61428 0.47177 0.27581 0.0
C591 C 0.59872 0.40306 0.29183 0.0
O592 O 0.58949 0.39405 0.27871 0.0
H593 H 0.64865 0.44432 0.25853 0.0
H594 H 0.57534 0.46033 0.28052 0.0
O595 O 0.60388 0.41922 0.24234 0.0
H596 H 0.49954 0.44387 0.24689 0.0
H597 H 0.61047 0.48317 0.28098 0.0
Cu598 Cu 0.6861 0.42765 1.0099 0.0
N599 N 0.72365 0.42914 0.01354 0.0
N600 N 0.7674 0.42256 0.01541 0.0
C601 C 0.74334 0.41977 1.00714 0.0
C602 C 0.76268 0.43419 0.02727 0.0
C603 C 0.73578 0.43821 0.02607 0.0
O604 O 0.67913 0.41786 0.9861 0.0
C605 C 0.68399 0.4084 0.04177 0.0
O606 O 0.70769 0.40358 0.03593 0.0
H607 H 0.7397 0.41041 0.99767 0.0
H608 H 0.72542 0.44661 0.03449 0.0
N609 N 0.67041 0.44714 1.0087 0.0
N610 N 0.63912 0.46576 1.0081 0.0
C611 C 0.64387 0.45062 1.01021 0.0
C612 C 0.68293 0.46049 1.00555 0.0
C613 C 0.66378 0.47195 1.0052 0.0
C614 C 0.68101 0.40372 0.98231 0.0
O615 O 0.68695 0.394 0.99558 0.0
H616 H 0.62834 0.44214 1.01241 0.0
H617 H 0.70448 0.46178 1.00352 0.0
O618 O 0.6705 0.41761 0.03165 0.0
H619 H 0.77745 0.43909 0.03661 0.0
H620 H 0.66784 0.48395 1.0031 0.0
Cu621 Cu 0.60439 0.85277 0.01674 0.0
N622 N 0.58187 0.86937 0.02296 0.0
N623 N 0.54196 0.88114 0.02666 0.0
C624 C 0.55506 0.86892 0.01968 0.0
C625 C 0.56131 0.8897 0.03476 0.0
C626 C 0.58604 0.88246 0.03233 0.0
O627 O 0.59459 0.84765 0.99103 0.0
C628 C 0.60524 0.84403 0.05242 0.0
O629 O 0.61581 0.85775 0.05256 0.0
H630 H 0.54519 0.85945 0.01284 0.0
H631 H 0.60544 0.88624 0.03748 0.0
N632 N 0.64204 0.85581 0.01649 0.0
N633 N 0.68506 0.84757 0.01559 0.0
C634 C 0.65967 0.84478 0.02158 0.0
C635 C 0.6569 0.86603 1.007 0.0
C636 C 0.68344 0.86096 1.0064 0.0
C637 C 0.59292 0.85939 0.98052 0.0
O638 O 0.59782 0.8729 0.98758 0.0
H639 H 0.65352 0.83421 0.02808 0.0
H640 H 0.64877 0.87585 0.99984 0.0
O641 O 0.59815 0.8382 0.0369 0.0
H642 H 0.55781 0.90034 0.04201 0.0
H643 H 0.69997 0.86632 0.99902 0.0
Cu644 Cu 0.3265 0.17989 0.76408 0.0
N645 N 0.28995 0.18551 0.76561 0.0
N646 N 0.24471 0.18402 0.7671 0.0
C647 C 0.26815 0.17634 0.76422 0.0
C648 C 0.2522 0.19858 0.77037 0.0
C649 C 0.28002 0.19945 0.76945 0.0
O650 O 0.32968 0.16449 0.74461 0.0
C651 C 0.35812 0.16501 0.79254 0.0
O652 O 0.37456 0.16081 0.77915 0.0
H653 H 0.26956 0.1642 0.76165 0.0
H654 H 0.29221 0.20952 0.77168 0.0
N655 N 0.34743 0.19691 0.75754 0.0
N656 N 0.38127 0.21384 0.75524 0.0
C657 C 0.37192 0.20121 0.764 0.0
C658 C 0.34112 0.20708 0.74427 0.0
C659 C 0.36181 0.2175 0.74283 0.0
C660 C 0.35162 0.16196 0.73584 0.0
O661 O 0.37369 0.1692 0.74079 0.0
H662 H 0.38265 0.19515 0.77482 0.0
H663 H 0.32289 0.20675 0.73599 0.0
O664 O 0.33703 0.17272 0.78864 0.0
H665 H 0.23858 0.20799 0.77317 0.0
H666 H 0.36268 0.22679 0.73298 0.0
Cu667 Cu 0.44283 0.58298 0.76167 0.0
N668 N 0.48065 0.58168 0.76319 0.0
N669 N 0.52397 0.58911 0.76382 0.0
C670 C 0.499 0.59186 0.7569 0.0
C671 C 0.52125 0.57674 0.77478 0.0
C672 C 0.49458 0.5722 0.77436 0.0
O673 O 0.43306 0.59328 0.73872 0.0
C674 C 0.40836 0.59811 0.78886 0.0
O675 O 0.38899 0.59826 0.77639 0.0
H676 H 0.49382 0.6017 0.74856 0.0
H677 H 0.48562 0.5632 0.78256 0.0
N678 N 0.42713 0.56351 0.76093 0.0
N679 N 0.39586 0.54498 0.7606 0.0
C680 C 0.40064 0.56008 0.76275 0.0
C681 C 0.43955 0.55014 0.75749 0.0
C682 C 0.42041 0.53872 0.75732 0.0
C683 C 0.43542 0.60744 0.73524 0.0
O684 O 0.44342 0.61674 0.74843 0.0
H685 H 0.38512 0.56858 0.7651 0.0
H686 H 0.46101 0.5488 0.75503 0.0
O687 O 0.43157 0.59291 0.78456 0.0
H688 H 0.53719 0.57173 0.7831 0.0
H689 H 0.42438 0.52673 0.755 0.0
Cu690 Cu 0.3392 0.58539 0.01364 0.0
N691 N 0.3016 0.58491 1.00978 0.0
N692 N 0.25846 0.59272 1.00793 0.0
C693 C 0.2827 0.59474 0.01628 0.0
C694 C 0.26223 0.58109 0.99591 0.0
C695 C 0.28875 0.57632 0.99709 0.0
O696 O 0.34656 0.59408 0.03795 0.0
C697 C 0.34331 0.60549 0.98263 0.0
O698 O 0.31956 0.61048 0.98815 0.0
H699 H 0.28712 0.60388 0.02592 0.0
H700 H 0.29841 0.56772 0.98857 0.0
N701 N 0.35378 0.56561 0.01389 0.0
N702 N 0.38438 0.54664 0.01386 0.0
C703 C 0.38019 0.56186 1.01232 0.0
C704 C 0.34075 0.55234 0.0165 0.0
C705 C 0.3595 0.54065 0.01646 0.0
C706 C 0.34661 0.60811 0.04245 0.0
O707 O 0.34246 0.61853 0.02965 0.0
H708 H 0.39605 0.57022 1.01053 0.0
H709 H 0.31915 0.55126 0.01848 0.0
O710 O 0.35597 0.59585 0.99264 0.0
H711 H 0.24709 0.57668 0.98648 0.0
H712 H 0.35503 0.52865 0.01815 0.0
Cu713 Cu 0.44298 0.17263 0.01686 0.0
N714 N 0.48071 0.17325 0.01302 0.0
N715 N 0.52417 0.16596 1.01086 0.0
C716 C 0.50022 0.16382 0.01959 0.0
C717 C 0.51963 0.17729 0.99856 0.0
C718 C 0.49297 0.18175 0.99996 0.0
O719 O 0.43401 0.16213 0.03984 0.0
C720 C 0.43787 0.15472 0.98386 0.0
O721 O 0.46196 0.14946 0.98816 0.0
H722 H 0.49665 0.15494 0.02969 0.0
H723 H 0.48277 0.19006 0.99132 0.0
N724 N 0.4286 0.19238 0.01884 0.0
N725 N 0.39808 0.21138 0.01941 0.0
C726 C 0.40233 0.19627 0.01679 0.0
C727 C 0.4415 0.20545 0.02288 0.0
C728 C 0.42278 0.21717 0.02324 0.0
C729 C 0.44011 0.14841 0.04381 0.0
O730 O 0.45251 0.13987 0.03145 0.0
H731 H 0.38662 0.18807 0.01376 0.0
H732 H 0.463 0.20637 0.02543 0.0
O733 O 0.42588 0.16375 0.99504 0.0
H734 H 0.53434 0.18167 0.9888 0.0
H735 H 0.42717 0.22904 0.02595 0.0
C736 C 0.19341 0.36137 0.20186 0.0
C737 C 0.17595 0.35362 0.21405 0.0
C738 C 0.18732 0.36258 0.18295 0.0
C739 C 0.1325 0.35977 0.1483 0.0
H740 H 0.19025 0.34816 0.11465 0.0
C741 C 0.11236 0.34516 0.07134 0.0
C742 C 0.1324 0.34815 0.05795 0.0
C743 C 0.11731 0.34765 0.09021 0.0
C744 C 0.17398 0.35174 0.12374 0.0
H745 H 0.13769 0.34167 0.21596 0.0
H746 H 0.12688 0.34397 0.18293 0.0
H747 H 0.199 0.34948 0.14786 0.0
H748 H 0.1731 0.35668 0.05398 0.0
H749 H 0.18151 0.36147 0.08687 0.0
H750 H 0.10748 0.36215 0.12424 0.0
C751 C 0.14536 0.34907 0.18806 0.0
C752 C 0.17901 0.35243 0.14284 0.0
C753 C 0.15159 0.34772 0.20698 0.0
C754 C 0.15726 0.35418 0.0639 0.0
C755 C 0.16214 0.35681 0.08282 0.0
C756 C 0.12753 0.35925 0.12916 0.0
C757 C 0.16347 0.3562 0.17576 0.0
C758 C 0.15827 0.35629 0.15538 0.0
C759 C 0.14237 0.35336 0.09629 0.0
C760 C 0.14811 0.35503 0.1166 0.0
H761 H 0.21233 0.36608 0.20677 0.0
H762 H 0.2015 0.36833 0.17389 0.0
H763 H 0.11618 0.36296 0.15758 0.0
H764 H 0.093 0.34045 0.06733 0.0
H765 H 0.10169 0.3446 0.10006 0.0
C766 C 0.17522 0.93981 0.06537 0.0
C767 C 0.20245 0.93731 0.06048 0.0
C768 C 0.16711 0.93957 0.08402 0.0
C769 C 0.19213 0.94078 0.1328 0.0
H770 H 0.12765 0.9171 0.14292 0.0
C771 C 0.16229 0.92344 0.20774 0.0
C772 C 0.13472 0.92434 0.21247 0.0
C773 C 0.17067 0.92495 0.18923 0.0
C774 C 0.14553 0.92391 0.14039 0.0
H775 H 0.24271 0.9336 0.0716 0.0
H776 H 0.22861 0.93328 0.10401 0.0
H777 H 0.1417 0.92137 0.11094 0.0
H778 H 0.09431 0.92716 0.2012 0.0
H779 H 0.10885 0.92989 0.16913 0.0
H780 H 0.19593 0.94332 0.16227 0.0
C781 C 0.21348 0.9354 0.09344 0.0
C782 C 0.15357 0.92639 0.12199 0.0
C783 C 0.22158 0.93557 0.0748 0.0
C784 C 0.11571 0.92632 0.19813 0.0
C785 C 0.12408 0.92785 0.17965 0.0
C786 C 0.18403 0.93833 0.15122 0.0
C787 C 0.18602 0.93692 0.09827 0.0
C788 C 0.17699 0.93485 0.11793 0.0
C789 C 0.15171 0.92741 0.17494 0.0
C790 C 0.16062 0.92984 0.15529 0.0
H791 H 0.15988 0.94119 0.05477 0.0
H792 H 0.14587 0.94109 0.08724 0.0
H793 H 0.21012 0.94747 0.13021 0.0
H794 H 0.17752 0.92193 0.2184 0.0
H795 H 0.19208 0.92427 0.18613 0.0
C796 C 0.86196 0.67739 0.82272 0.0
C797 C 0.88181 0.67288 0.80982 0.0
C798 C 0.86685 0.67653 0.84183 0.0
C799 C 0.92353 0.67391 0.87586 0.0
H800 H 0.86527 0.66684 0.91088 0.0
C801 C 0.94303 0.66724 0.95445 0.0
C802 C 0.9267 0.67607 0.96636 0.0
C803 C 0.93661 0.66571 0.93563 0.0
C804 C 0.88171 0.66891 0.90127 0.0
H805 H 0.92211 0.66337 0.80703 0.0
H806 H 0.93036 0.66134 0.84034 0.0
H807 H 0.85623 0.6656 0.8776 0.0
H808 H 0.89016 0.68975 0.96782 0.0
H809 H 0.87868 0.68684 0.93491 0.0
H810 H 0.94903 0.67696 0.8996 0.0
C811 C 0.91121 0.66599 0.83571 0.0
C812 C 0.87655 0.66826 0.88214 0.0
C813 C 0.90642 0.66702 0.81655 0.0
C814 C 0.90317 0.68286 0.95907 0.0
C815 C 0.89657 0.68117 0.94022 0.0
C816 C 0.92872 0.67437 0.89495 0.0
C817 C 0.89166 0.67096 0.84866 0.0
C818 C 0.89735 0.67087 0.86911 0.0
C819 C 0.91352 0.67282 0.92821 0.0
C820 C 0.90786 0.67197 0.9079 0.0
H821 H 0.84281 0.68206 0.81809 0.0
H822 H 0.8514 0.68071 0.8512 0.0
H823 H 0.94001 0.67631 0.86641 0.0
H824 H 0.96129 0.66182 0.95952 0.0
H825 H 0.94988 0.65904 0.92682 0.0
C826 C 0.86958 0.0613 0.95488 0.0
C827 C 0.88821 0.06592 0.96849 0.0
C828 C 0.87701 0.06056 0.93616 0.0
C829 C 0.93724 0.0602 0.90442 0.0
H830 H 0.88259 0.06913 0.86739 0.0
C831 C 0.9568 0.07371 0.826 0.0
C832 C 0.93781 0.06815 0.8132 0.0
C833 C 0.95373 0.07085 0.84506 0.0
C834 C 0.89803 0.06638 0.87753 0.0
H835 H 0.92934 0.07357 0.97295 0.0
H836 H 0.94206 0.07293 0.94017 0.0
H837 H 0.87103 0.07063 0.90007 0.0
H838 H 0.90141 0.05479 0.81007 0.0
H839 H 0.89617 0.04958 0.84324 0.0
H840 H 0.96449 0.05666 0.88151 0.0
C841 C 0.92183 0.06944 0.944 0.0
C842 C 0.89139 0.06721 0.89638 0.0
C843 C 0.91447 0.06996 0.96283 0.0
C844 C 0.91676 0.05883 0.81961 0.0
C845 C 0.91352 0.05608 0.83863 0.0
C846 C 0.944 0.0596 0.88548 0.0
C847 C 0.90322 0.06468 0.93035 0.0
C848 C 0.91079 0.06404 0.91017 0.0
C849 C 0.93127 0.06263 0.85164 0.0
C850 C 0.92438 0.06258 0.87181 0.0
H851 H 0.84928 0.05788 0.9587 0.0
H852 H 0.8622 0.05648 0.92629 0.0
H853 H 0.95273 0.05747 0.91451 0.0
H854 H 0.97266 0.08136 0.82146 0.0
H855 H 0.96764 0.07614 0.85471 0.0
C856 C 0.21024 0.86402 0.6929 0.0
C857 C 0.19207 0.85793 0.70597 0.0
C858 C 0.20296 0.86536 0.6742 0.0
C859 C 0.14486 0.8662 0.64181 0.0
H860 H 0.19724 0.85135 0.60598 0.0
C861 C 0.11636 0.8536 0.56543 0.0
C862 C 0.13586 0.85568 0.55142 0.0
C863 C 0.12305 0.85555 0.58415 0.0
C864 C 0.1825 0.85582 0.6157 0.0
H865 H 0.15152 0.84903 0.70964 0.0
H866 H 0.13874 0.85151 0.67698 0.0
H867 H 0.20882 0.85184 0.63881 0.0
H868 H 0.17751 0.86205 0.5462 0.0
H869 H 0.18903 0.86585 0.57883 0.0
H870 H 0.11854 0.87024 0.61872 0.0
C871 C 0.15867 0.85524 0.68125 0.0
C872 C 0.18914 0.85605 0.63458 0.0
C873 C 0.16602 0.85378 0.69997 0.0
C874 C 0.16201 0.86028 0.5566 0.0
C875 C 0.16867 0.86233 0.57537 0.0
C876 C 0.13827 0.8661 0.62288 0.0
C877 C 0.17725 0.86077 0.66807 0.0
C878 C 0.17035 0.86113 0.64791 0.0
C879 C 0.1494 0.85975 0.58945 0.0
C880 C 0.15691 0.86076 0.60955 0.0
H881 H 0.23045 0.86738 0.69698 0.0
H882 H 0.21762 0.86988 0.66448 0.0
H883 H 0.13003 0.87036 0.65168 0.0
H884 H 0.09602 0.85 0.56201 0.0
H885 H 0.10771 0.85323 0.5945 0.0
C886 C 0.19759 0.39678 0.5761 0.0
C887 C 0.18036 0.40453 0.56371 0.0
C888 C 0.19093 0.39549 0.59491 0.0
C889 C 0.13501 0.39806 0.62882 0.0
H890 H 0.19149 0.40982 0.66327 0.0
C891 C 0.11223 0.41253 0.70552 0.0
C892 C 0.13193 0.40961 0.71917 0.0
C893 C 0.1178 0.41007 0.68672 0.0
C894 C 0.17557 0.40619 0.65396 0.0
H895 H 0.14194 0.41636 0.56133 0.0
H896 H 0.13015 0.4139 0.59418 0.0
H897 H 0.20128 0.40855 0.6302 0.0
H898 H 0.17268 0.40123 0.72368 0.0
H899 H 0.18216 0.39647 0.69091 0.0
H900 H 0.10929 0.39558 0.65253 0.0
C901 C 0.14888 0.40888 0.58929 0.0
C902 C 0.1812 0.40553 0.63493 0.0
C903 C 0.15567 0.41031 0.57046 0.0
C904 C 0.15708 0.40368 0.71355 0.0
C905 C 0.16258 0.40107 0.6947 0.0
C906 C 0.12943 0.39855 0.64789 0.0
C907 C 0.16675 0.40177 0.60181 0.0
C908 C 0.16092 0.40162 0.62211 0.0
C909 C 0.14315 0.40446 0.68097 0.0
C910 C 0.14954 0.40282 0.66074 0.0
H911 H 0.21675 0.39215 0.57143 0.0
H912 H 0.20494 0.38976 0.60414 0.0
H913 H 0.11904 0.39482 0.61932 0.0
H914 H 0.09266 0.41718 0.70927 0.0
H915 H 0.10242 0.41307 0.67666 0.0
C916 C 0.9193 0.14724 0.30907 0.0
C917 C 0.89361 0.15203 0.30302 0.0
C918 C 0.92478 0.1455 0.32806 0.0
C919 C 0.89144 0.14281 0.37472 0.0
H920 H 0.96154 0.15617 0.39237 0.0
C921 C 0.91561 0.1549 0.45251 0.0
C922 C 0.94127 0.1505 0.45908 0.0
C923 C 0.90911 0.1535 0.43362 0.0
C924 C 0.94196 0.15221 0.38767 0.0
H925 H 0.85339 0.15845 0.31232 0.0
H926 H 0.86306 0.15575 0.34521 0.0
H927 H 0.95184 0.15657 0.35926 0.0
H928 H 0.97979 0.1406 0.45093 0.0
H929 H 0.96843 0.13817 0.41819 0.0
H930 H 0.88146 0.13885 0.40331 0.0
C931 C 0.87892 0.15304 0.33536 0.0
C932 C 0.9364 0.15239 0.36862 0.0
C933 C 0.8734 0.15468 0.31642 0.0
C934 C 0.95987 0.14418 0.44641 0.0
C935 C 0.95344 0.14288 0.42757 0.0
C936 C 0.89696 0.14274 0.39381 0.0
C937 C 0.90478 0.14859 0.34151 0.0
C938 C 0.91102 0.14775 0.36183 0.0
C939 C 0.92817 0.14776 0.42086 0.0
C940 C 0.92228 0.14747 0.40053 0.0
H941 H 0.93532 0.14503 0.29916 0.0
H942 H 0.9448 0.14178 0.33218 0.0
H943 H 0.87182 0.1389 0.37007 0.0
H944 H 0.90081 0.15984 0.46185 0.0
H945 H 0.8895 0.15745 0.42891 0.0
C946 C 0.87353 0.61079 0.3137 0.0
C947 C 0.89778 0.60447 0.30695 0.0
C948 C 0.86954 0.61287 0.33283 0.0
C949 C 0.90621 0.61349 0.37845 0.0
H950 H 0.83488 0.60528 0.39837 0.0
C951 C 0.88438 0.60275 0.45687 0.0
C952 C 0.86047 0.60903 0.46428 0.0
C953 C 0.89001 0.60387 0.43782 0.0
C954 C 0.85487 0.6078 0.39303 0.0
H955 H 0.937 0.59556 0.31514 0.0
H956 H 0.92984 0.5988 0.34825 0.0
H957 H 0.84227 0.60408 0.365 0.0
H958 H 0.8243 0.62195 0.45746 0.0
H959 H 0.83411 0.62385 0.4244 0.0
H960 H 0.91885 0.61674 0.40668 0.0
C961 C 0.91403 0.60249 0.33886 0.0
C962 C 0.85912 0.60716 0.37382 0.0
C963 C 0.91809 0.60054 0.31978 0.0
C964 C 0.84288 0.61694 0.45229 0.0
C965 C 0.84839 0.61793 0.43327 0.0
C966 C 0.902 0.61398 0.39769 0.0
C967 C 0.88962 0.60858 0.34572 0.0
C968 C 0.88488 0.60992 0.36622 0.0
C969 C 0.87174 0.61117 0.42572 0.0
C970 C 0.87628 0.6111 0.40523 0.0
H971 H 0.85749 0.61401 0.30424 0.0
H972 H 0.85065 0.61784 0.33748 0.0
H973 H 0.92624 0.61597 0.37318 0.0
H974 H 0.89836 0.59656 0.46567 0.0
H975 H 0.90813 0.59848 0.43245 0.0
C976 C 0.592 0.35636 0.5724 0.0
C977 C 0.60949 0.34837 0.5604 0.0
C978 C 0.59789 0.35769 0.59132 0.0
C979 C 0.6522 0.35496 0.62633 0.0
H980 H 0.59388 0.34413 0.65981 0.0
C981 C 0.671 0.34201 0.70397 0.0
C982 C 0.65062 0.34526 0.71705 0.0
C983 C 0.66642 0.34407 0.68497 0.0
C984 C 0.61032 0.34749 0.65076 0.0
H985 H 0.64758 0.33612 0.55885 0.0
H986 H 0.65806 0.33865 0.59191 0.0
H987 H 0.58567 0.34494 0.62652 0.0
H988 H 0.60973 0.35379 0.72034 0.0
H989 H 0.60198 0.35788 0.68724 0.0
H990 H 0.67684 0.35768 0.65052 0.0
C991 C 0.6397 0.34382 0.58662 0.0
C992 C 0.60559 0.34789 0.63161 0.0
C993 C 0.63367 0.34235 0.56767 0.0
C994 C 0.62582 0.3511 0.71066 0.0
C995 C 0.62132 0.35332 0.69162 0.0
C996 C 0.65687 0.35475 0.64552 0.0
C997 C 0.62156 0.35121 0.59874 0.0
C998 C 0.62652 0.35149 0.61914 0.0
C999 C 0.64141 0.3496 0.67845 0.0
C1000 C 0.63607 0.35083 0.65804 0.0
H1001 H 0.57322 0.36119 0.56733 0.0
H1002 H 0.58369 0.36363 0.60024 0.0
H1003 H 0.66866 0.35795 0.6171 0.0
H1004 H 0.69033 0.33741 0.70832 0.0
H1005 H 0.68229 0.34082 0.67538 0.0
C1006 C 0.60054 0.94339 0.70531 0.0
C1007 C 0.57549 0.93699 0.71033 0.0
C1008 C 0.60757 0.94516 0.68659 0.0
C1009 C 0.58131 0.94607 0.63841 0.0
H1010 H 0.65188 0.92963 0.62593 0.0
C1011 C 0.61516 0.93733 0.56177 0.0
C1012 C 0.64249 0.93998 0.55744 0.0
C1013 C 0.60634 0.93715 0.58031 0.0
C1014 C 0.63227 0.93451 0.62909 0.0
H1015 H 0.53751 0.92845 0.69949 0.0
H1016 H 0.54962 0.93182 0.66687 0.0
H1017 H 0.63754 0.93054 0.6582 0.0
H1018 H 0.68194 0.94459 0.56935 0.0
H1019 H 0.66663 0.9447 0.60134 0.0
H1020 H 0.57614 0.95027 0.60932 0.0
C1021 C 0.56389 0.93535 0.67743 0.0
C1022 C 0.62404 0.93501 0.64767 0.0
C1023 C 0.55696 0.93342 0.69616 0.0
C1024 C 0.66078 0.94235 0.57211 0.0
C1025 C 0.65196 0.94234 0.59057 0.0
C1026 C 0.58967 0.94575 0.61978 0.0
C1027 C 0.58964 0.94076 0.67241 0.0
C1028 C 0.59847 0.94079 0.65259 0.0
C1029 C 0.6246 0.93977 0.595 0.0
C1030 C 0.61531 0.93995 0.61483 0.0
H1031 H 0.61539 0.94626 0.71579 0.0
H1032 H 0.6274 0.94959 0.6832 0.0
H1033 H 0.56152 0.95066 0.64173 0.0
H1034 H 0.60051 0.93544 0.55084 0.0
H1035 H 0.58521 0.93488 0.58309 0.0
C1036 C 0.36105 0.66179 0.32339 0.0
C1037 C 0.38072 0.6582 0.30994 0.0
C1038 C 0.36619 0.65953 0.34227 0.0
C1039 C 0.42322 0.65525 0.37539 0.0
H1040 H 0.36576 0.64541 0.41003 0.0
C1041 C 0.44393 0.64776 0.45366 0.0
C1042 C 0.42669 0.65595 0.46562 0.0
C1043 C 0.43746 0.64596 0.43488 0.0
C1044 C 0.38199 0.64821 0.40053 0.0
H1045 H 0.4209 0.64882 0.30587 0.0
H1046 H 0.42964 0.64447 0.3388 0.0
H1047 H 0.35647 0.64563 0.37674 0.0
H1048 H 0.38841 0.66802 0.46733 0.0
H1049 H 0.377 0.66473 0.43456 0.0
H1050 H 0.44871 0.6578 0.39921 0.0
C1051 C 0.41043 0.64941 0.33477 0.0
C1052 C 0.37668 0.64839 0.38142 0.0
C1053 C 0.40535 0.65179 0.31584 0.0
C1054 C 0.40216 0.66164 0.45853 0.0
C1055 C 0.39558 0.65973 0.43974 0.0
C1056 C 0.42857 0.65493 0.39446 0.0
C1057 C 0.39107 0.65348 0.34829 0.0
C1058 C 0.39714 0.65212 0.36858 0.0
C1059 C 0.41348 0.65218 0.42761 0.0
C1060 C 0.40796 0.65158 0.40728 0.0
H1061 H 0.34186 0.6668 0.3194 0.0
H1062 H 0.35091 0.66304 0.35217 0.0
H1063 H 0.43941 0.65846 0.36606 0.0
H1064 H 0.46296 0.64317 0.45861 0.0
H1065 H 0.45149 0.6399 0.42596 0.0
C1066 C 0.36141 0.08008 0.46095 0.0
C1067 C 0.34007 0.09003 0.46558 0.0
C1068 C 0.3679 0.07722 0.44233 0.0
C1069 C 0.36442 0.09592 0.39695 0.0
H1070 H 0.38622 0.05647 0.37775 0.0
C1071 C 0.39865 0.0874 0.32029 0.0
C1072 C 0.41966 0.07689 0.31714 0.0
C1073 C 0.3868 0.0887 0.33795 0.0
C1074 C 0.38052 0.06763 0.38292 0.0
H1075 H 0.30782 0.10402 0.45415 0.0
H1076 H 0.31924 0.09903 0.42179 0.0
H1077 H 0.36882 0.05849 0.40934 0.0
H1078 H 0.44529 0.05988 0.33021 0.0
H1079 H 0.42545 0.06247 0.36083 0.0
H1080 H 0.3769 0.10518 0.37083 0.0
C1081 C 0.3311 0.09359 0.43256 0.0
C1082 C 0.37041 0.06874 0.40102 0.0
C1083 C 0.32444 0.09633 0.45114 0.0
C1084 C 0.42895 0.06799 0.33208 0.0
C1085 C 0.41735 0.06938 0.34967 0.0
C1086 C 0.37479 0.09484 0.3789 0.0
C1087 C 0.35335 0.08433 0.42794 0.0
C1088 C 0.36245 0.08291 0.40831 0.0
C1089 C 0.39586 0.0796 0.35285 0.0
C1090 C 0.3833 0.0807 0.37169 0.0
H1091 H 0.3739 0.07504 0.47168 0.0
H1092 H 0.38521 0.07005 0.43923 0.0
H1093 H 0.35878 0.10705 0.40224 0.0
H1094 H 0.39094 0.09435 0.30904 0.0
H1095 H 0.37016 0.09661 0.33979 0.0
C1096 C 0.67521 0.85235 0.20704 0.0
C1097 C 0.66285 0.84526 0.22235 0.0
C1098 C 0.6657 0.84983 0.18901 0.0
C1099 C 0.60719 0.83557 0.16166 0.0
H1100 H 0.66156 0.83165 0.12313 0.0
C1101 C 0.62134 0.82589 0.07653 0.0
C1102 C 0.6019 0.83645 0.07049 0.0
C1103 C 0.62538 0.8234 0.09558 0.0
C1104 C 0.64603 0.83241 0.1337 0.0
H1105 H 0.63008 0.8303 0.23062 0.0
H1106 H 0.61354 0.82588 0.19913 0.0
H1107 H 0.67548 0.83521 0.15516 0.0
H1108 H 0.5705 0.85203 0.07935 0.0
H1109 H 0.57712 0.84763 0.11237 0.0
H1110 H 0.57773 0.83272 0.1401 0.0
C1111 C 0.63053 0.83348 0.2011 0.0
C1112 C 0.65405 0.83475 0.1521 0.0
C1113 C 0.64004 0.83603 0.21919 0.0
C1114 C 0.58512 0.84351 0.08367 0.0
C1115 C 0.58909 0.84103 0.10266 0.0
C1116 C 0.59914 0.83321 0.1432 0.0
C1117 C 0.6436 0.8401 0.18572 0.0
C1118 C 0.63478 0.83668 0.1663 0.0
C1119 C 0.61019 0.83154 0.10891 0.0
C1120 C 0.61845 0.83186 0.1289 0.0
H1121 H 0.69273 0.85958 0.20892 0.0
H1122 H 0.67588 0.85544 0.17759 0.0
H1123 H 0.59175 0.83701 0.17219 0.0
H1124 H 0.63501 0.82062 0.06664 0.0
H1125 H 0.64151 0.8158 0.09986 0.0
C1126 C 0.69319 0.39772 0.07346 0.0
C1127 C 0.67549 0.40528 0.06121 0.0
C1128 C 0.68714 0.39658 0.09238 0.0
C1129 C 0.6322 0.39935 0.12708 0.0
H1130 H 0.68982 0.41112 0.16064 0.0
C1131 C 0.61191 0.41376 0.20415 0.0
C1132 C 0.63195 0.41064 0.21751 0.0
C1133 C 0.61693 0.41145 0.18525 0.0
C1134 C 0.67359 0.4075 0.15157 0.0
H1135 H 0.63687 0.41696 0.05926 0.0
H1136 H 0.62616 0.41479 0.09231 0.0
H1137 H 0.69856 0.40975 0.12742 0.0
H1138 H 0.67276 0.40214 0.22136 0.0
H1139 H 0.68131 0.39768 0.1884 0.0
H1140 H 0.60723 0.39699 0.15119 0.0
C1141 C 0.64479 0.40978 0.08721 0.0
C1142 C 0.67861 0.40678 0.13246 0.0
C1143 C 0.65095 0.41105 0.06826 0.0
C1144 C 0.65692 0.40474 0.21147 0.0
C1145 C 0.66187 0.40229 0.19251 0.0
C1146 C 0.62724 0.39992 0.14623 0.0
C1147 C 0.66312 0.40285 0.09956 0.0
C1148 C 0.65792 0.40284 0.11996 0.0
C1149 C 0.64206 0.40581 0.17909 0.0
C1150 C 0.64777 0.40419 0.15876 0.0
H1151 H 0.71225 0.3931 0.06856 0.0
H1152 H 0.7015 0.39097 0.10147 0.0
H1153 H 0.61593 0.3961 0.11784 0.0
H1154 H 0.59247 0.41839 0.20823 0.0
H1155 H 0.60128 0.41456 0.17544 0.0
C1156 C 0.3482 0.16701 0.82667 0.0
C1157 C 0.36468 0.16149 0.81221 0.0
C1158 C 0.35499 0.16433 0.84524 0.0
C1159 C 0.41358 0.15488 0.87512 0.0
H1160 H 0.35837 0.1478 0.91238 0.0
C1161 C 0.44159 0.1439 0.95168 0.0
C1162 C 0.4267 0.15217 0.96496 0.0
C1163 C 0.43291 0.14317 0.93321 0.0
C1164 C 0.37402 0.14985 0.90216 0.0
H1165 H 0.40096 0.14848 0.80603 0.0
H1166 H 0.4126 0.14361 0.8384 0.0
H1167 H 0.34552 0.15001 0.87977 0.0
H1168 H 0.3903 0.16557 0.96934 0.0
H1169 H 0.37522 0.16431 0.93716 0.0
H1170 H 0.44204 0.15487 0.89749 0.0
C1171 C 0.39463 0.15025 0.83539 0.0
C1172 C 0.36665 0.15114 0.88345 0.0
C1173 C 0.38786 0.15297 0.8168 0.0
C1174 C 0.40228 0.1591 0.9595 0.0
C1175 C 0.39356 0.15833 0.94103 0.0
C1176 C 0.42094 0.15354 0.8938 0.0
C1177 C 0.37841 0.15602 0.84987 0.0
C1178 C 0.38631 0.15382 0.86969 0.0
C1179 C 0.40908 0.15064 0.92757 0.0
C1180 C 0.40124 0.15114 0.90758 0.0
H1181 H 0.33022 0.17366 0.82367 0.0
H1182 H 0.3422 0.16913 0.85598 0.0
H1183 H 0.42924 0.1572 0.865 0.0
H1184 H 0.46044 0.13837 0.95539 0.0
H1185 H 0.44511 0.13693 0.92327 0.0
C1186 C 0.42224 0.59949 0.8223 0.0
C1187 C 0.40279 0.60238 0.80848 0.0
C1188 C 0.41648 0.60223 0.84102 0.0
C1189 C 0.35842 0.60684 0.87334 0.0
H1190 H 0.41474 0.61832 0.90808 0.0
C1191 C 0.33574 0.61669 0.95101 0.0
C1192 C 0.35276 0.60888 0.96347 0.0
C1193 C 0.34263 0.61797 0.93223 0.0
C1194 C 0.39883 0.61507 0.89855 0.0
H1195 H 0.36229 0.61098 0.80355 0.0
H1196 H 0.35246 0.61619 0.83617 0.0
H1197 H 0.42482 0.61718 0.87493 0.0
H1198 H 0.3911 0.59698 0.96604 0.0
H1199 H 0.40327 0.59942 0.93328 0.0
H1200 H 0.33244 0.60481 0.89701 0.0
C1201 C 0.37199 0.61142 0.83259 0.0
C1202 C 0.40459 0.61435 0.87952 0.0
C1203 C 0.37769 0.60855 0.81382 0.0
C1204 C 0.37752 0.60307 0.95685 0.0
C1205 C 0.38452 0.60449 0.93807 0.0
C1206 C 0.3526 0.60772 0.89232 0.0
C1207 C 0.39118 0.60808 0.84649 0.0
C1208 C 0.38456 0.61001 0.86664 0.0
C1209 C 0.36683 0.61163 0.92546 0.0
C1210 C 0.3728 0.61166 0.90518 0.0
H1211 H 0.44177 0.59467 0.81876 0.0
H1212 H 0.43166 0.59925 0.85123 0.0
H1213 H 0.34255 0.60318 0.864 0.0
H1214 H 0.31654 0.62134 0.95558 0.0
H1215 H 0.32875 0.62372 0.92292 0.0
C1216 C 0.92845 0.2277 0.24117 0.0
C1217 C 0.92278 0.21539 0.25308 0.0
C1218 C 0.9524 0.23599 0.24299 0.0
C1219 C 1.00787 0.24453 0.276 0.0
H1220 H 0.04506 0.25804 0.23155 0.0
C1221 C 0.11484 0.2712 0.27765 0.0
C1222 C 0.11938 0.28397 0.26626 0.0
C1223 C 0.09086 0.26286 0.27622 0.0
C1224 C 0.03478 0.25449 0.2441 0.0
H1225 H 0.93808 0.20234 0.27642 0.0
H1226 H 0.98015 0.21655 0.27929 0.0
H1227 H 1.00354 0.24329 0.22877 0.0
H1228 H 0.10227 0.29786 0.2443 0.0
H1229 H 0.06032 0.28338 0.24189 0.0
H1230 H 0.03932 0.25565 0.2913 0.0
C1231 C 0.96583 0.21991 0.26867 0.0
C1232 C 1.01094 0.24604 0.24252 0.0
C1233 C 0.94179 0.21162 0.26688 0.0
C1234 C 0.09934 0.28818 0.25339 0.0
C1235 C 0.07541 0.27978 0.25188 0.0
C1236 C 0.03179 0.25293 0.27757 0.0
C1237 C 0.97147 0.23219 0.25671 0.0
C1238 C 0.99711 0.24099 0.25845 0.0
C1239 C 0.07088 0.26702 0.26328 0.0
C1240 C 0.04549 0.25805 0.26164 0.0
H1241 H 0.91457 0.23088 0.23023 0.0
H1242 H 0.95584 0.24549 0.23369 0.0
H1243 H 0.99757 0.24104 0.28857 0.0
H1244 H 0.12969 0.26773 0.28785 0.0
H1245 H 0.08811 0.25302 0.2851 0.0
C1246 C 0.16267 0.99353 0.27342 0.0
C1247 C 0.15381 0.98318 0.25982 0.0
C1248 C 0.18785 1.00065 0.27178 0.0
C1249 C 0.2542 0.99564 0.24888 0.0
H1250 H 0.26556 0.03762 0.26381 0.0
C1251 C 0.35537 0.02702 0.2366 0.0
C1252 C 0.36487 0.0364 0.25102 0.0
C1253 C 0.32945 0.0207 0.23741 0.0
C1254 C 0.26276 0.02584 0.25975 0.0
H1255 H 0.16384 0.97284 0.23335 0.0
H1256 H 0.20758 0.98533 0.23038 0.0
H1257 H 0.22023 0.02674 0.26533 0.0
H1258 H 0.3547 0.0461 0.27786 0.0
H1259 H 0.30957 0.03512 0.27923 0.0
H1260 H 0.29671 0.99473 0.24332 0.0
C1261 C 0.1954 0.98766 0.24256 0.0
C1262 C 0.23678 0.0196 0.26062 0.0
C1263 C 0.17029 0.98052 0.24424 0.0
C1264 C 0.34791 0.03917 0.26635 0.0
C1265 C 0.32199 0.03288 0.26714 0.0
C1266 C 0.28015 1.00188 0.24798 0.0
C1267 C 0.2047 0.99762 0.25645 0.0
C1268 C 0.23219 1.00441 0.25522 0.0
C1269 C 0.31241 0.02362 0.25265 0.0
C1270 C 0.28475 0.01704 0.25344 0.0
H1271 H 0.15061 0.9957 0.28569 0.0
H1272 H 0.19449 0.00813 0.28283 0.0
H1273 H 0.2515 0.98382 0.24494 0.0
H1274 H 0.36769 0.02481 0.22447 0.0
H1275 H 0.32255 0.01376 0.22591 0.0
C1276 C 0.06129 0.92477 1.00415 0.0
C1277 C 0.08186 0.92632 0.01749 0.0
C1278 C 0.03837 0.93423 1.00468 0.0
C1279 C 0.99328 0.95486 0.03435 0.0
H1280 H 0.98242 0.98426 0.99487 0.0
C1281 C 0.91083 1.0014 0.04062 0.0
C1282 C 0.89866 0.00724 0.02451 0.0
C1283 C 0.93285 0.99137 0.03944 0.0
C1284 C 0.98464 0.97595 1.00587 0.0
H1285 H 0.0943 0.93863 0.04206 0.0
H1286 H 0.05359 0.95475 0.04347 0.0
H1287 H 0.02042 0.96648 0.99333 0.0
H1288 H 0.89971 0.00705 0.99453 0.0
H1289 H 0.93714 0.98889 0.99227 0.0
H1290 H 0.95714 0.96361 0.04663 0.0
C1291 C 0.05551 0.94641 0.03245 0.0
C1292 C 1.00663 0.96584 1.005 0.0
C1293 C 0.07873 0.93724 0.03163 0.0
C1294 C 0.90888 1.00278 1.00716 0.0
C1295 C 0.93052 0.99243 1.00593 0.0
C1296 C 0.97092 0.96469 0.03503 0.0
C1297 C 0.0353 0.94512 0.01884 0.0
C1298 C 1.01129 0.95532 0.01933 0.0
C1299 C 0.94297 0.98656 0.02208 0.0
C1300 C 0.96636 0.97558 0.02092 0.0
H1301 H 0.06336 0.91655 0.99301 0.0
H1302 H 0.02302 0.93303 0.99406 0.0
H1303 H 0.99637 0.94675 0.04551 0.0
H1304 H 0.90363 1.00486 0.05419 0.0
H1305 H 0.94211 0.98761 0.05226 0.0
C1306 C 0.35063 0.21375 1.00829 0.0
C1307 C 0.37258 0.21958 0.01849 0.0
C1308 C 0.32597 0.22166 1.00745 0.0
C1309 C 0.29529 0.26007 0.01465 0.0
H1310 H 0.22813 0.23738 0.01615 0.0
C1311 C 0.19022 0.2898 0.02083 0.0
C1312 C 0.16872 0.28364 1.01046 0.0
C1313 C 0.21519 0.2822 0.02196 0.0
C1314 C 0.24667 0.24392 0.0155 0.0
H1315 H 0.38532 0.23837 0.03601 0.0
H1316 H 0.34249 0.25209 0.03456 0.0
H1317 H 0.27111 0.2238 0.01777 0.0
H1318 H 0.15728 0.26471 0.99273 0.0
H1319 H 0.20049 0.25155 0.9947 0.0
H1320 H 0.27077 0.2802 1.01238 0.0
C1321 C 0.34446 0.2415 0.02695 0.0
C1322 C 0.27139 0.2361 0.01642 0.0
C1323 C 0.36912 0.23359 0.02779 0.0
C1324 C 0.17303 0.26971 1.00115 0.0
C1325 C 0.19794 0.26213 1.00229 0.0
C1326 C 0.27053 0.2679 0.01373 0.0
C1327 C 0.3225 0.23565 0.01678 0.0
C1328 C 0.29609 0.24405 0.01595 0.0
C1329 C 0.21937 0.2682 0.01277 0.0
C1330 C 0.24585 0.25993 0.01407 0.0
H1331 H 0.35255 0.20316 1.0007 0.0
H1332 H 0.30974 0.2169 0.99921 0.0
H1333 H 0.31383 0.2666 0.01398 0.0
H1334 H 0.18766 0.30038 0.02837 0.0
H1335 H 0.23107 0.28716 0.03035 0.0
C1336 C 0.93621 0.72951 0.77031 0.0
C1337 C 0.91603 0.73414 0.75774 0.0
C1338 C 0.96092 0.73728 0.77134 0.0
C1339 C 0.99393 0.7741 0.75871 0.0
H1340 H 0.06003 0.75117 0.76674 0.0
C1341 C 0.10101 0.8014 0.75321 0.0
C1342 C 0.12044 0.79678 0.76637 0.0
C1343 C 0.07584 0.79406 0.75211 0.0
C1344 C 0.04175 0.75779 0.76468 0.0
H1345 H 0.9065 0.7505 0.73612 0.0
H1346 H 0.94945 0.76393 0.7378 0.0
H1347 H 1.01701 0.73779 0.76496 0.0
H1348 H 0.12779 0.78112 0.78916 0.0
H1349 H 0.08432 0.76841 0.78715 0.0
H1350 H 1.01883 0.79409 0.75832 0.0
C1351 C 0.94602 0.75448 0.74718 0.0
C1352 C 1.01699 0.7501 0.76369 0.0
C1353 C 0.9213 0.74674 0.7462 0.0
C1354 C 0.11375 0.78481 0.77856 0.0
C1355 C 0.0887 0.77748 0.77742 0.0
C1356 C 1.01874 0.78179 0.75965 0.0
C1357 C 0.96622 0.74988 0.75977 0.0
C1358 C 0.99268 0.75813 0.76075 0.0
C1359 C 0.06945 0.78191 0.7641 0.0
C1360 C 0.04299 0.77375 0.76272 0.0
H1361 H 0.93278 0.72001 0.77959 0.0
H1362 H 0.97573 0.73353 0.78144 0.0
H1363 H 0.97566 0.78073 0.75671 0.0
H1364 H 0.10543 0.81045 0.74348 0.0
H1365 H 0.06161 0.7977 0.74156 0.0
C1366 C 0.72519 0.94701 0.75545 0.0
C1367 C 0.69757 0.94868 0.75119 0.0
C1368 C 0.74225 0.95977 0.75625 0.0
C1369 C 0.74807 1.00008 0.74071 0.0
H1370 H 0.79999 1.00331 0.78081 0.0
C1371 C 0.8092 0.05557 0.75371 0.0
C1372 C 0.83641 0.05406 0.75919 0.0
C1373 C 0.79216 0.0428 0.75285 0.0
C1374 C 0.78587 1.00255 0.76936 0.0
H1375 H 0.66657 0.96515 0.74385 0.0
H1376 H 0.69611 0.98729 0.74538 0.0
H1377 H 0.77125 0.98084 0.77861 0.0
H1378 H 0.86655 0.03773 0.76855 0.0
H1379 H 0.8373 0.01562 0.76655 0.0
H1380 H 0.76277 0.02172 0.73137 0.0
C1381 C 0.70466 0.97613 0.7481 0.0
C1382 C 0.76934 0.98962 0.76811 0.0
C1383 C 0.68761 0.96341 0.74743 0.0
C1384 C 0.84593 0.03942 0.76399 0.0
C1385 C 0.82894 0.02669 0.76309 0.0
C1386 C 0.76467 0.01298 0.74192 0.0
C1387 C 0.73219 0.97452 0.75264 0.0
C1388 C 0.75017 0.9882 0.75378 0.0
C1389 C 0.80181 0.02815 0.75745 0.0
C1390 C 0.78383 0.01443 0.75627 0.0
H1391 H 0.73354 0.93587 0.75853 0.0
H1392 H 0.7634 0.95806 0.7596 0.0
H1393 H 0.73382 0.99931 0.72934 0.0
H1394 H 0.80108 0.06658 0.74981 0.0
H1395 H 0.77132 0.04447 0.74868 0.0
C1396 C 0.71241 0.82831 0.0323 0.0
C1397 C 0.70767 0.83709 0.01633 0.0
C1398 C 0.73345 0.81756 0.03279 0.0
C1399 C 0.79555 0.80445 1.00654 0.0
H1400 H 0.78775 0.76904 0.0383 0.0
C1401 C 0.86771 0.75125 1.00535 0.0
C1402 C 0.87945 0.74802 0.02268 0.0
C1403 C 0.84642 0.76185 1.0039 0.0
C1404 C 0.79019 0.77888 0.02936 0.0
H1405 H 0.72103 0.8413 0.98821 0.0
H1406 H 0.75682 0.82214 0.98859 0.0
H1407 H 0.75154 0.78788 0.03688 0.0
H1408 H 0.87753 0.75291 0.0521 0.0
H1409 H 0.83976 0.77094 0.04969 0.0
H1410 H 0.83393 0.79488 0.99857 0.0
C1411 C 0.74514 0.82387 1.00113 0.0
C1412 C 0.76951 0.78984 0.02866 0.0
C1413 C 0.72448 0.83488 1.00083 0.0
C1414 C 0.86898 0.75526 0.03857 0.0
C1415 C 0.84731 0.76552 0.03719 0.0
C1416 C 0.81594 0.79328 1.00694 0.0
C1417 C 0.75 0.81495 0.01711 0.0
C1418 C 0.77192 0.80296 0.01742 0.0
C1419 C 0.83598 0.76908 0.01984 0.0
C1420 C 0.81361 0.78046 0.0185 0.0
H1421 H 0.69988 0.82987 0.0445 0.0
H1422 H 0.73672 0.81137 0.04559 0.0
H1423 H 0.79871 0.81441 0.99795 0.0
H1424 H 0.87549 0.74588 0.9929 0.0
H1425 H 0.83799 0.76434 0.99036 0.0
C1426 C 0.36649 0.5231 0.75213 0.0
C1427 C 0.37003 0.53719 0.7612 0.0
C1428 C 0.34162 0.51549 0.75275 0.0
C1429 C 0.27764 0.51319 0.77967 0.0
H1430 H 0.25092 0.49253 0.73577 0.0
C1431 C 0.16932 0.4883 0.77592 0.0
C1432 C 0.16559 0.47427 0.76676 0.0
C1433 C 0.19424 0.49585 0.77525 0.0
C1434 C 0.2582 0.49807 0.74824 0.0
H1435 H 0.34983 0.55418 0.77818 0.0
H1436 H 0.30641 0.54106 0.77903 0.0
H1437 H 0.29397 0.506 0.73453 0.0
H1438 H 0.18553 0.45731 0.74958 0.0
H1439 H 0.22906 0.47032 0.74869 0.0
H1440 H 0.24189 0.50526 0.79338 0.0
C1441 C 0.32302 0.53581 0.77155 0.0
C1442 C 0.28294 0.50583 0.74752 0.0
C1443 C 0.3479 0.54345 0.77089 0.0
C1444 C 0.1876 0.468 0.75694 0.0
C1445 C 0.21255 0.47558 0.75625 0.0
C1446 C 0.2529 0.50543 0.78038 0.0
C1447 C 0.31952 0.52172 0.76249 0.0
C1448 C 0.29302 0.51351 0.76323 0.0
C1449 C 0.21623 0.48962 0.7654 0.0
C1450 C 0.24279 0.49777 0.76467 0.0
H1451 H 0.38286 0.51796 0.74435 0.0
H1452 H 0.33986 0.5046 0.74577 0.0
H1453 H 0.28491 0.51874 0.79213 0.0
H1454 H 0.15307 0.49346 0.7838 0.0
H1455 H 0.19613 0.50671 0.7823 0.0
C1456 C 0.9442 0.54656 0.50753 0.0
C1457 C 0.9222 0.54081 0.51775 0.0
C1458 C 0.96885 0.53864 0.50686 0.0
C1459 C 1.00866 0.50889 0.5316 0.0
H1460 H 0.04834 0.50639 0.48526 0.0
C1461 C 0.10118 0.46888 0.52217 0.0
C1462 C 0.12339 0.47451 0.51208 0.0
C1463 C 0.07678 0.47702 0.52289 0.0
C1464 C 0.03769 0.50711 0.49838 0.0
H1465 H 0.90936 0.52222 0.53556 0.0
H1466 H 0.95193 0.50834 0.53409 0.0
H1467 H 1.00587 0.52056 0.48651 0.0
H1468 H 0.13694 0.49313 0.49459 0.0
H1469 H 0.09469 0.50739 0.49609 0.0
H1470 H 0.04044 0.4954 0.54346 0.0
C1471 C 0.95025 0.51906 0.52671 0.0
C1472 C 1.01331 0.51526 0.4991 0.0
C1473 C 0.92563 0.52696 0.52735 0.0
C1474 C 0.12046 0.48849 0.50268 0.0
C1475 C 0.09605 0.4966 0.50336 0.0
C1476 C 0.03302 0.50073 0.53088 0.0
C1477 C 0.97221 0.52477 0.51644 0.0
C1478 C 0.99842 0.51625 0.51571 0.0
C1479 C 0.07387 0.491 0.51349 0.0
C1480 C 0.04787 0.4997 0.51425 0.0
H1481 H 0.94232 0.5571 0.49983 0.0
H1482 H 0.98538 0.54348 0.49897 0.0
H1483 H 0.99802 0.5096 0.54472 0.0
H1484 H 0.1027 0.45825 0.52972 0.0
H1485 H 0.06006 0.47226 0.53068 0.0
C1486 C 0.36242 0.73996 0.52479 0.0
C1487 C 0.36642 0.72608 0.51534 0.0
C1488 C 0.33769 0.74772 0.52368 0.0
C1489 C 0.27591 0.75119 0.49484 0.0
H1490 H 0.246 0.77052 0.53875 0.0
C1491 C 0.16808 0.7771 0.49586 0.0
C1492 C 0.1641 0.79091 0.50548 0.0
C1493 C 0.19263 0.76918 0.49713 0.0
C1494 C 0.2542 0.76535 0.52629 0.0
H1495 H 0.3473 0.70961 0.49715 0.0
H1496 H 0.30408 0.72302 0.49542 0.0
H1497 H 0.28875 0.75669 0.54084 0.0
H1498 H 0.18313 0.80705 0.52416 0.0
H1499 H 0.22606 0.79342 0.52607 0.0
H1500 H 0.24143 0.75989 0.48027 0.0
C1501 C 0.32021 0.72797 0.50359 0.0
C1502 C 0.27874 0.7574 0.5275 0.0
C1503 C 0.34494 0.72017 0.50475 0.0
C1504 C 0.18544 0.79656 0.51641 0.0
C1505 C 0.21002 0.78862 0.51768 0.0
C1506 C 0.25139 0.75916 0.49363 0.0
C1507 C 0.31625 0.74185 0.51305 0.0
C1508 C 0.28995 0.75022 0.51179 0.0
C1509 C 0.21397 0.77483 0.50804 0.0
C1510 C 0.24018 0.76636 0.50934 0.0
H1511 H 0.37831 0.7448 0.53325 0.0
H1512 H 0.33552 0.75845 0.53099 0.0
H1513 H 0.28412 0.74602 0.48239 0.0
H1514 H 0.15233 0.77243 0.48715 0.0
H1515 H 0.19477 0.75851 0.48967 0.0
C1516 C 0.84269 0.5457 0.26854 0.0
C1517 C 0.86138 0.54198 0.2545 0.0
C1518 C 0.81833 0.5377 0.27019 0.0
C1519 C 0.77179 0.51276 0.24356 0.0
H1520 H 0.74454 0.50187 0.29225 0.0
C1521 C 0.68231 0.47117 0.25369 0.0
C1522 C 0.66293 0.47509 0.26718 0.0
C1523 C 0.70645 0.47939 0.25218 0.0
C1524 C 0.75173 0.50496 0.27856 0.0
H1525 H 0.86865 0.52695 0.23104 0.0
H1526 H 0.82677 0.51284 0.23423 0.0
H1527 H 0.78655 0.51624 0.28961 0.0
H1528 H 0.65409 0.49059 0.28988 0.0
H1529 H 0.69591 0.505 0.28709 0.0
H1530 H 0.73705 0.50139 0.23252 0.0
C1531 C 0.83074 0.52207 0.24384 0.0
C1532 C 0.7758 0.51322 0.27704 0.0
C1533 C 0.85503 0.53006 0.24218 0.0
C1534 C 0.66836 0.48736 0.27918 0.0
C1535 C 0.69252 0.49553 0.27773 0.0
C1536 C 0.74777 0.50447 0.24508 0.0
C1537 C 0.81205 0.52578 0.25785 0.0
C1538 C 0.78617 0.51721 0.25952 0.0
C1539 C 0.71184 0.49166 0.26419 0.0
C1540 C 0.73746 0.50045 0.26259 0.0
H1541 H 0.84695 0.55471 0.27838 0.0
H1542 H 0.80428 0.54097 0.28104 0.0
H1543 H 0.77891 0.51585 0.22985 0.0
H1544 H 0.6787 0.46187 0.24413 0.0
H1545 H 0.72102 0.47602 0.24171 0.0
C1546 C 0.67273 0.26615 0.4958 0.0
C1547 C 0.66783 0.27871 0.50753 0.0
C1548 C 0.69678 0.25776 0.49717 0.0
C1549 C 0.75266 0.24874 0.52947 0.0
H1550 H 0.79055 0.23597 0.48493 0.0
C1551 C 0.86042 0.22331 0.53223 0.0
C1552 C 0.86758 0.21166 0.51968 0.0
C1553 C 0.83563 0.23092 0.53074 0.0
C1554 C 0.78006 0.23922 0.49753 0.0
H1555 H 0.68454 0.29218 0.52998 0.0
H1556 H 0.72658 0.27758 0.53232 0.0
H1557 H 0.74854 0.25047 0.4823 0.0
H1558 H 0.85369 0.19884 0.49578 0.0
H1559 H 0.81011 0.21186 0.49346 0.0
H1560 H 0.78395 0.23744 0.54473 0.0
C1561 C 0.71169 0.27419 0.5221 0.0
C1562 C 0.75597 0.2476 0.49601 0.0
C1563 C 0.68769 0.28266 0.52064 0.0
C1564 C 0.84892 0.20767 0.50576 0.0
C1565 C 0.824 0.21528 0.5043 0.0
C1566 C 0.77665 0.24031 0.53099 0.0
C1567 C 0.71654 0.26162 0.51038 0.0
C1568 C 0.74204 0.25255 0.51197 0.0
C1569 C 0.81706 0.22707 0.51673 0.0
C1570 C 0.79083 0.23552 0.51505 0.0
H1571 H 0.65808 0.26287 0.4854 0.0
H1572 H 0.69973 0.24809 0.48802 0.0
H1573 H 0.74223 0.25213 0.54205 0.0
H1574 H 0.87393 0.2266 0.54332 0.0
H1575 H 0.83126 0.24003 0.54045 0.0
C1576 C 0.42933 0.21405 0.76568 0.0
C1577 C 0.40689 0.22159 0.75784 0.0
C1578 C 0.45438 0.22144 0.76734 0.0
C1579 C 0.49361 0.25362 0.74757 0.0
H1580 H 0.53821 0.24891 0.79143 0.0
C1581 C 0.59058 0.28954 0.75852 0.0
C1582 C 0.61317 0.28238 0.76668 0.0
C1583 C 0.56542 0.2822 0.75785 0.0
C1584 C 0.5262 0.25022 0.77896 0.0
H1585 H 0.39332 0.24318 0.74636 0.0
H1586 H 0.43671 0.25591 0.74912 0.0
H1587 H 0.49475 0.23586 0.78961 0.0
H1588 H 0.62638 0.26181 0.78083 0.0
H1589 H 0.58299 0.24896 0.77919 0.0
H1590 H 0.52505 0.26784 0.7368 0.0
C1591 C 0.43513 0.24417 0.75367 0.0
C1592 C 0.50121 0.24272 0.77794 0.0
C1593 C 0.41014 0.23683 0.75207 0.0
C1594 C 0.60972 0.26769 0.77422 0.0
C1595 C 0.58459 0.26035 0.77351 0.0
C1596 C 0.51862 0.26106 0.74855 0.0
C1597 C 0.45768 0.23656 0.76116 0.0
C1598 C 0.48452 0.24436 0.76225 0.0
C1599 C 0.56206 0.26747 0.76527 0.0
C1600 C 0.53529 0.25952 0.76428 0.0
H1601 H 0.4278 0.2023 0.77013 0.0
H1602 H 0.47135 0.21517 0.77304 0.0
H1603 H 0.48155 0.25495 0.73512 0.0
H1604 H 0.59231 0.30076 0.75241 0.0
H1605 H 0.54853 0.28818 0.7516 0.0
C1606 C 0.46442 0.07432 0.51812 0.0
C1607 C 0.46717 0.08944 0.5119 0.0
C1608 C 0.4862 0.06416 0.51731 0.0
C1609 C 0.55056 0.0566 0.49339 0.0
H1610 H 0.56483 0.03054 0.53577 0.0
C1611 C 0.64447 0.0169 0.49693 0.0
C1612 C 0.64152 1.00254 0.50547 0.0
C1613 C 0.62361 0.02772 0.49756 0.0
C1614 C 0.56095 0.03756 0.52369 0.0
H1615 H 0.49499 0.10569 0.49983 0.0
H1616 H 0.53323 0.08783 0.49829 0.0
H1617 H 0.52806 0.04904 0.53714 0.0
H1618 H 0.61379 0.98848 0.52133 0.0
H1619 H 0.57731 0.00705 0.52189 0.0
H1620 H 0.58311 0.04494 0.47977 0.0
C1621 C 0.51409 0.08389 0.50379 0.0
C1622 C 0.5399 0.04822 0.52452 0.0
C1623 C 0.4923 0.09414 0.5048 0.0
C1624 C 0.61692 0.99929 0.51445 0.0
C1625 C 0.59601 0.01008 0.515 0.0
C1626 C 0.57152 0.04584 0.49249 0.0
C1627 C 0.5113 0.06879 0.51013 0.0
C1628 C 0.53436 0.05783 0.50936 0.0
C1629 C 0.5991 0.02449 0.50666 0.0
C1630 C 0.57695 0.03611 0.50761 0.0
H1631 H 0.44548 0.07037 0.5239 0.0
H1632 H 0.48329 0.05258 0.52216 0.0
H1633 H 0.54661 0.06372 0.4814 0.0
H1634 H 0.66288 0.01984 0.48967 0.0
H1635 H 0.62692 0.03872 0.49114 0.0
C1636 C 0.60188 0.78785 0.26654 0.0
C1637 C 0.62035 0.7846 0.28085 0.0
C1638 C 0.57774 0.77973 0.26501 0.0
C1639 C 0.54342 0.74417 0.27897 0.0
H1640 H 0.47862 0.76736 0.26757 0.0
C1641 C 0.43593 0.71747 0.27891 0.0
C1642 C 0.41861 0.72192 0.26439 0.0
C1643 C 0.46075 0.72481 0.28161 0.0
C1644 C 0.49655 0.76068 0.27058 0.0
H1645 H 0.62802 0.77001 0.30458 0.0
H1646 H 0.58576 0.75578 0.30188 0.0
H1647 H 0.52166 0.78049 0.27082 0.0
H1648 H 0.41432 0.73736 0.24102 0.0
H1649 H 0.45732 0.7501 0.24574 0.0
H1650 H 0.51817 0.72432 0.27864 0.0
C1651 C 0.59013 0.76458 0.29178 0.0
C1652 C 0.52124 0.76821 0.27244 0.0
C1653 C 0.61436 0.77273 0.29332 0.0
C1654 C 0.4268 0.73382 0.25259 0.0
C1655 C 0.45153 0.74114 0.25528 0.0
C1656 C 0.51865 0.73661 0.2771 0.0
C1657 C 0.57138 0.76814 0.27774 0.0
C1658 C 0.54504 0.76004 0.27646 0.0
C1659 C 0.46878 0.73678 0.26986 0.0
C1660 C 0.49497 0.74477 0.27269 0.0
H1661 H 0.60609 0.79665 0.25643 0.0
H1662 H 0.56404 0.78252 0.25377 0.0
H1663 H 0.56141 0.73753 0.28193 0.0
H1664 H 0.43016 0.70847 0.28839 0.0
H1665 H 0.47344 0.72128 0.2931 0.0
C1666 C 0.61013 0.48795 0.99986 0.0
C1667 C 0.6133 0.47366 1.00854 0.0
C1668 C 0.58531 0.49569 1.00037 0.0
C1669 C 0.52033 0.49773 0.02634 0.0
H1670 H 0.49577 0.51996 0.98295 0.0
C1671 C 0.41278 0.52411 0.02173 0.0
C1672 C 0.40997 0.53851 0.01327 0.0
C1673 C 0.43745 0.51621 0.02117 0.0
C1674 C 0.50243 0.51397 0.99528 0.0
H1675 H 0.59241 0.45645 0.02469 0.0
H1676 H 0.54908 0.4698 0.0253 0.0
H1677 H 0.53855 0.5061 0.98187 0.0
H1678 H 0.43127 0.55573 0.99742 0.0
H1679 H 0.47432 0.5421 0.99667 0.0
H1680 H 0.48418 0.5056 0.03974 0.0
C1681 C 0.56596 0.4751 0.01824 0.0
C1682 C 0.52703 0.50599 0.99466 0.0
C1683 C 0.59081 0.46734 0.0177 0.0
C1684 C 0.43263 0.54476 1.00423 0.0
C1685 C 0.4573 0.53684 1.00362 0.0
C1686 C 0.49571 0.5057 0.02695 0.0
C1687 C 0.56284 0.4894 1.00958 0.0
C1688 C 0.53639 0.49777 1.01019 0.0
C1689 C 0.46008 0.52244 1.01209 0.0
C1690 C 0.4864 0.51395 1.01144 0.0
H1691 H 0.62676 0.49316 0.99247 0.0
H1692 H 0.58388 0.50673 0.99372 0.0
H1693 H 0.527 0.49176 0.03868 0.0
H1694 H 0.39598 0.51895 0.029 0.0
H1695 H 0.43866 0.5051 0.02768 0.0
C1696 C 0.18213 0.40962 0.45095 0.0
C1697 C 0.18434 0.39872 0.4652 0.0
C1698 C 0.1806 0.40513 0.43234 0.0
C1699 C 0.1637 0.37278 0.40176 0.0
H1700 H 0.20852 0.39392 0.36591 0.0
C1701 C 0.17807 0.35046 0.32681 0.0
C1702 C 0.18114 0.36105 0.3123 0.0
C1703 C 0.17718 0.35527 0.34532 0.0
C1704 C 0.1955 0.38804 0.37563 0.0
H1705 H 0.18618 0.37447 0.47097 0.0
H1706 H 0.18326 0.36661 0.43844 0.0
H1707 H 0.20917 0.40178 0.39835 0.0
H1708 H 0.18502 0.38511 0.30595 0.0
H1709 H 0.18275 0.39357 0.3382 0.0
H1710 H 0.14974 0.35914 0.37907 0.0
C1711 C 0.1827 0.37867 0.44173 0.0
C1712 C 0.19597 0.39252 0.39428 0.0
C1713 C 0.18448 0.38317 0.46037 0.0
C1714 C 0.18277 0.37663 0.31677 0.0
C1715 C 0.18166 0.38147 0.33531 0.0
C1716 C 0.16304 0.36837 0.38307 0.0
C1717 C 0.18102 0.38961 0.42748 0.0
C1718 C 0.18017 0.38491 0.40759 0.0
C1719 C 0.1791 0.37084 0.34988 0.0
C1720 C 0.17905 0.37588 0.36973 0.0
H1721 H 0.18194 0.4217 0.45411 0.0
H1722 H 0.17899 0.41384 0.42173 0.0
H1723 H 0.15101 0.36681 0.41162 0.0
H1724 H 0.17692 0.33835 0.32393 0.0
H1725 H 0.17564 0.3467 0.35608 0.0
C1726 C 0.10361 0.91586 0.31975 0.0
C1727 C 0.09871 0.9052 0.30552 0.0
C1728 C 0.10563 0.9112 0.33827 0.0
C1729 C 0.11901 0.87808 0.36848 0.0
H1730 H 0.0786 0.90121 0.40512 0.0
C1731 C 0.10465 0.85645 0.44378 0.0
C1732 C 0.10298 0.86713 0.45832 0.0
C1733 C 0.1057 0.86122 0.42525 0.0
C1734 C 0.09043 0.89475 0.39519 0.0
H1735 H 0.09285 0.88117 0.2997 0.0
H1736 H 0.09675 0.87301 0.3321 0.0
H1737 H 0.07786 0.90912 0.37273 0.0
H1738 H 0.10187 0.89128 0.4647 0.0
H1739 H 0.10454 0.89964 0.43245 0.0
H1740 H 0.13195 0.86383 0.39091 0.0
C1741 C 0.09895 0.885 0.32884 0.0
C1742 C 0.08989 0.89926 0.37656 0.0
C1743 C 0.09663 0.88969 0.31028 0.0
C1744 C 0.10301 0.88273 0.45386 0.0
C1745 C 0.10432 0.88752 0.4353 0.0
C1746 C 0.1198 0.87365 0.38717 0.0
C1747 C 0.10309 0.89574 0.34309 0.0
C1748 C 0.10407 0.89096 0.36295 0.0
C1749 C 0.10537 0.87683 0.42069 0.0
C1750 C 0.10539 0.88186 0.40081 0.0
H1751 H 0.10535 0.92791 0.31667 0.0
H1752 H 0.10917 0.91974 0.34887 0.0
H1753 H 0.13042 0.87155 0.35838 0.0
H1754 H 0.1045 0.84432 0.44665 0.0
H1755 H 0.10603 0.85259 0.41449 0.0
C1756 C 0.18811 0.86572 0.81621 0.0
C1757 C 0.20488 0.87215 0.80254 0.0
C1758 C 0.18583 0.87239 0.83378 0.0
C1759 C 0.22124 0.89768 0.86684 0.0
H1760 H 0.15187 0.89702 0.89195 0.0
C1761 C 0.20527 0.91786 0.94394 0.0
C1762 C 0.19139 0.90704 0.95474 0.0
C1763 C 0.20643 0.91631 0.92447 0.0
C1764 C 0.17141 0.89732 0.88514 0.0
H1765 H 0.23237 0.8908 0.79675 0.0
H1766 H 0.22834 0.90249 0.82752 0.0
H1767 H 0.15484 0.88912 0.85959 0.0
H1768 H 0.16715 0.88645 0.95348 0.0
H1769 H 0.16888 0.88393 0.92005 0.0
H1770 H 0.23779 0.90558 0.8927 0.0
C1771 C 0.21704 0.8922 0.8246 0.0
C1772 C 0.17314 0.89273 0.86659 0.0
C1773 C 0.21922 0.88554 0.80691 0.0
C1774 C 0.17816 0.89498 0.94566 0.0
C1775 C 0.17895 0.89357 0.9264 0.0
C1776 C 0.21948 0.90232 0.88548 0.0
C1777 C 0.2003 0.8857 0.83827 0.0
C1778 C 0.19818 0.89241 0.85732 0.0
C1779 C 0.19321 0.90411 0.91551 0.0
C1780 C 0.19465 0.90175 0.895 0.0
H1781 H 0.17682 0.8554 0.81341 0.0
H1782 H 0.17309 0.8669 0.84401 0.0
H1783 H 0.24088 0.89755 0.86017 0.0
H1784 H 0.21574 0.92724 0.95054 0.0
H1785 H 0.21757 0.92463 0.91643 0.0
C1786 C 0.10669 0.40968 0.82701 0.0
C1787 C 0.10316 0.39904 0.81258 0.0
C1788 C 0.10846 0.40491 0.8455 0.0
C1789 C 0.12361 0.37187 0.8754 0.0
H1790 H 0.08008 0.39346 0.91175 0.0
C1791 C 0.10792 0.34881 0.94988 0.0
C1792 C 0.10489 0.35922 0.96461 0.0
C1793 C 0.1094 0.35388 0.9315 0.0
C1794 C 0.09277 0.38744 0.90191 0.0
H1795 H 0.09944 0.37494 0.80636 0.0
H1796 H 0.10287 0.36658 0.8387 0.0
H1797 H 0.0798 0.40174 0.87949 0.0
H1798 H 0.10186 0.38322 0.9715 0.0
H1799 H 0.10526 0.39214 0.9395 0.0
H1800 H 0.1369 0.35768 0.89779 0.0
C1801 C 0.10421 0.37865 0.83563 0.0
C1802 C 0.0925 0.39217 0.88335 0.0
C1803 C 0.10215 0.38344 0.8171 0.0
C1804 C 0.10405 0.37488 0.96051 0.0
C1805 C 0.10578 0.37998 0.9421 0.0
C1806 C 0.12411 0.36722 0.89401 0.0
C1807 C 0.10703 0.38935 0.85006 0.0
C1808 C 0.10779 0.3844 0.86985 0.0
C1809 C 0.10815 0.36954 0.92729 0.0
C1810 C 0.10855 0.37487 0.90754 0.0
H1811 H 0.10757 0.42179 0.82409 0.0
H1812 H 0.11096 0.41343 0.85625 0.0
H1813 H 0.13588 0.36576 0.86538 0.0
H1814 H 0.10848 0.33664 0.95247 0.0
H1815 H 0.11076 0.34545 0.92056 0.0
C1816 C 0.86034 0.66677 0.70058 0.0
C1817 C 0.85549 0.65661 0.71532 0.0
C1818 C 0.86209 0.66152 0.68227 0.0
C1819 C 0.84321 0.62843 0.6525 0.0
H1820 H 0.88988 0.64841 0.61675 0.0
C1821 C 0.85818 0.60557 0.57772 0.0
C1822 C 0.85681 0.61632 0.56323 0.0
C1823 C 0.85926 0.61028 0.59628 0.0
C1824 C 0.8766 0.64278 0.62654 0.0
H1825 H 0.84951 0.63281 0.72229 0.0
H1826 H 0.8534 0.62356 0.69043 0.0
H1827 H 0.89044 0.65656 0.64912 0.0
H1828 H 0.85599 0.64051 0.55702 0.0
H1829 H 0.85819 0.64873 0.58946 0.0
H1830 H 0.8297 0.61452 0.62986 0.0
C1831 C 0.85515 0.63569 0.69295 0.0
C1832 C 0.87684 0.64747 0.64514 0.0
C1833 C 0.85315 0.64097 0.7113 0.0
C1834 C 0.85703 0.63192 0.5678 0.0
C1835 C 0.85841 0.63663 0.58639 0.0
C1836 C 0.84319 0.62364 0.63394 0.0
C1837 C 0.85931 0.64591 0.67812 0.0
C1838 C 0.85999 0.64045 0.6584 0.0
C1839 C 0.85928 0.62586 0.60087 0.0
C1840 C 0.85975 0.63082 0.62069 0.0
H1841 H 0.86208 0.67891 0.7031 0.0
H1842 H 0.86486 0.66982 0.67132 0.0
H1843 H 0.82954 0.6229 0.66211 0.0
H1844 H 0.85804 0.59345 0.57477 0.0
H1845 H 0.86021 0.60169 0.60706 0.0
C1846 C 0.94981 0.08207 0.69195 0.0
C1847 C 0.94126 0.09378 0.70396 0.0
C1848 C 0.95563 0.0853 0.67318 0.0
C1849 C 0.97229 0.11771 0.64181 0.0
H1850 H 0.93706 0.09455 0.6029 0.0
C1851 C 0.95021 0.14408 0.57065 0.0
C1852 C 0.95505 0.13541 0.55454 0.0
C1853 C 0.95167 0.13739 0.58824 0.0
C1854 C 0.94736 0.10101 0.61358 0.0
H1855 H 0.93324 0.11808 0.7059 0.0
H1856 H 0.94348 0.12362 0.67382 0.0
H1857 H 0.93564 0.08532 0.63506 0.0
H1858 H 0.96475 0.11274 0.54443 0.0
H1859 H 0.967 0.101 0.57531 0.0
H1860 H 0.98326 0.13364 0.62064 0.0
C1861 C 0.94571 0.11197 0.6786 0.0
C1862 C 0.94663 0.09569 0.63199 0.0
C1863 C 0.9396 0.10874 0.69704 0.0
C1864 C 0.96094 0.11977 0.55653 0.0
C1865 C 0.96215 0.11302 0.57421 0.0
C1866 C 0.97292 0.12302 0.62353 0.0
C1867 C 0.95357 0.10034 0.66632 0.0
C1868 C 0.95838 0.10424 0.64641 0.0
C1869 C 0.95785 0.12181 0.59029 0.0
C1870 C 0.95979 0.11501 0.60926 0.0
H1871 H 0.95114 0.07042 0.69688 0.0
H1872 H 0.96168 0.07609 0.66405 0.0
H1873 H 0.98202 0.12443 0.6525 0.0
H1874 H 0.94556 0.15613 0.56973 0.0
H1875 H 0.94777 0.14445 0.6003 0.0
C1876 C 0.86643 0.14675 0.19469 0.0
C1877 C 0.8627 0.1366 0.20961 0.0
C1878 C 0.86751 0.14141 0.17639 0.0
C1879 C 0.88006 0.10719 0.14775 0.0
H1880 H 0.83679 0.12837 0.11096 0.0
C1881 C 0.86021 0.08165 0.07497 0.0
C1882 C 0.85706 0.09148 0.05968 0.0
C1883 C 0.86282 0.08744 0.09298 0.0
C1884 C 0.84941 0.12244 0.12091 0.0
H1885 H 0.8579 0.11277 0.21689 0.0
H1886 H 0.86015 0.10342 0.1849 0.0
H1887 H 0.83803 0.13776 0.14278 0.0
H1888 H 0.85506 0.11522 0.05141 0.0
H1889 H 0.86044 0.12537 0.08276 0.0
H1890 H 0.89176 0.09197 0.12593 0.0
C1891 C 0.86218 0.11554 0.18743 0.0
C1892 C 0.85001 0.12782 0.13923 0.0
C1893 C 0.8608 0.12091 0.20576 0.0
C1894 C 0.85732 0.1073 0.06285 0.0
C1895 C 0.86019 0.11312 0.0809 0.0
C1896 C 0.8797 0.1019 0.12939 0.0
C1897 C 0.86518 0.12576 0.1725 0.0
C1898 C 0.86518 0.1202 0.15291 0.0
C1899 C 0.86265 0.10327 0.09628 0.0
C1900 C 0.86417 0.10936 0.1157 0.0
H1901 H 0.86797 0.15892 0.19708 0.0
H1902 H 0.87017 0.14957 0.16525 0.0
H1903 H 0.89224 0.10118 0.15789 0.0
H1904 H 0.85994 0.06939 0.07312 0.0
H1905 H 0.86419 0.07943 0.10437 0.0
C1906 C 0.92663 0.65008 0.06663 0.0
C1907 C 0.92895 0.66581 0.06327 0.0
C1908 C 0.9245 0.64449 0.08482 0.0
C1909 C 0.91023 0.65672 0.13375 0.0
H1910 H 0.94636 0.61874 0.14592 0.0
C1911 C 0.9289 0.63604 0.20954 0.0
C1912 C 0.92475 0.62046 0.21318 0.0
C1913 C 0.92764 0.64167 0.19132 0.0
C1914 C 0.93592 0.62929 0.14272 0.0
H1915 H 0.93081 0.68801 0.07654 0.0
H1916 H 0.92784 0.67832 0.10807 0.0
H1917 H 0.9476 0.6282 0.11415 0.0
H1918 H 0.91548 0.59865 0.20041 0.0
H1919 H 0.91343 0.60845 0.1688 0.0
H1920 H 0.89918 0.65791 0.16253 0.0
C1921 C 0.92699 0.67024 0.09671 0.0
C1922 C 0.93654 0.63472 0.12444 0.0
C1923 C 0.92887 0.67582 0.07855 0.0
C1924 C 0.91881 0.61072 0.19818 0.0
C1925 C 0.91781 0.61631 0.18 0.0
C1926 C 0.90985 0.65135 0.15208 0.0
C1927 C 0.9249 0.65448 0.10016 0.0
C1928 C 0.92371 0.64853 0.11965 0.0
C1929 C 0.92248 0.63182 0.1763 0.0
C1930 C 0.92267 0.63756 0.15679 0.0
H1931 H 0.9265 0.64204 0.05521 0.0
H1932 H 0.92244 0.63231 0.08681 0.0
H1933 H 0.89969 0.66725 0.13063 0.0
H1934 H 0.93355 0.64387 0.22072 0.0
H1935 H 0.93148 0.65367 0.18894 0.0
C1936 C 0.67791 0.3829 0.95827 0.0
C1937 C 0.67818 0.39852 0.96274 0.0
C1938 C 0.67628 0.37812 0.93971 0.0
C1939 C 0.69085 0.39103 0.89206 0.0
H1940 H 0.64367 0.35795 0.87726 0.0
C1941 C 0.67964 0.37367 0.81487 0.0
C1942 C 0.67756 0.35802 0.81087 0.0
C1943 C 0.6779 0.37893 0.83322 0.0
C1944 C 0.65723 0.36708 0.88115 0.0
H1945 H 0.67671 0.42134 0.95112 0.0
H1946 H 0.67406 0.41301 0.91889 0.0
H1947 H 0.64456 0.36618 0.90961 0.0
H1948 H 0.67173 0.33566 0.82313 0.0
H1949 H 0.66938 0.34474 0.85495 0.0
H1950 H 0.7041 0.39175 0.8638 0.0
C1951 C 0.6752 0.40445 0.92971 0.0
C1952 C 0.65767 0.37182 0.89973 0.0
C1953 C 0.67655 0.40922 0.94822 0.0
C1954 C 0.67326 0.34781 0.82564 0.0
C1955 C 0.67176 0.35305 0.84396 0.0
C1956 C 0.69062 0.3862 0.87353 0.0
C1957 C 0.67517 0.38885 0.9252 0.0
C1958 C 0.6745 0.38384 0.90542 0.0
C1959 C 0.67426 0.36868 0.84807 0.0
C1960 C 0.67384 0.37414 0.86777 0.0
H1961 H 0.67914 0.37435 0.96908 0.0
H1962 H 0.6765 0.36602 0.93671 0.0
H1963 H 0.70432 0.40019 0.89602 0.0
H1964 H 0.68283 0.38186 0.80384 0.0
H1965 H 0.67943 0.39108 0.83573 0.0
C1966 C 0.60399 0.85072 0.94828 0.0
C1967 C 0.58692 0.85869 0.96048 0.0
C1968 C 0.60384 0.85415 0.92923 0.0
C1969 C 0.56698 0.87531 0.89185 0.0
H1970 H 0.63919 0.88289 0.8731 0.0
C1971 C 0.58692 0.90804 0.82249 0.0
C1972 C 0.60784 0.90223 0.81127 0.0
C1973 C 0.58308 0.90243 0.84062 0.0
C1974 C 0.61884 0.88067 0.87795 0.0
H1975 H 0.55515 0.87565 0.96234 0.0
H1976 H 0.55433 0.88133 0.92925 0.0
H1977 H 0.63343 0.87158 0.90363 0.0
H1978 H 0.6413 0.88612 0.81052 0.0
H1979 H 0.63444 0.87639 0.8415 0.0
H1980 H 0.55243 0.88447 0.86608 0.0
C1981 C 0.56786 0.87248 0.93417 0.0
C1982 C 0.61555 0.8741 0.89549 0.0
C1983 C 0.56826 0.86919 0.95315 0.0
C1984 C 0.62497 0.89093 0.8187 0.0
C1985 C 0.62116 0.88538 0.83663 0.0
C1986 C 0.57027 0.88183 0.87419 0.0
C1987 C 0.58645 0.86551 0.92208 0.0
C1988 C 0.58961 0.87134 0.90271 0.0
C1989 C 0.60015 0.89096 0.84789 0.0
C1990 C 0.59628 0.88459 0.86698 0.0
H1991 H 0.61892 0.8428 0.95364 0.0
H1992 H 0.61821 0.84844 0.92024 0.0
H1993 H 0.5467 0.87332 0.89697 0.0
H1994 H 0.57329 0.91668 0.81718 0.0
H1995 H 0.56682 0.90711 0.84896 0.0
C1996 C 0.6773 0.92649 0.45223 0.0
C1997 C 0.68065 0.91684 0.46767 0.0
C1998 C 0.67537 0.92047 0.43427 0.0
C1999 C 0.66024 0.88527 0.40791 0.0
H2000 H 0.70244 0.90449 0.36907 0.0
C2001 C 0.67562 0.85699 0.33601 0.0
C2002 C 0.67739 0.86633 0.32018 0.0
C2003 C 0.67459 0.86335 0.35382 0.0
C2004 C 0.69015 0.89909 0.37963 0.0
H2005 H 0.68392 0.8932 0.47625 0.0
H2006 H 0.68036 0.88271 0.44491 0.0
H2007 H 0.70286 0.91509 0.40033 0.0
H2008 H 0.67889 0.8898 0.31077 0.0
H2009 H 0.67644 0.90093 0.34179 0.0
H2010 H 0.64731 0.86933 0.38723 0.0
C2011 C 0.67919 0.89495 0.44673 0.0
C2012 C 0.69046 0.90518 0.39761 0.0
C2013 C 0.68134 0.90098 0.46471 0.0
C2014 C 0.67766 0.88224 0.32263 0.0
C2015 C 0.67644 0.88863 0.34048 0.0
C2016 C 0.65975 0.87924 0.38988 0.0
C2017 C 0.67653 0.90464 0.43125 0.0
C2018 C 0.67563 0.8983 0.41201 0.0
C2019 C 0.67511 0.87927 0.35636 0.0
C2020 C 0.67484 0.88601 0.37548 0.0
H2021 H 0.67665 0.93876 0.45394 0.0
H2022 H 0.67297 0.92825 0.4227 0.0
H2023 H 0.64829 0.8798 0.4186 0.0
H2024 H 0.67552 0.84468 0.3347 0.0
H2025 H 0.67403 0.85573 0.36563 0.0
C2026 C 0.60634 0.34568 0.44779 0.0
C2027 C 0.60579 0.35611 0.46264 0.0
C2028 C 0.60725 0.35078 0.4294 0.0
C2029 C 0.59375 0.38513 0.40039 0.0
H2030 H 0.63238 0.36203 0.36281 0.0
C2031 C 0.60795 0.4076 0.32564 0.0
C2032 C 0.6026 0.39733 0.31109 0.0
C2033 C 0.6097 0.40252 0.34401 0.0
C2034 C 0.62134 0.36854 0.37312 0.0
H2035 H 0.60639 0.38014 0.46969 0.0
H2036 H 0.60874 0.38906 0.43765 0.0
H2037 H 0.63352 0.3536 0.39508 0.0
H2038 H 0.59561 0.37353 0.3045 0.0
H2039 H 0.59897 0.36463 0.33662 0.0
H2040 H 0.58192 0.40018 0.3784 0.0
C2041 C 0.6078 0.3769 0.44018 0.0
C2042 C 0.62191 0.3637 0.39165 0.0
C2043 C 0.60665 0.37179 0.45861 0.0
C2044 C 0.59975 0.38175 0.31534 0.0
C2045 C 0.60177 0.37664 0.33375 0.0
C2046 C 0.59341 0.39005 0.3819 0.0
C2047 C 0.60788 0.36647 0.42528 0.0
C2048 C 0.60801 0.37188 0.40557 0.0
C2049 C 0.60639 0.38701 0.34833 0.0
C2050 C 0.60711 0.38179 0.36802 0.0
H2051 H 0.60553 0.33352 0.45034 0.0
H2052 H 0.60681 0.34237 0.41839 0.0
H2053 H 0.58233 0.39159 0.41054 0.0
H2054 H 0.61029 0.41968 0.32293 0.0
H2055 H 0.61363 0.41077 0.35487 0.0
C2056 C 0.34999 0.63168 0.21132 0.0
C2057 C 0.354 0.64705 0.2161 0.0
C2058 C 0.35148 0.62696 0.19274 0.0
C2059 C 0.37452 0.63951 0.14561 0.0
H2060 H 0.32276 0.60942 0.12871 0.0
C2061 C 0.35221 0.62781 0.06764 0.0
C2062 C 0.3498 0.61245 0.06228 0.0
C2063 C 0.35433 0.63177 0.08645 0.0
C2064 C 0.33752 0.61774 0.13324 0.0
H2065 H 0.36316 0.66947 0.20501 0.0
H2066 H 0.36509 0.66137 0.17282 0.0
H2067 H 0.32392 0.61654 0.16139 0.0
H2068 H 0.34794 0.5892 0.07259 0.0
H2069 H 0.35144 0.59614 0.10525 0.0
H2070 H 0.38756 0.64094 0.11725 0.0
C2071 C 0.36136 0.65283 0.18336 0.0
C2072 C 0.33829 0.62178 0.15203 0.0
C2073 C 0.36009 0.65751 0.2019 0.0
C2074 C 0.34976 0.60116 0.07617 0.0
C2075 C 0.3516 0.60512 0.09493 0.0
C2076 C 0.37355 0.63556 0.12677 0.0
C2077 C 0.35681 0.63752 0.17846 0.0
C2078 C 0.35676 0.63276 0.1585 0.0
C2079 C 0.35379 0.62047 0.10032 0.0
C2080 C 0.35501 0.62465 0.12036 0.0
H2081 H 0.34537 0.6233 0.2219 0.0
H2082 H 0.34835 0.61502 0.18959 0.0
H2083 H 0.38936 0.64781 0.15005 0.0
H2084 H 0.35231 0.63679 0.05733 0.0
H2085 H 0.3558 0.64371 0.09016 0.0
C2086 C 0.39552 0.10899 0.20546 0.0
C2087 C 0.41881 0.10327 0.21421 0.0
C2088 C 0.39693 0.11499 0.18744 0.0
C2089 C 0.44674 0.12721 0.15078 0.0
H2090 H 0.3856 0.12112 0.11791 0.0
C2091 C 0.45238 0.13142 0.07048 0.0
C2092 C 0.43542 0.14268 0.06288 0.0
C2093 C 0.44947 0.12698 0.08904 0.0
C2094 C 0.40276 0.12292 0.127 0.0
H2095 H 0.4619 0.0994 0.21089 0.0
H2096 H 0.4642 0.10908 0.17948 0.0
H2097 H 0.38246 0.1131 0.15029 0.0
H2098 H 0.40156 0.15776 0.06853 0.0
H2099 H 0.39583 0.1495 0.10083 0.0
H2100 H 0.46735 0.13631 0.12703 0.0
C2101 C 0.44491 0.10956 0.18657 0.0
C2102 C 0.40095 0.11847 0.14564 0.0
C2103 C 0.44359 0.10389 0.20467 0.0
C2104 C 0.41494 0.14906 0.07403 0.0
C2105 C 0.41161 0.14434 0.09246 0.0
C2106 C 0.44872 0.13131 0.13207 0.0
C2107 C 0.42158 0.11512 0.17757 0.0
C2108 C 0.42298 0.12049 0.15784 0.0
C2109 C 0.42914 0.13345 0.10019 0.0
C2110 C 0.42679 0.12917 0.12002 0.0
H2111 H 0.37614 0.10873 0.21248 0.0
H2112 H 0.37859 0.11945 0.18126 0.0
H2113 H 0.46394 0.12938 0.15969 0.0
H2114 H 0.46846 0.12638 0.06227 0.0
H2115 H 0.46317 0.11852 0.09473 0.0
C2116 C 0.37647 0.14644 0.7121 0.0
C2117 C 0.35189 0.15208 0.71911 0.0
C2118 C 0.3772 0.13823 0.69545 0.0
C2119 C 0.33348 0.11886 0.65997 0.0
H2120 H 0.39598 0.12584 0.62859 0.0
C2121 C 0.34041 0.10461 0.5807 0.0
C2122 C 0.36494 0.09818 0.5745 0.0
C2123 C 0.33735 0.10921 0.59925 0.0
C2124 C 0.37851 0.12363 0.63727 0.0
H2125 H 0.30866 0.15326 0.71429 0.0
H2126 H 0.30998 0.13947 0.6849 0.0
H2127 H 0.39361 0.13785 0.65892 0.0
H2128 H 0.40486 0.09075 0.58331 0.0
H2129 H 0.39952 0.09889 0.61543 0.0
H2130 H 0.31805 0.10511 0.63765 0.0
C2131 C 0.32871 0.141 0.69246 0.0
C2132 C 0.37717 0.13047 0.65477 0.0
C2133 C 0.32793 0.14899 0.70931 0.0
C2134 C 0.38572 0.09571 0.58751 0.0
C2135 C 0.38276 0.10046 0.60593 0.0
C2136 C 0.33466 0.11219 0.64227 0.0
C2137 C 0.35344 0.1357 0.68512 0.0
C2138 C 0.35472 0.12815 0.66647 0.0
C2139 C 0.35884 0.10762 0.61189 0.0
C2140 C 0.35728 0.11445 0.63079 0.0
H2141 H 0.39525 0.14848 0.71942 0.0
H2142 H 0.39656 0.134 0.69063 0.0
H2143 H 0.316 0.1166 0.66858 0.0
H2144 H 0.32399 0.10669 0.57107 0.0
H2145 H 0.31869 0.11473 0.60345 0.0
C2146 C 0.43333 0.62861 0.71165 0.0
C2147 C 0.43161 0.613 0.71592 0.0
C2148 C 0.43145 0.63364 0.69322 0.0
C2149 C 0.41074 0.62113 0.64563 0.0
H2150 H 0.45772 0.65405 0.62998 0.0
C2151 C 0.43076 0.63595 0.56818 0.0
C2152 C 0.43109 0.6515 0.56344 0.0
C2153 C 0.42928 0.63141 0.58682 0.0
C2154 C 0.44427 0.64494 0.63416 0.0
H2155 H 0.42622 0.59045 0.70405 0.0
H2156 H 0.42358 0.59912 0.67209 0.0
H2157 H 0.45767 0.64604 0.66235 0.0
H2158 H 0.42988 0.67448 0.57467 0.0
H2159 H 0.42745 0.66656 0.60704 0.0
H2160 H 0.39787 0.61986 0.61724 0.0
C2161 C 0.42582 0.60758 0.68294 0.0
C2162 C 0.44414 0.64037 0.65277 0.0
C2163 C 0.4275 0.60258 0.70134 0.0
C2164 C 0.42968 0.6624 0.57777 0.0
C2165 C 0.42846 0.65786 0.59637 0.0
C2166 C 0.41104 0.62563 0.62697 0.0
C2167 C 0.42799 0.62317 0.67857 0.0
C2168 C 0.42742 0.62837 0.65879 0.0
C2169 C 0.42837 0.64233 0.60114 0.0
C2170 C 0.42783 0.63757 0.621 0.0
H2171 H 0.43638 0.63696 0.72253 0.0
H2172 H 0.43274 0.64576 0.69049 0.0
H2173 H 0.39722 0.61204 0.64974 0.0
H2174 H 0.43182 0.62726 0.55752 0.0
H2175 H 0.42946 0.61934 0.59004 0.0
C2176 C 0.30167 0.34995 0.27965 0.0
C2177 C 0.29299 0.34492 0.26212 0.0
C2178 C 0.32529 0.35864 0.28137 0.0
C2179 C 0.3659 0.38617 0.25714 0.0
H2180 H 0.42789 0.37201 0.28528 0.0
C2181 C 0.46912 0.41524 0.24949 0.0
C2182 C 0.48675 0.41583 0.26473 0.0
C2183 C 0.44528 0.40679 0.25037 0.0
C2184 C 0.41064 0.37633 0.27766 0.0
H2185 H 0.30172 0.34524 0.23266 0.0
H2186 H 0.34253 0.3608 0.23559 0.0
H2187 H 0.38622 0.35704 0.28516 0.0
H2188 H 0.49329 0.40814 0.29289 0.0
H2189 H 0.45096 0.39383 0.29486 0.0
H2190 H 0.3895 0.40563 0.24999 0.0
C2191 C 0.33135 0.35778 0.248 0.0
C2192 C 0.38685 0.36768 0.27753 0.0
C2193 C 0.30817 0.34883 0.24634 0.0
C2194 C 0.48004 0.40779 0.28093 0.0
C2195 C 0.45585 0.39954 0.28197 0.0
C2196 C 0.38939 0.39496 0.25755 0.0
C2197 C 0.34012 0.36275 0.26551 0.0
C2198 C 0.3645 0.37241 0.26699 0.0
C2199 C 0.43809 0.39892 0.26668 0.0
C2200 C 0.41236 0.39003 0.26748 0.0
H2201 H 0.29028 0.34704 0.29199 0.0
H2202 H 0.33169 0.3624 0.295 0.0
H2203 H 0.34875 0.39011 0.24907 0.0
H2204 H 0.47408 0.42108 0.2367 0.0
H2205 H 0.43272 0.40627 0.23808 0.0
C2206 C 0.798 0.85556 0.28481 0.0
C2207 C 0.7886 0.84914 0.26815 0.0
C2208 C 0.8215 0.86448 0.28497 0.0
C2209 C 0.86101 0.89006 0.25678 0.0
H2210 H 0.92395 0.87816 0.28547 0.0
C2211 C 0.96369 0.91895 0.24469 0.0
C2212 C 0.98177 0.92061 0.25955 0.0
C2213 C 0.94002 0.91045 0.24673 0.0
C2214 C 0.90646 0.88188 0.27764 0.0
H2215 H 0.79585 0.84727 0.23859 0.0
H2216 H 0.8364 0.86325 0.23876 0.0
H2217 H 0.88236 0.86327 0.28774 0.0
H2218 H 0.98927 0.9148 0.28826 0.0
H2219 H 0.94729 0.90046 0.29223 0.0
H2220 H 0.88428 0.90889 0.24707 0.0
C2221 C 0.8259 0.86115 0.25171 0.0
C2222 C 0.88269 0.87326 0.2789 0.0
C2223 C 0.80285 0.85196 0.25163 0.0
C2224 C 0.9757 0.91359 0.27656 0.0
C2225 C 0.95168 0.90532 0.27875 0.0
C2226 C 0.88449 0.89885 0.25582 0.0
C2227 C 0.83549 0.86744 0.26837 0.0
C2228 C 0.85995 0.87714 0.26823 0.0
C2229 C 0.93344 0.90362 0.26384 0.0
C2230 C 0.9078 0.89474 0.26593 0.0
H2231 H 0.78736 0.8535 0.29771 0.0
H2232 H 0.82852 0.86926 0.29797 0.0
H2233 H 0.84358 0.89336 0.24858 0.0
H2234 H 0.96813 0.924 0.23132 0.0
H2235 H 0.9271 0.90909 0.23472 0.0
C2236 C 0.29486 0.88772 1.00941 0.0
C2237 C 0.28029 0.88889 0.02609 0.0
C2238 C 0.32319 0.88696 1.0095 0.0
C2239 C 0.3827 0.88077 0.04121 0.0
H2240 H 0.42227 0.8987 1.0002 0.0
C2241 C 0.49944 0.88951 0.0419 0.0
C2242 C 0.51309 0.88367 0.0263 0.0
C2243 C 0.47111 0.89067 0.04199 0.0
C2244 C 0.41148 0.89361 1.01173 0.0
H2245 H 0.28409 0.89043 0.05597 0.0
H2246 H 0.3333 0.88964 0.05623 0.0
H2247 H 0.37298 0.89949 1.00024 0.0
H2248 H 0.5079 0.87504 0.99838 0.0
H2249 H 0.45855 0.87744 0.99834 0.0
H2250 H 0.42151 0.87534 0.05286 0.0
C2251 C 0.32304 0.88875 0.043 0.0
C2252 C 0.38313 0.89394 1.01172 0.0
C2253 C 0.2947 0.88924 0.0429 0.0
C2254 C 0.49789 0.87949 1.01061 0.0
C2255 C 0.46968 0.88094 1.01057 0.0
C2256 C 0.41106 0.88069 0.04135 0.0
C2257 C 0.33781 0.88765 0.0263 0.0
C2258 C 0.36821 0.88742 0.0264 0.0
C2259 C 0.45591 0.88633 0.02635 0.0
C2260 C 0.42577 0.88702 0.02656 0.0
H2261 H 0.28426 0.88733 0.99627 0.0
H2262 H 0.33356 0.88576 0.99635 0.0
H2263 H 0.37221 0.87535 0.05261 0.0
H2264 H 0.51062 0.8927 0.05421 0.0
H2265 H 0.46107 0.89495 0.05432 0.0
C2266 C 0.97202 0.34517 0.02727 0.0
C2267 C 0.98876 0.34347 1.01161 0.0
C2268 C 0.94875 0.35426 0.02649 0.0
C2269 C 0.8959 0.36842 0.99635 0.0
H2270 H 0.88705 0.40056 0.03281 0.0
C2271 C 0.80104 0.40813 0.99674 0.0
C2272 C 0.79206 0.41376 0.01394 0.0
C2273 C 0.8255 0.4 0.9954 0.0
C2274 C 0.88879 0.39148 0.0227 0.0
H2275 H 0.99407 0.34979 0.98282 0.0
H2276 H 0.95258 0.36539 0.98125 0.0
H2277 H 0.92834 0.38541 0.03251 0.0
H2278 H 0.80096 0.41467 0.04331 0.0
H2279 H 0.84257 0.40001 0.04129 0.0
H2280 H 0.85591 0.37387 0.98705 0.0
C2281 C 0.95782 0.35979 0.99417 0.0
C2282 C 0.91268 0.38289 0.02245 0.0
C2283 C 0.98155 0.35096 0.99508 0.0
C2284 C 0.80765 0.41075 0.02981 0.0
C2285 C 0.83171 0.40239 0.02857 0.0
C2286 C 0.87167 0.37681 0.99683 0.0
C2287 C 0.9413 0.36161 1.00993 0.0
C2288 C 0.91645 0.37121 1.00937 0.0
C2289 C 0.84132 0.39703 1.01132 0.0
C2290 C 0.86759 0.3884 1.01015 0.0
H2291 H 0.97721 0.33966 0.04024 0.0
H2292 H 0.93636 0.35543 0.03883 0.0
H2293 H 0.89823 0.3594 0.98618 0.0
H2294 H 0.78945 0.41035 0.98427 0.0
H2295 H 0.83216 0.39629 0.98181 0.0
C2296 C 0.73223 0.66482 0.74433 0.0
C2297 C 0.73861 0.67308 0.76044 0.0
C2298 C 0.70852 0.65605 0.74344 0.0
C2299 C 0.64259 0.64989 0.76872 0.0
H2300 H 0.63983 0.61309 0.7389 0.0
C2301 C 0.56358 0.60173 0.77792 0.0
C2302 C 0.5476 0.59865 0.76222 0.0
C2303 C 0.5863 0.61115 0.77658 0.0
C2304 C 0.64032 0.62341 0.74717 0.0
H2305 H 0.72587 0.67811 0.78851 0.0
H2306 H 0.68558 0.66236 0.78748 0.0
H2307 H 0.68094 0.62852 0.73906 0.0
H2308 H 0.54306 0.60285 0.73279 0.0
H2309 H 0.58367 0.61899 0.73029 0.0
H2310 H 0.6024 0.64417 0.77754 0.0
C2311 C 0.69788 0.66311 0.77508 0.0
C2312 C 0.66384 0.63235 0.74722 0.0
C2313 C 0.72118 0.6721 0.77578 0.0
C2314 C 0.55502 0.60509 0.74508 0.0
C2315 C 0.57822 0.61422 0.74365 0.0
C2316 C 0.61941 0.64076 0.76898 0.0
C2317 C 0.69089 0.65506 0.75883 0.0
C2318 C 0.66546 0.6457 0.75812 0.0
C2319 C 0.59393 0.61742 0.75944 0.0
C2320 C 0.61808 0.62742 0.75829 0.0
H2321 H 0.74529 0.66544 0.73228 0.0
H2322 H 0.70388 0.65028 0.73056 0.0
H2323 H 0.64244 0.66025 0.77687 0.0
H2324 H 0.55818 0.59705 0.79132 0.0
H2325 H 0.59809 0.61344 0.78895 0.0
C2326 C 0.02211 0.123 0.75543 0.0
C2327 C 1.00141 0.12896 0.76677 0.0
C2328 C 0.04792 0.1295 0.75531 0.0
C2329 C 0.09354 0.15419 0.78312 0.0
H2330 H 0.13477 0.15571 0.73734 0.0
C2331 C 0.19688 0.18515 0.77753 0.0
C2332 C 0.21746 0.17798 0.76717 0.0
C2333 C 0.17044 0.17944 0.77751 0.0
C2334 C 0.12366 0.15523 0.75029 0.0
H2335 H 0.99189 0.1467 0.78672 0.0
H2336 H 0.03679 0.15826 0.78622 0.0
H2337 H 0.08874 0.14585 0.73702 0.0
H2338 H 0.22608 0.15914 0.74858 0.0
H2339 H 0.18004 0.1491 0.74864 0.0
H2340 H 0.12851 0.16367 0.79634 0.0
C2341 C 0.03311 0.14835 0.77762 0.0
C2342 C 0.0972 0.14956 0.75012 0.0
C2343 C 1.0072 0.14182 0.77775 0.0
C2344 C 0.21085 0.1649 0.75682 0.0
C2345 C 0.18435 0.15923 0.75671 0.0
C2346 C 0.11999 0.15993 0.78327 0.0
C2347 C 0.05389 0.14222 0.76645 0.0
C2348 C 0.08178 0.14886 0.76655 0.0
C2349 C 0.16377 0.16643 0.76704 0.0
C2350 C 0.13547 0.16045 0.76687 0.0
H2351 H 1.01844 0.11328 0.74654 0.0
H2352 H 0.06336 0.12431 0.74668 0.0
H2353 H 0.08254 0.15363 0.7961 0.0
H2354 H 0.2012 0.19513 0.78584 0.0
H2355 H 0.15512 0.18536 0.78551 0.0
C2356 C 0.55743 0.15128 0.02958 0.0
C2357 C 0.54841 0.15677 1.01234 0.0
C2358 C 0.58132 0.1426 0.03087 0.0
C2359 C 0.64315 0.13171 1.003 0.0
H2360 H 0.65086 0.10034 0.04055 0.0
C2361 C 0.72149 0.0826 0.99891 0.0
C2362 C 0.73835 0.08054 0.01443 0.0
C2363 C 0.69942 0.09261 0.99964 0.0
C2364 C 0.64904 0.10915 0.03009 0.0
H2365 H 0.55674 0.15691 0.98285 0.0
H2366 H 0.59729 0.14135 0.98482 0.0
H2367 H 0.60991 0.116 0.03979 0.0
H2368 H 0.74515 0.08727 0.04294 0.0
H2369 H 0.70575 0.10452 0.04446 0.0
H2370 H 0.68176 0.12421 0.9928 0.0
C2371 C 0.58694 0.14423 0.99759 0.0
C2372 C 0.62559 0.11823 0.02967 0.0
C2373 C 0.56346 0.15312 0.99639 0.0
C2374 C 0.73255 0.0887 0.03077 0.0
C2375 C 0.70999 0.09848 0.03166 0.0
C2376 C 0.66625 0.12242 1.0032 0.0
C2377 C 0.59654 0.13893 0.01487 0.0
C2378 C 0.6221 0.12959 0.01599 0.0
C2379 C 0.69327 0.10058 0.01605 0.0
C2380 C 0.66939 0.11098 0.01666 0.0
H2381 H 0.54629 0.15397 0.04211 0.0
H2382 H 0.58799 0.139 0.04449 0.0
H2383 H 0.64192 0.14056 0.99257 0.0
H2384 H 0.72559 0.07656 0.9861 0.0
H2385 H 0.68687 0.09397 0.98743 0.0
C2386 C 0.21889 0.60551 0.99381 0.0
C2387 C 0.23454 0.60215 1.00956 0.0
C2388 C 0.19561 0.61454 0.9952 0.0
C2389 C 0.15876 0.64149 0.02704 0.0
H2390 H 0.10046 0.63425 0.99215 0.0
C2391 C 0.05196 0.67093 0.03008 0.0
C2392 C 0.04441 0.67813 0.01342 0.0
C2393 C 0.07485 0.6614 0.03073 0.0
C2394 C 0.11659 0.63641 1.00198 0.0
H2395 H 0.23802 0.60565 0.03917 0.0
H2396 H 0.19668 0.62093 0.04189 0.0
H2397 H 0.14034 0.61795 0.99153 0.0
H2398 H 0.05445 0.68065 0.98431 0.0
H2399 H 0.09382 0.66372 0.98532 0.0
H2400 H 0.13411 0.65973 0.03777 0.0
C2401 C 0.20272 0.61695 0.02827 0.0
C2402 C 0.13968 0.62714 1.00155 0.0
C2403 C 0.22639 0.60812 0.02679 0.0
C2404 C 0.05993 0.6754 0.99739 0.0
C2405 C 0.08235 0.66563 0.99793 0.0
C2406 C 0.13533 0.65058 0.02769 0.0
C2407 C 0.18686 0.62028 1.01248 0.0
C2408 C 0.16144 0.62969 0.01383 0.0
C2409 C 0.09017 0.65858 0.01461 0.0
C2410 C 0.1142 0.64829 0.01496 0.0
H2411 H 0.22495 0.60135 0.98027 0.0
H2412 H 0.18471 0.61715 0.98257 0.0
H2413 H 0.17501 0.64403 0.0366 0.0
H2414 H 0.0404 0.67288 0.04263 0.0
H2415 H 0.08036 0.65606 0.04375 0.0
C2416 C 0.51966 0.86844 0.73072 0.0
C2417 C 0.53251 0.87508 0.74617 0.0
C2418 C 0.49308 0.86298 0.73205 0.0
C2419 C 0.43041 0.86856 0.75888 0.0
H2420 H 0.40821 0.83039 0.73653 0.0
C2421 C 0.32084 0.8454 0.76664 0.0
C2422 C 0.30974 0.83753 0.75145 0.0
C2423 C 0.34823 0.8496 0.76667 0.0
C2424 C 0.4139 0.8412 0.74264 0.0
H2425 H 0.52759 0.88025 0.77548 0.0
H2426 H 0.4813 0.87104 0.77761 0.0
H2427 H 0.45553 0.83804 0.73512 0.0
H2428 H 0.3185 0.82849 0.72409 0.0
H2429 H 0.3657 0.83606 0.72391 0.0
H2430 H 0.38879 0.87197 0.76601 0.0
C2431 C 0.49169 0.87028 0.7644 0.0
C2432 C 0.44112 0.84554 0.74188 0.0
C2433 C 0.5183 0.87559 0.76313 0.0
C2434 C 0.32651 0.83424 0.73619 0.0
C2435 C 0.35371 0.83856 0.73613 0.0
C2436 C 0.40312 0.8643 0.75948 0.0
C2437 C 0.4786 0.86411 0.74882 0.0
C2438 C 0.44972 0.85929 0.74995 0.0
C2439 C 0.36512 0.84619 0.75142 0.0
C2440 C 0.3944 0.85058 0.7513 0.0
H2441 H 0.52969 0.86791 0.71739 0.0
H2442 H 0.48353 0.85835 0.71975 0.0
H2443 H 0.4363 0.87932 0.76504 0.0
H2444 H 0.3085 0.848 0.77865 0.0
H2445 H 0.35624 0.85529 0.77882 0.0
C2446 C 0.80939 0.34438 0.74952 0.0
C2447 C 0.79324 0.34179 0.76527 0.0
C2448 C 0.83235 0.35363 0.7506 0.0
C2449 C 0.88607 0.36649 0.78036 0.0
H2450 H 0.89096 0.40141 0.74759 0.0
C2451 C 0.97927 0.4071 0.78149 0.0
C2452 C 0.9867 0.41421 0.76479 0.0
C2453 C 0.95526 0.39862 0.78267 0.0
C2454 C 0.89034 0.39157 0.75663 0.0
H2455 H 0.78864 0.34667 0.79454 0.0
H2456 H 0.82965 0.36252 0.79662 0.0
H2457 H 0.85037 0.38578 0.74745 0.0
H2458 H 0.97552 0.41743 0.73603 0.0
H2459 H 0.93471 0.40217 0.73766 0.0
H2460 H 0.92648 0.37166 0.78891 0.0
C2461 C 0.82417 0.35751 0.7834 0.0
C2462 C 0.86684 0.38271 0.75665 0.0
C2463 C 0.80073 0.34853 0.78221 0.0
C2464 C 0.97003 0.41234 0.74919 0.0
C2465 C 0.94642 0.40363 0.75022 0.0
C2466 C 0.90991 0.37516 0.78006 0.0
C2467 C 0.84006 0.36023 0.76755 0.0
C2468 C 0.86451 0.37004 0.76843 0.0
C2469 C 0.93836 0.39678 0.76703 0.0
C2470 C 0.91255 0.38778 0.76805 0.0
H2471 H 0.80395 0.33946 0.73625 0.0
H2472 H 0.84427 0.35553 0.73819 0.0
H2473 H 0.88482 0.3567 0.78949 0.0
H2474 H 0.99173 0.40843 0.79374 0.0
H2475 H 0.94979 0.39375 0.79595 0.0
C2476 C 0.30637 0.40608 0.49909 0.0
C2477 C 0.298 0.41171 0.51645 0.0
C2478 C 0.32989 0.39716 0.49756 0.0
C2479 C 0.37219 0.37077 0.52358 0.0
H2480 H 0.43126 0.38242 0.49118 0.0
C2481 C 0.47627 0.34184 0.52994 0.0
C2482 C 0.49247 0.33995 0.51409 0.0
C2483 C 0.45239 0.35038 0.52918 0.0
C2484 C 0.41484 0.37878 0.50006 0.0
H2485 H 0.30726 0.41213 0.54583 0.0
H2486 H 0.34783 0.39626 0.54324 0.0
H2487 H 0.38946 0.39738 0.4913 0.0
H2488 H 0.49635 0.34551 0.48497 0.0
H2489 H 0.45401 0.35997 0.48332 0.0
H2490 H 0.39675 0.35198 0.53205 0.0
C2491 C 0.33648 0.39894 0.53079 0.0
C2492 C 0.39092 0.38743 0.50016 0.0
C2493 C 0.31339 0.40809 0.53225 0.0
C2494 C 0.48428 0.34685 0.49741 0.0
C2495 C 0.46005 0.3552 0.49654 0.0
C2496 C 0.3958 0.36196 0.52324 0.0
C2497 C 0.34503 0.39341 0.51345 0.0
C2498 C 0.36957 0.38365 0.51217 0.0
C2499 C 0.44368 0.35707 0.51243 0.0
C2500 C 0.41776 0.36598 0.51176 0.0
H2501 H 0.29488 0.40874 0.48671 0.0
H2502 H 0.33602 0.39299 0.48403 0.0
H2503 H 0.35588 0.36749 0.53279 0.0
H2504 H 0.48235 0.33693 0.54309 0.0
H2505 H 0.441 0.35188 0.54189 0.0
C2506 C 0.97162 0.85471 0.5241 0.0
C2507 C 0.98813 0.85318 0.50831 0.0
C2508 C 0.94872 0.86408 0.52374 0.0
C2509 C 0.89639 0.87998 0.49446 0.0
H2510 H 0.89011 0.9112 0.53233 0.0
C2511 C 0.80499 0.92219 0.49734 0.0
C2512 C 0.79667 0.92732 0.51492 0.0
C2513 C 0.82854 0.91332 0.49542 0.0
C2514 C 0.89115 0.90239 0.52182 0.0
H2515 H 0.99337 0.86005 0.47969 0.0
H2516 H 0.95254 0.87621 0.47887 0.0
H2517 H 0.93042 0.89528 0.53107 0.0
H2518 H 0.8055 0.92652 0.54431 0.0
H2519 H 0.8455 0.91061 0.54122 0.0
H2520 H 0.85664 0.88654 0.48567 0.0
C2521 C 0.95767 0.87023 0.49156 0.0
C2522 C 0.91446 0.89336 0.52103 0.0
C2523 C 0.98102 0.86109 0.49205 0.0
C2524 C 0.81176 0.92298 0.53055 0.0
C2525 C 0.83488 0.91392 0.52871 0.0
C2526 C 0.87273 0.88883 0.49546 0.0
C2527 C 0.94146 0.87192 0.50748 0.0
C2528 C 0.91725 0.88199 0.50745 0.0
C2529 C 0.84401 0.90917 0.5111 0.0
C2530 C 0.86962 0.90008 0.50931 0.0
H2531 H 0.97675 0.84888 0.53687 0.0
H2532 H 0.93653 0.86515 0.53618 0.0
H2533 H 0.89801 0.87122 0.4839 0.0
H2534 H 0.79374 0.92544 0.48507 0.0
H2535 H 0.8349 0.91005 0.4816 0.0
C2536 C 0.57262 0.08168 0.27118 0.0
C2537 C 0.5494 0.08698 0.26191 0.0
C2538 C 0.59703 0.08968 0.27 0.0
C2539 C 0.62406 0.128 0.25946 0.0
H2540 H 0.69274 0.10673 0.2559 0.0
C2541 C 0.74436 0.14228 0.24575 0.0
C2542 C 0.74723 0.15505 0.25741 0.0
C2543 C 0.72044 0.13376 0.24581 0.0
C2544 C 0.67372 0.11285 0.25673 0.0
H2545 H 0.53402 0.10461 0.24359 0.0
H2546 H 0.57645 0.1185 0.24151 0.0
H2547 H 0.6507 0.09218 0.25645 0.0
H2548 H 0.72726 0.16857 0.27864 0.0
H2549 H 0.68577 0.15379 0.27875 0.0
H2550 H 0.64695 0.14867 0.25944 0.0
C2551 C 0.57568 0.10833 0.25001 0.0
C2552 C 0.64963 0.1045 0.25727 0.0
C2553 C 0.55131 0.10035 0.25122 0.0
C2554 C 0.72563 0.15902 0.26919 0.0
C2555 C 0.70178 0.15052 0.26927 0.0
C2556 C 0.6481 0.13634 0.25893 0.0
C2557 C 0.59881 0.10316 0.25949 0.0
C2558 C 0.6245 0.11198 0.25868 0.0
C2559 C 0.69882 0.13781 0.25755 0.0
C2560 C 0.67325 0.12887 0.25765 0.0
H2561 H 0.57181 0.07152 0.27969 0.0
H2562 H 0.61434 0.08548 0.27768 0.0
H2563 H 0.60511 0.13414 0.26075 0.0
H2564 H 0.76045 0.13899 0.23636 0.0
H2565 H 0.71872 0.12415 0.23645 0.0
C2566 C 0.06319 0.5944 0.26523 0.0
C2567 C 0.04051 0.59869 0.25464 0.0
C2568 C 0.08729 0.60262 0.26411 0.0
C2569 C 0.11396 0.64042 0.25178 0.0
H2570 H 0.18318 0.61949 0.25254 0.0
C2571 C 0.23572 0.65461 0.24544 0.0
C2572 C 0.23741 0.66706 0.25772 0.0
C2573 C 0.21161 0.64643 0.2436 0.0
C2574 C 0.16403 0.62552 0.25213 0.0
H2575 H 0.02582 0.61487 0.23419 0.0
H2576 H 0.06788 0.62928 0.23234 0.0
H2577 H 0.14147 0.60471 0.25159 0.0
H2578 H 0.21483 0.68056 0.27772 0.0
H2579 H 0.17294 0.66638 0.27443 0.0
H2580 H 0.13654 0.66123 0.2523 0.0
C2581 C 0.06682 0.61962 0.24168 0.0
C2582 C 0.14012 0.61704 0.25179 0.0
C2583 C 0.04269 0.61137 0.24276 0.0
C2584 C 0.21426 0.67122 0.26791 0.0
C2585 C 0.19016 0.66307 0.26603 0.0
C2586 C 0.13788 0.64889 0.2522 0.0
C2587 C 0.08937 0.61538 0.2524 0.0
C2588 C 0.1148 0.62439 0.25178 0.0
C2589 C 0.18858 0.65052 0.25394 0.0
C2590 C 0.16319 0.64154 0.25254 0.0
H2591 H 0.06221 0.58489 0.27476 0.0
H2592 H 0.10413 0.59919 0.2728 0.0
H2593 H 0.0948 0.64643 0.25193 0.0
H2594 H 0.25296 0.65122 0.23714 0.0
H2595 H 0.21095 0.63694 0.23397 0.0
C2596 C 0.7351 0.60559 0.52818 0.0
C2597 C 0.74377 0.59932 0.51124 0.0
C2598 C 0.7103 0.61336 0.52938 0.0
C2599 C 0.64559 0.61918 0.50301 0.0
H2600 H 0.63669 0.65381 0.53599 0.0
C2601 C 0.55986 0.66342 0.49524 0.0
C2602 C 0.54433 0.66654 0.51115 0.0
C2603 C 0.58357 0.65477 0.49648 0.0
C2604 C 0.63887 0.64407 0.52684 0.0
H2605 H 0.7339 0.59687 0.48212 0.0
H2606 H 0.69151 0.61082 0.48391 0.0
H2607 H 0.67956 0.63982 0.53565 0.0
H2608 H 0.54161 0.6632 0.54086 0.0
H2609 H 0.58379 0.64833 0.54313 0.0
H2610 H 0.60528 0.62394 0.49366 0.0
C2611 C 0.70301 0.60924 0.49655 0.0
C2612 C 0.66339 0.63598 0.52667 0.0
C2613 C 0.72747 0.60128 0.49546 0.0
C2614 C 0.55319 0.66092 0.5284 0.0
C2615 C 0.57731 0.6525 0.5297 0.0
C2616 C 0.62135 0.62743 0.50295 0.0
C2617 C 0.69381 0.61527 0.51356 0.0
C2618 C 0.66725 0.62351 0.51458 0.0
C2619 C 0.5926 0.64925 0.5137 0.0
C2620 C 0.61781 0.64003 0.51473 0.0
H2621 H 0.74724 0.60418 0.54057 0.0
H2622 H 0.70391 0.61765 0.54278 0.0
H2623 H 0.64728 0.60941 0.4939 0.0
H2624 H 0.55338 0.66746 0.48175 0.0
H2625 H 0.59502 0.65248 0.48394 0.0
C2626 C 0.07534 0.179 0.49367 0.0
C2627 C 0.05711 0.17414 0.50744 0.0
C2628 C 0.10299 0.17592 0.4952 0.0
C2629 C 0.15257 0.15075 0.51873 0.0
H2630 H 0.20362 0.18168 0.50296 0.0
C2631 C 0.26808 0.14313 0.52791 0.0
C2632 C 0.28441 0.14707 0.51264 0.0
C2633 C 0.24066 0.14711 0.52838 0.0
C2634 C 0.18965 0.17287 0.50729 0.0
H2635 H 0.05383 0.16211 0.53361 0.0
H2636 H 0.10225 0.15676 0.53636 0.0
H2637 H 0.15525 0.18702 0.5018 0.0
H2638 H 0.28448 0.15866 0.48603 0.0
H2639 H 0.23681 0.16569 0.48691 0.0
H2640 H 0.18705 0.1366 0.52416 0.0
C2641 C 0.09503 0.16285 0.52425 0.0
C2642 C 0.16187 0.17592 0.50661 0.0
C2643 C 0.06726 0.16591 0.52269 0.0
C2644 C 0.27273 0.15557 0.49812 0.0
C2645 C 0.2453 0.15959 0.49861 0.0
C2646 C 0.18038 0.14772 0.51946 0.0
C2647 C 0.11329 0.16791 0.51057 0.0
C2648 C 0.14293 0.16485 0.51213 0.0
C2649 C 0.22882 0.15521 0.51362 0.0
C2650 C 0.19927 0.1587 0.5136 0.0
H2651 H 0.06824 0.18506 0.48153 0.0
H2652 H 0.11628 0.17968 0.48416 0.0
H2653 H 0.13862 0.14188 0.52287 0.0
H2654 H 0.27645 0.13685 0.5395 0.0
H2655 H 0.22869 0.14381 0.54031 0.0
loop_
_geom_bond_atom_site_label_1
_geom_bond_atom_site_label_2
_geom_bond_distance
_geom_bond_site_symmetry_2
_ccdc_geom_bond_type
Cu0 N1 1.999 . S
Cu0 O6 1.974 . S
Cu0 N11 1.985 . S
Cu0 O20 1.959 . S
N1 Cu0 1.999 . S
N1 C3 1.263 . S
N1 C5 1.389 . S
N2 C3 1.358 . S
N2 C4 1.400 . S
C3 N1 1.263 . S
C3 N2 1.358 . S
C3 H9 0.930 . S
C4 N2 1.400 . S
C4 C5 1.351 . S
C4 H21 0.930 . S
C5 N1 1.389 . S
C5 C4 1.351 . S
C5 H10 0.930 . S
O6 Cu0 1.974 . S
O6 C16 1.282 . S
C7 O8 1.261 . S
C7 O20 1.251 . S
O8 C7 1.261 . S
H9 C3 0.930 . S
H10 C5 0.930 . S
N11 Cu0 1.985 . S
N11 C13 1.335 . S
N11 C14 1.390 . S
N12 C13 1.345 . S
N12 C15 1.336 . S
C13 N11 1.335 . S
C13 N12 1.345 . S
C13 H18 0.930 . S
C14 N11 1.390 . S
C14 C15 1.346 . S
C14 H19 0.930 . S
C15 N12 1.336 . S
C15 C14 1.346 . S
C15 H22 0.929 . S
C16 O6 1.282 . S
C16 O17 1.216 . S
O17 C16 1.216 . S
H18 C13 0.930 . S
H19 C14 0.930 . S
O20 Cu0 1.959 . S
O20 C7 1.251 . S
H21 C4 0.930 . S
H22 C15 0.929 . S
Cu23 N24 1.999 . S
Cu23 O29 1.974 . S
Cu23 N34 1.985 . S
Cu23 O43 1.959 . S
N24 Cu23 1.999 . S
N24 C26 1.263 . S
N24 C28 1.389 . S
N25 C26 1.358 1_655 S
N25 C27 1.400 . S
C26 N24 1.263 . S
C26 N25 1.358 1_455 S
C26 H32 0.930 . S
C27 N25 1.400 . S
C27 C28 1.351 1_655 S
C27 H44 0.930 . S
C28 N24 1.389 . S
C28 C27 1.351 1_455 S
C28 H33 0.930 . S
O29 Cu23 1.974 . S
O29 C39 1.282 . S
C30 O31 1.261 . S
C30 O43 1.251 . S
O31 C30 1.261 . S
H32 C26 0.930 . S
H33 C28 0.930 . S
N34 Cu23 1.985 . S
N34 C36 1.335 . S
N34 C37 1.390 . S
N35 C36 1.345 . S
N35 C38 1.336 . S
C36 N34 1.335 . S
C36 N35 1.345 . S
C36 H41 0.930 . S
C37 N34 1.390 . S
C37 C38 1.346 . S
C37 H42 0.930 . S
C38 N35 1.336 . S
C38 C37 1.346 . S
C38 H45 0.929 . S
C39 O29 1.282 . S
C39 O40 1.216 . S
O40 C39 1.216 . S
H41 C36 0.930 . S
H42 C37 0.930 . S
O43 Cu23 1.959 . S
O43 C30 1.251 . S
H44 C27 0.930 . S
H45 C38 0.929 . S
Cu46 N47 2.002 . S
Cu46 O52 1.974 . S
Cu46 N57 1.985 . S
Cu46 O66 1.959 1_556 S
N47 Cu46 2.002 . S
N47 C49 1.270 . S
N47 C51 1.379 1_556 S
N48 C49 1.358 . S
N48 C50 1.400 1_556 S
C49 N47 1.270 . S
C49 N48 1.358 . S
C49 H55 0.930 . S
C50 N48 1.400 1_554 S
C50 C51 1.351 . S
C50 H67 0.930 . S
C51 N47 1.379 1_554 S
C51 C50 1.351 . S
C51 H56 0.930 . S
O52 Cu46 1.974 . S
O52 C62 1.282 . S
C53 O54 1.261 . S
C53 O66 1.251 . S
O54 C53 1.261 . S
H55 C49 0.930 . S
H56 C51 0.930 . S
N57 Cu46 1.985 . S
N57 C59 1.336 1_556 S
N57 C60 1.390 . S
N58 C59 1.345 1_556 S
N58 C61 1.336 . S
C59 N57 1.336 1_554 S
C59 N58 1.345 1_554 S
C59 H64 0.929 . S
C60 N57 1.390 . S
C60 C61 1.346 . S
C60 H65 0.930 . S
C61 N58 1.336 . S
C61 C60 1.346 . S
C61 H68 0.929 . S
C62 O52 1.282 . S
C62 O63 1.216 . S
O63 C62 1.216 . S
H64 C59 0.929 . S
H65 C60 0.930 . S
O66 Cu46 1.959 1_554 S
O66 C53 1.251 . S
H67 C50 0.930 . S
H68 C61 0.929 . S
Cu69 N70 2.002 . S
Cu69 O75 1.974 . S
Cu69 N80 1.985 . S
Cu69 O89 1.959 1_556 S
N70 Cu69 2.002 . S
N70 C72 1.270 . S
N70 C74 1.379 1_556 S
N71 C72 1.358 1_655 S
N71 C73 1.400 1_556 S
C72 N70 1.270 . S
C72 N71 1.358 1_455 S
C72 H78 0.930 . S
C73 N71 1.400 1_554 S
C73 C74 1.351 1_655 S
C73 H90 0.930 . S
C74 N70 1.379 1_554 S
C74 C73 1.351 1_455 S
C74 H79 0.930 . S
O75 Cu69 1.974 . S
O75 C85 1.282 . S
C76 O77 1.261 . S
C76 O89 1.251 . S
O77 C76 1.261 . S
H78 C72 0.930 . S
H79 C74 0.930 . S
N80 Cu69 1.985 . S
N80 C82 1.336 1_556 S
N80 C83 1.390 . S
N81 C82 1.345 1_556 S
N81 C84 1.336 . S
C82 N80 1.336 1_554 S
C82 N81 1.345 1_554 S
C82 H87 0.929 . S
C83 N80 1.390 . S
C83 C84 1.346 . S
C83 H88 0.930 . S
C84 N81 1.336 . S
C84 C83 1.346 . S
C84 H91 0.929 . S
C85 O75 1.282 . S
C85 O86 1.216 . S
O86 C85 1.216 . S
H87 C82 0.929 . S
H88 C83 0.930 . S
O89 Cu69 1.959 1_554 S
O89 C76 1.251 . S
H90 C73 0.930 . S
H91 C84 0.929 . S
Cu92 N93 1.999 . S
Cu92 O98 1.974 . S
Cu92 N103 1.985 . S
Cu92 O112 1.959 . S
N93 Cu92 1.999 . S
N93 C95 1.263 . S
N93 C97 1.389 . S
N94 C95 1.358 . S
N94 C96 1.400 . S
C95 N93 1.263 . S
C95 N94 1.358 . S
C95 H101 0.930 . S
C96 N94 1.400 . S
C96 C97 1.351 . S
C96 H113 0.930 . S
C97 N93 1.389 . S
C97 C96 1.351 . S
C97 H102 0.930 . S
O98 Cu92 1.974 . S
O98 C108 1.282 . S
C99 O100 1.261 . S
C99 O112 1.251 . S
O100 C99 1.261 . S
H101 C95 0.930 . S
H102 C97 0.930 . S
N103 Cu92 1.985 . S
N103 C105 1.335 . S
N103 C106 1.390 . S
N104 C105 1.345 . S
N104 C107 1.336 . S
C105 N103 1.335 . S
C105 N104 1.345 . S
C105 H110 0.930 . S
C106 N103 1.390 . S
C106 C107 1.346 . S
C106 H111 0.930 . S
C107 N104 1.336 . S
C107 C106 1.346 . S
C107 H114 0.929 . S
C108 O98 1.282 . S
C108 O109 1.216 . S
O109 C108 1.216 . S
H110 C105 0.930 . S
H111 C106 0.930 . S
O112 Cu92 1.959 . S
O112 C99 1.251 . S
H113 C96 0.930 . S
H114 C107 0.929 . S
Cu115 N116 1.999 . S
Cu115 O121 1.974 . S
Cu115 N126 1.985 . S
Cu115 O135 1.959 . S
N116 Cu115 1.999 . S
N116 C118 1.263 . S
N116 C120 1.389 . S
N117 C118 1.358 1_455 S
N117 C119 1.400 . S
C118 N116 1.263 . S
C118 N117 1.358 1_655 S
C118 H124 0.930 . S
C119 N117 1.400 . S
C119 C120 1.351 1_455 S
C119 H136 0.930 . S
C120 N116 1.389 . S
C120 C119 1.351 1_655 S
C120 H125 0.930 . S
O121 Cu115 1.974 . S
O121 C131 1.282 . S
C122 O123 1.261 . S
C122 O135 1.251 . S
O123 C122 1.261 . S
H124 C118 0.930 . S
H125 C120 0.930 . S
N126 Cu115 1.985 . S
N126 C128 1.335 . S
N126 C129 1.390 . S
N127 C128 1.345 . S
N127 C130 1.336 . S
C128 N126 1.335 . S
C128 N127 1.345 . S
C128 H133 0.930 . S
C129 N126 1.390 . S
C129 C130 1.346 . S
C129 H134 0.930 . S
C130 N127 1.336 . S
C130 C129 1.346 . S
C130 H137 0.929 . S
C131 O121 1.282 . S
C131 O132 1.216 . S
O132 C131 1.216 . S
H133 C128 0.930 . S
H134 C129 0.930 . S
O135 Cu115 1.959 . S
O135 C122 1.251 . S
H136 C119 0.930 . S
H137 C130 0.929 . S
Cu138 N139 2.002 . S
Cu138 O144 1.974 . S
Cu138 N149 1.985 . S
Cu138 O158 1.959 1_554 S
N139 Cu138 2.002 . S
N139 C141 1.270 . S
N139 C143 1.379 1_554 S
N140 C141 1.358 . S
N140 C142 1.400 1_554 S
C141 N139 1.270 . S
C141 N140 1.358 . S
C141 H147 0.930 . S
C142 N140 1.400 1_556 S
C142 C143 1.351 . S
C142 H159 0.930 . S
C143 N139 1.379 1_556 S
C143 C142 1.351 . S
C143 H148 0.930 . S
O144 Cu138 1.974 . S
O144 C154 1.282 . S
C145 O146 1.261 . S
C145 O158 1.251 . S
O146 C145 1.261 . S
H147 C141 0.930 . S
H148 C143 0.930 . S
N149 Cu138 1.985 . S
N149 C151 1.336 1_554 S
N149 C152 1.390 . S
N150 C151 1.345 1_554 S
N150 C153 1.336 . S
C151 N149 1.336 1_556 S
C151 N150 1.345 1_556 S
C151 H156 0.929 . S
C152 N149 1.390 . S
C152 C153 1.346 . S
C152 H157 0.930 . S
C153 N150 1.336 . S
C153 C152 1.346 . S
C153 H160 0.929 . S
C154 O144 1.282 . S
C154 O155 1.216 . S
O155 C154 1.216 . S
H156 C151 0.929 . S
H157 C152 0.930 . S
O158 Cu138 1.959 1_556 S
O158 C145 1.251 . S
H159 C142 0.930 . S
H160 C153 0.929 . S
Cu161 N162 2.002 . S
Cu161 O167 1.974 . S
Cu161 N172 1.985 . S
Cu161 O181 1.959 1_554 S
N162 Cu161 2.002 . S
N162 C164 1.270 . S
N162 C166 1.379 1_554 S
N163 C164 1.358 1_455 S
N163 C165 1.400 1_554 S
C164 N162 1.270 . S
C164 N163 1.358 1_655 S
C164 H170 0.930 . S
C165 N163 1.400 1_556 S
C165 C166 1.351 1_455 S
C165 H182 0.930 . S
C166 N162 1.379 1_556 S
C166 C165 1.351 1_655 S
C166 H171 0.930 . S
O167 Cu161 1.974 . S
O167 C177 1.282 . S
C168 O169 1.261 . S
C168 O181 1.251 . S
O169 C168 1.261 . S
H170 C164 0.930 . S
H171 C166 0.930 . S
N172 Cu161 1.985 . S
N172 C174 1.336 1_554 S
N172 C175 1.390 . S
N173 C174 1.345 1_554 S
N173 C176 1.336 . S
C174 N172 1.336 1_556 S
C174 N173 1.345 1_556 S
C174 H179 0.929 . S
C175 N172 1.390 . S
C175 C176 1.346 . S
C175 H180 0.930 . S
C176 N173 1.336 . S
C176 C175 1.346 . S
C176 H183 0.929 . S
C177 O167 1.282 . S
C177 O178 1.216 . S
O178 C177 1.216 . S
H179 C174 0.929 . S
H180 C175 0.930 . S
O181 Cu161 1.959 1_556 S
O181 C168 1.251 . S
H182 C165 0.930 . S
H183 C176 0.929 . S
Cu184 N185 1.999 . S
Cu184 O190 1.974 . S
Cu184 N195 1.985 . S
Cu184 O204 1.959 . S
N185 Cu184 1.999 . S
N185 C187 1.263 . S
N185 C189 1.389 . S
N186 C187 1.358 . S
N186 C188 1.400 . S
C187 N185 1.263 . S
C187 N186 1.358 . S
C187 H193 0.930 . S
C188 N186 1.400 . S
C188 C189 1.351 . S
C188 H205 0.930 . S
C189 N185 1.389 . S
C189 C188 1.351 . S
C189 H194 0.930 . S
O190 Cu184 1.974 . S
O190 C200 1.282 . S
C191 O192 1.261 . S
C191 O204 1.251 . S
O192 C191 1.261 . S
H193 C187 0.930 . S
H194 C189 0.930 . S
N195 Cu184 1.985 . S
N195 C197 1.335 . S
N195 C198 1.390 . S
N196 C197 1.345 . S
N196 C199 1.336 . S
C197 N195 1.335 . S
C197 N196 1.345 . S
C197 H202 0.930 . S
C198 N195 1.390 . S
C198 C199 1.346 . S
C198 H203 0.930 . S
C199 N196 1.336 . S
C199 C198 1.346 . S
C199 H206 0.929 . S
C200 O190 1.282 . S
C200 O201 1.216 . S
O201 C200 1.216 . S
H202 C197 0.930 . S
H203 C198 0.930 . S
O204 Cu184 1.959 . S
O204 C191 1.251 . S
H205 C188 0.930 . S
H206 C199 0.929 . S
Cu207 N208 1.999 . S
Cu207 O213 1.974 . S
Cu207 N218 1.985 . S
Cu207 O227 1.959 . S
N208 Cu207 1.999 . S
N208 C210 1.263 . S
N208 C212 1.389 . S
N209 C210 1.358 1_655 S
N209 C211 1.400 . S
C210 N208 1.263 . S
C210 N209 1.358 1_455 S
C210 H216 0.930 . S
C211 N209 1.400 . S
C211 C212 1.351 1_655 S
C211 H228 0.930 . S
C212 N208 1.389 . S
C212 C211 1.351 1_455 S
C212 H217 0.930 . S
O213 Cu207 1.974 . S
O213 C223 1.282 . S
C214 O215 1.261 . S
C214 O227 1.251 . S
O215 C214 1.261 . S
H216 C210 0.930 . S
H217 C212 0.930 . S
N218 Cu207 1.985 . S
N218 C220 1.335 . S
N218 C221 1.390 . S
N219 C220 1.345 . S
N219 C222 1.336 . S
C220 N218 1.335 . S
C220 N219 1.345 . S
C220 H225 0.930 . S
C221 N218 1.390 . S
C221 C222 1.346 . S
C221 H226 0.930 . S
C222 N219 1.336 . S
C222 C221 1.346 . S
C222 H229 0.929 . S
C223 O213 1.282 . S
C223 O224 1.216 . S
O224 C223 1.216 . S
H225 C220 0.930 . S
H226 C221 0.930 . S
O227 Cu207 1.959 . S
O227 C214 1.251 . S
H228 C211 0.930 . S
H229 C222 0.929 . S
Cu230 N231 1.999 . S
Cu230 O236 1.974 . S
Cu230 N241 1.985 . S
Cu230 O250 1.959 . S
N231 Cu230 1.999 . S
N231 C233 1.263 . S
N231 C235 1.389 . S
N232 C233 1.358 . S
N232 C234 1.400 . S
C233 N231 1.263 . S
C233 N232 1.358 . S
C233 H239 0.930 . S
C234 N232 1.400 . S
C234 C235 1.351 . S
C234 H251 0.930 . S
C235 N231 1.389 . S
C235 C234 1.351 . S
C235 H240 0.930 . S
O236 Cu230 1.974 . S
O236 C246 1.282 . S
C237 O238 1.261 . S
C237 O250 1.251 . S
O238 C237 1.261 . S
H239 C233 0.930 . S
H240 C235 0.930 . S
N241 Cu230 1.985 . S
N241 C243 1.335 . S
N241 C244 1.390 . S
N242 C243 1.345 . S
N242 C245 1.336 . S
C243 N241 1.335 . S
C243 N242 1.345 . S
C243 H248 0.930 . S
C244 N241 1.390 . S
C244 C245 1.346 . S
C244 H249 0.930 . S
C245 N242 1.336 . S
C245 C244 1.346 . S
C245 H252 0.929 . S
C246 O236 1.282 . S
C246 O247 1.216 . S
O247 C246 1.216 . S
H248 C243 0.930 . S
H249 C244 0.930 . S
O250 Cu230 1.959 . S
O250 C237 1.251 . S
H251 C234 0.930 . S
H252 C245 0.929 . S
Cu253 N254 1.999 . S
Cu253 O259 1.974 . S
Cu253 N264 1.985 . S
Cu253 O273 1.959 . S
N254 Cu253 1.999 . S
N254 C256 1.263 . S
N254 C258 1.389 . S
N255 C256 1.358 1_655 S
N255 C257 1.400 . S
C256 N254 1.263 . S
C256 N255 1.358 1_455 S
C256 H262 0.930 . S
C257 N255 1.400 . S
C257 C258 1.351 1_655 S
C257 H274 0.930 . S
C258 N254 1.389 . S
C258 C257 1.351 1_455 S
C258 H263 0.930 . S
O259 Cu253 1.974 . S
O259 C269 1.282 . S
C260 O261 1.261 . S
C260 O273 1.251 . S
O261 C260 1.261 . S
H262 C256 0.930 . S
H263 C258 0.930 . S
N264 Cu253 1.985 . S
N264 C266 1.335 . S
N264 C267 1.390 . S
N265 C266 1.345 . S
N265 C268 1.336 . S
C266 N264 1.335 . S
C266 N265 1.345 . S
C266 H271 0.930 . S
C267 N264 1.390 . S
C267 C268 1.346 . S
C267 H272 0.930 . S
C268 N265 1.336 . S
C268 C267 1.346 . S
C268 H275 0.929 . S
C269 O259 1.282 . S
C269 O270 1.216 . S
O270 C269 1.216 . S
H271 C266 0.930 . S
H272 C267 0.930 . S
O273 Cu253 1.959 . S
O273 C260 1.251 . S
H274 C257 0.930 . S
H275 C268 0.929 . S
Cu276 N277 1.999 . S
Cu276 O282 1.974 . S
Cu276 N287 1.985 . S
Cu276 O296 1.959 . S
N277 Cu276 1.999 . S
N277 C279 1.263 . S
N277 C281 1.389 . S
N278 C279 1.358 . S
N278 C280 1.400 . S
C279 N277 1.263 . S
C279 N278 1.358 . S
C279 H285 0.930 . S
C280 N278 1.400 . S
C280 C281 1.351 . S
C280 H297 0.930 . S
C281 N277 1.389 . S
C281 C280 1.351 . S
C281 H286 0.930 . S
O282 Cu276 1.974 . S
O282 C292 1.282 . S
C283 O284 1.261 . S
C283 O296 1.251 . S
O284 C283 1.261 . S
H285 C279 0.930 . S
H286 C281 0.930 . S
N287 Cu276 1.985 . S
N287 C289 1.335 . S
N287 C290 1.390 . S
N288 C289 1.345 . S
N288 C291 1.336 . S
C289 N287 1.335 . S
C289 N288 1.345 . S
C289 H294 0.930 . S
C290 N287 1.390 . S
C290 C291 1.346 . S
C290 H295 0.930 . S
C291 N288 1.336 . S
C291 C290 1.346 . S
C291 H298 0.929 . S
C292 O282 1.282 . S
C292 O293 1.216 . S
O293 C292 1.216 . S
H294 C289 0.930 . S
H295 C290 0.930 . S
O296 Cu276 1.959 . S
O296 C283 1.251 . S
H297 C280 0.930 . S
H298 C291 0.929 . S
Cu299 N300 1.999 . S
Cu299 O305 1.974 . S
Cu299 N310 1.985 . S
Cu299 O319 1.959 . S
N300 Cu299 1.999 . S
N300 C302 1.263 . S
N300 C304 1.389 . S
N301 C302 1.358 1_455 S
N301 C303 1.400 . S
C302 N300 1.263 . S
C302 N301 1.358 1_655 S
C302 H308 0.930 . S
C303 N301 1.400 . S
C303 C304 1.351 1_455 S
C303 H320 0.930 . S
C304 N300 1.389 . S
C304 C303 1.351 1_655 S
C304 H309 0.930 . S
O305 Cu299 1.974 . S
O305 C315 1.282 . S
C306 O307 1.261 . S
C306 O319 1.251 . S
O307 C306 1.261 . S
H308 C302 0.930 . S
H309 C304 0.930 . S
N310 Cu299 1.985 . S
N310 C312 1.335 . S
N310 C313 1.390 . S
N311 C312 1.345 . S
N311 C314 1.336 . S
C312 N310 1.335 . S
C312 N311 1.345 . S
C312 H317 0.930 . S
C313 N310 1.390 . S
C313 C314 1.346 . S
C313 H318 0.930 . S
C314 N311 1.336 . S
C314 C313 1.346 . S
C314 H321 0.929 . S
C315 O305 1.282 . S
C315 O316 1.216 . S
O316 C315 1.216 . S
H317 C312 0.930 . S
H318 C313 0.930 . S
O319 Cu299 1.959 . S
O319 C306 1.251 . S
H320 C303 0.930 . S
H321 C314 0.929 . S
Cu322 N323 1.999 . S
Cu322 O328 1.974 . S
Cu322 N333 1.985 . S
Cu322 O342 1.959 . S
N323 Cu322 1.999 . S
N323 C325 1.263 . S
N323 C327 1.389 . S
N324 C325 1.358 . S
N324 C326 1.400 . S
C325 N323 1.263 . S
C325 N324 1.358 . S
C325 H331 0.930 . S
C326 N324 1.400 . S
C326 C327 1.351 . S
C326 H343 0.930 . S
C327 N323 1.389 . S
C327 C326 1.351 . S
C327 H332 0.930 . S
O328 Cu322 1.974 . S
O328 C338 1.282 . S
C329 O330 1.261 . S
C329 O342 1.251 . S
O330 C329 1.261 . S
H331 C325 0.930 . S
H332 C327 0.930 . S
N333 Cu322 1.985 . S
N333 C335 1.335 . S
N333 C336 1.390 . S
N334 C335 1.345 . S
N334 C337 1.336 . S
C335 N333 1.335 . S
C335 N334 1.345 . S
C335 H340 0.930 . S
C336 N333 1.390 . S
C336 C337 1.346 . S
C336 H341 0.930 . S
C337 N334 1.336 . S
C337 C336 1.346 . S
C337 H344 0.929 . S
C338 O328 1.282 . S
C338 O339 1.216 . S
O339 C338 1.216 . S
H340 C335 0.930 . S
H341 C336 0.930 . S
O342 Cu322 1.959 . S
O342 C329 1.251 . S
H343 C326 0.930 . S
H344 C337 0.929 . S
Cu345 N346 1.999 . S
Cu345 O351 1.974 . S
Cu345 N356 1.985 . S
Cu345 O365 1.959 . S
N346 Cu345 1.999 . S
N346 C348 1.263 . S
N346 C350 1.389 . S
N347 C348 1.358 1_455 S
N347 C349 1.400 . S
C348 N346 1.263 . S
C348 N347 1.358 1_655 S
C348 H354 0.930 . S
C349 N347 1.400 . S
C349 C350 1.351 1_455 S
C349 H366 0.930 . S
C350 N346 1.389 . S
C350 C349 1.351 1_655 S
C350 H355 0.930 . S
O351 Cu345 1.974 . S
O351 C361 1.282 . S
C352 O353 1.261 . S
C352 O365 1.251 . S
O353 C352 1.261 . S
H354 C348 0.930 . S
H355 C350 0.930 . S
N356 Cu345 1.985 . S
N356 C358 1.335 . S
N356 C359 1.390 . S
N357 C358 1.345 . S
N357 C360 1.336 . S
C358 N356 1.335 . S
C358 N357 1.345 . S
C358 H363 0.930 . S
C359 N356 1.390 . S
C359 C360 1.346 . S
C359 H364 0.930 . S
C360 N357 1.336 . S
C360 C359 1.346 . S
C360 H367 0.929 . S
C361 O351 1.282 . S
C361 O362 1.216 . S
O362 C361 1.216 . S
H363 C358 0.930 . S
H364 C359 0.930 . S
O365 Cu345 1.959 . S
O365 C352 1.251 . S
H366 C349 0.930 . S
H367 C360 0.929 . S
Cu368 N369 1.999 . S
Cu368 O374 1.974 . S
Cu368 N379 1.985 . S
Cu368 O388 1.959 . S
N369 Cu368 1.999 . S
N369 C371 1.263 . S
N369 C373 1.389 . S
N370 C371 1.358 . S
N370 C372 1.400 . S
C371 N369 1.263 . S
C371 N370 1.358 . S
C371 H377 0.930 . S
C372 N370 1.400 . S
C372 C373 1.351 . S
C372 H389 0.930 . S
C373 N369 1.389 . S
C373 C372 1.351 . S
C373 H378 0.930 . S
O374 Cu368 1.974 . S
O374 C384 1.282 . S
C375 O376 1.261 . S
C375 O388 1.251 . S
O376 C375 1.261 . S
H377 C371 0.930 . S
H378 C373 0.930 . S
N379 Cu368 1.985 . S
N379 C381 1.335 . S
N379 C382 1.390 . S
N380 C381 1.345 . S
N380 C383 1.336 . S
C381 N379 1.335 . S
C381 N380 1.345 . S
C381 H386 0.930 . S
C382 N379 1.390 . S
C382 C383 1.346 . S
C382 H387 0.930 . S
C383 N380 1.336 . S
C383 C382 1.346 . S
C383 H390 0.929 . S
C384 O374 1.282 . S
C384 O385 1.216 . S
O385 C384 1.216 . S
H386 C381 0.930 . S
H387 C382 0.930 . S
O388 Cu368 1.959 . S
O388 C375 1.251 . S
H389 C372 0.930 . S
H390 C383 0.929 . S
Cu391 N392 1.999 . S
Cu391 O397 1.974 . S
Cu391 N402 1.985 . S
Cu391 O411 1.959 . S
N392 Cu391 1.999 . S
N392 C394 1.263 . S
N392 C396 1.389 . S
N393 C394 1.358 . S
N393 C395 1.400 . S
C394 N392 1.263 . S
C394 N393 1.358 . S
C394 H400 0.930 . S
C395 N393 1.400 . S
C395 C396 1.351 . S
C395 H412 0.930 . S
C396 N392 1.389 . S
C396 C395 1.351 . S
C396 H401 0.930 . S
O397 Cu391 1.974 . S
O397 C407 1.282 . S
C398 O399 1.261 . S
C398 O411 1.251 . S
O399 C398 1.261 . S
H400 C394 0.930 . S
H401 C396 0.930 . S
N402 Cu391 1.985 . S
N402 C404 1.335 . S
N402 C405 1.390 . S
N403 C404 1.345 . S
N403 C406 1.336 . S
C404 N402 1.335 . S
C404 N403 1.345 . S
C404 H409 0.930 . S
C405 N402 1.390 . S
C405 C406 1.346 . S
C405 H410 0.930 . S
C406 N403 1.336 . S
C406 C405 1.346 . S
C406 H413 0.929 . S
C407 O397 1.282 . S
C407 O408 1.216 . S
O408 C407 1.216 . S
H409 C404 0.930 . S
H410 C405 0.930 . S
O411 Cu391 1.959 . S
O411 C398 1.251 . S
H412 C395 0.930 . S
H413 C406 0.929 . S
Cu414 N415 1.999 . S
Cu414 O420 1.974 . S
Cu414 N425 1.985 . S
Cu414 O434 1.959 . S
N415 Cu414 1.999 . S
N415 C417 1.263 . S
N415 C419 1.389 . S
N416 C417 1.358 . S
N416 C418 1.400 . S
C417 N415 1.263 . S
C417 N416 1.358 . S
C417 H423 0.930 . S
C418 N416 1.400 . S
C418 C419 1.351 . S
C418 H435 0.930 . S
C419 N415 1.389 . S
C419 C418 1.351 . S
C419 H424 0.930 . S
O420 Cu414 1.974 . S
O420 C430 1.282 . S
C421 O422 1.261 . S
C421 O434 1.251 . S
O422 C421 1.261 . S
H423 C417 0.930 . S
H424 C419 0.930 . S
N425 Cu414 1.985 . S
N425 C427 1.335 . S
N425 C428 1.390 . S
N426 C427 1.345 . S
N426 C429 1.336 . S
C427 N425 1.335 . S
C427 N426 1.345 . S
C427 H432 0.930 . S
C428 N425 1.390 . S
C428 C429 1.346 . S
C428 H433 0.930 . S
C429 N426 1.336 . S
C429 C428 1.346 . S
C429 H436 0.929 . S
C430 O420 1.282 . S
C430 O431 1.216 . S
O431 C430 1.216 . S
H432 C427 0.930 . S
H433 C428 0.930 . S
O434 Cu414 1.959 . S
O434 C421 1.251 . S
H435 C418 0.930 . S
H436 C429 0.929 . S
Cu437 N438 1.999 . S
Cu437 O443 1.974 . S
Cu437 N448 1.985 . S
Cu437 O457 1.959 . S
N438 Cu437 1.999 . S
N438 C440 1.263 . S
N438 C442 1.389 . S
N439 C440 1.358 . S
N439 C441 1.400 . S
C440 N438 1.263 . S
C440 N439 1.358 . S
C440 H446 0.930 . S
C441 N439 1.400 . S
C441 C442 1.351 . S
C441 H458 0.930 . S
C442 N438 1.389 . S
C442 C441 1.351 . S
C442 H447 0.930 . S
O443 Cu437 1.974 . S
O443 C453 1.282 . S
C444 O445 1.261 . S
C444 O457 1.251 . S
O445 C444 1.261 . S
H446 C440 0.930 . S
H447 C442 0.930 . S
N448 Cu437 1.985 . S
N448 C450 1.335 . S
N448 C451 1.390 . S
N449 C450 1.345 . S
N449 C452 1.336 . S
C450 N448 1.335 . S
C450 N449 1.345 . S
C450 H455 0.930 . S
C451 N448 1.390 . S
C451 C452 1.346 . S
C451 H456 0.930 . S
C452 N449 1.336 . S
C452 C451 1.346 . S
C452 H459 0.929 . S
C453 O443 1.282 . S
C453 O454 1.216 . S
O454 C453 1.216 . S
H455 C450 0.930 . S
H456 C451 0.930 . S
O457 Cu437 1.959 . S
O457 C444 1.251 . S
H458 C441 0.930 . S
H459 C452 0.929 . S
Cu460 N461 1.999 . S
Cu460 O466 1.974 . S
Cu460 N471 1.985 . S
Cu460 O480 1.959 . S
N461 Cu460 1.999 . S
N461 C463 1.263 . S
N461 C465 1.389 . S
N462 C463 1.358 . S
N462 C464 1.400 . S
C463 N461 1.263 . S
C463 N462 1.358 . S
C463 H469 0.930 . S
C464 N462 1.400 . S
C464 C465 1.351 . S
C464 H481 0.930 . S
C465 N461 1.389 . S
C465 C464 1.351 . S
C465 H470 0.930 . S
O466 Cu460 1.974 . S
O466 C476 1.282 . S
C467 O468 1.261 . S
C467 O480 1.251 . S
O468 C467 1.261 . S
H469 C463 0.930 . S
H470 C465 0.930 . S
N471 Cu460 1.985 . S
N471 C473 1.335 . S
N471 C474 1.390 . S
N472 C473 1.345 . S
N472 C475 1.336 . S
C473 N471 1.335 . S
C473 N472 1.345 . S
C473 H478 0.930 . S
C474 N471 1.390 . S
C474 C475 1.346 . S
C474 H479 0.930 . S
C475 N472 1.336 . S
C475 C474 1.346 . S
C475 H482 0.929 . S
C476 O466 1.282 . S
C476 O477 1.216 . S
O477 C476 1.216 . S
H478 C473 0.930 . S
H479 C474 0.930 . S
O480 Cu460 1.959 . S
O480 C467 1.251 . S
H481 C464 0.930 . S
H482 C475 0.929 . S
Cu483 N484 1.999 . S
Cu483 O489 1.974 . S
Cu483 N494 1.985 . S
Cu483 O503 1.959 . S
N484 Cu483 1.999 . S
N484 C486 1.263 . S
N484 C488 1.389 . S
N485 C486 1.358 . S
N485 C487 1.400 . S
C486 N484 1.263 . S
C486 N485 1.358 . S
C486 H492 0.930 . S
C487 N485 1.400 . S
C487 C488 1.351 . S
C487 H504 0.930 . S
C488 N484 1.389 . S
C488 C487 1.351 . S
C488 H493 0.930 . S
O489 Cu483 1.974 . S
O489 C499 1.282 . S
C490 O491 1.261 . S
C490 O503 1.251 . S
O491 C490 1.261 . S
H492 C486 0.930 . S
H493 C488 0.930 . S
N494 Cu483 1.985 . S
N494 C496 1.335 . S
N494 C497 1.390 . S
N495 C496 1.345 . S
N495 C498 1.336 . S
C496 N494 1.335 . S
C496 N495 1.345 . S
C496 H501 0.930 . S
C497 N494 1.390 . S
C497 C498 1.346 . S
C497 H502 0.930 . S
C498 N495 1.336 . S
C498 C497 1.346 . S
C498 H505 0.929 . S
C499 O489 1.282 . S
C499 O500 1.216 . S
O500 C499 1.216 . S
H501 C496 0.930 . S
H502 C497 0.930 . S
O503 Cu483 1.959 . S
O503 C490 1.251 . S
H504 C487 0.930 . S
H505 C498 0.929 . S
Cu506 N507 1.999 . S
Cu506 O512 1.974 . S
Cu506 N517 1.985 . S
Cu506 O526 1.959 . S
N507 Cu506 1.999 . S
N507 C509 1.263 . S
N507 C511 1.389 . S
N508 C509 1.358 . S
N508 C510 1.400 . S
C509 N507 1.263 . S
C509 N508 1.358 . S
C509 H515 0.930 . S
C510 N508 1.400 . S
C510 C511 1.351 . S
C510 H527 0.930 . S
C511 N507 1.389 . S
C511 C510 1.351 . S
C511 H516 0.930 . S
O512 Cu506 1.974 . S
O512 C522 1.282 . S
C513 O514 1.261 . S
C513 O526 1.251 . S
O514 C513 1.261 . S
H515 C509 0.930 . S
H516 C511 0.930 . S
N517 Cu506 1.985 . S
N517 C519 1.335 . S
N517 C520 1.390 . S
N518 C519 1.345 . S
N518 C521 1.336 . S
C519 N517 1.335 . S
C519 N518 1.345 . S
C519 H524 0.930 . S
C520 N517 1.390 . S
C520 C521 1.346 . S
C520 H525 0.930 . S
C521 N518 1.336 . S
C521 C520 1.346 . S
C521 H528 0.929 . S
C522 O512 1.282 . S
C522 O523 1.216 . S
O523 C522 1.216 . S
H524 C519 0.930 . S
H525 C520 0.930 . S
O526 Cu506 1.959 . S
O526 C513 1.251 . S
H527 C510 0.930 . S
H528 C521 0.929 . S
Cu529 N530 1.999 . S
Cu529 O535 1.974 . S
Cu529 N540 1.985 . S
Cu529 O549 1.959 . S
N530 Cu529 1.999 . S
N530 C532 1.263 . S
N530 C534 1.389 . S
N531 C532 1.358 . S
N531 C533 1.400 . S
C532 N530 1.263 . S
C532 N531 1.358 . S
C532 H538 0.930 . S
C533 N531 1.400 . S
C533 C534 1.351 . S
C533 H550 0.930 . S
C534 N530 1.389 . S
C534 C533 1.351 . S
C534 H539 0.930 . S
O535 Cu529 1.974 . S
O535 C545 1.282 . S
C536 O537 1.261 . S
C536 O549 1.251 . S
O537 C536 1.261 . S
H538 C532 0.930 . S
H539 C534 0.930 . S
N540 Cu529 1.985 . S
N540 C542 1.335 . S
N540 C543 1.390 . S
N541 C542 1.345 . S
N541 C544 1.336 . S
C542 N540 1.335 . S
C542 N541 1.345 . S
C542 H547 0.930 . S
C543 N540 1.390 . S
C543 C544 1.346 . S
C543 H548 0.930 . S
C544 N541 1.336 . S
C544 C543 1.346 . S
C544 H551 0.929 . S
C545 O535 1.282 . S
C545 O546 1.216 . S
O546 C545 1.216 . S
H547 C542 0.930 . S
H548 C543 0.930 . S
O549 Cu529 1.959 . S
O549 C536 1.251 . S
H550 C533 0.930 . S
H551 C544 0.929 . S
Cu552 N553 1.999 . S
Cu552 O558 1.974 . S
Cu552 N563 1.985 . S
Cu552 O572 1.959 . S
N553 Cu552 1.999 . S
N553 C555 1.263 . S
N553 C557 1.389 . S
N554 C555 1.358 . S
N554 C556 1.400 . S
C555 N553 1.263 . S
C555 N554 1.358 . S
C555 H561 0.930 . S
C556 N554 1.400 . S
C556 C557 1.351 . S
C556 H573 0.930 . S
C557 N553 1.389 . S
C557 C556 1.351 . S
C557 H562 0.930 . S
O558 Cu552 1.974 . S
O558 C568 1.282 . S
C559 O560 1.261 . S
C559 O572 1.251 . S
O560 C559 1.261 . S
H561 C555 0.930 . S
H562 C557 0.930 . S
N563 Cu552 1.985 . S
N563 C565 1.335 . S
N563 C566 1.390 . S
N564 C565 1.345 . S
N564 C567 1.336 . S
C565 N563 1.335 . S
C565 N564 1.345 . S
C565 H570 0.930 . S
C566 N563 1.390 . S
C566 C567 1.346 . S
C566 H571 0.930 . S
C567 N564 1.336 . S
C567 C566 1.346 . S
C567 H574 0.929 . S
C568 O558 1.282 . S
C568 O569 1.216 . S
O569 C568 1.216 . S
H570 C565 0.930 . S
H571 C566 0.930 . S
O572 Cu552 1.959 . S
O572 C559 1.251 . S
H573 C556 0.930 . S
H574 C567 0.929 . S
Cu575 N576 1.999 . S
Cu575 O581 1.974 . S
Cu575 N586 1.985 . S
Cu575 O595 1.959 . S
N576 Cu575 1.999 . S
N576 C578 1.263 . S
N576 C580 1.389 . S
N577 C578 1.358 . S
N577 C579 1.400 . S
C578 N576 1.263 . S
C578 N577 1.358 . S
C578 H584 0.930 . S
C579 N577 1.400 . S
C579 C580 1.351 . S
C579 H596 0.930 . S
C580 N576 1.389 . S
C580 C579 1.351 . S
C580 H585 0.930 . S
O581 Cu575 1.974 . S
O581 C591 1.282 . S
C582 O583 1.261 . S
C582 O595 1.251 . S
O583 C582 1.261 . S
H584 C578 0.930 . S
H585 C580 0.930 . S
N586 Cu575 1.985 . S
N586 C588 1.335 . S
N586 C589 1.390 . S
N587 C588 1.345 . S
N587 C590 1.336 . S
C588 N586 1.335 . S
C588 N587 1.345 . S
C588 H593 0.930 . S
C589 N586 1.390 . S
C589 C590 1.346 . S
C589 H594 0.930 . S
C590 N587 1.336 . S
C590 C589 1.346 . S
C590 H597 0.929 . S
C591 O581 1.282 . S
C591 O592 1.216 . S
O592 C591 1.216 . S
H593 C588 0.930 . S
H594 C589 0.930 . S
O595 Cu575 1.959 . S
O595 C582 1.251 . S
H596 C579 0.930 . S
H597 C590 0.929 . S
Cu598 N599 2.002 . S
Cu598 O604 1.974 . S
Cu598 N609 1.985 . S
Cu598 O618 1.959 1_556 S
N599 Cu598 2.002 . S
N599 C601 1.270 . S
N599 C603 1.379 1_556 S
N600 C601 1.358 . S
N600 C602 1.400 1_556 S
C601 N599 1.270 . S
C601 N600 1.358 . S
C601 H607 0.930 . S
C602 N600 1.400 1_554 S
C602 C603 1.351 . S
C602 H619 0.930 . S
C603 N599 1.379 1_554 S
C603 C602 1.351 . S
C603 H608 0.930 . S
O604 Cu598 1.974 . S
O604 C614 1.282 . S
C605 O606 1.261 . S
C605 O618 1.251 . S
O606 C605 1.261 . S
H607 C601 0.930 . S
H608 C603 0.930 . S
N609 Cu598 1.985 . S
N609 C611 1.336 1_556 S
N609 C612 1.390 . S
N610 C611 1.345 1_556 S
N610 C613 1.336 . S
C611 N609 1.336 1_554 S
C611 N610 1.345 1_554 S
C611 H616 0.929 . S
C612 N609 1.390 . S
C612 C613 1.346 . S
C612 H617 0.930 . S
C613 N610 1.336 . S
C613 C612 1.346 . S
C613 H620 0.929 . S
C614 O604 1.282 . S
C614 O615 1.216 . S
O615 C614 1.216 . S
H616 C611 0.929 . S
H617 C612 0.930 . S
O618 Cu598 1.959 1_554 S
O618 C605 1.251 . S
H619 C602 0.930 . S
H620 C613 0.929 . S
Cu621 N622 2.002 . S
Cu621 O627 1.974 . S
Cu621 N632 1.985 . S
Cu621 O641 1.959 1_556 S
N622 Cu621 2.002 . S
N622 C624 1.270 . S
N622 C626 1.379 1_556 S
N623 C624 1.358 . S
N623 C625 1.400 1_556 S
C624 N622 1.270 . S
C624 N623 1.358 . S
C624 H630 0.930 . S
C625 N623 1.400 1_554 S
C625 C626 1.351 . S
C625 H642 0.930 . S
C626 N622 1.379 1_554 S
C626 C625 1.351 . S
C626 H631 0.930 . S
O627 Cu621 1.974 . S
O627 C637 1.282 . S
C628 O629 1.261 . S
C628 O641 1.251 . S
O629 C628 1.261 . S
H630 C624 0.930 . S
H631 C626 0.930 . S
N632 Cu621 1.985 . S
N632 C634 1.336 1_556 S
N632 C635 1.390 . S
N633 C634 1.345 1_556 S
N633 C636 1.336 . S
C634 N632 1.336 1_554 S
C634 N633 1.345 1_554 S
C634 H639 0.929 . S
C635 N632 1.390 . S
C635 C636 1.346 . S
C635 H640 0.930 . S
C636 N633 1.336 . S
C636 C635 1.346 . S
C636 H643 0.929 . S
C637 O627 1.282 . S
C637 O638 1.216 . S
O638 C637 1.216 . S
H639 C634 0.929 . S
H640 C635 0.930 . S
O641 Cu621 1.959 1_554 S
O641 C628 1.251 . S
H642 C625 0.930 . S
H643 C636 0.929 . S
Cu644 N645 1.999 . S
Cu644 O650 1.974 . S
Cu644 N655 1.985 . S
Cu644 O664 1.959 . S
N645 Cu644 1.999 . S
N645 C647 1.263 . S
N645 C649 1.389 . S
N646 C647 1.358 . S
N646 C648 1.400 . S
C647 N645 1.263 . S
C647 N646 1.358 . S
C647 H653 0.930 . S
C648 N646 1.400 . S
C648 C649 1.351 . S
C648 H665 0.930 . S
C649 N645 1.389 . S
C649 C648 1.351 . S
C649 H654 0.930 . S
O650 Cu644 1.974 . S
O650 C660 1.282 . S
C651 O652 1.261 . S
C651 O664 1.251 . S
O652 C651 1.261 . S
H653 C647 0.930 . S
H654 C649 0.930 . S
N655 Cu644 1.985 . S
N655 C657 1.335 . S
N655 C658 1.390 . S
N656 C657 1.345 . S
N656 C659 1.336 . S
C657 N655 1.335 . S
C657 N656 1.345 . S
C657 H662 0.930 . S
C658 N655 1.390 . S
C658 C659 1.346 . S
C658 H663 0.930 . S
C659 N656 1.336 . S
C659 C658 1.346 . S
C659 H666 0.929 . S
C660 O650 1.282 . S
C660 O661 1.216 . S
O661 C660 1.216 . S
H662 C657 0.930 . S
H663 C658 0.930 . S
O664 Cu644 1.959 . S
O664 C651 1.251 . S
H665 C648 0.930 . S
H666 C659 0.929 . S
Cu667 N668 1.999 . S
Cu667 O673 1.974 . S
Cu667 N678 1.985 . S
Cu667 O687 1.959 . S
N668 Cu667 1.999 . S
N668 C670 1.263 . S
N668 C672 1.389 . S
N669 C670 1.358 . S
N669 C671 1.400 . S
C670 N668 1.263 . S
C670 N669 1.358 . S
C670 H676 0.930 . S
C671 N669 1.400 . S
C671 C672 1.351 . S
C671 H688 0.930 . S
C672 N668 1.389 . S
C672 C671 1.351 . S
C672 H677 0.930 . S
O673 Cu667 1.974 . S
O673 C683 1.282 . S
C674 O675 1.261 . S
C674 O687 1.251 . S
O675 C674 1.261 . S
H676 C670 0.930 . S
H677 C672 0.930 . S
N678 Cu667 1.985 . S
N678 C680 1.335 . S
N678 C681 1.390 . S
N679 C680 1.345 . S
N679 C682 1.336 . S
C680 N678 1.335 . S
C680 N679 1.345 . S
C680 H685 0.930 . S
C681 N678 1.390 . S
C681 C682 1.346 . S
C681 H686 0.930 . S
C682 N679 1.336 . S
C682 C681 1.346 . S
C682 H689 0.929 . S
C683 O673 1.282 . S
C683 O684 1.216 . S
O684 C683 1.216 . S
H685 C680 0.930 . S
H686 C681 0.930 . S
O687 Cu667 1.959 . S
O687 C674 1.251 . S
H688 C671 0.930 . S
H689 C682 0.929 . S
Cu690 N691 2.002 . S
Cu690 O696 1.974 . S
Cu690 N701 1.985 . S
Cu690 O710 1.959 1_554 S
N691 Cu690 2.002 . S
N691 C693 1.270 . S
N691 C695 1.379 1_554 S
N692 C693 1.358 . S
N692 C694 1.400 1_554 S
C693 N691 1.270 . S
C693 N692 1.358 . S
C693 H699 0.930 . S
C694 N692 1.400 1_556 S
C694 C695 1.351 . S
C694 H711 0.930 . S
C695 N691 1.379 1_556 S
C695 C694 1.351 . S
C695 H700 0.930 . S
O696 Cu690 1.974 . S
O696 C706 1.282 . S
C697 O698 1.261 . S
C697 O710 1.251 . S
O698 C697 1.261 . S
H699 C693 0.930 . S
H700 C695 0.930 . S
N701 Cu690 1.985 . S
N701 C703 1.336 1_554 S
N701 C704 1.390 . S
N702 C703 1.345 1_554 S
N702 C705 1.336 . S
C703 N701 1.336 1_556 S
C703 N702 1.345 1_556 S
C703 H708 0.929 . S
C704 N701 1.390 . S
C704 C705 1.346 . S
C704 H709 0.930 . S
C705 N702 1.336 . S
C705 C704 1.346 . S
C705 H712 0.929 . S
C706 O696 1.282 . S
C706 O707 1.216 . S
O707 C706 1.216 . S
H708 C703 0.929 . S
H709 C704 0.930 . S
O710 Cu690 1.959 1_556 S
O710 C697 1.251 . S
H711 C694 0.930 . S
H712 C705 0.929 . S
Cu713 N714 2.002 . S
Cu713 O719 1.974 . S
Cu713 N724 1.985 . S
Cu713 O733 1.959 1_554 S
N714 Cu713 2.002 . S
N714 C716 1.270 . S
N714 C718 1.379 1_554 S
N715 C716 1.358 . S
N715 C717 1.400 1_554 S
C716 N714 1.270 . S
C716 N715 1.358 . S
C716 H722 0.930 . S
C717 N715 1.400 1_556 S
C717 C718 1.351 . S
C717 H734 0.930 . S
C718 N714 1.379 1_556 S
C718 C717 1.351 . S
C718 H723 0.930 . S
O719 Cu713 1.974 . S
O719 C729 1.282 . S
C720 O721 1.261 . S
C720 O733 1.251 . S
O721 C720 1.261 . S
H722 C716 0.930 . S
H723 C718 0.930 . S
N724 Cu713 1.985 . S
N724 C726 1.336 1_554 S
N724 C727 1.390 . S
N725 C726 1.345 1_554 S
N725 C728 1.336 . S
C726 N724 1.336 1_556 S
C726 N725 1.345 1_556 S
C726 H731 0.929 . S
C727 N724 1.390 . S
C727 C728 1.346 . S
C727 H732 0.930 . S
C728 N725 1.336 . S
C728 C727 1.346 . S
C728 H735 0.929 . S
C729 O719 1.282 . S
C729 O730 1.216 . S
O730 C729 1.216 . S
H731 C726 0.929 . S
H732 C727 0.930 . S
O733 Cu713 1.959 1_556 S
O733 C720 1.251 . S
H734 C717 0.930 . S
H735 C728 0.929 . S
C736 C737 1.349 . S
C736 C738 1.327 . S
C736 H761 0.950 . S
C737 C736 1.349 . S
C737 C753 1.349 . S
C738 C736 1.327 . S
C738 C757 1.429 . S
C738 H762 0.950 . S
C739 C756 1.574 . S
C739 C758 1.368 . S
C739 H763 0.949 . S
H740 C744 0.949 . S
C741 C742 1.349 . S
C741 C743 1.327 . S
C741 H764 0.950 . S
C742 C741 1.349 . S
C742 C754 1.349 . S
C743 C741 1.327 . S
C743 C759 1.429 . S
C743 H765 0.950 . S
C744 H740 0.949 . S
C744 C752 1.574 . S
C744 C760 1.368 . S
H745 C753 0.950 . S
H746 C751 0.950 . S
H747 C752 0.949 . S
H748 C754 0.950 . S
H749 C755 0.950 . S
H750 C756 0.949 . S
C751 H746 0.950 . S
C751 C753 1.327 . S
C751 C757 1.429 . S
C752 C744 1.574 . S
C752 H747 0.949 . S
C752 C758 1.368 . S
C753 C737 1.349 . S
C753 H745 0.950 . S
C753 C751 1.327 . S
C754 C742 1.349 . S
C754 H748 0.950 . S
C754 C755 1.327 . S
C755 H749 0.950 . S
C755 C754 1.327 . S
C755 C759 1.429 . S
C756 C739 1.574 . S
C756 H750 0.949 . S
C756 C760 1.368 . S
C757 C738 1.429 . S
C757 C751 1.429 . S
C757 C758 1.523 . S
C758 C739 1.368 . S
C758 C752 1.368 . S
C758 C757 1.523 . S
C759 C743 1.429 . S
C759 C755 1.429 . S
C759 C760 1.523 . S
C760 C744 1.368 . S
C760 C756 1.368 . S
C760 C759 1.523 . S
H761 C736 0.950 . S
H762 C738 0.950 . S
H763 C739 0.949 . S
H764 C741 0.950 . S
H765 C743 0.950 . S
C766 C767 1.349 . S
C766 C768 1.327 . S
C766 H791 0.950 . S
C767 C766 1.349 . S
C767 C783 1.349 . S
C768 C766 1.327 . S
C768 C787 1.429 . S
C768 H792 0.950 . S
C769 C786 1.574 . S
C769 C788 1.368 . S
C769 H793 0.949 . S
H770 C774 0.949 . S
C771 C772 1.349 . S
C771 C773 1.327 . S
C771 H794 0.950 . S
C772 C771 1.349 . S
C772 C784 1.349 . S
C773 C771 1.327 . S
C773 C789 1.429 . S
C773 H795 0.950 . S
C774 H770 0.949 . S
C774 C782 1.574 . S
C774 C790 1.368 . S
H775 C783 0.950 . S
H776 C781 0.950 . S
H777 C782 0.949 . S
H778 C784 0.950 . S
H779 C785 0.950 . S
H780 C786 0.949 . S
C781 H776 0.950 . S
C781 C783 1.327 . S
C781 C787 1.429 . S
C782 C774 1.574 . S
C782 H777 0.949 . S
C782 C788 1.368 . S
C783 C767 1.349 . S
C783 H775 0.950 . S
C783 C781 1.327 . S
C784 C772 1.349 . S
C784 H778 0.950 . S
C784 C785 1.327 . S
C785 H779 0.950 . S
C785 C784 1.327 . S
C785 C789 1.429 . S
C786 C769 1.574 . S
C786 H780 0.949 . S
C786 C790 1.368 . S
C787 C768 1.429 . S
C787 C781 1.429 . S
C787 C788 1.523 . S
C788 C769 1.368 . S
C788 C782 1.368 . S
C788 C787 1.523 . S
C789 C773 1.429 . S
C789 C785 1.429 . S
C789 C790 1.523 . S
C790 C774 1.368 . S
C790 C786 1.368 . S
C790 C789 1.523 . S
H791 C766 0.950 . S
H792 C768 0.950 . S
H793 C769 0.949 . S
H794 C771 0.950 . S
H795 C773 0.950 . S
C796 C797 1.349 . S
C796 C798 1.327 . S
C796 H821 0.950 . S
C797 C796 1.349 . S
C797 C813 1.349 . S
C798 C796 1.327 . S
C798 C817 1.429 . S
C798 H822 0.950 . S
C799 C816 1.574 . S
C799 C818 1.368 . S
C799 H823 0.949 . S
H800 C804 0.949 . S
C801 C802 1.349 . S
C801 C803 1.327 . S
C801 H824 0.950 . S
C802 C801 1.349 . S
C802 C814 1.349 . S
C803 C801 1.327 . S
C803 C819 1.429 . S
C803 H825 0.950 . S
C804 H800 0.949 . S
C804 C812 1.574 . S
C804 C820 1.368 . S
H805 C813 0.950 . S
H806 C811 0.950 . S
H807 C812 0.949 . S
H808 C814 0.950 . S
H809 C815 0.950 . S
H810 C816 0.949 . S
C811 H806 0.950 . S
C811 C813 1.327 . S
C811 C817 1.429 . S
C812 C804 1.574 . S
C812 H807 0.949 . S
C812 C818 1.368 . S
C813 C797 1.349 . S
C813 H805 0.950 . S
C813 C811 1.327 . S
C814 C802 1.349 . S
C814 H808 0.950 . S
C814 C815 1.327 . S
C815 H809 0.950 . S
C815 C814 1.327 . S
C815 C819 1.429 . S
C816 C799 1.574 . S
C816 H810 0.949 . S
C816 C820 1.368 . S
C817 C798 1.429 . S
C817 C811 1.429 . S
C817 C818 1.523 . S
C818 C799 1.368 . S
C818 C812 1.368 . S
C818 C817 1.523 . S
C819 C803 1.429 . S
C819 C815 1.429 . S
C819 C820 1.523 . S
C820 C804 1.368 . S
C820 C816 1.368 . S
C820 C819 1.523 . S
H821 C796 0.950 . S
H822 C798 0.950 . S
H823 C799 0.949 . S
H824 C801 0.950 . S
H825 C803 0.950 . S
C826 C827 1.349 . S
C826 C828 1.327 . S
C826 H851 0.950 . S
C827 C826 1.349 . S
C827 C843 1.349 . S
C828 C826 1.327 . S
C828 C847 1.429 . S
C828 H852 0.950 . S
C829 C846 1.574 . S
C829 C848 1.368 . S
C829 H853 0.949 . S
H830 C834 0.949 . S
C831 C832 1.349 . S
C831 C833 1.327 . S
C831 H854 0.950 . S
C832 C831 1.349 . S
C832 C844 1.349 . S
C833 C831 1.327 . S
C833 C849 1.429 . S
C833 H855 0.950 . S
C834 H830 0.949 . S
C834 C842 1.574 . S
C834 C850 1.368 . S
H835 C843 0.950 . S
H836 C841 0.950 . S
H837 C842 0.949 . S
H838 C844 0.950 . S
H839 C845 0.950 . S
H840 C846 0.949 . S
C841 H836 0.950 . S
C841 C843 1.327 . S
C841 C847 1.429 . S
C842 C834 1.574 . S
C842 H837 0.949 . S
C842 C848 1.368 . S
C843 C827 1.349 . S
C843 H835 0.950 . S
C843 C841 1.327 . S
C844 C832 1.349 . S
C844 H838 0.950 . S
C844 C845 1.327 . S
C845 H839 0.950 . S
C845 C844 1.327 . S
C845 C849 1.429 . S
C846 C829 1.574 . S
C846 H840 0.949 . S
C846 C850 1.368 . S
C847 C828 1.429 . S
C847 C841 1.429 . S
C847 C848 1.523 . S
C848 C829 1.368 . S
C848 C842 1.368 . S
C848 C847 1.523 . S
C849 C833 1.429 . S
C849 C845 1.429 . S
C849 C850 1.523 . S
C850 C834 1.368 . S
C850 C846 1.368 . S
C850 C849 1.523 . S
H851 C826 0.950 . S
H852 C828 0.950 . S
H853 C829 0.949 . S
H854 C831 0.950 . S
H855 C833 0.950 . S
C856 C857 1.349 . S
C856 C858 1.327 . S
C856 H881 0.950 . S
C857 C856 1.349 . S
C857 C873 1.349 . S
C858 C856 1.327 . S
C858 C877 1.429 . S
C858 H882 0.950 . S
C859 C876 1.574 . S
C859 C878 1.368 . S
C859 H883 0.949 . S
H860 C864 0.949 . S
C861 C862 1.349 . S
C861 C863 1.327 . S
C861 H884 0.950 . S
C862 C861 1.349 . S
C862 C874 1.349 . S
C863 C861 1.327 . S
C863 C879 1.429 . S
C863 H885 0.950 . S
C864 H860 0.949 . S
C864 C872 1.574 . S
C864 C880 1.368 . S
H865 C873 0.950 . S
H866 C871 0.950 . S
H867 C872 0.949 . S
H868 C874 0.950 . S
H869 C875 0.950 . S
H870 C876 0.949 . S
C871 H866 0.950 . S
C871 C873 1.327 . S
C871 C877 1.429 . S
C872 C864 1.574 . S
C872 H867 0.949 . S
C872 C878 1.368 . S
C873 C857 1.349 . S
C873 H865 0.950 . S
C873 C871 1.327 . S
C874 C862 1.349 . S
C874 H868 0.950 . S
C874 C875 1.327 . S
C875 H869 0.950 . S
C875 C874 1.327 . S
C875 C879 1.429 . S
C876 C859 1.574 . S
C876 H870 0.949 . S
C876 C880 1.368 . S
C877 C858 1.429 . S
C877 C871 1.429 . S
C877 C878 1.523 . S
C878 C859 1.368 . S
C878 C872 1.368 . S
C878 C877 1.523 . S
C879 C863 1.429 . S
C879 C875 1.429 . S
C879 C880 1.523 . S
C880 C864 1.368 . S
C880 C876 1.368 . S
C880 C879 1.523 . S
H881 C856 0.950 . S
H882 C858 0.950 . S
H883 C859 0.949 . S
H884 C861 0.950 . S
H885 C863 0.950 . S
C886 C887 1.349 . S
C886 C888 1.327 . S
C886 H911 0.950 . S
C887 C886 1.349 . S
C887 C903 1.349 . S
C888 C886 1.327 . S
C888 C907 1.429 . S
C888 H912 0.950 . S
C889 C906 1.574 . S
C889 C908 1.368 . S
C889 H913 0.949 . S
H890 C894 0.949 . S
C891 C892 1.349 . S
C891 C893 1.327 . S
C891 H914 0.950 . S
C892 C891 1.349 . S
C892 C904 1.349 . S
C893 C891 1.327 . S
C893 C909 1.429 . S
C893 H915 0.950 . S
C894 H890 0.949 . S
C894 C902 1.574 . S
C894 C910 1.368 . S
H895 C903 0.950 . S
H896 C901 0.950 . S
H897 C902 0.949 . S
H898 C904 0.950 . S
H899 C905 0.950 . S
H900 C906 0.949 . S
C901 H896 0.950 . S
C901 C903 1.327 . S
C901 C907 1.429 . S
C902 C894 1.574 . S
C902 H897 0.949 . S
C902 C908 1.368 . S
C903 C887 1.349 . S
C903 H895 0.950 . S
C903 C901 1.327 . S
C904 C892 1.349 . S
C904 H898 0.950 . S
C904 C905 1.327 . S
C905 H899 0.950 . S
C905 C904 1.327 . S
C905 C909 1.429 . S
C906 C889 1.574 . S
C906 H900 0.949 . S
C906 C910 1.368 . S
C907 C888 1.429 . S
C907 C901 1.429 . S
C907 C908 1.523 . S
C908 C889 1.368 . S
C908 C902 1.368 . S
C908 C907 1.523 . S
C909 C893 1.429 . S
C909 C905 1.429 . S
C909 C910 1.523 . S
C910 C894 1.368 . S
C910 C906 1.368 . S
C910 C909 1.523 . S
H911 C886 0.950 . S
H912 C888 0.950 . S
H913 C889 0.949 . S
H914 C891 0.950 . S
H915 C893 0.950 . S
C916 C917 1.349 . S
C916 C918 1.327 . S
C916 H941 0.950 . S
C917 C916 1.349 . S
C917 C933 1.349 . S
C918 C916 1.327 . S
C918 C937 1.429 . S
C918 H942 0.950 . S
C919 C936 1.574 . S
C919 C938 1.368 . S
C919 H943 0.949 . S
H920 C924 0.949 . S
C921 C922 1.349 . S
C921 C923 1.327 . S
C921 H944 0.950 . S
C922 C921 1.349 . S
C922 C934 1.349 . S
C923 C921 1.327 . S
C923 C939 1.429 . S
C923 H945 0.950 . S
C924 H920 0.949 . S
C924 C932 1.574 . S
C924 C940 1.368 . S
H925 C933 0.950 . S
H926 C931 0.950 . S
H927 C932 0.949 . S
H928 C934 0.950 . S
H929 C935 0.950 . S
H930 C936 0.949 . S
C931 H926 0.950 . S
C931 C933 1.327 . S
C931 C937 1.429 . S
C932 C924 1.574 . S
C932 H927 0.949 . S
C932 C938 1.368 . S
C933 C917 1.349 . S
C933 H925 0.950 . S
C933 C931 1.327 . S
C934 C922 1.349 . S
C934 H928 0.950 . S
C934 C935 1.327 . S
C935 H929 0.950 . S
C935 C934 1.327 . S
C935 C939 1.429 . S
C936 C919 1.574 . S
C936 H930 0.949 . S
C936 C940 1.368 . S
C937 C918 1.429 . S
C937 C931 1.429 . S
C937 C938 1.523 . S
C938 C919 1.368 . S
C938 C932 1.368 . S
C938 C937 1.523 . S
C939 C923 1.429 . S
C939 C935 1.429 . S
C939 C940 1.523 . S
C940 C924 1.368 . S
C940 C936 1.368 . S
C940 C939 1.523 . S
H941 C916 0.950 . S
H942 C918 0.950 . S
H943 C919 0.949 . S
H944 C921 0.950 . S
H945 C923 0.950 . S
C946 C947 1.349 . S
C946 C948 1.327 . S
C946 H971 0.950 . S
C947 C946 1.349 . S
C947 C963 1.349 . S
C948 C946 1.327 . S
C948 C967 1.429 . S
C948 H972 0.950 . S
C949 C966 1.574 . S
C949 C968 1.368 . S
C949 H973 0.949 . S
H950 C954 0.949 . S
C951 C952 1.349 . S
C951 C953 1.327 . S
C951 H974 0.950 . S
C952 C951 1.349 . S
C952 C964 1.349 . S
C953 C951 1.327 . S
C953 C969 1.429 . S
C953 H975 0.950 . S
C954 H950 0.949 . S
C954 C962 1.574 . S
C954 C970 1.368 . S
H955 C963 0.950 . S
H956 C961 0.950 . S
H957 C962 0.949 . S
H958 C964 0.950 . S
H959 C965 0.950 . S
H960 C966 0.949 . S
C961 H956 0.950 . S
C961 C963 1.327 . S
C961 C967 1.429 . S
C962 C954 1.574 . S
C962 H957 0.949 . S
C962 C968 1.368 . S
C963 C947 1.349 . S
C963 H955 0.950 . S
C963 C961 1.327 . S
C964 C952 1.349 . S
C964 H958 0.950 . S
C964 C965 1.327 . S
C965 H959 0.950 . S
C965 C964 1.327 . S
C965 C969 1.429 . S
C966 C949 1.574 . S
C966 H960 0.949 . S
C966 C970 1.368 . S
C967 C948 1.429 . S
C967 C961 1.429 . S
C967 C968 1.523 . S
C968 C949 1.368 . S
C968 C962 1.368 . S
C968 C967 1.523 . S
C969 C953 1.429 . S
C969 C965 1.429 . S
C969 C970 1.523 . S
C970 C954 1.368 . S
C970 C966 1.368 . S
C970 C969 1.523 . S
H971 C946 0.950 . S
H972 C948 0.950 . S
H973 C949 0.949 . S
H974 C951 0.950 . S
H975 C953 0.950 . S
C976 C977 1.349 . S
C976 C978 1.327 . S
C976 H1001 0.950 . S
C977 C976 1.349 . S
C977 C993 1.349 . S
C978 C976 1.327 . S
C978 C997 1.429 . S
C978 H1002 0.950 . S
C979 C996 1.574 . S
C979 C998 1.368 . S
C979 H1003 0.949 . S
H980 C984 0.949 . S
C981 C982 1.349 . S
C981 C983 1.327 . S
C981 H1004 0.950 . S
C982 C981 1.349 . S
C982 C994 1.349 . S
C983 C981 1.327 . S
C983 C999 1.429 . S
C983 H1005 0.950 . S
C984 H980 0.949 . S
C984 C992 1.574 . S
C984 C1000 1.368 . S
H985 C993 0.950 . S
H986 C991 0.950 . S
H987 C992 0.949 . S
H988 C994 0.950 . S
H989 C995 0.950 . S
H990 C996 0.949 . S
C991 H986 0.950 . S
C991 C993 1.327 . S
C991 C997 1.429 . S
C992 C984 1.574 . S
C992 H987 0.949 . S
C992 C998 1.368 . S
C993 C977 1.349 . S
C993 H985 0.950 . S
C993 C991 1.327 . S
C994 C982 1.349 . S
C994 H988 0.950 . S
C994 C995 1.327 . S
C995 H989 0.950 . S
C995 C994 1.327 . S
C995 C999 1.429 . S
C996 C979 1.574 . S
C996 H990 0.949 . S
C996 C1000 1.368 . S
C997 C978 1.429 . S
C997 C991 1.429 . S
C997 C998 1.523 . S
C998 C979 1.368 . S
C998 C992 1.368 . S
C998 C997 1.523 . S
C999 C983 1.429 . S
C999 C995 1.429 . S
C999 C1000 1.523 . S
C1000 C984 1.368 . S
C1000 C996 1.368 . S
C1000 C999 1.523 . S
H1001 C976 0.950 . S
H1002 C978 0.950 . S
H1003 C979 0.949 . S
H1004 C981 0.950 . S
H1005 C983 0.950 . S
C1006 C1007 1.349 . S
C1006 C1008 1.327 . S
C1006 H1031 0.950 . S
C1007 C1006 1.349 . S
C1007 C1023 1.349 . S
C1008 C1006 1.327 . S
C1008 C1027 1.429 . S
C1008 H1032 0.950 . S
C1009 C1026 1.574 . S
C1009 C1028 1.368 . S
C1009 H1033 0.949 . S
H1010 C1014 0.949 . S
C1011 C1012 1.349 . S
C1011 C1013 1.327 . S
C1011 H1034 0.950 . S
C1012 C1011 1.349 . S
C1012 C1024 1.349 . S
C1013 C1011 1.327 . S
C1013 C1029 1.429 . S
C1013 H1035 0.950 . S
C1014 H1010 0.949 . S
C1014 C1022 1.574 . S
C1014 C1030 1.368 . S
H1015 C1023 0.950 . S
H1016 C1021 0.950 . S
H1017 C1022 0.949 . S
H1018 C1024 0.950 . S
H1019 C1025 0.950 . S
H1020 C1026 0.949 . S
C1021 H1016 0.950 . S
C1021 C1023 1.327 . S
C1021 C1027 1.429 . S
C1022 C1014 1.574 . S
C1022 H1017 0.949 . S
C1022 C1028 1.368 . S
C1023 C1007 1.349 . S
C1023 H1015 0.950 . S
C1023 C1021 1.327 . S
C1024 C1012 1.349 . S
C1024 H1018 0.950 . S
C1024 C1025 1.327 . S
C1025 H1019 0.950 . S
C1025 C1024 1.327 . S
C1025 C1029 1.429 . S
C1026 C1009 1.574 . S
C1026 H1020 0.949 . S
C1026 C1030 1.368 . S
C1027 C1008 1.429 . S
C1027 C1021 1.429 . S
C1027 C1028 1.523 . S
C1028 C1009 1.368 . S
C1028 C1022 1.368 . S
C1028 C1027 1.523 . S
C1029 C1013 1.429 . S
C1029 C1025 1.429 . S
C1029 C1030 1.523 . S
C1030 C1014 1.368 . S
C1030 C1026 1.368 . S
C1030 C1029 1.523 . S
H1031 C1006 0.950 . S
H1032 C1008 0.950 . S
H1033 C1009 0.949 . S
H1034 C1011 0.950 . S
H1035 C1013 0.950 . S
C1036 C1037 1.349 . S
C1036 C1038 1.327 . S
C1036 H1061 0.950 . S
C1037 C1036 1.349 . S
C1037 C1053 1.349 . S
C1038 C1036 1.327 . S
C1038 C1057 1.429 . S
C1038 H1062 0.950 . S
C1039 C1056 1.574 . S
C1039 C1058 1.368 . S
C1039 H1063 0.949 . S
H1040 C1044 0.949 . S
C1041 C1042 1.349 . S
C1041 C1043 1.327 . S
C1041 H1064 0.950 . S
C1042 C1041 1.349 . S
C1042 C1054 1.349 . S
C1043 C1041 1.327 . S
C1043 C1059 1.429 . S
C1043 H1065 0.950 . S
C1044 H1040 0.949 . S
C1044 C1052 1.574 . S
C1044 C1060 1.368 . S
H1045 C1053 0.950 . S
H1046 C1051 0.950 . S
H1047 C1052 0.949 . S
H1048 C1054 0.950 . S
H1049 C1055 0.950 . S
H1050 C1056 0.949 . S
C1051 H1046 0.950 . S
C1051 C1053 1.327 . S
C1051 C1057 1.429 . S
C1052 C1044 1.574 . S
C1052 H1047 0.949 . S
C1052 C1058 1.368 . S
C1053 C1037 1.349 . S
C1053 H1045 0.950 . S
C1053 C1051 1.327 . S
C1054 C1042 1.349 . S
C1054 H1048 0.950 . S
C1054 C1055 1.327 . S
C1055 H1049 0.950 . S
C1055 C1054 1.327 . S
C1055 C1059 1.429 . S
C1056 C1039 1.574 . S
C1056 H1050 0.949 . S
C1056 C1060 1.368 . S
C1057 C1038 1.429 . S
C1057 C1051 1.429 . S
C1057 C1058 1.523 . S
C1058 C1039 1.368 . S
C1058 C1052 1.368 . S
C1058 C1057 1.523 . S
C1059 C1043 1.429 . S
C1059 C1055 1.429 . S
C1059 C1060 1.523 . S
C1060 C1044 1.368 . S
C1060 C1056 1.368 . S
C1060 C1059 1.523 . S
H1061 C1036 0.950 . S
H1062 C1038 0.950 . S
H1063 C1039 0.949 . S
H1064 C1041 0.950 . S
H1065 C1043 0.950 . S
C1066 C1067 1.349 . S
C1066 C1068 1.327 . S
C1066 H1091 0.950 . S
C1067 C1066 1.349 . S
C1067 C1083 1.349 . S
C1068 C1066 1.327 . S
C1068 C1087 1.429 . S
C1068 H1092 0.950 . S
C1069 C1086 1.574 . S
C1069 C1088 1.368 . S
C1069 H1093 0.949 . S
H1070 C1074 0.949 . S
C1071 C1072 1.349 . S
C1071 C1073 1.327 . S
C1071 H1094 0.950 . S
C1072 C1071 1.349 . S
C1072 C1084 1.349 . S
C1073 C1071 1.327 . S
C1073 C1089 1.429 . S
C1073 H1095 0.950 . S
C1074 H1070 0.949 . S
C1074 C1082 1.574 . S
C1074 C1090 1.368 . S
H1075 C1083 0.950 . S
H1076 C1081 0.950 . S
H1077 C1082 0.949 . S
H1078 C1084 0.950 . S
H1079 C1085 0.950 . S
H1080 C1086 0.949 . S
C1081 H1076 0.950 . S
C1081 C1083 1.327 . S
C1081 C1087 1.429 . S
C1082 C1074 1.574 . S
C1082 H1077 0.949 . S
C1082 C1088 1.368 . S
C1083 C1067 1.349 . S
C1083 H1075 0.950 . S
C1083 C1081 1.327 . S
C1084 C1072 1.349 . S
C1084 H1078 0.950 . S
C1084 C1085 1.327 . S
C1085 H1079 0.950 . S
C1085 C1084 1.327 . S
C1085 C1089 1.429 . S
C1086 C1069 1.574 . S
C1086 H1080 0.949 . S
C1086 C1090 1.368 . S
C1087 C1068 1.429 . S
C1087 C1081 1.429 . S
C1087 C1088 1.523 . S
C1088 C1069 1.368 . S
C1088 C1082 1.368 . S
C1088 C1087 1.523 . S
C1089 C1073 1.429 . S
C1089 C1085 1.429 . S
C1089 C1090 1.523 . S
C1090 C1074 1.368 . S
C1090 C1086 1.368 . S
C1090 C1089 1.523 . S
H1091 C1066 0.950 . S
H1092 C1068 0.950 . S
H1093 C1069 0.949 . S
H1094 C1071 0.950 . S
H1095 C1073 0.950 . S
C1096 C1097 1.349 . S
C1096 C1098 1.327 . S
C1096 H1121 0.950 . S
C1097 C1096 1.349 . S
C1097 C1113 1.349 . S
C1098 C1096 1.327 . S
C1098 C1117 1.429 . S
C1098 H1122 0.950 . S
C1099 C1116 1.574 . S
C1099 C1118 1.368 . S
C1099 H1123 0.949 . S
H1100 C1104 0.949 . S
C1101 C1102 1.349 . S
C1101 C1103 1.327 . S
C1101 H1124 0.950 . S
C1102 C1101 1.349 . S
C1102 C1114 1.349 . S
C1103 C1101 1.327 . S
C1103 C1119 1.429 . S
C1103 H1125 0.950 . S
C1104 H1100 0.949 . S
C1104 C1112 1.574 . S
C1104 C1120 1.368 . S
H1105 C1113 0.950 . S
H1106 C1111 0.950 . S
H1107 C1112 0.949 . S
H1108 C1114 0.950 . S
H1109 C1115 0.950 . S
H1110 C1116 0.949 . S
C1111 H1106 0.950 . S
C1111 C1113 1.327 . S
C1111 C1117 1.429 . S
C1112 C1104 1.574 . S
C1112 H1107 0.949 . S
C1112 C1118 1.368 . S
C1113 C1097 1.349 . S
C1113 H1105 0.950 . S
C1113 C1111 1.327 . S
C1114 C1102 1.349 . S
C1114 H1108 0.950 . S
C1114 C1115 1.327 . S
C1115 H1109 0.950 . S
C1115 C1114 1.327 . S
C1115 C1119 1.429 . S
C1116 C1099 1.574 . S
C1116 H1110 0.949 . S
C1116 C1120 1.368 . S
C1117 C1098 1.429 . S
C1117 C1111 1.429 . S
C1117 C1118 1.523 . S
C1118 C1099 1.368 . S
C1118 C1112 1.368 . S
C1118 C1117 1.523 . S
C1119 C1103 1.429 . S
C1119 C1115 1.429 . S
C1119 C1120 1.523 . S
C1120 C1104 1.368 . S
C1120 C1116 1.368 . S
C1120 C1119 1.523 . S
H1121 C1096 0.950 . S
H1122 C1098 0.950 . S
H1123 C1099 0.949 . S
H1124 C1101 0.950 . S
H1125 C1103 0.950 . S
C1126 C1127 1.349 . S
C1126 C1128 1.327 . S
C1126 H1151 0.950 . S
C1127 C1126 1.349 . S
C1127 C1143 1.349 . S
C1128 C1126 1.327 . S
C1128 C1147 1.429 . S
C1128 H1152 0.950 . S
C1129 C1146 1.574 . S
C1129 C1148 1.368 . S
C1129 H1153 0.949 . S
H1130 C1134 0.949 . S
C1131 C1132 1.349 . S
C1131 C1133 1.327 . S
C1131 H1154 0.950 . S
C1132 C1131 1.349 . S
C1132 C1144 1.349 . S
C1133 C1131 1.327 . S
C1133 C1149 1.429 . S
C1133 H1155 0.950 . S
C1134 H1130 0.949 . S
C1134 C1142 1.574 . S
C1134 C1150 1.368 . S
H1135 C1143 0.950 . S
H1136 C1141 0.950 . S
H1137 C1142 0.949 . S
H1138 C1144 0.950 . S
H1139 C1145 0.950 . S
H1140 C1146 0.949 . S
C1141 H1136 0.950 . S
C1141 C1143 1.327 . S
C1141 C1147 1.429 . S
C1142 C1134 1.574 . S
C1142 H1137 0.949 . S
C1142 C1148 1.368 . S
C1143 C1127 1.349 . S
C1143 H1135 0.950 . S
C1143 C1141 1.327 . S
C1144 C1132 1.349 . S
C1144 H1138 0.950 . S
C1144 C1145 1.327 . S
C1145 H1139 0.950 . S
C1145 C1144 1.327 . S
C1145 C1149 1.429 . S
C1146 C1129 1.574 . S
C1146 H1140 0.949 . S
C1146 C1150 1.368 . S
C1147 C1128 1.429 . S
C1147 C1141 1.429 . S
C1147 C1148 1.523 . S
C1148 C1129 1.368 . S
C1148 C1142 1.368 . S
C1148 C1147 1.523 . S
C1149 C1133 1.429 . S
C1149 C1145 1.429 . S
C1149 C1150 1.523 . S
C1150 C1134 1.368 . S
C1150 C1146 1.368 . S
C1150 C1149 1.523 . S
H1151 C1126 0.950 . S
H1152 C1128 0.950 . S
H1153 C1129 0.949 . S
H1154 C1131 0.950 . S
H1155 C1133 0.950 . S
C1156 C1157 1.349 . S
C1156 C1158 1.327 . S
C1156 H1181 0.950 . S
C1157 C1156 1.349 . S
C1157 C1173 1.349 . S
C1158 C1156 1.327 . S
C1158 C1177 1.429 . S
C1158 H1182 0.950 . S
C1159 C1176 1.574 . S
C1159 C1178 1.368 . S
C1159 H1183 0.949 . S
H1160 C1164 0.949 . S
C1161 C1162 1.349 . S
C1161 C1163 1.327 . S
C1161 H1184 0.950 . S
C1162 C1161 1.349 . S
C1162 C1174 1.349 . S
C1163 C1161 1.327 . S
C1163 C1179 1.429 . S
C1163 H1185 0.950 . S
C1164 H1160 0.949 . S
C1164 C1172 1.574 . S
C1164 C1180 1.368 . S
H1165 C1173 0.950 . S
H1166 C1171 0.950 . S
H1167 C1172 0.949 . S
H1168 C1174 0.950 . S
H1169 C1175 0.950 . S
H1170 C1176 0.949 . S
C1171 H1166 0.950 . S
C1171 C1173 1.327 . S
C1171 C1177 1.429 . S
C1172 C1164 1.574 . S
C1172 H1167 0.949 . S
C1172 C1178 1.368 . S
C1173 C1157 1.349 . S
C1173 H1165 0.950 . S
C1173 C1171 1.327 . S
C1174 C1162 1.349 . S
C1174 H1168 0.950 . S
C1174 C1175 1.327 . S
C1175 H1169 0.950 . S
C1175 C1174 1.327 . S
C1175 C1179 1.429 . S
C1176 C1159 1.574 . S
C1176 H1170 0.949 . S
C1176 C1180 1.368 . S
C1177 C1158 1.429 . S
C1177 C1171 1.429 . S
C1177 C1178 1.523 . S
C1178 C1159 1.368 . S
C1178 C1172 1.368 . S
C1178 C1177 1.523 . S
C1179 C1163 1.429 . S
C1179 C1175 1.429 . S
C1179 C1180 1.523 . S
C1180 C1164 1.368 . S
C1180 C1176 1.368 . S
C1180 C1179 1.523 . S
H1181 C1156 0.950 . S
H1182 C1158 0.950 . S
H1183 C1159 0.949 . S
H1184 C1161 0.950 . S
H1185 C1163 0.950 . S
C1186 C1187 1.349 . S
C1186 C1188 1.327 . S
C1186 H1211 0.950 . S
C1187 C1186 1.349 . S
C1187 C1203 1.349 . S
C1188 C1186 1.327 . S
C1188 C1207 1.429 . S
C1188 H1212 0.950 . S
C1189 C1206 1.574 . S
C1189 C1208 1.368 . S
C1189 H1213 0.949 . S
H1190 C1194 0.949 . S
C1191 C1192 1.349 . S
C1191 C1193 1.327 . S
C1191 H1214 0.950 . S
C1192 C1191 1.349 . S
C1192 C1204 1.349 . S
C1193 C1191 1.327 . S
C1193 C1209 1.429 . S
C1193 H1215 0.950 . S
C1194 H1190 0.949 . S
C1194 C1202 1.574 . S
C1194 C1210 1.368 . S
H1195 C1203 0.950 . S
H1196 C1201 0.950 . S
H1197 C1202 0.949 . S
H1198 C1204 0.950 . S
H1199 C1205 0.950 . S
H1200 C1206 0.949 . S
C1201 H1196 0.950 . S
C1201 C1203 1.327 . S
C1201 C1207 1.429 . S
C1202 C1194 1.574 . S
C1202 H1197 0.949 . S
C1202 C1208 1.368 . S
C1203 C1187 1.349 . S
C1203 H1195 0.950 . S
C1203 C1201 1.327 . S
C1204 C1192 1.349 . S
C1204 H1198 0.950 . S
C1204 C1205 1.327 . S
C1205 H1199 0.950 . S
C1205 C1204 1.327 . S
C1205 C1209 1.429 . S
C1206 C1189 1.574 . S
C1206 H1200 0.949 . S
C1206 C1210 1.368 . S
C1207 C1188 1.429 . S
C1207 C1201 1.429 . S
C1207 C1208 1.523 . S
C1208 C1189 1.368 . S
C1208 C1202 1.368 . S
C1208 C1207 1.523 . S
C1209 C1193 1.429 . S
C1209 C1205 1.429 . S
C1209 C1210 1.523 . S
C1210 C1194 1.368 . S
C1210 C1206 1.368 . S
C1210 C1209 1.523 . S
H1211 C1186 0.950 . S
H1212 C1188 0.950 . S
H1213 C1189 0.949 . S
H1214 C1191 0.950 . S
H1215 C1193 0.950 . S
C1216 C1217 1.349 . S
C1216 C1218 1.327 . S
C1216 H1241 0.950 . S
C1217 C1216 1.349 . S
C1217 C1233 1.349 . S
C1218 C1216 1.327 . S
C1218 C1237 1.429 . S
C1218 H1242 0.950 . S
C1219 C1236 1.574 1_655 S
C1219 C1238 1.368 . S
C1219 H1243 0.949 . S
H1220 C1224 0.949 . S
C1221 C1222 1.349 . S
C1221 C1223 1.327 . S
C1221 H1244 0.950 . S
C1222 C1221 1.349 . S
C1222 C1234 1.349 . S
C1223 C1221 1.327 . S
C1223 C1239 1.429 . S
C1223 H1245 0.950 . S
C1224 H1220 0.949 . S
C1224 C1232 1.574 1_455 S
C1224 C1240 1.368 . S
H1225 C1233 0.950 . S
H1226 C1231 0.950 . S
H1227 C1232 0.949 . S
H1228 C1234 0.950 . S
H1229 C1235 0.950 . S
H1230 C1236 0.949 . S
C1231 H1226 0.950 . S
C1231 C1233 1.327 . S
C1231 C1237 1.429 . S
C1232 C1224 1.574 1_655 S
C1232 H1227 0.949 . S
C1232 C1238 1.368 . S
C1233 C1217 1.349 . S
C1233 H1225 0.950 . S
C1233 C1231 1.327 . S
C1234 C1222 1.349 . S
C1234 H1228 0.950 . S
C1234 C1235 1.327 . S
C1235 H1229 0.950 . S
C1235 C1234 1.327 . S
C1235 C1239 1.429 . S
C1236 C1219 1.574 1_455 S
C1236 H1230 0.949 . S
C1236 C1240 1.368 . S
C1237 C1218 1.429 . S
C1237 C1231 1.429 . S
C1237 C1238 1.523 . S
C1238 C1219 1.368 . S
C1238 C1232 1.368 . S
C1238 C1237 1.523 . S
C1239 C1223 1.429 . S
C1239 C1235 1.429 . S
C1239 C1240 1.523 . S
C1240 C1224 1.368 . S
C1240 C1236 1.368 . S
C1240 C1239 1.523 . S
H1241 C1216 0.950 . S
H1242 C1218 0.950 . S
H1243 C1219 0.949 . S
H1244 C1221 0.950 . S
H1245 C1223 0.950 . S
C1246 C1247 1.349 . S
C1246 C1248 1.327 . S
C1246 H1271 0.950 . S
C1247 C1246 1.349 . S
C1247 C1263 1.349 . S
C1248 C1246 1.327 . S
C1248 C1267 1.429 . S
C1248 H1272 0.950 . S
C1249 C1266 1.574 . S
C1249 C1268 1.368 1_545 S
C1249 H1273 0.949 . S
H1250 C1254 0.949 . S
C1251 C1252 1.349 . S
C1251 C1253 1.327 . S
C1251 H1274 0.950 . S
C1252 C1251 1.349 . S
C1252 C1264 1.349 . S
C1253 C1251 1.327 . S
C1253 C1269 1.429 . S
C1253 H1275 0.950 . S
C1254 H1250 0.949 . S
C1254 C1262 1.574 . S
C1254 C1270 1.368 1_565 S
H1255 C1263 0.950 . S
H1256 C1261 0.950 . S
H1257 C1262 0.949 . S
H1258 C1264 0.950 . S
H1259 C1265 0.950 . S
H1260 C1266 0.949 . S
C1261 H1256 0.950 . S
C1261 C1263 1.327 . S
C1261 C1267 1.429 . S
C1262 C1254 1.574 . S
C1262 H1257 0.949 . S
C1262 C1268 1.368 . S
C1263 C1247 1.349 . S
C1263 H1255 0.950 . S
C1263 C1261 1.327 . S
C1264 C1252 1.349 . S
C1264 H1258 0.950 . S
C1264 C1265 1.327 . S
C1265 H1259 0.950 . S
C1265 C1264 1.327 . S
C1265 C1269 1.429 . S
C1266 C1249 1.574 . S
C1266 H1260 0.949 . S
C1266 C1270 1.368 . S
C1267 C1248 1.429 . S
C1267 C1261 1.429 . S
C1267 C1268 1.523 . S
C1268 C1249 1.368 1_565 S
C1268 C1262 1.368 . S
C1268 C1267 1.523 . S
C1269 C1253 1.429 . S
C1269 C1265 1.429 . S
C1269 C1270 1.523 . S
C1270 C1254 1.368 1_545 S
C1270 C1266 1.368 . S
C1270 C1269 1.523 . S
H1271 C1246 0.950 . S
H1272 C1248 0.950 . S
H1273 C1249 0.949 . S
H1274 C1251 0.950 . S
H1275 C1253 0.950 . S
C1276 C1277 1.349 . S
C1276 C1278 1.327 . S
C1276 H1301 0.950 . S
C1277 C1276 1.349 . S
C1277 C1293 1.349 1_556 S
C1278 C1276 1.327 . S
C1278 C1297 1.429 . S
C1278 H1302 0.950 . S
C1279 C1296 1.585 1_455 S
C1279 C1298 1.328 1_544 S
C1279 H1303 0.949 . S
H1280 C1284 0.949 . S
C1281 C1282 1.349 . S
C1281 C1283 1.327 . S
C1281 H1304 0.950 . S
C1282 C1281 1.349 . S
C1282 C1294 1.349 1_554 S
C1283 C1281 1.327 . S
C1283 C1299 1.429 . S
C1283 H1305 0.950 . S
C1284 H1280 0.949 . S
C1284 C1292 1.585 1_655 S
C1284 C1300 1.328 1_566 S
H1285 C1293 0.950 . S
H1286 C1291 0.950 . S
H1287 C1292 0.949 . S
H1288 C1294 0.950 . S
H1289 C1295 0.950 . S
H1290 C1296 0.949 . S
C1291 H1286 0.950 . S
C1291 C1293 1.327 . S
C1291 C1297 1.429 1_554 S
C1292 C1284 1.585 1_455 S
C1292 H1287 0.949 . S
C1292 C1298 1.397 . S
C1293 C1277 1.349 1_554 S
C1293 H1285 0.950 . S
C1293 C1291 1.327 . S
C1294 C1282 1.349 1_556 S
C1294 H1288 0.950 . S
C1294 C1295 1.327 . S
C1295 H1289 0.950 . S
C1295 C1294 1.327 . S
C1295 C1299 1.429 1_556 S
C1296 C1279 1.585 1_655 S
C1296 H1290 0.949 . S
C1296 C1300 1.397 . S
C1297 C1278 1.429 . S
C1297 C1291 1.429 1_556 S
C1297 C1298 1.525 . S
C1298 C1279 1.328 1_566 S
C1298 C1292 1.397 . S
C1298 C1297 1.525 . S
C1299 C1283 1.429 . S
C1299 C1295 1.429 1_554 S
C1299 C1300 1.525 . S
C1300 C1284 1.328 1_544 S
C1300 C1296 1.397 . S
C1300 C1299 1.525 . S
H1301 C1276 0.950 . S
H1302 C1278 0.950 . S
H1303 C1279 0.949 . S
H1304 C1281 0.950 . S
H1305 C1283 0.950 . S
C1306 C1307 1.349 1_556 S
C1306 C1308 1.327 . S
C1306 H1331 0.950 . S
C1307 C1306 1.349 1_554 S
C1307 C1323 1.349 . S
C1308 C1306 1.327 . S
C1308 C1327 1.429 1_556 S
C1308 H1332 0.950 . S
C1309 C1326 1.574 . S
C1309 C1328 1.395 . S
C1309 H1333 0.949 . S
H1310 C1314 0.949 . S
C1311 C1312 1.349 1_554 S
C1311 C1313 1.327 . S
C1311 H1334 0.950 . S
C1312 C1311 1.349 1_556 S
C1312 C1324 1.349 . S
C1313 C1311 1.327 . S
C1313 C1329 1.429 1_554 S
C1313 H1335 0.950 . S
C1314 H1310 0.949 . S
C1314 C1322 1.574 . S
C1314 C1330 1.395 . S
H1315 C1323 0.950 . S
H1316 C1321 0.950 . S
H1317 C1322 0.949 . S
H1318 C1324 0.950 . S
H1319 C1325 0.950 . S
H1320 C1326 0.949 . S
C1321 H1316 0.950 . S
C1321 C1323 1.327 . S
C1321 C1327 1.429 . S
C1322 C1314 1.574 . S
C1322 H1317 0.949 . S
C1322 C1328 1.341 1_556 S
C1323 C1307 1.349 . S
C1323 H1315 0.950 . S
C1323 C1321 1.327 . S
C1324 C1312 1.349 . S
C1324 H1318 0.950 . S
C1324 C1325 1.327 . S
C1325 H1319 0.950 . S
C1325 C1324 1.327 . S
C1325 C1329 1.429 . S
C1326 C1309 1.574 . S
C1326 H1320 0.949 . S
C1326 C1330 1.341 1_554 S
C1327 C1308 1.429 1_554 S
C1327 C1321 1.429 . S
C1327 C1328 1.525 . S
C1328 C1309 1.395 . S
C1328 C1322 1.341 1_554 S
C1328 C1327 1.525 . S
C1329 C1313 1.429 1_556 S
C1329 C1325 1.429 . S
C1329 C1330 1.525 . S
C1330 C1314 1.395 . S
C1330 C1326 1.341 1_556 S
C1330 C1329 1.525 . S
H1331 C1306 0.950 . S
H1332 C1308 0.950 . S
H1333 C1309 0.949 . S
H1334 C1311 0.950 . S
H1335 C1313 0.950 . S
C1336 C1337 1.349 . S
C1336 C1338 1.327 . S
C1336 H1361 0.950 . S
C1337 C1336 1.349 . S
C1337 C1353 1.349 . S
C1338 C1336 1.327 . S
C1338 C1357 1.429 . S
C1338 H1362 0.950 . S
C1339 C1356 1.574 1_655 S
C1339 C1358 1.368 . S
C1339 H1363 0.949 . S
H1340 C1344 0.949 . S
C1341 C1342 1.349 . S
C1341 C1343 1.327 . S
C1341 H1364 0.950 . S
C1342 C1341 1.349 . S
C1342 C1354 1.349 . S
C1343 C1341 1.327 . S
C1343 C1359 1.429 . S
C1343 H1365 0.950 . S
C1344 H1340 0.949 . S
C1344 C1352 1.574 1_455 S
C1344 C1360 1.368 . S
H1345 C1353 0.950 . S
H1346 C1351 0.950 . S
H1347 C1352 0.949 . S
H1348 C1354 0.950 . S
H1349 C1355 0.950 . S
H1350 C1356 0.949 . S
C1351 H1346 0.950 . S
C1351 C1353 1.327 . S
C1351 C1357 1.429 . S
C1352 C1344 1.574 1_655 S
C1352 H1347 0.949 . S
C1352 C1358 1.368 . S
C1353 C1337 1.349 . S
C1353 H1345 0.950 . S
C1353 C1351 1.327 . S
C1354 C1342 1.349 . S
C1354 H1348 0.950 . S
C1354 C1355 1.327 . S
C1355 H1349 0.950 . S
C1355 C1354 1.327 . S
C1355 C1359 1.429 . S
C1356 C1339 1.574 1_455 S
C1356 H1350 0.949 . S
C1356 C1360 1.368 . S
C1357 C1338 1.429 . S
C1357 C1351 1.429 . S
C1357 C1358 1.523 . S
C1358 C1339 1.368 . S
C1358 C1352 1.368 . S
C1358 C1357 1.523 . S
C1359 C1343 1.429 . S
C1359 C1355 1.429 . S
C1359 C1360 1.523 . S
C1360 C1344 1.368 . S
C1360 C1356 1.368 . S
C1360 C1359 1.523 . S
H1361 C1336 0.950 . S
H1362 C1338 0.950 . S
H1363 C1339 0.949 . S
H1364 C1341 0.950 . S
H1365 C1343 0.950 . S
C1366 C1367 1.349 . S
C1366 C1368 1.327 . S
C1366 H1391 0.950 . S
C1367 C1366 1.349 . S
C1367 C1383 1.349 . S
C1368 C1366 1.327 . S
C1368 C1387 1.429 . S
C1368 H1392 0.950 . S
C1369 C1386 1.583 . S
C1369 C1388 1.359 1_545 S
C1369 H1393 0.949 . S
H1370 C1374 0.949 . S
C1371 C1372 1.349 . S
C1371 C1373 1.327 . S
C1371 H1394 0.950 . S
C1372 C1371 1.349 . S
C1372 C1384 1.349 . S
C1373 C1371 1.327 . S
C1373 C1389 1.429 . S
C1373 H1395 0.950 . S
C1374 H1370 0.949 . S
C1374 C1382 1.583 . S
C1374 C1390 1.359 1_565 S
H1375 C1383 0.950 . S
H1376 C1381 0.950 . S
H1377 C1382 0.949 . S
H1378 C1384 0.950 . S
H1379 C1385 0.950 . S
H1380 C1386 0.949 . S
C1381 H1376 0.950 . S
C1381 C1383 1.327 . S
C1381 C1387 1.429 . S
C1382 C1374 1.583 . S
C1382 H1377 0.949 . S
C1382 C1388 1.368 . S
C1383 C1367 1.349 . S
C1383 H1375 0.950 . S
C1383 C1381 1.327 . S
C1384 C1372 1.349 . S
C1384 H1378 0.950 . S
C1384 C1385 1.327 . S
C1385 H1379 0.950 . S
C1385 C1384 1.327 . S
C1385 C1389 1.429 . S
C1386 C1369 1.583 . S
C1386 H1380 0.949 . S
C1386 C1390 1.368 . S
C1387 C1368 1.429 . S
C1387 C1381 1.429 . S
C1387 C1388 1.523 . S
C1388 C1369 1.359 1_565 S
C1388 C1382 1.368 . S
C1388 C1387 1.523 . S
C1389 C1373 1.429 . S
C1389 C1385 1.429 . S
C1389 C1390 1.523 . S
C1390 C1374 1.359 1_545 S
C1390 C1386 1.368 . S
C1390 C1389 1.523 . S
H1391 C1366 0.950 . S
H1392 C1368 0.950 . S
H1393 C1369 0.949 . S
H1394 C1371 0.950 . S
H1395 C1373 0.950 . S
C1396 C1397 1.349 1_554 S
C1396 C1398 1.327 . S
C1396 H1421 0.950 . S
C1397 C1396 1.349 1_556 S
C1397 C1413 1.349 . S
C1398 C1396 1.327 . S
C1398 C1417 1.429 1_554 S
C1398 H1422 0.950 . S
C1399 C1416 1.574 . S
C1399 C1418 1.399 . S
C1399 H1423 0.949 . S
H1400 C1404 0.949 . S
C1401 C1402 1.349 1_556 S
C1401 C1403 1.327 . S
C1401 H1424 0.950 . S
C1402 C1401 1.349 1_554 S
C1402 C1414 1.349 . S
C1403 C1401 1.327 . S
C1403 C1419 1.429 1_556 S
C1403 H1425 0.950 . S
C1404 H1400 0.949 . S
C1404 C1412 1.574 . S
C1404 C1420 1.399 . S
H1405 C1413 0.950 . S
H1406 C1411 0.950 . S
H1407 C1412 0.949 . S
H1408 C1414 0.950 . S
H1409 C1415 0.950 . S
H1410 C1416 0.949 . S
C1411 H1406 0.950 . S
C1411 C1413 1.327 . S
C1411 C1417 1.429 . S
C1412 C1404 1.574 . S
C1412 H1407 0.949 . S
C1412 C1418 1.337 1_554 S
C1413 C1397 1.349 . S
C1413 H1405 0.950 . S
C1413 C1411 1.327 . S
C1414 C1402 1.349 . S
C1414 H1408 0.950 . S
C1414 C1415 1.327 . S
C1415 H1409 0.950 . S
C1415 C1414 1.327 . S
C1415 C1419 1.429 . S
C1416 C1399 1.574 . S
C1416 H1410 0.949 . S
C1416 C1420 1.337 1_556 S
C1417 C1398 1.429 1_556 S
C1417 C1411 1.429 . S
C1417 C1418 1.525 . S
C1418 C1399 1.399 . S
C1418 C1412 1.337 1_556 S
C1418 C1417 1.525 . S
C1419 C1403 1.429 1_554 S
C1419 C1415 1.429 . S
C1419 C1420 1.525 . S
C1420 C1404 1.399 . S
C1420 C1416 1.337 1_554 S
C1420 C1419 1.525 . S
H1421 C1396 0.950 . S
H1422 C1398 0.950 . S
H1423 C1399 0.949 . S
H1424 C1401 0.950 . S
H1425 C1403 0.950 . S
C1426 C1427 1.349 . S
C1426 C1428 1.327 . S
C1426 H1451 0.950 . S
C1427 C1426 1.349 . S
C1427 C1443 1.349 . S
C1428 C1426 1.327 . S
C1428 C1447 1.429 . S
C1428 H1452 0.950 . S
C1429 C1446 1.574 . S
C1429 C1448 1.368 . S
C1429 H1453 0.949 . S
H1430 C1434 0.949 . S
C1431 C1432 1.349 . S
C1431 C1433 1.327 . S
C1431 H1454 0.950 . S
C1432 C1431 1.349 . S
C1432 C1444 1.349 . S
C1433 C1431 1.327 . S
C1433 C1449 1.429 . S
C1433 H1455 0.950 . S
C1434 H1430 0.949 . S
C1434 C1442 1.574 . S
C1434 C1450 1.368 . S
H1435 C1443 0.950 . S
H1436 C1441 0.950 . S
H1437 C1442 0.949 . S
H1438 C1444 0.950 . S
H1439 C1445 0.950 . S
H1440 C1446 0.949 . S
C1441 H1436 0.950 . S
C1441 C1443 1.327 . S
C1441 C1447 1.429 . S
C1442 C1434 1.574 . S
C1442 H1437 0.949 . S
C1442 C1448 1.368 . S
C1443 C1427 1.349 . S
C1443 H1435 0.950 . S
C1443 C1441 1.327 . S
C1444 C1432 1.349 . S
C1444 H1438 0.950 . S
C1444 C1445 1.327 . S
C1445 H1439 0.950 . S
C1445 C1444 1.327 . S
C1445 C1449 1.429 . S
C1446 C1429 1.574 . S
C1446 H1440 0.949 . S
C1446 C1450 1.368 . S
C1447 C1428 1.429 . S
C1447 C1441 1.429 . S
C1447 C1448 1.523 . S
C1448 C1429 1.368 . S
C1448 C1442 1.368 . S
C1448 C1447 1.523 . S
C1449 C1433 1.429 . S
C1449 C1445 1.429 . S
C1449 C1450 1.523 . S
C1450 C1434 1.368 . S
C1450 C1446 1.368 . S
C1450 C1449 1.523 . S
H1451 C1426 0.950 . S
H1452 C1428 0.950 . S
H1453 C1429 0.949 . S
H1454 C1431 0.950 . S
H1455 C1433 0.950 . S
C1456 C1457 1.349 . S
C1456 C1458 1.327 . S
C1456 H1481 0.950 . S
C1457 C1456 1.349 . S
C1457 C1473 1.349 . S
C1458 C1456 1.327 . S
C1458 C1477 1.429 . S
C1458 H1482 0.950 . S
C1459 C1476 1.574 1_655 S
C1459 C1478 1.368 . S
C1459 H1483 0.949 . S
H1460 C1464 0.949 . S
C1461 C1462 1.349 . S
C1461 C1463 1.327 . S
C1461 H1484 0.950 . S
C1462 C1461 1.349 . S
C1462 C1474 1.349 . S
C1463 C1461 1.327 . S
C1463 C1479 1.429 . S
C1463 H1485 0.950 . S
C1464 H1460 0.949 . S
C1464 C1472 1.574 1_455 S
C1464 C1480 1.368 . S
H1465 C1473 0.950 . S
H1466 C1471 0.950 . S
H1467 C1472 0.949 . S
H1468 C1474 0.950 . S
H1469 C1475 0.950 . S
H1470 C1476 0.949 . S
C1471 H1466 0.950 . S
C1471 C1473 1.327 . S
C1471 C1477 1.429 . S
C1472 C1464 1.574 1_655 S
C1472 H1467 0.949 . S
C1472 C1478 1.368 . S
C1473 C1457 1.349 . S
C1473 H1465 0.950 . S
C1473 C1471 1.327 . S
C1474 C1462 1.349 . S
C1474 H1468 0.950 . S
C1474 C1475 1.327 . S
C1475 H1469 0.950 . S
C1475 C1474 1.327 . S
C1475 C1479 1.429 . S
C1476 C1459 1.574 1_455 S
C1476 H1470 0.949 . S
C1476 C1480 1.368 . S
C1477 C1458 1.429 . S
C1477 C1471 1.429 . S
C1477 C1478 1.523 . S
C1478 C1459 1.368 . S
C1478 C1472 1.368 . S
C1478 C1477 1.523 . S
C1479 C1463 1.429 . S
C1479 C1475 1.429 . S
C1479 C1480 1.523 . S
C1480 C1464 1.368 . S
C1480 C1476 1.368 . S
C1480 C1479 1.523 . S
H1481 C1456 0.950 . S
H1482 C1458 0.950 . S
H1483 C1459 0.949 . S
H1484 C1461 0.950 . S
H1485 C1463 0.950 . S
C1486 C1487 1.349 . S
C1486 C1488 1.327 . S
C1486 H1511 0.950 . S
C1487 C1486 1.349 . S
C1487 C1503 1.349 . S
C1488 C1486 1.327 . S
C1488 C1507 1.429 . S
C1488 H1512 0.950 . S
C1489 C1506 1.574 . S
C1489 C1508 1.368 . S
C1489 H1513 0.949 . S
H1490 C1494 0.949 . S
C1491 C1492 1.349 . S
C1491 C1493 1.327 . S
C1491 H1514 0.950 . S
C1492 C1491 1.349 . S
C1492 C1504 1.349 . S
C1493 C1491 1.327 . S
C1493 C1509 1.429 . S
C1493 H1515 0.950 . S
C1494 H1490 0.949 . S
C1494 C1502 1.574 . S
C1494 C1510 1.368 . S
H1495 C1503 0.950 . S
H1496 C1501 0.950 . S
H1497 C1502 0.949 . S
H1498 C1504 0.950 . S
H1499 C1505 0.950 . S
H1500 C1506 0.949 . S
C1501 H1496 0.950 . S
C1501 C1503 1.327 . S
C1501 C1507 1.429 . S
C1502 C1494 1.574 . S
C1502 H1497 0.949 . S
C1502 C1508 1.368 . S
C1503 C1487 1.349 . S
C1503 H1495 0.950 . S
C1503 C1501 1.327 . S
C1504 C1492 1.349 . S
C1504 H1498 0.950 . S
C1504 C1505 1.327 . S
C1505 H1499 0.950 . S
C1505 C1504 1.327 . S
C1505 C1509 1.429 . S
C1506 C1489 1.574 . S
C1506 H1500 0.949 . S
C1506 C1510 1.368 . S
C1507 C1488 1.429 . S
C1507 C1501 1.429 . S
C1507 C1508 1.523 . S
C1508 C1489 1.368 . S
C1508 C1502 1.368 . S
C1508 C1507 1.523 . S
C1509 C1493 1.429 . S
C1509 C1505 1.429 . S
C1509 C1510 1.523 . S
C1510 C1494 1.368 . S
C1510 C1506 1.368 . S
C1510 C1509 1.523 . S
H1511 C1486 0.950 . S
H1512 C1488 0.950 . S
H1513 C1489 0.949 . S
H1514 C1491 0.950 . S
H1515 C1493 0.950 . S
C1516 C1517 1.349 . S
C1516 C1518 1.327 . S
C1516 H1541 0.950 . S
C1517 C1516 1.349 . S
C1517 C1533 1.349 . S
C1518 C1516 1.327 . S
C1518 C1537 1.429 . S
C1518 H1542 0.950 . S
C1519 C1536 1.574 . S
C1519 C1538 1.368 . S
C1519 H1543 0.949 . S
H1520 C1524 0.949 . S
C1521 C1522 1.349 . S
C1521 C1523 1.327 . S
C1521 H1544 0.950 . S
C1522 C1521 1.349 . S
C1522 C1534 1.349 . S
C1523 C1521 1.327 . S
C1523 C1539 1.429 . S
C1523 H1545 0.950 . S
C1524 H1520 0.949 . S
C1524 C1532 1.574 . S
C1524 C1540 1.368 . S
H1525 C1533 0.950 . S
H1526 C1531 0.950 . S
H1527 C1532 0.949 . S
H1528 C1534 0.950 . S
H1529 C1535 0.950 . S
H1530 C1536 0.949 . S
C1531 H1526 0.950 . S
C1531 C1533 1.327 . S
C1531 C1537 1.429 . S
C1532 C1524 1.574 . S
C1532 H1527 0.949 . S
C1532 C1538 1.368 . S
C1533 C1517 1.349 . S
C1533 H1525 0.950 . S
C1533 C1531 1.327 . S
C1534 C1522 1.349 . S
C1534 H1528 0.950 . S
C1534 C1535 1.327 . S
C1535 H1529 0.950 . S
C1535 C1534 1.327 . S
C1535 C1539 1.429 . S
C1536 C1519 1.574 . S
C1536 H1530 0.949 . S
C1536 C1540 1.368 . S
C1537 C1518 1.429 . S
C1537 C1531 1.429 . S
C1537 C1538 1.523 . S
C1538 C1519 1.368 . S
C1538 C1532 1.368 . S
C1538 C1537 1.523 . S
C1539 C1523 1.429 . S
C1539 C1535 1.429 . S
C1539 C1540 1.523 . S
C1540 C1524 1.368 . S
C1540 C1536 1.368 . S
C1540 C1539 1.523 . S
H1541 C1516 0.950 . S
H1542 C1518 0.950 . S
H1543 C1519 0.949 . S
H1544 C1521 0.950 . S
H1545 C1523 0.950 . S
C1546 C1547 1.349 . S
C1546 C1548 1.327 . S
C1546 H1571 0.950 . S
C1547 C1546 1.349 . S
C1547 C1563 1.349 . S
C1548 C1546 1.327 . S
C1548 C1567 1.429 . S
C1548 H1572 0.950 . S
C1549 C1566 1.574 . S
C1549 C1568 1.368 . S
C1549 H1573 0.949 . S
H1550 C1554 0.949 . S
C1551 C1552 1.349 . S
C1551 C1553 1.327 . S
C1551 H1574 0.950 . S
C1552 C1551 1.349 . S
C1552 C1564 1.349 . S
C1553 C1551 1.327 . S
C1553 C1569 1.429 . S
C1553 H1575 0.950 . S
C1554 H1550 0.949 . S
C1554 C1562 1.574 . S
C1554 C1570 1.368 . S
H1555 C1563 0.950 . S
H1556 C1561 0.950 . S
H1557 C1562 0.949 . S
H1558 C1564 0.950 . S
H1559 C1565 0.950 . S
H1560 C1566 0.949 . S
C1561 H1556 0.950 . S
C1561 C1563 1.327 . S
C1561 C1567 1.429 . S
C1562 C1554 1.574 . S
C1562 H1557 0.949 . S
C1562 C1568 1.368 . S
C1563 C1547 1.349 . S
C1563 H1555 0.950 . S
C1563 C1561 1.327 . S
C1564 C1552 1.349 . S
C1564 H1558 0.950 . S
C1564 C1565 1.327 . S
C1565 H1559 0.950 . S
C1565 C1564 1.327 . S
C1565 C1569 1.429 . S
C1566 C1549 1.574 . S
C1566 H1560 0.949 . S
C1566 C1570 1.368 . S
C1567 C1548 1.429 . S
C1567 C1561 1.429 . S
C1567 C1568 1.523 . S
C1568 C1549 1.368 . S
C1568 C1562 1.368 . S
C1568 C1567 1.523 . S
C1569 C1553 1.429 . S
C1569 C1565 1.429 . S
C1569 C1570 1.523 . S
C1570 C1554 1.368 . S
C1570 C1566 1.368 . S
C1570 C1569 1.523 . S
H1571 C1546 0.950 . S
H1572 C1548 0.950 . S
H1573 C1549 0.949 . S
H1574 C1551 0.950 . S
H1575 C1553 0.950 . S
C1576 C1577 1.349 . S
C1576 C1578 1.327 . S
C1576 H1601 0.950 . S
C1577 C1576 1.349 . S
C1577 C1593 1.349 . S
C1578 C1576 1.327 . S
C1578 C1597 1.429 . S
C1578 H1602 0.950 . S
C1579 C1596 1.574 . S
C1579 C1598 1.368 . S
C1579 H1603 0.949 . S
H1580 C1584 0.949 . S
C1581 C1582 1.349 . S
C1581 C1583 1.327 . S
C1581 H1604 0.950 . S
C1582 C1581 1.349 . S
C1582 C1594 1.349 . S
C1583 C1581 1.327 . S
C1583 C1599 1.429 . S
C1583 H1605 0.950 . S
C1584 H1580 0.949 . S
C1584 C1592 1.574 . S
C1584 C1600 1.368 . S
H1585 C1593 0.950 . S
H1586 C1591 0.950 . S
H1587 C1592 0.949 . S
H1588 C1594 0.950 . S
H1589 C1595 0.950 . S
H1590 C1596 0.949 . S
C1591 H1586 0.950 . S
C1591 C1593 1.327 . S
C1591 C1597 1.429 . S
C1592 C1584 1.574 . S
C1592 H1587 0.949 . S
C1592 C1598 1.368 . S
C1593 C1577 1.349 . S
C1593 H1585 0.950 . S
C1593 C1591 1.327 . S
C1594 C1582 1.349 . S
C1594 H1588 0.950 . S
C1594 C1595 1.327 . S
C1595 H1589 0.950 . S
C1595 C1594 1.327 . S
C1595 C1599 1.429 . S
C1596 C1579 1.574 . S
C1596 H1590 0.949 . S
C1596 C1600 1.368 . S
C1597 C1578 1.429 . S
C1597 C1591 1.429 . S
C1597 C1598 1.523 . S
C1598 C1579 1.368 . S
C1598 C1592 1.368 . S
C1598 C1597 1.523 . S
C1599 C1583 1.429 . S
C1599 C1595 1.429 . S
C1599 C1600 1.523 . S
C1600 C1584 1.368 . S
C1600 C1596 1.368 . S
C1600 C1599 1.523 . S
H1601 C1576 0.950 . S
H1602 C1578 0.950 . S
H1603 C1579 0.949 . S
H1604 C1581 0.950 . S
H1605 C1583 0.950 . S
C1606 C1607 1.349 . S
C1606 C1608 1.327 . S
C1606 H1631 0.950 . S
C1607 C1606 1.349 . S
C1607 C1623 1.349 . S
C1608 C1606 1.327 . S
C1608 C1627 1.429 . S
C1608 H1632 0.950 . S
C1609 C1626 1.574 . S
C1609 C1628 1.368 . S
C1609 H1633 0.949 . S
H1610 C1614 0.949 . S
C1611 C1612 1.349 . S
C1611 C1613 1.327 . S
C1611 H1634 0.950 . S
C1612 C1611 1.349 . S
C1612 C1624 1.349 . S
C1613 C1611 1.327 . S
C1613 C1629 1.429 . S
C1613 H1635 0.950 . S
C1614 H1610 0.949 . S
C1614 C1622 1.574 . S
C1614 C1630 1.368 . S
H1615 C1623 0.950 . S
H1616 C1621 0.950 . S
H1617 C1622 0.949 . S
H1618 C1624 0.950 . S
H1619 C1625 0.950 . S
H1620 C1626 0.949 . S
C1621 H1616 0.950 . S
C1621 C1623 1.327 . S
C1621 C1627 1.429 . S
C1622 C1614 1.574 . S
C1622 H1617 0.949 . S
C1622 C1628 1.368 1_565 S
C1623 C1607 1.349 . S
C1623 H1615 0.950 . S
C1623 C1621 1.327 . S
C1624 C1612 1.349 . S
C1624 H1618 0.950 . S
C1624 C1625 1.327 . S
C1625 H1619 0.950 . S
C1625 C1624 1.327 . S
C1625 C1629 1.429 . S
C1626 C1609 1.574 . S
C1626 H1620 0.949 . S
C1626 C1630 1.368 1_545 S
C1627 C1608 1.429 . S
C1627 C1621 1.429 . S
C1627 C1628 1.523 . S
C1628 C1609 1.368 . S
C1628 C1622 1.368 1_545 S
C1628 C1627 1.523 . S
C1629 C1613 1.429 . S
C1629 C1625 1.429 . S
C1629 C1630 1.523 . S
C1630 C1614 1.368 . S
C1630 C1626 1.368 1_565 S
C1630 C1629 1.523 . S
H1631 C1606 0.950 . S
H1632 C1608 0.950 . S
H1633 C1609 0.949 . S
H1634 C1611 0.950 . S
H1635 C1613 0.950 . S
C1636 C1637 1.349 . S
C1636 C1638 1.327 . S
C1636 H1661 0.950 . S
C1637 C1636 1.349 . S
C1637 C1653 1.349 . S
C1638 C1636 1.327 . S
C1638 C1657 1.429 . S
C1638 H1662 0.950 . S
C1639 C1656 1.574 . S
C1639 C1658 1.368 . S
C1639 H1663 0.949 . S
H1640 C1644 0.949 . S
C1641 C1642 1.349 . S
C1641 C1643 1.327 . S
C1641 H1664 0.950 . S
C1642 C1641 1.349 . S
C1642 C1654 1.349 . S
C1643 C1641 1.327 . S
C1643 C1659 1.429 . S
C1643 H1665 0.950 . S
C1644 H1640 0.949 . S
C1644 C1652 1.574 . S
C1644 C1660 1.368 . S
H1645 C1653 0.950 . S
H1646 C1651 0.950 . S
H1647 C1652 0.949 . S
H1648 C1654 0.950 . S
H1649 C1655 0.950 . S
H1650 C1656 0.949 . S
C1651 H1646 0.950 . S
C1651 C1653 1.327 . S
C1651 C1657 1.429 . S
C1652 C1644 1.574 . S
C1652 H1647 0.949 . S
C1652 C1658 1.368 . S
C1653 C1637 1.349 . S
C1653 H1645 0.950 . S
C1653 C1651 1.327 . S
C1654 C1642 1.349 . S
C1654 H1648 0.950 . S
C1654 C1655 1.327 . S
C1655 H1649 0.950 . S
C1655 C1654 1.327 . S
C1655 C1659 1.429 . S
C1656 C1639 1.574 . S
C1656 H1650 0.949 . S
C1656 C1660 1.368 . S
C1657 C1638 1.429 . S
C1657 C1651 1.429 . S
C1657 C1658 1.523 . S
C1658 C1639 1.368 . S
C1658 C1652 1.368 . S
C1658 C1657 1.523 . S
C1659 C1643 1.429 . S
C1659 C1655 1.429 . S
C1659 C1660 1.523 . S
C1660 C1644 1.368 . S
C1660 C1656 1.368 . S
C1660 C1659 1.523 . S
H1661 C1636 0.950 . S
H1662 C1638 0.950 . S
H1663 C1639 0.949 . S
H1664 C1641 0.950 . S
H1665 C1643 0.950 . S
C1666 C1667 1.349 . S
C1666 C1668 1.327 . S
C1666 H1691 0.950 . S
C1667 C1666 1.349 . S
C1667 C1683 1.349 1_556 S
C1668 C1666 1.327 . S
C1668 C1687 1.429 . S
C1668 H1692 0.950 . S
C1669 C1686 1.574 . S
C1669 C1688 1.339 1_554 S
C1669 H1693 0.949 . S
H1670 C1674 0.949 . S
C1671 C1672 1.349 . S
C1671 C1673 1.327 . S
C1671 H1694 0.950 . S
C1672 C1671 1.349 . S
C1672 C1684 1.349 1_554 S
C1673 C1671 1.327 . S
C1673 C1689 1.429 . S
C1673 H1695 0.950 . S
C1674 H1670 0.949 . S
C1674 C1682 1.574 . S
C1674 C1690 1.339 1_556 S
H1675 C1683 0.950 . S
H1676 C1681 0.950 . S
H1677 C1682 0.949 . S
H1678 C1684 0.950 . S
H1679 C1685 0.950 . S
H1680 C1686 0.949 . S
C1681 H1676 0.950 . S
C1681 C1683 1.327 . S
C1681 C1687 1.429 1_554 S
C1682 C1674 1.574 . S
C1682 H1677 0.949 . S
C1682 C1688 1.397 . S
C1683 C1667 1.349 1_554 S
C1683 H1675 0.950 . S
C1683 C1681 1.327 . S
C1684 C1672 1.349 1_556 S
C1684 H1678 0.950 . S
C1684 C1685 1.327 . S
C1685 H1679 0.950 . S
C1685 C1684 1.327 . S
C1685 C1689 1.429 1_556 S
C1686 C1669 1.574 . S
C1686 H1680 0.949 . S
C1686 C1690 1.397 . S
C1687 C1668 1.429 . S
C1687 C1681 1.429 1_556 S
C1687 C1688 1.525 . S
C1688 C1669 1.339 1_556 S
C1688 C1682 1.397 . S
C1688 C1687 1.525 . S
C1689 C1673 1.429 . S
C1689 C1685 1.429 1_554 S
C1689 C1690 1.525 . S
C1690 C1674 1.339 1_554 S
C1690 C1686 1.397 . S
C1690 C1689 1.525 . S
H1691 C1666 0.950 . S
H1692 C1668 0.950 . S
H1693 C1669 0.949 . S
H1694 C1671 0.950 . S
H1695 C1673 0.950 . S
C1696 C1697 1.349 . S
C1696 C1698 1.327 . S
C1696 H1721 0.950 . S
C1697 C1696 1.349 . S
C1697 C1713 1.349 . S
C1698 C1696 1.327 . S
C1698 C1717 1.429 . S
C1698 H1722 0.950 . S
C1699 C1716 1.574 . S
C1699 C1718 1.368 . S
C1699 H1723 0.949 . S
H1700 C1704 0.949 . S
C1701 C1702 1.349 . S
C1701 C1703 1.327 . S
C1701 H1724 0.950 . S
C1702 C1701 1.349 . S
C1702 C1714 1.349 . S
C1703 C1701 1.327 . S
C1703 C1719 1.429 . S
C1703 H1725 0.950 . S
C1704 H1700 0.949 . S
C1704 C1712 1.574 . S
C1704 C1720 1.368 . S
H1705 C1713 0.950 . S
H1706 C1711 0.950 . S
H1707 C1712 0.949 . S
H1708 C1714 0.950 . S
H1709 C1715 0.950 . S
H1710 C1716 0.949 . S
C1711 H1706 0.950 . S
C1711 C1713 1.327 . S
C1711 C1717 1.429 . S
C1712 C1704 1.574 . S
C1712 H1707 0.949 . S
C1712 C1718 1.368 . S
C1713 C1697 1.349 . S
C1713 H1705 0.950 . S
C1713 C1711 1.327 . S
C1714 C1702 1.349 . S
C1714 H1708 0.950 . S
C1714 C1715 1.327 . S
C1715 H1709 0.950 . S
C1715 C1714 1.327 . S
C1715 C1719 1.429 . S
C1716 C1699 1.574 . S
C1716 H1710 0.949 . S
C1716 C1720 1.368 . S
C1717 C1698 1.429 . S
C1717 C1711 1.429 . S
C1717 C1718 1.523 . S
C1718 C1699 1.368 . S
C1718 C1712 1.368 . S
C1718 C1717 1.523 . S
C1719 C1703 1.429 . S
C1719 C1715 1.429 . S
C1719 C1720 1.523 . S
C1720 C1704 1.368 . S
C1720 C1716 1.368 . S
C1720 C1719 1.523 . S
H1721 C1696 0.950 . S
H1722 C1698 0.950 . S
H1723 C1699 0.949 . S
H1724 C1701 0.950 . S
H1725 C1703 0.950 . S
C1726 C1727 1.349 . S
C1726 C1728 1.327 . S
C1726 H1751 0.950 . S
C1727 C1726 1.349 . S
C1727 C1743 1.349 . S
C1728 C1726 1.327 . S
C1728 C1747 1.429 . S
C1728 H1752 0.950 . S
C1729 C1746 1.574 . S
C1729 C1748 1.368 . S
C1729 H1753 0.949 . S
H1730 C1734 0.949 . S
C1731 C1732 1.349 . S
C1731 C1733 1.327 . S
C1731 H1754 0.950 . S
C1732 C1731 1.349 . S
C1732 C1744 1.349 . S
C1733 C1731 1.327 . S
C1733 C1749 1.429 . S
C1733 H1755 0.950 . S
C1734 H1730 0.949 . S
C1734 C1742 1.574 . S
C1734 C1750 1.368 . S
H1735 C1743 0.950 . S
H1736 C1741 0.950 . S
H1737 C1742 0.949 . S
H1738 C1744 0.950 . S
H1739 C1745 0.950 . S
H1740 C1746 0.949 . S
C1741 H1736 0.950 . S
C1741 C1743 1.327 . S
C1741 C1747 1.429 . S
C1742 C1734 1.574 . S
C1742 H1737 0.949 . S
C1742 C1748 1.368 . S
C1743 C1727 1.349 . S
C1743 H1735 0.950 . S
C1743 C1741 1.327 . S
C1744 C1732 1.349 . S
C1744 H1738 0.950 . S
C1744 C1745 1.327 . S
C1745 H1739 0.950 . S
C1745 C1744 1.327 . S
C1745 C1749 1.429 . S
C1746 C1729 1.574 . S
C1746 H1740 0.949 . S
C1746 C1750 1.368 . S
C1747 C1728 1.429 . S
C1747 C1741 1.429 . S
C1747 C1748 1.523 . S
C1748 C1729 1.368 . S
C1748 C1742 1.368 . S
C1748 C1747 1.523 . S
C1749 C1733 1.429 . S
C1749 C1745 1.429 . S
C1749 C1750 1.523 . S
C1750 C1734 1.368 . S
C1750 C1746 1.368 . S
C1750 C1749 1.523 . S
H1751 C1726 0.950 . S
H1752 C1728 0.950 . S
H1753 C1729 0.949 . S
H1754 C1731 0.950 . S
H1755 C1733 0.950 . S
C1756 C1757 1.349 . S
C1756 C1758 1.327 . S
C1756 H1781 0.950 . S
C1757 C1756 1.349 . S
C1757 C1773 1.349 . S
C1758 C1756 1.327 . S
C1758 C1777 1.429 . S
C1758 H1782 0.950 . S
C1759 C1776 1.574 . S
C1759 C1778 1.368 . S
C1759 H1783 0.949 . S
H1760 C1764 0.949 . S
C1761 C1762 1.349 . S
C1761 C1763 1.327 . S
C1761 H1784 0.950 . S
C1762 C1761 1.349 . S
C1762 C1774 1.349 . S
C1763 C1761 1.327 . S
C1763 C1779 1.429 . S
C1763 H1785 0.950 . S
C1764 H1760 0.949 . S
C1764 C1772 1.574 . S
C1764 C1780 1.368 . S
H1765 C1773 0.950 . S
H1766 C1771 0.950 . S
H1767 C1772 0.949 . S
H1768 C1774 0.950 . S
H1769 C1775 0.950 . S
H1770 C1776 0.949 . S
C1771 H1766 0.950 . S
C1771 C1773 1.327 . S
C1771 C1777 1.429 . S
C1772 C1764 1.574 . S
C1772 H1767 0.949 . S
C1772 C1778 1.368 . S
C1773 C1757 1.349 . S
C1773 H1765 0.950 . S
C1773 C1771 1.327 . S
C1774 C1762 1.349 . S
C1774 H1768 0.950 . S
C1774 C1775 1.327 . S
C1775 H1769 0.950 . S
C1775 C1774 1.327 . S
C1775 C1779 1.429 . S
C1776 C1759 1.574 . S
C1776 H1770 0.949 . S
C1776 C1780 1.368 . S
C1777 C1758 1.429 . S
C1777 C1771 1.429 . S
C1777 C1778 1.523 . S
C1778 C1759 1.368 . S
C1778 C1772 1.368 . S
C1778 C1777 1.523 . S
C1779 C1763 1.429 . S
C1779 C1775 1.429 . S
C1779 C1780 1.523 . S
C1780 C1764 1.368 . S
C1780 C1776 1.368 . S
C1780 C1779 1.523 . S
H1781 C1756 0.950 . S
H1782 C1758 0.950 . S
H1783 C1759 0.949 . S
H1784 C1761 0.950 . S
H1785 C1763 0.950 . S
C1786 C1787 1.349 . S
C1786 C1788 1.327 . S
C1786 H1811 0.950 . S
C1787 C1786 1.349 . S
C1787 C1803 1.349 . S
C1788 C1786 1.327 . S
C1788 C1807 1.429 . S
C1788 H1812 0.950 . S
C1789 C1806 1.574 . S
C1789 C1808 1.368 . S
C1789 H1813 0.949 . S
H1790 C1794 0.949 . S
C1791 C1792 1.349 . S
C1791 C1793 1.327 . S
C1791 H1814 0.950 . S
C1792 C1791 1.349 . S
C1792 C1804 1.349 . S
C1793 C1791 1.327 . S
C1793 C1809 1.429 . S
C1793 H1815 0.950 . S
C1794 H1790 0.949 . S
C1794 C1802 1.574 . S
C1794 C1810 1.368 . S
H1795 C1803 0.950 . S
H1796 C1801 0.950 . S
H1797 C1802 0.949 . S
H1798 C1804 0.950 . S
H1799 C1805 0.950 . S
H1800 C1806 0.949 . S
C1801 H1796 0.950 . S
C1801 C1803 1.327 . S
C1801 C1807 1.429 . S
C1802 C1794 1.574 . S
C1802 H1797 0.949 . S
C1802 C1808 1.368 . S
C1803 C1787 1.349 . S
C1803 H1795 0.950 . S
C1803 C1801 1.327 . S
C1804 C1792 1.349 . S
C1804 H1798 0.950 . S
C1804 C1805 1.327 . S
C1805 H1799 0.950 . S
C1805 C1804 1.327 . S
C1805 C1809 1.429 . S
C1806 C1789 1.574 . S
C1806 H1800 0.949 . S
C1806 C1810 1.368 . S
C1807 C1788 1.429 . S
C1807 C1801 1.429 . S
C1807 C1808 1.523 . S
C1808 C1789 1.368 . S
C1808 C1802 1.368 . S
C1808 C1807 1.523 . S
C1809 C1793 1.429 . S
C1809 C1805 1.429 . S
C1809 C1810 1.523 . S
C1810 C1794 1.368 . S
C1810 C1806 1.368 . S
C1810 C1809 1.523 . S
H1811 C1786 0.950 . S
H1812 C1788 0.950 . S
H1813 C1789 0.949 . S
H1814 C1791 0.950 . S
H1815 C1793 0.950 . S
C1816 C1817 1.349 . S
C1816 C1818 1.327 . S
C1816 H1841 0.950 . S
C1817 C1816 1.349 . S
C1817 C1833 1.349 . S
C1818 C1816 1.327 . S
C1818 C1837 1.429 . S
C1818 H1842 0.950 . S
C1819 C1836 1.574 . S
C1819 C1838 1.368 . S
C1819 H1843 0.949 . S
H1820 C1824 0.949 . S
C1821 C1822 1.349 . S
C1821 C1823 1.327 . S
C1821 H1844 0.950 . S
C1822 C1821 1.349 . S
C1822 C1834 1.349 . S
C1823 C1821 1.327 . S
C1823 C1839 1.429 . S
C1823 H1845 0.950 . S
C1824 H1820 0.949 . S
C1824 C1832 1.574 . S
C1824 C1840 1.368 . S
H1825 C1833 0.950 . S
H1826 C1831 0.950 . S
H1827 C1832 0.949 . S
H1828 C1834 0.950 . S
H1829 C1835 0.950 . S
H1830 C1836 0.949 . S
C1831 H1826 0.950 . S
C1831 C1833 1.327 . S
C1831 C1837 1.429 . S
C1832 C1824 1.574 . S
C1832 H1827 0.949 . S
C1832 C1838 1.368 . S
C1833 C1817 1.349 . S
C1833 H1825 0.950 . S
C1833 C1831 1.327 . S
C1834 C1822 1.349 . S
C1834 H1828 0.950 . S
C1834 C1835 1.327 . S
C1835 H1829 0.950 . S
C1835 C1834 1.327 . S
C1835 C1839 1.429 . S
C1836 C1819 1.574 . S
C1836 H1830 0.949 . S
C1836 C1840 1.368 . S
C1837 C1818 1.429 . S
C1837 C1831 1.429 . S
C1837 C1838 1.523 . S
C1838 C1819 1.368 . S
C1838 C1832 1.368 . S
C1838 C1837 1.523 . S
C1839 C1823 1.429 . S
C1839 C1835 1.429 . S
C1839 C1840 1.523 . S
C1840 C1824 1.368 . S
C1840 C1836 1.368 . S
C1840 C1839 1.523 . S
H1841 C1816 0.950 . S
H1842 C1818 0.950 . S
H1843 C1819 0.949 . S
H1844 C1821 0.950 . S
H1845 C1823 0.950 . S
C1846 C1847 1.349 . S
C1846 C1848 1.327 . S
C1846 H1871 0.950 . S
C1847 C1846 1.349 . S
C1847 C1863 1.349 . S
C1848 C1846 1.327 . S
C1848 C1867 1.429 . S
C1848 H1872 0.950 . S
C1849 C1866 1.574 . S
C1849 C1868 1.368 . S
C1849 H1873 0.949 . S
H1850 C1854 0.949 . S
C1851 C1852 1.349 . S
C1851 C1853 1.327 . S
C1851 H1874 0.950 . S
C1852 C1851 1.349 . S
C1852 C1864 1.349 . S
C1853 C1851 1.327 . S
C1853 C1869 1.429 . S
C1853 H1875 0.950 . S
C1854 H1850 0.949 . S
C1854 C1862 1.574 . S
C1854 C1870 1.368 . S
H1855 C1863 0.950 . S
H1856 C1861 0.950 . S
H1857 C1862 0.949 . S
H1858 C1864 0.950 . S
H1859 C1865 0.950 . S
H1860 C1866 0.949 . S
C1861 H1856 0.950 . S
C1861 C1863 1.327 . S
C1861 C1867 1.429 . S
C1862 C1854 1.574 . S
C1862 H1857 0.949 . S
C1862 C1868 1.368 . S
C1863 C1847 1.349 . S
C1863 H1855 0.950 . S
C1863 C1861 1.327 . S
C1864 C1852 1.349 . S
C1864 H1858 0.950 . S
C1864 C1865 1.327 . S
C1865 H1859 0.950 . S
C1865 C1864 1.327 . S
C1865 C1869 1.429 . S
C1866 C1849 1.574 . S
C1866 H1860 0.949 . S
C1866 C1870 1.368 . S
C1867 C1848 1.429 . S
C1867 C1861 1.429 . S
C1867 C1868 1.523 . S
C1868 C1849 1.368 . S
C1868 C1862 1.368 . S
C1868 C1867 1.523 . S
C1869 C1853 1.429 . S
C1869 C1865 1.429 . S
C1869 C1870 1.523 . S
C1870 C1854 1.368 . S
C1870 C1866 1.368 . S
C1870 C1869 1.523 . S
H1871 C1846 0.950 . S
H1872 C1848 0.950 . S
H1873 C1849 0.949 . S
H1874 C1851 0.950 . S
H1875 C1853 0.950 . S
C1876 C1877 1.349 . S
C1876 C1878 1.327 . S
C1876 H1901 0.950 . S
C1877 C1876 1.349 . S
C1877 C1893 1.349 . S
C1878 C1876 1.327 . S
C1878 C1897 1.429 . S
C1878 H1902 0.950 . S
C1879 C1896 1.574 . S
C1879 C1898 1.368 . S
C1879 H1903 0.949 . S
H1880 C1884 0.949 . S
C1881 C1882 1.349 . S
C1881 C1883 1.327 . S
C1881 H1904 0.950 . S
C1882 C1881 1.349 . S
C1882 C1894 1.349 . S
C1883 C1881 1.327 . S
C1883 C1899 1.429 . S
C1883 H1905 0.950 . S
C1884 H1880 0.949 . S
C1884 C1892 1.574 . S
C1884 C1900 1.368 . S
H1885 C1893 0.950 . S
H1886 C1891 0.950 . S
H1887 C1892 0.949 . S
H1888 C1894 0.950 . S
H1889 C1895 0.950 . S
H1890 C1896 0.949 . S
C1891 H1886 0.950 . S
C1891 C1893 1.327 . S
C1891 C1897 1.429 . S
C1892 C1884 1.574 . S
C1892 H1887 0.949 . S
C1892 C1898 1.368 . S
C1893 C1877 1.349 . S
C1893 H1885 0.950 . S
C1893 C1891 1.327 . S
C1894 C1882 1.349 . S
C1894 H1888 0.950 . S
C1894 C1895 1.327 . S
C1895 H1889 0.950 . S
C1895 C1894 1.327 . S
C1895 C1899 1.429 . S
C1896 C1879 1.574 . S
C1896 H1890 0.949 . S
C1896 C1900 1.368 . S
C1897 C1878 1.429 . S
C1897 C1891 1.429 . S
C1897 C1898 1.523 . S
C1898 C1879 1.368 . S
C1898 C1892 1.368 . S
C1898 C1897 1.523 . S
C1899 C1883 1.429 . S
C1899 C1895 1.429 . S
C1899 C1900 1.523 . S
C1900 C1884 1.368 . S
C1900 C1896 1.368 . S
C1900 C1899 1.523 . S
H1901 C1876 0.950 . S
H1902 C1878 0.950 . S
H1903 C1879 0.949 . S
H1904 C1881 0.950 . S
H1905 C1883 0.950 . S
C1906 C1907 1.349 . S
C1906 C1908 1.327 . S
C1906 H1931 0.950 . S
C1907 C1906 1.349 . S
C1907 C1923 1.349 . S
C1908 C1906 1.327 . S
C1908 C1927 1.429 . S
C1908 H1932 0.950 . S
C1909 C1926 1.574 . S
C1909 C1928 1.368 . S
C1909 H1933 0.949 . S
H1910 C1914 0.949 . S
C1911 C1912 1.349 . S
C1911 C1913 1.327 . S
C1911 H1934 0.950 . S
C1912 C1911 1.349 . S
C1912 C1924 1.349 . S
C1913 C1911 1.327 . S
C1913 C1929 1.429 . S
C1913 H1935 0.950 . S
C1914 H1910 0.949 . S
C1914 C1922 1.574 . S
C1914 C1930 1.368 . S
H1915 C1923 0.950 . S
H1916 C1921 0.950 . S
H1917 C1922 0.949 . S
H1918 C1924 0.950 . S
H1919 C1925 0.950 . S
H1920 C1926 0.949 . S
C1921 H1916 0.950 . S
C1921 C1923 1.327 . S
C1921 C1927 1.429 . S
C1922 C1914 1.574 . S
C1922 H1917 0.949 . S
C1922 C1928 1.368 . S
C1923 C1907 1.349 . S
C1923 H1915 0.950 . S
C1923 C1921 1.327 . S
C1924 C1912 1.349 . S
C1924 H1918 0.950 . S
C1924 C1925 1.327 . S
C1925 H1919 0.950 . S
C1925 C1924 1.327 . S
C1925 C1929 1.429 . S
C1926 C1909 1.574 . S
C1926 H1920 0.949 . S
C1926 C1930 1.368 . S
C1927 C1908 1.429 . S
C1927 C1921 1.429 . S
C1927 C1928 1.523 . S
C1928 C1909 1.368 . S
C1928 C1922 1.368 . S
C1928 C1927 1.523 . S
C1929 C1913 1.429 . S
C1929 C1925 1.429 . S
C1929 C1930 1.523 . S
C1930 C1914 1.368 . S
C1930 C1926 1.368 . S
C1930 C1929 1.523 . S
H1931 C1906 0.950 . S
H1932 C1908 0.950 . S
H1933 C1909 0.949 . S
H1934 C1911 0.950 . S
H1935 C1913 0.950 . S
C1936 C1937 1.349 . S
C1936 C1938 1.327 . S
C1936 H1961 0.950 . S
C1937 C1936 1.349 . S
C1937 C1953 1.349 . S
C1938 C1936 1.327 . S
C1938 C1957 1.429 . S
C1938 H1962 0.950 . S
C1939 C1956 1.574 . S
C1939 C1958 1.368 . S
C1939 H1963 0.949 . S
H1940 C1944 0.949 . S
C1941 C1942 1.349 . S
C1941 C1943 1.327 . S
C1941 H1964 0.950 . S
C1942 C1941 1.349 . S
C1942 C1954 1.349 . S
C1943 C1941 1.327 . S
C1943 C1959 1.429 . S
C1943 H1965 0.950 . S
C1944 H1940 0.949 . S
C1944 C1952 1.574 . S
C1944 C1960 1.368 . S
H1945 C1953 0.950 . S
H1946 C1951 0.950 . S
H1947 C1952 0.949 . S
H1948 C1954 0.950 . S
H1949 C1955 0.950 . S
H1950 C1956 0.949 . S
C1951 H1946 0.950 . S
C1951 C1953 1.327 . S
C1951 C1957 1.429 . S
C1952 C1944 1.574 . S
C1952 H1947 0.949 . S
C1952 C1958 1.368 . S
C1953 C1937 1.349 . S
C1953 H1945 0.950 . S
C1953 C1951 1.327 . S
C1954 C1942 1.349 . S
C1954 H1948 0.950 . S
C1954 C1955 1.327 . S
C1955 H1949 0.950 . S
C1955 C1954 1.327 . S
C1955 C1959 1.429 . S
C1956 C1939 1.574 . S
C1956 H1950 0.949 . S
C1956 C1960 1.368 . S
C1957 C1938 1.429 . S
C1957 C1951 1.429 . S
C1957 C1958 1.523 . S
C1958 C1939 1.368 . S
C1958 C1952 1.368 . S
C1958 C1957 1.523 . S
C1959 C1943 1.429 . S
C1959 C1955 1.429 . S
C1959 C1960 1.523 . S
C1960 C1944 1.368 . S
C1960 C1956 1.368 . S
C1960 C1959 1.523 . S
H1961 C1936 0.950 . S
H1962 C1938 0.950 . S
H1963 C1939 0.949 . S
H1964 C1941 0.950 . S
H1965 C1943 0.950 . S
C1966 C1967 1.349 . S
C1966 C1968 1.327 . S
C1966 H1991 0.950 . S
C1967 C1966 1.349 . S
C1967 C1983 1.349 . S
C1968 C1966 1.327 . S
C1968 C1987 1.429 . S
C1968 H1992 0.950 . S
C1969 C1986 1.574 . S
C1969 C1988 1.368 . S
C1969 H1993 0.949 . S
H1970 C1974 0.949 . S
C1971 C1972 1.349 . S
C1971 C1973 1.327 . S
C1971 H1994 0.950 . S
C1972 C1971 1.349 . S
C1972 C1984 1.349 . S
C1973 C1971 1.327 . S
C1973 C1989 1.429 . S
C1973 H1995 0.950 . S
C1974 H1970 0.949 . S
C1974 C1982 1.574 . S
C1974 C1990 1.368 . S
H1975 C1983 0.950 . S
H1976 C1981 0.950 . S
H1977 C1982 0.949 . S
H1978 C1984 0.950 . S
H1979 C1985 0.950 . S
H1980 C1986 0.949 . S
C1981 H1976 0.950 . S
C1981 C1983 1.327 . S
C1981 C1987 1.429 . S
C1982 C1974 1.574 . S
C1982 H1977 0.949 . S
C1982 C1988 1.368 . S
C1983 C1967 1.349 . S
C1983 H1975 0.950 . S
C1983 C1981 1.327 . S
C1984 C1972 1.349 . S
C1984 H1978 0.950 . S
C1984 C1985 1.327 . S
C1985 H1979 0.950 . S
C1985 C1984 1.327 . S
C1985 C1989 1.429 . S
C1986 C1969 1.574 . S
C1986 H1980 0.949 . S
C1986 C1990 1.368 . S
C1987 C1968 1.429 . S
C1987 C1981 1.429 . S
C1987 C1988 1.523 . S
C1988 C1969 1.368 . S
C1988 C1982 1.368 . S
C1988 C1987 1.523 . S
C1989 C1973 1.429 . S
C1989 C1985 1.429 . S
C1989 C1990 1.523 . S
C1990 C1974 1.368 . S
C1990 C1986 1.368 . S
C1990 C1989 1.523 . S
H1991 C1966 0.950 . S
H1992 C1968 0.950 . S
H1993 C1969 0.949 . S
H1994 C1971 0.950 . S
H1995 C1973 0.950 . S
C1996 C1997 1.349 . S
C1996 C1998 1.327 . S
C1996 H2021 0.950 . S
C1997 C1996 1.349 . S
C1997 C2013 1.349 . S
C1998 C1996 1.327 . S
C1998 C2017 1.429 . S
C1998 H2022 0.950 . S
C1999 C2016 1.574 . S
C1999 C2018 1.368 . S
C1999 H2023 0.949 . S
H2000 C2004 0.949 . S
C2001 C2002 1.349 . S
C2001 C2003 1.327 . S
C2001 H2024 0.950 . S
C2002 C2001 1.349 . S
C2002 C2014 1.349 . S
C2003 C2001 1.327 . S
C2003 C2019 1.429 . S
C2003 H2025 0.950 . S
C2004 H2000 0.949 . S
C2004 C2012 1.574 . S
C2004 C2020 1.368 . S
H2005 C2013 0.950 . S
H2006 C2011 0.950 . S
H2007 C2012 0.949 . S
H2008 C2014 0.950 . S
H2009 C2015 0.950 . S
H2010 C2016 0.949 . S
C2011 H2006 0.950 . S
C2011 C2013 1.327 . S
C2011 C2017 1.429 . S
C2012 C2004 1.574 . S
C2012 H2007 0.949 . S
C2012 C2018 1.368 . S
C2013 C1997 1.349 . S
C2013 H2005 0.950 . S
C2013 C2011 1.327 . S
C2014 C2002 1.349 . S
C2014 H2008 0.950 . S
C2014 C2015 1.327 . S
C2015 H2009 0.950 . S
C2015 C2014 1.327 . S
C2015 C2019 1.429 . S
C2016 C1999 1.574 . S
C2016 H2010 0.949 . S
C2016 C2020 1.368 . S
C2017 C1998 1.429 . S
C2017 C2011 1.429 . S
C2017 C2018 1.523 . S
C2018 C1999 1.368 . S
C2018 C2012 1.368 . S
C2018 C2017 1.523 . S
C2019 C2003 1.429 . S
C2019 C2015 1.429 . S
C2019 C2020 1.523 . S
C2020 C2004 1.368 . S
C2020 C2016 1.368 . S
C2020 C2019 1.523 . S
H2021 C1996 0.950 . S
H2022 C1998 0.950 . S
H2023 C1999 0.949 . S
H2024 C2001 0.950 . S
H2025 C2003 0.950 . S
C2026 C2027 1.349 . S
C2026 C2028 1.327 . S
C2026 H2051 0.950 . S
C2027 C2026 1.349 . S
C2027 C2043 1.349 . S
C2028 C2026 1.327 . S
C2028 C2047 1.429 . S
C2028 H2052 0.950 . S
C2029 C2046 1.574 . S
C2029 C2048 1.368 . S
C2029 H2053 0.949 . S
H2030 C2034 0.949 . S
C2031 C2032 1.349 . S
C2031 C2033 1.327 . S
C2031 H2054 0.950 . S
C2032 C2031 1.349 . S
C2032 C2044 1.349 . S
C2033 C2031 1.327 . S
C2033 C2049 1.429 . S
C2033 H2055 0.950 . S
C2034 H2030 0.949 . S
C2034 C2042 1.574 . S
C2034 C2050 1.368 . S
H2035 C2043 0.950 . S
H2036 C2041 0.950 . S
H2037 C2042 0.949 . S
H2038 C2044 0.950 . S
H2039 C2045 0.950 . S
H2040 C2046 0.949 . S
C2041 H2036 0.950 . S
C2041 C2043 1.327 . S
C2041 C2047 1.429 . S
C2042 C2034 1.574 . S
C2042 H2037 0.949 . S
C2042 C2048 1.368 . S
C2043 C2027 1.349 . S
C2043 H2035 0.950 . S
C2043 C2041 1.327 . S
C2044 C2032 1.349 . S
C2044 H2038 0.950 . S
C2044 C2045 1.327 . S
C2045 H2039 0.950 . S
C2045 C2044 1.327 . S
C2045 C2049 1.429 . S
C2046 C2029 1.574 . S
C2046 H2040 0.949 . S
C2046 C2050 1.368 . S
C2047 C2028 1.429 . S
C2047 C2041 1.429 . S
C2047 C2048 1.523 . S
C2048 C2029 1.368 . S
C2048 C2042 1.368 . S
C2048 C2047 1.523 . S
C2049 C2033 1.429 . S
C2049 C2045 1.429 . S
C2049 C2050 1.523 . S
C2050 C2034 1.368 . S
C2050 C2046 1.368 . S
C2050 C2049 1.523 . S
H2051 C2026 0.950 . S
H2052 C2028 0.950 . S
H2053 C2029 0.949 . S
H2054 C2031 0.950 . S
H2055 C2033 0.950 . S
C2056 C2057 1.349 . S
C2056 C2058 1.327 . S
C2056 H2081 0.950 . S
C2057 C2056 1.349 . S
C2057 C2073 1.349 . S
C2058 C2056 1.327 . S
C2058 C2077 1.429 . S
C2058 H2082 0.950 . S
C2059 C2076 1.574 . S
C2059 C2078 1.368 . S
C2059 H2083 0.949 . S
H2060 C2064 0.949 . S
C2061 C2062 1.349 . S
C2061 C2063 1.327 . S
C2061 H2084 0.950 . S
C2062 C2061 1.349 . S
C2062 C2074 1.349 . S
C2063 C2061 1.327 . S
C2063 C2079 1.429 . S
C2063 H2085 0.950 . S
C2064 H2060 0.949 . S
C2064 C2072 1.574 . S
C2064 C2080 1.368 . S
H2065 C2073 0.950 . S
H2066 C2071 0.950 . S
H2067 C2072 0.949 . S
H2068 C2074 0.950 . S
H2069 C2075 0.950 . S
H2070 C2076 0.949 . S
C2071 H2066 0.950 . S
C2071 C2073 1.327 . S
C2071 C2077 1.429 . S
C2072 C2064 1.574 . S
C2072 H2067 0.949 . S
C2072 C2078 1.368 . S
C2073 C2057 1.349 . S
C2073 H2065 0.950 . S
C2073 C2071 1.327 . S
C2074 C2062 1.349 . S
C2074 H2068 0.950 . S
C2074 C2075 1.327 . S
C2075 H2069 0.950 . S
C2075 C2074 1.327 . S
C2075 C2079 1.429 . S
C2076 C2059 1.574 . S
C2076 H2070 0.949 . S
C2076 C2080 1.368 . S
C2077 C2058 1.429 . S
C2077 C2071 1.429 . S
C2077 C2078 1.523 . S
C2078 C2059 1.368 . S
C2078 C2072 1.368 . S
C2078 C2077 1.523 . S
C2079 C2063 1.429 . S
C2079 C2075 1.429 . S
C2079 C2080 1.523 . S
C2080 C2064 1.368 . S
C2080 C2076 1.368 . S
C2080 C2079 1.523 . S
H2081 C2056 0.950 . S
H2082 C2058 0.950 . S
H2083 C2059 0.949 . S
H2084 C2061 0.950 . S
H2085 C2063 0.950 . S
C2086 C2087 1.349 . S
C2086 C2088 1.327 . S
C2086 H2111 0.950 . S
C2087 C2086 1.349 . S
C2087 C2103 1.349 . S
C2088 C2086 1.327 . S
C2088 C2107 1.429 . S
C2088 H2112 0.950 . S
C2089 C2106 1.574 . S
C2089 C2108 1.368 . S
C2089 H2113 0.949 . S
H2090 C2094 0.949 . S
C2091 C2092 1.349 . S
C2091 C2093 1.327 . S
C2091 H2114 0.950 . S
C2092 C2091 1.349 . S
C2092 C2104 1.349 . S
C2093 C2091 1.327 . S
C2093 C2109 1.429 . S
C2093 H2115 0.950 . S
C2094 H2090 0.949 . S
C2094 C2102 1.574 . S
C2094 C2110 1.368 . S
H2095 C2103 0.950 . S
H2096 C2101 0.950 . S
H2097 C2102 0.949 . S
H2098 C2104 0.950 . S
H2099 C2105 0.950 . S
H2100 C2106 0.949 . S
C2101 H2096 0.950 . S
C2101 C2103 1.327 . S
C2101 C2107 1.429 . S
C2102 C2094 1.574 . S
C2102 H2097 0.949 . S
C2102 C2108 1.368 . S
C2103 C2087 1.349 . S
C2103 H2095 0.950 . S
C2103 C2101 1.327 . S
C2104 C2092 1.349 . S
C2104 H2098 0.950 . S
C2104 C2105 1.327 . S
C2105 H2099 0.950 . S
C2105 C2104 1.327 . S
C2105 C2109 1.429 . S
C2106 C2089 1.574 . S
C2106 H2100 0.949 . S
C2106 C2110 1.368 . S
C2107 C2088 1.429 . S
C2107 C2101 1.429 . S
C2107 C2108 1.523 . S
C2108 C2089 1.368 . S
C2108 C2102 1.368 . S
C2108 C2107 1.523 . S
C2109 C2093 1.429 . S
C2109 C2105 1.429 . S
C2109 C2110 1.523 . S
C2110 C2094 1.368 . S
C2110 C2106 1.368 . S
C2110 C2109 1.523 . S
H2111 C2086 0.950 . S
H2112 C2088 0.950 . S
H2113 C2089 0.949 . S
H2114 C2091 0.950 . S
H2115 C2093 0.950 . S
C2116 C2117 1.349 . S
C2116 C2118 1.327 . S
C2116 H2141 0.950 . S
C2117 C2116 1.349 . S
C2117 C2133 1.349 . S
C2118 C2116 1.327 . S
C2118 C2137 1.429 . S
C2118 H2142 0.950 . S
C2119 C2136 1.574 . S
C2119 C2138 1.368 . S
C2119 H2143 0.949 . S
H2120 C2124 0.949 . S
C2121 C2122 1.349 . S
C2121 C2123 1.327 . S
C2121 H2144 0.950 . S
C2122 C2121 1.349 . S
C2122 C2134 1.349 . S
C2123 C2121 1.327 . S
C2123 C2139 1.429 . S
C2123 H2145 0.950 . S
C2124 H2120 0.949 . S
C2124 C2132 1.574 . S
C2124 C2140 1.368 . S
H2125 C2133 0.950 . S
H2126 C2131 0.950 . S
H2127 C2132 0.949 . S
H2128 C2134 0.950 . S
H2129 C2135 0.950 . S
H2130 C2136 0.949 . S
C2131 H2126 0.950 . S
C2131 C2133 1.327 . S
C2131 C2137 1.429 . S
C2132 C2124 1.574 . S
C2132 H2127 0.949 . S
C2132 C2138 1.368 . S
C2133 C2117 1.349 . S
C2133 H2125 0.950 . S
C2133 C2131 1.327 . S
C2134 C2122 1.349 . S
C2134 H2128 0.950 . S
C2134 C2135 1.327 . S
C2135 H2129 0.950 . S
C2135 C2134 1.327 . S
C2135 C2139 1.429 . S
C2136 C2119 1.574 . S
C2136 H2130 0.949 . S
C2136 C2140 1.368 . S
C2137 C2118 1.429 . S
C2137 C2131 1.429 . S
C2137 C2138 1.523 . S
C2138 C2119 1.368 . S
C2138 C2132 1.368 . S
C2138 C2137 1.523 . S
C2139 C2123 1.429 . S
C2139 C2135 1.429 . S
C2139 C2140 1.523 . S
C2140 C2124 1.368 . S
C2140 C2136 1.368 . S
C2140 C2139 1.523 . S
H2141 C2116 0.950 . S
H2142 C2118 0.950 . S
H2143 C2119 0.949 . S
H2144 C2121 0.950 . S
H2145 C2123 0.950 . S
C2146 C2147 1.349 . S
C2146 C2148 1.327 . S
C2146 H2171 0.950 . S
C2147 C2146 1.349 . S
C2147 C2163 1.349 . S
C2148 C2146 1.327 . S
C2148 C2167 1.429 . S
C2148 H2172 0.950 . S
C2149 C2166 1.574 . S
C2149 C2168 1.368 . S
C2149 H2173 0.949 . S
H2150 C2154 0.949 . S
C2151 C2152 1.349 . S
C2151 C2153 1.327 . S
C2151 H2174 0.950 . S
C2152 C2151 1.349 . S
C2152 C2164 1.349 . S
C2153 C2151 1.327 . S
C2153 C2169 1.429 . S
C2153 H2175 0.950 . S
C2154 H2150 0.949 . S
C2154 C2162 1.574 . S
C2154 C2170 1.368 . S
H2155 C2163 0.950 . S
H2156 C2161 0.950 . S
H2157 C2162 0.949 . S
H2158 C2164 0.950 . S
H2159 C2165 0.950 . S
H2160 C2166 0.949 . S
C2161 H2156 0.950 . S
C2161 C2163 1.327 . S
C2161 C2167 1.429 . S
C2162 C2154 1.574 . S
C2162 H2157 0.949 . S
C2162 C2168 1.368 . S
C2163 C2147 1.349 . S
C2163 H2155 0.950 . S
C2163 C2161 1.327 . S
C2164 C2152 1.349 . S
C2164 H2158 0.950 . S
C2164 C2165 1.327 . S
C2165 H2159 0.950 . S
C2165 C2164 1.327 . S
C2165 C2169 1.429 . S
C2166 C2149 1.574 . S
C2166 H2160 0.949 . S
C2166 C2170 1.368 . S
C2167 C2148 1.429 . S
C2167 C2161 1.429 . S
C2167 C2168 1.523 . S
C2168 C2149 1.368 . S
C2168 C2162 1.368 . S
C2168 C2167 1.523 . S
C2169 C2153 1.429 . S
C2169 C2165 1.429 . S
C2169 C2170 1.523 . S
C2170 C2154 1.368 . S
C2170 C2166 1.368 . S
C2170 C2169 1.523 . S
H2171 C2146 0.950 . S
H2172 C2148 0.950 . S
H2173 C2149 0.949 . S
H2174 C2151 0.950 . S
H2175 C2153 0.950 . S
C2176 C2177 1.349 . S
C2176 C2178 1.327 . S
C2176 H2201 0.950 . S
C2177 C2176 1.349 . S
C2177 C2193 1.349 . S
C2178 C2176 1.327 . S
C2178 C2197 1.429 . S
C2178 H2202 0.950 . S
C2179 C2196 1.574 . S
C2179 C2198 1.368 . S
C2179 H2203 0.949 . S
H2180 C2184 0.949 . S
C2181 C2182 1.349 . S
C2181 C2183 1.327 . S
C2181 H2204 0.950 . S
C2182 C2181 1.349 . S
C2182 C2194 1.349 . S
C2183 C2181 1.327 . S
C2183 C2199 1.429 . S
C2183 H2205 0.950 . S
C2184 H2180 0.949 . S
C2184 C2192 1.574 . S
C2184 C2200 1.368 . S
H2185 C2193 0.950 . S
H2186 C2191 0.950 . S
H2187 C2192 0.949 . S
H2188 C2194 0.950 . S
H2189 C2195 0.950 . S
H2190 C2196 0.949 . S
C2191 H2186 0.950 . S
C2191 C2193 1.327 . S
C2191 C2197 1.429 . S
C2192 C2184 1.574 . S
C2192 H2187 0.949 . S
C2192 C2198 1.368 . S
C2193 C2177 1.349 . S
C2193 H2185 0.950 . S
C2193 C2191 1.327 . S
C2194 C2182 1.349 . S
C2194 H2188 0.950 . S
C2194 C2195 1.327 . S
C2195 H2189 0.950 . S
C2195 C2194 1.327 . S
C2195 C2199 1.429 . S
C2196 C2179 1.574 . S
C2196 H2190 0.949 . S
C2196 C2200 1.368 . S
C2197 C2178 1.429 . S
C2197 C2191 1.429 . S
C2197 C2198 1.523 . S
C2198 C2179 1.368 . S
C2198 C2192 1.368 . S
C2198 C2197 1.523 . S
C2199 C2183 1.429 . S
C2199 C2195 1.429 . S
C2199 C2200 1.523 . S
C2200 C2184 1.368 . S
C2200 C2196 1.368 . S
C2200 C2199 1.523 . S
H2201 C2176 0.950 . S
H2202 C2178 0.950 . S
H2203 C2179 0.949 . S
H2204 C2181 0.950 . S
H2205 C2183 0.950 . S
C2206 C2207 1.349 . S
C2206 C2208 1.327 . S
C2206 H2231 0.950 . S
C2207 C2206 1.349 . S
C2207 C2223 1.349 . S
C2208 C2206 1.327 . S
C2208 C2227 1.429 . S
C2208 H2232 0.950 . S
C2209 C2226 1.574 . S
C2209 C2228 1.368 . S
C2209 H2233 0.949 . S
H2210 C2214 0.949 . S
C2211 C2212 1.349 . S
C2211 C2213 1.327 . S
C2211 H2234 0.950 . S
C2212 C2211 1.349 . S
C2212 C2224 1.349 . S
C2213 C2211 1.327 . S
C2213 C2229 1.429 . S
C2213 H2235 0.950 . S
C2214 H2210 0.949 . S
C2214 C2222 1.574 . S
C2214 C2230 1.368 . S
H2215 C2223 0.950 . S
H2216 C2221 0.950 . S
H2217 C2222 0.949 . S
H2218 C2224 0.950 . S
H2219 C2225 0.950 . S
H2220 C2226 0.949 . S
C2221 H2216 0.950 . S
C2221 C2223 1.327 . S
C2221 C2227 1.429 . S
C2222 C2214 1.574 . S
C2222 H2217 0.949 . S
C2222 C2228 1.368 . S
C2223 C2207 1.349 . S
C2223 H2215 0.950 . S
C2223 C2221 1.327 . S
C2224 C2212 1.349 . S
C2224 H2218 0.950 . S
C2224 C2225 1.327 . S
C2225 H2219 0.950 . S
C2225 C2224 1.327 . S
C2225 C2229 1.429 . S
C2226 C2209 1.574 . S
C2226 H2220 0.949 . S
C2226 C2230 1.368 . S
C2227 C2208 1.429 . S
C2227 C2221 1.429 . S
C2227 C2228 1.523 . S
C2228 C2209 1.368 . S
C2228 C2222 1.368 . S
C2228 C2227 1.523 . S
C2229 C2213 1.429 . S
C2229 C2225 1.429 . S
C2229 C2230 1.523 . S
C2230 C2214 1.368 . S
C2230 C2226 1.368 . S
C2230 C2229 1.523 . S
H2231 C2206 0.950 . S
H2232 C2208 0.950 . S
H2233 C2209 0.949 . S
H2234 C2211 0.950 . S
H2235 C2213 0.950 . S
C2236 C2237 1.349 . S
C2236 C2238 1.327 . S
C2236 H2261 0.950 . S
C2237 C2236 1.349 . S
C2237 C2253 1.349 1_556 S
C2238 C2236 1.327 . S
C2238 C2257 1.429 . S
C2238 H2262 0.950 . S
C2239 C2256 1.574 . S
C2239 C2258 1.368 1_554 S
C2239 H2263 0.949 . S
H2240 C2244 0.949 . S
C2241 C2242 1.349 1_554 S
C2241 C2243 1.327 . S
C2241 H2264 0.950 . S
C2242 C2241 1.349 1_556 S
C2242 C2254 1.349 . S
C2243 C2241 1.327 . S
C2243 C2259 1.429 1_554 S
C2243 H2265 0.950 . S
C2244 H2240 0.949 . S
C2244 C2252 1.574 . S
C2244 C2260 1.368 . S
H2245 C2253 0.950 . S
H2246 C2251 0.950 . S
H2247 C2252 0.949 . S
H2248 C2254 0.950 . S
H2249 C2255 0.950 . S
H2250 C2256 0.949 . S
C2251 H2246 0.950 . S
C2251 C2253 1.327 . S
C2251 C2257 1.429 1_554 S
C2252 C2244 1.574 . S
C2252 H2247 0.949 . S
C2252 C2258 1.368 . S
C2253 C2237 1.349 1_554 S
C2253 H2245 0.950 . S
C2253 C2251 1.327 . S
C2254 C2242 1.349 . S
C2254 H2248 0.950 . S
C2254 C2255 1.327 . S
C2255 H2249 0.950 . S
C2255 C2254 1.327 . S
C2255 C2259 1.429 . S
C2256 C2239 1.574 . S
C2256 H2250 0.949 . S
C2256 C2260 1.368 1_554 S
C2257 C2238 1.429 . S
C2257 C2251 1.429 1_556 S
C2257 C2258 1.523 . S
C2258 C2239 1.368 1_556 S
C2258 C2252 1.368 . S
C2258 C2257 1.523 . S
C2259 C2243 1.429 1_556 S
C2259 C2255 1.429 . S
C2259 C2260 1.523 . S
C2260 C2244 1.368 . S
C2260 C2256 1.368 1_556 S
C2260 C2259 1.523 . S
H2261 C2236 0.950 . S
H2262 C2238 0.950 . S
H2263 C2239 0.949 . S
H2264 C2241 0.950 . S
H2265 C2243 0.950 . S
C2266 C2267 1.349 1_554 S
C2266 C2268 1.327 . S
C2266 H2291 0.950 . S
C2267 C2266 1.349 1_556 S
C2267 C2283 1.349 . S
C2268 C2266 1.327 . S
C2268 C2287 1.429 1_554 S
C2268 H2292 0.950 . S
C2269 C2286 1.574 . S
C2269 C2288 1.368 . S
C2269 H2293 0.949 . S
H2270 C2274 0.949 . S
C2271 C2272 1.349 . S
C2271 C2273 1.327 . S
C2271 H2294 0.950 . S
C2272 C2271 1.349 . S
C2272 C2284 1.349 1_556 S
C2273 C2271 1.327 . S
C2273 C2289 1.429 . S
C2273 H2295 0.950 . S
C2274 H2270 0.949 . S
C2274 C2282 1.574 . S
C2274 C2290 1.368 1_554 S
H2275 C2283 0.950 . S
H2276 C2281 0.950 . S
H2277 C2282 0.949 . S
H2278 C2284 0.950 . S
H2279 C2285 0.950 . S
H2280 C2286 0.949 . S
C2281 H2276 0.950 . S
C2281 C2283 1.327 . S
C2281 C2287 1.429 . S
C2282 C2274 1.574 . S
C2282 H2277 0.949 . S
C2282 C2288 1.368 1_554 S
C2283 C2267 1.349 . S
C2283 H2275 0.950 . S
C2283 C2281 1.327 . S
C2284 C2272 1.349 1_554 S
C2284 H2278 0.950 . S
C2284 C2285 1.327 . S
C2285 H2279 0.950 . S
C2285 C2284 1.327 . S
C2285 C2289 1.429 1_554 S
C2286 C2269 1.574 . S
C2286 H2280 0.949 . S
C2286 C2290 1.368 . S
C2287 C2268 1.429 1_556 S
C2287 C2281 1.429 . S
C2287 C2288 1.523 . S
C2288 C2269 1.368 . S
C2288 C2282 1.368 1_556 S
C2288 C2287 1.523 . S
C2289 C2273 1.429 . S
C2289 C2285 1.429 1_556 S
C2289 C2290 1.523 . S
C2290 C2274 1.368 1_556 S
C2290 C2286 1.368 . S
C2290 C2289 1.523 . S
H2291 C2266 0.950 . S
H2292 C2268 0.950 . S
H2293 C2269 0.949 . S
H2294 C2271 0.950 . S
H2295 C2273 0.950 . S
C2296 C2297 1.349 . S
C2296 C2298 1.327 . S
C2296 H2321 0.950 . S
C2297 C2296 1.349 . S
C2297 C2313 1.349 . S
C2298 C2296 1.327 . S
C2298 C2317 1.429 . S
C2298 H2322 0.950 . S
C2299 C2316 1.574 . S
C2299 C2318 1.368 . S
C2299 H2323 0.949 . S
H2300 C2304 0.949 . S
C2301 C2302 1.349 . S
C2301 C2303 1.327 . S
C2301 H2324 0.950 . S
C2302 C2301 1.349 . S
C2302 C2314 1.349 . S
C2303 C2301 1.327 . S
C2303 C2319 1.429 . S
C2303 H2325 0.950 . S
C2304 H2300 0.949 . S
C2304 C2312 1.574 . S
C2304 C2320 1.368 . S
H2305 C2313 0.950 . S
H2306 C2311 0.950 . S
H2307 C2312 0.949 . S
H2308 C2314 0.950 . S
H2309 C2315 0.950 . S
H2310 C2316 0.949 . S
C2311 H2306 0.950 . S
C2311 C2313 1.327 . S
C2311 C2317 1.429 . S
C2312 C2304 1.574 . S
C2312 H2307 0.949 . S
C2312 C2318 1.368 . S
C2313 C2297 1.349 . S
C2313 H2305 0.950 . S
C2313 C2311 1.327 . S
C2314 C2302 1.349 . S
C2314 H2308 0.950 . S
C2314 C2315 1.327 . S
C2315 H2309 0.950 . S
C2315 C2314 1.327 . S
C2315 C2319 1.429 . S
C2316 C2299 1.574 . S
C2316 H2310 0.949 . S
C2316 C2320 1.368 . S
C2317 C2298 1.429 . S
C2317 C2311 1.429 . S
C2317 C2318 1.523 . S
C2318 C2299 1.368 . S
C2318 C2312 1.368 . S
C2318 C2317 1.523 . S
C2319 C2303 1.429 . S
C2319 C2315 1.429 . S
C2319 C2320 1.523 . S
C2320 C2304 1.368 . S
C2320 C2316 1.368 . S
C2320 C2319 1.523 . S
H2321 C2296 0.950 . S
H2322 C2298 0.950 . S
H2323 C2299 0.949 . S
H2324 C2301 0.950 . S
H2325 C2303 0.950 . S
C2326 C2327 1.349 . S
C2326 C2328 1.327 . S
C2326 H2351 0.950 . S
C2327 C2326 1.349 . S
C2327 C2343 1.349 . S
C2328 C2326 1.327 . S
C2328 C2347 1.429 . S
C2328 H2352 0.950 . S
C2329 C2346 1.574 . S
C2329 C2348 1.368 . S
C2329 H2353 0.949 . S
H2330 C2334 0.949 . S
C2331 C2332 1.349 . S
C2331 C2333 1.327 . S
C2331 H2354 0.950 . S
C2332 C2331 1.349 . S
C2332 C2344 1.349 . S
C2333 C2331 1.327 . S
C2333 C2349 1.429 . S
C2333 H2355 0.950 . S
C2334 H2330 0.949 . S
C2334 C2342 1.574 . S
C2334 C2350 1.368 . S
H2335 C2343 0.950 . S
H2336 C2341 0.950 . S
H2337 C2342 0.949 . S
H2338 C2344 0.950 . S
H2339 C2345 0.950 . S
H2340 C2346 0.949 . S
C2341 H2336 0.950 . S
C2341 C2343 1.327 . S
C2341 C2347 1.429 . S
C2342 C2334 1.574 . S
C2342 H2337 0.949 . S
C2342 C2348 1.368 . S
C2343 C2327 1.349 . S
C2343 H2335 0.950 . S
C2343 C2341 1.327 . S
C2344 C2332 1.349 . S
C2344 H2338 0.950 . S
C2344 C2345 1.327 . S
C2345 H2339 0.950 . S
C2345 C2344 1.327 . S
C2345 C2349 1.429 . S
C2346 C2329 1.574 . S
C2346 H2340 0.949 . S
C2346 C2350 1.368 . S
C2347 C2328 1.429 . S
C2347 C2341 1.429 . S
C2347 C2348 1.523 . S
C2348 C2329 1.368 . S
C2348 C2342 1.368 . S
C2348 C2347 1.523 . S
C2349 C2333 1.429 . S
C2349 C2345 1.429 . S
C2349 C2350 1.523 . S
C2350 C2334 1.368 . S
C2350 C2346 1.368 . S
C2350 C2349 1.523 . S
H2351 C2326 0.950 . S
H2352 C2328 0.950 . S
H2353 C2329 0.949 . S
H2354 C2331 0.950 . S
H2355 C2333 0.950 . S
C2356 C2357 1.349 . S
C2356 C2358 1.327 . S
C2356 H2381 0.950 . S
C2357 C2356 1.349 . S
C2357 C2373 1.349 1_554 S
C2358 C2356 1.327 . S
C2358 C2377 1.429 . S
C2358 H2382 0.950 . S
C2359 C2376 1.574 . S
C2359 C2378 1.368 1_556 S
C2359 H2383 0.949 . S
H2360 C2364 0.949 . S
C2361 C2362 1.349 1_556 S
C2361 C2363 1.327 . S
C2361 H2384 0.950 . S
C2362 C2361 1.349 1_554 S
C2362 C2374 1.349 . S
C2363 C2361 1.327 . S
C2363 C2379 1.429 1_556 S
C2363 H2385 0.950 . S
C2364 H2360 0.949 . S
C2364 C2372 1.574 . S
C2364 C2380 1.368 . S
H2365 C2373 0.950 . S
H2366 C2371 0.950 . S
H2367 C2372 0.949 . S
H2368 C2374 0.950 . S
H2369 C2375 0.950 . S
H2370 C2376 0.949 . S
C2371 H2366 0.950 . S
C2371 C2373 1.327 . S
C2371 C2377 1.429 1_556 S
C2372 C2364 1.574 . S
C2372 H2367 0.949 . S
C2372 C2378 1.368 . S
C2373 C2357 1.349 1_556 S
C2373 H2365 0.950 . S
C2373 C2371 1.327 . S
C2374 C2362 1.349 . S
C2374 H2368 0.950 . S
C2374 C2375 1.327 . S
C2375 H2369 0.950 . S
C2375 C2374 1.327 . S
C2375 C2379 1.429 . S
C2376 C2359 1.574 . S
C2376 H2370 0.949 . S
C2376 C2380 1.368 1_556 S
C2377 C2358 1.429 . S
C2377 C2371 1.429 1_554 S
C2377 C2378 1.523 . S
C2378 C2359 1.368 1_554 S
C2378 C2372 1.368 . S
C2378 C2377 1.523 . S
C2379 C2363 1.429 1_554 S
C2379 C2375 1.429 . S
C2379 C2380 1.523 . S
C2380 C2364 1.368 . S
C2380 C2376 1.368 1_554 S
C2380 C2379 1.523 . S
H2381 C2356 0.950 . S
H2382 C2358 0.950 . S
H2383 C2359 0.949 . S
H2384 C2361 0.950 . S
H2385 C2363 0.950 . S
C2386 C2387 1.349 1_556 S
C2386 C2388 1.327 . S
C2386 H2411 0.950 . S
C2387 C2386 1.349 1_554 S
C2387 C2403 1.349 . S
C2388 C2386 1.327 . S
C2388 C2407 1.429 1_556 S
C2388 H2412 0.950 . S
C2389 C2406 1.574 . S
C2389 C2408 1.368 . S
C2389 H2413 0.949 . S
H2390 C2394 0.949 . S
C2391 C2392 1.349 . S
C2391 C2393 1.327 . S
C2391 H2414 0.950 . S
C2392 C2391 1.349 . S
C2392 C2404 1.349 1_554 S
C2393 C2391 1.327 . S
C2393 C2409 1.429 . S
C2393 H2415 0.950 . S
C2394 H2390 0.949 . S
C2394 C2402 1.574 . S
C2394 C2410 1.368 1_556 S
H2395 C2403 0.950 . S
H2396 C2401 0.950 . S
H2397 C2402 0.949 . S
H2398 C2404 0.950 . S
H2399 C2405 0.950 . S
H2400 C2406 0.949 . S
C2401 H2396 0.950 . S
C2401 C2403 1.327 . S
C2401 C2407 1.429 . S
C2402 C2394 1.574 . S
C2402 H2397 0.949 . S
C2402 C2408 1.368 1_556 S
C2403 C2387 1.349 . S
C2403 H2395 0.950 . S
C2403 C2401 1.327 . S
C2404 C2392 1.349 1_556 S
C2404 H2398 0.950 . S
C2404 C2405 1.327 . S
C2405 H2399 0.950 . S
C2405 C2404 1.327 . S
C2405 C2409 1.429 1_556 S
C2406 C2389 1.574 . S
C2406 H2400 0.949 . S
C2406 C2410 1.368 . S
C2407 C2388 1.429 1_554 S
C2407 C2401 1.429 . S
C2407 C2408 1.523 . S
C2408 C2389 1.368 . S
C2408 C2402 1.368 1_554 S
C2408 C2407 1.523 . S
C2409 C2393 1.429 . S
C2409 C2405 1.429 1_554 S
C2409 C2410 1.523 . S
C2410 C2394 1.368 1_554 S
C2410 C2406 1.368 . S
C2410 C2409 1.523 . S
H2411 C2386 0.950 . S
H2412 C2388 0.950 . S
H2413 C2389 0.949 . S
H2414 C2391 0.950 . S
H2415 C2393 0.950 . S
C2416 C2417 1.349 . S
C2416 C2418 1.327 . S
C2416 H2441 0.950 . S
C2417 C2416 1.349 . S
C2417 C2433 1.349 . S
C2418 C2416 1.327 . S
C2418 C2437 1.429 . S
C2418 H2442 0.950 . S
C2419 C2436 1.574 . S
C2419 C2438 1.368 . S
C2419 H2443 0.949 . S
H2420 C2424 0.949 . S
C2421 C2422 1.349 . S
C2421 C2423 1.327 . S
C2421 H2444 0.950 . S
C2422 C2421 1.349 . S
C2422 C2434 1.349 . S
C2423 C2421 1.327 . S
C2423 C2439 1.429 . S
C2423 H2445 0.950 . S
C2424 H2420 0.949 . S
C2424 C2432 1.574 . S
C2424 C2440 1.368 . S
H2425 C2433 0.950 . S
H2426 C2431 0.950 . S
H2427 C2432 0.949 . S
H2428 C2434 0.950 . S
H2429 C2435 0.950 . S
H2430 C2436 0.949 . S
C2431 H2426 0.950 . S
C2431 C2433 1.327 . S
C2431 C2437 1.429 . S
C2432 C2424 1.574 . S
C2432 H2427 0.949 . S
C2432 C2438 1.368 . S
C2433 C2417 1.349 . S
C2433 H2425 0.950 . S
C2433 C2431 1.327 . S
C2434 C2422 1.349 . S
C2434 H2428 0.950 . S
C2434 C2435 1.327 . S
C2435 H2429 0.950 . S
C2435 C2434 1.327 . S
C2435 C2439 1.429 . S
C2436 C2419 1.574 . S
C2436 H2430 0.949 . S
C2436 C2440 1.368 . S
C2437 C2418 1.429 . S
C2437 C2431 1.429 . S
C2437 C2438 1.523 . S
C2438 C2419 1.368 . S
C2438 C2432 1.368 . S
C2438 C2437 1.523 . S
C2439 C2423 1.429 . S
C2439 C2435 1.429 . S
C2439 C2440 1.523 . S
C2440 C2424 1.368 . S
C2440 C2436 1.368 . S
C2440 C2439 1.523 . S
H2441 C2416 0.950 . S
H2442 C2418 0.950 . S
H2443 C2419 0.949 . S
H2444 C2421 0.950 . S
H2445 C2423 0.950 . S
C2446 C2447 1.349 . S
C2446 C2448 1.327 . S
C2446 H2471 0.950 . S
C2447 C2446 1.349 . S
C2447 C2463 1.349 . S
C2448 C2446 1.327 . S
C2448 C2467 1.429 . S
C2448 H2472 0.950 . S
C2449 C2466 1.574 . S
C2449 C2468 1.368 . S
C2449 H2473 0.949 . S
H2450 C2454 0.949 . S
C2451 C2452 1.349 . S
C2451 C2453 1.327 . S
C2451 H2474 0.950 . S
C2452 C2451 1.349 . S
C2452 C2464 1.349 . S
C2453 C2451 1.327 . S
C2453 C2469 1.429 . S
C2453 H2475 0.950 . S
C2454 H2450 0.949 . S
C2454 C2462 1.574 . S
C2454 C2470 1.368 . S
H2455 C2463 0.950 . S
H2456 C2461 0.950 . S
H2457 C2462 0.949 . S
H2458 C2464 0.950 . S
H2459 C2465 0.950 . S
H2460 C2466 0.949 . S
C2461 H2456 0.950 . S
C2461 C2463 1.327 . S
C2461 C2467 1.429 . S
C2462 C2454 1.574 . S
C2462 H2457 0.949 . S
C2462 C2468 1.368 . S
C2463 C2447 1.349 . S
C2463 H2455 0.950 . S
C2463 C2461 1.327 . S
C2464 C2452 1.349 . S
C2464 H2458 0.950 . S
C2464 C2465 1.327 . S
C2465 H2459 0.950 . S
C2465 C2464 1.327 . S
C2465 C2469 1.429 . S
C2466 C2449 1.574 . S
C2466 H2460 0.949 . S
C2466 C2470 1.368 . S
C2467 C2448 1.429 . S
C2467 C2461 1.429 . S
C2467 C2468 1.523 . S
C2468 C2449 1.368 . S
C2468 C2462 1.368 . S
C2468 C2467 1.523 . S
C2469 C2453 1.429 . S
C2469 C2465 1.429 . S
C2469 C2470 1.523 . S
C2470 C2454 1.368 . S
C2470 C2466 1.368 . S
C2470 C2469 1.523 . S
H2471 C2446 0.950 . S
H2472 C2448 0.950 . S
H2473 C2449 0.949 . S
H2474 C2451 0.950 . S
H2475 C2453 0.950 . S
C2476 C2477 1.349 . S
C2476 C2478 1.327 . S
C2476 H2501 0.950 . S
C2477 C2476 1.349 . S
C2477 C2493 1.349 . S
C2478 C2476 1.327 . S
C2478 C2497 1.429 . S
C2478 H2502 0.950 . S
C2479 C2496 1.574 . S
C2479 C2498 1.368 . S
C2479 H2503 0.949 . S
H2480 C2484 0.949 . S
C2481 C2482 1.349 . S
C2481 C2483 1.327 . S
C2481 H2504 0.950 . S
C2482 C2481 1.349 . S
C2482 C2494 1.349 . S
C2483 C2481 1.327 . S
C2483 C2499 1.429 . S
C2483 H2505 0.950 . S
C2484 H2480 0.949 . S
C2484 C2492 1.574 . S
C2484 C2500 1.368 . S
H2485 C2493 0.950 . S
H2486 C2491 0.950 . S
H2487 C2492 0.949 . S
H2488 C2494 0.950 . S
H2489 C2495 0.950 . S
H2490 C2496 0.949 . S
C2491 H2486 0.950 . S
C2491 C2493 1.327 . S
C2491 C2497 1.429 . S
C2492 C2484 1.574 . S
C2492 H2487 0.949 . S
C2492 C2498 1.368 . S
C2493 C2477 1.349 . S
C2493 H2485 0.950 . S
C2493 C2491 1.327 . S
C2494 C2482 1.349 . S
C2494 H2488 0.950 . S
C2494 C2495 1.327 . S
C2495 H2489 0.950 . S
C2495 C2494 1.327 . S
C2495 C2499 1.429 . S
C2496 C2479 1.574 . S
C2496 H2490 0.949 . S
C2496 C2500 1.368 . S
C2497 C2478 1.429 . S
C2497 C2491 1.429 . S
C2497 C2498 1.523 . S
C2498 C2479 1.368 . S
C2498 C2492 1.368 . S
C2498 C2497 1.523 . S
C2499 C2483 1.429 . S
C2499 C2495 1.429 . S
C2499 C2500 1.523 . S
C2500 C2484 1.368 . S
C2500 C2496 1.368 . S
C2500 C2499 1.523 . S
H2501 C2476 0.950 . S
H2502 C2478 0.950 . S
H2503 C2479 0.949 . S
H2504 C2481 0.950 . S
H2505 C2483 0.950 . S
C2506 C2507 1.349 . S
C2506 C2508 1.327 . S
C2506 H2531 0.950 . S
C2507 C2506 1.349 . S
C2507 C2523 1.349 . S
C2508 C2506 1.327 . S
C2508 C2527 1.429 . S
C2508 H2532 0.950 . S
C2509 C2526 1.574 . S
C2509 C2528 1.368 . S
C2509 H2533 0.949 . S
H2510 C2514 0.949 . S
C2511 C2512 1.349 . S
C2511 C2513 1.327 . S
C2511 H2534 0.950 . S
C2512 C2511 1.349 . S
C2512 C2524 1.349 . S
C2513 C2511 1.327 . S
C2513 C2529 1.429 . S
C2513 H2535 0.950 . S
C2514 H2510 0.949 . S
C2514 C2522 1.574 . S
C2514 C2530 1.368 . S
H2515 C2523 0.950 . S
H2516 C2521 0.950 . S
H2517 C2522 0.949 . S
H2518 C2524 0.950 . S
H2519 C2525 0.950 . S
H2520 C2526 0.949 . S
C2521 H2516 0.950 . S
C2521 C2523 1.327 . S
C2521 C2527 1.429 . S
C2522 C2514 1.574 . S
C2522 H2517 0.949 . S
C2522 C2528 1.368 . S
C2523 C2507 1.349 . S
C2523 H2515 0.950 . S
C2523 C2521 1.327 . S
C2524 C2512 1.349 . S
C2524 H2518 0.950 . S
C2524 C2525 1.327 . S
C2525 H2519 0.950 . S
C2525 C2524 1.327 . S
C2525 C2529 1.429 . S
C2526 C2509 1.574 . S
C2526 H2520 0.949 . S
C2526 C2530 1.368 . S
C2527 C2508 1.429 . S
C2527 C2521 1.429 . S
C2527 C2528 1.523 . S
C2528 C2509 1.368 . S
C2528 C2522 1.368 . S
C2528 C2527 1.523 . S
C2529 C2513 1.429 . S
C2529 C2525 1.429 . S
C2529 C2530 1.523 . S
C2530 C2514 1.368 . S
C2530 C2526 1.368 . S
C2530 C2529 1.523 . S
H2531 C2506 0.950 . S
H2532 C2508 0.950 . S
H2533 C2509 0.949 . S
H2534 C2511 0.950 . S
H2535 C2513 0.950 . S
C2536 C2537 1.349 . S
C2536 C2538 1.327 . S
C2536 H2561 0.950 . S
C2537 C2536 1.349 . S
C2537 C2553 1.349 . S
C2538 C2536 1.327 . S
C2538 C2557 1.429 . S
C2538 H2562 0.950 . S
C2539 C2556 1.574 . S
C2539 C2558 1.368 . S
C2539 H2563 0.949 . S
H2540 C2544 0.949 . S
C2541 C2542 1.349 . S
C2541 C2543 1.327 . S
C2541 H2564 0.950 . S
C2542 C2541 1.349 . S
C2542 C2554 1.349 . S
C2543 C2541 1.327 . S
C2543 C2559 1.429 . S
C2543 H2565 0.950 . S
C2544 H2540 0.949 . S
C2544 C2552 1.574 . S
C2544 C2560 1.368 . S
H2545 C2553 0.950 . S
H2546 C2551 0.950 . S
H2547 C2552 0.949 . S
H2548 C2554 0.950 . S
H2549 C2555 0.950 . S
H2550 C2556 0.949 . S
C2551 H2546 0.950 . S
C2551 C2553 1.327 . S
C2551 C2557 1.429 . S
C2552 C2544 1.574 . S
C2552 H2547 0.949 . S
C2552 C2558 1.368 . S
C2553 C2537 1.349 . S
C2553 H2545 0.950 . S
C2553 C2551 1.327 . S
C2554 C2542 1.349 . S
C2554 H2548 0.950 . S
C2554 C2555 1.327 . S
C2555 H2549 0.950 . S
C2555 C2554 1.327 . S
C2555 C2559 1.429 . S
C2556 C2539 1.574 . S
C2556 H2550 0.949 . S
C2556 C2560 1.368 . S
C2557 C2538 1.429 . S
C2557 C2551 1.429 . S
C2557 C2558 1.523 . S
C2558 C2539 1.368 . S
C2558 C2552 1.368 . S
C2558 C2557 1.523 . S
C2559 C2543 1.429 . S
C2559 C2555 1.429 . S
C2559 C2560 1.523 . S
C2560 C2544 1.368 . S
C2560 C2556 1.368 . S
C2560 C2559 1.523 . S
H2561 C2536 0.950 . S
H2562 C2538 0.950 . S
H2563 C2539 0.949 . S
H2564 C2541 0.950 . S
H2565 C2543 0.950 . S
C2566 C2567 1.349 . S
C2566 C2568 1.327 . S
C2566 H2591 0.950 . S
C2567 C2566 1.349 . S
C2567 C2583 1.349 . S
C2568 C2566 1.327 . S
C2568 C2587 1.429 . S
C2568 H2592 0.950 . S
C2569 C2586 1.574 . S
C2569 C2588 1.368 . S
C2569 H2593 0.949 . S
H2570 C2574 0.949 . S
C2571 C2572 1.349 . S
C2571 C2573 1.327 . S
C2571 H2594 0.950 . S
C2572 C2571 1.349 . S
C2572 C2584 1.349 . S
C2573 C2571 1.327 . S
C2573 C2589 1.429 . S
C2573 H2595 0.950 . S
C2574 H2570 0.949 . S
C2574 C2582 1.574 . S
C2574 C2590 1.368 . S
H2575 C2583 0.950 . S
H2576 C2581 0.950 . S
H2577 C2582 0.949 . S
H2578 C2584 0.950 . S
H2579 C2585 0.950 . S
H2580 C2586 0.949 . S
C2581 H2576 0.950 . S
C2581 C2583 1.327 . S
C2581 C2587 1.429 . S
C2582 C2574 1.574 . S
C2582 H2577 0.949 . S
C2582 C2588 1.368 . S
C2583 C2567 1.349 . S
C2583 H2575 0.950 . S
C2583 C2581 1.327 . S
C2584 C2572 1.349 . S
C2584 H2578 0.950 . S
C2584 C2585 1.327 . S
C2585 H2579 0.950 . S
C2585 C2584 1.327 . S
C2585 C2589 1.429 . S
C2586 C2569 1.574 . S
C2586 H2580 0.949 . S
C2586 C2590 1.368 . S
C2587 C2568 1.429 . S
C2587 C2581 1.429 . S
C2587 C2588 1.523 . S
C2588 C2569 1.368 . S
C2588 C2582 1.368 . S
C2588 C2587 1.523 . S
C2589 C2573 1.429 . S
C2589 C2585 1.429 . S
C2589 C2590 1.523 . S
C2590 C2574 1.368 . S
C2590 C2586 1.368 . S
C2590 C2589 1.523 . S
H2591 C2566 0.950 . S
H2592 C2568 0.950 . S
H2593 C2569 0.949 . S
H2594 C2571 0.950 . S
H2595 C2573 0.950 . S
C2596 C2597 1.349 . S
C2596 C2598 1.327 . S
C2596 H2621 0.950 . S
C2597 C2596 1.349 . S
C2597 C2613 1.349 . S
C2598 C2596 1.327 . S
C2598 C2617 1.429 . S
C2598 H2622 0.950 . S
C2599 C2616 1.574 . S
C2599 C2618 1.368 . S
C2599 H2623 0.949 . S
H2600 C2604 0.949 . S
C2601 C2602 1.349 . S
C2601 C2603 1.327 . S
C2601 H2624 0.950 . S
C2602 C2601 1.349 . S
C2602 C2614 1.349 . S
C2603 C2601 1.327 . S
C2603 C2619 1.429 . S
C2603 H2625 0.950 . S
C2604 H2600 0.949 . S
C2604 C2612 1.574 . S
C2604 C2620 1.368 . S
H2605 C2613 0.950 . S
H2606 C2611 0.950 . S
H2607 C2612 0.949 . S
H2608 C2614 0.950 . S
H2609 C2615 0.950 . S
H2610 C2616 0.949 . S
C2611 H2606 0.950 . S
C2611 C2613 1.327 . S
C2611 C2617 1.429 . S
C2612 C2604 1.574 . S
C2612 H2607 0.949 . S
C2612 C2618 1.368 . S
C2613 C2597 1.349 . S
C2613 H2605 0.950 . S
C2613 C2611 1.327 . S
C2614 C2602 1.349 . S
C2614 H2608 0.950 . S
C2614 C2615 1.327 . S
C2615 H2609 0.950 . S
C2615 C2614 1.327 . S
C2615 C2619 1.429 . S
C2616 C2599 1.574 . S
C2616 H2610 0.949 . S
C2616 C2620 1.368 . S
C2617 C2598 1.429 . S
C2617 C2611 1.429 . S
C2617 C2618 1.523 . S
C2618 C2599 1.368 . S
C2618 C2612 1.368 . S
C2618 C2617 1.523 . S
C2619 C2603 1.429 . S
C2619 C2615 1.429 . S
C2619 C2620 1.523 . S
C2620 C2604 1.368 . S
C2620 C2616 1.368 . S
C2620 C2619 1.523 . S
H2621 C2596 0.950 . S
H2622 C2598 0.950 . S
H2623 C2599 0.949 . S
H2624 C2601 0.950 . S
H2625 C2603 0.950 . S
C2626 C2627 1.349 . S
C2626 C2628 1.327 . S
C2626 H2651 0.950 . S
C2627 C2626 1.349 . S
C2627 C2643 1.349 . S
C2628 C2626 1.327 . S
C2628 C2647 1.429 . S
C2628 H2652 0.950 . S
C2629 C2646 1.574 . S
C2629 C2648 1.368 . S
C2629 H2653 0.949 . S
H2630 C2634 0.949 . S
C2631 C2632 1.349 . S
C2631 C2633 1.327 . S
C2631 H2654 0.950 . S
C2632 C2631 1.349 . S
C2632 C2644 1.349 . S
C2633 C2631 1.327 . S
C2633 C2649 1.429 . S
C2633 H2655 0.950 . S
C2634 H2630 0.949 . S
C2634 C2642 1.574 . S
C2634 C2650 1.368 . S
H2635 C2643 0.950 . S
H2636 C2641 0.950 . S
H2637 C2642 0.949 . S
H2638 C2644 0.950 . S
H2639 C2645 0.950 . S
H2640 C2646 0.949 . S
C2641 H2636 0.950 . S
C2641 C2643 1.327 . S
C2641 C2647 1.429 . S
C2642 C2634 1.574 . S
C2642 H2637 0.949 . S
C2642 C2648 1.368 . S
C2643 C2627 1.349 . S
C2643 H2635 0.950 . S
C2643 C2641 1.327 . S
C2644 C2632 1.349 . S
C2644 H2638 0.950 . S
C2644 C2645 1.327 . S
C2645 H2639 0.950 . S
C2645 C2644 1.327 . S
C2645 C2649 1.429 . S
C2646 C2629 1.574 . S
C2646 H2640 0.949 . S
C2646 C2650 1.368 . S
C2647 C2628 1.429 . S
C2647 C2641 1.429 . S
C2647 C2648 1.523 . S
C2648 C2629 1.368 . S
C2648 C2642 1.368 . S
C2648 C2647 1.523 . S
C2649 C2633 1.429 . S
C2649 C2645 1.429 . S
C2649 C2650 1.523 . S
C2650 C2634 1.368 . S
C2650 C2646 1.368 . S
C2650 C2649 1.523 . S
H2651 C2626 0.950 . S
H2652 C2628 0.950 . S
H2653 C2629 0.949 . S
H2654 C2631 0.950 . S
H2655 C2633 0.950 . S
C737 C7 1.695 . S
C742 C76 1.695 . S
C767 C53 1.695 . S
C772 C30 1.695 . S
C797 C99 1.695 . S
C802 C168 1.695 . S
C827 C145 1.695 . S
C832 C122 1.695 . S
C857 C191 1.695 . S
C862 C260 1.695 . S
C887 C237 1.695 . S
C892 C214 1.695 . S
C917 C283 1.695 . S
C922 C352 1.695 . S
C947 C306 1.695 . S
C952 C329 1.695 . S
C977 C444 1.695 . S
C982 C375 1.695 . S
C1007 C398 1.695 . S
C1012 C421 1.695 . S
C1037 C467 1.695 . S
C1042 C536 1.695 . S
C1067 C513 1.695 . S
C1072 C490 1.695 . S
C1097 C559 1.695 . S
C1102 C628 1.695 . S
C1127 C605 1.695 . S
C1132 C582 1.695 . S
C1157 C651 1.695 . S
C1162 C720 1.695 . S
C1187 C674 1.695 . S
C1192 C697 1.695 . S
C1217 N288 1.465 . S
C1222 N12 1.465 . S
C1247 N35 1.465 . S
C1252 N495 1.465 . S
C1277 N58 1.464 . S
C1282 N150 1.464 . S
C1307 N725 1.464 . S
C1312 N81 1.464 . S
C1337 N104 1.465 . S
C1342 N196 1.465 . S
C1367 N403 1.465 . S
C1372 N127 1.465 . S
C1397 N633 1.464 . S
C1402 N173 1.464 . S
C1427 N679 1.465 . S
C1432 N219 1.465 . S
C1457 N334 1.465 . S
C1462 N242 1.465 . S
C1487 N541 1.465 . S
C1492 N265 1.465 . S
C1517 N311 1.465 . S
C1522 N587 1.465 . S
C1547 N449 1.465 . S
C1552 N357 1.465 . S
C1577 N656 1.465 . S
C1582 N380 1.465 . S
C1607 N518 1.465 . S
C1612 N426 1.465 . S
C1637 N564 1.465 . S
C1642 N472 1.465 . S
C1667 N610 1.464 . S
C1672 N702 1.464 . S
C1697 C246 1.732 . S
C1702 C16 1.732 . S
C1727 C39 1.732 . S
C1732 C269 1.732 . S
C1757 C200 1.732 . S
C1762 C62 1.732 . S
C1787 C223 1.732 . S
C1792 C85 1.732 . S
C1817 C108 1.732 . S
C1822 C338 1.732 . S
C1847 C131 1.732 . S
C1852 C361 1.732 . S
C1877 C292 1.732 . S
C1882 C154 1.732 . S
C1907 C177 1.732 . S
C1912 C315 1.732 . S
C1937 C614 1.732 . S
C1942 C384 1.732 . S
C1967 C637 1.732 . S
C1972 C407 1.732 . S
C1997 C430 1.732 . S
C2002 C568 1.732 . S
C2027 C453 1.732 . S
C2032 C591 1.732 . S
C2057 C476 1.732 . S
C2062 C706 1.732 . S
C2087 C499 1.732 . S
C2092 C729 1.732 . S
C2117 C660 1.732 . S
C2122 C522 1.732 . S
C2147 C683 1.732 . S
C2152 C545 1.732 . S
C2177 N2 1.478 . S
C2182 N577 1.478 . S
C2207 N554 1.478 . S
C2212 N25 1.478 . S
C2237 N48 1.478 . S
C2242 N623 1.478 . S
C2267 N71 1.478 . S
C2272 N600 1.478 . S
C2297 N94 1.478 . S
C2302 N669 1.478 . S
C2327 N117 1.478 . S
C2332 N646 1.478 . S
C2357 N715 1.478 . S
C2362 N140 1.478 . S
C2387 N692 1.478 . S
C2392 N163 1.478 . S
C2417 N393 1.478 . S
C2422 N186 1.478 . S
C2447 N370 1.478 . S
C2452 N209 1.478 . S
C2477 N232 1.478 . S
C2482 N439 1.478 . S
C2507 N255 1.478 . S
C2512 N416 1.478 . S
C2537 N485 1.478 . S
C2542 N278 1.478 . S
C2567 N301 1.478 . S
C2572 N462 1.478 . S
C2597 N324 1.478 . S
C2602 N531 1.478 . S
C2627 N347 1.478 . S
C2632 N508 1.478 . S
