# Generated by pormake.
# Topology wkf, (6)-cn, num edge types: 1
# Building blocks:
#     Node 0, Type 0, BuildingBlock: OJICUG_clean_sbu_0, # of connection points: 6
#     Node 1, Type 0, BuildingBlock: OJICUG_clean_sbu_0, # of connection points: 6
#     Node 2, Type 0, BuildingBlock: OJICUG_clean_sbu_0, # of connection points: 6
#     Node 3, Type 0, BuildingBlock: OJICUG_clean_sbu_0, # of connection points: 6
#     Node 4, Type 0, BuildingBlock: OJICUG_clean_sbu_0, # of connection points: 6
#     Node 5, Type 0, BuildingBlock: OJICUG_clean_sbu_0, # of connection points: 6
#     Node 6, Type 0, BuildingBlock: OJICUG_clean_sbu_0, # of connection points: 6
#     Node 7, Type 0, BuildingBlock: OJICUG_clean_sbu_0, # of connection points: 6
#     Node 8, Type 0, BuildingBlock: OJICUG_clean_sbu_0, # of connection points: 6
#     Node 9, Type 0, BuildingBlock: OJICUG_clean_sbu_0, # of connection points: 6
#     Node 10, Type 0, BuildingBlock: OJICUG_clean_sbu_0, # of connection points: 6
#     Node 11, Type 0, BuildingBlock: OJICUG_clean_sbu_0, # of connection points: 6
#     Edge 12, Type (0, 0), BuildingBlock: CIFDUS_clean_linker_0, # of connection points: 2
#     Edge 13, Type (0, 0), BuildingBlock: CIFDUS_clean_linker_0, # of connection points: 2
#     Edge 14, Type (0, 0), BuildingBlock: CIFDUS_clean_linker_0, # of connection points: 2
#     Edge 15, Type (0, 0), BuildingBlock: CIFDUS_clean_linker_0, # of connection points: 2
#     Edge 16, Type (0, 0), BuildingBlock: CIFDUS_clean_linker_0, # of connection points: 2
#     Edge 17, Type (0, 0), BuildingBlock: CIFDUS_clean_linker_0, # of connection points: 2
#     Edge 18, Type (0, 0), BuildingBlock: CIFDUS_clean_linker_0, # of connection points: 2
#     Edge 19, Type (0, 0), BuildingBlock: CIFDUS_clean_linker_0, # of connection points: 2
#     Edge 20, Type (0, 0), BuildingBlock: CIFDUS_clean_linker_0, # of connection points: 2
#     Edge 21, Type (0, 0), BuildingBlock: CIFDUS_clean_linker_0, # of connection points: 2
#     Edge 22, Type (0, 0), BuildingBlock: CIFDUS_clean_linker_0, # of connection points: 2
#     Edge 23, Type (0, 0), BuildingBlock: CIFDUS_clean_linker_0, # of connection points: 2
#     Edge 24, Type (0, 0), BuildingBlock: CIFDUS_clean_linker_0, # of connection points: 2
#     Edge 25, Type (0, 0), BuildingBlock: CIFDUS_clean_linker_0, # of connection points: 2
#     Edge 26, Type (0, 0), BuildingBlock: CIFDUS_clean_linker_0, # of connection points: 2
#     Edge 27, Type (0, 0), BuildingBlock: CIFDUS_clean_linker_0, # of connection points: 2
#     Edge 28, Type (0, 0), BuildingBlock: CIFDUS_clean_linker_0, # of connection points: 2
#     Edge 29, Type (0, 0), BuildingBlock: CIFDUS_clean_linker_0, # of connection points: 2
#     Edge 30, Type (0, 0), BuildingBlock: CIFDUS_clean_linker_0, # of connection points: 2
#     Edge 31, Type (0, 0), BuildingBlock: CIFDUS_clean_linker_0, # of connection points: 2
#     Edge 32, Type (0, 0), BuildingBlock: CIFDUS_clean_linker_0, # of connection points: 2
#     Edge 33, Type (0, 0), BuildingBlock: CIFDUS_clean_linker_0, # of connection points: 2
#     Edge 34, Type (0, 0), BuildingBlock: CIFDUS_clean_linker_0, # of connection points: 2
#     Edge 35, Type (0, 0), BuildingBlock: CIFDUS_clean_linker_0, # of connection points: 2
#     Edge 36, Type (0, 0), BuildingBlock: CIFDUS_clean_linker_0, # of connection points: 2
#     Edge 37, Type (0, 0), BuildingBlock: CIFDUS_clean_linker_0, # of connection points: 2
#     Edge 38, Type (0, 0), BuildingBlock: CIFDUS_clean_linker_0, # of connection points: 2
#     Edge 39, Type (0, 0), BuildingBlock: CIFDUS_clean_linker_0, # of connection points: 2
#     Edge 40, Type (0, 0), BuildingBlock: CIFDUS_clean_linker_0, # of connection points: 2
#     Edge 41, Type (0, 0), BuildingBlock: CIFDUS_clean_linker_0, # of connection points: 2
#     Edge 42, Type (0, 0), BuildingBlock: CIFDUS_clean_linker_0, # of connection points: 2
#     Edge 43, Type (0, 0), BuildingBlock: CIFDUS_clean_linker_0, # of connection points: 2
#     Edge 44, Type (0, 0), BuildingBlock: CIFDUS_clean_linker_0, # of connection points: 2
#     Edge 45, Type (0, 0), BuildingBlock: CIFDUS_clean_linker_0, # of connection points: 2
#     Edge 46, Type (0, 0), BuildingBlock: CIFDUS_clean_linker_0, # of connection points: 2
#     Edge 47, Type (0, 0), BuildingBlock: CIFDUS_clean_linker_0, # of connection points: 2
# Relax obj value: 0.170
# Max RMSD: 0.210
# Mean RMSD: 0.210
data_MOF--net-wkf--node1-OJICUG_clean_sbu_0--edge1-CIFDUS_clean_linker_0
_symmetry_space_group_name_H-M    P1
_symmetry_Int_Tables_number       1
_symmetry_cell_setting            triclinic
loop_
_symmetry_equiv_pos_as_xyz
'x, y, z'
_cell_length_a     25.427459
_cell_length_b     25.466311
_cell_length_c     64.818123
_cell_angle_alpha  89.914873
_cell_angle_beta   90.080522
_cell_angle_gamma 119.6306
loop_
_atom_site_label
_atom_site_type_symbol
_atom_site_fract_x
_atom_site_fract_y
_atom_site_fract_z
_atom_type_partial_charge
Sc0 Sc 0.43441 0.12403 0.33393 0.0
Sc1 Sc 0.29894 0.1028 0.35529 0.0
Sc2 Sc 0.39869 0.07842 0.38485 0.0
O3 O 0.37729 0.10205 0.35791 0.0
C4 C 0.43783 0.01156 0.35472 0.0
C5 C 0.30807 0.04529 0.31275 0.0
C6 C 0.25757 -0.01055 0.38302 0.0
C7 C 0.38461 0.21679 0.32933 0.0
C8 C 0.52685 0.18269 0.36927 0.0
C9 C 0.35272 0.16512 0.39893 0.0
O10 O 0.45742 0.05507 0.34183 0.0
O11 O 0.2806 0.06265 0.32499 0.0
O12 O 0.30715 0.01362 0.39286 0.0
O13 O 0.41818 0.19554 0.32352 0.0
O14 O 0.49374 0.13902 0.38114 0.0
O15 O 0.31062 0.14473 0.38542 0.0
O16 O 0.50901 0.18983 0.35173 0.0
O17 O 0.34274 0.19085 0.3425 0.0
O18 O 0.39269 0.14919 0.39995 0.0
O19 O 0.36322 0.05944 0.31488 0.0
O20 O 0.40607 0.00767 0.37031 0.0
O21 O 0.24865 0.01337 0.36726 0.0
Sc22 Sc 0.34902 0.41802 0.56424 0.0
Sc23 Sc 0.23763 0.3208 0.53095 0.0
Sc24 Sc 0.34296 0.46343 0.51408 0.0
O25 O 0.31025 0.40096 0.53626 0.0
C26 C 0.35895 0.54289 0.55264 0.0
C27 C 0.21401 0.35339 0.57562 0.0
C28 C 0.19977 0.405 0.50934 0.0
C29 C 0.31098 0.28047 0.55693 0.0
C30 C 0.45995 0.47043 0.53518 0.0
C31 C 0.30471 0.34914 0.4876 0.0
O32 O 0.37465 0.51201 0.56382 0.0
O33 O 0.20424 0.3139 0.56191 0.0
O34 O 0.25368 0.44098 0.50338 0.0
O35 O 0.32704 0.32543 0.56888 0.0
O36 O 0.4345 0.49018 0.52286 0.0
O37 O 0.26001 0.31768 0.49929 0.0
O38 O 0.43312 0.43678 0.55059 0.0
O39 O 0.287 0.27669 0.53944 0.0
O40 O 0.34664 0.40183 0.49224 0.0
O41 O 0.26524 0.4005 0.5779 0.0
O42 O 0.34013 0.52839 0.53426 0.0
O43 O 0.18652 0.36239 0.52208 0.0
Sc44 Sc 0.82902 0.28139 0.66397 0.0
Sc45 Sc 0.86453 0.17006 0.67895 0.0
Sc46 Sc 0.87676 0.27833 0.7139 0.0
O47 O 0.85673 0.24333 0.68548 0.0
C48 C 0.93593 0.39481 0.68742 0.0
C49 C 0.91244 0.24818 0.6381 0.0
C50 C 0.97754 0.24113 0.70655 0.0
C51 C 0.74257 0.13941 0.65709 0.0
C52 C 0.76508 0.29672 0.70255 0.0
C53 C 0.80604 0.14142 0.72357 0.0
O54 O 0.89417 0.3717 0.67386 0.0
O55 O 0.89812 0.20068 0.64845 0.0
O56 O 0.94863 0.25865 0.71791 0.0
O57 O 0.76028 0.19437 0.65247 0.0
O58 O 0.80812 0.30327 0.71411 0.0
O59 O 0.83094 0.12925 0.70875 0.0
O60 O 0.761 0.28116 0.68375 0.0
O61 O 0.77368 0.12329 0.668 0.0
O62 O 0.81241 0.19347 0.72654 0.0
O63 O 0.89598 0.28624 0.6428 0.0
O64 O 0.94114 0.3648 0.70215 0.0
O65 O 0.95661 0.21352 0.68962 0.0
Sc66 Sc 0.54591 0.90876 0.89235 0.0
Sc67 Sc 0.64395 0.90102 0.85685 0.0
Sc68 Sc 0.49475 0.85531 0.84264 0.0
O69 O 0.56138 0.88826 0.86387 0.0
C70 C 0.42294 0.78989 0.88242 0.0
C71 C 0.62422 0.84922 0.90255 0.0
C72 C 0.56025 0.77678 0.8357 0.0
C73 C 0.67828 0.01546 0.88291 0.0
C74 C 0.48102 0.96033 0.8647 0.0
C75 C 0.60506 0.9386 0.81503 0.0
O76 O 0.45647 0.83427 0.89385 0.0
O77 O 0.65753 0.87288 0.88683 0.0
O78 O 0.51928 0.7902 0.83152 0.0
O79 O 0.63358 -0.01375 0.89482 0.0
O80 O 0.46474 0.91795 0.85153 0.0
O81 O 0.64151 0.93005 0.82602 0.0
O82 O 0.5149 0.96656 0.88 0.0
O83 O 0.68612 -0.00675 0.86646 0.0
O84 O 0.55054 0.92019 0.82004 0.0
O85 O 0.57629 0.85165 0.90595 0.0
O86 O 0.4331 0.78757 0.86339 0.0
O87 O 0.60633 0.80987 0.84669 0.0
Sc88 Sc 0.63096 0.51175 0.00526 0.0
Sc89 Sc 0.7414 0.65531 0.02167 0.0
Sc90 Sc 0.62684 0.55918 0.05527 0.0
O91 O 0.6665 0.57572 0.02732 0.0
C92 C 0.51373 0.50166 0.02745 0.0
C93 C 0.66115 0.63033 0.98098 0.0
C94 C 0.66836 0.69771 0.04915 0.0
C95 C 0.77245 0.56781 -0.00274 0.0
C96 C 0.61909 0.43499 0.04404 0.0
C97 C 0.76466 0.61797 0.06652 0.0
O98 O 0.53933 0.48348 0.0147 0.0
O99 O 0.70776 0.66302 0.99192 0.0
O100 O 0.64388 0.64935 0.05959 0.0
O101 O 0.71756 0.53052 0.993 0.0
O102 O 0.60413 0.46657 0.05506 0.0
O103 O 0.78182 0.65365 0.05104 0.0
O104 O 0.63558 0.44731 0.02535 0.0
O105 O 0.78789 0.61301 0.00889 0.0
O106 O 0.7098 0.57869 0.06977 0.0
O107 O 0.6255 0.57448 0.98445 0.0
O108 O 0.54177 0.53773 0.0421 0.0
O109 O 0.70182 0.70575 0.03367 0.0
Sc110 Sc 0.07331 0.6482 0.21833 0.0
Sc111 Sc 0.08277 0.76142 0.18612 0.0
Sc112 Sc 0.11866 0.65532 0.16766 0.0
O113 O 0.09091 0.68809 0.19062 0.0
C114 C 0.19112 0.64616 0.20474 0.0
C115 C 0.1428 0.78341 0.23068 0.0
C116 C 0.19683 0.79635 0.16026 0.0
C117 C 0.97232 0.68644 0.21415 0.0
C118 C 0.02093 0.53637 0.19075 0.0
C119 C 0.03158 0.68681 0.1443 0.0
O120 O 0.14395 0.62594 0.21582 0.0
O121 O 0.1179 0.79781 0.21637 0.0
O122 O 0.17684 0.74227 0.15439 0.0
O123 O 0.00075 0.66613 0.22456 0.0
O124 O 0.06368 0.56381 0.17789 0.0
O125 O 0.04806 0.73372 0.15532 0.0
O126 O 0.01027 0.56324 0.20526 0.0
O127 O -0.00797 0.71549 0.1974 0.0
O128 O 0.04552 0.64622 0.14836 0.0
O129 O 0.137 0.73117 0.2324 0.0
O130 O 0.19338 0.66542 0.18643 0.0
O131 O 0.17272 0.81099 0.1746 0.0
Sc132 Sc 0.85864 0.49383 0.47563 0.0
Sc133 Sc 0.89289 0.63972 0.46113 0.0
Sc134 Sc 0.91971 0.54975 0.42661 0.0
O135 O 0.89038 0.56113 0.45446 0.0
C136 C 0.97179 0.48959 0.45605 0.0
C137 C 0.93642 0.60828 0.50325 0.0
C138 C 0.0134 0.68775 0.43606 0.0
C139 C 0.77001 0.54731 0.48195 0.0
C140 C 0.8043 0.42056 0.43492 0.0
C141 C 0.84484 0.6132 0.41463 0.0
O142 O 0.92755 0.4718 0.46845 0.0
O143 O 0.9278 0.64358 0.49162 0.0
O144 O -0.0062 0.64059 0.42507 0.0
O145 O 0.78558 0.50787 0.48559 0.0
O146 O 0.8485 0.45767 0.42395 0.0
O147 O 0.85623 0.64259 0.43144 0.0
O148 O 0.79826 0.42933 0.45383 0.0
O149 O 0.80272 0.5955 0.47206 0.0
O150 O 0.86252 0.57559 0.41069 0.0
O151 O 0.91745 0.55309 0.49907 0.0
O152 O -0.02077 0.52343 0.44066 0.0
O153 O -0.01586 0.69288 0.45095 0.0
Sc154 Sc 0.27605 0.87755 0.60656 0.0
Sc155 Sc 0.16554 0.86448 0.64072 0.0
Sc156 Sc 0.27782 0.83166 0.65691 0.0
O157 O 0.23982 0.85767 0.63483 0.0
C158 C 0.29634 0.76764 0.61892 0.0
C159 C 0.13968 0.80717 0.59578 0.0
C160 C 0.13536 0.74387 0.66298 0.0
C161 C 0.23797 0.97755 0.61352 0.0
C162 C 0.39189 0.93854 0.6337 0.0
C163 C 0.24092 0.91342 0.6821 0.0
O164 O 0.30162 0.80944 0.60698 0.0
O165 O 0.12663 0.83148 0.61057 0.0
O166 O 0.19033 0.76246 0.668 0.0
O167 O 0.25587 0.94892 0.60218 0.0
O168 O 0.36854 0.89755 0.64749 0.0
O169 O 0.19351 0.89775 0.67148 0.0
O170 O 0.36219 0.94251 0.6186 0.0
O171 O 0.20946 0.95627 0.63027 0.0
O172 O 0.28023 0.89831 0.67769 0.0
O173 O 0.19178 0.81294 0.59336 0.0
O174 O 0.28031 0.76409 0.63766 0.0
O175 O 0.11905 0.77385 0.65156 0.0
Sc176 Sc 0.46104 0.34 0.80973 0.0
Sc177 Sc 0.31525 0.23663 0.7938 0.0
Sc178 Sc 0.4143 0.34419 0.75956 0.0
O179 O 0.39686 0.30706 0.78785 0.0
C180 C 0.47096 0.45717 0.78762 0.0
C181 C 0.3469 0.31236 0.83557 0.0
C182 C 0.27654 0.30823 0.76559 0.0
C183 C 0.3981 0.19704 0.81665 0.0
C184 C 0.53791 0.35071 0.7711 0.0
C185 C 0.34753 0.2078 0.7493 0.0
O186 O 0.49054 0.43186 0.80008 0.0
O187 O 0.31258 0.26707 0.82448 0.0
O188 O 0.32267 0.32468 0.75421 0.0
O189 O 0.4373 0.25097 0.82155 0.0
O190 O 0.5078 0.36765 0.76005 0.0
O191 O 0.30969 0.19732 0.76378 0.0
O192 O 0.52366 0.3327 0.78957 0.0
O193 O 0.35368 0.18461 0.80484 0.0
O194 O 0.39394 0.25927 0.74643 0.0
O195 O 0.40189 0.34884 0.83131 0.0
O196 O 0.43563 0.42948 0.77264 0.0
O197 O 0.27145 0.28457 0.78319 0.0
Sc198 Sc 0.06833 0.42392 0.9293 0.0
Sc199 Sc 0.07594 0.30932 0.95492 0.0
Sc200 Sc 0.09474 0.43529 0.98165 0.0
O201 O 0.07935 0.38874 0.95551 0.0
C202 C 0.16707 0.53604 0.951 0.0
C203 C 0.15806 0.38236 0.91616 0.0
C204 C 0.18075 0.37805 0.9866 0.0
C205 C -0.01739 0.28674 0.92124 0.0
C206 C -0.01024 0.44804 0.95861 0.0
C207 C 0.00465 0.30329 -0.00405 0.0
O208 O 0.11868 0.51405 0.94069 0.0
O209 O 0.12798 0.33408 0.92672 0.0
O210 O 0.15865 0.40999 0.99332 0.0
O211 O 0.01468 0.33925 0.91399 0.0
O212 O 0.03135 0.46479 0.97229 0.0
O213 O 0.02503 0.27994 0.98313 0.0
O214 O -0.01077 0.42051 0.94215 0.0
O215 O -0.00783 0.2706 0.93867 0.0
O216 O 0.02112 0.3593 -0.00357 0.0
O217 O 0.14809 0.42676 0.91694 0.0
O218 O 0.17061 0.51143 0.96753 0.0
O219 O 0.15883 0.34272 0.97131 0.0
Sc220 Sc 0.66826 0.13279 0.15182 0.0
Sc221 Sc 0.75873 0.08684 0.12633 0.0
Sc222 Sc 0.62904 0.07136 0.10282 0.0
O223 O 0.68559 0.09703 0.12695 0.0
C224 C 0.53665 0.03368 0.13788 0.0
C225 C 0.70467 0.0439 0.17117 0.0
C226 C 0.66362 0.96808 0.1049 0.0
C227 C 0.81184 0.20692 0.15012 0.0
C228 C 0.64104 0.196 0.11611 0.0
C229 C 0.75424 0.13261 0.08088 0.0
O230 O 0.57191 0.07976 0.14843 0.0
O231 O 0.74584 0.05722 0.15776 0.0
O232 O 0.63734 -0.00669 0.09609 0.0
O233 O 0.76155 0.19053 0.15889 0.0
O234 O 0.61391 0.14607 0.10653 0.0
O235 O 0.77781 0.11469 0.09456 0.0
O236 O 0.66987 0.20296 0.13288 0.0
O237 O 0.81765 0.17861 0.13503 0.0
O238 O 0.70146 0.12578 0.08235 0.0
O239 O 0.66711 0.06323 0.17076 0.0
O240 O 0.55392 0.01691 0.1221 0.0
O241 O 0.70537 -0.00585 0.1181 0.0
Sc242 Sc 0.58256 0.67511 0.26779 0.0
Sc243 Sc 0.67322 0.77691 0.30626 0.0
Sc244 Sc 0.52275 0.66583 0.31743 0.0
O245 O 0.59284 0.70589 0.29719 0.0
C246 C 0.45492 0.66552 0.27614 0.0
C247 C 0.65387 0.81798 0.2623 0.0
C248 C 0.57907 0.80396 0.32937 0.0
C249 C 0.71762 0.70761 0.27659 0.0
C250 C 0.51375 0.55333 0.29275 0.0
C251 C 0.63671 0.68713 0.34421 0.0
O252 O 0.49557 0.66674 0.26457 0.0
O253 O 0.67714 0.83013 0.28018 0.0
O254 O 0.53568 0.75002 0.32882 0.0
O255 O 0.66792 0.67978 0.26705 0.0
O256 O 0.50159 0.57732 0.30783 0.0
O257 O 0.67499 0.72934 0.3329 0.0
O258 O 0.54469 0.5828 0.27725 0.0
O259 O 0.72686 0.74425 0.29121 0.0
O260 O 0.57983 0.6604 0.3412 0.0
O261 O 0.62001 0.76464 0.25568 0.0
O262 O 0.45842 0.66647 0.29573 0.0
O263 O 0.63115 0.81966 0.32225 0.0
H264 H 0.13038 0.87741 0.24386 0.0
H265 H 0.2392 0.79166 0.2515 0.0
H266 H 0.30238 0.86795 0.27678 0.0
H267 H 0.32506 0.95717 0.29717 0.0
H268 H 0.21238 0.03919 0.29162 0.0
H269 H 0.15215 0.96614 0.26488 0.0
C270 C 0.16814 0.87575 0.25102 0.0
C271 C 0.18038 0.82936 0.24589 0.0
C272 C 0.20339 0.9189 0.26582 0.0
C273 C 0.22883 0.82693 0.25537 0.0
C274 C 0.26504 0.87055 0.26974 0.0
C275 C 0.2877 0.9594 0.28992 0.0
C276 C 0.27328 0.00351 0.2961 0.0
C277 C 0.25254 0.91651 0.27511 0.0
C278 C 0.22412 0.0054 0.287 0.0
C279 C 0.18979 0.96378 0.27176 0.0
H280 H 0.40217 0.34997 0.47072 0.0
H281 H 0.21189 0.28509 0.46157 0.0
H282 H 0.21094 0.22587 0.43182 0.0
H283 H 0.2619 0.18518 0.41065 0.0
H284 H 0.45054 0.24382 0.4215 0.0
H285 H 0.45455 0.31269 0.44833 0.0
C286 C 0.36099 0.32373 0.4619 0.0
C287 C 0.30726 0.32152 0.46814 0.0
C288 C 0.36026 0.288 0.44536 0.0
C289 C 0.2537 0.28693 0.45693 0.0
C290 C 0.25308 0.25303 0.44001 0.0
C291 C 0.30398 0.21345 0.41876 0.0
C292 C 0.35552 0.20895 0.41429 0.0
C293 C 0.3057 0.25195 0.43445 0.0
C294 C 0.40985 0.24581 0.42491 0.0
C295 C 0.41234 0.2854 0.44019 0.0
H296 H 0.01561 0.35332 0.63378 0.0
H297 H 0.91178 0.17487 0.60788 0.0
H298 H -0.00291 0.19264 0.58587 0.0
H299 H 0.10245 0.25528 0.5763 0.0
H300 H 0.20961 0.432 0.60354 0.0
H301 H 0.12165 0.41798 0.62325 0.0
C302 C 0.01144 0.31917 0.62287 0.0
C303 C 0.95782 0.26334 0.62204 0.0
C304 C 0.06144 0.32869 0.61107 0.0
C305 C 0.9528 0.2184 0.60843 0.0
C306 C 0.00157 0.22833 0.59607 0.0
C307 C 0.10687 0.29089 0.58654 0.0
C308 C 0.16265 0.34439 0.58858 0.0
C309 C 0.05648 0.28264 0.5977 0.0
C310 C 0.16732 0.39002 0.60189 0.0
C311 C 0.11699 0.38229 0.61302 0.0
H312 H 0.70796 0.12837 0.7437 0.0
H313 H 0.82082 0.04732 0.73573 0.0
H314 H 0.76407 0.97307 0.76256 0.0
H315 H 0.68859 0.93763 0.7901 0.0
H316 H 0.57409 0.01693 0.79765 0.0
H317 H 0.62489 0.08546 0.76873 0.0
C318 C 0.71983 0.09421 0.74782 0.0
C319 C 0.76891 0.09361 0.7382 0.0
C320 C 0.6869 0.05173 0.76304 0.0
C321 C 0.78327 0.04854 0.74315 0.0
C322 C 0.75104 0.00634 0.75846 0.0
C323 C 0.67451 0.96962 0.78525 0.0
C324 C 0.6287 0.97334 0.79602 0.0
C325 C 0.70374 0.00849 0.76878 0.0
C326 C 0.60956 0.01372 0.78949 0.0
C327 C 0.63873 0.05299 0.7731 0.0
H328 H 0.54909 0.74365 0.92119 0.0
H329 H 0.73721 0.87871 0.91521 0.0
H330 H 0.76582 0.82106 0.93839 0.0
H331 H 0.73686 0.7334 0.96074 0.0
H332 H 0.54912 0.59538 0.96527 0.0
H333 H 0.52078 0.65246 0.94183 0.0
C334 C 0.59624 0.76045 0.92513 0.0
C335 C 0.64103 0.81547 0.9169 0.0
C336 C 0.61237 0.72629 0.93791 0.0
C337 C 0.70212 0.83646 0.92158 0.0
C338 C 0.71843 0.80355 0.93474 0.0
C339 C 0.68981 0.71561 0.95646 0.0
C340 C 0.64514 0.66052 0.96477 0.0
C341 C 0.6739 0.74848 0.943 0.0
C342 C 0.5844 0.63757 0.95894 0.0
C343 C 0.56809 0.67039 0.94571 0.0
H344 H 0.92709 0.58746 0.13374 0.0
H345 H 0.04918 0.77163 0.11592 0.0
H346 H 0.97843 0.76583 0.08922 0.0
H347 H 0.87874 0.7108 0.0728 0.0
H348 H 0.75324 0.52899 0.09257 0.0
H349 H 0.82796 0.5315 0.11672 0.0
C350 C 0.93842 0.6257 0.12368 0.0
C351 C -0.00701 0.67962 0.12651 0.0
C352 C 0.8965 0.62284 0.109 0.0
C353 C 0.00717 0.72961 0.11382 0.0
C354 C 0.96673 0.72641 0.09867 0.0
C355 C 0.8679 0.6717 0.08233 0.0
C356 C 0.81044 0.62014 0.08103 0.0
C357 C 0.91068 0.6737 0.09644 0.0
C358 C 0.79693 0.56972 0.0935 0.0
C359 C 0.83972 0.57088 0.10724 0.0
H360 H 0.12513 0.70882 0.57544 0.0
H361 H 0.04987 0.82703 0.58206 0.0
H362 H 0.97753 0.77337 0.55437 0.0
H363 H 0.94065 0.69719 0.52692 0.0
H364 H 0.01292 0.57613 0.52132 0.0
H365 H 0.08144 0.62628 0.55025 0.0
C366 C 0.09266 0.72255 0.57083 0.0
C367 C 0.09307 0.77208 0.58042 0.0
C368 C 0.05097 0.69113 0.55518 0.0
C369 C 0.05022 0.78897 0.57475 0.0
C370 C 0.00912 0.75851 0.55892 0.0
C371 C 0.97118 0.68165 0.53216 0.0
C372 C 0.97255 0.63377 0.52198 0.0
C373 C 0.00984 0.71023 0.54882 0.0
C374 C 0.01129 0.61304 0.52903 0.0
C375 C 0.05059 0.64181 0.54545 0.0
H376 H 0.3472 0.01356 0.68919 0.0
H377 H 0.16254 0.91382 0.7103 0.0
H378 H 0.17998 -0.00342 0.73353 0.0
H379 H 0.24556 0.09927 0.74588 0.0
H380 H 0.42851 0.20225 0.72296 0.0
H381 H 0.41359 0.11637 0.702 0.0
C382 C 0.31136 0.00961 0.69927 0.0
C383 C 0.25402 0.95785 0.6984 0.0
C384 C 0.32098 0.05827 0.71181 0.0
C385 C 0.20716 0.95339 0.71099 0.0
C386 C 0.21699 0.00072 0.72409 0.0
C387 C 0.28227 0.10302 0.73633 0.0
C388 C 0.3379 0.15713 0.73589 0.0
C389 C 0.27332 0.05382 0.72427 0.0
C390 C 0.38494 0.16127 0.72339 0.0
C391 C 0.37665 0.11209 0.71152 0.0
H392 H 0.18751 0.29525 0.91059 0.0
H393 H 0.23263 0.47385 0.88963 0.0
H394 H 0.30259 0.47117 0.86425 0.0
H395 H 0.34321 0.41332 0.84594 0.0
H396 H 0.28952 0.23204 0.86579 0.0
H397 H 0.23093 0.2408 0.89405 0.0
C398 C 0.2127 0.33397 0.9006 0.0
C399 C 0.20407 0.38429 0.90181 0.0
C400 C 0.2514 0.33156 0.8859 0.0
C401 C 0.23789 0.4342 0.88886 0.0
C402 C 0.2779 0.43272 0.87436 0.0
C403 C 0.31957 0.3765 0.8568 0.0
C404 C 0.32039 0.32224 0.85408 0.0
C405 C 0.28399 0.38104 0.87247 0.0
C406 C 0.28916 0.27411 0.86781 0.0
C407 C 0.25563 0.27904 0.88383 0.0
H408 H 0.84118 0.11709 0.06318 0.0
H409 H 0.75035 0.22191 0.05902 0.0
H410 H 0.82029 0.28437 0.03193 0.0
H411 H 0.91069 0.3123 0.01095 0.0
H412 H -0.00156 0.20447 0.01415 0.0
H413 H 0.92606 0.13971 0.04027 0.0
C414 C 0.8366 0.15342 0.05623 0.0
C415 C 0.79147 0.16554 0.06311 0.0
C416 C 0.87649 0.18865 0.0407 0.0
C417 C 0.78494 0.21189 0.05385 0.0
C418 C 0.82503 0.24775 0.0385 0.0
C419 C 0.91379 0.2746 0.01743 0.0
C420 C 0.9599 0.26334 0.011 0.0
C421 C 0.87157 0.23713 0.03208 0.0
C422 C 0.96314 0.2138 0.01903 0.0
C423 C 0.92196 0.17694 0.03392 0.0
H424 H 0.66962 0.81997 0.22157 0.0
H425 H 0.6653 0.92704 0.27231 0.0
H426 H 0.67894 0.00741 0.24833 0.0
H427 H 0.68997 0.04557 0.21254 0.0
H428 H 0.70097 0.93949 0.16265 0.0
H429 H 0.68624 0.85967 0.18667 0.0
C430 C 0.67176 0.861 0.22732 0.0
C431 C 0.66612 0.86793 0.24844 0.0
C432 C 0.68044 0.90674 0.21363 0.0
C433 C 0.66985 0.92134 0.25597 0.0
C434 C 0.67727 0.96693 0.24231 0.0
C435 C 0.68903 0.00483 0.20711 0.0
C436 C 0.69624 -0.00231 0.18609 0.0
C437 C 0.68219 0.95987 0.22107 0.0
C438 C 0.69573 0.94548 0.17893 0.0
C439 C 0.68726 0.89998 0.19258 0.0
H440 H 0.75072 0.63231 0.42134 0.0
H441 H 0.85659 0.61242 0.37316 0.0
H442 H 0.79727 0.62917 0.34698 0.0
H443 H 0.71958 0.65473 0.33802 0.0
H444 H 0.61013 0.6712 0.38547 0.0
H445 H 0.66591 0.6492 0.412 0.0
C446 C 0.76068 0.63185 0.40509 0.0
C447 C 0.80833 0.62228 0.39905 0.0
C448 C 0.72564 0.64027 0.39017 0.0
C449 C 0.82023 0.62014 0.37804 0.0
C450 C 0.78641 0.62962 0.36313 0.0
C451 C 0.70761 0.65273 0.3542 0.0
C452 C 0.66167 0.66486 0.36004 0.0
C453 C 0.73959 0.64032 0.36906 0.0
C454 C 0.64548 0.66167 0.38083 0.0
C455 C 0.6776 0.64966 0.3959 0.0
H456 H 0.47941 0.78905 0.34958 0.0
H457 H 0.64933 0.92567 0.32389 0.0
H458 H 0.61997 0.00217 0.32951 0.0
H459 H 0.54326 0.02873 0.33933 0.0
H460 H 0.3742 0.89305 0.36551 0.0
H461 H 0.40582 0.81712 0.36179 0.0
C462 C 0.51035 0.83567 0.34543 0.0
C463 C 0.5661 0.85148 0.33614 0.0
C464 C 0.49297 0.87925 0.34843 0.0
C465 C 0.60606 0.91223 0.33108 0.0
C466 C 0.58917 0.95596 0.33411 0.0
C467 C 0.51332 0.98242 0.3441 0.0
C468 C 0.45628 0.96588 0.35232 0.0
C469 C 0.53216 0.93961 0.34227 0.0
C470 C 0.41825 0.90634 0.35898 0.0
C471 C 0.43631 0.86313 0.35691 0.0
H472 H 0.53224 0.54739 0.50599 0.0
H473 H 0.5253 0.42156 0.55216 0.0
H474 H 0.6213 0.43363 0.53951 0.0
H475 H 0.70435 0.47647 0.5141 0.0
H476 H 0.707 0.59983 0.46769 0.0
H477 H 0.61425 0.5909 0.48153 0.0
C478 C 0.55165 0.5227 0.51344 0.0
C479 C 0.52145 0.48332 0.52987 0.0
C480 C 0.6055 0.52864 0.50585 0.0
C481 C 0.54777 0.45231 0.53947 0.0
C482 C 0.60232 0.45877 0.53215 0.0
C483 C 0.68427 0.50097 0.50697 0.0
C484 C 0.71226 0.53857 0.4899 0.0
C485 C 0.63095 0.49599 0.51508 0.0
C486 C 0.68635 0.57072 0.48091 0.0
C487 C 0.63342 0.5658 0.48881 0.0
H488 H 0.15145 0.66169 0.68493 0.0
H489 H 0.01457 0.68739 0.65435 0.0
H490 H 0.9406 0.58165 0.65976 0.0
H491 H 0.91652 0.48068 0.67084 0.0
H492 H 0.05199 0.454 0.70171 0.0
H493 H 0.12499 0.56174 0.69846 0.0
C494 C 0.10529 0.64443 0.67967 0.0
C495 C 0.08893 0.68233 0.66902 0.0
C496 C 0.06294 0.58338 0.68264 0.0
C497 C 0.02869 0.65922 0.66245 0.0
C498 C -0.01371 0.59865 0.66545 0.0
C499 C 0.96207 0.49849 0.67683 0.0
C500 C -0.02067 0.4597 0.6862 0.0
C501 C 0.00334 0.56013 0.67507 0.0
C502 C 0.03793 0.48328 0.69434 0.0
C503 C 0.0796 0.54471 0.69248 0.0
H504 H 0.46597 0.19655 0.84922 0.0
H505 H 0.34289 0.08233 0.80185 0.0
H506 H 0.35337 -0.00233 0.81392 0.0
H507 H 0.40118 0.95733 0.83645 0.0
H508 H 0.52526 0.07019 0.88377 0.0
H509 H 0.50949 0.1536 0.87343 0.0
C510 C 0.44147 0.15312 0.84157 0.0
C511 C 0.40414 0.146 0.82458 0.0
C512 C 0.44746 0.10421 0.84862 0.0
C513 C 0.372 0.08919 0.81498 0.0
C514 C 0.3779 0.04061 0.82184 0.0
C515 C 0.42442 -7e-05 0.84467 0.0
C516 C 0.46474 0.00759 0.86071 0.0
C517 C 0.41596 0.04781 0.83848 0.0
C518 C 0.49391 0.06298 0.87133 0.0
C519 C 0.48529 0.1109 0.86534 0.0
H520 H 0.25142 0.46071 0.01533 0.0
H521 H 0.23738 0.31334 0.97823 0.0
H522 H 0.33808 0.33621 0.98908 0.0
H523 H 0.43326 0.40374 0.00616 0.0
H524 H 0.44909 0.55248 0.04273 0.0
H525 H 0.34389 0.52279 0.03512 0.0
C526 C 0.26995 0.433 0.00985 0.0
C527 C 0.23732 0.38608 -0.00427 0.0
C528 C 0.32828 0.4469 0.01587 0.0
C529 C 0.26184 0.35029 0.98891 0.0
C530 C 0.31947 0.36333 -0.00494 0.0
C531 C 0.41364 0.42953 0.01255 0.0
C532 C 0.44899 0.48074 0.02467 0.0
C533 C 0.35366 0.41259 0.00802 0.0
C534 C 0.42272 0.513 0.03323 0.0
C535 C 0.36271 0.49618 0.02886 0.0
H536 H 0.03054 0.46643 0.16137 0.0
H537 H 0.92452 0.45934 0.21452 0.0
H538 H 0.85492 0.35259 0.20801 0.0
H539 H 0.81905 0.26588 0.18532 0.0
H540 H 0.92086 0.27473 0.13081 0.0
H541 H -0.00112 0.37688 0.1402 0.0
C542 C -0.00752 0.44161 0.17166 0.0
C543 C -0.01804 0.47098 0.18818 0.0
C544 C 0.95224 0.38095 0.16762 0.0
C545 C 0.93305 0.4379 0.20153 0.0
C546 C 0.89336 0.37696 0.19784 0.0
C547 C 0.85849 0.28988 0.17552 0.0
C548 C 0.86369 0.26356 0.15716 0.0
C549 C 0.90171 0.34874 0.18061 0.0
C550 C 0.9157 0.29445 0.14493 0.0
C551 C 0.96002 0.35282 0.15022 0.0
H552 H 0.96381 0.4083 0.48425 0.0
H553 H 0.0852 0.53617 0.43932 0.0
H554 H 0.16682 0.51971 0.45162 0.0
H555 H 0.20483 0.47453 0.4768 0.0
H556 H 0.08272 0.34941 0.5223 0.0
H557 H 2e-05 0.36018 0.50812 0.0
C558 C 0.00798 0.43243 0.47701 0.0
C559 C 0.0187 0.47393 0.46109 0.0
C560 C 0.05463 0.42392 0.48442 0.0
C561 C 0.07588 0.50401 0.45166 0.0
C562 C 0.12262 0.49498 0.45877 0.0
C563 C 0.16016 0.44971 0.48364 0.0
C564 C 0.15006 0.41171 0.50067 0.0
C565 C 0.11275 0.4561 0.47546 0.0
C566 C 0.09177 0.37918 0.5092 0.0
C567 C 0.0444 0.38517 0.50111 0.0
H568 H 0.47838 0.92041 0.65065 0.0
H569 H 0.45065 0.05419 0.61918 0.0
H570 H 0.55857 0.12747 0.62214 0.0
H571 H 0.65925 0.15453 0.63533 0.0
H572 H 0.68617 0.01913 0.6663 0.0
H573 H 0.58 0.9451 0.66149 0.0
C574 C 0.496 0.96568 0.64449 0.0
C575 C 0.45684 0.98235 0.635 0.0
C576 C 0.55782 0.00706 0.64601 0.0
C577 C 0.48019 0.04058 0.62665 0.0
C578 C 0.54174 0.0824 0.62833 0.0
C579 C 0.64216 0.10868 0.64082 0.0
C580 C 0.68062 0.09278 0.65136 0.0
C581 C 0.58084 0.06625 0.63817 0.0
C582 C 0.65765 0.03291 0.65822 0.0
C583 C 0.59681 -0.00953 0.65558 0.0
H584 H 0.4862 0.70709 0.80486 0.0
H585 H 0.62102 0.71933 0.84825 0.0
H586 H 0.60872 0.62377 0.8358 0.0
H587 H 0.55618 0.53465 0.81413 0.0
H588 H 0.42046 0.52082 0.77088 0.0
H589 H 0.43763 0.61998 0.78156 0.0
C590 C 0.5129 0.68886 0.81158 0.0
C591 C 0.55399 0.71997 0.82758 0.0
C592 C 0.50575 0.63391 0.80435 0.0
C593 C 0.58895 0.69624 0.83593 0.0
C594 C 0.58197 0.64159 0.82885 0.0
C595 C 0.53058 0.5534 0.80689 0.0
C596 C 0.4867 0.52011 0.7919 0.0
C597 C 0.54002 0.60979 0.81326 0.0
C598 C 0.45454 0.54549 0.78249 0.0
C599 C 0.46403 0.602 0.78867 0.0
H600 H 0.76105 0.47885 0.971 0.0
H601 H 0.8926 0.6321 0.00617 0.0
H602 H 0.97122 0.60944 -0.00359 0.0
H603 H 0.00179 0.54352 0.97985 0.0
H604 H 0.87311 0.39061 0.94423 0.0
H605 H 0.79408 0.41617 0.9521 0.0
C606 C 0.80699 0.50754 0.97639 0.0
C607 C 0.82058 0.55668 0.98949 0.0
C608 C 0.85238 0.49427 0.97075 0.0
C609 C 0.88055 0.59376 -0.00383 0.0
C610 C 0.9257 0.58085 0.99064 0.0
C611 C 0.95643 0.51574 0.97378 0.0
C612 C 0.94281 0.46485 0.96177 0.0
C613 C 0.91185 0.5307 0.97829 0.0
C614 C 0.88437 0.42999 0.9536 0.0
C615 C 0.83929 0.44447 0.95814 0.0
H616 H 0.4453 0.94461 0.11635 0.0
H617 H 0.48514 0.04673 0.17301 0.0
H618 H 0.37989 -0.01335 0.18367 0.0
H619 H 0.27947 0.89975 0.17824 0.0
H620 H 0.24131 0.79488 0.12237 0.0
H621 H 0.34339 0.86261 0.10982 0.0
C622 C 0.43103 0.95386 0.13102 0.0
C623 C 0.47296 -0.00074 0.144 0.0
C624 C 0.37093 0.91903 0.13713 0.0
C625 C 0.45366 0.01148 0.16281 0.0
C626 C 0.39357 0.97733 0.16891 0.0
C627 C 0.29319 0.89254 0.16315 0.0
C628 C 0.25369 0.84245 0.1513 0.0
C629 C 0.35218 0.93033 0.15635 0.0
C630 C 0.27167 0.83307 0.13181 0.0
C631 C 0.32985 0.87152 0.12467 0.0
H632 H 0.41321 0.47097 0.31172 0.0
H633 H 0.5656 0.49082 0.27638 0.0
H634 H 0.5358 0.38499 0.28316 0.0
H635 H 0.47233 0.29088 0.3023 0.0
H636 H 0.32105 0.27414 0.33796 0.0
H637 H 0.3447 0.37507 0.32777 0.0
C638 C 0.43962 0.45194 0.30537 0.0
C639 C 0.49191 0.48836 0.29393 0.0
C640 C 0.42279 0.392 0.30951 0.0
C641 C 0.52515 0.46325 0.28533 0.0
C642 C 0.50837 0.40305 0.2893 0.0
C643 C 0.44421 0.30908 0.30767 0.0
C644 C 0.39577 0.27538 0.32118 0.0
C645 C 0.4582 0.36757 0.30188 0.0
C646 C 0.35923 0.29932 0.32779 0.0
C647 C 0.37257 0.35708 0.32197 0.0
H648 H 0.04143 0.72737 0.39733 0.0
H649 H 0.10431 0.77045 0.46011 0.0
H650 H 0.18812 0.86816 0.44894 0.0
H651 H 0.23903 0.94294 0.42153 0.0
H652 H 0.16934 0.90275 0.35932 0.0
H653 H 0.09161 0.80205 0.37008 0.0
C654 C 0.07433 0.7578 0.40845 0.0
C655 C 0.06791 0.7421 0.42937 0.0
C656 C 0.12009 0.81448 0.40208 0.0
C657 C 0.10929 0.78203 0.44387 0.0
C658 C 0.1567 0.83774 0.43751 0.0
C659 C 0.20684 0.912 0.41036 0.0
C660 C 0.20952 0.92996 0.38974 0.0
C661 C 0.16178 0.8548 0.41671 0.0
C662 C 0.16749 0.88992 0.37537 0.0
C663 C 0.12344 0.83232 0.38145 0.0
H664 H 0.28918 0.2415 0.59615 0.0
H665 H 0.32652 0.19755 0.53561 0.0
H666 H 0.30864 0.09961 0.54831 0.0
H667 H 0.27582 0.02512 0.57572 0.0
H668 H 0.23224 0.06577 0.63591 0.0
H669 H 0.2584 0.16705 0.62405 0.0
C670 C 0.29461 0.21089 0.58588 0.0
C671 C 0.3095 0.2263 0.56508 0.0
C672 C 0.28201 0.15415 0.59307 0.0
C673 C 0.31522 0.18618 0.55172 0.0
C674 C 0.30471 0.13034 0.55893 0.0
C675 C 0.27222 0.05609 0.58634 0.0
C676 C 0.25196 0.03804 0.60664 0.0
C677 C 0.28683 0.11351 0.57943 0.0
C678 C 0.24721 0.07856 0.62014 0.0
C679 C 0.2625 0.13645 0.61342 0.0
H680 H 0.23956 0.28673 0.72603 0.0
H681 H 0.19317 0.32537 0.78597 0.0
H682 H 0.09665 0.30958 0.77244 0.0
H683 H 0.02392 0.27844 0.74454 0.0
H684 H 0.06635 0.23368 0.68485 0.0
H685 H 0.16655 0.25753 0.6975 0.0
C686 C 0.20873 0.29287 0.73597 0.0
C687 C 0.22314 0.30758 0.75687 0.0
C688 C 0.15265 0.28154 0.72829 0.0
C689 C 0.18267 0.3142 0.76981 0.0
C690 C 0.1276 0.3049 0.76212 0.0
C691 C 0.05501 0.27409 0.73417 0.0
C692 C 0.03771 0.25416 0.71379 0.0
C693 C 0.11176 0.28736 0.74154 0.0
C694 C 0.0785 0.24846 0.70067 0.0
C695 C 0.13579 0.2624 0.70785 0.0
H696 H 0.78801 0.08636 0.86524 0.0
H697 H 0.67482 0.07832 0.91628 0.0
H698 H 0.75972 0.16557 0.93199 0.0
H699 H 0.86846 0.23497 0.93355 0.0
H700 H -0.01776 0.24569 0.88272 0.0
H701 H 0.89441 0.16588 0.86447 0.0
C702 C 0.78165 0.10428 0.87961 0.0
C703 C 0.72586 0.07487 0.8899 0.0
C704 C 0.83074 0.15404 0.88872 0.0
C705 C 0.71785 0.09933 0.90829 0.0
C706 C 0.76629 0.14913 0.91734 0.0
C707 C 0.87347 0.21987 0.91839 0.0
C708 C 0.93063 0.24408 0.90947 0.0
C709 C 0.82329 0.17509 0.9081 0.0
C710 C 0.93783 0.22629 0.88973 0.0
C711 C 0.88795 0.18103 0.87938 0.0
H712 H 0.65447 0.93277 0.06566 0.0
H713 H 0.64699 0.87315 0.12841 0.0
H714 H 0.64089 0.77935 0.11621 0.0
H715 H 0.64863 0.72048 0.08793 0.0
H716 H 0.66823 0.78579 0.02535 0.0
H717 H 0.65882 0.87194 0.03718 0.0
C718 C 0.65015 0.89844 0.07655 0.0
C719 C 0.65075 0.90879 0.09777 0.0
C720 C 0.64984 0.84659 0.06947 0.0
C721 C 0.64648 0.8653 0.11196 0.0
C722 C 0.64325 0.81212 0.10501 0.0
C723 C 0.65006 0.75323 0.07688 0.0
C724 C 0.65934 0.74742 0.05589 0.0
C725 C 0.64665 0.80321 0.08384 0.0
C726 C 0.66175 0.79012 0.04165 0.0
C727 C 0.65617 0.83905 0.04838 0.0
H728 H 0.73184 0.68099 0.23784 0.0
H729 H 0.81562 0.71896 0.29801 0.0
H730 H 0.90033 0.7099 0.28399 0.0
H731 H 0.95199 0.6963 0.25419 0.0
H732 H 0.8713 0.66741 0.19369 0.0
H733 H 0.78254 0.66703 0.20839 0.0
C734 C 0.76829 0.68659 0.24797 0.0
C735 C 0.76773 0.7003 0.2689 0.0
C736 C 0.81691 0.68294 0.23974 0.0
C737 C 0.81555 0.70858 0.28181 0.0
C738 C 0.86367 0.70327 0.27382 0.0
C739 C 0.91445 0.68906 0.24433 0.0
C740 C 0.91733 0.68146 0.223 0.0
C741 C 0.86499 0.69112 0.25276 0.0
C742 C 0.86949 0.67334 0.21018 0.0
C743 C 0.81906 0.67318 0.21855 0.0
H744 H 0.7741 0.40812 0.39452 0.0
H745 H 0.72523 0.31362 0.45284 0.0
H746 H 0.63799 0.22853 0.43673 0.0
H747 H 0.57201 0.18564 0.40719 0.0
H748 H 0.61567 0.28225 0.34923 0.0
H749 H 0.70971 0.3622 0.36416 0.0
C750 C 0.74486 0.36846 0.40361 0.0
C751 C 0.7557 0.36697 0.42482 0.0
C752 C 0.694 0.32061 0.3944 0.0
C753 C 0.71731 0.31577 0.43651 0.0
C754 C 0.66758 0.26724 0.42733 0.0
C755 C 0.60217 0.22378 0.39766 0.0
C756 C 0.58657 0.22823 0.37716 0.0
C757 C 0.65487 0.2699 0.40643 0.0
C758 C 0.62647 0.27795 0.3651 0.0
C759 C 0.68011 0.32365 0.37362 0.0
H760 H 0.3233 0.75915 0.57924 0.0
H761 H 0.30009 0.67417 0.63886 0.0
H762 H 0.32283 0.59977 0.62363 0.0
H763 H 0.3454 0.55733 0.59318 0.0
H764 H 0.36395 0.6406 0.53354 0.0
H765 H 0.34767 0.71855 0.54924 0.0
C766 C 0.32335 0.7246 0.58903 0.0
C767 C 0.30989 0.72219 0.61019 0.0
C768 C 0.336 0.68216 0.58021 0.0
C769 C 0.31007 0.6769 0.62253 0.0
C770 C 0.32323 0.63453 0.61385 0.0
C771 C 0.34695 0.59317 0.58367 0.0
C772 C 0.35625 0.59367 0.56226 0.0
C773 C 0.33595 0.63667 0.59269 0.0
C774 C 0.35695 0.63953 0.55005 0.0
C775 C 0.34747 0.68384 0.559 0.0
H776 H 0.55336 0.34139 0.73034 0.0
H777 H 0.63308 0.34913 0.78995 0.0
H778 H 0.71097 0.33381 0.77361 0.0
H779 H 0.75346 0.31494 0.74289 0.0
H780 H 0.67235 0.30342 0.68321 0.0
H781 H 0.59686 0.32318 0.69931 0.0
C782 C 0.58832 0.34064 0.73974 0.0
C783 C 0.58794 0.34686 0.7613 0.0
C784 C 0.63192 0.33051 0.73032 0.0
C785 C 0.63267 0.34457 0.77333 0.0
C786 C 0.67699 0.33568 0.76401 0.0
C787 C 0.71954 0.31696 0.73328 0.0
C788 C 0.71863 0.30787 0.71184 0.0
C789 C 0.67653 0.32798 0.74258 0.0
C790 C 0.67394 0.31015 0.69974 0.0
C791 C 0.63098 0.32162 0.70892 0.0
H792 H 0.4075 0.76394 0.92305 0.0
H793 H 0.3232 0.70035 0.86347 0.0
H794 H 0.23638 0.61591 0.88002 0.0
H795 H 0.18496 0.56226 0.911 0.0
H796 H 0.26876 0.62262 0.97073 0.0
H797 H 0.35669 0.70766 0.95431 0.0
C798 C 0.36994 0.73183 0.91368 0.0
C799 C 0.3711 0.73852 0.89212 0.0
C800 C 0.3207 0.68354 0.92325 0.0
C801 C 0.32298 0.69604 0.8801 0.0
C802 C 0.27348 0.64801 0.88953 0.0
C803 C 0.22214 0.59438 0.92052 0.0
C804 C 0.22032 0.5874 0.94203 0.0
C805 C 0.2719 0.6418 0.91104 0.0
C806 C 0.26938 0.62789 0.95413 0.0
C807 C 0.31932 0.67618 0.94476 0.0
H808 H 0.62941 0.2082 0.0757 0.0
H809 H 0.6535 0.2992 0.13403 0.0
H810 H 0.64817 0.38178 0.11638 0.0
H811 H 0.63426 0.42541 0.08463 0.0
H812 H 0.61236 0.33459 0.02635 0.0
H813 H 0.61884 0.25302 0.04402 0.0
C814 C 0.63296 0.24583 0.08464 0.0
C815 C 0.64059 0.2474 0.10616 0.0
C816 C 0.62999 0.2924 0.07448 0.0
C817 C 0.64715 0.29714 0.11747 0.0
C818 C 0.64391 0.34398 0.10741 0.0
C819 C 0.6302 0.38741 0.0758 0.0
C820 C 0.62172 0.3851 0.05429 0.0
C821 C 0.63471 0.34155 0.08597 0.0
C822 C 0.61838 0.33677 0.04294 0.0
C823 C 0.62213 0.2904 0.05301 0.0
H824 H 0.43965 0.67624 0.23521 0.0
H825 H 0.34964 0.64686 0.29412 0.0
H826 H 0.25993 0.63714 0.27681 0.0
H827 H 0.20758 0.6361 0.24532 0.0
H828 H 0.29714 0.66699 0.18632 0.0
H829 H 0.38736 0.67668 0.20355 0.0
C830 C 0.40046 0.66762 0.24434 0.0
C831 C 0.40126 0.66192 0.26597 0.0
C832 C 0.34919 0.66204 0.23432 0.0
C833 C 0.35025 0.65141 0.27749 0.0
C834 C 0.29893 0.64568 0.2676 0.0
C835 C 0.2465 0.64437 0.23609 0.0
C836 C 0.24539 0.65005 0.21449 0.0
C837 C 0.29794 0.65055 0.24606 0.0
C838 C 0.29675 0.66202 0.20292 0.0
C839 C 0.34825 0.66767 0.21277 0.0
loop_
_geom_bond_atom_site_label_1
_geom_bond_atom_site_label_2
_geom_bond_distance
_geom_bond_site_symmetry_2
_ccdc_geom_bond_type
Sc0 O3 2.025 . S
Sc0 O10 2.105 . S
Sc0 O13 2.105 . S
Sc0 O16 2.105 . S
Sc0 O19 2.105 . S
Sc1 O3 2.025 . S
Sc1 O11 2.105 . S
Sc1 O15 2.105 . S
Sc1 O17 2.105 . S
Sc1 O21 2.105 . S
Sc2 O3 2.025 . S
Sc2 O12 2.105 . S
Sc2 O14 2.105 . S
Sc2 O18 2.105 . S
Sc2 O20 2.105 . S
O3 Sc0 2.025 . S
O3 Sc1 2.025 . S
O3 Sc2 2.025 . S
C4 O10 1.268 . S
C4 O20 1.268 . S
C5 O11 1.268 . S
C5 O19 1.268 . S
C6 O12 1.268 1_565 S
C6 O21 1.268 1_565 S
C7 O13 1.268 . S
C7 O17 1.268 . S
C8 O14 1.268 . S
C8 O16 1.268 . S
C9 O15 1.268 . S
C9 O18 1.268 . S
O10 Sc0 2.105 . S
O10 C4 1.268 . S
O11 Sc1 2.105 . S
O11 C5 1.268 . S
O12 Sc2 2.105 . S
O12 C6 1.268 1_545 S
O13 Sc0 2.105 . S
O13 C7 1.268 . S
O14 Sc2 2.105 . S
O14 C8 1.268 . S
O15 Sc1 2.105 . S
O15 C9 1.268 . S
O16 Sc0 2.105 . S
O16 C8 1.268 . S
O17 Sc1 2.105 . S
O17 C7 1.268 . S
O18 Sc2 2.105 . S
O18 C9 1.268 . S
O19 Sc0 2.105 . S
O19 C5 1.268 . S
O20 Sc2 2.105 . S
O20 C4 1.268 . S
O21 Sc1 2.105 . S
O21 C6 1.268 1_545 S
Sc22 O25 2.025 . S
Sc22 O32 2.105 . S
Sc22 O35 2.105 . S
Sc22 O38 2.105 . S
Sc22 O41 2.105 . S
Sc23 O25 2.025 . S
Sc23 O33 2.105 . S
Sc23 O37 2.105 . S
Sc23 O39 2.105 . S
Sc23 O43 2.105 . S
Sc24 O25 2.025 . S
Sc24 O34 2.105 . S
Sc24 O36 2.105 . S
Sc24 O40 2.105 . S
Sc24 O42 2.105 . S
O25 Sc22 2.025 . S
O25 Sc23 2.025 . S
O25 Sc24 2.025 . S
C26 O32 1.268 . S
C26 O42 1.268 . S
C27 O33 1.268 . S
C27 O41 1.268 . S
C28 O34 1.268 . S
C28 O43 1.268 . S
C29 O35 1.268 . S
C29 O39 1.268 . S
C30 O36 1.268 . S
C30 O38 1.268 . S
C31 O37 1.268 . S
C31 O40 1.268 . S
O32 Sc22 2.105 . S
O32 C26 1.268 . S
O33 Sc23 2.105 . S
O33 C27 1.268 . S
O34 Sc24 2.105 . S
O34 C28 1.268 . S
O35 Sc22 2.105 . S
O35 C29 1.268 . S
O36 Sc24 2.105 . S
O36 C30 1.268 . S
O37 Sc23 2.105 . S
O37 C31 1.268 . S
O38 Sc22 2.105 . S
O38 C30 1.268 . S
O39 Sc23 2.105 . S
O39 C29 1.268 . S
O40 Sc24 2.105 . S
O40 C31 1.268 . S
O41 Sc22 2.105 . S
O41 C27 1.268 . S
O42 Sc24 2.105 . S
O42 C26 1.268 . S
O43 Sc23 2.105 . S
O43 C28 1.268 . S
Sc44 O47 2.025 . S
Sc44 O54 2.105 . S
Sc44 O57 2.105 . S
Sc44 O60 2.105 . S
Sc44 O63 2.105 . S
Sc45 O47 2.025 . S
Sc45 O55 2.105 . S
Sc45 O59 2.105 . S
Sc45 O61 2.105 . S
Sc45 O65 2.105 . S
Sc46 O47 2.025 . S
Sc46 O56 2.105 . S
Sc46 O58 2.105 . S
Sc46 O62 2.105 . S
Sc46 O64 2.105 . S
O47 Sc44 2.025 . S
O47 Sc45 2.025 . S
O47 Sc46 2.025 . S
C48 O54 1.268 . S
C48 O64 1.268 . S
C49 O55 1.268 . S
C49 O63 1.268 . S
C50 O56 1.268 1_455 S
C50 O65 1.268 1_455 S
C51 O57 1.268 . S
C51 O61 1.268 . S
C52 O58 1.268 . S
C52 O60 1.268 . S
C53 O59 1.268 . S
C53 O62 1.268 . S
O54 Sc44 2.105 . S
O54 C48 1.268 . S
O55 Sc45 2.105 . S
O55 C49 1.268 . S
O56 Sc46 2.105 . S
O56 C50 1.268 1_655 S
O57 Sc44 2.105 . S
O57 C51 1.268 . S
O58 Sc46 2.105 . S
O58 C52 1.268 . S
O59 Sc45 2.105 . S
O59 C53 1.268 . S
O60 Sc44 2.105 . S
O60 C52 1.268 . S
O61 Sc45 2.105 . S
O61 C51 1.268 . S
O62 Sc46 2.105 . S
O62 C53 1.268 . S
O63 Sc44 2.105 . S
O63 C49 1.268 . S
O64 Sc46 2.105 . S
O64 C48 1.268 . S
O65 Sc45 2.105 . S
O65 C50 1.268 1_655 S
Sc66 O69 2.025 . S
Sc66 O76 2.105 . S
Sc66 O79 2.105 . S
Sc66 O82 2.105 . S
Sc66 O85 2.105 . S
Sc67 O69 2.025 . S
Sc67 O77 2.105 . S
Sc67 O81 2.105 . S
Sc67 O83 2.105 . S
Sc67 O87 2.105 . S
Sc68 O69 2.025 . S
Sc68 O78 2.105 . S
Sc68 O80 2.105 . S
Sc68 O84 2.105 . S
Sc68 O86 2.105 . S
O69 Sc66 2.025 . S
O69 Sc67 2.025 . S
O69 Sc68 2.025 . S
C70 O76 1.268 . S
C70 O86 1.268 . S
C71 O77 1.268 . S
C71 O85 1.268 . S
C72 O78 1.268 . S
C72 O87 1.268 . S
C73 O79 1.268 1_545 S
C73 O83 1.268 1_545 S
C74 O80 1.268 . S
C74 O82 1.268 . S
C75 O81 1.268 . S
C75 O84 1.268 . S
O76 Sc66 2.105 . S
O76 C70 1.268 . S
O77 Sc67 2.105 . S
O77 C71 1.268 . S
O78 Sc68 2.105 . S
O78 C72 1.268 . S
O79 Sc66 2.105 . S
O79 C73 1.268 1_565 S
O80 Sc68 2.105 . S
O80 C74 1.268 . S
O81 Sc67 2.105 . S
O81 C75 1.268 . S
O82 Sc66 2.105 . S
O82 C74 1.268 . S
O83 Sc67 2.105 . S
O83 C73 1.268 1_565 S
O84 Sc68 2.105 . S
O84 C75 1.268 . S
O85 Sc66 2.105 . S
O85 C71 1.268 . S
O86 Sc68 2.105 . S
O86 C70 1.268 . S
O87 Sc67 2.105 . S
O87 C72 1.268 . S
Sc88 O91 2.025 . S
Sc88 O98 2.105 . S
Sc88 O101 2.105 . S
Sc88 O104 2.105 . S
Sc88 O107 2.105 1_554 S
Sc89 O91 2.025 . S
Sc89 O99 2.105 . S
Sc89 O103 2.105 . S
Sc89 O105 2.105 . S
Sc89 O109 2.105 . S
Sc90 O91 2.025 . S
Sc90 O100 2.105 . S
Sc90 O102 2.105 . S
Sc90 O106 2.105 . S
Sc90 O108 2.105 . S
O91 Sc88 2.025 . S
O91 Sc89 2.025 . S
O91 Sc90 2.025 . S
C92 O98 1.268 . S
C92 O108 1.268 . S
C93 O99 1.268 1_556 S
C93 O107 1.268 . S
C94 O100 1.268 . S
C94 O109 1.268 . S
C95 O101 1.268 . S
C95 O105 1.268 . S
C96 O102 1.268 . S
C96 O104 1.268 . S
C97 O103 1.268 . S
C97 O106 1.268 . S
O98 Sc88 2.105 . S
O98 C92 1.268 . S
O99 Sc89 2.105 . S
O99 C93 1.268 1_554 S
O100 Sc90 2.105 . S
O100 C94 1.268 . S
O101 Sc88 2.105 . S
O101 C95 1.268 . S
O102 Sc90 2.105 . S
O102 C96 1.268 . S
O103 Sc89 2.105 . S
O103 C97 1.268 . S
O104 Sc88 2.105 . S
O104 C96 1.268 . S
O105 Sc89 2.105 . S
O105 C95 1.268 . S
O106 Sc90 2.105 . S
O106 C97 1.268 . S
O107 Sc88 2.105 1_556 S
O107 C93 1.268 . S
O108 Sc90 2.105 . S
O108 C92 1.268 . S
O109 Sc89 2.105 . S
O109 C94 1.268 . S
Sc110 O113 2.025 . S
Sc110 O120 2.105 . S
Sc110 O123 2.105 . S
Sc110 O126 2.105 . S
Sc110 O129 2.105 . S
Sc111 O113 2.025 . S
Sc111 O121 2.105 . S
Sc111 O125 2.105 . S
Sc111 O127 2.105 . S
Sc111 O131 2.105 . S
Sc112 O113 2.025 . S
Sc112 O122 2.105 . S
Sc112 O124 2.105 . S
Sc112 O128 2.105 . S
Sc112 O130 2.105 . S
O113 Sc110 2.025 . S
O113 Sc111 2.025 . S
O113 Sc112 2.025 . S
C114 O120 1.268 . S
C114 O130 1.268 . S
C115 O121 1.268 . S
C115 O129 1.268 . S
C116 O122 1.268 . S
C116 O131 1.268 . S
C117 O123 1.268 1_655 S
C117 O127 1.268 1_655 S
C118 O124 1.268 . S
C118 O126 1.268 . S
C119 O125 1.268 . S
C119 O128 1.268 . S
O120 Sc110 2.105 . S
O120 C114 1.268 . S
O121 Sc111 2.105 . S
O121 C115 1.268 . S
O122 Sc112 2.105 . S
O122 C116 1.268 . S
O123 Sc110 2.105 . S
O123 C117 1.268 1_455 S
O124 Sc112 2.105 . S
O124 C118 1.268 . S
O125 Sc111 2.105 . S
O125 C119 1.268 . S
O126 Sc110 2.105 . S
O126 C118 1.268 . S
O127 Sc111 2.105 . S
O127 C117 1.268 1_455 S
O128 Sc112 2.105 . S
O128 C119 1.268 . S
O129 Sc110 2.105 . S
O129 C115 1.268 . S
O130 Sc112 2.105 . S
O130 C114 1.268 . S
O131 Sc111 2.105 . S
O131 C116 1.268 . S
Sc132 O135 2.025 . S
Sc132 O142 2.105 . S
Sc132 O145 2.105 . S
Sc132 O148 2.105 . S
Sc132 O151 2.105 . S
Sc133 O135 2.025 . S
Sc133 O143 2.105 . S
Sc133 O147 2.105 . S
Sc133 O149 2.105 . S
Sc133 O153 2.105 . S
Sc134 O135 2.025 . S
Sc134 O144 2.105 . S
Sc134 O146 2.105 . S
Sc134 O150 2.105 . S
Sc134 O152 2.105 . S
O135 Sc132 2.025 . S
O135 Sc133 2.025 . S
O135 Sc134 2.025 . S
C136 O142 1.268 . S
C136 O152 1.268 . S
C137 O143 1.268 . S
C137 O151 1.268 . S
C138 O144 1.268 1_455 S
C138 O153 1.268 1_455 S
C139 O145 1.268 . S
C139 O149 1.268 . S
C140 O146 1.268 . S
C140 O148 1.268 . S
C141 O147 1.268 . S
C141 O150 1.268 . S
O142 Sc132 2.105 . S
O142 C136 1.268 . S
O143 Sc133 2.105 . S
O143 C137 1.268 . S
O144 Sc134 2.105 . S
O144 C138 1.268 1_655 S
O145 Sc132 2.105 . S
O145 C139 1.268 . S
O146 Sc134 2.105 . S
O146 C140 1.268 . S
O147 Sc133 2.105 . S
O147 C141 1.268 . S
O148 Sc132 2.105 . S
O148 C140 1.268 . S
O149 Sc133 2.105 . S
O149 C139 1.268 . S
O150 Sc134 2.105 . S
O150 C141 1.268 . S
O151 Sc132 2.105 . S
O151 C137 1.268 . S
O152 Sc134 2.105 . S
O152 C136 1.268 . S
O153 Sc133 2.105 . S
O153 C138 1.268 1_655 S
Sc154 O157 2.025 . S
Sc154 O164 2.105 . S
Sc154 O167 2.105 . S
Sc154 O170 2.105 . S
Sc154 O173 2.105 . S
Sc155 O157 2.025 . S
Sc155 O165 2.105 . S
Sc155 O169 2.105 . S
Sc155 O171 2.105 . S
Sc155 O175 2.105 . S
Sc156 O157 2.025 . S
Sc156 O166 2.105 . S
Sc156 O168 2.105 . S
Sc156 O172 2.105 . S
Sc156 O174 2.105 . S
O157 Sc154 2.025 . S
O157 Sc155 2.025 . S
O157 Sc156 2.025 . S
C158 O164 1.268 . S
C158 O174 1.268 . S
C159 O165 1.268 . S
C159 O173 1.268 . S
C160 O166 1.268 . S
C160 O175 1.268 . S
C161 O167 1.268 1_545 S
C161 O171 1.268 1_545 S
C162 O168 1.268 . S
C162 O170 1.268 . S
C163 O169 1.268 . S
C163 O172 1.268 . S
O164 Sc154 2.105 . S
O164 C158 1.268 . S
O165 Sc155 2.105 . S
O165 C159 1.268 . S
O166 Sc156 2.105 . S
O166 C160 1.268 . S
O167 Sc154 2.105 . S
O167 C161 1.268 1_565 S
O168 Sc156 2.105 . S
O168 C162 1.268 . S
O169 Sc155 2.105 . S
O169 C163 1.268 . S
O170 Sc154 2.105 . S
O170 C162 1.268 . S
O171 Sc155 2.105 . S
O171 C161 1.268 1_565 S
O172 Sc156 2.105 . S
O172 C163 1.268 . S
O173 Sc154 2.105 . S
O173 C159 1.268 . S
O174 Sc156 2.105 . S
O174 C158 1.268 . S
O175 Sc155 2.105 . S
O175 C160 1.268 . S
Sc176 O179 2.025 . S
Sc176 O186 2.105 . S
Sc176 O189 2.105 . S
Sc176 O192 2.105 . S
Sc176 O195 2.105 . S
Sc177 O179 2.025 . S
Sc177 O187 2.105 . S
Sc177 O191 2.105 . S
Sc177 O193 2.105 . S
Sc177 O197 2.105 . S
Sc178 O179 2.025 . S
Sc178 O188 2.105 . S
Sc178 O190 2.105 . S
Sc178 O194 2.105 . S
Sc178 O196 2.105 . S
O179 Sc176 2.025 . S
O179 Sc177 2.025 . S
O179 Sc178 2.025 . S
C180 O186 1.268 . S
C180 O196 1.268 . S
C181 O187 1.268 . S
C181 O195 1.268 . S
C182 O188 1.268 . S
C182 O197 1.268 . S
C183 O189 1.268 . S
C183 O193 1.268 . S
C184 O190 1.268 . S
C184 O192 1.268 . S
C185 O191 1.268 . S
C185 O194 1.268 . S
O186 Sc176 2.105 . S
O186 C180 1.268 . S
O187 Sc177 2.105 . S
O187 C181 1.268 . S
O188 Sc178 2.105 . S
O188 C182 1.268 . S
O189 Sc176 2.105 . S
O189 C183 1.268 . S
O190 Sc178 2.105 . S
O190 C184 1.268 . S
O191 Sc177 2.105 . S
O191 C185 1.268 . S
O192 Sc176 2.105 . S
O192 C184 1.268 . S
O193 Sc177 2.105 . S
O193 C183 1.268 . S
O194 Sc178 2.105 . S
O194 C185 1.268 . S
O195 Sc176 2.105 . S
O195 C181 1.268 . S
O196 Sc178 2.105 . S
O196 C180 1.268 . S
O197 Sc177 2.105 . S
O197 C182 1.268 . S
Sc198 O201 2.025 . S
Sc198 O208 2.105 . S
Sc198 O211 2.105 . S
Sc198 O214 2.105 . S
Sc198 O217 2.105 . S
Sc199 O201 2.025 . S
Sc199 O209 2.105 . S
Sc199 O213 2.105 . S
Sc199 O215 2.105 . S
Sc199 O219 2.105 . S
Sc200 O201 2.025 . S
Sc200 O210 2.105 . S
Sc200 O212 2.105 . S
Sc200 O216 2.105 1_556 S
Sc200 O218 2.105 . S
O201 Sc198 2.025 . S
O201 Sc199 2.025 . S
O201 Sc200 2.025 . S
C202 O208 1.268 . S
C202 O218 1.268 . S
C203 O209 1.268 . S
C203 O217 1.268 . S
C204 O210 1.268 . S
C204 O219 1.268 . S
C205 O211 1.268 1_655 S
C205 O215 1.268 1_655 S
C206 O212 1.268 . S
C206 O214 1.268 . S
C207 O213 1.268 1_554 S
C207 O216 1.268 . S
O208 Sc198 2.105 . S
O208 C202 1.268 . S
O209 Sc199 2.105 . S
O209 C203 1.268 . S
O210 Sc200 2.105 . S
O210 C204 1.268 . S
O211 Sc198 2.105 . S
O211 C205 1.268 1_455 S
O212 Sc200 2.105 . S
O212 C206 1.268 . S
O213 Sc199 2.105 . S
O213 C207 1.268 1_556 S
O214 Sc198 2.105 . S
O214 C206 1.268 . S
O215 Sc199 2.105 . S
O215 C205 1.268 1_455 S
O216 Sc200 2.105 1_554 S
O216 C207 1.268 . S
O217 Sc198 2.105 . S
O217 C203 1.268 . S
O218 Sc200 2.105 . S
O218 C202 1.268 . S
O219 Sc199 2.105 . S
O219 C204 1.268 . S
Sc220 O223 2.025 . S
Sc220 O230 2.105 . S
Sc220 O233 2.105 . S
Sc220 O236 2.105 . S
Sc220 O239 2.105 . S
Sc221 O223 2.025 . S
Sc221 O231 2.105 . S
Sc221 O235 2.105 . S
Sc221 O237 2.105 . S
Sc221 O241 2.105 . S
Sc222 O223 2.025 . S
Sc222 O232 2.105 . S
Sc222 O234 2.105 . S
Sc222 O238 2.105 . S
Sc222 O240 2.105 . S
O223 Sc220 2.025 . S
O223 Sc221 2.025 . S
O223 Sc222 2.025 . S
C224 O230 1.268 . S
C224 O240 1.268 . S
C225 O231 1.268 . S
C225 O239 1.268 . S
C226 O232 1.268 1_565 S
C226 O241 1.268 1_565 S
C227 O233 1.268 . S
C227 O237 1.268 . S
C228 O234 1.268 . S
C228 O236 1.268 . S
C229 O235 1.268 . S
C229 O238 1.268 . S
O230 Sc220 2.105 . S
O230 C224 1.268 . S
O231 Sc221 2.105 . S
O231 C225 1.268 . S
O232 Sc222 2.105 . S
O232 C226 1.268 1_545 S
O233 Sc220 2.105 . S
O233 C227 1.268 . S
O234 Sc222 2.105 . S
O234 C228 1.268 . S
O235 Sc221 2.105 . S
O235 C229 1.268 . S
O236 Sc220 2.105 . S
O236 C228 1.268 . S
O237 Sc221 2.105 . S
O237 C227 1.268 . S
O238 Sc222 2.105 . S
O238 C229 1.268 . S
O239 Sc220 2.105 . S
O239 C225 1.268 . S
O240 Sc222 2.105 . S
O240 C224 1.268 . S
O241 Sc221 2.105 . S
O241 C226 1.268 1_545 S
Sc242 O245 2.025 . S
Sc242 O252 2.105 . S
Sc242 O255 2.105 . S
Sc242 O258 2.105 . S
Sc242 O261 2.105 . S
Sc243 O245 2.025 . S
Sc243 O253 2.105 . S
Sc243 O257 2.105 . S
Sc243 O259 2.105 . S
Sc243 O263 2.105 . S
Sc244 O245 2.025 . S
Sc244 O254 2.105 . S
Sc244 O256 2.105 . S
Sc244 O260 2.105 . S
Sc244 O262 2.105 . S
O245 Sc242 2.025 . S
O245 Sc243 2.025 . S
O245 Sc244 2.025 . S
C246 O252 1.268 . S
C246 O262 1.268 . S
C247 O253 1.268 . S
C247 O261 1.268 . S
C248 O254 1.268 . S
C248 O263 1.268 . S
C249 O255 1.268 . S
C249 O259 1.268 . S
C250 O256 1.268 . S
C250 O258 1.268 . S
C251 O257 1.268 . S
C251 O260 1.268 . S
O252 Sc242 2.105 . S
O252 C246 1.268 . S
O253 Sc243 2.105 . S
O253 C247 1.268 . S
O254 Sc244 2.105 . S
O254 C248 1.268 . S
O255 Sc242 2.105 . S
O255 C249 1.268 . S
O256 Sc244 2.105 . S
O256 C250 1.268 . S
O257 Sc243 2.105 . S
O257 C251 1.268 . S
O258 Sc242 2.105 . S
O258 C250 1.268 . S
O259 Sc243 2.105 . S
O259 C249 1.268 . S
O260 Sc244 2.105 . S
O260 C251 1.268 . S
O261 Sc242 2.105 . S
O261 C247 1.268 . S
O262 Sc244 2.105 . S
O262 C246 1.268 . S
O263 Sc243 2.105 . S
O263 C248 1.268 . S
H264 C270 0.930 . S
H265 C273 0.930 . S
H266 C274 0.930 . S
H267 C275 0.930 . S
H268 C278 0.930 . S
H269 C279 0.930 . S
C270 H264 0.930 . S
C270 C271 1.355 . S
C270 C272 1.415 . S
C271 C270 1.355 . S
C271 C273 1.419 . S
C272 C270 1.415 . S
C272 C277 1.425 . S
C272 C279 1.409 . S
C273 H265 0.930 . S
C273 C271 1.419 . S
C273 C274 1.362 . S
C274 H266 0.930 . S
C274 C273 1.362 . S
C274 C277 1.409 . S
C275 H267 0.930 . S
C275 C276 1.355 1_565 S
C275 C277 1.415 . S
C276 C275 1.355 1_545 S
C276 C278 1.419 . S
C277 C272 1.425 . S
C277 C274 1.409 . S
C277 C275 1.415 . S
C278 H268 0.930 . S
C278 C276 1.419 . S
C278 C279 1.362 1_545 S
C279 H269 0.930 . S
C279 C272 1.409 . S
C279 C278 1.362 1_565 S
H280 C286 0.930 . S
H281 C289 0.930 . S
H282 C290 0.930 . S
H283 C291 0.930 . S
H284 C294 0.930 . S
H285 C295 0.930 . S
C286 H280 0.930 . S
C286 C287 1.355 . S
C286 C288 1.415 . S
C287 C286 1.355 . S
C287 C289 1.419 . S
C288 C286 1.415 . S
C288 C293 1.425 . S
C288 C295 1.409 . S
C289 H281 0.930 . S
C289 C287 1.419 . S
C289 C290 1.362 . S
C290 H282 0.930 . S
C290 C289 1.362 . S
C290 C293 1.409 . S
C291 H283 0.930 . S
C291 C292 1.355 . S
C291 C293 1.415 . S
C292 C291 1.355 . S
C292 C294 1.419 . S
C293 C288 1.425 . S
C293 C290 1.409 . S
C293 C291 1.415 . S
C294 H284 0.930 . S
C294 C292 1.419 . S
C294 C295 1.362 . S
C295 H285 0.930 . S
C295 C288 1.409 . S
C295 C294 1.362 . S
H296 C302 0.930 . S
H297 C305 0.930 . S
H298 C306 0.930 . S
H299 C307 0.930 . S
H300 C310 0.930 . S
H301 C311 0.930 . S
C302 H296 0.930 . S
C302 C303 1.355 1_455 S
C302 C304 1.415 . S
C303 C302 1.355 1_655 S
C303 C305 1.419 . S
C304 C302 1.415 . S
C304 C309 1.425 . S
C304 C311 1.409 . S
C305 H297 0.930 . S
C305 C303 1.419 . S
C305 C306 1.362 . S
C306 H298 0.930 . S
C306 C305 1.362 . S
C306 C309 1.409 1_655 S
C307 H299 0.930 . S
C307 C308 1.355 . S
C307 C309 1.415 . S
C308 C307 1.355 . S
C308 C310 1.419 . S
C309 C304 1.425 . S
C309 C306 1.409 1_455 S
C309 C307 1.415 . S
C310 H300 0.930 . S
C310 C308 1.419 . S
C310 C311 1.362 . S
C311 H301 0.930 . S
C311 C304 1.409 . S
C311 C310 1.362 . S
H312 C318 0.930 . S
H313 C321 0.930 . S
H314 C322 0.930 . S
H315 C323 0.930 . S
H316 C326 0.930 . S
H317 C327 0.933 1_565 S
C318 H312 0.930 . S
C318 C319 1.355 . S
C318 C320 1.415 . S
C319 C318 1.355 . S
C319 C321 1.419 . S
C320 C318 1.415 . S
C320 C325 1.425 . S
C320 C327 1.409 . S
C321 H313 0.930 . S
C321 C319 1.419 . S
C321 C322 1.362 . S
C322 H314 0.930 . S
C322 C321 1.362 . S
C322 C325 1.409 . S
C323 H315 0.930 . S
C323 C324 1.355 1_545 S
C323 C325 1.415 . S
C324 C323 1.355 1_565 S
C324 C326 1.419 . S
C325 C320 1.425 . S
C325 C322 1.409 . S
C325 C323 1.415 . S
C326 H316 0.930 . S
C326 C324 1.419 . S
C326 C327 1.362 1_565 S
C327 H317 0.933 1_545 S
C327 C320 1.409 . S
C327 C326 1.362 1_545 S
H328 C334 0.930 . S
H329 C337 0.930 . S
H330 C338 0.930 . S
H331 C339 0.930 . S
H332 C342 0.930 1_554 S
H333 C343 0.930 . S
C334 H328 0.930 . S
C334 C335 1.355 . S
C334 C336 1.415 . S
C335 C334 1.355 . S
C335 C337 1.419 . S
C336 C334 1.415 . S
C336 C341 1.425 . S
C336 C343 1.409 . S
C337 H329 0.930 . S
C337 C335 1.419 . S
C337 C338 1.362 . S
C338 H330 0.930 . S
C338 C337 1.362 . S
C338 C341 1.409 . S
C339 H331 0.930 . S
C339 C340 1.355 . S
C339 C341 1.415 . S
C340 C339 1.355 . S
C340 C342 1.419 . S
C341 C336 1.425 . S
C341 C338 1.409 . S
C341 C339 1.415 . S
C342 H332 0.930 1_556 S
C342 C340 1.419 . S
C342 C343 1.362 . S
C343 H333 0.930 . S
C343 C336 1.409 . S
C343 C342 1.362 . S
H344 C350 0.930 . S
H345 C353 0.930 . S
H346 C354 0.930 . S
H347 C355 0.930 . S
H348 C358 0.930 . S
H349 C359 0.930 . S
C350 H344 0.930 . S
C350 C351 1.355 . S
C350 C352 1.415 1_455 S
C351 C350 1.355 . S
C351 C353 1.419 1_455 S
C352 C350 1.415 1_655 S
C352 C357 1.425 . S
C352 C359 1.409 . S
C353 H345 0.930 . S
C353 C351 1.419 1_655 S
C353 C354 1.362 . S
C354 H346 0.930 . S
C354 C353 1.362 . S
C354 C357 1.409 . S
C355 H347 0.930 . S
C355 C356 1.355 . S
C355 C357 1.415 . S
C356 C355 1.355 . S
C356 C358 1.419 . S
C357 C352 1.425 . S
C357 C354 1.409 . S
C357 C355 1.415 . S
C358 H348 0.930 . S
C358 C356 1.419 . S
C358 C359 1.362 . S
C359 H349 0.930 . S
C359 C352 1.409 . S
C359 C358 1.362 . S
H360 C366 0.930 . S
H361 C369 0.930 . S
H362 C370 0.930 . S
H363 C371 0.930 . S
H364 C374 0.930 . S
H365 C375 0.930 . S
C366 H360 0.930 . S
C366 C367 1.355 . S
C366 C368 1.415 . S
C367 C366 1.355 . S
C367 C369 1.419 . S
C368 C366 1.415 . S
C368 C373 1.425 . S
C368 C375 1.409 1_455 S
C369 H361 0.930 . S
C369 C367 1.419 . S
C369 C370 1.362 . S
C370 H362 0.930 . S
C370 C369 1.362 . S
C370 C373 1.409 . S
C371 H363 0.930 . S
C371 C372 1.355 1_455 S
C371 C373 1.415 . S
C372 C371 1.355 1_655 S
C372 C374 1.419 . S
C373 C368 1.425 . S
C373 C370 1.409 . S
C373 C371 1.415 . S
C374 H364 0.930 . S
C374 C372 1.419 . S
C374 C375 1.362 . S
C375 H365 0.930 . S
C375 C368 1.409 1_655 S
C375 C374 1.362 . S
H376 C382 0.930 . S
H377 C385 0.930 . S
H378 C386 0.930 . S
H379 C387 0.930 . S
H380 C390 0.930 . S
H381 C391 0.930 . S
C382 H376 0.930 . S
C382 C383 1.355 1_545 S
C382 C384 1.415 . S
C383 C382 1.355 1_565 S
C383 C385 1.419 . S
C384 C382 1.415 . S
C384 C389 1.425 . S
C384 C391 1.409 . S
C385 H377 0.930 . S
C385 C383 1.419 . S
C385 C386 1.362 . S
C386 H378 0.930 . S
C386 C385 1.362 . S
C386 C389 1.409 1_565 S
C387 H379 0.930 . S
C387 C388 1.355 . S
C387 C389 1.415 . S
C388 C387 1.355 . S
C388 C390 1.419 . S
C389 C384 1.425 . S
C389 C386 1.409 1_545 S
C389 C387 1.415 . S
C390 H380 0.930 . S
C390 C388 1.419 . S
C390 C391 1.362 . S
C391 H381 0.930 . S
C391 C384 1.409 . S
C391 C390 1.362 . S
H392 C398 0.930 . S
H393 C401 0.930 . S
H394 C402 0.930 . S
H395 C403 0.930 . S
H396 C406 0.930 . S
H397 C407 0.930 . S
C398 H392 0.930 . S
C398 C399 1.355 . S
C398 C400 1.415 . S
C399 C398 1.355 . S
C399 C401 1.419 . S
C400 C398 1.415 . S
C400 C405 1.425 . S
C400 C407 1.409 . S
C401 H393 0.930 . S
C401 C399 1.419 . S
C401 C402 1.362 . S
C402 H394 0.930 . S
C402 C401 1.362 . S
C402 C405 1.409 . S
C403 H395 0.930 . S
C403 C404 1.355 . S
C403 C405 1.415 . S
C404 C403 1.355 . S
C404 C406 1.419 . S
C405 C400 1.425 . S
C405 C402 1.409 . S
C405 C403 1.415 . S
C406 H396 0.930 . S
C406 C404 1.419 . S
C406 C407 1.362 . S
C407 H397 0.930 . S
C407 C400 1.409 . S
C407 C406 1.362 . S
H408 C414 0.930 . S
H409 C417 0.930 . S
H410 C418 0.930 . S
H411 C419 0.930 . S
H412 C422 0.930 1_556 S
H413 C423 0.930 . S
C414 H408 0.930 . S
C414 C415 1.355 . S
C414 C416 1.415 . S
C415 C414 1.355 . S
C415 C417 1.419 . S
C416 C414 1.415 . S
C416 C421 1.425 . S
C416 C423 1.409 . S
C417 H409 0.930 . S
C417 C415 1.419 . S
C417 C418 1.362 . S
C418 H410 0.930 . S
C418 C417 1.362 . S
C418 C421 1.409 . S
C419 H411 0.930 . S
C419 C420 1.355 . S
C419 C421 1.415 1_455 S
C420 C419 1.355 . S
C420 C422 1.419 1_455 S
C421 C416 1.425 . S
C421 C418 1.409 . S
C421 C419 1.415 1_655 S
C422 H412 0.930 1_554 S
C422 C420 1.419 1_655 S
C422 C423 1.362 . S
C423 H413 0.930 . S
C423 C416 1.409 . S
C423 C422 1.362 . S
H424 C430 0.930 . S
H425 C433 0.930 . S
H426 C434 0.930 1_545 S
H427 C435 0.930 . S
H428 C438 0.930 . S
H429 C439 0.930 . S
C430 H424 0.930 . S
C430 C431 1.355 . S
C430 C432 1.415 . S
C431 C430 1.355 . S
C431 C433 1.419 . S
C432 C430 1.415 . S
C432 C437 1.425 . S
C432 C439 1.409 . S
C433 H425 0.930 . S
C433 C431 1.419 . S
C433 C434 1.362 . S
C434 H426 0.930 1_565 S
C434 C433 1.362 . S
C434 C437 1.409 . S
C435 H427 0.930 . S
C435 C436 1.355 . S
C435 C437 1.415 1_545 S
C436 C435 1.355 . S
C436 C438 1.419 1_545 S
C437 C432 1.425 . S
C437 C434 1.409 . S
C437 C435 1.415 1_565 S
C438 H428 0.930 . S
C438 C436 1.419 1_565 S
C438 C439 1.362 . S
C439 H429 0.930 . S
C439 C432 1.409 . S
C439 C438 1.362 . S
H440 C446 0.930 . S
H441 C449 0.930 . S
H442 C450 0.930 . S
H443 C451 0.930 . S
H444 C454 0.930 . S
H445 C455 0.930 . S
C446 H440 0.930 . S
C446 C447 1.355 . S
C446 C448 1.415 . S
C447 C446 1.355 . S
C447 C449 1.419 . S
C448 C446 1.415 . S
C448 C453 1.425 . S
C448 C455 1.409 . S
C449 H441 0.930 . S
C449 C447 1.419 . S
C449 C450 1.362 . S
C450 H442 0.930 . S
C450 C449 1.362 . S
C450 C453 1.409 . S
C451 H443 0.930 . S
C451 C452 1.355 . S
C451 C453 1.415 . S
C452 C451 1.355 . S
C452 C454 1.419 . S
C453 C448 1.425 . S
C453 C450 1.409 . S
C453 C451 1.415 . S
C454 H444 0.930 . S
C454 C452 1.419 . S
C454 C455 1.362 . S
C455 H445 0.930 . S
C455 C448 1.409 . S
C455 C454 1.362 . S
H456 C462 0.930 . S
H457 C465 0.930 . S
H458 C466 0.930 . S
H459 C467 0.930 1_545 S
H460 C470 0.930 . S
H461 C471 0.930 . S
C462 H456 0.930 . S
C462 C463 1.355 . S
C462 C464 1.415 . S
C463 C462 1.355 . S
C463 C465 1.419 . S
C464 C462 1.415 . S
C464 C469 1.425 . S
C464 C471 1.409 . S
C465 H457 0.930 . S
C465 C463 1.419 . S
C465 C466 1.362 . S
C466 H458 0.930 . S
C466 C465 1.362 . S
C466 C469 1.409 . S
C467 H459 0.930 1_565 S
C467 C468 1.355 . S
C467 C469 1.415 . S
C468 C467 1.355 . S
C468 C470 1.419 . S
C469 C464 1.425 . S
C469 C466 1.409 . S
C469 C467 1.415 . S
C470 H460 0.930 . S
C470 C468 1.419 . S
C470 C471 1.362 . S
C471 H461 0.930 . S
C471 C464 1.409 . S
C471 C470 1.362 . S
H472 C478 0.930 . S
H473 C481 0.930 . S
H474 C482 0.930 . S
H475 C483 0.930 . S
H476 C486 0.930 . S
H477 C487 0.930 . S
C478 H472 0.930 . S
C478 C479 1.355 . S
C478 C480 1.415 . S
C479 C478 1.355 . S
C479 C481 1.419 . S
C480 C478 1.415 . S
C480 C485 1.425 . S
C480 C487 1.409 . S
C481 H473 0.930 . S
C481 C479 1.419 . S
C481 C482 1.362 . S
C482 H474 0.930 . S
C482 C481 1.362 . S
C482 C485 1.409 . S
C483 H475 0.930 . S
C483 C484 1.355 . S
C483 C485 1.415 . S
C484 C483 1.355 . S
C484 C486 1.419 . S
C485 C480 1.425 . S
C485 C482 1.409 . S
C485 C483 1.415 . S
C486 H476 0.930 . S
C486 C484 1.419 . S
C486 C487 1.362 . S
C487 H477 0.930 . S
C487 C480 1.409 . S
C487 C486 1.362 . S
H488 C494 0.930 . S
H489 C497 0.930 . S
H490 C498 0.930 1_655 S
H491 C499 0.930 . S
H492 C502 0.930 . S
H493 C503 0.930 . S
C494 H488 0.930 . S
C494 C495 1.355 . S
C494 C496 1.415 . S
C495 C494 1.355 . S
C495 C497 1.419 . S
C496 C494 1.415 . S
C496 C501 1.425 . S
C496 C503 1.409 . S
C497 H489 0.930 . S
C497 C495 1.419 . S
C497 C498 1.362 . S
C498 H490 0.930 1_455 S
C498 C497 1.362 . S
C498 C501 1.409 . S
C499 H491 0.930 . S
C499 C500 1.355 1_655 S
C499 C501 1.415 1_655 S
C500 C499 1.355 1_455 S
C500 C502 1.419 . S
C501 C496 1.425 . S
C501 C498 1.409 . S
C501 C499 1.415 1_455 S
C502 H492 0.930 . S
C502 C500 1.419 . S
C502 C503 1.362 . S
C503 H493 0.930 . S
C503 C496 1.409 . S
C503 C502 1.362 . S
H504 C510 0.930 . S
H505 C513 0.930 . S
H506 C514 0.930 1_565 S
H507 C515 0.930 1_565 S
H508 C518 0.930 . S
H509 C519 0.930 . S
C510 H504 0.930 . S
C510 C511 1.355 . S
C510 C512 1.415 . S
C511 C510 1.355 . S
C511 C513 1.419 . S
C512 C510 1.415 . S
C512 C517 1.425 . S
C512 C519 1.409 . S
C513 H505 0.930 . S
C513 C511 1.419 . S
C513 C514 1.362 . S
C514 H506 0.930 1_545 S
C514 C513 1.362 . S
C514 C517 1.409 . S
C515 H507 0.930 1_545 S
C515 C516 1.355 . S
C515 C517 1.415 . S
C516 C515 1.355 . S
C516 C518 1.419 . S
C517 C512 1.425 . S
C517 C514 1.409 . S
C517 C515 1.415 . S
C518 H508 0.930 . S
C518 C516 1.419 . S
C518 C519 1.362 . S
C519 H509 0.930 . S
C519 C512 1.409 . S
C519 C518 1.362 . S
H520 C526 0.936 . S
H521 C529 0.930 . S
H522 C530 0.930 . S
H523 C531 0.930 . S
H524 C534 0.930 . S
H525 C535 0.930 . S
C526 H520 0.936 . S
C526 C527 1.369 . S
C526 C528 1.396 1_556 S
C527 C526 1.369 . S
C527 C529 1.419 . S
C528 C526 1.396 1_554 S
C528 C533 1.425 . S
C528 C535 1.409 . S
C529 H521 0.930 . S
C529 C527 1.419 . S
C529 C530 1.362 1_556 S
C530 H522 0.930 . S
C530 C529 1.362 1_554 S
C530 C533 1.409 . S
C531 H523 0.930 . S
C531 C532 1.355 . S
C531 C533 1.415 . S
C532 C531 1.355 . S
C532 C534 1.419 . S
C533 C528 1.425 . S
C533 C530 1.409 . S
C533 C531 1.415 . S
C534 H524 0.930 . S
C534 C532 1.419 . S
C534 C535 1.362 . S
C535 H525 0.930 . S
C535 C528 1.409 . S
C535 C534 1.362 . S
H536 C542 0.930 . S
H537 C545 0.937 . S
H538 C546 0.930 . S
H539 C547 0.930 . S
H540 C550 0.930 . S
H541 C551 0.930 . S
C542 H536 0.930 . S
C542 C543 1.355 . S
C542 C544 1.415 . S
C543 C542 1.355 . S
C543 C545 1.412 1_655 S
C544 C542 1.415 . S
C544 C549 1.425 . S
C544 C551 1.409 . S
C545 H537 0.937 . S
C545 C543 1.412 1_455 S
C545 C546 1.363 1_455 S
C546 H538 0.930 . S
C546 C545 1.363 1_655 S
C546 C549 1.409 . S
C547 H539 0.930 . S
C547 C548 1.355 . S
C547 C549 1.415 . S
C548 C547 1.355 . S
C548 C550 1.419 . S
C549 C544 1.425 . S
C549 C546 1.409 . S
C549 C547 1.415 . S
C550 H540 0.930 . S
C550 C548 1.419 . S
C550 C551 1.362 . S
C551 H541 0.930 . S
C551 C544 1.409 . S
C551 C550 1.362 . S
H552 C558 0.930 1_655 S
H553 C561 0.930 . S
H554 C562 0.930 . S
H555 C563 0.930 . S
H556 C566 0.930 . S
H557 C567 0.930 . S
C558 H552 0.930 1_455 S
C558 C559 1.355 . S
C558 C560 1.415 . S
C559 C558 1.355 . S
C559 C561 1.419 . S
C560 C558 1.415 . S
C560 C565 1.425 . S
C560 C567 1.409 . S
C561 H553 0.930 . S
C561 C559 1.419 . S
C561 C562 1.362 . S
C562 H554 0.930 . S
C562 C561 1.362 . S
C562 C565 1.409 . S
C563 H555 0.930 . S
C563 C564 1.355 . S
C563 C565 1.415 . S
C564 C563 1.355 . S
C564 C566 1.419 . S
C565 C560 1.425 . S
C565 C562 1.409 . S
C565 C563 1.415 . S
C566 H556 0.930 . S
C566 C564 1.419 . S
C566 C567 1.362 . S
C567 H557 0.930 . S
C567 C560 1.409 . S
C567 C566 1.362 . S
H568 C574 0.930 . S
H569 C577 0.930 . S
H570 C578 0.930 . S
H571 C579 0.930 . S
H572 C582 0.930 . S
H573 C583 0.930 1_565 S
C574 H568 0.930 . S
C574 C575 1.355 1_565 S
C574 C576 1.415 1_565 S
C575 C574 1.355 1_545 S
C575 C577 1.419 . S
C576 C574 1.415 1_545 S
C576 C581 1.425 . S
C576 C583 1.409 . S
C577 H569 0.930 . S
C577 C575 1.419 . S
C577 C578 1.362 . S
C578 H570 0.930 . S
C578 C577 1.362 . S
C578 C581 1.409 . S
C579 H571 0.930 . S
C579 C580 1.355 . S
C579 C581 1.415 . S
C580 C579 1.355 . S
C580 C582 1.419 . S
C581 C576 1.425 . S
C581 C578 1.409 . S
C581 C579 1.415 . S
C582 H572 0.930 . S
C582 C580 1.419 . S
C582 C583 1.362 . S
C583 H573 0.930 1_545 S
C583 C576 1.409 . S
C583 C582 1.362 . S
H584 C590 0.930 . S
H585 C593 0.930 . S
H586 C594 0.930 . S
H587 C595 0.930 . S
H588 C598 0.930 . S
H589 C599 0.930 . S
C590 H584 0.930 . S
C590 C591 1.355 . S
C590 C592 1.415 . S
C591 C590 1.355 . S
C591 C593 1.419 . S
C592 C590 1.415 . S
C592 C597 1.425 . S
C592 C599 1.409 . S
C593 H585 0.930 . S
C593 C591 1.419 . S
C593 C594 1.362 . S
C594 H586 0.930 . S
C594 C593 1.362 . S
C594 C597 1.409 . S
C595 H587 0.930 . S
C595 C596 1.355 . S
C595 C597 1.415 . S
C596 C595 1.355 . S
C596 C598 1.419 . S
C597 C592 1.425 . S
C597 C594 1.409 . S
C597 C595 1.415 . S
C598 H588 0.930 . S
C598 C596 1.419 . S
C598 C599 1.362 . S
C599 H589 0.930 . S
C599 C592 1.409 . S
C599 C598 1.362 . S
H600 C606 0.930 . S
H601 C609 0.930 . S
H602 C610 0.930 . S
H603 C611 0.933 . S
H604 C614 0.930 . S
H605 C615 0.930 . S
C606 H600 0.930 . S
C606 C607 1.355 . S
C606 C608 1.415 1_554 S
C607 C606 1.355 . S
C607 C609 1.419 1_554 S
C608 C606 1.415 1_556 S
C608 C613 1.425 . S
C608 C615 1.409 1_556 S
C609 H601 0.930 . S
C609 C607 1.419 1_556 S
C609 C610 1.362 . S
C610 H602 0.930 . S
C610 C609 1.362 . S
C610 C613 1.409 . S
C611 H603 0.933 . S
C611 C612 1.355 . S
C611 C613 1.415 . S
C612 C611 1.355 . S
C612 C614 1.419 . S
C613 C608 1.425 . S
C613 C610 1.409 . S
C613 C611 1.415 . S
C614 H604 0.930 . S
C614 C612 1.419 . S
C614 C615 1.362 1_556 S
C615 H605 0.930 . S
C615 C608 1.409 1_554 S
C615 C614 1.362 1_554 S
H616 C622 0.930 . S
H617 C625 0.930 . S
H618 C626 0.930 1_545 S
H619 C627 0.930 . S
H620 C630 0.930 . S
H621 C631 0.930 . S
C622 H616 0.930 . S
C622 C623 1.355 . S
C622 C624 1.415 . S
C623 C622 1.355 . S
C623 C625 1.419 1_565 S
C624 C622 1.415 . S
C624 C629 1.425 . S
C624 C631 1.409 . S
C625 H617 0.930 . S
C625 C623 1.419 1_545 S
C625 C626 1.362 1_545 S
C626 H618 0.930 1_565 S
C626 C625 1.362 1_565 S
C626 C629 1.409 . S
C627 H619 0.930 . S
C627 C628 1.355 . S
C627 C629 1.415 . S
C628 C627 1.355 . S
C628 C630 1.419 . S
C629 C624 1.425 . S
C629 C626 1.409 . S
C629 C627 1.415 . S
C630 H620 0.930 . S
C630 C628 1.419 . S
C630 C631 1.362 . S
C631 H621 0.930 . S
C631 C624 1.409 . S
C631 C630 1.362 . S
H632 C638 0.930 . S
H633 C641 0.930 . S
H634 C642 0.930 . S
H635 C643 0.930 . S
H636 C646 0.930 . S
H637 C647 0.930 . S
C638 H632 0.930 . S
C638 C639 1.355 . S
C638 C640 1.415 . S
C639 C638 1.355 . S
C639 C641 1.419 . S
C640 C638 1.415 . S
C640 C645 1.425 . S
C640 C647 1.409 . S
C641 H633 0.930 . S
C641 C639 1.419 . S
C641 C642 1.362 . S
C642 H634 0.930 . S
C642 C641 1.362 . S
C642 C645 1.409 . S
C643 H635 0.930 . S
C643 C644 1.355 . S
C643 C645 1.415 . S
C644 C643 1.355 . S
C644 C646 1.419 . S
C645 C640 1.425 . S
C645 C642 1.409 . S
C645 C643 1.415 . S
C646 H636 0.930 . S
C646 C644 1.419 . S
C646 C647 1.362 . S
C647 H637 0.930 . S
C647 C640 1.409 . S
C647 C646 1.362 . S
H648 C654 0.930 . S
H649 C657 0.930 . S
H650 C658 0.930 . S
H651 C659 0.930 . S
H652 C662 0.930 . S
H653 C663 0.930 . S
C654 H648 0.930 . S
C654 C655 1.355 . S
C654 C656 1.415 . S
C655 C654 1.355 . S
C655 C657 1.419 . S
C656 C654 1.415 . S
C656 C661 1.425 . S
C656 C663 1.409 . S
C657 H649 0.930 . S
C657 C655 1.419 . S
C657 C658 1.362 . S
C658 H650 0.930 . S
C658 C657 1.362 . S
C658 C661 1.409 . S
C659 H651 0.930 . S
C659 C660 1.355 . S
C659 C661 1.415 . S
C660 C659 1.355 . S
C660 C662 1.419 . S
C661 C656 1.425 . S
C661 C658 1.409 . S
C661 C659 1.415 . S
C662 H652 0.930 . S
C662 C660 1.419 . S
C662 C663 1.362 . S
C663 H653 0.930 . S
C663 C656 1.409 . S
C663 C662 1.362 . S
H664 C670 0.930 . S
H665 C673 0.930 . S
H666 C674 0.930 . S
H667 C675 0.930 . S
H668 C678 0.930 1_565 S
H669 C679 0.930 . S
C670 H664 0.930 . S
C670 C671 1.355 . S
C670 C672 1.415 . S
C671 C670 1.355 . S
C671 C673 1.419 . S
C672 C670 1.415 . S
C672 C677 1.425 . S
C672 C679 1.409 . S
C673 H665 0.930 . S
C673 C671 1.419 . S
C673 C674 1.362 . S
C674 H666 0.930 . S
C674 C673 1.362 . S
C674 C677 1.409 . S
C675 H667 0.930 . S
C675 C676 1.355 . S
C675 C677 1.415 . S
C676 C675 1.355 . S
C676 C678 1.419 . S
C677 C672 1.425 . S
C677 C674 1.409 . S
C677 C675 1.415 . S
C678 H668 0.930 1_545 S
C678 C676 1.419 . S
C678 C679 1.362 . S
C679 H669 0.930 . S
C679 C672 1.409 . S
C679 C678 1.362 . S
H680 C686 0.930 . S
H681 C689 0.930 . S
H682 C690 0.930 . S
H683 C691 0.930 . S
H684 C694 0.930 . S
H685 C695 0.930 . S
C686 H680 0.930 . S
C686 C687 1.355 . S
C686 C688 1.415 . S
C687 C686 1.355 . S
C687 C689 1.419 . S
C688 C686 1.415 . S
C688 C693 1.425 . S
C688 C695 1.409 . S
C689 H681 0.930 . S
C689 C687 1.419 . S
C689 C690 1.362 . S
C690 H682 0.930 . S
C690 C689 1.362 . S
C690 C693 1.409 . S
C691 H683 0.930 . S
C691 C692 1.355 . S
C691 C693 1.415 . S
C692 C691 1.355 . S
C692 C694 1.419 . S
C693 C688 1.425 . S
C693 C690 1.409 . S
C693 C691 1.415 . S
C694 H684 0.930 . S
C694 C692 1.419 . S
C694 C695 1.362 . S
C695 H685 0.930 . S
C695 C688 1.409 . S
C695 C694 1.362 . S
H696 C702 0.930 . S
H697 C705 0.930 . S
H698 C706 0.930 . S
H699 C707 0.930 . S
H700 C710 0.930 1_455 S
H701 C711 0.930 . S
C702 H696 0.930 . S
C702 C703 1.355 . S
C702 C704 1.415 . S
C703 C702 1.355 . S
C703 C705 1.419 . S
C704 C702 1.415 . S
C704 C709 1.425 . S
C704 C711 1.409 . S
C705 H697 0.930 . S
C705 C703 1.419 . S
C705 C706 1.362 . S
C706 H698 0.930 . S
C706 C705 1.362 . S
C706 C709 1.409 . S
C707 H699 0.930 . S
C707 C708 1.355 . S
C707 C709 1.415 . S
C708 C707 1.355 . S
C708 C710 1.419 . S
C709 C704 1.425 . S
C709 C706 1.409 . S
C709 C707 1.415 . S
C710 H700 0.930 1_655 S
C710 C708 1.419 . S
C710 C711 1.362 . S
C711 H701 0.930 . S
C711 C704 1.409 . S
C711 C710 1.362 . S
H712 C718 0.930 . S
H713 C721 0.930 . S
H714 C722 0.930 . S
H715 C723 0.930 . S
H716 C726 0.930 . S
H717 C727 0.930 . S
C718 H712 0.930 . S
C718 C719 1.355 . S
C718 C720 1.415 . S
C719 C718 1.355 . S
C719 C721 1.419 . S
C720 C718 1.415 . S
C720 C725 1.425 . S
C720 C727 1.409 . S
C721 H713 0.930 . S
C721 C719 1.419 . S
C721 C722 1.362 . S
C722 H714 0.930 . S
C722 C721 1.362 . S
C722 C725 1.409 . S
C723 H715 0.930 . S
C723 C724 1.355 . S
C723 C725 1.415 . S
C724 C723 1.355 . S
C724 C726 1.419 . S
C725 C720 1.425 . S
C725 C722 1.409 . S
C725 C723 1.415 . S
C726 H716 0.930 . S
C726 C724 1.419 . S
C726 C727 1.362 . S
C727 H717 0.930 . S
C727 C720 1.409 . S
C727 C726 1.362 . S
H728 C734 0.930 . S
H729 C737 0.930 . S
H730 C738 0.930 . S
H731 C739 0.930 . S
H732 C742 0.930 . S
H733 C743 0.930 . S
C734 H728 0.930 . S
C734 C735 1.355 . S
C734 C736 1.415 . S
C735 C734 1.355 . S
C735 C737 1.419 . S
C736 C734 1.415 . S
C736 C741 1.425 . S
C736 C743 1.409 . S
C737 H729 0.930 . S
C737 C735 1.419 . S
C737 C738 1.362 . S
C738 H730 0.930 . S
C738 C737 1.362 . S
C738 C741 1.409 . S
C739 H731 0.930 . S
C739 C740 1.355 . S
C739 C741 1.415 . S
C740 C739 1.355 . S
C740 C742 1.419 . S
C741 C736 1.425 . S
C741 C738 1.409 . S
C741 C739 1.415 . S
C742 H732 0.930 . S
C742 C740 1.419 . S
C742 C743 1.362 . S
C743 H733 0.930 . S
C743 C736 1.409 . S
C743 C742 1.362 . S
H744 C750 0.930 . S
H745 C753 0.930 . S
H746 C754 0.930 . S
H747 C755 0.930 . S
H748 C758 0.930 . S
H749 C759 0.930 . S
C750 H744 0.930 . S
C750 C751 1.355 . S
C750 C752 1.415 . S
C751 C750 1.355 . S
C751 C753 1.419 . S
C752 C750 1.415 . S
C752 C757 1.425 . S
C752 C759 1.409 . S
C753 H745 0.930 . S
C753 C751 1.419 . S
C753 C754 1.362 . S
C754 H746 0.930 . S
C754 C753 1.362 . S
C754 C757 1.409 . S
C755 H747 0.930 . S
C755 C756 1.355 . S
C755 C757 1.415 . S
C756 C755 1.355 . S
C756 C758 1.419 . S
C757 C752 1.425 . S
C757 C754 1.409 . S
C757 C755 1.415 . S
C758 H748 0.930 . S
C758 C756 1.419 . S
C758 C759 1.362 . S
C759 H749 0.930 . S
C759 C752 1.409 . S
C759 C758 1.362 . S
H760 C766 0.930 . S
H761 C769 0.930 . S
H762 C770 0.930 . S
H763 C771 0.930 . S
H764 C774 0.930 . S
H765 C775 0.930 . S
C766 H760 0.930 . S
C766 C767 1.355 . S
C766 C768 1.415 . S
C767 C766 1.355 . S
C767 C769 1.419 . S
C768 C766 1.415 . S
C768 C773 1.425 . S
C768 C775 1.409 . S
C769 H761 0.930 . S
C769 C767 1.419 . S
C769 C770 1.362 . S
C770 H762 0.930 . S
C770 C769 1.362 . S
C770 C773 1.409 . S
C771 H763 0.930 . S
C771 C772 1.355 . S
C771 C773 1.415 . S
C772 C771 1.355 . S
C772 C774 1.419 . S
C773 C768 1.425 . S
C773 C770 1.409 . S
C773 C771 1.415 . S
C774 H764 0.930 . S
C774 C772 1.419 . S
C774 C775 1.362 . S
C775 H765 0.930 . S
C775 C768 1.409 . S
C775 C774 1.362 . S
H776 C782 0.930 . S
H777 C785 0.930 . S
H778 C786 0.930 . S
H779 C787 0.930 . S
H780 C790 0.930 . S
H781 C791 0.930 . S
C782 H776 0.930 . S
C782 C783 1.355 . S
C782 C784 1.415 . S
C783 C782 1.355 . S
C783 C785 1.419 . S
C784 C782 1.415 . S
C784 C789 1.425 . S
C784 C791 1.409 . S
C785 H777 0.930 . S
C785 C783 1.419 . S
C785 C786 1.362 . S
C786 H778 0.930 . S
C786 C785 1.362 . S
C786 C789 1.409 . S
C787 H779 0.930 . S
C787 C788 1.355 . S
C787 C789 1.415 . S
C788 C787 1.355 . S
C788 C790 1.419 . S
C789 C784 1.425 . S
C789 C786 1.409 . S
C789 C787 1.415 . S
C790 H780 0.930 . S
C790 C788 1.419 . S
C790 C791 1.362 . S
C791 H781 0.930 . S
C791 C784 1.409 . S
C791 C790 1.362 . S
H792 C798 0.930 . S
H793 C801 0.930 . S
H794 C802 0.930 . S
H795 C803 0.930 . S
H796 C806 0.930 . S
H797 C807 0.930 . S
C798 H792 0.930 . S
C798 C799 1.355 . S
C798 C800 1.415 . S
C799 C798 1.355 . S
C799 C801 1.419 . S
C800 C798 1.415 . S
C800 C805 1.425 . S
C800 C807 1.409 . S
C801 H793 0.930 . S
C801 C799 1.419 . S
C801 C802 1.362 . S
C802 H794 0.930 . S
C802 C801 1.362 . S
C802 C805 1.409 . S
C803 H795 0.930 . S
C803 C804 1.355 . S
C803 C805 1.415 . S
C804 C803 1.355 . S
C804 C806 1.419 . S
C805 C800 1.425 . S
C805 C802 1.409 . S
C805 C803 1.415 . S
C806 H796 0.930 . S
C806 C804 1.419 . S
C806 C807 1.362 . S
C807 H797 0.930 . S
C807 C800 1.409 . S
C807 C806 1.362 . S
H808 C814 0.930 . S
H809 C817 0.930 . S
H810 C818 0.930 . S
H811 C819 0.930 . S
H812 C822 0.930 . S
H813 C823 0.930 . S
C814 H808 0.930 . S
C814 C815 1.355 . S
C814 C816 1.415 . S
C815 C814 1.355 . S
C815 C817 1.419 . S
C816 C814 1.415 . S
C816 C821 1.425 . S
C816 C823 1.409 . S
C817 H809 0.930 . S
C817 C815 1.419 . S
C817 C818 1.362 . S
C818 H810 0.930 . S
C818 C817 1.362 . S
C818 C821 1.409 . S
C819 H811 0.930 . S
C819 C820 1.355 . S
C819 C821 1.415 . S
C820 C819 1.355 . S
C820 C822 1.419 . S
C821 C816 1.425 . S
C821 C818 1.409 . S
C821 C819 1.415 . S
C822 H812 0.930 . S
C822 C820 1.419 . S
C822 C823 1.362 . S
C823 H813 0.930 . S
C823 C816 1.409 . S
C823 C822 1.362 . S
H824 C830 0.930 . S
H825 C833 0.930 . S
H826 C834 0.930 . S
H827 C835 0.930 . S
H828 C838 0.930 . S
H829 C839 0.930 . S
C830 H824 0.930 . S
C830 C831 1.355 . S
C830 C832 1.415 . S
C831 C830 1.355 . S
C831 C833 1.419 . S
C832 C830 1.415 . S
C832 C837 1.425 . S
C832 C839 1.409 . S
C833 H825 0.930 . S
C833 C831 1.419 . S
C833 C834 1.362 . S
C834 H826 0.930 . S
C834 C833 1.362 . S
C834 C837 1.409 . S
C835 H827 0.930 . S
C835 C836 1.355 . S
C835 C837 1.415 . S
C836 C835 1.355 . S
C836 C838 1.419 . S
C837 C832 1.425 . S
C837 C834 1.409 . S
C837 C835 1.415 . S
C838 H828 0.930 . S
C838 C836 1.419 . S
C838 C839 1.362 . S
C839 H829 0.930 . S
C839 C832 1.409 . S
C839 C838 1.362 . S
C271 C115 1.211 . S
C276 C5 1.200 . S
C287 C31 1.201 . S
C292 C9 1.203 . S
C303 C49 1.201 . S
C308 C27 1.180 . S
C319 C53 1.173 . S
C324 C75 1.200 . S
C335 C71 1.173 . S
C340 C93 1.195 . S
C351 C119 1.197 . S
C356 C97 1.207 . S
C367 C159 1.189 . S
C372 C137 1.201 . S
C383 C163 1.201 . S
C388 C185 1.193 . S
C399 C203 1.209 . S
C404 C181 1.200 . S
C415 C229 1.194 . S
C420 C207 1.196 . S
C431 C247 1.177 . S
C436 C225 1.195 . S
C447 C141 1.202 . S
C452 C251 1.202 . S
C463 C248 1.393 . S
C468 C4 1.396 1_565 S
C479 C30 1.378 . S
C484 C139 1.399 . S
C495 C160 1.414 . S
C500 C48 1.409 1_455 S
C511 C183 1.403 . S
C516 C74 1.405 1_545 S
C527 C204 1.410 . S
C532 C92 1.409 . S
C543 C118 1.388 1_655 S
C548 C227 1.406 . S
C559 C136 1.407 1_455 S
C564 C28 1.415 . S
C575 C162 1.393 1_545 S
C580 C51 1.390 . S
C591 C72 1.403 . S
C596 C180 1.405 . S
C607 C95 1.389 . S
C612 C206 1.392 1_655 S
C623 C224 1.351 1_565 S
C628 C116 1.366 . S
C639 C250 1.403 . S
C644 C7 1.401 . S
C655 C138 1.231 . S
C660 C6 1.185 . S
C671 C29 1.205 . S
C676 C161 1.162 . S
C687 C182 1.173 . S
C692 C50 1.221 . S
C703 C73 1.179 . S
C708 C205 1.160 . S
C719 C226 1.238 . S
C724 C94 1.202 . S
C735 C249 1.237 . S
C740 C117 1.200 . S
C751 C140 1.035 . S
C756 C8 1.026 . S
C767 C158 1.016 . S
C772 C26 1.027 . S
C783 C184 1.041 . S
C788 C52 1.041 . S
C799 C70 1.032 . S
C804 C202 1.022 . S
C815 C228 1.041 . S
C820 C96 1.042 . S
C831 C246 1.035 . S
C836 C114 1.041 . S
