# Generated by pormake.
# Topology umu, (4)-cn, num edge types: 1
# Building blocks:
#     Node 0, Type 0, BuildingBlock: AZAVOO_clean_sbu_0, # of connection points: 4
#     Node 1, Type 0, BuildingBlock: AZAVOO_clean_sbu_0, # of connection points: 4
#     Node 2, Type 0, BuildingBlock: AZAVOO_clean_sbu_0, # of connection points: 4
#     Node 3, Type 0, BuildingBlock: AZAVOO_clean_sbu_0, # of connection points: 4
#     Node 4, Type 0, BuildingBlock: AZAVOO_clean_sbu_0, # of connection points: 4
#     Node 5, Type 0, BuildingBlock: AZAVOO_clean_sbu_0, # of connection points: 4
#     Node 6, Type 0, BuildingBlock: AZAVOO_clean_sbu_0, # of connection points: 4
#     Node 7, Type 0, BuildingBlock: AZAVOO_clean_sbu_0, # of connection points: 4
#     Node 8, Type 0, BuildingBlock: AZAVOO_clean_sbu_0, # of connection points: 4
#     Node 9, Type 0, BuildingBlock: AZAVOO_clean_sbu_0, # of connection points: 4
#     Node 10, Type 0, BuildingBlock: AZAVOO_clean_sbu_0, # of connection points: 4
#     Node 11, Type 0, BuildingBlock: AZAVOO_clean_sbu_0, # of connection points: 4
#     Node 12, Type 0, BuildingBlock: AZAVOO_clean_sbu_0, # of connection points: 4
#     Node 13, Type 0, BuildingBlock: AZAVOO_clean_sbu_0, # of connection points: 4
#     Node 14, Type 0, BuildingBlock: AZAVOO_clean_sbu_0, # of connection points: 4
#     Node 15, Type 0, BuildingBlock: AZAVOO_clean_sbu_0, # of connection points: 4
#     Node 16, Type 0, BuildingBlock: AZAVOO_clean_sbu_0, # of connection points: 4
#     Node 17, Type 0, BuildingBlock: AZAVOO_clean_sbu_0, # of connection points: 4
#     Node 18, Type 0, BuildingBlock: AZAVOO_clean_sbu_0, # of connection points: 4
#     Node 19, Type 0, BuildingBlock: AZAVOO_clean_sbu_0, # of connection points: 4
#     Node 20, Type 0, BuildingBlock: AZAVOO_clean_sbu_0, # of connection points: 4
#     Node 21, Type 0, BuildingBlock: AZAVOO_clean_sbu_0, # of connection points: 4
#     Node 22, Type 0, BuildingBlock: AZAVOO_clean_sbu_0, # of connection points: 4
#     Node 23, Type 0, BuildingBlock: AZAVOO_clean_sbu_0, # of connection points: 4
#     Node 24, Type 0, BuildingBlock: AZAVOO_clean_sbu_0, # of connection points: 4
#     Node 25, Type 0, BuildingBlock: AZAVOO_clean_sbu_0, # of connection points: 4
#     Node 26, Type 0, BuildingBlock: AZAVOO_clean_sbu_0, # of connection points: 4
#     Node 27, Type 0, BuildingBlock: AZAVOO_clean_sbu_0, # of connection points: 4
#     Node 28, Type 0, BuildingBlock: AZAVOO_clean_sbu_0, # of connection points: 4
#     Node 29, Type 0, BuildingBlock: AZAVOO_clean_sbu_0, # of connection points: 4
#     Node 30, Type 0, BuildingBlock: AZAVOO_clean_sbu_0, # of connection points: 4
#     Node 31, Type 0, BuildingBlock: AZAVOO_clean_sbu_0, # of connection points: 4
#     Edge 32, Type (0, 0), BuildingBlock: CIFDUS_clean_linker_0, # of connection points: 2
#     Edge 33, Type (0, 0), BuildingBlock: CIFDUS_clean_linker_0, # of connection points: 2
#     Edge 34, Type (0, 0), BuildingBlock: CIFDUS_clean_linker_0, # of connection points: 2
#     Edge 35, Type (0, 0), BuildingBlock: CIFDUS_clean_linker_0, # of connection points: 2
#     Edge 36, Type (0, 0), BuildingBlock: CIFDUS_clean_linker_0, # of connection points: 2
#     Edge 37, Type (0, 0), BuildingBlock: CIFDUS_clean_linker_0, # of connection points: 2
#     Edge 38, Type (0, 0), BuildingBlock: CIFDUS_clean_linker_0, # of connection points: 2
#     Edge 39, Type (0, 0), BuildingBlock: CIFDUS_clean_linker_0, # of connection points: 2
#     Edge 40, Type (0, 0), BuildingBlock: CIFDUS_clean_linker_0, # of connection points: 2
#     Edge 41, Type (0, 0), BuildingBlock: CIFDUS_clean_linker_0, # of connection points: 2
#     Edge 42, Type (0, 0), BuildingBlock: CIFDUS_clean_linker_0, # of connection points: 2
#     Edge 43, Type (0, 0), BuildingBlock: CIFDUS_clean_linker_0, # of connection points: 2
#     Edge 44, Type (0, 0), BuildingBlock: CIFDUS_clean_linker_0, # of connection points: 2
#     Edge 45, Type (0, 0), BuildingBlock: CIFDUS_clean_linker_0, # of connection points: 2
#     Edge 46, Type (0, 0), BuildingBlock: CIFDUS_clean_linker_0, # of connection points: 2
#     Edge 47, Type (0, 0), BuildingBlock: CIFDUS_clean_linker_0, # of connection points: 2
#     Edge 48, Type (0, 0), BuildingBlock: CIFDUS_clean_linker_0, # of connection points: 2
#     Edge 49, Type (0, 0), BuildingBlock: CIFDUS_clean_linker_0, # of connection points: 2
#     Edge 50, Type (0, 0), BuildingBlock: CIFDUS_clean_linker_0, # of connection points: 2
#     Edge 51, Type (0, 0), BuildingBlock: CIFDUS_clean_linker_0, # of connection points: 2
#     Edge 52, Type (0, 0), BuildingBlock: CIFDUS_clean_linker_0, # of connection points: 2
#     Edge 53, Type (0, 0), BuildingBlock: CIFDUS_clean_linker_0, # of connection points: 2
#     Edge 54, Type (0, 0), BuildingBlock: CIFDUS_clean_linker_0, # of connection points: 2
#     Edge 55, Type (0, 0), BuildingBlock: CIFDUS_clean_linker_0, # of connection points: 2
#     Edge 56, Type (0, 0), BuildingBlock: CIFDUS_clean_linker_0, # of connection points: 2
#     Edge 57, Type (0, 0), BuildingBlock: CIFDUS_clean_linker_0, # of connection points: 2
#     Edge 58, Type (0, 0), BuildingBlock: CIFDUS_clean_linker_0, # of connection points: 2
#     Edge 59, Type (0, 0), BuildingBlock: CIFDUS_clean_linker_0, # of connection points: 2
#     Edge 60, Type (0, 0), BuildingBlock: CIFDUS_clean_linker_0, # of connection points: 2
#     Edge 61, Type (0, 0), BuildingBlock: CIFDUS_clean_linker_0, # of connection points: 2
#     Edge 62, Type (0, 0), BuildingBlock: CIFDUS_clean_linker_0, # of connection points: 2
#     Edge 63, Type (0, 0), BuildingBlock: CIFDUS_clean_linker_0, # of connection points: 2
#     Edge 64, Type (0, 0), BuildingBlock: CIFDUS_clean_linker_0, # of connection points: 2
#     Edge 65, Type (0, 0), BuildingBlock: CIFDUS_clean_linker_0, # of connection points: 2
#     Edge 66, Type (0, 0), BuildingBlock: CIFDUS_clean_linker_0, # of connection points: 2
#     Edge 67, Type (0, 0), BuildingBlock: CIFDUS_clean_linker_0, # of connection points: 2
#     Edge 68, Type (0, 0), BuildingBlock: CIFDUS_clean_linker_0, # of connection points: 2
#     Edge 69, Type (0, 0), BuildingBlock: CIFDUS_clean_linker_0, # of connection points: 2
#     Edge 70, Type (0, 0), BuildingBlock: CIFDUS_clean_linker_0, # of connection points: 2
#     Edge 71, Type (0, 0), BuildingBlock: CIFDUS_clean_linker_0, # of connection points: 2
#     Edge 72, Type (0, 0), BuildingBlock: CIFDUS_clean_linker_0, # of connection points: 2
#     Edge 73, Type (0, 0), BuildingBlock: CIFDUS_clean_linker_0, # of connection points: 2
#     Edge 74, Type (0, 0), BuildingBlock: CIFDUS_clean_linker_0, # of connection points: 2
#     Edge 75, Type (0, 0), BuildingBlock: CIFDUS_clean_linker_0, # of connection points: 2
#     Edge 76, Type (0, 0), BuildingBlock: CIFDUS_clean_linker_0, # of connection points: 2
#     Edge 77, Type (0, 0), BuildingBlock: CIFDUS_clean_linker_0, # of connection points: 2
#     Edge 78, Type (0, 0), BuildingBlock: CIFDUS_clean_linker_0, # of connection points: 2
#     Edge 79, Type (0, 0), BuildingBlock: CIFDUS_clean_linker_0, # of connection points: 2
#     Edge 80, Type (0, 0), BuildingBlock: CIFDUS_clean_linker_0, # of connection points: 2
#     Edge 81, Type (0, 0), BuildingBlock: CIFDUS_clean_linker_0, # of connection points: 2
#     Edge 82, Type (0, 0), BuildingBlock: CIFDUS_clean_linker_0, # of connection points: 2
#     Edge 83, Type (0, 0), BuildingBlock: CIFDUS_clean_linker_0, # of connection points: 2
#     Edge 84, Type (0, 0), BuildingBlock: CIFDUS_clean_linker_0, # of connection points: 2
#     Edge 85, Type (0, 0), BuildingBlock: CIFDUS_clean_linker_0, # of connection points: 2
#     Edge 86, Type (0, 0), BuildingBlock: CIFDUS_clean_linker_0, # of connection points: 2
#     Edge 87, Type (0, 0), BuildingBlock: CIFDUS_clean_linker_0, # of connection points: 2
#     Edge 88, Type (0, 0), BuildingBlock: CIFDUS_clean_linker_0, # of connection points: 2
#     Edge 89, Type (0, 0), BuildingBlock: CIFDUS_clean_linker_0, # of connection points: 2
#     Edge 90, Type (0, 0), BuildingBlock: CIFDUS_clean_linker_0, # of connection points: 2
#     Edge 91, Type (0, 0), BuildingBlock: CIFDUS_clean_linker_0, # of connection points: 2
#     Edge 92, Type (0, 0), BuildingBlock: CIFDUS_clean_linker_0, # of connection points: 2
#     Edge 93, Type (0, 0), BuildingBlock: CIFDUS_clean_linker_0, # of connection points: 2
#     Edge 94, Type (0, 0), BuildingBlock: CIFDUS_clean_linker_0, # of connection points: 2
#     Edge 95, Type (0, 0), BuildingBlock: CIFDUS_clean_linker_0, # of connection points: 2
# Relax obj value: 0.132
# Max RMSD: 0.111
# Mean RMSD: 0.111
data_MOF--net-umu--node1-AZAVOO_clean_sbu_0--edge1-CIFDUS_clean_linker_0
_symmetry_space_group_name_H-M    P1
_symmetry_Int_Tables_number       1
_symmetry_cell_setting            triclinic
loop_
_symmetry_equiv_pos_as_xyz
'x, y, z'
_cell_length_a     77.024123
_cell_length_b     77.061348
_cell_length_c     20.607952
_cell_angle_alpha  89.961617
_cell_angle_beta   89.914093
_cell_angle_gamma 89.862352
loop_
_atom_site_label
_atom_site_type_symbol
_atom_site_fract_x
_atom_site_fract_y
_atom_site_fract_z
_atom_type_partial_charge
Mg0 Mg 0.19065 0.16973 0.08473 0.0
O1 O 0.2086 0.16517 0.99772 0.0
O2 O 0.23355 0.17912 0.01559 0.0
Mg3 Mg 0.23112 0.19298 0.11288 0.0
C4 C 0.22392 0.16949 0.98055 0.0
C5 C 0.15764 0.15185 0.03936 0.0
O6 O 0.15219 0.16765 0.05219 0.0
O7 O 0.20622 0.15111 0.1476 0.0
O8 O 0.23047 0.16638 0.16409 0.0
O9 O 0.18014 0.19311 0.03589 0.0
O10 O 0.20252 0.19353 0.10302 0.0
C11 C 0.22129 0.15276 0.17234 0.0
C12 C 0.19242 0.20179 0.06366 0.0
O13 O 0.17345 0.14805 0.04941 0.0
Mg14 Mg 0.09007 0.93146 0.34644 0.0
O15 O 0.09275 0.95187 0.26465 0.0
O16 O 0.07797 0.97539 0.2974 0.0
Mg17 Mg 0.06516 0.97021 0.39443 0.0
C18 C 0.0875 0.96748 0.25625 0.0
C19 C 0.11254 0.90887 0.248 0.0
O20 O 0.09989 0.9129 0.20798 0.0
O21 O 0.10901 0.94643 0.41192 0.0
O22 O 0.09212 0.96896 0.43888 0.0
O23 O 0.06531 0.92145 0.30115 0.0
O24 O 0.06638 0.94234 0.37379 0.0
C25 C 0.10647 0.96071 0.44195 0.0
C26 C 0.05721 0.93303 0.33531 0.0
O27 O 0.11226 0.91491 0.30538 0.0
Mg28 Mg 0.30527 0.84296 0.59607 0.0
O29 O 0.28264 0.82982 0.54285 0.0
O30 O 0.28565 0.80115 0.55442 0.0
Mg31 Mg 0.30842 0.79607 0.6235 0.0
C32 C 0.27785 0.81432 0.53042 0.0
C33 C 0.29761 0.88191 0.54724 0.0
O34 O 0.28743 0.89544 0.53919 0.0
O35 O 0.29143 0.8393 0.69524 0.0
O36 O 0.29513 0.81066 0.70641 0.0
O37 O 0.32055 0.83783 0.5048 0.0
O38 O 0.32018 0.82026 0.58942 0.0
C39 C 0.28968 0.82524 0.72764 0.0
C40 C 0.32449 0.82297 0.53007 0.0
O41 O 0.29196 0.86908 0.57999 0.0
Mg42 Mg 0.42098 0.03009 0.76039 0.0
O43 O 0.41887 0.00875 0.68255 0.0
O44 O 0.43532 0.98639 0.71527 0.0
Mg45 Mg 0.4486 0.99356 0.80978 0.0
C46 C 0.42493 0.99344 0.67489 0.0
C47 C 0.38874 0.05411 0.75356 0.0
O48 O 0.3924 0.05476 0.81577 0.0
O49 O 0.40358 0.01467 0.83049 0.0
O50 O 0.42195 0.99337 0.85814 0.0
O51 O 0.44413 0.04113 0.70874 0.0
O52 O 0.44562 0.02117 0.78531 0.0
C53 C 0.40719 0.00085 0.86201 0.0
C54 C 0.45348 0.03051 0.74268 0.0
O55 O 0.39787 0.04444 0.71698 0.0
Mg56 Mg 0.19282 0.79974 0.11131 0.0
O57 O 0.21244 0.79851 0.19738 0.0
O58 O 0.23007 0.77615 0.17465 0.0
Mg59 Mg 0.22336 0.7642 0.07711 0.0
C60 C 0.2251 0.78841 0.21207 0.0
C61 C 0.17159 0.83288 0.10168 0.0
O62 O 0.16947 0.82501 0.04571 0.0
O63 O 0.21324 0.81249 0.04448 0.0
O64 O 0.2306 0.7897 0.02619 0.0
O65 O 0.17579 0.77996 0.1614 0.0
O66 O 0.19703 0.77353 0.09348 0.0
C67 C 0.22656 0.80563 0.01755 0.0
C68 C 0.18537 0.76834 0.13351 0.0
O69 O 0.18175 0.82604 0.14311 0.0
Mg70 Mg 0.41357 0.91364 0.25038 0.0
O71 O 0.41556 0.93636 0.322 0.0
O72 O 0.43502 0.95539 0.284 0.0
Mg73 Mg 0.44618 0.94458 0.18982 0.0
C74 C 0.42393 0.95061 0.32644 0.0
C75 C 0.38589 0.89776 0.3516 0.0
O76 O 0.39967 0.89308 0.38483 0.0
O77 O 0.39853 0.9306 0.17739 0.0
O78 O 0.41965 0.94834 0.14365 0.0
O79 O 0.43549 0.89966 0.30234 0.0
O80 O 0.43921 0.91826 0.22225 0.0
C81 C 0.40394 0.9432 0.14259 0.0
C82 C 0.44597 0.90849 0.26601 0.0
O83 O 0.38783 0.90554 0.29758 0.0
Mg84 Mg 0.30652 0.1526 0.54322 0.0
O85 O 0.28844 0.15246 0.63204 0.0
O86 O 0.26538 0.16896 0.60869 0.0
Mg87 Mg 0.26886 0.18037 0.50787 0.0
C88 C 0.27381 0.15914 0.64726 0.0
C89 C 0.32841 0.11836 0.54967 0.0
O90 O 0.32678 0.11983 0.48645 0.0
O91 O 0.2886 0.13472 0.4844 0.0
O92 O 0.26707 0.15341 0.46359 0.0
O93 O 0.31957 0.1766 0.58177 0.0
O94 O 0.2971 0.17688 0.51568 0.0
C95 C 0.27405 0.13845 0.45807 0.0
C96 C 0.30802 0.18542 0.55009 0.0
O97 O 0.3214 0.1297 0.58607 0.0
Mg98 Mg 0.08684 0.04439 0.822 0.0
O99 O 0.08775 0.02253 0.89799 0.0
O100 O 0.07045 0.00123 0.86295 0.0
Mg101 Mg 0.05847 0.00947 0.76692 0.0
C102 C 0.08098 0.0075 0.90449 0.0
C103 C 0.10636 0.07441 0.87107 0.0
O104 O 0.09197 0.08026 0.8447 0.0
O105 O 0.1045 0.02886 0.75458 0.0
O106 O 0.08587 0.00825 0.72316 0.0
O107 O 0.06409 0.05623 0.8717 0.0
O108 O 0.06207 0.03685 0.79324 0.0
C109 C 0.1009 0.01523 0.72225 0.0
C110 C 0.05442 0.04661 0.83532 0.0
O111 O 0.10942 0.05821 0.86912 0.0
Mg112 Mg 0.78129 0.84726 0.10207 0.0
O113 O 0.76635 0.84636 0.19887 0.0
O114 O 0.74675 0.82505 0.19148 0.0
Mg115 Mg 0.74723 0.81447 0.08843 0.0
C116 C 0.75433 0.83702 0.22329 0.0
C117 C 0.80952 0.8736 0.10241 0.0
O118 O 0.81245 0.86364 0.05178 0.0
O119 O 0.75909 0.86256 0.05567 0.0
O120 O 0.73927 0.84139 0.05015 0.0
O121 O 0.79893 0.82576 0.13419 0.0
O122 O 0.77453 0.82181 0.08035 0.0
C123 C 0.74395 0.85711 0.04089 0.0
C124 C 0.78787 0.81519 0.10859 0.0
O125 O 0.7957 0.87123 0.13489 0.0
Mg126 Mg 0.91938 0.05253 0.77597 0.0
O127 O 0.91831 0.03367 0.86182 0.0
O128 O 0.93295 0.00959 0.83611 0.0
Mg129 Mg 0.94376 0.01305 0.73404 0.0
C130 C 0.92399 0.01858 0.87589 0.0
C131 C 0.88544 0.07582 0.80039 0.0
O132 O 0.88298 0.07418 0.73762 0.0
O133 O 0.89972 0.03684 0.7158 0.0
O134 O 0.91647 0.01395 0.69193 0.0
O135 O 0.94442 0.06281 0.81572 0.0
O136 O 0.94268 0.04143 0.74483 0.0
C137 C 0.90213 0.02221 0.68785 0.0
C138 C 0.95212 0.05092 0.78184 0.0
O139 O 0.89847 0.06853 0.82662 0.0
Mg140 Mg 0.68569 0.17281 0.47725 0.0
O141 O 0.7057 0.17593 0.55955 0.0
O142 O 0.723 0.19821 0.53386 0.0
Mg143 Mg 0.71615 0.20743 0.43233 0.0
C144 C 0.71815 0.18627 0.57272 0.0
C145 C 0.67082 0.13512 0.48855 0.0
O146 O 0.67177 0.13653 0.42509 0.0
O147 O 0.70589 0.15848 0.41459 0.0
O148 O 0.72341 0.18082 0.39162 0.0
O149 O 0.66921 0.19408 0.52165 0.0
O150 O 0.68955 0.19844 0.44824 0.0
C151 C 0.71943 0.16479 0.38765 0.0
C152 C 0.67821 0.20487 0.48724 0.0
O153 O 0.676 0.14767 0.5235 0.0
Mg154 Mg 0.5783 0.919 0.17146 0.0
O155 O 0.58719 0.93381 0.26366 0.0
O156 O 0.5722 0.95881 0.25969 0.0
Mg157 Mg 0.55326 0.95938 0.17565 0.0
C158 C 0.58344 0.94886 0.2861 0.0
C159 C 0.6149 0.89626 0.19993 0.0
O160 O 0.62682 0.8867 0.17146 0.0
O161 O 0.59311 0.93785 0.10695 0.0
O162 O 0.57675 0.96179 0.1075 0.0
O163 O 0.55692 0.90538 0.22669 0.0
O164 O 0.55418 0.93081 0.17901 0.0
C165 C 0.59012 0.95336 0.08865 0.0
C166 C 0.54732 0.91878 0.21391 0.0
O167 O 0.60209 0.90138 0.16618 0.0
Mg168 Mg 0.80195 0.17907 0.99209 0.0
O169 O 0.78101 0.18468 0.9149 0.0
O170 O 0.76477 0.20682 0.95097 0.0
Mg171 Mg 0.77295 0.21303 0.0542 0.0
C172 C 0.76879 0.19574 0.90748 0.0
C173 C 0.82201 0.14544 0.96224 0.0
O174 O 0.82723 0.14908 0.02136 0.0
O175 O 0.78231 0.1636 0.0528 0.0
O176 O 0.7655 0.18559 0.08628 0.0
O177 O 0.81828 0.20052 0.95056 0.0
O178 O 0.79917 0.20418 0.02921 0.0
C179 C 0.7692 0.16945 0.08392 0.0
C180 C 0.80996 0.21096 0.98879 0.0
O181 O 0.81063 0.15512 0.93603 0.0
Mg182 Mg 0.58778 0.03848 0.69817 0.0
O183 O 0.59201 0.01844 0.61669 0.0
O184 O 0.57626 0.99492 0.64 0.0
Mg185 Mg 0.5611 4e-05 0.73291 0.0
C186 C 0.58696 0.00304 0.60383 0.0
C187 C 0.61744 0.06597 0.69616 0.0
O188 O 0.61213 0.06748 0.75653 0.0
O189 O 0.60477 0.02286 0.76927 0.0
O190 O 0.58658 0.00078 0.78814 0.0
O191 O 0.56423 0.04943 0.64727 0.0
O192 O 0.56347 0.02814 0.71854 0.0
C193 C 0.60091 0.00863 0.7978 0.0
C194 C 0.55522 0.03816 0.67943 0.0
O195 O 0.61049 0.05455 0.66016 0.0
Mg196 Mg 0.67011 0.85249 0.62248 0.0
O197 O 0.69499 0.84717 0.56309 0.0
O198 O 0.70983 0.82613 0.61388 0.0
Mg199 Mg 0.69594 0.81965 0.70861 0.0
C200 C 0.70782 0.83663 0.56651 0.0
C201 C 0.64842 0.87992 0.54763 0.0
O202 O 0.63614 0.87189 0.5801 0.0
O203 O 0.68556 0.8689 0.6956 0.0
O204 O 0.69992 0.84726 0.74414 0.0
O205 O 0.65717 0.831 0.5681 0.0
O206 O 0.67187 0.82696 0.65874 0.0
C207 C 0.69627 0.86331 0.73793 0.0
C208 C 0.6642 0.82037 0.60892 0.0
O209 O 0.66417 0.87588 0.55869 0.0
Mg210 Mg 0.92159 0.93498 0.3133 0.0
O211 O 0.92147 0.9537 0.22744 0.0
O212 O 0.93879 0.9762 0.24807 0.0
Mg213 Mg 0.95065 0.97124 0.34799 0.0
C214 C 0.92831 0.9681 0.21116 0.0
C215 C 0.89818 0.91729 0.21202 0.0
O216 O 0.91279 0.91885 0.17955 0.0
O217 O 0.90496 0.95326 0.37475 0.0
O218 O 0.92374 0.97466 0.39518 0.0
O219 O 0.9441 0.92104 0.26901 0.0
O220 O 0.94665 0.94288 0.33775 0.0
C221 C 0.90875 0.96776 0.40097 0.0
C222 C 0.95402 0.93178 0.29983 0.0
O223 O 0.89757 0.92238 0.27062 0.0
Mg224 Mg 0.68345 0.68658 0.57342 0.0
O225 O 0.70055 0.68479 0.48246 0.0
O226 O 0.72538 0.69873 0.50223 0.0
Mg227 Mg 0.72346 0.71073 0.60311 0.0
C228 C 0.71569 0.6897 0.46529 0.0
C229 C 0.65095 0.66982 0.51645 0.0
O230 O 0.646 0.68596 0.52535 0.0
O231 O 0.70053 0.66703 0.62721 0.0
O232 O 0.72398 0.68329 0.64648 0.0
O233 O 0.67146 0.71117 0.53793 0.0
O234 O 0.6948 0.71013 0.59973 0.0
C235 C 0.71564 0.66903 0.65136 0.0
C236 C 0.68362 0.71933 0.5684 0.0
O237 O 0.66622 0.66537 0.53283 0.0
Mg238 Mg 0.59146 0.44366 0.88607 0.0
O239 O 0.58928 0.46191 0.7985 0.0
O240 O 0.56825 0.48123 0.81888 0.0
Mg241 Mg 0.55691 0.47519 0.91788 0.0
C242 C 0.5801 0.47502 0.78238 0.0
C243 C 0.63188 0.42991 0.82473 0.0
O244 O 0.64623 0.43706 0.84626 0.0
O245 O 0.60496 0.46463 0.94617 0.0
O246 O 0.58282 0.48297 0.96211 0.0
O247 O 0.57134 0.42658 0.84004 0.0
O248 O 0.56552 0.44797 0.90802 0.0
C249 C 0.59873 0.47872 0.96887 0.0
C250 C 0.55992 0.43624 0.86893 0.0
O251 O 0.6174 0.43493 0.84708 0.0
Mg252 Mg 0.80186 0.34725 0.00511 0.0
O253 O 0.78435 0.34777 0.91378 0.0
O254 O 0.76082 0.33197 0.93736 0.0
Mg255 Mg 0.76357 0.32037 0.03848 0.0
C256 C 0.76956 0.34145 0.8985 0.0
C257 C 0.82934 0.37556 0.00848 0.0
O258 O 0.82991 0.36851 0.06653 0.0
O259 O 0.78379 0.36548 0.0624 0.0
O260 O 0.76179 0.34739 0.08329 0.0
O261 O 0.81502 0.32277 0.96949 0.0
O262 O 0.79182 0.32338 0.03204 0.0
C263 C 0.76911 0.36217 0.0886 0.0
C264 C 0.80313 0.31439 0.00092 0.0
O265 O 0.81831 0.36985 0.96794 0.0
Mg266 Mg 0.92951 0.57819 0.27139 0.0
O267 O 0.92744 0.55665 0.19352 0.0
O268 O 0.94366 0.53439 0.22858 0.0
Mg269 Mg 0.95678 0.54173 0.32342 0.0
C270 C 0.93341 0.54122 0.18718 0.0
C271 C 0.89909 0.60295 0.27136 0.0
O272 O 0.90557 0.60382 0.33023 0.0
O273 O 0.91185 0.56282 0.34011 0.0
O274 O 0.92986 0.54147 0.37042 0.0
O275 O 0.95324 0.58945 0.2226 0.0
O276 O 0.95387 0.56926 0.29826 0.0
C277 C 0.91512 0.54907 0.37243 0.0
C278 C 0.96226 0.57895 0.25831 0.0
O279 O 0.90618 0.59276 0.23065 0.0
Mg280 Mg 0.68362 0.34122 0.4655 0.0
O281 O 0.70259 0.342 0.55131 0.0
O282 O 0.72644 0.32687 0.52682 0.0
Mg283 Mg 0.72197 0.31526 0.42602 0.0
C284 C 0.71767 0.33631 0.56573 0.0
C285 C 0.65617 0.36377 0.54468 0.0
O286 O 0.64777 0.34905 0.55119 0.0
O287 O 0.70039 0.3596 0.40458 0.0
O288 O 0.72301 0.34245 0.38109 0.0
O289 O 0.67164 0.31673 0.5058 0.0
O290 O 0.69342 0.31743 0.43621 0.0
C291 C 0.71501 0.35694 0.37699 0.0
C292 C 0.68302 0.3084 0.47141 0.0
O293 O 0.67 0.36418 0.51117 0.0
Mg294 Mg 0.92021 0.4625 0.75211 0.0
O295 O 0.92025 0.48365 0.83213 0.0
O296 O 0.93797 0.50471 0.79724 0.0
Mg297 Mg 0.95018 0.49699 0.70124 0.0
C298 C 0.92746 0.49848 0.83902 0.0
C299 C 0.8959 0.44311 0.85159 0.0
O300 O 0.90961 0.44502 0.88872 0.0
O301 O 0.90355 0.47959 0.68488 0.0
O302 O 0.92341 0.49927 0.65557 0.0
O303 O 0.94333 0.44913 0.79794 0.0
O304 O 0.9451 0.46967 0.72399 0.0
C305 C 0.90807 0.49309 0.65309 0.0
C306 C 0.95293 0.45916 0.76254 0.0
O307 O 0.8961 0.44945 0.79464 0.0
Mg308 Mg 0.79835 0.68118 0.02518 0.0
O309 O 0.78037 0.67743 0.11393 0.0
O310 O 0.75547 0.69118 0.09173 0.0
Mg311 Mg 0.75724 0.70367 0.99237 0.0
C312 C 0.76499 0.68216 0.1295 0.0
C313 C 0.82305 0.66044 0.11795 0.0
O314 O 0.81845 0.67304 0.15737 0.0
O315 O 0.78316 0.66162 0.96349 0.0
O316 O 0.75903 0.67699 0.945 0.0
O317 O 0.808 0.706 0.06925 0.0
O318 O 0.78563 0.7043 0.00287 0.0
C319 C 0.76816 0.66328 0.93786 0.0
C320 C 0.79519 0.71363 0.04013 0.0
O321 O 0.81667 0.66001 0.06115 0.0
Mg322 Mg 0.57494 0.55915 0.34614 0.0
O323 O 0.57633 0.5425 0.43819 0.0
O324 O 0.56004 0.51888 0.42171 0.0
Mg325 Mg 0.54753 0.52097 0.32227 0.0
C326 C 0.57023 0.52793 0.4567 0.0
C327 C 0.59528 0.59141 0.37563 0.0
O328 O 0.58083 0.59705 0.34902 0.0
O329 O 0.59287 0.54027 0.29315 0.0
O330 O 0.57483 0.51781 0.2799 0.0
O331 O 0.5517 0.57296 0.38536 0.0
O332 O 0.5505 0.54932 0.32498 0.0
C333 C 0.58967 0.52495 0.2731 0.0
C334 C 0.54246 0.56096 0.35842 0.0
O335 O 0.59758 0.57517 0.38136 0.0
Mg336 Mg 0.32096 0.3201 0.55031 0.0
O337 O 0.30343 0.32397 0.63913 0.0
O338 O 0.27863 0.30967 0.62217 0.0
Mg339 Mg 0.2809 0.29597 0.52448 0.0
C340 C 0.28826 0.31936 0.65701 0.0
C341 C 0.34977 0.34821 0.54933 0.0
O342 O 0.35232 0.3416 0.49134 0.0
O343 O 0.30445 0.33846 0.48947 0.0
O344 O 0.28052 0.32265 0.47376 0.0
O345 O 0.33246 0.29678 0.5968 0.0
O346 O 0.30958 0.29614 0.53207 0.0
C347 C 0.28933 0.33651 0.4655 0.0
C348 C 0.32016 0.28794 0.56978 0.0
O349 O 0.33767 0.34223 0.58465 0.0
Mg350 Mg 0.40724 0.55441 0.30227 0.0
O351 O 0.40545 0.5368 0.39323 0.0
O352 O 0.42143 0.51322 0.37135 0.0
Mg353 Mg 0.43367 0.51546 0.2717 0.0
C354 C 0.41168 0.522 0.4092 0.0
C355 C 0.38404 0.57821 0.39244 0.0
O356 O 0.39624 0.57433 0.43455 0.0
O357 O 0.38915 0.53695 0.2423 0.0
O358 O 0.40698 0.51451 0.22446 0.0
O359 O 0.43129 0.56672 0.34345 0.0
O360 O 0.43136 0.54374 0.27983 0.0
C361 C 0.39239 0.52215 0.21705 0.0
C362 C 0.43995 0.5545 0.31478 0.0
O363 O 0.38464 0.57149 0.33616 0.0
Mg364 Mg 0.20477 0.6505 0.01258 0.0
O365 O 0.22595 0.66501 0.0683 0.0
O366 O 0.22334 0.69345 0.05005 0.0
Mg367 Mg 0.20142 0.69693 0.97541 0.0
C368 C 0.23073 0.68063 0.07816 0.0
C369 C 0.21396 0.61165 0.06714 0.0
O370 O 0.22539 0.59923 0.07677 0.0
O371 O 0.22055 0.6533 0.91768 0.0
O372 O 0.21674 0.68167 0.89925 0.0
O373 O 0.18706 0.65652 0.0973 0.0
O374 O 0.18942 0.67282 0.00963 0.0
C375 C 0.22282 0.66687 0.88291 0.0
C376 C 0.18328 0.67073 0.06694 0.0
O377 O 0.21882 0.62517 0.0366 0.0
Mg378 Mg 0.08792 0.44453 0.78164 0.0
O379 O 0.08788 0.46215 0.87166 0.0
O380 O 0.07107 0.48518 0.85017 0.0
Mg381 Mg 0.05977 0.48205 0.74897 0.0
C382 C 0.08108 0.47665 0.88779 0.0
C383 C 0.1171 0.41699 0.789 0.0
O384 O 0.11055 0.41406 0.7312 0.0
O385 O 0.10589 0.46338 0.72646 0.0
O386 O 0.08717 0.48515 0.70865 0.0
O387 O 0.06413 0.43095 0.81978 0.0
O388 O 0.0635 0.45384 0.75558 0.0
C389 C 0.10225 0.47838 0.70356 0.0
C390 C 0.05513 0.4427 0.78989 0.0
O391 O 0.11082 0.42928 0.82287 0.0
Mg392 Mg 0.31372 0.69535 0.49844 0.0
O393 O 0.29661 0.69878 0.40628 0.0
O394 O 0.28211 0.72377 0.41937 0.0
Mg395 Mg 0.28874 0.73575 0.51719 0.0
C396 C 0.28588 0.71032 0.38598 0.0
C397 C 0.32943 0.65966 0.51798 0.0
O398 O 0.33132 0.66768 0.57379 0.0
O399 O 0.28983 0.68673 0.55748 0.0
O400 O 0.27622 0.71229 0.56737 0.0
O401 O 0.33525 0.71164 0.4554 0.0
O402 O 0.31333 0.72194 0.51276 0.0
C403 C 0.27726 0.69601 0.5787 0.0
C404 C 0.32702 0.72485 0.47905 0.0
O405 O 0.32129 0.66745 0.47279 0.0
Mg406 Mg 0.09694 0.56156 0.31926 0.0
O407 O 0.09436 0.54348 0.23124 0.0
O408 O 0.07451 0.52323 0.25449 0.0
Mg409 Mg 0.06393 0.52851 0.35576 0.0
C410 C 0.08559 0.53003 0.21615 0.0
C411 C 0.12447 0.58277 0.23163 0.0
O412 O 0.11074 0.58912 0.2022 0.0
O413 O 0.11196 0.54066 0.37694 0.0
O414 O 0.09056 0.52172 0.39628 0.0
O415 O 0.07463 0.57787 0.28002 0.0
O416 O 0.07167 0.55582 0.34703 0.0
C417 C 0.10637 0.52642 0.40095 0.0
C418 C 0.06448 0.56759 0.31217 0.0
O419 O 0.12249 0.57206 0.2781 0.0
Mg420 Mg 0.20472 0.3371 0.09093 0.0
O421 O 0.22354 0.33753 0.00415 0.0
O422 O 0.24658 0.32116 0.02905 0.0
Mg423 Mg 0.2426 0.30979 0.1297 0.0
C424 C 0.23829 0.33095 0.98991 0.0
C425 C 0.18395 0.35815 0.9883 0.0
O426 O 0.18772 0.34398 0.95572 0.0
O427 O 0.22189 0.35522 0.1523 0.0
O428 O 0.24351 0.33671 0.17445 0.0
O429 O 0.19243 0.31288 0.05096 0.0
O430 O 0.21441 0.31295 0.11933 0.0
C431 C 0.23631 0.35157 0.17995 0.0
C432 C 0.2039 0.30425 0.08374 0.0
O433 O 0.1894 0.35963 0.04628 0.0
Mg434 Mg 0.42422 0.43986 0.84819 0.0
O435 O 0.42122 0.45765 0.75984 0.0
O436 O 0.4334 0.48327 0.78104 0.0
Mg437 Mg 0.44549 0.48123 0.88195 0.0
C438 C 0.42501 0.47315 0.74358 0.0
C439 C 0.40635 0.41635 0.74779 0.0
O440 O 0.42024 0.42117 0.71545 0.0
O441 O 0.40362 0.45513 0.90437 0.0
O442 O 0.41811 0.47962 0.92548 0.0
O443 O 0.44978 0.42994 0.8115 0.0
O444 O 0.44663 0.45262 0.87593 0.0
C445 C 0.40453 0.4702 0.92983 0.0
C446 C 0.4568 0.4425 0.84376 0.0
O447 O 0.40409 0.4219 0.80522 0.0
H448 H 0.09984 0.10783 0.9015 0.0
H449 H 0.13927 0.06812 0.91586 0.0
H450 H 0.1586 0.08858 0.9706 0.0
H451 H 0.1643 0.11788 0.01284 0.0
H452 H 0.12438 0.15718 -0.00055 0.0
H453 H 0.10516 0.13662 0.94599 0.0
C454 C 0.11268 0.10362 0.91641 0.0
C455 C 0.11818 0.08653 0.90429 0.0
C456 C 0.12359 0.11535 0.94816 0.0
C457 C 0.13477 0.08124 0.92457 0.0
C458 C 0.14581 0.09292 0.95583 0.0
C459 C 0.15138 0.12193 -0.00159 0.0
C460 C 0.14581 0.13906 0.00992 0.0
C461 C 0.14035 0.11002 0.96771 0.0
C462 C 0.129 0.14408 0.9912 0.0
C463 C 0.118 0.13235 0.96048 0.0
H464 H 0.11702 0.89365 0.1299 0.0
H465 H 0.13866 0.89542 0.32287 0.0
H466 H 0.15949 0.87277 0.29395 0.0
H467 H 0.17049 0.85117 0.21564 0.0
H468 H 0.1486 0.84956 0.02296 0.0
H469 H 0.12912 0.8734 0.05004 0.0
C470 C 0.12637 0.88919 0.16557 0.0
C471 C 0.12614 0.89618 0.22861 0.0
C472 C 0.13828 0.87608 0.14877 0.0
C473 C 0.13845 0.89027 0.27399 0.0
C474 C 0.15038 0.87726 0.25756 0.0
C475 C 0.16157 0.85614 0.1794 0.0
C476 C 0.16098 0.84844 0.11749 0.0
C477 C 0.15025 0.86988 0.19536 0.0
C478 C 0.14934 0.85512 0.07113 0.0
C479 C 0.13813 0.86878 0.08654 0.0
H480 H 0.37653 0.88025 0.46196 0.0
H481 H 0.35524 0.90924 0.30109 0.0
H482 H 0.3262 0.90637 0.34654 0.0
H483 H 0.30683 0.89661 0.4336 0.0
H484 H 0.32761 0.86763 0.59475 0.0
H485 H 0.35678 0.86936 0.54741 0.0
C486 C 0.36553 0.88587 0.43668 0.0
C487 C 0.36816 0.89504 0.37826 0.0
C488 C 0.34874 0.88415 0.4631 0.0
C489 C 0.35369 0.90214 0.3461 0.0
C490 C 0.33703 0.90053 0.37211 0.0
C491 C 0.31775 0.89059 0.45815 0.0
C492 C 0.31507 0.88185 0.51718 0.0
C493 C 0.33442 0.89172 0.43081 0.0
C494 C 0.3293 0.87415 0.54861 0.0
C495 C 0.34599 0.87525 0.52178 0.0
H496 H 0.37998 0.05797 0.62626 0.0
H497 H 0.36738 0.07648 0.81841 0.0
H498 H 0.34703 0.09743 0.77245 0.0
H499 H 0.33401 0.11159 0.67763 0.0
H500 H 0.34682 0.09335 0.48533 0.0
H501 H 0.36582 0.07118 0.53158 0.0
C502 C 0.37269 0.06648 0.65818 0.0
C503 C 0.37532 0.06571 0.7257 0.0
C504 C 0.3611 0.07863 0.63141 0.0
C505 C 0.3657 0.07682 0.76626 0.0
C506 C 0.35406 0.08885 0.74002 0.0
C507 C 0.34088 0.10272 0.64577 0.0
C508 C 0.33908 0.10425 0.57805 0.0
C509 C 0.35186 0.09005 0.67264 0.0
C510 C 0.34801 0.09255 0.53761 0.0
C511 C 0.3589 0.07986 0.56401 0.0
H512 H 0.8408 0.8797 0.0469 0.0
H513 H 0.80966 0.89277 0.21434 0.0
H514 H 0.8343 0.908 0.26224 0.0
H515 H 0.86526 0.91573 0.25994 0.0
H516 H 0.8963 0.9022 0.0927 0.0
H517 H 0.87109 0.88893 0.04157 0.0
C518 C 0.83931 0.88604 0.09357 0.0
C519 C 0.82345 0.88497 0.1272 0.0
C520 C 0.85358 0.8945 0.12125 0.0
C521 C 0.82174 0.89336 0.18744 0.0
C522 C 0.83585 0.90199 0.21505 0.0
C523 C 0.8665 0.9099 0.21226 0.0
C524 C 0.88269 0.90978 0.18054 0.0
C525 C 0.85194 0.9023 0.18302 0.0
C526 C 0.88403 0.90238 0.11842 0.0
C527 C 0.86961 0.8948 0.08905 0.0
H528 H 0.85734 0.09472 0.76056 0.0
H529 H 0.8874 0.08168 0.9306 0.0
H530 H 0.8697 0.10117 0.99609 0.0
H531 H 0.84684 0.12311 0.00434 0.0
H532 H 0.81681 0.13664 0.83492 0.0
H533 H 0.83323 0.11565 0.77033 0.0
C534 C 0.85994 0.09606 0.81201 0.0
C535 C 0.87379 0.08684 0.84034 0.0
C536 C 0.84974 0.1074 0.84963 0.0
C537 C 0.87691 0.08868 0.90724 0.0
C538 C 0.86679 0.09984 0.94489 0.0
C539 C 0.84376 0.12139 0.95341 0.0
C540 C 0.83069 0.13154 0.92451 0.0
C541 C 0.85334 0.10944 0.91643 0.0
C542 C 0.82684 0.12904 0.85846 0.0
C543 C 0.83626 0.11707 0.82139 0.0
H544 H 0.66478 0.12927 0.61707 0.0
H545 H 0.65788 0.10648 0.42753 0.0
H546 H 0.64186 0.0824 0.47567 0.0
H547 H 0.62814 0.06882 0.57047 0.0
H548 H 0.63449 0.09195 0.75969 0.0
H549 H 0.65249 0.11476 0.71274 0.0
C550 C 0.6599 0.11897 0.58628 0.0
C551 C 0.66243 0.11979 0.51867 0.0
C552 C 0.65053 0.10522 0.61418 0.0
C553 C 0.65606 0.10627 0.47966 0.0
C554 C 0.64687 0.09248 0.50713 0.0
C555 C 0.6336 0.07874 0.60162 0.0
C556 C 0.62984 0.07871 0.66849 0.0
C557 C 0.64377 0.09197 0.57419 0.0
C558 C 0.63707 0.09167 0.70803 0.0
C559 C 0.64736 0.10476 0.6812 0.0
H560 H 0.64422 0.90484 0.26143 0.0
H561 H 0.58981 0.8954 0.29393 0.0
H562 H 0.5951 0.89258 0.41086 0.0
H563 H 0.6162 0.88691 0.49858 0.0
H564 H 0.67081 0.89552 0.46314 0.0
H565 H 0.6644 0.90494 0.35298 0.0
C566 C 0.63346 0.90269 0.29452 0.0
C567 C 0.61673 0.90007 0.26955 0.0
C568 C 0.6367 0.90067 0.36094 0.0
C569 C 0.60281 0.89746 0.31239 0.0
C570 C 0.60588 0.89566 0.37905 0.0
C571 C 0.62667 0.89126 0.46734 0.0
C572 C 0.64402 0.89 0.48856 0.0
C573 C 0.62293 0.89633 0.40328 0.0
C574 C 0.65737 0.89601 0.44779 0.0
C575 C 0.65373 0.90136 0.38459 0.0
H576 H 0.65571 0.63499 0.50178 0.0
H577 H 0.61915 0.6764 0.46459 0.0
H578 H 0.59907 0.65584 0.41588 0.0
H579 H 0.59163 0.6262 0.38545 0.0
H580 H 0.6276 0.58445 0.42449 0.0
H581 H 0.64822 0.60511 0.47066 0.0
C582 C 0.64336 0.63951 0.48292 0.0
C583 C 0.63893 0.6572 0.48694 0.0
C584 C 0.63178 0.62759 0.45528 0.0
C585 C 0.62287 0.66285 0.46238 0.0
C586 C 0.61137 0.65111 0.43439 0.0
C587 C 0.60401 0.6216 0.40375 0.0
C588 C 0.60808 0.60383 0.40151 0.0
C589 C 0.61567 0.63347 0.4308 0.0
C590 C 0.62414 0.59808 0.42573 0.0
C591 C 0.63593 0.60988 0.45216 0.0
H592 H 0.65498 0.4289 0.72669 0.0
H593 H 0.60974 0.40302 0.80258 0.0
H594 H 0.61216 0.38076 0.71805 0.0
H595 H 0.62884 0.36745 0.62842 0.0
H596 H 0.67334 0.39454 0.55086 0.0
H597 H 0.66923 0.41772 0.62925 0.0
C598 C 0.64564 0.41839 0.72452 0.0
C599 C 0.63249 0.41727 0.77135 0.0
C600 C 0.64694 0.40591 0.67542 0.0
C601 C 0.62012 0.40395 0.7672 0.0
C602 C 0.6215 0.39126 0.71899 0.0
C603 C 0.63748 0.37854 0.62811 0.0
C604 C 0.65159 0.37903 0.58472 0.0
C605 C 0.6351 0.39191 0.67362 0.0
C606 C 0.6625 0.39365 0.58426 0.0
C607 C 0.66023 0.40693 0.62927 0.0
H608 H 0.89131 0.42801 0.96972 0.0
H609 H 0.86719 0.43367 0.78193 0.0
H610 H 0.84411 0.4138 0.81443 0.0
H611 H 0.83155 0.39358 0.89435 0.0
H612 H 0.85584 0.38812 0.082 0.0
H613 H 0.87796 0.40912 0.05129 0.0
C614 C 0.88095 0.42501 0.93598 0.0
C615 C 0.8811 0.43226 0.87333 0.0
C616 C 0.86775 0.4135 0.95482 0.0
C617 C 0.86747 0.42827 0.83045 0.0
C618 C 0.85427 0.41685 0.84891 0.0
C619 C 0.84163 0.39705 0.92864 0.0
C620 C 0.84206 0.38915 0.99022 0.0
C621 C 0.8544 0.40918 0.91067 0.0
C622 C 0.85518 0.39391 0.03416 0.0
C623 C 0.86788 0.40593 0.01666 0.0
H624 H 0.83858 0.6574 0.23573 0.0
H625 H 0.83751 0.63458 0.04452 0.0
H626 H 0.86064 0.6145 0.0753 0.0
H627 H 0.88192 0.60406 0.15548 0.0
H628 H 0.88275 0.62701 0.34656 0.0
H629 H 0.85899 0.64631 0.31673 0.0
C630 C 0.84333 0.64799 0.2008 0.0
C631 C 0.83635 0.64759 0.13784 0.0
C632 C 0.85667 0.63651 0.21869 0.0
C633 C 0.84265 0.63523 0.09335 0.0
C634 C 0.85591 0.62374 0.11084 0.0
C635 C 0.87687 0.61324 0.19064 0.0
C636 C 0.8842 0.61412 0.25304 0.0
C637 C 0.86315 0.62437 0.1732 0.0
C638 C 0.87742 0.62606 0.29809 0.0
C639 C 0.86381 0.63714 0.28112 0.0
H640 H 0.34777 0.3639 0.6667 0.0
H641 H 0.37787 0.36299 0.48979 0.0
H642 H 0.39783 0.38439 0.53512 0.0
H643 H 0.4072 0.4026 0.62635 0.0
H644 H 0.37705 0.40313 0.80325 0.0
H645 H 0.3566 0.3826 0.75626 0.0
C646 C 0.35865 0.36841 0.63784 0.0
C647 C 0.36137 0.3618 0.57507 0.0
C648 C 0.37009 0.38059 0.66425 0.0
C649 C 0.3755 0.36784 0.53832 0.0
C650 C 0.38693 0.38006 0.56423 0.0
C651 C 0.39613 0.39826 0.65459 0.0
C652 C 0.39371 0.40433 0.71833 0.0
C653 C 0.38444 0.38639 0.62737 0.0
C654 C 0.37926 0.39863 0.75415 0.0
C655 C 0.36755 0.38688 0.72735 0.0
H656 H 0.33076 0.64059 0.40595 0.0
H657 H 0.34858 0.64104 0.60451 0.0
H658 H 0.36614 0.6153 0.5843 0.0
H659 H 0.37814 0.59387 0.5087 0.0
H660 H 0.36051 0.59318 0.31003 0.0
H661 H 0.34114 0.61761 0.3321 0.0
C662 C 0.33833 0.63495 0.44497 0.0
C663 C 0.33844 0.64289 0.50648 0.0
C664 C 0.34855 0.62011 0.433 0.0
C665 C 0.34829 0.63531 0.55654 0.0
C666 C 0.3584 0.62057 0.54506 0.0
C667 C 0.36996 0.59894 0.47031 0.0
C668 C 0.37093 0.59177 0.40768 0.0
C669 C 0.35889 0.61306 0.4832 0.0
C670 C 0.36009 0.59846 0.35871 0.0
C671 C 0.34903 0.61249 0.37121 0.0
H672 H 0.13397 0.60512 0.13424 0.0
H673 H 0.15512 0.571 0.28077 0.0
H674 H 0.18442 0.57758 0.24429 0.0
H675 H 0.20412 0.59215 0.16915 0.0
H676 H 0.18361 0.62588 0.02083 0.0
H677 H 0.15406 0.62056 0.06021 0.0
C678 C 0.14499 0.59918 0.15834 0.0
C679 C 0.14226 0.5875 0.21006 0.0
C680 C 0.16195 0.60301 0.13701 0.0
C681 C 0.15675 0.57998 0.24078 0.0
C682 C 0.17356 0.58373 0.21996 0.0
C683 C 0.19319 0.59841 0.14555 0.0
C684 C 0.19608 0.60956 0.09261 0.0
C685 C 0.17631 0.59509 0.16786 0.0
C686 C 0.18179 0.61756 0.06259 0.0
C687 C 0.16487 0.61437 0.08473 0.0
H688 H 0.13256 0.41856 0.9081 0.0
H689 H 0.13233 0.38927 0.72951 0.0
H690 H 0.15345 0.36901 0.77452 0.0
H691 H 0.17105 0.35882 0.86575 0.0
H692 H 0.17134 0.38779 0.04495 0.0
H693 H 0.15124 0.40898 -0.0017 0.0
C694 C 0.13721 0.40781 0.87887 0.0
C695 C 0.13076 0.40542 0.81558 0.0
C696 C 0.14934 0.39609 0.90519 0.0
C697 C 0.13699 0.39143 0.7784 0.0
C698 C 0.14908 0.37979 0.80412 0.0
C699 C 0.1668 0.3698 0.89463 0.0
C700 C 0.17263 0.37162 0.95894 0.0
C701 C 0.15519 0.38188 0.86766 0.0
C702 C 0.16704 0.38602 0.99539 0.0
C703 C 0.15551 0.39814 0.96877 0.0
H704 H 0.25719 0.16283 0.94507 0.0
H705 H 0.20483 0.16456 0.87125 0.0
H706 H 0.21563 0.15991 0.76103 0.0
H707 H 0.24016 0.15837 0.68487 0.0
H708 H 0.29245 0.15539 0.75868 0.0
H709 H 0.28147 0.15721 0.86993 0.0
C710 C 0.24816 0.16199 0.90484 0.0
C711 C 0.2303 0.16429 0.91591 0.0
C712 C 0.25444 0.15913 0.84177 0.0
C713 C 0.21866 0.16286 0.86378 0.0
C714 C 0.22482 0.16028 0.80077 0.0
C715 C 0.24911 0.15786 0.72544 0.0
C716 C 0.26707 0.15698 0.71379 0.0
C717 C 0.24271 0.15884 0.78907 0.0
C718 C 0.27855 0.15605 0.76656 0.0
C719 C 0.2723 0.15722 0.8301 0.0
H720 H 0.08649 0.9541 0.135 0.0
H721 H 0.09593 0.00133 0.24094 0.0
H722 H 0.09679 0.01779 0.13953 0.0
H723 H 0.09143 0.01924 0.02233 0.0
H724 H 0.07917 0.97238 0.91764 0.0
H725 H 0.08286 0.9553 0.0165 0.0
C726 C 0.08915 0.96791 0.13549 0.0
C727 C 0.0912 0.97653 0.19492 0.0
C728 C 0.08883 0.9774 0.07727 0.0
C729 C 0.09432 0.99448 0.19544 0.0
C730 C 0.09473 0.0039 0.1376 0.0
C731 C 0.08983 0.00526 0.02101 0.0
C732 C 0.08491 0.99711 0.96295 0.0
C733 C 0.09146 0.99558 0.07842 0.0
C734 C 0.08276 0.97899 0.962 0.0
C735 C 0.08491 0.9692 0.01845 0.0
H736 H 0.22573 0.81663 0.29362 0.0
H737 H 0.24515 0.76429 0.27248 0.0
H738 H 0.26162 0.76715 0.37228 0.0
H739 H 0.27212 0.78488 0.46177 0.0
H740 H 0.25426 0.83772 0.48205 0.0
H741 H 0.23546 0.83418 0.38738 0.0
C742 C 0.23346 0.80582 0.31118 0.0
C743 C 0.23428 0.79035 0.27499 0.0
C744 C 0.2432 0.8076 0.36869 0.0
C745 C 0.2444 0.77646 0.29859 0.0
C746 C 0.25382 0.77804 0.35598 0.0
C747 C 0.26389 0.79556 0.44637 0.0
C748 C 0.2646 0.81153 0.47925 0.0
C749 C 0.25352 0.7936 0.39092 0.0
C750 C 0.25399 0.82527 0.45774 0.0
C751 C 0.24328 0.82328 0.40338 0.0
H752 H 0.42427 0.00569 0.55201 0.0
H753 H 0.417 0.95929 0.66562 0.0
H754 H 0.41387 0.94212 0.56652 0.0
H755 H 0.41612 0.93989 0.44805 0.0
H756 H 0.42675 0.98575 0.33484 0.0
H757 H 0.42558 0.00359 0.43289 0.0
C758 C 0.42166 0.99188 0.55478 0.0
C759 C 0.42076 0.98371 0.61557 0.0
C760 C 0.42069 0.98199 0.49768 0.0
C761 C 0.41772 0.96578 0.61903 0.0
C762 C 0.41599 0.95598 0.56251 0.0
C763 C 0.41791 0.95383 0.44483 0.0
C764 C 0.42151 0.96153 0.38453 0.0
C765 C 0.41788 0.96387 0.5016 0.0
C766 C 0.42405 0.97955 0.38095 0.0
C767 C 0.42338 0.98975 0.43692 0.0
H768 H 0.74898 0.81355 0.31778 0.0
H769 H 0.74596 0.86826 0.27644 0.0
H770 H 0.7318 0.8734 0.38146 0.0
H771 H 0.71807 0.8617 0.48106 0.0
H772 H 0.72315 0.80711 0.5242 0.0
H773 H 0.73889 0.80254 0.42296 0.0
C774 C 0.74542 0.82661 0.33239 0.0
C775 C 0.74829 0.8405 0.28976 0.0
C776 C 0.73761 0.82945 0.39295 0.0
C777 C 0.74386 0.85741 0.30895 0.0
C778 C 0.73569 0.86032 0.36869 0.0
C779 C 0.72286 0.84888 0.46853 0.0
C780 C 0.71937 0.83475 0.50972 0.0
C781 C 0.73216 0.84636 0.41051 0.0
C782 C 0.72576 0.81821 0.49343 0.0
C783 C 0.73467 0.81555 0.43535 0.0
H784 H 0.92099 0.98505 0.91387 0.0
H785 H 0.92233 0.03742 0.98733 0.0
H786 H 0.92321 0.02645 0.09863 0.0
H787 H 0.92605 0.00186 0.17447 0.0
H788 H 0.9229 0.94955 0.10114 0.0
H789 H 0.92018 0.96058 0.99042 0.0
C790 C 0.92125 0.99403 0.95437 0.0
C791 C 0.92177 0.01197 0.94258 0.0
C792 C 0.92157 0.98765 0.01813 0.0
C793 C 0.92187 0.02353 0.9953 0.0
C794 C 0.9225 0.01727 0.0589 0.0
C795 C 0.92463 0.99292 0.13417 0.0
C796 C 0.9249 0.97496 0.14561 0.0
C797 C 0.92276 0.99935 0.07079 0.0
C798 C 0.92275 0.96346 0.09337 0.0
C799 C 0.92126 0.96974 0.03007 0.0
H800 H 0.75723 0.16873 0.83438 0.0
H801 H 0.75943 0.22461 0.84198 0.0
H802 H 0.74427 0.22656 0.73824 0.0
H803 H 0.73045 0.21247 0.64547 0.0
H804 H 0.72567 0.15677 0.64097 0.0
H805 H 0.74165 0.15457 0.7436 0.0
C806 C 0.75438 0.18129 0.81299 0.0
C807 C 0.75949 0.19651 0.84519 0.0
C808 C 0.74517 0.18232 0.75421 0.0
C809 C 0.75555 0.21274 0.81789 0.0
C810 C 0.74693 0.21386 0.75863 0.0
C811 C 0.73295 0.19985 0.66699 0.0
C812 C 0.7271 0.18479 0.63568 0.0
C813 C 0.74169 0.19876 0.72641 0.0
C814 C 0.73008 0.16853 0.66444 0.0
C815 C 0.73925 0.16728 0.72288 0.0
H816 H 0.58904 0.96853 0.57699 0.0
H817 H 0.59681 0.01913 0.49197 0.0
H818 H 0.59977 0.006 0.38475 0.0
H819 H 0.59495 0.98087 0.31403 0.0
H820 H 0.58715 0.93025 0.39781 0.0
H821 H 0.58992 0.94253 0.50698 0.0
C822 C 0.5917 0.97664 0.5351 0.0
C823 C 0.59229 0.99481 0.5421 0.0
C824 C 0.59334 0.96899 0.47352 0.0
C825 C 0.59614 0.00514 0.48778 0.0
C826 C 0.59776 0.99764 0.42641 0.0
C827 C 0.59441 0.97247 0.35629 0.0
C828 C 0.59065 0.95477 0.34837 0.0
C829 C 0.59565 0.97969 0.41848 0.0
C830 C 0.59011 0.94391 0.40299 0.0
C831 C 0.59146 0.95098 0.46532 0.0
H832 H 0.74907 0.68448 0.42788 0.0
H833 H 0.6965 0.68486 0.35592 0.0
H834 H 0.70716 0.68057 0.24528 0.0
H835 H 0.73151 0.67963 0.16838 0.0
H836 H 0.78409 0.6784 0.24018 0.0
H837 H 0.77333 0.67969 0.3518 0.0
C838 C 0.73997 0.68349 0.38795 0.0
C839 C 0.72206 0.68529 0.39973 0.0
C840 C 0.74618 0.68083 0.32464 0.0
C841 C 0.71035 0.68361 0.34793 0.0
C842 C 0.71644 0.68119 0.2847 0.0
C843 C 0.7406 0.67934 0.20855 0.0
C844 C 0.75856 0.67914 0.19612 0.0
C845 C 0.73433 0.68019 0.27239 0.0
C846 C 0.7702 0.67853 0.24851 0.0
C847 C 0.76406 0.67943 0.3123 0.0
H848 H 0.57865 0.49501 0.48774 0.0
H849 H 0.57211 0.54611 0.56938 0.0
H850 H 0.57603 0.5343 0.67882 0.0
H851 H 0.57837 0.50896 0.751 0.0
H852 H 0.58665 0.45812 0.66916 0.0
H853 H 0.58531 0.47032 0.55953 0.0
C854 C 0.57827 0.50353 0.52963 0.0
C855 C 0.57479 0.52128 0.52123 0.0
C856 C 0.58082 0.49671 0.59193 0.0
C857 C 0.57468 0.53236 0.5752 0.0
C858 C 0.57686 0.52562 0.63757 0.0
C859 C 0.58012 0.50064 0.70903 0.0
C860 C 0.58232 0.48269 0.71761 0.0
C861 C 0.57949 0.50775 0.64651 0.0
C862 C 0.5849 0.47199 0.66335 0.0
C863 C 0.58402 0.47893 0.60083 0.0
H864 H 0.75162 0.33957 0.60046 0.0
H865 H 0.69954 0.34121 0.67765 0.0
H866 H 0.71103 0.34417 0.78752 0.0
H867 H 0.73586 0.34392 0.86231 0.0
H868 H 0.78797 0.34392 0.78559 0.0
H869 H 0.77652 0.34297 0.67484 0.0
C870 C 0.74281 0.34071 0.64137 0.0
C871 C 0.72477 0.33991 0.63107 0.0
C872 C 0.74951 0.3427 0.7044 0.0
C873 C 0.71348 0.34173 0.6843 0.0
C874 C 0.72004 0.34337 0.74717 0.0
C875 C 0.7447 0.34395 0.82124 0.0
C876 C 0.76273 0.34382 0.832 0.0
C877 C 0.73802 0.34353 0.75788 0.0
C878 C 0.77404 0.34408 0.77849 0.0
C879 C 0.76749 0.3434 0.71521 0.0
H880 H 0.92662 0.55303 0.06546 0.0
H881 H 0.93043 0.50616 0.17904 0.0
H882 H 0.92637 0.48861 0.08161 0.0
H883 H 0.92485 0.48654 0.96254 0.0
H884 H 0.924 0.5334 0.84827 0.0
H885 H 0.92352 0.55096 0.94698 0.0
C886 C 0.92627 0.53899 0.06889 0.0
C887 C 0.92891 0.5309 0.12917 0.0
C888 C 0.92454 0.52896 0.01231 0.0
C889 C 0.92859 0.51268 0.13296 0.0
C890 C 0.92626 0.50263 0.0773 0.0
C891 C 0.92419 0.50058 0.95951 0.0
C892 C 0.92445 0.5087 0.89851 0.0
C893 C 0.92467 0.51061 0.01646 0.0
C894 C 0.92387 0.5269 0.89492 0.0
C895 C 0.92364 0.53694 0.95128 0.0
H896 H 0.25513 0.32661 0.69234 0.0
H897 H 0.30736 0.32359 0.76668 0.0
H898 H 0.2966 0.3285 0.87687 0.0
H899 H 0.27204 0.3308 0.95277 0.0
H900 H 0.21992 0.33518 0.8781 0.0
H901 H 0.23095 0.33292 0.76712 0.0
C902 C 0.26414 0.32722 0.7327 0.0
C903 C 0.28195 0.3245 0.7218 0.0
C904 C 0.25788 0.33028 0.79568 0.0
C905 C 0.29358 0.32561 0.77407 0.0
C906 C 0.28743 0.32835 0.83703 0.0
C907 C 0.26314 0.33154 0.91208 0.0
C908 C 0.2452 0.33293 0.92349 0.0
C909 C 0.26957 0.33029 0.84853 0.0
C910 C 0.2338 0.33412 0.87049 0.0
C911 C 0.24008 0.3327 0.80707 0.0
H912 H 0.41137 0.48852 0.44824 0.0
H913 H 0.4079 0.54094 0.5204 0.0
H914 H 0.41103 0.53031 0.63177 0.0
H915 H 0.41794 0.50634 0.70706 0.0
H916 H 0.42051 0.4539 0.63431 0.0
H917 H 0.41457 0.46431 0.5246 0.0
C918 C 0.41099 0.49758 0.48849 0.0
C919 C 0.40959 0.51548 0.47619 0.0
C920 C 0.41291 0.4914 0.55208 0.0
C921 C 0.4089 0.52708 0.52868 0.0
C922 C 0.41087 0.52103 0.59228 0.0
C923 C 0.41709 0.49721 0.66717 0.0
C924 C 0.41996 0.47942 0.67849 0.0
C925 C 0.41344 0.50326 0.60431 0.0
C926 C 0.41846 0.46766 0.62674 0.0
C927 C 0.41508 0.4736 0.564 0.0
H928 H 0.28346 0.68081 0.31264 0.0
H929 H 0.2677 0.73462 0.31762 0.0
H930 H 0.25052 0.73055 0.21981 0.0
H931 H 0.23829 0.71135 0.13701 0.0
H932 H 0.25293 0.65725 0.13405 0.0
H933 H 0.27233 0.66189 0.22591 0.0
C934 C 0.27645 0.69169 0.29191 0.0
C935 C 0.27683 0.70795 0.32298 0.0
C936 C 0.26631 0.68923 0.23585 0.0
C937 C 0.26757 0.72189 0.29531 0.0
C938 C 0.25772 0.71961 0.23917 0.0
C939 C 0.24589 0.70061 0.15582 0.0
C940 C 0.24405 0.68396 0.12867 0.0
C941 C 0.25675 0.70327 0.20965 0.0
C942 C 0.25398 0.6702 0.15408 0.0
C943 C 0.26509 0.67282 0.20679 0.0
H944 H 0.0849 0.49604 0.18374 0.0
H945 H 0.09064 0.54731 0.10269 0.0
H946 H 0.09042 0.53518 0.99294 0.0
H947 H 0.08642 0.51015 0.92031 0.0
H948 H 0.08275 0.45868 0.00121 0.0
H949 H 0.08449 0.47066 0.11108 0.0
C950 C 0.08626 0.5045 0.14193 0.0
C951 C 0.08757 0.52252 0.15087 0.0
C952 C 0.08643 0.4974 0.07925 0.0
C953 C 0.08962 0.53338 0.09671 0.0
C954 C 0.08941 0.52647 0.03408 0.0
C955 C 0.08617 0.50159 0.96213 0.0
C956 C 0.08425 0.48363 0.95316 0.0
C957 C 0.08749 0.50854 0.02481 0.0
C958 C 0.08423 0.47257 0.00727 0.0
C959 C 0.08513 0.47941 0.06994 0.0
H960 H 0.21431 0.22395 0.1246 0.0
H961 H 0.17439 0.22202 0.97811 0.0
H962 H 0.17507 0.2536 0.96822 0.0
H963 H 0.18559 0.28196 0.00691 0.0
H964 H 0.22485 0.28345 0.15617 0.0
H965 H 0.22591 0.25196 0.15865 0.0
C966 C 0.20592 0.2304 0.08987 0.0
C967 C 0.19427 0.22065 0.05246 0.0
C968 C 0.20618 0.24855 0.0851 0.0
C969 C 0.18345 0.22923 0.00778 0.0
C970 C 0.18379 0.2473 0.00216 0.0
C971 C 0.19447 0.27538 0.03953 0.0
C972 C 0.20514 0.2851 0.08108 0.0
C973 C 0.19487 0.25714 0.04152 0.0
C974 C 0.21659 0.27636 0.12312 0.0
C975 C 0.21716 0.2583 0.12491 0.0
H976 H 0.03397 0.91686 0.25497 0.0
H977 H 0.03749 0.95501 0.4078 0.0
H978 H 0.00625 0.95888 0.40643 0.0
H979 H 0.97771 0.95041 0.36705 0.0
H980 H 0.97333 0.91154 0.21743 0.0
H981 H 0.00499 0.90901 0.21244 0.0
C982 C 0.02789 0.92611 0.28757 0.0
C983 C 0.03818 0.93573 0.33096 0.0
C984 C 0.0097 0.9281 0.28748 0.0
C985 C 0.03005 0.94759 0.37312 0.0
C986 C 0.01209 0.94977 0.37276 0.0
C987 C 0.98364 0.94152 0.33276 0.0
C988 C 0.97315 0.93118 0.29275 0.0
C989 C 0.00178 0.93996 0.33075 0.0
C990 C 0.98111 0.91965 0.24892 0.0
C991 C 0.99922 0.91817 0.2461 0.0
H992 H 0.34981 0.79935 0.54813 0.0
H993 H 0.30632 0.81194 0.42564 0.0
H994 H 0.30448 0.78171 0.39023 0.0
H995 H 0.31156 0.75094 0.41307 0.0
H996 H 0.3558 0.7386 0.53213 0.0
H997 H 0.3614 0.76952 0.54911 0.0
C998 C 0.34052 0.79558 0.51123 0.0
C999 C 0.32819 0.80771 0.4896 0.0
C1000 C 0.33952 0.77819 0.49149 0.0
C1001 C 0.31606 0.8028 0.44232 0.0
C1002 C 0.31485 0.78546 0.42283 0.0
C1003 C 0.3228 0.75513 0.44053 0.0
C1004 C 0.33327 0.7427 0.47156 0.0
C1005 C 0.32594 0.77291 0.4498 0.0
C1006 C 0.34772 0.74806 0.50749 0.0
C1007 C 0.35082 0.76571 0.51761 0.0
H1008 H 0.47392 0.04752 0.65437 0.0
H1009 H 0.47586 0.01 0.81008 0.0
H1010 H 0.50715 0.00795 0.79918 0.0
H1011 H 0.53404 0.0181 0.75166 0.0
H1012 H 0.53327 0.05652 0.59933 0.0
H1013 H 0.50143 0.05691 0.60266 0.0
C1014 C 0.48119 0.0388 0.68552 0.0
C1015 C 0.47245 0.02885 0.73272 0.0
C1016 C 0.49939 0.0379 0.67987 0.0
C1017 C 0.48211 0.01767 0.77283 0.0
C1018 C 0.50007 0.01654 0.76691 0.0
C1019 C 0.52699 0.02637 0.71825 0.0
C1020 C 0.53605 0.03722 0.67517 0.0
C1021 C 0.50885 0.02674 0.72129 0.0
C1022 C 0.52661 0.04801 0.63292 0.0
C1023 C 0.50841 0.04827 0.635 0.0
H1024 H 0.15968 0.74666 0.0982 0.0
H1025 H 0.20846 0.74863 0.19954 0.0
H1026 H 0.20966 0.7169 0.20326 0.0
H1027 H 0.1996 0.68908 0.15899 0.0
H1028 H 0.15316 0.68759 0.04333 0.0
H1029 H 0.14775 0.71833 0.06563 0.0
C1030 C 0.17024 0.74005 0.12286 0.0
C1031 C 0.18392 0.74978 0.14887 0.0
C1032 C 0.17121 0.72182 0.12192 0.0
C1033 C 0.19779 0.74127 0.17946 0.0
C1034 C 0.19849 0.72315 0.18131 0.0
C1035 C 0.18792 0.69538 0.14119 0.0
C1036 C 0.17662 0.68616 0.10051 0.0
C1037 C 0.18565 0.71331 0.15025 0.0
C1038 C 0.1618 0.69445 0.07586 0.0
C1039 C 0.15888 0.71207 0.08776 0.0
H1040 H 0.46836 0.93534 0.25944 0.0
H1041 H 0.46637 0.88019 0.29176 0.0
H1042 H 0.4982 0.87862 0.28541 0.0
H1043 H 0.52623 0.89265 0.25714 0.0
H1044 H 0.52709 0.94777 0.22 0.0
H1045 H 0.49611 0.94962 0.24081 0.0
C1046 C 0.47485 0.92296 0.26466 0.0
C1047 C 0.46504 0.90785 0.27412 0.0
C1048 C 0.49298 0.92216 0.2595 0.0
C1049 C 0.47369 0.89201 0.2841 0.0
C1050 C 0.49186 0.8911 0.27996 0.0
C1051 C 0.51967 0.9051 0.25464 0.0
C1052 C 0.52901 0.92002 0.23604 0.0
C1053 C 0.50162 0.90604 0.26567 0.0
C1054 C 0.52029 0.93604 0.23313 0.0
C1055 C 0.50251 0.93713 0.24516 0.0
H1056 H 0.32766 0.20755 0.62318 0.0
H1057 H 0.2865 0.20647 0.48115 0.0
H1058 H 0.28568 0.23794 0.47901 0.0
H1059 H 0.29774 0.26582 0.51161 0.0
H1060 H 0.33952 0.26749 0.65069 0.0
H1061 H 0.33894 0.23587 0.65987 0.0
C1062 C 0.31843 0.21422 0.59221 0.0
C1063 C 0.30711 0.20459 0.55272 0.0
C1064 C 0.31817 0.23248 0.59033 0.0
C1065 C 0.29525 0.21346 0.5127 0.0
C1066 C 0.29481 0.23152 0.51108 0.0
C1067 C 0.30659 0.25931 0.54457 0.0
C1068 C 0.31867 0.26901 0.58022 0.0
C1069 C 0.30634 0.24116 0.54898 0.0
C1070 C 0.33009 0.26033 0.6225 0.0
C1071 C 0.3298 0.24223 0.6277 0.0
H1072 H 0.97492 0.06422 0.87005 0.0
H1073 H 0.97165 0.03003 0.70461 0.0
H1074 H 0.00272 0.0246 0.70996 0.0
H1075 H 0.03105 0.03059 0.75767 0.0
H1076 H 0.03487 0.06512 0.92179 0.0
H1077 H 0.00341 0.06925 0.92115 0.0
C1078 C 0.98102 0.05555 0.83535 0.0
C1079 C 0.97096 0.04754 0.78711 0.0
C1080 C 0.99901 0.05251 0.83842 0.0
C1081 C 0.97904 0.03628 0.7426 0.0
C1082 C 0.99685 0.03319 0.74543 0.0
C1083 C 0.025 0.03884 0.79389 0.0
C1084 C 0.03529 0.04754 0.8396 0.0
C1085 C 0.00697 0.04133 0.79274 0.0
C1086 C 0.02723 0.05826 0.88597 0.0
C1087 C 0.00925 0.06069 0.88552 0.0
H1088 H 0.81151 0.73663 0.12071 0.0
H1089 H 0.76995 0.73259 0.98104 0.0
H1090 H 0.76323 0.76313 0.99461 0.0
H1091 H 0.76986 0.79128 0.04121 0.0
H1092 H 0.81223 0.79651 0.1764 0.0
H1093 H 0.81789 0.76526 0.16954 0.0
C1094 C 0.80093 0.74243 0.09356 0.0
C1095 C 0.79114 0.73221 0.05046 0.0
C1096 C 0.7973 0.76024 0.10057 0.0
C1097 C 0.77755 0.73998 0.01534 0.0
C1098 C 0.77372 0.75752 0.02274 0.0
C1099 C 0.7802 0.78559 0.06992 0.0
C1100 C 0.79056 0.79619 0.10941 0.0
C1101 C 0.78358 0.76779 0.06474 0.0
C1102 C 0.80405 0.78861 0.14562 0.0
C1103 C 0.80732 0.77076 0.14159 0.0
H1104 H 0.69398 0.22919 0.4143 0.0
H1105 H 0.65876 0.22355 0.57574 0.0
H1106 H 0.65709 0.25526 0.58635 0.0
H1107 H 0.66594 0.28473 0.54875 0.0
H1108 H 0.70235 0.28888 0.38974 0.0
H1109 H 0.70361 0.25757 0.38066 0.0
C1110 C 0.68615 0.23477 0.45272 0.0
C1111 C 0.67671 0.22395 0.49471 0.0
C1112 C 0.68555 0.25282 0.45921 0.0
C1113 C 0.66622 0.23157 0.54282 0.0
C1114 C 0.6653 0.2497 0.54899 0.0
C1115 C 0.67421 0.27874 0.51248 0.0
C1116 C 0.68409 0.28921 0.4702 0.0
C1117 C 0.67496 0.26049 0.50741 0.0
C1118 C 0.69472 0.28123 0.42336 0.0
C1119 C 0.6954 0.26328 0.41777 0.0
H1120 H 0.82057 0.29079 0.92488 0.0
H1121 H 0.78459 0.29493 0.08515 0.0
H1122 H 0.78427 0.26361 0.09683 0.0
H1123 H 0.79447 0.23519 0.06408 0.0
H1124 H 0.82878 0.22979 0.89974 0.0
H1125 H 0.82989 0.26145 0.8883 0.0
C1126 C 0.81262 0.28478 0.96204 0.0
C1127 C 0.80259 0.29522 0.00389 0.0
C1128 C 0.81232 0.26657 0.9683 0.0
C1129 C 0.79232 0.28726 0.05184 0.0
C1130 C 0.79218 0.26931 0.05891 0.0
C1131 C 0.80197 0.24082 0.02495 0.0
C1132 C 0.8113 0.23007 0.98231 0.0
C1133 C 0.80215 0.25887 0.01762 0.0
C1134 C 0.82141 0.23775 0.93321 0.0
C1135 C 0.822 0.25585 0.92651 0.0
H1136 H 0.65868 0.74165 0.52573 0.0
H1137 H 0.70842 0.74003 0.62202 0.0
H1138 H 0.70678 0.77114 0.64196 0.0
H1139 H 0.69072 0.79824 0.63672 0.0
H1140 H 0.64086 0.80054 0.54281 0.0
H1141 H 0.64304 0.76956 0.51677 0.0
C1142 C 0.66926 0.74814 0.55034 0.0
C1143 C 0.68365 0.73849 0.57245 0.0
C1144 C 0.66809 0.76603 0.56283 0.0
C1145 C 0.69722 0.7471 0.60442 0.0
C1146 C 0.69624 0.76489 0.6162 0.0
C1147 C 0.68014 0.79204 0.61189 0.0
C1148 C 0.66542 0.80164 0.59368 0.0
C1149 C 0.68159 0.77438 0.59687 0.0
C1150 C 0.65225 0.79337 0.55823 0.0
C1151 C 0.65351 0.77569 0.54324 0.0
H1152 H 0.5341 0.45471 0.92427 0.0
H1153 H 0.5434 0.41492 0.7812 0.0
H1154 H 0.51217 0.41376 0.75791 0.0
H1155 H 0.48212 0.42397 0.78046 0.0
H1156 H 0.47429 0.46514 0.91988 0.0
H1157 H 0.50528 0.46633 0.94021 0.0
C1158 C 0.52948 0.44603 0.88688 0.0
C1159 C 0.54115 0.4351 0.85404 0.0
C1160 C 0.51176 0.44579 0.87267 0.0
C1161 C 0.5347 0.42352 0.80724 0.0
C1162 C 0.51686 0.4229 0.79374 0.0
C1163 C 0.48725 0.43334 0.81463 0.0
C1164 C 0.47585 0.44443 0.84866 0.0
C1165 C 0.50525 0.434 0.82631 0.0
C1166 C 0.4827 0.4565 0.89277 0.0
C1167 C 0.50044 0.45712 0.90485 0.0
H1168 H 0.98345 0.56118 0.33835 0.0
H1169 H 0.98433 0.59553 0.17314 0.0
H1170 H 0.0162 0.59527 0.17443 0.0
H1171 H 0.04398 0.58543 0.22474 0.0
H1172 H 0.04172 0.55149 0.39148 0.0
H1173 H 0.01031 0.55141 0.38693 0.0
C1174 C 0.99054 0.56847 0.30196 0.0
C1175 C 0.98149 0.57823 0.25541 0.0
C1176 C 0.0087 0.56838 0.30344 0.0
C1177 C 0.99098 0.58783 0.20941 0.0
C1178 C 0.0092 0.58771 0.21025 0.0
C1179 C 0.03657 0.57806 0.25998 0.0
C1180 C 0.04528 0.56835 0.30796 0.0
C1181 C 0.01825 0.5781 0.25744 0.0
C1182 C 0.03547 0.55888 0.35337 0.0
C1183 C 0.01743 0.55885 0.35107 0.0
H1184 H 0.97394 0.43892 0.83933 0.0
H1185 H 0.97528 0.47792 0.68869 0.0
H1186 H 0.00668 0.47658 0.68618 0.0
H1187 H 0.0337 0.46367 0.72219 0.0
H1188 H 0.03351 0.42423 0.87077 0.0
H1189 H 0.00176 0.42623 0.87788 0.0
C1190 C 0.98113 0.44721 0.8064 0.0
C1191 C 0.97216 0.45866 0.76486 0.0
C1192 C 0.99941 0.44618 0.80425 0.0
C1193 C 0.98171 0.4692 0.72207 0.0
C1194 C 0.99975 0.46837 0.72014 0.0
C1195 C 0.02681 0.45563 0.75684 0.0
C1196 C 0.036 0.44391 0.79619 0.0
C1197 C 0.0087 0.45683 0.76052 0.0
C1198 C 0.02674 0.43338 0.83989 0.0
C1199 C 0.0086 0.43454 0.84401 0.0
H1200 H 0.46185 0.57345 0.3913 0.0
H1201 H 0.46094 0.53151 0.25242 0.0
H1202 H 0.49229 0.52893 0.25822 0.0
H1203 H 0.52011 0.53961 0.29673 0.0
H1204 H 0.52185 0.58218 0.43242 0.0
H1205 H 0.4901 0.58346 0.43384 0.0
C1206 C 0.46852 0.56368 0.36272 0.0
C1207 C 0.45898 0.55263 0.32184 0.0
C1208 C 0.48673 0.56242 0.36537 0.0
C1209 C 0.46784 0.54006 0.28497 0.0
C1210 C 0.48584 0.53861 0.2879 0.0
C1211 C 0.51359 0.54903 0.32736 0.0
C1212 C 0.52334 0.56078 0.36433 0.0
C1213 C 0.49542 0.54985 0.32724 0.0
C1214 C 0.51464 0.57299 0.40334 0.0
C1215 C 0.49648 0.57376 0.40408 0.0
H1216 H 0.25326 0.13834 0.18314 0.0
H1217 H 0.20264 0.13965 0.27227 0.0
H1218 H 0.21484 0.12862 0.37359 0.0
H1219 H 0.24095 0.12773 0.44233 0.0
H1220 H 0.29153 0.12658 0.35336 0.0
H1221 H 0.27833 0.1274 0.2459 0.0
C1222 C 0.24484 0.13545 0.22397 0.0
C1223 C 0.22723 0.14017 0.22126 0.0
C1224 C 0.25198 0.12924 0.28219 0.0
C1225 C 0.21629 0.13621 0.27371 0.0
C1226 C 0.22329 0.13003 0.33181 0.0
C1227 C 0.24899 0.12652 0.39927 0.0
C1228 C 0.26712 0.12767 0.40536 0.0
C1229 C 0.24129 0.12773 0.33775 0.0
C1230 C 0.27751 0.12588 0.34971 0.0
C1231 C 0.26996 0.12674 0.28814 0.0
H1232 H 0.1209 0.99237 0.45326 0.0
H1233 H 0.11742 0.94247 0.54622 0.0
H1234 H 0.12018 0.95613 0.65247 0.0
H1235 H 0.11311 0.98251 0.71491 0.0
H1236 H 0.11541 0.03246 0.62163 0.0
H1237 H 0.124 0.01872 0.51962 0.0
C1238 C 0.12187 0.98445 0.49669 0.0
C1239 C 0.11849 0.96657 0.49255 0.0
C1240 C 0.12266 0.99252 0.5576 0.0
C1241 C 0.1199 0.9563 0.54852 0.0
C1242 C 0.12112 0.96416 0.60942 0.0
C1243 C 0.11641 0.99038 0.67301 0.0
C1244 C 0.11334 0.00834 0.67477 0.0
C1245 C 0.12091 0.98233 0.61431 0.0
C1246 C 0.11767 0.01858 0.62088 0.0
C1247 C 0.12239 0.01069 0.5624 0.0
H1248 H 0.26084 0.80224 0.99665 0.0
H1249 H 0.21606 0.831 0.93206 0.0
H1250 H 0.23265 0.84213 0.8391 0.0
H1251 H 0.25879 0.83983 0.7675 0.0
H1252 H 0.30267 0.8098 0.83352 0.0
H1253 H 0.28773 0.80327 0.93476 0.0
C1254 C 0.2548 0.81123 0.96292 0.0
C1255 C 0.23721 0.8156 0.97066 0.0
C1256 C 0.26429 0.81725 0.90939 0.0
C1257 C 0.22961 0.82744 0.92714 0.0
C1258 C 0.23906 0.83368 0.87368 0.0
C1259 C 0.26519 0.8323 0.805 0.0
C1260 C 0.28176 0.8252 0.79304 0.0
C1261 C 0.25626 0.82815 0.86295 0.0
C1262 C 0.28988 0.8153 0.8416 0.0
C1263 C 0.28133 0.8115 0.8994 0.0
H1264 H 0.3934 0.96885 0.86999 0.0
H1265 H 0.39622 0.01792 0.96901 0.0
H1266 H 0.39023 0.00361 0.0725 0.0
H1267 H 0.39345 0.97646 0.13475 0.0
H1268 H 0.39141 0.92735 0.03572 0.0
H1269 H 0.3872 0.94222 0.9321 0.0
C1270 C 0.39171 0.97647 0.91382 0.0
C1271 C 0.39544 0.9943 0.91252 0.0
C1272 C 0.38876 0.96804 0.97322 0.0
C1273 C 0.39332 0.00417 0.96915 0.0
C1274 C 0.39016 0.99593 0.02845 0.0
C1275 C 0.39106 0.96906 0.09087 0.0
C1276 C 0.3929 0.95093 0.09224 0.0
C1277 C 0.38918 0.97775 0.0314 0.0
C1278 C 0.38993 0.94134 0.03552 0.0
C1279 C 0.38781 0.94987 0.97615 0.0
H1280 H 0.75208 0.87579 0.93422 0.0
H1281 H 0.7094 0.86164 0.0586 0.0
H1282 H 0.68875 0.86902 0.97317 0.0
H1283 H 0.68404 0.87039 0.85596 0.0
H1284 H 0.72709 0.88001 0.72795 0.0
H1285 H 0.74629 0.88423 0.82099 0.0
C1286 C 0.73822 0.87518 0.94343 0.0
C1287 C 0.73219 0.86802 0.00199 0.0
C1288 C 0.7265 0.87836 0.8925 0.0
C1289 C 0.71426 0.86704 0.01353 0.0
C1290 C 0.70247 0.87111 0.96448 0.0
C1291 C 0.69739 0.87445 0.84882 0.0
C1292 C 0.70422 0.87491 0.7857 0.0
C1293 C 0.70854 0.87549 0.90244 0.0
C1294 C 0.72157 0.8798 0.77635 0.0
C1295 C 0.73261 0.88187 0.82963 0.0
H1296 H 0.88765 0.99057 0.67205 0.0
H1297 H 0.89258 0.04084 0.58287 0.0
H1298 H 0.89138 0.02764 0.47543 0.0
H1299 H 0.8986 0.00135 0.412 0.0
H1300 H 0.89346 0.95104 0.50114 0.0
H1301 H 0.88473 0.96459 0.60327 0.0
C1302 C 0.88732 0.99869 0.62902 0.0
C1303 C 0.89066 0.01654 0.63502 0.0
C1304 C 0.88723 0.9909 0.56742 0.0
C1305 C 0.8901 0.02703 0.57932 0.0
C1306 C 0.8898 0.01943 0.51775 0.0
C1307 C 0.89475 0.99339 0.453 0.0
C1308 C 0.897 0.97531 0.4499 0.0
C1309 C 0.88986 0.00129 0.51169 0.0
C1310 C 0.89188 0.96501 0.50274 0.0
C1311 C 0.88704 0.97277 0.56135 0.0
H1312 H 0.77882 0.15565 0.19777 0.0
H1313 H 0.7359 0.15967 0.06519 0.0
H1314 H 0.71556 0.15257 0.15238 0.0
H1315 H 0.70989 0.15392 0.26957 0.0
H1316 H 0.75276 0.15457 0.4031 0.0
H1317 H 0.77322 0.15053 0.31357 0.0
C1318 C 0.7651 0.15402 0.1876 0.0
C1319 C 0.75878 0.15804 0.12554 0.0
C1320 C 0.75344 0.15111 0.23897 0.0
C1321 C 0.74098 0.15641 0.1127 0.0
C1322 C 0.72935 0.15259 0.16276 0.0
C1323 C 0.72364 0.15218 0.27905 0.0
C1324 C 0.7299 0.15443 0.34242 0.0
C1325 C 0.73535 0.15113 0.2268 0.0
C1326 C 0.74773 0.15266 0.35454 0.0
C1327 C 0.75943 0.15062 0.30321 0.0
H1328 H 0.59952 0.98711 0.07572 0.0
H1329 H 0.60483 0.93685 0.98596 0.0
H1330 H 0.61478 0.95044 0.88558 0.0
H1331 H 0.61392 0.97662 0.81736 0.0
H1332 H 0.60824 0.02682 0.90634 0.0
H1333 H 0.60738 0.01338 0.01367 0.0
C1334 C 0.60342 0.97915 0.03478 0.0
C1335 C 0.60099 0.96109 0.03727 0.0
C1336 C 0.60905 0.98708 0.97711 0.0
C1337 C 0.60641 0.95081 0.98475 0.0
C1338 C 0.61203 0.95859 0.92723 0.0
C1339 C 0.61357 0.98463 0.86062 0.0
C1340 C 0.6108 0.00258 0.85431 0.0
C1341 C 0.61233 0.97673 0.92177 0.0
C1342 C 0.61038 0.01296 0.91024 0.0
C1343 C 0.6095 0.00522 0.97156 0.0
H1344 H 0.73659 0.64869 0.92132 0.0
H1345 H 0.78725 0.6531 0.83439 0.0
H1346 H 0.77457 0.65035 0.72654 0.0
H1347 H 0.7486 0.6571 0.6612 0.0
H1348 H 0.69789 0.65332 0.74841 0.0
H1349 H 0.71094 0.64486 0.85157 0.0
C1350 C 0.74491 0.64796 0.87886 0.0
C1351 C 0.7627 0.65162 0.88525 0.0
C1352 C 0.73742 0.64702 0.81694 0.0
C1353 C 0.77348 0.65046 0.83044 0.0
C1354 C 0.76618 0.64921 0.76859 0.0
C1355 C 0.74042 0.65351 0.70196 0.0
C1356 C 0.72242 0.65628 0.69818 0.0
C1357 C 0.74806 0.64907 0.7615 0.0
C1358 C 0.71182 0.65141 0.75057 0.0
C1359 C 0.7193 0.64679 0.80986 0.0
H1360 H 0.60388 0.5367 0.16272 0.0
H1361 H 0.60216 0.49239 0.28982 0.0
H1362 H 0.61179 0.47351 0.20164 0.0
H1363 H 0.61109 0.46881 0.0842 0.0
H1364 H 0.60715 0.51262 0.95551 0.0
H1365 H 0.61003 0.53254 0.04703 0.0
C1366 C 0.60652 0.52306 0.17158 0.0
C1367 C 0.60224 0.51581 0.23192 0.0
C1368 C 0.61071 0.51214 0.11936 0.0
C1369 C 0.60538 0.49813 0.24332 0.0
C1370 C 0.6107 0.48733 0.19273 0.0
C1371 C 0.61188 0.48272 0.07618 0.0
C1372 C 0.60885 0.48935 0.01386 0.0
C1373 C 0.61203 0.494 0.12959 0.0
C1374 C 0.60953 0.50734 0.00343 0.0
C1375 C 0.61091 0.5187 0.05588 0.0
H1376 H 0.74732 0.3703 0.36496 0.0
H1377 H 0.69688 0.36949 0.27516 0.0
H1378 H 0.70985 0.37663 0.17035 0.0
H1379 H 0.73609 0.37362 0.10251 0.0
H1380 H 0.78652 0.37454 0.19231 0.0
H1381 H 0.77309 0.37762 0.29903 0.0
C1382 C 0.73913 0.37265 0.32305 0.0
C1383 C 0.72129 0.36906 0.32706 0.0
C1384 C 0.74674 0.37647 0.26275 0.0
C1385 C 0.71068 0.37217 0.27295 0.0
C1386 C 0.71813 0.37602 0.21279 0.0
C1387 C 0.74411 0.37556 0.14514 0.0
C1388 C 0.76219 0.37347 0.14006 0.0
C1389 C 0.73625 0.37686 0.20649 0.0
C1390 C 0.77254 0.37607 0.19521 0.0
C1391 C 0.76485 0.37751 0.25645 0.0
H1392 H 0.89686 0.52609 0.64341 0.0
H1393 H 0.89582 0.47655 0.54723 0.0
H1394 H 0.89319 0.49095 0.44208 0.0
H1395 H 0.90106 0.51715 0.37994 0.0
H1396 H 0.9029 0.56666 0.4763 0.0
H1397 H 0.89487 0.55295 0.57901 0.0
C1398 C 0.89497 0.5185 0.59965 0.0
C1399 C 0.89685 0.50038 0.60243 0.0
C1400 C 0.89412 0.52692 0.53935 0.0
C1401 C 0.8944 0.49054 0.54595 0.0
C1402 C 0.89322 0.4988 0.4857 0.0
C1403 C 0.89875 0.525 0.42281 0.0
C1404 C 0.9028 0.54275 0.42139 0.0
C1405 C 0.89454 0.51693 0.48182 0.0
C1406 C 0.89983 0.55294 0.47667 0.0
C1407 C 0.89545 0.54506 0.53553 0.0
H1408 H 0.26896 0.36341 0.1979 0.0
H1409 H 0.21826 0.36173 0.28567 0.0
H1410 H 0.23132 0.36011 0.39323 0.0
H1411 H 0.25671 0.34953 0.4551 0.0
H1412 H 0.30748 0.35118 0.36722 0.0
H1413 H 0.29498 0.3627 0.26715 0.0
C1414 C 0.26081 0.36384 0.2409 0.0
C1415 C 0.24274 0.36215 0.23411 0.0
C1416 C 0.26847 0.36219 0.30239 0.0
C1417 C 0.23223 0.3629 0.28978 0.0
C1418 C 0.23972 0.36156 0.35135 0.0
C1419 C 0.26507 0.35313 0.41488 0.0
C1420 C 0.28286 0.34913 0.4175 0.0
C1421 C 0.25777 0.35966 0.3574 0.0
C1422 C 0.2937 0.35404 0.36586 0.0
C1423 C 0.28654 0.36051 0.30846 0.0
H1424 H 0.38964 0.50191 0.94013 0.0
H1425 H 0.39078 0.45111 0.02736 0.0
H1426 H 0.38072 0.46325 0.13019 0.0
H1427 H 0.3813 0.48919 0.19998 0.0
H1428 H 0.38067 0.53999 0.11291 0.0
H1429 H 0.37996 0.52705 0.00501 0.0
C1430 C 0.38679 0.49343 0.9808 0.0
C1431 C 0.3913 0.47578 0.97707 0.0
C1432 C 0.38135 0.50058 0.04009 0.0
C1433 C 0.38747 0.46478 0.02944 0.0
C1434 C 0.38191 0.47176 0.08852 0.0
C1435 C 0.37991 0.49737 0.1574 0.0
C1436 C 0.38155 0.51545 0.16396 0.0
C1437 C 0.38017 0.48979 0.09548 0.0
C1438 C 0.37956 0.52602 0.10892 0.0
C1439 C 0.3795 0.5186 0.04704 0.0
H1440 H 0.21625 0.68442 0.77348 0.0
H1441 H 0.2524 0.648 0.85676 0.0
H1442 H 0.27197 0.65196 0.76354 0.0
H1443 H 0.28038 0.66917 0.66589 0.0
H1444 H 0.24376 0.70606 0.58721 0.0
H1445 H 0.22271 0.69836 0.67037 0.0
C1446 C 0.22829 0.67712 0.77068 0.0
C1447 C 0.23302 0.66613 0.82211 0.0
C1448 C 0.23945 0.67967 0.71786 0.0
C1449 C 0.2485 0.65654 0.8176 0.0
C1450 C 0.25973 0.65892 0.76457 0.0
C1451 C 0.26763 0.67516 0.66616 0.0
C1452 C 0.26372 0.68836 0.62098 0.0
C1453 C 0.2556 0.67092 0.71541 0.0
C1454 C 0.24717 0.69606 0.62196 0.0
C1455 C 0.23512 0.69169 0.66957 0.0
H1456 H 0.1197 0.5359 0.51587 0.0
H1457 H 0.11554 0.49284 0.38407 0.0
H1458 H 0.11986 0.47243 0.47331 0.0
H1459 H 0.11531 0.46737 0.58976 0.0
H1460 H 0.11493 0.51071 0.72127 0.0
H1461 H 0.12248 0.53039 0.63276 0.0
C1462 C 0.12077 0.52208 0.50646 0.0
C1463 C 0.11728 0.5158 0.44393 0.0
C1464 C 0.122 0.51044 0.55883 0.0
C1465 C 0.1183 0.49789 0.43202 0.0
C1466 C 0.12051 0.48623 0.48326 0.0
C1467 C 0.11787 0.48096 0.59939 0.0
C1468 C 0.11454 0.48766 0.66149 0.0
C1469 C 0.12099 0.49235 0.5473 0.0
C1470 C 0.11752 0.50533 0.67364 0.0
C1471 C 0.12159 0.51662 0.62281 0.0
loop_
_geom_bond_atom_site_label_1
_geom_bond_atom_site_label_2
_geom_bond_distance
_geom_bond_site_symmetry_2
_ccdc_geom_bond_type
Mg0 O1 2.028 1_554 S
Mg0 O7 1.986 . S
Mg0 O9 2.114 1_554 S
Mg0 O10 2.251 . S
Mg0 O13 2.010 . S
O1 Mg0 2.028 1_556 S
O1 C4 1.250 . S
O2 Mg3 2.028 1_556 S
O2 C4 1.248 . S
Mg3 O2 2.028 1_554 S
Mg3 O8 2.032 . S
Mg3 O10 2.079 . S
C4 O1 1.250 . S
C4 O2 1.248 . S
C5 O6 1.264 . S
C5 O13 1.249 . S
O6 C5 1.264 . S
O7 Mg0 1.986 . S
O7 C11 1.246 . S
O8 Mg3 2.032 . S
O8 C11 1.259 . S
O9 Mg0 2.114 1_556 S
O9 C12 1.252 1_556 S
O10 Mg0 2.251 . S
O10 Mg3 2.079 . S
O10 C12 1.273 . S
C11 O7 1.246 . S
C11 O8 1.259 . S
C12 O9 1.252 1_554 S
C12 O10 1.273 . S
O13 Mg0 2.010 . S
O13 C5 1.249 . S
Mg14 O15 2.028 . S
Mg14 O21 1.986 . S
Mg14 O23 2.114 . S
Mg14 O24 2.251 . S
Mg14 O27 2.010 . S
O15 Mg14 2.028 . S
O15 C18 1.250 . S
O16 Mg17 2.028 . S
O16 C18 1.248 . S
Mg17 O16 2.028 . S
Mg17 O22 2.032 . S
Mg17 O24 2.079 . S
C18 O15 1.250 . S
C18 O16 1.248 . S
C19 O20 1.264 . S
C19 O27 1.249 . S
O20 C19 1.264 . S
O21 Mg14 1.986 . S
O21 C25 1.246 . S
O22 Mg17 2.032 . S
O22 C25 1.259 . S
O23 Mg14 2.114 . S
O23 C26 1.252 . S
O24 Mg14 2.251 . S
O24 Mg17 2.079 . S
O24 C26 1.273 . S
C25 O21 1.246 . S
C25 O22 1.259 . S
C26 O23 1.252 . S
C26 O24 1.273 . S
O27 Mg14 2.010 . S
O27 C19 1.249 . S
Mg28 O29 2.028 . S
Mg28 O35 1.986 . S
Mg28 O37 2.114 . S
Mg28 O38 2.251 . S
Mg28 O41 2.010 . S
O29 Mg28 2.028 . S
O29 C32 1.250 . S
O30 Mg31 2.028 . S
O30 C32 1.248 . S
Mg31 O30 2.028 . S
Mg31 O36 2.032 . S
Mg31 O38 2.079 . S
C32 O29 1.250 . S
C32 O30 1.248 . S
C33 O34 1.264 . S
C33 O41 1.249 . S
O34 C33 1.264 . S
O35 Mg28 1.986 . S
O35 C39 1.246 . S
O36 Mg31 2.032 . S
O36 C39 1.259 . S
O37 Mg28 2.114 . S
O37 C40 1.252 . S
O38 Mg28 2.251 . S
O38 Mg31 2.079 . S
O38 C40 1.273 . S
C39 O35 1.246 . S
C39 O36 1.259 . S
C40 O37 1.252 . S
C40 O38 1.273 . S
O41 Mg28 2.010 . S
O41 C33 1.249 . S
Mg42 O43 2.028 . S
Mg42 O49 1.986 . S
Mg42 O51 2.114 . S
Mg42 O52 2.251 . S
Mg42 O55 2.010 . S
O43 Mg42 2.028 . S
O43 C46 1.250 . S
O44 Mg45 2.028 . S
O44 C46 1.248 . S
Mg45 O44 2.028 . S
Mg45 O50 2.032 . S
Mg45 O52 2.079 . S
C46 O43 1.250 . S
C46 O44 1.248 . S
C47 O48 1.264 . S
C47 O55 1.249 . S
O48 C47 1.264 . S
O49 Mg42 1.986 . S
O49 C53 1.246 . S
O50 Mg45 2.032 . S
O50 C53 1.259 . S
O51 Mg42 2.114 . S
O51 C54 1.252 . S
O52 Mg42 2.251 . S
O52 Mg45 2.079 . S
O52 C54 1.273 . S
C53 O49 1.246 . S
C53 O50 1.259 . S
C54 O51 1.252 . S
C54 O52 1.273 . S
O55 Mg42 2.010 . S
O55 C47 1.249 . S
Mg56 O57 2.028 . S
Mg56 O63 1.986 1_554 S
Mg56 O65 2.114 . S
Mg56 O66 2.251 . S
Mg56 O69 2.010 . S
O57 Mg56 2.028 . S
O57 C60 1.250 . S
O58 Mg59 2.028 . S
O58 C60 1.248 . S
Mg59 O58 2.028 . S
Mg59 O64 2.032 1_554 S
Mg59 O66 2.079 . S
C60 O57 1.250 . S
C60 O58 1.248 . S
C61 O62 1.264 . S
C61 O69 1.249 . S
O62 C61 1.264 . S
O63 Mg56 1.986 1_556 S
O63 C67 1.246 . S
O64 Mg59 2.032 1_556 S
O64 C67 1.259 . S
O65 Mg56 2.114 . S
O65 C68 1.252 . S
O66 Mg56 2.251 . S
O66 Mg59 2.079 . S
O66 C68 1.273 . S
C67 O63 1.246 . S
C67 O64 1.259 . S
C68 O65 1.252 . S
C68 O66 1.273 . S
O69 Mg56 2.010 . S
O69 C61 1.249 . S
Mg70 O71 2.028 . S
Mg70 O77 1.986 . S
Mg70 O79 2.114 . S
Mg70 O80 2.251 . S
Mg70 O83 2.010 . S
O71 Mg70 2.028 . S
O71 C74 1.250 . S
O72 Mg73 2.028 . S
O72 C74 1.248 . S
Mg73 O72 2.028 . S
Mg73 O78 2.032 . S
Mg73 O80 2.079 . S
C74 O71 1.250 . S
C74 O72 1.248 . S
C75 O76 1.264 . S
C75 O83 1.249 . S
O76 C75 1.264 . S
O77 Mg70 1.986 . S
O77 C81 1.246 . S
O78 Mg73 2.032 . S
O78 C81 1.259 . S
O79 Mg70 2.114 . S
O79 C82 1.252 . S
O80 Mg70 2.251 . S
O80 Mg73 2.079 . S
O80 C82 1.273 . S
C81 O77 1.246 . S
C81 O78 1.259 . S
C82 O79 1.252 . S
C82 O80 1.273 . S
O83 Mg70 2.010 . S
O83 C75 1.249 . S
Mg84 O85 2.028 . S
Mg84 O91 1.986 . S
Mg84 O93 2.114 . S
Mg84 O94 2.251 . S
Mg84 O97 2.010 . S
O85 Mg84 2.028 . S
O85 C88 1.250 . S
O86 Mg87 2.028 . S
O86 C88 1.248 . S
Mg87 O86 2.028 . S
Mg87 O92 2.032 . S
Mg87 O94 2.079 . S
C88 O85 1.250 . S
C88 O86 1.248 . S
C89 O90 1.264 . S
C89 O97 1.249 . S
O90 C89 1.264 . S
O91 Mg84 1.986 . S
O91 C95 1.246 . S
O92 Mg87 2.032 . S
O92 C95 1.259 . S
O93 Mg84 2.114 . S
O93 C96 1.252 . S
O94 Mg84 2.251 . S
O94 Mg87 2.079 . S
O94 C96 1.273 . S
C95 O91 1.246 . S
C95 O92 1.259 . S
C96 O93 1.252 . S
C96 O94 1.273 . S
O97 Mg84 2.010 . S
O97 C89 1.249 . S
Mg98 O99 2.028 . S
Mg98 O105 1.986 . S
Mg98 O107 2.114 . S
Mg98 O108 2.251 . S
Mg98 O111 2.010 . S
O99 Mg98 2.028 . S
O99 C102 1.250 . S
O100 Mg101 2.028 . S
O100 C102 1.248 . S
Mg101 O100 2.028 . S
Mg101 O106 2.032 . S
Mg101 O108 2.079 . S
C102 O99 1.250 . S
C102 O100 1.248 . S
C103 O104 1.264 . S
C103 O111 1.249 . S
O104 C103 1.264 . S
O105 Mg98 1.986 . S
O105 C109 1.246 . S
O106 Mg101 2.032 . S
O106 C109 1.259 . S
O107 Mg98 2.114 . S
O107 C110 1.252 . S
O108 Mg98 2.251 . S
O108 Mg101 2.079 . S
O108 C110 1.273 . S
C109 O105 1.246 . S
C109 O106 1.259 . S
C110 O107 1.252 . S
C110 O108 1.273 . S
O111 Mg98 2.010 . S
O111 C103 1.249 . S
Mg112 O113 2.028 . S
Mg112 O119 1.986 1_554 S
Mg112 O121 2.114 . S
Mg112 O122 2.251 . S
Mg112 O125 2.010 . S
O113 Mg112 2.028 . S
O113 C116 1.250 . S
O114 Mg115 2.028 . S
O114 C116 1.248 . S
Mg115 O114 2.028 . S
Mg115 O120 2.032 1_554 S
Mg115 O122 2.079 . S
C116 O113 1.250 . S
C116 O114 1.248 . S
C117 O118 1.264 . S
C117 O125 1.249 . S
O118 C117 1.264 . S
O119 Mg112 1.986 1_556 S
O119 C123 1.246 . S
O120 Mg115 2.032 1_556 S
O120 C123 1.259 . S
O121 Mg112 2.114 . S
O121 C124 1.252 . S
O122 Mg112 2.251 . S
O122 Mg115 2.079 . S
O122 C124 1.273 . S
C123 O119 1.246 . S
C123 O120 1.259 . S
C124 O121 1.252 . S
C124 O122 1.273 . S
O125 Mg112 2.010 . S
O125 C117 1.249 . S
Mg126 O127 2.028 . S
Mg126 O133 1.986 . S
Mg126 O135 2.114 . S
Mg126 O136 2.251 . S
Mg126 O139 2.010 . S
O127 Mg126 2.028 . S
O127 C130 1.250 . S
O128 Mg129 2.028 . S
O128 C130 1.248 . S
Mg129 O128 2.028 . S
Mg129 O134 2.032 . S
Mg129 O136 2.079 . S
C130 O127 1.250 . S
C130 O128 1.248 . S
C131 O132 1.264 . S
C131 O139 1.249 . S
O132 C131 1.264 . S
O133 Mg126 1.986 . S
O133 C137 1.246 . S
O134 Mg129 2.032 . S
O134 C137 1.259 . S
O135 Mg126 2.114 . S
O135 C138 1.252 . S
O136 Mg126 2.251 . S
O136 Mg129 2.079 . S
O136 C138 1.273 . S
C137 O133 1.246 . S
C137 O134 1.259 . S
C138 O135 1.252 . S
C138 O136 1.273 . S
O139 Mg126 2.010 . S
O139 C131 1.249 . S
Mg140 O141 2.028 . S
Mg140 O147 1.986 . S
Mg140 O149 2.114 . S
Mg140 O150 2.251 . S
Mg140 O153 2.010 . S
O141 Mg140 2.028 . S
O141 C144 1.250 . S
O142 Mg143 2.028 . S
O142 C144 1.248 . S
Mg143 O142 2.028 . S
Mg143 O148 2.032 . S
Mg143 O150 2.079 . S
C144 O141 1.250 . S
C144 O142 1.248 . S
C145 O146 1.264 . S
C145 O153 1.249 . S
O146 C145 1.264 . S
O147 Mg140 1.986 . S
O147 C151 1.246 . S
O148 Mg143 2.032 . S
O148 C151 1.259 . S
O149 Mg140 2.114 . S
O149 C152 1.252 . S
O150 Mg140 2.251 . S
O150 Mg143 2.079 . S
O150 C152 1.273 . S
C151 O147 1.246 . S
C151 O148 1.259 . S
C152 O149 1.252 . S
C152 O150 1.273 . S
O153 Mg140 2.010 . S
O153 C145 1.249 . S
Mg154 O155 2.028 . S
Mg154 O161 1.986 . S
Mg154 O163 2.114 . S
Mg154 O164 2.251 . S
Mg154 O167 2.010 . S
O155 Mg154 2.028 . S
O155 C158 1.250 . S
O156 Mg157 2.028 . S
O156 C158 1.248 . S
Mg157 O156 2.028 . S
Mg157 O162 2.032 . S
Mg157 O164 2.079 . S
C158 O155 1.250 . S
C158 O156 1.248 . S
C159 O160 1.264 . S
C159 O167 1.249 . S
O160 C159 1.264 . S
O161 Mg154 1.986 . S
O161 C165 1.246 . S
O162 Mg157 2.032 . S
O162 C165 1.259 . S
O163 Mg154 2.114 . S
O163 C166 1.252 . S
O164 Mg154 2.251 . S
O164 Mg157 2.079 . S
O164 C166 1.273 . S
C165 O161 1.246 . S
C165 O162 1.259 . S
C166 O163 1.252 . S
C166 O164 1.273 . S
O167 Mg154 2.010 . S
O167 C159 1.249 . S
Mg168 O169 2.028 1_554 S
Mg168 O175 1.986 . S
Mg168 O177 2.114 1_554 S
Mg168 O178 2.251 . S
Mg168 O181 2.010 . S
O169 Mg168 2.028 1_556 S
O169 C172 1.250 . S
O170 Mg171 2.028 1_556 S
O170 C172 1.248 . S
Mg171 O170 2.028 1_554 S
Mg171 O176 2.032 . S
Mg171 O178 2.079 . S
C172 O169 1.250 . S
C172 O170 1.248 . S
C173 O174 1.264 . S
C173 O181 1.249 . S
O174 C173 1.264 . S
O175 Mg168 1.986 . S
O175 C179 1.246 . S
O176 Mg171 2.032 . S
O176 C179 1.259 . S
O177 Mg168 2.114 1_556 S
O177 C180 1.252 1_556 S
O178 Mg168 2.251 . S
O178 Mg171 2.079 . S
O178 C180 1.273 . S
C179 O175 1.246 . S
C179 O176 1.259 . S
C180 O177 1.252 1_554 S
C180 O178 1.273 . S
O181 Mg168 2.010 . S
O181 C173 1.249 . S
Mg182 O183 2.028 . S
Mg182 O189 1.986 . S
Mg182 O191 2.114 . S
Mg182 O192 2.251 . S
Mg182 O195 2.010 . S
O183 Mg182 2.028 . S
O183 C186 1.250 . S
O184 Mg185 2.028 . S
O184 C186 1.248 . S
Mg185 O184 2.028 . S
Mg185 O190 2.032 . S
Mg185 O192 2.079 . S
C186 O183 1.250 . S
C186 O184 1.248 . S
C187 O188 1.264 . S
C187 O195 1.249 . S
O188 C187 1.264 . S
O189 Mg182 1.986 . S
O189 C193 1.246 . S
O190 Mg185 2.032 . S
O190 C193 1.259 . S
O191 Mg182 2.114 . S
O191 C194 1.252 . S
O192 Mg182 2.251 . S
O192 Mg185 2.079 . S
O192 C194 1.273 . S
C193 O189 1.246 . S
C193 O190 1.259 . S
C194 O191 1.252 . S
C194 O192 1.273 . S
O195 Mg182 2.010 . S
O195 C187 1.249 . S
Mg196 O197 2.028 . S
Mg196 O203 1.986 . S
Mg196 O205 2.114 . S
Mg196 O206 2.251 . S
Mg196 O209 2.010 . S
O197 Mg196 2.028 . S
O197 C200 1.250 . S
O198 Mg199 2.028 . S
O198 C200 1.248 . S
Mg199 O198 2.028 . S
Mg199 O204 2.032 . S
Mg199 O206 2.079 . S
C200 O197 1.250 . S
C200 O198 1.248 . S
C201 O202 1.264 . S
C201 O209 1.249 . S
O202 C201 1.264 . S
O203 Mg196 1.986 . S
O203 C207 1.246 . S
O204 Mg199 2.032 . S
O204 C207 1.259 . S
O205 Mg196 2.114 . S
O205 C208 1.252 . S
O206 Mg196 2.251 . S
O206 Mg199 2.079 . S
O206 C208 1.273 . S
C207 O203 1.246 . S
C207 O204 1.259 . S
C208 O205 1.252 . S
C208 O206 1.273 . S
O209 Mg196 2.010 . S
O209 C201 1.249 . S
Mg210 O211 2.028 . S
Mg210 O217 1.986 . S
Mg210 O219 2.114 . S
Mg210 O220 2.251 . S
Mg210 O223 2.010 . S
O211 Mg210 2.028 . S
O211 C214 1.250 . S
O212 Mg213 2.028 . S
O212 C214 1.248 . S
Mg213 O212 2.028 . S
Mg213 O218 2.032 . S
Mg213 O220 2.079 . S
C214 O211 1.250 . S
C214 O212 1.248 . S
C215 O216 1.264 . S
C215 O223 1.249 . S
O216 C215 1.264 . S
O217 Mg210 1.986 . S
O217 C221 1.246 . S
O218 Mg213 2.032 . S
O218 C221 1.259 . S
O219 Mg210 2.114 . S
O219 C222 1.252 . S
O220 Mg210 2.251 . S
O220 Mg213 2.079 . S
O220 C222 1.273 . S
C221 O217 1.246 . S
C221 O218 1.259 . S
C222 O219 1.252 . S
C222 O220 1.273 . S
O223 Mg210 2.010 . S
O223 C215 1.249 . S
Mg224 O225 2.028 . S
Mg224 O231 1.986 . S
Mg224 O233 2.114 . S
Mg224 O234 2.251 . S
Mg224 O237 2.010 . S
O225 Mg224 2.028 . S
O225 C228 1.250 . S
O226 Mg227 2.028 . S
O226 C228 1.248 . S
Mg227 O226 2.028 . S
Mg227 O232 2.032 . S
Mg227 O234 2.079 . S
C228 O225 1.250 . S
C228 O226 1.248 . S
C229 O230 1.264 . S
C229 O237 1.249 . S
O230 C229 1.264 . S
O231 Mg224 1.986 . S
O231 C235 1.246 . S
O232 Mg227 2.032 . S
O232 C235 1.259 . S
O233 Mg224 2.114 . S
O233 C236 1.252 . S
O234 Mg224 2.251 . S
O234 Mg227 2.079 . S
O234 C236 1.273 . S
C235 O231 1.246 . S
C235 O232 1.259 . S
C236 O233 1.252 . S
C236 O234 1.273 . S
O237 Mg224 2.010 . S
O237 C229 1.249 . S
Mg238 O239 2.028 . S
Mg238 O245 1.986 . S
Mg238 O247 2.114 . S
Mg238 O248 2.251 . S
Mg238 O251 2.010 . S
O239 Mg238 2.028 . S
O239 C242 1.250 . S
O240 Mg241 2.028 . S
O240 C242 1.248 . S
Mg241 O240 2.028 . S
Mg241 O246 2.032 . S
Mg241 O248 2.079 . S
C242 O239 1.250 . S
C242 O240 1.248 . S
C243 O244 1.264 . S
C243 O251 1.249 . S
O244 C243 1.264 . S
O245 Mg238 1.986 . S
O245 C249 1.246 . S
O246 Mg241 2.032 . S
O246 C249 1.259 . S
O247 Mg238 2.114 . S
O247 C250 1.252 . S
O248 Mg238 2.251 . S
O248 Mg241 2.079 . S
O248 C250 1.273 . S
C249 O245 1.246 . S
C249 O246 1.259 . S
C250 O247 1.252 . S
C250 O248 1.273 . S
O251 Mg238 2.010 . S
O251 C243 1.249 . S
Mg252 O253 2.028 1_554 S
Mg252 O259 1.986 . S
Mg252 O261 2.114 1_554 S
Mg252 O262 2.251 . S
Mg252 O265 2.010 . S
O253 Mg252 2.028 1_556 S
O253 C256 1.250 . S
O254 Mg255 2.028 1_556 S
O254 C256 1.248 . S
Mg255 O254 2.028 1_554 S
Mg255 O260 2.032 . S
Mg255 O262 2.079 . S
C256 O253 1.250 . S
C256 O254 1.248 . S
C257 O258 1.264 . S
C257 O265 1.249 . S
O258 C257 1.264 . S
O259 Mg252 1.986 . S
O259 C263 1.246 . S
O260 Mg255 2.032 . S
O260 C263 1.259 . S
O261 Mg252 2.114 1_556 S
O261 C264 1.252 1_556 S
O262 Mg252 2.251 . S
O262 Mg255 2.079 . S
O262 C264 1.273 . S
C263 O259 1.246 . S
C263 O260 1.259 . S
C264 O261 1.252 1_554 S
C264 O262 1.273 . S
O265 Mg252 2.010 . S
O265 C257 1.249 . S
Mg266 O267 2.028 . S
Mg266 O273 1.986 . S
Mg266 O275 2.114 . S
Mg266 O276 2.251 . S
Mg266 O279 2.010 . S
O267 Mg266 2.028 . S
O267 C270 1.250 . S
O268 Mg269 2.028 . S
O268 C270 1.248 . S
Mg269 O268 2.028 . S
Mg269 O274 2.032 . S
Mg269 O276 2.079 . S
C270 O267 1.250 . S
C270 O268 1.248 . S
C271 O272 1.264 . S
C271 O279 1.249 . S
O272 C271 1.264 . S
O273 Mg266 1.986 . S
O273 C277 1.246 . S
O274 Mg269 2.032 . S
O274 C277 1.259 . S
O275 Mg266 2.114 . S
O275 C278 1.252 . S
O276 Mg266 2.251 . S
O276 Mg269 2.079 . S
O276 C278 1.273 . S
C277 O273 1.246 . S
C277 O274 1.259 . S
C278 O275 1.252 . S
C278 O276 1.273 . S
O279 Mg266 2.010 . S
O279 C271 1.249 . S
Mg280 O281 2.028 . S
Mg280 O287 1.986 . S
Mg280 O289 2.114 . S
Mg280 O290 2.251 . S
Mg280 O293 2.010 . S
O281 Mg280 2.028 . S
O281 C284 1.250 . S
O282 Mg283 2.028 . S
O282 C284 1.248 . S
Mg283 O282 2.028 . S
Mg283 O288 2.032 . S
Mg283 O290 2.079 . S
C284 O281 1.250 . S
C284 O282 1.248 . S
C285 O286 1.264 . S
C285 O293 1.249 . S
O286 C285 1.264 . S
O287 Mg280 1.986 . S
O287 C291 1.246 . S
O288 Mg283 2.032 . S
O288 C291 1.259 . S
O289 Mg280 2.114 . S
O289 C292 1.252 . S
O290 Mg280 2.251 . S
O290 Mg283 2.079 . S
O290 C292 1.273 . S
C291 O287 1.246 . S
C291 O288 1.259 . S
C292 O289 1.252 . S
C292 O290 1.273 . S
O293 Mg280 2.010 . S
O293 C285 1.249 . S
Mg294 O295 2.028 . S
Mg294 O301 1.986 . S
Mg294 O303 2.114 . S
Mg294 O304 2.251 . S
Mg294 O307 2.010 . S
O295 Mg294 2.028 . S
O295 C298 1.250 . S
O296 Mg297 2.028 . S
O296 C298 1.248 . S
Mg297 O296 2.028 . S
Mg297 O302 2.032 . S
Mg297 O304 2.079 . S
C298 O295 1.250 . S
C298 O296 1.248 . S
C299 O300 1.264 . S
C299 O307 1.249 . S
O300 C299 1.264 . S
O301 Mg294 1.986 . S
O301 C305 1.246 . S
O302 Mg297 2.032 . S
O302 C305 1.259 . S
O303 Mg294 2.114 . S
O303 C306 1.252 . S
O304 Mg294 2.251 . S
O304 Mg297 2.079 . S
O304 C306 1.273 . S
C305 O301 1.246 . S
C305 O302 1.259 . S
C306 O303 1.252 . S
C306 O304 1.273 . S
O307 Mg294 2.010 . S
O307 C299 1.249 . S
Mg308 O309 2.028 . S
Mg308 O315 1.986 1_554 S
Mg308 O317 2.114 . S
Mg308 O318 2.251 . S
Mg308 O321 2.010 . S
O309 Mg308 2.028 . S
O309 C312 1.250 . S
O310 Mg311 2.028 . S
O310 C312 1.248 . S
Mg311 O310 2.028 . S
Mg311 O316 2.032 1_554 S
Mg311 O318 2.079 . S
C312 O309 1.250 . S
C312 O310 1.248 . S
C313 O314 1.264 . S
C313 O321 1.249 . S
O314 C313 1.264 . S
O315 Mg308 1.986 1_556 S
O315 C319 1.246 . S
O316 Mg311 2.032 1_556 S
O316 C319 1.259 . S
O317 Mg308 2.114 . S
O317 C320 1.252 . S
O318 Mg308 2.251 . S
O318 Mg311 2.079 . S
O318 C320 1.273 . S
C319 O315 1.246 . S
C319 O316 1.259 . S
C320 O317 1.252 . S
C320 O318 1.273 . S
O321 Mg308 2.010 . S
O321 C313 1.249 . S
Mg322 O323 2.028 . S
Mg322 O329 1.986 . S
Mg322 O331 2.114 . S
Mg322 O332 2.251 . S
Mg322 O335 2.010 . S
O323 Mg322 2.028 . S
O323 C326 1.250 . S
O324 Mg325 2.028 . S
O324 C326 1.248 . S
Mg325 O324 2.028 . S
Mg325 O330 2.032 . S
Mg325 O332 2.079 . S
C326 O323 1.250 . S
C326 O324 1.248 . S
C327 O328 1.264 . S
C327 O335 1.249 . S
O328 C327 1.264 . S
O329 Mg322 1.986 . S
O329 C333 1.246 . S
O330 Mg325 2.032 . S
O330 C333 1.259 . S
O331 Mg322 2.114 . S
O331 C334 1.252 . S
O332 Mg322 2.251 . S
O332 Mg325 2.079 . S
O332 C334 1.273 . S
C333 O329 1.246 . S
C333 O330 1.259 . S
C334 O331 1.252 . S
C334 O332 1.273 . S
O335 Mg322 2.010 . S
O335 C327 1.249 . S
Mg336 O337 2.028 . S
Mg336 O343 1.986 . S
Mg336 O345 2.114 . S
Mg336 O346 2.251 . S
Mg336 O349 2.010 . S
O337 Mg336 2.028 . S
O337 C340 1.250 . S
O338 Mg339 2.028 . S
O338 C340 1.248 . S
Mg339 O338 2.028 . S
Mg339 O344 2.032 . S
Mg339 O346 2.079 . S
C340 O337 1.250 . S
C340 O338 1.248 . S
C341 O342 1.264 . S
C341 O349 1.249 . S
O342 C341 1.264 . S
O343 Mg336 1.986 . S
O343 C347 1.246 . S
O344 Mg339 2.032 . S
O344 C347 1.259 . S
O345 Mg336 2.114 . S
O345 C348 1.252 . S
O346 Mg336 2.251 . S
O346 Mg339 2.079 . S
O346 C348 1.273 . S
C347 O343 1.246 . S
C347 O344 1.259 . S
C348 O345 1.252 . S
C348 O346 1.273 . S
O349 Mg336 2.010 . S
O349 C341 1.249 . S
Mg350 O351 2.028 . S
Mg350 O357 1.986 . S
Mg350 O359 2.114 . S
Mg350 O360 2.251 . S
Mg350 O363 2.010 . S
O351 Mg350 2.028 . S
O351 C354 1.250 . S
O352 Mg353 2.028 . S
O352 C354 1.248 . S
Mg353 O352 2.028 . S
Mg353 O358 2.032 . S
Mg353 O360 2.079 . S
C354 O351 1.250 . S
C354 O352 1.248 . S
C355 O356 1.264 . S
C355 O363 1.249 . S
O356 C355 1.264 . S
O357 Mg350 1.986 . S
O357 C361 1.246 . S
O358 Mg353 2.032 . S
O358 C361 1.259 . S
O359 Mg350 2.114 . S
O359 C362 1.252 . S
O360 Mg350 2.251 . S
O360 Mg353 2.079 . S
O360 C362 1.273 . S
C361 O357 1.246 . S
C361 O358 1.259 . S
C362 O359 1.252 . S
C362 O360 1.273 . S
O363 Mg350 2.010 . S
O363 C355 1.249 . S
Mg364 O365 2.028 . S
Mg364 O371 1.986 1_554 S
Mg364 O373 2.114 . S
Mg364 O374 2.251 . S
Mg364 O377 2.010 . S
O365 Mg364 2.028 . S
O365 C368 1.250 . S
O366 Mg367 2.028 . S
O366 C368 1.248 . S
Mg367 O366 2.028 . S
Mg367 O372 2.032 1_554 S
Mg367 O374 2.079 . S
C368 O365 1.250 . S
C368 O366 1.248 . S
C369 O370 1.264 . S
C369 O377 1.249 . S
O370 C369 1.264 . S
O371 Mg364 1.986 1_556 S
O371 C375 1.246 . S
O372 Mg367 2.032 1_556 S
O372 C375 1.259 . S
O373 Mg364 2.114 . S
O373 C376 1.252 . S
O374 Mg364 2.251 . S
O374 Mg367 2.079 . S
O374 C376 1.273 . S
C375 O371 1.246 . S
C375 O372 1.259 . S
C376 O373 1.252 . S
C376 O374 1.273 . S
O377 Mg364 2.010 . S
O377 C369 1.249 . S
Mg378 O379 2.028 . S
Mg378 O385 1.986 . S
Mg378 O387 2.114 . S
Mg378 O388 2.251 . S
Mg378 O391 2.010 . S
O379 Mg378 2.028 . S
O379 C382 1.250 . S
O380 Mg381 2.028 . S
O380 C382 1.248 . S
Mg381 O380 2.028 . S
Mg381 O386 2.032 . S
Mg381 O388 2.079 . S
C382 O379 1.250 . S
C382 O380 1.248 . S
C383 O384 1.264 . S
C383 O391 1.249 . S
O384 C383 1.264 . S
O385 Mg378 1.986 . S
O385 C389 1.246 . S
O386 Mg381 2.032 . S
O386 C389 1.259 . S
O387 Mg378 2.114 . S
O387 C390 1.252 . S
O388 Mg378 2.251 . S
O388 Mg381 2.079 . S
O388 C390 1.273 . S
C389 O385 1.246 . S
C389 O386 1.259 . S
C390 O387 1.252 . S
C390 O388 1.273 . S
O391 Mg378 2.010 . S
O391 C383 1.249 . S
Mg392 O393 2.028 . S
Mg392 O399 1.986 . S
Mg392 O401 2.114 . S
Mg392 O402 2.251 . S
Mg392 O405 2.010 . S
O393 Mg392 2.028 . S
O393 C396 1.250 . S
O394 Mg395 2.028 . S
O394 C396 1.248 . S
Mg395 O394 2.028 . S
Mg395 O400 2.032 . S
Mg395 O402 2.079 . S
C396 O393 1.250 . S
C396 O394 1.248 . S
C397 O398 1.264 . S
C397 O405 1.249 . S
O398 C397 1.264 . S
O399 Mg392 1.986 . S
O399 C403 1.246 . S
O400 Mg395 2.032 . S
O400 C403 1.259 . S
O401 Mg392 2.114 . S
O401 C404 1.252 . S
O402 Mg392 2.251 . S
O402 Mg395 2.079 . S
O402 C404 1.273 . S
C403 O399 1.246 . S
C403 O400 1.259 . S
C404 O401 1.252 . S
C404 O402 1.273 . S
O405 Mg392 2.010 . S
O405 C397 1.249 . S
Mg406 O407 2.028 . S
Mg406 O413 1.986 . S
Mg406 O415 2.114 . S
Mg406 O416 2.251 . S
Mg406 O419 2.010 . S
O407 Mg406 2.028 . S
O407 C410 1.250 . S
O408 Mg409 2.028 . S
O408 C410 1.248 . S
Mg409 O408 2.028 . S
Mg409 O414 2.032 . S
Mg409 O416 2.079 . S
C410 O407 1.250 . S
C410 O408 1.248 . S
C411 O412 1.264 . S
C411 O419 1.249 . S
O412 C411 1.264 . S
O413 Mg406 1.986 . S
O413 C417 1.246 . S
O414 Mg409 2.032 . S
O414 C417 1.259 . S
O415 Mg406 2.114 . S
O415 C418 1.252 . S
O416 Mg406 2.251 . S
O416 Mg409 2.079 . S
O416 C418 1.273 . S
C417 O413 1.246 . S
C417 O414 1.259 . S
C418 O415 1.252 . S
C418 O416 1.273 . S
O419 Mg406 2.010 . S
O419 C411 1.249 . S
Mg420 O421 2.028 1_554 S
Mg420 O427 1.986 . S
Mg420 O429 2.114 1_554 S
Mg420 O430 2.251 . S
Mg420 O433 2.010 . S
O421 Mg420 2.028 1_556 S
O421 C424 1.250 . S
O422 Mg423 2.028 1_556 S
O422 C424 1.248 . S
Mg423 O422 2.028 1_554 S
Mg423 O428 2.032 . S
Mg423 O430 2.079 . S
C424 O421 1.250 . S
C424 O422 1.248 . S
C425 O426 1.264 . S
C425 O433 1.249 . S
O426 C425 1.264 . S
O427 Mg420 1.986 . S
O427 C431 1.246 . S
O428 Mg423 2.032 . S
O428 C431 1.259 . S
O429 Mg420 2.114 1_556 S
O429 C432 1.252 1_556 S
O430 Mg420 2.251 . S
O430 Mg423 2.079 . S
O430 C432 1.273 . S
C431 O427 1.246 . S
C431 O428 1.259 . S
C432 O429 1.252 1_554 S
C432 O430 1.273 . S
O433 Mg420 2.010 . S
O433 C425 1.249 . S
Mg434 O435 2.028 . S
Mg434 O441 1.986 . S
Mg434 O443 2.114 . S
Mg434 O444 2.251 . S
Mg434 O447 2.010 . S
O435 Mg434 2.028 . S
O435 C438 1.250 . S
O436 Mg437 2.028 . S
O436 C438 1.248 . S
Mg437 O436 2.028 . S
Mg437 O442 2.032 . S
Mg437 O444 2.079 . S
C438 O435 1.250 . S
C438 O436 1.248 . S
C439 O440 1.264 . S
C439 O447 1.249 . S
O440 C439 1.264 . S
O441 Mg434 1.986 . S
O441 C445 1.246 . S
O442 Mg437 2.032 . S
O442 C445 1.259 . S
O443 Mg434 2.114 . S
O443 C446 1.252 . S
O444 Mg434 2.251 . S
O444 Mg437 2.079 . S
O444 C446 1.273 . S
C445 O441 1.246 . S
C445 O442 1.259 . S
C446 O443 1.252 . S
C446 O444 1.273 . S
O447 Mg434 2.010 . S
O447 C439 1.249 . S
H448 C454 0.930 . S
H449 C457 0.930 . S
H450 C458 0.930 . S
H451 C459 0.930 1_554 S
H452 C462 0.930 . S
H453 C463 0.930 . S
C454 H448 0.930 . S
C454 C455 1.355 . S
C454 C456 1.415 . S
C455 C454 1.355 . S
C455 C457 1.419 . S
C456 C454 1.415 . S
C456 C461 1.425 . S
C456 C463 1.409 . S
C457 H449 0.930 . S
C457 C455 1.419 . S
C457 C458 1.362 . S
C458 H450 0.930 . S
C458 C457 1.362 . S
C458 C461 1.409 . S
C459 H451 0.930 1_556 S
C459 C460 1.355 . S
C459 C461 1.415 . S
C460 C459 1.355 . S
C460 C462 1.419 . S
C461 C456 1.425 . S
C461 C458 1.409 . S
C461 C459 1.415 . S
C462 H452 0.930 . S
C462 C460 1.419 . S
C462 C463 1.362 . S
C463 H453 0.930 . S
C463 C456 1.409 . S
C463 C462 1.362 . S
H464 C470 0.930 . S
H465 C473 0.930 . S
H466 C474 0.930 . S
H467 C475 0.930 . S
H468 C478 0.930 . S
H469 C479 0.930 . S
C470 H464 0.930 . S
C470 C471 1.355 . S
C470 C472 1.415 . S
C471 C470 1.355 . S
C471 C473 1.419 . S
C472 C470 1.415 . S
C472 C477 1.425 . S
C472 C479 1.409 . S
C473 H465 0.930 . S
C473 C471 1.419 . S
C473 C474 1.362 . S
C474 H466 0.930 . S
C474 C473 1.362 . S
C474 C477 1.409 . S
C475 H467 0.930 . S
C475 C476 1.355 . S
C475 C477 1.415 . S
C476 C475 1.355 . S
C476 C478 1.419 . S
C477 C472 1.425 . S
C477 C474 1.409 . S
C477 C475 1.415 . S
C478 H468 0.930 . S
C478 C476 1.419 . S
C478 C479 1.362 . S
C479 H469 0.930 . S
C479 C472 1.409 . S
C479 C478 1.362 . S
H480 C486 0.930 . S
H481 C489 0.930 . S
H482 C490 0.930 . S
H483 C491 0.930 . S
H484 C494 0.930 . S
H485 C495 0.930 . S
C486 H480 0.930 . S
C486 C487 1.355 . S
C486 C488 1.415 . S
C487 C486 1.355 . S
C487 C489 1.419 . S
C488 C486 1.415 . S
C488 C493 1.425 . S
C488 C495 1.409 . S
C489 H481 0.930 . S
C489 C487 1.419 . S
C489 C490 1.362 . S
C490 H482 0.930 . S
C490 C489 1.362 . S
C490 C493 1.409 . S
C491 H483 0.930 . S
C491 C492 1.355 . S
C491 C493 1.415 . S
C492 C491 1.355 . S
C492 C494 1.419 . S
C493 C488 1.425 . S
C493 C490 1.409 . S
C493 C491 1.415 . S
C494 H484 0.930 . S
C494 C492 1.419 . S
C494 C495 1.362 . S
C495 H485 0.930 . S
C495 C488 1.409 . S
C495 C494 1.362 . S
H496 C502 0.930 . S
H497 C505 0.930 . S
H498 C506 0.930 . S
H499 C507 0.930 . S
H500 C510 0.930 . S
H501 C511 0.930 . S
C502 H496 0.930 . S
C502 C503 1.355 . S
C502 C504 1.415 . S
C503 C502 1.355 . S
C503 C505 1.419 . S
C504 C502 1.415 . S
C504 C509 1.425 . S
C504 C511 1.409 . S
C505 H497 0.930 . S
C505 C503 1.419 . S
C505 C506 1.362 . S
C506 H498 0.930 . S
C506 C505 1.362 . S
C506 C509 1.409 . S
C507 H499 0.930 . S
C507 C508 1.355 . S
C507 C509 1.415 . S
C508 C507 1.355 . S
C508 C510 1.419 . S
C509 C504 1.425 . S
C509 C506 1.409 . S
C509 C507 1.415 . S
C510 H500 0.930 . S
C510 C508 1.419 . S
C510 C511 1.362 . S
C511 H501 0.930 . S
C511 C504 1.409 . S
C511 C510 1.362 . S
H512 C518 0.930 . S
H513 C521 0.930 . S
H514 C522 0.930 . S
H515 C523 0.930 . S
H516 C526 0.930 . S
H517 C527 0.930 . S
C518 H512 0.930 . S
C518 C519 1.355 . S
C518 C520 1.415 . S
C519 C518 1.355 . S
C519 C521 1.419 . S
C520 C518 1.415 . S
C520 C525 1.425 . S
C520 C527 1.409 . S
C521 H513 0.930 . S
C521 C519 1.419 . S
C521 C522 1.362 . S
C522 H514 0.930 . S
C522 C521 1.362 . S
C522 C525 1.409 . S
C523 H515 0.930 . S
C523 C524 1.355 . S
C523 C525 1.415 . S
C524 C523 1.355 . S
C524 C526 1.419 . S
C525 C520 1.425 . S
C525 C522 1.409 . S
C525 C523 1.415 . S
C526 H516 0.930 . S
C526 C524 1.419 . S
C526 C527 1.362 . S
C527 H517 0.930 . S
C527 C520 1.409 . S
C527 C526 1.362 . S
H528 C534 0.930 . S
H529 C537 0.930 . S
H530 C538 0.930 1_554 S
H531 C539 0.930 1_554 S
H532 C542 0.930 . S
H533 C543 0.930 . S
C534 H528 0.930 . S
C534 C535 1.355 . S
C534 C536 1.415 . S
C535 C534 1.355 . S
C535 C537 1.419 . S
C536 C534 1.415 . S
C536 C541 1.425 . S
C536 C543 1.409 . S
C537 H529 0.930 . S
C537 C535 1.419 . S
C537 C538 1.362 . S
C538 H530 0.930 1_556 S
C538 C537 1.362 . S
C538 C541 1.409 . S
C539 H531 0.930 1_556 S
C539 C540 1.355 . S
C539 C541 1.415 . S
C540 C539 1.355 . S
C540 C542 1.419 . S
C541 C536 1.425 . S
C541 C538 1.409 . S
C541 C539 1.415 . S
C542 H532 0.930 . S
C542 C540 1.419 . S
C542 C543 1.362 . S
C543 H533 0.930 . S
C543 C536 1.409 . S
C543 C542 1.362 . S
H544 C550 0.930 . S
H545 C553 0.930 . S
H546 C554 0.930 . S
H547 C555 0.930 . S
H548 C558 0.930 . S
H549 C559 0.930 . S
C550 H544 0.930 . S
C550 C551 1.355 . S
C550 C552 1.415 . S
C551 C550 1.355 . S
C551 C553 1.419 . S
C552 C550 1.415 . S
C552 C557 1.425 . S
C552 C559 1.409 . S
C553 H545 0.930 . S
C553 C551 1.419 . S
C553 C554 1.362 . S
C554 H546 0.930 . S
C554 C553 1.362 . S
C554 C557 1.409 . S
C555 H547 0.930 . S
C555 C556 1.355 . S
C555 C557 1.415 . S
C556 C555 1.355 . S
C556 C558 1.419 . S
C557 C552 1.425 . S
C557 C554 1.409 . S
C557 C555 1.415 . S
C558 H548 0.930 . S
C558 C556 1.419 . S
C558 C559 1.362 . S
C559 H549 0.930 . S
C559 C552 1.409 . S
C559 C558 1.362 . S
H560 C566 0.930 . S
H561 C569 0.930 . S
H562 C570 0.930 . S
H563 C571 0.930 . S
H564 C574 0.930 . S
H565 C575 0.930 . S
C566 H560 0.930 . S
C566 C567 1.355 . S
C566 C568 1.415 . S
C567 C566 1.355 . S
C567 C569 1.419 . S
C568 C566 1.415 . S
C568 C573 1.425 . S
C568 C575 1.409 . S
C569 H561 0.930 . S
C569 C567 1.419 . S
C569 C570 1.362 . S
C570 H562 0.930 . S
C570 C569 1.362 . S
C570 C573 1.409 . S
C571 H563 0.930 . S
C571 C572 1.355 . S
C571 C573 1.415 . S
C572 C571 1.355 . S
C572 C574 1.419 . S
C573 C568 1.425 . S
C573 C570 1.409 . S
C573 C571 1.415 . S
C574 H564 0.930 . S
C574 C572 1.419 . S
C574 C575 1.362 . S
C575 H565 0.930 . S
C575 C568 1.409 . S
C575 C574 1.362 . S
H576 C582 0.930 . S
H577 C585 0.930 . S
H578 C586 0.930 . S
H579 C587 0.930 . S
H580 C590 0.930 . S
H581 C591 0.930 . S
C582 H576 0.930 . S
C582 C583 1.355 . S
C582 C584 1.415 . S
C583 C582 1.355 . S
C583 C585 1.419 . S
C584 C582 1.415 . S
C584 C589 1.425 . S
C584 C591 1.409 . S
C585 H577 0.930 . S
C585 C583 1.419 . S
C585 C586 1.362 . S
C586 H578 0.930 . S
C586 C585 1.362 . S
C586 C589 1.409 . S
C587 H579 0.930 . S
C587 C588 1.355 . S
C587 C589 1.415 . S
C588 C587 1.355 . S
C588 C590 1.419 . S
C589 C584 1.425 . S
C589 C586 1.409 . S
C589 C587 1.415 . S
C590 H580 0.930 . S
C590 C588 1.419 . S
C590 C591 1.362 . S
C591 H581 0.930 . S
C591 C584 1.409 . S
C591 C590 1.362 . S
H592 C598 0.930 . S
H593 C601 0.930 . S
H594 C602 0.930 . S
H595 C603 0.930 . S
H596 C606 0.930 . S
H597 C607 0.930 . S
C598 H592 0.930 . S
C598 C599 1.355 . S
C598 C600 1.415 . S
C599 C598 1.355 . S
C599 C601 1.419 . S
C600 C598 1.415 . S
C600 C605 1.425 . S
C600 C607 1.409 . S
C601 H593 0.930 . S
C601 C599 1.419 . S
C601 C602 1.362 . S
C602 H594 0.930 . S
C602 C601 1.362 . S
C602 C605 1.409 . S
C603 H595 0.930 . S
C603 C604 1.355 . S
C603 C605 1.415 . S
C604 C603 1.355 . S
C604 C606 1.419 . S
C605 C600 1.425 . S
C605 C602 1.409 . S
C605 C603 1.415 . S
C606 H596 0.930 . S
C606 C604 1.419 . S
C606 C607 1.362 . S
C607 H597 0.930 . S
C607 C600 1.409 . S
C607 C606 1.362 . S
H608 C614 0.930 . S
H609 C617 0.930 . S
H610 C618 0.930 . S
H611 C619 0.930 . S
H612 C622 0.930 . S
H613 C623 0.930 . S
C614 H608 0.930 . S
C614 C615 1.355 . S
C614 C616 1.415 . S
C615 C614 1.355 . S
C615 C617 1.419 . S
C616 C614 1.415 . S
C616 C621 1.425 . S
C616 C623 1.409 1_556 S
C617 H609 0.930 . S
C617 C615 1.419 . S
C617 C618 1.362 . S
C618 H610 0.930 . S
C618 C617 1.362 . S
C618 C621 1.409 . S
C619 H611 0.930 . S
C619 C620 1.355 . S
C619 C621 1.415 . S
C620 C619 1.355 . S
C620 C622 1.419 1_556 S
C621 C616 1.425 . S
C621 C618 1.409 . S
C621 C619 1.415 . S
C622 H612 0.930 . S
C622 C620 1.419 1_554 S
C622 C623 1.362 . S
C623 H613 0.930 . S
C623 C616 1.409 1_554 S
C623 C622 1.362 . S
H624 C630 0.930 . S
H625 C633 0.930 . S
H626 C634 0.930 . S
H627 C635 0.930 . S
H628 C638 0.930 . S
H629 C639 0.930 . S
C630 H624 0.930 . S
C630 C631 1.355 . S
C630 C632 1.415 . S
C631 C630 1.355 . S
C631 C633 1.419 . S
C632 C630 1.415 . S
C632 C637 1.425 . S
C632 C639 1.409 . S
C633 H625 0.930 . S
C633 C631 1.419 . S
C633 C634 1.362 . S
C634 H626 0.930 . S
C634 C633 1.362 . S
C634 C637 1.409 . S
C635 H627 0.930 . S
C635 C636 1.355 . S
C635 C637 1.415 . S
C636 C635 1.355 . S
C636 C638 1.419 . S
C637 C632 1.425 . S
C637 C634 1.409 . S
C637 C635 1.415 . S
C638 H628 0.930 . S
C638 C636 1.419 . S
C638 C639 1.362 . S
C639 H629 0.930 . S
C639 C632 1.409 . S
C639 C638 1.362 . S
H640 C646 0.930 . S
H641 C649 0.930 . S
H642 C650 0.930 . S
H643 C651 0.930 . S
H644 C654 0.930 . S
H645 C655 0.930 . S
C646 H640 0.930 . S
C646 C647 1.355 . S
C646 C648 1.415 . S
C647 C646 1.355 . S
C647 C649 1.419 . S
C648 C646 1.415 . S
C648 C653 1.425 . S
C648 C655 1.409 . S
C649 H641 0.930 . S
C649 C647 1.419 . S
C649 C650 1.362 . S
C650 H642 0.930 . S
C650 C649 1.362 . S
C650 C653 1.409 . S
C651 H643 0.930 . S
C651 C652 1.355 . S
C651 C653 1.415 . S
C652 C651 1.355 . S
C652 C654 1.419 . S
C653 C648 1.425 . S
C653 C650 1.409 . S
C653 C651 1.415 . S
C654 H644 0.930 . S
C654 C652 1.419 . S
C654 C655 1.362 . S
C655 H645 0.930 . S
C655 C648 1.409 . S
C655 C654 1.362 . S
H656 C662 0.930 . S
H657 C665 0.930 . S
H658 C666 0.930 . S
H659 C667 0.930 . S
H660 C670 0.930 . S
H661 C671 0.930 . S
C662 H656 0.930 . S
C662 C663 1.355 . S
C662 C664 1.415 . S
C663 C662 1.355 . S
C663 C665 1.419 . S
C664 C662 1.415 . S
C664 C669 1.425 . S
C664 C671 1.409 . S
C665 H657 0.930 . S
C665 C663 1.419 . S
C665 C666 1.362 . S
C666 H658 0.930 . S
C666 C665 1.362 . S
C666 C669 1.409 . S
C667 H659 0.930 . S
C667 C668 1.355 . S
C667 C669 1.415 . S
C668 C667 1.355 . S
C668 C670 1.419 . S
C669 C664 1.425 . S
C669 C666 1.409 . S
C669 C667 1.415 . S
C670 H660 0.930 . S
C670 C668 1.419 . S
C670 C671 1.362 . S
C671 H661 0.930 . S
C671 C664 1.409 . S
C671 C670 1.362 . S
H672 C678 0.930 . S
H673 C681 0.930 . S
H674 C682 0.930 . S
H675 C683 0.930 . S
H676 C686 0.930 . S
H677 C687 0.930 . S
C678 H672 0.930 . S
C678 C679 1.355 . S
C678 C680 1.415 . S
C679 C678 1.355 . S
C679 C681 1.419 . S
C680 C678 1.415 . S
C680 C685 1.425 . S
C680 C687 1.409 . S
C681 H673 0.930 . S
C681 C679 1.419 . S
C681 C682 1.362 . S
C682 H674 0.930 . S
C682 C681 1.362 . S
C682 C685 1.409 . S
C683 H675 0.930 . S
C683 C684 1.355 . S
C683 C685 1.415 . S
C684 C683 1.355 . S
C684 C686 1.419 . S
C685 C680 1.425 . S
C685 C682 1.409 . S
C685 C683 1.415 . S
C686 H676 0.930 . S
C686 C684 1.419 . S
C686 C687 1.362 . S
C687 H677 0.930 . S
C687 C680 1.409 . S
C687 C686 1.362 . S
H688 C694 0.930 . S
H689 C697 0.930 . S
H690 C698 0.930 . S
H691 C699 0.930 . S
H692 C702 0.930 . S
H693 C703 0.930 . S
C694 H688 0.930 . S
C694 C695 1.355 . S
C694 C696 1.415 . S
C695 C694 1.355 . S
C695 C697 1.419 . S
C696 C694 1.415 . S
C696 C701 1.425 . S
C696 C703 1.409 . S
C697 H689 0.930 . S
C697 C695 1.419 . S
C697 C698 1.362 . S
C698 H690 0.930 . S
C698 C697 1.362 . S
C698 C701 1.409 . S
C699 H691 0.930 . S
C699 C700 1.355 . S
C699 C701 1.415 . S
C700 C699 1.355 . S
C700 C702 1.419 1_556 S
C701 C696 1.425 . S
C701 C698 1.409 . S
C701 C699 1.415 . S
C702 H692 0.930 . S
C702 C700 1.419 1_554 S
C702 C703 1.362 1_554 S
C703 H693 0.930 . S
C703 C696 1.409 . S
C703 C702 1.362 1_556 S
H704 C710 0.930 . S
H705 C713 0.930 . S
H706 C714 0.930 . S
H707 C715 0.930 . S
H708 C718 0.930 . S
H709 C719 0.930 . S
C710 H704 0.930 . S
C710 C711 1.355 . S
C710 C712 1.415 . S
C711 C710 1.355 . S
C711 C713 1.419 . S
C712 C710 1.415 . S
C712 C717 1.425 . S
C712 C719 1.409 . S
C713 H705 0.930 . S
C713 C711 1.419 . S
C713 C714 1.362 . S
C714 H706 0.930 . S
C714 C713 1.362 . S
C714 C717 1.409 . S
C715 H707 0.930 . S
C715 C716 1.355 . S
C715 C717 1.415 . S
C716 C715 1.355 . S
C716 C718 1.419 . S
C717 C712 1.425 . S
C717 C714 1.409 . S
C717 C715 1.415 . S
C718 H708 0.930 . S
C718 C716 1.419 . S
C718 C719 1.362 . S
C719 H709 0.930 . S
C719 C712 1.409 . S
C719 C718 1.362 . S
H720 C726 0.930 . S
H721 C729 0.934 . S
H722 C730 0.930 . S
H723 C731 0.930 . S
H724 C734 0.934 . S
H725 C735 0.930 . S
C726 H720 0.930 . S
C726 C727 1.355 . S
C726 C728 1.415 . S
C727 C726 1.355 . S
C727 C729 1.419 . S
C728 C726 1.415 . S
C728 C733 1.425 1_565 S
C728 C735 1.409 1_554 S
C729 H721 0.934 . S
C729 C727 1.419 . S
C729 C730 1.362 1_565 S
C730 H722 0.930 . S
C730 C729 1.362 1_545 S
C730 C733 1.409 . S
C731 H723 0.930 . S
C731 C732 1.355 1_554 S
C731 C733 1.415 . S
C732 C731 1.355 1_556 S
C732 C734 1.419 . S
C733 C728 1.425 1_545 S
C733 C730 1.409 . S
C733 C731 1.415 . S
C734 H724 0.934 . S
C734 C732 1.419 . S
C734 C735 1.362 1_545 S
C735 H725 0.930 . S
C735 C728 1.409 1_556 S
C735 C734 1.362 1_565 S
H736 C742 0.930 . S
H737 C745 0.930 . S
H738 C746 0.930 . S
H739 C747 0.930 . S
H740 C750 0.930 . S
H741 C751 0.930 . S
C742 H736 0.930 . S
C742 C743 1.355 . S
C742 C744 1.415 . S
C743 C742 1.355 . S
C743 C745 1.419 . S
C744 C742 1.415 . S
C744 C749 1.425 . S
C744 C751 1.409 . S
C745 H737 0.930 . S
C745 C743 1.419 . S
C745 C746 1.362 . S
C746 H738 0.930 . S
C746 C745 1.362 . S
C746 C749 1.409 . S
C747 H739 0.930 . S
C747 C748 1.355 . S
C747 C749 1.415 . S
C748 C747 1.355 . S
C748 C750 1.419 . S
C749 C744 1.425 . S
C749 C746 1.409 . S
C749 C747 1.415 . S
C750 H740 0.930 . S
C750 C748 1.419 . S
C750 C751 1.362 . S
C751 H741 0.930 . S
C751 C744 1.409 . S
C751 C750 1.362 . S
H752 C758 0.930 . S
H753 C761 0.930 . S
H754 C762 0.930 . S
H755 C763 0.930 . S
H756 C766 0.930 . S
H757 C767 0.930 . S
C758 H752 0.930 . S
C758 C759 1.355 . S
C758 C760 1.415 . S
C759 C758 1.355 . S
C759 C761 1.419 . S
C760 C758 1.415 . S
C760 C765 1.425 1_545 S
C760 C767 1.409 . S
C761 H753 0.930 . S
C761 C759 1.419 . S
C761 C762 1.362 1_545 S
C762 H754 0.930 . S
C762 C761 1.362 1_565 S
C762 C765 1.409 . S
C763 H755 0.930 . S
C763 C764 1.355 . S
C763 C765 1.415 . S
C764 C763 1.355 . S
C764 C766 1.419 . S
C765 C760 1.425 1_565 S
C765 C762 1.409 . S
C765 C763 1.415 . S
C766 H756 0.930 . S
C766 C764 1.419 . S
C766 C767 1.362 1_565 S
C767 H757 0.930 . S
C767 C760 1.409 . S
C767 C766 1.362 1_545 S
H768 C774 0.930 . S
H769 C777 0.930 . S
H770 C778 0.930 . S
H771 C779 0.930 . S
H772 C782 0.930 . S
H773 C783 0.930 . S
C774 H768 0.930 . S
C774 C775 1.355 . S
C774 C776 1.415 . S
C775 C774 1.355 . S
C775 C777 1.419 . S
C776 C774 1.415 . S
C776 C781 1.425 . S
C776 C783 1.409 . S
C777 H769 0.930 . S
C777 C775 1.419 . S
C777 C778 1.362 . S
C778 H770 0.930 . S
C778 C777 1.362 . S
C778 C781 1.409 . S
C779 H771 0.930 . S
C779 C780 1.355 . S
C779 C781 1.415 . S
C780 C779 1.355 . S
C780 C782 1.419 . S
C781 C776 1.425 . S
C781 C778 1.409 . S
C781 C779 1.415 . S
C782 H772 0.930 . S
C782 C780 1.419 . S
C782 C783 1.362 . S
C783 H773 0.930 . S
C783 C776 1.409 . S
C783 C782 1.362 . S
H784 C790 0.930 . S
H785 C793 0.930 . S
H786 C794 0.930 . S
H787 C795 0.930 . S
H788 C798 0.930 . S
H789 C799 0.930 . S
C790 H784 0.930 . S
C790 C791 1.355 . S
C790 C792 1.415 1_546 S
C791 C790 1.355 . S
C791 C793 1.419 . S
C792 C790 1.415 1_564 S
C792 C797 1.425 1_565 S
C792 C799 1.409 . S
C793 H785 0.930 . S
C793 C791 1.419 . S
C793 C794 1.362 1_556 S
C794 H786 0.930 . S
C794 C793 1.362 1_554 S
C794 C797 1.409 . S
C795 H787 0.930 . S
C795 C796 1.355 . S
C795 C797 1.415 1_565 S
C796 C795 1.355 . S
C796 C798 1.419 . S
C797 C792 1.425 1_545 S
C797 C794 1.409 . S
C797 C795 1.415 1_545 S
C798 H788 0.930 . S
C798 C796 1.419 . S
C798 C799 1.362 . S
C799 H789 0.930 . S
C799 C792 1.409 . S
C799 C798 1.362 . S
H800 C806 0.930 . S
H801 C809 0.930 . S
H802 C810 0.930 . S
H803 C811 0.930 . S
H804 C814 0.930 . S
H805 C815 0.930 . S
C806 H800 0.930 . S
C806 C807 1.355 . S
C806 C808 1.415 . S
C807 C806 1.355 . S
C807 C809 1.419 . S
C808 C806 1.415 . S
C808 C813 1.425 . S
C808 C815 1.409 . S
C809 H801 0.930 . S
C809 C807 1.419 . S
C809 C810 1.362 . S
C810 H802 0.930 . S
C810 C809 1.362 . S
C810 C813 1.409 . S
C811 H803 0.930 . S
C811 C812 1.355 . S
C811 C813 1.415 . S
C812 C811 1.355 . S
C812 C814 1.419 . S
C813 C808 1.425 . S
C813 C810 1.409 . S
C813 C811 1.415 . S
C814 H804 0.930 . S
C814 C812 1.419 . S
C814 C815 1.362 . S
C815 H805 0.930 . S
C815 C808 1.409 . S
C815 C814 1.362 . S
H816 C822 0.930 . S
H817 C825 0.930 . S
H818 C826 0.930 . S
H819 C827 0.930 . S
H820 C830 0.930 . S
H821 C831 0.930 . S
C822 H816 0.930 . S
C822 C823 1.355 . S
C822 C824 1.415 . S
C823 C822 1.355 . S
C823 C825 1.419 . S
C824 C822 1.415 . S
C824 C829 1.425 1_545 S
C824 C831 1.409 1_545 S
C825 H817 0.930 . S
C825 C823 1.419 . S
C825 C826 1.362 . S
C826 H818 0.930 . S
C826 C825 1.362 . S
C826 C829 1.409 1_545 S
C827 H819 0.930 . S
C827 C828 1.355 . S
C827 C829 1.415 . S
C828 C827 1.355 . S
C828 C830 1.419 . S
C829 C824 1.425 1_565 S
C829 C826 1.409 1_565 S
C829 C827 1.415 . S
C830 H820 0.930 . S
C830 C828 1.419 . S
C830 C831 1.362 . S
C831 H821 0.930 . S
C831 C824 1.409 1_565 S
C831 C830 1.362 . S
H832 C838 0.930 . S
H833 C841 0.930 . S
H834 C842 0.930 . S
H835 C843 0.930 . S
H836 C846 0.930 . S
H837 C847 0.930 . S
C838 H832 0.930 . S
C838 C839 1.355 . S
C838 C840 1.415 . S
C839 C838 1.355 . S
C839 C841 1.419 . S
C840 C838 1.415 . S
C840 C845 1.425 . S
C840 C847 1.409 . S
C841 H833 0.930 . S
C841 C839 1.419 . S
C841 C842 1.362 . S
C842 H834 0.930 . S
C842 C841 1.362 . S
C842 C845 1.409 . S
C843 H835 0.930 . S
C843 C844 1.355 . S
C843 C845 1.415 . S
C844 C843 1.355 . S
C844 C846 1.419 . S
C845 C840 1.425 . S
C845 C842 1.409 . S
C845 C843 1.415 . S
C846 H836 0.930 . S
C846 C844 1.419 . S
C846 C847 1.362 . S
C847 H837 0.930 . S
C847 C840 1.409 . S
C847 C846 1.362 . S
H848 C854 0.930 . S
H849 C857 0.930 . S
H850 C858 0.930 . S
H851 C859 0.930 . S
H852 C862 0.930 . S
H853 C863 0.930 . S
C854 H848 0.930 . S
C854 C855 1.355 . S
C854 C856 1.415 . S
C855 C854 1.355 . S
C855 C857 1.419 . S
C856 C854 1.415 . S
C856 C861 1.425 . S
C856 C863 1.409 . S
C857 H849 0.930 . S
C857 C855 1.419 . S
C857 C858 1.362 . S
C858 H850 0.930 . S
C858 C857 1.362 . S
C858 C861 1.409 . S
C859 H851 0.930 . S
C859 C860 1.355 . S
C859 C861 1.415 . S
C860 C859 1.355 . S
C860 C862 1.419 . S
C861 C856 1.425 . S
C861 C858 1.409 . S
C861 C859 1.415 . S
C862 H852 0.930 . S
C862 C860 1.419 . S
C862 C863 1.362 . S
C863 H853 0.930 . S
C863 C856 1.409 . S
C863 C862 1.362 . S
H864 C870 0.930 . S
H865 C873 0.930 . S
H866 C874 0.930 . S
H867 C875 0.930 . S
H868 C878 0.930 . S
H869 C879 0.930 . S
C870 H864 0.930 . S
C870 C871 1.355 . S
C870 C872 1.415 . S
C871 C870 1.355 . S
C871 C873 1.419 . S
C872 C870 1.415 . S
C872 C877 1.425 . S
C872 C879 1.409 . S
C873 H865 0.930 . S
C873 C871 1.419 . S
C873 C874 1.362 . S
C874 H866 0.930 . S
C874 C873 1.362 . S
C874 C877 1.409 . S
C875 H867 0.930 . S
C875 C876 1.355 . S
C875 C877 1.415 . S
C876 C875 1.355 . S
C876 C878 1.419 . S
C877 C872 1.425 . S
C877 C874 1.409 . S
C877 C875 1.415 . S
C878 H868 0.930 . S
C878 C876 1.419 . S
C878 C879 1.362 . S
C879 H869 0.930 . S
C879 C872 1.409 . S
C879 C878 1.362 . S
H880 C886 0.930 . S
H881 C889 0.930 . S
H882 C890 0.930 . S
H883 C891 0.930 . S
H884 C894 0.930 . S
H885 C895 0.930 . S
C886 H880 0.930 . S
C886 C887 1.355 . S
C886 C888 1.415 . S
C887 C886 1.355 . S
C887 C889 1.419 . S
C888 C886 1.415 . S
C888 C893 1.425 . S
C888 C895 1.409 1_554 S
C889 H881 0.930 . S
C889 C887 1.419 . S
C889 C890 1.362 . S
C890 H882 0.930 . S
C890 C889 1.362 . S
C890 C893 1.409 . S
C891 H883 0.930 . S
C891 C892 1.355 1_554 S
C891 C893 1.415 . S
C892 C891 1.355 1_556 S
C892 C894 1.419 . S
C893 C888 1.425 . S
C893 C890 1.409 . S
C893 C891 1.415 . S
C894 H884 0.930 . S
C894 C892 1.419 . S
C894 C895 1.362 . S
C895 H885 0.930 . S
C895 C888 1.409 1_556 S
C895 C894 1.362 . S
H896 C902 0.930 . S
H897 C905 0.930 . S
H898 C906 0.930 . S
H899 C907 0.930 . S
H900 C910 0.930 . S
H901 C911 0.930 . S
C902 H896 0.930 . S
C902 C903 1.355 . S
C902 C904 1.415 . S
C903 C902 1.355 . S
C903 C905 1.419 . S
C904 C902 1.415 . S
C904 C909 1.425 . S
C904 C911 1.409 . S
C905 H897 0.930 . S
C905 C903 1.419 . S
C905 C906 1.362 . S
C906 H898 0.930 . S
C906 C905 1.362 . S
C906 C909 1.409 . S
C907 H899 0.930 . S
C907 C908 1.355 . S
C907 C909 1.415 . S
C908 C907 1.355 . S
C908 C910 1.419 . S
C909 C904 1.425 . S
C909 C906 1.409 . S
C909 C907 1.415 . S
C910 H900 0.930 . S
C910 C908 1.419 . S
C910 C911 1.362 . S
C911 H901 0.930 . S
C911 C904 1.409 . S
C911 C910 1.362 . S
H912 C918 0.930 . S
H913 C921 0.930 . S
H914 C922 0.930 . S
H915 C923 0.930 . S
H916 C926 0.930 . S
H917 C927 0.930 . S
C918 H912 0.930 . S
C918 C919 1.355 . S
C918 C920 1.415 . S
C919 C918 1.355 . S
C919 C921 1.419 . S
C920 C918 1.415 . S
C920 C925 1.425 . S
C920 C927 1.409 . S
C921 H913 0.930 . S
C921 C919 1.419 . S
C921 C922 1.362 . S
C922 H914 0.930 . S
C922 C921 1.362 . S
C922 C925 1.409 . S
C923 H915 0.930 . S
C923 C924 1.355 . S
C923 C925 1.415 . S
C924 C923 1.355 . S
C924 C926 1.419 . S
C925 C920 1.425 . S
C925 C922 1.409 . S
C925 C923 1.415 . S
C926 H916 0.930 . S
C926 C924 1.419 . S
C926 C927 1.362 . S
C927 H917 0.930 . S
C927 C920 1.409 . S
C927 C926 1.362 . S
H928 C934 0.930 . S
H929 C937 0.930 . S
H930 C938 0.930 . S
H931 C939 0.930 . S
H932 C942 0.930 . S
H933 C943 0.930 . S
C934 H928 0.930 . S
C934 C935 1.355 . S
C934 C936 1.415 . S
C935 C934 1.355 . S
C935 C937 1.419 . S
C936 C934 1.415 . S
C936 C941 1.425 . S
C936 C943 1.409 . S
C937 H929 0.930 . S
C937 C935 1.419 . S
C937 C938 1.362 . S
C938 H930 0.930 . S
C938 C937 1.362 . S
C938 C941 1.409 . S
C939 H931 0.930 . S
C939 C940 1.355 . S
C939 C941 1.415 . S
C940 C939 1.355 . S
C940 C942 1.419 . S
C941 C936 1.425 . S
C941 C938 1.409 . S
C941 C939 1.415 . S
C942 H932 0.930 . S
C942 C940 1.419 . S
C942 C943 1.362 . S
C943 H933 0.930 . S
C943 C936 1.409 . S
C943 C942 1.362 . S
H944 C950 0.930 . S
H945 C953 0.930 . S
H946 C954 0.930 1_556 S
H947 C955 0.930 . S
H948 C958 0.930 . S
H949 C959 0.930 . S
C950 H944 0.930 . S
C950 C951 1.355 . S
C950 C952 1.415 . S
C951 C950 1.355 . S
C951 C953 1.419 . S
C952 C950 1.415 . S
C952 C957 1.425 . S
C952 C959 1.409 . S
C953 H945 0.930 . S
C953 C951 1.419 . S
C953 C954 1.362 . S
C954 H946 0.930 1_554 S
C954 C953 1.362 . S
C954 C957 1.409 . S
C955 H947 0.930 . S
C955 C956 1.355 . S
C955 C957 1.415 1_556 S
C956 C955 1.355 . S
C956 C958 1.419 1_556 S
C957 C952 1.425 . S
C957 C954 1.409 . S
C957 C955 1.415 1_554 S
C958 H948 0.930 . S
C958 C956 1.419 1_554 S
C958 C959 1.362 . S
C959 H949 0.930 . S
C959 C952 1.409 . S
C959 C958 1.362 . S
H960 C966 0.930 . S
H961 C969 0.930 . S
H962 C970 0.930 . S
H963 C971 0.930 . S
H964 C974 0.930 . S
H965 C975 0.930 . S
C966 H960 0.930 . S
C966 C967 1.355 1_556 S
C966 C968 1.415 . S
C967 C966 1.355 1_554 S
C967 C969 1.419 . S
C968 C966 1.415 . S
C968 C973 1.425 1_556 S
C968 C975 1.409 . S
C969 H961 0.930 . S
C969 C967 1.419 . S
C969 C970 1.362 . S
C970 H962 0.930 . S
C970 C969 1.362 . S
C970 C973 1.409 . S
C971 H963 0.930 . S
C971 C972 1.355 . S
C971 C973 1.415 . S
C972 C971 1.355 . S
C972 C974 1.419 1_554 S
C973 C968 1.425 1_554 S
C973 C970 1.409 . S
C973 C971 1.415 . S
C974 H964 0.930 . S
C974 C972 1.419 1_556 S
C974 C975 1.362 . S
C975 H965 0.930 . S
C975 C968 1.409 . S
C975 C974 1.362 . S
H976 C982 0.930 . S
H977 C985 0.930 . S
H978 C986 0.930 . S
H979 C987 0.930 . S
H980 C990 0.930 . S
H981 C991 0.930 . S
C982 H976 0.930 . S
C982 C983 1.355 . S
C982 C984 1.415 . S
C983 C982 1.355 . S
C983 C985 1.419 . S
C984 C982 1.415 . S
C984 C989 1.425 1_455 S
C984 C991 1.409 1_455 S
C985 H977 0.930 . S
C985 C983 1.419 . S
C985 C986 1.362 . S
C986 H978 0.930 . S
C986 C985 1.362 . S
C986 C989 1.409 1_455 S
C987 H979 0.930 . S
C987 C988 1.355 . S
C987 C989 1.415 . S
C988 C987 1.355 . S
C988 C990 1.419 . S
C989 C984 1.425 1_655 S
C989 C986 1.409 1_655 S
C989 C987 1.415 . S
C990 H980 0.930 . S
C990 C988 1.419 . S
C990 C991 1.362 . S
C991 H981 0.930 . S
C991 C984 1.409 1_655 S
C991 C990 1.362 . S
H992 C998 0.930 . S
H993 C1001 0.930 . S
H994 C1002 0.930 . S
H995 C1003 0.930 . S
H996 C1006 0.930 . S
H997 C1007 0.930 . S
C998 H992 0.930 . S
C998 C999 1.355 . S
C998 C1000 1.415 . S
C999 C998 1.355 . S
C999 C1001 1.419 . S
C1000 C998 1.415 . S
C1000 C1005 1.425 . S
C1000 C1007 1.409 . S
C1001 H993 0.930 . S
C1001 C999 1.419 . S
C1001 C1002 1.362 . S
C1002 H994 0.930 . S
C1002 C1001 1.362 . S
C1002 C1005 1.409 . S
C1003 H995 0.930 . S
C1003 C1004 1.355 . S
C1003 C1005 1.415 . S
C1004 C1003 1.355 . S
C1004 C1006 1.419 . S
C1005 C1000 1.425 . S
C1005 C1002 1.409 . S
C1005 C1003 1.415 . S
C1006 H996 0.930 . S
C1006 C1004 1.419 . S
C1006 C1007 1.362 . S
C1007 H997 0.930 . S
C1007 C1000 1.409 . S
C1007 C1006 1.362 . S
H1008 C1014 0.930 . S
H1009 C1017 0.930 . S
H1010 C1018 0.930 . S
H1011 C1019 0.930 . S
H1012 C1022 0.930 . S
H1013 C1023 0.930 . S
C1014 H1008 0.930 . S
C1014 C1015 1.355 . S
C1014 C1016 1.415 . S
C1015 C1014 1.355 . S
C1015 C1017 1.419 . S
C1016 C1014 1.415 . S
C1016 C1021 1.425 . S
C1016 C1023 1.409 . S
C1017 H1009 0.930 . S
C1017 C1015 1.419 . S
C1017 C1018 1.362 . S
C1018 H1010 0.930 . S
C1018 C1017 1.362 . S
C1018 C1021 1.409 . S
C1019 H1011 0.930 . S
C1019 C1020 1.355 . S
C1019 C1021 1.415 . S
C1020 C1019 1.355 . S
C1020 C1022 1.419 . S
C1021 C1016 1.425 . S
C1021 C1018 1.409 . S
C1021 C1019 1.415 . S
C1022 H1012 0.930 . S
C1022 C1020 1.419 . S
C1022 C1023 1.362 . S
C1023 H1013 0.930 . S
C1023 C1016 1.409 . S
C1023 C1022 1.362 . S
H1024 C1030 0.930 . S
H1025 C1033 0.930 . S
H1026 C1034 0.930 . S
H1027 C1035 0.930 . S
H1028 C1038 0.930 1_556 S
H1029 C1039 0.930 1_556 S
C1030 H1024 0.930 . S
C1030 C1031 1.355 . S
C1030 C1032 1.415 . S
C1031 C1030 1.355 . S
C1031 C1033 1.419 . S
C1032 C1030 1.415 . S
C1032 C1037 1.425 . S
C1032 C1039 1.409 . S
C1033 H1025 0.930 . S
C1033 C1031 1.419 . S
C1033 C1034 1.362 . S
C1034 H1026 0.930 . S
C1034 C1033 1.362 . S
C1034 C1037 1.409 . S
C1035 H1027 0.930 . S
C1035 C1036 1.355 . S
C1035 C1037 1.415 . S
C1036 C1035 1.355 . S
C1036 C1038 1.419 . S
C1037 C1032 1.425 . S
C1037 C1034 1.409 . S
C1037 C1035 1.415 . S
C1038 H1028 0.930 1_554 S
C1038 C1036 1.419 . S
C1038 C1039 1.362 . S
C1039 H1029 0.930 1_554 S
C1039 C1032 1.409 . S
C1039 C1038 1.362 . S
H1040 C1046 0.930 . S
H1041 C1049 0.930 . S
H1042 C1050 0.930 . S
H1043 C1051 0.930 . S
H1044 C1054 0.930 . S
H1045 C1055 0.930 . S
C1046 H1040 0.930 . S
C1046 C1047 1.355 . S
C1046 C1048 1.415 . S
C1047 C1046 1.355 . S
C1047 C1049 1.419 . S
C1048 C1046 1.415 . S
C1048 C1053 1.425 . S
C1048 C1055 1.409 . S
C1049 H1041 0.930 . S
C1049 C1047 1.419 . S
C1049 C1050 1.362 . S
C1050 H1042 0.930 . S
C1050 C1049 1.362 . S
C1050 C1053 1.409 . S
C1051 H1043 0.930 . S
C1051 C1052 1.355 . S
C1051 C1053 1.415 . S
C1052 C1051 1.355 . S
C1052 C1054 1.419 . S
C1053 C1048 1.425 . S
C1053 C1050 1.409 . S
C1053 C1051 1.415 . S
C1054 H1044 0.930 . S
C1054 C1052 1.419 . S
C1054 C1055 1.362 . S
C1055 H1045 0.930 . S
C1055 C1048 1.409 . S
C1055 C1054 1.362 . S
H1056 C1062 0.930 . S
H1057 C1065 0.930 . S
H1058 C1066 0.930 . S
H1059 C1067 0.930 . S
H1060 C1070 0.930 . S
H1061 C1071 0.930 . S
C1062 H1056 0.930 . S
C1062 C1063 1.355 . S
C1062 C1064 1.415 . S
C1063 C1062 1.355 . S
C1063 C1065 1.419 . S
C1064 C1062 1.415 . S
C1064 C1069 1.425 . S
C1064 C1071 1.409 . S
C1065 H1057 0.930 . S
C1065 C1063 1.419 . S
C1065 C1066 1.362 . S
C1066 H1058 0.930 . S
C1066 C1065 1.362 . S
C1066 C1069 1.409 . S
C1067 H1059 0.930 . S
C1067 C1068 1.355 . S
C1067 C1069 1.415 . S
C1068 C1067 1.355 . S
C1068 C1070 1.419 . S
C1069 C1064 1.425 . S
C1069 C1066 1.409 . S
C1069 C1067 1.415 . S
C1070 H1060 0.930 . S
C1070 C1068 1.419 . S
C1070 C1071 1.362 . S
C1071 H1061 0.930 . S
C1071 C1064 1.409 . S
C1071 C1070 1.362 . S
H1072 C1078 0.930 . S
H1073 C1081 0.930 . S
H1074 C1082 0.930 . S
H1075 C1083 0.930 . S
H1076 C1086 0.930 . S
H1077 C1087 0.930 . S
C1078 H1072 0.930 . S
C1078 C1079 1.355 . S
C1078 C1080 1.415 . S
C1079 C1078 1.355 . S
C1079 C1081 1.419 . S
C1080 C1078 1.415 . S
C1080 C1085 1.425 1_655 S
C1080 C1087 1.409 1_655 S
C1081 H1073 0.930 . S
C1081 C1079 1.419 . S
C1081 C1082 1.362 . S
C1082 H1074 0.930 . S
C1082 C1081 1.362 . S
C1082 C1085 1.409 1_655 S
C1083 H1075 0.930 . S
C1083 C1084 1.355 . S
C1083 C1085 1.415 . S
C1084 C1083 1.355 . S
C1084 C1086 1.419 . S
C1085 C1080 1.425 1_455 S
C1085 C1082 1.409 1_455 S
C1085 C1083 1.415 . S
C1086 H1076 0.930 . S
C1086 C1084 1.419 . S
C1086 C1087 1.362 . S
C1087 H1077 0.930 . S
C1087 C1080 1.409 1_455 S
C1087 C1086 1.362 . S
H1088 C1094 0.930 . S
H1089 C1097 0.930 1_556 S
H1090 C1098 0.930 1_556 S
H1091 C1099 0.930 . S
H1092 C1102 0.930 . S
H1093 C1103 0.930 . S
C1094 H1088 0.930 . S
C1094 C1095 1.355 . S
C1094 C1096 1.415 . S
C1095 C1094 1.355 . S
C1095 C1097 1.419 . S
C1096 C1094 1.415 . S
C1096 C1101 1.425 . S
C1096 C1103 1.409 . S
C1097 H1089 0.930 1_554 S
C1097 C1095 1.419 . S
C1097 C1098 1.362 . S
C1098 H1090 0.930 1_554 S
C1098 C1097 1.362 . S
C1098 C1101 1.409 . S
C1099 H1091 0.930 . S
C1099 C1100 1.355 . S
C1099 C1101 1.415 . S
C1100 C1099 1.355 . S
C1100 C1102 1.419 . S
C1101 C1096 1.425 . S
C1101 C1098 1.409 . S
C1101 C1099 1.415 . S
C1102 H1092 0.930 . S
C1102 C1100 1.419 . S
C1102 C1103 1.362 . S
C1103 H1093 0.930 . S
C1103 C1096 1.409 . S
C1103 C1102 1.362 . S
H1104 C1110 0.930 . S
H1105 C1113 0.930 . S
H1106 C1114 0.930 . S
H1107 C1115 0.930 . S
H1108 C1118 0.930 . S
H1109 C1119 0.930 . S
C1110 H1104 0.930 . S
C1110 C1111 1.355 . S
C1110 C1112 1.415 . S
C1111 C1110 1.355 . S
C1111 C1113 1.419 . S
C1112 C1110 1.415 . S
C1112 C1117 1.425 . S
C1112 C1119 1.409 . S
C1113 H1105 0.930 . S
C1113 C1111 1.419 . S
C1113 C1114 1.362 . S
C1114 H1106 0.930 . S
C1114 C1113 1.362 . S
C1114 C1117 1.409 . S
C1115 H1107 0.930 . S
C1115 C1116 1.355 . S
C1115 C1117 1.415 . S
C1116 C1115 1.355 . S
C1116 C1118 1.419 . S
C1117 C1112 1.425 . S
C1117 C1114 1.409 . S
C1117 C1115 1.415 . S
C1118 H1108 0.930 . S
C1118 C1116 1.419 . S
C1118 C1119 1.362 . S
C1119 H1109 0.930 . S
C1119 C1112 1.409 . S
C1119 C1118 1.362 . S
H1120 C1126 0.930 . S
H1121 C1129 0.930 . S
H1122 C1130 0.930 . S
H1123 C1131 0.930 . S
H1124 C1134 0.930 . S
H1125 C1135 0.930 . S
C1126 H1120 0.930 . S
C1126 C1127 1.355 1_556 S
C1126 C1128 1.415 . S
C1127 C1126 1.355 1_554 S
C1127 C1129 1.419 . S
C1128 C1126 1.415 . S
C1128 C1133 1.425 1_556 S
C1128 C1135 1.409 . S
C1129 H1121 0.930 . S
C1129 C1127 1.419 . S
C1129 C1130 1.362 . S
C1130 H1122 0.930 . S
C1130 C1129 1.362 . S
C1130 C1133 1.409 . S
C1131 H1123 0.930 . S
C1131 C1132 1.355 . S
C1131 C1133 1.415 . S
C1132 C1131 1.355 . S
C1132 C1134 1.419 1_554 S
C1133 C1128 1.425 1_554 S
C1133 C1130 1.409 . S
C1133 C1131 1.415 . S
C1134 H1124 0.930 . S
C1134 C1132 1.419 1_556 S
C1134 C1135 1.362 . S
C1135 H1125 0.930 . S
C1135 C1128 1.409 . S
C1135 C1134 1.362 . S
H1136 C1142 0.930 . S
H1137 C1145 0.930 . S
H1138 C1146 0.930 . S
H1139 C1147 0.930 . S
H1140 C1150 0.930 . S
H1141 C1151 0.930 . S
C1142 H1136 0.930 . S
C1142 C1143 1.355 . S
C1142 C1144 1.415 . S
C1143 C1142 1.355 . S
C1143 C1145 1.419 . S
C1144 C1142 1.415 . S
C1144 C1149 1.425 . S
C1144 C1151 1.409 . S
C1145 H1137 0.930 . S
C1145 C1143 1.419 . S
C1145 C1146 1.362 . S
C1146 H1138 0.930 . S
C1146 C1145 1.362 . S
C1146 C1149 1.409 . S
C1147 H1139 0.930 . S
C1147 C1148 1.355 . S
C1147 C1149 1.415 . S
C1148 C1147 1.355 . S
C1148 C1150 1.419 . S
C1149 C1144 1.425 . S
C1149 C1146 1.409 . S
C1149 C1147 1.415 . S
C1150 H1140 0.930 . S
C1150 C1148 1.419 . S
C1150 C1151 1.362 . S
C1151 H1141 0.930 . S
C1151 C1144 1.409 . S
C1151 C1150 1.362 . S
H1152 C1158 0.930 . S
H1153 C1161 0.930 . S
H1154 C1162 0.930 . S
H1155 C1163 0.930 . S
H1156 C1166 0.930 . S
H1157 C1167 0.930 . S
C1158 H1152 0.930 . S
C1158 C1159 1.355 . S
C1158 C1160 1.415 . S
C1159 C1158 1.355 . S
C1159 C1161 1.419 . S
C1160 C1158 1.415 . S
C1160 C1165 1.425 . S
C1160 C1167 1.409 . S
C1161 H1153 0.930 . S
C1161 C1159 1.419 . S
C1161 C1162 1.362 . S
C1162 H1154 0.930 . S
C1162 C1161 1.362 . S
C1162 C1165 1.409 . S
C1163 H1155 0.930 . S
C1163 C1164 1.355 . S
C1163 C1165 1.415 . S
C1164 C1163 1.355 . S
C1164 C1166 1.419 . S
C1165 C1160 1.425 . S
C1165 C1162 1.409 . S
C1165 C1163 1.415 . S
C1166 H1156 0.930 . S
C1166 C1164 1.419 . S
C1166 C1167 1.362 . S
C1167 H1157 0.930 . S
C1167 C1160 1.409 . S
C1167 C1166 1.362 . S
H1168 C1174 0.930 . S
H1169 C1177 0.930 . S
H1170 C1178 0.930 . S
H1171 C1179 0.930 . S
H1172 C1182 0.930 . S
H1173 C1183 0.930 . S
C1174 H1168 0.930 . S
C1174 C1175 1.355 . S
C1174 C1176 1.415 . S
C1175 C1174 1.355 . S
C1175 C1177 1.419 . S
C1176 C1174 1.415 . S
C1176 C1181 1.425 1_655 S
C1176 C1183 1.409 1_655 S
C1177 H1169 0.930 . S
C1177 C1175 1.419 . S
C1177 C1178 1.362 . S
C1178 H1170 0.930 . S
C1178 C1177 1.362 . S
C1178 C1181 1.409 1_655 S
C1179 H1171 0.930 . S
C1179 C1180 1.355 . S
C1179 C1181 1.415 . S
C1180 C1179 1.355 . S
C1180 C1182 1.419 . S
C1181 C1176 1.425 1_455 S
C1181 C1178 1.409 1_455 S
C1181 C1179 1.415 . S
C1182 H1172 0.930 . S
C1182 C1180 1.419 . S
C1182 C1183 1.362 . S
C1183 H1173 0.930 . S
C1183 C1176 1.409 1_455 S
C1183 C1182 1.362 . S
H1184 C1190 0.930 . S
H1185 C1193 0.930 . S
H1186 C1194 0.930 . S
H1187 C1195 0.930 . S
H1188 C1198 0.930 . S
H1189 C1199 0.930 . S
C1190 H1184 0.930 . S
C1190 C1191 1.355 . S
C1190 C1192 1.415 . S
C1191 C1190 1.355 . S
C1191 C1193 1.419 . S
C1192 C1190 1.415 . S
C1192 C1197 1.425 1_655 S
C1192 C1199 1.409 1_655 S
C1193 H1185 0.930 . S
C1193 C1191 1.419 . S
C1193 C1194 1.362 . S
C1194 H1186 0.930 . S
C1194 C1193 1.362 . S
C1194 C1197 1.409 1_655 S
C1195 H1187 0.930 . S
C1195 C1196 1.355 . S
C1195 C1197 1.415 . S
C1196 C1195 1.355 . S
C1196 C1198 1.419 . S
C1197 C1192 1.425 1_455 S
C1197 C1194 1.409 1_455 S
C1197 C1195 1.415 . S
C1198 H1188 0.930 . S
C1198 C1196 1.419 . S
C1198 C1199 1.362 . S
C1199 H1189 0.930 . S
C1199 C1192 1.409 1_455 S
C1199 C1198 1.362 . S
H1200 C1206 0.930 . S
H1201 C1209 0.930 . S
H1202 C1210 0.930 . S
H1203 C1211 0.930 . S
H1204 C1214 0.930 . S
H1205 C1215 0.930 . S
C1206 H1200 0.930 . S
C1206 C1207 1.355 . S
C1206 C1208 1.415 . S
C1207 C1206 1.355 . S
C1207 C1209 1.419 . S
C1208 C1206 1.415 . S
C1208 C1213 1.425 . S
C1208 C1215 1.409 . S
C1209 H1201 0.930 . S
C1209 C1207 1.419 . S
C1209 C1210 1.362 . S
C1210 H1202 0.930 . S
C1210 C1209 1.362 . S
C1210 C1213 1.409 . S
C1211 H1203 0.930 . S
C1211 C1212 1.355 . S
C1211 C1213 1.415 . S
C1212 C1211 1.355 . S
C1212 C1214 1.419 . S
C1213 C1208 1.425 . S
C1213 C1210 1.409 . S
C1213 C1211 1.415 . S
C1214 H1204 0.930 . S
C1214 C1212 1.419 . S
C1214 C1215 1.362 . S
C1215 H1205 0.930 . S
C1215 C1208 1.409 . S
C1215 C1214 1.362 . S
H1216 C1222 0.930 . S
H1217 C1225 0.930 . S
H1218 C1226 0.930 . S
H1219 C1227 0.930 . S
H1220 C1230 0.930 . S
H1221 C1231 0.930 . S
C1222 H1216 0.930 . S
C1222 C1223 1.355 . S
C1222 C1224 1.415 . S
C1223 C1222 1.355 . S
C1223 C1225 1.419 . S
C1224 C1222 1.415 . S
C1224 C1229 1.425 . S
C1224 C1231 1.409 . S
C1225 H1217 0.930 . S
C1225 C1223 1.419 . S
C1225 C1226 1.362 . S
C1226 H1218 0.930 . S
C1226 C1225 1.362 . S
C1226 C1229 1.409 . S
C1227 H1219 0.930 . S
C1227 C1228 1.355 . S
C1227 C1229 1.415 . S
C1228 C1227 1.355 . S
C1228 C1230 1.419 . S
C1229 C1224 1.425 . S
C1229 C1226 1.409 . S
C1229 C1227 1.415 . S
C1230 H1220 0.930 . S
C1230 C1228 1.419 . S
C1230 C1231 1.362 . S
C1231 H1221 0.930 . S
C1231 C1224 1.409 . S
C1231 C1230 1.362 . S
H1232 C1238 0.925 1_545 S
H1233 C1241 0.930 . S
H1234 C1242 0.930 . S
H1235 C1243 0.925 1_565 S
H1236 C1246 0.930 . S
H1237 C1247 0.930 . S
C1238 H1232 0.925 1_565 S
C1238 C1239 1.355 . S
C1238 C1240 1.415 1_565 S
C1239 C1238 1.355 . S
C1239 C1241 1.419 . S
C1240 C1238 1.415 1_545 S
C1240 C1245 1.425 1_545 S
C1240 C1247 1.409 . S
C1241 H1233 0.930 . S
C1241 C1239 1.419 . S
C1241 C1242 1.362 . S
C1242 H1234 0.930 . S
C1242 C1241 1.362 . S
C1242 C1245 1.409 . S
C1243 H1235 0.925 1_545 S
C1243 C1244 1.355 . S
C1243 C1245 1.415 1_545 S
C1244 C1243 1.355 . S
C1244 C1246 1.419 . S
C1245 C1240 1.425 1_565 S
C1245 C1242 1.409 . S
C1245 C1243 1.415 1_565 S
C1246 H1236 0.930 . S
C1246 C1244 1.419 . S
C1246 C1247 1.362 . S
C1247 H1237 0.930 . S
C1247 C1240 1.409 . S
C1247 C1246 1.362 . S
H1248 C1254 0.930 . S
H1249 C1257 0.930 . S
H1250 C1258 0.930 . S
H1251 C1259 0.930 . S
H1252 C1262 0.930 . S
H1253 C1263 0.930 . S
C1254 H1248 0.930 . S
C1254 C1255 1.355 . S
C1254 C1256 1.415 . S
C1255 C1254 1.355 . S
C1255 C1257 1.419 . S
C1256 C1254 1.415 . S
C1256 C1261 1.425 . S
C1256 C1263 1.409 . S
C1257 H1249 0.930 . S
C1257 C1255 1.419 . S
C1257 C1258 1.362 . S
C1258 H1250 0.930 . S
C1258 C1257 1.362 . S
C1258 C1261 1.409 . S
C1259 H1251 0.930 . S
C1259 C1260 1.355 . S
C1259 C1261 1.415 . S
C1260 C1259 1.355 . S
C1260 C1262 1.419 . S
C1261 C1256 1.425 . S
C1261 C1258 1.409 . S
C1261 C1259 1.415 . S
C1262 H1252 0.930 . S
C1262 C1260 1.419 . S
C1262 C1263 1.362 . S
C1263 H1253 0.930 . S
C1263 C1256 1.409 . S
C1263 C1262 1.362 . S
H1264 C1270 0.930 . S
H1265 C1273 0.930 . S
H1266 C1274 0.930 . S
H1267 C1275 0.930 . S
H1268 C1278 0.930 . S
H1269 C1279 0.930 . S
C1270 H1264 0.930 . S
C1270 C1271 1.355 . S
C1270 C1272 1.415 1_546 S
C1271 C1270 1.355 . S
C1271 C1273 1.419 . S
C1272 C1270 1.415 1_564 S
C1272 C1277 1.425 1_565 S
C1272 C1279 1.409 . S
C1273 H1265 0.930 . S
C1273 C1271 1.419 . S
C1273 C1274 1.362 1_556 S
C1274 H1266 0.930 . S
C1274 C1273 1.362 1_554 S
C1274 C1277 1.409 . S
C1275 H1267 0.930 . S
C1275 C1276 1.355 . S
C1275 C1277 1.415 1_565 S
C1276 C1275 1.355 . S
C1276 C1278 1.419 . S
C1277 C1272 1.425 1_545 S
C1277 C1274 1.409 . S
C1277 C1275 1.415 1_545 S
C1278 H1268 0.930 . S
C1278 C1276 1.419 . S
C1278 C1279 1.362 . S
C1279 H1269 0.930 . S
C1279 C1272 1.409 . S
C1279 C1278 1.362 . S
H1280 C1286 0.930 . S
H1281 C1289 0.930 . S
H1282 C1290 0.930 . S
H1283 C1291 0.930 . S
H1284 C1294 0.930 . S
H1285 C1295 0.930 . S
C1286 H1280 0.930 . S
C1286 C1287 1.355 . S
C1286 C1288 1.415 . S
C1287 C1286 1.355 . S
C1287 C1289 1.419 . S
C1288 C1286 1.415 . S
C1288 C1293 1.425 . S
C1288 C1295 1.409 . S
C1289 H1281 0.930 . S
C1289 C1287 1.419 . S
C1289 C1290 1.362 . S
C1290 H1282 0.930 . S
C1290 C1289 1.362 . S
C1290 C1293 1.409 . S
C1291 H1283 0.930 . S
C1291 C1292 1.355 . S
C1291 C1293 1.415 . S
C1292 C1291 1.355 . S
C1292 C1294 1.419 . S
C1293 C1288 1.425 . S
C1293 C1290 1.409 . S
C1293 C1291 1.415 . S
C1294 H1284 0.930 . S
C1294 C1292 1.419 . S
C1294 C1295 1.362 . S
C1295 H1285 0.930 . S
C1295 C1288 1.409 . S
C1295 C1294 1.362 . S
H1296 C1302 0.930 1_565 S
H1297 C1305 0.930 . S
H1298 C1306 0.930 . S
H1299 C1307 0.930 1_545 S
H1300 C1310 0.930 . S
H1301 C1311 0.930 . S
C1302 H1296 0.930 1_545 S
C1302 C1303 1.355 . S
C1302 C1304 1.415 1_545 S
C1303 C1302 1.355 . S
C1303 C1305 1.419 . S
C1304 C1302 1.415 1_565 S
C1304 C1309 1.425 1_565 S
C1304 C1311 1.409 . S
C1305 H1297 0.930 . S
C1305 C1303 1.419 . S
C1305 C1306 1.362 . S
C1306 H1298 0.930 . S
C1306 C1305 1.362 . S
C1306 C1309 1.409 . S
C1307 H1299 0.930 1_565 S
C1307 C1308 1.355 . S
C1307 C1309 1.415 1_565 S
C1308 C1307 1.355 . S
C1308 C1310 1.419 . S
C1309 C1304 1.425 1_545 S
C1309 C1306 1.409 . S
C1309 C1307 1.415 1_545 S
C1310 H1300 0.930 . S
C1310 C1308 1.419 . S
C1310 C1311 1.362 . S
C1311 H1301 0.930 . S
C1311 C1304 1.409 . S
C1311 C1310 1.362 . S
H1312 C1318 0.930 . S
H1313 C1321 0.930 . S
H1314 C1322 0.930 . S
H1315 C1323 0.930 . S
H1316 C1326 0.930 . S
H1317 C1327 0.930 . S
C1318 H1312 0.930 . S
C1318 C1319 1.355 . S
C1318 C1320 1.415 . S
C1319 C1318 1.355 . S
C1319 C1321 1.419 . S
C1320 C1318 1.415 . S
C1320 C1325 1.425 . S
C1320 C1327 1.409 . S
C1321 H1313 0.930 . S
C1321 C1319 1.419 . S
C1321 C1322 1.362 . S
C1322 H1314 0.930 . S
C1322 C1321 1.362 . S
C1322 C1325 1.409 . S
C1323 H1315 0.930 . S
C1323 C1324 1.355 . S
C1323 C1325 1.415 . S
C1324 C1323 1.355 . S
C1324 C1326 1.419 . S
C1325 C1320 1.425 . S
C1325 C1322 1.409 . S
C1325 C1323 1.415 . S
C1326 H1316 0.930 . S
C1326 C1324 1.419 . S
C1326 C1327 1.362 . S
C1327 H1317 0.930 . S
C1327 C1320 1.409 . S
C1327 C1326 1.362 . S
H1328 C1334 0.930 1_545 S
H1329 C1337 0.930 . S
H1330 C1338 0.930 1_556 S
H1331 C1339 0.930 1_565 S
H1332 C1342 0.930 1_556 S
H1333 C1343 0.930 . S
C1334 H1328 0.930 1_565 S
C1334 C1335 1.355 . S
C1334 C1336 1.415 1_565 S
C1335 C1334 1.355 . S
C1335 C1337 1.419 . S
C1336 C1334 1.415 1_545 S
C1336 C1341 1.425 1_545 S
C1336 C1343 1.409 . S
C1337 H1329 0.930 . S
C1337 C1335 1.419 . S
C1337 C1338 1.362 . S
C1338 H1330 0.930 1_554 S
C1338 C1337 1.362 . S
C1338 C1341 1.409 . S
C1339 H1331 0.930 1_545 S
C1339 C1340 1.355 . S
C1339 C1341 1.415 1_546 S
C1340 C1339 1.355 . S
C1340 C1342 1.419 1_556 S
C1341 C1336 1.425 1_565 S
C1341 C1338 1.409 . S
C1341 C1339 1.415 1_564 S
C1342 H1332 0.930 1_554 S
C1342 C1340 1.419 1_554 S
C1342 C1343 1.362 . S
C1343 H1333 0.930 . S
C1343 C1336 1.409 . S
C1343 C1342 1.362 . S
H1344 C1350 0.930 . S
H1345 C1353 0.930 . S
H1346 C1354 0.930 . S
H1347 C1355 0.930 . S
H1348 C1358 0.930 . S
H1349 C1359 0.930 . S
C1350 H1344 0.930 . S
C1350 C1351 1.355 . S
C1350 C1352 1.415 . S
C1351 C1350 1.355 . S
C1351 C1353 1.419 . S
C1352 C1350 1.415 . S
C1352 C1357 1.425 . S
C1352 C1359 1.409 . S
C1353 H1345 0.930 . S
C1353 C1351 1.419 . S
C1353 C1354 1.362 . S
C1354 H1346 0.930 . S
C1354 C1353 1.362 . S
C1354 C1357 1.409 . S
C1355 H1347 0.930 . S
C1355 C1356 1.355 . S
C1355 C1357 1.415 . S
C1356 C1355 1.355 . S
C1356 C1358 1.419 . S
C1357 C1352 1.425 . S
C1357 C1354 1.409 . S
C1357 C1355 1.415 . S
C1358 H1348 0.930 . S
C1358 C1356 1.419 . S
C1358 C1359 1.362 . S
C1359 H1349 0.930 . S
C1359 C1352 1.409 . S
C1359 C1358 1.362 . S
H1360 C1366 0.930 . S
H1361 C1369 0.930 . S
H1362 C1370 0.930 . S
H1363 C1371 0.930 . S
H1364 C1374 0.930 . S
H1365 C1375 0.930 . S
C1366 H1360 0.930 . S
C1366 C1367 1.355 . S
C1366 C1368 1.415 . S
C1367 C1366 1.355 . S
C1367 C1369 1.419 . S
C1368 C1366 1.415 . S
C1368 C1373 1.425 . S
C1368 C1375 1.409 . S
C1369 H1361 0.930 . S
C1369 C1367 1.419 . S
C1369 C1370 1.362 . S
C1370 H1362 0.930 . S
C1370 C1369 1.362 . S
C1370 C1373 1.409 . S
C1371 H1363 0.930 . S
C1371 C1372 1.355 . S
C1371 C1373 1.415 1_556 S
C1372 C1371 1.355 . S
C1372 C1374 1.419 . S
C1373 C1368 1.425 . S
C1373 C1370 1.409 . S
C1373 C1371 1.415 1_554 S
C1374 H1364 0.930 . S
C1374 C1372 1.419 . S
C1374 C1375 1.362 1_556 S
C1375 H1365 0.930 . S
C1375 C1368 1.409 . S
C1375 C1374 1.362 1_554 S
H1376 C1382 0.930 . S
H1377 C1385 0.930 . S
H1378 C1386 0.930 . S
H1379 C1387 0.930 . S
H1380 C1390 0.930 . S
H1381 C1391 0.930 . S
C1382 H1376 0.930 . S
C1382 C1383 1.355 . S
C1382 C1384 1.415 . S
C1383 C1382 1.355 . S
C1383 C1385 1.419 . S
C1384 C1382 1.415 . S
C1384 C1389 1.425 . S
C1384 C1391 1.409 . S
C1385 H1377 0.930 . S
C1385 C1383 1.419 . S
C1385 C1386 1.362 . S
C1386 H1378 0.930 . S
C1386 C1385 1.362 . S
C1386 C1389 1.409 . S
C1387 H1379 0.930 . S
C1387 C1388 1.355 . S
C1387 C1389 1.415 . S
C1388 C1387 1.355 . S
C1388 C1390 1.419 . S
C1389 C1384 1.425 . S
C1389 C1386 1.409 . S
C1389 C1387 1.415 . S
C1390 H1380 0.930 . S
C1390 C1388 1.419 . S
C1390 C1391 1.362 . S
C1391 H1381 0.930 . S
C1391 C1384 1.409 . S
C1391 C1390 1.362 . S
H1392 C1398 0.930 . S
H1393 C1401 0.930 . S
H1394 C1402 0.930 . S
H1395 C1403 0.930 . S
H1396 C1406 0.930 . S
H1397 C1407 0.930 . S
C1398 H1392 0.930 . S
C1398 C1399 1.355 . S
C1398 C1400 1.415 . S
C1399 C1398 1.355 . S
C1399 C1401 1.419 . S
C1400 C1398 1.415 . S
C1400 C1405 1.425 . S
C1400 C1407 1.409 . S
C1401 H1393 0.930 . S
C1401 C1399 1.419 . S
C1401 C1402 1.362 . S
C1402 H1394 0.930 . S
C1402 C1401 1.362 . S
C1402 C1405 1.409 . S
C1403 H1395 0.930 . S
C1403 C1404 1.355 . S
C1403 C1405 1.415 . S
C1404 C1403 1.355 . S
C1404 C1406 1.419 . S
C1405 C1400 1.425 . S
C1405 C1402 1.409 . S
C1405 C1403 1.415 . S
C1406 H1396 0.930 . S
C1406 C1404 1.419 . S
C1406 C1407 1.362 . S
C1407 H1397 0.930 . S
C1407 C1400 1.409 . S
C1407 C1406 1.362 . S
H1408 C1414 0.930 . S
H1409 C1417 0.930 . S
H1410 C1418 0.930 . S
H1411 C1419 0.930 . S
H1412 C1422 0.930 . S
H1413 C1423 0.930 . S
C1414 H1408 0.930 . S
C1414 C1415 1.355 . S
C1414 C1416 1.415 . S
C1415 C1414 1.355 . S
C1415 C1417 1.419 . S
C1416 C1414 1.415 . S
C1416 C1421 1.425 . S
C1416 C1423 1.409 . S
C1417 H1409 0.930 . S
C1417 C1415 1.419 . S
C1417 C1418 1.362 . S
C1418 H1410 0.930 . S
C1418 C1417 1.362 . S
C1418 C1421 1.409 . S
C1419 H1411 0.930 . S
C1419 C1420 1.355 . S
C1419 C1421 1.415 . S
C1420 C1419 1.355 . S
C1420 C1422 1.419 . S
C1421 C1416 1.425 . S
C1421 C1418 1.409 . S
C1421 C1419 1.415 . S
C1422 H1412 0.930 . S
C1422 C1420 1.419 . S
C1422 C1423 1.362 . S
C1423 H1413 0.930 . S
C1423 C1416 1.409 . S
C1423 C1422 1.362 . S
H1424 C1430 0.930 . S
H1425 C1433 0.930 . S
H1426 C1434 0.930 . S
H1427 C1435 0.930 . S
H1428 C1438 0.930 . S
H1429 C1439 0.930 1_556 S
C1430 H1424 0.930 . S
C1430 C1431 1.355 . S
C1430 C1432 1.415 1_556 S
C1431 C1430 1.355 . S
C1431 C1433 1.419 1_556 S
C1432 C1430 1.415 1_554 S
C1432 C1437 1.425 . S
C1432 C1439 1.409 . S
C1433 H1425 0.930 . S
C1433 C1431 1.419 1_554 S
C1433 C1434 1.362 . S
C1434 H1426 0.930 . S
C1434 C1433 1.362 . S
C1434 C1437 1.409 . S
C1435 H1427 0.930 . S
C1435 C1436 1.355 . S
C1435 C1437 1.415 . S
C1436 C1435 1.355 . S
C1436 C1438 1.419 . S
C1437 C1432 1.425 . S
C1437 C1434 1.409 . S
C1437 C1435 1.415 . S
C1438 H1428 0.930 . S
C1438 C1436 1.419 . S
C1438 C1439 1.362 . S
C1439 H1429 0.930 1_554 S
C1439 C1432 1.409 . S
C1439 C1438 1.362 . S
H1440 C1446 0.930 . S
H1441 C1449 0.930 . S
H1442 C1450 0.930 . S
H1443 C1451 0.930 . S
H1444 C1454 0.930 . S
H1445 C1455 0.930 . S
C1446 H1440 0.930 . S
C1446 C1447 1.355 . S
C1446 C1448 1.415 . S
C1447 C1446 1.355 . S
C1447 C1449 1.419 . S
C1448 C1446 1.415 . S
C1448 C1453 1.425 . S
C1448 C1455 1.409 . S
C1449 H1441 0.930 . S
C1449 C1447 1.419 . S
C1449 C1450 1.362 . S
C1450 H1442 0.930 . S
C1450 C1449 1.362 . S
C1450 C1453 1.409 . S
C1451 H1443 0.930 . S
C1451 C1452 1.355 . S
C1451 C1453 1.415 . S
C1452 C1451 1.355 . S
C1452 C1454 1.419 . S
C1453 C1448 1.425 . S
C1453 C1450 1.409 . S
C1453 C1451 1.415 . S
C1454 H1444 0.930 . S
C1454 C1452 1.419 . S
C1454 C1455 1.362 . S
C1455 H1445 0.930 . S
C1455 C1448 1.409 . S
C1455 C1454 1.362 . S
H1456 C1462 0.930 . S
H1457 C1465 0.930 . S
H1458 C1466 0.930 . S
H1459 C1467 0.930 . S
H1460 C1470 0.930 . S
H1461 C1471 0.930 . S
C1462 H1456 0.930 . S
C1462 C1463 1.355 . S
C1462 C1464 1.415 . S
C1463 C1462 1.355 . S
C1463 C1465 1.419 . S
C1464 C1462 1.415 . S
C1464 C1469 1.425 . S
C1464 C1471 1.409 . S
C1465 H1457 0.930 . S
C1465 C1463 1.419 . S
C1465 C1466 1.362 . S
C1466 H1458 0.930 . S
C1466 C1465 1.362 . S
C1466 C1469 1.409 . S
C1467 H1459 0.930 . S
C1467 C1468 1.355 . S
C1467 C1469 1.415 . S
C1468 C1467 1.355 . S
C1468 C1470 1.419 . S
C1469 C1464 1.425 . S
C1469 C1466 1.409 . S
C1469 C1467 1.415 . S
C1470 H1460 0.930 . S
C1470 C1468 1.419 . S
C1470 C1471 1.362 . S
C1471 H1461 0.930 . S
C1471 C1464 1.409 . S
C1471 C1470 1.362 . S
C455 C103 1.181 . S
C460 C5 1.096 1_556 S
C471 C19 1.189 . S
C476 C61 1.109 . S
C487 C75 1.167 . S
C492 C33 1.079 . S
C503 C47 1.060 . S
C508 C89 1.094 . S
C519 C117 1.195 . S
C524 C215 1.159 . S
C535 C131 1.177 . S
C540 C173 1.187 1_556 S
C551 C145 1.119 . S
C556 C187 1.057 . S
C567 C159 1.078 . S
C572 C201 1.166 . S
C583 C229 1.058 . S
C588 C327 1.130 . S
C599 C243 1.131 . S
C604 C285 1.196 . S
C615 C299 1.072 . S
C620 C257 1.073 1_556 S
C631 C313 1.133 . S
C636 C271 1.059 . S
C647 C341 1.092 . S
C652 C439 1.179 . S
C663 C397 1.076 . S
C668 C355 1.070 . S
C679 C411 1.195 . S
C684 C369 1.127 . S
C695 C383 1.056 . S
C700 C425 1.108 1_556 S
C711 C4 1.127 . S
C716 C88 1.200 . S
C727 C18 1.162 . S
C732 C102 1.123 . S
C743 C60 1.183 . S
C748 C32 1.196 . S
C759 C46 1.172 . S
C764 C74 1.119 . S
C775 C116 1.150 . S
C780 C200 1.128 . S
C791 C130 1.207 . S
C796 C214 1.138 . S
C807 C172 1.130 . S
C812 C144 1.203 . S
C823 C186 1.192 . S
C828 C158 1.121 . S
C839 C228 1.206 . S
C844 C312 1.161 . S
C855 C326 1.164 . S
C860 C242 1.206 . S
C871 C284 1.171 . S
C876 C256 1.203 . S
C887 C270 1.127 . S
C892 C298 1.153 . S
C903 C340 1.199 . S
C908 C424 1.179 . S
C919 C354 1.127 . S
C924 C438 1.200 . S
C935 C396 1.208 . S
C940 C368 1.142 . S
C951 C410 1.199 . S
C956 C382 1.178 . S
C967 C12 1.338 . S
C972 C432 1.334 . S
C983 C26 1.326 . S
C988 C222 1.346 . S
C999 C40 1.319 . S
C1004 C404 1.353 . S
C1015 C54 1.327 . S
C1020 C194 1.345 . S
C1031 C68 1.335 . S
C1036 C376 1.337 . S
C1047 C82 1.347 . S
C1052 C166 1.326 . S
C1063 C96 1.334 . S
C1068 C348 1.337 . S
C1079 C138 1.347 . S
C1084 C110 1.325 . S
C1095 C320 1.320 . S
C1100 C124 1.352 . S
C1111 C152 1.328 . S
C1116 C292 1.344 . S
C1127 C264 1.319 . S
C1132 C180 1.353 . S
C1143 C236 1.320 . S
C1148 C208 1.351 . S
C1159 C250 1.347 . S
C1164 C446 1.325 . S
C1175 C278 1.339 . S
C1180 C418 1.333 . S
C1191 C306 1.333 . S
C1196 C390 1.339 . S
C1207 C362 1.321 . S
C1212 C334 1.351 . S
C1223 C11 1.491 . S
C1228 C95 1.538 . S
C1239 C25 1.538 . S
C1244 C109 1.489 . S
C1255 C67 1.535 . S
C1260 C39 1.479 . S
C1271 C53 1.534 . S
C1276 C81 1.477 . S
C1287 C123 1.465 . S
C1292 C207 1.513 . S
C1303 C137 1.494 . S
C1308 C221 1.538 . S
C1319 C179 1.511 . S
C1324 C151 1.465 . S
C1335 C165 1.498 . S
C1340 C193 1.538 . S
C1351 C319 1.525 . S
C1356 C235 1.468 . S
C1367 C333 1.517 . S
C1372 C249 1.465 . S
C1383 C291 1.523 . S
C1388 C263 1.525 . S
C1399 C305 1.535 . S
C1404 C277 1.508 . S
C1415 C431 1.465 . S
C1420 C347 1.518 . S
C1431 C445 1.506 . S
C1436 C361 1.536 . S
C1447 C375 1.485 . S
C1452 C403 1.474 . S
C1463 C417 1.464 . S
C1468 C389 1.511 . S
