# Generated by pormake.
# Topology und, (4)-cn, num edge types: 1
# Building blocks:
#     Node 0, Type 0, BuildingBlock: KUFVIS_clean_sbu_0, # of connection points: 4
#     Node 1, Type 0, BuildingBlock: KUFVIS_clean_sbu_0, # of connection points: 4
#     Node 2, Type 0, BuildingBlock: KUFVIS_clean_sbu_0, # of connection points: 4
#     Node 3, Type 0, BuildingBlock: KUFVIS_clean_sbu_0, # of connection points: 4
#     Node 4, Type 0, BuildingBlock: KUFVIS_clean_sbu_0, # of connection points: 4
#     Node 5, Type 0, BuildingBlock: KUFVIS_clean_sbu_0, # of connection points: 4
#     Node 6, Type 0, BuildingBlock: KUFVIS_clean_sbu_0, # of connection points: 4
#     Node 7, Type 0, BuildingBlock: KUFVIS_clean_sbu_0, # of connection points: 4
#     Node 8, Type 0, BuildingBlock: KUFVIS_clean_sbu_0, # of connection points: 4
#     Node 9, Type 0, BuildingBlock: KUFVIS_clean_sbu_0, # of connection points: 4
#     Node 10, Type 0, BuildingBlock: KUFVIS_clean_sbu_0, # of connection points: 4
#     Node 11, Type 0, BuildingBlock: KUFVIS_clean_sbu_0, # of connection points: 4
#     Node 12, Type 0, BuildingBlock: KUFVIS_clean_sbu_0, # of connection points: 4
#     Node 13, Type 0, BuildingBlock: KUFVIS_clean_sbu_0, # of connection points: 4
#     Node 14, Type 0, BuildingBlock: KUFVIS_clean_sbu_0, # of connection points: 4
#     Node 15, Type 0, BuildingBlock: KUFVIS_clean_sbu_0, # of connection points: 4
#     Edge 16, Type (0, 0), BuildingBlock: CIFDUS_clean_linker_0, # of connection points: 2
#     Edge 17, Type (0, 0), BuildingBlock: CIFDUS_clean_linker_0, # of connection points: 2
#     Edge 18, Type (0, 0), BuildingBlock: CIFDUS_clean_linker_0, # of connection points: 2
#     Edge 19, Type (0, 0), BuildingBlock: CIFDUS_clean_linker_0, # of connection points: 2
#     Edge 20, Type (0, 0), BuildingBlock: CIFDUS_clean_linker_0, # of connection points: 2
#     Edge 21, Type (0, 0), BuildingBlock: CIFDUS_clean_linker_0, # of connection points: 2
#     Edge 22, Type (0, 0), BuildingBlock: CIFDUS_clean_linker_0, # of connection points: 2
#     Edge 23, Type (0, 0), BuildingBlock: CIFDUS_clean_linker_0, # of connection points: 2
#     Edge 24, Type (0, 0), BuildingBlock: CIFDUS_clean_linker_0, # of connection points: 2
#     Edge 25, Type (0, 0), BuildingBlock: CIFDUS_clean_linker_0, # of connection points: 2
#     Edge 26, Type (0, 0), BuildingBlock: CIFDUS_clean_linker_0, # of connection points: 2
#     Edge 27, Type (0, 0), BuildingBlock: CIFDUS_clean_linker_0, # of connection points: 2
#     Edge 28, Type (0, 0), BuildingBlock: CIFDUS_clean_linker_0, # of connection points: 2
#     Edge 29, Type (0, 0), BuildingBlock: CIFDUS_clean_linker_0, # of connection points: 2
#     Edge 30, Type (0, 0), BuildingBlock: CIFDUS_clean_linker_0, # of connection points: 2
#     Edge 31, Type (0, 0), BuildingBlock: CIFDUS_clean_linker_0, # of connection points: 2
#     Edge 32, Type (0, 0), BuildingBlock: CIFDUS_clean_linker_0, # of connection points: 2
#     Edge 33, Type (0, 0), BuildingBlock: CIFDUS_clean_linker_0, # of connection points: 2
#     Edge 34, Type (0, 0), BuildingBlock: CIFDUS_clean_linker_0, # of connection points: 2
#     Edge 35, Type (0, 0), BuildingBlock: CIFDUS_clean_linker_0, # of connection points: 2
#     Edge 36, Type (0, 0), BuildingBlock: CIFDUS_clean_linker_0, # of connection points: 2
#     Edge 37, Type (0, 0), BuildingBlock: CIFDUS_clean_linker_0, # of connection points: 2
#     Edge 38, Type (0, 0), BuildingBlock: CIFDUS_clean_linker_0, # of connection points: 2
#     Edge 39, Type (0, 0), BuildingBlock: CIFDUS_clean_linker_0, # of connection points: 2
#     Edge 40, Type (0, 0), BuildingBlock: CIFDUS_clean_linker_0, # of connection points: 2
#     Edge 41, Type (0, 0), BuildingBlock: CIFDUS_clean_linker_0, # of connection points: 2
#     Edge 42, Type (0, 0), BuildingBlock: CIFDUS_clean_linker_0, # of connection points: 2
#     Edge 43, Type (0, 0), BuildingBlock: CIFDUS_clean_linker_0, # of connection points: 2
#     Edge 44, Type (0, 0), BuildingBlock: CIFDUS_clean_linker_0, # of connection points: 2
#     Edge 45, Type (0, 0), BuildingBlock: CIFDUS_clean_linker_0, # of connection points: 2
#     Edge 46, Type (0, 0), BuildingBlock: CIFDUS_clean_linker_0, # of connection points: 2
#     Edge 47, Type (0, 0), BuildingBlock: CIFDUS_clean_linker_0, # of connection points: 2
# Relax obj value: 0.021
# Max RMSD: 0.089
# Mean RMSD: 0.078
data_MOF--net-und--node1-KUFVIS_clean_sbu_0--edge1-CIFDUS_clean_linker_0
_symmetry_space_group_name_H-M    P1
_symmetry_Int_Tables_number       1
_symmetry_cell_setting            triclinic
loop_
_symmetry_equiv_pos_as_xyz
'x, y, z'
_cell_length_a     51.912331
_cell_length_b     51.875871
_cell_length_c     19.340163
_cell_angle_alpha  92.53193
_cell_angle_beta   92.586701
_cell_angle_gamma 90.104192
loop_
_atom_site_label
_atom_site_type_symbol
_atom_site_fract_x
_atom_site_fract_y
_atom_site_fract_z
_atom_type_partial_charge
Mn0 Mn 0.26265 0.34335 0.01783 0.0
Mn1 Mn 0.23729 0.36638 0.86896 0.0
C2 C 0.26253 0.31849 0.91524 0.0
C3 C 0.26071 0.32033 0.11879 0.0
C4 C 0.28946 0.38301 0.93037 0.0
O5 O 0.23982 0.37267 0.05387 0.0
O6 O 0.22557 0.38719 0.95061 0.0
C7 C 0.18281 0.35293 0.88989 0.0
N8 N 0.20395 0.35118 0.85078 0.0
C9 C 0.18112 0.32425 0.76378 0.0
C10 C 0.15905 0.3259 0.80295 0.0
C11 C 0.15992 0.34027 0.86632 0.0
C12 C 0.20334 0.33735 0.7898 0.0
H13 H 0.1834 0.36387 0.93874 0.0
C14 C 0.22685 0.38841 0.01711 0.0
O15 O 0.27823 0.3378 0.11199 0.0
O16 O 0.24349 0.31716 0.06833 0.0
N17 N 0.24681 0.34796 0.78606 0.0
C18 C 0.27002 0.34752 0.75579 0.0
C19 C 0.27253 0.33364 0.69245 0.0
C20 C 0.25114 0.32052 0.66069 0.0
C21 C 0.22738 0.32151 0.6924 0.0
C22 C 0.22598 0.33584 0.75521 0.0
H23 H 0.28655 0.35749 0.78009 0.0
O24 O 0.27954 0.31443 0.96475 0.0
O25 O 0.24662 0.33733 0.92644 0.0
O26 O 0.28832 0.36981 0.98432 0.0
O27 O 0.27177 0.38265 0.8823 0.0
C28 C 0.20514 0.30848 0.66475 0.0
C29 C 0.18204 0.30981 0.70049 0.0
H30 H 0.14139 0.31608 0.7851 0.0
H31 H 0.143 0.34154 0.89699 0.0
H32 H 0.29095 0.33292 0.66839 0.0
H33 H 0.25323 0.30957 0.61228 0.0
H34 H 0.20568 0.29712 0.61648 0.0
H35 H 0.16516 0.29945 0.67913 0.0
Mn36 Mn 0.92758 0.02494 0.24622 0.0
Mn37 Mn 0.90128 0.05166 0.38863 0.0
C38 C 0.9496 0.02468 0.35269 0.0
C39 C 0.95442 0.02824 0.15266 0.0
C40 C 0.8856 0.99884 0.32781 0.0
O41 O 0.89969 0.04785 0.20373 0.0
O42 O 0.88291 0.06339 0.3027 0.0
C43 C 0.91623 0.10582 0.36804 0.0
N44 N 0.91661 0.08489 0.40817 0.0
C45 C 0.94174 0.10787 0.49871 0.0
C46 C 0.94146 0.12972 0.45852 0.0
C47 C 0.92868 0.12867 0.39287 0.0
C48 C 0.92884 0.0857 0.47147 0.0
H49 H 0.90655 0.1051 0.3174 0.0
C50 C 0.88348 0.06171 0.23631 0.0
O51 O 0.93723 0.00999 0.15333 0.0
O52 O 0.95496 0.04504 0.20415 0.0
N53 N 0.91742 0.04239 0.47502 0.0
C54 C 0.91732 0.01919 0.50543 0.0
C55 C 0.92992 0.01677 0.57059 0.0
C56 C 0.94244 0.03821 0.6039 0.0
C57 C 0.94219 0.06193 0.5718 0.0
C58 C 0.9291 0.06325 0.5071 0.0
H59 H 0.90812 1.00255 0.47961 0.0
O60 O 0.9547 1.00772 0.30409 0.0
O61 O 0.9315 0.04109 0.33799 0.0
O62 O 0.89986 0.99913 0.27539 0.0
O63 O 0.88502 0.01731 0.37366 0.0
C64 C 0.95494 0.08413 0.6007 0.0
C65 C 0.95473 0.10708 0.56416 0.0
H66 H 0.95119 0.14733 0.4773 0.0
H67 H 0.92849 0.14541 0.3614 0.0
H68 H 0.9302 0.99835 0.59476 0.0
H69 H 0.95244 0.03618 0.65373 0.0
H70 H 0.96529 0.08366 0.65052 0.0
H71 H 0.96489 0.12393 0.58651 0.0
Mn72 Mn 0.269 0.68937 0.49766 0.0
Mn73 Mn 0.23818 0.66788 0.63445 0.0
C74 C 0.27134 0.71258 0.60211 0.0
C75 C 0.26797 0.71354 0.39796 0.0
C76 C 0.28913 0.64588 0.58796 0.0
O77 O 0.24413 0.66249 0.45324 0.0
O78 O 0.22338 0.65118 0.54715 0.0
C79 C 0.18696 0.69077 0.60363 0.0
N80 N 0.20777 0.68784 0.64798 0.0
C81 C 0.18858 0.71453 0.7365 0.0
C82 C 0.16687 0.71772 0.69192 0.0
C83 C 0.16611 0.70586 0.62511 0.0
C84 C 0.2088 0.69934 0.71215 0.0
H85 H 0.1863 0.68166 0.55227 0.0
C86 C 0.22689 0.64964 0.48197 0.0
O87 O 0.28468 0.6952 0.40677 0.0
O88 O 0.25156 0.71721 0.44587 0.0
N89 N 0.25017 0.68235 0.7229 0.0
C90 C 0.27295 0.67825 0.75845 0.0
C91 C 0.2771 0.68936 0.82557 0.0
C92 C 0.25769 0.70429 0.85579 0.0
C93 C 0.23423 0.70786 0.8187 0.0
C94 C 0.23117 0.69624 0.75207 0.0
H95 H 0.28793 0.66674 0.73561 0.0
O96 O 0.28843 0.71604 0.55651 0.0
O97 O 0.25312 0.696 0.58489 0.0
O98 O 0.29206 0.66061 0.53746 0.0
O99 O 0.26949 0.64688 0.62553 0.0
C100 C 0.21391 0.72281 0.84483 0.0
C101 C 0.1911 0.72615 0.80374 0.0
H102 H 0.15076 0.72938 0.70824 0.0
H103 H 0.14947 0.70833 0.5903 0.0
H104 H 0.29525 0.68648 0.85391 0.0
H105 H 0.26103 0.71299 0.90736 0.0
H106 H 0.21577 0.73213 0.89604 0.0
H107 H 0.17578 0.73802 0.82398 0.0
Mn108 Mn 0.57796 1.00429 0.79536 0.0
Mn109 Mn 0.59872 0.03638 0.66 0.0
C110 C 0.55405 1.00379 0.6918 0.0
C111 C 0.55362 1.00378 0.89474 0.0
C112 C 0.62164 0.98538 0.70406 0.0
O113 O 0.60484 0.02913 0.8408 0.0
O114 O 0.61529 0.05092 0.74747 0.0
C115 C 0.57559 0.0874 0.69199 0.0
N116 N 0.57831 0.06659 0.64754 0.0
C117 C 0.54998 0.08516 0.56139 0.0
C118 C 0.54698 0.10686 0.60611 0.0
C119 C 0.5598 0.10795 0.67174 0.0
C120 C 0.56602 0.06531 0.58432 0.0
H121 H 0.58536 0.08829 0.74254 0.0
C122 C 0.61713 0.04697 0.81245 0.0
O123 O 0.57215 0.9874 0.88462 0.0
O124 O 0.55008 0.021 0.84884 0.0
N125 N 0.58383 0.02431 0.57208 0.0
C126 C 0.58784 1.00153 0.53641 0.0
C127 C 0.5759 0.9971 0.47032 0.0
C128 C 0.56014 0.01619 0.44139 0.0
C129 C 0.55653 0.03959 0.47876 0.0
C130 C 0.56907 0.04298 0.54418 0.0
H131 H 0.59994 0.98679 0.55834 0.0
O132 O 0.55093 0.9857 0.73491 0.0
O133 O 0.57112 0.02127 0.7103 0.0
O134 O 0.60676 0.9817 0.75377 0.0
O135 O 0.62031 1.00535 0.6677 0.0
C136 C 0.54062 0.05949 0.45416 0.0
C137 C 0.53731 0.08224 0.49549 0.0
H138 H 0.53473 0.1227 0.59082 0.0
H139 H 0.55749 0.12458 0.70666 0.0
H140 H 0.57875 0.97898 0.44185 0.0
H141 H 0.55075 0.01259 0.39072 0.0
H142 H 0.53056 0.05735 0.40393 0.0
H143 H 0.52476 0.09725 0.4764 0.0
Mn144 Mn 0.7508 0.6949 0.01497 0.0
Mn145 Mn 0.77532 0.67554 0.16931 0.0
C146 C 0.74535 0.71978 0.11585 0.0
C147 C 0.7534 0.71813 0.91342 0.0
C148 C 0.72599 0.65359 0.10253 0.0
O149 O 0.77709 0.66777 0.98435 0.0
O150 O 0.78972 0.65521 0.09067 0.0
C151 C 0.82864 0.69378 0.15201 0.0
N152 N 0.80709 0.69359 0.18959 0.0
C153 C 0.82724 0.72126 0.27957 0.0
C154 C 0.8497 0.72165 0.24198 0.0
C155 C 0.85036 0.70792 0.17781 0.0
C156 C 0.80615 0.70696 0.25104 0.0
H157 H 0.82925 0.68322 0.10275 0.0
C158 C 0.79007 0.65319 0.02443 0.0
O159 O 0.73732 0.69909 0.91729 0.0
O160 O 0.76879 0.72282 0.9672 0.0
N161 N 0.76347 0.69319 0.25084 0.0
C162 C 0.74015 0.6913 0.27988 0.0
C163 C 0.73618 0.70418 0.34391 0.0
C164 C 0.75633 0.71852 0.37793 0.0
C165 C 0.78033 0.71973 0.34777 0.0
C166 C 0.78317 0.70645 0.28394 0.0
H167 H 0.72462 0.68026 0.25407 0.0
O168 O 0.72958 0.7219 0.06252 0.0
O169 O 0.76384 0.70314 0.10909 0.0
O170 O 0.72708 0.6658 0.04651 0.0
O171 O 0.74249 0.65657 0.15326 0.0
C172 C 0.80146 0.73385 0.37811 0.0
C173 C 0.82487 0.73469 0.34391 0.0
H174 H 0.86651 0.73251 0.26173 0.0
H175 H 0.8676 0.7082 0.14838 0.0
H176 H 0.71761 0.7031 0.36691 0.0
H177 H 0.75314 0.72859 0.42705 0.0
H178 H 0.7998 0.74444 0.42724 0.0
H179 H 0.84086 0.74591 0.36728 0.0
Mn180 Mn 0.08115 0.01745 0.76139 0.0
Mn181 Mn 0.1017 0.99679 0.60549 0.0
C182 C 0.05531 0.02157 0.66188 0.0
C183 C 0.05784 0.01067 0.85991 0.0
C184 C 0.1204 0.04662 0.67824 0.0
O185 O 0.11055 0.99328 0.78909 0.0
O186 O 0.12298 0.98178 0.68168 0.0
C187 C 0.08695 0.94189 0.61356 0.0
N188 N 0.08536 0.96447 0.5803 0.0
C189 C 0.0568 0.94537 0.49072 0.0
C190 C 0.05826 0.92187 0.5238 0.0
C191 C 0.07336 0.92014 0.58555 0.0
C192 C 0.07084 0.96635 0.52093 0.0
H193 H 0.09845 0.9405 0.66117 0.0
C194 C 0.12536 0.98112 0.74793 0.0
O195 O 0.07509 0.02887 0.85973 0.0
O196 O 0.05545 0.9956 0.80484 0.0
N197 N 0.08267 0.0097 0.52732 0.0
C198 C 0.08246 0.03403 0.50345 0.0
C199 C 0.0679 0.03914 0.44264 0.0
C200 C 0.05383 0.01918 0.40684 0.0
C201 C 0.05455 0.99425 0.43203 0.0
C202 C 0.0696 0.99026 0.49254 0.0
H203 H 0.09309 0.04947 0.53101 0.0
O204 O 0.05204 0.03667 0.7159 0.0
O205 O 0.07389 1.00499 0.66718 0.0
O206 O 0.10779 0.04436 0.7331 0.0
O207 O 0.1189 0.03032 0.62671 0.0
C208 C 0.04056 0.97331 0.40018 0.0
C209 C 0.04164 0.9489 0.42958 0.0
H210 H 0.04772 0.90508 0.50254 0.0
H211 H 0.07449 0.9021 0.61155 0.0
H212 H 0.06737 0.05846 0.42369 0.0
H213 H 0.04236 0.02327 0.36046 0.0
H214 H 0.02864 0.97585 0.35357 0.0
H215 H 0.03055 0.93302 0.40509 0.0
Mn216 Mn 0.77078 0.34893 0.52283 0.0
Mn217 Mn 0.80122 0.36411 0.37964 0.0
C218 C 0.767 0.32236 0.42453 0.0
C219 C 0.77353 0.3261 0.62549 0.0
C220 C 0.75169 0.39029 0.42435 0.0
O221 O 0.79648 0.3766 0.55912 0.0
O222 O 0.81786 0.38251 0.46208 0.0
C223 C 0.85137 0.33919 0.4109 0.0
N224 N 0.83015 0.3419 0.36789 0.0
C225 C 0.84593 0.31036 0.2853 0.0
C226 C 0.86805 0.30735 0.32851 0.0
C227 C 0.87075 0.32179 0.39165 0.0
C228 C 0.82731 0.32803 0.30716 0.0
H229 H 0.85345 0.3502 0.45957 0.0
C230 C 0.81436 0.38711 0.52661 0.0
O231 O 0.75643 0.34417 0.61708 0.0
O232 O 0.7894 0.32251 0.57664 0.0
N233 N 0.78717 0.34767 0.29566 0.0
C234 C 0.76427 0.35218 0.26111 0.0
C235 C 0.75835 0.33892 0.19747 0.0
C236 C 0.77612 0.32137 0.16969 0.0
C237 C 0.79973 0.31735 0.20565 0.0
C238 C 0.80464 0.33127 0.26859 0.0
H239 H 0.75055 0.36568 0.28211 0.0
O240 O 0.75026 0.32099 0.47186 0.0
O241 O 0.78551 0.339 0.43652 0.0
O242 O 0.74769 0.37706 0.47757 0.0
O243 O 0.77134 0.38701 0.3874 0.0
C244 C 0.81839 0.29976 0.18209 0.0
C245 C 0.84145 0.29622 0.22197 0.0
H246 H 0.88299 0.29388 0.31399 0.0
H247 H 0.8877 0.31948 0.42543 0.0
H248 H 0.74008 0.34213 0.17005 0.0
H249 H 0.77135 0.31095 0.121 0.0
H250 H 0.81505 0.28861 0.13383 0.0
H251 H 0.8555 0.2824 0.20376 0.0
Mn252 Mn 0.42346 1.00798 0.2812 0.0
Mn253 Mn 0.40671 0.975 0.41924 0.0
C254 C 0.45048 1.00736 0.37914 0.0
C255 C 0.44524 0.00847 0.17735 0.0
C256 C 0.38384 0.02716 0.38508 0.0
O257 O 0.39484 0.98419 0.24025 0.0
O258 O 0.38655 0.96232 0.33508 0.0
C259 C 0.42702 0.92388 0.37518 0.0
N260 N 0.42636 0.94394 0.42292 0.0
C261 C 0.45652 0.9229 0.49976 0.0
C262 C 0.4574 0.90193 0.4516 0.0
C263 C 0.44264 0.90247 0.38897 0.0
C264 C 0.44059 0.94369 0.48316 0.0
H265 H 0.41574 0.92425 0.32693 0.0
C266 C 0.3827 0.96685 0.27088 0.0
O267 O 0.42744 0.02531 0.19115 0.0
O268 O 0.44919 0.99084 0.22178 0.0
N269 N 0.42481 0.98509 0.50465 0.0
C270 C 0.42262 1.00729 0.5443 0.0
C271 C 0.43641 0.01001 0.60838 0.0
C272 C 0.45218 0.98983 0.63124 0.0
C273 C 0.45395 0.96707 0.58988 0.0
C274 C 0.43956 0.96537 0.5268 0.0
H275 H 0.41063 0.02291 0.5269 0.0
O276 O 0.45244 0.02569 0.33625 0.0
O277 O 0.43275 0.99017 0.36378 0.0
O278 O 0.39645 0.03086 0.33082 0.0
O279 O 0.38632 1.00691 0.42012 0.0
C280 C 0.46976 0.94618 0.60821 0.0
C281 C 0.47111 0.92414 0.56307 0.0
H282 H 0.46948 0.88541 0.46195 0.0
H283 H 0.44331 0.88642 0.35141 0.0
H284 H 0.43503 0.02768 0.63986 0.0
H285 H 0.46305 0.99212 0.68028 0.0
H286 H 0.48124 0.94701 0.65644 0.0
H287 H 0.48361 0.90835 0.57729 0.0
Mn288 Mn 0.76256 0.84934 0.52688 0.0
Mn289 Mn 0.73606 0.86968 0.37579 0.0
C290 C 0.76688 0.82512 0.42446 0.0
C291 C 0.7611 0.8255 0.62768 0.0
C292 C 0.78635 0.89103 0.43837 0.0
O293 O 0.73657 0.8761 0.56113 0.0
O294 O 0.72266 0.88957 0.45681 0.0
C295 C 0.68306 0.85141 0.39762 0.0
N296 N 0.70404 0.85181 0.35786 0.0
C297 C 0.68264 0.82472 0.26866 0.0
C298 C 0.66075 0.82414 0.3085 0.0
C299 C 0.66101 0.83747 0.37336 0.0
C300 C 0.70409 0.83883 0.29568 0.0
H301 H 0.68315 0.86165 0.44744 0.0
C302 C 0.723 0.89094 0.5232 0.0
O303 O 0.77715 0.84455 0.62333 0.0
O304 O 0.7452 0.8211 0.57485 0.0
N305 N 0.74672 0.85247 0.29227 0.0
C306 C 0.76966 0.85428 0.26121 0.0
C307 C 0.77274 0.84168 0.19635 0.0
C308 C 0.7521 0.82767 0.16361 0.0
C309 C 0.72852 0.82648 0.19592 0.0
C310 C 0.72657 0.83948 0.26051 0.0
H311 H 0.78558 0.86499 0.28612 0.0
O312 O 0.78324 0.82272 0.4764 0.0
O313 O 0.74839 0.84164 0.43352 0.0
O314 O 0.7859 0.87866 0.4943 0.0
O315 O 0.76912 0.88843 0.38928 0.0
C316 C 0.70699 0.81259 0.16707 0.0
C317 C 0.68409 0.81163 0.20353 0.0
H318 H 0.6437 0.81342 0.28996 0.0
H319 H 0.64423 0.83704 0.40453 0.0
H320 H 0.791 0.8427 0.17175 0.0
H321 H 0.75461 0.8178 0.11385 0.0
H322 H 0.70796 0.80224 0.11738 0.0
H323 H 0.6678 0.80057 0.18129 0.0
Mn324 Mn 0.43543 0.51683 0.76448 0.0
Mn325 Mn 0.41314 0.53752 0.91825 0.0
C326 C 0.46064 0.51359 0.86545 0.0
C327 C 0.45906 0.52381 0.66697 0.0
C328 C 0.39609 0.4871 0.84562 0.0
O329 O 0.40579 0.54027 0.73444 0.0
O330 O 0.39216 0.55203 0.84044 0.0
C331 C 0.42681 0.59271 0.91035 0.0
N332 N 0.42864 0.57021 0.94391 0.0
C333 C 0.45628 0.58999 0.03456 0.0
C334 C 0.45455 0.61342 1.00117 0.0
C335 C 0.43979 0.61477 0.93875 0.0
C336 C 0.4428 0.5687 0.00401 0.0
H337 H 0.41559 0.59381 0.86219 0.0
C338 C 0.39042 0.5524 0.77404 0.0
O339 O 0.44222 0.50522 0.66694 0.0
O340 O 0.46095 0.53905 0.72179 0.0
N341 N 0.43187 0.52512 0.99757 0.0
C342 C 0.43262 0.50078 0.02134 0.0
C343 C 0.44709 0.496 0.08254 0.0
C344 C 0.46052 0.51628 0.11878 0.0
C345 C 0.45928 0.54121 0.09362 0.0
C346 C 0.44436 0.54486 0.03268 0.0
H347 H 0.42253 0.48508 0.99337 0.0
O348 O 0.46459 0.4984 0.81204 0.0
O349 O 0.44172 0.52976 0.85865 0.0
O350 O 0.40919 0.48947 0.79174 0.0
O351 O 0.39672 0.5036 0.8967 0.0
C352 C 0.47268 0.56246 0.12582 0.0
C353 C 0.47121 0.58683 0.09627 0.0
H354 H 0.46465 0.63044 0.02269 0.0
H355 H 0.43847 0.63274 0.9125 0.0
H356 H 0.44805 0.47668 0.10144 0.0
H357 H 0.47193 0.51245 0.16546 0.0
H358 H 0.48448 0.56019 0.17279 0.0
H359 H 0.48186 0.60294 0.12102 0.0
Mn360 Mn 0.75144 0.19626 0.00718 0.0
Mn361 Mn 0.71749 0.17749 0.14104 0.0
C362 C 0.75201 0.22098 0.10875 0.0
C363 C 0.75066 0.22095 0.90766 0.0
C364 C 0.76919 0.1539 0.10464 0.0
O365 O 0.72752 0.16865 0.96233 0.0
O366 O 0.70418 0.1596 0.0538 0.0
C367 C 0.66734 0.20074 0.10064 0.0
N368 N 0.68731 0.19828 0.14798 0.0
C369 C 0.66773 0.22799 0.22885 0.0
C370 C 0.64686 0.23071 0.18115 0.0
C371 C 0.6467 0.21707 0.11673 0.0
C372 C 0.6877 0.21138 0.21003 0.0
H373 H 0.66722 0.19037 0.05097 0.0
C374 C 0.70946 0.15653 0.98989 0.0
O375 O 0.76808 0.20323 0.91696 0.0
O376 O 0.73356 0.2232 0.95376 0.0
N377 N 0.7282 0.19319 0.22915 0.0
C378 C 0.7502 0.18915 0.26828 0.0
C379 C 0.75363 0.20178 0.3338 0.0
C380 C 0.73434 0.21823 0.35866 0.0
C381 C 0.71169 0.22175 0.31795 0.0
C382 C 0.70925 0.20848 0.25331 0.0
H383 H 0.76514 0.17662 0.24938 0.0
O384 O 0.76993 0.22369 0.06519 0.0
O385 O 0.73408 0.20419 0.09113 0.0
O386 O 0.77403 0.1678 0.05321 0.0
O387 O 0.74852 0.15609 0.13796 0.0
C388 C 0.69163 0.23827 0.33841 0.0
C389 C 0.6697 0.24143 0.29383 0.0
H390 H 0.63095 0.24337 0.19323 0.0
H391 H 0.63072 0.21917 0.07952 0.0
H392 H 0.77118 0.19898 0.36487 0.0
H393 H 0.7372 0.22818 0.40885 0.0
H394 H 0.69304 0.24889 0.38794 0.0
H395 H 0.65456 0.25443 0.30979 0.0
Mn396 Mn 0.08532 0.50695 0.285 0.0
Mn397 Mn 0.10763 0.53753 0.14878 0.0
C398 C 0.06233 0.50505 0.17991 0.0
C399 C 0.0609 0.50831 0.38438 0.0
C400 C 0.12933 0.48659 0.19705 0.0
O401 O 0.11238 0.53159 0.32992 0.0
O402 O 0.12383 0.55257 0.23639 0.0
C403 C 0.08477 0.58897 0.17682 0.0
N404 N 0.08785 0.56794 0.13336 0.0
C405 C 0.0618 0.58685 0.04296 0.0
C406 C 0.05846 0.60878 0.08662 0.0
C407 C 0.06992 0.60979 0.15392 0.0
C408 C 0.07675 0.56667 0.0687 0.0
H409 H 0.09359 0.58982 0.22854 0.0
C410 C 0.12526 0.54893 0.30153 0.0
O411 O 0.07904 0.49136 0.37585 0.0
O412 O 0.05753 0.52472 0.33627 0.0
N413 N 0.0936 0.52517 0.06022 0.0
C414 C 0.0977 0.50215 0.02584 0.0
C415 C 0.08685 0.49768 0.95853 0.0
C416 C 0.0722 0.51702 0.92694 0.0
C417 C 0.0686 0.54071 0.96289 0.0
C418 C 0.07994 0.54409 0.02978 0.0
H419 H 0.10904 0.48725 0.04972 0.0
O420 O 0.05854 0.48791 0.22525 0.0
O421 O 0.0792 0.52293 0.19766 0.0
O422 O 0.11401 0.48353 0.24616 0.0
O423 O 0.12862 0.50628 0.15956 0.0
C424 C 0.05391 0.56097 0.93538 0.0
C425 C 0.05052 0.58403 0.97537 0.0
H426 H 0.04697 0.62486 0.06921 0.0
H427 H 0.06733 0.62661 0.18801 0.0
H428 H 0.08975 0.47936 0.93107 0.0
H429 H 0.0637 0.51343 0.87522 0.0
H430 H 0.04481 0.55888 0.88391 0.0
H431 H 0.03884 0.59931 0.95407 0.0
Mn432 Mn 0.25453 0.18839 0.49975 0.0
Mn433 Mn 0.28091 0.16539 0.6475 0.0
C434 C 0.25481 0.21309 0.60269 0.0
C435 C 0.256 0.21163 0.39904 0.0
C436 C 0.22865 0.14816 0.58704 0.0
O437 O 0.27754 0.15934 0.4628 0.0
O438 O 0.29325 0.14537 0.56517 0.0
C439 C 0.33508 0.18026 0.62729 0.0
N440 N 0.31388 0.18131 0.66632 0.0
C441 C 0.33612 0.20824 0.75444 0.0
C442 C 0.35822 0.20731 0.71536 0.0
C443 C 0.35768 0.1933 0.65146 0.0
C444 C 0.31419 0.19478 0.72784 0.0
H445 H 0.33474 0.1696 0.57803 0.0
C446 C 0.29155 0.14412 0.49865 0.0
O447 O 0.23862 0.19403 0.40595 0.0
O448 O 0.27334 0.2148 0.44919 0.0
N449 N 0.27093 0.18324 0.73081 0.0
C450 C 0.24762 0.18325 0.76056 0.0
C451 C 0.24475 0.19686 0.82414 0.0
C452 C 0.26588 0.21018 0.85664 0.0
C453 C 0.28973 0.2097 0.82536 0.0
C454 C 0.29149 0.19563 0.76226 0.0
H455 H 0.23128 0.17318 0.73564 0.0
O456 O 0.23761 0.2171 0.55362 0.0
O457 O 0.27085 0.19442 0.59078 0.0
O458 O 0.22918 0.16174 0.53367 0.0
O459 O 0.2468 0.14831 0.63386 0.0
C460 C 0.31169 0.22305 0.85364 0.0
C461 C 0.33485 0.22235 0.81815 0.0
H462 H 0.37566 0.21744 0.73365 0.0
H463 H 0.37463 0.19259 0.62085 0.0
H464 H 0.22625 0.19722 0.84781 0.0
H465 H 0.26351 0.22092 0.90524 0.0
H466 H 0.31086 0.2342 0.90217 0.0
H467 H 0.3515 0.23297 0.83996 0.0
Mn468 Mn 0.5889 0.51302 0.28057 0.0
Mn469 Mn 0.61662 0.48805 0.13836 0.0
C470 C 0.56715 0.51302 0.17377 0.0
C471 C 0.56221 0.50863 0.37359 0.0
C472 C 0.63015 0.54108 0.20122 0.0
O473 O 0.61742 0.4909 0.32294 0.0
O474 O 0.63537 0.47665 0.22431 0.0
C475 C 0.60379 0.43321 0.15708 0.0
N476 N 0.60261 0.45433 0.11764 0.0
C477 C 0.57821 0.43088 0.0265 0.0
C478 C 0.57933 0.40885 0.06597 0.0
C479 C 0.59215 0.41004 0.13157 0.0
C480 C 0.59035 0.45338 0.05438 0.0
H481 H 0.61348 0.43404 0.2077 0.0
C482 C 0.63439 0.47796 0.29065 0.0
O483 O 0.57887 0.52737 0.37337 0.0
O484 O 0.56209 0.49194 0.3218 0.0
N485 N 0.60024 0.4971 0.05208 0.0
C486 C 0.59951 0.52044 0.02237 0.0
C487 C 0.58674 0.52272 0.95738 0.0
C488 C 0.57491 0.501 0.92352 0.0
C489 C 0.57604 0.47715 0.95488 0.0
C490 C 0.58924 0.47599 0.01945 0.0
H491 H 0.60821 0.53727 0.04858 0.0
O492 O 0.56139 0.5296 0.2227 0.0
O493 O 0.58578 0.49715 0.18839 0.0
O494 O 0.61576 0.53986 0.25308 0.0
O495 O 0.63154 0.52297 0.15457 0.0
C496 C 0.56404 0.45463 0.92538 0.0
C497 C 0.56512 0.43152 0.96117 0.0
H498 H 0.57023 0.39098 0.04668 0.0
H499 H 0.59298 0.39315 0.1625 0.0
H500 H 0.5858 0.54124 0.93375 0.0
H501 H 0.56478 0.50292 0.87382 0.0
H502 H 0.55361 0.45497 0.87563 0.0
H503 H 0.55553 0.41442 0.93835 0.0
Mn504 Mn 0.24912 0.84088 0.0043 0.0
Mn505 Mn 0.27646 0.86056 0.86015 0.0
C506 C 0.24441 0.8165 0.90193 0.0
C507 C 0.25225 0.8179 0.10598 0.0
C508 C 0.22721 0.88374 0.9149 0.0
O509 O 0.27499 0.86812 0.04203 0.0
O510 O 0.29364 0.87787 0.94343 0.0
C511 C 0.328 0.83724 0.88249 0.0
N512 N 0.30612 0.84002 0.84202 0.0
C513 C 0.32255 0.81224 0.75141 0.0
C514 C 0.34532 0.80918 0.79197 0.0
C515 C 0.34801 0.82165 0.8579 0.0
C516 C 0.30323 0.8279 0.77881 0.0
H517 H 0.33015 0.84684 0.93313 0.0
C518 C 0.29161 0.88033 0.00913 0.0
O519 O 0.23555 0.83631 0.09825 0.0
O520 O 0.26759 0.81354 0.0558 0.0
N521 N 0.26198 0.84542 0.77502 0.0
C522 C 0.23846 0.84967 0.74345 0.0
C523 C 0.23244 0.83808 0.67768 0.0
C524 C 0.25076 0.82255 0.64467 0.0
C525 C 0.275 0.81884 0.67763 0.0
C526 C 0.27993 0.83094 0.74307 0.0
H527 H 0.22436 0.86171 0.76836 0.0
O528 O 0.2284 0.81365 0.95063 0.0
O529 O 0.26282 0.83322 0.91488 0.0
O530 O 0.2253 0.8693 0.96639 0.0
O531 O 0.24581 0.88218 0.87382 0.0
C532 C 0.29435 0.80337 0.64846 0.0
C533 C 0.31811 0.80007 0.68533 0.0
H534 H 0.36079 0.79715 0.77322 0.0
H535 H 0.36549 0.81929 0.88962 0.0
H536 H 0.21372 0.84111 0.65251 0.0
H537 H 0.24599 0.81351 0.59415 0.0
H538 H 0.29104 0.79365 0.5981 0.0
H539 H 0.33269 0.78782 0.66282 0.0
Mn540 Mn 0.93423 0.53035 0.77924 0.0
Mn541 Mn 0.91415 0.50428 0.92483 0.0
C542 C 0.95853 0.53547 0.88201 0.0
C543 C 0.95739 0.52654 0.67782 0.0
C544 C 0.89104 0.55304 0.86638 0.0
O545 O 0.90716 0.50404 0.74236 0.0
O546 O 0.89708 0.48645 0.84232 0.0
C547 C 0.93734 0.45246 0.90661 0.0
N548 N 0.93455 0.47474 0.94545 0.0
C549 C 0.96201 0.45905 0.03788 0.0
C550 C 0.96507 0.43589 0.99901 0.0
C551 C 0.95276 0.43263 0.93298 0.0
C552 C 0.94651 0.47818 0.00874 0.0
H553 H 0.92785 0.44987 0.8559 0.0
C554 C 0.8949 0.48776 0.77635 0.0
O555 O 0.939 0.5433 0.68463 0.0
O556 O 0.96171 0.51155 0.7289 0.0
N557 N 0.92918 0.51952 0.00919 0.0
C558 C 0.92504 0.54338 0.03885 0.0
C559 C 0.93654 0.55 0.10438 0.0
C560 C 0.95189 0.53193 0.13907 0.0
C561 C 0.95553 0.50736 0.108 0.0
C562 C 0.94352 0.50183 0.04272 0.0
H563 H 0.91313 0.55729 0.01265 0.0
O564 O 0.96147 0.55128 0.8328 0.0
O565 O 0.94164 0.51721 0.86953 0.0
O566 O 0.90569 0.55453 0.81521 0.0
O567 O 0.89256 0.53481 0.90871 0.0
C568 C 0.97084 0.48823 0.1389 0.0
C569 C 0.97407 0.46409 0.10386 0.0
H570 H 0.97698 0.42056 0.01912 0.0
H571 H 0.95512 0.41485 0.90255 0.0
H572 H 0.93359 0.56899 0.12808 0.0
H573 H 0.96087 0.53717 0.18939 0.0
H574 H 0.98049 0.49199 0.18917 0.0
H575 H 0.9862 0.44968 0.12768 0.0
H576 H 0.23265 0.27672 0.13469 0.0
H577 H 0.2919 0.32521 0.23606 0.0
H578 H 0.29639 0.29542 0.33015 0.0
H579 H 0.28384 0.25535 0.38331 0.0
H580 H 0.22458 0.20684 0.28207 0.0
H581 H 0.22001 0.23668 0.18806 0.0
C582 C 0.24638 0.2809 0.17767 0.0
C583 C 0.26183 0.30326 0.17839 0.0
C584 C 0.2491 0.2635 0.23131 0.0
C585 C 0.2797 0.30821 0.23422 0.0
C586 C 0.28237 0.29112 0.28798 0.0
C587 C 0.27007 0.25118 0.34039 0.0
C588 C 0.25468 0.22879 0.33963 0.0
C589 C 0.26731 0.2686 0.28684 0.0
C590 C 0.23676 0.22386 0.28391 0.0
C591 C 0.23405 0.24098 0.2302 0.0
H592 H 0.96824 0.98884 0.43829 0.0
H593 H 0.97369 0.0693 0.39487 0.0
H594 H 1.00617 0.07609 0.48976 0.0
H595 H 0.03383 0.05866 0.58375 0.0
H596 H 0.0295 0.97778 0.62358 0.0
H597 H 0.99533 0.97158 0.53305 0.0
C598 C 0.97641 1.00786 0.4504 0.0
C599 C 0.96805 0.02877 0.41197 0.0
C600 C 0.99516 0.01149 0.50449 0.0
C601 C 0.97925 0.05319 0.42599 0.0
C602 C 0.9979 0.05702 0.47977 0.0
C603 C 0.0253 0.03976 0.57229 0.0
C604 C 0.03454 0.01852 0.60809 0.0
C605 C 1.00601 0.03631 0.51941 0.0
C606 C 0.02309 0.99419 0.59467 0.0
C607 C 1.00353 0.99067 0.54328 0.0
H608 H 0.23111 0.74189 0.63774 0.0
H609 H 0.30976 0.7242 0.69787 0.0
H610 H 0.30799 0.75452 0.79851 0.0
H611 H 0.284 0.78626 0.86813 0.0
H612 H 0.2052 0.80369 0.80898 0.0
H613 H 0.20673 0.7729 0.70914 0.0
C614 C 0.24768 0.74455 0.67357 0.0
C615 C 0.27024 0.73043 0.66258 0.0
C616 C 0.24645 0.76193 0.73078 0.0
C617 C 0.29206 0.73461 0.70692 0.0
C618 C 0.29101 0.75179 0.76427 0.0
C619 C 0.26725 0.78327 0.83301 0.0
C620 C 0.24482 0.7976 0.84361 0.0
C621 C 0.26831 0.76554 0.77658 0.0
C622 C 0.22281 0.79311 0.80015 0.0
C623 C 0.22373 0.77565 0.74328 0.0
H624 H 0.48722 0.97932 0.15009 0.0
H625 H 0.44178 0.04209 0.07146 0.0
H626 H 0.47165 0.04652 0.97809 0.0
H627 H 0.51101 0.03283 0.91977 0.0
H628 H 0.55643 0.9703 1.00003 0.0
H629 H 0.52633 0.96572 0.09232 0.0
C630 C 0.48367 0.99388 0.11229 0.0
C631 C 0.46214 0.01027 0.11767 0.0
C632 C 0.50109 0.99652 0.05945 0.0
C633 C 0.45808 0.02914 0.06845 0.0
C634 C 0.47523 0.03174 0.0152 0.0
C635 C 0.51443 0.01828 0.95766 0.0
C636 C 0.53608 1.00198 0.95301 0.0
C637 C 0.4969 0.01564 0.01046 0.0
C638 C 0.54005 0.98316 1.0024 0.0
C639 C 0.52277 0.98047 0.05509 0.0
H640 H 0.28262 0.7761 0.12878 0.0
H641 H 0.22305 0.82256 0.22006 0.0
H642 H 0.2225 0.79418 0.31759 0.0
H643 H 0.23846 0.75589 0.37616 0.0
H644 H 0.29806 0.70939 0.28527 0.0
H645 H 0.29893 0.73799 0.18812 0.0
C646 C 0.2696 0.78013 0.17018 0.0
C647 C 0.25291 0.8015 0.16706 0.0
C648 C 0.26926 0.76361 0.22592 0.0
C649 C 0.23612 0.80632 0.22111 0.0
C650 C 0.23575 0.79004 0.27684 0.0
C651 C 0.2516 0.75192 0.33501 0.0
C652 C 0.26811 0.73041 0.33792 0.0
C653 C 0.25211 0.76855 0.27958 0.0
C654 C 0.2851 0.72573 0.2843 0.0
C655 C 0.28564 0.74212 0.22878 0.0
H656 H 0.46748 0.04074 0.48178 0.0
H657 H 0.48039 0.96514 0.38916 0.0
H658 H 0.51409 0.95697 0.47818 0.0
H659 H 0.53844 0.97081 0.58594 0.0
H660 H 0.52488 0.04619 0.67925 0.0
H661 H 0.49211 0.05475 0.58839 0.0
C662 C 0.47776 0.02255 0.4815 0.0
C663 C 0.47117 1.00321 0.43117 0.0
C664 C 0.4966 0.01785 0.53349 0.0
C665 C 0.48486 0.97992 0.42929 0.0
C666 C 0.50407 0.97528 0.47991 0.0
C667 C 0.52828 0.98906 0.58581 0.0
C668 C 0.53431 0.00816 0.63733 0.0
C669 C 0.50974 0.99391 0.53307 0.0
C670 C 0.5208 0.03156 0.63848 0.0
C671 C 0.50213 0.03644 0.58677 0.0
H672 H 0.22118 0.23408 0.69253 0.0
H673 H 0.30004 0.23761 0.6334 0.0
H674 H 0.30991 0.2703 0.72595 0.0
H675 H 0.2962 0.29734 0.8258 0.0
H676 H 0.21726 0.29409 0.88434 0.0
H677 H 0.20742 0.26126 0.79209 0.0
C678 C 0.24048 0.24204 0.70033 0.0
C679 C 0.26008 0.23301 0.65812 0.0
C680 C 0.24604 0.26061 0.75412 0.0
C681 C 0.28488 0.24383 0.66702 0.0
C682 C 0.29051 0.26252 0.7197 0.0
C683 C 0.2769 0.2894 0.81796 0.0
C684 C 0.25727 0.29851 0.85998 0.0
C685 C 0.27133 0.27084 0.76417 0.0
C686 C 0.23244 0.28777 0.85094 0.0
C687 C 0.22683 0.269 0.79842 0.0
H688 H 0.04712 0.04728 0.95976 0.0
H689 H 0.02612 0.97039 0.88329 0.0
H690 H 0.99164 0.9692 0.96496 0.0
H691 H 0.96652 0.99049 0.05641 0.0
H692 H 0.98738 0.06761 0.13152 0.0
H693 H 0.0224 0.06832 0.05179 0.0
C694 C 0.03525 0.03012 0.96171 0.0
C695 C 0.03933 0.00891 0.91575 0.0
C696 C 0.01506 0.02976 0.00788 0.0
C697 C 0.02349 0.98697 0.91828 0.0
C698 C 1.00363 0.98632 0.96472 0.0
C699 C 0.97858 1.00752 0.05481 0.0
C700 C 0.97416 0.02901 0.09962 0.0
C701 C 0.99899 1.00773 0.00917 0.0
C702 C 0.99022 0.05082 0.09746 0.0
C703 C 0.01039 0.05122 0.05205 0.0
H704 H 0.78046 0.7627 0.89925 0.0
H705 H 0.72468 0.71183 0.79173 0.0
H706 H 0.72164 0.74072 0.69525 0.0
H707 H 0.73446 0.78071 0.64148 0.0
H708 H 0.79027 0.83159 0.74881 0.0
H709 H 0.79346 0.80261 0.84516 0.0
C710 C 0.76776 0.75781 0.85452 0.0
C711 C 0.75289 0.73498 0.85287 0.0
C712 C 0.76593 0.77469 0.79927 0.0
C713 C 0.73642 0.72916 0.79452 0.0
C714 C 0.7346 0.74575 0.7393 0.0
C715 C 0.74722 0.78557 0.68611 0.0
C716 C 0.76201 0.80845 0.68782 0.0
C717 C 0.74914 0.76865 0.74123 0.0
C718 C 0.77859 0.81422 0.74599 0.0
C719 C 0.78048 0.79759 0.80114 0.0
H720 H 0.72926 0.3092 0.32983 0.0
H721 H 0.80596 0.28928 0.40259 0.0
H722 H 0.80789 0.25504 0.31167 0.0
H723 H 0.78836 0.23234 0.20809 0.0
H724 H 0.71205 0.25277 0.13347 0.0
H725 H 0.70939 0.28592 0.22715 0.0
C726 C 0.74632 0.29731 0.32522 0.0
C727 C 0.7678 0.30204 0.37027 0.0
C728 C 0.74736 0.27807 0.27245 0.0
C729 C 0.78962 0.28627 0.36624 0.0
C730 C 0.79066 0.26673 0.31473 0.0
C731 C 0.77113 0.24396 0.21318 0.0
C732 C 0.75005 0.23979 0.16644 0.0
C733 C 0.76982 0.26278 0.26686 0.0
C734 C 0.72806 0.25529 0.17109 0.0
C735 C 0.72662 0.27423 0.22416 0.0
H736 H 0.79148 0.23662 0.83423 0.0
H737 H 0.71009 0.24838 0.85806 0.0
H738 H 0.71012 0.28341 0.77811 0.0
H739 H 0.73322 0.31118 0.701 0.0
H740 H 0.81448 0.29928 0.67595 0.0
H741 H 0.81465 0.26454 0.75713 0.0
C742 C 0.77371 0.24659 0.821 0.0
C743 C 0.75081 0.23968 0.85173 0.0
C744 C 0.77391 0.26719 0.77562 0.0
C745 C 0.72802 0.25318 0.83496 0.0
C746 C 0.72801 0.27339 0.7895 0.0
C747 C 0.75103 0.3013 0.71439 0.0
C748 C 0.77383 0.30804 0.683 0.0
C749 C 0.75088 0.2808 0.75999 0.0
C750 C 0.79666 0.29461 0.69975 0.0
C751 C 0.79676 0.27457 0.74583 0.0
H752 H 0.78491 0.74938 0.16751 0.0
H753 H 0.70435 0.7339 0.1912 0.0
H754 H 0.704 0.76497 0.2906 0.0
H755 H 0.72704 0.79596 0.37177 0.0
H756 H 0.80755 0.81161 0.34749 0.0
H757 H 0.8078 0.78075 0.2477 0.0
C758 C 0.76737 0.7528 0.19489 0.0
C759 C 0.7449 0.7389 0.17421 0.0
C760 C 0.76737 0.77069 0.25144 0.0
C761 C 0.72196 0.74408 0.20768 0.0
C762 C 0.72181 0.76171 0.26445 0.0
C763 C 0.74452 0.79272 0.34399 0.0
C764 C 0.76703 0.80652 0.36487 0.0
C765 C 0.74445 0.77499 0.28701 0.0
C766 C 0.7899 0.80151 0.33089 0.0
C767 C 0.79 0.784 0.27389 0.0
H768 H 0.54696 0.54854 0.08936 0.0
H769 H 0.54472 0.46767 0.13017 0.0
H770 H 0.51202 0.46019 0.03612 0.0
H771 H 0.48326 0.47707 0.94351 0.0
H772 H 0.48479 0.55821 0.90534 0.0
H773 H 0.51887 0.56525 0.99579 0.0
C774 C 0.53945 0.52928 0.07685 0.0
C775 C 0.54879 0.50849 0.11436 0.0
C776 C 0.52055 0.52524 0.02326 0.0
C777 C 0.53843 0.48373 0.09977 0.0
C778 C 0.51962 0.47951 0.04651 0.0
C779 C 0.49112 0.49623 0.95541 0.0
C780 C 0.48108 0.51727 0.92007 0.0
C781 C 0.51051 0.50013 0.00791 0.0
C782 C 0.49174 0.54193 0.93398 0.0
C783 C 0.51128 0.54593 0.98526 0.0
H784 H 0.01888 0.53835 0.40586 0.0
H785 H 0.06484 0.47853 0.49787 0.0
H786 H 0.03652 0.47843 0.59563 0.0
H787 H 0.99882 0.49554 0.65537 0.0
H788 H 0.95288 0.55527 0.56278 0.0
H789 H 0.98096 0.55503 0.46467 0.0
C790 C 0.02279 0.52532 0.44737 0.0
C791 C 0.04408 0.50853 0.44457 0.0
C792 C 1.00632 0.52526 0.50319 0.0
C793 C 0.04867 0.49169 0.49868 0.0
C794 C 0.03244 0.4916 0.55459 0.0
C795 C 0.99485 0.50843 0.61357 0.0
C796 C 0.9737 0.5254 0.61654 0.0
C797 C 0.0112 0.50829 0.55739 0.0
C798 C 0.96895 0.54199 0.56192 0.0
C799 C 0.98506 0.54191 0.50582 0.0
H800 H 0.03394 0.54616 0.14554 0.0
H801 H 0.04973 0.46728 0.08292 0.0
H802 H 0.01943 0.47019 0.98254 0.0
H803 H 0.98812 0.49518 0.91411 0.0
H804 H 0.97263 0.57423 0.97548 0.0
H805 H 1.00352 0.57161 0.0749 0.0
C806 C 0.03088 0.52978 0.10922 0.0
C807 C 0.04445 0.50681 0.11955 0.0
C808 C 0.01353 0.53168 0.05209 0.0
C809 C 0.03976 0.48527 0.07449 0.0
C810 C 0.02258 0.48699 0.01726 0.0
C811 C 0.99159 0.51177 0.94952 0.0
C812 C 0.97775 0.5346 0.93964 0.0
C813 C 0.00936 0.51008 0.00571 0.0
C814 C 0.98284 0.55635 0.98362 0.0
C815 C 1.00035 0.5548 0.04029 0.0
H816 H 0.47014 0.4876 0.56658 0.0
H817 H 0.49034 0.56451 0.64465 0.0
H818 H 0.52469 0.56638 0.5628 0.0
H819 H 0.54983 0.54575 0.47075 0.0
H820 H 0.52979 0.46865 0.39362 0.0
H821 H 0.49492 0.46717 0.47379 0.0
C822 C 0.48182 0.5049 0.56498 0.0
C823 C 0.47757 0.52592 0.61141 0.0
C824 C 0.50191 0.50567 0.51865 0.0
C825 C 0.49314 0.54807 0.60931 0.0
C826 C 0.5129 0.54912 0.56276 0.0
C827 C 0.53799 0.52855 0.47197 0.0
C828 C 0.54256 0.5073 0.42655 0.0
C829 C 0.5177 0.52791 0.51777 0.0
C830 C 0.52679 0.48526 0.42822 0.0
C831 C 0.50674 0.48442 0.47385 0.0
H832 H 0.16438 0.48769 0.09767 0.0
H833 H 0.13725 0.43924 0.25525 0.0
H834 H 0.16682 0.40504 0.21783 0.0
H835 H 0.19863 0.38794 0.13425 0.0
H836 H 0.22295 0.43697 0.97467 0.0
H837 H 0.19636 0.47191 0.01945 0.0
C838 C 0.16488 0.46976 0.12452 0.0
C839 C 0.14837 0.46613 0.17915 0.0
C840 C 0.1815 0.45018 0.10213 0.0
C841 C 0.14963 0.44266 0.21298 0.0
C842 C 0.16653 0.42305 0.19148 0.0
C843 C 0.19833 0.40643 0.1102 0.0
C844 C 0.21271 0.40987 0.05112 0.0
C845 C 0.18234 0.42645 0.13535 0.0
C846 C 0.21195 0.4338 0.01986 0.0
C847 C 0.19673 0.4538 0.0454 0.0
H848 H 0.80627 0.90568 0.31787 0.0
H849 H 0.81348 0.91957 0.5395 0.0
H850 H 0.84495 0.95386 0.5247 0.0
H851 H 0.86863 0.9813 0.44856 0.0
H852 H 0.86395 0.96546 0.22747 0.0
H853 H 0.83326 0.93041 0.24232 0.0
C854 C 0.81487 0.91603 0.36306 0.0
C855 C 0.80733 0.91011 0.42981 0.0
C856 C 0.8333 0.93544 0.35417 0.0
C857 C 0.81893 0.92362 0.48766 0.0
C858 C 0.83685 0.94333 0.47916 0.0
C859 C 0.86113 0.97008 0.40353 0.0
C860 C 0.86853 0.97621 0.33681 0.0
C861 C 0.84392 0.94962 0.41263 0.0
C862 C 0.85866 0.96122 0.27931 0.0
C863 C 0.84103 0.94121 0.28781 0.0
H864 H 0.29114 0.61633 0.69997 0.0
H865 H 0.33415 0.63409 0.52203 0.0
H866 H 0.36891 0.60548 0.56134 0.0
H867 H 0.38786 0.57673 0.65016 0.0
H868 H 0.34435 0.56181 0.8294 0.0
H869 H 0.30906 0.588 0.78532 0.0
C870 C 0.30798 0.61397 0.66909 0.0
C871 C 0.3099 0.62749 0.60795 0.0
C872 C 0.32794 0.598 0.69254 0.0
C873 C 0.33206 0.624 0.5693 0.0
C874 C 0.35198 0.60765 0.59185 0.0
C875 C 0.37054 0.57908 0.67908 0.0
C876 C 0.36883 0.56738 0.7432 0.0
C877 C 0.35026 0.59473 0.65392 0.0
C878 C 0.34633 0.57076 0.78034 0.0
C879 C 0.32607 0.58571 0.75512 0.0
H880 H 0.67756 0.11972 0.03429 0.0
H881 H 0.70674 0.15007 0.84847 0.0
H882 H 0.68122 0.11832 0.77788 0.0
H883 H 0.65043 0.08259 0.76894 0.0
H884 H 0.62146 0.05179 0.95448 0.0
H885 H 0.64745 0.08315 0.02536 0.0
C886 C 0.67831 0.11951 0.97832 0.0
C887 C 0.69396 0.1374 0.94674 0.0
C888 C 0.66376 0.1011 0.9381 0.0
C889 C 0.69488 0.13657 0.87418 0.0
C890 C 0.68029 0.11842 0.83377 0.0
C891 C 0.64975 0.08261 0.82491 0.0
C892 C 0.63388 0.06485 0.85624 0.0
C893 C 0.66465 0.10067 0.86522 0.0
C894 C 0.6335 0.06516 0.9289 0.0
C895 C 0.64829 0.08315 0.96946 0.0
H896 H 0.1603 0.58311 0.25863 0.0
H897 H 0.12998 0.55308 0.44346 0.0
H898 H 0.15878 0.58158 0.51509 0.0
H899 H 0.19223 0.61504 0.52517 0.0
H900 H 0.22289 0.64462 0.34018 0.0
H901 H 0.19414 0.61609 0.26868 0.0
C902 C 0.15989 0.58274 0.3146 0.0
C903 C 0.14288 0.56595 0.34549 0.0
C904 C 0.17655 0.59907 0.35545 0.0
C905 C 0.14285 0.56573 0.41815 0.0
C906 C 0.1593 0.58206 0.45919 0.0
C907 C 0.19269 0.61533 0.4692 0.0
C908 C 0.20974 0.63207 0.43824 0.0
C909 C 0.17619 0.59881 0.42836 0.0
C910 C 0.21005 0.63196 0.36557 0.0
C911 C 0.19358 0.61566 0.32458 0.0
H912 H 0.65414 0.98657 0.5985 0.0
H913 H 0.633 0.93913 0.76497 0.0
H914 H 0.66389 0.90621 0.72731 0.0
H915 H 0.69579 0.89007 0.64255 0.0
H916 H 0.71433 0.93816 0.47502 0.0
H917 H 0.68575 0.97162 0.51816 0.0
C918 C 0.65622 0.96914 0.62721 0.0
C919 C 0.64107 0.96546 0.68461 0.0
C920 C 0.67367 0.95029 0.60488 0.0
C921 C 0.6443 0.94259 0.72056 0.0
C922 C 0.66199 0.92371 0.69898 0.0
C923 C 0.69374 0.90802 0.61621 0.0
C924 C 0.70715 0.91156 0.55546 0.0
C925 C 0.67666 0.92724 0.64066 0.0
C926 C 0.70411 0.93483 0.52146 0.0
C927 C 0.68776 0.95402 0.5461 0.0
H928 H 0.3799 0.46481 0.96058 0.0
H929 H 0.37156 0.45969 0.73748 0.0
H930 H 0.33814 0.42657 0.74355 0.0
H931 H 0.30944 0.40093 0.81294 0.0
H932 H 0.31974 0.40485 0.03589 0.0
H933 H 0.35428 0.43646 0.02906 0.0
C934 C 0.37097 0.45629 0.91318 0.0
C935 C 0.37813 0.46488 0.84866 0.0
C936 C 0.35199 0.43712 0.91706 0.0
C937 C 0.36651 0.4534 0.7878 0.0
C938 C 0.34727 0.43456 0.79127 0.0
C939 C 0.31936 0.40859 0.85999 0.0
C940 C 0.31181 0.40064 0.9249 0.0
C941 C 0.33956 0.42656 0.85569 0.0
C942 C 0.32512 0.41054 0.98527 0.0
C943 C 0.34484 0.42872 0.98145 0.0
H944 H 0.81593 0.13729 0.05197 0.0
H945 H 0.76533 0.12693 0.22065 0.0
H946 H 0.79535 0.09756 0.27268 0.0
H947 H 0.8363 0.07559 0.27531 0.0
H948 H 0.88783 0.08296 0.10882 0.0
H949 H 0.8572 0.11212 0.05128 0.0
C950 C 0.81147 0.12852 0.09987 0.0
C951 C 0.78824 0.13483 0.13195 0.0
C952 C 0.82901 0.11093 0.13043 0.0
C953 C 0.78289 0.12291 0.19403 0.0
C954 C 0.80012 0.10591 0.22444 0.0
C955 C 0.84087 0.08348 0.22625 0.0
C956 C 0.86438 0.07728 0.19681 0.0
C957 C 0.82327 0.09997 0.19367 0.0
C958 C 0.86977 0.08737 0.13261 0.0
C959 C 0.85231 0.10418 0.0999 0.0
H960 H 0.81949 0.65161 0.90861 0.0
H961 H 0.7953 0.60621 0.07602 0.0
H962 H 0.82311 0.57109 0.03931 0.0
H963 H 0.85583 0.55406 0.96542 0.0
H964 H 0.88254 0.59854 0.79918 0.0
H965 H 0.85219 0.63304 0.82937 0.0
C966 C 0.82015 0.63388 0.93626 0.0
C967 C 0.80545 0.63161 0.99528 0.0
C968 C 0.83676 0.61365 0.91554 0.0
C969 C 0.80661 0.60858 0.03096 0.0
C970 C 0.8225 0.58844 0.01 0.0
C971 C 0.8551 0.57119 0.9352 0.0
C972 C 0.87169 0.57363 0.88025 0.0
C973 C 0.83797 0.59093 0.95329 0.0
C974 C 0.87009 0.59606 0.84187 0.0
C975 C 0.85275 0.61585 0.85922 0.0
H976 H 0.20966 0.13019 0.7057 0.0
H977 H 0.19718 0.12685 0.48331 0.0
H978 H 0.16194 0.09615 0.4923 0.0
H979 H 0.13612 0.06862 0.56241 0.0
H980 H 0.14662 0.07324 0.78512 0.0
H981 H 0.18094 0.10532 0.77698 0.0
C982 C 0.19915 0.12284 0.65925 0.0
C983 C 0.20625 0.1307 0.59383 0.0
C984 C 0.17852 0.10545 0.66484 0.0
C985 C 0.19217 0.1212 0.53427 0.0
C986 C 0.17203 0.10357 0.53934 0.0
C987 C 0.14571 0.07681 0.60931 0.0
C988 C 0.13888 0.06838 0.6743 0.0
C989 C 0.16523 0.09535 0.60423 0.0
C990 C 0.15139 0.07943 0.73447 0.0
C991 C 0.17114 0.09765 0.72979 0.0
H992 H 0.70325 0.40298 0.47246 0.0
H993 H 0.75738 0.4223 0.31884 0.0
H994 H 0.72655 0.4511 0.26699 0.0
H995 H 0.68362 0.46936 0.25889 0.0
H996 H 0.62885 0.45315 0.4121 0.0
H997 H 0.66037 0.42508 0.47017 0.0
C998 C 0.70836 0.41369 0.42816 0.0
C999 C 0.7327 0.40988 0.39956 0.0
C1000 C 0.69034 0.43084 0.39785 0.0
C1001 C 0.73887 0.42426 0.34218 0.0
C1002 C 0.72119 0.44092 0.31199 0.0
C1003 C 0.6786 0.45981 0.30527 0.0
C1004 C 0.6539 0.46312 0.3307 0.0
C1005 C 0.69678 0.44403 0.33847 0.0
C1006 C 0.64782 0.45093 0.3915 0.0
C1007 C 0.66581 0.43478 0.42451 0.0
H1008 H 0.37571 0.96041 0.13031 0.0
H1009 H 0.34597 0.93641 0.32245 0.0
H1010 H 0.31507 0.908 0.25884 0.0
H1011 H 0.29697 0.8891 0.14914 0.0
H1012 H 0.32713 0.91231 0.9567 0.0
H1013 H 0.3572 0.94174 0.02008 0.0
C1014 C 0.36235 0.94911 0.15824 0.0
C1015 C 0.36327 0.95057 0.23104 0.0
C1016 C 0.34469 0.93251 0.12137 0.0
C1017 C 0.34588 0.93562 0.26637 0.0
C1018 C 0.32812 0.91933 0.23008 0.0
C1019 C 0.31004 0.90062 0.12093 0.0
C1020 C 0.30969 0.89838 0.04821 0.0
C1021 C 0.32747 0.91747 0.15762 0.0
C1022 C 0.32691 0.9135 0.01272 0.0
C1023 C 0.34416 0.93042 0.04889 0.0
H1024 H 0.8149 0.40254 0.66354 0.0
H1025 H 0.85294 0.41515 0.47367 0.0
H1026 H 0.8805 0.44783 0.53318 0.0
H1027 H 0.89402 0.47302 0.6391 0.0
H1028 H 0.85658 0.45973 0.8293 0.0
H1029 H 0.82865 0.42737 0.76947 0.0
C1030 C 0.82923 0.41237 0.6351 0.0
C1031 C 0.83169 0.40631 0.56414 0.0
C1032 C 0.84516 0.4312 0.6696 0.0
C1033 C 0.8505 0.41931 0.52835 0.0
C1034 C 0.8663 0.43811 0.56227 0.0
C1035 C 0.87964 0.46317 0.66734 0.0
C1036 C 0.87742 0.46888 0.73851 0.0
C1037 C 0.86376 0.44428 0.63284 0.0
C1038 C 0.85882 0.4557 0.77447 0.0
C1039 C 0.84279 0.43715 0.74034 0.0
H1040 H 0.31035 0.10068 0.553 0.0
H1041 H 0.3082 0.14221 0.36461 0.0
H1042 H 0.3368 0.10998 0.31173 0.0
H1043 H 0.36363 0.07014 0.3212 0.0
H1044 H 0.36327 0.02942 0.51162 0.0
H1045 H 0.33481 0.06125 0.56095 0.0
C1046 C 0.31606 0.1028 0.50026 0.0
C1047 C 0.30725 0.12399 0.46316 0.0
C1048 C 0.33232 0.0843 0.47043 0.0
C1049 C 0.31463 0.12606 0.39446 0.0
C1050 C 0.3311 0.10769 0.36432 0.0
C1051 C 0.35732 0.06828 0.37342 0.0
C1052 C 0.36595 0.04728 0.41234 0.0
C1053 C 0.34031 0.08675 0.40211 0.0
C1054 C 0.35724 0.0452 0.47989 0.0
C1055 C 0.34082 0.06346 0.50857 0.0
H1056 H 0.64722 0.56025 0.08248 0.0
H1057 H 0.64971 0.57448 0.30417 0.0
H1058 H 0.6789 0.61104 0.29301 0.0
H1059 H 0.70534 0.6376 0.22063 0.0
H1060 H 0.70061 0.62498 0.99839 0.0
H1061 H 0.67036 0.58933 0.00939 0.0
C1062 C 0.65395 0.57143 0.12842 0.0
C1063 C 0.64638 0.56443 0.19423 0.0
C1064 C 0.67033 0.59273 0.12146 0.0
C1065 C 0.65517 0.57939 0.25297 0.0
C1066 C 0.67194 0.60027 0.2466 0.0
C1067 C 0.69753 0.62722 0.17449 0.0
C1068 C 0.70542 0.63391 0.10871 0.0
C1069 C 0.67987 0.60693 0.18117 0.0
C1070 C 0.69485 0.62036 0.04955 0.0
C1071 C 0.67764 0.59986 0.05587 0.0
H1072 H 0.2246 0.91546 0.80748 0.0
H1073 H 0.18302 0.89469 0.98533 0.0
H1074 H 0.14828 0.92436 0.95244 0.0
H1075 H 0.12877 0.95482 0.86874 0.0
H1076 H 0.17104 0.97308 0.68983 0.0
H1077 H 0.20642 0.94585 0.72801 0.0
C1078 C 0.20807 0.91739 0.83969 0.0
C1079 C 0.20651 0.90268 0.89881 0.0
C1080 C 0.18816 0.93407 0.82004 0.0
C1081 C 0.1848 0.90567 0.93945 0.0
C1082 C 0.16489 0.92264 0.9206 0.0
C1083 C 0.14587 0.95298 0.83871 0.0
C1084 C 0.14716 0.96586 0.77626 0.0
C1085 C 0.16622 0.93675 0.86042 0.0
C1086 C 0.16938 0.96318 0.73762 0.0
C1087 C 0.18969 0.94763 0.75943 0.0
loop_
_geom_bond_atom_site_label_1
_geom_bond_atom_site_label_2
_geom_bond_distance
_geom_bond_site_symmetry_2
_ccdc_geom_bond_type
Mn0 O5 2.095 . S
Mn0 O15 2.162 . S
Mn0 O16 2.297 . S
Mn0 O24 2.385 1_554 S
Mn0 O25 2.209 1_554 S
Mn0 O26 2.094 . S
Mn1 O6 2.121 . S
Mn1 N8 2.257 . S
Mn1 N17 2.282 . S
Mn1 O25 2.215 . S
Mn1 O27 2.117 . S
C2 O24 1.234 . S
C2 O25 1.283 . S
C3 O15 1.281 . S
C3 O16 1.236 . S
C4 O26 1.240 1_556 S
C4 O27 1.264 . S
O5 Mn0 2.095 . S
O5 C14 1.250 . S
O6 Mn1 2.121 . S
O6 C14 1.258 1_556 S
C7 N8 1.326 . S
C7 C11 1.460 . S
C7 H13 0.929 . S
N8 Mn1 2.257 . S
N8 C7 1.326 . S
N8 C12 1.362 . S
C9 C10 1.258 . S
C9 C12 1.431 . S
C9 C29 1.449 . S
C10 C9 1.258 . S
C10 C11 1.477 . S
C10 H30 0.931 . S
C11 C7 1.460 . S
C11 C10 1.477 . S
C11 H31 0.930 . S
C12 N8 1.362 . S
C12 C9 1.431 . S
C12 C22 1.476 . S
H13 C7 0.929 . S
C14 O5 1.250 . S
C14 O6 1.258 1_554 S
O15 Mn0 2.162 . S
O15 C3 1.281 . S
O16 Mn0 2.297 . S
O16 C3 1.236 . S
N17 Mn1 2.282 . S
N17 C18 1.328 . S
N17 C22 1.318 . S
C18 N17 1.328 . S
C18 C19 1.457 . S
C18 H23 0.929 . S
C19 C18 1.457 . S
C19 C20 1.291 . S
C19 H32 0.931 . S
C20 C19 1.291 . S
C20 C21 1.373 . S
C20 H33 0.929 . S
C21 C20 1.373 . S
C21 C22 1.396 . S
C21 C28 1.403 . S
C22 C12 1.476 . S
C22 N17 1.318 . S
C22 C21 1.396 . S
H23 C18 0.929 . S
O24 Mn0 2.385 1_556 S
O24 C2 1.234 . S
O25 Mn0 2.209 1_556 S
O25 Mn1 2.215 . S
O25 C2 1.283 . S
O26 Mn0 2.094 . S
O26 C4 1.240 1_554 S
O27 Mn1 2.117 . S
O27 C4 1.264 . S
C28 C21 1.403 . S
C28 C29 1.399 . S
C28 H34 0.929 . S
C29 C9 1.449 . S
C29 C28 1.399 . S
C29 H35 0.930 . S
H30 C10 0.931 . S
H31 C11 0.930 . S
H32 C19 0.931 . S
H33 C20 0.929 . S
H34 C28 0.929 . S
H35 C29 0.930 . S
Mn36 O41 2.095 . S
Mn36 O51 2.162 1_545 S
Mn36 O52 2.297 . S
Mn36 O60 2.385 1_545 S
Mn36 O61 2.209 . S
Mn36 O62 2.094 1_545 S
Mn37 O42 2.121 . S
Mn37 N44 2.257 . S
Mn37 N53 2.282 . S
Mn37 O61 2.215 . S
Mn37 O63 2.117 1_545 S
C38 O60 1.234 1_545 S
C38 O61 1.283 . S
C39 O51 1.281 1_545 S
C39 O52 1.236 . S
C40 O62 1.240 . S
C40 O63 1.264 . S
O41 Mn36 2.095 . S
O41 C50 1.250 . S
O42 Mn37 2.121 . S
O42 C50 1.258 . S
C43 N44 1.326 . S
C43 C47 1.460 . S
C43 H49 0.929 . S
N44 Mn37 2.257 . S
N44 C43 1.326 . S
N44 C48 1.362 . S
C45 C46 1.258 . S
C45 C48 1.431 . S
C45 C65 1.449 . S
C46 C45 1.258 . S
C46 C47 1.477 . S
C46 H66 0.931 . S
C47 C43 1.460 . S
C47 C46 1.477 . S
C47 H67 0.930 . S
C48 N44 1.362 . S
C48 C45 1.431 . S
C48 C58 1.476 . S
H49 C43 0.929 . S
C50 O41 1.250 . S
C50 O42 1.258 . S
O51 Mn36 2.162 1_565 S
O51 C39 1.281 1_565 S
O52 Mn36 2.297 . S
O52 C39 1.236 . S
N53 Mn37 2.282 . S
N53 C54 1.328 1_545 S
N53 C58 1.318 . S
C54 N53 1.328 1_565 S
C54 C55 1.457 . S
C54 H59 0.929 . S
C55 C54 1.457 . S
C55 C56 1.293 1_565 S
C55 H68 0.931 . S
C56 C55 1.293 1_545 S
C56 C57 1.370 . S
C56 H69 0.930 1_545 S
C57 C56 1.370 . S
C57 C58 1.396 . S
C57 C64 1.403 . S
C58 C48 1.476 . S
C58 N53 1.318 . S
C58 C57 1.396 . S
H59 C54 0.929 . S
O60 Mn36 2.385 1_565 S
O60 C38 1.234 1_565 S
O61 Mn36 2.209 . S
O61 Mn37 2.215 . S
O61 C38 1.283 . S
O62 Mn36 2.094 1_565 S
O62 C40 1.240 . S
O63 Mn37 2.117 1_565 S
O63 C40 1.264 . S
C64 C57 1.403 . S
C64 C65 1.399 . S
C64 H70 0.929 . S
C65 C45 1.449 . S
C65 C64 1.399 . S
C65 H71 0.930 . S
H66 C46 0.931 . S
H67 C47 0.930 . S
H68 C55 0.931 . S
H69 C56 0.930 1_565 S
H70 C64 0.929 . S
H71 C65 0.930 . S
Mn72 O77 2.095 . S
Mn72 O87 2.162 . S
Mn72 O88 2.297 . S
Mn72 O96 2.385 . S
Mn72 O97 2.209 . S
Mn72 O98 2.094 . S
Mn73 O78 2.121 . S
Mn73 N80 2.257 . S
Mn73 N89 2.282 . S
Mn73 O97 2.215 . S
Mn73 O99 2.117 . S
C74 O96 1.234 . S
C74 O97 1.283 . S
C75 O87 1.281 . S
C75 O88 1.236 . S
C76 O98 1.240 . S
C76 O99 1.264 . S
O77 Mn72 2.095 . S
O77 C86 1.250 . S
O78 Mn73 2.121 . S
O78 C86 1.258 . S
C79 N80 1.326 . S
C79 C83 1.460 . S
C79 H85 0.929 . S
N80 Mn73 2.257 . S
N80 C79 1.326 . S
N80 C84 1.362 . S
C81 C82 1.258 . S
C81 C84 1.431 . S
C81 C101 1.449 . S
C82 C81 1.258 . S
C82 C83 1.477 . S
C82 H102 0.931 . S
C83 C79 1.460 . S
C83 C82 1.477 . S
C83 H103 0.930 . S
C84 N80 1.362 . S
C84 C81 1.431 . S
C84 C94 1.476 . S
H85 C79 0.929 . S
C86 O77 1.250 . S
C86 O78 1.258 . S
O87 Mn72 2.162 . S
O87 C75 1.281 . S
O88 Mn72 2.297 . S
O88 C75 1.236 . S
N89 Mn73 2.282 . S
N89 C90 1.328 . S
N89 C94 1.318 . S
C90 N89 1.328 . S
C90 C91 1.457 . S
C90 H95 0.929 . S
C91 C90 1.457 . S
C91 C92 1.291 . S
C91 H104 0.931 . S
C92 C91 1.291 . S
C92 C93 1.373 . S
C92 H105 0.929 . S
C93 C92 1.373 . S
C93 C94 1.396 . S
C93 C100 1.403 . S
C94 C84 1.476 . S
C94 N89 1.318 . S
C94 C93 1.396 . S
H95 C90 0.929 . S
O96 Mn72 2.385 . S
O96 C74 1.234 . S
O97 Mn72 2.209 . S
O97 Mn73 2.215 . S
O97 C74 1.283 . S
O98 Mn72 2.094 . S
O98 C76 1.240 . S
O99 Mn73 2.117 . S
O99 C76 1.264 . S
C100 C93 1.403 . S
C100 C101 1.399 . S
C100 H106 0.929 . S
C101 C81 1.449 . S
C101 C100 1.399 . S
C101 H107 0.930 . S
H102 C82 0.931 . S
H103 C83 0.930 . S
H104 C91 0.931 . S
H105 C92 0.929 . S
H106 C100 0.929 . S
H107 C101 0.930 . S
Mn108 O113 2.095 . S
Mn108 O123 2.162 1_545 S
Mn108 O124 2.297 . S
Mn108 O132 2.385 1_545 S
Mn108 O133 2.209 . S
Mn108 O134 2.094 1_545 S
Mn109 O114 2.121 . S
Mn109 N116 2.257 . S
Mn109 N125 2.282 . S
Mn109 O133 2.215 . S
Mn109 O135 2.117 1_545 S
C110 O132 1.234 1_545 S
C110 O133 1.283 . S
C111 O123 1.281 1_545 S
C111 O124 1.236 . S
C112 O134 1.240 . S
C112 O135 1.264 . S
O113 Mn108 2.095 . S
O113 C122 1.250 . S
O114 Mn109 2.121 . S
O114 C122 1.258 . S
C115 N116 1.326 . S
C115 C119 1.460 . S
C115 H121 0.929 . S
N116 Mn109 2.257 . S
N116 C115 1.326 . S
N116 C120 1.362 . S
C117 C118 1.258 . S
C117 C120 1.431 . S
C117 C137 1.449 . S
C118 C117 1.258 . S
C118 C119 1.477 . S
C118 H138 0.931 . S
C119 C115 1.460 . S
C119 C118 1.477 . S
C119 H139 0.930 . S
C120 N116 1.362 . S
C120 C117 1.431 . S
C120 C130 1.476 . S
H121 C115 0.929 . S
C122 O113 1.250 . S
C122 O114 1.258 . S
O123 Mn108 2.162 1_565 S
O123 C111 1.281 1_565 S
O124 Mn108 2.297 . S
O124 C111 1.236 . S
N125 Mn109 2.282 . S
N125 C126 1.328 1_545 S
N125 C130 1.318 . S
C126 N125 1.328 1_565 S
C126 C127 1.457 . S
C126 H131 0.929 . S
C127 C126 1.457 . S
C127 C128 1.291 . S
C127 H140 0.931 . S
C128 C127 1.291 . S
C128 C129 1.373 1_565 S
C128 H141 0.929 . S
C129 C128 1.373 1_545 S
C129 C130 1.396 . S
C129 C136 1.403 . S
C130 C120 1.476 . S
C130 N125 1.318 . S
C130 C129 1.396 . S
H131 C126 0.929 . S
O132 Mn108 2.385 1_565 S
O132 C110 1.234 1_565 S
O133 Mn108 2.209 . S
O133 Mn109 2.215 . S
O133 C110 1.283 . S
O134 Mn108 2.094 1_565 S
O134 C112 1.240 . S
O135 Mn109 2.117 1_565 S
O135 C112 1.264 . S
C136 C129 1.403 . S
C136 C137 1.399 . S
C136 H142 0.929 . S
C137 C117 1.449 . S
C137 C136 1.399 . S
C137 H143 0.930 . S
H138 C118 0.931 . S
H139 C119 0.930 . S
H140 C127 0.931 . S
H141 C128 0.929 . S
H142 C136 0.929 . S
H143 C137 0.930 . S
Mn144 O149 2.095 1_554 S
Mn144 O159 2.162 1_554 S
Mn144 O160 2.297 1_554 S
Mn144 O168 2.385 . S
Mn144 O169 2.209 . S
Mn144 O170 2.094 . S
Mn145 O150 2.121 . S
Mn145 N152 2.257 . S
Mn145 N161 2.282 . S
Mn145 O169 2.215 . S
Mn145 O171 2.117 . S
C146 O168 1.234 . S
C146 O169 1.283 . S
C147 O159 1.281 . S
C147 O160 1.236 . S
C148 O170 1.240 . S
C148 O171 1.264 . S
O149 Mn144 2.095 1_556 S
O149 C158 1.250 . S
O150 Mn145 2.121 . S
O150 C158 1.258 1_554 S
C151 N152 1.326 . S
C151 C155 1.460 . S
C151 H157 0.929 . S
N152 Mn145 2.257 . S
N152 C151 1.326 . S
N152 C156 1.362 . S
C153 C154 1.258 . S
C153 C156 1.431 . S
C153 C173 1.449 . S
C154 C153 1.258 . S
C154 C155 1.477 . S
C154 H174 0.931 . S
C155 C151 1.460 . S
C155 C154 1.477 . S
C155 H175 0.930 . S
C156 N152 1.362 . S
C156 C153 1.431 . S
C156 C166 1.476 . S
H157 C151 0.929 . S
C158 O149 1.250 . S
C158 O150 1.258 1_556 S
O159 Mn144 2.162 1_556 S
O159 C147 1.281 . S
O160 Mn144 2.297 1_556 S
O160 C147 1.236 . S
N161 Mn145 2.282 . S
N161 C162 1.328 . S
N161 C166 1.318 . S
C162 N161 1.328 . S
C162 C163 1.457 . S
C162 H167 0.929 . S
C163 C162 1.457 . S
C163 C164 1.291 . S
C163 H176 0.931 . S
C164 C163 1.291 . S
C164 C165 1.373 . S
C164 H177 0.929 . S
C165 C164 1.373 . S
C165 C166 1.396 . S
C165 C172 1.403 . S
C166 C156 1.476 . S
C166 N161 1.318 . S
C166 C165 1.396 . S
H167 C162 0.929 . S
O168 Mn144 2.385 . S
O168 C146 1.234 . S
O169 Mn144 2.209 . S
O169 Mn145 2.215 . S
O169 C146 1.283 . S
O170 Mn144 2.094 . S
O170 C148 1.240 . S
O171 Mn145 2.117 . S
O171 C148 1.264 . S
C172 C165 1.403 . S
C172 C173 1.399 . S
C172 H178 0.929 . S
C173 C153 1.449 . S
C173 C172 1.399 . S
C173 H179 0.930 . S
H174 C154 0.931 . S
H175 C155 0.930 . S
H176 C163 0.931 . S
H177 C164 0.929 . S
H178 C172 0.929 . S
H179 C173 0.930 . S
Mn180 O185 2.095 1_545 S
Mn180 O195 2.162 . S
Mn180 O196 2.297 1_545 S
Mn180 O204 2.385 . S
Mn180 O205 2.209 1_545 S
Mn180 O206 2.094 . S
Mn181 O186 2.121 . S
Mn181 N188 2.257 . S
Mn181 N197 2.282 1_565 S
Mn181 O205 2.215 . S
Mn181 O207 2.117 1_565 S
C182 O204 1.234 . S
C182 O205 1.283 1_545 S
C183 O195 1.281 . S
C183 O196 1.236 1_545 S
C184 O206 1.240 . S
C184 O207 1.264 . S
O185 Mn180 2.095 1_565 S
O185 C194 1.250 . S
O186 Mn181 2.121 . S
O186 C194 1.258 . S
C187 N188 1.326 . S
C187 C191 1.460 . S
C187 H193 0.929 . S
N188 Mn181 2.257 . S
N188 C187 1.326 . S
N188 C192 1.362 . S
C189 C190 1.258 . S
C189 C192 1.431 . S
C189 C209 1.449 . S
C190 C189 1.258 . S
C190 C191 1.477 . S
C190 H210 0.931 . S
C191 C187 1.460 . S
C191 C190 1.477 . S
C191 H211 0.930 . S
C192 N188 1.362 . S
C192 C189 1.431 . S
C192 C202 1.476 . S
H193 C187 0.929 . S
C194 O185 1.250 . S
C194 O186 1.258 . S
O195 Mn180 2.162 . S
O195 C183 1.281 . S
O196 Mn180 2.297 1_565 S
O196 C183 1.236 1_565 S
N197 Mn181 2.282 1_545 S
N197 C198 1.328 . S
N197 C202 1.318 1_545 S
C198 N197 1.328 . S
C198 C199 1.457 . S
C198 H203 0.929 . S
C199 C198 1.457 . S
C199 C200 1.291 . S
C199 H212 0.931 . S
C200 C199 1.291 . S
C200 C201 1.373 1_545 S
C200 H213 0.929 . S
C201 C200 1.373 1_565 S
C201 C202 1.396 . S
C201 C208 1.403 . S
C202 C192 1.476 . S
C202 N197 1.318 1_565 S
C202 C201 1.396 . S
H203 C198 0.929 . S
O204 Mn180 2.385 . S
O204 C182 1.234 . S
O205 Mn180 2.209 1_565 S
O205 Mn181 2.215 . S
O205 C182 1.283 1_565 S
O206 Mn180 2.094 . S
O206 C184 1.240 . S
O207 Mn181 2.117 1_545 S
O207 C184 1.264 . S
C208 C201 1.403 . S
C208 C209 1.399 . S
C208 H214 0.929 . S
C209 C189 1.449 . S
C209 C208 1.399 . S
C209 H215 0.930 . S
H210 C190 0.931 . S
H211 C191 0.930 . S
H212 C199 0.931 . S
H213 C200 0.929 . S
H214 C208 0.929 . S
H215 C209 0.930 . S
Mn216 O221 2.095 . S
Mn216 O231 2.162 . S
Mn216 O232 2.297 . S
Mn216 O240 2.385 . S
Mn216 O241 2.209 . S
Mn216 O242 2.094 . S
Mn217 O222 2.121 . S
Mn217 N224 2.257 . S
Mn217 N233 2.282 . S
Mn217 O241 2.215 . S
Mn217 O243 2.117 . S
C218 O240 1.234 . S
C218 O241 1.283 . S
C219 O231 1.281 . S
C219 O232 1.236 . S
C220 O242 1.240 . S
C220 O243 1.264 . S
O221 Mn216 2.095 . S
O221 C230 1.250 . S
O222 Mn217 2.121 . S
O222 C230 1.258 . S
C223 N224 1.326 . S
C223 C227 1.460 . S
C223 H229 0.929 . S
N224 Mn217 2.257 . S
N224 C223 1.326 . S
N224 C228 1.362 . S
C225 C226 1.258 . S
C225 C228 1.431 . S
C225 C245 1.449 . S
C226 C225 1.258 . S
C226 C227 1.477 . S
C226 H246 0.931 . S
C227 C223 1.460 . S
C227 C226 1.477 . S
C227 H247 0.930 . S
C228 N224 1.362 . S
C228 C225 1.431 . S
C228 C238 1.476 . S
H229 C223 0.929 . S
C230 O221 1.250 . S
C230 O222 1.258 . S
O231 Mn216 2.162 . S
O231 C219 1.281 . S
O232 Mn216 2.297 . S
O232 C219 1.236 . S
N233 Mn217 2.282 . S
N233 C234 1.328 . S
N233 C238 1.318 . S
C234 N233 1.328 . S
C234 C235 1.457 . S
C234 H239 0.929 . S
C235 C234 1.457 . S
C235 C236 1.291 . S
C235 H248 0.931 . S
C236 C235 1.291 . S
C236 C237 1.373 . S
C236 H249 0.929 . S
C237 C236 1.373 . S
C237 C238 1.396 . S
C237 C244 1.403 . S
C238 C228 1.476 . S
C238 N233 1.318 . S
C238 C237 1.396 . S
H239 C234 0.929 . S
O240 Mn216 2.385 . S
O240 C218 1.234 . S
O241 Mn216 2.209 . S
O241 Mn217 2.215 . S
O241 C218 1.283 . S
O242 Mn216 2.094 . S
O242 C220 1.240 . S
O243 Mn217 2.117 . S
O243 C220 1.264 . S
C244 C237 1.403 . S
C244 C245 1.399 . S
C244 H250 0.929 . S
C245 C225 1.449 . S
C245 C244 1.399 . S
C245 H251 0.930 . S
H246 C226 0.931 . S
H247 C227 0.930 . S
H248 C235 0.931 . S
H249 C236 0.929 . S
H250 C244 0.929 . S
H251 C245 0.930 . S
Mn252 O257 2.095 1_545 S
Mn252 O267 2.162 . S
Mn252 O268 2.297 1_545 S
Mn252 O276 2.385 . S
Mn252 O277 2.209 1_545 S
Mn252 O278 2.094 . S
Mn253 O258 2.121 . S
Mn253 N260 2.257 . S
Mn253 N269 2.282 1_565 S
Mn253 O277 2.215 . S
Mn253 O279 2.117 1_565 S
C254 O276 1.234 . S
C254 O277 1.283 1_545 S
C255 O267 1.281 . S
C255 O268 1.236 1_545 S
C256 O278 1.240 . S
C256 O279 1.264 . S
O257 Mn252 2.095 1_565 S
O257 C266 1.250 . S
O258 Mn253 2.121 . S
O258 C266 1.258 . S
C259 N260 1.326 . S
C259 C263 1.460 . S
C259 H265 0.929 . S
N260 Mn253 2.257 . S
N260 C259 1.326 . S
N260 C264 1.362 . S
C261 C262 1.258 . S
C261 C264 1.431 . S
C261 C281 1.449 . S
C262 C261 1.258 . S
C262 C263 1.477 . S
C262 H282 0.931 . S
C263 C259 1.460 . S
C263 C262 1.477 . S
C263 H283 0.930 . S
C264 N260 1.362 . S
C264 C261 1.431 . S
C264 C274 1.476 . S
H265 C259 0.929 . S
C266 O257 1.250 . S
C266 O258 1.258 . S
O267 Mn252 2.162 . S
O267 C255 1.281 . S
O268 Mn252 2.297 1_565 S
O268 C255 1.236 1_565 S
N269 Mn253 2.282 1_545 S
N269 C270 1.328 . S
N269 C274 1.318 1_545 S
C270 N269 1.328 . S
C270 C271 1.457 . S
C270 H275 0.929 . S
C271 C270 1.457 . S
C271 C272 1.291 . S
C271 H284 0.931 . S
C272 C271 1.291 . S
C272 C273 1.373 1_545 S
C272 H285 0.929 . S
C273 C272 1.373 1_565 S
C273 C274 1.396 . S
C273 C280 1.403 . S
C274 C264 1.476 . S
C274 N269 1.318 1_565 S
C274 C273 1.396 . S
H275 C270 0.929 . S
O276 Mn252 2.385 . S
O276 C254 1.234 . S
O277 Mn252 2.209 1_565 S
O277 Mn253 2.215 . S
O277 C254 1.283 1_565 S
O278 Mn252 2.094 . S
O278 C256 1.240 . S
O279 Mn253 2.117 1_545 S
O279 C256 1.264 . S
C280 C273 1.403 . S
C280 C281 1.399 . S
C280 H286 0.929 . S
C281 C261 1.449 . S
C281 C280 1.399 . S
C281 H287 0.930 . S
H282 C262 0.931 . S
H283 C263 0.930 . S
H284 C271 0.931 . S
H285 C272 0.929 . S
H286 C280 0.929 . S
H287 C281 0.930 . S
Mn288 O293 2.095 . S
Mn288 O303 2.162 . S
Mn288 O304 2.297 . S
Mn288 O312 2.385 . S
Mn288 O313 2.209 . S
Mn288 O314 2.094 . S
Mn289 O294 2.121 . S
Mn289 N296 2.257 . S
Mn289 N305 2.282 . S
Mn289 O313 2.215 . S
Mn289 O315 2.117 . S
C290 O312 1.234 . S
C290 O313 1.283 . S
C291 O303 1.281 . S
C291 O304 1.236 . S
C292 O314 1.240 . S
C292 O315 1.264 . S
O293 Mn288 2.095 . S
O293 C302 1.250 . S
O294 Mn289 2.121 . S
O294 C302 1.258 . S
C295 N296 1.326 . S
C295 C299 1.460 . S
C295 H301 0.929 . S
N296 Mn289 2.257 . S
N296 C295 1.326 . S
N296 C300 1.362 . S
C297 C298 1.258 . S
C297 C300 1.431 . S
C297 C317 1.449 . S
C298 C297 1.258 . S
C298 C299 1.477 . S
C298 H318 0.931 . S
C299 C295 1.460 . S
C299 C298 1.477 . S
C299 H319 0.930 . S
C300 N296 1.362 . S
C300 C297 1.431 . S
C300 C310 1.476 . S
H301 C295 0.929 . S
C302 O293 1.250 . S
C302 O294 1.258 . S
O303 Mn288 2.162 . S
O303 C291 1.281 . S
O304 Mn288 2.297 . S
O304 C291 1.236 . S
N305 Mn289 2.282 . S
N305 C306 1.328 . S
N305 C310 1.318 . S
C306 N305 1.328 . S
C306 C307 1.457 . S
C306 H311 0.929 . S
C307 C306 1.457 . S
C307 C308 1.291 . S
C307 H320 0.931 . S
C308 C307 1.291 . S
C308 C309 1.373 . S
C308 H321 0.929 . S
C309 C308 1.373 . S
C309 C310 1.396 . S
C309 C316 1.403 . S
C310 C300 1.476 . S
C310 N305 1.318 . S
C310 C309 1.396 . S
H311 C306 0.929 . S
O312 Mn288 2.385 . S
O312 C290 1.234 . S
O313 Mn288 2.209 . S
O313 Mn289 2.215 . S
O313 C290 1.283 . S
O314 Mn288 2.094 . S
O314 C292 1.240 . S
O315 Mn289 2.117 . S
O315 C292 1.264 . S
C316 C309 1.403 . S
C316 C317 1.399 . S
C316 H322 0.929 . S
C317 C297 1.449 . S
C317 C316 1.399 . S
C317 H323 0.930 . S
H318 C298 0.931 . S
H319 C299 0.930 . S
H320 C307 0.931 . S
H321 C308 0.929 . S
H322 C316 0.929 . S
H323 C317 0.930 . S
Mn324 O329 2.095 . S
Mn324 O339 2.162 . S
Mn324 O340 2.297 . S
Mn324 O348 2.385 . S
Mn324 O349 2.209 . S
Mn324 O350 2.094 . S
Mn325 O330 2.121 . S
Mn325 N332 2.257 . S
Mn325 N341 2.282 . S
Mn325 O349 2.215 . S
Mn325 O351 2.117 . S
C326 O348 1.234 . S
C326 O349 1.283 . S
C327 O339 1.281 . S
C327 O340 1.236 . S
C328 O350 1.240 . S
C328 O351 1.264 . S
O329 Mn324 2.095 . S
O329 C338 1.250 . S
O330 Mn325 2.121 . S
O330 C338 1.258 . S
C331 N332 1.326 . S
C331 C335 1.460 . S
C331 H337 0.929 . S
N332 Mn325 2.257 . S
N332 C331 1.326 . S
N332 C336 1.362 1_556 S
C333 C334 1.258 . S
C333 C336 1.431 . S
C333 C353 1.449 . S
C334 C333 1.258 . S
C334 C335 1.477 1_554 S
C334 H354 0.931 . S
C335 C331 1.460 . S
C335 C334 1.477 1_556 S
C335 H355 0.930 . S
C336 N332 1.362 1_554 S
C336 C333 1.431 . S
C336 C346 1.476 . S
H337 C331 0.929 . S
C338 O329 1.250 . S
C338 O330 1.258 . S
O339 Mn324 2.162 . S
O339 C327 1.281 . S
O340 Mn324 2.297 . S
O340 C327 1.236 . S
N341 Mn325 2.282 . S
N341 C342 1.328 1_556 S
N341 C346 1.318 1_556 S
C342 N341 1.328 1_554 S
C342 C343 1.457 . S
C342 H347 0.929 1_554 S
C343 C342 1.457 . S
C343 C344 1.291 . S
C343 H356 0.931 . S
C344 C343 1.291 . S
C344 C345 1.373 . S
C344 H357 0.929 . S
C345 C344 1.373 . S
C345 C346 1.396 . S
C345 C352 1.403 . S
C346 C336 1.476 . S
C346 N341 1.318 1_554 S
C346 C345 1.396 . S
H347 C342 0.929 1_556 S
O348 Mn324 2.385 . S
O348 C326 1.234 . S
O349 Mn324 2.209 . S
O349 Mn325 2.215 . S
O349 C326 1.283 . S
O350 Mn324 2.094 . S
O350 C328 1.240 . S
O351 Mn325 2.117 . S
O351 C328 1.264 . S
C352 C345 1.403 . S
C352 C353 1.399 . S
C352 H358 0.929 . S
C353 C333 1.449 . S
C353 C352 1.399 . S
C353 H359 0.930 . S
H354 C334 0.931 . S
H355 C335 0.930 . S
H356 C343 0.931 . S
H357 C344 0.929 . S
H358 C352 0.929 . S
H359 C353 0.930 . S
Mn360 O365 2.095 1_554 S
Mn360 O375 2.162 1_554 S
Mn360 O376 2.297 1_554 S
Mn360 O384 2.385 . S
Mn360 O385 2.209 . S
Mn360 O386 2.094 . S
Mn361 O366 2.121 . S
Mn361 N368 2.257 . S
Mn361 N377 2.282 . S
Mn361 O385 2.215 . S
Mn361 O387 2.117 . S
C362 O384 1.234 . S
C362 O385 1.283 . S
C363 O375 1.281 . S
C363 O376 1.236 . S
C364 O386 1.240 . S
C364 O387 1.264 . S
O365 Mn360 2.095 1_556 S
O365 C374 1.250 . S
O366 Mn361 2.121 . S
O366 C374 1.258 1_554 S
C367 N368 1.326 . S
C367 C371 1.460 . S
C367 H373 0.929 . S
N368 Mn361 2.257 . S
N368 C367 1.326 . S
N368 C372 1.362 . S
C369 C370 1.258 . S
C369 C372 1.431 . S
C369 C389 1.449 . S
C370 C369 1.258 . S
C370 C371 1.477 . S
C370 H390 0.931 . S
C371 C367 1.460 . S
C371 C370 1.477 . S
C371 H391 0.930 . S
C372 N368 1.362 . S
C372 C369 1.431 . S
C372 C382 1.476 . S
H373 C367 0.929 . S
C374 O365 1.250 . S
C374 O366 1.258 1_556 S
O375 Mn360 2.162 1_556 S
O375 C363 1.281 . S
O376 Mn360 2.297 1_556 S
O376 C363 1.236 . S
N377 Mn361 2.282 . S
N377 C378 1.328 . S
N377 C382 1.318 . S
C378 N377 1.328 . S
C378 C379 1.457 . S
C378 H383 0.929 . S
C379 C378 1.457 . S
C379 C380 1.291 . S
C379 H392 0.931 . S
C380 C379 1.291 . S
C380 C381 1.373 . S
C380 H393 0.929 . S
C381 C380 1.373 . S
C381 C382 1.396 . S
C381 C388 1.403 . S
C382 C372 1.476 . S
C382 N377 1.318 . S
C382 C381 1.396 . S
H383 C378 0.929 . S
O384 Mn360 2.385 . S
O384 C362 1.234 . S
O385 Mn360 2.209 . S
O385 Mn361 2.215 . S
O385 C362 1.283 . S
O386 Mn360 2.094 . S
O386 C364 1.240 . S
O387 Mn361 2.117 . S
O387 C364 1.264 . S
C388 C381 1.403 . S
C388 C389 1.399 . S
C388 H394 0.929 . S
C389 C369 1.449 . S
C389 C388 1.399 . S
C389 H395 0.930 . S
H390 C370 0.931 . S
H391 C371 0.930 . S
H392 C379 0.931 . S
H393 C380 0.929 . S
H394 C388 0.929 . S
H395 C389 0.930 . S
Mn396 O401 2.095 . S
Mn396 O411 2.162 . S
Mn396 O412 2.297 . S
Mn396 O420 2.385 . S
Mn396 O421 2.209 . S
Mn396 O422 2.094 . S
Mn397 O402 2.121 . S
Mn397 N404 2.257 . S
Mn397 N413 2.282 . S
Mn397 O421 2.215 . S
Mn397 O423 2.117 . S
C398 O420 1.234 . S
C398 O421 1.283 . S
C399 O411 1.281 . S
C399 O412 1.236 . S
C400 O422 1.240 . S
C400 O423 1.264 . S
O401 Mn396 2.095 . S
O401 C410 1.250 . S
O402 Mn397 2.121 . S
O402 C410 1.258 . S
C403 N404 1.326 . S
C403 C407 1.460 . S
C403 H409 0.929 . S
N404 Mn397 2.257 . S
N404 C403 1.326 . S
N404 C408 1.362 . S
C405 C406 1.258 . S
C405 C408 1.431 1_556 S
C405 C425 1.449 . S
C406 C405 1.258 . S
C406 C407 1.477 1_556 S
C406 H426 0.931 . S
C407 C403 1.460 . S
C407 C406 1.477 1_554 S
C407 H427 0.930 . S
C408 N404 1.362 . S
C408 C405 1.431 1_554 S
C408 C418 1.476 1_554 S
H409 C403 0.929 . S
C410 O401 1.250 . S
C410 O402 1.258 . S
O411 Mn396 2.162 . S
O411 C399 1.281 . S
O412 Mn396 2.297 . S
O412 C399 1.236 . S
N413 Mn397 2.282 . S
N413 C414 1.328 . S
N413 C418 1.318 1_554 S
C414 N413 1.328 . S
C414 C415 1.457 1_554 S
C414 H419 0.929 . S
C415 C414 1.457 1_556 S
C415 C416 1.291 . S
C415 H428 0.931 . S
C416 C415 1.291 . S
C416 C417 1.373 . S
C416 H429 0.929 . S
C417 C416 1.373 . S
C417 C418 1.396 . S
C417 C424 1.403 . S
C418 C408 1.476 1_556 S
C418 N413 1.318 1_556 S
C418 C417 1.396 . S
H419 C414 0.929 . S
O420 Mn396 2.385 . S
O420 C398 1.234 . S
O421 Mn396 2.209 . S
O421 Mn397 2.215 . S
O421 C398 1.283 . S
O422 Mn396 2.094 . S
O422 C400 1.240 . S
O423 Mn397 2.117 . S
O423 C400 1.264 . S
C424 C417 1.403 . S
C424 C425 1.399 . S
C424 H430 0.929 . S
C425 C405 1.449 . S
C425 C424 1.399 . S
C425 H431 0.930 . S
H426 C406 0.931 . S
H427 C407 0.930 . S
H428 C415 0.931 . S
H429 C416 0.929 . S
H430 C424 0.929 . S
H431 C425 0.930 . S
Mn432 O437 2.095 . S
Mn432 O447 2.162 . S
Mn432 O448 2.297 . S
Mn432 O456 2.385 . S
Mn432 O457 2.209 . S
Mn432 O458 2.094 . S
Mn433 O438 2.121 . S
Mn433 N440 2.257 . S
Mn433 N449 2.282 . S
Mn433 O457 2.215 . S
Mn433 O459 2.117 . S
C434 O456 1.234 . S
C434 O457 1.283 . S
C435 O447 1.281 . S
C435 O448 1.236 . S
C436 O458 1.240 . S
C436 O459 1.264 . S
O437 Mn432 2.095 . S
O437 C446 1.250 . S
O438 Mn433 2.121 . S
O438 C446 1.258 . S
C439 N440 1.326 . S
C439 C443 1.460 . S
C439 H445 0.929 . S
N440 Mn433 2.257 . S
N440 C439 1.326 . S
N440 C444 1.362 . S
C441 C442 1.258 . S
C441 C444 1.431 . S
C441 C461 1.449 . S
C442 C441 1.258 . S
C442 C443 1.477 . S
C442 H462 0.931 . S
C443 C439 1.460 . S
C443 C442 1.477 . S
C443 H463 0.930 . S
C444 N440 1.362 . S
C444 C441 1.431 . S
C444 C454 1.476 . S
H445 C439 0.929 . S
C446 O437 1.250 . S
C446 O438 1.258 . S
O447 Mn432 2.162 . S
O447 C435 1.281 . S
O448 Mn432 2.297 . S
O448 C435 1.236 . S
N449 Mn433 2.282 . S
N449 C450 1.328 . S
N449 C454 1.318 . S
C450 N449 1.328 . S
C450 C451 1.457 . S
C450 H455 0.929 . S
C451 C450 1.457 . S
C451 C452 1.291 . S
C451 H464 0.931 . S
C452 C451 1.291 . S
C452 C453 1.373 . S
C452 H465 0.929 . S
C453 C452 1.373 . S
C453 C454 1.396 . S
C453 C460 1.403 . S
C454 C444 1.476 . S
C454 N449 1.318 . S
C454 C453 1.396 . S
H455 C450 0.929 . S
O456 Mn432 2.385 . S
O456 C434 1.234 . S
O457 Mn432 2.209 . S
O457 Mn433 2.215 . S
O457 C434 1.283 . S
O458 Mn432 2.094 . S
O458 C436 1.240 . S
O459 Mn433 2.117 . S
O459 C436 1.264 . S
C460 C453 1.403 . S
C460 C461 1.399 . S
C460 H466 0.929 . S
C461 C441 1.449 . S
C461 C460 1.399 . S
C461 H467 0.930 . S
H462 C442 0.931 . S
H463 C443 0.930 . S
H464 C451 0.931 . S
H465 C452 0.929 . S
H466 C460 0.929 . S
H467 C461 0.930 . S
Mn468 O473 2.095 . S
Mn468 O483 2.162 . S
Mn468 O484 2.297 . S
Mn468 O492 2.385 . S
Mn468 O493 2.209 . S
Mn468 O494 2.094 . S
Mn469 O474 2.121 . S
Mn469 N476 2.257 . S
Mn469 N485 2.282 . S
Mn469 O493 2.215 . S
Mn469 O495 2.117 . S
C470 O492 1.234 . S
C470 O493 1.283 . S
C471 O483 1.281 . S
C471 O484 1.236 . S
C472 O494 1.240 . S
C472 O495 1.264 . S
O473 Mn468 2.095 . S
O473 C482 1.250 . S
O474 Mn469 2.121 . S
O474 C482 1.258 . S
C475 N476 1.326 . S
C475 C479 1.460 . S
C475 H481 0.929 . S
N476 Mn469 2.257 . S
N476 C475 1.326 . S
N476 C480 1.362 . S
C477 C478 1.258 . S
C477 C480 1.431 1_556 S
C477 C497 1.449 . S
C478 C477 1.258 . S
C478 C479 1.477 1_556 S
C478 H498 0.931 . S
C479 C475 1.460 . S
C479 C478 1.477 1_554 S
C479 H499 0.930 . S
C480 N476 1.362 . S
C480 C477 1.431 1_554 S
C480 C490 1.476 1_554 S
H481 C475 0.929 . S
C482 O473 1.250 . S
C482 O474 1.258 . S
O483 Mn468 2.162 . S
O483 C471 1.281 . S
O484 Mn468 2.297 . S
O484 C471 1.236 . S
N485 Mn469 2.282 . S
N485 C486 1.328 . S
N485 C490 1.318 1_554 S
C486 N485 1.328 . S
C486 C487 1.457 1_554 S
C486 H491 0.929 . S
C487 C486 1.457 1_556 S
C487 C488 1.291 . S
C487 H500 0.931 . S
C488 C487 1.291 . S
C488 C489 1.373 . S
C488 H501 0.929 . S
C489 C488 1.373 . S
C489 C490 1.396 . S
C489 C496 1.403 . S
C490 C480 1.476 1_556 S
C490 N485 1.318 1_556 S
C490 C489 1.396 . S
H491 C486 0.929 . S
O492 Mn468 2.385 . S
O492 C470 1.234 . S
O493 Mn468 2.209 . S
O493 Mn469 2.215 . S
O493 C470 1.283 . S
O494 Mn468 2.094 . S
O494 C472 1.240 . S
O495 Mn469 2.117 . S
O495 C472 1.264 . S
C496 C489 1.403 . S
C496 C497 1.399 . S
C496 H502 0.929 . S
C497 C477 1.449 . S
C497 C496 1.399 . S
C497 H503 0.930 . S
H498 C478 0.931 . S
H499 C479 0.930 . S
H500 C487 0.931 . S
H501 C488 0.929 . S
H502 C496 0.929 . S
H503 C497 0.930 . S
Mn504 O509 2.095 . S
Mn504 O519 2.162 . S
Mn504 O520 2.297 . S
Mn504 O528 2.385 1_554 S
Mn504 O529 2.209 1_554 S
Mn504 O530 2.094 1_554 S
Mn505 O510 2.121 . S
Mn505 N512 2.257 . S
Mn505 N521 2.282 . S
Mn505 O529 2.215 . S
Mn505 O531 2.117 . S
C506 O528 1.234 . S
C506 O529 1.283 . S
C507 O519 1.281 . S
C507 O520 1.236 . S
C508 O530 1.240 . S
C508 O531 1.264 . S
O509 Mn504 2.095 . S
O509 C518 1.250 . S
O510 Mn505 2.121 . S
O510 C518 1.258 1_556 S
C511 N512 1.326 . S
C511 C515 1.460 . S
C511 H517 0.929 . S
N512 Mn505 2.257 . S
N512 C511 1.326 . S
N512 C516 1.362 . S
C513 C514 1.258 . S
C513 C516 1.431 . S
C513 C533 1.449 . S
C514 C513 1.258 . S
C514 C515 1.477 . S
C514 H534 0.931 . S
C515 C511 1.460 . S
C515 C514 1.477 . S
C515 H535 0.930 . S
C516 N512 1.362 . S
C516 C513 1.431 . S
C516 C526 1.476 . S
H517 C511 0.929 . S
C518 O509 1.250 . S
C518 O510 1.258 1_554 S
O519 Mn504 2.162 . S
O519 C507 1.281 . S
O520 Mn504 2.297 . S
O520 C507 1.236 . S
N521 Mn505 2.282 . S
N521 C522 1.328 . S
N521 C526 1.318 . S
C522 N521 1.328 . S
C522 C523 1.457 . S
C522 H527 0.929 . S
C523 C522 1.457 . S
C523 C524 1.291 . S
C523 H536 0.931 . S
C524 C523 1.291 . S
C524 C525 1.373 . S
C524 H537 0.929 . S
C525 C524 1.373 . S
C525 C526 1.396 . S
C525 C532 1.403 . S
C526 C516 1.476 . S
C526 N521 1.318 . S
C526 C525 1.396 . S
H527 C522 0.929 . S
O528 Mn504 2.385 1_556 S
O528 C506 1.234 . S
O529 Mn504 2.209 1_556 S
O529 Mn505 2.215 . S
O529 C506 1.283 . S
O530 Mn504 2.094 1_556 S
O530 C508 1.240 . S
O531 Mn505 2.117 . S
O531 C508 1.264 . S
C532 C525 1.403 . S
C532 C533 1.399 . S
C532 H538 0.929 . S
C533 C513 1.449 . S
C533 C532 1.399 . S
C533 H539 0.930 . S
H534 C514 0.931 . S
H535 C515 0.930 . S
H536 C523 0.931 . S
H537 C524 0.929 . S
H538 C532 0.929 . S
H539 C533 0.930 . S
Mn540 O545 2.095 . S
Mn540 O555 2.162 . S
Mn540 O556 2.297 . S
Mn540 O564 2.385 . S
Mn540 O565 2.209 . S
Mn540 O566 2.094 . S
Mn541 O546 2.121 . S
Mn541 N548 2.257 . S
Mn541 N557 2.282 . S
Mn541 O565 2.215 . S
Mn541 O567 2.117 . S
C542 O564 1.234 . S
C542 O565 1.283 . S
C543 O555 1.281 . S
C543 O556 1.236 . S
C544 O566 1.240 . S
C544 O567 1.264 . S
O545 Mn540 2.095 . S
O545 C554 1.250 . S
O546 Mn541 2.121 . S
O546 C554 1.258 . S
C547 N548 1.326 . S
C547 C551 1.460 . S
C547 H553 0.929 . S
N548 Mn541 2.257 . S
N548 C547 1.326 . S
N548 C552 1.362 1_556 S
C549 C550 1.258 . S
C549 C552 1.431 . S
C549 C569 1.449 . S
C550 C549 1.258 . S
C550 C551 1.477 1_554 S
C550 H570 0.931 . S
C551 C547 1.460 . S
C551 C550 1.477 1_556 S
C551 H571 0.930 . S
C552 N548 1.362 1_554 S
C552 C549 1.431 . S
C552 C562 1.476 . S
H553 C547 0.929 . S
C554 O545 1.250 . S
C554 O546 1.258 . S
O555 Mn540 2.162 . S
O555 C543 1.281 . S
O556 Mn540 2.297 . S
O556 C543 1.236 . S
N557 Mn541 2.282 . S
N557 C558 1.328 1_556 S
N557 C562 1.318 1_556 S
C558 N557 1.328 1_554 S
C558 C559 1.457 . S
C558 H563 0.929 1_554 S
C559 C558 1.457 . S
C559 C560 1.291 . S
C559 H572 0.931 . S
C560 C559 1.291 . S
C560 C561 1.373 . S
C560 H573 0.929 . S
C561 C560 1.373 . S
C561 C562 1.396 . S
C561 C568 1.403 . S
C562 C552 1.476 . S
C562 N557 1.318 1_554 S
C562 C561 1.396 . S
H563 C558 0.929 1_556 S
O564 Mn540 2.385 . S
O564 C542 1.234 . S
O565 Mn540 2.209 . S
O565 Mn541 2.215 . S
O565 C542 1.283 . S
O566 Mn540 2.094 . S
O566 C544 1.240 . S
O567 Mn541 2.117 . S
O567 C544 1.264 . S
C568 C561 1.403 . S
C568 C569 1.399 . S
C568 H574 0.929 . S
C569 C549 1.449 . S
C569 C568 1.399 . S
C569 H575 0.930 . S
H570 C550 0.931 . S
H571 C551 0.930 . S
H572 C559 0.931 . S
H573 C560 0.929 . S
H574 C568 0.929 . S
H575 C569 0.930 . S
H576 C582 0.930 . S
H577 C585 0.930 . S
H578 C586 0.930 . S
H579 C587 0.930 . S
H580 C590 0.930 . S
H581 C591 0.930 . S
C582 H576 0.930 . S
C582 C583 1.355 . S
C582 C584 1.415 . S
C583 C582 1.355 . S
C583 C585 1.419 . S
C584 C582 1.415 . S
C584 C589 1.425 . S
C584 C591 1.409 . S
C585 H577 0.930 . S
C585 C583 1.419 . S
C585 C586 1.362 . S
C586 H578 0.930 . S
C586 C585 1.362 . S
C586 C589 1.409 . S
C587 H579 0.930 . S
C587 C588 1.355 . S
C587 C589 1.415 . S
C588 C587 1.355 . S
C588 C590 1.419 . S
C589 C584 1.425 . S
C589 C586 1.409 . S
C589 C587 1.415 . S
C590 H580 0.930 . S
C590 C588 1.419 . S
C590 C591 1.362 . S
C591 H581 0.930 . S
C591 C584 1.409 . S
C591 C590 1.362 . S
H592 C598 0.914 1_565 S
H593 C601 0.930 . S
H594 C602 0.930 . S
H595 C603 0.930 . S
H596 C606 0.930 . S
H597 C607 0.930 . S
C598 H592 0.914 1_545 S
C598 C599 1.355 . S
C598 C600 1.415 . S
C599 C598 1.355 . S
C599 C601 1.419 . S
C600 C598 1.415 . S
C600 C605 1.425 1_655 S
C600 C607 1.409 1_545 S
C601 H593 0.930 . S
C601 C599 1.419 . S
C601 C602 1.362 1_655 S
C602 H594 0.930 . S
C602 C601 1.362 1_455 S
C602 C605 1.409 . S
C603 H595 0.930 . S
C603 C604 1.355 . S
C603 C605 1.415 . S
C604 C603 1.355 . S
C604 C606 1.419 1_545 S
C605 C600 1.425 1_455 S
C605 C602 1.409 . S
C605 C603 1.415 . S
C606 H596 0.930 . S
C606 C604 1.419 1_565 S
C606 C607 1.362 1_455 S
C607 H597 0.930 . S
C607 C600 1.409 1_565 S
C607 C606 1.362 1_655 S
H608 C614 0.930 . S
H609 C617 0.930 . S
H610 C618 0.930 . S
H611 C619 0.930 . S
H612 C622 0.930 . S
H613 C623 0.930 . S
C614 H608 0.930 . S
C614 C615 1.355 . S
C614 C616 1.415 . S
C615 C614 1.355 . S
C615 C617 1.419 . S
C616 C614 1.415 . S
C616 C621 1.425 . S
C616 C623 1.409 . S
C617 H609 0.930 . S
C617 C615 1.419 . S
C617 C618 1.362 . S
C618 H610 0.930 . S
C618 C617 1.362 . S
C618 C621 1.409 . S
C619 H611 0.930 . S
C619 C620 1.355 . S
C619 C621 1.415 . S
C620 C619 1.355 . S
C620 C622 1.419 . S
C621 C616 1.425 . S
C621 C618 1.409 . S
C621 C619 1.415 . S
C622 H612 0.930 . S
C622 C620 1.419 . S
C622 C623 1.362 . S
C623 H613 0.930 . S
C623 C616 1.409 . S
C623 C622 1.362 . S
H624 C630 0.930 . S
H625 C633 0.930 . S
H626 C634 0.930 . S
H627 C635 0.930 . S
H628 C638 0.930 . S
H629 C639 0.930 . S
C630 H624 0.930 . S
C630 C631 1.355 . S
C630 C632 1.415 . S
C631 C630 1.355 . S
C631 C633 1.419 . S
C632 C630 1.415 . S
C632 C637 1.425 1_554 S
C632 C639 1.409 1_545 S
C633 H625 0.930 . S
C633 C631 1.419 . S
C633 C634 1.362 1_554 S
C634 H626 0.930 . S
C634 C633 1.362 1_556 S
C634 C637 1.409 . S
C635 H627 0.930 . S
C635 C636 1.355 . S
C635 C637 1.415 . S
C636 C635 1.355 . S
C636 C638 1.419 1_545 S
C637 C632 1.425 1_556 S
C637 C634 1.409 . S
C637 C635 1.415 . S
C638 H628 0.930 . S
C638 C636 1.419 1_565 S
C638 C639 1.362 1_556 S
C639 H629 0.930 . S
C639 C632 1.409 1_565 S
C639 C638 1.362 1_554 S
H640 C646 0.930 . S
H641 C649 0.930 . S
H642 C650 0.930 . S
H643 C651 0.930 . S
H644 C654 0.930 . S
H645 C655 0.930 . S
C646 H640 0.930 . S
C646 C647 1.355 . S
C646 C648 1.415 . S
C647 C646 1.355 . S
C647 C649 1.419 . S
C648 C646 1.415 . S
C648 C653 1.425 . S
C648 C655 1.409 . S
C649 H641 0.930 . S
C649 C647 1.419 . S
C649 C650 1.362 . S
C650 H642 0.930 . S
C650 C649 1.362 . S
C650 C653 1.409 . S
C651 H643 0.930 . S
C651 C652 1.355 . S
C651 C653 1.415 . S
C652 C651 1.355 . S
C652 C654 1.419 . S
C653 C648 1.425 . S
C653 C650 1.409 . S
C653 C651 1.415 . S
C654 H644 0.930 . S
C654 C652 1.419 . S
C654 C655 1.362 . S
C655 H645 0.930 . S
C655 C648 1.409 . S
C655 C654 1.362 . S
H656 C662 0.930 . S
H657 C665 0.930 . S
H658 C666 0.930 . S
H659 C667 0.930 . S
H660 C670 0.930 . S
H661 C671 0.930 . S
C662 H656 0.930 . S
C662 C663 1.355 . S
C662 C664 1.415 . S
C663 C662 1.355 . S
C663 C665 1.419 . S
C664 C662 1.415 . S
C664 C669 1.425 . S
C664 C671 1.409 . S
C665 H657 0.930 . S
C665 C663 1.419 . S
C665 C666 1.362 . S
C666 H658 0.930 . S
C666 C665 1.362 . S
C666 C669 1.409 . S
C667 H659 0.930 . S
C667 C668 1.355 . S
C667 C669 1.415 . S
C668 C667 1.355 . S
C668 C670 1.419 . S
C669 C664 1.425 . S
C669 C666 1.409 . S
C669 C667 1.415 . S
C670 H660 0.930 . S
C670 C668 1.419 . S
C670 C671 1.362 . S
C671 H661 0.930 . S
C671 C664 1.409 . S
C671 C670 1.362 . S
H672 C678 0.930 . S
H673 C681 0.930 . S
H674 C682 0.930 . S
H675 C683 0.930 . S
H676 C686 0.930 . S
H677 C687 0.930 . S
C678 H672 0.930 . S
C678 C679 1.355 . S
C678 C680 1.415 . S
C679 C678 1.355 . S
C679 C681 1.419 . S
C680 C678 1.415 . S
C680 C685 1.425 . S
C680 C687 1.409 . S
C681 H673 0.930 . S
C681 C679 1.419 . S
C681 C682 1.362 . S
C682 H674 0.930 . S
C682 C681 1.362 . S
C682 C685 1.409 . S
C683 H675 0.930 . S
C683 C684 1.355 . S
C683 C685 1.415 . S
C684 C683 1.355 . S
C684 C686 1.419 . S
C685 C680 1.425 . S
C685 C682 1.409 . S
C685 C683 1.415 . S
C686 H676 0.930 . S
C686 C684 1.419 . S
C686 C687 1.362 . S
C687 H677 0.930 . S
C687 C680 1.409 . S
C687 C686 1.362 . S
H688 C694 0.930 . S
H689 C697 0.930 . S
H690 C698 0.934 . S
H691 C699 0.930 . S
H692 C702 0.930 . S
H693 C703 0.930 . S
C694 H688 0.930 . S
C694 C695 1.355 . S
C694 C696 1.386 1_456 S
C695 C694 1.355 . S
C695 C697 1.419 1_545 S
C696 C694 1.386 1_654 S
C696 C701 1.424 1_645 S
C696 C703 1.441 . S
C697 H689 0.930 . S
C697 C695 1.419 1_565 S
C697 C698 1.356 1_556 S
C698 H690 0.934 . S
C698 C697 1.356 1_554 S
C698 C701 1.444 . S
C699 H691 0.930 . S
C699 C700 1.355 1_565 S
C699 C701 1.386 1_655 S
C700 C699 1.355 1_545 S
C700 C702 1.419 . S
C701 C696 1.424 1_465 S
C701 C698 1.444 . S
C701 C699 1.386 1_455 S
C702 H692 0.930 . S
C702 C700 1.419 . S
C702 C703 1.362 . S
C703 H693 0.930 . S
C703 C696 1.441 . S
C703 C702 1.362 . S
H704 C710 0.930 . S
H705 C713 0.930 . S
H706 C714 0.930 . S
H707 C715 0.930 . S
H708 C718 0.930 . S
H709 C719 0.930 . S
C710 H704 0.930 . S
C710 C711 1.355 . S
C710 C712 1.415 . S
C711 C710 1.355 . S
C711 C713 1.419 . S
C712 C710 1.415 . S
C712 C717 1.425 . S
C712 C719 1.409 . S
C713 H705 0.930 . S
C713 C711 1.419 . S
C713 C714 1.362 . S
C714 H706 0.930 . S
C714 C713 1.362 . S
C714 C717 1.409 . S
C715 H707 0.930 . S
C715 C716 1.355 . S
C715 C717 1.415 . S
C716 C715 1.355 . S
C716 C718 1.419 . S
C717 C712 1.425 . S
C717 C714 1.409 . S
C717 C715 1.415 . S
C718 H708 0.930 . S
C718 C716 1.419 . S
C718 C719 1.362 . S
C719 H709 0.930 . S
C719 C712 1.409 . S
C719 C718 1.362 . S
H720 C726 0.930 . S
H721 C729 0.930 . S
H722 C730 0.930 . S
H723 C731 0.930 . S
H724 C734 0.930 . S
H725 C735 0.930 . S
C726 H720 0.930 . S
C726 C727 1.355 . S
C726 C728 1.415 . S
C727 C726 1.355 . S
C727 C729 1.419 . S
C728 C726 1.415 . S
C728 C733 1.425 . S
C728 C735 1.409 . S
C729 H721 0.930 . S
C729 C727 1.419 . S
C729 C730 1.362 . S
C730 H722 0.930 . S
C730 C729 1.362 . S
C730 C733 1.409 . S
C731 H723 0.930 . S
C731 C732 1.355 . S
C731 C733 1.415 . S
C732 C731 1.355 . S
C732 C734 1.419 . S
C733 C728 1.425 . S
C733 C730 1.409 . S
C733 C731 1.415 . S
C734 H724 0.930 . S
C734 C732 1.419 . S
C734 C735 1.362 . S
C735 H725 0.930 . S
C735 C728 1.409 . S
C735 C734 1.362 . S
H736 C742 0.930 . S
H737 C745 0.930 . S
H738 C746 0.930 . S
H739 C747 0.930 . S
H740 C750 0.930 . S
H741 C751 0.930 . S
C742 H736 0.930 . S
C742 C743 1.355 . S
C742 C744 1.415 . S
C743 C742 1.355 . S
C743 C745 1.419 . S
C744 C742 1.415 . S
C744 C749 1.425 . S
C744 C751 1.409 . S
C745 H737 0.930 . S
C745 C743 1.419 . S
C745 C746 1.362 . S
C746 H738 0.930 . S
C746 C745 1.362 . S
C746 C749 1.409 . S
C747 H739 0.930 . S
C747 C748 1.355 . S
C747 C749 1.415 . S
C748 C747 1.355 . S
C748 C750 1.419 . S
C749 C744 1.425 . S
C749 C746 1.409 . S
C749 C747 1.415 . S
C750 H740 0.930 . S
C750 C748 1.419 . S
C750 C751 1.362 . S
C751 H741 0.930 . S
C751 C744 1.409 . S
C751 C750 1.362 . S
H752 C758 0.930 . S
H753 C761 0.930 . S
H754 C762 0.930 . S
H755 C763 0.930 . S
H756 C766 0.930 . S
H757 C767 0.930 . S
C758 H752 0.930 . S
C758 C759 1.355 . S
C758 C760 1.415 . S
C759 C758 1.355 . S
C759 C761 1.419 . S
C760 C758 1.415 . S
C760 C765 1.425 . S
C760 C767 1.409 . S
C761 H753 0.930 . S
C761 C759 1.419 . S
C761 C762 1.362 . S
C762 H754 0.930 . S
C762 C761 1.362 . S
C762 C765 1.409 . S
C763 H755 0.930 . S
C763 C764 1.355 . S
C763 C765 1.415 . S
C764 C763 1.355 . S
C764 C766 1.419 . S
C765 C760 1.425 . S
C765 C762 1.409 . S
C765 C763 1.415 . S
C766 H756 0.930 . S
C766 C764 1.419 . S
C766 C767 1.362 . S
C767 H757 0.930 . S
C767 C760 1.409 . S
C767 C766 1.362 . S
H768 C774 0.930 . S
H769 C777 0.930 . S
H770 C778 0.930 . S
H771 C779 0.930 . S
H772 C782 0.930 . S
H773 C783 0.930 . S
C774 H768 0.930 . S
C774 C775 1.355 . S
C774 C776 1.415 . S
C775 C774 1.355 . S
C775 C777 1.419 . S
C776 C774 1.415 . S
C776 C781 1.425 . S
C776 C783 1.409 1_554 S
C777 H769 0.930 . S
C777 C775 1.419 . S
C777 C778 1.362 . S
C778 H770 0.930 . S
C778 C777 1.362 . S
C778 C781 1.409 . S
C779 H771 0.930 . S
C779 C780 1.355 . S
C779 C781 1.415 1_556 S
C780 C779 1.355 . S
C780 C782 1.419 . S
C781 C776 1.425 . S
C781 C778 1.409 . S
C781 C779 1.415 1_554 S
C782 H772 0.930 . S
C782 C780 1.419 . S
C782 C783 1.362 . S
C783 H773 0.930 . S
C783 C776 1.409 1_556 S
C783 C782 1.362 . S
H784 C790 0.930 1_655 S
H785 C793 0.930 . S
H786 C794 0.930 . S
H787 C795 0.930 1_455 S
H788 C798 0.930 . S
H789 C799 0.930 . S
C790 H784 0.930 1_455 S
C790 C791 1.355 . S
C790 C792 1.415 1_455 S
C791 C790 1.355 . S
C791 C793 1.419 . S
C792 C790 1.415 1_655 S
C792 C797 1.425 1_655 S
C792 C799 1.409 . S
C793 H785 0.930 . S
C793 C791 1.419 . S
C793 C794 1.362 . S
C794 H786 0.930 . S
C794 C793 1.362 . S
C794 C797 1.409 . S
C795 H787 0.930 1_655 S
C795 C796 1.355 . S
C795 C797 1.415 1_655 S
C796 C795 1.355 . S
C796 C798 1.419 . S
C797 C792 1.425 1_455 S
C797 C794 1.409 . S
C797 C795 1.415 1_455 S
C798 H788 0.930 . S
C798 C796 1.419 . S
C798 C799 1.362 . S
C799 H789 0.930 . S
C799 C792 1.409 . S
C799 C798 1.362 . S
H800 C806 0.930 . S
H801 C809 0.930 . S
H802 C810 0.930 . S
H803 C811 0.930 . S
H804 C814 0.930 . S
H805 C815 0.927 1_554 S
C806 H800 0.930 . S
C806 C807 1.355 . S
C806 C808 1.436 . S
C807 C806 1.355 . S
C807 C809 1.419 . S
C808 C806 1.436 . S
C808 C813 1.427 1_455 S
C808 C815 1.385 1_454 S
C809 H801 0.930 . S
C809 C807 1.419 . S
C809 C810 1.362 . S
C810 H802 0.930 . S
C810 C809 1.362 . S
C810 C813 1.393 1_455 S
C811 H803 0.930 . S
C811 C812 1.355 . S
C811 C813 1.431 1_556 S
C812 C811 1.355 . S
C812 C814 1.419 . S
C813 C808 1.427 1_655 S
C813 C810 1.393 1_655 S
C813 C811 1.431 1_554 S
C814 H804 0.930 . S
C814 C812 1.419 . S
C814 C815 1.370 . S
C815 H805 0.927 1_556 S
C815 C808 1.385 1_656 S
C815 C814 1.370 . S
H816 C822 0.930 . S
H817 C825 0.930 . S
H818 C826 0.930 . S
H819 C827 0.930 . S
H820 C830 0.930 . S
H821 C831 0.930 . S
C822 H816 0.930 . S
C822 C823 1.355 . S
C822 C824 1.415 . S
C823 C822 1.355 . S
C823 C825 1.419 . S
C824 C822 1.415 . S
C824 C829 1.425 . S
C824 C831 1.409 . S
C825 H817 0.930 . S
C825 C823 1.419 . S
C825 C826 1.362 . S
C826 H818 0.930 . S
C826 C825 1.362 . S
C826 C829 1.409 . S
C827 H819 0.930 . S
C827 C828 1.355 . S
C827 C829 1.415 . S
C828 C827 1.355 . S
C828 C830 1.419 . S
C829 C824 1.425 . S
C829 C826 1.409 . S
C829 C827 1.415 . S
C830 H820 0.930 . S
C830 C828 1.419 . S
C830 C831 1.362 . S
C831 H821 0.930 . S
C831 C824 1.409 . S
C831 C830 1.362 . S
H832 C838 0.930 . S
H833 C841 0.930 . S
H834 C842 0.930 . S
H835 C843 0.930 . S
H836 C846 0.930 . S
H837 C847 0.930 . S
C838 H832 0.930 . S
C838 C839 1.355 . S
C838 C840 1.415 . S
C839 C838 1.355 . S
C839 C841 1.419 . S
C840 C838 1.415 . S
C840 C845 1.425 . S
C840 C847 1.409 . S
C841 H833 0.930 . S
C841 C839 1.419 . S
C841 C842 1.362 . S
C842 H834 0.930 . S
C842 C841 1.362 . S
C842 C845 1.409 . S
C843 H835 0.930 . S
C843 C844 1.355 . S
C843 C845 1.415 . S
C844 C843 1.355 . S
C844 C846 1.419 . S
C845 C840 1.425 . S
C845 C842 1.409 . S
C845 C843 1.415 . S
C846 H836 0.930 . S
C846 C844 1.419 . S
C846 C847 1.362 . S
C847 H837 0.930 . S
C847 C840 1.409 . S
C847 C846 1.362 . S
H848 C854 0.930 . S
H849 C857 0.930 . S
H850 C858 0.930 . S
H851 C859 0.930 . S
H852 C862 0.930 . S
H853 C863 0.930 . S
C854 H848 0.930 . S
C854 C855 1.355 . S
C854 C856 1.415 . S
C855 C854 1.355 . S
C855 C857 1.419 . S
C856 C854 1.415 . S
C856 C861 1.425 . S
C856 C863 1.409 . S
C857 H849 0.930 . S
C857 C855 1.419 . S
C857 C858 1.362 . S
C858 H850 0.930 . S
C858 C857 1.362 . S
C858 C861 1.409 . S
C859 H851 0.930 . S
C859 C860 1.355 . S
C859 C861 1.415 . S
C860 C859 1.355 . S
C860 C862 1.419 . S
C861 C856 1.425 . S
C861 C858 1.409 . S
C861 C859 1.415 . S
C862 H852 0.930 . S
C862 C860 1.419 . S
C862 C863 1.362 . S
C863 H853 0.930 . S
C863 C856 1.409 . S
C863 C862 1.362 . S
H864 C870 0.930 . S
H865 C873 0.930 . S
H866 C874 0.930 . S
H867 C875 0.930 . S
H868 C878 0.930 . S
H869 C879 0.930 . S
C870 H864 0.930 . S
C870 C871 1.355 . S
C870 C872 1.415 . S
C871 C870 1.355 . S
C871 C873 1.419 . S
C872 C870 1.415 . S
C872 C877 1.425 . S
C872 C879 1.409 . S
C873 H865 0.930 . S
C873 C871 1.419 . S
C873 C874 1.362 . S
C874 H866 0.930 . S
C874 C873 1.362 . S
C874 C877 1.409 . S
C875 H867 0.930 . S
C875 C876 1.355 . S
C875 C877 1.415 . S
C876 C875 1.355 . S
C876 C878 1.419 . S
C877 C872 1.425 . S
C877 C874 1.409 . S
C877 C875 1.415 . S
C878 H868 0.930 . S
C878 C876 1.419 . S
C878 C879 1.362 . S
C879 H869 0.930 . S
C879 C872 1.409 . S
C879 C878 1.362 . S
H880 C886 0.930 . S
H881 C889 0.930 . S
H882 C890 0.930 . S
H883 C891 0.930 . S
H884 C894 0.930 . S
H885 C895 0.930 . S
C886 H880 0.930 . S
C886 C887 1.355 . S
C886 C888 1.415 . S
C887 C886 1.355 . S
C887 C889 1.419 . S
C888 C886 1.415 . S
C888 C893 1.425 . S
C888 C895 1.409 . S
C889 H881 0.930 . S
C889 C887 1.419 . S
C889 C890 1.362 . S
C890 H882 0.930 . S
C890 C889 1.362 . S
C890 C893 1.409 . S
C891 H883 0.930 . S
C891 C892 1.355 . S
C891 C893 1.415 . S
C892 C891 1.355 . S
C892 C894 1.419 . S
C893 C888 1.425 . S
C893 C890 1.409 . S
C893 C891 1.415 . S
C894 H884 0.930 . S
C894 C892 1.419 . S
C894 C895 1.362 . S
C895 H885 0.930 . S
C895 C888 1.409 . S
C895 C894 1.362 . S
H896 C902 0.930 . S
H897 C905 0.930 . S
H898 C906 0.930 . S
H899 C907 0.930 . S
H900 C910 0.930 . S
H901 C911 0.930 . S
C902 H896 0.930 . S
C902 C903 1.355 . S
C902 C904 1.415 . S
C903 C902 1.355 . S
C903 C905 1.419 . S
C904 C902 1.415 . S
C904 C909 1.425 . S
C904 C911 1.409 . S
C905 H897 0.930 . S
C905 C903 1.419 . S
C905 C906 1.362 . S
C906 H898 0.930 . S
C906 C905 1.362 . S
C906 C909 1.409 . S
C907 H899 0.930 . S
C907 C908 1.355 . S
C907 C909 1.415 . S
C908 C907 1.355 . S
C908 C910 1.419 . S
C909 C904 1.425 . S
C909 C906 1.409 . S
C909 C907 1.415 . S
C910 H900 0.930 . S
C910 C908 1.419 . S
C910 C911 1.362 . S
C911 H901 0.930 . S
C911 C904 1.409 . S
C911 C910 1.362 . S
H912 C918 0.930 . S
H913 C921 0.930 . S
H914 C922 0.930 . S
H915 C923 0.930 . S
H916 C926 0.930 . S
H917 C927 0.930 . S
C918 H912 0.930 . S
C918 C919 1.355 . S
C918 C920 1.415 . S
C919 C918 1.355 . S
C919 C921 1.419 . S
C920 C918 1.415 . S
C920 C925 1.425 . S
C920 C927 1.409 . S
C921 H913 0.930 . S
C921 C919 1.419 . S
C921 C922 1.362 . S
C922 H914 0.930 . S
C922 C921 1.362 . S
C922 C925 1.409 . S
C923 H915 0.930 . S
C923 C924 1.355 . S
C923 C925 1.415 . S
C924 C923 1.355 . S
C924 C926 1.419 . S
C925 C920 1.425 . S
C925 C922 1.409 . S
C925 C923 1.415 . S
C926 H916 0.930 . S
C926 C924 1.419 . S
C926 C927 1.362 . S
C927 H917 0.930 . S
C927 C920 1.409 . S
C927 C926 1.362 . S
H928 C934 0.930 . S
H929 C937 0.930 . S
H930 C938 0.930 . S
H931 C939 0.930 . S
H932 C942 0.930 . S
H933 C943 0.930 . S
C934 H928 0.930 . S
C934 C935 1.355 . S
C934 C936 1.415 . S
C935 C934 1.355 . S
C935 C937 1.419 . S
C936 C934 1.415 . S
C936 C941 1.425 . S
C936 C943 1.409 . S
C937 H929 0.930 . S
C937 C935 1.419 . S
C937 C938 1.362 . S
C938 H930 0.930 . S
C938 C937 1.362 . S
C938 C941 1.409 . S
C939 H931 0.930 . S
C939 C940 1.355 . S
C939 C941 1.415 . S
C940 C939 1.355 . S
C940 C942 1.419 . S
C941 C936 1.425 . S
C941 C938 1.409 . S
C941 C939 1.415 . S
C942 H932 0.930 . S
C942 C940 1.419 . S
C942 C943 1.362 . S
C943 H933 0.930 . S
C943 C936 1.409 . S
C943 C942 1.362 . S
H944 C950 0.930 . S
H945 C953 0.930 . S
H946 C954 0.930 . S
H947 C955 0.930 . S
H948 C958 0.930 . S
H949 C959 0.930 . S
C950 H944 0.930 . S
C950 C951 1.355 . S
C950 C952 1.415 . S
C951 C950 1.355 . S
C951 C953 1.419 . S
C952 C950 1.415 . S
C952 C957 1.425 . S
C952 C959 1.409 . S
C953 H945 0.930 . S
C953 C951 1.419 . S
C953 C954 1.362 . S
C954 H946 0.930 . S
C954 C953 1.362 . S
C954 C957 1.409 . S
C955 H947 0.930 . S
C955 C956 1.355 . S
C955 C957 1.415 . S
C956 C955 1.355 . S
C956 C958 1.419 . S
C957 C952 1.425 . S
C957 C954 1.409 . S
C957 C955 1.415 . S
C958 H948 0.930 . S
C958 C956 1.419 . S
C958 C959 1.362 . S
C959 H949 0.930 . S
C959 C952 1.409 . S
C959 C958 1.362 . S
H960 C966 0.930 . S
H961 C969 0.930 . S
H962 C970 0.930 . S
H963 C971 0.930 . S
H964 C974 0.930 . S
H965 C975 0.930 . S
C966 H960 0.930 . S
C966 C967 1.355 . S
C966 C968 1.415 . S
C967 C966 1.355 . S
C967 C969 1.419 . S
C968 C966 1.415 . S
C968 C973 1.425 . S
C968 C975 1.409 . S
C969 H961 0.930 . S
C969 C967 1.419 . S
C969 C970 1.362 . S
C970 H962 0.930 . S
C970 C969 1.362 . S
C970 C973 1.409 . S
C971 H963 0.930 . S
C971 C972 1.355 . S
C971 C973 1.415 . S
C972 C971 1.355 . S
C972 C974 1.419 . S
C973 C968 1.425 . S
C973 C970 1.409 . S
C973 C971 1.415 . S
C974 H964 0.930 . S
C974 C972 1.419 . S
C974 C975 1.362 . S
C975 H965 0.930 . S
C975 C968 1.409 . S
C975 C974 1.362 . S
H976 C982 0.930 . S
H977 C985 0.930 . S
H978 C986 0.930 . S
H979 C987 0.930 . S
H980 C990 0.930 . S
H981 C991 0.930 . S
C982 H976 0.930 . S
C982 C983 1.355 . S
C982 C984 1.415 . S
C983 C982 1.355 . S
C983 C985 1.419 . S
C984 C982 1.415 . S
C984 C989 1.425 . S
C984 C991 1.409 . S
C985 H977 0.930 . S
C985 C983 1.419 . S
C985 C986 1.362 . S
C986 H978 0.930 . S
C986 C985 1.362 . S
C986 C989 1.409 . S
C987 H979 0.930 . S
C987 C988 1.355 . S
C987 C989 1.415 . S
C988 C987 1.355 . S
C988 C990 1.419 . S
C989 C984 1.425 . S
C989 C986 1.409 . S
C989 C987 1.415 . S
C990 H980 0.930 . S
C990 C988 1.419 . S
C990 C991 1.362 . S
C991 H981 0.930 . S
C991 C984 1.409 . S
C991 C990 1.362 . S
H992 C998 0.930 . S
H993 C1001 0.930 . S
H994 C1002 0.930 . S
H995 C1003 0.930 . S
H996 C1006 0.930 . S
H997 C1007 0.930 . S
C998 H992 0.930 . S
C998 C999 1.355 . S
C998 C1000 1.415 . S
C999 C998 1.355 . S
C999 C1001 1.419 . S
C1000 C998 1.415 . S
C1000 C1005 1.425 . S
C1000 C1007 1.409 . S
C1001 H993 0.930 . S
C1001 C999 1.419 . S
C1001 C1002 1.362 . S
C1002 H994 0.930 . S
C1002 C1001 1.362 . S
C1002 C1005 1.409 . S
C1003 H995 0.930 . S
C1003 C1004 1.355 . S
C1003 C1005 1.415 . S
C1004 C1003 1.355 . S
C1004 C1006 1.419 . S
C1005 C1000 1.425 . S
C1005 C1002 1.409 . S
C1005 C1003 1.415 . S
C1006 H996 0.930 . S
C1006 C1004 1.419 . S
C1006 C1007 1.362 . S
C1007 H997 0.930 . S
C1007 C1000 1.409 . S
C1007 C1006 1.362 . S
H1008 C1014 0.930 . S
H1009 C1017 0.930 . S
H1010 C1018 0.930 . S
H1011 C1019 0.930 . S
H1012 C1022 0.930 1_556 S
H1013 C1023 0.930 . S
C1014 H1008 0.930 . S
C1014 C1015 1.355 . S
C1014 C1016 1.415 . S
C1015 C1014 1.355 . S
C1015 C1017 1.419 . S
C1016 C1014 1.415 . S
C1016 C1021 1.425 . S
C1016 C1023 1.409 . S
C1017 H1009 0.930 . S
C1017 C1015 1.419 . S
C1017 C1018 1.362 . S
C1018 H1010 0.930 . S
C1018 C1017 1.362 . S
C1018 C1021 1.409 . S
C1019 H1011 0.930 . S
C1019 C1020 1.355 . S
C1019 C1021 1.415 . S
C1020 C1019 1.355 . S
C1020 C1022 1.419 . S
C1021 C1016 1.425 . S
C1021 C1018 1.409 . S
C1021 C1019 1.415 . S
C1022 H1012 0.930 1_554 S
C1022 C1020 1.419 . S
C1022 C1023 1.362 . S
C1023 H1013 0.930 . S
C1023 C1016 1.409 . S
C1023 C1022 1.362 . S
H1024 C1030 0.930 . S
H1025 C1033 0.930 . S
H1026 C1034 0.930 . S
H1027 C1035 0.930 . S
H1028 C1038 0.930 . S
H1029 C1039 0.930 . S
C1030 H1024 0.930 . S
C1030 C1031 1.355 . S
C1030 C1032 1.415 . S
C1031 C1030 1.355 . S
C1031 C1033 1.419 . S
C1032 C1030 1.415 . S
C1032 C1037 1.425 . S
C1032 C1039 1.409 . S
C1033 H1025 0.930 . S
C1033 C1031 1.419 . S
C1033 C1034 1.362 . S
C1034 H1026 0.930 . S
C1034 C1033 1.362 . S
C1034 C1037 1.409 . S
C1035 H1027 0.930 . S
C1035 C1036 1.355 . S
C1035 C1037 1.415 . S
C1036 C1035 1.355 . S
C1036 C1038 1.419 . S
C1037 C1032 1.425 . S
C1037 C1034 1.409 . S
C1037 C1035 1.415 . S
C1038 H1028 0.930 . S
C1038 C1036 1.419 . S
C1038 C1039 1.362 . S
C1039 H1029 0.930 . S
C1039 C1032 1.409 . S
C1039 C1038 1.362 . S
H1040 C1046 0.930 . S
H1041 C1049 0.930 . S
H1042 C1050 0.930 . S
H1043 C1051 0.930 . S
H1044 C1054 0.930 . S
H1045 C1055 0.930 . S
C1046 H1040 0.930 . S
C1046 C1047 1.355 . S
C1046 C1048 1.415 . S
C1047 C1046 1.355 . S
C1047 C1049 1.419 . S
C1048 C1046 1.415 . S
C1048 C1053 1.425 . S
C1048 C1055 1.409 . S
C1049 H1041 0.930 . S
C1049 C1047 1.419 . S
C1049 C1050 1.362 . S
C1050 H1042 0.930 . S
C1050 C1049 1.362 . S
C1050 C1053 1.409 . S
C1051 H1043 0.930 . S
C1051 C1052 1.355 . S
C1051 C1053 1.415 . S
C1052 C1051 1.355 . S
C1052 C1054 1.419 . S
C1053 C1048 1.425 . S
C1053 C1050 1.409 . S
C1053 C1051 1.415 . S
C1054 H1044 0.930 . S
C1054 C1052 1.419 . S
C1054 C1055 1.362 . S
C1055 H1045 0.930 . S
C1055 C1048 1.409 . S
C1055 C1054 1.362 . S
H1056 C1062 0.930 . S
H1057 C1065 0.930 . S
H1058 C1066 0.930 . S
H1059 C1067 0.930 . S
H1060 C1070 0.930 . S
H1061 C1071 0.930 . S
C1062 H1056 0.930 . S
C1062 C1063 1.355 . S
C1062 C1064 1.415 . S
C1063 C1062 1.355 . S
C1063 C1065 1.419 . S
C1064 C1062 1.415 . S
C1064 C1069 1.425 . S
C1064 C1071 1.409 . S
C1065 H1057 0.930 . S
C1065 C1063 1.419 . S
C1065 C1066 1.362 . S
C1066 H1058 0.930 . S
C1066 C1065 1.362 . S
C1066 C1069 1.409 . S
C1067 H1059 0.930 . S
C1067 C1068 1.355 . S
C1067 C1069 1.415 . S
C1068 C1067 1.355 . S
C1068 C1070 1.419 . S
C1069 C1064 1.425 . S
C1069 C1066 1.409 . S
C1069 C1067 1.415 . S
C1070 H1060 0.930 . S
C1070 C1068 1.419 . S
C1070 C1071 1.362 . S
C1071 H1061 0.930 . S
C1071 C1064 1.409 . S
C1071 C1070 1.362 . S
H1072 C1078 0.930 . S
H1073 C1081 0.930 . S
H1074 C1082 0.930 . S
H1075 C1083 0.930 . S
H1076 C1086 0.930 . S
H1077 C1087 0.930 . S
C1078 H1072 0.930 . S
C1078 C1079 1.355 . S
C1078 C1080 1.415 . S
C1079 C1078 1.355 . S
C1079 C1081 1.419 . S
C1080 C1078 1.415 . S
C1080 C1085 1.425 . S
C1080 C1087 1.409 . S
C1081 H1073 0.930 . S
C1081 C1079 1.419 . S
C1081 C1082 1.362 . S
C1082 H1074 0.930 . S
C1082 C1081 1.362 . S
C1082 C1085 1.409 . S
C1083 H1075 0.930 . S
C1083 C1084 1.355 . S
C1083 C1085 1.415 . S
C1084 C1083 1.355 . S
C1084 C1086 1.419 . S
C1085 C1080 1.425 . S
C1085 C1082 1.409 . S
C1085 C1083 1.415 . S
C1086 H1076 0.930 . S
C1086 C1084 1.419 . S
C1086 C1087 1.362 . S
C1087 H1077 0.930 . S
C1087 C1080 1.409 . S
C1087 C1086 1.362 . S
C583 C3 1.387 . S
C588 C435 1.387 . S
C599 C38 1.344 . S
C604 C182 1.344 . S
C615 C74 1.308 . S
C620 C506 1.308 . S
C631 C255 1.382 . S
C636 C111 1.382 . S
C647 C507 1.381 . S
C652 C75 1.381 . S
C663 C254 1.307 . S
C668 C110 1.307 . S
C679 C434 1.341 . S
C684 C2 1.341 . S
C695 C183 1.368 . S
C700 C39 1.368 . S
C711 C147 1.387 . S
C716 C291 1.387 . S
C727 C218 1.331 . S
C732 C362 1.331 . S
C743 C363 1.388 . S
C748 C219 1.388 . S
C759 C146 1.342 . S
C764 C290 1.342 . S
C775 C470 1.316 . S
C780 C326 1.316 . S
C791 C399 1.377 . S
C796 C543 1.377 . S
C807 C398 1.301 . S
C812 C542 1.301 . S
C823 C327 1.384 . S
C828 C471 1.384 . S
C839 C400 1.482 . S
C844 C14 1.432 . S
C855 C292 1.443 . S
C860 C40 1.458 . S
C871 C76 1.477 . S
C876 C338 1.439 . S
C887 C374 1.482 . S
C892 C122 1.448 . S
C903 C410 1.446 . S
C908 C86 1.480 . S
C919 C112 1.472 . S
C924 C302 1.445 . S
C935 C328 1.442 . S
C940 C4 1.457 . S
C951 C364 1.466 . S
C956 C50 1.467 . S
C967 C158 1.457 . S
C972 C544 1.473 . S
C983 C436 1.470 . S
C988 C184 1.456 . S
C999 C220 1.458 . S
C1004 C482 1.476 . S
C1015 C266 1.433 . S
C1020 C518 1.440 . S
C1031 C230 1.446 . S
C1036 C554 1.431 . S
C1047 C446 1.479 . S
C1052 C256 1.455 . S
C1063 C472 1.470 . S
C1068 C148 1.456 . S
C1079 C508 1.486 . S
C1084 C194 1.428 . S
