# Generated by pormake.
# Topology zfa, (5)-cn, num edge types: 1
# Building blocks:
#     Node 0, Type 0, BuildingBlock: XOMCOT_clean_sbu_1, # of connection points: 5
#     Node 1, Type 0, BuildingBlock: XOMCOT_clean_sbu_1, # of connection points: 5
#     Node 2, Type 0, BuildingBlock: XOMCOT_clean_sbu_1, # of connection points: 5
#     Node 3, Type 0, BuildingBlock: XOMCOT_clean_sbu_1, # of connection points: 5
#     Node 4, Type 0, BuildingBlock: XOMCOT_clean_sbu_1, # of connection points: 5
#     Node 5, Type 0, BuildingBlock: XOMCOT_clean_sbu_1, # of connection points: 5
#     Node 6, Type 0, BuildingBlock: XOMCOT_clean_sbu_1, # of connection points: 5
#     Node 7, Type 0, BuildingBlock: XOMCOT_clean_sbu_1, # of connection points: 5
#     Edge 8, Type (0, 0), BuildingBlock: EZIPEK_clean_linker_0, # of connection points: 2
#     Edge 9, Type (0, 0), BuildingBlock: EZIPEK_clean_linker_0, # of connection points: 2
#     Edge 10, Type (0, 0), BuildingBlock: EZIPEK_clean_linker_0, # of connection points: 2
#     Edge 11, Type (0, 0), BuildingBlock: EZIPEK_clean_linker_0, # of connection points: 2
#     Edge 12, Type (0, 0), BuildingBlock: EZIPEK_clean_linker_0, # of connection points: 2
#     Edge 13, Type (0, 0), BuildingBlock: EZIPEK_clean_linker_0, # of connection points: 2
#     Edge 14, Type (0, 0), BuildingBlock: EZIPEK_clean_linker_0, # of connection points: 2
#     Edge 15, Type (0, 0), BuildingBlock: EZIPEK_clean_linker_0, # of connection points: 2
#     Edge 16, Type (0, 0), BuildingBlock: EZIPEK_clean_linker_0, # of connection points: 2
#     Edge 17, Type (0, 0), BuildingBlock: EZIPEK_clean_linker_0, # of connection points: 2
#     Edge 18, Type (0, 0), BuildingBlock: EZIPEK_clean_linker_0, # of connection points: 2
#     Edge 19, Type (0, 0), BuildingBlock: EZIPEK_clean_linker_0, # of connection points: 2
#     Edge 20, Type (0, 0), BuildingBlock: EZIPEK_clean_linker_0, # of connection points: 2
#     Edge 21, Type (0, 0), BuildingBlock: EZIPEK_clean_linker_0, # of connection points: 2
#     Edge 22, Type (0, 0), BuildingBlock: EZIPEK_clean_linker_0, # of connection points: 2
#     Edge 23, Type (0, 0), BuildingBlock: EZIPEK_clean_linker_0, # of connection points: 2
#     Edge 24, Type (0, 0), BuildingBlock: EZIPEK_clean_linker_0, # of connection points: 2
#     Edge 25, Type (0, 0), BuildingBlock: EZIPEK_clean_linker_0, # of connection points: 2
#     Edge 26, Type (0, 0), BuildingBlock: EZIPEK_clean_linker_0, # of connection points: 2
#     Edge 27, Type (0, 0), BuildingBlock: EZIPEK_clean_linker_0, # of connection points: 2
# Relax obj value: 0.218
# Max RMSD: 0.179
# Mean RMSD: 0.179
data_MOF--net-zfa--node1-XOMCOT_clean_sbu_1--edge1-EZIPEK_clean_linker_0
_symmetry_space_group_name_H-M    P1
_symmetry_Int_Tables_number       1
_symmetry_cell_setting            triclinic
loop_
_symmetry_equiv_pos_as_xyz
'x, y, z'
_cell_length_a     24.079946
_cell_length_b     24.145274
_cell_length_c     30.435054
_cell_angle_alpha  90.039465
_cell_angle_beta   89.806758
_cell_angle_gamma 89.996225
loop_
_atom_site_label
_atom_site_type_symbol
_atom_site_fract_x
_atom_site_fract_y
_atom_site_fract_z
_atom_type_partial_charge
C0 C 0.13381 0.16293 0.3036 0.0
C1 C 0.12192 0.10769 0.29918 0.0
N2 N 0.09924 0.08838 0.33707 0.0
N3 N 0.11824 0.17951 0.34387 0.0
C4 C 0.09668 0.13404 0.36312 0.0
H5 H 0.14896 0.1902 0.27805 0.0
Co6 Co 0.11444 0.25197 0.36421 0.0
C7 C 0.17589 0.23213 0.45037 0.0
O8 O 0.21894 0.26164 0.43817 0.0
N9 N 0.1089 0.3263 0.38473 0.0
C10 C 0.12562 0.41049 0.4123 0.0
C11 C 0.14778 0.35909 0.40359 0.0
C12 C 0.06383 0.35967 0.38155 0.0
N13 N 0.07278 0.41045 0.39852 0.0
O14 O 0.03636 0.24046 0.3763 0.0
H15 H 0.19052 0.34802 0.40881 0.0
H16 H 0.02553 0.34811 0.3658 0.0
O17 O 0.13415 0.22611 0.42462 0.0
C18 C 1.00959 0.24335 0.34017 0.0
O19 O 0.03723 0.25579 0.30419 0.0
N20 N 0.18878 0.26296 0.34637 0.0
C21 C 0.28922 0.27452 0.30162 0.0
C22 C 0.28119 0.23058 0.33092 0.0
C23 C 0.2302 0.225 0.35254 0.0
C24 C 0.19576 0.30497 0.31681 0.0
C25 C 0.24603 0.31208 0.29459 0.0
H26 H 0.22329 0.18915 0.37311 0.0
H27 H 0.16147 0.33227 0.30932 0.0
H28 H 0.07422 0.13696 0.39372 0.0
H29 H 0.1247 0.08563 0.26837 0.0
H30 H 0.14687 0.44558 0.42668 0.0
H31 H 0.31377 0.20048 0.33649 0.0
H32 H 0.25092 0.34603 0.27165 0.0
C33 C 0.35709 0.63186 0.80609 0.0
C34 C 0.41191 0.61777 0.80107 0.0
N35 N 0.43065 0.59416 0.83863 0.0
N36 N 0.34013 0.61629 0.84631 0.0
C37 C 0.38485 0.59218 0.8647 0.0
H38 H 0.33042 0.64961 0.78126 0.0
Co39 Co 0.26802 0.61753 0.86958 0.0
C40 C 0.30066 0.66929 0.9563 0.0
O41 O 0.2756 0.71564 0.946 0.0
N42 N 0.19481 0.61575 0.89357 0.0
C43 C 0.11429 0.63134 0.92835 0.0
C44 C 0.16654 0.65194 0.91934 0.0
C45 C 0.15837 0.57369 0.88754 0.0
N46 N 0.10974 0.58198 0.9084 0.0
O47 O 0.27116 0.53808 0.87392 0.0
H48 H 0.1815 0.69177 0.92987 0.0
H49 H 0.16648 0.53737 0.86792 0.0
O50 O 0.29996 0.62785 0.92978 0.0
C51 C 0.26572 0.52078 0.8344 0.0
O52 O 0.26101 0.55812 0.80321 0.0
N53 N 0.26342 0.69481 0.85804 0.0
C54 C 0.26238 0.79913 0.81807 0.0
C55 C 0.31034 0.77914 0.83863 0.0
C56 C 0.30948 0.7279 0.85949 0.0
C57 C 0.21679 0.71314 0.83702 0.0
C58 C 0.21455 0.76612 0.81869 0.0
H59 H 0.34724 0.71335 0.87447 0.0
H60 H 0.18163 0.68596 0.83257 0.0
H61 H 0.38153 0.56963 0.89513 0.0
H62 H 0.43434 0.62103 0.77039 0.0
H63 H 0.08201 0.65117 0.94755 0.0
H64 H 0.34847 0.80295 0.83843 0.0
H65 H 0.17668 0.78 0.80305 0.0
C66 C 0.87939 0.85375 0.31093 0.0
C67 C 0.90027 0.90623 0.30345 0.0
N68 N 0.94126 0.91528 0.33253 0.0
N69 N 0.90613 0.8308 0.34543 0.0
C70 C 0.94309 0.86974 0.35792 0.0
H71 H 0.84833 0.833 0.29132 0.0
Co72 Co 0.90288 0.75901 0.36919 0.0
C73 C 0.85849 0.78674 0.45939 0.0
O74 O 0.81727 0.75187 0.45476 0.0
N75 N 0.90126 0.68515 0.39334 0.0
C76 C 0.87422 0.60092 0.41597 0.0
C77 C 0.85757 0.65452 0.40779 0.0
C78 C 0.94395 0.64843 0.39366 0.0
N79 N 0.92861 0.59751 0.40691 0.0
O80 O 0.98193 0.76098 0.37375 0.0
H81 H 0.81503 0.66848 0.40946 0.0
H82 H 0.98529 0.65691 0.38209 0.0
O83 O 0.89449 0.79265 0.42867 0.0
C84 C 1.00132 0.74455 0.3369 0.0
O85 O 0.96704 0.7211 0.30893 0.0
N86 N 0.8266 0.7566 0.35792 0.0
C87 C 0.72211 0.75636 0.31968 0.0
C88 C 0.73631 0.79715 0.35035 0.0
C89 C 0.7891 0.79664 0.36908 0.0
C90 C 0.81347 0.71741 0.32733 0.0
C91 C 0.7608 0.7155 0.30871 0.0
H92 H 0.80094 0.83028 0.39013 0.0
H93 H 0.8447 0.6882 0.31648 0.0
H94 H 0.97296 0.86394 0.38403 0.0
H95 H 0.88876 0.93404 0.27713 0.0
H96 H 0.84802 0.56653 0.42556 0.0
H97 H 0.70724 0.82969 0.35892 0.0
H98 H 0.75099 0.6838 0.28476 0.0
C99 C 0.66707 0.37741 0.81301 0.0
C100 C 0.61415 0.39791 0.80693 0.0
N101 N 0.60598 0.4388 0.83628 0.0
N102 N 0.69125 0.40408 0.84705 0.0
C103 C 0.65255 0.44087 0.86059 0.0
H104 H 0.68741 0.34698 0.79242 0.0
Co105 Co 0.76496 0.40149 0.8673 0.0
C106 C 0.74833 0.35304 0.9567 0.0
O107 O 0.78271 0.31295 0.94633 0.0
N108 N 0.84085 0.40075 0.88808 0.0
C109 C 0.92781 0.3767 0.9063 0.0
C110 C 0.87523 0.3576 0.89702 0.0
C111 C 0.87426 0.44556 0.89337 0.0
N112 N 0.92678 0.43208 0.90377 0.0
O113 O 0.76199 0.48042 0.87288 0.0
H114 H 0.86415 0.31433 0.89531 0.0
H115 H 0.86201 0.48777 0.88799 0.0
O116 O 0.73755 0.39106 0.92853 0.0
C117 C 0.77854 0.5011 0.83651 0.0
O118 O 0.80388 0.46832 0.80832 0.0
N119 N 0.76716 0.32555 0.85475 0.0
C120 C 0.76652 0.22122 0.81626 0.0
C121 C 0.72718 0.23492 0.84851 0.0
C122 C 0.72795 0.28771 0.86727 0.0
C123 C 0.80395 0.31328 0.82196 0.0
C124 C 0.80565 0.26069 0.8033 0.0
H125 H 0.69545 0.29911 0.8901 0.0
H126 H 0.83182 0.34495 0.80983 0.0
H127 H 0.65937 0.47104 0.88634 0.0
H128 H 0.58563 0.3867 0.78098 0.0
H129 H 0.96437 0.35192 0.91269 0.0
H130 H 0.69579 0.20533 0.85851 0.0
H131 H 0.83598 0.25141 0.77798 0.0
C132 C 0.64095 0.35842 0.27365 0.0
C133 C 0.62712 0.41292 0.28049 0.0
N134 N 0.59768 0.43186 0.2457 0.0
N135 N 0.61971 0.34181 0.2351 0.0
C136 C 0.59194 0.38637 0.21994 0.0
H137 H 0.66154 0.33154 0.29689 0.0
Co138 Co 0.61549 0.26943 0.21347 0.0
C139 C 0.65926 0.33576 0.13358 0.0
O140 O 0.67087 0.3807 0.15591 0.0
N141 N 0.60953 0.1966 0.19219 0.0
C142 C 0.62328 0.11808 0.15526 0.0
C143 C 0.64362 0.17045 0.16357 0.0
C144 C 0.56915 0.15924 0.20103 0.0
N145 N 0.57624 0.11151 0.17867 0.0
O146 O 0.53792 0.28134 0.20125 0.0
H147 H 0.68065 0.1885 0.14935 0.0
H148 H 0.53487 0.16659 0.22327 0.0
O149 O 0.63883 0.29291 0.15279 0.0
C150 C 0.51242 0.27544 0.2379 0.0
O151 O 0.54155 0.26189 0.27273 0.0
N152 N 0.68923 0.25584 0.23134 0.0
C153 C 0.7887 0.2394 0.27605 0.0
C154 C 0.78391 0.28177 0.24501 0.0
C155 C 0.73355 0.28966 0.22325 0.0
C156 C 0.69354 0.21431 0.26161 0.0
C157 C 0.74316 0.20496 0.28408 0.0
H158 H 0.72969 0.32484 0.20202 0.0
H159 H 0.65755 0.18952 0.26973 0.0
H160 H 0.56443 0.38341 0.19212 0.0
H161 H 0.63419 0.43435 0.31108 0.0
H162 H 0.64097 0.08754 0.13323 0.0
H163 H 0.81841 0.30941 0.23851 0.0
H164 H 0.74561 0.17207 0.30818 0.0
C165 C 0.16758 0.13244 0.77163 0.0
C166 C 0.11468 0.11386 0.77947 0.0
N167 N 0.09723 0.08324 0.74483 0.0
N168 N 0.1849 0.11323 0.73245 0.0
C169 C 0.14272 0.08096 0.71841 0.0
H170 H 0.19323 0.15545 0.79435 0.0
Co171 Co 0.25797 0.11619 0.70976 0.0
C172 C 0.18785 0.14605 0.62816 0.0
O173 O 0.14128 0.15431 0.64953 0.0
N174 N 0.33113 0.11592 0.6872 0.0
C175 C 0.40824 0.13192 0.64839 0.0
C176 C 0.35506 0.15024 0.65759 0.0
C177 C 0.37032 0.07703 0.69504 0.0
N178 N 0.41724 0.08553 0.67181 0.0
O179 O 0.25631 0.03701 0.70351 0.0
H180 H 0.33488 0.18585 0.64316 0.0
H181 H 0.36466 0.0421 0.71663 0.0
O182 O 0.23197 0.13076 0.64845 0.0
C183 C 0.26185 0.01952 0.74296 0.0
O184 O 0.26495 0.05679 0.7744 0.0
N185 N 0.2622 0.19352 0.72222 0.0
C186 C 0.26455 0.29907 0.76063 0.0
C187 C 0.21652 0.27911 0.7401 0.0
C188 C 0.2169 0.22745 0.71973 0.0
C189 C 0.30901 0.2119 0.74304 0.0
C190 C 0.31193 0.26538 0.76052 0.0
H191 H 0.17897 0.21345 0.70501 0.0
H192 H 0.34399 0.18458 0.74781 0.0
H193 H 0.14759 0.05368 0.69061 0.0
H194 H 0.09313 0.11934 0.81034 0.0
H195 H 0.43748 0.1503 0.62558 0.0
H196 H 0.17862 0.30328 0.73991 0.0
H197 H 0.35001 0.27916 0.77589 0.0
C198 C 0.37807 0.66775 0.27359 0.0
C199 C 0.39811 0.61504 0.28125 0.0
N200 N 0.43949 0.6054 0.25243 0.0
N201 N 0.40559 0.69024 0.23914 0.0
C202 C 0.4423 0.65084 0.22694 0.0
H203 H 0.34695 0.68895 0.29303 0.0
Co204 Co 0.40346 0.76206 0.21538 0.0
C205 C 0.36017 0.73501 0.12513 0.0
O206 O 0.31898 0.76997 0.12983 0.0
N207 N 0.40311 0.83605 0.19131 0.0
C208 C 0.3777 0.92082 0.16896 0.0
C209 C 0.35997 0.86756 0.17728 0.0
C210 C 0.44663 0.87183 0.19031 0.0
N211 N 0.43229 0.92316 0.17733 0.0
O212 O 0.48246 0.75924 0.21103 0.0
H213 H 0.31722 0.85428 0.17565 0.0
H214 H 0.48796 0.86233 0.20112 0.0
O215 O 0.39592 0.72893 0.15582 0.0
C216 C 0.502 0.77533 0.24778 0.0
O217 O 0.46787 0.79855 0.27616 0.0
N218 N 0.32691 0.76498 0.22615 0.0
C219 C 0.22195 0.76452 0.26428 0.0
C220 C 0.23672 0.72391 0.23353 0.0
C221 C 0.28971 0.72477 0.21485 0.0
C222 C 0.31318 0.80406 0.25675 0.0
C223 C 0.26027 0.80563 0.27529 0.0
H224 H 0.30201 0.69111 0.19381 0.0
H225 H 0.34415 0.83334 0.26775 0.0
H226 H 0.47264 0.65619 0.20095 0.0
H227 H 0.38568 0.58739 0.30749 0.0
H228 H 0.35218 0.95563 0.15932 0.0
H229 H 0.20796 0.69119 0.22491 0.0
H230 H 0.25002 0.83721 0.29928 0.0
C231 C 0.85311 0.87158 0.77362 0.0
C232 C 0.90685 0.88881 0.78166 0.0
N233 N 0.91942 0.92872 0.75244 0.0
N234 N 0.8328 0.89947 0.73866 0.0
C235 C 0.87454 0.93353 0.72647 0.0
H236 H 0.82979 0.84215 0.79309 0.0
Co237 Co 0.76126 0.9005 0.71416 0.0
C238 C 0.7873 0.85731 0.62355 0.0
O239 O 0.74896 0.81907 0.62709 0.0
N240 N 0.68755 0.90344 0.68935 0.0
C241 C 0.60186 0.88235 0.66596 0.0
C242 C 0.65391 0.86189 0.67546 0.0
C243 C 0.65418 0.94874 0.68727 0.0
N244 N 0.60238 0.93706 0.67358 0.0
O245 O 0.76766 0.97921 0.70996 0.0
H246 H 0.66491 0.81855 0.67446 0.0
H247 H 0.6656 0.98958 0.69785 0.0
O248 O 0.79551 0.89152 0.65502 0.0
C249 C 0.75146 1.00008 0.74631 0.0
O250 O 0.72718 0.96732 0.77505 0.0
N251 N 0.75486 0.82412 0.72459 0.0
C252 C 0.75274 0.71966 0.76308 0.0
C253 C 0.7934 0.73299 0.73186 0.0
C254 C 0.79379 0.78564 0.71298 0.0
C255 C 0.7152 0.8116 0.75518 0.0
C256 C 0.71235 0.75899 0.77393 0.0
H257 H 0.82771 0.79667 0.69176 0.0
H258 H 0.68671 0.84337 0.76623 0.0
H259 H 0.87127 0.96356 0.7002 0.0
H260 H 0.93326 0.87563 0.8084 0.0
H261 H 0.56586 0.85867 0.65602 0.0
H262 H 0.82549 0.70345 0.72318 0.0
H263 H 0.68059 0.74986 0.79815 0.0
C264 C 0.98008 0.52245 0.44409 0.0
C265 C 0.96212 0.5481 0.40483 0.0
C266 C 0.01892 0.48383 0.36138 0.0
C267 C 0.03427 0.45608 0.40046 0.0
N268 N 0.02275 0.44208 0.47807 0.0
N269 N 0.95513 0.54746 0.32607 0.0
C270 C 0.01283 0.47346 0.44163 0.0
C271 C 0.97886 0.52702 0.36338 0.0
N272 N 0.96741 0.54627 0.48356 0.0
N273 N 0.04444 0.47026 0.32271 0.0
H274 H 0.92481 0.57831 0.32674 0.0
H275 H 0.96161 0.53054 0.295 0.0
H276 H 0.07454 0.43932 0.32048 0.0
H277 H 0.0393 0.49257 0.29374 0.0
H278 H 0.98377 0.53297 0.51336 0.0
H279 H 0.94352 0.5822 0.48609 0.0
H280 H 1.00424 0.44941 0.50848 0.0
H281 H 0.04614 0.40572 0.4769 0.0
C282 C 0.99199 0.49507 0.86592 0.0
C283 C 0.9735 0.46932 0.90515 0.0
C284 C 0.04711 0.51613 0.9464 0.0
C285 C 0.0624 0.54547 0.90789 0.0
N286 N 0.0443 0.57024 0.83287 0.0
N287 N 0.97741 0.46031 0.98362 0.0
C288 C 0.03333 0.53697 0.86811 0.0
C289 C 0.99946 0.48123 0.94572 0.0
N290 N 0.97132 0.47789 0.82646 0.0
N291 N 0.07951 0.52011 0.983 0.0
H292 H 0.94254 0.43466 0.98381 0.0
H293 H 0.9909 0.47164 1.01482 0.0
H294 H 0.11499 0.54484 0.98413 0.0
H295 H 0.07387 0.49573 1.01086 0.0
H296 H 0.98677 0.49122 0.79628 0.0
H297 H 0.94199 0.44629 0.82383 0.0
H298 H 0.02103 0.56981 0.8041 0.0
H299 H 0.07372 0.60193 0.83395 0.0
C300 C 0.47916 1.00005 0.13809 0.0
C301 C 0.46724 0.97179 0.17778 0.0
C302 C 0.53122 0.03317 0.21724 0.0
C303 C 0.5394 0.06433 0.17836 0.0
N304 N 0.51248 0.08459 0.10404 0.0
N305 N 0.4724 0.96852 0.2567 0.0
C306 C 0.5109 0.04976 0.13933 0.0
C307 C 0.49064 0.99037 0.21788 0.0
N308 N 0.46183 0.97821 0.0991 0.0
N309 N 0.56367 0.04331 0.25305 0.0
H310 H 0.44106 0.93877 0.25831 0.0
H311 H 0.48419 0.9838 0.28729 0.0
H312 H 0.59454 0.07361 0.25312 0.0
H313 H 0.5635 0.01846 0.28101 0.0
H314 H 0.47384 0.9939 0.06865 0.0
H315 H 0.4394 0.94133 0.09721 0.0
H316 H 0.48835 0.07892 0.07606 0.0
H317 H 0.53392 0.12211 0.10451 0.0
C318 C 0.5368 0.99939 0.71243 0.0
C319 C 0.55566 0.97462 0.67284 0.0
C320 C 0.48077 0.02098 0.63261 0.0
C321 C 0.46556 0.05002 0.67138 0.0
N322 N 0.48547 0.07472 0.7462 0.0
N323 N 0.55216 0.96895 0.59408 0.0
C324 C 0.49554 0.04146 0.71076 0.0
C325 C 0.52946 0.98749 0.63252 0.0
N326 N 0.55662 0.9809 0.75176 0.0
N327 N 0.44722 0.02326 0.5966 0.0
H328 H 0.58819 0.94499 0.59311 0.0
H329 H 0.5382 0.98137 0.56326 0.0
H330 H 0.41034 0.04583 0.5961 0.0
H331 H 0.45323 0.99875 0.56881 0.0
H332 H 0.54072 0.9937 0.78197 0.0
H333 H 0.58513 0.94854 0.75416 0.0
H334 H 0.50945 0.07403 0.77461 0.0
H335 H 0.45648 0.10681 0.74544 0.0
C336 C 0.41188 0.25103 0.22437 0.0
C337 C 0.45209 0.28602 0.24413 0.0
C338 C 0.38321 0.31823 0.29805 0.0
C339 C 0.34358 0.28203 0.27933 0.0
N340 N 0.3149 0.2235 0.21949 0.0
N341 N 0.47206 0.36394 0.29095 0.0
C342 C 0.35624 0.25158 0.24064 0.0
C343 C 0.43622 0.3233 0.27806 0.0
N344 N 0.42746 0.21525 0.19179 0.0
N345 N 0.37117 0.34571 0.33625 0.0
H346 H 0.51135 0.36827 0.27723 0.0
H347 H 0.4612 0.39628 0.31193 0.0
H348 H 0.33233 0.34418 0.35148 0.0
H349 H 0.40062 0.3671 0.35459 0.0
H350 H 0.40239 0.18337 0.18017 0.0
H351 H 0.46662 0.21619 0.1772 0.0
H352 H 0.31984 0.20479 0.18891 0.0
H353 H 0.27407 0.22251 0.23107 0.0
C354 C 0.23871 0.91611 0.73491 0.0
C355 C 0.26794 0.96016 0.75566 0.0
C356 C 0.28573 0.9004 0.81861 0.0
C357 C 0.26302 0.85444 0.79614 0.0
N358 N 0.23388 0.81664 0.72613 0.0
N359 N 0.3395 0.98302 0.80872 0.0
C360 C 0.24424 0.86151 0.75215 0.0
C361 C 0.29808 0.94871 0.79471 0.0
N362 N 0.20397 0.92564 0.70041 0.0
N363 N 0.29358 0.89932 0.86303 0.0
H364 H 0.35362 0.01655 0.79024 0.0
H365 H 0.36432 0.9736 0.83573 0.0
H366 H 0.28058 0.86641 0.88273 0.0
H367 H 0.30671 0.93404 0.88058 0.0
H368 H 0.17792 0.89507 0.68777 0.0
H369 H 0.19715 0.96451 0.68687 0.0
H370 H 0.22451 0.82021 0.69283 0.0
H371 H 0.24109 0.77607 0.73635 0.0
C372 C 0.60618 0.78043 0.23691 0.0
C373 C 0.55956 0.76262 0.26193 0.0
C374 C 0.62021 0.73829 0.32379 0.0
C375 C 0.66656 0.75652 0.29901 0.0
N376 N 0.70648 0.78777 0.23058 0.0
N377 N 0.52284 0.7135 0.32466 0.0
C378 C 0.66039 0.77509 0.255 0.0
C379 C 0.56689 0.73829 0.3041 0.0
N380 N 0.59859 0.80528 0.19703 0.0
N381 N 0.62736 0.72113 0.36629 0.0
H382 H 0.48418 0.7087 0.30988 0.0
H383 H 0.52512 0.69323 0.3547 0.0
H384 H 0.66627 0.71621 0.38071 0.0
H385 H 0.59504 0.71428 0.38836 0.0
H386 H 0.62959 0.82645 0.18008 0.0
H387 H 0.56049 0.80696 0.18115 0.0
H388 H 0.70582 0.79464 0.19684 0.0
H389 H 0.7465 0.78852 0.24353 0.0
C390 C 0.74806 0.15801 0.75228 0.0
C391 C 0.767 0.16532 0.79609 0.0
C392 C 0.78831 0.06646 0.80157 0.0
C393 C 0.76421 0.05798 0.75948 0.0
N394 N 0.72285 0.09491 0.69354 0.0
N395 N 0.80621 0.12864 0.86273 0.0
C396 C 0.74551 0.10366 0.73408 0.0
C397 C 0.78751 0.12006 0.82081 0.0
N398 N 0.73244 0.20321 0.72818 0.0
N399 N 0.81345 0.02307 0.82247 0.0
H400 H 0.81049 0.16788 0.87665 0.0
H401 H 0.81572 0.09729 0.88484 0.0
H402 H 0.81864 0.98434 0.80789 0.0
H403 H 0.8331 0.02566 0.85272 0.0
H404 H 0.72482 0.20236 0.69457 0.0
H405 H 0.72926 0.24294 0.74138 0.0
H406 H 0.70078 0.12456 0.67604 0.0
H407 H 0.72503 0.05721 0.67715 0.0
C408 C 0.90834 0.26417 0.35527 0.0
C409 C 0.94952 0.22987 0.33584 0.0
C410 C 0.88174 0.19409 0.28291 0.0
C411 C 0.84175 0.23139 0.29994 0.0
N412 N 0.81125 0.29238 0.35779 0.0
N413 N 0.97089 0.14947 0.29239 0.0
C414 C 0.85322 0.26326 0.33811 0.0
C415 C 0.93447 0.19059 0.3033 0.0
N416 N 0.9225 0.29901 0.38875 0.0
N417 N 0.87025 0.164 0.24595 0.0
H418 H 1.00929 0.14583 0.30759 0.0
H419 H 0.9611 0.11615 0.27212 0.0
H420 H 0.83145 0.16418 0.23079 0.0
H421 H 0.89994 0.14134 0.22868 0.0
H422 H 0.89713 0.33063 0.40051 0.0
H423 H 0.9605 0.29641 0.40483 0.0
H424 H 0.81513 0.31291 0.38767 0.0
H425 H 0.77083 0.29292 0.34555 0.0
C426 C 0.29092 0.41793 0.84193 0.0
C427 C 0.26035 0.46134 0.82168 0.0
C428 C 0.24081 0.40051 0.75967 0.0
C429 C 0.26443 0.35489 0.78205 0.0
N430 N 0.29597 0.31874 0.852 0.0
N431 N 0.18653 0.48277 0.77034 0.0
C432 C 0.28479 0.36295 0.82555 0.0
C433 C 0.22888 0.44908 0.78349 0.0
N434 N 0.32748 0.4285 0.87506 0.0
N435 N 0.23176 0.39893 0.71542 0.0
H436 H 0.17255 0.51609 0.7892 0.0
H437 H 0.16092 0.47285 0.74388 0.0
H438 H 0.24473 0.36604 0.69565 0.0
H439 H 0.21772 0.43336 0.69798 0.0
H440 H 0.35398 0.3982 0.88749 0.0
H441 H 0.3355 0.46798 0.88713 0.0
H442 H 0.30676 0.32323 0.88496 0.0
H443 H 0.28791 0.27798 0.8427 0.0
C444 C 0.06627 0.78073 0.27979 0.0
C445 C 0.0589 0.75691 0.32222 0.0
C446 C 0.15982 0.74538 0.32904 0.0
C447 C 0.16618 0.76385 0.28498 0.0
N448 N 0.12717 0.79843 0.21759 0.0
N449 N 0.09785 0.71412 0.38688 0.0
C450 C 0.11979 0.7813 0.26011 0.0
C451 C 0.10551 0.73944 0.34715 0.0
N452 N 0.022 0.80446 0.25895 0.0
N453 N 0.20583 0.73328 0.3535 0.0
H454 H 0.05948 0.71116 0.40245 0.0
H455 H 0.12903 0.69342 0.40382 0.0
H456 H 0.24596 0.73285 0.34055 0.0
H457 H 0.20492 0.72662 0.38727 0.0
H458 H 0.02406 0.8239 0.22855 0.0
H459 H 0.98322 0.80924 0.27372 0.0
H460 H 0.09506 0.80489 0.19544 0.0
H461 H 0.16617 0.8039 0.20323 0.0
C462 C 0.7362 0.6175 0.76005 0.0
C463 C 0.75308 0.66445 0.78454 0.0
C464 C 0.77854 0.60524 0.84709 0.0
C465 C 0.76321 0.55796 0.82209 0.0
N466 N 0.71804 0.51873 0.75862 0.0
N467 N 0.78318 0.70553 0.85269 0.0
C468 C 0.73919 0.56416 0.77964 0.0
C469 C 0.77171 0.65905 0.82861 0.0
N470 N 0.71722 0.62432 0.71801 0.0
N471 N 0.8027 0.59867 0.88734 0.0
H472 H 0.78311 0.74533 0.83945 0.0
H473 H 0.79003 0.70543 0.88642 0.0
H474 H 0.80528 0.56077 0.90336 0.0
H475 H 0.82221 0.63032 0.9046 0.0
H476 H 0.70975 0.59223 0.69605 0.0
H477 H 0.71022 0.66306 0.70395 0.0
H478 H 0.69962 0.51925 0.72782 0.0
H479 H 0.71471 0.48002 0.7735 0.0
C480 C 0.18625 0.24463 0.53158 0.0
C481 C 0.17617 0.20852 0.49567 0.0
C482 C 0.17508 0.12946 0.54678 0.0
C483 C 0.19054 0.16522 0.58168 0.0
N484 N 0.22401 0.25465 0.60464 0.0
N485 N 0.17258 0.11499 0.46791 0.0
C486 C 0.20019 0.22215 0.57321 0.0
C487 C 0.17353 0.15038 0.50289 0.0
N488 N 0.18049 0.30057 0.52636 0.0
N489 N 0.16129 0.07573 0.55558 0.0
H490 H 0.17272 0.12867 0.43545 0.0
H491 H 0.17667 0.07223 0.47105 0.0
H492 H 0.16425 0.05863 0.58698 0.0
H493 H 0.1437 0.04937 0.53234 0.0
H494 H 0.18197 0.32849 0.55245 0.0
H495 H 0.16823 0.31861 0.49681 0.0
H496 H 0.2366 0.29533 0.59903 0.0
H497 H 0.23725 0.23881 0.63459 0.0
C498 C 0.33118 0.65495 0.07811 0.0
C499 C 0.36373 0.70342 0.08321 0.0
C500 C 0.37596 0.70747 1.0034 0.0
C501 C 0.33227 0.66862 0.99829 0.0
N502 N 0.26972 0.60231 1.03061 0.0
N503 N 0.42128 0.7741 0.0512 0.0
C504 C 0.31111 0.64042 1.03558 0.0
C505 C 0.38829 0.72857 0.04594 0.0
N506 N 0.31995 0.62297 0.11395 0.0
N507 N 0.4055 0.72383 0.96735 0.0
H508 H 0.43291 0.78869 0.08213 0.0
H509 H 0.43515 0.79848 1.02518 0.0
H510 H 0.39855 0.70641 0.93651 0.0
H511 H 0.44033 0.7493 0.96884 0.0
H512 H 0.29929 0.58514 0.1123 0.0
H513 H 0.33758 0.63146 0.14447 0.0
H514 H 0.248 0.58508 0.0569 0.0
H515 H 0.25546 0.58981 0.99983 0.0
C516 C 0.86854 0.82216 0.58027 0.0
C517 C 0.82188 0.85774 0.58292 0.0
C518 C 0.82467 0.86783 0.5029 0.0
C519 C 0.8597 0.82085 0.50014 0.0
N520 N 0.91928 0.75519 0.53605 0.0
N521 N 0.75758 0.91876 0.54692 0.0
C522 C 0.88376 0.79911 0.53884 0.0
C523 C 0.80108 0.88266 0.54423 0.0
N524 N 0.89844 0.81131 0.6172 0.0
N525 N 0.81494 0.89843 0.46612 0.0
H526 H 0.74136 0.93204 0.577 0.0
H527 H 0.73645 0.93355 0.51952 0.0
H528 H 0.83629 0.89062 0.4369 0.0
H529 H 0.79212 0.93507 0.46619 0.0
H530 H 0.93485 0.78801 0.6172 0.0
H531 H 0.89044 0.83209 0.64659 0.0
H532 H 0.93336 0.73344 0.56337 0.0
H533 H 0.93276 0.73932 0.50592 0.0
C534 C 0.64352 0.35375 0.05274 0.0
C535 C 0.67804 0.33368 0.08693 0.0
C536 C 0.75837 0.33893 1.03768 0.0
C537 C 0.72333 0.35238 1.00178 0.0
N538 N 0.62974 0.36251 0.97415 0.0
N539 N 0.7652 0.29292 0.10786 0.0
C540 C 0.665 0.35731 1.00895 0.0
C541 C 0.7345 0.32182 0.07808 0.0
N542 N 0.59046 0.36999 0.06214 0.0
N543 N 0.81466 0.3447 1.03388 0.0
H544 H 0.74763 0.27631 0.13621 0.0
H545 H 0.80555 0.27935 0.10157 0.0
H546 H 0.83375 0.36071 1.00579 0.0
H547 H 0.84161 0.33998 0.06034 0.0
H548 H 0.56538 0.39087 1.03977 0.0
H549 H 0.57283 0.36556 0.09333 0.0
H550 H 0.5867 0.36047 0.97731 0.0
H551 H 0.64321 0.36389 0.94164 0.0
C552 C 0.02413 0.96189 0.30131 0.0
C553 C 0.98159 0.95939 0.33367 0.0
C554 C 0.03285 0.02669 0.37819 0.0
C555 C 0.06956 0.03595 0.34243 0.0
N556 N 0.12024 0.98507 0.28779 0.0
N557 N 0.94361 0.99145 0.40224 0.0
C558 C 0.07126 0.99562 0.3088 0.0
C559 C 0.98562 0.99234 0.37205 0.0
N560 N 0.01937 0.93315 0.26297 0.0
N561 N 0.04777 0.04315 0.4193 0.0
H562 H 0.90816 0.96712 0.39814 0.0
H563 H 0.9418 0.01845 0.42893 0.0
H564 H 0.08773 0.05768 0.42564 0.0
H565 H 0.02477 0.03402 0.44743 0.0
H566 H 0.04714 0.93782 0.23688 0.0
H567 H 0.98504 0.90897 0.25546 0.0
H568 H 0.12563 0.95244 0.26573 0.0
H569 H 0.15711 1.00427 0.29745 0.0
C570 C 0.49325 0.53039 0.88104 0.0
C571 C 0.48363 0.5657 0.84467 0.0
C572 C 0.5597 0.52139 0.80483 0.0
C573 C 0.56222 0.47951 0.83752 0.0
N574 N 0.52997 0.44268 0.90637 0.0
N575 N 0.53503 0.61658 0.79049 0.0
C576 C 0.52873 0.48385 0.87572 0.0
C577 C 0.52479 0.56779 0.81155 0.0
N578 N 0.47583 0.54606 0.92185 0.0
N579 N 0.58954 0.51668 0.7669 0.0
H580 H 0.51516 0.65317 0.79992 0.0
H581 H 0.56815 0.62226 0.76881 0.0
H582 H 0.61478 0.48292 0.75996 0.0
H583 H 0.58494 0.54387 0.74057 0.0
H584 H 0.4851 0.52401 0.95031 0.0
H585 H 0.46017 0.58573 0.92764 0.0
H586 H 0.5027 0.44109 0.93301 0.0
H587 H 0.55492 0.40763 0.90271 0.0
C588 C 0.48401 0.52878 0.21242 0.0
C589 C 0.47907 0.56061 0.25134 0.0
C590 C 0.56789 0.52321 0.2766 0.0
C591 C 0.567 0.48393 0.24217 0.0
N592 N 0.54689 0.47854 0.16497 0.0
N593 N 0.51493 0.58428 0.32309 0.0
C594 C 0.53124 0.49443 0.20619 0.0
C595 C 0.52051 0.55664 0.28428 0.0
N596 N 0.44274 0.53064 0.18183 0.0
N597 N 0.61667 0.53461 0.29734 0.0
H598 H 0.48086 0.60895 0.33059 0.0
H599 H 0.54188 0.57836 0.34941 0.0
H600 H 0.65422 0.51808 0.28618 0.0
H601 H 0.62112 0.56652 0.32015 0.0
H602 H 0.44153 0.50444 0.15463 0.0
H603 H 0.40717 0.55481 0.18606 0.0
H604 H 0.52476 0.48877 0.13676 0.0
H605 H 0.5864 0.46251 0.15874 0.0
C606 C 0.03624 0.01338 0.70667 0.0
C607 C 0.04566 0.05139 0.7415 0.0
C608 C 0.97001 1.00891 0.78331 0.0
C609 C 0.96624 0.96595 0.75168 0.0
N610 N 0.99852 0.92458 0.68455 0.0
N611 N 0.99288 0.10511 0.79337 0.0
C612 C 1.0003 0.96749 0.71369 0.0
C613 C 1.00463 0.05504 0.77477 0.0
N614 N 0.05358 0.02615 0.66522 0.0
N615 N 0.94097 1.006 0.82173 0.0
H616 H 1.01053 0.14165 0.78147 0.0
H617 H 0.95983 0.11133 0.81504 0.0
H618 H 0.91561 0.97274 0.82991 0.0
H619 H 0.94654 0.03428 0.84725 0.0
H620 H 0.04463 1.002 0.63777 0.0
H621 H 0.06842 0.06556 0.65748 0.0
H622 H 0.02613 0.92074 0.65828 0.0
H623 H 0.97273 0.89032 0.68927 0.0
loop_
_geom_bond_atom_site_label_1
_geom_bond_atom_site_label_2
_geom_bond_distance
_geom_bond_site_symmetry_2
_ccdc_geom_bond_type
C0 C1 1.351 . S
C0 N3 1.368 . S
C0 H5 0.925 1_455 S
C1 C0 1.351 . S
C1 N2 1.373 . S
C1 H29 0.930 . S
N2 C1 1.373 . S
N2 C4 1.340 . S
N3 C0 1.368 . S
N3 C4 1.321 . S
N3 Co6 2.135 . S
C4 N2 1.340 . S
C4 N3 1.321 . S
C4 H28 0.930 . S
H5 C0 0.925 1_655 S
Co6 N3 2.135 . S
Co6 N9 2.121 . S
Co6 O14 2.055 1_455 S
Co6 O17 2.039 . S
Co6 N20 2.140 . S
C7 O8 1.227 . S
C7 O17 1.265 . S
O8 C7 1.227 . S
N9 Co6 2.121 . S
N9 C11 1.375 . S
N9 C12 1.313 . S
C10 C11 1.338 . S
C10 N13 1.377 . S
C10 H30 0.930 . S
C11 N9 1.375 . S
C11 C10 1.338 . S
C11 H15 0.931 . S
C12 N9 1.313 . S
C12 N13 1.344 . S
C12 H16 0.930 1_455 S
N13 C10 1.377 . S
N13 C12 1.344 . S
O14 Co6 2.055 1_655 S
O14 C18 1.253 . S
H15 C11 0.931 . S
H16 C12 0.930 1_655 S
O17 Co6 2.039 . S
O17 C7 1.265 . S
C18 O14 1.253 . S
C18 O19 1.227 . S
O19 C18 1.227 . S
N20 Co6 2.140 . S
N20 C23 1.346 . S
N20 C24 1.345 . S
C21 C22 1.387 . S
C21 C25 1.391 . S
C22 C21 1.387 . S
C22 C23 1.369 . S
C22 H31 0.929 . S
C23 N20 1.346 . S
C23 C22 1.369 . S
C23 H26 0.928 . S
C24 N20 1.345 . S
C24 C25 1.371 . S
C24 H27 0.931 . S
C25 C21 1.391 . S
C25 C24 1.371 . S
C25 H32 0.930 . S
H26 C23 0.928 . S
H27 C24 0.931 . S
H28 C4 0.930 . S
H29 C1 0.930 . S
H30 C10 0.930 . S
H31 C22 0.929 . S
H32 C25 0.930 . S
C33 C34 1.351 . S
C33 N36 1.368 . S
C33 H38 0.931 . S
C34 C33 1.351 . S
C34 N35 1.373 . S
C34 H62 0.930 . S
N35 C34 1.373 . S
N35 C37 1.340 . S
N36 C33 1.368 . S
N36 C37 1.321 . S
N36 Co39 2.135 . S
C37 N35 1.340 . S
C37 N36 1.321 . S
C37 H61 0.930 . S
H38 C33 0.931 . S
Co39 N36 2.135 . S
Co39 N42 2.121 . S
Co39 O47 2.055 . S
Co39 O50 2.039 . S
Co39 N53 2.140 . S
C40 O41 1.227 . S
C40 O50 1.265 . S
O41 C40 1.227 . S
N42 Co39 2.121 . S
N42 C44 1.375 . S
N42 C45 1.313 . S
C43 C44 1.338 . S
C43 N46 1.377 . S
C43 H63 0.930 . S
C44 N42 1.375 . S
C44 C43 1.338 . S
C44 H48 0.931 . S
C45 N42 1.313 . S
C45 N46 1.344 . S
C45 H49 0.930 . S
N46 C43 1.377 . S
N46 C45 1.344 . S
O47 Co39 2.055 . S
O47 C51 1.253 . S
H48 C44 0.931 . S
H49 C45 0.930 . S
O50 Co39 2.039 . S
O50 C40 1.265 . S
C51 O47 1.253 . S
C51 O52 1.227 . S
O52 C51 1.227 . S
N53 Co39 2.140 . S
N53 C56 1.346 . S
N53 C57 1.345 . S
C54 C55 1.387 . S
C54 C58 1.391 . S
C55 C54 1.387 . S
C55 C56 1.369 . S
C55 H64 0.929 . S
C56 N53 1.346 . S
C56 C55 1.369 . S
C56 H59 0.928 . S
C57 N53 1.345 . S
C57 C58 1.371 . S
C57 H60 0.931 . S
C58 C54 1.391 . S
C58 C57 1.371 . S
C58 H65 0.930 . S
H59 C56 0.928 . S
H60 C57 0.931 . S
H61 C37 0.930 . S
H62 C34 0.930 . S
H63 C43 0.930 . S
H64 C55 0.929 . S
H65 C58 0.930 . S
C66 C67 1.351 . S
C66 N69 1.368 . S
C66 H71 0.925 1_655 S
C67 C66 1.351 . S
C67 N68 1.373 . S
C67 H95 0.930 . S
N68 C67 1.373 . S
N68 C70 1.340 . S
N69 C66 1.368 . S
N69 C70 1.321 . S
N69 Co72 2.135 . S
C70 N68 1.340 . S
C70 N69 1.321 . S
C70 H94 0.930 . S
H71 C66 0.925 1_455 S
Co72 N69 2.135 . S
Co72 N75 2.121 . S
Co72 O80 2.055 1_655 S
Co72 O83 2.039 . S
Co72 N86 2.140 . S
C73 O74 1.227 . S
C73 O83 1.265 . S
O74 C73 1.227 . S
N75 Co72 2.121 . S
N75 C77 1.375 . S
N75 C78 1.313 . S
C76 C77 1.338 . S
C76 N79 1.377 . S
C76 H96 0.930 . S
C77 N75 1.375 . S
C77 C76 1.338 . S
C77 H81 0.931 . S
C78 N75 1.313 . S
C78 N79 1.344 . S
C78 H82 0.930 1_655 S
N79 C76 1.377 . S
N79 C78 1.344 . S
O80 Co72 2.055 1_455 S
O80 C84 1.253 . S
H81 C77 0.931 . S
H82 C78 0.930 1_455 S
O83 Co72 2.039 . S
O83 C73 1.265 . S
C84 O80 1.253 . S
C84 O85 1.227 . S
O85 C84 1.227 . S
N86 Co72 2.140 . S
N86 C89 1.346 . S
N86 C90 1.345 . S
C87 C88 1.387 . S
C87 C91 1.391 . S
C88 C87 1.387 . S
C88 C89 1.369 . S
C88 H97 0.929 . S
C89 N86 1.346 . S
C89 C88 1.369 . S
C89 H92 0.928 . S
C90 N86 1.345 . S
C90 C91 1.371 . S
C90 H93 0.931 . S
C91 C87 1.391 . S
C91 C90 1.371 . S
C91 H98 0.930 . S
H92 C89 0.928 . S
H93 C90 0.931 . S
H94 C70 0.930 . S
H95 C67 0.930 . S
H96 C76 0.930 . S
H97 C88 0.929 . S
H98 C91 0.930 . S
C99 C100 1.351 . S
C99 N102 1.368 . S
C99 H104 0.931 . S
C100 C99 1.351 . S
C100 N101 1.373 . S
C100 H128 0.930 . S
N101 C100 1.373 . S
N101 C103 1.340 . S
N102 C99 1.368 . S
N102 C103 1.321 . S
N102 Co105 2.135 . S
C103 N101 1.340 . S
C103 N102 1.321 . S
C103 H127 0.930 . S
H104 C99 0.931 . S
Co105 N102 2.135 . S
Co105 N108 2.121 . S
Co105 O113 2.055 . S
Co105 O116 2.039 . S
Co105 N119 2.140 . S
C106 O107 1.227 . S
C106 O116 1.265 . S
O107 C106 1.227 . S
N108 Co105 2.121 . S
N108 C110 1.375 . S
N108 C111 1.313 . S
C109 C110 1.338 . S
C109 N112 1.377 . S
C109 H129 0.930 . S
C110 N108 1.375 . S
C110 C109 1.338 . S
C110 H114 0.931 . S
C111 N108 1.313 . S
C111 N112 1.344 . S
C111 H115 0.930 . S
N112 C109 1.377 . S
N112 C111 1.344 . S
O113 Co105 2.055 . S
O113 C117 1.253 . S
H114 C110 0.931 . S
H115 C111 0.930 . S
O116 Co105 2.039 . S
O116 C106 1.265 . S
C117 O113 1.253 . S
C117 O118 1.227 . S
O118 C117 1.227 . S
N119 Co105 2.140 . S
N119 C122 1.346 . S
N119 C123 1.345 . S
C120 C121 1.387 . S
C120 C124 1.391 . S
C121 C120 1.387 . S
C121 C122 1.369 . S
C121 H130 0.929 . S
C122 N119 1.346 . S
C122 C121 1.369 . S
C122 H125 0.928 . S
C123 N119 1.345 . S
C123 C124 1.371 . S
C123 H126 0.931 . S
C124 C120 1.391 . S
C124 C123 1.371 . S
C124 H131 0.930 . S
H125 C122 0.928 . S
H126 C123 0.931 . S
H127 C103 0.930 . S
H128 C100 0.930 . S
H129 C109 0.930 . S
H130 C121 0.929 . S
H131 C124 0.930 . S
C132 C133 1.351 . S
C132 N135 1.368 . S
C132 H137 0.931 . S
C133 C132 1.351 . S
C133 N134 1.373 . S
C133 H161 0.930 . S
N134 C133 1.373 . S
N134 C136 1.340 . S
N135 C132 1.368 . S
N135 C136 1.321 . S
N135 Co138 2.135 . S
C136 N134 1.340 . S
C136 N135 1.321 . S
C136 H160 0.930 . S
H137 C132 0.931 . S
Co138 N135 2.135 . S
Co138 N141 2.121 . S
Co138 O146 2.055 . S
Co138 O149 2.039 . S
Co138 N152 2.140 . S
C139 O140 1.227 . S
C139 O149 1.265 . S
O140 C139 1.227 . S
N141 Co138 2.121 . S
N141 C143 1.375 . S
N141 C144 1.313 . S
C142 C143 1.338 . S
C142 N145 1.377 . S
C142 H162 0.930 . S
C143 N141 1.375 . S
C143 C142 1.338 . S
C143 H147 0.931 . S
C144 N141 1.313 . S
C144 N145 1.344 . S
C144 H148 0.930 . S
N145 C142 1.377 . S
N145 C144 1.344 . S
O146 Co138 2.055 . S
O146 C150 1.253 . S
H147 C143 0.931 . S
H148 C144 0.930 . S
O149 Co138 2.039 . S
O149 C139 1.265 . S
C150 O146 1.253 . S
C150 O151 1.227 . S
O151 C150 1.227 . S
N152 Co138 2.140 . S
N152 C155 1.346 . S
N152 C156 1.345 . S
C153 C154 1.387 . S
C153 C157 1.391 . S
C154 C153 1.387 . S
C154 C155 1.369 . S
C154 H163 0.929 . S
C155 N152 1.346 . S
C155 C154 1.369 . S
C155 H158 0.928 . S
C156 N152 1.345 . S
C156 C157 1.371 . S
C156 H159 0.931 . S
C157 C153 1.391 . S
C157 C156 1.371 . S
C157 H164 0.930 . S
H158 C155 0.928 . S
H159 C156 0.931 . S
H160 C136 0.930 . S
H161 C133 0.930 . S
H162 C142 0.930 . S
H163 C154 0.929 . S
H164 C157 0.930 . S
C165 C166 1.351 . S
C165 N168 1.368 . S
C165 H170 0.925 1_545 S
C166 C165 1.351 . S
C166 N167 1.373 . S
C166 H194 0.930 . S
N167 C166 1.373 . S
N167 C169 1.340 . S
N168 C165 1.368 . S
N168 C169 1.321 . S
N168 Co171 2.135 . S
C169 N167 1.340 . S
C169 N168 1.321 . S
C169 H193 0.930 . S
H170 C165 0.925 1_565 S
Co171 N168 2.135 . S
Co171 N174 2.121 . S
Co171 O179 2.055 1_545 S
Co171 O182 2.039 . S
Co171 N185 2.140 . S
C172 O173 1.227 . S
C172 O182 1.265 . S
O173 C172 1.227 . S
N174 Co171 2.121 . S
N174 C176 1.375 . S
N174 C177 1.313 . S
C175 C176 1.338 . S
C175 N178 1.377 . S
C175 H195 0.930 . S
C176 N174 1.375 . S
C176 C175 1.338 . S
C176 H180 0.931 . S
C177 N174 1.313 . S
C177 N178 1.344 . S
C177 H181 0.930 1_545 S
N178 C175 1.377 . S
N178 C177 1.344 . S
O179 Co171 2.055 1_565 S
O179 C183 1.253 . S
H180 C176 0.931 . S
H181 C177 0.930 1_565 S
O182 Co171 2.039 . S
O182 C172 1.265 . S
C183 O179 1.253 . S
C183 O184 1.227 . S
O184 C183 1.227 . S
N185 Co171 2.140 . S
N185 C188 1.346 . S
N185 C189 1.345 . S
C186 C187 1.387 . S
C186 C190 1.391 . S
C187 C186 1.387 . S
C187 C188 1.369 . S
C187 H196 0.929 . S
C188 N185 1.346 . S
C188 C187 1.369 . S
C188 H191 0.928 . S
C189 N185 1.345 . S
C189 C190 1.371 . S
C189 H192 0.931 . S
C190 C186 1.391 . S
C190 C189 1.371 . S
C190 H197 0.930 . S
H191 C188 0.928 . S
H192 C189 0.931 . S
H193 C169 0.930 . S
H194 C166 0.930 . S
H195 C175 0.930 . S
H196 C187 0.929 . S
H197 C190 0.930 . S
C198 C199 1.351 . S
C198 N201 1.368 . S
C198 H203 0.931 . S
C199 C198 1.351 . S
C199 N200 1.373 . S
C199 H227 0.930 . S
N200 C199 1.373 . S
N200 C202 1.340 . S
N201 C198 1.368 . S
N201 C202 1.321 . S
N201 Co204 2.135 . S
C202 N200 1.340 . S
C202 N201 1.321 . S
C202 H226 0.930 . S
H203 C198 0.931 . S
Co204 N201 2.135 . S
Co204 N207 2.121 . S
Co204 O212 2.055 . S
Co204 O215 2.039 . S
Co204 N218 2.140 . S
C205 O206 1.227 . S
C205 O215 1.265 . S
O206 C205 1.227 . S
N207 Co204 2.121 . S
N207 C209 1.375 . S
N207 C210 1.313 . S
C208 C209 1.338 . S
C208 N211 1.377 . S
C208 H228 0.930 . S
C209 N207 1.375 . S
C209 C208 1.338 . S
C209 H213 0.931 . S
C210 N207 1.313 . S
C210 N211 1.344 . S
C210 H214 0.930 . S
N211 C208 1.377 . S
N211 C210 1.344 . S
O212 Co204 2.055 . S
O212 C216 1.253 . S
H213 C209 0.931 . S
H214 C210 0.930 . S
O215 Co204 2.039 . S
O215 C205 1.265 . S
C216 O212 1.253 . S
C216 O217 1.227 . S
O217 C216 1.227 . S
N218 Co204 2.140 . S
N218 C221 1.346 . S
N218 C222 1.345 . S
C219 C220 1.387 . S
C219 C223 1.391 . S
C220 C219 1.387 . S
C220 C221 1.369 . S
C220 H229 0.929 . S
C221 N218 1.346 . S
C221 C220 1.369 . S
C221 H224 0.928 . S
C222 N218 1.345 . S
C222 C223 1.371 . S
C222 H225 0.931 . S
C223 C219 1.391 . S
C223 C222 1.371 . S
C223 H230 0.930 . S
H224 C221 0.928 . S
H225 C222 0.931 . S
H226 C202 0.930 . S
H227 C199 0.930 . S
H228 C208 0.930 . S
H229 C220 0.929 . S
H230 C223 0.930 . S
C231 C232 1.351 . S
C231 N234 1.368 . S
C231 H236 0.925 1_565 S
C232 C231 1.351 . S
C232 N233 1.373 . S
C232 H260 0.930 . S
N233 C232 1.373 . S
N233 C235 1.340 . S
N234 C231 1.368 . S
N234 C235 1.321 . S
N234 Co237 2.135 . S
C235 N233 1.340 . S
C235 N234 1.321 . S
C235 H259 0.930 . S
H236 C231 0.925 1_545 S
Co237 N234 2.135 . S
Co237 N240 2.121 . S
Co237 O245 2.055 1_565 S
Co237 O248 2.039 . S
Co237 N251 2.140 . S
C238 O239 1.227 . S
C238 O248 1.265 . S
O239 C238 1.227 . S
N240 Co237 2.121 . S
N240 C242 1.375 . S
N240 C243 1.313 . S
C241 C242 1.338 . S
C241 N244 1.377 . S
C241 H261 0.930 . S
C242 N240 1.375 . S
C242 C241 1.338 . S
C242 H246 0.931 . S
C243 N240 1.313 . S
C243 N244 1.344 . S
C243 H247 0.930 1_565 S
N244 C241 1.377 . S
N244 C243 1.344 . S
O245 Co237 2.055 1_545 S
O245 C249 1.253 . S
H246 C242 0.931 . S
H247 C243 0.930 1_545 S
O248 Co237 2.039 . S
O248 C238 1.265 . S
C249 O245 1.253 . S
C249 O250 1.227 . S
O250 C249 1.227 . S
N251 Co237 2.140 . S
N251 C254 1.346 . S
N251 C255 1.345 . S
C252 C253 1.387 . S
C252 C256 1.391 . S
C253 C252 1.387 . S
C253 C254 1.369 . S
C253 H262 0.929 . S
C254 N251 1.346 . S
C254 C253 1.369 . S
C254 H257 0.928 . S
C255 N251 1.345 . S
C255 C256 1.371 . S
C255 H258 0.931 . S
C256 C252 1.391 . S
C256 C255 1.371 . S
C256 H263 0.930 . S
H257 C254 0.928 . S
H258 C255 0.931 . S
H259 C235 0.930 . S
H260 C232 0.930 . S
H261 C241 0.930 . S
H262 C253 0.929 . S
H263 C256 0.930 . S
C264 C265 1.363 1_455 S
C264 C270 1.379 . S
C264 N272 1.356 . S
C265 C264 1.363 1_655 S
C265 C271 1.363 . S
C266 C267 1.363 1_655 S
C266 C271 1.379 . S
C266 N273 1.356 . S
C267 C266 1.363 1_455 S
C267 C270 1.363 . S
N268 C270 1.356 . S
N268 H280 0.984 . S
N268 H281 0.985 . S
N269 C271 1.356 . S
N269 H274 0.984 . S
N269 H275 0.985 . S
C270 C264 1.379 . S
C270 C267 1.363 . S
C270 N268 1.356 . S
C271 C265 1.363 . S
C271 C266 1.379 . S
C271 N269 1.356 . S
N272 C264 1.356 . S
N272 H278 0.984 . S
N272 H279 0.984 1_455 S
N273 C266 1.356 . S
N273 H276 0.984 1_655 S
N273 H277 0.985 . S
H274 N269 0.984 . S
H275 N269 0.985 . S
H276 N273 0.984 1_455 S
H277 N273 0.985 . S
H278 N272 0.984 . S
H279 N272 0.984 1_655 S
H280 N268 0.984 . S
H281 N268 0.985 . S
C282 C283 1.363 . S
C282 C288 1.379 1_655 S
C282 N290 1.356 . S
C283 C282 1.363 . S
C283 C289 1.363 . S
C284 C285 1.363 . S
C284 C289 1.379 1_455 S
C284 N291 1.356 . S
C285 C284 1.363 . S
C285 C288 1.363 . S
N286 C288 1.356 . S
N286 H298 0.984 . S
N286 H299 0.985 . S
N287 C289 1.356 . S
N287 H292 0.984 . S
N287 H293 0.985 . S
C288 C282 1.379 1_455 S
C288 C285 1.363 . S
C288 N286 1.356 . S
C289 C283 1.363 . S
C289 C284 1.379 1_655 S
C289 N287 1.356 . S
N290 C282 1.356 . S
N290 H296 0.984 . S
N290 H297 0.984 . S
N291 C284 1.356 . S
N291 H294 0.984 . S
N291 H295 0.985 . S
H292 N287 0.984 . S
H293 N287 0.985 . S
H294 N291 0.984 . S
H295 N291 0.985 . S
H296 N290 0.984 . S
H297 N290 0.984 . S
H298 N286 0.984 . S
H299 N286 0.985 . S
C300 C301 1.363 . S
C300 C306 1.379 1_565 S
C300 N308 1.356 . S
C301 C300 1.363 . S
C301 C307 1.363 . S
C302 C303 1.363 . S
C302 C307 1.379 1_545 S
C302 N309 1.356 . S
C303 C302 1.363 . S
C303 C306 1.363 . S
N304 C306 1.356 . S
N304 H316 0.984 . S
N304 H317 0.985 . S
N305 C307 1.356 . S
N305 H310 0.984 . S
N305 H311 0.985 . S
C306 C300 1.379 1_545 S
C306 C303 1.363 . S
C306 N304 1.356 . S
C307 C301 1.363 . S
C307 C302 1.379 1_565 S
C307 N305 1.356 . S
N308 C300 1.356 . S
N308 H314 0.984 . S
N308 H315 0.984 . S
N309 C302 1.356 . S
N309 H312 0.984 . S
N309 H313 0.985 . S
H310 N305 0.984 . S
H311 N305 0.985 . S
H312 N309 0.984 . S
H313 N309 0.985 . S
H314 N308 0.984 . S
H315 N308 0.984 . S
H316 N304 0.984 . S
H317 N304 0.985 . S
C318 C319 1.363 . S
C318 C324 1.379 . S
C318 N326 1.356 . S
C319 C318 1.363 . S
C319 C325 1.363 1_565 S
C320 C321 1.363 . S
C320 C325 1.379 . S
C320 N327 1.356 . S
C321 C320 1.363 . S
C321 C324 1.363 1_545 S
N322 C324 1.356 . S
N322 H334 0.984 . S
N322 H335 0.985 1_565 S
N323 C325 1.356 . S
N323 H328 0.984 1_545 S
N323 H329 0.985 . S
C324 C318 1.379 . S
C324 C321 1.363 1_565 S
C324 N322 1.356 . S
C325 C319 1.363 1_545 S
C325 C320 1.379 . S
C325 N323 1.356 . S
N326 C318 1.356 . S
N326 H332 0.984 . S
N326 H333 0.984 . S
N327 C320 1.356 . S
N327 H330 0.984 . S
N327 H331 0.985 . S
H328 N323 0.984 1_565 S
H329 N323 0.985 . S
H330 N327 0.984 . S
H331 N327 0.985 . S
H332 N326 0.984 . S
H333 N326 0.984 . S
H334 N322 0.984 . S
H335 N322 0.985 1_545 S
C336 C337 1.363 . S
C336 C342 1.379 . S
C336 N344 1.356 . S
C337 C336 1.363 . S
C337 C343 1.363 . S
C338 C339 1.363 . S
C338 C343 1.379 . S
C338 N345 1.356 . S
C339 C338 1.363 . S
C339 C342 1.363 . S
N340 C342 1.356 . S
N340 H352 0.984 . S
N340 H353 0.985 . S
N341 C343 1.356 . S
N341 H346 0.984 . S
N341 H347 0.985 . S
C342 C336 1.379 . S
C342 C339 1.363 . S
C342 N340 1.356 . S
C343 C337 1.363 . S
C343 C338 1.379 . S
C343 N341 1.356 . S
N344 C336 1.356 . S
N344 H350 0.984 . S
N344 H351 0.984 . S
N345 C338 1.356 . S
N345 H348 0.984 . S
N345 H349 0.985 . S
H346 N341 0.984 . S
H347 N341 0.985 . S
H348 N345 0.984 . S
H349 N345 0.985 . S
H350 N344 0.984 . S
H351 N344 0.984 . S
H352 N340 0.984 . S
H353 N340 0.985 . S
C354 C355 1.363 . S
C354 C360 1.379 . S
C354 N362 1.356 . S
C355 C354 1.363 . S
C355 C361 1.363 . S
C356 C357 1.363 . S
C356 C361 1.379 . S
C356 N363 1.356 . S
C357 C356 1.363 . S
C357 C360 1.363 . S
N358 C360 1.356 . S
N358 H370 0.984 . S
N358 H371 0.985 . S
N359 C361 1.356 . S
N359 H364 0.984 . S
N359 H365 0.985 . S
C360 C354 1.379 . S
C360 C357 1.363 . S
C360 N358 1.356 . S
C361 C355 1.363 . S
C361 C356 1.379 . S
C361 N359 1.356 . S
N362 C354 1.356 . S
N362 H368 0.984 . S
N362 H369 0.984 . S
N363 C356 1.356 . S
N363 H366 0.984 . S
N363 H367 0.985 . S
H364 N359 0.984 . S
H365 N359 0.985 . S
H366 N363 0.984 . S
H367 N363 0.985 . S
H368 N362 0.984 . S
H369 N362 0.984 . S
H370 N358 0.984 . S
H371 N358 0.985 . S
C372 C373 1.363 . S
C372 C378 1.379 . S
C372 N380 1.356 . S
C373 C372 1.363 . S
C373 C379 1.363 . S
C374 C375 1.363 . S
C374 C379 1.379 . S
C374 N381 1.356 . S
C375 C374 1.363 . S
C375 C378 1.363 . S
N376 C378 1.356 . S
N376 H388 0.984 . S
N376 H389 0.985 . S
N377 C379 1.356 . S
N377 H382 0.984 . S
N377 H383 0.985 . S
C378 C372 1.379 . S
C378 C375 1.363 . S
C378 N376 1.356 . S
C379 C373 1.363 . S
C379 C374 1.379 . S
C379 N377 1.356 . S
N380 C372 1.356 . S
N380 H386 0.984 . S
N380 H387 0.984 . S
N381 C374 1.356 . S
N381 H384 0.984 . S
N381 H385 0.985 . S
H382 N377 0.984 . S
H383 N377 0.985 . S
H384 N381 0.984 . S
H385 N381 0.985 . S
H386 N380 0.984 . S
H387 N380 0.984 . S
H388 N376 0.984 . S
H389 N376 0.985 . S
C390 C391 1.363 . S
C390 C396 1.379 . S
C390 N398 1.356 . S
C391 C390 1.363 . S
C391 C397 1.363 . S
C392 C393 1.363 . S
C392 C397 1.379 . S
C392 N399 1.356 . S
C393 C392 1.363 . S
C393 C396 1.363 . S
N394 C396 1.356 . S
N394 H406 0.984 . S
N394 H407 0.985 . S
N395 C397 1.356 . S
N395 H400 0.984 . S
N395 H401 0.985 . S
C396 C390 1.379 . S
C396 C393 1.363 . S
C396 N394 1.356 . S
C397 C391 1.363 . S
C397 C392 1.379 . S
C397 N395 1.356 . S
N398 C390 1.356 . S
N398 H404 0.984 . S
N398 H405 0.984 . S
N399 C392 1.356 . S
N399 H402 0.984 . S
N399 H403 0.985 . S
H400 N395 0.984 . S
H401 N395 0.985 . S
H402 N399 0.984 . S
H403 N399 0.985 . S
H404 N398 0.984 . S
H405 N398 0.984 . S
H406 N394 0.984 . S
H407 N394 0.985 . S
C408 C409 1.363 . S
C408 C414 1.379 . S
C408 N416 1.356 . S
C409 C408 1.363 . S
C409 C415 1.363 . S
C410 C411 1.363 . S
C410 C415 1.379 . S
C410 N417 1.356 . S
C411 C410 1.363 . S
C411 C414 1.363 . S
N412 C414 1.356 . S
N412 H424 0.984 . S
N412 H425 0.985 . S
N413 C415 1.356 . S
N413 H418 0.984 . S
N413 H419 0.985 . S
C414 C408 1.379 . S
C414 C411 1.363 . S
C414 N412 1.356 . S
C415 C409 1.363 . S
C415 C410 1.379 . S
C415 N413 1.356 . S
N416 C408 1.356 . S
N416 H422 0.984 . S
N416 H423 0.984 . S
N417 C410 1.356 . S
N417 H420 0.984 . S
N417 H421 0.985 . S
H418 N413 0.984 . S
H419 N413 0.985 . S
H420 N417 0.984 . S
H421 N417 0.985 . S
H422 N416 0.984 . S
H423 N416 0.984 . S
H424 N412 0.984 . S
H425 N412 0.985 . S
C426 C427 1.363 . S
C426 C432 1.379 . S
C426 N434 1.356 . S
C427 C426 1.363 . S
C427 C433 1.363 . S
C428 C429 1.363 . S
C428 C433 1.379 . S
C428 N435 1.356 . S
C429 C428 1.363 . S
C429 C432 1.363 . S
N430 C432 1.356 . S
N430 H442 0.984 . S
N430 H443 0.985 . S
N431 C433 1.356 . S
N431 H436 0.984 . S
N431 H437 0.985 . S
C432 C426 1.379 . S
C432 C429 1.363 . S
C432 N430 1.356 . S
C433 C427 1.363 . S
C433 C428 1.379 . S
C433 N431 1.356 . S
N434 C426 1.356 . S
N434 H440 0.984 . S
N434 H441 0.984 . S
N435 C428 1.356 . S
N435 H438 0.984 . S
N435 H439 0.985 . S
H436 N431 0.984 . S
H437 N431 0.985 . S
H438 N435 0.984 . S
H439 N435 0.985 . S
H440 N434 0.984 . S
H441 N434 0.984 . S
H442 N430 0.984 . S
H443 N430 0.985 . S
C444 C445 1.363 . S
C444 C450 1.379 . S
C444 N452 1.356 . S
C445 C444 1.363 . S
C445 C451 1.363 . S
C446 C447 1.363 . S
C446 C451 1.379 . S
C446 N453 1.356 . S
C447 C446 1.363 . S
C447 C450 1.363 . S
N448 C450 1.356 . S
N448 H460 0.984 . S
N448 H461 0.985 . S
N449 C451 1.356 . S
N449 H454 0.984 . S
N449 H455 0.985 . S
C450 C444 1.379 . S
C450 C447 1.363 . S
C450 N448 1.356 . S
C451 C445 1.363 . S
C451 C446 1.379 . S
C451 N449 1.356 . S
N452 C444 1.356 . S
N452 H458 0.984 . S
N452 H459 0.984 . S
N453 C446 1.356 . S
N453 H456 0.984 . S
N453 H457 0.985 . S
H454 N449 0.984 . S
H455 N449 0.985 . S
H456 N453 0.984 . S
H457 N453 0.985 . S
H458 N452 0.984 . S
H459 N452 0.984 . S
H460 N448 0.984 . S
H461 N448 0.985 . S
C462 C463 1.363 . S
C462 C468 1.379 . S
C462 N470 1.356 . S
C463 C462 1.363 . S
C463 C469 1.363 . S
C464 C465 1.363 . S
C464 C469 1.379 . S
C464 N471 1.356 . S
C465 C464 1.363 . S
C465 C468 1.363 . S
N466 C468 1.356 . S
N466 H478 0.984 . S
N466 H479 0.985 . S
N467 C469 1.356 . S
N467 H472 0.984 . S
N467 H473 0.985 . S
C468 C462 1.379 . S
C468 C465 1.363 . S
C468 N466 1.356 . S
C469 C463 1.363 . S
C469 C464 1.379 . S
C469 N467 1.356 . S
N470 C462 1.356 . S
N470 H476 0.984 . S
N470 H477 0.984 . S
N471 C464 1.356 . S
N471 H474 0.984 . S
N471 H475 0.985 . S
H472 N467 0.984 . S
H473 N467 0.985 . S
H474 N471 0.984 . S
H475 N471 0.985 . S
H476 N470 0.984 . S
H477 N470 0.984 . S
H478 N466 0.984 . S
H479 N466 0.985 . S
C480 C481 1.363 . S
C480 C486 1.379 . S
C480 N488 1.356 . S
C481 C480 1.363 . S
C481 C487 1.363 . S
C482 C483 1.363 . S
C482 C487 1.379 . S
C482 N489 1.356 . S
C483 C482 1.363 . S
C483 C486 1.363 . S
N484 C486 1.356 . S
N484 H496 0.984 . S
N484 H497 0.985 . S
N485 C487 1.356 . S
N485 H490 0.984 . S
N485 H491 0.985 . S
C486 C480 1.379 . S
C486 C483 1.363 . S
C486 N484 1.356 . S
C487 C481 1.363 . S
C487 C482 1.379 . S
C487 N485 1.356 . S
N488 C480 1.356 . S
N488 H494 0.984 . S
N488 H495 0.984 . S
N489 C482 1.356 . S
N489 H492 0.984 . S
N489 H493 0.985 . S
H490 N485 0.984 . S
H491 N485 0.985 . S
H492 N489 0.984 . S
H493 N489 0.985 . S
H494 N488 0.984 . S
H495 N488 0.984 . S
H496 N484 0.984 . S
H497 N484 0.985 . S
C498 C499 1.363 . S
C498 C504 1.379 . S
C498 N506 1.356 . S
C499 C498 1.363 . S
C499 C505 1.363 1_554 S
C500 C501 1.363 . S
C500 C505 1.379 . S
C500 N507 1.356 . S
C501 C500 1.363 . S
C501 C504 1.363 1_556 S
N502 C504 1.356 . S
N502 H514 0.984 . S
N502 H515 0.985 1_554 S
N503 C505 1.356 . S
N503 H508 0.984 1_556 S
N503 H509 0.985 . S
C504 C498 1.379 . S
C504 C501 1.363 1_554 S
C504 N502 1.356 . S
C505 C499 1.363 1_556 S
C505 C500 1.379 . S
C505 N503 1.356 . S
N506 C498 1.356 . S
N506 H512 0.984 . S
N506 H513 0.984 . S
N507 C500 1.356 . S
N507 H510 0.984 . S
N507 H511 0.985 . S
H508 N503 0.984 1_554 S
H509 N503 0.985 . S
H510 N507 0.984 . S
H511 N507 0.985 . S
H512 N506 0.984 . S
H513 N506 0.984 . S
H514 N502 0.984 . S
H515 N502 0.985 1_556 S
C516 C517 1.363 . S
C516 C522 1.379 . S
C516 N524 1.356 . S
C517 C516 1.363 . S
C517 C523 1.363 . S
C518 C519 1.363 . S
C518 C523 1.379 . S
C518 N525 1.356 . S
C519 C518 1.363 . S
C519 C522 1.363 . S
N520 C522 1.356 . S
N520 H532 0.984 . S
N520 H533 0.985 . S
N521 C523 1.356 . S
N521 H526 0.984 . S
N521 H527 0.985 . S
C522 C516 1.379 . S
C522 C519 1.363 . S
C522 N520 1.356 . S
C523 C517 1.363 . S
C523 C518 1.379 . S
C523 N521 1.356 . S
N524 C516 1.356 . S
N524 H530 0.984 . S
N524 H531 0.984 . S
N525 C518 1.356 . S
N525 H528 0.984 . S
N525 H529 0.985 . S
H526 N521 0.984 . S
H527 N521 0.985 . S
H528 N525 0.984 . S
H529 N525 0.985 . S
H530 N524 0.984 . S
H531 N524 0.984 . S
H532 N520 0.984 . S
H533 N520 0.985 . S
C534 C535 1.363 1_556 S
C534 C540 1.379 . S
C534 N542 1.356 1_556 S
C535 C534 1.363 1_554 S
C535 C541 1.363 . S
C536 C537 1.363 1_554 S
C536 C541 1.379 . S
C536 N543 1.356 1_554 S
C537 C536 1.363 1_556 S
C537 C540 1.363 . S
N538 C540 1.356 . S
N538 H550 0.984 . S
N538 H551 0.985 . S
N539 C541 1.356 . S
N539 H544 0.984 . S
N539 H545 0.985 . S
C540 C534 1.379 . S
C540 C537 1.363 . S
C540 N538 1.356 . S
C541 C535 1.363 . S
C541 C536 1.379 . S
C541 N539 1.356 . S
N542 C534 1.356 1_554 S
N542 H548 0.984 1_554 S
N542 H549 0.984 . S
N543 C536 1.356 1_556 S
N543 H546 0.984 . S
N543 H547 0.985 1_556 S
H544 N539 0.984 . S
H545 N539 0.985 . S
H546 N543 0.984 . S
H547 N543 0.985 1_554 S
H548 N542 0.984 1_556 S
H549 N542 0.984 . S
H550 N538 0.984 . S
H551 N538 0.985 . S
C552 C553 1.363 . S
C552 C558 1.379 1_655 S
C552 N560 1.356 . S
C553 C552 1.363 . S
C553 C559 1.363 1_565 S
C554 C555 1.363 . S
C554 C559 1.379 1_455 S
C554 N561 1.356 . S
C555 C554 1.363 . S
C555 C558 1.363 1_545 S
N556 C558 1.356 . S
N556 H568 0.984 . S
N556 H569 0.985 1_565 S
N557 C559 1.356 . S
N557 H562 0.984 1_545 S
N557 H563 0.985 . S
C558 C552 1.379 1_455 S
C558 C555 1.363 1_565 S
C558 N556 1.356 . S
C559 C553 1.363 1_545 S
C559 C554 1.379 1_655 S
C559 N557 1.356 . S
N560 C552 1.356 . S
N560 H566 0.984 . S
N560 H567 0.984 . S
N561 C554 1.356 . S
N561 H564 0.984 . S
N561 H565 0.985 . S
H562 N557 0.984 1_565 S
H563 N557 0.985 . S
H564 N561 0.984 . S
H565 N561 0.985 . S
H566 N560 0.984 . S
H567 N560 0.984 . S
H568 N556 0.984 . S
H569 N556 0.985 1_545 S
C570 C571 1.363 . S
C570 C576 1.379 . S
C570 N578 1.356 . S
C571 C570 1.363 . S
C571 C577 1.363 . S
C572 C573 1.363 . S
C572 C577 1.379 . S
C572 N579 1.356 . S
C573 C572 1.363 . S
C573 C576 1.363 . S
N574 C576 1.356 . S
N574 H586 0.984 . S
N574 H587 0.985 . S
N575 C577 1.356 . S
N575 H580 0.984 . S
N575 H581 0.985 . S
C576 C570 1.379 . S
C576 C573 1.363 . S
C576 N574 1.356 . S
C577 C571 1.363 . S
C577 C572 1.379 . S
C577 N575 1.356 . S
N578 C570 1.356 . S
N578 H584 0.984 . S
N578 H585 0.984 . S
N579 C572 1.356 . S
N579 H582 0.984 . S
N579 H583 0.985 . S
H580 N575 0.984 . S
H581 N575 0.985 . S
H582 N579 0.984 . S
H583 N579 0.985 . S
H584 N578 0.984 . S
H585 N578 0.984 . S
H586 N574 0.984 . S
H587 N574 0.985 . S
C588 C589 1.363 . S
C588 C594 1.379 . S
C588 N596 1.356 . S
C589 C588 1.363 . S
C589 C595 1.363 . S
C590 C591 1.363 . S
C590 C595 1.379 . S
C590 N597 1.356 . S
C591 C590 1.363 . S
C591 C594 1.363 . S
N592 C594 1.356 . S
N592 H604 0.984 . S
N592 H605 0.985 . S
N593 C595 1.356 . S
N593 H598 0.984 . S
N593 H599 0.985 . S
C594 C588 1.379 . S
C594 C591 1.363 . S
C594 N592 1.356 . S
C595 C589 1.363 . S
C595 C590 1.379 . S
C595 N593 1.356 . S
N596 C588 1.356 . S
N596 H602 0.984 . S
N596 H603 0.984 . S
N597 C590 1.356 . S
N597 H600 0.984 . S
N597 H601 0.985 . S
H598 N593 0.984 . S
H599 N593 0.985 . S
H600 N597 0.984 . S
H601 N597 0.985 . S
H602 N596 0.984 . S
H603 N596 0.984 . S
H604 N592 0.984 . S
H605 N592 0.985 . S
C606 C607 1.363 1_655 S
C606 C612 1.379 1_545 S
C606 N614 1.356 . S
C607 C606 1.363 1_455 S
C607 C613 1.363 . S
C608 C609 1.363 1_455 S
C608 C613 1.379 1_565 S
C608 N615 1.356 . S
C609 C608 1.363 1_655 S
C609 C612 1.363 . S
N610 C612 1.356 . S
N610 H622 0.984 . S
N610 H623 0.985 . S
N611 C613 1.356 . S
N611 H616 0.984 . S
N611 H617 0.985 . S
C612 C606 1.379 1_565 S
C612 C609 1.363 . S
C612 N610 1.356 . S
C613 C607 1.363 . S
C613 C608 1.379 1_545 S
C613 N611 1.356 . S
N614 C606 1.356 . S
N614 H620 0.984 . S
N614 H621 0.984 1_655 S
N615 C608 1.356 . S
N615 H618 0.984 1_455 S
N615 H619 0.985 . S
H616 N611 0.984 . S
H617 N611 0.985 . S
H618 N615 0.984 1_655 S
H619 N615 0.985 . S
H620 N614 0.984 . S
H621 N614 0.984 1_455 S
H622 N610 0.984 . S
H623 N610 0.985 . S
C265 N79 1.192 . S
C267 N13 1.192 . S
C283 N112 1.192 . S
C285 N46 1.192 . S
C301 N211 1.192 . S
C303 N145 1.192 . S
C319 N244 1.192 . S
C321 N178 1.192 . S
C337 C150 1.905 . S
C339 C21 1.894 . S
C355 C183 1.904 . S
C357 C54 1.894 . S
C373 C216 1.905 . S
C375 C87 1.894 . S
C391 C120 1.894 . S
C393 C249 1.904 . S
C409 C18 1.904 . S
C411 C153 1.894 . S
C427 C51 1.905 . S
C429 C186 1.894 . S
C445 C84 1.904 . S
C447 C219 1.894 . S
C463 C252 1.894 . S
C465 C117 1.905 . S
C481 C7 1.780 . S
C483 C172 1.780 . S
C499 C205 1.780 . S
C501 C40 1.780 . S
C517 C238 1.780 . S
C519 C73 1.780 . S
C535 C139 1.780 . S
C537 C106 1.780 . S
C553 N68 0.764 . S
C555 N2 0.764 . S
C571 N35 0.764 . S
C573 N101 0.764 . S
C589 N200 0.764 . S
C591 N134 0.764 . S
C607 N167 0.764 . S
C609 N233 0.764 . S
