# Generated by pormake.
# Topology wjo, (5)-cn, num edge types: 1
# Building blocks:
#     Node 0, Type 0, BuildingBlock: XOMCOT_clean_sbu_0, # of connection points: 5
#     Node 1, Type 0, BuildingBlock: XOMCOT_clean_sbu_0, # of connection points: 5
#     Node 2, Type 0, BuildingBlock: XOMCOT_clean_sbu_0, # of connection points: 5
#     Node 3, Type 0, BuildingBlock: XOMCOT_clean_sbu_0, # of connection points: 5
#     Node 4, Type 0, BuildingBlock: XOMCOT_clean_sbu_0, # of connection points: 5
#     Node 5, Type 0, BuildingBlock: XOMCOT_clean_sbu_0, # of connection points: 5
#     Node 6, Type 0, BuildingBlock: XOMCOT_clean_sbu_0, # of connection points: 5
#     Node 7, Type 0, BuildingBlock: XOMCOT_clean_sbu_0, # of connection points: 5
#     Node 8, Type 0, BuildingBlock: XOMCOT_clean_sbu_0, # of connection points: 5
#     Node 9, Type 0, BuildingBlock: XOMCOT_clean_sbu_0, # of connection points: 5
#     Node 10, Type 0, BuildingBlock: XOMCOT_clean_sbu_0, # of connection points: 5
#     Node 11, Type 0, BuildingBlock: XOMCOT_clean_sbu_0, # of connection points: 5
#     Edge 12, Type (0, 0), BuildingBlock: UVAHIK_clean_linker_0, # of connection points: 2
#     Edge 13, Type (0, 0), BuildingBlock: UVAHIK_clean_linker_0, # of connection points: 2
#     Edge 14, Type (0, 0), BuildingBlock: UVAHIK_clean_linker_0, # of connection points: 2
#     Edge 15, Type (0, 0), BuildingBlock: UVAHIK_clean_linker_0, # of connection points: 2
#     Edge 16, Type (0, 0), BuildingBlock: UVAHIK_clean_linker_0, # of connection points: 2
#     Edge 17, Type (0, 0), BuildingBlock: UVAHIK_clean_linker_0, # of connection points: 2
#     Edge 18, Type (0, 0), BuildingBlock: UVAHIK_clean_linker_0, # of connection points: 2
#     Edge 19, Type (0, 0), BuildingBlock: UVAHIK_clean_linker_0, # of connection points: 2
#     Edge 20, Type (0, 0), BuildingBlock: UVAHIK_clean_linker_0, # of connection points: 2
#     Edge 21, Type (0, 0), BuildingBlock: UVAHIK_clean_linker_0, # of connection points: 2
#     Edge 22, Type (0, 0), BuildingBlock: UVAHIK_clean_linker_0, # of connection points: 2
#     Edge 23, Type (0, 0), BuildingBlock: UVAHIK_clean_linker_0, # of connection points: 2
#     Edge 24, Type (0, 0), BuildingBlock: UVAHIK_clean_linker_0, # of connection points: 2
#     Edge 25, Type (0, 0), BuildingBlock: UVAHIK_clean_linker_0, # of connection points: 2
#     Edge 26, Type (0, 0), BuildingBlock: UVAHIK_clean_linker_0, # of connection points: 2
#     Edge 27, Type (0, 0), BuildingBlock: UVAHIK_clean_linker_0, # of connection points: 2
#     Edge 28, Type (0, 0), BuildingBlock: UVAHIK_clean_linker_0, # of connection points: 2
#     Edge 29, Type (0, 0), BuildingBlock: UVAHIK_clean_linker_0, # of connection points: 2
#     Edge 30, Type (0, 0), BuildingBlock: UVAHIK_clean_linker_0, # of connection points: 2
#     Edge 31, Type (0, 0), BuildingBlock: UVAHIK_clean_linker_0, # of connection points: 2
#     Edge 32, Type (0, 0), BuildingBlock: UVAHIK_clean_linker_0, # of connection points: 2
#     Edge 33, Type (0, 0), BuildingBlock: UVAHIK_clean_linker_0, # of connection points: 2
#     Edge 34, Type (0, 0), BuildingBlock: UVAHIK_clean_linker_0, # of connection points: 2
#     Edge 35, Type (0, 0), BuildingBlock: UVAHIK_clean_linker_0, # of connection points: 2
#     Edge 36, Type (0, 0), BuildingBlock: UVAHIK_clean_linker_0, # of connection points: 2
#     Edge 37, Type (0, 0), BuildingBlock: UVAHIK_clean_linker_0, # of connection points: 2
#     Edge 38, Type (0, 0), BuildingBlock: UVAHIK_clean_linker_0, # of connection points: 2
#     Edge 39, Type (0, 0), BuildingBlock: UVAHIK_clean_linker_0, # of connection points: 2
#     Edge 40, Type (0, 0), BuildingBlock: UVAHIK_clean_linker_0, # of connection points: 2
#     Edge 41, Type (0, 0), BuildingBlock: UVAHIK_clean_linker_0, # of connection points: 2
# Relax obj value: 0.367
# Max RMSD: 0.206
# Mean RMSD: 0.206
data_MOF--net-wjo--node1-XOMCOT_clean_sbu_0--edge1-UVAHIK_clean_linker_0
_symmetry_space_group_name_H-M    P1
_symmetry_Int_Tables_number       1
_symmetry_cell_setting            triclinic
loop_
_symmetry_equiv_pos_as_xyz
'x, y, z'
_cell_length_a     58.521145
_cell_length_b     58.52367
_cell_length_c     36.922491
_cell_angle_alpha  89.975943
_cell_angle_beta   89.993238
_cell_angle_gamma 120.02769
loop_
_atom_site_label
_atom_site_type_symbol
_atom_site_fract_x
_atom_site_fract_y
_atom_site_fract_z
_atom_type_partial_charge
Co0 Co 0.2627 0.37948 0.97762 0.0
C1 C 0.27532 0.35083 0.92179 0.0
C2 C 0.23374 0.33553 0.92614 0.0
C3 C 0.23803 0.3197 0.90284 0.0
N4 N 0.25717 0.35567 0.93731 0.0
N5 N 0.26423 0.32926 0.90024 0.0
H6 H 0.29607 0.36158 0.92813 0.0
H7 H 0.21469 0.33119 0.93636 0.0
C8 C 0.21421 0.37647 0.94276 0.0
O9 O 0.22446 0.37996 0.91017 0.0
N10 N 0.26808 0.40216 0.01849 0.0
C11 C 0.29054 0.42419 0.0279 0.0
C12 C 0.2868 0.43258 0.06107 0.0
C13 C 0.25116 0.39717 0.04607 0.0
N14 N 0.2621 0.41545 0.0725 0.0
C15 C 0.30427 0.41705 0.93198 0.0
C16 C 0.2898 0.45525 0.93672 0.0
C17 C 0.3147 0.46213 0.92292 0.0
C18 C 0.32143 0.44246 0.91915 0.0
C19 C 0.27285 0.42936 0.94828 0.0
N20 N 0.28051 0.41077 0.94699 0.0
H21 H 0.31143 0.40339 0.93301 0.0
H22 H 0.25483 0.42518 0.96186 0.0
H23 H 0.30863 0.433 0.01236 0.0
H24 H 0.23154 0.38007 0.04714 0.0
O25 O 0.29283 0.3768 0.99357 0.0
O26 O 0.25125 0.3503 0.01024 0.0
O27 O 0.22707 0.37619 0.97047 0.0
C28 C 0.27598 0.35716 0.0135 0.0
H29 H 0.22291 0.3014 0.89104 0.0
H30 H 0.30153 0.44922 0.07637 0.0
H31 H 0.28415 0.47011 0.94058 0.0
H32 H 0.34081 0.44726 0.90946 0.0
Co33 Co 0.8948 0.25962 0.13964 0.0
C34 C 0.93703 0.27326 0.08527 0.0
C35 C 0.90917 0.23191 0.08437 0.0
C36 C 0.92961 0.23686 0.06115 0.0
N37 N 0.91333 0.2549 0.09881 0.0
N38 N 0.9472 0.26289 0.06199 0.0
H39 H 0.94765 0.29358 0.09394 0.0
H40 H 0.89362 0.21252 0.09213 0.0
C41 C 0.84857 0.2112 0.1054 0.0
O42 O 0.85407 0.22176 0.0729 0.0
N43 N 0.87741 0.26441 0.18095 0.0
C44 C 0.87764 0.28674 0.19052 0.0
C45 C 0.86664 0.28328 0.22444 0.0
C46 C 0.86674 0.24785 0.20927 0.0
N47 N 0.85998 0.2589 0.23628 0.0
C48 C 0.89886 0.30124 0.09521 0.0
C49 C 0.84668 0.28832 0.1019 0.0
C50 C 0.86547 0.31381 0.09078 0.0
C51 C 0.8915 0.31966 0.08558 0.0
C52 C 0.85489 0.2703 0.11127 0.0
N53 N 0.881 0.27737 0.10951 0.0
H54 H 0.91952 0.30762 0.09504 0.0
H55 H 0.84076 0.252 0.12402 0.0
H56 H 0.88634 0.30471 0.17472 0.0
H57 H 0.86494 0.22854 0.21056 0.0
O58 O 0.9271 0.29011 0.15556 0.0
O59 O 0.91342 0.24873 0.17187 0.0
O60 O 0.86277 0.22377 0.13255 0.0
C61 C 0.93071 0.27369 0.17516 0.0
H62 H 0.93229 0.22219 0.04695 0.0
H63 H 0.86513 0.29813 0.24002 0.0
H64 H 0.82642 0.28325 0.10673 0.0
H65 H 0.90658 0.33924 0.07719 0.0
Co66 Co 0.6449 0.89336 0.30531 0.0
C67 C 0.67219 0.93503 0.2499 0.0
C68 C 0.68472 0.90648 0.24661 0.0
C69 C 0.69951 0.92666 0.22264 0.0
N70 N 0.66706 0.91137 0.26331 0.0
N71 N 0.69171 0.94469 0.225 0.0
H72 H 0.66268 0.94571 0.25926 0.0
H73 H 0.68832 0.89059 0.253 0.0
C74 C 0.64898 0.84629 0.27721 0.0
O75 O 0.63946 0.84678 0.24518 0.0
N76 N 0.62364 0.87653 0.34761 0.0
C77 C 0.60123 0.87614 0.35718 0.0
C78 C 0.59345 0.86439 0.39062 0.0
C79 C 0.62954 0.86556 0.37552 0.0
N80 N 0.61131 0.85784 0.40215 0.0
C81 C 0.60626 0.89147 0.25602 0.0
C82 C 0.56873 0.8396 0.27043 0.0
C83 C 0.56109 0.85579 0.25243 0.0
C84 C 0.58045 0.88161 0.24369 0.0
C85 C 0.59496 0.85004 0.28145 0.0
N86 N 0.61311 0.87605 0.27567 0.0
H87 H 0.61996 0.91218 0.25255 0.0
H88 H 0.59993 0.83791 0.29797 0.0
H89 H 0.5916 0.88443 0.3413 0.0
H90 H 0.64706 0.86377 0.37656 0.0
O91 O 0.64393 0.92487 0.31855 0.0
O92 O 0.67417 0.91493 0.33637 0.0
O93 O 0.65206 0.8632 0.30133 0.0
C94 C 0.66473 0.93084 0.33811 0.0
H95 H 0.716 0.92881 0.20669 0.0
H96 H 0.57656 0.86186 0.4059 0.0
H97 H 0.55424 0.81957 0.27784 0.0
H98 H 0.5752 0.89483 0.23032 0.0
Co99 Co 0.76013 0.63471 0.46782 0.0
C100 C 0.75088 0.67102 0.42152 0.0
C101 C 0.76979 0.6537 0.39174 0.0
C102 C 0.76474 0.66908 0.36846 0.0
N103 N 0.76109 0.65487 0.42514 0.0
N104 N 0.75283 0.67996 0.38726 0.0
H105 H 0.74117 0.67539 0.44304 0.0
H106 H 0.7783 0.64177 0.38424 0.0
C107 C 0.80978 0.6349 0.43742 0.0
O108 O 0.79765 0.61634 0.41306 0.0
N109 N 0.75892 0.61499 0.51054 0.0
C110 C 0.73727 0.5936 0.52359 0.0
C111 C 0.74347 0.58673 0.55616 0.0
C112 C 0.77785 0.62131 0.53572 0.0
N113 N 0.76892 0.60419 0.56382 0.0
C114 C 0.72042 0.5965 0.42173 0.0
C115 C 0.7308 0.55629 0.43696 0.0
C116 C 0.70699 0.55016 0.42006 0.0
C117 C 0.70242 0.57075 0.41089 0.0
C118 C 0.74854 0.58238 0.44665 0.0
N119 N 0.74274 0.60195 0.44034 0.0
H120 H 0.7153 0.61169 0.41783 0.0
H121 H 0.76572 0.58635 0.46237 0.0
H122 H 0.7181 0.58408 0.51069 0.0
H123 H 0.79746 0.63838 0.5339 0.0
O124 O 0.72908 0.63479 0.48607 0.0
O125 O 0.7707 0.66493 0.49798 0.0
O126 O 0.79715 0.64241 0.45778 0.0
C127 C 0.74574 0.65569 0.50427 0.0
H128 H 0.76929 0.67181 0.33983 0.0
H129 H 0.72995 0.57085 0.57368 0.0
H130 H 0.73492 0.54084 0.4446 0.0
H131 H 0.68405 0.5667 0.39828 0.0
Co132 Co 0.12626 0.75287 0.63719 0.0
C133 C 0.08861 0.74208 0.57706 0.0
C134 C 0.11564 0.78342 0.58283 0.0
C135 C 0.09633 0.78003 0.55862 0.0
N136 N 0.1112 0.75959 0.5941 0.0
N137 N 0.07919 0.754 0.55522 0.0
H138 H 0.07754 0.72129 0.58348 0.0
H139 H 0.13016 0.80218 0.59398 0.0
C140 C 0.17454 0.8035 0.61147 0.0
O141 O 0.17264 0.79439 0.57842 0.0
N142 N 0.14025 0.7462 0.68071 0.0
C143 C 0.13936 0.7235 0.68999 0.0
C144 C 0.14875 0.72594 0.72477 0.0
C145 C 0.14964 0.76194 0.70998 0.0
N146 N 0.15507 0.75005 0.73732 0.0
C147 C 0.12809 0.71515 0.58967 0.0
C148 C 0.17946 0.72886 0.60632 0.0
C149 C 0.16324 0.70478 0.58892 0.0
C150 C 0.1377 0.69863 0.57896 0.0
C151 C 0.16926 0.74512 0.61587 0.0
N152 N 0.14347 0.73761 0.60898 0.0
H153 H 0.10751 0.70841 0.58541 0.0
H154 H 0.18129 0.76224 0.63238 0.0
H155 H 0.13165 0.70613 0.67305 0.0
H156 H 0.15184 0.7814 0.71146 0.0
O157 O 0.0931 0.7212 0.6475 0.0
O158 O 0.10461 0.76157 0.66645 0.0
O159 O 0.15801 0.78935 0.63581 0.0
C160 C 0.08748 0.73647 0.66664 0.0
H161 H 0.09406 0.79564 0.54653 0.0
H162 H 0.14975 0.71072 0.74017 0.0
H163 H 0.19928 0.73423 0.61463 0.0
H164 H 0.12442 0.68 0.56602 0.0
Co165 Co 0.37833 0.12656 0.80619 0.0
C166 C 0.34186 0.08043 0.76107 0.0
C167 C 0.35512 0.11669 0.73235 0.0
C168 C 0.33967 0.09604 0.70945 0.0
N169 N 0.35652 0.10695 0.76486 0.0
N170 N 0.33138 0.07322 0.72756 0.0
H171 H 0.33984 0.06648 0.78175 0.0
H172 H 0.36531 0.13724 0.72499 0.0
C173 C 0.37844 0.1764 0.77632 0.0
O174 O 0.3957 0.18188 0.75026 0.0
N175 N 0.39966 0.14548 0.8475 0.0
C176 C 0.42146 0.14538 0.85901 0.0
C177 C 0.42854 0.15751 0.89223 0.0
C178 C 0.39337 0.15709 0.87414 0.0
N179 N 0.41077 0.16469 0.9018 0.0
C180 C 0.41413 0.12229 0.75928 0.0
C181 C 0.4561 0.17274 0.77029 0.0
C182 C 0.4609 0.15338 0.75597 0.0
C183 C 0.43942 0.1283 0.74882 0.0
C184 C 0.43041 0.16584 0.78069 0.0
N185 N 0.41001 0.14052 0.77656 0.0
H186 H 0.39829 0.10211 0.7569 0.0
H187 H 0.42755 0.18005 0.79572 0.0
H188 H 0.43085 0.13604 0.84495 0.0
H189 H 0.37586 0.15891 0.87388 0.0
O190 O 0.37802 0.09533 0.82444 0.0
O191 O 0.34897 0.10782 0.83834 0.0
O192 O 0.37132 0.15644 0.79692 0.0
C193 C 0.35785 0.09172 0.84386 0.0
H194 H 0.3352 0.09777 0.68149 0.0
H195 H 0.44458 0.15945 0.90902 0.0
H196 H 0.47231 0.19223 0.77666 0.0
H197 H 0.44243 0.11284 0.73785 0.0
Co198 Co 0.64252 0.75578 0.85343 0.0
C199 C 0.67033 0.74181 0.90841 0.0
C200 C 0.6833 0.78303 0.91054 0.0
C201 C 0.69847 0.7779 0.93411 0.0
N202 N 0.66507 0.76024 0.89496 0.0
N203 N 0.69038 0.75197 0.93247 0.0
H204 H 0.66077 0.72157 0.89929 0.0
H205 H 0.68701 0.80247 0.90342 0.0
C206 C 0.64499 0.80542 0.88512 0.0
O207 O 0.63816 0.7955 0.91787 0.0
N208 N 0.62092 0.75117 0.81152 0.0
C209 C 0.59875 0.72901 0.80162 0.0
C210 C 0.59118 0.73298 0.76801 0.0
C211 C 0.62686 0.76811 0.7837 0.0
N212 N 0.60896 0.75751 0.75673 0.0
C213 C 0.60409 0.7155 0.89961 0.0
C214 C 0.56608 0.72988 0.89041 0.0
C215 C 0.55874 0.70514 0.90532 0.0
C216 C 0.57833 0.69854 0.91147 0.0
C217 C 0.59222 0.74656 0.87968 0.0
N218 N 0.61066 0.73882 0.88296 0.0
H219 H 0.61796 0.70857 0.90084 0.0
H220 H 0.59684 0.76438 0.86515 0.0
H221 H 0.58927 0.71094 0.81722 0.0
H222 H 0.64432 0.78748 0.78286 0.0
O223 O 0.64423 0.72499 0.83793 0.0
O224 O 0.6722 0.76642 0.8221 0.0
O225 O 0.64716 0.79198 0.85956 0.0
C226 C 0.66451 0.74152 0.81863 0.0
H227 H 0.71543 0.79244 0.94913 0.0
H228 H 0.57459 0.71849 0.75237 0.0
H229 H 0.55141 0.73556 0.88496 0.0
H230 H 0.57332 0.67938 0.92231 0.0
Co231 Co 0.89153 0.63699 0.01929 0.0
C232 C 0.93255 0.66634 0.0752 0.0
C233 C 0.90648 0.68175 0.06894 0.0
C234 C 0.9269 0.69837 0.09128 0.0
N235 N 0.90953 0.66116 0.05938 0.0
N236 N 0.94339 0.68873 0.09505 0.0
H237 H 0.94287 0.65582 0.06918 0.0
H238 H 0.89185 0.68591 0.05795 0.0
C239 C 0.84602 0.64076 0.05227 0.0
O240 O 0.85244 0.63738 0.08513 0.0
N241 N 0.87454 0.61403 0.97856 0.0
C242 C 0.8746 0.59165 0.9702 0.0
C243 C 0.86442 0.58394 0.93588 0.0
C244 C 0.86472 0.61984 0.94924 0.0
N245 N 0.85845 0.60183 0.92266 0.0
C246 C 0.89494 0.60006 0.06628 0.0
C247 C 0.84216 0.56191 0.06295 0.0
C248 C 0.86018 0.55514 0.07732 0.0
C249 C 0.88671 0.57495 0.08009 0.0
C250 C 0.85121 0.58749 0.04976 0.0
N251 N 0.87748 0.60605 0.05064 0.0
H252 H 0.91577 0.61373 0.06515 0.0
H253 H 0.83737 0.59147 0.03576 0.0
H254 H 0.88275 0.58237 0.98707 0.0
H255 H 0.86332 0.63754 0.94693 0.0
O256 O 0.92414 0.63883 0.00472 0.0
O257 O 0.91027 0.66594 0.98629 0.0
O258 O 0.85936 0.64076 0.02495 0.0
C259 C 0.92777 0.6585 0.98424 0.0
H260 H 0.93017 0.71698 0.10202 0.0
H261 H 0.86308 0.56739 0.92099 0.0
H262 H 0.82148 0.54723 0.06015 0.0
H263 H 0.90153 0.57058 0.09003 0.0
Co264 Co 0.26274 0.88448 0.18909 0.0
C265 C 0.2706 0.92824 0.23818 0.0
C266 C 0.25397 0.89139 0.26646 0.0
C267 C 0.25873 0.91101 0.29105 0.0
N268 N 0.2615 0.90217 0.23321 0.0
N269 N 0.26919 0.93416 0.27317 0.0
H270 H 0.27924 0.94295 0.21712 0.0
H271 H 0.24666 0.87091 0.2729 0.0
C272 C 0.21251 0.83432 0.21704 0.0
O273 O 0.22419 0.82704 0.241 0.0
N274 N 0.26412 0.86737 0.14507 0.0
C275 C 0.28571 0.8679 0.13131 0.0
C276 C 0.27933 0.85539 0.09832 0.0
C277 C 0.24504 0.85513 0.11999 0.0
N278 N 0.25383 0.84747 0.0912 0.0
C279 C 0.30214 0.88432 0.23407 0.0
C280 C 0.2912 0.8339 0.21647 0.0
C281 C 0.31497 0.85093 0.23408 0.0
C282 C 0.3198 0.87601 0.24433 0.0
C283 C 0.2738 0.84281 0.20734 0.0
N284 N 0.27983 0.86809 0.21497 0.0
H285 H 0.30747 0.9046 0.23898 0.0
H286 H 0.25665 0.83015 0.19118 0.0
H287 H 0.3049 0.87724 0.14414 0.0
H288 H 0.22537 0.85232 0.1225 0.0
O289 O 0.29404 0.91618 0.17255 0.0
O290 O 0.2526 0.90532 0.16065 0.0
O291 O 0.22558 0.85498 0.19773 0.0
C292 C 0.27764 0.9212 0.15508 0.0
H293 H 0.25513 0.90846 0.31992 0.0
H294 H 0.29271 0.85322 0.08029 0.0
H295 H 0.28683 0.8144 0.208 0.0
H296 H 0.33813 0.88988 0.25747 0.0
Co297 Co 0.37936 0.25412 0.36098 0.0
C298 C 0.34355 0.26448 0.40636 0.0
C299 C 0.35583 0.24068 0.43499 0.0
C300 C 0.3404 0.24605 0.45773 0.0
N301 N 0.3578 0.25218 0.40258 0.0
N302 N 0.33271 0.26106 0.43964 0.0
H303 H 0.34196 0.27671 0.38579 0.0
H304 H 0.36549 0.22987 0.44244 0.0
C305 C 0.37732 0.20313 0.38984 0.0
O306 O 0.39341 0.21398 0.41734 0.0
N307 N 0.40048 0.25655 0.31933 0.0
C308 C 0.42284 0.27829 0.30876 0.0
C309 C 0.42983 0.27379 0.27516 0.0
C310 C 0.39376 0.23932 0.29169 0.0
N311 N 0.41147 0.24937 0.26436 0.0
C312 C 0.4165 0.29263 0.40925 0.0
C313 C 0.4563 0.28124 0.39625 0.0
C314 C 0.46263 0.30532 0.41253 0.0
C315 C 0.44217 0.31031 0.42078 0.0
C316 C 0.43031 0.2639 0.3857 0.0
N317 N 0.41106 0.27033 0.39063 0.0
H318 H 0.4015 0.29811 0.4123 0.0
H319 H 0.42634 0.24672 0.36998 0.0
H320 H 0.43271 0.29661 0.32376 0.0
H321 H 0.37576 0.22038 0.291 0.0
O322 O 0.38007 0.2858 0.34357 0.0
O323 O 0.35017 0.24462 0.32916 0.0
O324 O 0.37136 0.21677 0.36897 0.0
C325 C 0.35967 0.26974 0.32404 0.0
H326 H 0.33548 0.23955 0.48552 0.0
H327 H 0.44624 0.288 0.25898 0.0
H328 H 0.47162 0.27673 0.3894 0.0
H329 H 0.44633 0.32884 0.43297 0.0
Co330 Co 0.12828 0.37769 0.52391 0.0
C331 C 0.08944 0.3491 0.58238 0.0
C332 C 0.11637 0.33476 0.57575 0.0
C333 C 0.09665 0.31816 0.59904 0.0
N334 N 0.11228 0.35461 0.56566 0.0
N335 N 0.07961 0.32711 0.603 0.0
H336 H 0.07856 0.3591 0.57657 0.0
H337 H 0.13104 0.33081 0.56439 0.0
C338 C 0.17586 0.37486 0.55115 0.0
O339 O 0.17281 0.38103 0.58431 0.0
N340 N 0.14325 0.3996 0.48162 0.0
C341 C 0.14231 0.42147 0.4729 0.0
C342 C 0.15331 0.4298 0.4391 0.0
C343 C 0.15429 0.3946 0.45296 0.0
N344 N 0.16071 0.41281 0.42658 0.0
C345 C 0.12874 0.41577 0.57314 0.0
C346 C 0.18033 0.45416 0.55897 0.0
C347 C 0.16365 0.46131 0.5766 0.0
C348 C 0.13797 0.44153 0.58525 0.0
C349 C 0.17052 0.42799 0.54812 0.0
N350 N 0.14464 0.40937 0.55381 0.0
H351 H 0.10811 0.40174 0.57638 0.0
H352 H 0.18299 0.42348 0.53163 0.0
H353 H 0.13367 0.43036 0.48961 0.0
H354 H 0.15712 0.37772 0.45127 0.0
O355 O 0.09527 0.37625 0.51288 0.0
O356 O 0.10746 0.34813 0.49291 0.0
O357 O 0.16013 0.37317 0.52602 0.0
C358 C 0.09017 0.35589 0.49287 0.0
H359 H 0.09415 0.29995 0.61023 0.0
H360 H 0.15481 0.44647 0.42431 0.0
H361 H 0.20025 0.46898 0.55159 0.0
H362 H 0.12436 0.44639 0.59831 0.0
Co363 Co 0.75969 0.12798 0.69107 0.0
C364 C 0.74876 0.08193 0.73759 0.0
C365 C 0.77229 0.11836 0.76564 0.0
C366 C 0.76699 0.09784 0.78887 0.0
N367 N 0.76091 0.10845 0.7333 0.0
N368 N 0.75216 0.0749 0.77118 0.0
H369 H 0.73678 0.06786 0.7171 0.0
H370 H 0.78307 0.13897 0.77259 0.0
C371 C 0.81034 0.17671 0.71992 0.0
O372 O 0.7985 0.18294 0.74497 0.0
N373 N 0.75828 0.14676 0.64882 0.0
C374 C 0.73686 0.14741 0.63685 0.0
C375 C 0.74266 0.15993 0.60386 0.0
C376 C 0.77664 0.15831 0.62264 0.0
N377 N 0.7676 0.16667 0.59488 0.0
C378 C 0.72185 0.12752 0.73933 0.0
C379 C 0.73285 0.17857 0.72645 0.0
C380 C 0.70927 0.16104 0.74427 0.0
C381 C 0.70446 0.1355 0.75182 0.0
C382 C 0.74972 0.16972 0.71422 0.0
N383 N 0.74378 0.14423 0.71991 0.0
H384 H 0.71642 0.10707 0.74257 0.0
H385 H 0.76649 0.18281 0.6977 0.0
H386 H 0.71804 0.13859 0.65067 0.0
H387 H 0.79586 0.15987 0.62346 0.0
O388 O 0.72749 0.09764 0.67428 0.0
O389 O 0.76812 0.10694 0.65988 0.0
O390 O 0.79742 0.15659 0.69957 0.0
C391 C 0.7428 0.09199 0.65527 0.0
H392 H 0.77352 0.09976 0.81669 0.0
H393 H 0.72911 0.1627 0.58697 0.0
H394 H 0.73759 0.19856 0.72025 0.0
H395 H 0.68634 0.12096 0.76473 0.0
C396 C 0.16604 0.38948 0.37435 0.0
C397 C 0.17153 0.41315 0.39142 0.0
C398 C 0.17579 0.38979 0.3397 0.0
C399 C 0.2277 0.43234 0.27528 0.0
H400 H 0.18068 0.38299 0.20326 0.0
C401 C 0.25845 0.43912 0.12552 0.0
C402 C 0.25087 0.41534 0.10725 0.0
C403 C 0.24836 0.43899 0.15987 0.0
C404 C 0.19417 0.39669 0.22315 0.0
H405 H 0.19199 0.45571 0.38587 0.0
H406 H 0.20902 0.45628 0.32529 0.0
H407 H 0.16435 0.38227 0.26426 0.0
H408 H 0.22697 0.37274 0.11083 0.0
H409 H 0.2096 0.37243 0.17086 0.0
H410 H 0.25764 0.44656 0.23447 0.0
C411 C 0.19719 0.43749 0.33875 0.0
C412 C 0.18479 0.39628 0.25808 0.0
C413 C 0.18725 0.43716 0.37328 0.0
C414 C 0.23283 0.39141 0.12394 0.0
C415 C 0.22288 0.39126 0.15839 0.0
C416 C 0.23714 0.43264 0.24043 0.0
C417 C 0.19141 0.4138 0.3215 0.0
C418 C 0.20145 0.41412 0.2845 0.0
C419 C 0.23061 0.41504 0.17687 0.0
C420 C 0.22049 0.41484 0.2139 0.0
H421 H 0.15376 0.37066 0.38746 0.0
H422 H 0.17121 0.37123 0.32719 0.0
H423 H 0.24108 0.44611 0.29522 0.0
H424 H 0.27206 0.45785 0.11313 0.0
H425 H 0.25437 0.4577 0.17301 0.0
C426 C 0.83552 0.25652 0.29192 0.0
C427 C 0.85071 0.24846 0.27201 0.0
C428 C 0.82787 0.24779 0.32741 0.0
C429 C 0.81968 0.19635 0.39296 0.0
H430 H 0.82181 0.2466 0.46328 0.0
C431 C 0.79801 0.17106 0.54531 0.0
C432 C 0.78047 0.17803 0.56099 0.0
C433 C 0.80865 0.18044 0.51091 0.0
C434 C 0.82099 0.23231 0.44392 0.0
H435 H 0.8697 0.22478 0.27379 0.0
H436 H 0.85643 0.20957 0.33583 0.0
H437 H 0.83564 0.26073 0.40111 0.0
H438 H 0.76118 0.20109 0.55366 0.0
H439 H 0.77962 0.21738 0.49375 0.0
H440 H 0.80493 0.16793 0.43592 0.0
C441 C 0.85011 0.22237 0.3238 0.0
C442 C 0.82882 0.24037 0.40825 0.0
C443 C 0.85768 0.23105 0.28819 0.0
C444 C 0.77444 0.19519 0.5421 0.0
C445 C 0.7852 0.2047 0.50793 0.0
C446 C 0.81192 0.18832 0.42872 0.0
C447 C 0.83534 0.23086 0.34396 0.0
C448 C 0.82795 0.22241 0.38221 0.0
C449 C 0.80216 0.19718 0.49174 0.0
C450 C 0.8122 0.20614 0.45447 0.0
H451 H 0.82951 0.26959 0.28 0.0
H452 H 0.81601 0.25425 0.34186 0.0
H453 H 0.81852 0.18196 0.37352 0.0
H454 H 0.80283 0.15769 0.55909 0.0
H455 H 0.82185 0.17448 0.49923 0.0
C456 C 0.5879 0.83032 0.45511 0.0
C457 C 0.61165 0.8468 0.43687 0.0
C458 C 0.58812 0.8207 0.48963 0.0
C459 C 0.6302 0.80983 0.5542 0.0
H460 H 0.5802 0.80796 0.62482 0.0
C461 C 0.634 0.7868 0.70572 0.0
C462 C 0.60976 0.7689 0.72185 0.0
C463 C 0.63473 0.7969 0.67116 0.0
C464 C 0.59414 0.80817 0.60532 0.0
H465 H 0.65427 0.86599 0.44048 0.0
H466 H 0.65471 0.84938 0.50094 0.0
H467 H 0.58061 0.82399 0.56379 0.0
H468 H 0.56732 0.74805 0.71476 0.0
H469 H 0.56857 0.76558 0.65438 0.0
H470 H 0.6438 0.79414 0.59599 0.0
C471 C 0.63588 0.84355 0.48831 0.0
C472 C 0.59434 0.81729 0.57031 0.0
C473 C 0.63564 0.85307 0.45365 0.0
C474 C 0.58628 0.76163 0.70291 0.0
C475 C 0.587 0.77185 0.66849 0.0
C476 C 0.63007 0.80082 0.58931 0.0
C477 C 0.61211 0.82745 0.50685 0.0
C478 C 0.61225 0.81808 0.54424 0.0
C479 C 0.61124 0.78947 0.65213 0.0
C480 C 0.61193 0.79975 0.61517 0.0
H481 H 0.5691 0.82478 0.44262 0.0
H482 H 0.56943 0.80788 0.50279 0.0
H483 H 0.64403 0.80987 0.53468 0.0
H484 H 0.65244 0.79255 0.71944 0.0
H485 H 0.6537 0.81061 0.65937 0.0
C486 C 0.77605 0.58201 0.61565 0.0
C487 C 0.78239 0.60536 0.59696 0.0
C488 C 0.78713 0.58297 0.64947 0.0
C489 C 0.81469 0.62589 0.72844 0.0
H490 H 0.83662 0.57586 0.75637 0.0
C491 C 0.85827 0.62764 0.86972 0.0
C492 C 0.85043 0.60315 0.88619 0.0
C493 C 0.85153 0.62893 0.83377 0.0
C494 C 0.83031 0.58979 0.74912 0.0
H495 H 0.80577 0.64803 0.59862 0.0
H496 H 0.82531 0.64977 0.65792 0.0
H497 H 0.8233 0.57665 0.69402 0.0
H498 H 0.82889 0.56082 0.87814 0.0
H499 H 0.81678 0.56297 0.81556 0.0
H500 H 0.82115 0.63867 0.78366 0.0
C501 C 0.81164 0.63072 0.64636 0.0
C502 C 0.82279 0.5903 0.71336 0.0
C503 C 0.80069 0.62973 0.6123 0.0
C504 C 0.83547 0.57997 0.86605 0.0
C505 C 0.82863 0.58124 0.83015 0.0
C506 C 0.82211 0.6253 0.76426 0.0
C507 C 0.80471 0.60734 0.66548 0.0
C508 C 0.81465 0.60817 0.70272 0.0
C509 C 0.83673 0.60574 0.81349 0.0
C510 C 0.82975 0.60706 0.77512 0.0
H511 H 0.7622 0.56297 0.60429 0.0
H512 H 0.78122 0.56463 0.66362 0.0
H513 H 0.80815 0.63963 0.72118 0.0
H514 H 0.87023 0.64589 0.88425 0.0
H515 H 0.85841 0.64814 0.82164 0.0
C516 C 0.1569 0.77752 0.78937 0.0
C517 C 0.16378 0.76 0.77336 0.0
C518 C 0.1645 0.78627 0.82491 0.0
C519 C 0.18703 0.76941 0.90945 0.0
H520 H 0.21128 0.8423 0.93494 0.0
C521 C 0.24588 0.81818 0.03909 0.0
C522 C 0.23991 0.83524 0.0583 0.0
C523 C 0.23393 0.80773 0.00581 0.0
C524 C 0.20419 0.82179 0.92834 0.0
H525 H 0.18466 0.73858 0.78163 0.0
H526 H 0.19831 0.75413 0.84333 0.0
H527 H 0.19631 0.82712 0.87333 0.0
H528 H 0.21646 0.85446 0.05805 0.0
H529 H 0.19548 0.83616 -0.00041 0.0
H530 H 0.19558 0.76432 0.96427 0.0
C531 C 0.18646 0.7606 0.82885 0.0
C532 C 0.19562 0.81308 0.89305 0.0
C533 C 0.17873 0.75174 0.79344 0.0
C534 C 0.22126 0.84119 0.04394 0.0
C535 C 0.20947 0.83094 0.01038 0.0
C536 C 0.19575 0.77817 0.94464 0.0
C537 C 0.17926 0.77781 0.84515 0.0
C538 C 0.18723 0.78685 0.88307 0.0
C539 C 0.21588 0.81428 0.99085 0.0
C540 C 0.2047 0.80451 0.95434 0.0
H541 H 0.14507 0.78393 0.77478 0.0
H542 H 0.15835 0.79926 0.83675 0.0
H543 H 0.18016 0.74894 0.90294 0.0
H544 H 0.26 0.81309 0.04971 0.0
H545 H 0.23943 0.79513 0.99127 0.0
C546 C 0.38461 0.16799 0.95202 0.0
C547 C 0.40919 0.17512 0.93639 0.0
C548 C 0.3832 0.17637 0.98701 0.0
C549 C 0.42285 0.2258 0.05657 0.0
H550 H 0.37366 0.17389 0.12453 0.0
C551 C 0.4328 0.2453 0.20921 0.0
C552 C 0.40971 0.23836 0.22894 0.0
C553 C 0.43137 0.23695 0.17351 0.0
C554 C 0.38727 0.18869 0.10577 0.0
H555 H 0.4515 0.19733 0.94448 0.0
H556 H 0.44911 0.21184 0.00548 0.0
H557 H 0.37333 0.16165 0.06118 0.0
H558 H 0.36696 0.21665 0.22699 0.0
H559 H 0.3644 0.20197 0.1644 0.0
H560 H 0.43695 0.25278 0.10102 0.0
C561 C 0.43092 0.19986 0.99077 0.0
C562 C 0.38706 0.1817 0.0695 0.0
C563 C 0.43231 0.19138 0.95598 0.0
C564 C 0.38508 0.22207 0.2126 0.0
C565 C 0.38363 0.21373 0.17674 0.0
C566 C 0.42305 0.23278 0.09273 0.0
C567 C 0.40636 0.1922 0.00686 0.0
C568 C 0.4051 0.20009 0.04465 0.0
C569 C 0.40679 0.22151 0.15661 0.0
C570 C 0.40554 0.2142 0.11787 0.0
H571 H 0.36645 0.15524 0.93773 0.0
H572 H 0.364 0.17033 -0.00139 0.0
H573 H 0.43668 0.24053 0.03793 0.0
H574 H 0.45203 0.25745 0.22134 0.0
H575 H 0.44957 0.24274 0.15904 0.0
C576 C 0.30148 0.32048 0.89474 0.0
C577 C 0.27716 0.31685 0.88219 0.0
C578 C 0.31315 0.30723 0.87843 0.0
C579 C 0.29574 0.24752 0.82498 0.0
H580 H 0.37154 0.27927 0.81391 0.0
C581 C 0.34577 0.18525 0.8077 0.0
C582 C 0.36681 0.19352 0.78306 0.0
C583 C 0.33506 0.20128 0.81558 0.0
C584 C 0.35032 0.2702 0.81642 0.0
H585 H 0.24674 0.29719 0.84155 0.0
H586 H 0.26703 0.27405 0.81322 0.0
H587 H 0.35292 0.30618 0.83485 0.0
H588 H 0.39301 0.22532 0.74729 0.0
H589 H 0.37421 0.25355 0.76126 0.0
H590 H 0.2931 0.21155 0.80684 0.0
C591 C 0.27686 0.28685 0.83607 0.0
C592 C 0.33966 0.28555 0.8288 0.0
C593 C 0.2652 0.30011 0.85234 0.0
C594 C 0.37678 0.2183 0.7663 0.0
C595 C 0.36612 0.23453 0.77446 0.0
C596 C 0.30639 0.2322 0.81279 0.0
C597 C 0.30083 0.28997 0.84918 0.0
C598 C 0.31224 0.27431 0.83367 0.0
C599 C 0.34511 0.22615 0.79921 0.0
C600 C 0.33383 0.24322 0.80889 0.0
H601 H 0.31116 0.33285 0.91794 0.0
H602 H 0.33142 0.30983 0.8896 0.0
H603 H 0.27458 0.23811 0.82868 0.0
H604 H 0.33755 0.16633 0.82125 0.0
H605 H 0.3192 0.19435 0.83518 0.0
C606 C 0.16724 0.35632 0.9213 0.0
C607 C 0.18645 0.36977 0.94806 0.0
C608 C 0.14044 0.34674 0.92882 0.0
C609 C 0.09492 0.35385 0.99105 0.0
H610 H 0.04755 0.27928 0.97392 0.0
C611 C 0.99444 0.29721 0.06332 0.0
C612 C 0.97304 0.27619 0.04548 0.0
C613 C 0.01963 0.30971 0.04783 0.0
C614 C 0.06027 0.30024 0.97833 0.0
H615 H 0.19284 0.38487 0.00297 0.0
H616 H 0.14638 0.36879 0.01571 0.0
H617 H 0.09287 0.30018 0.95182 0.0
H618 H 0.96122 0.25212 0.99711 0.0
H619 H 1.00507 0.27433 0.96945 0.0
H620 H 0.06254 0.35412 0.01743 0.0
C621 C 0.15188 0.36543 0.98906 0.0
C622 C 0.08631 0.3122 0.96565 0.0
C623 C 0.17849 0.37455 0.98179 0.0
C624 C 0.97739 0.26811 0.0116 0.0
C625 C 1.00257 0.28082 0.99586 0.0
C626 C 0.06883 0.34199 0.00334 0.0
C627 C 0.13248 0.35093 0.96297 0.0
C628 C 0.10406 0.33902 0.97252 0.0
C629 C 0.02411 0.30176 0.01383 0.0
C630 C 0.05126 0.31487 -0.00212 0.0
H631 H 0.17277 0.35218 0.89516 0.0
H632 H 0.12591 0.33574 0.90814 0.0
H633 H 0.10807 0.37463 0.99638 0.0
H634 H 0.99191 0.30357 0.08979 0.0
H635 H 0.03571 0.32526 0.06302 0.0
C636 C 0.81573 0.17568 0.14563 0.0
C637 C 0.82728 0.18357 0.11116 0.0
C638 C 0.79775 0.1492 0.15297 0.0
C639 C 0.7817 0.08296 0.12695 0.0
H640 H 0.71822 0.06141 0.18332 0.0
C641 C 0.71519 0.97444 0.17351 0.0
C642 C 0.70406 0.97045 0.20829 0.0
C643 C 0.7278 0.99962 0.15775 0.0
C644 C 0.73601 0.06706 0.16792 0.0
H645 H 0.82863 0.16992 0.05711 0.0
H646 H 0.79736 0.12324 0.07022 0.0
H647 H 0.74413 0.10692 0.16247 0.0
H648 H 0.69794 0.98992 0.25406 0.0
H649 H 0.72034 0.03371 0.22727 0.0
H650 H 0.7744 0.04355 0.1337 0.0
C651 C 0.8022 0.13775 0.09141 0.0
C652 C 0.75075 0.09314 0.15575 0.0
C653 C 0.81991 0.16444 0.08383 0.0
C654 C 0.70582 0.9922 0.22694 0.0
C655 C 0.71866 0.01738 0.21143 0.0
C656 C 0.76713 0.05691 0.1395 0.0
C657 C 0.79115 0.12985 0.1262 0.0
C658 C 0.77397 0.10149 0.13559 0.0
C659 C 0.72987 0.02152 0.1766 0.0
C660 C 0.7443 0.04869 0.16071 0.0
H661 H 0.82099 0.18997 0.16725 0.0
H662 H 0.78979 0.14375 0.18011 0.0
H663 H 0.79967 0.08888 0.11181 0.0
H664 H 0.71394 0.95801 0.15839 0.0
H665 H 0.73579 1.00185 0.13071 0.0
C666 C 0.73542 0.69517 0.33707 0.0
C667 C 0.74301 0.69659 0.37356 0.0
C668 C 0.72545 0.71097 0.32411 0.0
C669 C 0.72404 0.77214 0.34506 0.0
H670 H 0.66279 0.74292 0.2821 0.0
C671 C 0.66688 0.82648 0.32085 0.0
C672 C 0.65825 0.82739 0.28558 0.0
C673 C 0.67709 0.81009 0.32912 0.0
C674 C 0.68011 0.75147 0.29928 0.0
H675 H 0.74637 0.71614 0.42476 0.0
H676 H 0.72878 0.74336 0.40239 0.0
H677 H 0.68122 0.71539 0.30115 0.0
H678 H 0.653 0.81104 0.23154 0.0
H679 H 0.67107 0.78226 0.24608 0.0
H680 H 0.72295 0.80809 0.3435 0.0
C681 C 0.73067 0.73016 0.38367 0.0
C682 C 0.69068 0.73569 0.31022 0.0
C683 C 0.74051 0.71431 0.39664 0.0
C684 C 0.65949 0.81086 0.25895 0.0
C685 C 0.66978 0.79433 0.26731 0.0
C686 C 0.71353 0.78785 0.33415 0.0
C687 C 0.72301 0.72872 0.34724 0.0
C688 C 0.71254 0.74574 0.33372 0.0
C689 C 0.67907 0.79408 0.30242 0.0
C690 C 0.69117 0.77762 0.31162 0.0
H691 H 0.73681 0.68156 0.3186 0.0
H692 H 0.71992 0.70948 0.29585 0.0
H693 H 0.74125 0.78072 0.36246 0.0
H694 H 0.666 0.83865 0.34226 0.0
H695 H 0.68344 0.80997 0.35664 0.0
C696 C 0.03919 0.75531 0.53706 0.0
C697 C 0.05342 0.74183 0.53857 0.0
C698 C 0.01346 0.74291 0.52352 0.0
C699 C 0.96547 0.68918 0.46599 0.0
H700 H 0.91416 0.69509 0.52566 0.0
C701 C 0.85236 0.63391 0.43434 0.0
C702 C 0.83862 0.64714 0.44326 0.0
C703 C 0.87904 0.64473 0.44388 0.0
C704 C 0.92822 0.69353 0.50828 0.0
H705 H 0.05205 0.70504 0.52591 0.0
H706 H 1.00692 0.68334 0.50174 0.0
H707 H 0.95976 0.71544 0.54553 0.0
H708 H 0.84251 0.68277 0.46712 0.0
H709 H 0.88878 0.7019 0.48239 0.0
H710 H 0.93392 0.66769 0.4283 0.0
C711 C 0.01579 0.70351 0.51123 0.0
C712 C 0.95439 0.70513 0.51983 0.0
C713 C 0.04151 0.71585 0.52524 0.0
C714 C 0.85238 0.67186 0.46033 0.0
C715 C 0.87895 0.68275 0.46938 0.0
C716 C 0.93921 0.67776 0.45415 0.0
C717 C 1.00135 0.7168 0.51083 0.0
C718 C 0.97338 0.70336 0.49869 0.0
C719 C 0.89253 0.66908 0.4622 0.0
C720 C 0.92031 0.68009 0.47497 0.0
H721 H 0.04757 0.77518 0.54746 0.0
H722 H 1.0029 0.75373 0.52326 0.0
H723 H 0.97972 0.68756 0.44911 0.0
H724 H 0.84225 0.61478 0.42131 0.0
H725 H 0.88879 0.63357 0.438 0.0
C726 C 0.31564 0.04139 0.67643 0.0
C727 C 0.31592 0.04665 0.71368 0.0
C728 C 0.30103 0.01555 0.66321 0.0
C729 C 0.24543 0.94957 0.68766 0.0
H730 H 0.27444 0.92389 0.61421 0.0
C731 C 0.19761 0.83934 0.65709 0.0
C732 C 0.19398 0.8313 0.62063 0.0
C733 C 0.21347 0.86584 0.66636 0.0
C734 C 0.26597 0.93087 0.63444 0.0
H735 H 0.30063 0.02867 0.76605 0.0
H736 H 0.27568 0.98378 0.74323 0.0
H737 H 0.29979 0.96984 0.63437 0.0
H738 H 0.20523 0.84484 0.56538 0.0
H739 H 0.23315 0.89149 0.58171 0.0
H740 H 0.21177 0.91072 0.68805 0.0
C741 C 0.28654 0.99963 0.72411 0.0
C742 C 0.28047 0.95719 0.64598 0.0
C743 C 0.30113 0.02541 0.7373 0.0
C744 C 0.20761 0.85037 0.5937 0.0
C745 C 0.2236 0.87708 0.60306 0.0
C746 C 0.23103 0.92335 0.67622 0.0
C747 C 0.28625 0.99434 0.68689 0.0
C748 C 0.2705 0.96677 0.6731 0.0
C749 C 0.22618 0.88515 0.63948 0.0
C750 C 0.24124 0.91354 0.64985 0.0
H751 H 0.327 0.05717 0.65745 0.0
H752 H 0.3011 0.01223 0.63436 0.0
H753 H 0.23684 0.95639 0.70793 0.0
H754 H 0.18776 0.82519 0.67865 0.0
H755 H 0.21555 0.87125 0.69472 0.0
C756 C 0.81849 0.6603 0.07303 0.0
C757 C 0.82502 0.64747 0.04625 0.0
C758 C 0.80112 0.66962 0.06517 0.0
C759 C 0.74913 0.66234 0.00165 0.0
H760 H 0.7744 0.73628 0.02112 0.0
C761 C 0.70407 0.71824 0.93051 0.0
C762 C 0.70296 0.73869 0.94889 0.0
C763 C 0.717 0.70594 0.94579 0.0
C764 C 0.76669 0.71547 0.01605 0.0
H765 H 0.81758 0.63327 0.99086 0.0
H766 H 0.78694 0.64892 0.97751 0.0
H767 H 0.7994 0.71597 0.04304 0.0
H768 H 0.71415 0.7619 -0.00195 0.0
H769 H 0.7362 0.74001 0.02534 0.0
H770 H 0.71641 0.66161 0.97482 0.0
C771 C 0.79532 0.65199 0.00445 0.0
C772 C 0.78111 0.70385 0.0286 0.0
C773 C 0.81296 0.64311 0.01207 0.0
C774 C 0.71489 0.74636 0.98314 0.0
C775 C 0.7276 0.73384 -0.00133 0.0
C776 C 0.73455 0.67384 0.98948 0.0
C777 C 0.78958 0.6658 0.03064 0.0
C778 C 0.77275 0.6773 0.02093 0.0
C779 C 0.72898 0.71352 0.98012 0.0
C780 C 0.74339 0.70073 0.99581 0.0
H781 H 0.82761 0.6641 0.09953 0.0
H782 H 0.79694 0.68009 0.08594 0.0
H783 H 0.74203 0.64174 0.9957 0.0
H784 H 0.69557 0.71222 0.90377 0.0
H785 H 0.71813 0.69088 0.93017 0.0
C786 C 0.98448 0.72964 0.11151 0.0
C787 C 0.9694 0.70193 0.11107 0.0
C788 C 1.01021 0.74249 0.12513 0.0
C789 C 0.05663 0.7354 0.1847 0.0
H790 H 0.10953 0.79199 0.12572 0.0
C791 C 0.16943 0.79105 0.21886 0.0
C792 C 0.18372 0.81807 0.21028 0.0
C793 C 0.14282 0.77562 0.20864 0.0
C794 C 0.09501 0.77652 0.14288 0.0
H795 H 0.96932 0.66604 0.1256 0.0
H796 H 0.01444 0.6886 0.14977 0.0
H797 H 0.06411 0.76763 0.10482 0.0
H798 H 0.18083 0.85036 0.18619 0.0
H799 H 0.13473 0.82394 0.16963 0.0
H800 H 0.08757 0.7447 0.22316 0.0
C801 C 1.00624 0.70029 0.13942 0.0
C802 C 0.06895 0.76248 0.13076 0.0
C803 C 0.98052 0.68739 0.12537 0.0
C804 C 0.17056 0.82951 0.19276 0.0
C805 C 0.14408 0.81426 0.18297 0.0
C806 C 0.08279 0.74968 0.19707 0.0
C807 C 0.02149 0.728 0.13896 0.0
C808 C 0.04937 0.74196 0.15165 0.0
C809 C 0.12996 0.78698 0.1899 0.0
C810 C 0.10227 0.77069 0.17651 0.0
H811 H 0.97671 0.74148 0.10039 0.0
H812 H 0.02136 0.76386 0.12471 0.0
H813 H 0.04193 0.71972 0.20143 0.0
H814 H 0.17904 0.78164 0.23225 0.0
H815 H 0.13263 0.75466 0.21436 0.0
C816 C 0.28874 0.96609 0.32374 0.0
C817 C 0.2786 0.96012 0.28829 0.0
C818 C 0.29871 0.99156 0.33783 0.0
C819 C 0.29556 0.05251 0.32595 0.0
H820 H 0.36338 0.08714 0.37462 0.0
C821 C 0.35157 0.16428 0.34933 0.0
C822 C 0.36586 0.1746 0.38161 0.0
C823 C 0.3405 0.13759 0.34089 0.0
C824 C 0.34422 0.07764 0.36164 0.0
H825 H 0.27051 0.97611 0.24021 0.0
H826 H 0.28782 0.02045 0.26473 0.0
H827 H 0.34449 0.04138 0.35462 0.0
H828 H 0.37977 0.16471 0.43029 0.0
H829 H 0.35995 0.11771 0.41576 0.0
H830 H 0.29508 0.08851 0.3329 0.0
C831 C 0.28807 1.00545 0.28166 0.0
C832 C 0.33342 0.05142 0.3501 0.0
C833 C 0.27836 0.98011 0.26747 0.0
C834 C 0.3689 0.15743 0.40521 0.0
C835 C 0.35763 0.13052 0.39678 0.0
C836 C 0.30622 0.07858 0.33767 0.0
C837 C 0.29846 0.01153 0.31695 0.0
C838 C 0.30918 0.03872 0.33155 0.0
C839 C 0.34315 0.12024 0.36456 0.0
C840 C 0.33094 0.0917 0.35504 0.0
H841 H 0.28945 0.95123 0.34035 0.0
H842 H 0.30644 0.99558 0.36518 0.0
H843 H 0.2766 0.04313 0.31239 0.0
H844 H 0.34899 0.17685 0.33022 0.0
H845 H 0.33009 0.13063 0.31543 0.0
C846 C 0.31615 0.27661 0.4905 0.0
C847 C 0.31725 0.27227 0.45319 0.0
C848 C 0.30153 0.28794 0.50337 0.0
C849 C 0.24732 0.29997 0.47677 0.0
H850 H 0.27492 0.35296 0.55254 0.0
C851 C 0.20035 0.36323 0.50634 0.0
C852 C 0.1955 0.36664 0.54269 0.0
C853 C 0.21625 0.35255 0.49758 0.0
C854 C 0.26685 0.338 0.53164 0.0
H855 H 0.30334 0.27618 0.40036 0.0
H856 H 0.27852 0.29635 0.42256 0.0
H857 H 0.30017 0.33209 0.53316 0.0
H858 H 0.20467 0.36257 0.59837 0.0
H859 H 0.23267 0.34378 0.58294 0.0
H860 H 0.2142 0.30597 0.47489 0.0
C861 C 0.2887 0.29076 0.442 0.0
C862 C 0.28128 0.326 0.52054 0.0
C863 C 0.30326 0.27945 0.42918 0.0
C864 C 0.20801 0.3602 0.57012 0.0
C865 C 0.22404 0.34945 0.56128 0.0
C866 C 0.23301 0.31198 0.48774 0.0
C867 C 0.28759 0.29513 0.47926 0.0
C868 C 0.27183 0.30707 0.49261 0.0
C869 C 0.22778 0.34492 0.52488 0.0
C870 C 0.24273 0.3314 0.51493 0.0
H871 H 0.32685 0.2716 0.5098 0.0
H872 H 0.30095 0.29081 0.53225 0.0
H873 H 0.2391 0.28503 0.45584 0.0
H874 H 0.19138 0.36831 0.48445 0.0
H875 H 0.21925 0.34995 0.46927 0.0
C876 C 0.04242 0.32748 0.63455 0.0
C877 C 0.05388 0.31342 0.6198 0.0
C878 C 0.0171 0.3141 0.64981 0.0
C879 C 0.96591 0.24746 0.68334 0.0
H880 H 0.91812 0.27437 0.66782 0.0
C881 C 0.85294 0.18303 0.69529 0.0
C882 C 0.8392 0.19333 0.71409 0.0
C883 C 0.87986 0.19876 0.68799 0.0
C884 C 0.93136 0.2668 0.67277 0.0
H885 H 0.04741 0.27425 0.60882 0.0
H886 H 1.00334 0.251 0.63448 0.0
H887 H 0.96371 0.29984 0.64671 0.0
H888 H 0.84305 0.22832 0.74003 0.0
H889 H 0.89026 0.25608 0.72656 0.0
H890 H 0.93315 0.21391 0.70803 0.0
C891 C 0.01408 0.27235 0.63549 0.0
C892 C 0.95755 0.28142 0.66076 0.0
C893 C 0.03944 0.28571 0.62063 0.0
C894 C 0.85311 0.21976 0.72566 0.0
C895 C 0.88005 0.23569 0.71778 0.0
C896 C 0.93969 0.23275 0.69489 0.0
C897 C 1.0025 0.28631 0.65034 0.0
C898 C 0.97511 0.27176 0.6654 0.0
C899 C 0.89368 0.22532 0.69883 0.0
C900 C 0.92204 0.24208 0.68933 0.0
H901 H 0.05316 0.34885 0.6345 0.0
H902 H 1.00906 0.32558 0.66139 0.0
H903 H 0.97892 0.23963 0.6883 0.0
H904 H 0.84286 0.16275 0.686 0.0
H905 H 0.88976 0.19028 0.67304 0.0
C906 C 0.73464 0.02706 0.7618 0.0
C907 C 0.74141 0.04841 0.7853 0.0
C908 C 0.7241 1.00141 0.77527 0.0
C909 C 0.69044 0.95913 0.85494 0.0
H910 H 0.71235 0.91334 0.80998 0.0
C911 C 0.65912 0.85205 0.9049 0.0
C912 C 0.65281 0.83329 0.87725 0.0
C913 C 0.66939 0.87885 0.8963 0.0
C914 C 0.70586 0.9258 0.82269 0.0
H915 H 0.74203 0.0592 0.84166 0.0
H916 H 0.72415 0.0145 0.86521 0.0
H917 H 0.73187 0.95893 0.79014 0.0
H918 H 0.65077 0.82783 0.81891 0.0
H919 H 0.66832 0.87397 0.80422 0.0
H920 H 0.66438 0.92567 0.88757 0.0
C921 C 0.72677 0.01763 0.83624 0.0
C922 C 0.71703 0.95196 0.81124 0.0
C923 C 0.73734 0.04335 0.82274 0.0
C924 C 0.65582 0.84172 0.84099 0.0
C925 C 0.66602 0.86827 0.83249 0.0
C926 C 0.67928 0.93284 0.86653 0.0
C927 C 0.72011 0.99633 0.81267 0.0
C928 C 0.70917 0.96889 0.82673 0.0
C929 C 0.67356 0.88729 0.85994 0.0
C930 C 0.68653 0.91575 0.85003 0.0
H931 H 0.73771 0.03012 0.73291 0.0
H932 H 0.71887 0.98548 0.75621 0.0
H933 H 0.68381 0.97156 0.86735 0.0
H934 H 0.65702 0.84621 0.93309 0.0
H935 H 0.67497 0.89306 0.91807 0.0
C936 C 0.31091 0.35185 0.04535 0.0
C937 C 0.28449 0.34558 0.04227 0.0
C938 C 0.31915 0.3431 0.07526 0.0
C939 C 0.3346 0.33661 0.15162 0.0
H940 H 0.28632 0.26965 0.19666 0.0
C941 C 0.35719 0.30574 0.29033 0.0
C942 C 0.34945 0.27899 0.29441 0.0
C943 C 0.349 0.31421 0.26003 0.0
C944 C 0.30025 0.28829 0.18432 0.0
H945 H 0.24595 0.32514 0.06784 0.0
H946 H 0.26028 0.31073 0.12006 0.0
H947 H 0.27381 0.28206 0.14083 0.0
H948 H 0.32738 0.24018 0.26991 0.0
H949 H 0.31401 0.25487 0.21708 0.0
H950 H 0.3616 0.3421 0.19434 0.0
C951 C 0.27464 0.32165 0.09916 0.0
C952 C 0.29287 0.29562 0.15244 0.0
C953 C 0.2664 0.33003 0.06916 0.0
C954 C 0.33332 0.26089 0.26792 0.0
C955 C 0.32554 0.26934 0.23754 0.0
C956 C 0.34219 0.32904 0.1833 0.0
C957 C 0.30115 0.3282 0.10283 0.0
C958 C 0.30982 0.31995 0.13577 0.0
C959 C 0.33325 0.29609 0.23308 0.0
C960 C 0.32508 0.30478 0.20007 0.0
H961 H 0.32528 0.36386 0.025 0.0
H962 H 0.33962 0.34815 0.07686 0.0
H963 H 0.34804 0.35566 0.13988 0.0
H964 H 0.36972 0.32011 0.31033 0.0
H965 H 0.35503 0.33492 0.25775 0.0
C966 C 0.96226 0.30923 0.21629 0.0
C967 C 0.95066 0.28305 0.20412 0.0
C968 C 0.97719 0.31695 0.24805 0.0
C969 C 0.98598 0.288 0.3325 0.0
H970 H 0.0453 0.35854 0.3468 0.0
C971 C 0.06038 0.32001 0.45092 0.0
C972 C 0.06817 0.34461 0.4669 0.0
C973 C 0.04343 0.31152 0.42115 0.0
C974 C 0.02854 0.33888 0.34326 0.0
H975 H 0.94698 0.24486 0.21408 0.0
H976 H 0.97403 0.25859 0.26864 0.0
H977 H 0.02374 0.34617 0.28785 0.0
H978 H 0.06346 0.37905 0.46561 0.0
H979 H 0.034 0.36428 0.41308 0.0
H980 H 0.99155 0.2806 0.38775 0.0
C981 C 0.97082 0.27295 0.25449 0.0
C982 C 0.01619 0.33175 0.30951 0.0
C983 C 0.95559 0.26515 0.22299 0.0
C984 C 0.0576 0.35992 0.45392 0.0
C985 C 0.04098 0.35162 0.42373 0.0
C986 C 0.99858 0.29504 0.3661 0.0
C987 C 0.98112 0.29873 0.26804 0.0
C988 C 0.99476 0.30621 0.30367 0.0
C989 C 0.03435 0.32767 0.40655 0.0
C990 C 0.01994 0.32054 0.37176 0.0
H991 H 0.95859 0.32341 0.20246 0.0
H992 H 0.98457 0.33689 0.25777 0.0
H993 H 0.96916 0.26835 0.3293 0.0
H994 H 0.06828 0.30785 0.46045 0.0
H995 H 0.03866 0.29301 0.40829 0.0
C996 C 0.65856 0.96164 0.37826 0.0
C997 C 0.67471 0.95199 0.36542 0.0
C998 C 0.6657 0.97743 0.40929 0.0
C999 C 0.70643 0.99042 0.49138 0.0
H1000 H 0.69189 0.04746 0.50655 0.0
C1001 C 0.74893 0.06394 0.61002 0.0
C1002 C 0.73228 0.07153 0.62695 0.0
C1003 C 0.74039 0.04772 0.57951 0.0
C1004 C 0.69573 0.03133 0.50281 0.0
H1005 H 0.71185 0.95285 0.37306 0.0
H1006 H 0.72478 0.98114 0.42629 0.0
H1007 H 0.6816 0.02484 0.44817 0.0
H1008 H 0.69332 0.06737 0.62616 0.0
H1009 H 0.67839 0.03898 0.57261 0.0
H1010 H 0.72101 0.99726 0.54578 0.0
C1011 C 0.70618 0.97583 0.4133 0.0
C1012 C 0.6899 0.01842 0.46937 0.0
C1013 C 0.69893 0.95986 0.38257 0.0
C1014 C 0.70653 0.06172 0.61373 0.0
C1015 C 0.69808 0.0457 0.58292 0.0
C1016 C 0.71242 1.00344 0.52465 0.0
C1017 C 0.68922 0.98401 0.4278 0.0
C1018 C 0.69538 0.99794 0.46318 0.0
C1019 C 0.71512 0.03898 0.56514 0.0
C1020 C 0.70726 0.0241 0.53064 0.0
H1021 H 0.63967 0.95569 0.36571 0.0
H1022 H 0.65213 0.9833 0.41979 0.0
H1023 H 0.71027 0.97427 0.4879 0.0
H1024 H 0.7689 0.07125 0.61961 0.0
H1025 H 0.754 0.04297 0.56623 0.0
C1026 C 0.75606 0.68301 0.55968 0.0
C1027 C 0.73732 0.66659 0.53403 0.0
C1028 C 0.74834 0.69102 0.59054 0.0
C1029 C 0.73068 0.71619 0.64575 0.0
H1030 H 0.66379 0.66883 0.69167 0.0
C1031 C 0.69153 0.7507 0.76306 0.0
C1032 C 0.67574 0.73265 0.78984 0.0
C1033 C 0.69942 0.74227 0.73278 0.0
C1034 C 0.68274 0.68214 0.67955 0.0
H1035 H 0.69584 0.64622 0.51995 0.0
H1036 H 0.68232 0.66142 0.57323 0.0
H1037 H 0.67627 0.65518 0.63638 0.0
H1038 H 0.65657 0.69173 0.80668 0.0
H1039 H 0.67154 0.67703 0.75438 0.0
H1040 H 0.73797 0.74249 0.68974 0.0
C1041 C 0.70296 0.66742 0.57003 0.0
C1042 C 0.68967 0.67451 0.64736 0.0
C1043 C 0.71069 0.65895 0.5393 0.0
C1044 C 0.66879 0.70606 0.78643 0.0
C1045 C 0.67711 0.69764 0.75625 0.0
C1046 C 0.72402 0.72355 0.67818 0.0
C1047 C 0.72169 0.6833 0.59629 0.0
C1048 C 0.71373 0.69149 0.62998 0.0
C1049 C 0.6922 0.7156 0.72874 0.0
C1050 C 0.69986 0.70678 0.69538 0.0
H1051 H 0.77671 0.68889 0.55674 0.0
H1052 H 0.7633 0.70265 0.6104 0.0
H1053 H 0.74918 0.73004 0.63299 0.0
H1054 H 0.69692 0.77129 0.76458 0.0
H1055 H 0.71045 0.75664 0.71195 0.0
C1056 C 0.0572 0.74249 0.70757 0.0
C1057 C 0.06541 0.72578 0.69251 0.0
C1058 C 0.04072 0.73453 0.73783 0.0
C1059 C 0.99874 0.67717 0.7974 0.0
H1060 H 0.01912 0.73197 0.86995 0.0
C1061 C 0.95974 0.65443 0.94394 0.0
C1062 C 0.94815 0.6691 0.95582 0.0
C1063 C 0.97513 0.66181 0.91254 0.0
C1064 C 0.01318 0.71652 0.84988 0.0
H1065 H 0.06176 0.68713 0.69581 0.0
H1066 H 0.03345 0.67336 0.74916 0.0
H1067 H 0.04135 0.74278 0.81146 0.0
H1068 H 0.94475 0.70376 0.9456 0.0
H1069 H 0.97217 0.717 0.89123 0.0
H1070 H 0.97094 0.65084 0.83647 0.0
C1071 C 0.0393 0.69245 0.73736 0.0
C1072 C 0.02572 0.72271 0.81623 0.0
C1073 C 0.0555 0.7003 0.70672 0.0
C1074 C 0.95349 0.69212 0.93705 0.0
C1075 C 0.96917 0.6997 0.90597 0.0
C1076 C 0.9864 0.67094 0.83125 0.0
C1077 C 0.03247 0.70985 0.75402 0.0
C1078 C 0.01854 0.70315 0.78946 0.0
C1079 C 0.97948 0.68419 0.89287 0.0
C1080 C 0.99346 0.69058 0.85772 0.0
H1081 H 0.06444 0.76219 0.69692 0.0
H1082 H 0.0352 0.74812 0.74929 0.0
H1083 H 0.99252 0.66169 0.77734 0.0
H1084 H 0.95581 0.63649 0.95777 0.0
H1085 H 0.98314 0.64971 0.90316 0.0
C1086 C 0.26786 0.94158 0.1028 0.0
C1087 C 0.28647 0.94188 0.12706 0.0
C1088 C 0.27589 0.95861 0.07322 0.0
C1089 C 0.33448 1.00012 0.01609 0.0
H1090 H 0.28828 0.02411 0.97838 0.0
C1091 C 0.33359 0.07646 0.90204 0.0
C1092 C 0.34763 0.07273 0.87406 0.0
C1093 C 0.32635 0.06075 0.93297 0.0
C1094 C 0.30168 0.01795 0.98866 0.0
H1095 H 0.32807 0.96089 0.14019 0.0
H1096 H 0.3422 0.99175 0.08921 0.0
H1097 H 0.27703 0.99949 0.03442 0.0
H1098 H 0.36459 0.04923 0.85597 0.0
H1099 H 0.35066 0.02062 0.90935 0.0
H1100 H 0.35985 0.01991 0.97117 0.0
C1101 C 0.32138 0.97772 0.09246 0.0
C1102 C 0.29497 1.00338 0.02067 0.0
C1103 C 0.31331 0.96027 0.12189 0.0
C1104 C 0.35371 0.05246 0.87716 0.0
C1105 C 0.34598 0.0363 0.90794 0.0
C1106 C 0.34147 0.01518 0.98433 0.0
C1107 C 0.30276 0.9768 0.0674 0.0
C1108 C 0.31108 0.99397 0.03464 0.0
C1109 C 0.33248 0.04047 0.93648 0.0
C1110 C 0.32507 0.02417 0.97006 0.0
H1111 H 0.24703 0.92739 0.10572 0.0
H1112 H 0.26097 0.95678 0.05425 0.0
H1113 H 0.34723 0.99295 0.02568 0.0
H1114 H 0.32906 0.09227 0.90075 0.0
H1115 H 0.31659 0.06508 0.95456 0.0
C1116 C 0.51388 0.67794 0.87851 0.0
C1117 C 0.53055 0.68464 0.90884 0.0
C1118 C 0.48844 0.65601 0.87949 0.0
C1119 C 0.4328 0.61254 0.93401 0.0
H1120 H 0.42355 0.55574 0.87063 0.0
C1121 C 0.34368 0.50702 0.94829 0.0
C1122 C 0.33525 0.49012 0.91821 0.0
C1123 C 0.36575 0.53231 0.94584 0.0
C1124 C 0.42534 0.57148 0.8879 0.0
H1125 H 0.5334 0.67436 0.96434 0.0
H1126 H 0.48825 0.63638 0.96647 0.0
H1127 H 0.46479 0.59762 0.86942 0.0
H1128 H 0.34235 0.48656 0.86162 0.0
H1129 H 0.37983 0.53134 0.85634 0.0
H1130 H 0.39319 0.58707 0.95177 0.0
C1131 C 0.49513 0.64806 0.94194 0.0
C1132 C 0.44917 0.59542 0.88739 0.0
C1133 C 0.52086 0.66968 0.94071 0.0
C1134 C 0.34853 0.49931 0.88516 0.0
C1135 C 0.37024 0.52488 0.8824 0.0
C1136 C 0.40866 0.5888 0.93395 0.0
C1137 C 0.47899 0.64072 0.91104 0.0
C1138 C 0.4532 0.616 0.91072 0.0
C1139 C 0.37967 0.54155 0.91298 0.0
C1140 C 0.40466 0.56771 0.91123 0.0
H1141 H 0.52101 0.68889 0.85343 0.0
H1142 H 0.47632 0.65061 0.85534 0.0
H1143 H 0.43549 0.62829 0.95207 0.0
H1144 H 0.33398 0.50014 0.97427 0.0
H1145 H 0.37246 0.54407 0.97025 0.0
C1146 C 0.87393 0.35675 0.11543 0.0
C1147 C 0.85968 0.33571 0.09148 0.0
C1148 C 0.87018 0.37844 0.11576 0.0
C1149 C 0.82609 0.40347 0.08537 0.0
H1150 H 0.88993 0.471 0.09865 0.0
C1151 C 0.83652 0.50703 0.06041 0.0
C1152 C 0.85255 0.5272 0.08489 0.0
C1153 C 0.8336 0.48183 0.0635 0.0
C1154 C 0.87185 0.45229 0.09537 0.0
H1155 H 0.82957 0.32021 0.04999 0.0
H1156 H 0.82343 0.35886 0.04959 0.0
H1157 H 0.89247 0.43092 0.09783 0.0
H1158 H 0.87617 0.53597 0.13361 0.0
H1159 H 0.87122 0.49217 0.13882 0.0
H1160 H 0.80574 0.42545 0.08181 0.0
C1161 C 0.83732 0.35838 0.06852 0.0
C1162 C 0.87327 0.42922 0.09495 0.0
C1163 C 0.84087 0.33633 0.06855 0.0
C1164 C 0.86408 0.52105 0.11393 0.0
C1165 C 0.86127 0.49597 0.11689 0.0
C1166 C 0.82471 0.42674 0.08542 0.0
C1167 C 0.85233 0.37994 0.09173 0.0
C1168 C 0.8504 0.40442 0.09047 0.0
C1169 C 0.84676 0.47637 0.09101 0.0
C1170 C 0.84758 0.45137 0.0909 0.0
H1171 H 0.88816 0.35644 0.13393 0.0
H1172 H 0.88149 0.39418 0.13484 0.0
H1173 H 0.80806 0.38474 0.08203 0.0
H1174 H 0.82757 0.51112 0.03749 0.0
H1175 H 0.82236 0.46716 0.04309 0.0
C1176 C 0.52301 0.85 0.2144 0.0
C1177 C 0.53284 0.84754 0.24792 0.0
C1178 C 0.49726 0.84561 0.21159 0.0
C1179 C 0.43389 0.82127 0.264 0.0
H1180 H 0.42376 0.86603 0.19619 0.0
C1181 C 0.35021 0.84813 0.26948 0.0
C1182 C 0.33625 0.84427 0.23697 0.0
C1183 C 0.37224 0.84469 0.27065 0.0
C1184 C 0.42628 0.85328 0.21506 0.0
H1185 H 0.52362 0.83848 0.30472 0.0
H1186 H 0.47933 0.83202 0.30042 0.0
H1187 H 0.46589 0.86726 0.19791 0.0
H1188 H 0.33425 0.8337 0.18033 0.0
H1189 H 0.37311 0.82836 0.18223 0.0
H1190 H 0.39447 0.80863 0.28237 0.0
C1191 C 0.49081 0.83626 0.27581 0.0
C1192 C 0.45039 0.85375 0.21591 0.0
C1193 C 0.51631 0.84004 0.2784 0.0
C1194 C 0.34442 0.83644 0.20587 0.0
C1195 C 0.36672 0.83357 0.20686 0.0
C1196 C 0.40996 0.82128 0.26367 0.0
C1197 C 0.48099 0.83942 0.24247 0.0
C1198 C 0.45465 0.83779 0.24043 0.0
C1199 C 0.38101 0.83797 0.23912 0.0
C1200 C 0.40598 0.83729 0.23919 0.0
H1201 H 0.53542 0.85575 0.19051 0.0
H1202 H 0.49034 0.84755 0.18522 0.0
H1203 H 0.43603 0.80827 0.2828 0.0
H1204 H 0.34437 0.85427 0.29377 0.0
H1205 H 0.38307 0.84834 0.29579 0.0
C1206 C 0.50649 0.33427 0.384 0.0
C1207 C 0.49047 0.32683 0.41509 0.0
C1208 C 0.53155 0.35672 0.38431 0.0
C1209 C 0.58735 0.40097 0.43866 0.0
H1210 H 0.59624 0.45615 0.37218 0.0
C1211 C 0.67661 0.50661 0.44829 0.0
C1212 C 0.68539 0.52242 0.41711 0.0
C1213 C 0.65421 0.48151 0.44712 0.0
C1214 C 0.59451 0.44085 0.39037 0.0
H1215 H 0.48836 0.33647 0.47115 0.0
H1216 H 0.53292 0.37547 0.47205 0.0
H1217 H 0.55506 0.41415 0.37247 0.0
H1218 H 0.6784 0.5242 0.35996 0.0
H1219 H 0.64016 0.47971 0.35711 0.0
H1220 H 0.62697 0.42699 0.45583 0.0
C1221 C 0.5258 0.36392 0.44745 0.0
C1222 C 0.57073 0.41686 0.3907 0.0
C1223 C 0.50041 0.34173 0.44694 0.0
C1224 C 0.67194 0.51234 0.38437 0.0
C1225 C 0.64985 0.48694 0.38295 0.0
C1226 C 0.61141 0.42476 0.43779 0.0
C1227 C 0.5413 0.37189 0.41589 0.0
C1228 C 0.56687 0.39685 0.41508 0.0
C1229 C 0.64027 0.47134 0.41451 0.0
C1230 C 0.61526 0.44523 0.41391 0.0
H1231 H 0.49915 0.32339 0.35893 0.0
H1232 H 0.54319 0.36253 0.35968 0.0
H1233 H 0.58483 0.38567 0.45749 0.0
H1234 H 0.68639 0.51415 0.47405 0.0
H1235 H 0.64735 0.47057 0.4722 0.0
C1236 C 0.17924 0.67686 0.61801 0.0
C1237 C 0.17106 0.68431 0.58656 0.0
C1238 C 0.18279 0.65496 0.61773 0.0
C1239 C 0.19618 0.61173 0.56265 0.0
H1240 H 0.1502 0.55604 0.62873 0.0
C1241 C 0.17874 0.50579 0.55 0.0
C1242 C 0.17123 0.48942 0.58066 0.0
C1243 C 0.18215 0.53116 0.55211 0.0
C1244 C 0.16372 0.57148 0.61067 0.0
H1245 H 0.16118 0.67538 0.52987 0.0
H1246 H 0.16834 0.63743 0.52907 0.0
H1247 H 0.15089 0.59792 0.62935 0.0
H1248 H 0.16254 0.48701 0.6379 0.0
H1249 H 0.17006 0.5319 0.64239 0.0
H1250 H 0.20973 0.58587 0.54455 0.0
C1251 C 0.17174 0.6485 0.55394 0.0
C1252 C 0.16389 0.59545 0.61088 0.0
C1253 C 0.16762 0.67011 0.55439 0.0
C1254 C 0.16831 0.49929 0.61388 0.0
C1255 C 0.17232 0.52493 0.61623 0.0
C1256 C 0.1965 0.58795 0.56297 0.0
C1257 C 0.17872 0.64037 0.58584 0.0
C1258 C 0.17985 0.61564 0.58659 0.0
C1259 C 0.17861 0.54103 0.58515 0.0
C1260 C 0.17996 0.56727 0.58663 0.0
H1261 H 0.18164 0.68719 0.64331 0.0
H1262 H 0.18818 0.64905 0.64264 0.0
H1263 H 0.20881 0.62713 0.54385 0.0
H1264 H 0.18065 0.49845 0.5239 0.0
H1265 H 0.18645 0.54249 0.52736 0.0
C1266 C 0.68307 0.18246 0.72499 0.0
C1267 C 0.68819 0.16783 0.7508 0.0
C1268 C 0.66048 0.18483 0.72768 0.0
C1269 C 0.5933 0.14608 0.75765 0.0
H1270 H 0.58821 0.20946 0.74983 0.0
C1271 C 0.4937 0.14078 0.77538 0.0
C1272 C 0.48799 0.15749 0.7549 0.0
C1273 C 0.51903 0.14421 0.77556 0.0
C1274 C 0.58923 0.19152 0.75147 0.0
H1275 H 0.67453 0.14619 0.80137 0.0
H1276 H 0.63472 0.14959 0.80523 0.0
H1277 H 0.63167 0.21282 0.75007 0.0
H1278 H 0.50425 0.19124 0.71904 0.0
H1279 H 0.54864 0.19664 0.71779 0.0
H1280 H 0.55127 0.12448 0.75735 0.0
C1281 C 0.64822 0.15909 0.78288 0.0
C1282 C 0.61414 0.19352 0.75189 0.0
C1283 C 0.67097 0.15706 0.78053 0.0
C1284 C 0.50823 0.17801 0.73484 0.0
C1285 C 0.53364 0.18117 0.73443 0.0
C1286 C 0.56851 0.14401 0.75652 0.0
C1287 C 0.64239 0.17235 0.75595 0.0
C1288 C 0.61634 0.17081 0.75549 0.0
C1289 C 0.53933 0.16416 0.75465 0.0
C1290 C 0.56604 0.16669 0.75398 0.0
H1291 H 0.6956 0.19077 0.70146 0.0
H1292 H 0.65635 0.19505 0.70648 0.0
H1293 H 0.59445 0.1282 0.75959 0.0
H1294 H 0.47855 0.1252 0.79179 0.0
H1295 H 0.52267 0.13125 0.79246 0.0
loop_
_geom_bond_atom_site_label_1
_geom_bond_atom_site_label_2
_geom_bond_distance
_geom_bond_site_symmetry_2
_ccdc_geom_bond_type
Co0 N4 2.148 1_554 S
Co0 N10 2.128 . S
Co0 N20 2.194 1_554 S
Co0 O25 2.351 . S
Co0 O26 2.155 . S
Co0 O27 2.096 . S
C1 N4 1.301 . S
C1 N5 1.328 . S
C1 H6 0.930 . S
C2 C3 1.333 . S
C2 N4 1.317 . S
C2 H7 0.930 . S
C3 C2 1.333 . S
C3 N5 1.350 . S
C3 H29 0.931 . S
N4 Co0 2.148 1_556 S
N4 C1 1.301 . S
N4 C2 1.317 . S
N5 C1 1.328 . S
N5 C3 1.350 . S
H6 C1 0.930 . S
H7 C2 0.930 . S
C8 O9 1.224 . S
C8 O27 1.247 1_556 S
O9 C8 1.224 . S
N10 Co0 2.128 . S
N10 C11 1.355 . S
N10 C13 1.311 . S
C11 N10 1.355 . S
C11 C12 1.363 . S
C11 H23 0.929 . S
C12 C11 1.363 . S
C12 N14 1.375 . S
C12 H30 0.931 . S
C13 N10 1.311 . S
C13 N14 1.347 . S
C13 H24 0.929 . S
N14 C12 1.375 . S
N14 C13 1.347 . S
C15 C18 1.365 . S
C15 N20 1.328 . S
C15 H21 0.929 . S
C16 C17 1.362 . S
C16 C19 1.378 . S
C16 H31 0.929 . S
C17 C16 1.362 . S
C17 C18 1.366 . S
C18 C15 1.365 . S
C18 C17 1.366 . S
C18 H32 0.930 . S
C19 C16 1.378 . S
C19 N20 1.315 . S
C19 H22 0.930 . S
N20 Co0 2.194 1_556 S
N20 C15 1.328 . S
N20 C19 1.315 . S
H21 C15 0.929 . S
H22 C19 0.930 . S
H23 C11 0.929 . S
H24 C13 0.929 . S
O25 Co0 2.351 . S
O25 C28 1.244 . S
O26 Co0 2.155 . S
O26 C28 1.240 . S
O27 Co0 2.096 . S
O27 C8 1.247 1_554 S
C28 O25 1.244 . S
C28 O26 1.240 . S
H29 C3 0.931 . S
H30 C12 0.931 . S
H31 C16 0.929 . S
H32 C18 0.930 . S
Co33 N37 2.148 . S
Co33 N43 2.128 . S
Co33 N53 2.194 . S
Co33 O58 2.351 . S
Co33 O59 2.155 . S
Co33 O60 2.096 . S
C34 N37 1.301 . S
C34 N38 1.328 . S
C34 H39 0.930 . S
C35 C36 1.333 . S
C35 N37 1.317 . S
C35 H40 0.930 . S
C36 C35 1.333 . S
C36 N38 1.350 . S
C36 H62 0.931 . S
N37 Co33 2.148 . S
N37 C34 1.301 . S
N37 C35 1.317 . S
N38 C34 1.328 . S
N38 C36 1.350 . S
H39 C34 0.930 . S
H40 C35 0.930 . S
C41 O42 1.224 . S
C41 O60 1.247 . S
O42 C41 1.224 . S
N43 Co33 2.128 . S
N43 C44 1.355 . S
N43 C46 1.311 . S
C44 N43 1.355 . S
C44 C45 1.363 . S
C44 H56 0.929 . S
C45 C44 1.363 . S
C45 N47 1.375 . S
C45 H63 0.931 . S
C46 N43 1.311 . S
C46 N47 1.347 . S
C46 H57 0.929 . S
N47 C45 1.375 . S
N47 C46 1.347 . S
C48 C51 1.365 . S
C48 N53 1.328 . S
C48 H54 0.929 . S
C49 C50 1.362 . S
C49 C52 1.378 . S
C49 H64 0.929 . S
C50 C49 1.362 . S
C50 C51 1.366 . S
C51 C48 1.365 . S
C51 C50 1.366 . S
C51 H65 0.930 . S
C52 C49 1.378 . S
C52 N53 1.315 . S
C52 H55 0.930 . S
N53 Co33 2.194 . S
N53 C48 1.328 . S
N53 C52 1.315 . S
H54 C48 0.929 . S
H55 C52 0.930 . S
H56 C44 0.929 . S
H57 C46 0.929 . S
O58 Co33 2.351 . S
O58 C61 1.244 . S
O59 Co33 2.155 . S
O59 C61 1.240 . S
O60 Co33 2.096 . S
O60 C41 1.247 . S
C61 O58 1.244 . S
C61 O59 1.240 . S
H62 C36 0.931 . S
H63 C45 0.931 . S
H64 C49 0.929 . S
H65 C51 0.930 . S
Co66 N70 2.148 . S
Co66 N76 2.128 . S
Co66 N86 2.194 . S
Co66 O91 2.351 . S
Co66 O92 2.155 . S
Co66 O93 2.096 . S
C67 N70 1.301 . S
C67 N71 1.328 . S
C67 H72 0.930 . S
C68 C69 1.333 . S
C68 N70 1.317 . S
C68 H73 0.930 . S
C69 C68 1.333 . S
C69 N71 1.350 . S
C69 H95 0.931 . S
N70 Co66 2.148 . S
N70 C67 1.301 . S
N70 C68 1.317 . S
N71 C67 1.328 . S
N71 C69 1.350 . S
H72 C67 0.930 . S
H73 C68 0.930 . S
C74 O75 1.224 . S
C74 O93 1.247 . S
O75 C74 1.224 . S
N76 Co66 2.128 . S
N76 C77 1.355 . S
N76 C79 1.311 . S
C77 N76 1.355 . S
C77 C78 1.363 . S
C77 H89 0.929 . S
C78 C77 1.363 . S
C78 N80 1.375 . S
C78 H96 0.931 . S
C79 N76 1.311 . S
C79 N80 1.347 . S
C79 H90 0.929 . S
N80 C78 1.375 . S
N80 C79 1.347 . S
C81 C84 1.365 . S
C81 N86 1.328 . S
C81 H87 0.929 . S
C82 C83 1.362 . S
C82 C85 1.378 . S
C82 H97 0.929 . S
C83 C82 1.362 . S
C83 C84 1.366 . S
C84 C81 1.365 . S
C84 C83 1.366 . S
C84 H98 0.930 . S
C85 C82 1.378 . S
C85 N86 1.315 . S
C85 H88 0.930 . S
N86 Co66 2.194 . S
N86 C81 1.328 . S
N86 C85 1.315 . S
H87 C81 0.929 . S
H88 C85 0.930 . S
H89 C77 0.929 . S
H90 C79 0.929 . S
O91 Co66 2.351 . S
O91 C94 1.244 . S
O92 Co66 2.155 . S
O92 C94 1.240 . S
O93 Co66 2.096 . S
O93 C74 1.247 . S
C94 O91 1.244 . S
C94 O92 1.240 . S
H95 C69 0.931 . S
H96 C78 0.931 . S
H97 C82 0.929 . S
H98 C84 0.930 . S
Co99 N103 2.148 . S
Co99 N109 2.128 . S
Co99 N119 2.194 . S
Co99 O124 2.351 . S
Co99 O125 2.155 . S
Co99 O126 2.096 . S
C100 N103 1.301 . S
C100 N104 1.328 . S
C100 H105 0.930 . S
C101 C102 1.333 . S
C101 N103 1.317 . S
C101 H106 0.930 . S
C102 C101 1.333 . S
C102 N104 1.350 . S
C102 H128 0.931 . S
N103 Co99 2.148 . S
N103 C100 1.301 . S
N103 C101 1.317 . S
N104 C100 1.328 . S
N104 C102 1.350 . S
H105 C100 0.930 . S
H106 C101 0.930 . S
C107 O108 1.224 . S
C107 O126 1.247 . S
O108 C107 1.224 . S
N109 Co99 2.128 . S
N109 C110 1.355 . S
N109 C112 1.311 . S
C110 N109 1.355 . S
C110 C111 1.363 . S
C110 H122 0.929 . S
C111 C110 1.363 . S
C111 N113 1.375 . S
C111 H129 0.931 . S
C112 N109 1.311 . S
C112 N113 1.347 . S
C112 H123 0.929 . S
N113 C111 1.375 . S
N113 C112 1.347 . S
C114 C117 1.365 . S
C114 N119 1.328 . S
C114 H120 0.929 . S
C115 C116 1.362 . S
C115 C118 1.378 . S
C115 H130 0.929 . S
C116 C115 1.362 . S
C116 C117 1.366 . S
C117 C114 1.365 . S
C117 C116 1.366 . S
C117 H131 0.930 . S
C118 C115 1.378 . S
C118 N119 1.315 . S
C118 H121 0.930 . S
N119 Co99 2.194 . S
N119 C114 1.328 . S
N119 C118 1.315 . S
H120 C114 0.929 . S
H121 C118 0.930 . S
H122 C110 0.929 . S
H123 C112 0.929 . S
O124 Co99 2.351 . S
O124 C127 1.244 . S
O125 Co99 2.155 . S
O125 C127 1.240 . S
O126 Co99 2.096 . S
O126 C107 1.247 . S
C127 O124 1.244 . S
C127 O125 1.240 . S
H128 C102 0.931 . S
H129 C111 0.931 . S
H130 C115 0.929 . S
H131 C117 0.930 . S
Co132 N136 2.148 . S
Co132 N142 2.128 . S
Co132 N152 2.194 . S
Co132 O157 2.351 . S
Co132 O158 2.155 . S
Co132 O159 2.096 . S
C133 N136 1.301 . S
C133 N137 1.328 . S
C133 H138 0.930 . S
C134 C135 1.333 . S
C134 N136 1.317 . S
C134 H139 0.930 . S
C135 C134 1.333 . S
C135 N137 1.350 . S
C135 H161 0.931 . S
N136 Co132 2.148 . S
N136 C133 1.301 . S
N136 C134 1.317 . S
N137 C133 1.328 . S
N137 C135 1.350 . S
H138 C133 0.930 . S
H139 C134 0.930 . S
C140 O141 1.224 . S
C140 O159 1.247 . S
O141 C140 1.224 . S
N142 Co132 2.128 . S
N142 C143 1.355 . S
N142 C145 1.311 . S
C143 N142 1.355 . S
C143 C144 1.363 . S
C143 H155 0.929 . S
C144 C143 1.363 . S
C144 N146 1.375 . S
C144 H162 0.931 . S
C145 N142 1.311 . S
C145 N146 1.347 . S
C145 H156 0.929 . S
N146 C144 1.375 . S
N146 C145 1.347 . S
C147 C150 1.365 . S
C147 N152 1.328 . S
C147 H153 0.929 . S
C148 C149 1.362 . S
C148 C151 1.378 . S
C148 H163 0.929 . S
C149 C148 1.362 . S
C149 C150 1.366 . S
C150 C147 1.365 . S
C150 C149 1.366 . S
C150 H164 0.930 . S
C151 C148 1.378 . S
C151 N152 1.315 . S
C151 H154 0.930 . S
N152 Co132 2.194 . S
N152 C147 1.328 . S
N152 C151 1.315 . S
H153 C147 0.929 . S
H154 C151 0.930 . S
H155 C143 0.929 . S
H156 C145 0.929 . S
O157 Co132 2.351 . S
O157 C160 1.244 . S
O158 Co132 2.155 . S
O158 C160 1.240 . S
O159 Co132 2.096 . S
O159 C140 1.247 . S
C160 O157 1.244 . S
C160 O158 1.240 . S
H161 C135 0.931 . S
H162 C144 0.931 . S
H163 C148 0.929 . S
H164 C150 0.930 . S
Co165 N169 2.148 . S
Co165 N175 2.128 . S
Co165 N185 2.194 . S
Co165 O190 2.351 . S
Co165 O191 2.155 . S
Co165 O192 2.096 . S
C166 N169 1.301 . S
C166 N170 1.328 . S
C166 H171 0.930 . S
C167 C168 1.333 . S
C167 N169 1.317 . S
C167 H172 0.930 . S
C168 C167 1.333 . S
C168 N170 1.350 . S
C168 H194 0.931 . S
N169 Co165 2.148 . S
N169 C166 1.301 . S
N169 C167 1.317 . S
N170 C166 1.328 . S
N170 C168 1.350 . S
H171 C166 0.930 . S
H172 C167 0.930 . S
C173 O174 1.224 . S
C173 O192 1.247 . S
O174 C173 1.224 . S
N175 Co165 2.128 . S
N175 C176 1.355 . S
N175 C178 1.311 . S
C176 N175 1.355 . S
C176 C177 1.363 . S
C176 H188 0.929 . S
C177 C176 1.363 . S
C177 N179 1.375 . S
C177 H195 0.931 . S
C178 N175 1.311 . S
C178 N179 1.347 . S
C178 H189 0.929 . S
N179 C177 1.375 . S
N179 C178 1.347 . S
C180 C183 1.365 . S
C180 N185 1.328 . S
C180 H186 0.929 . S
C181 C182 1.362 . S
C181 C184 1.378 . S
C181 H196 0.929 . S
C182 C181 1.362 . S
C182 C183 1.366 . S
C183 C180 1.365 . S
C183 C182 1.366 . S
C183 H197 0.930 . S
C184 C181 1.378 . S
C184 N185 1.315 . S
C184 H187 0.930 . S
N185 Co165 2.194 . S
N185 C180 1.328 . S
N185 C184 1.315 . S
H186 C180 0.929 . S
H187 C184 0.930 . S
H188 C176 0.929 . S
H189 C178 0.929 . S
O190 Co165 2.351 . S
O190 C193 1.244 . S
O191 Co165 2.155 . S
O191 C193 1.240 . S
O192 Co165 2.096 . S
O192 C173 1.247 . S
C193 O190 1.244 . S
C193 O191 1.240 . S
H194 C168 0.931 . S
H195 C177 0.931 . S
H196 C181 0.929 . S
H197 C183 0.930 . S
Co198 N202 2.148 . S
Co198 N208 2.128 . S
Co198 N218 2.194 . S
Co198 O223 2.351 . S
Co198 O224 2.155 . S
Co198 O225 2.096 . S
C199 N202 1.301 . S
C199 N203 1.328 . S
C199 H204 0.930 . S
C200 C201 1.333 . S
C200 N202 1.317 . S
C200 H205 0.930 . S
C201 C200 1.333 . S
C201 N203 1.350 . S
C201 H227 0.931 . S
N202 Co198 2.148 . S
N202 C199 1.301 . S
N202 C200 1.317 . S
N203 C199 1.328 . S
N203 C201 1.350 . S
H204 C199 0.930 . S
H205 C200 0.930 . S
C206 O207 1.224 . S
C206 O225 1.247 . S
O207 C206 1.224 . S
N208 Co198 2.128 . S
N208 C209 1.355 . S
N208 C211 1.311 . S
C209 N208 1.355 . S
C209 C210 1.363 . S
C209 H221 0.929 . S
C210 C209 1.363 . S
C210 N212 1.375 . S
C210 H228 0.931 . S
C211 N208 1.311 . S
C211 N212 1.347 . S
C211 H222 0.929 . S
N212 C210 1.375 . S
N212 C211 1.347 . S
C213 C216 1.365 . S
C213 N218 1.328 . S
C213 H219 0.929 . S
C214 C215 1.362 . S
C214 C217 1.378 . S
C214 H229 0.929 . S
C215 C214 1.362 . S
C215 C216 1.366 . S
C216 C213 1.365 . S
C216 C215 1.366 . S
C216 H230 0.930 . S
C217 C214 1.378 . S
C217 N218 1.315 . S
C217 H220 0.930 . S
N218 Co198 2.194 . S
N218 C213 1.328 . S
N218 C217 1.315 . S
H219 C213 0.929 . S
H220 C217 0.930 . S
H221 C209 0.929 . S
H222 C211 0.929 . S
O223 Co198 2.351 . S
O223 C226 1.244 . S
O224 Co198 2.155 . S
O224 C226 1.240 . S
O225 Co198 2.096 . S
O225 C206 1.247 . S
C226 O223 1.244 . S
C226 O224 1.240 . S
H227 C201 0.931 . S
H228 C210 0.931 . S
H229 C214 0.929 . S
H230 C216 0.930 . S
Co231 N235 2.148 1_556 S
Co231 N241 2.128 . S
Co231 N251 2.194 1_556 S
Co231 O256 2.351 . S
Co231 O257 2.155 . S
Co231 O258 2.096 . S
C232 N235 1.301 . S
C232 N236 1.328 . S
C232 H237 0.930 . S
C233 C234 1.333 . S
C233 N235 1.317 . S
C233 H238 0.930 . S
C234 C233 1.333 . S
C234 N236 1.350 . S
C234 H260 0.931 . S
N235 Co231 2.148 1_554 S
N235 C232 1.301 . S
N235 C233 1.317 . S
N236 C232 1.328 . S
N236 C234 1.350 . S
H237 C232 0.930 . S
H238 C233 0.930 . S
C239 O240 1.224 . S
C239 O258 1.247 1_554 S
O240 C239 1.224 . S
N241 Co231 2.128 . S
N241 C242 1.355 . S
N241 C244 1.311 . S
C242 N241 1.355 . S
C242 C243 1.363 . S
C242 H254 0.929 . S
C243 C242 1.363 . S
C243 N245 1.375 . S
C243 H261 0.931 . S
C244 N241 1.311 . S
C244 N245 1.347 . S
C244 H255 0.929 . S
N245 C243 1.375 . S
N245 C244 1.347 . S
C246 C249 1.365 . S
C246 N251 1.328 . S
C246 H252 0.929 . S
C247 C248 1.362 . S
C247 C250 1.378 . S
C247 H262 0.929 . S
C248 C247 1.362 . S
C248 C249 1.366 . S
C249 C246 1.365 . S
C249 C248 1.366 . S
C249 H263 0.930 . S
C250 C247 1.378 . S
C250 N251 1.315 . S
C250 H253 0.930 . S
N251 Co231 2.194 1_554 S
N251 C246 1.328 . S
N251 C250 1.315 . S
H252 C246 0.929 . S
H253 C250 0.930 . S
H254 C242 0.929 . S
H255 C244 0.929 . S
O256 Co231 2.351 . S
O256 C259 1.244 . S
O257 Co231 2.155 . S
O257 C259 1.240 . S
O258 Co231 2.096 . S
O258 C239 1.247 1_556 S
C259 O256 1.244 . S
C259 O257 1.240 . S
H260 C234 0.931 . S
H261 C243 0.931 . S
H262 C247 0.929 . S
H263 C249 0.930 . S
Co264 N268 2.148 . S
Co264 N274 2.128 . S
Co264 N284 2.194 . S
Co264 O289 2.351 . S
Co264 O290 2.155 . S
Co264 O291 2.096 . S
C265 N268 1.301 . S
C265 N269 1.328 . S
C265 H270 0.930 . S
C266 C267 1.333 . S
C266 N268 1.317 . S
C266 H271 0.930 . S
C267 C266 1.333 . S
C267 N269 1.350 . S
C267 H293 0.931 . S
N268 Co264 2.148 . S
N268 C265 1.301 . S
N268 C266 1.317 . S
N269 C265 1.328 . S
N269 C267 1.350 . S
H270 C265 0.930 . S
H271 C266 0.930 . S
C272 O273 1.224 . S
C272 O291 1.247 . S
O273 C272 1.224 . S
N274 Co264 2.128 . S
N274 C275 1.355 . S
N274 C277 1.311 . S
C275 N274 1.355 . S
C275 C276 1.363 . S
C275 H287 0.929 . S
C276 C275 1.363 . S
C276 N278 1.375 . S
C276 H294 0.931 . S
C277 N274 1.311 . S
C277 N278 1.347 . S
C277 H288 0.929 . S
N278 C276 1.375 . S
N278 C277 1.347 . S
C279 C282 1.365 . S
C279 N284 1.328 . S
C279 H285 0.929 . S
C280 C281 1.362 . S
C280 C283 1.378 . S
C280 H295 0.929 . S
C281 C280 1.362 . S
C281 C282 1.366 . S
C282 C279 1.365 . S
C282 C281 1.366 . S
C282 H296 0.930 . S
C283 C280 1.378 . S
C283 N284 1.315 . S
C283 H286 0.930 . S
N284 Co264 2.194 . S
N284 C279 1.328 . S
N284 C283 1.315 . S
H285 C279 0.929 . S
H286 C283 0.930 . S
H287 C275 0.929 . S
H288 C277 0.929 . S
O289 Co264 2.351 . S
O289 C292 1.244 . S
O290 Co264 2.155 . S
O290 C292 1.240 . S
O291 Co264 2.096 . S
O291 C272 1.247 . S
C292 O289 1.244 . S
C292 O290 1.240 . S
H293 C267 0.931 . S
H294 C276 0.931 . S
H295 C280 0.929 . S
H296 C282 0.930 . S
Co297 N301 2.148 . S
Co297 N307 2.128 . S
Co297 N317 2.194 . S
Co297 O322 2.351 . S
Co297 O323 2.155 . S
Co297 O324 2.096 . S
C298 N301 1.301 . S
C298 N302 1.328 . S
C298 H303 0.930 . S
C299 C300 1.333 . S
C299 N301 1.317 . S
C299 H304 0.930 . S
C300 C299 1.333 . S
C300 N302 1.350 . S
C300 H326 0.931 . S
N301 Co297 2.148 . S
N301 C298 1.301 . S
N301 C299 1.317 . S
N302 C298 1.328 . S
N302 C300 1.350 . S
H303 C298 0.930 . S
H304 C299 0.930 . S
C305 O306 1.224 . S
C305 O324 1.247 . S
O306 C305 1.224 . S
N307 Co297 2.128 . S
N307 C308 1.355 . S
N307 C310 1.311 . S
C308 N307 1.355 . S
C308 C309 1.363 . S
C308 H320 0.929 . S
C309 C308 1.363 . S
C309 N311 1.375 . S
C309 H327 0.931 . S
C310 N307 1.311 . S
C310 N311 1.347 . S
C310 H321 0.929 . S
N311 C309 1.375 . S
N311 C310 1.347 . S
C312 C315 1.365 . S
C312 N317 1.328 . S
C312 H318 0.929 . S
C313 C314 1.362 . S
C313 C316 1.378 . S
C313 H328 0.929 . S
C314 C313 1.362 . S
C314 C315 1.366 . S
C315 C312 1.365 . S
C315 C314 1.366 . S
C315 H329 0.930 . S
C316 C313 1.378 . S
C316 N317 1.315 . S
C316 H319 0.930 . S
N317 Co297 2.194 . S
N317 C312 1.328 . S
N317 C316 1.315 . S
H318 C312 0.929 . S
H319 C316 0.930 . S
H320 C308 0.929 . S
H321 C310 0.929 . S
O322 Co297 2.351 . S
O322 C325 1.244 . S
O323 Co297 2.155 . S
O323 C325 1.240 . S
O324 Co297 2.096 . S
O324 C305 1.247 . S
C325 O322 1.244 . S
C325 O323 1.240 . S
H326 C300 0.931 . S
H327 C309 0.931 . S
H328 C313 0.929 . S
H329 C315 0.930 . S
Co330 N334 2.148 . S
Co330 N340 2.128 . S
Co330 N350 2.194 . S
Co330 O355 2.351 . S
Co330 O356 2.155 . S
Co330 O357 2.096 . S
C331 N334 1.301 . S
C331 N335 1.328 . S
C331 H336 0.930 . S
C332 C333 1.333 . S
C332 N334 1.317 . S
C332 H337 0.930 . S
C333 C332 1.333 . S
C333 N335 1.350 . S
C333 H359 0.931 . S
N334 Co330 2.148 . S
N334 C331 1.301 . S
N334 C332 1.317 . S
N335 C331 1.328 . S
N335 C333 1.350 . S
H336 C331 0.930 . S
H337 C332 0.930 . S
C338 O339 1.224 . S
C338 O357 1.247 . S
O339 C338 1.224 . S
N340 Co330 2.128 . S
N340 C341 1.355 . S
N340 C343 1.311 . S
C341 N340 1.355 . S
C341 C342 1.363 . S
C341 H353 0.929 . S
C342 C341 1.363 . S
C342 N344 1.375 . S
C342 H360 0.931 . S
C343 N340 1.311 . S
C343 N344 1.347 . S
C343 H354 0.929 . S
N344 C342 1.375 . S
N344 C343 1.347 . S
C345 C348 1.365 . S
C345 N350 1.328 . S
C345 H351 0.929 . S
C346 C347 1.362 . S
C346 C349 1.378 . S
C346 H361 0.929 . S
C347 C346 1.362 . S
C347 C348 1.366 . S
C348 C345 1.365 . S
C348 C347 1.366 . S
C348 H362 0.930 . S
C349 C346 1.378 . S
C349 N350 1.315 . S
C349 H352 0.930 . S
N350 Co330 2.194 . S
N350 C345 1.328 . S
N350 C349 1.315 . S
H351 C345 0.929 . S
H352 C349 0.930 . S
H353 C341 0.929 . S
H354 C343 0.929 . S
O355 Co330 2.351 . S
O355 C358 1.244 . S
O356 Co330 2.155 . S
O356 C358 1.240 . S
O357 Co330 2.096 . S
O357 C338 1.247 . S
C358 O355 1.244 . S
C358 O356 1.240 . S
H359 C333 0.931 . S
H360 C342 0.931 . S
H361 C346 0.929 . S
H362 C348 0.930 . S
Co363 N367 2.148 . S
Co363 N373 2.128 . S
Co363 N383 2.194 . S
Co363 O388 2.351 . S
Co363 O389 2.155 . S
Co363 O390 2.096 . S
C364 N367 1.301 . S
C364 N368 1.328 . S
C364 H369 0.930 . S
C365 C366 1.333 . S
C365 N367 1.317 . S
C365 H370 0.930 . S
C366 C365 1.333 . S
C366 N368 1.350 . S
C366 H392 0.931 . S
N367 Co363 2.148 . S
N367 C364 1.301 . S
N367 C365 1.317 . S
N368 C364 1.328 . S
N368 C366 1.350 . S
H369 C364 0.930 . S
H370 C365 0.930 . S
C371 O372 1.224 . S
C371 O390 1.247 . S
O372 C371 1.224 . S
N373 Co363 2.128 . S
N373 C374 1.355 . S
N373 C376 1.311 . S
C374 N373 1.355 . S
C374 C375 1.363 . S
C374 H386 0.929 . S
C375 C374 1.363 . S
C375 N377 1.375 . S
C375 H393 0.931 . S
C376 N373 1.311 . S
C376 N377 1.347 . S
C376 H387 0.929 . S
N377 C375 1.375 . S
N377 C376 1.347 . S
C378 C381 1.365 . S
C378 N383 1.328 . S
C378 H384 0.929 . S
C379 C380 1.362 . S
C379 C382 1.378 . S
C379 H394 0.929 . S
C380 C379 1.362 . S
C380 C381 1.366 . S
C381 C378 1.365 . S
C381 C380 1.366 . S
C381 H395 0.930 . S
C382 C379 1.378 . S
C382 N383 1.315 . S
C382 H385 0.930 . S
N383 Co363 2.194 . S
N383 C378 1.328 . S
N383 C382 1.315 . S
H384 C378 0.929 . S
H385 C382 0.930 . S
H386 C374 0.929 . S
H387 C376 0.929 . S
O388 Co363 2.351 . S
O388 C391 1.244 . S
O389 Co363 2.155 . S
O389 C391 1.240 . S
O390 Co363 2.096 . S
O390 C371 1.247 . S
C391 O388 1.244 . S
C391 O389 1.240 . S
H392 C366 0.931 . S
H393 C375 0.931 . S
H394 C379 0.929 . S
H395 C381 0.930 . S
C396 C397 1.349 . S
C396 C398 1.327 . S
C396 H421 0.950 . S
C397 C396 1.349 . S
C397 C413 1.349 . S
C398 C396 1.327 . S
C398 C417 1.429 . S
C398 H422 0.950 . S
C399 C416 1.574 . S
C399 C418 1.368 . S
C399 H423 0.949 . S
H400 C404 0.949 . S
C401 C402 1.349 . S
C401 C403 1.327 . S
C401 H424 0.950 . S
C402 C401 1.349 . S
C402 C414 1.349 . S
C403 C401 1.327 . S
C403 C419 1.429 . S
C403 H425 0.950 . S
C404 H400 0.949 . S
C404 C412 1.574 . S
C404 C420 1.368 . S
H405 C413 0.950 . S
H406 C411 0.950 . S
H407 C412 0.949 . S
H408 C414 0.950 . S
H409 C415 0.950 . S
H410 C416 0.949 . S
C411 H406 0.950 . S
C411 C413 1.327 . S
C411 C417 1.429 . S
C412 C404 1.574 . S
C412 H407 0.949 . S
C412 C418 1.368 . S
C413 C397 1.349 . S
C413 H405 0.950 . S
C413 C411 1.327 . S
C414 C402 1.349 . S
C414 H408 0.950 . S
C414 C415 1.327 . S
C415 H409 0.950 . S
C415 C414 1.327 . S
C415 C419 1.429 . S
C416 C399 1.574 . S
C416 H410 0.949 . S
C416 C420 1.368 . S
C417 C398 1.429 . S
C417 C411 1.429 . S
C417 C418 1.523 . S
C418 C399 1.368 . S
C418 C412 1.368 . S
C418 C417 1.523 . S
C419 C403 1.429 . S
C419 C415 1.429 . S
C419 C420 1.523 . S
C420 C404 1.368 . S
C420 C416 1.368 . S
C420 C419 1.523 . S
H421 C396 0.950 . S
H422 C398 0.950 . S
H423 C399 0.949 . S
H424 C401 0.950 . S
H425 C403 0.950 . S
C426 C427 1.349 . S
C426 C428 1.327 . S
C426 H451 0.950 . S
C427 C426 1.349 . S
C427 C443 1.349 . S
C428 C426 1.327 . S
C428 C447 1.429 . S
C428 H452 0.950 . S
C429 C446 1.574 . S
C429 C448 1.368 . S
C429 H453 0.949 . S
H430 C434 0.949 . S
C431 C432 1.349 . S
C431 C433 1.327 . S
C431 H454 0.950 . S
C432 C431 1.349 . S
C432 C444 1.349 . S
C433 C431 1.327 . S
C433 C449 1.429 . S
C433 H455 0.950 . S
C434 H430 0.949 . S
C434 C442 1.574 . S
C434 C450 1.368 . S
H435 C443 0.950 . S
H436 C441 0.950 . S
H437 C442 0.949 . S
H438 C444 0.950 . S
H439 C445 0.950 . S
H440 C446 0.949 . S
C441 H436 0.950 . S
C441 C443 1.327 . S
C441 C447 1.429 . S
C442 C434 1.574 . S
C442 H437 0.949 . S
C442 C448 1.368 . S
C443 C427 1.349 . S
C443 H435 0.950 . S
C443 C441 1.327 . S
C444 C432 1.349 . S
C444 H438 0.950 . S
C444 C445 1.327 . S
C445 H439 0.950 . S
C445 C444 1.327 . S
C445 C449 1.429 . S
C446 C429 1.574 . S
C446 H440 0.949 . S
C446 C450 1.368 . S
C447 C428 1.429 . S
C447 C441 1.429 . S
C447 C448 1.523 . S
C448 C429 1.368 . S
C448 C442 1.368 . S
C448 C447 1.523 . S
C449 C433 1.429 . S
C449 C445 1.429 . S
C449 C450 1.523 . S
C450 C434 1.368 . S
C450 C446 1.368 . S
C450 C449 1.523 . S
H451 C426 0.950 . S
H452 C428 0.950 . S
H453 C429 0.949 . S
H454 C431 0.950 . S
H455 C433 0.950 . S
C456 C457 1.349 . S
C456 C458 1.327 . S
C456 H481 0.950 . S
C457 C456 1.349 . S
C457 C473 1.349 . S
C458 C456 1.327 . S
C458 C477 1.429 . S
C458 H482 0.950 . S
C459 C476 1.574 . S
C459 C478 1.368 . S
C459 H483 0.949 . S
H460 C464 0.949 . S
C461 C462 1.349 . S
C461 C463 1.327 . S
C461 H484 0.950 . S
C462 C461 1.349 . S
C462 C474 1.349 . S
C463 C461 1.327 . S
C463 C479 1.429 . S
C463 H485 0.950 . S
C464 H460 0.949 . S
C464 C472 1.574 . S
C464 C480 1.368 . S
H465 C473 0.950 . S
H466 C471 0.950 . S
H467 C472 0.949 . S
H468 C474 0.950 . S
H469 C475 0.950 . S
H470 C476 0.949 . S
C471 H466 0.950 . S
C471 C473 1.327 . S
C471 C477 1.429 . S
C472 C464 1.574 . S
C472 H467 0.949 . S
C472 C478 1.368 . S
C473 C457 1.349 . S
C473 H465 0.950 . S
C473 C471 1.327 . S
C474 C462 1.349 . S
C474 H468 0.950 . S
C474 C475 1.327 . S
C475 H469 0.950 . S
C475 C474 1.327 . S
C475 C479 1.429 . S
C476 C459 1.574 . S
C476 H470 0.949 . S
C476 C480 1.368 . S
C477 C458 1.429 . S
C477 C471 1.429 . S
C477 C478 1.523 . S
C478 C459 1.368 . S
C478 C472 1.368 . S
C478 C477 1.523 . S
C479 C463 1.429 . S
C479 C475 1.429 . S
C479 C480 1.523 . S
C480 C464 1.368 . S
C480 C476 1.368 . S
C480 C479 1.523 . S
H481 C456 0.950 . S
H482 C458 0.950 . S
H483 C459 0.949 . S
H484 C461 0.950 . S
H485 C463 0.950 . S
C486 C487 1.349 . S
C486 C488 1.327 . S
C486 H511 0.950 . S
C487 C486 1.349 . S
C487 C503 1.349 . S
C488 C486 1.327 . S
C488 C507 1.429 . S
C488 H512 0.950 . S
C489 C506 1.574 . S
C489 C508 1.368 . S
C489 H513 0.949 . S
H490 C494 0.949 . S
C491 C492 1.349 . S
C491 C493 1.327 . S
C491 H514 0.950 . S
C492 C491 1.349 . S
C492 C504 1.349 . S
C493 C491 1.327 . S
C493 C509 1.429 . S
C493 H515 0.950 . S
C494 H490 0.949 . S
C494 C502 1.574 . S
C494 C510 1.368 . S
H495 C503 0.950 . S
H496 C501 0.950 . S
H497 C502 0.949 . S
H498 C504 0.950 . S
H499 C505 0.950 . S
H500 C506 0.949 . S
C501 H496 0.950 . S
C501 C503 1.327 . S
C501 C507 1.429 . S
C502 C494 1.574 . S
C502 H497 0.949 . S
C502 C508 1.368 . S
C503 C487 1.349 . S
C503 H495 0.950 . S
C503 C501 1.327 . S
C504 C492 1.349 . S
C504 H498 0.950 . S
C504 C505 1.327 . S
C505 H499 0.950 . S
C505 C504 1.327 . S
C505 C509 1.429 . S
C506 C489 1.574 . S
C506 H500 0.949 . S
C506 C510 1.368 . S
C507 C488 1.429 . S
C507 C501 1.429 . S
C507 C508 1.523 . S
C508 C489 1.368 . S
C508 C502 1.368 . S
C508 C507 1.523 . S
C509 C493 1.429 . S
C509 C505 1.429 . S
C509 C510 1.523 . S
C510 C494 1.368 . S
C510 C506 1.368 . S
C510 C509 1.523 . S
H511 C486 0.950 . S
H512 C488 0.950 . S
H513 C489 0.949 . S
H514 C491 0.950 . S
H515 C493 0.950 . S
C516 C517 1.349 . S
C516 C518 1.327 . S
C516 H541 0.950 . S
C517 C516 1.349 . S
C517 C533 1.349 . S
C518 C516 1.327 . S
C518 C537 1.429 . S
C518 H542 0.950 . S
C519 C536 1.574 . S
C519 C538 1.368 . S
C519 H543 0.949 . S
H520 C524 0.949 . S
C521 C522 1.349 . S
C521 C523 1.327 . S
C521 H544 0.950 . S
C522 C521 1.349 . S
C522 C534 1.349 . S
C523 C521 1.327 . S
C523 C539 1.429 1_554 S
C523 H545 0.950 . S
C524 H520 0.949 . S
C524 C532 1.574 . S
C524 C540 1.368 . S
H525 C533 0.950 . S
H526 C531 0.950 . S
H527 C532 0.949 . S
H528 C534 0.950 . S
H529 C535 0.950 1_556 S
H530 C536 0.949 . S
C531 H526 0.950 . S
C531 C533 1.327 . S
C531 C537 1.429 . S
C532 C524 1.574 . S
C532 H527 0.949 . S
C532 C538 1.368 . S
C533 C517 1.349 . S
C533 H525 0.950 . S
C533 C531 1.327 . S
C534 C522 1.349 . S
C534 H528 0.950 . S
C534 C535 1.327 . S
C535 H529 0.950 1_554 S
C535 C534 1.327 . S
C535 C539 1.429 1_554 S
C536 C519 1.574 . S
C536 H530 0.949 . S
C536 C540 1.368 . S
C537 C518 1.429 . S
C537 C531 1.429 . S
C537 C538 1.523 . S
C538 C519 1.368 . S
C538 C532 1.368 . S
C538 C537 1.523 . S
C539 C523 1.429 1_556 S
C539 C535 1.429 1_556 S
C539 C540 1.523 . S
C540 C524 1.368 . S
C540 C536 1.368 . S
C540 C539 1.523 . S
H541 C516 0.950 . S
H542 C518 0.950 . S
H543 C519 0.949 . S
H544 C521 0.950 . S
H545 C523 0.950 . S
C546 C547 1.349 . S
C546 C548 1.327 . S
C546 H571 0.950 . S
C547 C546 1.349 . S
C547 C563 1.349 . S
C548 C546 1.327 . S
C548 C567 1.429 1_556 S
C548 H572 0.950 1_556 S
C549 C566 1.574 . S
C549 C568 1.368 . S
C549 H573 0.949 . S
H550 C554 0.949 . S
C551 C552 1.349 . S
C551 C553 1.327 . S
C551 H574 0.950 . S
C552 C551 1.349 . S
C552 C564 1.349 . S
C553 C551 1.327 . S
C553 C569 1.429 . S
C553 H575 0.950 . S
C554 H550 0.949 . S
C554 C562 1.574 . S
C554 C570 1.368 . S
H555 C563 0.950 . S
H556 C561 0.950 . S
H557 C562 0.949 . S
H558 C564 0.950 . S
H559 C565 0.950 . S
H560 C566 0.949 . S
C561 H556 0.950 . S
C561 C563 1.327 . S
C561 C567 1.429 1_556 S
C562 C554 1.574 . S
C562 H557 0.949 . S
C562 C568 1.368 . S
C563 C547 1.349 . S
C563 H555 0.950 . S
C563 C561 1.327 . S
C564 C552 1.349 . S
C564 H558 0.950 . S
C564 C565 1.327 . S
C565 H559 0.950 . S
C565 C564 1.327 . S
C565 C569 1.429 . S
C566 C549 1.574 . S
C566 H560 0.949 . S
C566 C570 1.368 . S
C567 C548 1.429 1_554 S
C567 C561 1.429 1_554 S
C567 C568 1.523 . S
C568 C549 1.368 . S
C568 C562 1.368 . S
C568 C567 1.523 . S
C569 C553 1.429 . S
C569 C565 1.429 . S
C569 C570 1.523 . S
C570 C554 1.368 . S
C570 C566 1.368 . S
C570 C569 1.523 . S
H571 C546 0.950 . S
H572 C548 0.950 1_554 S
H573 C549 0.949 . S
H574 C551 0.950 . S
H575 C553 0.950 . S
C576 C577 1.349 . S
C576 C578 1.327 . S
C576 H601 0.950 . S
C577 C576 1.349 . S
C577 C593 1.349 . S
C578 C576 1.327 . S
C578 C597 1.429 . S
C578 H602 0.950 . S
C579 C596 1.574 . S
C579 C598 1.368 . S
C579 H603 0.949 . S
H580 C584 0.949 . S
C581 C582 1.349 . S
C581 C583 1.327 . S
C581 H604 0.950 . S
C582 C581 1.349 . S
C582 C594 1.349 . S
C583 C581 1.327 . S
C583 C599 1.429 . S
C583 H605 0.950 . S
C584 H580 0.949 . S
C584 C592 1.574 . S
C584 C600 1.368 . S
H585 C593 0.950 . S
H586 C591 0.950 . S
H587 C592 0.949 . S
H588 C594 0.950 . S
H589 C595 0.950 . S
H590 C596 0.949 . S
C591 H586 0.950 . S
C591 C593 1.327 . S
C591 C597 1.429 . S
C592 C584 1.574 . S
C592 H587 0.949 . S
C592 C598 1.368 . S
C593 C577 1.349 . S
C593 H585 0.950 . S
C593 C591 1.327 . S
C594 C582 1.349 . S
C594 H588 0.950 . S
C594 C595 1.327 . S
C595 H589 0.950 . S
C595 C594 1.327 . S
C595 C599 1.429 . S
C596 C579 1.574 . S
C596 H590 0.949 . S
C596 C600 1.368 . S
C597 C578 1.429 . S
C597 C591 1.429 . S
C597 C598 1.523 . S
C598 C579 1.368 . S
C598 C592 1.368 . S
C598 C597 1.523 . S
C599 C583 1.429 . S
C599 C595 1.429 . S
C599 C600 1.523 . S
C600 C584 1.368 . S
C600 C596 1.368 . S
C600 C599 1.523 . S
H601 C576 0.950 . S
H602 C578 0.950 . S
H603 C579 0.949 . S
H604 C581 0.950 . S
H605 C583 0.950 . S
C606 C607 1.349 . S
C606 C608 1.327 . S
C606 H631 0.950 . S
C607 C606 1.349 . S
C607 C623 1.349 1_556 S
C608 C606 1.327 . S
C608 C627 1.429 1_556 S
C608 H632 0.950 . S
C609 C626 1.574 . S
C609 C628 1.368 . S
C609 H633 0.949 . S
H610 C614 0.952 . S
C611 C612 1.349 . S
C611 C613 1.327 1_655 S
C611 H634 0.950 . S
C612 C611 1.349 . S
C612 C624 1.349 . S
C613 C611 1.327 1_455 S
C613 C629 1.429 . S
C613 H635 0.950 . S
C614 H610 0.952 . S
C614 C622 1.574 . S
C614 C630 1.368 . S
H615 C623 0.950 . S
H616 C621 0.950 . S
H617 C622 0.949 1_556 S
H618 C624 0.950 . S
H619 C625 0.960 . S
H620 C626 0.949 . S
C621 H616 0.950 . S
C621 C623 1.327 . S
C621 C627 1.429 . S
C622 C614 1.574 . S
C622 H617 0.949 1_554 S
C622 C628 1.368 . S
C623 C607 1.349 1_554 S
C623 H615 0.950 . S
C623 C621 1.327 . S
C624 C612 1.349 . S
C624 H618 0.950 . S
C624 C625 1.327 . S
C625 H619 0.960 . S
C625 C624 1.327 . S
C625 C629 1.429 1_655 S
C626 C609 1.574 . S
C626 H620 0.949 . S
C626 C630 1.368 . S
C627 C608 1.429 1_554 S
C627 C621 1.429 . S
C627 C628 1.523 . S
C628 C609 1.368 . S
C628 C622 1.368 . S
C628 C627 1.523 . S
C629 C613 1.429 . S
C629 C625 1.429 1_455 S
C629 C630 1.523 . S
C630 C614 1.368 . S
C630 C626 1.368 . S
C630 C629 1.523 . S
H631 C606 0.950 . S
H632 C608 0.950 . S
H633 C609 0.949 . S
H634 C611 0.950 . S
H635 C613 0.950 . S
C636 C637 1.349 . S
C636 C638 1.327 . S
C636 H661 0.950 . S
C637 C636 1.349 . S
C637 C653 1.349 . S
C638 C636 1.327 . S
C638 C657 1.429 . S
C638 H662 0.950 . S
C639 C656 1.574 . S
C639 C658 1.368 . S
C639 H663 0.949 . S
H640 C644 0.949 . S
C641 C642 1.349 . S
C641 C643 1.327 . S
C641 H664 0.950 . S
C642 C641 1.349 . S
C642 C654 1.349 . S
C643 C641 1.327 . S
C643 C659 1.429 1_565 S
C643 H665 0.950 . S
C644 H640 0.949 . S
C644 C652 1.574 . S
C644 C660 1.368 . S
H645 C653 0.950 . S
H646 C651 0.950 . S
H647 C652 0.949 . S
H648 C654 0.950 . S
H649 C655 0.950 . S
H650 C656 0.949 . S
C651 H646 0.950 . S
C651 C653 1.327 . S
C651 C657 1.429 . S
C652 C644 1.574 . S
C652 H647 0.949 . S
C652 C658 1.368 . S
C653 C637 1.349 . S
C653 H645 0.950 . S
C653 C651 1.327 . S
C654 C642 1.349 . S
C654 H648 0.950 . S
C654 C655 1.327 1_565 S
C655 H649 0.950 . S
C655 C654 1.327 1_545 S
C655 C659 1.429 . S
C656 C639 1.574 . S
C656 H650 0.949 . S
C656 C660 1.368 . S
C657 C638 1.429 . S
C657 C651 1.429 . S
C657 C658 1.523 . S
C658 C639 1.368 . S
C658 C652 1.368 . S
C658 C657 1.523 . S
C659 C643 1.429 1_545 S
C659 C655 1.429 . S
C659 C660 1.523 . S
C660 C644 1.368 . S
C660 C656 1.368 . S
C660 C659 1.523 . S
H661 C636 0.950 . S
H662 C638 0.950 . S
H663 C639 0.949 . S
H664 C641 0.950 . S
H665 C643 0.950 . S
C666 C667 1.349 . S
C666 C668 1.327 . S
C666 H691 0.950 . S
C667 C666 1.349 . S
C667 C683 1.349 . S
C668 C666 1.327 . S
C668 C687 1.429 . S
C668 H692 0.950 . S
C669 C686 1.574 . S
C669 C688 1.368 . S
C669 H693 0.949 . S
H670 C674 0.949 . S
C671 C672 1.349 . S
C671 C673 1.327 . S
C671 H694 0.950 . S
C672 C671 1.349 . S
C672 C684 1.349 . S
C673 C671 1.327 . S
C673 C689 1.429 . S
C673 H695 0.950 . S
C674 H670 0.949 . S
C674 C682 1.574 . S
C674 C690 1.368 . S
H675 C683 0.950 . S
H676 C681 0.950 . S
H677 C682 0.949 . S
H678 C684 0.950 . S
H679 C685 0.950 . S
H680 C686 0.949 . S
C681 H676 0.950 . S
C681 C683 1.327 . S
C681 C687 1.429 . S
C682 C674 1.574 . S
C682 H677 0.949 . S
C682 C688 1.368 . S
C683 C667 1.349 . S
C683 H675 0.950 . S
C683 C681 1.327 . S
C684 C672 1.349 . S
C684 H678 0.950 . S
C684 C685 1.327 . S
C685 H679 0.950 . S
C685 C684 1.327 . S
C685 C689 1.429 . S
C686 C669 1.574 . S
C686 H680 0.949 . S
C686 C690 1.368 . S
C687 C668 1.429 . S
C687 C681 1.429 . S
C687 C688 1.523 . S
C688 C669 1.368 . S
C688 C682 1.368 . S
C688 C687 1.523 . S
C689 C673 1.429 . S
C689 C685 1.429 . S
C689 C690 1.523 . S
C690 C674 1.368 . S
C690 C686 1.368 . S
C690 C689 1.523 . S
H691 C666 0.950 . S
H692 C668 0.950 . S
H693 C669 0.949 . S
H694 C671 0.950 . S
H695 C673 0.950 . S
C696 C697 1.349 . S
C696 C698 1.327 . S
C696 H721 0.950 . S
C697 C696 1.349 . S
C697 C713 1.349 . S
C698 C696 1.327 . S
C698 C717 1.429 1_455 S
C698 H722 0.950 1_455 S
C699 C716 1.574 . S
C699 C718 1.368 . S
C699 H723 0.949 . S
H700 C704 0.949 . S
C701 C702 1.349 . S
C701 C703 1.327 . S
C701 H724 0.950 . S
C702 C701 1.349 . S
C702 C714 1.349 . S
C703 C701 1.327 . S
C703 C719 1.429 . S
C703 H725 0.950 . S
C704 H700 0.949 . S
C704 C712 1.574 . S
C704 C720 1.368 . S
H705 C713 0.950 . S
H706 C711 0.950 . S
H707 C712 0.949 . S
H708 C714 0.950 . S
H709 C715 0.950 . S
H710 C716 0.949 . S
C711 H706 0.950 . S
C711 C713 1.327 1_655 S
C711 C717 1.429 . S
C712 C704 1.574 . S
C712 H707 0.949 . S
C712 C718 1.368 . S
C713 C697 1.349 . S
C713 H705 0.950 . S
C713 C711 1.327 1_455 S
C714 C702 1.349 . S
C714 H708 0.950 . S
C714 C715 1.327 . S
C715 H709 0.950 . S
C715 C714 1.327 . S
C715 C719 1.429 . S
C716 C699 1.574 . S
C716 H710 0.949 . S
C716 C720 1.368 . S
C717 C698 1.429 1_655 S
C717 C711 1.429 . S
C717 C718 1.523 . S
C718 C699 1.368 . S
C718 C712 1.368 . S
C718 C717 1.523 . S
C719 C703 1.429 . S
C719 C715 1.429 . S
C719 C720 1.523 . S
C720 C704 1.368 . S
C720 C716 1.368 . S
C720 C719 1.523 . S
H721 C696 0.950 . S
H722 C698 0.950 1_655 S
H723 C699 0.949 . S
H724 C701 0.950 . S
H725 C703 0.950 . S
C726 C727 1.349 . S
C726 C728 1.308 1_545 S
C726 H751 0.950 . S
C727 C726 1.349 . S
C727 C743 1.349 . S
C728 C726 1.308 1_565 S
C728 C747 1.433 . S
C728 H752 0.966 . S
C729 C746 1.574 . S
C729 C748 1.368 . S
C729 H753 0.949 . S
H730 C734 0.949 . S
C731 C732 1.349 . S
C731 C733 1.327 . S
C731 H754 0.950 . S
C732 C731 1.349 . S
C732 C744 1.349 . S
C733 C731 1.327 . S
C733 C749 1.429 . S
C733 H755 0.950 . S
C734 H730 0.949 . S
C734 C742 1.574 . S
C734 C750 1.368 . S
H735 C743 0.950 . S
H736 C741 0.950 . S
H737 C742 0.949 . S
H738 C744 0.950 . S
H739 C745 0.950 . S
H740 C746 0.949 . S
C741 H736 0.950 . S
C741 C743 1.327 1_565 S
C741 C747 1.429 . S
C742 C734 1.574 . S
C742 H737 0.949 . S
C742 C748 1.368 . S
C743 C727 1.349 . S
C743 H735 0.950 . S
C743 C741 1.327 1_545 S
C744 C732 1.349 . S
C744 H738 0.950 . S
C744 C745 1.327 . S
C745 H739 0.950 . S
C745 C744 1.327 . S
C745 C749 1.429 . S
C746 C729 1.574 . S
C746 H740 0.949 . S
C746 C750 1.368 . S
C747 C728 1.433 . S
C747 C741 1.429 . S
C747 C748 1.523 . S
C748 C729 1.368 . S
C748 C742 1.368 . S
C748 C747 1.523 . S
C749 C733 1.429 . S
C749 C745 1.429 . S
C749 C750 1.523 . S
C750 C734 1.368 . S
C750 C746 1.368 . S
C750 C749 1.523 . S
H751 C726 0.950 . S
H752 C728 0.966 . S
H753 C729 0.949 . S
H754 C731 0.950 . S
H755 C733 0.950 . S
C756 C757 1.349 . S
C756 C758 1.327 . S
C756 H781 0.950 . S
C757 C756 1.349 . S
C757 C773 1.349 1_554 S
C758 C756 1.327 . S
C758 C777 1.429 1_554 S
C758 H782 0.950 . S
C759 C776 1.574 . S
C759 C778 1.368 . S
C759 H783 0.949 . S
H760 C764 0.949 . S
C761 C762 1.349 . S
C761 C763 1.327 . S
C761 H784 0.950 . S
C762 C761 1.349 . S
C762 C774 1.349 . S
C763 C761 1.327 . S
C763 C779 1.429 . S
C763 H785 0.950 . S
C764 H760 0.949 . S
C764 C772 1.574 . S
C764 C780 1.368 . S
H765 C773 0.950 . S
H766 C771 0.950 . S
H767 C772 0.949 1_554 S
H768 C774 0.950 . S
H769 C775 0.950 . S
H770 C776 0.949 . S
C771 H766 0.950 . S
C771 C773 1.327 . S
C771 C777 1.429 . S
C772 C764 1.574 . S
C772 H767 0.949 1_556 S
C772 C778 1.368 . S
C773 C757 1.349 1_556 S
C773 H765 0.950 . S
C773 C771 1.327 . S
C774 C762 1.349 . S
C774 H768 0.950 . S
C774 C775 1.327 . S
C775 H769 0.950 . S
C775 C774 1.327 . S
C775 C779 1.429 . S
C776 C759 1.574 . S
C776 H770 0.949 . S
C776 C780 1.368 . S
C777 C758 1.429 1_556 S
C777 C771 1.429 . S
C777 C778 1.523 . S
C778 C759 1.368 . S
C778 C772 1.368 . S
C778 C777 1.523 . S
C779 C763 1.429 . S
C779 C775 1.429 . S
C779 C780 1.523 . S
C780 C764 1.368 . S
C780 C776 1.368 . S
C780 C779 1.523 . S
H781 C756 0.950 . S
H782 C758 0.950 . S
H783 C759 0.949 . S
H784 C761 0.950 . S
H785 C763 0.950 . S
C786 C787 1.349 . S
C786 C788 1.327 . S
C786 H811 0.950 . S
C787 C786 1.349 . S
C787 C803 1.349 . S
C788 C786 1.327 . S
C788 C807 1.429 1_655 S
C788 H812 0.950 1_655 S
C789 C806 1.574 . S
C789 C808 1.368 . S
C789 H813 0.949 . S
H790 C794 0.949 . S
C791 C792 1.349 . S
C791 C793 1.327 . S
C791 H814 0.950 . S
C792 C791 1.349 . S
C792 C804 1.349 . S
C793 C791 1.327 . S
C793 C809 1.429 . S
C793 H815 0.950 . S
C794 H790 0.949 . S
C794 C802 1.574 . S
C794 C810 1.368 . S
H795 C803 0.950 . S
H796 C801 0.950 . S
H797 C802 0.949 . S
H798 C804 0.950 . S
H799 C805 0.950 . S
H800 C806 0.949 . S
C801 H796 0.950 . S
C801 C803 1.327 1_455 S
C801 C807 1.429 . S
C802 C794 1.574 . S
C802 H797 0.949 . S
C802 C808 1.368 . S
C803 C787 1.349 . S
C803 H795 0.950 . S
C803 C801 1.327 1_655 S
C804 C792 1.349 . S
C804 H798 0.950 . S
C804 C805 1.327 . S
C805 H799 0.950 . S
C805 C804 1.327 . S
C805 C809 1.429 . S
C806 C789 1.574 . S
C806 H800 0.949 . S
C806 C810 1.368 . S
C807 C788 1.429 1_455 S
C807 C801 1.429 . S
C807 C808 1.523 . S
C808 C789 1.368 . S
C808 C802 1.368 . S
C808 C807 1.523 . S
C809 C793 1.429 . S
C809 C805 1.429 . S
C809 C810 1.523 . S
C810 C794 1.368 . S
C810 C806 1.368 . S
C810 C809 1.523 . S
H811 C786 0.950 . S
H812 C788 0.950 1_455 S
H813 C789 0.949 . S
H814 C791 0.950 . S
H815 C793 0.950 . S
C816 C817 1.349 . S
C816 C818 1.327 . S
C816 H841 0.950 . S
C817 C816 1.349 . S
C817 C833 1.349 . S
C818 C816 1.327 . S
C818 C837 1.429 1_565 S
C818 H842 0.950 1_565 S
C819 C836 1.574 . S
C819 C838 1.368 . S
C819 H843 0.949 . S
H820 C824 0.949 . S
C821 C822 1.349 . S
C821 C823 1.327 . S
C821 H844 0.950 . S
C822 C821 1.349 . S
C822 C834 1.349 . S
C823 C821 1.327 . S
C823 C839 1.429 . S
C823 H845 0.950 . S
C824 H820 0.949 . S
C824 C832 1.574 . S
C824 C840 1.368 . S
H825 C833 0.950 . S
H826 C831 0.950 . S
H827 C832 0.949 . S
H828 C834 0.950 . S
H829 C835 0.950 . S
H830 C836 0.949 . S
C831 H826 0.950 . S
C831 C833 1.327 1_545 S
C831 C837 1.429 . S
C832 C824 1.574 . S
C832 H827 0.949 . S
C832 C838 1.368 . S
C833 C817 1.349 . S
C833 H825 0.950 . S
C833 C831 1.327 1_565 S
C834 C822 1.349 . S
C834 H828 0.950 . S
C834 C835 1.327 . S
C835 H829 0.950 . S
C835 C834 1.327 . S
C835 C839 1.429 . S
C836 C819 1.574 . S
C836 H830 0.949 . S
C836 C840 1.368 . S
C837 C818 1.429 1_545 S
C837 C831 1.429 . S
C837 C838 1.523 . S
C838 C819 1.368 . S
C838 C832 1.368 . S
C838 C837 1.523 . S
C839 C823 1.429 . S
C839 C835 1.429 . S
C839 C840 1.523 . S
C840 C824 1.368 . S
C840 C836 1.368 . S
C840 C839 1.523 . S
H841 C816 0.950 . S
H842 C818 0.950 1_545 S
H843 C819 0.949 . S
H844 C821 0.950 . S
H845 C823 0.950 . S
C846 C847 1.349 . S
C846 C848 1.327 . S
C846 H871 0.950 . S
C847 C846 1.349 . S
C847 C863 1.349 . S
C848 C846 1.327 . S
C848 C867 1.429 . S
C848 H872 0.950 . S
C849 C866 1.574 . S
C849 C868 1.368 . S
C849 H873 0.949 . S
H850 C854 0.949 . S
C851 C852 1.349 . S
C851 C853 1.327 . S
C851 H874 0.950 . S
C852 C851 1.349 . S
C852 C864 1.349 . S
C853 C851 1.327 . S
C853 C869 1.429 . S
C853 H875 0.950 . S
C854 H850 0.949 . S
C854 C862 1.574 . S
C854 C870 1.368 . S
H855 C863 0.950 . S
H856 C861 0.950 . S
H857 C862 0.949 . S
H858 C864 0.950 . S
H859 C865 0.950 . S
H860 C866 0.949 . S
C861 H856 0.950 . S
C861 C863 1.327 . S
C861 C867 1.429 . S
C862 C854 1.574 . S
C862 H857 0.949 . S
C862 C868 1.368 . S
C863 C847 1.349 . S
C863 H855 0.950 . S
C863 C861 1.327 . S
C864 C852 1.349 . S
C864 H858 0.950 . S
C864 C865 1.327 . S
C865 H859 0.950 . S
C865 C864 1.327 . S
C865 C869 1.429 . S
C866 C849 1.574 . S
C866 H860 0.949 . S
C866 C870 1.368 . S
C867 C848 1.429 . S
C867 C861 1.429 . S
C867 C868 1.523 . S
C868 C849 1.368 . S
C868 C862 1.368 . S
C868 C867 1.523 . S
C869 C853 1.429 . S
C869 C865 1.429 . S
C869 C870 1.523 . S
C870 C854 1.368 . S
C870 C866 1.368 . S
C870 C869 1.523 . S
H871 C846 0.950 . S
H872 C848 0.950 . S
H873 C849 0.949 . S
H874 C851 0.950 . S
H875 C853 0.950 . S
C876 C877 1.349 . S
C876 C878 1.327 1_455 S
C876 H901 0.950 . S
C877 C876 1.349 . S
C877 C893 1.349 . S
C878 C876 1.327 1_655 S
C878 C897 1.429 . S
C878 H902 0.950 . S
C879 C896 1.574 . S
C879 C898 1.368 . S
C879 H903 0.949 . S
H880 C884 0.949 . S
C881 C882 1.349 . S
C881 C883 1.327 . S
C881 H904 0.950 . S
C882 C881 1.349 . S
C882 C894 1.349 . S
C883 C881 1.327 . S
C883 C899 1.429 . S
C883 H905 0.950 . S
C884 H880 0.949 . S
C884 C892 1.574 . S
C884 C900 1.368 . S
H885 C893 0.950 . S
H886 C891 0.950 . S
H887 C892 0.949 . S
H888 C894 0.950 . S
H889 C895 0.950 . S
H890 C896 0.949 . S
C891 H886 0.950 . S
C891 C893 1.327 1_655 S
C891 C897 1.429 . S
C892 C884 1.574 . S
C892 H887 0.949 . S
C892 C898 1.368 . S
C893 C877 1.349 . S
C893 H885 0.950 . S
C893 C891 1.327 1_455 S
C894 C882 1.349 . S
C894 H888 0.950 . S
C894 C895 1.327 . S
C895 H889 0.950 . S
C895 C894 1.327 . S
C895 C899 1.429 . S
C896 C879 1.574 . S
C896 H890 0.949 . S
C896 C900 1.368 . S
C897 C878 1.429 . S
C897 C891 1.429 . S
C897 C898 1.523 . S
C898 C879 1.368 . S
C898 C892 1.368 . S
C898 C897 1.523 . S
C899 C883 1.429 . S
C899 C895 1.429 . S
C899 C900 1.523 . S
C900 C884 1.368 . S
C900 C896 1.368 . S
C900 C899 1.523 . S
H901 C876 0.950 . S
H902 C878 0.950 . S
H903 C879 0.949 . S
H904 C881 0.950 . S
H905 C883 0.950 . S
C906 C907 1.349 . S
C906 C908 1.327 1_545 S
C906 H931 0.950 . S
C907 C906 1.349 . S
C907 C923 1.349 . S
C908 C906 1.327 1_565 S
C908 C927 1.429 . S
C908 H932 0.950 . S
C909 C926 1.574 . S
C909 C928 1.368 . S
C909 H933 0.949 . S
H910 C914 0.949 . S
C911 C912 1.349 . S
C911 C913 1.327 . S
C911 H934 0.950 . S
C912 C911 1.349 . S
C912 C924 1.349 . S
C913 C911 1.327 . S
C913 C929 1.429 . S
C913 H935 0.950 . S
C914 H910 0.949 . S
C914 C922 1.574 . S
C914 C930 1.368 . S
H915 C923 0.950 . S
H916 C921 0.951 . S
H917 C922 0.949 . S
H918 C924 0.950 . S
H919 C925 0.950 . S
H920 C926 0.949 . S
C921 H916 0.951 . S
C921 C923 1.327 . S
C921 C927 1.429 1_545 S
C922 C914 1.574 . S
C922 H917 0.949 . S
C922 C928 1.368 . S
C923 C907 1.349 . S
C923 H915 0.950 . S
C923 C921 1.327 . S
C924 C912 1.349 . S
C924 H918 0.950 . S
C924 C925 1.327 . S
C925 H919 0.950 . S
C925 C924 1.327 . S
C925 C929 1.429 . S
C926 C909 1.574 . S
C926 H920 0.949 . S
C926 C930 1.368 . S
C927 C908 1.429 . S
C927 C921 1.429 1_565 S
C927 C928 1.523 . S
C928 C909 1.368 . S
C928 C922 1.368 . S
C928 C927 1.523 . S
C929 C913 1.429 . S
C929 C925 1.429 . S
C929 C930 1.523 . S
C930 C914 1.368 . S
C930 C926 1.368 . S
C930 C929 1.523 . S
H931 C906 0.950 . S
H932 C908 0.950 . S
H933 C909 0.949 . S
H934 C911 0.950 . S
H935 C913 0.950 . S
C936 C937 1.349 . S
C936 C938 1.327 . S
C936 H961 0.950 . S
C937 C936 1.349 . S
C937 C953 1.349 . S
C938 C936 1.327 . S
C938 C957 1.429 . S
C938 H962 0.950 . S
C939 C956 1.574 . S
C939 C958 1.368 . S
C939 H963 0.949 . S
H940 C944 0.949 . S
C941 C942 1.349 . S
C941 C943 1.327 . S
C941 H964 0.950 . S
C942 C941 1.349 . S
C942 C954 1.349 . S
C943 C941 1.327 . S
C943 C959 1.429 . S
C943 H965 0.950 . S
C944 H940 0.949 . S
C944 C952 1.574 . S
C944 C960 1.368 . S
H945 C953 0.950 . S
H946 C951 0.950 . S
H947 C952 0.949 . S
H948 C954 0.950 . S
H949 C955 0.950 . S
H950 C956 0.949 . S
C951 H946 0.950 . S
C951 C953 1.327 . S
C951 C957 1.429 . S
C952 C944 1.574 . S
C952 H947 0.949 . S
C952 C958 1.368 . S
C953 C937 1.349 . S
C953 H945 0.950 . S
C953 C951 1.327 . S
C954 C942 1.349 . S
C954 H948 0.950 . S
C954 C955 1.327 . S
C955 H949 0.950 . S
C955 C954 1.327 . S
C955 C959 1.429 . S
C956 C939 1.574 . S
C956 H950 0.949 . S
C956 C960 1.368 . S
C957 C938 1.429 . S
C957 C951 1.429 . S
C957 C958 1.523 . S
C958 C939 1.368 . S
C958 C952 1.368 . S
C958 C957 1.523 . S
C959 C943 1.429 . S
C959 C955 1.429 . S
C959 C960 1.523 . S
C960 C944 1.368 . S
C960 C956 1.368 . S
C960 C959 1.523 . S
H961 C936 0.950 . S
H962 C938 0.950 . S
H963 C939 0.949 . S
H964 C941 0.950 . S
H965 C943 0.950 . S
C966 C967 1.349 . S
C966 C968 1.327 . S
C966 H991 0.950 . S
C967 C966 1.349 . S
C967 C983 1.349 . S
C968 C966 1.327 . S
C968 C987 1.429 . S
C968 H992 0.950 . S
C969 C986 1.574 1_655 S
C969 C988 1.368 . S
C969 H993 0.949 . S
H970 C974 0.949 . S
C971 C972 1.349 . S
C971 C973 1.327 . S
C971 H994 0.950 . S
C972 C971 1.349 . S
C972 C984 1.349 . S
C973 C971 1.327 . S
C973 C989 1.429 . S
C973 H995 0.950 . S
C974 H970 0.949 . S
C974 C982 1.574 1_455 S
C974 C990 1.368 . S
H975 C983 0.950 . S
H976 C981 0.950 . S
H977 C982 0.949 . S
H978 C984 0.950 . S
H979 C985 0.950 . S
H980 C986 0.949 . S
C981 H976 0.950 . S
C981 C983 1.327 . S
C981 C987 1.429 . S
C982 C974 1.574 1_655 S
C982 H977 0.949 . S
C982 C988 1.368 . S
C983 C967 1.349 . S
C983 H975 0.950 . S
C983 C981 1.327 . S
C984 C972 1.349 . S
C984 H978 0.950 . S
C984 C985 1.327 . S
C985 H979 0.950 . S
C985 C984 1.327 . S
C985 C989 1.429 . S
C986 C969 1.574 1_455 S
C986 H980 0.949 . S
C986 C990 1.368 . S
C987 C968 1.429 . S
C987 C981 1.429 . S
C987 C988 1.523 . S
C988 C969 1.368 . S
C988 C982 1.368 . S
C988 C987 1.523 . S
C989 C973 1.429 . S
C989 C985 1.429 . S
C989 C990 1.523 . S
C990 C974 1.368 . S
C990 C986 1.368 . S
C990 C989 1.523 . S
H991 C966 0.950 . S
H992 C968 0.950 . S
H993 C969 0.949 . S
H994 C971 0.950 . S
H995 C973 0.950 . S
C996 C997 1.349 . S
C996 C998 1.327 . S
C996 H1021 0.950 . S
C997 C996 1.349 . S
C997 C1013 1.349 . S
C998 C996 1.327 . S
C998 C1017 1.429 . S
C998 H1022 0.950 . S
C999 C1016 1.574 1_565 S
C999 C1018 1.368 . S
C999 H1023 0.949 . S
H1000 C1004 0.949 . S
C1001 C1002 1.349 . S
C1001 C1003 1.327 . S
C1001 H1024 0.950 . S
C1002 C1001 1.349 . S
C1002 C1014 1.349 . S
C1003 C1001 1.327 . S
C1003 C1019 1.429 . S
C1003 H1025 0.950 . S
C1004 H1000 0.949 . S
C1004 C1012 1.574 1_545 S
C1004 C1020 1.368 . S
H1005 C1013 0.950 . S
H1006 C1011 0.950 . S
H1007 C1012 0.949 . S
H1008 C1014 0.950 . S
H1009 C1015 0.950 . S
H1010 C1016 0.949 . S
C1011 H1006 0.950 . S
C1011 C1013 1.327 . S
C1011 C1017 1.429 . S
C1012 C1004 1.574 1_565 S
C1012 H1007 0.949 . S
C1012 C1018 1.368 . S
C1013 C997 1.349 . S
C1013 H1005 0.950 . S
C1013 C1011 1.327 . S
C1014 C1002 1.349 . S
C1014 H1008 0.950 . S
C1014 C1015 1.327 . S
C1015 H1009 0.950 . S
C1015 C1014 1.327 . S
C1015 C1019 1.429 . S
C1016 C999 1.574 1_545 S
C1016 H1010 0.949 . S
C1016 C1020 1.368 . S
C1017 C998 1.429 . S
C1017 C1011 1.429 . S
C1017 C1018 1.523 . S
C1018 C999 1.368 . S
C1018 C1012 1.368 . S
C1018 C1017 1.523 . S
C1019 C1003 1.429 . S
C1019 C1015 1.429 . S
C1019 C1020 1.523 . S
C1020 C1004 1.368 . S
C1020 C1016 1.368 . S
C1020 C1019 1.523 . S
H1021 C996 0.950 . S
H1022 C998 0.950 . S
H1023 C999 0.949 . S
H1024 C1001 0.950 . S
H1025 C1003 0.950 . S
C1026 C1027 1.349 . S
C1026 C1028 1.327 . S
C1026 H1051 0.950 . S
C1027 C1026 1.349 . S
C1027 C1043 1.349 . S
C1028 C1026 1.327 . S
C1028 C1047 1.429 . S
C1028 H1052 0.950 . S
C1029 C1046 1.574 . S
C1029 C1048 1.368 . S
C1029 H1053 0.949 . S
H1030 C1034 0.949 . S
C1031 C1032 1.349 . S
C1031 C1033 1.327 . S
C1031 H1054 0.950 . S
C1032 C1031 1.349 . S
C1032 C1044 1.349 . S
C1033 C1031 1.327 . S
C1033 C1049 1.429 . S
C1033 H1055 0.950 . S
C1034 H1030 0.949 . S
C1034 C1042 1.574 . S
C1034 C1050 1.368 . S
H1035 C1043 0.950 . S
H1036 C1041 0.950 . S
H1037 C1042 0.949 . S
H1038 C1044 0.950 . S
H1039 C1045 0.950 . S
H1040 C1046 0.949 . S
C1041 H1036 0.950 . S
C1041 C1043 1.327 . S
C1041 C1047 1.429 . S
C1042 C1034 1.574 . S
C1042 H1037 0.949 . S
C1042 C1048 1.368 . S
C1043 C1027 1.349 . S
C1043 H1035 0.950 . S
C1043 C1041 1.327 . S
C1044 C1032 1.349 . S
C1044 H1038 0.950 . S
C1044 C1045 1.327 . S
C1045 H1039 0.950 . S
C1045 C1044 1.327 . S
C1045 C1049 1.429 . S
C1046 C1029 1.574 . S
C1046 H1040 0.949 . S
C1046 C1050 1.368 . S
C1047 C1028 1.429 . S
C1047 C1041 1.429 . S
C1047 C1048 1.523 . S
C1048 C1029 1.368 . S
C1048 C1042 1.368 . S
C1048 C1047 1.523 . S
C1049 C1033 1.429 . S
C1049 C1045 1.429 . S
C1049 C1050 1.523 . S
C1050 C1034 1.368 . S
C1050 C1046 1.368 . S
C1050 C1049 1.523 . S
H1051 C1026 0.950 . S
H1052 C1028 0.950 . S
H1053 C1029 0.949 . S
H1054 C1031 0.950 . S
H1055 C1033 0.950 . S
C1056 C1057 1.349 . S
C1056 C1058 1.327 . S
C1056 H1081 0.950 . S
C1057 C1056 1.349 . S
C1057 C1073 1.349 . S
C1058 C1056 1.327 . S
C1058 C1077 1.429 . S
C1058 H1082 0.950 . S
C1059 C1076 1.574 . S
C1059 C1078 1.368 . S
C1059 H1083 0.949 . S
H1060 C1064 0.949 . S
C1061 C1062 1.349 . S
C1061 C1063 1.327 . S
C1061 H1084 0.950 . S
C1062 C1061 1.349 . S
C1062 C1074 1.349 . S
C1063 C1061 1.327 . S
C1063 C1079 1.429 . S
C1063 H1085 0.950 . S
C1064 H1060 0.949 . S
C1064 C1072 1.574 . S
C1064 C1080 1.368 . S
H1065 C1073 0.950 . S
H1066 C1071 0.950 . S
H1067 C1072 0.949 . S
H1068 C1074 0.950 . S
H1069 C1075 0.950 . S
H1070 C1076 0.949 . S
C1071 H1066 0.950 . S
C1071 C1073 1.327 . S
C1071 C1077 1.429 . S
C1072 C1064 1.574 . S
C1072 H1067 0.949 . S
C1072 C1078 1.368 1_655 S
C1073 C1057 1.349 . S
C1073 H1065 0.950 . S
C1073 C1071 1.327 . S
C1074 C1062 1.349 . S
C1074 H1068 0.950 . S
C1074 C1075 1.327 . S
C1075 H1069 0.950 . S
C1075 C1074 1.327 . S
C1075 C1079 1.429 . S
C1076 C1059 1.574 . S
C1076 H1070 0.949 . S
C1076 C1080 1.368 1_455 S
C1077 C1058 1.429 . S
C1077 C1071 1.429 . S
C1077 C1078 1.523 . S
C1078 C1059 1.368 . S
C1078 C1072 1.368 1_455 S
C1078 C1077 1.523 . S
C1079 C1063 1.429 . S
C1079 C1075 1.429 . S
C1079 C1080 1.523 . S
C1080 C1064 1.368 . S
C1080 C1076 1.368 1_655 S
C1080 C1079 1.523 . S
H1081 C1056 0.950 . S
H1082 C1058 0.950 . S
H1083 C1059 0.949 . S
H1084 C1061 0.950 . S
H1085 C1063 0.950 . S
C1086 C1087 1.349 . S
C1086 C1088 1.327 . S
C1086 H1111 0.950 . S
C1087 C1086 1.349 . S
C1087 C1103 1.349 . S
C1088 C1086 1.327 . S
C1088 C1107 1.429 . S
C1088 H1112 0.950 . S
C1089 C1106 1.574 . S
C1089 C1108 1.368 1_545 S
C1089 H1113 0.949 . S
H1090 C1094 0.949 . S
C1091 C1092 1.349 . S
C1091 C1093 1.327 . S
C1091 H1114 0.950 . S
C1092 C1091 1.349 . S
C1092 C1104 1.349 . S
C1093 C1091 1.327 . S
C1093 C1109 1.429 . S
C1093 H1115 0.950 . S
C1094 H1090 0.949 . S
C1094 C1102 1.574 . S
C1094 C1110 1.368 1_565 S
H1095 C1103 0.950 . S
H1096 C1101 0.950 . S
H1097 C1102 0.949 . S
H1098 C1104 0.950 . S
H1099 C1105 0.950 . S
H1100 C1106 0.949 . S
C1101 H1096 0.950 . S
C1101 C1103 1.327 . S
C1101 C1107 1.429 . S
C1102 C1094 1.574 . S
C1102 H1097 0.949 . S
C1102 C1108 1.368 1_556 S
C1103 C1087 1.349 . S
C1103 H1095 0.950 . S
C1103 C1101 1.327 . S
C1104 C1092 1.349 . S
C1104 H1098 0.950 . S
C1104 C1105 1.327 . S
C1105 H1099 0.950 . S
C1105 C1104 1.327 . S
C1105 C1109 1.429 . S
C1106 C1089 1.574 . S
C1106 H1100 0.949 . S
C1106 C1110 1.368 1_554 S
C1107 C1088 1.429 . S
C1107 C1101 1.429 . S
C1107 C1108 1.523 . S
C1108 C1089 1.368 1_565 S
C1108 C1102 1.368 1_554 S
C1108 C1107 1.523 . S
C1109 C1093 1.429 . S
C1109 C1105 1.429 . S
C1109 C1110 1.523 . S
C1110 C1094 1.368 1_545 S
C1110 C1106 1.368 1_556 S
C1110 C1109 1.523 . S
H1111 C1086 0.950 . S
H1112 C1088 0.950 . S
H1113 C1089 0.949 . S
H1114 C1091 0.950 . S
H1115 C1093 0.950 . S
C1116 C1117 1.349 . S
C1116 C1118 1.327 . S
C1116 H1141 0.950 . S
C1117 C1116 1.349 . S
C1117 C1133 1.349 . S
C1118 C1116 1.327 . S
C1118 C1137 1.429 . S
C1118 H1142 0.950 . S
C1119 C1136 1.574 . S
C1119 C1138 1.368 . S
C1119 H1143 0.949 . S
H1120 C1124 0.949 . S
C1121 C1122 1.349 . S
C1121 C1123 1.327 . S
C1121 H1144 0.950 . S
C1122 C1121 1.349 . S
C1122 C1134 1.349 . S
C1123 C1121 1.327 . S
C1123 C1139 1.429 . S
C1123 H1145 0.950 . S
C1124 H1120 0.949 . S
C1124 C1132 1.574 . S
C1124 C1140 1.368 . S
H1125 C1133 0.950 . S
H1126 C1131 0.950 . S
H1127 C1132 0.949 . S
H1128 C1134 0.950 . S
H1129 C1135 0.950 . S
H1130 C1136 0.949 . S
C1131 H1126 0.950 . S
C1131 C1133 1.327 . S
C1131 C1137 1.429 . S
C1132 C1124 1.574 . S
C1132 H1127 0.949 . S
C1132 C1138 1.368 . S
C1133 C1117 1.349 . S
C1133 H1125 0.950 . S
C1133 C1131 1.327 . S
C1134 C1122 1.349 . S
C1134 H1128 0.950 . S
C1134 C1135 1.327 . S
C1135 H1129 0.950 . S
C1135 C1134 1.327 . S
C1135 C1139 1.429 . S
C1136 C1119 1.574 . S
C1136 H1130 0.949 . S
C1136 C1140 1.368 . S
C1137 C1118 1.429 . S
C1137 C1131 1.429 . S
C1137 C1138 1.523 . S
C1138 C1119 1.368 . S
C1138 C1132 1.368 . S
C1138 C1137 1.523 . S
C1139 C1123 1.429 . S
C1139 C1135 1.429 . S
C1139 C1140 1.523 . S
C1140 C1124 1.368 . S
C1140 C1136 1.368 . S
C1140 C1139 1.523 . S
H1141 C1116 0.950 . S
H1142 C1118 0.950 . S
H1143 C1119 0.949 . S
H1144 C1121 0.950 . S
H1145 C1123 0.950 . S
C1146 C1147 1.349 . S
C1146 C1148 1.327 . S
C1146 H1171 0.950 . S
C1147 C1146 1.349 . S
C1147 C1163 1.349 . S
C1148 C1146 1.327 . S
C1148 C1167 1.429 . S
C1148 H1172 0.950 . S
C1149 C1166 1.574 . S
C1149 C1168 1.368 . S
C1149 H1173 0.949 . S
H1150 C1154 0.949 . S
C1151 C1152 1.349 . S
C1151 C1153 1.327 . S
C1151 H1174 0.950 . S
C1152 C1151 1.349 . S
C1152 C1164 1.349 . S
C1153 C1151 1.327 . S
C1153 C1169 1.429 . S
C1153 H1175 0.950 . S
C1154 H1150 0.949 . S
C1154 C1162 1.574 . S
C1154 C1170 1.368 . S
H1155 C1163 0.950 . S
H1156 C1161 0.950 . S
H1157 C1162 0.949 . S
H1158 C1164 0.950 . S
H1159 C1165 0.950 . S
H1160 C1166 0.949 . S
C1161 H1156 0.950 . S
C1161 C1163 1.327 . S
C1161 C1167 1.429 . S
C1162 C1154 1.574 . S
C1162 H1157 0.949 . S
C1162 C1168 1.368 . S
C1163 C1147 1.349 . S
C1163 H1155 0.950 . S
C1163 C1161 1.327 . S
C1164 C1152 1.349 . S
C1164 H1158 0.950 . S
C1164 C1165 1.327 . S
C1165 H1159 0.950 . S
C1165 C1164 1.327 . S
C1165 C1169 1.429 . S
C1166 C1149 1.574 . S
C1166 H1160 0.949 . S
C1166 C1170 1.368 . S
C1167 C1148 1.429 . S
C1167 C1161 1.429 . S
C1167 C1168 1.523 . S
C1168 C1149 1.368 . S
C1168 C1162 1.368 . S
C1168 C1167 1.523 . S
C1169 C1153 1.429 . S
C1169 C1165 1.429 . S
C1169 C1170 1.523 . S
C1170 C1154 1.368 . S
C1170 C1166 1.368 . S
C1170 C1169 1.523 . S
H1171 C1146 0.950 . S
H1172 C1148 0.950 . S
H1173 C1149 0.949 . S
H1174 C1151 0.950 . S
H1175 C1153 0.950 . S
C1176 C1177 1.349 . S
C1176 C1178 1.327 . S
C1176 H1201 0.950 . S
C1177 C1176 1.349 . S
C1177 C1193 1.349 . S
C1178 C1176 1.327 . S
C1178 C1197 1.429 . S
C1178 H1202 0.950 . S
C1179 C1196 1.574 . S
C1179 C1198 1.368 . S
C1179 H1203 0.949 . S
H1180 C1184 0.949 . S
C1181 C1182 1.349 . S
C1181 C1183 1.327 . S
C1181 H1204 0.950 . S
C1182 C1181 1.349 . S
C1182 C1194 1.349 . S
C1183 C1181 1.327 . S
C1183 C1199 1.429 . S
C1183 H1205 0.950 . S
C1184 H1180 0.949 . S
C1184 C1192 1.574 . S
C1184 C1200 1.368 . S
H1185 C1193 0.950 . S
H1186 C1191 0.950 . S
H1187 C1192 0.949 . S
H1188 C1194 0.950 . S
H1189 C1195 0.950 . S
H1190 C1196 0.949 . S
C1191 H1186 0.950 . S
C1191 C1193 1.327 . S
C1191 C1197 1.429 . S
C1192 C1184 1.574 . S
C1192 H1187 0.949 . S
C1192 C1198 1.368 . S
C1193 C1177 1.349 . S
C1193 H1185 0.950 . S
C1193 C1191 1.327 . S
C1194 C1182 1.349 . S
C1194 H1188 0.950 . S
C1194 C1195 1.327 . S
C1195 H1189 0.950 . S
C1195 C1194 1.327 . S
C1195 C1199 1.429 . S
C1196 C1179 1.574 . S
C1196 H1190 0.949 . S
C1196 C1200 1.368 . S
C1197 C1178 1.429 . S
C1197 C1191 1.429 . S
C1197 C1198 1.523 . S
C1198 C1179 1.368 . S
C1198 C1192 1.368 . S
C1198 C1197 1.523 . S
C1199 C1183 1.429 . S
C1199 C1195 1.429 . S
C1199 C1200 1.523 . S
C1200 C1184 1.368 . S
C1200 C1196 1.368 . S
C1200 C1199 1.523 . S
H1201 C1176 0.950 . S
H1202 C1178 0.950 . S
H1203 C1179 0.949 . S
H1204 C1181 0.950 . S
H1205 C1183 0.950 . S
C1206 C1207 1.349 . S
C1206 C1208 1.327 . S
C1206 H1231 0.950 . S
C1207 C1206 1.349 . S
C1207 C1223 1.349 . S
C1208 C1206 1.327 . S
C1208 C1227 1.429 . S
C1208 H1232 0.950 . S
C1209 C1226 1.574 . S
C1209 C1228 1.368 . S
C1209 H1233 0.949 . S
H1210 C1214 0.949 . S
C1211 C1212 1.349 . S
C1211 C1213 1.327 . S
C1211 H1234 0.950 . S
C1212 C1211 1.349 . S
C1212 C1224 1.349 . S
C1213 C1211 1.327 . S
C1213 C1229 1.429 . S
C1213 H1235 0.950 . S
C1214 H1210 0.949 . S
C1214 C1222 1.574 . S
C1214 C1230 1.368 . S
H1215 C1223 0.950 . S
H1216 C1221 0.950 . S
H1217 C1222 0.949 . S
H1218 C1224 0.950 . S
H1219 C1225 0.950 . S
H1220 C1226 0.949 . S
C1221 H1216 0.950 . S
C1221 C1223 1.327 . S
C1221 C1227 1.429 . S
C1222 C1214 1.574 . S
C1222 H1217 0.949 . S
C1222 C1228 1.368 . S
C1223 C1207 1.349 . S
C1223 H1215 0.950 . S
C1223 C1221 1.327 . S
C1224 C1212 1.349 . S
C1224 H1218 0.950 . S
C1224 C1225 1.327 . S
C1225 H1219 0.950 . S
C1225 C1224 1.327 . S
C1225 C1229 1.429 . S
C1226 C1209 1.574 . S
C1226 H1220 0.949 . S
C1226 C1230 1.368 . S
C1227 C1208 1.429 . S
C1227 C1221 1.429 . S
C1227 C1228 1.523 . S
C1228 C1209 1.368 . S
C1228 C1222 1.368 . S
C1228 C1227 1.523 . S
C1229 C1213 1.429 . S
C1229 C1225 1.429 . S
C1229 C1230 1.523 . S
C1230 C1214 1.368 . S
C1230 C1226 1.368 . S
C1230 C1229 1.523 . S
H1231 C1206 0.950 . S
H1232 C1208 0.950 . S
H1233 C1209 0.949 . S
H1234 C1211 0.950 . S
H1235 C1213 0.950 . S
C1236 C1237 1.349 . S
C1236 C1238 1.327 . S
C1236 H1261 0.950 . S
C1237 C1236 1.349 . S
C1237 C1253 1.349 . S
C1238 C1236 1.327 . S
C1238 C1257 1.429 . S
C1238 H1262 0.950 . S
C1239 C1256 1.574 . S
C1239 C1258 1.368 . S
C1239 H1263 0.949 . S
H1240 C1244 0.949 . S
C1241 C1242 1.349 . S
C1241 C1243 1.327 . S
C1241 H1264 0.950 . S
C1242 C1241 1.349 . S
C1242 C1254 1.349 . S
C1243 C1241 1.327 . S
C1243 C1259 1.429 . S
C1243 H1265 0.950 . S
C1244 H1240 0.949 . S
C1244 C1252 1.574 . S
C1244 C1260 1.368 . S
H1245 C1253 0.950 . S
H1246 C1251 0.950 . S
H1247 C1252 0.949 . S
H1248 C1254 0.950 . S
H1249 C1255 0.950 . S
H1250 C1256 0.949 . S
C1251 H1246 0.950 . S
C1251 C1253 1.327 . S
C1251 C1257 1.429 . S
C1252 C1244 1.574 . S
C1252 H1247 0.949 . S
C1252 C1258 1.368 . S
C1253 C1237 1.349 . S
C1253 H1245 0.950 . S
C1253 C1251 1.327 . S
C1254 C1242 1.349 . S
C1254 H1248 0.950 . S
C1254 C1255 1.327 . S
C1255 H1249 0.950 . S
C1255 C1254 1.327 . S
C1255 C1259 1.429 . S
C1256 C1239 1.574 . S
C1256 H1250 0.949 . S
C1256 C1260 1.368 . S
C1257 C1238 1.429 . S
C1257 C1251 1.429 . S
C1257 C1258 1.523 . S
C1258 C1239 1.368 . S
C1258 C1252 1.368 . S
C1258 C1257 1.523 . S
C1259 C1243 1.429 . S
C1259 C1255 1.429 . S
C1259 C1260 1.523 . S
C1260 C1244 1.368 . S
C1260 C1256 1.368 . S
C1260 C1259 1.523 . S
H1261 C1236 0.950 . S
H1262 C1238 0.950 . S
H1263 C1239 0.949 . S
H1264 C1241 0.950 . S
H1265 C1243 0.950 . S
C1266 C1267 1.349 . S
C1266 C1268 1.327 . S
C1266 H1291 0.950 . S
C1267 C1266 1.349 . S
C1267 C1283 1.349 . S
C1268 C1266 1.327 . S
C1268 C1287 1.429 . S
C1268 H1292 0.950 . S
C1269 C1286 1.574 . S
C1269 C1288 1.368 . S
C1269 H1293 0.949 . S
H1270 C1274 0.949 . S
C1271 C1272 1.349 . S
C1271 C1273 1.327 . S
C1271 H1294 0.950 . S
C1272 C1271 1.349 . S
C1272 C1284 1.349 . S
C1273 C1271 1.327 . S
C1273 C1289 1.429 . S
C1273 H1295 0.950 . S
C1274 H1270 0.949 . S
C1274 C1282 1.574 . S
C1274 C1290 1.368 . S
H1275 C1283 0.950 . S
H1276 C1281 0.950 . S
H1277 C1282 0.949 . S
H1278 C1284 0.950 . S
H1279 C1285 0.950 . S
H1280 C1286 0.949 . S
C1281 H1276 0.950 . S
C1281 C1283 1.327 . S
C1281 C1287 1.429 . S
C1282 C1274 1.574 . S
C1282 H1277 0.949 . S
C1282 C1288 1.368 . S
C1283 C1267 1.349 . S
C1283 H1275 0.950 . S
C1283 C1281 1.327 . S
C1284 C1272 1.349 . S
C1284 H1278 0.950 . S
C1284 C1285 1.327 . S
C1285 H1279 0.950 . S
C1285 C1284 1.327 . S
C1285 C1289 1.429 . S
C1286 C1269 1.574 . S
C1286 H1280 0.949 . S
C1286 C1290 1.368 . S
C1287 C1268 1.429 . S
C1287 C1281 1.429 . S
C1287 C1288 1.523 . S
C1288 C1269 1.368 . S
C1288 C1282 1.368 . S
C1288 C1287 1.523 . S
C1289 C1273 1.429 . S
C1289 C1285 1.429 . S
C1289 C1290 1.523 . S
C1290 C1274 1.368 . S
C1290 C1286 1.368 . S
C1290 C1289 1.523 . S
H1291 C1266 0.950 . S
H1292 C1268 0.950 . S
H1293 C1269 0.949 . S
H1294 C1271 0.950 . S
H1295 C1273 0.950 . S
C397 N344 0.931 . S
C402 N14 0.929 . S
C427 N47 0.980 . S
C432 N377 0.981 . S
C457 N80 0.980 . S
C462 N212 0.980 . S
C487 N113 0.931 . S
C492 N245 0.929 . S
C517 N146 0.981 . S
C522 N278 0.981 . S
C547 N179 0.981 . S
C552 N311 0.981 . S
C577 N5 1.662 . S
C582 C173 1.674 . S
C607 C8 1.679 . S
C612 N38 1.660 . S
C637 C41 1.691 . S
C642 N71 1.674 . S
C667 N104 1.671 . S
C672 C74 1.688 . S
C697 N137 1.700 . S
C702 C107 1.715 . S
C727 N170 1.676 . S
C732 C140 1.689 . S
C757 C239 1.679 . S
C762 N203 1.660 . S
C787 N236 1.662 . S
C792 C272 1.673 . S
C817 N269 1.677 . S
C822 C305 1.689 . S
C847 N302 1.700 . S
C852 C338 1.715 . S
C877 N335 1.671 . S
C882 C371 1.688 . S
C907 N368 1.674 . S
C912 C206 1.691 . S
C937 C28 0.429 . S
C942 C325 0.429 . S
C967 C61 0.494 . S
C972 C358 0.494 . S
C997 C94 0.478 . S
C1002 C391 0.478 . S
C1027 C127 0.494 . S
C1032 C226 0.494 . S
C1057 C160 0.430 . S
C1062 C259 0.427 . S
C1087 C292 0.461 . S
C1092 C193 0.461 . S
C1117 C215 1.252 . S
C1122 C17 1.254 . S
C1147 C50 1.252 . S
C1152 C248 1.254 . S
C1177 C83 1.259 . S
C1182 C281 1.258 . S
C1207 C314 1.267 . S
C1212 C116 1.268 . S
C1237 C149 1.267 . S
C1242 C347 1.268 . S
C1267 C380 1.259 . S
C1272 C182 1.259 . S
