# Generated by pormake.
# Topology lhb, (8)-cn, num edge types: 1
# Building blocks:
#     Node 0, Type 0, BuildingBlock: LIZSOE_clean_sbu_0, # of connection points: 8
#     Node 1, Type 0, BuildingBlock: LIZSOE_clean_sbu_0, # of connection points: 8
#     Node 2, Type 0, BuildingBlock: LIZSOE_clean_sbu_0, # of connection points: 8
#     Node 3, Type 0, BuildingBlock: LIZSOE_clean_sbu_0, # of connection points: 8
#     Node 4, Type 0, BuildingBlock: LIZSOE_clean_sbu_0, # of connection points: 8
#     Node 5, Type 0, BuildingBlock: LIZSOE_clean_sbu_0, # of connection points: 8
#     Node 6, Type 0, BuildingBlock: LIZSOE_clean_sbu_0, # of connection points: 8
#     Node 7, Type 0, BuildingBlock: LIZSOE_clean_sbu_0, # of connection points: 8
#     Edge 8, Type (0, 0), BuildingBlock: KIFKEQ_clean_linker_1, # of connection points: 2
#     Edge 9, Type (0, 0), BuildingBlock: KIFKEQ_clean_linker_1, # of connection points: 2
#     Edge 10, Type (0, 0), BuildingBlock: KIFKEQ_clean_linker_1, # of connection points: 2
#     Edge 11, Type (0, 0), BuildingBlock: KIFKEQ_clean_linker_1, # of connection points: 2
#     Edge 12, Type (0, 0), BuildingBlock: KIFKEQ_clean_linker_1, # of connection points: 2
#     Edge 13, Type (0, 0), BuildingBlock: KIFKEQ_clean_linker_1, # of connection points: 2
#     Edge 14, Type (0, 0), BuildingBlock: KIFKEQ_clean_linker_1, # of connection points: 2
#     Edge 15, Type (0, 0), BuildingBlock: KIFKEQ_clean_linker_1, # of connection points: 2
#     Edge 16, Type (0, 0), BuildingBlock: KIFKEQ_clean_linker_1, # of connection points: 2
#     Edge 17, Type (0, 0), BuildingBlock: KIFKEQ_clean_linker_1, # of connection points: 2
#     Edge 18, Type (0, 0), BuildingBlock: KIFKEQ_clean_linker_1, # of connection points: 2
#     Edge 19, Type (0, 0), BuildingBlock: KIFKEQ_clean_linker_1, # of connection points: 2
#     Edge 20, Type (0, 0), BuildingBlock: KIFKEQ_clean_linker_1, # of connection points: 2
#     Edge 21, Type (0, 0), BuildingBlock: KIFKEQ_clean_linker_1, # of connection points: 2
#     Edge 22, Type (0, 0), BuildingBlock: KIFKEQ_clean_linker_1, # of connection points: 2
#     Edge 23, Type (0, 0), BuildingBlock: KIFKEQ_clean_linker_1, # of connection points: 2
#     Edge 24, Type (0, 0), BuildingBlock: KIFKEQ_clean_linker_1, # of connection points: 2
#     Edge 25, Type (0, 0), BuildingBlock: KIFKEQ_clean_linker_1, # of connection points: 2
#     Edge 26, Type (0, 0), BuildingBlock: KIFKEQ_clean_linker_1, # of connection points: 2
#     Edge 27, Type (0, 0), BuildingBlock: KIFKEQ_clean_linker_1, # of connection points: 2
#     Edge 28, Type (0, 0), BuildingBlock: KIFKEQ_clean_linker_1, # of connection points: 2
#     Edge 29, Type (0, 0), BuildingBlock: KIFKEQ_clean_linker_1, # of connection points: 2
#     Edge 30, Type (0, 0), BuildingBlock: KIFKEQ_clean_linker_1, # of connection points: 2
#     Edge 31, Type (0, 0), BuildingBlock: KIFKEQ_clean_linker_1, # of connection points: 2
#     Edge 32, Type (0, 0), BuildingBlock: KIFKEQ_clean_linker_1, # of connection points: 2
#     Edge 33, Type (0, 0), BuildingBlock: KIFKEQ_clean_linker_1, # of connection points: 2
#     Edge 34, Type (0, 0), BuildingBlock: KIFKEQ_clean_linker_1, # of connection points: 2
#     Edge 35, Type (0, 0), BuildingBlock: KIFKEQ_clean_linker_1, # of connection points: 2
#     Edge 36, Type (0, 0), BuildingBlock: KIFKEQ_clean_linker_1, # of connection points: 2
#     Edge 37, Type (0, 0), BuildingBlock: KIFKEQ_clean_linker_1, # of connection points: 2
#     Edge 38, Type (0, 0), BuildingBlock: KIFKEQ_clean_linker_1, # of connection points: 2
#     Edge 39, Type (0, 0), BuildingBlock: KIFKEQ_clean_linker_1, # of connection points: 2
# Relax obj value: 0.115
# Max RMSD: 0.212
# Mean RMSD: 0.212
data_MOF--net-lhb--node1-LIZSOE_clean_sbu_0--edge1-KIFKEQ_clean_linker_1
_symmetry_space_group_name_H-M    P1
_symmetry_Int_Tables_number       1
_symmetry_cell_setting            triclinic
loop_
_symmetry_equiv_pos_as_xyz
'x, y, z'
_cell_length_a     43.698061
_cell_length_b     15.381033
_cell_length_c     42.726641
_cell_angle_alpha  90.035774
_cell_angle_beta   90.000444
_cell_angle_gamma 89.958162
loop_
_atom_site_label
_atom_site_type_symbol
_atom_site_fract_x
_atom_site_fract_y
_atom_site_fract_z
_atom_type_partial_charge
Co0 Co 0.07235 0.18613 1.02659 0.0
N1 N 0.11258 0.22054 1.02729 0.0
C2 C 0.12812 0.23661 1.00065 0.0
N3 N 0.15986 0.26448 1.0392 0.0
C4 C 0.13251 0.23957 0.05066 0.0
C5 C 0.15724 0.26293 1.00788 0.0
Co6 Co 0.95803 0.90227 1.02652 0.0
N7 N 0.9178 0.86787 1.02717 0.0
N8 N 0.87051 0.82391 1.03902 0.0
C9 C 0.87316 0.8254 1.0077 0.0
C10 C 0.90229 0.85173 1.00051 0.0
C11 C 0.89785 0.84886 0.05052 0.0
Co12 Co 0.01519 0.04421 1.03017 0.0
C13 C 0.99665 0.85481 0.04644 0.0
H14 H 0.91169 0.8586 0.97723 0.0
O15 O 0.03279 0.16578 1.02772 0.0
O16 O 0.98536 0.08148 0.06516 0.0
O17 O 0.04499 1.00701 0.06518 0.0
O18 O 0.04508 1.0012 0.99636 0.0
O19 O 0.08202 0.10095 0.99619 0.0
O20 O 0.94947 0.98154 0.0576 0.0
O21 O 0.99758 0.92263 1.02769 0.0
O22 O 0.94839 0.98738 0.99612 0.0
O23 O 0.08088 0.10694 0.05767 0.0
O24 O 0.06045 0.26056 0.0554 0.0
O25 O 0.98532 0.08714 0.99634 0.0
O26 O 0.9699 0.82792 0.05533 0.0
C27 C 0.07084 1.04203 0.07238 0.0
C28 C 0.90574 0.84318 0.08476 0.0
H29 H 0.92828 0.87074 0.09067 0.0
H30 H 0.88804 0.87605 0.09901 0.0
H31 H 0.9056 0.77374 0.09179 0.0
C32 C 0.9595 0.04648 0.07233 0.0
C33 C 0.07089 1.0298 0.98614 0.0
H34 H 0.11874 0.2297 0.97736 0.0
H35 H 0.12475 0.31476 0.09195 0.0
H36 H 0.14227 0.21241 0.09916 0.0
H37 H 0.10203 0.21784 0.09077 0.0
C38 C 0.12459 0.24532 0.08489 0.0
C39 C 0.03371 0.23365 0.04647 0.0
C40 C 0.95952 0.0585 0.98609 0.0
H41 H 0.17534 0.27828 0.99147 0.0
H42 H 0.85508 0.81001 0.99128 0.0
Co43 Co 0.20718 0.43137 0.27716 0.0
N44 N 0.16656 0.46294 0.27828 0.0
C45 C 0.1494 0.4683 0.25211 0.0
N46 N 0.11815 0.49163 0.29143 0.0
C47 C 0.14688 0.4803 0.30207 0.0
C48 C 0.11955 0.48407 0.26015 0.0
Co49 Co 0.32254 0.14997 0.27708 0.0
N50 N 0.3628 0.11594 0.27786 0.0
N51 N 0.41007 0.07202 0.2899 0.0
C52 C 0.4076 0.07404 0.25857 0.0
C53 C 0.37848 0.10035 0.25126 0.0
C54 C 0.38264 0.09663 0.30128 0.0
Co55 Co 0.26508 0.2912 0.28061 0.0
C56 C 0.28389 0.10183 0.2967 0.0
H57 H 0.3692 0.10758 0.22794 0.0
O58 O 0.24696 0.41274 0.27807 0.0
O59 O 0.29481 0.32889 0.31565 0.0
O60 O 0.23555 0.25339 0.31579 0.0
O61 O 0.2354 0.24703 0.24679 0.0
O62 O 0.19787 0.34484 0.24717 0.0
O63 O 0.33069 0.22838 0.30854 0.0
O64 O 0.28301 0.17001 0.27814 0.0
O65 O 0.33222 0.23609 0.24707 0.0
O66 O 0.19952 0.35294 0.30852 0.0
O67 O 0.2188 0.50707 0.30558 0.0
O68 O 0.29484 0.33466 0.24675 0.0
O69 O 0.31062 0.07443 0.30549 0.0
C70 C 0.20977 0.28845 0.32326 0.0
C71 C 0.37461 0.09058 0.33548 0.0
H72 H 0.35176 0.11626 0.34124 0.0
H73 H 0.39188 0.12513 0.34975 0.0
H74 H 0.37553 1.02128 0.34263 0.0
C75 C 0.32052 0.29334 0.32318 0.0
C76 C 0.20929 0.27432 0.23692 0.0
H77 H 0.15801 0.45949 0.2286 0.0
H78 H 0.15753 0.56173 0.34101 0.0
H79 H 0.13728 0.4651 0.35129 0.0
H80 H 0.17751 0.46047 0.34209 0.0
C81 C 0.15555 0.49122 0.33593 0.0
C82 C 0.24568 0.48081 0.29674 0.0
C83 C 0.32089 0.30679 0.23683 0.0
H84 H 0.10024 0.48876 0.24436 0.0
H85 H 0.42579 0.05902 0.24222 0.0
Co86 Co 0.70803 0.93727 0.27722 0.0
N87 N 0.66776 0.97123 0.27806 0.0
C88 C 0.6521 0.98705 0.25147 0.0
N89 N 0.6205 1.01509 0.29013 0.0
C90 C 0.64791 0.99037 0.3015 0.0
C91 C 0.62298 1.01333 0.2588 0.0
Co92 Co 0.82356 0.65642 0.27681 0.0
N93 N 0.86423 0.6252 0.27777 0.0
N94 N 0.91281 0.59807 0.2907 0.0
C95 C 0.91121 0.6053 0.25942 0.0
C96 C 0.88127 0.62008 0.25152 0.0
C97 C 0.88407 0.60855 0.30147 0.0
Co98 Co 0.76553 0.7962 0.28053 0.0
C99 C 0.78516 0.60667 0.29649 0.0
H100 H 0.87252 0.6286 0.22805 0.0
O101 O 0.74754 0.91731 0.2782 0.0
O102 O 0.79507 0.83394 0.31572 0.0
O103 O 0.73585 0.7582 0.31555 0.0
O104 O 0.73575 0.75277 0.24666 0.0
O105 O 0.69834 0.85125 0.24714 0.0
O106 O 0.83122 0.73481 0.30827 0.0
O107 O 0.78374 0.67474 0.27787 0.0
O108 O 0.83271 0.74312 0.24691 0.0
O109 O 0.69993 0.8587 0.30861 0.0
O110 O 0.71997 1.01275 0.30569 0.0
O111 O 0.79513 0.84075 0.24672 0.0
O112 O 0.81209 0.58049 0.30517 0.0
C113 C 0.71014 0.79367 0.32316 0.0
C114 C 0.87557 0.59762 0.33537 0.0
H115 H 0.85345 0.62739 0.34158 0.0
H116 H 0.89374 0.62469 0.35064 0.0
H117 H 0.87398 0.52709 0.34052 0.0
C118 C 0.82089 0.79909 0.32312 0.0
C119 C 0.70968 0.78062 0.23681 0.0
H120 H 0.6614 0.98001 0.22815 0.0
H121 H 0.65483 0.06525 0.34302 0.0
H122 H 0.6387 0.96101 0.34987 0.0
H123 H 0.67882 0.97073 0.34142 0.0
C124 C 0.65591 0.99608 0.3357 0.0
C125 C 0.74669 0.98546 0.29681 0.0
C126 C 0.82123 0.81364 0.23677 0.0
H127 H 0.60481 1.02852 0.24246 0.0
H128 H 0.93047 0.60119 0.24353 0.0
Co129 Co 0.07243 0.6856 0.52656 0.0
N130 N 0.11265 0.72008 0.52725 0.0
C131 C 0.12816 0.73597 0.50058 0.0
N132 N 0.15994 0.76416 0.53906 0.0
C133 C 0.1326 0.73933 0.55058 0.0
C134 C 0.15729 0.76239 0.50775 0.0
Co135 Co 0.95801 0.40178 0.52643 0.0
N136 N 0.91779 0.36733 0.52707 0.0
N137 N 0.8705 0.3232 0.53885 0.0
C138 C 0.87315 0.32503 0.50754 0.0
C139 C 0.90228 0.35147 0.50039 0.0
C140 C 0.89784 0.34803 0.55039 0.0
Co141 Co 0.01522 0.54368 0.53014 0.0
C142 C 0.9967 0.35397 0.54618 0.0
H143 H 0.91168 0.35865 0.47712 0.0
O144 O 0.03286 0.66524 0.52767 0.0
O145 O 0.9854 0.58059 0.56522 0.0
O146 O 0.04502 0.50676 0.56522 0.0
O147 O 0.04511 0.50059 0.49633 0.0
O148 O 0.08224 0.59972 0.49645 0.0
O149 O 0.94959 0.48019 0.55785 0.0
O150 O 0.99759 0.42212 0.5276 0.0
O151 O 0.94824 0.48764 0.49633 0.0
O152 O 0.08083 0.60722 0.55796 0.0
O153 O 0.06044 0.76074 0.55509 0.0
O154 O 0.98536 0.5868 0.49633 0.0
O155 O 0.96996 0.32666 0.55494 0.0
C156 C 0.07073 0.54235 0.57266 0.0
C157 C 0.90567 0.34226 0.58463 0.0
H158 H 0.92852 0.36778 0.59048 0.0
H159 H 0.88835 0.37714 0.59875 0.0
H160 H 0.90466 0.27306 0.59188 0.0
C161 C 0.95968 0.54501 0.57261 0.0
C162 C 0.07105 0.52875 0.48631 0.0
H163 H 0.11876 0.72881 0.4773 0.0
H164 H 0.1259 0.81412 0.59217 0.0
H165 H 0.14203 0.70977 0.59889 0.0
H166 H 0.10187 0.71974 0.59063 0.0
C167 C 0.12477 0.74498 0.58482 0.0
C168 C 0.03372 0.73343 0.54627 0.0
C169 C 0.95943 0.55863 0.48625 0.0
H170 H 0.17537 0.77759 0.49131 0.0
H171 H 0.85508 0.30983 0.49109 0.0
Co172 Co 0.20815 0.93532 0.77679 0.0
N173 N 0.16796 0.97025 0.77744 0.0
C174 C 0.15251 0.98651 0.75075 0.0
N175 N 0.1207 1.0148 0.78921 0.0
C176 C 0.14799 0.98958 0.80075 0.0
C177 C 0.12339 1.01321 0.7579 0.0
Co178 Co 0.32228 0.65023 0.77676 0.0
N179 N 0.36247 0.61533 0.77744 0.0
N180 N 0.40974 0.57099 0.78929 0.0
C181 C 0.40711 0.57268 0.75797 0.0
C182 C 0.37799 0.59923 0.75078 0.0
C183 C 0.3824 0.59604 0.80079 0.0
Co184 Co 0.26521 0.79275 0.7804 0.0
C185 C 0.28355 0.6029 0.79649 0.0
H186 H 0.36861 0.60642 0.7275 0.0
O187 O 0.2477 0.91452 0.77794 0.0
O188 O 0.29502 0.82933 0.81551 0.0
O189 O 0.23536 0.75606 0.81542 0.0
O190 O 0.23532 0.7501 0.74654 0.0
O191 O 0.19836 0.8499 0.74653 0.0
O192 O 0.33078 0.72865 0.80815 0.0
O193 O 0.28273 0.671 0.77788 0.0
O194 O 0.33213 0.73584 0.74662 0.0
O195 O 0.19961 0.85671 0.80805 0.0
O196 O 0.22014 1.00997 0.80546 0.0
O197 O 0.29512 0.8355 0.74662 0.0
O198 O 0.31026 0.57538 0.80531 0.0
C199 C 0.20963 0.79173 0.82276 0.0
C200 C 0.37455 0.59053 0.83503 0.0
H201 H 0.35168 0.61604 0.84084 0.0
H202 H 0.39184 0.62556 0.84912 0.0
H203 H 0.37561 0.52139 0.84235 0.0
C204 C 0.32073 0.79358 0.8229 0.0
C205 C 0.20947 0.77877 0.73641 0.0
H206 H 0.16194 0.97943 0.72749 0.0
H207 H 0.15495 0.06425 0.84231 0.0
H208 H 0.13838 0.96053 0.84908 0.0
H209 H 0.17858 0.96898 0.84086 0.0
C210 C 0.1558 0.99504 0.83501 0.0
C211 C 0.24685 0.98259 0.7966 0.0
C212 C 0.321 0.80695 0.73653 0.0
H213 H 0.10535 1.02873 0.74145 0.0
H214 H 0.42521 0.55741 0.74155 0.0
Co215 Co 0.82231 0.15229 0.77674 0.0
N216 N 0.8625 0.11742 0.77739 0.0
C217 C 0.87798 0.10113 0.75072 0.0
N218 N 0.90977 0.07292 0.78919 0.0
C219 C 0.88246 0.09815 0.80072 0.0
C220 C 0.90709 0.07446 0.75787 0.0
Co221 Co 0.70813 0.43724 0.77671 0.0
N222 N 0.66794 0.4721 0.7774 0.0
N223 N 0.62067 0.51643 0.78925 0.0
C224 C 0.6233 0.51466 0.75793 0.0
C225 C 0.65242 0.4881 0.75074 0.0
C226 C 0.64801 0.49145 0.80074 0.0
Co227 Co 0.76523 0.29481 0.78035 0.0
C228 C 0.74686 0.4847 0.79643 0.0
H229 H 0.6618 0.48085 0.72746 0.0
O230 O 0.78276 0.17305 0.77789 0.0
O231 O 0.73542 0.2583 0.81545 0.0
O232 O 0.79507 0.33166 0.81537 0.0
O233 O 0.79512 0.33739 0.74649 0.0
O234 O 0.83209 0.23763 0.74648 0.0
O235 O 0.69966 0.35894 0.80811 0.0
O236 O 0.74769 0.41652 0.77782 0.0
O237 O 0.6983 0.35148 0.74658 0.0
O238 O 0.83084 0.23102 0.808 0.0
O239 O 0.81033 0.07772 0.80541 0.0
O240 O 0.73533 0.2519 0.74657 0.0
O241 O 0.72016 0.51224 0.80525 0.0
C242 C 0.82081 0.29604 0.82271 0.0
C243 C 0.65586 0.49701 0.83499 0.0
H244 H 0.67876 0.47175 0.84079 0.0
H245 H 0.63862 0.46178 0.84906 0.0
H246 H 0.6547 0.56613 0.84235 0.0
C247 C 0.70972 0.29406 0.82285 0.0
C248 C 0.82097 0.30871 0.73636 0.0
H249 H 0.86856 0.10816 0.72745 0.0
H250 H 0.8754 1.02349 0.84223 0.0
H251 H 0.89209 0.12705 0.84907 0.0
H252 H 0.85188 0.11896 0.84082 0.0
C253 C 0.87464 0.09271 0.83497 0.0
C254 C 0.78361 0.10505 0.79655 0.0
C255 C 0.70944 0.28037 0.73649 0.0
H256 H 0.92514 0.05892 0.74143 0.0
H257 H 0.6052 0.52987 0.74151 0.0
Co258 Co 0.5722 0.18581 0.52697 0.0
N259 N 0.61236 0.22082 0.52761 0.0
C260 C 0.62779 0.23714 0.50092 0.0
N261 N 0.6596 0.2655 0.53936 0.0
C262 C 0.63233 0.2402 0.55092 0.0
C263 C 0.65688 0.2639 0.50805 0.0
Co264 Co 0.45827 0.90054 0.52695 0.0
N265 N 0.4181 0.86557 0.5276 0.0
N266 N 0.37086 0.82102 0.53937 0.0
C267 C 0.37355 0.82257 0.50806 0.0
C268 C 0.40265 0.84927 0.50091 0.0
C269 C 0.39814 0.84627 0.55091 0.0
Co270 Co 0.51525 1.04315 0.53059 0.0
C271 C 0.497 0.85333 0.54674 0.0
H272 H 0.41207 0.85635 0.47765 0.0
O273 O 0.53267 0.16493 0.52812 0.0
O274 O 0.48539 0.07979 0.56565 0.0
O275 O 0.5451 1.00662 0.56565 0.0
O276 O 0.54519 1.00045 0.49677 0.0
O277 O 0.58206 0.10037 0.49674 0.0
O278 O 0.44968 0.97914 0.55825 0.0
O279 O 0.49781 0.92137 0.52809 0.0
O280 O 0.44841 0.98594 0.49673 0.0
O281 O 0.5808 0.10727 0.55826 0.0
O282 O 0.56016 0.26046 0.55563 0.0
O283 O 0.48531 0.08577 0.49677 0.0
O284 O 0.47031 0.82593 0.55559 0.0
C285 C 0.57081 1.04234 0.573 0.0
C286 C 0.40595 0.84089 0.58517 0.0
H287 H 0.42874 0.86683 0.59102 0.0
H288 H 0.38854 0.87558 0.59924 0.0
H289 H 0.40508 0.77172 0.59248 0.0
C290 C 0.45968 0.0441 0.573 0.0
C291 C 0.57102 1.02918 0.48664 0.0
H292 H 0.61835 0.23003 0.47766 0.0
H293 H 0.62539 0.31482 0.5925 0.0
H294 H 0.64198 0.21104 0.59923 0.0
H295 H 0.60177 0.21964 0.59104 0.0
C296 C 0.62454 0.24563 0.58518 0.0
C297 C 0.53347 0.23302 0.54677 0.0
C298 C 0.45948 0.05708 0.48664 0.0
H299 H 0.6749 0.27945 0.49159 0.0
H300 H 0.35551 0.80707 0.49161 0.0
Co301 Co 0.57212 0.68651 1.02724 0.0
N302 N 0.61228 0.72157 1.02783 0.0
C303 C 0.62767 0.73786 1.00112 0.0
N304 N 0.65953 0.76626 1.03951 0.0
C305 C 0.63228 0.74096 0.0511 0.0
C306 C 0.65678 0.76465 1.0082 0.0
Co307 Co 0.45821 0.40114 1.02722 0.0
N308 N 0.41803 0.36617 1.02783 0.0
N309 N 0.37079 0.3216 1.03957 0.0
C310 C 0.37348 0.32331 1.00826 0.0
C311 C 0.40258 0.35 1.00114 0.0
C312 C 0.39807 0.34679 0.05113 0.0
Co313 Co 0.51518 0.5438 1.03093 0.0
C314 C 0.49692 0.354 0.04708 0.0
H315 H 0.41201 0.35717 0.97787 0.0
O316 O 0.53259 0.66559 1.02845 0.0
O317 O 0.48529 0.58033 0.06601 0.0
O318 O 0.54509 0.50731 0.06598 0.0
O319 O 0.54511 0.50115 0.99707 0.0
O320 O 0.58195 0.60114 0.99697 0.0
O321 O 0.44957 0.4798 0.05849 0.0
O322 O 0.49775 0.42199 1.02842 0.0
O323 O 0.44838 0.48646 0.99696 0.0
O324 O 0.58078 0.60793 0.0585 0.0
O325 O 0.56011 0.76109 0.05594 0.0
O326 O 0.48523 0.58642 0.9971 0.0
O327 O 0.47022 0.32662 0.05591 0.0
C328 C 0.57081 0.54302 0.07327 0.0
C329 C 0.40589 0.34112 0.08538 0.0
H330 H 0.42857 0.36778 0.09129 0.0
H331 H 0.38833 0.37491 0.09954 0.0
H332 H 0.40535 0.27179 0.09253 0.0
C333 C 0.45956 0.54469 0.07328 0.0
C334 C 0.57091 0.52994 0.98689 0.0
H335 H 0.61821 0.73073 0.97787 0.0
H336 H 0.62532 0.81564 0.09267 0.0
H337 H 0.64201 0.71199 0.09942 0.0
H338 H 0.60178 0.72027 0.09127 0.0
C339 C 0.62453 0.74642 0.08537 0.0
C340 C 0.53341 0.73365 0.04711 0.0
C341 C 0.45943 0.55764 0.9869 0.0
H342 H 0.67477 0.78019 0.99171 0.0
H343 H 0.35544 0.30788 0.99179 0.0
H344 H 0.13057 0.99436 0.07636 0.0
H345 H 0.05287 0.06195 0.13324 0.0
H346 H 0.1651 1.03717 0.11846 0.0
H347 H 0.08723 0.10398 0.17576 0.0
H348 H 0.15067 0.30782 0.21784 0.0
H349 H 0.11804 0.22786 0.18274 0.0
H350 H 0.18925 1.03685 0.1694 0.0
H351 H 0.22285 0.11975 0.20477 0.0
C352 C 0.12074 1.01315 0.09865 0.0
C353 C 0.0887 1.02268 0.10141 0.0
C354 C 0.14071 1.03915 0.12283 0.0
C355 C 0.12934 0.07692 0.15055 0.0
C356 C 0.09717 0.07775 0.15456 0.0
C357 C 0.07721 0.05113 0.1304 0.0
C358 C 0.15983 0.24923 0.20751 0.0
C359 C 0.18996 0.2218 0.21431 0.0
C360 C 0.1406 0.20191 0.18748 0.0
C361 C 0.15038 0.1242 0.17322 0.0
C362 C 0.18061 0.09622 0.17976 0.0
C363 C 0.20002 0.14394 0.20013 0.0
H364 H 0.97748 1.02679 0.13316 0.0
H365 H 0.89973 0.09405 0.07632 0.0
H366 H 0.94315 0.98472 0.17568 0.0
H367 H 0.86523 0.05118 0.11842 0.0
H368 H 0.80756 0.96828 0.20475 0.0
H369 H 0.8411 0.0514 0.16941 0.0
H370 H 0.91241 0.86064 0.18254 0.0
H371 H 0.87985 0.78048 0.21761 0.0
C372 C 0.95313 1.03753 0.13033 0.0
C373 C 0.94162 0.06588 0.10135 0.0
C374 C 0.93319 1.01089 0.15449 0.0
C375 C 0.90102 1.0116 0.15049 0.0
C376 C 0.88962 0.04929 0.12278 0.0
C377 C 0.90958 0.07532 0.0986 0.0
C378 C 0.8304 0.9442 0.20008 0.0
C379 C 0.84052 0.86634 0.21418 0.0
C380 C 0.84977 0.99204 0.17972 0.0
C381 C 0.88001 0.9642 0.17313 0.0
C382 C 0.88983 0.8865 0.18732 0.0
C383 C 0.87065 0.83906 0.20733 0.0
H384 H 0.12809 0.56882 0.46393 0.0
H385 H 0.05916 0.36882 0.45725 0.0
H386 H 0.16125 0.487 0.42955 0.0
H387 H 0.0931 0.28518 0.42242 0.0
H388 H 0.15057 0.23674 0.32853 0.0
H389 H 0.11602 0.28338 0.37015 0.0
H390 H 0.19374 0.36262 0.42548 0.0
H391 H 0.22813 0.31633 0.3835 0.0
C392 C 0.1198 0.50714 0.4552 0.0
C393 C 0.09047 0.47652 0.46367 0.0
C394 C 0.13928 0.45913 0.43556 0.0
C395 C 0.13048 0.37792 0.4233 0.0
C396 C 0.10096 0.3472 0.4313 0.0
C397 C 0.08136 0.39541 0.45132 0.0
C398 C 0.16042 0.25892 0.3504 0.0
C399 C 0.19241 0.27048 0.35271 0.0
C400 C 0.14043 0.28722 0.37426 0.0
C401 C 0.15172 0.32929 0.40119 0.0
C402 C 0.18388 0.33264 0.40488 0.0
C403 C 0.20386 0.30361 0.38108 0.0
H404 H 0.80245 0.77034 0.38323 0.0
H405 H 0.88006 0.85132 0.32864 0.0
H406 H 0.83678 0.72402 0.42523 0.0
H407 H 0.91455 0.80474 0.37031 0.0
H408 H 0.97125 0.71888 0.45746 0.0
H409 H 0.93734 0.80251 0.42264 0.0
H410 H 0.8694 0.6 0.4292 0.0
H411 H 0.90253 0.51819 0.46358 0.0
C412 C 0.82671 0.78335 0.38091 0.0
C413 C 0.8382 0.81687 0.35263 0.0
C414 C 0.84666 0.75432 0.40472 0.0
C415 C 0.87883 0.75808 0.40115 0.0
C416 C 0.89014 0.80057 0.37432 0.0
C417 C 0.87018 0.82882 0.35043 0.0
C418 C 0.94911 0.69214 0.4514 0.0
C419 C 0.94004 0.61085 0.4636 0.0
C420 C 0.92952 0.74034 0.43138 0.0
C421 C 0.90006 0.70943 0.42323 0.0
C422 C 0.89132 0.62802 0.43533 0.0
C423 C 0.91078 0.58002 0.45497 0.0
H424 H 0.05242 0.57069 0.63281 0.0
H425 H 0.12994 0.48975 0.57797 0.0
H426 H 0.08679 0.61569 0.67495 0.0
H427 H 0.16448 0.53467 0.61987 0.0
H428 H 0.2212 0.61875 0.70729 0.0
H429 H 0.18726 0.536 0.67222 0.0
H430 H 0.11949 0.73919 0.67918 0.0
H431 H 0.15264 0.8201 0.71378 0.0
C432 C 0.07667 0.55743 0.63045 0.0
C433 C 0.08813 0.52431 0.60208 0.0
C434 C 0.09664 0.58565 0.65436 0.0
C435 C 0.1288 0.58143 0.65079 0.0
C436 C 0.14007 0.53923 0.62386 0.0
C437 C 0.12009 0.51197 0.59984 0.0
C438 C 0.19909 0.64581 0.70127 0.0
C439 C 0.19007 0.72703 0.71364 0.0
C440 C 0.17949 0.59812 0.68111 0.0
C441 C 0.15006 0.62949 0.673 0.0
C442 C 0.14137 0.71081 0.68527 0.0
C443 C 0.16085 0.7583 0.70505 0.0
H444 H 0.87785 0.26752 0.71381 0.0
H445 H 0.80918 0.4685 0.70717 0.0
H446 H 0.91098 0.34835 0.6792 0.0
H447 H 0.84309 0.55117 0.6721 0.0
H448 H 0.90044 0.5972 0.5779 0.0
H449 H 0.86591 0.55229 0.61977 0.0
H450 H 0.94362 0.47196 0.67492 0.0
H451 H 0.97798 0.51695 0.6328 0.0
C452 C 0.86961 0.32921 0.70504 0.0
C453 C 0.84037 0.36041 0.71359 0.0
C454 C 0.88908 0.37666 0.68527 0.0
C455 C 0.88035 0.45786 0.67295 0.0
C456 C 0.8509 0.48915 0.68102 0.0
C457 C 0.83131 0.4415 0.70118 0.0
C458 C 0.91029 0.57513 0.59977 0.0
C459 C 0.94226 0.56299 0.60203 0.0
C460 C 0.89032 0.54787 0.62378 0.0
C461 C 0.9016 0.50586 0.65073 0.0
C462 C 0.93377 0.50183 0.65432 0.0
C463 C 0.95373 0.53006 0.63042 0.0
H464 H 0.22786 0.81953 0.88296 0.0
H465 H 0.15036 0.73982 0.82791 0.0
H466 H 0.19345 0.86493 0.92502 0.0
H467 H 0.11578 0.7851 0.86973 0.0
H468 H 0.05906 0.86976 0.95714 0.0
H469 H 0.09297 0.78649 0.92216 0.0
H470 H 0.16085 0.98913 0.92897 0.0
H471 H 0.12773 0.07059 0.96347 0.0
C472 C 0.2036 0.8066 0.88054 0.0
C473 C 0.19216 0.77376 0.85212 0.0
C474 C 0.18361 0.83505 0.9044 0.0
C475 C 0.15146 0.83129 0.90075 0.0
C476 C 0.14019 0.78931 0.87378 0.0
C477 C 0.16019 0.76183 0.8498 0.0
C478 C 0.08119 0.8966 0.9511 0.0
C479 C 0.09025 0.97782 0.9634 0.0
C480 C 0.10077 0.8486 0.931 0.0
C481 C 0.13021 0.87967 0.92288 0.0
C482 C 0.13894 0.96101 0.93508 0.0
C483 C 0.11949 1.00881 0.95479 0.0
H484 H 0.88008 0.3478 0.82783 0.0
H485 H 0.80257 0.26865 0.88294 0.0
H486 H 0.91465 0.30267 0.86965 0.0
H487 H 0.83699 0.22342 0.92501 0.0
H488 H 0.90266 1.01775 0.96346 0.0
H489 H 0.86955 0.09911 0.92895 0.0
H490 H 0.93749 0.30157 0.92208 0.0
H491 H 0.97138 0.2184 0.95707 0.0
C492 C 0.87025 0.32594 0.84973 0.0
C493 C 0.83828 0.31412 0.85208 0.0
C494 C 0.89024 0.29857 0.87371 0.0
C495 C 0.87898 0.25679 0.9007 0.0
C496 C 0.84682 0.25314 0.90437 0.0
C497 C 0.82684 0.2815 0.88051 0.0
C498 C 0.91092 0.07947 0.95476 0.0
C499 C 0.94017 0.11043 0.96335 0.0
C500 C 0.89147 0.12722 0.93505 0.0
C501 C 0.90021 0.20848 0.92284 0.0
C502 C 0.92967 0.23952 0.93094 0.0
C503 C 0.94925 0.19158 0.95104 0.0
H504 H 0.65245 0.32091 0.71407 0.0
H505 H 0.72136 0.12057 0.70732 0.0
H506 H 0.61936 0.23957 0.67953 0.0
H507 H 0.68749 1.0374 0.67233 0.0
H508 H 0.63011 0.9907 0.57818 0.0
H509 H 0.66463 1.036 0.62003 0.0
H510 H 0.58688 0.11553 0.67531 0.0
H511 H 0.55253 0.07014 0.63321 0.0
C512 C 0.66075 0.25925 0.70529 0.0
C513 C 0.69005 0.22838 0.71378 0.0
C514 C 0.64131 0.21151 0.68556 0.0
C515 C 0.65012 0.13035 0.67323 0.0
C516 C 0.67962 0.09938 0.68126 0.0
C517 C 0.69918 0.14732 0.70138 0.0
C518 C 0.62025 1.01267 0.60007 0.0
C519 C 0.58827 1.0245 0.60239 0.0
C520 C 0.64022 1.04015 0.62407 0.0
C521 C 0.62891 0.08206 0.65104 0.0
C522 C 0.59675 0.08574 0.65468 0.0
C523 C 0.5768 0.05729 0.6308 0.0
H524 H 0.47794 1.01638 0.63319 0.0
H525 H 0.40037 0.09591 0.57819 0.0
H526 H 0.44359 0.9712 0.67529 0.0
H527 H 0.36585 0.05082 0.62005 0.0
H528 H 0.30912 0.96667 0.70736 0.0
H529 H 0.343 0.04963 0.67235 0.0
H530 H 0.41107 0.8473 0.67953 0.0
H531 H 0.37796 0.76619 0.71408 0.0
C532 C 0.45368 1.02929 0.63078 0.0
C533 C 0.4422 0.06206 0.60238 0.0
C534 C 0.43372 1.00097 0.65467 0.0
C535 C 0.40156 1.00475 0.65105 0.0
C536 C 0.39026 0.0466 0.62408 0.0
C537 C 0.41023 0.07396 0.60008 0.0
C538 C 0.33128 0.93985 0.70141 0.0
C539 C 0.3404 0.85881 0.71382 0.0
C540 C 0.35086 0.98765 0.68128 0.0
C541 C 0.38034 0.95658 0.67324 0.0
C542 C 0.38913 0.87545 0.68557 0.0
C543 C 0.36968 0.82784 0.70531 0.0
H544 H 0.62778 0.57111 0.96439 0.0
H545 H 0.55918 0.37024 0.95755 0.0
H546 H 0.66093 0.49043 0.92969 0.0
H547 H 0.59312 0.28771 0.92237 0.0
H548 H 0.65046 0.24218 0.82809 0.0
H549 H 0.61592 0.2869 0.87003 0.0
H550 H 0.69362 0.3668 0.92526 0.0
H551 H 0.72799 0.32197 0.88307 0.0
C552 C 0.61956 0.50947 0.95556 0.0
C553 C 0.59033 0.47827 0.96408 0.0
C554 C 0.63904 0.4621 0.93573 0.0
C555 C 0.63034 0.38098 0.92332 0.0
C556 C 0.60091 0.34968 0.93137 0.0
C557 C 0.5813 0.39724 0.95159 0.0
C558 C 0.66031 0.26413 0.84998 0.0
C559 C 0.69228 0.27617 0.85226 0.0
C560 C 0.64033 0.29126 0.87403 0.0
C561 C 0.65161 0.33309 0.90103 0.0
C562 C 0.68377 0.33706 0.90462 0.0
C563 C 0.70374 0.30894 0.88068 0.0
H564 H 0.40253 0.51663 0.96443 0.0
H565 H 0.47122 0.71722 0.95758 0.0
H566 H 0.36941 0.59734 0.92973 0.0
H567 H 0.43731 0.79977 0.92242 0.0
H568 H 0.38 0.84529 0.82815 0.0
H569 H 0.41451 0.80054 0.87009 0.0
H570 H 0.33677 0.72105 0.92529 0.0
H571 H 0.30243 0.7659 0.88311 0.0
C572 C 0.41077 0.57821 0.9556 0.0
C573 C 0.44002 0.60933 0.96412 0.0
C574 C 0.39131 0.6256 0.93577 0.0
C575 C 0.40005 0.70665 0.92336 0.0
C576 C 0.42949 0.73786 0.93141 0.0
C577 C 0.44908 0.69029 0.95163 0.0
C578 C 0.37014 0.82343 0.85004 0.0
C579 C 0.33816 0.8115 0.85231 0.0
C580 C 0.3901 0.79627 0.87409 0.0
C581 C 0.37881 0.75455 0.90108 0.0
C582 C 0.34664 0.7507 0.90466 0.0
C583 C 0.32669 0.77884 0.88072 0.0
H584 H 0.5527 0.57044 0.13356 0.0
H585 H 0.63019 0.49171 0.07828 0.0
H586 H 0.58712 0.6156 0.17563 0.0
H587 H 0.66479 0.53687 0.12008 0.0
H588 H 0.72177 0.62134 0.20725 0.0
H589 H 0.68789 0.53829 0.1722 0.0
H590 H 0.61947 0.73947 0.1801 0.0
H591 H 0.65254 0.82059 0.21469 0.0
C592 C 0.57697 0.55771 0.13107 0.0
C593 C 0.58839 0.52515 0.1026 0.0
C594 C 0.59696 0.58604 0.15494 0.0
C595 C 0.62913 0.58253 0.15124 0.0
C596 C 0.64038 0.5409 0.12419 0.0
C597 C 0.62037 0.5135 0.10021 0.0
C598 C 0.69952 0.64788 0.20144 0.0
C599 C 0.69031 0.72861 0.21407 0.0
C600 C 0.67995 0.60002 0.18129 0.0
C601 C 0.65037 0.63072 0.17345 0.0
C602 C 0.64148 0.71156 0.18599 0.0
C603 C 0.66092 0.7592 0.20575 0.0
H604 H 0.30872 0.46596 0.20731 0.0
H605 H 0.37806 0.26706 0.21472 0.0
H606 H 0.34254 0.54908 0.17227 0.0
H607 H 0.41108 0.34825 0.18014 0.0
H608 H 0.47773 0.51749 0.13357 0.0
H609 H 0.44337 0.47225 0.17565 0.0
H610 H 0.36561 0.55046 0.12015 0.0
H611 H 0.40015 0.59573 0.07834 0.0
C612 C 0.33098 0.43951 0.20151 0.0
C613 C 0.34024 0.35886 0.21412 0.0
C614 C 0.35052 0.48742 0.18136 0.0
C615 C 0.38012 0.45683 0.1735 0.0
C616 C 0.38905 0.37607 0.18603 0.0
C617 C 0.36965 0.32839 0.2058 0.0
C618 C 0.45346 0.53009 0.13109 0.0
C619 C 0.44199 0.56254 0.10264 0.0
C620 C 0.43349 0.50171 0.15497 0.0
C621 C 0.40132 0.50504 0.15128 0.0
C622 C 0.39002 0.54656 0.12424 0.0
C623 C 0.41 0.57403 0.10027 0.0
H624 H 0.5595 0.86894 0.45761 0.0
H625 H 0.6278 0.07075 0.464 0.0
H626 H 0.59358 0.7862 0.42263 0.0
H627 H 0.66108 0.98987 0.42949 0.0
H628 H 0.72841 0.82179 0.38332 0.0
H629 H 0.69395 0.86652 0.42543 0.0
H630 H 0.61642 0.78477 0.37029 0.0
H631 H 0.65106 0.7401 0.32843 0.0
C632 C 0.58158 0.8961 0.45159 0.0
C633 C 0.59049 0.97744 0.46391 0.0
C634 C 0.60127 0.84842 0.43148 0.0
C635 C 0.63066 0.87992 0.42338 0.0
C636 C 0.63923 0.96138 0.4356 0.0
C637 C 0.61968 1.00886 0.45531 0.0
C638 C 0.70419 0.80828 0.38095 0.0
C639 C 0.69281 0.77508 0.35256 0.0
C640 C 0.68416 0.83636 0.40483 0.0
C641 C 0.65201 0.8319 0.40123 0.0
C642 C 0.64083 0.78954 0.3743 0.0
C643 C 0.66087 0.7624 0.3503 0.0
H644 H 0.47109 0.21716 0.45762 0.0
H645 H 0.40266 1.0157 0.46401 0.0
H646 H 0.43707 0.29996 0.42265 0.0
H647 H 0.36943 0.09666 0.4295 0.0
H648 H 0.30222 0.26515 0.38333 0.0
H649 H 0.33664 0.22015 0.42541 0.0
H650 H 0.41424 0.30143 0.37033 0.0
H651 H 0.37964 0.34639 0.3285 0.0
C652 C 0.44899 0.19008 0.4516 0.0
C653 C 0.44003 0.10883 0.46391 0.0
C654 C 0.42934 0.23781 0.4315 0.0
C655 C 0.39992 0.20643 0.42339 0.0
C656 C 0.3913 0.12505 0.4356 0.0
C657 C 0.41083 0.07753 0.45532 0.0
C658 C 0.32645 0.27849 0.38096 0.0
C659 C 0.33787 0.31167 0.3526 0.0
C660 C 0.34646 0.25025 0.40484 0.0
C661 C 0.37861 0.25452 0.40124 0.0
C662 C 0.38983 0.29681 0.37434 0.0
C663 C 0.36982 0.32412 0.35036 0.0
H664 H 0.02712 0.76069 0.09047 0.0
H665 H 1.00653 0.77038 0.99207 0.0
H666 H 0.03065 0.60305 0.08784 0.0
H667 H 1.00722 0.61316 0.98952 0.0
H668 H 1.0032 0.32796 0.09046 0.0
H669 H 0.99968 0.48559 0.08782 0.0
H670 H 0.02322 0.4751 0.98954 0.0
H671 H 0.0239 0.3179 0.99209 0.0
C672 C 0.02482 0.72928 0.06788 0.0
C673 C 0.01679 0.7787 0.04148 0.0
C674 C 0.02547 0.63801 0.06653 0.0
C675 C 0.01749 0.59308 1.03883 0.0
C676 C 1.0132 0.64339 1.01154 0.0
C677 C 1.01346 0.73474 1.01277 0.0
C678 C 1.00553 0.35928 0.06787 0.0
C679 C 1.01359 0.30977 0.04148 0.0
C680 C 1.00488 0.45055 0.06652 0.0
C681 C 1.01289 0.49537 1.03883 0.0
C682 C 0.01721 0.44496 1.01154 0.0
C683 C 0.01695 0.35361 1.01278 0.0
H684 H 0.25556 0.56557 0.24252 0.0
H685 H 0.27581 0.57518 0.34099 0.0
H686 H 0.25644 0.72274 0.24 0.0
H687 H 0.27957 0.73275 0.3384 0.0
H688 H 0.27363 1.01756 0.24243 0.0
H689 H 0.27253 0.8604 0.23997 0.0
H690 H 0.24919 0.85126 0.33832 0.0
H691 H 0.25318 1.0088 0.34087 0.0
C692 C 0.26244 0.60117 0.26326 0.0
C693 C 0.26569 0.5572 0.29195 0.0
C694 C 0.26231 0.69252 0.26203 0.0
C695 C 0.26661 0.74286 0.28934 0.0
C696 C 0.27441 0.69785 0.31707 0.0
C697 C 0.27361 0.60659 0.3184 0.0
C698 C 0.26664 0.98218 0.26317 0.0
C699 C 0.26348 1.02634 0.29185 0.0
C700 C 0.26665 0.89083 0.26198 0.0
C701 C 0.26226 0.84071 0.2893 0.0
C702 C 0.25444 0.88597 0.31699 0.0
C703 C 0.25536 0.97724 0.31829 0.0
H704 H 0.77743 0.07879 0.34089 0.0
H705 H 0.75676 0.06968 0.2425 0.0
H706 H 0.7815 0.23628 0.33832 0.0
H707 H 0.75792 0.22681 0.24002 0.0
H708 H 0.77496 0.52152 0.24239 0.0
H709 H 0.77398 0.36435 0.23995 0.0
H710 H 0.75136 0.35513 0.33848 0.0
H711 H 0.75525 0.51269 0.34098 0.0
C712 C 0.77521 0.11026 0.31832 0.0
C713 C 0.76703 0.06107 0.2919 0.0
C714 C 0.77618 0.20152 0.31699 0.0
C715 C 0.76832 0.2467 0.28932 0.0
C716 C 0.76383 0.19647 0.26202 0.0
C717 C 0.76381 0.10512 0.26322 0.0
C718 C 0.76817 0.4861 0.26318 0.0
C719 C 0.7651 0.53028 0.29187 0.0
C720 C 0.76824 0.39474 0.262 0.0
C721 C 0.76405 0.34459 0.28935 0.0
C722 C 0.75644 0.38984 0.3171 0.0
C723 C 0.7573 0.48112 0.31839 0.0
H724 H 0.0238 0.81725 0.49185 0.0
H725 H 1.00303 0.82759 0.59021 0.0
H726 H 0.02322 0.97444 0.48927 0.0
H727 H 0.99961 0.98523 0.58753 0.0
H728 H 0.02728 0.26008 0.59019 0.0
H729 H 0.03071 0.10243 0.58756 0.0
H730 H 1.00739 0.11269 0.48923 0.0
H731 H 1.00679 0.26991 0.49178 0.0
C732 C 0.01685 0.85303 0.51254 0.0
C733 C 1.01347 0.80925 0.54125 0.0
C734 C 0.01717 0.94437 0.51128 0.0
C735 C 1.01288 0.99486 0.53855 0.0
C736 C 1.0048 0.95013 0.56624 0.0
C737 C 1.00539 0.85885 0.56761 0.0
C738 C 0.02498 0.2287 0.5676 0.0
C739 C 0.01698 0.27816 0.5412 0.0
C740 C 0.02558 0.13742 0.56624 0.0
C741 C 0.01758 0.09254 0.53854 0.0
C742 C 1.01337 0.14288 0.51124 0.0
C743 C 1.01369 0.23423 0.51248 0.0
H744 H 0.27746 0.07681 0.8405 0.0
H745 H 0.25676 0.06632 0.74214 0.0
H746 H 0.28077 0.23446 0.8378 0.0
H747 H 0.25725 0.22353 0.73952 0.0
H748 H 0.27358 0.519 0.74207 0.0
H749 H 0.27306 0.36179 0.7395 0.0
H750 H 0.24948 0.35148 0.83777 0.0
H751 H 0.25282 0.50914 0.84042 0.0
C752 C 0.27509 0.10804 0.8179 0.0
C753 C 0.26706 0.0584 0.79154 0.0
C754 C 0.27562 0.19931 0.81651 0.0
C755 C 0.26753 0.24399 0.78881 0.0
C756 C 0.26329 0.19347 0.76154 0.0
C757 C 0.26368 0.10213 0.76282 0.0
C758 C 0.26664 0.48333 0.76275 0.0
C759 C 0.26326 0.52724 0.79147 0.0
C760 C 0.26701 0.39198 0.76151 0.0
C761 C 0.26275 0.34164 0.78879 0.0
C762 C 0.25465 0.3865 0.81647 0.0
C763 C 0.25519 0.47777 0.81783 0.0
H764 H 0.77754 0.57859 0.84037 0.0
H765 H 0.75688 0.56843 0.74199 0.0
H766 H 0.78092 0.73623 0.83773 0.0
H767 H 0.75743 0.72564 0.73944 0.0
H768 H 0.753 1.01097 0.84044 0.0
H769 H 0.74967 0.85332 0.83774 0.0
H770 H 0.77323 0.86389 0.73947 0.0
H771 H 0.77373 1.0211 0.74208 0.0
C772 C 0.7752 0.60989 0.81778 0.0
C773 C 0.76715 0.56035 0.7914 0.0
C774 C 0.77576 0.70116 0.81642 0.0
C775 C 0.76769 0.74594 0.78873 0.0
C776 C 0.76345 0.69551 0.76144 0.0
C777 C 0.7638 0.60417 0.76269 0.0
C778 C 0.75537 0.97966 0.81784 0.0
C779 C 0.76342 1.0292 0.79149 0.0
C780 C 0.75483 0.88839 0.81645 0.0
C781 C 0.76293 0.8436 0.78875 0.0
C782 C 0.76718 0.89402 0.76148 0.0
C783 C 0.76681 0.98536 0.76276 0.0
H784 H 0.52767 0.75927 0.59063 0.0
H785 H 0.50696 0.76948 0.49226 0.0
H786 H 0.53092 0.6016 0.58795 0.0
H787 H 0.5074 0.61226 0.48967 0.0
H788 H 0.52358 0.31664 0.4923 0.0
H789 H 0.52316 0.47384 0.48969 0.0
H790 H 0.49949 0.48494 0.58793 0.0
H791 H 0.50273 0.32727 0.59064 0.0
C792 C 0.5253 0.72797 0.56803 0.0
C793 C 0.51726 0.77754 0.54167 0.0
C794 C 0.52578 0.63669 0.56665 0.0
C795 C 0.51766 0.59196 0.53896 0.0
C796 C 0.51345 0.64237 0.51168 0.0
C797 C 0.51387 0.73371 0.51295 0.0
C798 C 0.51664 0.3525 0.51297 0.0
C799 C 0.51321 0.30879 0.5417 0.0
C800 C 0.51707 0.44383 0.5117 0.0
C801 C 0.51282 0.49436 0.53896 0.0
C802 C 0.50465 0.44975 0.56665 0.0
C803 C 0.50513 0.35848 0.56804 0.0
H804 H 0.52348 0.81729 0.99267 0.0
H805 H 0.5027 0.82788 0.09102 0.0
H806 H 0.52305 0.97448 0.99006 0.0
H807 H 0.49944 0.98555 0.08832 0.0
H808 H 0.52756 0.25994 0.091 0.0
H809 H 0.53081 0.10226 0.08833 0.0
H810 H 0.50732 0.11287 0.99004 0.0
H811 H 0.50689 0.27009 0.99262 0.0
C812 C 0.51655 0.85314 1.01334 0.0
C813 C 0.51315 0.80943 0.04207 0.0
C814 C 0.51697 0.94447 1.01207 0.0
C815 C 0.51274 0.99499 1.03934 0.0
C816 C 0.50459 0.95037 0.06703 0.0
C817 C 0.50509 0.8591 0.06842 0.0
C818 C 0.52519 0.22862 0.0684 0.0
C819 C 0.51716 0.27817 0.04204 0.0
C820 C 0.52568 0.13734 0.06703 0.0
C821 C 0.51757 0.09259 1.03934 0.0
C822 C 0.51337 0.14299 1.01205 0.0
C823 C 0.51379 0.23433 1.01331 0.0
H824 H 0.33718 0.17678 1.0373 0.0
H825 H 0.34161 0.43326 0.07749 0.0
H826 H 0.28404 0.16347 0.05412 0.0
H827 H 0.28841 0.42048 0.09488 0.0
H828 H 0.1935 0.40928 1.03721 0.0
H829 H 0.24658 0.42243 0.05423 0.0
H830 H 0.24207 0.16512 0.09462 0.0
H831 H 0.18891 0.15251 0.07703 0.0
C832 C 0.32695 0.22858 0.05094 0.0
C833 C 0.34303 0.30572 0.05623 0.0
C834 C 0.29674 0.22097 0.06086 0.0
C835 C 0.28212 0.29127 0.0757 0.0
C836 C 0.29922 0.36546 0.08352 0.0
C837 C 0.32955 0.37268 0.07373 0.0
C838 C 0.20367 0.35737 0.05082 0.0
C839 C 0.18757 0.28021 0.05595 0.0
C840 C 0.23385 0.3649 0.06085 0.0
C841 C 0.24841 0.29447 0.07564 0.0
C842 C 0.2313 0.22022 0.08329 0.0
C843 C 0.201 0.21309 0.07339 0.0
H844 H 0.84141 0.9359 0.07685 0.0
H845 H 0.83691 0.67905 1.03698 0.0
H846 H 0.78826 0.92321 0.09442 0.0
H847 H 0.78381 0.66581 0.05398 0.0
H848 H 0.68881 0.65471 0.07734 0.0
H849 H 0.74203 0.66768 0.09465 0.0
H850 H 0.74624 0.92469 0.05398 0.0
H851 H 0.69308 0.9112 1.03724 0.0
C852 C 0.82934 0.87529 0.07319 0.0
C853 C 0.84279 0.80817 0.05574 0.0
C854 C 0.79904 0.86811 0.08308 0.0
C855 C 0.78194 0.79381 0.07542 0.0
C856 C 0.79653 0.7234 0.0606 0.0
C857 C 0.82671 0.73097 0.05059 0.0
C858 C 0.70085 0.71534 0.07359 0.0
C859 C 0.6873 0.78225 0.05613 0.0
C860 C 0.73119 0.72266 0.08333 0.0
C861 C 0.74823 0.7969 0.07551 0.0
C862 C 0.73357 0.86716 0.06071 0.0
C863 C 0.70334 0.85944 0.05085 0.0
H864 H 0.0726 0.37728 0.29333 0.0
H865 H 0.10232 0.62516 0.32881 0.0
H866 H 0.02107 0.40494 0.31237 0.0
H867 H 0.0505 0.65401 0.34853 0.0
H868 H 0.95862 0.71181 0.29065 0.0
H869 H 1.01012 0.68616 0.31008 0.0
H870 H 0.98051 0.4419 0.35003 0.0
H871 H 0.92875 0.46847 0.32982 0.0
C872 C 0.06806 0.43642 0.30631 0.0
C873 C 0.09067 0.50008 0.30918 0.0
C874 C 0.03876 0.452 0.31765 0.0
C875 C 0.03165 0.53234 0.33159 0.0
C876 C 0.05536 0.5919 0.33763 0.0
C877 C 0.08482 0.57582 0.32636 0.0
C878 C 0.96312 0.65419 0.30447 0.0
C879 C 0.94044 0.59111 0.30833 0.0
C880 C 0.9924 0.63986 0.31606 0.0
C881 C 0.99944 0.56134 0.33128 0.0
C882 C 0.9757 0.50261 0.33816 0.0
C883 C 0.94626 0.51742 0.32661 0.0
H884 H 0.33723 0.67623 0.53721 0.0
H885 H 0.34172 0.93292 0.57722 0.0
H886 H 0.28409 0.66309 0.55406 0.0
H887 H 0.28852 0.92032 0.59463 0.0
H888 H 0.18896 0.65248 0.57704 0.0
H889 H 0.24212 0.66515 0.59461 0.0
H890 H 0.24672 0.92205 0.5539 0.0
H891 H 0.19363 0.90884 0.53688 0.0
C892 C 0.32702 0.72811 0.55082 0.0
C893 C 0.34311 0.80526 0.55605 0.0
C894 C 0.29681 0.7206 0.56075 0.0
C895 C 0.28221 0.79102 0.57555 0.0
C896 C 0.29931 0.86522 0.58331 0.0
C897 C 0.32964 0.87234 0.57351 0.0
C898 C 0.20107 0.71301 0.57333 0.0
C899 C 0.18766 0.77997 0.55578 0.0
C900 C 0.23137 0.72016 0.58321 0.0
C901 C 0.2485 0.7943 0.57547 0.0
C902 C 0.23397 0.8646 0.56058 0.0
C903 C 0.20379 0.85704 0.55055 0.0
H904 H 0.83685 0.17847 0.53659 0.0
H905 H 0.84146 0.43479 0.5769 0.0
H906 H 0.78378 0.16508 0.55365 0.0
H907 H 0.78832 0.42194 0.59452 0.0
H908 H 0.69314 0.41045 0.53721 0.0
H909 H 0.74629 0.42383 0.554 0.0
H910 H 0.74205 0.16661 0.59449 0.0
H911 H 0.68883 0.15377 0.57715 0.0
C912 C 0.82668 0.23022 0.5503 0.0
C913 C 0.84278 0.30733 0.55556 0.0
C914 C 0.79652 0.22256 0.56036 0.0
C915 C 0.78197 0.29279 0.57532 0.0
C916 C 0.79908 0.36697 0.58307 0.0
C917 C 0.82937 0.37423 0.57316 0.0
C918 C 0.70339 0.35862 0.5508 0.0
C919 C 0.68735 0.28141 0.55602 0.0
C920 C 0.73361 0.36628 0.56069 0.0
C921 C 0.74826 0.29593 0.57544 0.0
C922 C 0.73121 0.22165 0.5832 0.0
C923 C 0.70087 0.2144 0.57345 0.0
H924 H 0.94339 0.92798 0.78702 0.0
H925 H 0.93889 0.18462 0.82709 0.0
H926 H 0.9965 0.91451 0.80394 0.0
H927 H 0.99206 0.17168 0.84458 0.0
H928 H 0.08707 0.15974 0.78705 0.0
H929 H 0.03395 0.17325 0.80396 0.0
H930 H 0.03839 0.91617 0.84456 0.0
H931 H 0.09156 0.90318 0.82708 0.0
C932 C 0.95359 0.97979 0.80066 0.0
C933 C 0.9375 0.05701 0.80588 0.0
C934 C 0.98378 0.97208 0.81063 0.0
C935 C 0.99837 1.04238 0.82547 0.0
C936 C 0.98127 0.11667 0.83322 0.0
C937 C 0.95096 0.12398 0.82338 0.0
C938 C 0.07687 0.10796 0.80068 0.0
C939 C 0.09295 1.03075 0.80589 0.0
C940 C 0.04667 0.11569 0.81065 0.0
C941 C 0.03208 0.04543 0.82548 0.0
C942 C 0.04918 0.97115 0.83322 0.0
C943 C 0.07949 0.96382 0.82338 0.0
H944 H 0.59183 0.40438 0.82718 0.0
H945 H 0.58675 0.66083 0.78713 0.0
H946 H 0.53866 0.41649 0.84474 0.0
H947 H 0.53363 0.67345 0.80412 0.0
H948 H 0.43859 0.68319 0.82721 0.0
H949 H 0.49177 0.67114 0.84475 0.0
H950 H 0.49678 0.414 0.80414 0.0
H951 H 0.44365 0.42657 0.78717 0.0
C952 C 0.57963 0.46482 0.82349 0.0
C953 C 0.59293 0.53196 0.80598 0.0
C954 C 0.54932 0.47165 0.83338 0.0
C955 C 0.53206 0.54562 0.82565 0.0
C956 C 0.54648 0.61612 0.81079 0.0
C957 C 0.57668 0.6089 0.80078 0.0
C958 C 0.45079 0.62273 0.82352 0.0
C959 C 0.43748 0.55552 0.80601 0.0
C960 C 0.4811 0.61593 0.83339 0.0
C961 C 0.49836 0.54193 0.82566 0.0
C962 C 0.48393 0.47136 0.81082 0.0
C963 C 0.45373 0.47856 0.80082 0.0
H964 H 0.58681 0.1599 0.28821 0.0
H965 H 0.5917 0.90338 0.32822 0.0
H966 H 0.53377 0.17308 0.30539 0.0
H967 H 0.53859 0.91599 0.34595 0.0
H968 H 0.44381 0.92732 0.2878 0.0
H969 H 0.4968 0.91404 0.30512 0.0
H970 H 0.49185 0.17079 0.34605 0.0
H971 H 0.43879 0.18351 0.32818 0.0
C972 C 0.57672 0.10807 0.3019 0.0
C973 C 0.59287 1.03093 0.307 0.0
C974 C 0.54657 0.11561 0.31203 0.0
C975 C 0.5321 0.04521 0.32689 0.0
C976 C 0.54929 0.97107 0.33457 0.0
C977 C 0.57956 0.96394 0.32458 0.0
C978 C 0.45387 0.97905 0.30159 0.0
C979 C 0.43769 0.05613 0.30677 0.0
C980 C 0.48398 0.97144 0.3118 0.0
C981 C 0.4984 1.04172 0.32683 0.0
C982 C 0.48118 0.1158 0.33456 0.0
C983 C 0.45094 0.123 0.32449 0.0
loop_
_geom_bond_atom_site_label_1
_geom_bond_atom_site_label_2
_geom_bond_distance
_geom_bond_site_symmetry_2
_ccdc_geom_bond_type
Co0 N1 2.034 . S
Co0 O15 2.262 . S
Co0 O19 1.958 . S
Co0 O23 1.950 1_556 S
Co0 O24 2.057 . S
N1 Co0 2.034 . S
N1 C2 1.366 . S
N1 C4 1.332 1_556 S
C2 N1 1.366 . S
C2 C5 1.377 . S
C2 H34 0.931 . S
N3 C4 1.346 . S
N3 C5 1.337 1_554 S
C4 N1 1.332 1_554 S
C4 N3 1.346 . S
C4 C38 1.361 . S
C5 C2 1.377 . S
C5 N3 1.337 1_556 S
C5 H41 0.930 . S
Co6 N7 2.034 . S
Co6 O20 1.950 1_556 S
Co6 O21 2.262 . S
Co6 O22 1.958 . S
Co6 O26 2.057 . S
N7 Co6 2.034 . S
N7 C10 1.366 . S
N7 C11 1.332 1_556 S
N8 C9 1.337 1_554 S
N8 C11 1.346 . S
C9 N8 1.337 1_556 S
C9 C10 1.377 . S
C9 H42 0.930 . S
C10 N7 1.366 . S
C10 C9 1.377 . S
C10 H14 0.931 . S
C11 N7 1.332 1_554 S
C11 N8 1.346 . S
C11 C28 1.361 . S
Co12 O15 2.097 . S
Co12 O16 2.065 1_456 S
Co12 O17 2.065 1_546 S
Co12 O18 2.042 1_545 S
Co12 O21 2.097 1_445 S
Co12 O25 2.042 1_455 S
C13 O21 1.253 . S
C13 O26 1.263 . S
H14 C10 0.931 . S
O15 Co0 2.262 . S
O15 Co12 2.097 . S
O15 C39 1.253 . S
O16 Co12 2.065 1_654 S
O16 C32 1.223 . S
O17 Co12 2.065 1_564 S
O17 C27 1.222 . S
O18 Co12 2.042 1_565 S
O18 C33 1.237 . S
O19 Co0 1.958 . S
O19 C33 1.278 1_545 S
O20 Co6 1.950 1_554 S
O20 C32 1.272 1_565 S
O21 Co6 2.262 . S
O21 Co12 2.097 1_665 S
O21 C13 1.253 . S
O22 Co6 1.958 . S
O22 C40 1.278 1_565 S
O23 Co0 1.950 1_554 S
O23 C27 1.274 1_545 S
O24 Co0 2.057 . S
O24 C39 1.263 . S
O25 Co12 2.042 1_655 S
O25 C40 1.237 . S
O26 Co6 2.057 . S
O26 C13 1.263 . S
C27 O17 1.222 . S
C27 O23 1.274 1_565 S
C28 C11 1.361 . S
C28 H29 0.960 . S
C28 H30 0.961 . S
C28 H31 0.961 . S
H29 C28 0.960 . S
H30 C28 0.961 . S
H31 C28 0.961 . S
C32 O16 1.223 . S
C32 O20 1.272 1_545 S
C33 O18 1.237 . S
C33 O19 1.278 1_565 S
H34 C2 0.931 . S
H35 C38 0.961 . S
H36 C38 0.961 . S
H37 C38 0.960 . S
C38 C4 1.361 . S
C38 H35 0.961 . S
C38 H36 0.961 . S
C38 H37 0.960 . S
C39 O15 1.253 . S
C39 O24 1.263 . S
C40 O22 1.278 1_545 S
C40 O25 1.237 . S
H41 C5 0.930 . S
H42 C9 0.930 . S
Co43 N44 2.034 . S
Co43 O58 2.262 . S
Co43 O62 1.958 . S
Co43 O66 1.950 . S
Co43 O67 2.057 . S
N44 Co43 2.034 . S
N44 C45 1.366 . S
N44 C47 1.332 . S
C45 N44 1.366 . S
C45 C48 1.377 . S
C45 H77 0.931 . S
N46 C47 1.346 . S
N46 C48 1.337 . S
C47 N44 1.332 . S
C47 N46 1.346 . S
C47 C81 1.361 . S
C48 C45 1.377 . S
C48 N46 1.337 . S
C48 H84 0.930 . S
Co49 N50 2.034 . S
Co49 O63 1.950 . S
Co49 O64 2.262 . S
Co49 O65 1.958 . S
Co49 O69 2.057 . S
N50 Co49 2.034 . S
N50 C53 1.366 . S
N50 C54 1.332 . S
N51 C52 1.337 . S
N51 C54 1.346 . S
C52 N51 1.337 . S
C52 C53 1.377 . S
C52 H85 0.930 . S
C53 N50 1.366 . S
C53 C52 1.377 . S
C53 H57 0.931 . S
C54 N50 1.332 . S
C54 N51 1.346 . S
C54 C71 1.361 . S
Co55 O58 2.097 . S
Co55 O59 2.065 . S
Co55 O60 2.065 . S
Co55 O61 2.042 . S
Co55 O64 2.097 . S
Co55 O68 2.042 . S
C56 O64 1.253 . S
C56 O69 1.263 . S
H57 C53 0.931 . S
O58 Co43 2.262 . S
O58 Co55 2.097 . S
O58 C82 1.253 . S
O59 Co55 2.065 . S
O59 C75 1.221 . S
O60 Co55 2.065 . S
O60 C70 1.221 . S
O61 Co55 2.042 . S
O61 C76 1.237 . S
O62 Co43 1.958 . S
O62 C76 1.278 . S
O63 Co49 1.950 . S
O63 C75 1.277 . S
O64 Co49 2.262 . S
O64 Co55 2.097 . S
O64 C56 1.253 . S
O65 Co49 1.958 . S
O65 C83 1.278 . S
O66 Co43 1.950 . S
O66 C70 1.277 . S
O67 Co43 2.057 . S
O67 C82 1.263 . S
O68 Co55 2.042 . S
O68 C83 1.237 . S
O69 Co49 2.057 . S
O69 C56 1.263 . S
C70 O60 1.221 . S
C70 O66 1.277 . S
C71 C54 1.361 . S
C71 H72 0.960 . S
C71 H73 0.961 . S
C71 H74 0.961 1_545 S
H72 C71 0.960 . S
H73 C71 0.961 . S
H74 C71 0.961 1_565 S
C75 O59 1.221 . S
C75 O63 1.277 . S
C76 O61 1.237 . S
C76 O62 1.278 . S
H77 C45 0.931 . S
H78 C81 0.961 . S
H79 C81 0.961 . S
H80 C81 0.960 . S
C81 C47 1.361 . S
C81 H78 0.961 . S
C81 H79 0.961 . S
C81 H80 0.960 . S
C82 O58 1.253 . S
C82 O67 1.263 . S
C83 O65 1.278 . S
C83 O68 1.237 . S
H84 C48 0.930 . S
H85 C52 0.930 . S
Co86 N87 2.034 . S
Co86 O101 2.262 . S
Co86 O105 1.958 . S
Co86 O109 1.950 . S
Co86 O110 2.057 . S
N87 Co86 2.034 . S
N87 C88 1.366 . S
N87 C90 1.332 . S
C88 N87 1.366 . S
C88 C91 1.377 . S
C88 H120 0.931 . S
N89 C90 1.346 . S
N89 C91 1.337 . S
C90 N87 1.332 . S
C90 N89 1.346 . S
C90 C124 1.361 . S
C91 C88 1.377 . S
C91 N89 1.337 . S
C91 H127 0.930 . S
Co92 N93 2.034 . S
Co92 O106 1.950 . S
Co92 O107 2.262 . S
Co92 O108 1.958 . S
Co92 O112 2.057 . S
N93 Co92 2.034 . S
N93 C96 1.366 . S
N93 C97 1.332 . S
N94 C95 1.337 . S
N94 C97 1.346 . S
C95 N94 1.337 . S
C95 C96 1.377 . S
C95 H128 0.930 . S
C96 N93 1.366 . S
C96 C95 1.377 . S
C96 H100 0.931 . S
C97 N93 1.332 . S
C97 N94 1.346 . S
C97 C114 1.361 . S
Co98 O101 2.097 . S
Co98 O102 2.065 . S
Co98 O103 2.065 . S
Co98 O104 2.042 . S
Co98 O107 2.097 . S
Co98 O111 2.042 . S
C99 O107 1.253 . S
C99 O112 1.263 . S
H100 C96 0.931 . S
O101 Co86 2.262 . S
O101 Co98 2.097 . S
O101 C125 1.253 . S
O102 Co98 2.065 . S
O102 C118 1.221 . S
O103 Co98 2.065 . S
O103 C113 1.221 . S
O104 Co98 2.042 . S
O104 C119 1.237 . S
O105 Co86 1.958 . S
O105 C119 1.278 . S
O106 Co92 1.950 . S
O106 C118 1.277 . S
O107 Co92 2.262 . S
O107 Co98 2.097 . S
O107 C99 1.253 . S
O108 Co92 1.958 . S
O108 C126 1.278 . S
O109 Co86 1.950 . S
O109 C113 1.277 . S
O110 Co86 2.057 . S
O110 C125 1.263 . S
O111 Co98 2.042 . S
O111 C126 1.237 . S
O112 Co92 2.057 . S
O112 C99 1.263 . S
C113 O103 1.221 . S
C113 O109 1.277 . S
C114 C97 1.361 . S
C114 H115 0.960 . S
C114 H116 0.961 . S
C114 H117 0.961 . S
H115 C114 0.960 . S
H116 C114 0.961 . S
H117 C114 0.961 . S
C118 O102 1.221 . S
C118 O106 1.277 . S
C119 O104 1.237 . S
C119 O105 1.278 . S
H120 C88 0.931 . S
H121 C124 0.961 1_545 S
H122 C124 0.961 . S
H123 C124 0.960 . S
C124 C90 1.361 . S
C124 H121 0.961 1_565 S
C124 H122 0.961 . S
C124 H123 0.960 . S
C125 O101 1.253 . S
C125 O110 1.263 . S
C126 O108 1.278 . S
C126 O111 1.237 . S
H127 C91 0.930 . S
H128 C95 0.930 . S
Co129 N130 2.034 . S
Co129 O144 2.262 . S
Co129 O148 1.958 . S
Co129 O152 1.950 . S
Co129 O153 2.057 . S
N130 Co129 2.034 . S
N130 C131 1.366 . S
N130 C133 1.332 . S
C131 N130 1.366 . S
C131 C134 1.377 . S
C131 H163 0.931 . S
N132 C133 1.346 . S
N132 C134 1.337 . S
C133 N130 1.332 . S
C133 N132 1.346 . S
C133 C167 1.361 . S
C134 C131 1.377 . S
C134 N132 1.337 . S
C134 H170 0.930 . S
Co135 N136 2.034 . S
Co135 O149 1.950 . S
Co135 O150 2.262 . S
Co135 O151 1.958 . S
Co135 O155 2.057 . S
N136 Co135 2.034 . S
N136 C139 1.366 . S
N136 C140 1.332 . S
N137 C138 1.337 . S
N137 C140 1.346 . S
C138 N137 1.337 . S
C138 C139 1.377 . S
C138 H171 0.930 . S
C139 N136 1.366 . S
C139 C138 1.377 . S
C139 H143 0.931 . S
C140 N136 1.332 . S
C140 N137 1.346 . S
C140 C157 1.361 . S
Co141 O144 2.097 . S
Co141 O145 2.065 1_455 S
Co141 O146 2.065 . S
Co141 O147 2.042 . S
Co141 O150 2.097 1_455 S
Co141 O154 2.042 1_455 S
C142 O150 1.253 . S
C142 O155 1.263 . S
H143 C139 0.931 . S
O144 Co129 2.262 . S
O144 Co141 2.097 . S
O144 C168 1.253 . S
O145 Co141 2.065 1_655 S
O145 C161 1.221 . S
O146 Co141 2.065 . S
O146 C156 1.221 . S
O147 Co141 2.042 . S
O147 C162 1.237 . S
O148 Co129 1.958 . S
O148 C162 1.278 . S
O149 Co135 1.950 . S
O149 C161 1.277 . S
O150 Co135 2.262 . S
O150 Co141 2.097 1_655 S
O150 C142 1.253 . S
O151 Co135 1.958 . S
O151 C169 1.278 . S
O152 Co129 1.950 . S
O152 C156 1.277 . S
O153 Co129 2.057 . S
O153 C168 1.263 . S
O154 Co141 2.042 1_655 S
O154 C169 1.237 . S
O155 Co135 2.057 . S
O155 C142 1.263 . S
C156 O146 1.221 . S
C156 O152 1.277 . S
C157 C140 1.361 . S
C157 H158 0.960 . S
C157 H159 0.961 . S
C157 H160 0.961 . S
H158 C157 0.960 . S
H159 C157 0.961 . S
H160 C157 0.961 . S
C161 O145 1.221 . S
C161 O149 1.277 . S
C162 O147 1.237 . S
C162 O148 1.278 . S
H163 C131 0.931 . S
H164 C167 0.961 . S
H165 C167 0.961 . S
H166 C167 0.960 . S
C167 C133 1.361 . S
C167 H164 0.961 . S
C167 H165 0.961 . S
C167 H166 0.960 . S
C168 O144 1.253 . S
C168 O153 1.263 . S
C169 O151 1.278 . S
C169 O154 1.237 . S
H170 C134 0.930 . S
H171 C138 0.930 . S
Co172 N173 2.034 . S
Co172 O187 2.262 . S
Co172 O191 1.958 . S
Co172 O195 1.950 . S
Co172 O196 2.057 . S
N173 Co172 2.034 . S
N173 C174 1.366 . S
N173 C176 1.332 . S
C174 N173 1.366 . S
C174 C177 1.377 . S
C174 H206 0.931 . S
N175 C176 1.346 . S
N175 C177 1.337 . S
C176 N173 1.332 . S
C176 N175 1.346 . S
C176 C210 1.361 . S
C177 C174 1.377 . S
C177 N175 1.337 . S
C177 H213 0.930 . S
Co178 N179 2.034 . S
Co178 O192 1.950 . S
Co178 O193 2.262 . S
Co178 O194 1.958 . S
Co178 O198 2.057 . S
N179 Co178 2.034 . S
N179 C182 1.366 . S
N179 C183 1.332 . S
N180 C181 1.337 . S
N180 C183 1.346 . S
C181 N180 1.337 . S
C181 C182 1.377 . S
C181 H214 0.930 . S
C182 N179 1.366 . S
C182 C181 1.377 . S
C182 H186 0.931 . S
C183 N179 1.332 . S
C183 N180 1.346 . S
C183 C200 1.361 . S
Co184 O187 2.097 . S
Co184 O188 2.065 . S
Co184 O189 2.065 . S
Co184 O190 2.042 . S
Co184 O193 2.097 . S
Co184 O197 2.042 . S
C185 O193 1.253 . S
C185 O198 1.263 . S
H186 C182 0.931 . S
O187 Co172 2.262 . S
O187 Co184 2.097 . S
O187 C211 1.253 . S
O188 Co184 2.065 . S
O188 C204 1.221 . S
O189 Co184 2.065 . S
O189 C199 1.221 . S
O190 Co184 2.042 . S
O190 C205 1.237 . S
O191 Co172 1.958 . S
O191 C205 1.278 . S
O192 Co178 1.950 . S
O192 C204 1.277 . S
O193 Co178 2.262 . S
O193 Co184 2.097 . S
O193 C185 1.253 . S
O194 Co178 1.958 . S
O194 C212 1.278 . S
O195 Co172 1.950 . S
O195 C199 1.277 . S
O196 Co172 2.057 . S
O196 C211 1.263 . S
O197 Co184 2.042 . S
O197 C212 1.237 . S
O198 Co178 2.057 . S
O198 C185 1.263 . S
C199 O189 1.221 . S
C199 O195 1.277 . S
C200 C183 1.361 . S
C200 H201 0.960 . S
C200 H202 0.961 . S
C200 H203 0.961 . S
H201 C200 0.960 . S
H202 C200 0.961 . S
H203 C200 0.961 . S
C204 O188 1.221 . S
C204 O192 1.277 . S
C205 O190 1.237 . S
C205 O191 1.278 . S
H206 C174 0.931 . S
H207 C210 0.961 1_545 S
H208 C210 0.961 . S
H209 C210 0.960 . S
C210 C176 1.361 . S
C210 H207 0.961 1_565 S
C210 H208 0.961 . S
C210 H209 0.960 . S
C211 O187 1.253 . S
C211 O196 1.263 . S
C212 O194 1.278 . S
C212 O197 1.237 . S
H213 C177 0.930 . S
H214 C181 0.930 . S
Co215 N216 2.034 . S
Co215 O230 2.262 . S
Co215 O234 1.958 . S
Co215 O238 1.950 . S
Co215 O239 2.057 . S
N216 Co215 2.034 . S
N216 C217 1.366 . S
N216 C219 1.332 . S
C217 N216 1.366 . S
C217 C220 1.377 . S
C217 H249 0.931 . S
N218 C219 1.346 . S
N218 C220 1.337 . S
C219 N216 1.332 . S
C219 N218 1.346 . S
C219 C253 1.361 . S
C220 C217 1.377 . S
C220 N218 1.337 . S
C220 H256 0.930 . S
Co221 N222 2.034 . S
Co221 O235 1.950 . S
Co221 O236 2.262 . S
Co221 O237 1.958 . S
Co221 O241 2.057 . S
N222 Co221 2.034 . S
N222 C225 1.366 . S
N222 C226 1.332 . S
N223 C224 1.337 . S
N223 C226 1.346 . S
C224 N223 1.337 . S
C224 C225 1.377 . S
C224 H257 0.930 . S
C225 N222 1.366 . S
C225 C224 1.377 . S
C225 H229 0.931 . S
C226 N222 1.332 . S
C226 N223 1.346 . S
C226 C243 1.361 . S
Co227 O230 2.097 . S
Co227 O231 2.065 . S
Co227 O232 2.065 . S
Co227 O233 2.042 . S
Co227 O236 2.097 . S
Co227 O240 2.042 . S
C228 O236 1.253 . S
C228 O241 1.263 . S
H229 C225 0.931 . S
O230 Co215 2.262 . S
O230 Co227 2.097 . S
O230 C254 1.253 . S
O231 Co227 2.065 . S
O231 C247 1.221 . S
O232 Co227 2.065 . S
O232 C242 1.221 . S
O233 Co227 2.042 . S
O233 C248 1.237 . S
O234 Co215 1.958 . S
O234 C248 1.278 . S
O235 Co221 1.950 . S
O235 C247 1.277 . S
O236 Co221 2.262 . S
O236 Co227 2.097 . S
O236 C228 1.253 . S
O237 Co221 1.958 . S
O237 C255 1.278 . S
O238 Co215 1.950 . S
O238 C242 1.277 . S
O239 Co215 2.057 . S
O239 C254 1.263 . S
O240 Co227 2.042 . S
O240 C255 1.237 . S
O241 Co221 2.057 . S
O241 C228 1.263 . S
C242 O232 1.221 . S
C242 O238 1.277 . S
C243 C226 1.361 . S
C243 H244 0.960 . S
C243 H245 0.961 . S
C243 H246 0.961 . S
H244 C243 0.960 . S
H245 C243 0.961 . S
H246 C243 0.961 . S
C247 O231 1.221 . S
C247 O235 1.277 . S
C248 O233 1.237 . S
C248 O234 1.278 . S
H249 C217 0.931 . S
H250 C253 0.961 1_565 S
H251 C253 0.961 . S
H252 C253 0.960 . S
C253 C219 1.361 . S
C253 H250 0.961 1_545 S
C253 H251 0.961 . S
C253 H252 0.960 . S
C254 O230 1.253 . S
C254 O239 1.263 . S
C255 O237 1.278 . S
C255 O240 1.237 . S
H256 C220 0.930 . S
H257 C224 0.930 . S
Co258 N259 2.034 . S
Co258 O273 2.262 . S
Co258 O277 1.958 . S
Co258 O281 1.950 . S
Co258 O282 2.057 . S
N259 Co258 2.034 . S
N259 C260 1.366 . S
N259 C262 1.332 . S
C260 N259 1.366 . S
C260 C263 1.377 . S
C260 H292 0.931 . S
N261 C262 1.346 . S
N261 C263 1.337 . S
C262 N259 1.332 . S
C262 N261 1.346 . S
C262 C296 1.361 . S
C263 C260 1.377 . S
C263 N261 1.337 . S
C263 H299 0.930 . S
Co264 N265 2.034 . S
Co264 O278 1.950 . S
Co264 O279 2.262 . S
Co264 O280 1.958 . S
Co264 O284 2.057 . S
N265 Co264 2.034 . S
N265 C268 1.366 . S
N265 C269 1.332 . S
N266 C267 1.337 . S
N266 C269 1.346 . S
C267 N266 1.337 . S
C267 C268 1.377 . S
C267 H300 0.930 . S
C268 N265 1.366 . S
C268 C267 1.377 . S
C268 H272 0.931 . S
C269 N265 1.332 . S
C269 N266 1.346 . S
C269 C286 1.361 . S
Co270 O273 2.097 . S
Co270 O274 2.065 . S
Co270 O275 2.065 1_545 S
Co270 O276 2.042 1_545 S
Co270 O279 2.097 1_545 S
Co270 O283 2.042 . S
C271 O279 1.253 . S
C271 O284 1.263 . S
H272 C268 0.931 . S
O273 Co258 2.262 . S
O273 Co270 2.097 . S
O273 C297 1.253 . S
O274 Co270 2.065 . S
O274 C290 1.223 . S
O275 Co270 2.065 1_565 S
O275 C285 1.222 . S
O276 Co270 2.042 1_565 S
O276 C291 1.237 . S
O277 Co258 1.958 . S
O277 C291 1.278 1_545 S
O278 Co264 1.950 . S
O278 C290 1.272 1_565 S
O279 Co264 2.262 . S
O279 Co270 2.097 1_565 S
O279 C271 1.253 . S
O280 Co264 1.958 . S
O280 C298 1.278 1_565 S
O281 Co258 1.950 . S
O281 C285 1.274 1_545 S
O282 Co258 2.057 . S
O282 C297 1.263 . S
O283 Co270 2.042 . S
O283 C298 1.237 . S
O284 Co264 2.057 . S
O284 C271 1.263 . S
C285 O275 1.222 . S
C285 O281 1.274 1_565 S
C286 C269 1.361 . S
C286 H287 0.960 . S
C286 H288 0.961 . S
C286 H289 0.961 . S
H287 C286 0.960 . S
H288 C286 0.961 . S
H289 C286 0.961 . S
C290 O274 1.223 . S
C290 O278 1.272 1_545 S
C291 O276 1.237 . S
C291 O277 1.278 1_565 S
H292 C260 0.931 . S
H293 C296 0.961 . S
H294 C296 0.961 . S
H295 C296 0.960 . S
C296 C262 1.361 . S
C296 H293 0.961 . S
C296 H294 0.961 . S
C296 H295 0.960 . S
C297 O273 1.253 . S
C297 O282 1.263 . S
C298 O280 1.278 1_545 S
C298 O283 1.237 . S
H299 C263 0.930 . S
H300 C267 0.930 . S
Co301 N302 2.034 . S
Co301 O316 2.262 . S
Co301 O320 1.958 . S
Co301 O324 1.950 1_556 S
Co301 O325 2.057 . S
N302 Co301 2.034 . S
N302 C303 1.366 . S
N302 C305 1.332 1_556 S
C303 N302 1.366 . S
C303 C306 1.377 . S
C303 H335 0.931 . S
N304 C305 1.346 . S
N304 C306 1.337 1_554 S
C305 N302 1.332 1_554 S
C305 N304 1.346 . S
C305 C339 1.361 . S
C306 C303 1.377 . S
C306 N304 1.337 1_556 S
C306 H342 0.930 . S
Co307 N308 2.034 . S
Co307 O321 1.950 1_556 S
Co307 O322 2.262 . S
Co307 O323 1.958 . S
Co307 O327 2.057 . S
N308 Co307 2.034 . S
N308 C311 1.366 . S
N308 C312 1.332 1_556 S
N309 C310 1.337 1_554 S
N309 C312 1.346 . S
C310 N309 1.337 1_556 S
C310 C311 1.377 . S
C310 H343 0.930 . S
C311 N308 1.366 . S
C311 C310 1.377 . S
C311 H315 0.931 . S
C312 N308 1.332 1_554 S
C312 N309 1.346 . S
C312 C329 1.361 . S
Co313 O316 2.097 . S
Co313 O317 2.065 1_556 S
Co313 O318 2.065 1_556 S
Co313 O319 2.042 . S
Co313 O322 2.097 . S
Co313 O326 2.042 . S
C314 O322 1.253 . S
C314 O327 1.263 . S
H315 C311 0.931 . S
O316 Co301 2.262 . S
O316 Co313 2.097 . S
O316 C340 1.253 . S
O317 Co313 2.065 1_554 S
O317 C333 1.221 . S
O318 Co313 2.065 1_554 S
O318 C328 1.221 . S
O319 Co313 2.042 . S
O319 C334 1.237 . S
O320 Co301 1.958 . S
O320 C334 1.278 . S
O321 Co307 1.950 1_554 S
O321 C333 1.277 . S
O322 Co307 2.262 . S
O322 Co313 2.097 . S
O322 C314 1.253 . S
O323 Co307 1.958 . S
O323 C341 1.278 . S
O324 Co301 1.950 1_554 S
O324 C328 1.277 . S
O325 Co301 2.057 . S
O325 C340 1.263 . S
O326 Co313 2.042 . S
O326 C341 1.237 . S
O327 Co307 2.057 . S
O327 C314 1.263 . S
C328 O318 1.221 . S
C328 O324 1.277 . S
C329 C312 1.361 . S
C329 H330 0.960 . S
C329 H331 0.961 . S
C329 H332 0.961 . S
H330 C329 0.960 . S
H331 C329 0.961 . S
H332 C329 0.961 . S
C333 O317 1.221 . S
C333 O321 1.277 . S
C334 O319 1.237 . S
C334 O320 1.278 . S
H335 C303 0.931 . S
H336 C339 0.961 . S
H337 C339 0.961 . S
H338 C339 0.960 . S
C339 C305 1.361 . S
C339 H336 0.961 . S
C339 H337 0.961 . S
C339 H338 0.960 . S
C340 O316 1.253 . S
C340 O325 1.263 . S
C341 O323 1.278 . S
C341 O326 1.237 . S
H342 C306 0.930 . S
H343 C310 0.930 . S
H344 C352 0.950 . S
H345 C357 0.950 1_565 S
H346 C354 0.950 . S
H347 C356 0.950 . S
H348 C358 0.950 . S
H349 C360 0.950 . S
H350 C362 0.950 . S
H351 C363 0.950 . S
C352 H344 0.950 . S
C352 C353 1.386 . S
C352 C354 1.391 . S
C353 C352 1.386 . S
C353 C357 1.393 . S
C354 H346 0.950 . S
C354 C352 1.391 . S
C354 C355 1.400 . S
C355 C354 1.400 . S
C355 C356 1.398 . S
C355 C361 1.491 . S
C356 H347 0.950 . S
C356 C355 1.398 . S
C356 C357 1.391 . S
C357 H345 0.950 1_545 S
C357 C353 1.393 . S
C357 C356 1.391 . S
C358 H348 0.950 . S
C358 C359 1.386 . S
C358 C360 1.391 . S
C359 C358 1.386 . S
C359 C363 1.393 . S
C360 H349 0.950 . S
C360 C358 1.391 . S
C360 C361 1.400 . S
C361 C355 1.491 . S
C361 C360 1.400 . S
C361 C362 1.398 . S
C362 H350 0.950 . S
C362 C361 1.398 . S
C362 C363 1.391 . S
C363 H351 0.950 . S
C363 C359 1.393 . S
C363 C362 1.391 . S
H364 C372 0.950 . S
H365 C377 0.950 . S
H366 C374 0.950 . S
H367 C376 0.950 1_545 S
H368 C378 0.950 . S
H369 C380 0.950 . S
H370 C382 0.950 . S
H371 C383 0.950 . S
C372 H364 0.950 . S
C372 C373 1.386 . S
C372 C374 1.391 . S
C373 C372 1.386 . S
C373 C377 1.393 1_565 S
C374 H366 0.950 . S
C374 C372 1.391 . S
C374 C375 1.400 . S
C375 C374 1.400 . S
C375 C376 1.398 . S
C375 C381 1.491 . S
C376 H367 0.950 1_565 S
C376 C375 1.398 . S
C376 C377 1.391 1_565 S
C377 H365 0.950 . S
C377 C373 1.393 1_545 S
C377 C376 1.391 1_545 S
C378 H368 0.950 . S
C378 C379 1.386 . S
C378 C380 1.391 . S
C379 C378 1.386 . S
C379 C383 1.393 . S
C380 H369 0.950 . S
C380 C378 1.391 . S
C380 C381 1.400 . S
C381 C375 1.491 . S
C381 C380 1.400 . S
C381 C382 1.398 . S
C382 H370 0.950 . S
C382 C381 1.398 . S
C382 C383 1.391 . S
C383 H371 0.950 . S
C383 C379 1.393 . S
C383 C382 1.391 . S
H384 C392 0.950 . S
H385 C397 0.950 . S
H386 C394 0.950 . S
H387 C396 0.950 . S
H388 C398 0.950 . S
H389 C400 0.950 . S
H390 C402 0.950 . S
H391 C403 0.950 . S
C392 H384 0.950 . S
C392 C393 1.386 . S
C392 C394 1.391 . S
C393 C392 1.386 . S
C393 C397 1.393 . S
C394 H386 0.950 . S
C394 C392 1.391 . S
C394 C395 1.400 . S
C395 C394 1.400 . S
C395 C396 1.398 . S
C395 C401 1.491 . S
C396 H387 0.950 . S
C396 C395 1.398 . S
C396 C397 1.391 . S
C397 H385 0.950 . S
C397 C393 1.393 . S
C397 C396 1.391 . S
C398 H388 0.950 . S
C398 C399 1.386 . S
C398 C400 1.391 . S
C399 C398 1.386 . S
C399 C403 1.393 . S
C400 H389 0.950 . S
C400 C398 1.391 . S
C400 C401 1.400 . S
C401 C395 1.491 . S
C401 C400 1.400 . S
C401 C402 1.398 . S
C402 H390 0.950 . S
C402 C401 1.398 . S
C402 C403 1.391 . S
C403 H391 0.950 . S
C403 C399 1.393 . S
C403 C402 1.391 . S
H404 C412 0.950 . S
H405 C417 0.950 . S
H406 C414 0.950 . S
H407 C416 0.950 . S
H408 C418 0.950 . S
H409 C420 0.950 . S
H410 C422 0.950 . S
H411 C423 0.950 . S
C412 H404 0.950 . S
C412 C413 1.386 . S
C412 C414 1.391 . S
C413 C412 1.386 . S
C413 C417 1.393 . S
C414 H406 0.950 . S
C414 C412 1.391 . S
C414 C415 1.400 . S
C415 C414 1.400 . S
C415 C416 1.398 . S
C415 C421 1.491 . S
C416 H407 0.950 . S
C416 C415 1.398 . S
C416 C417 1.391 . S
C417 H405 0.950 . S
C417 C413 1.393 . S
C417 C416 1.391 . S
C418 H408 0.950 . S
C418 C419 1.386 . S
C418 C420 1.391 . S
C419 C418 1.386 . S
C419 C423 1.393 . S
C420 H409 0.950 . S
C420 C418 1.391 . S
C420 C421 1.400 . S
C421 C415 1.491 . S
C421 C420 1.400 . S
C421 C422 1.398 . S
C422 H410 0.950 . S
C422 C421 1.398 . S
C422 C423 1.391 . S
C423 H411 0.950 . S
C423 C419 1.393 . S
C423 C422 1.391 . S
H424 C432 0.950 . S
H425 C437 0.950 . S
H426 C434 0.950 . S
H427 C436 0.950 . S
H428 C438 0.950 . S
H429 C440 0.950 . S
H430 C442 0.950 . S
H431 C443 0.950 . S
C432 H424 0.950 . S
C432 C433 1.386 . S
C432 C434 1.391 . S
C433 C432 1.386 . S
C433 C437 1.393 . S
C434 H426 0.950 . S
C434 C432 1.391 . S
C434 C435 1.400 . S
C435 C434 1.400 . S
C435 C436 1.398 . S
C435 C441 1.491 . S
C436 H427 0.950 . S
C436 C435 1.398 . S
C436 C437 1.391 . S
C437 H425 0.950 . S
C437 C433 1.393 . S
C437 C436 1.391 . S
C438 H428 0.950 . S
C438 C439 1.386 . S
C438 C440 1.391 . S
C439 C438 1.386 . S
C439 C443 1.393 . S
C440 H429 0.950 . S
C440 C438 1.391 . S
C440 C441 1.400 . S
C441 C435 1.491 . S
C441 C440 1.400 . S
C441 C442 1.398 . S
C442 H430 0.950 . S
C442 C441 1.398 . S
C442 C443 1.391 . S
C443 H431 0.950 . S
C443 C439 1.393 . S
C443 C442 1.391 . S
H444 C452 0.950 . S
H445 C457 0.950 . S
H446 C454 0.950 . S
H447 C456 0.950 . S
H448 C458 0.950 . S
H449 C460 0.950 . S
H450 C462 0.950 . S
H451 C463 0.950 . S
C452 H444 0.950 . S
C452 C453 1.386 . S
C452 C454 1.391 . S
C453 C452 1.386 . S
C453 C457 1.393 . S
C454 H446 0.950 . S
C454 C452 1.391 . S
C454 C455 1.400 . S
C455 C454 1.400 . S
C455 C456 1.398 . S
C455 C461 1.491 . S
C456 H447 0.950 . S
C456 C455 1.398 . S
C456 C457 1.391 . S
C457 H445 0.950 . S
C457 C453 1.393 . S
C457 C456 1.391 . S
C458 H448 0.950 . S
C458 C459 1.386 . S
C458 C460 1.391 . S
C459 C458 1.386 . S
C459 C463 1.393 . S
C460 H449 0.950 . S
C460 C458 1.391 . S
C460 C461 1.400 . S
C461 C455 1.491 . S
C461 C460 1.400 . S
C461 C462 1.398 . S
C462 H450 0.950 . S
C462 C461 1.398 . S
C462 C463 1.391 . S
C463 H451 0.950 . S
C463 C459 1.393 . S
C463 C462 1.391 . S
H464 C472 0.950 . S
H465 C477 0.950 . S
H466 C474 0.950 . S
H467 C476 0.950 . S
H468 C478 0.950 . S
H469 C480 0.950 . S
H470 C482 0.950 . S
H471 C483 0.950 1_545 S
C472 H464 0.950 . S
C472 C473 1.386 . S
C472 C474 1.391 . S
C473 C472 1.386 . S
C473 C477 1.393 . S
C474 H466 0.950 . S
C474 C472 1.391 . S
C474 C475 1.400 . S
C475 C474 1.400 . S
C475 C476 1.398 . S
C475 C481 1.491 . S
C476 H467 0.950 . S
C476 C475 1.398 . S
C476 C477 1.391 . S
C477 H465 0.950 . S
C477 C473 1.393 . S
C477 C476 1.391 . S
C478 H468 0.950 . S
C478 C479 1.386 . S
C478 C480 1.391 . S
C479 C478 1.386 . S
C479 C483 1.393 . S
C480 H469 0.950 . S
C480 C478 1.391 . S
C480 C481 1.400 . S
C481 C475 1.491 . S
C481 C480 1.400 . S
C481 C482 1.398 . S
C482 H470 0.950 . S
C482 C481 1.398 . S
C482 C483 1.391 . S
C483 H471 0.950 1_565 S
C483 C479 1.393 . S
C483 C482 1.391 . S
H484 C492 0.950 . S
H485 C497 0.950 . S
H486 C494 0.950 . S
H487 C496 0.950 . S
H488 C498 0.950 1_565 S
H489 C500 0.950 . S
H490 C502 0.950 . S
H491 C503 0.950 . S
C492 H484 0.950 . S
C492 C493 1.386 . S
C492 C494 1.391 . S
C493 C492 1.386 . S
C493 C497 1.393 . S
C494 H486 0.950 . S
C494 C492 1.391 . S
C494 C495 1.400 . S
C495 C494 1.400 . S
C495 C496 1.398 . S
C495 C501 1.491 . S
C496 H487 0.950 . S
C496 C495 1.398 . S
C496 C497 1.391 . S
C497 H485 0.950 . S
C497 C493 1.393 . S
C497 C496 1.391 . S
C498 H488 0.950 1_545 S
C498 C499 1.386 . S
C498 C500 1.391 . S
C499 C498 1.386 . S
C499 C503 1.393 . S
C500 H489 0.950 . S
C500 C498 1.391 . S
C500 C501 1.400 . S
C501 C495 1.491 . S
C501 C500 1.400 . S
C501 C502 1.398 . S
C502 H490 0.950 . S
C502 C501 1.398 . S
C502 C503 1.391 . S
C503 H491 0.950 . S
C503 C499 1.393 . S
C503 C502 1.391 . S
H504 C512 0.950 . S
H505 C517 0.950 . S
H506 C514 0.950 . S
H507 C516 0.950 . S
H508 C518 0.950 . S
H509 C520 0.950 . S
H510 C522 0.950 . S
H511 C523 0.950 . S
C512 H504 0.950 . S
C512 C513 1.386 . S
C512 C514 1.391 . S
C513 C512 1.386 . S
C513 C517 1.393 . S
C514 H506 0.950 . S
C514 C512 1.391 . S
C514 C515 1.400 . S
C515 C514 1.400 . S
C515 C516 1.398 . S
C515 C521 1.491 . S
C516 H507 0.950 . S
C516 C515 1.398 . S
C516 C517 1.391 . S
C517 H505 0.950 . S
C517 C513 1.393 . S
C517 C516 1.391 . S
C518 H508 0.950 . S
C518 C519 1.386 1_565 S
C518 C520 1.391 1_565 S
C519 C518 1.386 1_545 S
C519 C523 1.393 . S
C520 H509 0.950 . S
C520 C518 1.391 1_545 S
C520 C521 1.400 . S
C521 C515 1.491 . S
C521 C520 1.400 . S
C521 C522 1.398 . S
C522 H510 0.950 . S
C522 C521 1.398 . S
C522 C523 1.391 . S
C523 H511 0.950 . S
C523 C519 1.393 . S
C523 C522 1.391 . S
H524 C532 0.950 1_545 S
H525 C537 0.950 . S
H526 C534 0.950 . S
H527 C536 0.950 . S
H528 C538 0.950 . S
H529 C540 0.950 . S
H530 C542 0.950 . S
H531 C543 0.950 . S
C532 H524 0.950 1_565 S
C532 C533 1.386 . S
C532 C534 1.391 . S
C533 C532 1.386 . S
C533 C537 1.393 . S
C534 H526 0.950 . S
C534 C532 1.391 . S
C534 C535 1.400 . S
C535 C534 1.400 . S
C535 C536 1.398 . S
C535 C541 1.491 . S
C536 H527 0.950 . S
C536 C535 1.398 . S
C536 C537 1.391 . S
C537 H525 0.950 . S
C537 C533 1.393 . S
C537 C536 1.391 . S
C538 H528 0.950 . S
C538 C539 1.386 . S
C538 C540 1.391 . S
C539 C538 1.386 . S
C539 C543 1.393 . S
C540 H529 0.950 . S
C540 C538 1.391 . S
C540 C541 1.400 . S
C541 C535 1.491 . S
C541 C540 1.400 . S
C541 C542 1.398 . S
C542 H530 0.950 . S
C542 C541 1.398 . S
C542 C543 1.391 . S
C543 H531 0.950 . S
C543 C539 1.393 . S
C543 C542 1.391 . S
H544 C552 0.950 . S
H545 C557 0.950 . S
H546 C554 0.950 . S
H547 C556 0.950 . S
H548 C558 0.950 . S
H549 C560 0.950 . S
H550 C562 0.950 . S
H551 C563 0.950 . S
C552 H544 0.950 . S
C552 C553 1.386 . S
C552 C554 1.391 . S
C553 C552 1.386 . S
C553 C557 1.393 . S
C554 H546 0.950 . S
C554 C552 1.391 . S
C554 C555 1.400 . S
C555 C554 1.400 . S
C555 C556 1.398 . S
C555 C561 1.491 . S
C556 H547 0.950 . S
C556 C555 1.398 . S
C556 C557 1.391 . S
C557 H545 0.950 . S
C557 C553 1.393 . S
C557 C556 1.391 . S
C558 H548 0.950 . S
C558 C559 1.386 . S
C558 C560 1.391 . S
C559 C558 1.386 . S
C559 C563 1.393 . S
C560 H549 0.950 . S
C560 C558 1.391 . S
C560 C561 1.400 . S
C561 C555 1.491 . S
C561 C560 1.400 . S
C561 C562 1.398 . S
C562 H550 0.950 . S
C562 C561 1.398 . S
C562 C563 1.391 . S
C563 H551 0.950 . S
C563 C559 1.393 . S
C563 C562 1.391 . S
H564 C572 0.950 . S
H565 C577 0.950 . S
H566 C574 0.950 . S
H567 C576 0.950 . S
H568 C578 0.950 . S
H569 C580 0.950 . S
H570 C582 0.950 . S
H571 C583 0.950 . S
C572 H564 0.950 . S
C572 C573 1.386 . S
C572 C574 1.391 . S
C573 C572 1.386 . S
C573 C577 1.393 . S
C574 H566 0.950 . S
C574 C572 1.391 . S
C574 C575 1.400 . S
C575 C574 1.400 . S
C575 C576 1.398 . S
C575 C581 1.491 . S
C576 H567 0.950 . S
C576 C575 1.398 . S
C576 C577 1.391 . S
C577 H565 0.950 . S
C577 C573 1.393 . S
C577 C576 1.391 . S
C578 H568 0.950 . S
C578 C579 1.386 . S
C578 C580 1.391 . S
C579 C578 1.386 . S
C579 C583 1.393 . S
C580 H569 0.950 . S
C580 C578 1.391 . S
C580 C581 1.400 . S
C581 C575 1.491 . S
C581 C580 1.400 . S
C581 C582 1.398 . S
C582 H570 0.950 . S
C582 C581 1.398 . S
C582 C583 1.391 . S
C583 H571 0.950 . S
C583 C579 1.393 . S
C583 C582 1.391 . S
H584 C592 0.950 . S
H585 C597 0.950 . S
H586 C594 0.950 . S
H587 C596 0.950 . S
H588 C598 0.950 . S
H589 C600 0.950 . S
H590 C602 0.950 . S
H591 C603 0.950 . S
C592 H584 0.950 . S
C592 C593 1.386 . S
C592 C594 1.391 . S
C593 C592 1.386 . S
C593 C597 1.393 . S
C594 H586 0.950 . S
C594 C592 1.391 . S
C594 C595 1.400 . S
C595 C594 1.400 . S
C595 C596 1.398 . S
C595 C601 1.491 . S
C596 H587 0.950 . S
C596 C595 1.398 . S
C596 C597 1.391 . S
C597 H585 0.950 . S
C597 C593 1.393 . S
C597 C596 1.391 . S
C598 H588 0.950 . S
C598 C599 1.386 . S
C598 C600 1.391 . S
C599 C598 1.386 . S
C599 C603 1.393 . S
C600 H589 0.950 . S
C600 C598 1.391 . S
C600 C601 1.400 . S
C601 C595 1.491 . S
C601 C600 1.400 . S
C601 C602 1.398 . S
C602 H590 0.950 . S
C602 C601 1.398 . S
C602 C603 1.391 . S
C603 H591 0.950 . S
C603 C599 1.393 . S
C603 C602 1.391 . S
H604 C612 0.950 . S
H605 C617 0.950 . S
H606 C614 0.950 . S
H607 C616 0.950 . S
H608 C618 0.950 . S
H609 C620 0.950 . S
H610 C622 0.950 . S
H611 C623 0.950 . S
C612 H604 0.950 . S
C612 C613 1.386 . S
C612 C614 1.391 . S
C613 C612 1.386 . S
C613 C617 1.393 . S
C614 H606 0.950 . S
C614 C612 1.391 . S
C614 C615 1.400 . S
C615 C614 1.400 . S
C615 C616 1.398 . S
C615 C621 1.491 . S
C616 H607 0.950 . S
C616 C615 1.398 . S
C616 C617 1.391 . S
C617 H605 0.950 . S
C617 C613 1.393 . S
C617 C616 1.391 . S
C618 H608 0.950 . S
C618 C619 1.386 . S
C618 C620 1.391 . S
C619 C618 1.386 . S
C619 C623 1.393 . S
C620 H609 0.950 . S
C620 C618 1.391 . S
C620 C621 1.400 . S
C621 C615 1.491 . S
C621 C620 1.400 . S
C621 C622 1.398 . S
C622 H610 0.950 . S
C622 C621 1.398 . S
C622 C623 1.391 . S
C623 H611 0.950 . S
C623 C619 1.393 . S
C623 C622 1.391 . S
H624 C632 0.950 . S
H625 C637 0.950 1_545 S
H626 C634 0.950 . S
H627 C636 0.950 . S
H628 C638 0.950 . S
H629 C640 0.950 . S
H630 C642 0.950 . S
H631 C643 0.950 . S
C632 H624 0.950 . S
C632 C633 1.386 . S
C632 C634 1.391 . S
C633 C632 1.386 . S
C633 C637 1.393 . S
C634 H626 0.950 . S
C634 C632 1.391 . S
C634 C635 1.400 . S
C635 C634 1.400 . S
C635 C636 1.398 . S
C635 C641 1.491 . S
C636 H627 0.950 . S
C636 C635 1.398 . S
C636 C637 1.391 . S
C637 H625 0.950 1_565 S
C637 C633 1.393 . S
C637 C636 1.391 . S
C638 H628 0.950 . S
C638 C639 1.386 . S
C638 C640 1.391 . S
C639 C638 1.386 . S
C639 C643 1.393 . S
C640 H629 0.950 . S
C640 C638 1.391 . S
C640 C641 1.400 . S
C641 C635 1.491 . S
C641 C640 1.400 . S
C641 C642 1.398 . S
C642 H630 0.950 . S
C642 C641 1.398 . S
C642 C643 1.391 . S
C643 H631 0.950 . S
C643 C639 1.393 . S
C643 C642 1.391 . S
H644 C652 0.950 . S
H645 C657 0.950 . S
H646 C654 0.950 . S
H647 C656 0.950 . S
H648 C658 0.950 . S
H649 C660 0.950 . S
H650 C662 0.950 . S
H651 C663 0.950 . S
C652 H644 0.950 . S
C652 C653 1.386 . S
C652 C654 1.391 . S
C653 C652 1.386 . S
C653 C657 1.393 . S
C654 H646 0.950 . S
C654 C652 1.391 . S
C654 C655 1.400 . S
C655 C654 1.400 . S
C655 C656 1.398 . S
C655 C661 1.491 . S
C656 H647 0.950 . S
C656 C655 1.398 . S
C656 C657 1.391 . S
C657 H645 0.950 . S
C657 C653 1.393 . S
C657 C656 1.391 . S
C658 H648 0.950 . S
C658 C659 1.386 . S
C658 C660 1.391 . S
C659 C658 1.386 . S
C659 C663 1.393 . S
C660 H649 0.950 . S
C660 C658 1.391 . S
C660 C661 1.400 . S
C661 C655 1.491 . S
C661 C660 1.400 . S
C661 C662 1.398 . S
C662 H650 0.950 . S
C662 C661 1.398 . S
C662 C663 1.391 . S
C663 H651 0.950 . S
C663 C659 1.393 . S
C663 C662 1.391 . S
H664 C672 0.950 . S
H665 C677 0.950 . S
H666 C674 0.950 . S
H667 C676 0.950 . S
H668 C678 0.950 . S
H669 C680 0.950 . S
H670 C682 0.950 . S
H671 C683 0.950 . S
C672 H664 0.950 . S
C672 C673 1.385 1_455 S
C672 C674 1.391 . S
C673 C672 1.385 1_655 S
C673 C677 1.393 1_554 S
C674 H666 0.950 . S
C674 C672 1.391 . S
C674 C675 1.368 1_454 S
C675 C674 1.368 1_656 S
C675 C676 1.432 . S
C675 C681 1.489 1_655 S
C676 H667 0.950 . S
C676 C675 1.432 . S
C676 C677 1.391 . S
C677 H665 0.950 . S
C677 C673 1.393 1_556 S
C677 C676 1.391 . S
C678 H668 0.950 . S
C678 C679 1.386 1_655 S
C678 C680 1.391 . S
C679 C678 1.386 1_455 S
C679 C683 1.393 1_556 S
C680 H669 0.950 . S
C680 C678 1.391 . S
C680 C681 1.400 1_655 S
C681 C675 1.489 1_455 S
C681 C680 1.400 1_455 S
C681 C682 1.398 1_556 S
C682 H670 0.950 . S
C682 C681 1.398 1_554 S
C682 C683 1.391 . S
C683 H671 0.950 . S
C683 C679 1.393 1_554 S
C683 C682 1.391 . S
H684 C692 0.950 . S
H685 C697 0.950 . S
H686 C694 0.950 . S
H687 C696 0.950 . S
H688 C698 0.950 . S
H689 C700 0.950 . S
H690 C702 0.950 . S
H691 C703 0.950 . S
C692 H684 0.950 . S
C692 C693 1.386 . S
C692 C694 1.391 . S
C693 C692 1.386 . S
C693 C697 1.393 . S
C694 H686 0.950 . S
C694 C692 1.391 . S
C694 C695 1.400 . S
C695 C694 1.400 . S
C695 C696 1.398 . S
C695 C701 1.491 . S
C696 H687 0.950 . S
C696 C695 1.398 . S
C696 C697 1.391 . S
C697 H685 0.950 . S
C697 C693 1.393 . S
C697 C696 1.391 . S
C698 H688 0.950 . S
C698 C699 1.386 . S
C698 C700 1.391 . S
C699 C698 1.386 . S
C699 C703 1.393 . S
C700 H689 0.950 . S
C700 C698 1.391 . S
C700 C701 1.400 . S
C701 C695 1.491 . S
C701 C700 1.400 . S
C701 C702 1.398 . S
C702 H690 0.950 . S
C702 C701 1.398 . S
C702 C703 1.391 . S
C703 H691 0.950 . S
C703 C699 1.393 . S
C703 C702 1.391 . S
H704 C712 0.950 . S
H705 C717 0.950 . S
H706 C714 0.950 . S
H707 C716 0.950 . S
H708 C718 0.950 . S
H709 C720 0.950 . S
H710 C722 0.950 . S
H711 C723 0.950 . S
C712 H704 0.950 . S
C712 C713 1.386 . S
C712 C714 1.391 . S
C713 C712 1.386 . S
C713 C717 1.393 . S
C714 H706 0.950 . S
C714 C712 1.391 . S
C714 C715 1.400 . S
C715 C714 1.400 . S
C715 C716 1.398 . S
C715 C721 1.491 . S
C716 H707 0.950 . S
C716 C715 1.398 . S
C716 C717 1.391 . S
C717 H705 0.950 . S
C717 C713 1.393 . S
C717 C716 1.391 . S
C718 H708 0.950 . S
C718 C719 1.386 . S
C718 C720 1.391 . S
C719 C718 1.386 . S
C719 C723 1.393 . S
C720 H709 0.950 . S
C720 C718 1.391 . S
C720 C721 1.400 . S
C721 C715 1.491 . S
C721 C720 1.400 . S
C721 C722 1.398 . S
C722 H710 0.950 . S
C722 C721 1.398 . S
C722 C723 1.391 . S
C723 H711 0.950 . S
C723 C719 1.393 . S
C723 C722 1.391 . S
H724 C732 0.950 . S
H725 C737 0.950 . S
H726 C734 0.950 . S
H727 C736 0.950 . S
H728 C738 0.950 . S
H729 C740 0.950 . S
H730 C742 0.950 . S
H731 C743 0.950 . S
C732 H724 0.950 . S
C732 C733 1.386 1_655 S
C732 C734 1.391 . S
C733 C732 1.386 1_455 S
C733 C737 1.393 . S
C734 H726 0.950 . S
C734 C732 1.391 . S
C734 C735 1.389 1_655 S
C735 C734 1.389 1_455 S
C735 C736 1.410 . S
C735 C741 1.490 1_465 S
C736 H727 0.950 . S
C736 C735 1.410 . S
C736 C737 1.391 . S
C737 H725 0.950 . S
C737 C733 1.393 . S
C737 C736 1.391 . S
C738 H728 0.950 . S
C738 C739 1.386 1_455 S
C738 C740 1.391 . S
C739 C738 1.386 1_655 S
C739 C743 1.393 . S
C740 H729 0.950 . S
C740 C738 1.391 . S
C740 C741 1.394 1_455 S
C741 C735 1.490 1_645 S
C741 C740 1.394 1_655 S
C741 C742 1.405 . S
C742 H730 0.950 . S
C742 C741 1.405 . S
C742 C743 1.391 . S
C743 H731 0.950 . S
C743 C739 1.393 . S
C743 C742 1.391 . S
H744 C752 0.950 . S
H745 C757 0.950 . S
H746 C754 0.950 . S
H747 C756 0.950 . S
H748 C758 0.950 . S
H749 C760 0.950 . S
H750 C762 0.950 . S
H751 C763 0.950 . S
C752 H744 0.950 . S
C752 C753 1.386 . S
C752 C754 1.391 . S
C753 C752 1.386 . S
C753 C757 1.393 . S
C754 H746 0.950 . S
C754 C752 1.391 . S
C754 C755 1.400 . S
C755 C754 1.400 . S
C755 C756 1.398 . S
C755 C761 1.491 . S
C756 H747 0.950 . S
C756 C755 1.398 . S
C756 C757 1.391 . S
C757 H745 0.950 . S
C757 C753 1.393 . S
C757 C756 1.391 . S
C758 H748 0.950 . S
C758 C759 1.386 . S
C758 C760 1.391 . S
C759 C758 1.386 . S
C759 C763 1.393 . S
C760 H749 0.950 . S
C760 C758 1.391 . S
C760 C761 1.400 . S
C761 C755 1.491 . S
C761 C760 1.400 . S
C761 C762 1.398 . S
C762 H750 0.950 . S
C762 C761 1.398 . S
C762 C763 1.391 . S
C763 H751 0.950 . S
C763 C759 1.393 . S
C763 C762 1.391 . S
H764 C772 0.950 . S
H765 C777 0.950 . S
H766 C774 0.950 . S
H767 C776 0.950 . S
H768 C778 0.950 . S
H769 C780 0.950 . S
H770 C782 0.950 . S
H771 C783 0.950 . S
C772 H764 0.950 . S
C772 C773 1.386 . S
C772 C774 1.391 . S
C773 C772 1.386 . S
C773 C777 1.393 . S
C774 H766 0.950 . S
C774 C772 1.391 . S
C774 C775 1.400 . S
C775 C774 1.400 . S
C775 C776 1.398 . S
C775 C781 1.491 . S
C776 H767 0.950 . S
C776 C775 1.398 . S
C776 C777 1.391 . S
C777 H765 0.950 . S
C777 C773 1.393 . S
C777 C776 1.391 . S
C778 H768 0.950 . S
C778 C779 1.386 . S
C778 C780 1.391 . S
C779 C778 1.386 . S
C779 C783 1.393 . S
C780 H769 0.950 . S
C780 C778 1.391 . S
C780 C781 1.400 . S
C781 C775 1.491 . S
C781 C780 1.400 . S
C781 C782 1.398 . S
C782 H770 0.950 . S
C782 C781 1.398 . S
C782 C783 1.391 . S
C783 H771 0.950 . S
C783 C779 1.393 . S
C783 C782 1.391 . S
H784 C792 0.950 . S
H785 C797 0.950 . S
H786 C794 0.950 . S
H787 C796 0.950 . S
H788 C798 0.950 . S
H789 C800 0.950 . S
H790 C802 0.950 . S
H791 C803 0.950 . S
C792 H784 0.950 . S
C792 C793 1.386 . S
C792 C794 1.391 . S
C793 C792 1.386 . S
C793 C797 1.393 . S
C794 H786 0.950 . S
C794 C792 1.391 . S
C794 C795 1.400 . S
C795 C794 1.400 . S
C795 C796 1.398 . S
C795 C801 1.491 . S
C796 H787 0.950 . S
C796 C795 1.398 . S
C796 C797 1.391 . S
C797 H785 0.950 . S
C797 C793 1.393 . S
C797 C796 1.391 . S
C798 H788 0.950 . S
C798 C799 1.386 . S
C798 C800 1.391 . S
C799 C798 1.386 . S
C799 C803 1.393 . S
C800 H789 0.950 . S
C800 C798 1.391 . S
C800 C801 1.400 . S
C801 C795 1.491 . S
C801 C800 1.400 . S
C801 C802 1.398 . S
C802 H790 0.950 . S
C802 C801 1.398 . S
C802 C803 1.391 . S
C803 H791 0.950 . S
C803 C799 1.393 . S
C803 C802 1.391 . S
H804 C812 0.950 . S
H805 C817 0.950 . S
H806 C814 0.950 . S
H807 C816 0.950 . S
H808 C818 0.950 . S
H809 C820 0.950 . S
H810 C822 0.950 . S
H811 C823 0.950 . S
C812 H804 0.950 . S
C812 C813 1.386 . S
C812 C814 1.391 . S
C813 C812 1.386 . S
C813 C817 1.393 1_556 S
C814 H806 0.950 . S
C814 C812 1.391 . S
C814 C815 1.400 . S
C815 C814 1.400 . S
C815 C816 1.398 1_556 S
C815 C821 1.491 1_565 S
C816 H807 0.950 . S
C816 C815 1.398 1_554 S
C816 C817 1.391 . S
C817 H805 0.950 . S
C817 C813 1.393 1_554 S
C817 C816 1.391 . S
C818 H808 0.950 . S
C818 C819 1.386 1_554 S
C818 C820 1.391 . S
C819 C818 1.386 1_556 S
C819 C823 1.392 . S
C820 H809 0.950 . S
C820 C818 1.391 . S
C820 C821 1.394 1_554 S
C821 C815 1.491 1_545 S
C821 C820 1.394 1_556 S
C821 C822 1.404 . S
C822 H810 0.950 . S
C822 C821 1.404 . S
C822 C823 1.391 . S
C823 H811 0.950 . S
C823 C819 1.392 . S
C823 C822 1.391 . S
H824 C832 0.950 . S
H825 C837 0.950 . S
H826 C834 0.950 . S
H827 C836 0.950 . S
H828 C838 0.950 . S
H829 C840 0.950 . S
H830 C842 0.950 . S
H831 C843 0.950 . S
C832 H824 0.950 . S
C832 C833 1.386 1_556 S
C832 C834 1.391 . S
C833 C832 1.386 1_554 S
C833 C837 1.393 . S
C834 H826 0.950 . S
C834 C832 1.391 . S
C834 C835 1.400 1_556 S
C835 C834 1.400 1_554 S
C835 C836 1.398 . S
C835 C841 1.491 . S
C836 H827 0.950 . S
C836 C835 1.398 . S
C836 C837 1.391 . S
C837 H825 0.950 . S
C837 C833 1.393 . S
C837 C836 1.391 . S
C838 H828 0.950 . S
C838 C839 1.386 . S
C838 C840 1.391 . S
C839 C838 1.386 . S
C839 C843 1.393 1_554 S
C840 H829 0.950 . S
C840 C838 1.391 . S
C840 C841 1.400 . S
C841 C835 1.491 . S
C841 C840 1.400 . S
C841 C842 1.398 1_554 S
C842 H830 0.950 . S
C842 C841 1.398 1_556 S
C842 C843 1.391 . S
C843 H831 0.950 . S
C843 C839 1.393 1_556 S
C843 C842 1.391 . S
H844 C852 0.950 . S
H845 C857 0.951 . S
H846 C854 0.950 . S
H847 C856 0.953 . S
H848 C858 0.950 1_556 S
H849 C860 0.950 1_556 S
H850 C862 0.950 . S
H851 C863 0.950 . S
C852 H844 0.950 . S
C852 C853 1.386 . S
C852 C854 1.391 . S
C853 C852 1.386 . S
C853 C857 1.392 1_554 S
C854 H846 0.950 . S
C854 C852 1.391 . S
C854 C855 1.400 . S
C855 C854 1.400 . S
C855 C856 1.395 1_554 S
C855 C861 1.491 . S
C856 H847 0.953 . S
C856 C855 1.395 1_556 S
C856 C857 1.391 . S
C857 H845 0.951 . S
C857 C853 1.392 1_556 S
C857 C856 1.391 . S
C858 H848 0.950 1_554 S
C858 C859 1.386 . S
C858 C860 1.391 . S
C859 C858 1.386 . S
C859 C863 1.393 . S
C860 H849 0.950 1_554 S
C860 C858 1.391 . S
C860 C861 1.400 . S
C861 C855 1.491 . S
C861 C860 1.400 . S
C861 C862 1.398 . S
C862 H850 0.950 . S
C862 C861 1.398 . S
C862 C863 1.391 . S
C863 H851 0.950 . S
C863 C859 1.393 . S
C863 C862 1.391 . S
H864 C872 0.950 . S
H865 C877 0.950 . S
H866 C874 0.950 . S
H867 C876 0.950 . S
H868 C878 0.950 . S
H869 C880 0.950 . S
H870 C882 0.950 . S
H871 C883 0.950 . S
C872 H864 0.950 . S
C872 C873 1.386 . S
C872 C874 1.391 . S
C873 C872 1.386 . S
C873 C877 1.393 . S
C874 H866 0.950 . S
C874 C872 1.391 . S
C874 C875 1.400 . S
C875 C874 1.400 . S
C875 C876 1.398 . S
C875 C881 1.491 1_455 S
C876 H867 0.950 . S
C876 C875 1.398 . S
C876 C877 1.391 . S
C877 H865 0.950 . S
C877 C873 1.393 . S
C877 C876 1.391 . S
C878 H868 0.950 . S
C878 C879 1.386 . S
C878 C880 1.391 . S
C879 C878 1.386 . S
C879 C883 1.393 . S
C880 H869 0.950 . S
C880 C878 1.391 . S
C880 C881 1.400 . S
C881 C875 1.491 1_655 S
C881 C880 1.400 . S
C881 C882 1.398 . S
C882 H870 0.950 . S
C882 C881 1.398 . S
C882 C883 1.391 . S
C883 H871 0.950 . S
C883 C879 1.393 . S
C883 C882 1.391 . S
H884 C892 0.950 . S
H885 C897 0.950 . S
H886 C894 0.950 . S
H887 C896 0.950 . S
H888 C898 0.950 . S
H889 C900 0.950 . S
H890 C902 0.950 . S
H891 C903 0.950 . S
C892 H884 0.950 . S
C892 C893 1.386 . S
C892 C894 1.391 . S
C893 C892 1.386 . S
C893 C897 1.393 . S
C894 H886 0.950 . S
C894 C892 1.391 . S
C894 C895 1.400 . S
C895 C894 1.400 . S
C895 C896 1.398 . S
C895 C901 1.491 . S
C896 H887 0.950 . S
C896 C895 1.398 . S
C896 C897 1.391 . S
C897 H885 0.950 . S
C897 C893 1.393 . S
C897 C896 1.391 . S
C898 H888 0.950 . S
C898 C899 1.386 . S
C898 C900 1.391 . S
C899 C898 1.386 . S
C899 C903 1.393 . S
C900 H889 0.950 . S
C900 C898 1.391 . S
C900 C901 1.400 . S
C901 C895 1.491 . S
C901 C900 1.400 . S
C901 C902 1.398 . S
C902 H890 0.950 . S
C902 C901 1.398 . S
C902 C903 1.391 . S
C903 H891 0.950 . S
C903 C899 1.393 . S
C903 C902 1.391 . S
H904 C912 0.950 . S
H905 C917 0.950 . S
H906 C914 0.950 . S
H907 C916 0.950 . S
H908 C918 0.950 . S
H909 C920 0.950 . S
H910 C922 0.950 . S
H911 C923 0.950 . S
C912 H904 0.950 . S
C912 C913 1.386 . S
C912 C914 1.391 . S
C913 C912 1.386 . S
C913 C917 1.393 . S
C914 H906 0.950 . S
C914 C912 1.391 . S
C914 C915 1.400 . S
C915 C914 1.400 . S
C915 C916 1.398 . S
C915 C921 1.491 . S
C916 H907 0.950 . S
C916 C915 1.398 . S
C916 C917 1.391 . S
C917 H905 0.950 . S
C917 C913 1.393 . S
C917 C916 1.391 . S
C918 H908 0.950 . S
C918 C919 1.386 . S
C918 C920 1.391 . S
C919 C918 1.386 . S
C919 C923 1.393 . S
C920 H909 0.950 . S
C920 C918 1.391 . S
C920 C921 1.400 . S
C921 C915 1.491 . S
C921 C920 1.400 . S
C921 C922 1.398 . S
C922 H910 0.950 . S
C922 C921 1.398 . S
C922 C923 1.391 . S
C923 H911 0.950 . S
C923 C919 1.393 . S
C923 C922 1.391 . S
H924 C932 0.950 . S
H925 C937 0.950 . S
H926 C934 0.950 . S
H927 C936 0.950 . S
H928 C938 0.950 . S
H929 C940 0.950 . S
H930 C942 0.950 . S
H931 C943 0.950 . S
C932 H924 0.950 . S
C932 C933 1.386 . S
C932 C934 1.391 . S
C933 C932 1.386 . S
C933 C937 1.393 1_565 S
C934 H926 0.950 . S
C934 C932 1.391 . S
C934 C935 1.400 . S
C935 C934 1.400 . S
C935 C936 1.398 1_565 S
C935 C941 1.491 1_665 S
C936 H927 0.950 . S
C936 C935 1.398 1_545 S
C936 C937 1.391 . S
C937 H925 0.950 . S
C937 C933 1.393 1_545 S
C937 C936 1.391 . S
C938 H928 0.950 . S
C938 C939 1.386 . S
C938 C940 1.391 . S
C939 C938 1.386 . S
C939 C943 1.393 1_545 S
C940 H929 0.950 . S
C940 C938 1.391 . S
C940 C941 1.400 . S
C941 C935 1.491 1_445 S
C941 C940 1.400 . S
C941 C942 1.398 1_545 S
C942 H930 0.950 . S
C942 C941 1.398 1_565 S
C942 C943 1.391 . S
C943 H931 0.950 . S
C943 C939 1.393 1_565 S
C943 C942 1.391 . S
H944 C952 0.950 . S
H945 C957 0.950 . S
H946 C954 0.950 . S
H947 C956 0.950 . S
H948 C958 0.950 . S
H949 C960 0.950 . S
H950 C962 0.950 . S
H951 C963 0.950 . S
C952 H944 0.950 . S
C952 C953 1.386 . S
C952 C954 1.391 . S
C953 C952 1.386 . S
C953 C957 1.393 . S
C954 H946 0.950 . S
C954 C952 1.391 . S
C954 C955 1.400 . S
C955 C954 1.400 . S
C955 C956 1.398 . S
C955 C961 1.491 . S
C956 H947 0.950 . S
C956 C955 1.398 . S
C956 C957 1.391 . S
C957 H945 0.950 . S
C957 C953 1.393 . S
C957 C956 1.391 . S
C958 H948 0.950 . S
C958 C959 1.386 . S
C958 C960 1.391 . S
C959 C958 1.386 . S
C959 C963 1.393 . S
C960 H949 0.950 . S
C960 C958 1.391 . S
C960 C961 1.400 . S
C961 C955 1.491 . S
C961 C960 1.400 . S
C961 C962 1.398 . S
C962 H950 0.950 . S
C962 C961 1.398 . S
C962 C963 1.391 . S
C963 H951 0.950 . S
C963 C959 1.393 . S
C963 C962 1.391 . S
H964 C972 0.950 . S
H965 C977 0.950 . S
H966 C974 0.950 . S
H967 C976 0.950 . S
H968 C978 0.950 . S
H969 C980 0.950 . S
H970 C982 0.950 . S
H971 C983 0.950 . S
C972 H964 0.950 . S
C972 C973 1.386 . S
C972 C974 1.391 . S
C973 C972 1.386 . S
C973 C977 1.393 1_545 S
C974 H966 0.950 . S
C974 C972 1.391 . S
C974 C975 1.400 . S
C975 C974 1.400 . S
C975 C976 1.398 1_545 S
C975 C981 1.491 1_545 S
C976 H967 0.950 . S
C976 C975 1.398 1_565 S
C976 C977 1.391 . S
C977 H965 0.950 . S
C977 C973 1.393 1_565 S
C977 C976 1.391 . S
C978 H968 0.950 . S
C978 C979 1.386 . S
C978 C980 1.391 . S
C979 C978 1.386 . S
C979 C983 1.393 1_565 S
C980 H969 0.950 . S
C980 C978 1.391 . S
C980 C981 1.400 . S
C981 C975 1.491 1_565 S
C981 C980 1.400 . S
C981 C982 1.398 1_565 S
C982 H970 0.950 . S
C982 C981 1.398 1_545 S
C982 C983 1.391 . S
C983 H971 0.950 . S
C983 C979 1.393 1_545 S
C983 C982 1.391 . S
C353 C27 1.774 1_545 S
C359 C76 1.955 . S
C373 C32 1.795 1_565 S
C379 C126 1.960 . S
C393 C162 1.960 . S
C399 C70 1.777 . S
C413 C118 1.768 . S
C419 C169 1.956 . S
C433 C156 1.791 . S
C439 C205 1.961 . S
C453 C248 1.961 . S
C459 C161 1.793 . S
C473 C199 1.778 . S
C479 C33 1.947 . S
C493 C242 1.796 . S
C499 C40 1.963 . S
C513 C255 1.958 . S
C519 C285 1.798 1_545 S
C533 C290 1.787 1_565 S
C539 C212 1.948 . S
C553 C334 1.948 . S
C559 C247 1.769 . S
C573 C341 1.956 . S
C579 C204 1.771 . S
C593 C328 1.797 . S
C599 C119 1.958 . S
C613 C83 1.956 . S
C619 C333 1.767 . S
C633 C291 1.961 . S
C639 C113 1.785 . S
C653 C298 1.953 . S
C659 C75 1.797 . S
C673 C13 1.727 1_554 S
C679 C39 1.725 . S
C693 C82 1.738 . S
C699 C56 1.736 1_565 S
C713 C125 1.748 1_545 S
C719 C99 1.748 . S
C733 C168 1.743 . S
C739 C142 1.741 . S
C753 C211 1.748 1_545 S
C759 C185 1.747 . S
C773 C228 1.729 . S
C779 C254 1.731 1_565 S
C793 C271 1.720 . S
C799 C297 1.718 . S
C813 C340 1.739 . S
C819 C314 1.741 . S
C833 N309 1.209 . S
C839 N3 1.195 . S
C853 N8 1.176 . S
C859 N304 1.193 . S
C873 N46 1.214 . S
C879 N94 1.207 . S
C893 N266 1.214 . S
C899 N132 1.208 . S
C913 N137 1.207 . S
C919 N261 1.196 . S
C933 N218 1.165 1_565 S
C939 N175 1.177 1_545 S
C953 N223 1.208 . S
C959 N180 1.197 . S
C973 N89 1.182 1_545 S
C979 N51 1.197 1_565 S
