# Generated by pormake.
# Topology rob, (6)-cn, num edge types: 1
# Building blocks:
#     Node 0, Type 0, BuildingBlock: BETGAK_clean_sbu_0, # of connection points: 6
#     Node 1, Type 0, BuildingBlock: BETGAK_clean_sbu_0, # of connection points: 6
#     Node 2, Type 0, BuildingBlock: BETGAK_clean_sbu_0, # of connection points: 6
#     Node 3, Type 0, BuildingBlock: BETGAK_clean_sbu_0, # of connection points: 6
#     Edge 4, Type (0, 0), BuildingBlock: FUNLAD_clean_linker_0, # of connection points: 2
#     Edge 5, Type (0, 0), BuildingBlock: FUNLAD_clean_linker_0, # of connection points: 2
#     Edge 6, Type (0, 0), BuildingBlock: FUNLAD_clean_linker_0, # of connection points: 2
#     Edge 7, Type (0, 0), BuildingBlock: FUNLAD_clean_linker_0, # of connection points: 2
#     Edge 8, Type (0, 0), BuildingBlock: FUNLAD_clean_linker_0, # of connection points: 2
#     Edge 9, Type (0, 0), BuildingBlock: FUNLAD_clean_linker_0, # of connection points: 2
#     Edge 10, Type (0, 0), BuildingBlock: FUNLAD_clean_linker_0, # of connection points: 2
#     Edge 11, Type (0, 0), BuildingBlock: FUNLAD_clean_linker_0, # of connection points: 2
#     Edge 12, Type (0, 0), BuildingBlock: FUNLAD_clean_linker_0, # of connection points: 2
#     Edge 13, Type (0, 0), BuildingBlock: FUNLAD_clean_linker_0, # of connection points: 2
#     Edge 14, Type (0, 0), BuildingBlock: FUNLAD_clean_linker_0, # of connection points: 2
#     Edge 15, Type (0, 0), BuildingBlock: FUNLAD_clean_linker_0, # of connection points: 2
# Relax obj value: 0.131
# Max RMSD: 0.185
# Mean RMSD: 0.185
data_MOF--net-rob--node1-BETGAK_clean_sbu_0--edge1-FUNLAD_clean_linker_0
_symmetry_space_group_name_H-M    P1
_symmetry_Int_Tables_number       1
_symmetry_cell_setting            triclinic
loop_
_symmetry_equiv_pos_as_xyz
'x, y, z'
_cell_length_a     18.286024
_cell_length_b     28.128274
_cell_length_c     41.596293
_cell_angle_alpha  90.079112
_cell_angle_beta   121.65817
_cell_angle_gamma 90.022781
loop_
_atom_site_label
_atom_site_type_symbol
_atom_site_fract_x
_atom_site_fract_y
_atom_site_fract_z
_atom_type_partial_charge
La0 La 0.18791 0.29579 1.00027 0.0
La1 La 0.34622 0.25951 0.0024 0.0
C2 C 0.06803 0.30664 0.0129 0.0
C3 C 0.06142 0.30435 0.04697 0.0
C4 C 0.03063 0.34395 0.05688 0.0
C5 C 0.02731 0.34369 0.08975 0.0
C6 C 0.05446 0.30367 0.11356 0.0
C7 C 0.08398 0.26364 0.10327 0.0
C8 C 0.08749 0.26397 0.07038 0.0
C9 C 0.29375 0.36165 0.00348 0.0
C10 C 0.3545 0.26131 0.07804 0.0
C11 C 0.46765 0.24873 0.99078 0.0
C12 C 0.47709 0.25062 0.95749 0.0
C13 C 0.51529 0.21224 0.9502 0.0
C14 C 0.52367 0.21246 0.91863 0.0
C15 C 0.49421 0.25122 0.8935 0.0
C16 C 0.45586 0.28974 0.90088 0.0
C17 C 0.44756 0.2895 0.93256 0.0
C18 C 0.24055 0.19366 0.99941 0.0
C19 C 0.17899 0.29324 0.92445 0.0
O20 O 0.11395 0.34167 0.012 0.0
O21 O 0.08238 0.26684 1.00074 0.0
O22 O 0.21092 0.36627 0.98519 0.0
O23 O 0.31476 0.32254 0.0208 0.0
O24 O 0.27044 0.26824 0.05763 0.0
O25 O 0.40277 0.26309 0.06303 0.0
O26 O 0.42127 0.21369 0.99129 0.0
O27 O 0.45188 0.28869 0.00221 0.0
O28 O 0.32336 0.18901 0.01756 0.0
O29 O 0.21963 0.23272 0.98202 0.0
O30 O 0.26314 0.28637 0.9448 0.0
O31 O 0.13099 0.29192 0.93963 0.0
H32 H 1.00976 0.37543 0.03928 0.0
H33 H 1.00304 0.37487 0.09644 0.0
H34 H 0.10623 0.2324 0.12109 0.0
H35 H 0.11168 0.23284 0.06359 0.0
H36 H 0.53827 0.18177 0.96888 0.0
H37 H 0.55218 0.18178 0.91365 0.0
H38 H 0.43319 0.32042 0.88246 0.0
H39 H 0.41798 0.31972 0.93747 0.0
La40 La 0.69182 0.79622 0.00184 0.0
La41 La 0.84861 0.75798 0.0037 0.0
C42 C 0.56983 0.80797 0.01301 0.0
C43 C 0.55856 0.80459 0.04567 0.0
C44 C 0.50867 0.83873 0.05012 0.0
C45 C 0.4982 0.83699 0.08112 0.0
C46 C 0.5376 0.80101 0.10851 0.0
C47 C 0.58776 0.76679 0.10397 0.0
C48 C 0.59792 0.76848 0.07283 0.0
C49 C 0.79485 0.86115 1.0015 0.0
C50 C 0.862 0.7658 0.08004 0.0
C51 C 0.97015 0.74364 0.99288 0.0
C52 C 0.98126 0.75022 0.96056 0.0
C53 C 0.024 0.71528 0.9525 0.0
C54 C 0.02904 0.71879 0.92019 0.0
C55 C 0.99088 0.75723 0.89519 0.0
C56 C 0.94946 0.79271 0.90376 0.0
C57 C 0.94505 0.78934 0.93625 0.0
C58 C 0.74435 0.69361 0.00409 0.0
C59 C 0.68312 0.7915 0.92594 0.0
O60 O 0.61939 0.84238 0.0143 0.0
O61 O 0.58371 0.76829 1.00055 0.0
O62 O 0.71205 0.86566 0.98413 0.0
O63 O 0.81732 0.82291 0.02003 0.0
O64 O 0.77773 0.77276 0.06049 0.0
O65 O 0.90755 0.76466 0.06384 0.0
O66 O 0.91449 0.71104 0.98833 0.0
O67 O 0.96268 0.78221 0.00862 0.0
O68 O 0.82718 0.68923 0.02215 0.0
O69 O 0.72281 0.73156 0.98528 0.0
O70 O 0.76732 0.78523 0.9463 0.0
O71 O 0.63527 0.79059 0.9412 0.0
H72 H 0.47805 0.86703 0.02965 0.0
H73 H 0.46021 0.86435 0.08389 0.0
H74 H 0.61833 0.73829 0.12423 0.0
H75 H 0.63656 0.74156 0.07002 0.0
H76 H 0.05197 0.68471 0.97081 0.0
H77 H 0.06065 0.69065 0.91421 0.0
H78 H 0.92036 0.82304 0.88533 0.0
H79 H 0.91221 0.81693 0.94204 0.0
La80 La 0.3381 0.78828 0.50484 0.0
La81 La 0.17442 0.75233 0.49798 0.0
C82 C 0.46293 0.79651 0.49529 0.0
C83 C 0.47259 0.79519 0.46209 0.0
C84 C 0.41449 0.81869 0.42829 0.0
C85 C 0.42489 0.81694 0.39724 0.0
C86 C 0.49343 0.79149 0.39916 0.0
C87 C 0.5507 0.7675 0.43296 0.0
C88 C 0.54042 0.76942 0.46402 0.0
C89 C 0.23596 0.85448 0.50406 0.0
C90 C 0.16912 0.765 0.42376 0.0
C91 C 0.04944 0.74243 0.507 0.0
C92 C 0.04345 0.73836 0.54092 0.0
C93 C 0.09897 0.70841 0.57097 0.0
C94 C 0.09716 0.70773 0.60413 0.0
C95 C 0.04028 0.73723 0.60814 0.0
C96 C 0.9838 0.76661 0.57772 0.0
C97 C 0.98539 0.7671 0.54446 0.0
C98 C 0.27826 0.68648 0.49932 0.0
C99 C 0.34018 0.77756 0.57931 0.0
O100 O 0.42109 0.83265 0.49781 0.0
O101 O 0.44126 0.75641 0.50401 0.0
O102 O 0.31916 0.8578 0.52303 0.0
O103 O 0.2132 0.81689 0.48464 0.0
O104 O 0.25394 0.76914 0.44481 0.0
O105 O 0.12096 0.76424 0.43872 0.0
O106 O 0.08571 0.70704 0.50005 0.0
O107 O 0.07573 0.78369 0.50239 0.0
O108 O 0.19516 0.68299 0.47984 0.0
O109 O 0.29964 0.7241 0.51858 0.0
O110 O 0.25627 0.77069 0.55769 0.0
O111 O 0.39013 0.78048 0.56511 0.0
H112 H 0.36102 0.83854 0.42583 0.0
H113 H 0.37989 0.83623 0.37193 0.0
H114 H 0.6032 0.74673 0.43537 0.0
H115 H 0.58549 0.75058 0.48961 0.0
H116 H 0.14506 0.68614 0.5692 0.0
H117 H 0.14069 0.68415 0.6267 0.0
H118 H 0.93991 0.79023 0.57995 0.0
H119 H 0.94254 0.79078 0.52176 0.0
La120 La 0.84553 0.29392 0.50581 0.0
La121 La 0.68029 0.25438 0.49597 0.0
C122 C 0.97084 0.30634 0.4972 0.0
C123 C 0.98136 0.30046 0.4644 0.0
C124 C 0.02089 0.33651 0.4555 0.0
C125 C 0.02649 0.33304 0.42323 0.0
C126 C 0.99253 0.29337 0.39901 0.0
C127 C 0.95397 0.25696 0.40836 0.0
C128 C 0.94842 0.26046 0.44062 0.0
C129 C 0.73909 0.35748 0.50482 0.0
C130 C 0.68391 0.26696 0.42347 0.0
C131 C 0.55452 0.24141 0.50417 0.0
C132 C 0.54224 0.24728 0.53647 0.0
C133 C 0.50504 0.21033 0.54578 0.0
C134 C 0.49666 0.21409 0.57729 0.0
C135 C 0.52508 0.25504 0.60021 0.0
C136 C 0.56164 0.29226 0.59061 0.0
C137 C 0.57033 0.28839 0.55917 0.0
C138 C 0.7865 0.1909 0.49666 0.0
C139 C 0.84178 0.28189 0.57827 0.0
O140 O 0.91917 0.34048 0.49434 0.0
O141 O 0.95919 0.26758 0.51142 0.0
O142 O 0.82215 0.36179 0.52472 0.0
O143 O 0.71895 0.32045 0.48482 0.0
O144 O 0.7677 0.27322 0.44628 0.0
O145 O 0.63151 0.26341 0.43632 0.0
O146 O 0.60728 0.20759 0.50762 0.0
O147 O 0.56582 0.28018 0.48985 0.0
O148 O 0.70344 0.18672 0.47677 0.0
O149 O 0.80672 0.22775 0.51686 0.0
O150 O 0.75793 0.27559 0.55547 0.0
O151 O 0.8942 0.28506 0.56542 0.0
H152 H 0.04624 0.36784 0.47321 0.0
H153 H 0.05564 0.36207 0.4168 0.0
H154 H 0.92808 0.22559 0.39077 0.0
H155 H 0.91708 0.23213 0.44658 0.0
H156 H 0.48303 0.17827 0.52879 0.0
H157 H 0.46725 0.18501 0.58353 0.0
H158 H 0.58523 0.32403 0.60786 0.0
H159 H 0.60026 0.31731 0.55302 0.0
C160 C 0.71645 0.61829 0.02772 0.0
C161 C 0.68464 0.65738 0.00314 0.0
C162 C 0.6606 0.58335 0.0266 0.0
C163 C 0.57143 0.58662 1.00058 0.0
C164 C 0.53987 0.62621 0.97641 0.0
C165 C 0.59581 0.66106 0.97751 0.0
C166 C 0.50901 0.55046 0.99828 0.0
C167 C 0.53021 0.5053 0.01088 0.0
C168 C 0.4676 0.46903 0.00831 0.0
C169 C 0.49896 0.42879 0.03179 0.0
C170 C 0.44277 0.39379 0.03031 0.0
C171 C 0.35387 0.39806 0.00504 0.0
H172 H 0.35111 0.50218 0.96308 0.0
C173 C 0.32228 0.43783 0.98119 0.0
C174 C 0.37834 0.47283 0.98263 0.0
H175 H 0.25401 0.44178 0.96114 0.0
H176 H 0.78468 0.61479 0.04801 0.0
H177 H 0.68779 0.55445 0.04661 0.0
H178 H 0.4716 0.62996 0.95625 0.0
H179 H 0.56953 0.69063 0.95802 0.0
H180 H 0.44272 0.56186 0.98509 0.0
H181 H 0.59654 0.49394 0.02406 0.0
H182 H 0.56728 0.42458 0.05165 0.0
H183 H 0.46889 0.3636 0.04916 0.0
C184 C 0.30839 0.61086 0.47662 0.0
C185 C 0.33847 0.64963 0.50164 0.0
C186 C 0.36526 0.57579 0.47885 0.0
C187 C 0.45364 0.57864 0.50647 0.0
C188 C 0.48336 0.61777 0.53123 0.0
C189 C 0.42646 0.65271 0.52901 0.0
C190 C 0.51739 0.54268 0.50986 0.0
C191 C 0.4969 0.49804 0.49586 0.0
C192 C 0.56099 0.4624 0.49915 0.0
C193 C 0.53223 0.42405 0.47364 0.0
C194 C 0.58992 0.3899 0.47547 0.0
C195 C 0.67769 0.39302 0.50317 0.0
H196 H 0.67386 0.49291 0.54834 0.0
C197 C 0.70663 0.43079 0.52912 0.0
C198 C 0.649 0.46504 0.52728 0.0
H199 H 0.77391 0.43378 0.55101 0.0
H200 H 0.24087 0.60781 0.45505 0.0
H201 H 0.33954 0.54721 0.45842 0.0
H202 H 0.55095 0.62119 0.55265 0.0
H203 H 0.45139 0.68201 0.54889 0.0
H204 H 0.58411 0.55385 0.52491 0.0
H205 H 0.43022 0.48681 0.48069 0.0
H206 H 0.4649 0.4208 0.45185 0.0
H207 H 0.56589 0.36137 0.45489 0.0
C208 C 0.21261 0.11766 0.02201 0.0
C209 C 0.18061 0.15732 0.99807 0.0
C210 C 0.15688 0.08262 0.02078 0.0
C211 C 0.06757 0.08627 0.99522 0.0
C212 C 0.03576 0.12644 0.97168 0.0
C213 C 0.09165 0.16149 0.97294 0.0
C214 C 1.00547 0.0499 0.99293 0.0
C215 C 0.02709 1.00461 0.0051 0.0
C216 C 0.96547 0.96828 0.00328 0.0
C217 C 0.99814 0.92833 0.02701 0.0
C218 C 0.94295 0.8934 0.02646 0.0
C219 C 0.85378 0.8974 0.00183 0.0
H220 H 0.84783 1.00098 0.95851 0.0
C221 C 0.82085 0.93679 0.97763 0.0
C222 C 0.87595 0.9718 0.9782 0.0
H223 H 0.75231 0.94051 0.95807 0.0
H224 H 0.28094 0.11381 0.04197 0.0
H225 H 0.18437 0.05334 0.0404 0.0
H226 H 0.96737 0.13053 0.95194 0.0
H227 H 0.06525 0.19162 0.95404 0.0
H228 H 0.93931 0.06128 0.98037 0.0
H229 H 0.09323 0.99325 0.01757 0.0
H230 H 0.06671 0.92438 0.04644 0.0
H231 H 0.97009 0.86356 0.04562 0.0
C232 C 0.81746 0.11674 0.47284 0.0
C233 C 0.84733 0.15477 0.49856 0.0
C234 C 0.87407 0.08161 0.47501 0.0
C235 C 0.96201 0.0836 0.50327 0.0
C236 C 0.99185 0.12228 0.52849 0.0
C237 C 0.93512 0.15734 0.52633 0.0
C238 C 0.02481 0.04687 0.5069 0.0
C239 C 1.00266 1.00197 0.49364 0.0
C240 C 0.0648 0.96485 0.49714 0.0
C241 C 0.03303 0.92487 0.47329 0.0
C242 C 0.08845 0.88898 0.47551 0.0
C243 C 0.17701 0.89201 0.50194 0.0
H244 H 0.18104 0.99672 0.54372 0.0
C245 C 0.20906 0.93153 0.52616 0.0
C246 C 0.15368 0.96751 0.52394 0.0
H247 H 0.27706 0.93455 0.54703 0.0
H248 H 0.75016 0.11415 0.45089 0.0
H249 H 0.84853 0.05352 0.45413 0.0
H250 H 0.05922 0.12506 0.55034 0.0
H251 H 0.95984 0.1861 0.54671 0.0
H252 H 0.09177 0.05751 0.52164 0.0
H253 H 0.93561 0.99149 0.47913 0.0
H254 H 0.96498 0.92155 0.45255 0.0
H255 H 0.06196 0.85902 0.45633 0.0
C256 C 0.56497 0.2514 0.35642 0.0
C257 C 0.6502 0.26472 0.3825 0.0
C258 C 0.5349 0.2496 0.31778 0.0
C259 C 0.58984 0.26107 0.30462 0.0
C260 C 0.67451 0.27483 0.33074 0.0
C261 C 0.70445 0.27647 0.36915 0.0
C262 C 0.56072 0.26161 0.26396 0.0
C263 C 0.49408 0.23588 0.23756 0.0
C264 C 0.46213 0.23972 0.19673 0.0
C265 C 0.37452 0.23212 0.17085 0.0
C266 C 0.34039 0.23838 0.13233 0.0
C267 C 0.39336 0.25181 0.11871 0.0
H268 H 0.5846 0.25584 0.20221 0.0
C269 C 0.48189 0.25726 0.14437 0.0
C270 C 0.51611 0.25133 0.18312 0.0
H271 H 0.52437 0.2671 0.13465 0.0
H272 H 0.52148 0.2425 0.3658 0.0
H273 H 0.46829 0.24032 0.29843 0.0
H274 H 0.71787 0.28438 0.3214 0.0
H275 H 0.77018 0.28759 0.38831 0.0
H276 H 0.5959 0.28446 0.25565 0.0
H277 H 0.45833 0.21316 0.24562 0.0
H278 H 0.33177 0.2226 0.18052 0.0
H279 H 0.2721 0.23301 0.11325 0.0
C280 C 0.59506 0.78774 0.17787 0.0
C281 C 0.52615 0.79935 0.14155 0.0
C282 C 0.58448 0.78709 0.20892 0.0
C283 C 0.50426 0.79795 0.20445 0.0
C284 C 0.43553 0.80925 0.16804 0.0
C285 C 0.44617 0.80993 0.13709 0.0
C286 C 0.48851 0.7986 0.23642 0.0
C287 C 0.54688 0.7867 0.27257 0.0
C288 C 0.53014 0.78843 0.30414 0.0
C289 C 0.60067 0.79019 0.34147 0.0
C290 C 0.58879 0.79137 0.37208 0.0
C291 C 0.50576 0.79032 0.36631 0.0
H292 H 0.39057 0.78412 0.27016 0.0
C293 C 0.43496 0.78806 0.32893 0.0
C294 C 0.44687 0.78703 0.29825 0.0
H295 H 0.37011 0.7862 0.32331 0.0
H296 H 0.6579 0.78 0.1825 0.0
H297 H 0.63995 0.77849 0.23614 0.0
H298 H 0.37286 0.81765 0.1634 0.0
H299 H 0.39122 0.81836 0.10951 0.0
H300 H 0.42543 0.81039 0.22956 0.0
H301 H 0.61109 0.77638 0.28023 0.0
H302 H 0.66559 0.79107 0.34706 0.0
H303 H 0.64497 0.79372 0.40031 0.0
C304 C 0.55522 0.7927 0.85961 0.0
C305 C 0.64358 0.79933 0.88498 0.0
C306 C 0.52059 0.79663 0.82067 0.0
C307 C 0.57399 0.80727 0.80655 0.0
C308 C 0.66134 0.81609 0.83209 0.0
C309 C 0.69581 0.81197 0.87081 0.0
C310 C 0.54165 0.80917 0.76556 0.0
C311 C 0.47354 0.78383 0.73975 0.0
C312 C 0.44234 0.78395 0.69889 0.0
C313 C 0.3555 0.77397 0.67341 0.0
C314 C 0.32297 0.77248 0.63479 0.0
C315 C 0.37686 0.78019 0.62054 0.0
H316 H 0.56484 0.79825 0.70385 0.0
C317 C 0.46427 0.78985 0.646 0.0
C318 C 0.49686 0.79176 0.68491 0.0
H319 H 0.50747 0.7957 0.63595 0.0
H320 H 0.51324 0.78345 0.86972 0.0
H321 H 0.4522 0.79134 0.80189 0.0
H322 H 0.70367 0.825 0.82207 0.0
H323 H 0.76381 0.81835 0.8896 0.0
H324 H 0.57757 0.83057 0.75678 0.0
H325 H 0.4378 0.76229 0.74854 0.0
H326 H 0.31231 0.76754 0.68342 0.0
H327 H 0.25525 0.76498 0.61616 0.0
C328 C 0.5351 0.21959 0.65808 0.0
C329 C 0.51693 0.25879 0.63404 0.0
C330 C 0.52701 0.22298 0.6897 0.0
C331 C 0.50059 0.2658 0.69816 0.0
C332 C 0.48162 0.30476 0.6739 0.0
C333 C 0.49023 0.30146 0.64243 0.0
C334 C 0.48904 0.27067 0.73105 0.0
C335 C 0.53105 0.24371 0.76251 0.0
C336 C 0.5206 0.24823 0.79572 0.0
C337 C 0.58562 0.23036 0.83075 0.0
C338 C 0.57761 0.23203 0.86239 0.0
C339 C 0.50369 0.25119 0.85988 0.0
H340 H 0.39391 0.28074 0.76651 0.0
C341 C 0.43851 0.26928 0.82482 0.0
C342 C 0.44669 0.26776 0.79311 0.0
H343 H 0.37999 0.28353 0.82157 0.0
H344 H 0.55619 0.18623 0.6526 0.0
H345 H 0.54003 0.19166 0.70694 0.0
H346 H 0.46025 0.33805 0.67937 0.0
H347 H 0.47451 0.33216 0.62427 0.0
H348 H 0.44738 0.29903 0.7298 0.0
H349 H 0.57842 0.21828 0.76502 0.0
H350 H 0.64321 0.21502 0.83373 0.0
H351 H 0.62982 0.21842 0.88894 0.0
C352 C 0.85802 0.75576 0.13863 0.0
C353 C 0.90601 0.75962 0.12125 0.0
C354 C 0.89914 0.75105 0.17765 0.0
C355 C 0.9894 0.75077 0.20021 0.0
C356 C 0.03736 0.75312 0.18278 0.0
C357 C 0.99611 0.75764 0.14364 0.0
C358 C 0.03534 0.74803 0.24188 0.0
C359 C 1.00134 0.76457 0.26158 0.0
C360 C 0.04659 0.76311 0.30323 0.0
C361 C 0.99739 0.76331 0.3201 0.0
C362 C 0.03719 0.76323 0.35928 0.0
C363 C 0.1272 0.76349 0.38237 0.0
H364 H 0.17697 0.76487 0.31438 0.0
C365 C 0.17663 0.76346 0.36552 0.0
C366 C 0.13678 0.76344 0.3263 0.0
H367 H 0.24615 0.76393 0.38255 0.0
H368 H 0.78853 0.75633 0.12216 0.0
H369 H 0.85974 0.74725 0.18983 0.0
H370 H 0.10694 0.75241 0.19955 0.0
H371 H 0.03494 0.7602 0.13106 0.0
H372 H 0.09971 0.73324 0.2565 0.0
H373 H 0.93719 0.77967 0.24686 0.0
H374 H 0.92782 0.76344 0.3029 0.0
H375 H 0.99722 0.76346 0.37137 0.0
C376 C 0.06859 0.30654 0.36358 0.0
C377 C 0.9961 0.29035 0.36391 0.0
C378 C 0.07156 0.30405 0.3306 0.0
C379 C 1.00176 0.28544 0.29692 0.0
C380 C 0.92989 0.26876 0.29741 0.0
C381 C 0.92682 0.27137 0.33032 0.0
C382 C 1.00227 0.28152 0.26114 0.0
C383 C 0.05112 0.309 0.25301 0.0
C384 C 0.05011 0.30628 0.21685 0.0
C385 C 0.07836 0.34585 0.20568 0.0
C386 C 0.07948 0.34499 0.17229 0.0
C387 C 0.05324 0.30422 0.14923 0.0
H388 H 1.00452 0.23344 0.20195 0.0
C389 C 0.02622 0.26423 0.16063 0.0
C390 C 0.02456 0.2652 0.19399 0.0
H391 H 1.00545 0.23225 0.14356 0.0
H392 H 0.12394 0.32046 0.38904 0.0
H393 H 0.1294 0.31589 0.33196 0.0
H394 H 0.87527 0.25404 0.27205 0.0
H395 H 0.86942 0.25907 0.32921 0.0
H396 H 0.95713 0.25668 0.24001 0.0
H397 H 0.09062 0.33668 0.27277 0.0
H398 H 0.09941 0.37782 0.22281 0.0
H399 H 0.10213 0.37617 0.16482 0.0
C400 C 0.96226 0.29598 0.64524 0.0
C401 C 0.87572 0.285 0.61925 0.0
C402 C 0.99293 0.29841 0.68391 0.0
C403 C 0.93735 0.28999 0.69725 0.0
C404 C 0.85125 0.27866 0.67123 0.0
C405 C 0.82066 0.2764 0.63274 0.0
C406 C 0.96713 0.29019 0.73801 0.0
C407 C 0.03627 0.3146 0.76421 0.0
C408 C 0.06912 0.31163 0.8052 0.0
C409 C 0.1572 0.3184 0.83067 0.0
C410 C 0.19209 0.31321 0.86934 0.0
C411 C 0.1395 0.30165 0.88356 0.0
H412 H 0.94687 0.29796 0.80067 0.0
C413 C 0.05062 0.29691 0.85829 0.0
C414 C 0.01561 0.30181 0.81939 0.0
H415 H 1.0084 0.28848 0.86844 0.0
H416 H 1.00641 0.30244 0.63578 0.0
H417 H 0.06046 0.30572 0.70315 0.0
H418 H 0.80726 0.27153 0.6807 0.0
H419 H 0.75375 0.26737 0.61365 0.0
H420 H 0.93038 0.26908 0.74651 0.0
H421 H 0.07327 0.33565 0.75582 0.0
H422 H 0.19969 0.32653 0.82057 0.0
H423 H 0.26067 0.3179 0.88805 0.0
C424 C 0.96462 0.74214 0.64416 0.0
C425 C 0.04137 0.73812 0.64421 0.0
C426 C 0.96601 0.74314 0.67812 0.0
C427 C 0.04441 0.74027 0.71298 0.0
C428 C 0.12084 0.73574 0.71299 0.0
C429 C 0.11951 0.73499 0.6791 0.0
C430 C 0.0491 0.73997 0.7498 0.0
C431 C 0.98989 0.76059 0.7553 0.0
C432 C 0.99337 0.76026 0.79197 0.0
C433 C 0.91895 0.77259 0.79201 0.0
C434 C 0.91835 0.77221 0.82549 0.0
C435 C 0.99242 0.75952 0.85985 0.0
H436 H 0.12803 0.74046 0.8285 0.0
C437 C 0.06743 0.74804 0.86006 0.0
C438 C 0.0682 0.74864 0.82662 0.0
H439 H 0.126 0.73901 0.88622 0.0
H440 H 0.90314 0.74363 0.61783 0.0
H441 H 0.90539 0.74502 0.67679 0.0
H442 H 0.1821 0.73322 0.73938 0.0
H443 H 0.18 0.73248 0.68033 0.0
H444 H 0.10453 0.7226 0.77304 0.0
H445 H 0.93534 0.77835 0.73179 0.0
H446 H 0.86047 0.782 0.76591 0.0
H447 H 0.85926 0.78087 0.8243 0.0
loop_
_geom_bond_atom_site_label_1
_geom_bond_atom_site_label_2
_geom_bond_distance
_geom_bond_site_symmetry_2
_ccdc_geom_bond_type
La0 C2 2.963 . S
La0 O20 2.551 . S
La0 O21 2.661 . S
La0 O22 2.546 . S
La0 O23 2.734 1_554 S
La0 O24 2.488 . S
La0 O29 2.476 . S
La0 O31 2.469 1_554 S
La1 C11 2.955 . S
La1 O23 2.477 . S
La1 O25 2.477 1_556 S
La1 O26 2.543 . S
La1 O27 2.653 . S
La1 O28 2.548 . S
La1 O29 2.740 1_556 S
La1 O30 2.483 . S
C2 La0 2.963 . S
C2 C3 1.503 . S
C2 O20 1.261 . S
C2 O21 1.243 . S
C3 C2 1.503 . S
C3 C4 1.394 . S
C3 C8 1.373 . S
C4 C3 1.394 . S
C4 C5 1.380 . S
C4 H32 0.930 . S
C5 C4 1.380 . S
C5 C6 1.376 . S
C5 H33 0.930 . S
C6 C5 1.376 . S
C6 C7 1.370 . S
C7 C6 1.370 . S
C7 C8 1.396 . S
C7 H34 0.929 . S
C8 C3 1.373 . S
C8 C7 1.396 . S
C8 H35 0.929 . S
C9 O22 1.240 . S
C9 O23 1.289 1_554 S
C10 O24 1.258 . S
C10 O25 1.256 . S
C11 La1 2.955 . S
C11 C12 1.503 . S
C11 O26 1.261 . S
C11 O27 1.243 . S
C12 C11 1.503 . S
C12 C13 1.394 . S
C12 C17 1.373 . S
C13 C12 1.394 . S
C13 C14 1.380 . S
C13 H36 0.930 . S
C14 C13 1.380 . S
C14 C15 1.376 . S
C14 H37 0.930 . S
C15 C14 1.376 . S
C15 C16 1.370 . S
C16 C15 1.370 . S
C16 C17 1.396 . S
C16 H38 0.929 . S
C17 C12 1.373 . S
C17 C16 1.396 . S
C17 H39 0.929 . S
C18 O28 1.240 . S
C18 O29 1.289 1_556 S
C19 O30 1.258 . S
C19 O31 1.256 . S
O20 La0 2.551 . S
O20 C2 1.261 . S
O21 La0 2.661 . S
O21 C2 1.243 . S
O22 La0 2.546 . S
O22 C9 1.240 . S
O23 La0 2.734 1_556 S
O23 La1 2.477 . S
O23 C9 1.289 1_556 S
O24 La0 2.488 . S
O24 C10 1.258 . S
O25 La1 2.477 1_554 S
O25 C10 1.256 . S
O26 La1 2.543 . S
O26 C11 1.261 . S
O27 La1 2.653 . S
O27 C11 1.243 . S
O28 La1 2.548 . S
O28 C18 1.240 . S
O29 La0 2.476 . S
O29 La1 2.740 1_554 S
O29 C18 1.289 1_554 S
O30 La1 2.483 . S
O30 C19 1.258 . S
O31 La0 2.469 1_556 S
O31 C19 1.256 . S
H32 C4 0.930 . S
H33 C5 0.930 . S
H34 C7 0.929 . S
H35 C8 0.929 . S
H36 C13 0.930 . S
H37 C14 0.930 . S
H38 C16 0.929 . S
H39 C17 0.929 . S
La40 C42 2.963 . S
La40 O60 2.551 . S
La40 O61 2.661 . S
La40 O62 2.546 . S
La40 O63 2.734 1_554 S
La40 O64 2.488 . S
La40 O69 2.476 . S
La40 O71 2.469 1_554 S
La41 C51 2.955 . S
La41 O63 2.477 . S
La41 O65 2.477 1_556 S
La41 O66 2.543 . S
La41 O67 2.653 . S
La41 O68 2.548 . S
La41 O69 2.740 1_556 S
La41 O70 2.483 . S
C42 La40 2.963 . S
C42 C43 1.503 . S
C42 O60 1.261 . S
C42 O61 1.243 . S
C43 C42 1.503 . S
C43 C44 1.394 . S
C43 C48 1.373 . S
C44 C43 1.394 . S
C44 C45 1.380 . S
C44 H72 0.930 . S
C45 C44 1.380 . S
C45 C46 1.376 . S
C45 H73 0.930 . S
C46 C45 1.376 . S
C46 C47 1.370 . S
C47 C46 1.370 . S
C47 C48 1.396 . S
C47 H74 0.929 . S
C48 C43 1.373 . S
C48 C47 1.396 . S
C48 H75 0.929 . S
C49 O62 1.240 . S
C49 O63 1.289 1_554 S
C50 O64 1.258 . S
C50 O65 1.256 . S
C51 La41 2.955 . S
C51 C52 1.503 . S
C51 O66 1.261 . S
C51 O67 1.243 . S
C52 C51 1.503 . S
C52 C53 1.394 . S
C52 C57 1.373 . S
C53 C52 1.394 . S
C53 C54 1.380 . S
C53 H76 0.930 . S
C54 C53 1.380 . S
C54 C55 1.376 . S
C54 H77 0.930 . S
C55 C54 1.376 . S
C55 C56 1.370 . S
C56 C55 1.370 . S
C56 C57 1.396 . S
C56 H78 0.929 . S
C57 C52 1.373 . S
C57 C56 1.396 . S
C57 H79 0.929 . S
C58 O68 1.240 . S
C58 O69 1.289 1_556 S
C59 O70 1.258 . S
C59 O71 1.256 . S
O60 La40 2.551 . S
O60 C42 1.261 . S
O61 La40 2.661 . S
O61 C42 1.243 . S
O62 La40 2.546 . S
O62 C49 1.240 . S
O63 La40 2.734 1_556 S
O63 La41 2.477 . S
O63 C49 1.289 1_556 S
O64 La40 2.488 . S
O64 C50 1.258 . S
O65 La41 2.477 1_554 S
O65 C50 1.256 . S
O66 La41 2.543 . S
O66 C51 1.261 . S
O67 La41 2.653 . S
O67 C51 1.243 . S
O68 La41 2.548 . S
O68 C58 1.240 . S
O69 La40 2.476 . S
O69 La41 2.740 1_554 S
O69 C58 1.289 1_554 S
O70 La41 2.483 . S
O70 C59 1.258 . S
O71 La40 2.469 1_556 S
O71 C59 1.256 . S
H72 C44 0.930 . S
H73 C45 0.930 . S
H74 C47 0.929 . S
H75 C48 0.929 . S
H76 C53 0.930 . S
H77 C54 0.930 . S
H78 C56 0.929 . S
H79 C57 0.929 . S
La80 C82 2.928 . S
La80 O100 2.521 . S
La80 O101 2.628 . S
La80 O102 2.554 . S
La80 O103 2.757 . S
La80 O104 2.470 . S
La80 O109 2.482 . S
La80 O111 2.503 . S
La81 C91 2.928 . S
La81 O103 2.482 . S
La81 O105 2.503 . S
La81 O106 2.521 . S
La81 O107 2.628 . S
La81 O108 2.554 . S
La81 O109 2.757 . S
La81 O110 2.470 . S
C82 La80 2.928 . S
C82 C83 1.503 . S
C82 O100 1.261 . S
C82 O101 1.243 . S
C83 C82 1.503 . S
C83 C84 1.394 . S
C83 C88 1.373 . S
C84 C83 1.394 . S
C84 C85 1.380 . S
C84 H112 0.930 . S
C85 C84 1.380 . S
C85 C86 1.376 . S
C85 H113 0.930 . S
C86 C85 1.376 . S
C86 C87 1.370 . S
C87 C86 1.370 . S
C87 C88 1.396 . S
C87 H114 0.929 . S
C88 C83 1.373 . S
C88 C87 1.396 . S
C88 H115 0.929 . S
C89 O102 1.240 . S
C89 O103 1.289 . S
C90 O104 1.258 . S
C90 O105 1.256 . S
C91 La81 2.928 . S
C91 C92 1.503 . S
C91 O106 1.261 . S
C91 O107 1.243 . S
C92 C91 1.503 . S
C92 C93 1.394 . S
C92 C97 1.373 . S
C93 C92 1.394 . S
C93 C94 1.380 . S
C93 H116 0.930 . S
C94 C93 1.380 . S
C94 C95 1.376 . S
C94 H117 0.930 . S
C95 C94 1.376 . S
C95 C96 1.370 . S
C96 C95 1.370 . S
C96 C97 1.396 . S
C96 H118 0.929 . S
C97 C92 1.373 . S
C97 C96 1.396 . S
C97 H119 0.929 . S
C98 O108 1.240 . S
C98 O109 1.289 . S
C99 O110 1.258 . S
C99 O111 1.256 . S
O100 La80 2.521 . S
O100 C82 1.261 . S
O101 La80 2.628 . S
O101 C82 1.243 . S
O102 La80 2.554 . S
O102 C89 1.240 . S
O103 La80 2.757 . S
O103 La81 2.482 . S
O103 C89 1.289 . S
O104 La80 2.470 . S
O104 C90 1.258 . S
O105 La81 2.503 . S
O105 C90 1.256 . S
O106 La81 2.521 . S
O106 C91 1.261 . S
O107 La81 2.628 . S
O107 C91 1.243 . S
O108 La81 2.554 . S
O108 C98 1.240 . S
O109 La80 2.482 . S
O109 La81 2.757 . S
O109 C98 1.289 . S
O110 La81 2.470 . S
O110 C99 1.258 . S
O111 La80 2.503 . S
O111 C99 1.256 . S
H112 C84 0.930 . S
H113 C85 0.930 . S
H114 C87 0.929 . S
H115 C88 0.929 . S
H116 C93 0.930 . S
H117 C94 0.930 . S
H118 C96 0.929 . S
H119 C97 0.929 . S
La120 C122 2.928 . S
La120 O140 2.521 . S
La120 O141 2.628 . S
La120 O142 2.554 . S
La120 O143 2.757 . S
La120 O144 2.470 . S
La120 O149 2.482 . S
La120 O151 2.503 . S
La121 C131 2.928 . S
La121 O143 2.482 . S
La121 O145 2.503 . S
La121 O146 2.521 . S
La121 O147 2.628 . S
La121 O148 2.554 . S
La121 O149 2.757 . S
La121 O150 2.470 . S
C122 La120 2.928 . S
C122 C123 1.503 . S
C122 O140 1.261 . S
C122 O141 1.243 . S
C123 C122 1.503 . S
C123 C124 1.394 . S
C123 C128 1.373 . S
C124 C123 1.394 . S
C124 C125 1.380 . S
C124 H152 0.930 . S
C125 C124 1.380 . S
C125 C126 1.376 . S
C125 H153 0.930 . S
C126 C125 1.376 . S
C126 C127 1.370 . S
C127 C126 1.370 . S
C127 C128 1.396 . S
C127 H154 0.929 . S
C128 C123 1.373 . S
C128 C127 1.396 . S
C128 H155 0.929 . S
C129 O142 1.240 . S
C129 O143 1.289 . S
C130 O144 1.258 . S
C130 O145 1.256 . S
C131 La121 2.928 . S
C131 C132 1.503 . S
C131 O146 1.261 . S
C131 O147 1.243 . S
C132 C131 1.503 . S
C132 C133 1.394 . S
C132 C137 1.373 . S
C133 C132 1.394 . S
C133 C134 1.380 . S
C133 H156 0.930 . S
C134 C133 1.380 . S
C134 C135 1.376 . S
C134 H157 0.930 . S
C135 C134 1.376 . S
C135 C136 1.370 . S
C136 C135 1.370 . S
C136 C137 1.396 . S
C136 H158 0.929 . S
C137 C132 1.373 . S
C137 C136 1.396 . S
C137 H159 0.929 . S
C138 O148 1.240 . S
C138 O149 1.289 . S
C139 O150 1.258 . S
C139 O151 1.256 . S
O140 La120 2.521 . S
O140 C122 1.261 . S
O141 La120 2.628 . S
O141 C122 1.243 . S
O142 La120 2.554 . S
O142 C129 1.240 . S
O143 La120 2.757 . S
O143 La121 2.482 . S
O143 C129 1.289 . S
O144 La120 2.470 . S
O144 C130 1.258 . S
O145 La121 2.503 . S
O145 C130 1.256 . S
O146 La121 2.521 . S
O146 C131 1.261 . S
O147 La121 2.628 . S
O147 C131 1.243 . S
O148 La121 2.554 . S
O148 C138 1.240 . S
O149 La120 2.482 . S
O149 La121 2.757 . S
O149 C138 1.289 . S
O150 La121 2.470 . S
O150 C139 1.258 . S
O151 La120 2.503 . S
O151 C139 1.256 . S
H152 C124 0.930 . S
H153 C125 0.930 . S
H154 C127 0.929 . S
H155 C128 0.929 . S
H156 C133 0.930 . S
H157 C134 0.930 . S
H158 C136 0.929 . S
H159 C137 0.929 . S
C160 C161 1.386 1_554 S
C160 C162 1.383 . S
C160 H176 0.951 . S
C161 C160 1.386 1_556 S
C161 C165 1.383 . S
C162 C160 1.383 . S
C162 C163 1.402 1_554 S
C162 H177 0.951 . S
C163 C162 1.402 1_556 S
C163 C164 1.375 . S
C163 C166 1.481 . S
C164 C163 1.375 . S
C164 C165 1.367 . S
C164 H178 0.951 . S
C165 C161 1.383 . S
C165 C164 1.367 . S
C165 H179 0.950 . S
C166 C163 1.481 . S
C166 C167 1.297 1_556 S
C166 H180 0.950 . S
C167 C166 1.297 1_554 S
C167 C168 1.479 . S
C167 H181 0.950 . S
C168 C167 1.479 . S
C168 C169 1.375 . S
C168 C174 1.404 1_554 S
C169 C168 1.375 . S
C169 C170 1.369 . S
C169 H182 0.950 . S
C170 C169 1.369 . S
C170 C171 1.392 . S
C170 H183 0.951 . S
C171 C170 1.392 . S
C171 C173 1.384 1_554 S
H172 C174 0.949 . S
C173 C171 1.384 1_556 S
C173 C174 1.385 . S
C173 H175 0.950 . S
C174 C168 1.404 1_556 S
C174 H172 0.949 . S
C174 C173 1.385 . S
H175 C173 0.950 . S
H176 C160 0.951 . S
H177 C162 0.951 . S
H178 C164 0.951 . S
H179 C165 0.950 . S
H180 C166 0.950 . S
H181 C167 0.950 . S
H182 C169 0.950 . S
H183 C170 0.951 . S
C184 C185 1.386 . S
C184 C186 1.383 . S
C184 H200 0.951 . S
C185 C184 1.386 . S
C185 C189 1.383 . S
C186 C184 1.383 . S
C186 C187 1.402 . S
C186 H201 0.951 . S
C187 C186 1.402 . S
C187 C188 1.375 . S
C187 C190 1.481 . S
C188 C187 1.375 . S
C188 C189 1.367 . S
C188 H202 0.951 . S
C189 C185 1.383 . S
C189 C188 1.367 . S
C189 H203 0.950 . S
C190 C187 1.481 . S
C190 C191 1.297 . S
C190 H204 0.950 . S
C191 C190 1.297 . S
C191 C192 1.479 . S
C191 H205 0.950 . S
C192 C191 1.479 . S
C192 C193 1.375 . S
C192 C198 1.404 . S
C193 C192 1.375 . S
C193 C194 1.369 . S
C193 H206 0.950 . S
C194 C193 1.369 . S
C194 C195 1.392 . S
C194 H207 0.951 . S
C195 C194 1.392 . S
C195 C197 1.384 . S
H196 C198 0.949 . S
C197 C195 1.384 . S
C197 C198 1.385 . S
C197 H199 0.950 . S
C198 C192 1.404 . S
C198 H196 0.949 . S
C198 C197 1.385 . S
H199 C197 0.950 . S
H200 C184 0.951 . S
H201 C186 0.951 . S
H202 C188 0.951 . S
H203 C189 0.950 . S
H204 C190 0.950 . S
H205 C191 0.950 . S
H206 C193 0.950 . S
H207 C194 0.951 . S
C208 C209 1.386 1_554 S
C208 C210 1.383 . S
C208 H224 0.951 . S
C209 C208 1.386 1_556 S
C209 C213 1.383 . S
C210 C208 1.383 . S
C210 C211 1.402 1_554 S
C210 H225 0.951 . S
C211 C210 1.402 1_556 S
C211 C212 1.375 . S
C211 C214 1.481 1_455 S
C212 C211 1.375 . S
C212 C213 1.367 . S
C212 H226 0.951 . S
C213 C209 1.383 . S
C213 C212 1.367 . S
C213 H227 0.950 . S
C214 C211 1.481 1_655 S
C214 C215 1.297 . S
C214 H228 0.950 1_545 S
C215 C214 1.297 . S
C215 C216 1.479 1_545 S
C215 H229 0.950 1_556 S
C216 C215 1.479 1_565 S
C216 C217 1.375 1_556 S
C216 C222 1.404 . S
C217 C216 1.375 1_554 S
C217 C218 1.369 . S
C217 H230 0.950 . S
C218 C217 1.369 . S
C218 C219 1.392 . S
C218 H231 0.951 . S
C219 C218 1.392 . S
C219 C221 1.384 1_554 S
H220 C222 0.949 . S
C221 C219 1.384 1_556 S
C221 C222 1.385 . S
C221 H223 0.950 . S
C222 C216 1.404 . S
C222 H220 0.949 . S
C222 C221 1.385 . S
H223 C221 0.950 . S
H224 C208 0.951 . S
H225 C210 0.951 . S
H226 C212 0.951 . S
H227 C213 0.950 . S
H228 C214 0.950 1_565 S
H229 C215 0.950 1_554 S
H230 C217 0.950 . S
H231 C218 0.951 . S
C232 C233 1.386 . S
C232 C234 1.383 . S
C232 H248 0.951 . S
C233 C232 1.386 . S
C233 C237 1.383 . S
C234 C232 1.383 . S
C234 C235 1.402 . S
C234 H249 0.951 . S
C235 C234 1.402 . S
C235 C236 1.375 . S
C235 C238 1.481 1_655 S
C236 C235 1.375 . S
C236 C237 1.367 . S
C236 H250 0.951 . S
C237 C233 1.383 . S
C237 C236 1.367 . S
C237 H251 0.950 . S
C238 C235 1.481 1_455 S
C238 C239 1.297 . S
C238 H252 0.950 1_545 S
C239 C238 1.297 . S
C239 C240 1.479 1_545 S
C239 H253 0.950 . S
C240 C239 1.479 1_565 S
C240 C241 1.375 . S
C240 C246 1.404 . S
C241 C240 1.375 . S
C241 C242 1.369 . S
C241 H254 0.950 . S
C242 C241 1.369 . S
C242 C243 1.392 . S
C242 H255 0.951 . S
C243 C242 1.392 . S
C243 C245 1.384 . S
H244 C246 0.949 . S
C245 C243 1.384 . S
C245 C246 1.385 . S
C245 H247 0.950 . S
C246 C240 1.404 . S
C246 H244 0.949 . S
C246 C245 1.385 . S
H247 C245 0.950 . S
H248 C232 0.951 . S
H249 C234 0.951 . S
H250 C236 0.951 . S
H251 C237 0.950 . S
H252 C238 0.950 1_565 S
H253 C239 0.950 . S
H254 C241 0.950 . S
H255 C242 0.951 . S
C256 C257 1.386 . S
C256 C258 1.383 . S
C256 H272 0.951 . S
C257 C256 1.386 . S
C257 C261 1.383 . S
C258 C256 1.383 . S
C258 C259 1.402 . S
C258 H273 0.951 . S
C259 C258 1.402 . S
C259 C260 1.375 . S
C259 C262 1.481 . S
C260 C259 1.375 . S
C260 C261 1.367 . S
C260 H274 0.951 . S
C261 C257 1.383 . S
C261 C260 1.367 . S
C261 H275 0.950 . S
C262 C259 1.481 . S
C262 C263 1.297 . S
C262 H276 0.950 . S
C263 C262 1.297 . S
C263 C264 1.479 . S
C263 H277 0.950 . S
C264 C263 1.479 . S
C264 C265 1.375 . S
C264 C270 1.404 . S
C265 C264 1.375 . S
C265 C266 1.369 . S
C265 H278 0.950 . S
C266 C265 1.369 . S
C266 C267 1.392 . S
C266 H279 0.951 . S
C267 C266 1.392 . S
C267 C269 1.384 . S
H268 C270 0.949 . S
C269 C267 1.384 . S
C269 C270 1.385 . S
C269 H271 0.950 . S
C270 C264 1.404 . S
C270 H268 0.949 . S
C270 C269 1.385 . S
H271 C269 0.950 . S
H272 C256 0.951 . S
H273 C258 0.951 . S
H274 C260 0.951 . S
H275 C261 0.950 . S
H276 C262 0.950 . S
H277 C263 0.950 . S
H278 C265 0.950 . S
H279 C266 0.951 . S
C280 C281 1.386 . S
C280 C282 1.383 . S
C280 H296 0.951 . S
C281 C280 1.386 . S
C281 C285 1.383 . S
C282 C280 1.383 . S
C282 C283 1.402 . S
C282 H297 0.951 . S
C283 C282 1.402 . S
C283 C284 1.375 . S
C283 C286 1.481 . S
C284 C283 1.375 . S
C284 C285 1.367 . S
C284 H298 0.951 . S
C285 C281 1.383 . S
C285 C284 1.367 . S
C285 H299 0.950 . S
C286 C283 1.481 . S
C286 C287 1.297 . S
C286 H300 0.950 . S
C287 C286 1.297 . S
C287 C288 1.479 . S
C287 H301 0.950 . S
C288 C287 1.479 . S
C288 C289 1.375 . S
C288 C294 1.404 . S
C289 C288 1.375 . S
C289 C290 1.369 . S
C289 H302 0.950 . S
C290 C289 1.369 . S
C290 C291 1.392 . S
C290 H303 0.951 . S
C291 C290 1.392 . S
C291 C293 1.384 . S
H292 C294 0.949 . S
C293 C291 1.384 . S
C293 C294 1.385 . S
C293 H295 0.950 . S
C294 C288 1.404 . S
C294 H292 0.949 . S
C294 C293 1.385 . S
H295 C293 0.950 . S
H296 C280 0.951 . S
H297 C282 0.951 . S
H298 C284 0.951 . S
H299 C285 0.950 . S
H300 C286 0.950 . S
H301 C287 0.950 . S
H302 C289 0.950 . S
H303 C290 0.951 . S
C304 C305 1.386 . S
C304 C306 1.383 . S
C304 H320 0.951 . S
C305 C304 1.386 . S
C305 C309 1.383 . S
C306 C304 1.383 . S
C306 C307 1.402 . S
C306 H321 0.951 . S
C307 C306 1.402 . S
C307 C308 1.375 . S
C307 C310 1.481 . S
C308 C307 1.375 . S
C308 C309 1.367 . S
C308 H322 0.951 . S
C309 C305 1.383 . S
C309 C308 1.367 . S
C309 H323 0.950 . S
C310 C307 1.481 . S
C310 C311 1.297 . S
C310 H324 0.950 . S
C311 C310 1.297 . S
C311 C312 1.479 . S
C311 H325 0.950 . S
C312 C311 1.479 . S
C312 C313 1.375 . S
C312 C318 1.404 . S
C313 C312 1.375 . S
C313 C314 1.369 . S
C313 H326 0.950 . S
C314 C313 1.369 . S
C314 C315 1.392 . S
C314 H327 0.951 . S
C315 C314 1.392 . S
C315 C317 1.384 . S
H316 C318 0.949 . S
C317 C315 1.384 . S
C317 C318 1.385 . S
C317 H319 0.950 . S
C318 C312 1.404 . S
C318 H316 0.949 . S
C318 C317 1.385 . S
H319 C317 0.950 . S
H320 C304 0.951 . S
H321 C306 0.951 . S
H322 C308 0.951 . S
H323 C309 0.950 . S
H324 C310 0.950 . S
H325 C311 0.950 . S
H326 C313 0.950 . S
H327 C314 0.951 . S
C328 C329 1.386 . S
C328 C330 1.383 . S
C328 H344 0.951 . S
C329 C328 1.386 . S
C329 C333 1.383 . S
C330 C328 1.383 . S
C330 C331 1.402 . S
C330 H345 0.951 . S
C331 C330 1.402 . S
C331 C332 1.375 . S
C331 C334 1.481 . S
C332 C331 1.375 . S
C332 C333 1.367 . S
C332 H346 0.951 . S
C333 C329 1.383 . S
C333 C332 1.367 . S
C333 H347 0.950 . S
C334 C331 1.481 . S
C334 C335 1.297 . S
C334 H348 0.950 . S
C335 C334 1.297 . S
C335 C336 1.479 . S
C335 H349 0.950 . S
C336 C335 1.479 . S
C336 C337 1.375 . S
C336 C342 1.404 . S
C337 C336 1.375 . S
C337 C338 1.369 . S
C337 H350 0.950 . S
C338 C337 1.369 . S
C338 C339 1.392 . S
C338 H351 0.951 . S
C339 C338 1.392 . S
C339 C341 1.384 . S
H340 C342 0.949 . S
C341 C339 1.384 . S
C341 C342 1.385 . S
C341 H343 0.950 . S
C342 C336 1.404 . S
C342 H340 0.949 . S
C342 C341 1.385 . S
H343 C341 0.950 . S
H344 C328 0.951 . S
H345 C330 0.951 . S
H346 C332 0.951 . S
H347 C333 0.950 . S
H348 C334 0.950 . S
H349 C335 0.950 . S
H350 C337 0.950 . S
H351 C338 0.951 . S
C352 C353 1.386 . S
C352 C354 1.383 . S
C352 H368 0.951 . S
C353 C352 1.386 . S
C353 C357 1.383 . S
C354 C352 1.383 . S
C354 C355 1.402 . S
C354 H369 0.951 . S
C355 C354 1.402 . S
C355 C356 1.375 1_655 S
C355 C358 1.481 1_655 S
C356 C355 1.375 1_455 S
C356 C357 1.367 1_455 S
C356 H370 0.951 . S
C357 C353 1.383 . S
C357 C356 1.367 1_655 S
C357 H371 0.950 . S
C358 C355 1.481 1_455 S
C358 C359 1.297 . S
C358 H372 0.950 . S
C359 C358 1.297 . S
C359 C360 1.479 . S
C359 H373 0.950 1_455 S
C360 C359 1.479 . S
C360 C361 1.375 . S
C360 C366 1.404 . S
C361 C360 1.375 . S
C361 C362 1.369 . S
C361 H374 0.950 1_455 S
C362 C361 1.369 . S
C362 C363 1.392 . S
C362 H375 0.951 . S
C363 C362 1.392 . S
C363 C365 1.384 . S
H364 C366 0.949 . S
C365 C363 1.384 . S
C365 C366 1.385 . S
C365 H367 0.950 . S
C366 C360 1.404 . S
C366 H364 0.949 . S
C366 C365 1.385 . S
H367 C365 0.950 . S
H368 C352 0.951 . S
H369 C354 0.951 . S
H370 C356 0.951 . S
H371 C357 0.950 . S
H372 C358 0.950 . S
H373 C359 0.950 1_655 S
H374 C361 0.950 1_655 S
H375 C362 0.951 . S
C376 C377 1.386 . S
C376 C378 1.383 1_655 S
C376 H392 0.951 1_655 S
C377 C376 1.386 . S
C377 C381 1.383 . S
C378 C376 1.383 1_455 S
C378 C379 1.402 1_455 S
C378 H393 0.951 . S
C379 C378 1.402 1_655 S
C379 C380 1.375 . S
C379 C382 1.481 1_655 S
C380 C379 1.375 . S
C380 C381 1.367 . S
C380 H394 0.951 . S
C381 C377 1.383 . S
C381 C380 1.367 . S
C381 H395 0.950 . S
C382 C379 1.481 1_455 S
C382 C383 1.297 . S
C382 H396 0.950 1_455 S
C383 C382 1.297 . S
C383 C384 1.479 . S
C383 H397 0.950 . S
C384 C383 1.479 . S
C384 C385 1.375 . S
C384 C390 1.404 . S
C385 C384 1.375 . S
C385 C386 1.369 . S
C385 H398 0.950 . S
C386 C385 1.369 . S
C386 C387 1.392 . S
C386 H399 0.951 . S
C387 C386 1.392 . S
C387 C389 1.384 . S
H388 C390 0.949 . S
C389 C387 1.384 . S
C389 C390 1.385 . S
C389 H391 0.950 . S
C390 C384 1.404 . S
C390 H388 0.949 . S
C390 C389 1.385 . S
H391 C389 0.950 . S
H392 C376 0.951 1_455 S
H393 C378 0.951 . S
H394 C380 0.951 . S
H395 C381 0.950 . S
H396 C382 0.950 1_655 S
H397 C383 0.950 . S
H398 C385 0.950 . S
H399 C386 0.951 . S
C400 C401 1.386 . S
C400 C402 1.383 . S
C400 H416 0.941 1_655 S
C401 C400 1.386 . S
C401 C405 1.383 . S
C402 C400 1.383 . S
C402 C403 1.402 . S
C402 H417 0.951 1_655 S
C403 C402 1.402 . S
C403 C404 1.375 . S
C403 C406 1.481 . S
C404 C403 1.375 . S
C404 C405 1.367 . S
C404 H418 0.951 . S
C405 C401 1.383 . S
C405 C404 1.367 . S
C405 H419 0.950 . S
C406 C403 1.481 . S
C406 C407 1.297 1_655 S
C406 H420 0.950 . S
C407 C406 1.297 1_455 S
C407 C408 1.479 . S
C407 H421 0.950 . S
C408 C407 1.479 . S
C408 C409 1.375 . S
C408 C414 1.404 1_455 S
C409 C408 1.375 . S
C409 C410 1.369 . S
C409 H422 0.950 . S
C410 C409 1.369 . S
C410 C411 1.392 . S
C410 H423 0.951 . S
C411 C410 1.392 . S
C411 C413 1.384 . S
H412 C414 0.949 . S
C413 C411 1.384 . S
C413 C414 1.385 1_455 S
C413 H415 0.950 1_455 S
C414 C408 1.404 1_655 S
C414 H412 0.949 . S
C414 C413 1.385 1_655 S
H415 C413 0.950 1_655 S
H416 C400 0.941 1_455 S
H417 C402 0.951 1_455 S
H418 C404 0.951 . S
H419 C405 0.950 . S
H420 C406 0.950 . S
H421 C407 0.950 . S
H422 C409 0.950 . S
H423 C410 0.951 . S
C424 C425 1.386 1_655 S
C424 C426 1.383 . S
C424 H440 0.951 . S
C425 C424 1.386 1_455 S
C425 C429 1.383 . S
C426 C424 1.383 . S
C426 C427 1.402 1_655 S
C426 H441 0.951 . S
C427 C426 1.402 1_455 S
C427 C428 1.375 . S
C427 C430 1.481 . S
C428 C427 1.375 . S
C428 C429 1.367 . S
C428 H442 0.951 . S
C429 C425 1.383 . S
C429 C428 1.367 . S
C429 H443 0.950 . S
C430 C427 1.481 . S
C430 C431 1.297 1_455 S
C430 H444 0.950 . S
C431 C430 1.297 1_655 S
C431 C432 1.479 . S
C431 H445 0.950 . S
C432 C431 1.479 . S
C432 C433 1.375 . S
C432 C438 1.404 1_655 S
C433 C432 1.375 . S
C433 C434 1.369 . S
C433 H446 0.950 . S
C434 C433 1.369 . S
C434 C435 1.392 . S
C434 H447 0.951 . S
C435 C434 1.392 . S
C435 C437 1.384 1_655 S
H436 C438 0.949 . S
C437 C435 1.384 1_455 S
C437 C438 1.385 . S
C437 H439 0.950 . S
C438 C432 1.404 1_455 S
C438 H436 0.949 . S
C438 C437 1.385 . S
H439 C437 0.950 . S
H440 C424 0.951 . S
H441 C426 0.951 . S
H442 C428 0.951 . S
H443 C429 0.950 . S
H444 C430 0.950 . S
H445 C431 0.950 . S
H446 C433 0.950 . S
H447 C434 0.951 . S
C161 C58 1.565 . S
C171 C9 1.529 . S
C185 C98 1.563 . S
C195 C129 1.541 . S
C209 C18 1.554 . S
C219 C49 1.518 . S
C233 C138 1.554 . S
C243 C89 1.518 . S
C257 C130 1.598 . S
C267 C10 1.579 . S
C281 C46 0.947 . S
C291 C86 0.955 . S
C305 C59 1.625 . S
C315 C99 1.622 . S
C329 C135 0.913 . S
C339 C15 0.921 . S
C353 C50 1.607 . S
C363 C90 1.621 . S
C377 C126 0.915 . S
C387 C6 0.884 . S
C401 C139 1.616 . S
C411 C19 1.628 . S
C425 C95 0.929 . S
C435 C55 0.940 . S
