# Generated by pormake.
# Topology smn, (6)-cn, num edge types: 1
# Building blocks:
#     Node 0, Type 0, BuildingBlock: IZENUY_clean_sbu_0, # of connection points: 6
#     Node 1, Type 0, BuildingBlock: IZENUY_clean_sbu_0, # of connection points: 6
#     Node 2, Type 0, BuildingBlock: IZENUY_clean_sbu_0, # of connection points: 6
#     Node 3, Type 0, BuildingBlock: IZENUY_clean_sbu_0, # of connection points: 6
#     Node 4, Type 0, BuildingBlock: IZENUY_clean_sbu_0, # of connection points: 6
#     Node 5, Type 0, BuildingBlock: IZENUY_clean_sbu_0, # of connection points: 6
#     Node 6, Type 0, BuildingBlock: IZENUY_clean_sbu_0, # of connection points: 6
#     Node 7, Type 0, BuildingBlock: IZENUY_clean_sbu_0, # of connection points: 6
#     Node 8, Type 0, BuildingBlock: IZENUY_clean_sbu_0, # of connection points: 6
#     Node 9, Type 0, BuildingBlock: IZENUY_clean_sbu_0, # of connection points: 6
#     Node 10, Type 0, BuildingBlock: IZENUY_clean_sbu_0, # of connection points: 6
#     Node 11, Type 0, BuildingBlock: IZENUY_clean_sbu_0, # of connection points: 6
#     Node 12, Type 0, BuildingBlock: IZENUY_clean_sbu_0, # of connection points: 6
#     Node 13, Type 0, BuildingBlock: IZENUY_clean_sbu_0, # of connection points: 6
#     Node 14, Type 0, BuildingBlock: IZENUY_clean_sbu_0, # of connection points: 6
#     Node 15, Type 0, BuildingBlock: IZENUY_clean_sbu_0, # of connection points: 6
#     Node 16, Type 0, BuildingBlock: IZENUY_clean_sbu_0, # of connection points: 6
#     Node 17, Type 0, BuildingBlock: IZENUY_clean_sbu_0, # of connection points: 6
#     Edge 18, Type (0, 0), BuildingBlock: AJUNOK_clean_linker_0, # of connection points: 2
#     Edge 19, Type (0, 0), BuildingBlock: AJUNOK_clean_linker_0, # of connection points: 2
#     Edge 20, Type (0, 0), BuildingBlock: AJUNOK_clean_linker_0, # of connection points: 2
#     Edge 21, Type (0, 0), BuildingBlock: AJUNOK_clean_linker_0, # of connection points: 2
#     Edge 22, Type (0, 0), BuildingBlock: AJUNOK_clean_linker_0, # of connection points: 2
#     Edge 23, Type (0, 0), BuildingBlock: AJUNOK_clean_linker_0, # of connection points: 2
#     Edge 24, Type (0, 0), BuildingBlock: AJUNOK_clean_linker_0, # of connection points: 2
#     Edge 25, Type (0, 0), BuildingBlock: AJUNOK_clean_linker_0, # of connection points: 2
#     Edge 26, Type (0, 0), BuildingBlock: AJUNOK_clean_linker_0, # of connection points: 2
#     Edge 27, Type (0, 0), BuildingBlock: AJUNOK_clean_linker_0, # of connection points: 2
#     Edge 28, Type (0, 0), BuildingBlock: AJUNOK_clean_linker_0, # of connection points: 2
#     Edge 29, Type (0, 0), BuildingBlock: AJUNOK_clean_linker_0, # of connection points: 2
#     Edge 30, Type (0, 0), BuildingBlock: AJUNOK_clean_linker_0, # of connection points: 2
#     Edge 31, Type (0, 0), BuildingBlock: AJUNOK_clean_linker_0, # of connection points: 2
#     Edge 32, Type (0, 0), BuildingBlock: AJUNOK_clean_linker_0, # of connection points: 2
#     Edge 33, Type (0, 0), BuildingBlock: AJUNOK_clean_linker_0, # of connection points: 2
#     Edge 34, Type (0, 0), BuildingBlock: AJUNOK_clean_linker_0, # of connection points: 2
#     Edge 35, Type (0, 0), BuildingBlock: AJUNOK_clean_linker_0, # of connection points: 2
#     Edge 36, Type (0, 0), BuildingBlock: AJUNOK_clean_linker_0, # of connection points: 2
#     Edge 37, Type (0, 0), BuildingBlock: AJUNOK_clean_linker_0, # of connection points: 2
#     Edge 38, Type (0, 0), BuildingBlock: AJUNOK_clean_linker_0, # of connection points: 2
#     Edge 39, Type (0, 0), BuildingBlock: AJUNOK_clean_linker_0, # of connection points: 2
#     Edge 40, Type (0, 0), BuildingBlock: AJUNOK_clean_linker_0, # of connection points: 2
#     Edge 41, Type (0, 0), BuildingBlock: AJUNOK_clean_linker_0, # of connection points: 2
#     Edge 42, Type (0, 0), BuildingBlock: AJUNOK_clean_linker_0, # of connection points: 2
#     Edge 43, Type (0, 0), BuildingBlock: AJUNOK_clean_linker_0, # of connection points: 2
#     Edge 44, Type (0, 0), BuildingBlock: AJUNOK_clean_linker_0, # of connection points: 2
#     Edge 45, Type (0, 0), BuildingBlock: AJUNOK_clean_linker_0, # of connection points: 2
#     Edge 46, Type (0, 0), BuildingBlock: AJUNOK_clean_linker_0, # of connection points: 2
#     Edge 47, Type (0, 0), BuildingBlock: AJUNOK_clean_linker_0, # of connection points: 2
#     Edge 48, Type (0, 0), BuildingBlock: AJUNOK_clean_linker_0, # of connection points: 2
#     Edge 49, Type (0, 0), BuildingBlock: AJUNOK_clean_linker_0, # of connection points: 2
#     Edge 50, Type (0, 0), BuildingBlock: AJUNOK_clean_linker_0, # of connection points: 2
#     Edge 51, Type (0, 0), BuildingBlock: AJUNOK_clean_linker_0, # of connection points: 2
#     Edge 52, Type (0, 0), BuildingBlock: AJUNOK_clean_linker_0, # of connection points: 2
#     Edge 53, Type (0, 0), BuildingBlock: AJUNOK_clean_linker_0, # of connection points: 2
#     Edge 54, Type (0, 0), BuildingBlock: AJUNOK_clean_linker_0, # of connection points: 2
#     Edge 55, Type (0, 0), BuildingBlock: AJUNOK_clean_linker_0, # of connection points: 2
#     Edge 56, Type (0, 0), BuildingBlock: AJUNOK_clean_linker_0, # of connection points: 2
#     Edge 57, Type (0, 0), BuildingBlock: AJUNOK_clean_linker_0, # of connection points: 2
#     Edge 58, Type (0, 0), BuildingBlock: AJUNOK_clean_linker_0, # of connection points: 2
#     Edge 59, Type (0, 0), BuildingBlock: AJUNOK_clean_linker_0, # of connection points: 2
#     Edge 60, Type (0, 0), BuildingBlock: AJUNOK_clean_linker_0, # of connection points: 2
#     Edge 61, Type (0, 0), BuildingBlock: AJUNOK_clean_linker_0, # of connection points: 2
#     Edge 62, Type (0, 0), BuildingBlock: AJUNOK_clean_linker_0, # of connection points: 2
#     Edge 63, Type (0, 0), BuildingBlock: AJUNOK_clean_linker_0, # of connection points: 2
#     Edge 64, Type (0, 0), BuildingBlock: AJUNOK_clean_linker_0, # of connection points: 2
#     Edge 65, Type (0, 0), BuildingBlock: AJUNOK_clean_linker_0, # of connection points: 2
#     Edge 66, Type (0, 0), BuildingBlock: AJUNOK_clean_linker_0, # of connection points: 2
#     Edge 67, Type (0, 0), BuildingBlock: AJUNOK_clean_linker_0, # of connection points: 2
#     Edge 68, Type (0, 0), BuildingBlock: AJUNOK_clean_linker_0, # of connection points: 2
#     Edge 69, Type (0, 0), BuildingBlock: AJUNOK_clean_linker_0, # of connection points: 2
#     Edge 70, Type (0, 0), BuildingBlock: AJUNOK_clean_linker_0, # of connection points: 2
#     Edge 71, Type (0, 0), BuildingBlock: AJUNOK_clean_linker_0, # of connection points: 2
# Relax obj value: 0.165
# Max RMSD: 0.234
# Mean RMSD: 0.233
data_MOF--net-smn--node1-IZENUY_clean_sbu_0--edge1-AJUNOK_clean_linker_0
_symmetry_space_group_name_H-M    P1
_symmetry_Int_Tables_number       1
_symmetry_cell_setting            triclinic
loop_
_symmetry_equiv_pos_as_xyz
'x, y, z'
_cell_length_a     45.933989
_cell_length_b     45.808341
_cell_length_c     13.784013
_cell_angle_alpha  89.998772
_cell_angle_beta   90.006835
_cell_angle_gamma 120.00207
loop_
_atom_site_label
_atom_site_type_symbol
_atom_site_fract_x
_atom_site_fract_y
_atom_site_fract_z
_atom_type_partial_charge
Fe0 Fe 1.02976 0.24093 0.67528 0.0
Fe1 Fe 0.05074 0.19423 0.77092 0.0
O2 O 0.05011 0.23276 0.77215 0.0
Fe3 Fe 0.06988 0.26102 0.86991 0.0
O4 O 1.03502 0.26751 0.89279 0.0
O5 O 1.00778 0.25698 0.75376 0.0
O6 O 0.99127 0.19962 0.68451 0.0
C7 C 0.99059 0.17211 0.67356 0.0
C8 C 0.08763 0.30467 0.70382 0.0
O9 O 1.01746 0.17181 0.68288 0.0
C10 C 0.11034 0.2329 0.87106 0.0
O11 O 0.05115 0.22715 0.58486 0.0
O12 O 0.0811 0.21071 0.67438 0.0
O13 O 0.09138 0.29927 0.79246 0.0
O14 O 0.06418 0.28266 0.6532 0.0
C15 C 1.02422 0.19512 0.94586 0.0
O16 O 0.08417 0.20523 0.85859 0.0
O17 O 0.10882 0.25927 0.86056 0.0
C18 C 0.0766 0.22281 0.5966 0.0
O19 O 1.0204 0.17898 0.86751 0.0
O20 O 0.04888 0.22533 0.95882 0.0
C21 C 1.0114 0.26581 0.8427 0.0
Fe22 Fe 0.82571 0.83219 0.86614 0.0
Fe23 Fe 0.8927 0.87994 0.76786 0.0
O24 O 0.85397 0.8409 0.76821 0.0
Fe25 Fe 0.84535 0.81247 0.67028 0.0
O26 O 0.8044 0.80684 0.6465 0.0
O27 O 0.7873 0.81453 0.78877 0.0
O28 O 0.82688 0.87267 0.85623 0.0
C29 C 0.85307 0.90086 0.86465 0.0
C30 C 0.8201 0.76874 0.837 0.0
O31 O 0.88095 0.90274 0.8526 0.0
C32 C 0.91378 0.84016 0.6729 0.0
O33 O 0.86104 0.84749 0.95603 0.0
O34 O 0.90747 0.86518 0.86656 0.0
O35 O 0.82779 0.77394 0.74731 0.0
O36 O 0.82024 0.7912 0.88943 0.0
C37 C 0.86541 0.87773 0.59154 0.0
O38 O 0.91545 0.86811 0.68312 0.0
O39 O 0.88573 0.81384 0.68122 0.0
C40 C 0.89132 0.85335 0.94486 0.0
O41 O 0.87727 0.89416 0.66944 0.0
O42 O 0.86061 0.84777 0.58023 0.0
C43 C 0.78202 0.80668 0.69906 0.0
Fe44 Fe 0.25505 1.01719 0.86989 0.0
Fe45 Fe 0.20658 0.03616 0.77513 0.0
O46 O 0.24555 0.03653 0.77289 0.0
Fe47 Fe 0.27316 0.05627 0.67373 0.0
O48 O 0.27878 1.02096 0.64897 0.0
O49 O 0.27256 0.99651 0.79124 0.0
O50 O 0.21486 0.97777 0.86059 0.0
C51 C 0.18677 0.97568 0.87165 0.0
C52 C 0.31772 0.07537 0.83832 0.0
O53 O 0.18458 1.00165 0.86081 0.0
C54 C 0.24522 0.09677 0.67678 0.0
O55 O 0.23991 0.03702 0.96107 0.0
O56 O 0.22217 0.06608 0.8731 0.0
O57 O 0.31201 0.07744 0.74878 0.0
O58 O 0.29583 0.05304 0.89192 0.0
C59 C 0.20756 1.01076 0.59831 0.0
O60 O 0.21753 0.0705 0.68983 0.0
O61 O 0.27159 0.09525 0.68572 0.0
C62 C 0.23454 0.06185 0.95045 0.0
O63 O 0.19174 1.00625 0.67728 0.0
O64 O 0.23736 0.03592 0.58553 0.0
C65 C 0.27926 0.9987 0.70077 0.0
Fe66 Fe 1.02939 0.81257 0.17353 0.0
Fe67 Fe 0.06887 0.83157 0.369 0.0
O68 O 0.04942 0.84067 0.27161 0.0
Fe69 Fe 0.05001 0.87988 0.27227 0.0
O70 O 0.08002 0.89427 0.175 0.0
O71 O 0.0503 0.84817 0.0843 0.0
O72 O 0.06416 0.80613 0.14996 0.0
C73 C 0.087 0.80664 0.20109 0.0
C74 C 0.9897 0.84143 0.17333 0.0
O75 O 0.08978 0.81423 0.29097 0.0
C76 C 1.02403 0.85215 0.44741 0.0
O77 O 1.0078 0.77397 0.25026 0.0
O78 O 1.03339 0.79055 0.39176 0.0
O79 O 1.0161 0.86902 0.18586 0.0
O80 O 0.9908 0.81482 0.18412 0.0
C81 C 0.11003 0.90002 0.37047 0.0
O82 O 0.04875 0.84673 0.45914 0.0
O83 O 1.01999 0.8645 0.36962 0.0
C84 C 1.01043 0.76865 0.33982 0.0
O85 O 0.10804 0.87193 0.35934 0.0
O86 O 0.08415 0.90213 0.35868 0.0
C87 C 0.07557 0.87803 0.0967 0.0
Fe88 Fe 0.27399 0.24075 0.17501 0.0
Fe89 Fe 0.20681 0.19371 0.27352 0.0
O90 O 0.2458 0.23251 0.27298 0.0
Fe91 Fe 0.25469 0.26119 0.37028 0.0
O92 O 0.29568 0.26681 0.39355 0.0
O93 O 0.31247 0.25836 0.25178 0.0
O94 O 0.27237 0.20007 0.18624 0.0
C95 C 0.24601 0.17201 0.17801 0.0
C96 C 0.28014 0.30449 0.20263 0.0
O97 O 0.21828 0.17056 0.18909 0.0
C98 C 0.18615 0.23383 0.36883 0.0
O99 O 0.23868 0.22555 0.08524 0.0
O100 O 0.19243 0.20879 0.17469 0.0
O101 O 0.27222 0.29949 0.29224 0.0
O102 O 0.2799 0.28185 0.15081 0.0
C103 C 0.23368 0.19566 0.45027 0.0
O104 O 0.18426 0.20582 0.35805 0.0
O105 O 0.21431 0.26003 0.36014 0.0
C106 C 0.20869 0.22046 0.0965 0.0
O107 O 0.22172 0.17922 0.37242 0.0
O108 O 0.23951 0.22603 0.46087 0.0
C109 C 0.31796 0.26672 0.34102 0.0
Fe110 Fe 0.89278 0.03711 0.2703 0.0
Fe111 Fe 0.82575 1.01733 0.36868 0.0
O112 O 0.85386 0.03682 0.27028 0.0
Fe113 Fe 0.84487 0.05592 0.17157 0.0
O114 O 0.88493 0.09539 0.18185 0.0
O115 O 0.91522 0.07153 0.18453 0.0
O116 O 0.90724 0.06708 0.36805 0.0
C117 C 0.89103 0.06267 0.44627 0.0
C118 C 0.86548 1.01105 0.09463 0.0
O119 O 0.86111 0.03764 0.45804 0.0
C120 C 0.78228 0.99769 0.20159 0.0
O121 O 0.88129 1.00289 0.35612 0.0
O122 O 0.8272 0.97814 0.35878 0.0
O123 O 0.86061 0.03611 0.08235 0.0
O124 O 0.87754 1.00698 0.1728 0.0
C125 C 0.81956 0.07468 0.33773 0.0
O126 O 0.78723 0.99614 0.29203 0.0
O127 O 0.80439 1.01994 0.14847 0.0
C128 C 0.85357 0.97652 0.36686 0.0
O129 O 0.82025 0.05291 0.39148 0.0
O130 O 0.82672 0.07651 0.24769 0.0
C131 C 0.91304 0.09744 0.17196 0.0
Fe132 Fe 0.73887 0.59532 0.20243 0.0
Fe133 Fe 0.71735 0.52763 0.1053 0.0
O134 O 0.71778 0.56675 0.10624 0.0
Fe135 Fe 0.69731 0.57528 1.01056 0.0
O136 O 0.73198 0.61682 0.987 0.0
O137 O 0.76091 0.6331 0.12358 0.0
O138 O 0.77689 0.59214 0.19138 0.0
C139 C 0.77769 0.56546 0.20267 0.0
C140 C 0.68157 0.6023 0.17839 0.0
O141 O 0.75111 0.5381 0.19131 0.0
C142 C 0.65707 0.5066 1.00853 0.0
O143 O 0.71735 0.56009 0.29284 0.0
O144 O 0.68774 0.51332 0.20371 0.0
O145 O 0.67609 0.5918 0.09086 0.0
O146 O 0.7054 0.60365 0.22647 0.0
C147 C 0.7428 0.55553 0.9298 0.0
O148 O 0.68336 0.50524 1.01902 0.0
O149 O 0.65852 0.5344 1.02079 0.0
C150 C 0.69242 0.52985 0.2818 0.0
O151 O 0.74711 0.54313 1.00724 0.0
O152 O 0.71795 0.56091 0.91906 0.0
C153 C 0.75645 0.63838 0.03554 0.0
Fe154 Fe 0.49137 0.16579 0.20104 0.0
Fe155 Fe 0.55859 0.21364 0.10432 0.0
O156 O 0.52 0.17446 0.10427 0.0
Fe157 Fe 0.51202 0.14593 1.00739 0.0
O158 O 0.47066 0.13904 0.9834 0.0
O159 O 0.45334 0.1488 0.12246 0.0
O160 O 0.49287 0.20629 0.19066 0.0
C161 C 0.51893 0.23429 0.20187 0.0
C162 C 0.4868 0.10259 0.17461 0.0
O163 O 0.54687 0.2363 0.18996 0.0
C164 C 0.58052 0.17485 1.00735 0.0
O165 O 0.52659 0.18064 0.29149 0.0
O166 O 0.57323 0.19853 0.20238 0.0
O167 O 0.49546 0.10769 0.08556 0.0
O168 O 0.48521 0.12462 0.22456 0.0
C169 C 0.53113 0.21127 0.92845 0.0
O170 O 0.58163 0.20249 1.01854 0.0
O171 O 0.55288 0.14833 1.01857 0.0
C172 C 0.55682 0.18622 0.28012 0.0
O173 O 0.543 0.22777 1.00632 0.0
O174 O 0.52638 0.18125 0.91705 0.0
C175 C 0.44847 0.14028 0.03325 0.0
Fe176 Fe 0.91908 0.34912 0.20258 0.0
Fe177 Fe 0.87154 0.36815 0.10234 0.0
O178 O 0.91051 0.3685 0.1038 0.0
Fe179 Fe 0.93905 0.38827 1.00639 0.0
O180 O 0.94462 0.35271 0.98349 0.0
O181 O 0.9372 0.32845 0.12668 0.0
O182 O 0.87898 0.30977 0.19144 0.0
C183 C 0.85085 0.3077 0.20062 0.0
C184 C 0.98206 0.4072 0.17454 0.0
O185 O 0.84867 0.33358 0.18739 0.0
C186 C 0.91124 0.42909 1.00785 0.0
O187 O 0.90329 0.36905 0.29141 0.0
O188 O 0.88625 0.39803 0.2004 0.0
O189 O 0.97732 0.40925 0.08421 0.0
O190 O 0.95966 0.38484 0.22669 0.0
C191 C 0.87414 0.34304 0.92646 0.0
O192 O 0.88347 0.40263 1.01695 0.0
O193 O 0.93758 0.42742 1.01682 0.0
C194 C 0.89805 0.39389 0.279 0.0
O195 O 0.8576 0.33835 1.00416 0.0
O196 O 0.90403 0.36823 0.91571 0.0
C197 C 0.94484 0.33062 0.03694 0.0
Fe198 Fe 0.69494 0.14463 0.50619 0.0
Fe199 Fe 0.73523 0.16488 0.70032 0.0
O200 O 0.71494 0.1732 0.6034 0.0
Fe201 Fe 0.71478 0.21207 0.60352 0.0
O202 O 0.74419 0.22652 0.5048 0.0
O203 O 0.71504 0.1799 0.41578 0.0
O204 O 0.72999 0.13865 0.48201 0.0
C205 C 0.75315 0.1396 0.53255 0.0
C206 C 0.65418 0.17233 0.50671 0.0
O207 O 0.75637 0.1478 0.62201 0.0
C208 C 0.69024 0.1853 0.78058 0.0
O209 O 0.67407 0.10635 0.58422 0.0
O210 O 0.70037 0.12359 0.72441 0.0
O211 O 0.68014 0.20032 0.51897 0.0
O212 O 0.65601 0.14612 0.51714 0.0
C213 C 0.77563 0.23364 0.69815 0.0
O214 O 0.71493 0.17974 0.79101 0.0
O215 O 0.68549 0.19699 0.70253 0.0
C216 C 0.67746 0.10119 0.67338 0.0
O217 O 0.77403 0.20563 0.68921 0.0
O218 O 0.74931 0.23503 0.68805 0.0
C219 C 0.7398 0.2101 0.42696 0.0
Fe220 Fe 0.87378 0.52642 0.6076 0.0
Fe221 Fe 0.94083 0.57402 0.50894 0.0
O222 O 0.91252 0.56549 0.60676 0.0
Fe223 Fe 0.92115 0.59412 0.70416 0.0
O224 O 0.88065 0.59263 0.69366 0.0
O225 O 0.85095 0.53837 0.69194 0.0
O226 O 0.85909 0.54101 0.50837 0.0
C227 C 0.87533 0.55279 0.43015 0.0
C228 C 0.90104 0.52893 0.78421 0.0
O229 O 0.90562 0.55874 0.41917 0.0
C230 C 0.98443 0.59956 0.6755 0.0
O231 O 0.8854 0.50327 0.52348 0.0
O232 O 0.93946 0.53352 0.51931 0.0
O233 O 0.90607 0.55901 0.79488 0.0
O234 O 0.88916 0.51238 0.70652 0.0
C235 C 0.94658 0.63766 0.53678 0.0
O236 O 0.97914 0.5915 0.58608 0.0
O237 O 0.96219 0.59989 0.72768 0.0
C238 C 0.91331 0.50541 0.5095 0.0
O239 O 0.94661 0.61513 0.48502 0.0
O240 O 0.93853 0.63249 0.62629 0.0
C241 C 0.85261 0.5663 0.70267 0.0
Fe242 Fe 0.49234 0.35185 0.7025 0.0
Fe243 Fe 0.55936 0.37031 0.60632 0.0
O244 O 0.52098 0.37118 0.60527 0.0
Fe245 Fe 0.51312 0.39124 0.50669 0.0
O246 O 0.47187 0.35626 0.48268 0.0
O247 O 0.45417 0.33107 0.62436 0.0
O248 O 0.49312 0.31236 0.69336 0.0
C249 C 0.51901 0.31007 0.70394 0.0
C250 C 0.48772 0.41019 0.672 0.0
O251 O 0.5471 0.3359 0.69222 0.0
C252 C 0.58166 0.43103 0.50798 0.0
O253 O 0.52749 0.37194 0.79296 0.0
O254 O 0.57425 0.40019 0.70423 0.0
O255 O 0.49606 0.41286 0.58279 0.0
O256 O 0.48706 0.38752 0.72464 0.0
C257 C 0.53229 0.34503 0.43016 0.0
O258 O 0.58262 0.40446 0.52051 0.0
O259 O 0.554 0.42999 0.51769 0.0
C260 C 0.55789 0.39626 0.78194 0.0
O261 O 0.54371 0.34036 0.50874 0.0
O262 O 0.5279 0.37042 0.41772 0.0
C263 C 0.44939 0.33369 0.53438 0.0
Fe264 Fe 0.40288 0.92824 0.53866 0.0
Fe265 Fe 0.3644 0.90811 0.34137 0.0
O266 O 0.38402 0.89989 0.44033 0.0
Fe267 Fe 0.38472 0.86137 0.44091 0.0
O268 O 0.35454 0.84635 0.53801 0.0
O269 O 0.38277 0.89284 0.62803 0.0
O270 O 0.36709 0.93326 0.56019 0.0
C271 C 0.34486 0.93299 0.50669 0.0
C272 C 0.44444 0.90145 0.54121 0.0
O273 O 0.34286 0.92532 0.41704 0.0
C274 C 0.41032 0.88868 0.26519 0.0
O275 O 0.42373 0.96669 0.46161 0.0
O276 O 0.39962 0.94938 0.31846 0.0
O277 O 0.4188 0.87332 0.52756 0.0
O278 O 0.4423 0.92751 0.53069 0.0
C279 C 0.32442 0.83938 0.34212 0.0
O280 O 0.3851 0.8932 0.25271 0.0
O281 O 0.41484 0.87712 0.3438 0.0
C282 C 0.42165 0.97182 0.3716 0.0
O283 O 0.32554 0.86721 0.35125 0.0
O284 O 0.35091 0.83843 0.35423 0.0
C285 C 0.3582 0.86266 0.61574 0.0
Fe286 Fe 0.15686 0.49799 0.53422 0.0
Fe287 Fe 0.22358 0.54516 0.43505 0.0
O288 O 0.18478 0.50639 0.4356 0.0
Fe289 Fe 0.17605 0.47795 0.33792 0.0
O290 O 0.13472 0.47166 0.31648 0.0
O291 O 0.11843 0.48107 0.45791 0.0
O292 O 0.15865 0.53881 0.52516 0.0
C293 C 0.18514 0.56668 0.53441 0.0
C294 C 0.152 0.43475 0.50524 0.0
O295 O 0.21268 0.56782 0.52274 0.0
C296 C 0.24457 0.50629 0.33564 0.0
O297 O 0.19244 0.51269 0.62268 0.0
O298 O 0.23824 0.52926 0.53114 0.0
O299 O 0.1596 0.43972 0.4155 0.0
O300 O 0.15082 0.45673 0.55668 0.0
C301 C 0.19559 0.54344 0.26065 0.0
O302 O 0.24574 0.5339 0.34711 0.0
O303 O 0.21681 0.47978 0.34603 0.0
C304 C 0.22202 0.51691 0.60913 0.0
O305 O 0.2079 0.55985 0.33855 0.0
O306 O 0.19037 0.51333 0.24847 0.0
C307 C 0.11284 0.47262 0.36881 0.0
Fe308 Fe 0.60594 0.71842 0.34034 0.0
Fe309 Fe 0.58701 0.68292 0.54204 0.0
O310 O 0.57824 0.70127 0.44066 0.0
Fe311 Fe 0.54028 0.70269 0.44076 0.0
O312 O 0.52436 0.67269 0.34383 0.0
O313 O 0.57017 0.69936 0.25145 0.0
O314 O 0.60828 0.68068 0.32062 0.0
C315 C 0.61069 0.66103 0.3793 0.0
C316 C 0.58145 0.76226 0.3398 0.0
O317 O 0.60616 0.66242 0.46996 0.0
C318 C 0.56724 0.72838 0.61636 0.0
O319 O 0.64513 0.73845 0.41619 0.0
O320 O 0.62714 0.71942 0.56389 0.0
O321 O 0.55307 0.73709 0.35488 0.0
O322 O 0.60705 0.75907 0.34695 0.0
C323 C 0.51881 0.64187 0.53757 0.0
O324 O 0.57081 0.70265 0.62969 0.0
O325 O 0.55641 0.73307 0.5371 0.0
C326 C 0.64999 0.73929 0.50786 0.0
O327 O 0.54688 0.64341 0.53152 0.0
O328 O 0.51743 0.66834 0.52647 0.0
C329 C 0.53926 0.67651 0.26362 0.0
Fe330 Fe 0.40163 0.49968 0.02935 0.0
Fe331 Fe 0.37864 0.5439 0.92875 0.0
O332 O 0.38076 0.50622 0.93073 0.0
Fe333 Fe 0.36195 0.47722 0.8339 0.0
O334 O 0.39779 0.47219 0.81364 0.0
O335 O 0.42499 0.48465 0.95324 0.0
O336 O 0.43924 0.54188 1.01993 0.0
C337 C 0.43832 0.56859 0.03129 0.0
C338 C 0.34502 0.43483 1.00242 0.0
O339 O 0.41105 0.56762 1.01738 0.0
C340 C 0.31964 0.50325 0.83091 0.0
O341 O 0.37887 0.51264 0.11716 0.0
O342 O 0.348 0.52713 0.02455 0.0
O343 O 0.3413 0.43934 0.91303 0.0
O344 O 0.36819 0.45743 0.05244 0.0
C345 C 0.40646 0.543 0.75625 0.0
O346 O 0.34549 0.53133 0.83974 0.0
O347 O 0.32212 0.47739 0.84072 0.0
C348 C 0.35285 0.51589 0.10353 0.0
O349 O 0.40942 0.55946 0.83334 0.0
O350 O 0.38226 0.51252 0.7437 0.0
C351 C 0.42183 0.47541 0.86475 0.0
Fe352 Fe 0.6073 0.90771 0.84232 0.0
Fe353 Fe 0.54121 0.85936 0.94339 0.0
O354 O 0.57955 0.89872 0.94159 0.0
Fe355 Fe 0.58818 0.92712 0.03926 0.0
O356 O 0.62943 0.93348 0.06063 0.0
O357 O 0.64613 0.9257 0.91783 0.0
O358 O 0.60677 0.86768 0.85224 0.0
C359 C 0.58087 0.8394 0.84306 0.0
C360 C 0.61174 0.97056 0.87163 0.0
O361 O 0.5528 0.83693 0.85656 0.0
C362 C 0.51965 0.89825 0.04019 0.0
O363 O 0.57133 0.89193 0.75443 0.0
O364 O 0.52556 0.87413 0.84691 0.0
O365 O 0.60474 0.96556 0.96181 0.0
O366 O 0.61212 0.9484 0.81921 0.0
C367 C 0.56988 0.86202 0.11754 0.0
O368 O 0.51882 0.87068 0.03079 0.0
O369 O 0.54732 0.9249 0.03026 0.0
C370 C 0.54127 0.88642 0.76824 0.0
O371 O 0.55767 0.84547 0.03995 0.0
O372 O 0.57413 0.89181 0.12943 0.0
C373 C 0.6516 0.9335 1.00748 0.0
Fe374 Fe 0.22576 0.70393 0.93756 0.0
Fe375 Fe 0.159 0.68457 0.03566 0.0
O376 O 0.18713 0.70409 0.93746 0.0
Fe377 Fe 0.17862 0.72361 0.83896 0.0
O378 O 0.2194 0.76271 0.84797 0.0
O379 O 0.24807 0.73731 0.84958 0.0
O380 O 0.24066 0.7345 0.03391 0.0
C381 C 0.22455 0.73044 0.1123 0.0
C382 C 0.19781 0.67733 0.76309 0.0
O383 O 0.19454 0.70549 0.12476 0.0
C384 C 0.11544 0.6655 0.86908 0.0
O385 O 0.21453 0.67057 0.02563 0.0
O386 O 0.1606 0.64539 0.02654 0.0
O387 O 0.19324 0.7026 0.75009 0.0
O388 O 0.20988 0.67327 0.84142 0.0
C389 C 0.1536 0.74252 1.005 0.0
O390 O 0.12061 0.66304 0.95882 0.0
O391 O 0.13744 0.68833 0.81688 0.0
C392 C 0.18706 0.64402 0.03581 0.0
O393 O 0.15306 0.71989 0.05762 0.0
O394 O 0.16169 0.74516 0.91557 0.0
C395 C 0.24718 0.76392 0.83912 0.0
C396 C 0.13363 0.25814 0.5268 0.0
C397 C 0.10114 0.22991 0.51815 0.0
C398 C 0.16078 0.26076 0.47243 0.0
C399 C 0.15649 0.23478 0.4091 0.0
H400 H 0.1385 0.27734 0.58051 0.0
H401 H 0.18564 0.28205 0.48542 0.0
S402 S 0.07542 0.15745 0.35287 0.0
N403 N 0.06554 0.17711 0.43565 0.0
N404 N 0.11619 0.18161 0.33347 0.0
C405 C 0.12354 0.20753 0.39524 0.0
C406 C 0.09597 0.20513 0.44995 0.0
C407 C 0.8268 0.92316 0.4662 0.0
C408 C 0.85319 0.94599 0.4061 0.0
C409 C 0.8296 0.89846 0.51953 0.0
C410 C 0.8585 0.89531 0.51311 0.0
H411 H 0.80492 0.92585 0.47751 0.0
H412 H 0.80996 0.88317 0.57096 0.0
S413 S 0.93243 0.94536 0.35632 0.0
N414 N 0.90758 0.96111 0.33546 0.0
N415 N 0.91248 0.91479 0.43616 0.0
C416 C 0.88381 0.91613 0.44806 0.0
C417 C 0.88118 0.94138 0.39422 0.0
C418 C 0.16946 0.98962 0.4549 0.0
C419 C 0.19009 0.98542 0.52172 0.0
C420 C 0.14506 0.96209 0.40139 0.0
C421 C 0.1404 0.92936 0.41288 0.0
H422 H 0.17064 1.01377 0.44865 0.0
H423 H 0.12859 0.96618 0.35409 0.0
S424 S 0.1899 0.90603 0.57542 0.0
N425 N 0.20542 0.94676 0.59434 0.0
N426 N 0.16048 0.89527 0.49188 0.0
C427 C 0.16249 0.92545 0.47505 0.0
C428 C 0.187 0.95341 0.5303 0.0
C429 C 0.27014 0.11852 0.02306 0.0
C430 C 0.24137 0.08629 0.02922 0.0
C431 C 0.27284 0.14585 0.07716 0.0
C432 C 0.24648 0.14199 0.13786 0.0
H433 H 0.28976 0.12313 0.97133 0.0
H434 H 0.29464 0.17055 0.06604 0.0
S435 S 0.16761 0.06151 0.18748 0.0
N436 N 0.18756 0.05127 0.10675 0.0
N437 N 0.19228 0.10218 0.20875 0.0
C438 C 0.21862 0.1092 0.14942 0.0
C439 C 0.2161 0.08148 0.09482 0.0
C440 C 0.97501 0.13257 0.14243 0.0
C441 C 0.9424 0.12785 0.12976 0.0
C442 C 1.00261 0.15696 0.08925 0.0
C443 C 0.99861 0.17755 0.02159 0.0
H444 H 0.97897 0.11615 0.19046 0.0
H445 H 1.0267 0.1582 0.09652 0.0
S446 S 0.91956 0.17716 0.96448 0.0
N447 N 0.90859 0.14779 0.04856 0.0
N448 N 0.96023 0.19272 0.94677 0.0
C449 C 0.9667 0.17438 1.01172 0.0
C450 C 0.93866 0.14988 0.06661 0.0
C451 C 0.9348 0.87507 0.07429 0.0
C452 C 0.90948 0.84744 0.02385 0.0
C453 C 0.95928 0.87212 0.12753 0.0
C454 C 0.95978 0.84153 0.13117 0.0
H455 H 0.9369 0.89962 0.06784 0.0
H456 H 0.97898 0.89458 0.1621 0.0
S457 S 0.8974 0.7612 1.01477 0.0
N458 N 0.88523 0.78828 0.98365 0.0
N459 N 0.93086 0.78239 0.08426 0.0
C460 C 0.9333 0.8132 0.08539 0.0
C461 C 0.90836 0.8163 0.03123 0.0
C462 C 0.93912 0.81409 0.56658 0.0
C463 C 0.94344 0.83931 0.63283 0.0
C464 C 0.9664 0.81701 0.51246 0.0
C465 C 0.99904 0.84468 0.52461 0.0
H466 H 0.9142 0.79327 0.55113 0.0
H467 H 0.96156 0.79854 0.45637 0.0
S468 S 1.02466 0.915 0.69795 0.0
N469 N 0.98368 0.89117 0.71437 0.0
N470 N 1.03473 0.89611 0.61315 0.0
C471 C 1.00417 0.86865 0.59555 0.0
C472 C 0.97642 0.86602 0.64976 0.0
C473 C 0.21518 0.12803 0.63385 0.0
C474 C 0.24543 0.12702 0.63566 0.0
C475 C 0.21235 0.15271 0.5811 0.0
C476 C 0.23978 0.17773 0.52942 0.0
H477 H 0.19284 0.10851 0.66931 0.0
H478 H 0.18798 0.15094 0.57578 0.0
S479 S 0.32526 0.18866 0.51609 0.0
N480 N 0.30416 0.15526 0.58615 0.0
N481 N 0.2985 0.20133 0.48659 0.0
C482 C 0.27067 0.17844 0.53528 0.0
C483 C 0.27365 0.15328 0.58888 0.0
C484 C 0.90922 0.11637 0.53521 0.0
C485 C 0.90954 0.08591 0.52641 0.0
C486 C 0.93423 0.14369 0.58847 0.0
C487 C 0.96065 0.14155 0.63346 0.0
H488 H 0.89087 0.11987 0.49528 0.0
H489 H 0.93399 0.16721 0.58913 0.0
S490 S 0.9705 0.0657 0.63829 0.0
N491 N 0.93661 0.05422 0.57169 0.0
N492 N 0.98322 0.10476 0.6729 0.0
C493 C 0.95966 0.1102 0.63021 0.0
C494 C 0.93427 0.08262 0.57614 0.0
C495 C 0.83033 0.95332 0.02821 0.0
C496 C 0.85814 0.98601 1.01731 0.0
C497 C 0.82722 0.92611 0.97275 0.0
C498 C 0.85236 0.93052 0.90631 0.0
H499 H 0.81182 0.94838 0.08408 0.0
H500 H 0.80627 0.90113 0.98718 0.0
S501 S 0.9287 1.01185 0.84579 0.0
N502 N 0.90982 1.0218 0.93076 0.0
N503 N 0.90454 0.97096 0.82698 0.0
C504 C 0.87929 0.96358 0.89102 0.0
C505 C 0.88212 0.99125 0.94662 0.0
C506 C 0.12472 0.93996 0.89897 0.0
C507 C 0.15742 0.94505 0.91294 0.0
C508 C 0.09706 0.91547 0.95176 0.0
C509 C 0.1011 0.89519 1.02043 0.0
H510 H 0.12075 0.95623 0.85031 0.0
H511 H 0.07291 0.91403 0.94363 0.0
S512 S 0.18041 0.89652 0.08079 0.0
N513 N 0.19136 0.9257 0.9961 0.0
N514 N 0.13964 0.88063 0.09733 0.0
C515 C 0.13312 0.89867 0.03141 0.0
C516 C 0.16121 0.92324 0.97682 0.0
C517 C 0.14146 0.20265 0.91285 0.0
C518 C 0.14049 0.23302 0.91202 0.0
C519 C 0.16599 0.19959 0.96527 0.0
C520 C 0.1909 0.22688 1.01768 0.0
H521 H 0.12202 0.18039 0.8768 0.0
H522 H 0.16418 0.17511 0.96979 0.0
S523 S 0.20192 0.31262 0.03346 0.0
N524 N 0.16866 0.29173 0.96303 0.0
N525 N 0.21447 0.28564 0.06212 0.0
C526 C 0.19165 0.25791 1.0128 0.0
C527 C 0.16663 0.26113 0.95945 0.0
C528 C 0.82713 0.59316 0.80625 0.0
C529 C 0.82287 0.56714 0.74314 0.0
C530 C 0.79995 0.59063 0.86031 0.0
C531 C 0.76738 0.56252 0.85135 0.0
H532 H 0.85198 0.61444 0.81932 0.0
H533 H 0.80486 0.60982 0.91408 0.0
S534 S 0.7418 0.4898 0.68711 0.0
N535 N 0.7826 0.51387 0.66804 0.0
N536 N 0.73185 0.50962 0.76922 0.0
C537 C 0.76229 0.53763 0.78359 0.0
C538 C 0.78992 0.53989 0.72938 0.0
C539 C 0.54863 0.24999 0.78642 0.0
C540 C 0.52334 0.22857 0.85106 0.0
C541 C 0.54583 0.27483 0.73411 0.0
C542 C 0.51768 0.27928 0.74476 0.0
H543 H 0.57172 0.24913 0.78134 0.0
H544 H 0.56674 0.29184 0.68866 0.0
S545 S 0.44369 0.22783 0.90145 0.0
N546 N 0.46882 0.21232 0.92056 0.0
N547 N 0.46291 0.2581 0.82027 0.0
C548 C 0.49123 0.25641 0.80447 0.0
C549 C 0.49432 0.23141 0.85847 0.0
C550 C 0.85347 0.2868 0.85164 0.0
C551 C 0.85663 0.31896 0.84709 0.0
C552 C 0.82886 0.25962 0.79731 0.0
C553 C 0.80609 0.26358 0.73809 0.0
H554 H 0.86871 0.2821 0.90237 0.0
H555 H 0.82617 0.23493 0.80721 0.0
S556 S 0.80688 0.344 0.69284 0.0
N557 N 0.83731 0.35408 0.77254 0.0
N558 N 0.79111 0.30343 0.67008 0.0
C559 C 0.81073 0.29633 0.72797 0.0
C560 C 0.83592 0.32391 0.78279 0.0
C561 C 0.88646 0.44318 0.47987 0.0
C562 C 0.91402 0.47601 0.46564 0.0
C563 C 0.8828 0.41554 0.42548 0.0
C564 C 0.90654 0.41973 0.35477 0.0
H565 H 0.86667 0.43908 0.53031 0.0
H566 H 0.86022 0.39126 0.43446 0.0
S567 S 0.98394 0.49946 0.29181 0.0
N568 N 0.96651 0.51024 0.37912 0.0
N569 N 0.95889 0.45861 0.27498 0.0
C570 C 0.93492 0.45191 0.34291 0.0
C571 C 0.93896 0.47995 0.39915 0.0
C572 C 0.64239 0.46041 0.45943 0.0
C573 C 0.61203 0.46108 0.46701 0.0
C574 C 0.66997 0.485 0.40704 0.0
C575 C 0.66873 0.51174 0.36166 0.0
H576 H 0.64439 0.43968 0.48987 0.0
H577 H 0.69168 0.48191 0.39699 0.0
S578 S 0.59734 0.52793 0.36717 0.0
N579 N 0.58391 0.49292 0.43077 0.0
N580 N 0.636 0.53913 0.33274 0.0
C581 C 0.63968 0.51425 0.37404 0.0
C582 C 0.61133 0.48902 0.42691 0.0
C583 C 0.61926 0.19953 0.47677 0.0
C584 C 0.62384 0.17146 0.46458 0.0
C585 C 0.59486 0.20277 0.42373 0.0
C586 C 0.5741 0.17804 0.35664 0.0
H587 H 0.63579 0.22002 0.52429 0.0
H588 H 0.59377 0.22577 0.43052 0.0
S589 S 0.57439 0.09906 0.3001 0.0
N590 N 0.60373 0.11748 0.38403 0.0
N591 N 0.55891 0.12431 0.28225 0.0
C592 C 0.57723 0.14917 0.34708 0.0
C593 C 0.60171 0.14559 0.40191 0.0
C594 C 0.64148 0.20526 0.96108 0.0
C595 C 0.61055 0.17467 0.96639 0.0
C596 C 0.66885 0.20782 0.90856 0.0
C597 C 0.66667 0.17981 0.86055 0.0
H598 H 0.64413 0.228 0.99353 0.0
H599 H 0.69113 0.23238 0.90036 0.0
S600 S 0.59304 0.09332 0.85757 0.0
N601 N 0.58066 0.11506 0.92441 0.0
N602 N 0.63212 0.12022 0.82518 0.0
C603 C 0.63686 0.14865 0.87009 0.0
C604 C 0.60885 0.14594 0.92348 0.0
C605 C 0.93885 0.4832 0.91182 0.0
C606 C 0.9119 0.45985 0.9694 0.0
C607 C 0.93651 0.50825 0.85897 0.0
C608 C 0.90748 0.51124 0.86338 0.0
H609 H 0.96088 0.48067 0.90197 0.0
H610 H 0.9566 0.52391 0.80921 0.0
S611 S 0.83212 0.45996 1.01394 0.0
N612 N 0.85684 0.44415 0.03606 0.0
N613 N 0.85276 0.49109 0.93621 0.0
C614 C 0.88159 0.48992 0.92621 0.0
C615 C 0.88377 0.46432 0.97958 0.0
C616 C 0.62603 0.44539 0.96389 0.0
C617 C 0.62682 0.47663 0.96734 0.0
C618 C 0.60136 0.41795 0.91109 0.0
C619 C 0.57611 0.42036 0.86087 0.0
H620 H 0.64569 0.44255 0.99818 0.0
H621 H 0.60326 0.39539 0.90467 0.0
S622 S 0.56466 0.49488 0.85196 0.0
N623 N 0.59821 0.5071 0.92095 0.0
N624 N 0.55215 0.45551 0.82101 0.0
C625 C 0.57523 0.45052 0.86826 0.0
C626 C 0.60039 0.4786 0.92205 0.0
C627 C 0.54539 0.29641 0.23137 0.0
C628 C 0.51782 0.26356 0.2446 0.0
C629 C 0.54847 0.32395 0.28488 0.0
C630 C 0.52411 0.31961 0.3536 0.0
H631 H 0.56562 0.30059 0.18261 0.0
H632 H 0.57112 0.34825 0.27723 0.0
S633 S 0.44638 0.23972 0.41298 0.0
N634 N 0.46461 0.22911 0.32761 0.0
N635 N 0.47117 0.28059 0.43036 0.0
C636 C 0.49569 0.28741 0.36419 0.0
C637 C 0.49224 0.25946 0.3088 0.0
C638 C 0.78882 0.27258 0.23021 0.0
C639 C 0.82142 0.27723 0.24256 0.0
C640 C 0.7612 0.2481 0.28318 0.0
C641 C 0.76514 0.22731 0.35025 0.0
H642 H 0.78489 0.28914 0.1827 0.0
H643 H 0.73717 0.24699 0.27641 0.0
S644 S 0.8442 0.22761 0.40677 0.0
N645 N 0.85517 0.25708 0.32302 0.0
N646 N 0.80353 0.21204 0.42451 0.0
C647 C 0.79705 0.23045 0.3598 0.0
C648 C 0.82511 0.25504 0.30513 0.0
C649 C 0.8318 0.53112 0.30145 0.0
C650 C 0.85741 0.55876 0.351 0.0
C651 C 0.8075 0.53429 0.24822 0.0
C652 C 0.80751 0.56511 0.24392 0.0
H653 H 0.82934 0.50643 0.30872 0.0
H654 H 0.78751 0.51184 0.21442 0.0
S655 S 0.87102 0.64559 0.35701 0.0
N656 N 0.8827 0.61821 0.38892 0.0
N657 N 0.83728 0.62448 0.2885 0.0
C658 C 0.83434 0.59346 0.28844 0.0
C659 C 0.85913 0.59014 0.34246 0.0
C660 C 0.46557 0.92403 0.18545 0.0
C661 C 0.43408 0.89424 0.18606 0.0
C662 C 0.49278 0.92623 0.13234 0.0
C663 C 0.4895 0.89841 0.07958 0.0
H664 H 0.4698 0.945 0.2314 0.0
H665 H 0.517 0.94903 0.13808 0.0
S666 S 0.4109 0.81594 0.05053 0.0
N667 N 0.40027 0.83756 0.12393 0.0
N668 N 0.45087 0.84133 0.02344 0.0
C669 C 0.45732 0.8693 0.07461 0.0
C670 C 0.42976 0.86726 0.12828 0.0
C671 C 0.16049 0.56243 0.17432 0.0
C672 C 0.19085 0.562 0.18096 0.0
C673 C 0.15853 0.58773 0.12159 0.0
C674 C 0.18707 0.61369 0.07505 0.0
H675 H 0.13877 0.54448 0.21559 0.0
H676 H 0.13516 0.58814 0.12265 0.0
S677 S 0.27164 0.62151 0.06454 0.0
N678 N 0.24911 0.58782 0.13214 0.0
N679 N 0.24582 0.63499 0.03178 0.0
C680 C 0.21693 0.6119 0.07606 0.0
C681 C 0.21876 0.58622 0.12962 0.0
C682 C 0.49909 0.60408 0.08568 0.0
C683 C 0.46647 0.59951 0.07669 0.0
C684 C 0.52453 0.63186 0.13692 0.0
C685 C 0.51795 0.65536 0.18279 0.0
H686 H 0.50474 0.58565 0.05542 0.0
H687 H 0.54883 0.63394 0.14552 0.0
S688 S 0.43875 0.65799 0.17103 0.0
N689 N 0.43079 0.62395 0.10924 0.0
N690 N 0.47809 0.67461 0.20733 0.0
C691 C 0.4864 0.65244 0.16858 0.0
C692 C 0.46079 0.62485 0.11543 0.0
C693 C 0.55525 0.77724 0.81663 0.0
C694 C 0.58218 0.81024 0.80051 0.0
C695 C 0.55212 0.74962 0.76343 0.0
C696 C 0.57574 0.75412 0.69202 0.0
H697 H 0.53551 0.77295 0.8675 0.0
H698 H 0.52991 0.72512 0.77343 0.0
S699 S 0.65175 0.83447 0.62489 0.0
N700 N 0.63415 0.84504 0.71221 0.0
N701 N 0.6274 0.79342 0.60985 0.0
C702 C 0.60359 0.78652 0.67854 0.0
C703 C 0.60714 0.81452 0.73371 0.0
C704 C 0.30239 0.84313 0.6917 0.0
C705 C 0.33376 0.84462 0.69365 0.0
C706 C 0.27479 0.81847 0.74466 0.0
C707 C 0.27758 0.79414 0.8 0.0
H708 H 0.2986 0.85975 0.644 0.0
H709 H 0.25068 0.81711 0.73689 0.0
S710 S 0.35563 0.78989 0.83598 0.0
N711 N 0.36686 0.82176 0.76055 0.0
N712 N 0.31561 0.77571 0.86107 0.0
C713 C 0.30963 0.79706 0.80739 0.0
C714 C 0.33755 0.82215 0.75371 0.0
C715 C 0.24437 0.48104 0.67009 0.0
C716 C 0.23925 0.50857 0.68496 0.0
C717 C 0.26848 0.47753 0.72382 0.0
C718 C 0.28885 0.50202 0.79234 0.0
H719 H 0.23107 0.46321 0.61233 0.0
H720 H 0.27292 0.45704 0.70621 0.0
S721 S 0.28291 0.57705 0.86385 0.0
N722 N 0.25434 0.55901 0.77781 0.0
N723 N 0.29989 0.55296 0.87851 0.0
C724 C 0.2823 0.52844 0.812 0.0
C725 C 0.2575 0.53167 0.75815 0.0
C726 C 0.27079 0.4784 0.23963 0.0
C727 C 0.27441 0.50617 0.29343 0.0
C728 C 0.29762 0.48069 0.18427 0.0
C729 C 0.32916 0.51043 0.18283 0.0
H730 H 0.24655 0.45558 0.23493 0.0
H731 H 0.29305 0.45978 0.13761 0.0
S732 S 0.35286 0.58914 0.31657 0.0
N733 N 0.31323 0.56359 0.34675 0.0
N734 N 0.36313 0.56735 0.24284 0.0
C735 C 0.33377 0.53748 0.24069 0.0
C736 C 0.30656 0.53542 0.29627 0.0
C737 C 0.5538 0.79654 0.30648 0.0
C738 C 0.58279 0.79329 0.2999 0.0
C739 C 0.55099 0.82144 0.25478 0.0
C740 C 0.57722 0.84448 0.19546 0.0
H741 H 0.53219 0.77849 0.34786 0.0
H742 H 0.52728 0.8212 0.25615 0.0
S743 S 0.65977 0.84983 0.16009 0.0
N744 N 0.63949 0.81773 0.23518 0.0
N745 N 0.63393 0.86429 0.13764 0.0
C746 C 0.60717 0.84317 0.1932 0.0
C747 C 0.61012 0.81778 0.24588 0.0
C748 C 0.269 0.81206 0.25197 0.0
C749 C 0.29442 0.80913 0.3006 0.0
C750 C 0.24401 0.78498 0.19793 0.0
C751 C 0.24325 0.75393 0.19191 0.0
H752 H 0.26956 0.83598 0.25057 0.0
H753 H 0.22646 0.78904 0.15559 0.0
S754 S 0.30129 0.73164 0.31335 0.0
N755 N 0.3149 0.77107 0.34591 0.0
N756 N 0.26827 0.72092 0.24344 0.0
C757 C 0.26699 0.74992 0.2449 0.0
C758 C 0.2924 0.77729 0.29972 0.0
C759 C 0.16215 0.62026 0.69274 0.0
C760 C 0.19089 0.65249 0.68553 0.0
C761 C 0.15906 0.59291 0.63796 0.0
C762 C 0.18508 0.5967 0.57594 0.0
H763 H 0.14281 0.61571 0.74541 0.0
H764 H 0.13724 0.56825 0.64944 0.0
S765 S 0.26426 0.67681 0.52626 0.0
N766 N 0.24459 0.68726 0.60732 0.0
N767 N 0.23928 0.63623 0.5046 0.0
C768 C 0.21307 0.62939 0.56429 0.0
C769 C 0.21592 0.65717 0.61927 0.0
C770 C 0.46398 0.56449 0.6911 0.0
C771 C 0.43187 0.56091 0.6804 0.0
C772 C 0.49179 0.58898 0.63868 0.0
C773 C 0.48855 0.6114 0.57581 0.0
H774 H 0.46806 0.54968 0.745 0.0
H775 H 0.5163 0.59192 0.65294 0.0
S776 S 0.40916 0.61065 0.51808 0.0
N777 N 0.39792 0.58013 0.59847 0.0
N778 N 0.44984 0.62631 0.50003 0.0
C779 C 0.45606 0.60666 0.56064 0.0
C780 C 0.42782 0.58149 0.61324 0.0
C781 C 0.48093 0.8758 0.56704 0.0
C782 C 0.47462 0.90251 0.58494 0.0
C783 C 0.50509 0.87225 0.62051 0.0
C784 C 0.52366 0.89519 0.69419 0.0
H785 H 0.46597 0.85656 0.51416 0.0
H786 H 0.50766 0.85028 0.60841 0.0
S787 S 0.51814 0.97013 0.76786 0.0
N788 N 0.4907 0.95335 0.67842 0.0
N789 N 0.53495 0.94584 0.78112 0.0
C790 C 0.51869 0.92272 0.71009 0.0
C791 C 0.49459 0.92672 0.65462 0.0
C792 C 0.10853 0.3401 0.55224 0.0
C793 C 0.10959 0.33792 0.65476 0.0
C794 C 0.12422 0.37123 0.50304 0.0
C795 C 0.14164 0.40173 0.55401 0.0
H796 H 0.09434 0.31751 0.50918 0.0
H797 H 0.12103 0.3714 0.42521 0.0
S798 S 0.157 0.41032 0.82058 0.0
N799 N 0.13322 0.3693 0.80353 0.0
N800 N 0.1627 0.42763 0.71209 0.0
C801 C 0.14507 0.39986 0.65569 0.0
C802 C 0.12917 0.36811 0.7057 0.0
C803 C 0.74522 0.7901 0.54921 0.0
C804 C 0.74832 0.79448 0.65145 0.0
C805 C 0.71373 0.77418 0.502 0.0
C806 C 0.68366 0.76169 0.55461 0.0
H807 H 0.76738 0.79807 0.50478 0.0
H808 H 0.71296 0.77022 0.42436 0.0
S809 S 0.67752 0.77078 0.82181 0.0
N810 N 0.71825 0.78797 0.80173 0.0
N811 N 0.65936 0.75816 0.71482 0.0
C812 C 0.68649 0.76784 0.65624 0.0
C813 C 0.7186 0.78419 0.70404 0.0
C814 C 0.30582 0.96171 0.70388 0.0
C815 C 0.29045 0.97665 0.65147 0.0
C816 C 0.32158 0.94609 0.65605 0.0
C817 C 0.32265 0.94444 0.55338 0.0
H818 H 0.30722 0.96355 0.78226 0.0
H819 H 0.33413 0.93621 0.70051 0.0
S820 S 0.28149 0.97497 0.38224 0.0
N821 N 0.27396 0.98526 0.49031 0.0
N822 N 0.30343 0.95597 0.40197 0.0
C823 C 0.30524 0.95705 0.5004 0.0
C824 C 0.28932 0.97315 0.54891 0.0
C825 C 0.35395 0.09986 0.9872 0.0
C826 C 0.35136 0.09761 0.8846 0.0
C827 C 0.38524 0.11544 0.03527 0.0
C828 C 0.41551 0.12933 0.98309 0.0
H829 H 0.33145 0.08835 0.03147 0.0
H830 H 0.38559 0.11501 0.11382 0.0
S831 S 0.42317 0.13473 0.71342 0.0
N832 N 0.38224 0.11413 0.733 0.0
N833 N 0.44084 0.14317 0.82175 0.0
C834 C 0.41333 0.12929 0.88029 0.0
C835 C 0.38142 0.11363 0.83155 0.0
C836 C 0.97361 0.29147 0.83973 0.0
C837 C 0.98916 0.27671 0.89213 0.0
C838 C 0.95789 0.30716 0.8876 0.0
C839 C 0.95669 0.30867 0.99026 0.0
H840 H 0.97507 0.29251 0.76128 0.0
H841 H 0.94753 0.31926 0.84315 0.0
S842 S 0.9891 0.26921 0.16149 0.0
N843 N 0.99903 0.26137 0.05331 0.0
N844 N 0.96945 0.29054 0.14179 0.0
C845 C 0.96999 0.29186 0.0433 0.0
C846 C 0.98624 0.27609 0.99474 0.0
C847 C 0.8058 0.73297 0.98811 0.0
C848 C 0.80876 0.73529 0.88549 0.0
C849 C 0.79124 0.70186 0.03723 0.0
C850 C 0.77842 0.67142 0.98615 0.0
H851 H 0.81391 0.75543 0.03156 0.0
H852 H 0.78827 0.70162 0.11524 0.0
S853 S 0.78332 0.66295 0.71887 0.0
N854 N 0.80038 0.70396 0.73618 0.0
N855 N 0.77257 0.6456 0.82753 0.0
C856 C 0.78289 0.67334 0.88418 0.0
C857 C 0.79813 0.70513 0.83422 0.0
C858 C 0.96262 0.67377 0.38558 0.0
C859 C 0.95809 0.67113 0.4878 0.0
C860 C 0.97715 0.70496 0.33669 0.0
C861 C 0.98831 0.73523 0.3876 0.0
H862 H 0.95576 0.6515 0.34236 0.0
H863 H 0.98139 0.70545 0.25925 0.0
S864 S 0.9788 0.74276 0.65329 0.0
N865 N 0.9632 0.70193 0.63604 0.0
N866 N 0.99081 0.76039 0.54533 0.0
C867 C 0.98221 0.73292 0.48892 0.0
C868 C 0.96708 0.70106 0.53858 0.0
C869 C 0.35456 0.28222 0.4907 0.0
C870 C 0.35169 0.27896 0.38824 0.0
C871 C 0.38593 0.29789 0.5383 0.0
C872 C 0.41612 0.31161 0.48581 0.0
H873 H 0.33228 0.27342 0.53516 0.0
H874 H 0.38649 0.3008 0.61638 0.0
S875 S 0.42311 0.30649 0.21765 0.0
N876 N 0.38224 0.2881 0.23734 0.0
N877 N 0.44102 0.31807 0.32533 0.0
C878 C 0.41365 0.30695 0.38373 0.0
C879 C 0.38162 0.29053 0.33547 0.0
C880 C 0.80661 0.0982 0.48716 0.0
C881 C 0.80766 0.09657 0.38448 0.0
C882 C 0.79091 0.11388 0.53515 0.0
C883 C 0.77522 0.12853 0.48287 0.0
H884 H 0.81711 0.08621 0.53156 0.0
H885 H 0.78962 0.11297 0.61363 0.0
S886 S 0.77477 0.13559 0.21335 0.0
N887 N 0.79455 0.1144 0.233 0.0
N888 N 0.76499 0.14355 0.32159 0.0
C889 C 0.77796 0.12899 0.38017 0.0
C890 C 0.79419 0.11323 0.33151 0.0
C891 C 0.68771 0.94862 0.15771 0.0
C892 C 0.685 0.94476 0.05531 0.0
C893 C 0.7189 0.96347 0.2059 0.0
C894 C 0.749 0.97534 0.15411 0.0
H895 H 0.66552 0.94112 0.2016 0.0
H896 H 0.71948 0.96735 0.28356 0.0
S897 S 0.75609 0.96648 0.88776 0.0
N898 N 0.71538 0.95055 0.90596 0.0
N899 N 0.77388 0.97836 0.99553 0.0
C900 C 0.74658 0.96943 0.05264 0.0
C901 C 0.71473 0.95418 1.00361 0.0
C902 C 0.12461 0.78086 0.20342 0.0
C903 C 0.10927 0.79591 0.15145 0.0
C904 C 0.14048 0.76545 0.15504 0.0
C905 C 0.142 0.76451 0.05233 0.0
H906 H 0.12288 0.77939 0.28181 0.0
H907 H 0.15065 0.75306 0.19904 0.0
S908 S 0.11044 0.80508 0.8824 0.0
N909 N 0.10013 0.81232 0.99079 0.0
N910 N 0.12993 0.78355 0.90141 0.0
C911 C 0.12901 0.78168 0.99984 0.0
C912 C 0.11264 0.7972 0.04889 0.0
C913 C 0.29527 0.34014 0.05105 0.0
C914 C 0.29199 0.33794 0.15361 0.0
C915 C 0.31038 0.37122 1.00166 0.0
C916 C 0.32339 0.40176 0.05238 0.0
H917 H 0.28692 0.31757 1.0079 0.0
H918 H 0.31343 0.37132 0.92372 0.0
S919 S 0.31759 0.41053 0.31932 0.0
N920 N 0.30023 0.36948 0.30237 0.0
N921 N 0.3289 0.42777 0.21068 0.0
C922 C 0.31857 0.39996 0.15429 0.0
C923 C 0.30284 0.36821 0.20447 0.0
C924 C 0.04546 0.44367 0.17094 0.0
C925 C 1.01521 0.42947 0.22327 0.0
C926 C 0.07676 0.45912 0.2189 0.0
C927 C 0.07939 0.46132 0.32151 0.0
H928 H 0.04501 0.4413 0.09269 0.0
H929 H 0.09916 0.46842 0.17469 0.0
S930 S 1.00782 0.43284 0.49192 0.0
N931 N 0.99008 0.42214 0.38386 0.0
N932 N 0.0487 0.45119 0.47253 0.0
C933 C 0.04944 0.4495 0.37421 0.0
C934 C 1.01752 0.43356 0.32558 0.0
C935 C 0.67553 0.63666 0.31105 0.0
C936 C 0.66115 0.61492 0.23018 0.0
C937 C 0.65796 0.64921 0.36401 0.0
C938 C 0.62501 0.64058 0.33937 0.0
H939 H 0.70117 0.64495 0.3327 0.0
H940 H 0.67094 0.66717 0.42172 0.0
S941 S 0.57368 0.5812 0.14404 0.0
N942 N 0.61046 0.58311 0.13453 0.0
N943 N 0.5774 0.60649 0.23467 0.0
C944 C 0.60969 0.61784 0.2617 0.0
C945 C 0.62769 0.6051 0.20708 0.0
C946 C 0.44542 1.00778 0.2215 0.0
C947 C 0.4437 1.0054 0.3242 0.0
C948 C 0.46125 0.03908 0.17289 0.0
C949 C 0.47594 0.06955 0.22465 0.0
H950 H 0.43336 0.98515 0.1776 0.0
H951 H 0.46037 0.0393 0.09439 0.0
S952 S 0.48286 0.07775 0.49405 0.0
N953 N 0.46154 0.03668 0.47518 0.0
N954 N 0.49097 0.09524 0.38544 0.0
C955 C 0.47638 0.06753 0.32741 0.0
C956 C 0.46046 0.03564 0.37666 0.0
C957 C 0.64122 0.03423 0.87412 0.0
C958 C 0.62266 1.00385 0.82334 0.0
C959 C 0.6575 0.06538 0.82499 0.0
C960 C 0.65568 0.06782 0.72269 0.0
H961 H 0.64486 0.03389 0.95167 0.0
H962 H 0.67257 0.08776 0.86803 0.0
S963 S 0.60608 0.99588 0.55722 0.0
N964 N 0.60067 0.97839 0.66531 0.0
N965 N 0.63059 0.0368 0.57444 0.0
C966 C 0.63521 0.0378 0.672 0.0
C967 C 0.61896 1.00598 0.72181 0.0
C968 C 0.052 0.62995 0.87355 0.0
C969 C 0.08218 0.64306 0.82128 0.0
C970 C 1.02067 0.61447 0.8257 0.0
C971 C 1.01794 0.61118 0.72323 0.0
H972 H 0.05256 0.63325 0.95148 0.0
H973 H 0.99836 0.60603 0.86982 0.0
S974 S 0.08935 0.63652 0.5539 0.0
N975 N 0.10717 0.64809 0.66172 0.0
N976 N 0.04853 0.61915 0.5729 0.0
C977 C 0.04783 0.62197 0.67089 0.0
C978 C 0.07977 0.63786 0.7195 0.0
C979 C 0.47279 0.43168 0.82193 0.0
C980 C 0.47628 0.43235 0.71945 0.0
C981 C 0.45765 0.44788 0.86977 0.0
C982 C 0.44476 0.46516 0.81744 0.0
H983 H 0.48083 0.41747 0.86617 0.0
H984 H 0.45421 0.44504 0.94764 0.0
S985 S 0.45091 0.47846 0.54993 0.0
N986 N 0.46839 0.45504 0.56904 0.0
N987 N 0.43941 0.48482 0.65772 0.0
C988 C 0.44984 0.46781 0.71562 0.0
C989 C 0.46568 0.45165 0.66706 0.0
loop_
_geom_bond_atom_site_label_1
_geom_bond_atom_site_label_2
_geom_bond_distance
_geom_bond_site_symmetry_2
_ccdc_geom_bond_type
Fe0 O2 1.918 . S
Fe0 O5 1.997 1_455 S
Fe0 O6 2.002 1_455 S
Fe0 O11 1.976 . S
Fe0 O14 1.996 . S
Fe1 O2 1.918 . S
Fe1 O9 1.997 1_455 S
Fe1 O12 1.996 . S
Fe1 O16 1.976 . S
Fe1 O19 2.002 1_455 S
O2 Fe0 1.918 . S
O2 Fe1 1.918 . S
O2 Fe3 1.918 . S
Fe3 O2 1.918 . S
Fe3 O4 2.002 1_455 S
Fe3 O13 1.976 . S
Fe3 O17 1.996 . S
Fe3 O20 1.997 1_455 S
O4 Fe3 2.002 1_655 S
O4 C21 1.295 . S
O5 Fe0 1.997 1_655 S
O5 C21 1.235 . S
O6 Fe0 2.002 1_655 S
O6 C7 1.295 . S
C7 O6 1.295 . S
C7 O9 1.235 . S
C8 O13 1.287 . S
C8 O14 1.255 . S
O9 Fe1 1.997 1_655 S
O9 C7 1.235 . S
C10 O16 1.287 . S
C10 O17 1.255 . S
O11 Fe0 1.976 . S
O11 C18 1.287 . S
O12 Fe1 1.996 . S
O12 C18 1.255 . S
O13 Fe3 1.976 . S
O13 C8 1.287 . S
O14 Fe0 1.996 . S
O14 C8 1.255 . S
C15 O19 1.295 . S
C15 O20 1.235 . S
O16 Fe1 1.976 . S
O16 C10 1.287 . S
O17 Fe3 1.996 . S
O17 C10 1.255 . S
C18 O11 1.287 . S
C18 O12 1.255 . S
O19 Fe1 2.002 1_655 S
O19 C15 1.295 . S
O20 Fe3 1.997 1_655 S
O20 C15 1.235 . S
C21 O4 1.295 . S
C21 O5 1.235 . S
Fe22 O24 1.918 . S
Fe22 O27 1.997 . S
Fe22 O28 2.002 . S
Fe22 O33 1.976 . S
Fe22 O36 1.996 . S
Fe23 O24 1.918 . S
Fe23 O31 1.997 . S
Fe23 O34 1.996 . S
Fe23 O38 1.976 . S
Fe23 O41 2.002 . S
O24 Fe22 1.918 . S
O24 Fe23 1.918 . S
O24 Fe25 1.918 . S
Fe25 O24 1.918 . S
Fe25 O26 2.002 . S
Fe25 O35 1.976 . S
Fe25 O39 1.996 . S
Fe25 O42 1.997 . S
O26 Fe25 2.002 . S
O26 C43 1.295 . S
O27 Fe22 1.997 . S
O27 C43 1.235 . S
O28 Fe22 2.002 . S
O28 C29 1.295 . S
C29 O28 1.295 . S
C29 O31 1.235 . S
C30 O35 1.287 . S
C30 O36 1.255 . S
O31 Fe23 1.997 . S
O31 C29 1.235 . S
C32 O38 1.287 . S
C32 O39 1.255 . S
O33 Fe22 1.976 . S
O33 C40 1.287 . S
O34 Fe23 1.996 . S
O34 C40 1.255 . S
O35 Fe25 1.976 . S
O35 C30 1.287 . S
O36 Fe22 1.996 . S
O36 C30 1.255 . S
C37 O41 1.295 . S
C37 O42 1.235 . S
O38 Fe23 1.976 . S
O38 C32 1.287 . S
O39 Fe25 1.996 . S
O39 C32 1.255 . S
C40 O33 1.287 . S
C40 O34 1.255 . S
O41 Fe23 2.002 . S
O41 C37 1.295 . S
O42 Fe25 1.997 . S
O42 C37 1.235 . S
C43 O26 1.295 . S
C43 O27 1.235 . S
Fe44 O46 1.918 . S
Fe44 O49 1.997 1_545 S
Fe44 O50 2.002 1_545 S
Fe44 O55 1.976 . S
Fe44 O58 1.996 . S
Fe45 O46 1.918 . S
Fe45 O53 1.997 1_545 S
Fe45 O56 1.996 . S
Fe45 O60 1.976 . S
Fe45 O63 2.002 1_545 S
O46 Fe44 1.918 . S
O46 Fe45 1.918 . S
O46 Fe47 1.918 . S
Fe47 O46 1.918 . S
Fe47 O48 2.002 1_545 S
Fe47 O57 1.976 . S
Fe47 O61 1.996 . S
Fe47 O64 1.997 1_545 S
O48 Fe47 2.002 1_565 S
O48 C65 1.295 . S
O49 Fe44 1.997 1_565 S
O49 C65 1.235 . S
O50 Fe44 2.002 1_565 S
O50 C51 1.295 . S
C51 O50 1.295 . S
C51 O53 1.235 . S
C52 O57 1.287 . S
C52 O58 1.255 . S
O53 Fe45 1.997 1_565 S
O53 C51 1.235 . S
C54 O60 1.287 . S
C54 O61 1.255 . S
O55 Fe44 1.976 . S
O55 C62 1.287 . S
O56 Fe45 1.996 . S
O56 C62 1.255 . S
O57 Fe47 1.976 . S
O57 C52 1.287 . S
O58 Fe44 1.996 . S
O58 C52 1.255 . S
C59 O63 1.295 . S
C59 O64 1.235 . S
O60 Fe45 1.976 . S
O60 C54 1.287 . S
O61 Fe47 1.996 . S
O61 C54 1.255 . S
C62 O55 1.287 . S
C62 O56 1.255 . S
O63 Fe45 2.002 1_565 S
O63 C59 1.295 . S
O64 Fe47 1.997 1_565 S
O64 C59 1.235 . S
C65 O48 1.295 . S
C65 O49 1.235 . S
Fe66 O68 1.918 . S
Fe66 O71 1.997 . S
Fe66 O72 2.002 . S
Fe66 O77 1.976 1_455 S
Fe66 O80 1.996 1_455 S
Fe67 O68 1.918 . S
Fe67 O75 1.997 . S
Fe67 O78 1.996 1_455 S
Fe67 O82 1.976 1_455 S
Fe67 O85 2.002 . S
O68 Fe66 1.918 . S
O68 Fe67 1.918 . S
O68 Fe69 1.918 . S
Fe69 O68 1.918 . S
Fe69 O70 2.002 . S
Fe69 O79 1.976 1_455 S
Fe69 O83 1.996 1_455 S
Fe69 O86 1.997 . S
O70 Fe69 2.002 . S
O70 C87 1.295 . S
O71 Fe66 1.997 . S
O71 C87 1.235 . S
O72 Fe66 2.002 . S
O72 C73 1.295 . S
C73 O72 1.295 . S
C73 O75 1.235 . S
C74 O79 1.287 . S
C74 O80 1.255 . S
O75 Fe67 1.997 . S
O75 C73 1.235 . S
C76 O82 1.287 . S
C76 O83 1.255 . S
O77 Fe66 1.976 1_655 S
O77 C84 1.287 . S
O78 Fe67 1.996 1_655 S
O78 C84 1.255 . S
O79 Fe69 1.976 1_655 S
O79 C74 1.287 . S
O80 Fe66 1.996 1_655 S
O80 C74 1.255 . S
C81 O85 1.295 . S
C81 O86 1.235 . S
O82 Fe67 1.976 1_655 S
O82 C76 1.287 . S
O83 Fe69 1.996 1_655 S
O83 C76 1.255 . S
C84 O77 1.287 . S
C84 O78 1.255 . S
O85 Fe67 2.002 . S
O85 C81 1.295 . S
O86 Fe69 1.997 . S
O86 C81 1.235 . S
C87 O70 1.295 . S
C87 O71 1.235 . S
Fe88 O90 1.918 . S
Fe88 O93 1.997 . S
Fe88 O94 2.002 . S
Fe88 O99 1.976 . S
Fe88 O102 1.996 . S
Fe89 O90 1.918 . S
Fe89 O97 1.997 . S
Fe89 O100 1.996 . S
Fe89 O104 1.976 . S
Fe89 O107 2.002 . S
O90 Fe88 1.918 . S
O90 Fe89 1.918 . S
O90 Fe91 1.918 . S
Fe91 O90 1.918 . S
Fe91 O92 2.002 . S
Fe91 O101 1.976 . S
Fe91 O105 1.996 . S
Fe91 O108 1.997 . S
O92 Fe91 2.002 . S
O92 C109 1.295 . S
O93 Fe88 1.997 . S
O93 C109 1.235 . S
O94 Fe88 2.002 . S
O94 C95 1.295 . S
C95 O94 1.295 . S
C95 O97 1.235 . S
C96 O101 1.287 . S
C96 O102 1.255 . S
O97 Fe89 1.997 . S
O97 C95 1.235 . S
C98 O104 1.287 . S
C98 O105 1.255 . S
O99 Fe88 1.976 . S
O99 C106 1.287 . S
O100 Fe89 1.996 . S
O100 C106 1.255 . S
O101 Fe91 1.976 . S
O101 C96 1.287 . S
O102 Fe88 1.996 . S
O102 C96 1.255 . S
C103 O107 1.295 . S
C103 O108 1.235 . S
O104 Fe89 1.976 . S
O104 C98 1.287 . S
O105 Fe91 1.996 . S
O105 C98 1.255 . S
C106 O99 1.287 . S
C106 O100 1.255 . S
O107 Fe89 2.002 . S
O107 C103 1.295 . S
O108 Fe91 1.997 . S
O108 C103 1.235 . S
C109 O92 1.295 . S
C109 O93 1.235 . S
Fe110 O112 1.918 . S
Fe110 O115 1.997 . S
Fe110 O116 2.002 . S
Fe110 O121 1.976 1_545 S
Fe110 O124 1.996 1_545 S
Fe111 O112 1.918 . S
Fe111 O119 1.997 . S
Fe111 O122 1.996 1_545 S
Fe111 O126 1.976 1_545 S
Fe111 O129 2.002 . S
O112 Fe110 1.918 . S
O112 Fe111 1.918 . S
O112 Fe113 1.918 . S
Fe113 O112 1.918 . S
Fe113 O114 2.002 . S
Fe113 O123 1.976 1_545 S
Fe113 O127 1.996 1_545 S
Fe113 O130 1.997 . S
O114 Fe113 2.002 . S
O114 C131 1.295 . S
O115 Fe110 1.997 . S
O115 C131 1.235 . S
O116 Fe110 2.002 . S
O116 C117 1.295 . S
C117 O116 1.295 . S
C117 O119 1.235 . S
C118 O123 1.287 . S
C118 O124 1.255 . S
O119 Fe111 1.997 . S
O119 C117 1.235 . S
C120 O126 1.287 . S
C120 O127 1.255 . S
O121 Fe110 1.976 1_565 S
O121 C128 1.287 . S
O122 Fe111 1.996 1_565 S
O122 C128 1.255 . S
O123 Fe113 1.976 1_565 S
O123 C118 1.287 . S
O124 Fe110 1.996 1_565 S
O124 C118 1.255 . S
C125 O129 1.295 . S
C125 O130 1.235 . S
O126 Fe111 1.976 1_565 S
O126 C120 1.287 . S
O127 Fe113 1.996 1_565 S
O127 C120 1.255 . S
C128 O121 1.287 . S
C128 O122 1.255 . S
O129 Fe111 2.002 . S
O129 C125 1.295 . S
O130 Fe113 1.997 . S
O130 C125 1.235 . S
C131 O114 1.295 . S
C131 O115 1.235 . S
Fe132 O134 1.918 . S
Fe132 O137 1.997 . S
Fe132 O138 2.002 . S
Fe132 O143 1.976 . S
Fe132 O146 1.996 . S
Fe133 O134 1.918 . S
Fe133 O141 1.997 . S
Fe133 O144 1.996 . S
Fe133 O148 1.976 1_554 S
Fe133 O151 2.002 1_554 S
O134 Fe132 1.918 . S
O134 Fe133 1.918 . S
O134 Fe135 1.918 1_554 S
Fe135 O134 1.918 1_556 S
Fe135 O136 2.002 . S
Fe135 O145 1.976 1_556 S
Fe135 O149 1.996 . S
Fe135 O152 1.997 . S
O136 Fe135 2.002 . S
O136 C153 1.295 1_556 S
O137 Fe132 1.997 . S
O137 C153 1.235 . S
O138 Fe132 2.002 . S
O138 C139 1.295 . S
C139 O138 1.295 . S
C139 O141 1.235 . S
C140 O145 1.287 . S
C140 O146 1.255 . S
O141 Fe133 1.997 . S
O141 C139 1.235 . S
C142 O148 1.287 . S
C142 O149 1.255 . S
O143 Fe132 1.976 . S
O143 C150 1.287 . S
O144 Fe133 1.996 . S
O144 C150 1.255 . S
O145 Fe135 1.976 1_554 S
O145 C140 1.287 . S
O146 Fe132 1.996 . S
O146 C140 1.255 . S
C147 O151 1.295 . S
C147 O152 1.235 . S
O148 Fe133 1.976 1_556 S
O148 C142 1.287 . S
O149 Fe135 1.996 . S
O149 C142 1.255 . S
C150 O143 1.287 . S
C150 O144 1.255 . S
O151 Fe133 2.002 1_556 S
O151 C147 1.295 . S
O152 Fe135 1.997 . S
O152 C147 1.235 . S
C153 O136 1.295 1_554 S
C153 O137 1.235 . S
Fe154 O156 1.918 . S
Fe154 O159 1.997 . S
Fe154 O160 2.002 . S
Fe154 O165 1.976 . S
Fe154 O168 1.996 . S
Fe155 O156 1.918 . S
Fe155 O163 1.997 . S
Fe155 O166 1.996 . S
Fe155 O170 1.976 1_554 S
Fe155 O173 2.002 1_554 S
O156 Fe154 1.918 . S
O156 Fe155 1.918 . S
O156 Fe157 1.918 1_554 S
Fe157 O156 1.918 1_556 S
Fe157 O158 2.002 . S
Fe157 O167 1.976 1_556 S
Fe157 O171 1.996 . S
Fe157 O174 1.997 . S
O158 Fe157 2.002 . S
O158 C175 1.295 1_556 S
O159 Fe154 1.997 . S
O159 C175 1.235 . S
O160 Fe154 2.002 . S
O160 C161 1.295 . S
C161 O160 1.295 . S
C161 O163 1.235 . S
C162 O167 1.287 . S
C162 O168 1.255 . S
O163 Fe155 1.997 . S
O163 C161 1.235 . S
C164 O170 1.287 . S
C164 O171 1.255 . S
O165 Fe154 1.976 . S
O165 C172 1.287 . S
O166 Fe155 1.996 . S
O166 C172 1.255 . S
O167 Fe157 1.976 1_554 S
O167 C162 1.287 . S
O168 Fe154 1.996 . S
O168 C162 1.255 . S
C169 O173 1.295 . S
C169 O174 1.235 . S
O170 Fe155 1.976 1_556 S
O170 C164 1.287 . S
O171 Fe157 1.996 . S
O171 C164 1.255 . S
C172 O165 1.287 . S
C172 O166 1.255 . S
O173 Fe155 2.002 1_556 S
O173 C169 1.295 . S
O174 Fe157 1.997 . S
O174 C169 1.235 . S
C175 O158 1.295 1_554 S
C175 O159 1.235 . S
Fe176 O178 1.918 . S
Fe176 O181 1.997 . S
Fe176 O182 2.002 . S
Fe176 O187 1.976 . S
Fe176 O190 1.996 . S
Fe177 O178 1.918 . S
Fe177 O185 1.997 . S
Fe177 O188 1.996 . S
Fe177 O192 1.969 1_554 S
Fe177 O195 2.002 1_554 S
O178 Fe176 1.918 . S
O178 Fe177 1.918 . S
O178 Fe179 1.918 1_554 S
Fe179 O178 1.918 1_556 S
Fe179 O180 2.002 . S
Fe179 O189 1.976 1_556 S
Fe179 O193 1.996 . S
Fe179 O196 1.997 . S
O180 Fe179 2.002 . S
O180 C197 1.295 1_556 S
O181 Fe176 1.997 . S
O181 C197 1.235 . S
O182 Fe176 2.002 . S
O182 C183 1.295 . S
C183 O182 1.295 . S
C183 O185 1.235 . S
C184 O189 1.287 . S
C184 O190 1.255 . S
O185 Fe177 1.997 . S
O185 C183 1.235 . S
C186 O192 1.294 . S
C186 O193 1.255 . S
O187 Fe176 1.976 . S
O187 C194 1.287 . S
O188 Fe177 1.996 . S
O188 C194 1.255 . S
O189 Fe179 1.976 1_554 S
O189 C184 1.287 . S
O190 Fe176 1.996 . S
O190 C184 1.255 . S
C191 O195 1.295 . S
C191 O196 1.235 . S
O192 Fe177 1.969 1_556 S
O192 C186 1.294 . S
O193 Fe179 1.996 . S
O193 C186 1.255 . S
C194 O187 1.287 . S
C194 O188 1.255 . S
O195 Fe177 2.002 1_556 S
O195 C191 1.295 . S
O196 Fe179 1.997 . S
O196 C191 1.235 . S
C197 O180 1.295 1_554 S
C197 O181 1.235 . S
Fe198 O200 1.918 . S
Fe198 O203 1.997 . S
Fe198 O204 2.002 . S
Fe198 O209 1.976 . S
Fe198 O212 1.996 . S
Fe199 O200 1.918 . S
Fe199 O207 1.997 . S
Fe199 O210 1.996 . S
Fe199 O214 1.976 . S
Fe199 O217 2.002 . S
O200 Fe198 1.918 . S
O200 Fe199 1.918 . S
O200 Fe201 1.918 . S
Fe201 O200 1.918 . S
Fe201 O202 2.002 . S
Fe201 O211 1.976 . S
Fe201 O215 1.996 . S
Fe201 O218 1.997 . S
O202 Fe201 2.002 . S
O202 C219 1.295 . S
O203 Fe198 1.997 . S
O203 C219 1.235 . S
O204 Fe198 2.002 . S
O204 C205 1.295 . S
C205 O204 1.295 . S
C205 O207 1.235 . S
C206 O211 1.287 . S
C206 O212 1.255 . S
O207 Fe199 1.997 . S
O207 C205 1.235 . S
C208 O214 1.287 . S
C208 O215 1.255 . S
O209 Fe198 1.976 . S
O209 C216 1.287 . S
O210 Fe199 1.996 . S
O210 C216 1.255 . S
O211 Fe201 1.976 . S
O211 C206 1.287 . S
O212 Fe198 1.996 . S
O212 C206 1.255 . S
C213 O217 1.295 . S
C213 O218 1.235 . S
O214 Fe199 1.976 . S
O214 C208 1.287 . S
O215 Fe201 1.996 . S
O215 C208 1.255 . S
C216 O209 1.287 . S
C216 O210 1.255 . S
O217 Fe199 2.002 . S
O217 C213 1.295 . S
O218 Fe201 1.997 . S
O218 C213 1.235 . S
C219 O202 1.295 . S
C219 O203 1.235 . S
Fe220 O222 1.918 . S
Fe220 O225 1.997 . S
Fe220 O226 2.002 . S
Fe220 O231 1.976 . S
Fe220 O234 1.996 . S
Fe221 O222 1.918 . S
Fe221 O229 1.997 . S
Fe221 O232 1.996 . S
Fe221 O236 1.976 . S
Fe221 O239 2.002 . S
O222 Fe220 1.918 . S
O222 Fe221 1.918 . S
O222 Fe223 1.918 . S
Fe223 O222 1.918 . S
Fe223 O224 2.002 . S
Fe223 O233 1.976 . S
Fe223 O237 1.996 . S
Fe223 O240 1.997 . S
O224 Fe223 2.002 . S
O224 C241 1.295 . S
O225 Fe220 1.997 . S
O225 C241 1.235 . S
O226 Fe220 2.002 . S
O226 C227 1.295 . S
C227 O226 1.295 . S
C227 O229 1.235 . S
C228 O233 1.287 . S
C228 O234 1.255 . S
O229 Fe221 1.997 . S
O229 C227 1.235 . S
C230 O236 1.287 . S
C230 O237 1.255 . S
O231 Fe220 1.976 . S
O231 C238 1.287 . S
O232 Fe221 1.996 . S
O232 C238 1.255 . S
O233 Fe223 1.976 . S
O233 C228 1.287 . S
O234 Fe220 1.996 . S
O234 C228 1.255 . S
C235 O239 1.295 . S
C235 O240 1.235 . S
O236 Fe221 1.976 . S
O236 C230 1.287 . S
O237 Fe223 1.996 . S
O237 C230 1.255 . S
C238 O231 1.287 . S
C238 O232 1.255 . S
O239 Fe221 2.002 . S
O239 C235 1.295 . S
O240 Fe223 1.997 . S
O240 C235 1.235 . S
C241 O224 1.295 . S
C241 O225 1.235 . S
Fe242 O244 1.918 . S
Fe242 O247 1.997 . S
Fe242 O248 2.002 . S
Fe242 O253 1.976 . S
Fe242 O256 1.996 . S
Fe243 O244 1.918 . S
Fe243 O251 1.997 . S
Fe243 O254 1.996 . S
Fe243 O258 1.976 . S
Fe243 O261 2.002 . S
O244 Fe242 1.918 . S
O244 Fe243 1.918 . S
O244 Fe245 1.918 . S
Fe245 O244 1.918 . S
Fe245 O246 2.002 . S
Fe245 O255 1.976 . S
Fe245 O259 1.996 . S
Fe245 O262 1.997 . S
O246 Fe245 2.002 . S
O246 C263 1.295 . S
O247 Fe242 1.997 . S
O247 C263 1.235 . S
O248 Fe242 2.002 . S
O248 C249 1.295 . S
C249 O248 1.295 . S
C249 O251 1.235 . S
C250 O255 1.287 . S
C250 O256 1.255 . S
O251 Fe243 1.997 . S
O251 C249 1.235 . S
C252 O258 1.287 . S
C252 O259 1.255 . S
O253 Fe242 1.976 . S
O253 C260 1.287 . S
O254 Fe243 1.996 . S
O254 C260 1.255 . S
O255 Fe245 1.976 . S
O255 C250 1.287 . S
O256 Fe242 1.996 . S
O256 C250 1.255 . S
C257 O261 1.295 . S
C257 O262 1.235 . S
O258 Fe243 1.976 . S
O258 C252 1.287 . S
O259 Fe245 1.996 . S
O259 C252 1.255 . S
C260 O253 1.287 . S
C260 O254 1.255 . S
O261 Fe243 2.002 . S
O261 C257 1.295 . S
O262 Fe245 1.997 . S
O262 C257 1.235 . S
C263 O246 1.295 . S
C263 O247 1.235 . S
Fe264 O266 1.918 . S
Fe264 O269 1.997 . S
Fe264 O270 2.002 . S
Fe264 O275 1.976 . S
Fe264 O278 1.996 . S
Fe265 O266 1.918 . S
Fe265 O273 1.997 . S
Fe265 O276 1.996 . S
Fe265 O280 1.976 . S
Fe265 O283 2.002 . S
O266 Fe264 1.918 . S
O266 Fe265 1.918 . S
O266 Fe267 1.918 . S
Fe267 O266 1.918 . S
Fe267 O268 2.002 . S
Fe267 O277 1.976 . S
Fe267 O281 1.996 . S
Fe267 O284 1.997 . S
O268 Fe267 2.002 . S
O268 C285 1.295 . S
O269 Fe264 1.997 . S
O269 C285 1.235 . S
O270 Fe264 2.002 . S
O270 C271 1.295 . S
C271 O270 1.295 . S
C271 O273 1.235 . S
C272 O277 1.287 . S
C272 O278 1.255 . S
O273 Fe265 1.997 . S
O273 C271 1.235 . S
C274 O280 1.287 . S
C274 O281 1.255 . S
O275 Fe264 1.976 . S
O275 C282 1.287 . S
O276 Fe265 1.996 . S
O276 C282 1.255 . S
O277 Fe267 1.976 . S
O277 C272 1.287 . S
O278 Fe264 1.996 . S
O278 C272 1.255 . S
C279 O283 1.295 . S
C279 O284 1.235 . S
O280 Fe265 1.976 . S
O280 C274 1.287 . S
O281 Fe267 1.996 . S
O281 C274 1.255 . S
C282 O275 1.287 . S
C282 O276 1.255 . S
O283 Fe265 2.002 . S
O283 C279 1.295 . S
O284 Fe267 1.997 . S
O284 C279 1.235 . S
C285 O268 1.295 . S
C285 O269 1.235 . S
Fe286 O288 1.918 . S
Fe286 O291 1.997 . S
Fe286 O292 2.002 . S
Fe286 O297 1.976 . S
Fe286 O300 1.996 . S
Fe287 O288 1.918 . S
Fe287 O295 1.997 . S
Fe287 O298 1.996 . S
Fe287 O302 1.976 . S
Fe287 O305 2.002 . S
O288 Fe286 1.918 . S
O288 Fe287 1.918 . S
O288 Fe289 1.918 . S
Fe289 O288 1.918 . S
Fe289 O290 2.002 . S
Fe289 O299 1.976 . S
Fe289 O303 1.996 . S
Fe289 O306 1.997 . S
O290 Fe289 2.002 . S
O290 C307 1.295 . S
O291 Fe286 1.997 . S
O291 C307 1.235 . S
O292 Fe286 2.002 . S
O292 C293 1.295 . S
C293 O292 1.295 . S
C293 O295 1.235 . S
C294 O299 1.287 . S
C294 O300 1.255 . S
O295 Fe287 1.997 . S
O295 C293 1.235 . S
C296 O302 1.287 . S
C296 O303 1.255 . S
O297 Fe286 1.976 . S
O297 C304 1.287 . S
O298 Fe287 1.996 . S
O298 C304 1.255 . S
O299 Fe289 1.976 . S
O299 C294 1.287 . S
O300 Fe286 1.996 . S
O300 C294 1.255 . S
C301 O305 1.295 . S
C301 O306 1.235 . S
O302 Fe287 1.976 . S
O302 C296 1.287 . S
O303 Fe289 1.996 . S
O303 C296 1.255 . S
C304 O297 1.287 . S
C304 O298 1.255 . S
O305 Fe287 2.002 . S
O305 C301 1.295 . S
O306 Fe289 1.997 . S
O306 C301 1.235 . S
C307 O290 1.295 . S
C307 O291 1.235 . S
Fe308 O310 1.918 . S
Fe308 O313 1.997 . S
Fe308 O314 2.002 . S
Fe308 O319 1.976 . S
Fe308 O322 1.996 . S
Fe309 O310 1.918 . S
Fe309 O317 1.997 . S
Fe309 O320 1.996 . S
Fe309 O324 1.976 . S
Fe309 O327 2.002 . S
O310 Fe308 1.918 . S
O310 Fe309 1.918 . S
O310 Fe311 1.918 . S
Fe311 O310 1.918 . S
Fe311 O312 2.002 . S
Fe311 O321 1.976 . S
Fe311 O325 1.996 . S
Fe311 O328 1.997 . S
O312 Fe311 2.002 . S
O312 C329 1.295 . S
O313 Fe308 1.997 . S
O313 C329 1.235 . S
O314 Fe308 2.002 . S
O314 C315 1.295 . S
C315 O314 1.295 . S
C315 O317 1.235 . S
C316 O321 1.287 . S
C316 O322 1.255 . S
O317 Fe309 1.997 . S
O317 C315 1.235 . S
C318 O324 1.287 . S
C318 O325 1.255 . S
O319 Fe308 1.976 . S
O319 C326 1.287 . S
O320 Fe309 1.996 . S
O320 C326 1.255 . S
O321 Fe311 1.976 . S
O321 C316 1.287 . S
O322 Fe308 1.996 . S
O322 C316 1.255 . S
C323 O327 1.295 . S
C323 O328 1.235 . S
O324 Fe309 1.976 . S
O324 C318 1.287 . S
O325 Fe311 1.996 . S
O325 C318 1.255 . S
C326 O319 1.287 . S
C326 O320 1.255 . S
O327 Fe309 2.002 . S
O327 C323 1.295 . S
O328 Fe311 1.997 . S
O328 C323 1.235 . S
C329 O312 1.295 . S
C329 O313 1.235 . S
Fe330 O332 1.918 1_554 S
Fe330 O335 1.997 1_554 S
Fe330 O336 2.002 . S
Fe330 O341 1.976 . S
Fe330 O344 1.996 . S
Fe331 O332 1.918 . S
Fe331 O339 1.997 1_556 S
Fe331 O342 1.996 1_556 S
Fe331 O346 1.976 . S
Fe331 O349 2.002 . S
O332 Fe330 1.918 1_556 S
O332 Fe331 1.918 . S
O332 Fe333 1.918 . S
Fe333 O332 1.918 . S
Fe333 O334 2.002 . S
Fe333 O343 1.976 . S
Fe333 O347 1.996 . S
Fe333 O350 1.997 . S
O334 Fe333 2.002 . S
O334 C351 1.295 . S
O335 Fe330 1.997 1_556 S
O335 C351 1.235 . S
O336 Fe330 2.002 . S
O336 C337 1.295 . S
C337 O336 1.295 . S
C337 O339 1.235 . S
C338 O343 1.287 . S
C338 O344 1.255 1_556 S
O339 Fe331 1.997 1_554 S
O339 C337 1.235 . S
C340 O346 1.287 . S
C340 O347 1.255 . S
O341 Fe330 1.976 . S
O341 C348 1.287 . S
O342 Fe331 1.996 1_554 S
O342 C348 1.255 . S
O343 Fe333 1.976 . S
O343 C338 1.287 . S
O344 Fe330 1.996 . S
O344 C338 1.255 1_554 S
C345 O349 1.295 . S
C345 O350 1.235 . S
O346 Fe331 1.976 . S
O346 C340 1.287 . S
O347 Fe333 1.996 . S
O347 C340 1.255 . S
C348 O341 1.287 . S
C348 O342 1.255 . S
O349 Fe331 2.002 . S
O349 C345 1.295 . S
O350 Fe333 1.997 . S
O350 C345 1.235 . S
C351 O334 1.295 . S
C351 O335 1.235 . S
Fe352 O354 1.918 . S
Fe352 O357 1.997 . S
Fe352 O358 2.002 . S
Fe352 O363 1.976 . S
Fe352 O366 1.996 . S
Fe353 O354 1.918 . S
Fe353 O361 1.997 . S
Fe353 O364 1.996 . S
Fe353 O368 1.974 1_556 S
Fe353 O371 2.002 1_556 S
O354 Fe352 1.918 . S
O354 Fe353 1.918 . S
O354 Fe355 1.918 1_556 S
Fe355 O354 1.918 1_554 S
Fe355 O356 2.002 . S
Fe355 O365 1.976 1_554 S
Fe355 O369 1.996 . S
Fe355 O372 1.997 . S
O356 Fe355 2.002 . S
O356 C373 1.295 1_554 S
O357 Fe352 1.997 . S
O357 C373 1.235 . S
O358 Fe352 2.002 . S
O358 C359 1.295 . S
C359 O358 1.295 . S
C359 O361 1.235 . S
C360 O365 1.287 . S
C360 O366 1.255 . S
O361 Fe353 1.997 . S
O361 C359 1.235 . S
C362 O368 1.288 . S
C362 O369 1.255 . S
O363 Fe352 1.976 . S
O363 C370 1.287 . S
O364 Fe353 1.996 . S
O364 C370 1.255 . S
O365 Fe355 1.976 1_556 S
O365 C360 1.287 . S
O366 Fe352 1.996 . S
O366 C360 1.255 . S
C367 O371 1.295 . S
C367 O372 1.235 . S
O368 Fe353 1.974 1_554 S
O368 C362 1.288 . S
O369 Fe355 1.996 . S
O369 C362 1.255 . S
C370 O363 1.287 . S
C370 O364 1.255 . S
O371 Fe353 2.002 1_554 S
O371 C367 1.295 . S
O372 Fe355 1.997 . S
O372 C367 1.235 . S
C373 O356 1.295 1_556 S
C373 O357 1.235 . S
Fe374 O376 1.918 . S
Fe374 O379 1.997 . S
Fe374 O380 2.002 1_556 S
Fe374 O385 1.976 1_556 S
Fe374 O388 1.996 . S
Fe375 O376 1.918 1_554 S
Fe375 O383 1.997 . S
Fe375 O386 1.996 . S
Fe375 O390 1.976 1_554 S
Fe375 O393 2.002 . S
O376 Fe374 1.918 . S
O376 Fe375 1.918 1_556 S
O376 Fe377 1.918 . S
Fe377 O376 1.918 . S
Fe377 O378 2.002 . S
Fe377 O387 1.976 . S
Fe377 O391 1.996 . S
Fe377 O394 1.997 . S
O378 Fe377 2.002 . S
O378 C395 1.295 . S
O379 Fe374 1.997 . S
O379 C395 1.235 . S
O380 Fe374 2.002 1_554 S
O380 C381 1.295 . S
C381 O380 1.295 . S
C381 O383 1.235 . S
C382 O387 1.287 . S
C382 O388 1.255 . S
O383 Fe375 1.997 . S
O383 C381 1.235 . S
C384 O390 1.287 . S
C384 O391 1.255 . S
O385 Fe374 1.976 1_554 S
O385 C392 1.286 . S
O386 Fe375 1.996 . S
O386 C392 1.255 . S
O387 Fe377 1.976 . S
O387 C382 1.287 . S
O388 Fe374 1.996 . S
O388 C382 1.255 . S
C389 O393 1.295 1_556 S
C389 O394 1.235 . S
O390 Fe375 1.976 1_556 S
O390 C384 1.287 . S
O391 Fe377 1.996 . S
O391 C384 1.255 . S
C392 O385 1.286 . S
C392 O386 1.255 . S
O393 Fe375 2.002 . S
O393 C389 1.295 1_554 S
O394 Fe377 1.997 . S
O394 C389 1.235 . S
C395 O378 1.295 . S
C395 O379 1.235 . S
C396 C397 1.369 . S
C396 C398 1.419 . S
C396 H400 0.930 . S
C397 C396 1.369 . S
C397 C406 1.429 . S
C398 C396 1.419 . S
C398 C399 1.363 . S
C398 H401 0.929 . S
C399 C398 1.363 . S
C399 C405 1.428 . S
H400 C396 0.930 . S
H401 C398 0.929 . S
S402 N403 1.613 . S
S402 N404 1.610 . S
N403 S402 1.613 . S
N403 C406 1.350 . S
N404 S402 1.610 . S
N404 C405 1.351 . S
C405 C399 1.428 . S
C405 N404 1.351 . S
C405 C406 1.434 . S
C406 C397 1.429 . S
C406 N403 1.350 . S
C406 C405 1.434 . S
C407 C408 1.369 . S
C407 C409 1.419 . S
C407 H411 0.930 . S
C408 C407 1.369 . S
C408 C417 1.429 . S
C409 C407 1.419 . S
C409 C410 1.363 . S
C409 H412 0.929 . S
C410 C409 1.363 . S
C410 C416 1.428 . S
H411 C407 0.930 . S
H412 C409 0.929 . S
S413 N414 1.613 . S
S413 N415 1.610 . S
N414 S413 1.613 . S
N414 C417 1.350 . S
N415 S413 1.610 . S
N415 C416 1.351 . S
C416 C410 1.428 . S
C416 N415 1.351 . S
C416 C417 1.434 . S
C417 C408 1.429 . S
C417 N414 1.350 . S
C417 C416 1.434 . S
C418 C419 1.369 . S
C418 C420 1.419 . S
C418 H422 0.930 . S
C419 C418 1.369 . S
C419 C428 1.429 . S
C420 C418 1.419 . S
C420 C421 1.363 . S
C420 H423 0.929 . S
C421 C420 1.363 . S
C421 C427 1.428 . S
H422 C418 0.930 . S
H423 C420 0.929 . S
S424 N425 1.613 . S
S424 N426 1.610 . S
N425 S424 1.613 . S
N425 C428 1.350 . S
N426 S424 1.610 . S
N426 C427 1.351 . S
C427 C421 1.428 . S
C427 N426 1.351 . S
C427 C428 1.434 . S
C428 C419 1.429 . S
C428 N425 1.350 . S
C428 C427 1.434 . S
C429 C430 1.369 1_554 S
C429 C431 1.419 . S
C429 H433 0.930 . S
C430 C429 1.369 1_556 S
C430 C439 1.429 . S
C431 C429 1.419 . S
C431 C432 1.363 . S
C431 H434 0.929 . S
C432 C431 1.363 . S
C432 C438 1.428 . S
H433 C429 0.930 . S
H434 C431 0.929 . S
S435 N436 1.613 . S
S435 N437 1.610 1_556 S
N436 S435 1.613 . S
N436 C439 1.350 . S
N437 S435 1.610 1_554 S
N437 C438 1.351 . S
C438 C432 1.428 . S
C438 N437 1.351 . S
C438 C439 1.434 1_554 S
C439 C430 1.429 . S
C439 N436 1.350 . S
C439 C438 1.434 1_556 S
C440 C441 1.369 . S
C440 C442 1.419 . S
C440 H444 0.930 . S
C441 C440 1.369 . S
C441 C450 1.429 1_554 S
C442 C440 1.419 . S
C442 C443 1.363 1_554 S
C442 H445 0.929 . S
C443 C442 1.363 1_556 S
C443 C449 1.428 . S
H444 C440 0.930 . S
H445 C442 0.929 . S
S446 N447 1.613 . S
S446 N448 1.610 . S
N447 S446 1.613 . S
N447 C450 1.350 . S
N448 S446 1.610 . S
N448 C449 1.351 . S
C449 C443 1.428 . S
C449 N448 1.351 . S
C449 C450 1.434 . S
C450 C441 1.429 1_556 S
C450 N447 1.350 . S
C450 C449 1.434 . S
C451 C452 1.369 . S
C451 C453 1.419 1_556 S
C451 H455 0.930 . S
C452 C451 1.369 . S
C452 C461 1.429 1_556 S
C453 C451 1.419 1_554 S
C453 C454 1.363 . S
C453 H456 0.929 . S
C454 C453 1.363 . S
C454 C460 1.428 . S
H455 C451 0.930 . S
H456 C453 0.929 . S
S457 N458 1.612 1_554 S
S457 N459 1.610 . S
N458 S457 1.612 1_556 S
N458 C461 1.350 1_556 S
N459 S457 1.610 . S
N459 C460 1.351 . S
C460 C454 1.428 . S
C460 N459 1.351 . S
C460 C461 1.434 . S
C461 C452 1.429 1_554 S
C461 N458 1.350 1_554 S
C461 C460 1.434 . S
C462 C463 1.369 . S
C462 C464 1.419 . S
C462 H466 0.930 . S
C463 C462 1.369 . S
C463 C472 1.429 . S
C464 C462 1.419 . S
C464 C465 1.363 . S
C464 H467 0.929 . S
C465 C464 1.363 . S
C465 C471 1.428 . S
H466 C462 0.930 . S
H467 C464 0.929 . S
S468 N469 1.613 . S
S468 N470 1.610 . S
N469 S468 1.613 . S
N469 C472 1.350 . S
N470 S468 1.610 . S
N470 C471 1.351 . S
C471 C465 1.428 . S
C471 N470 1.351 . S
C471 C472 1.434 . S
C472 C463 1.429 . S
C472 N469 1.350 . S
C472 C471 1.434 . S
C473 C474 1.369 . S
C473 C475 1.419 . S
C473 H477 0.930 . S
C474 C473 1.369 . S
C474 C483 1.429 . S
C475 C473 1.419 . S
C475 C476 1.363 . S
C475 H478 0.929 . S
C476 C475 1.363 . S
C476 C482 1.428 . S
H477 C473 0.930 . S
H478 C475 0.929 . S
S479 N480 1.613 . S
S479 N481 1.610 . S
N480 S479 1.613 . S
N480 C483 1.350 . S
N481 S479 1.610 . S
N481 C482 1.351 . S
C482 C476 1.428 . S
C482 N481 1.351 . S
C482 C483 1.434 . S
C483 C474 1.429 . S
C483 N480 1.350 . S
C483 C482 1.434 . S
C484 C485 1.369 . S
C484 C486 1.419 . S
C484 H488 0.930 . S
C485 C484 1.369 . S
C485 C494 1.429 . S
C486 C484 1.419 . S
C486 C487 1.363 . S
C486 H489 0.929 . S
C487 C486 1.363 . S
C487 C493 1.428 . S
H488 C484 0.930 . S
H489 C486 0.929 . S
S490 N491 1.613 . S
S490 N492 1.610 . S
N491 S490 1.613 . S
N491 C494 1.350 . S
N492 S490 1.610 . S
N492 C493 1.351 . S
C493 C487 1.428 . S
C493 N492 1.351 . S
C493 C494 1.434 . S
C494 C485 1.429 . S
C494 N491 1.350 . S
C494 C493 1.434 . S
C495 C496 1.369 1_556 S
C495 C497 1.419 . S
C495 H499 0.930 . S
C496 C495 1.369 1_554 S
C496 C505 1.429 . S
C497 C495 1.419 . S
C497 C498 1.363 . S
C497 H500 0.929 . S
C498 C497 1.363 . S
C498 C504 1.428 . S
H499 C495 0.930 . S
H500 C497 0.929 . S
S501 N502 1.613 . S
S501 N503 1.610 1_554 S
N502 S501 1.613 . S
N502 C505 1.350 . S
N503 S501 1.610 1_556 S
N503 C504 1.351 . S
C504 C498 1.428 . S
C504 N503 1.351 . S
C504 C505 1.434 1_556 S
C505 C496 1.429 . S
C505 N502 1.350 . S
C505 C504 1.434 1_554 S
C506 C507 1.369 . S
C506 C508 1.419 . S
C506 H510 0.930 . S
C507 C506 1.369 . S
C507 C516 1.429 1_556 S
C508 C506 1.419 . S
C508 C509 1.363 1_556 S
C508 H511 0.929 . S
C509 C508 1.363 1_554 S
C509 C515 1.428 . S
H510 C506 0.930 . S
H511 C508 0.929 . S
S512 N513 1.613 . S
S512 N514 1.610 . S
N513 S512 1.613 . S
N513 C516 1.350 . S
N514 S512 1.610 . S
N514 C515 1.351 . S
C515 C509 1.428 . S
C515 N514 1.351 . S
C515 C516 1.434 . S
C516 C507 1.429 1_554 S
C516 N513 1.350 . S
C516 C515 1.434 . S
C517 C518 1.369 1_554 S
C517 C519 1.419 . S
C517 H521 0.930 . S
C518 C517 1.369 1_556 S
C518 C527 1.429 . S
C519 C517 1.419 . S
C519 C520 1.363 . S
C519 H522 0.929 . S
C520 C519 1.363 . S
C520 C526 1.428 1_554 S
H521 C517 0.930 . S
H522 C519 0.929 . S
S523 N524 1.613 . S
S523 N525 1.610 . S
N524 S523 1.613 . S
N524 C527 1.350 . S
N525 S523 1.610 . S
N525 C526 1.351 . S
C526 C520 1.428 1_556 S
C526 N525 1.351 . S
C526 C527 1.434 . S
C527 C518 1.429 . S
C527 N524 1.350 . S
C527 C526 1.434 . S
C528 C529 1.369 . S
C528 C530 1.419 . S
C528 H532 0.930 . S
C529 C528 1.369 . S
C529 C538 1.429 . S
C530 C528 1.419 . S
C530 C531 1.363 . S
C530 H533 0.929 . S
C531 C530 1.363 . S
C531 C537 1.428 . S
H532 C528 0.930 . S
H533 C530 0.929 . S
S534 N535 1.613 . S
S534 N536 1.610 . S
N535 S534 1.613 . S
N535 C538 1.350 . S
N536 S534 1.610 . S
N536 C537 1.351 . S
C537 C531 1.428 . S
C537 N536 1.351 . S
C537 C538 1.434 . S
C538 C529 1.429 . S
C538 N535 1.350 . S
C538 C537 1.434 . S
C539 C540 1.369 . S
C539 C541 1.419 . S
C539 H543 0.930 . S
C540 C539 1.369 . S
C540 C549 1.429 . S
C541 C539 1.419 . S
C541 C542 1.363 . S
C541 H544 0.929 . S
C542 C541 1.363 . S
C542 C548 1.428 . S
H543 C539 0.930 . S
H544 C541 0.929 . S
S545 N546 1.613 . S
S545 N547 1.610 . S
N546 S545 1.613 . S
N546 C549 1.350 . S
N547 S545 1.610 . S
N547 C548 1.351 . S
C548 C542 1.428 . S
C548 N547 1.351 . S
C548 C549 1.434 . S
C549 C540 1.429 . S
C549 N546 1.350 . S
C549 C548 1.434 . S
C550 C551 1.369 . S
C550 C552 1.419 . S
C550 H554 0.930 . S
C551 C550 1.369 . S
C551 C560 1.429 . S
C552 C550 1.419 . S
C552 C553 1.363 . S
C552 H555 0.929 . S
C553 C552 1.363 . S
C553 C559 1.428 . S
H554 C550 0.930 . S
H555 C552 0.929 . S
S556 N557 1.613 1_554 S
S556 N558 1.610 1_554 S
N557 S556 1.613 1_556 S
N557 C560 1.350 . S
N558 S556 1.610 1_556 S
N558 C559 1.351 . S
C559 C553 1.428 . S
C559 N558 1.351 . S
C559 C560 1.434 . S
C560 C551 1.429 . S
C560 N557 1.350 . S
C560 C559 1.434 . S
C561 C562 1.369 . S
C561 C563 1.419 . S
C561 H565 0.930 . S
C562 C561 1.369 . S
C562 C571 1.429 . S
C563 C561 1.419 . S
C563 C564 1.363 . S
C563 H566 0.929 . S
C564 C563 1.363 . S
C564 C570 1.428 . S
H565 C561 0.930 . S
H566 C563 0.929 . S
S567 N568 1.613 . S
S567 N569 1.610 . S
N568 S567 1.613 . S
N568 C571 1.350 . S
N569 S567 1.610 . S
N569 C570 1.351 . S
C570 C564 1.428 . S
C570 N569 1.351 . S
C570 C571 1.434 . S
C571 C562 1.429 . S
C571 N568 1.350 . S
C571 C570 1.434 . S
C572 C573 1.369 . S
C572 C574 1.419 . S
C572 H576 0.930 . S
C573 C572 1.369 . S
C573 C582 1.429 . S
C574 C572 1.419 . S
C574 C575 1.363 . S
C574 H577 0.929 . S
C575 C574 1.363 . S
C575 C581 1.428 . S
H576 C572 0.930 . S
H577 C574 0.929 . S
S578 N579 1.613 . S
S578 N580 1.610 . S
N579 S578 1.613 . S
N579 C582 1.350 . S
N580 S578 1.610 . S
N580 C581 1.351 . S
C581 C575 1.428 . S
C581 N580 1.351 . S
C581 C582 1.434 . S
C582 C573 1.429 . S
C582 N579 1.350 . S
C582 C581 1.434 . S
C583 C584 1.369 . S
C583 C585 1.419 . S
C583 H587 0.930 . S
C584 C583 1.369 . S
C584 C593 1.429 . S
C585 C583 1.419 . S
C585 C586 1.363 . S
C585 H588 0.929 . S
C586 C585 1.363 . S
C586 C592 1.428 . S
H587 C583 0.930 . S
H588 C585 0.929 . S
S589 N590 1.613 . S
S589 N591 1.610 . S
N590 S589 1.613 . S
N590 C593 1.350 . S
N591 S589 1.610 . S
N591 C592 1.351 . S
C592 C586 1.428 . S
C592 N591 1.351 . S
C592 C593 1.434 . S
C593 C584 1.429 . S
C593 N590 1.350 . S
C593 C592 1.434 . S
C594 C595 1.369 . S
C594 C596 1.419 . S
C594 H598 0.930 . S
C595 C594 1.369 . S
C595 C604 1.429 . S
C596 C594 1.419 . S
C596 C597 1.363 . S
C596 H599 0.929 . S
C597 C596 1.363 . S
C597 C603 1.428 . S
H598 C594 0.930 . S
H599 C596 0.929 . S
S600 N601 1.613 . S
S600 N602 1.610 . S
N601 S600 1.613 . S
N601 C604 1.350 . S
N602 S600 1.610 . S
N602 C603 1.351 . S
C603 C597 1.428 . S
C603 N602 1.351 . S
C603 C604 1.434 . S
C604 C595 1.429 . S
C604 N601 1.350 . S
C604 C603 1.434 . S
C605 C606 1.369 . S
C605 C607 1.419 . S
C605 H609 0.930 . S
C606 C605 1.369 . S
C606 C615 1.429 . S
C607 C605 1.419 . S
C607 C608 1.363 . S
C607 H610 0.929 . S
C608 C607 1.363 . S
C608 C614 1.428 . S
H609 C605 0.930 . S
H610 C607 0.929 . S
S611 N612 1.613 . S
S611 N613 1.610 1_554 S
N612 S611 1.613 . S
N612 C615 1.350 1_554 S
N613 S611 1.610 1_556 S
N613 C614 1.351 . S
C614 C608 1.428 . S
C614 N613 1.351 . S
C614 C615 1.434 . S
C615 C606 1.429 . S
C615 N612 1.350 1_556 S
C615 C614 1.434 . S
C616 C617 1.369 . S
C616 C618 1.419 . S
C616 H620 0.930 . S
C617 C616 1.369 . S
C617 C626 1.429 . S
C618 C616 1.419 . S
C618 C619 1.363 . S
C618 H621 0.929 . S
C619 C618 1.363 . S
C619 C625 1.428 . S
H620 C616 0.930 . S
H621 C618 0.929 . S
S622 N623 1.613 . S
S622 N624 1.610 . S
N623 S622 1.613 . S
N623 C626 1.350 . S
N624 S622 1.610 . S
N624 C625 1.351 . S
C625 C619 1.428 . S
C625 N624 1.351 . S
C625 C626 1.434 . S
C626 C617 1.429 . S
C626 N623 1.350 . S
C626 C625 1.434 . S
C627 C628 1.369 . S
C627 C629 1.419 . S
C627 H631 0.930 . S
C628 C627 1.369 . S
C628 C637 1.429 . S
C629 C627 1.419 . S
C629 C630 1.363 . S
C629 H632 0.929 . S
C630 C629 1.363 . S
C630 C636 1.428 . S
H631 C627 0.930 . S
H632 C629 0.929 . S
S633 N634 1.613 . S
S633 N635 1.610 . S
N634 S633 1.613 . S
N634 C637 1.350 . S
N635 S633 1.610 . S
N635 C636 1.351 . S
C636 C630 1.428 . S
C636 N635 1.351 . S
C636 C637 1.434 . S
C637 C628 1.429 . S
C637 N634 1.350 . S
C637 C636 1.434 . S
C638 C639 1.369 . S
C638 C640 1.419 . S
C638 H642 0.930 . S
C639 C638 1.369 . S
C639 C648 1.429 . S
C640 C638 1.419 . S
C640 C641 1.363 . S
C640 H643 0.929 . S
C641 C640 1.363 . S
C641 C647 1.428 . S
H642 C638 0.930 . S
H643 C640 0.929 . S
S644 N645 1.613 . S
S644 N646 1.610 . S
N645 S644 1.613 . S
N645 C648 1.350 . S
N646 S644 1.610 . S
N646 C647 1.351 . S
C647 C641 1.428 . S
C647 N646 1.351 . S
C647 C648 1.434 . S
C648 C639 1.429 . S
C648 N645 1.350 . S
C648 C647 1.434 . S
C649 C650 1.369 . S
C649 C651 1.419 . S
C649 H653 0.930 . S
C650 C649 1.369 . S
C650 C659 1.429 . S
C651 C649 1.419 . S
C651 C652 1.363 . S
C651 H654 0.929 . S
C652 C651 1.363 . S
C652 C658 1.428 . S
H653 C649 0.930 . S
H654 C651 0.929 . S
S655 N656 1.613 . S
S655 N657 1.610 . S
N656 S655 1.613 . S
N656 C659 1.350 . S
N657 S655 1.610 . S
N657 C658 1.351 . S
C658 C652 1.428 . S
C658 N657 1.351 . S
C658 C659 1.434 . S
C659 C650 1.429 . S
C659 N656 1.350 . S
C659 C658 1.434 . S
C660 C661 1.369 . S
C660 C662 1.419 . S
C660 H664 0.930 . S
C661 C660 1.369 . S
C661 C670 1.429 . S
C662 C660 1.419 . S
C662 C663 1.363 . S
C662 H665 0.929 . S
C663 C662 1.363 . S
C663 C669 1.428 . S
H664 C660 0.930 . S
H665 C662 0.929 . S
S666 N667 1.613 . S
S666 N668 1.610 . S
N667 S666 1.613 . S
N667 C670 1.350 . S
N668 S666 1.610 . S
N668 C669 1.351 . S
C669 C663 1.428 . S
C669 N668 1.351 . S
C669 C670 1.434 . S
C670 C661 1.429 . S
C670 N667 1.350 . S
C670 C669 1.434 . S
C671 C672 1.369 . S
C671 C673 1.419 . S
C671 H675 0.930 . S
C672 C671 1.369 . S
C672 C681 1.429 . S
C673 C671 1.419 . S
C673 C674 1.363 . S
C673 H676 0.929 . S
C674 C673 1.363 . S
C674 C680 1.428 . S
H675 C671 0.930 . S
H676 C673 0.929 . S
S677 N678 1.613 . S
S677 N679 1.610 . S
N678 S677 1.613 . S
N678 C681 1.350 . S
N679 S677 1.610 . S
N679 C680 1.351 . S
C680 C674 1.428 . S
C680 N679 1.351 . S
C680 C681 1.434 . S
C681 C672 1.429 . S
C681 N678 1.350 . S
C681 C680 1.434 . S
C682 C683 1.369 . S
C682 C684 1.419 . S
C682 H686 0.930 . S
C683 C682 1.369 . S
C683 C692 1.429 . S
C684 C682 1.419 . S
C684 C685 1.363 . S
C684 H687 0.929 . S
C685 C684 1.363 . S
C685 C691 1.428 . S
H686 C682 0.930 . S
H687 C684 0.929 . S
S688 N689 1.613 . S
S688 N690 1.610 . S
N689 S688 1.613 . S
N689 C692 1.350 . S
N690 S688 1.610 . S
N690 C691 1.351 . S
C691 C685 1.428 . S
C691 N690 1.351 . S
C691 C692 1.434 . S
C692 C683 1.429 . S
C692 N689 1.350 . S
C692 C691 1.434 . S
C693 C694 1.369 . S
C693 C695 1.419 . S
C693 H697 0.930 . S
C694 C693 1.369 . S
C694 C703 1.429 . S
C695 C693 1.419 . S
C695 C696 1.363 . S
C695 H698 0.929 . S
C696 C695 1.363 . S
C696 C702 1.428 . S
H697 C693 0.930 . S
H698 C695 0.929 . S
S699 N700 1.613 . S
S699 N701 1.610 . S
N700 S699 1.613 . S
N700 C703 1.350 . S
N701 S699 1.610 . S
N701 C702 1.351 . S
C702 C696 1.428 . S
C702 N701 1.351 . S
C702 C703 1.434 . S
C703 C694 1.429 . S
C703 N700 1.350 . S
C703 C702 1.434 . S
C704 C705 1.369 . S
C704 C706 1.419 . S
C704 H708 0.930 . S
C705 C704 1.369 . S
C705 C714 1.429 . S
C706 C704 1.419 . S
C706 C707 1.363 . S
C706 H709 0.929 . S
C707 C706 1.363 . S
C707 C713 1.428 . S
H708 C704 0.930 . S
H709 C706 0.929 . S
S710 N711 1.613 . S
S710 N712 1.610 . S
N711 S710 1.613 . S
N711 C714 1.350 . S
N712 S710 1.610 . S
N712 C713 1.351 . S
C713 C707 1.428 . S
C713 N712 1.351 . S
C713 C714 1.434 . S
C714 C705 1.429 . S
C714 N711 1.350 . S
C714 C713 1.434 . S
C715 C716 1.369 . S
C715 C717 1.419 . S
C715 H719 0.930 . S
C716 C715 1.369 . S
C716 C725 1.429 . S
C717 C715 1.419 . S
C717 C718 1.363 . S
C717 H720 0.929 . S
C718 C717 1.363 . S
C718 C724 1.428 . S
H719 C715 0.930 . S
H720 C717 0.929 . S
S721 N722 1.613 . S
S721 N723 1.610 . S
N722 S721 1.613 . S
N722 C725 1.350 . S
N723 S721 1.610 . S
N723 C724 1.351 . S
C724 C718 1.428 . S
C724 N723 1.351 . S
C724 C725 1.434 . S
C725 C716 1.429 . S
C725 N722 1.350 . S
C725 C724 1.434 . S
C726 C727 1.369 . S
C726 C728 1.419 . S
C726 H730 0.930 . S
C727 C726 1.369 . S
C727 C736 1.429 . S
C728 C726 1.419 . S
C728 C729 1.363 . S
C728 H731 0.929 . S
C729 C728 1.363 . S
C729 C735 1.428 . S
H730 C726 0.930 . S
H731 C728 0.929 . S
S732 N733 1.613 . S
S732 N734 1.610 . S
N733 S732 1.613 . S
N733 C736 1.350 . S
N734 S732 1.610 . S
N734 C735 1.351 . S
C735 C729 1.428 . S
C735 N734 1.351 . S
C735 C736 1.434 . S
C736 C727 1.429 . S
C736 N733 1.350 . S
C736 C735 1.434 . S
C737 C738 1.369 . S
C737 C739 1.419 . S
C737 H741 0.930 . S
C738 C737 1.369 . S
C738 C747 1.429 . S
C739 C737 1.419 . S
C739 C740 1.363 . S
C739 H742 0.929 . S
C740 C739 1.363 . S
C740 C746 1.428 . S
H741 C737 0.930 . S
H742 C739 0.929 . S
S743 N744 1.613 . S
S743 N745 1.610 . S
N744 S743 1.613 . S
N744 C747 1.350 . S
N745 S743 1.610 . S
N745 C746 1.351 . S
C746 C740 1.428 . S
C746 N745 1.351 . S
C746 C747 1.434 . S
C747 C738 1.429 . S
C747 N744 1.350 . S
C747 C746 1.434 . S
C748 C749 1.369 . S
C748 C750 1.419 . S
C748 H752 0.930 . S
C749 C748 1.369 . S
C749 C758 1.429 . S
C750 C748 1.419 . S
C750 C751 1.363 . S
C750 H753 0.929 . S
C751 C750 1.363 . S
C751 C757 1.428 . S
H752 C748 0.930 . S
H753 C750 0.929 . S
S754 N755 1.613 . S
S754 N756 1.610 . S
N755 S754 1.613 . S
N755 C758 1.350 . S
N756 S754 1.610 . S
N756 C757 1.351 . S
C757 C751 1.428 . S
C757 N756 1.351 . S
C757 C758 1.434 . S
C758 C749 1.429 . S
C758 N755 1.350 . S
C758 C757 1.434 . S
C759 C760 1.369 . S
C759 C761 1.419 . S
C759 H763 0.930 . S
C760 C759 1.369 . S
C760 C769 1.429 . S
C761 C759 1.419 . S
C761 C762 1.363 . S
C761 H764 0.929 . S
C762 C761 1.363 . S
C762 C768 1.428 . S
H763 C759 0.930 . S
H764 C761 0.929 . S
S765 N766 1.613 . S
S765 N767 1.610 . S
N766 S765 1.613 . S
N766 C769 1.350 . S
N767 S765 1.610 . S
N767 C768 1.351 . S
C768 C762 1.428 . S
C768 N767 1.351 . S
C768 C769 1.434 . S
C769 C760 1.429 . S
C769 N766 1.350 . S
C769 C768 1.434 . S
C770 C771 1.369 . S
C770 C772 1.419 . S
C770 H774 0.930 . S
C771 C770 1.369 . S
C771 C780 1.429 . S
C772 C770 1.419 . S
C772 C773 1.363 . S
C772 H775 0.929 . S
C773 C772 1.363 . S
C773 C779 1.428 . S
H774 C770 0.930 . S
H775 C772 0.929 . S
S776 N777 1.613 . S
S776 N778 1.610 . S
N777 S776 1.613 . S
N777 C780 1.350 . S
N778 S776 1.610 . S
N778 C779 1.351 . S
C779 C773 1.428 . S
C779 N778 1.351 . S
C779 C780 1.434 . S
C780 C771 1.429 . S
C780 N777 1.350 . S
C780 C779 1.434 . S
C781 C782 1.369 . S
C781 C783 1.419 . S
C781 H785 0.930 . S
C782 C781 1.369 . S
C782 C791 1.429 . S
C783 C781 1.419 . S
C783 C784 1.363 . S
C783 H786 0.929 . S
C784 C783 1.363 . S
C784 C790 1.428 . S
H785 C781 0.930 . S
H786 C783 0.929 . S
S787 N788 1.613 . S
S787 N789 1.610 . S
N788 S787 1.613 . S
N788 C791 1.350 . S
N789 S787 1.610 . S
N789 C790 1.351 . S
C790 C784 1.428 . S
C790 N789 1.351 . S
C790 C791 1.434 . S
C791 C782 1.429 . S
C791 N788 1.350 . S
C791 C790 1.434 . S
C792 C793 1.369 . S
C792 C794 1.419 . S
C792 H796 0.930 . S
C793 C792 1.369 . S
C793 C802 1.429 . S
C794 C792 1.419 . S
C794 C795 1.363 . S
C794 H797 0.929 . S
C795 C794 1.363 . S
C795 C801 1.428 . S
H796 C792 0.930 . S
H797 C794 0.929 . S
S798 N799 1.613 . S
S798 N800 1.610 . S
N799 S798 1.613 . S
N799 C802 1.350 . S
N800 S798 1.610 . S
N800 C801 1.351 . S
C801 C795 1.428 . S
C801 N800 1.351 . S
C801 C802 1.434 . S
C802 C793 1.429 . S
C802 N799 1.350 . S
C802 C801 1.434 . S
C803 C804 1.369 . S
C803 C805 1.419 . S
C803 H807 0.930 . S
C804 C803 1.369 . S
C804 C813 1.429 . S
C805 C803 1.419 . S
C805 C806 1.363 . S
C805 H808 0.929 . S
C806 C805 1.363 . S
C806 C812 1.428 . S
H807 C803 0.930 . S
H808 C805 0.929 . S
S809 N810 1.613 . S
S809 N811 1.610 . S
N810 S809 1.613 . S
N810 C813 1.350 . S
N811 S809 1.610 . S
N811 C812 1.351 . S
C812 C806 1.428 . S
C812 N811 1.351 . S
C812 C813 1.434 . S
C813 C804 1.429 . S
C813 N810 1.350 . S
C813 C812 1.434 . S
C814 C815 1.369 . S
C814 C816 1.419 . S
C814 H818 0.930 . S
C815 C814 1.369 . S
C815 C824 1.429 . S
C816 C814 1.419 . S
C816 C817 1.363 . S
C816 H819 0.929 . S
C817 C816 1.363 . S
C817 C823 1.428 . S
H818 C814 0.930 . S
H819 C816 0.929 . S
S820 N821 1.613 . S
S820 N822 1.610 . S
N821 S820 1.613 . S
N821 C824 1.350 . S
N822 S820 1.610 . S
N822 C823 1.351 . S
C823 C817 1.428 . S
C823 N822 1.351 . S
C823 C824 1.434 . S
C824 C815 1.429 . S
C824 N821 1.350 . S
C824 C823 1.434 . S
C825 C826 1.369 . S
C825 C827 1.419 . S
C825 H829 0.930 . S
C826 C825 1.369 . S
C826 C835 1.429 . S
C827 C825 1.419 . S
C827 C828 1.363 . S
C827 H830 0.929 . S
C828 C827 1.363 . S
C828 C834 1.428 . S
H829 C825 0.930 . S
H830 C827 0.929 . S
S831 N832 1.613 . S
S831 N833 1.610 1_556 S
N832 S831 1.613 . S
N832 C835 1.350 . S
N833 S831 1.610 1_554 S
N833 C834 1.351 1_554 S
C834 C828 1.428 . S
C834 N833 1.351 1_556 S
C834 C835 1.434 . S
C835 C826 1.429 . S
C835 N832 1.350 . S
C835 C834 1.434 . S
C836 C837 1.369 . S
C836 C838 1.419 . S
C836 H840 0.930 . S
C837 C836 1.369 . S
C837 C846 1.429 . S
C838 C836 1.419 . S
C838 C839 1.363 . S
C838 H841 0.929 . S
C839 C838 1.363 . S
C839 C845 1.428 . S
H840 C836 0.930 . S
H841 C838 0.929 . S
S842 N843 1.613 1_454 S
S842 N844 1.607 1_455 S
N843 S842 1.613 1_656 S
N843 C846 1.350 . S
N844 S842 1.607 1_655 S
N844 C845 1.351 1_554 S
C845 C839 1.428 . S
C845 N844 1.351 1_556 S
C845 C846 1.434 . S
C846 C837 1.429 . S
C846 N843 1.350 . S
C846 C845 1.434 . S
C847 C848 1.369 . S
C847 C849 1.419 . S
C847 H851 0.930 . S
C848 C847 1.369 . S
C848 C857 1.429 . S
C849 C847 1.419 . S
C849 C850 1.363 . S
C849 H852 0.929 1_556 S
C850 C849 1.363 . S
C850 C856 1.428 . S
H851 C847 0.930 . S
H852 C849 0.929 1_554 S
S853 N854 1.613 . S
S853 N855 1.610 . S
N854 S853 1.613 . S
N854 C857 1.350 . S
N855 S853 1.610 . S
N855 C856 1.351 . S
C856 C850 1.428 . S
C856 N855 1.351 . S
C856 C857 1.434 . S
C857 C848 1.429 . S
C857 N854 1.350 . S
C857 C856 1.434 . S
C858 C859 1.369 . S
C858 C860 1.419 . S
C858 H862 0.930 . S
C859 C858 1.369 . S
C859 C868 1.429 . S
C860 C858 1.419 . S
C860 C861 1.363 . S
C860 H863 0.929 . S
C861 C860 1.363 . S
C861 C867 1.428 . S
H862 C858 0.930 . S
H863 C860 0.929 . S
S864 N865 1.613 . S
S864 N866 1.610 . S
N865 S864 1.613 . S
N865 C868 1.350 . S
N866 S864 1.610 . S
N866 C867 1.351 . S
C867 C861 1.428 . S
C867 N866 1.351 . S
C867 C868 1.434 . S
C868 C859 1.429 . S
C868 N865 1.350 . S
C868 C867 1.434 . S
C869 C870 1.369 . S
C869 C871 1.419 . S
C869 H873 0.930 . S
C870 C869 1.369 . S
C870 C879 1.429 . S
C871 C869 1.419 . S
C871 C872 1.363 . S
C871 H874 0.929 . S
C872 C871 1.363 . S
C872 C878 1.428 . S
H873 C869 0.930 . S
H874 C871 0.929 . S
S875 N876 1.613 . S
S875 N877 1.610 . S
N876 S875 1.613 . S
N876 C879 1.350 . S
N877 S875 1.610 . S
N877 C878 1.351 . S
C878 C872 1.428 . S
C878 N877 1.351 . S
C878 C879 1.434 . S
C879 C870 1.429 . S
C879 N876 1.350 . S
C879 C878 1.434 . S
C880 C881 1.369 . S
C880 C882 1.419 . S
C880 H884 0.930 . S
C881 C880 1.369 . S
C881 C890 1.429 . S
C882 C880 1.419 . S
C882 C883 1.363 . S
C882 H885 0.929 . S
C883 C882 1.363 . S
C883 C889 1.428 . S
H884 C880 0.930 . S
H885 C882 0.929 . S
S886 N887 1.613 . S
S886 N888 1.610 . S
N887 S886 1.613 . S
N887 C890 1.350 . S
N888 S886 1.610 . S
N888 C889 1.351 . S
C889 C883 1.428 . S
C889 N888 1.351 . S
C889 C890 1.434 . S
C890 C881 1.429 . S
C890 N887 1.350 . S
C890 C889 1.434 . S
C891 C892 1.369 . S
C891 C893 1.419 . S
C891 H895 0.930 . S
C892 C891 1.369 . S
C892 C901 1.429 . S
C893 C891 1.419 . S
C893 C894 1.363 . S
C893 H896 0.929 . S
C894 C893 1.363 . S
C894 C900 1.428 . S
H895 C891 0.930 . S
H896 C893 0.929 . S
S897 N898 1.613 1_544 S
S897 N899 1.610 1_545 S
N898 S897 1.613 1_566 S
N898 C901 1.350 1_556 S
N899 S897 1.610 1_565 S
N899 C900 1.351 . S
C900 C894 1.428 . S
C900 N899 1.351 . S
C900 C901 1.434 . S
C901 C892 1.429 . S
C901 N898 1.350 1_554 S
C901 C900 1.434 . S
C902 C903 1.369 . S
C902 C904 1.419 . S
C902 H906 0.930 . S
C903 C902 1.369 . S
C903 C912 1.429 . S
C904 C902 1.419 . S
C904 C905 1.363 . S
C904 H907 0.929 . S
C905 C904 1.363 . S
C905 C911 1.428 . S
H906 C902 0.930 . S
H907 C904 0.929 . S
S908 N909 1.613 . S
S908 N910 1.610 . S
N909 S908 1.613 . S
N909 C912 1.350 . S
N910 S908 1.610 . S
N910 C911 1.351 . S
C911 C905 1.428 . S
C911 N910 1.351 . S
C911 C912 1.434 . S
C912 C903 1.429 . S
C912 N909 1.350 . S
C912 C911 1.434 . S
C913 C914 1.369 . S
C913 C915 1.419 1_554 S
C913 H917 0.930 . S
C914 C913 1.369 . S
C914 C923 1.429 . S
C915 C913 1.419 1_556 S
C915 C916 1.363 1_556 S
C915 H918 0.929 . S
C916 C915 1.363 1_554 S
C916 C922 1.428 . S
H917 C913 0.930 . S
H918 C915 0.929 . S
S919 N920 1.613 . S
S919 N921 1.610 . S
N920 S919 1.613 . S
N920 C923 1.350 . S
N921 S919 1.610 . S
N921 C922 1.351 . S
C922 C916 1.428 . S
C922 N921 1.351 . S
C922 C923 1.434 . S
C923 C914 1.429 . S
C923 N920 1.350 . S
C923 C922 1.434 . S
C924 C925 1.369 1_455 S
C924 C926 1.419 . S
C924 H928 0.937 1_455 S
C925 C924 1.369 1_655 S
C925 C934 1.429 1_655 S
C926 C924 1.419 . S
C926 C927 1.363 . S
C926 H929 0.929 . S
C927 C926 1.363 . S
C927 C933 1.428 . S
H928 C924 0.937 1_655 S
H929 C926 0.929 . S
S930 N931 1.613 1_455 S
S930 N932 1.610 . S
N931 S930 1.613 1_655 S
N931 C934 1.350 1_655 S
N932 S930 1.610 . S
N932 C933 1.351 . S
C933 C927 1.428 . S
C933 N932 1.351 . S
C933 C934 1.434 . S
C934 C925 1.429 1_455 S
C934 N931 1.350 1_455 S
C934 C933 1.434 . S
C935 C936 1.369 . S
C935 C937 1.419 . S
C935 H939 0.930 . S
C936 C935 1.369 . S
C936 C945 1.429 . S
C937 C935 1.419 . S
C937 C938 1.363 . S
C937 H940 0.929 . S
C938 C937 1.363 . S
C938 C944 1.428 . S
H939 C935 0.930 . S
H940 C937 0.929 . S
S941 N942 1.613 . S
S941 N943 1.610 . S
N942 S941 1.613 . S
N942 C945 1.350 . S
N943 S941 1.610 . S
N943 C944 1.351 . S
C944 C938 1.428 . S
C944 N943 1.351 . S
C944 C945 1.434 . S
C945 C936 1.429 . S
C945 N942 1.350 . S
C945 C944 1.434 . S
C946 C947 1.369 . S
C946 C948 1.419 1_565 S
C946 H950 0.930 . S
C947 C946 1.369 . S
C947 C956 1.429 1_565 S
C948 C946 1.419 1_545 S
C948 C949 1.363 . S
C948 H951 0.929 . S
C949 C948 1.363 . S
C949 C955 1.428 . S
H950 C946 0.930 . S
H951 C948 0.929 . S
S952 N953 1.613 . S
S952 N954 1.610 . S
N953 S952 1.613 . S
N953 C956 1.350 . S
N954 S952 1.610 . S
N954 C955 1.351 . S
C955 C949 1.428 . S
C955 N954 1.351 . S
C955 C956 1.434 . S
C956 C947 1.429 1_545 S
C956 N953 1.350 . S
C956 C955 1.434 . S
C957 C958 1.369 1_545 S
C957 C959 1.419 . S
C957 H961 0.930 . S
C958 C957 1.369 1_565 S
C958 C967 1.429 . S
C959 C957 1.419 . S
C959 C960 1.363 . S
C959 H962 0.929 . S
C960 C959 1.363 . S
C960 C966 1.428 . S
H961 C957 0.930 . S
H962 C959 0.929 . S
S963 N964 1.613 . S
S963 N965 1.610 . S
N964 S963 1.613 . S
N964 C967 1.350 . S
N965 S963 1.610 . S
N965 C966 1.351 1_565 S
C966 C960 1.428 . S
C966 N965 1.351 1_545 S
C966 C967 1.434 1_545 S
C967 C958 1.429 . S
C967 N964 1.350 . S
C967 C966 1.434 1_565 S
C968 C969 1.369 . S
C968 C970 1.419 1_455 S
C968 H972 0.930 . S
C969 C968 1.369 . S
C969 C978 1.429 . S
C970 C968 1.419 1_655 S
C970 C971 1.363 . S
C970 H973 0.929 . S
C971 C970 1.363 . S
C971 C977 1.428 1_655 S
H972 C968 0.930 . S
H973 C970 0.929 . S
S974 N975 1.613 . S
S974 N976 1.610 . S
N975 S974 1.613 . S
N975 C978 1.350 . S
N976 S974 1.610 . S
N976 C977 1.351 . S
C977 C971 1.428 1_455 S
C977 N976 1.351 . S
C977 C978 1.434 . S
C978 C969 1.429 . S
C978 N975 1.350 . S
C978 C977 1.434 . S
C979 C980 1.369 . S
C979 C981 1.419 . S
C979 H983 0.930 . S
C980 C979 1.369 . S
C980 C989 1.429 . S
C981 C979 1.419 . S
C981 C982 1.363 . S
C981 H984 0.929 . S
C982 C981 1.363 . S
C982 C988 1.428 . S
H983 C979 0.930 . S
H984 C981 0.929 . S
S985 N986 1.613 . S
S985 N987 1.610 . S
N986 S985 1.613 . S
N986 C989 1.350 . S
N987 S985 1.610 . S
N987 C988 1.351 . S
C988 C982 1.428 . S
C988 N987 1.351 . S
C988 C989 1.434 . S
C989 C980 1.429 . S
C989 N986 1.350 . S
C989 C988 1.434 . S
C397 C18 1.287 . S
C399 C98 1.302 . S
C408 C128 1.325 . S
C410 C37 1.322 . S
C419 C59 1.332 . S
C421 C81 1.333 . S
C430 C62 1.291 . S
C432 C95 1.304 . S
C441 C131 1.336 . S
C443 C15 1.335 . S
C452 C40 1.268 . S
C454 C74 1.285 . S
C463 C32 1.280 . S
C465 C76 1.266 . S
C474 C54 1.314 . S
C476 C103 1.305 . S
C485 C117 1.332 . S
C487 C7 1.332 . S
C496 C118 1.302 . S
C498 C29 1.313 . S
C507 C51 1.338 . S
C509 C87 1.337 . S
C518 C10 1.307 . S
C520 C106 1.291 . S
C529 C241 1.342 . S
C531 C147 1.344 . S
C540 C169 1.348 . S
C542 C249 1.348 . S
C551 C191 1.322 . S
C553 C213 1.323 . S
C562 C238 1.285 . S
C564 C194 1.264 . S
C573 C252 1.289 . S
C575 C150 1.268 . S
C584 C206 1.308 . S
C586 C172 1.287 . S
C595 C164 1.301 . S
C597 C208 1.285 . S
C606 C186 1.303 . S
C608 C228 1.289 . S
C617 C142 1.283 . S
C619 C260 1.263 . S
C628 C161 1.329 . S
C630 C257 1.327 . S
C639 C183 1.331 . S
C641 C219 1.332 . S
C650 C227 1.348 . S
C652 C139 1.349 . S
C661 C274 1.276 . S
C663 C362 1.295 . S
C672 C301 1.319 . S
C674 C392 1.325 . S
C683 C337 1.345 . S
C685 C329 1.348 . S
C694 C359 1.308 . S
C696 C318 1.292 . S
C705 C285 1.328 . S
C707 C395 1.326 . S
C716 C304 1.283 . S
C718 C340 1.297 . S
C727 C296 1.295 . S
C729 C348 1.275 . S
C738 C316 1.318 . S
C740 C367 1.312 . S
C749 C279 1.323 . S
C751 C381 1.323 . S
C760 C382 1.309 . S
C762 C293 1.318 . S
C771 C345 1.349 . S
C773 C323 1.348 . S
C782 C272 1.300 . S
C784 C370 1.278 . S
C793 C8 1.948 . S
C795 C294 1.939 . S
C804 C43 1.949 . S
C806 C326 1.955 . S
C815 C65 1.965 . S
C817 C271 1.963 . S
C826 C52 1.943 . S
C828 C175 1.930 1_556 S
C837 C21 1.960 . S
C839 C197 1.970 1_556 S
C848 C30 1.958 . S
C850 C153 1.941 1_556 S
C859 C235 1.945 . S
C861 C84 1.964 . S
C870 C109 1.984 . S
C872 C263 1.982 . S
C881 C125 1.972 . S
C883 C205 1.962 . S
C892 C373 1.946 1_554 S
C894 C120 1.956 . S
C903 C73 1.961 . S
C905 C389 1.965 1_554 S
C914 C96 1.948 . S
C916 C338 1.939 1_554 S
C925 C184 1.977 . S
C927 C307 1.958 . S
C936 C140 1.964 . S
C938 C315 1.945 . S
C947 C282 1.944 . S
C949 C162 1.936 . S
C958 C360 1.932 . S
C960 C216 1.942 . S
C969 C384 1.923 . S
C971 C230 1.923 . S
C980 C250 1.965 . S
C982 C351 1.941 . S
