# Generated by pormake.
# Topology mmt, (4)-cn, num edge types: 1
# Building blocks:
#     Node 0, Type 0, BuildingBlock: ICAMEG_clean_sbu_1, # of connection points: 4
#     Node 1, Type 0, BuildingBlock: ICAMEG_clean_sbu_1, # of connection points: 4
#     Node 2, Type 0, BuildingBlock: ICAMEG_clean_sbu_1, # of connection points: 4
#     Node 3, Type 0, BuildingBlock: ICAMEG_clean_sbu_1, # of connection points: 4
#     Node 4, Type 0, BuildingBlock: ICAMEG_clean_sbu_1, # of connection points: 4
#     Node 5, Type 0, BuildingBlock: ICAMEG_clean_sbu_1, # of connection points: 4
#     Node 6, Type 0, BuildingBlock: ICAMEG_clean_sbu_1, # of connection points: 4
#     Node 7, Type 0, BuildingBlock: ICAMEG_clean_sbu_1, # of connection points: 4
#     Edge 8, Type (0, 0), BuildingBlock: EZIPEK_clean_linker_0, # of connection points: 2
#     Edge 9, Type (0, 0), BuildingBlock: EZIPEK_clean_linker_0, # of connection points: 2
#     Edge 10, Type (0, 0), BuildingBlock: EZIPEK_clean_linker_0, # of connection points: 2
#     Edge 11, Type (0, 0), BuildingBlock: EZIPEK_clean_linker_0, # of connection points: 2
#     Edge 12, Type (0, 0), BuildingBlock: EZIPEK_clean_linker_0, # of connection points: 2
#     Edge 13, Type (0, 0), BuildingBlock: EZIPEK_clean_linker_0, # of connection points: 2
#     Edge 14, Type (0, 0), BuildingBlock: EZIPEK_clean_linker_0, # of connection points: 2
#     Edge 15, Type (0, 0), BuildingBlock: EZIPEK_clean_linker_0, # of connection points: 2
#     Edge 16, Type (0, 0), BuildingBlock: EZIPEK_clean_linker_0, # of connection points: 2
#     Edge 17, Type (0, 0), BuildingBlock: EZIPEK_clean_linker_0, # of connection points: 2
#     Edge 18, Type (0, 0), BuildingBlock: EZIPEK_clean_linker_0, # of connection points: 2
#     Edge 19, Type (0, 0), BuildingBlock: EZIPEK_clean_linker_0, # of connection points: 2
#     Edge 20, Type (0, 0), BuildingBlock: EZIPEK_clean_linker_0, # of connection points: 2
#     Edge 21, Type (0, 0), BuildingBlock: EZIPEK_clean_linker_0, # of connection points: 2
#     Edge 22, Type (0, 0), BuildingBlock: EZIPEK_clean_linker_0, # of connection points: 2
#     Edge 23, Type (0, 0), BuildingBlock: EZIPEK_clean_linker_0, # of connection points: 2
# Relax obj value: 0.090
# Max RMSD: 0.129
# Mean RMSD: 0.129
data_MOF--net-mmt--node1-ICAMEG_clean_sbu_1--edge1-EZIPEK_clean_linker_0
_symmetry_space_group_name_H-M    P1
_symmetry_Int_Tables_number       1
_symmetry_cell_setting            triclinic
loop_
_symmetry_equiv_pos_as_xyz
'x, y, z'
_cell_length_a     17.55145
_cell_length_b     31.370907
_cell_length_c     31.669924
_cell_angle_alpha  90.086374
_cell_angle_beta   90.166947
_cell_angle_gamma 89.835114
loop_
_atom_site_label
_atom_site_type_symbol
_atom_site_fract_x
_atom_site_fract_y
_atom_site_fract_z
_atom_type_partial_charge
Co0 Co 0.21904 0.52961 0.36319 0.0
Co1 Co 0.10013 0.61729 0.35499 0.0
O2 O 0.20168 0.59091 0.35431 0.0
C3 C 0.33631 0.55852 0.29873 0.0
O4 O 0.31058 0.59773 0.30032 0.0
C5 C 0.19211 0.67836 0.40884 0.0
O6 O 0.21818 0.64686 0.432 0.0
O7 O 0.08197 0.59318 0.41249 0.0
O8 O 0.13351 0.52764 0.40508 0.0
H9 H 0.81709 0.62263 0.38033 0.0
H10 H 0.3463 0.59166 0.37678 0.0
O11 O 0.30585 0.52915 0.32083 0.0
H12 H 0.32426 0.51259 0.5102 0.0
H13 H 0.38247 0.39767 0.37514 0.0
H14 H 0.1212 0.45408 0.38207 0.0
H15 H 0.23981 0.49608 0.45024 0.0
H16 H 0.35792 0.47425 0.36623 0.0
O17 O 0.14504 0.67132 0.37901 0.0
H18 H 0.94376 0.58891 0.3776 0.0
H19 H 0.04203 0.70476 0.33602 0.0
H20 H 0.14269 0.37727 0.39122 0.0
H21 H 0.43175 0.60938 0.43577 0.0
H22 H 0.27441 0.34838 0.38766 0.0
H23 H 0.42136 0.56957 0.50324 0.0
O24 O 0.14529 0.51628 0.31653 0.0
H25 H 0.24963 0.69359 0.24298 0.0
H26 H 1.00989 0.61893 0.27497 0.0
H27 H 0.03082 0.64724 0.20341 0.0
H28 H 0.1516 0.68471 0.18692 0.0
H29 H 0.22605 0.66496 0.31414 0.0
H30 H 0.91661 0.74003 0.33864 0.0
H31 H 0.80283 0.6989 0.36076 0.0
O32 O 0.05295 0.56489 0.32893 0.0
C33 C 0.09088 0.55442 0.42418 0.0
C34 C 0.86618 0.6409 0.37056 0.0
C35 C 0.92203 0.70677 0.34724 0.0
N36 N 1.00042 0.64451 0.35658 0.0
C37 C 0.93812 0.62183 0.3689 0.0
C38 C 0.99304 0.6866 0.34598 0.0
C39 C 0.85822 0.68368 0.35962 0.0
C40 C 0.34136 0.57412 0.40568 0.0
N41 N 0.28862 0.54251 0.40946 0.0
C42 C 0.39001 0.5843 0.43916 0.0
C43 C 0.38412 0.56199 0.477 0.0
C44 C 0.32979 0.52999 0.48089 0.0
C45 C 0.28218 0.52073 0.44669 0.0
C46 C 0.32464 0.40972 0.37609 0.0
C47 C 0.178 0.44191 0.37934 0.0
C48 C 0.31017 0.45316 0.37054 0.0
N49 N 0.2373 0.4688 0.37156 0.0
C50 C 0.19019 0.39828 0.38508 0.0
C51 C 0.26407 0.38211 0.38319 0.0
C52 C 0.07789 0.53107 0.31094 0.0
C53 C 0.1969 0.67716 0.24968 0.0
C54 C 0.06276 0.63503 0.26806 0.0
C55 C 0.07413 0.65117 0.22749 0.0
C56 C 0.14188 0.67219 0.21827 0.0
N57 N 0.11726 0.63972 0.29864 0.0
C58 C 0.18333 0.6608 0.28994 0.0
Co59 Co 0.34265 1.00448 0.34711 0.0
Co60 Co 0.43558 0.90972 0.35673 0.0
O61 O 0.34117 0.94179 0.34606 0.0
C62 C 0.24647 0.98708 0.27002 0.0
O63 O 0.29748 0.95962 0.25665 0.0
C64 C 0.3067 0.85025 0.38507 0.0
O65 O 0.25454 0.87853 0.37512 0.0
O66 O 0.44217 0.93837 0.41312 0.0
O67 O 0.42631 1.00544 0.39024 0.0
H68 H 0.69766 0.89285 0.41976 0.0
H69 H 0.20328 0.95551 0.36684 0.0
O70 O 0.2558 1.00628 0.30514 0.0
H71 H 0.23861 0.05241 0.48761 0.0
H72 H 0.22608 0.15141 0.34254 0.0
H73 H 0.46575 0.06908 0.34649 0.0
H74 H 0.32848 0.053 0.42802 0.0
H75 H 0.22375 0.07287 0.34511 0.0
O76 O 0.37754 0.85941 0.38183 0.0
H77 H 0.58137 0.93172 0.39969 0.0
H78 H 0.49055 0.81974 0.34396 0.0
H79 H 0.4706 0.14756 0.34437 0.0
H80 H 0.11102 0.95396 0.4254 0.0
H81 H 0.35015 0.18929 0.34235 0.0
H82 H 0.12856 1.00278 0.48649 0.0
O83 O 0.42041 1.00352 0.30114 0.0
H84 H 0.29936 0.85038 0.22904 0.0
H85 H 0.54842 0.89038 0.28899 0.0
H86 H 0.54173 0.86209 0.21663 0.0
H87 H 0.41657 0.84154 0.18617 0.0
H88 H 0.30852 0.87869 0.30117 0.0
H89 H 0.60583 0.77961 0.36332 0.0
H90 H 0.71094 0.81621 0.40135 0.0
O91 O 0.49901 0.95636 0.33081 0.0
C92 C 0.44856 0.97875 0.41799 0.0
C93 C 0.65246 0.87655 0.40301 0.0
C94 C 0.60099 0.81306 0.37133 0.0
N95 N 0.52899 0.87841 0.3699 0.0
C96 C 0.58611 0.89841 0.3916 0.0
C97 C 0.53552 0.83601 0.36043 0.0
C98 C 0.65987 0.83358 0.3927 0.0
C99 C 0.21007 0.9773 0.39274 0.0
N100 N 0.26977 1.00499 0.39324 0.0
C101 C 0.15819 0.9761 0.42607 0.0
C102 C 0.16817 1.00341 0.46037 0.0
C103 C 0.22981 0.03129 0.46099 0.0
C104 C 0.28044 0.03154 0.42705 0.0
C105 C 0.27895 0.13358 0.34347 0.0
C106 C 0.41306 0.08697 0.34587 0.0
C107 C 0.27801 0.08908 0.34478 0.0
N108 N 0.34457 0.06636 0.3462 0.0
C109 C 0.41618 0.13143 0.34456 0.0
C110 C 0.34858 0.15482 0.34338 0.0
C111 C 0.48568 0.98522 0.30334 0.0
C112 C 0.35442 0.85855 0.24218 0.0
C113 C 0.49378 0.88079 0.27646 0.0
C114 C 0.49035 0.86508 0.23523 0.0
C115 C 0.42013 0.85368 0.21811 0.0
N116 N 0.42933 0.88439 0.30048 0.0
C117 C 0.36007 0.87449 0.28328 0.0
Co118 Co 0.71837 0.51147 0.13283 0.0
Co119 Co 0.59804 0.42431 0.13791 0.0
O120 O 0.70018 0.45007 0.14096 0.0
C121 C 0.83752 0.48137 0.19638 0.0
O122 O 0.81346 0.442 0.1937 0.0
C123 C 0.70883 0.35744 0.10316 0.0
O124 O 0.76497 0.3846 0.10656 0.0
O125 O 0.58386 0.44937 0.08033 0.0
O126 O 0.63292 0.51481 0.09084 0.0
H127 H 0.31708 0.42468 0.10466 0.0
H128 H 0.84728 0.44956 0.11803 0.0
O129 O 0.80543 0.51107 0.17525 0.0
H130 H 0.82016 0.53023 0.9857 0.0
H131 H 0.8827 0.64261 0.12202 0.0
H132 H 0.6207 0.5879 0.11637 0.0
H133 H 0.73755 0.54613 0.04631 0.0
H134 H 0.85771 0.56602 0.12986 0.0
O135 O 0.64071 0.36906 0.11233 0.0
H136 H 0.44526 0.45542 0.11087 0.0
H137 H 0.53223 0.33807 0.15602 0.0
H138 H 0.64255 0.66476 0.1083 0.0
H139 H 0.93089 0.43264 0.05836 0.0
H140 H 0.77468 0.69277 0.11121 0.0
H141 H 0.91791 0.47312 0.9914 0.0
O142 O 0.64468 0.52415 0.17951 0.0
H143 H 0.74278 0.35505 0.25766 0.0
H144 H 0.49909 0.41993 0.21396 0.0
H145 H 0.51389 0.39337 0.2866 0.0
H146 H 0.63662 0.36082 0.30905 0.0
H147 H 0.72466 0.38084 0.18509 0.0
H148 H 0.40556 0.30551 0.14989 0.0
H149 H 0.2964 0.34895 0.12423 0.0
O150 O 0.55152 0.47707 0.16412 0.0
C151 C 0.59254 0.48846 0.06989 0.0
C152 C 0.3641 0.40538 0.11595 0.0
C153 C 0.41375 0.33853 0.1412 0.0
N154 N 0.49685 0.39891 0.13382 0.0
C155 C 0.43697 0.42281 0.1196 0.0
C156 C 0.48577 0.35713 0.14438 0.0
C157 C 0.35254 0.36291 0.12687 0.0
C158 C 0.84104 0.46753 0.08942 0.0
N159 N 0.78762 0.49908 0.08629 0.0
C160 C 0.88875 0.45774 0.05551 0.0
C161 C 0.88143 0.48042 0.01795 0.0
C162 C 0.82672 0.51247 0.01477 0.0
C163 C 0.78007 0.52134 0.04935 0.0
C164 C 0.82474 0.63093 0.12132 0.0
C165 C 0.67768 0.59971 0.11873 0.0
C166 C 0.81004 0.58749 0.12624 0.0
N167 N 0.737 0.57231 0.12548 0.0
C168 C 0.69008 0.64336 0.11365 0.0
C169 C 0.76418 0.65904 0.11518 0.0
C170 C 0.57678 0.50984 0.18381 0.0
C171 C 0.68893 0.36908 0.24828 0.0
C172 C 0.5524 0.40525 0.22313 0.0
C173 C 0.56047 0.39038 0.26445 0.0
C174 C 0.62936 0.37227 0.27706 0.0
N175 N 0.6108 0.40159 0.19479 0.0
C176 C 0.67854 0.38405 0.20714 0.0
Co177 Co 0.83764 0.04088 0.13203 0.0
Co178 Co 0.93872 0.13556 0.13521 0.0
O179 O 0.84305 0.103 0.13892 0.0
C180 C 0.72502 0.06234 0.20208 0.0
O181 O 0.74201 0.10297 0.20149 0.0
C182 C 0.82809 0.18713 0.08227 0.0
O183 O 0.80547 0.15286 0.06205 0.0
O184 O 0.96005 0.11074 0.07761 0.0
O185 O 0.91364 0.04405 0.08503 0.0
H186 H 0.22319 0.15798 0.12331 0.0
H187 H 0.70127 0.09698 0.12439 0.0
O188 O 0.75964 0.03554 0.17852 0.0
H189 H 0.69692 1.00683 -0.00279 0.0
H190 H 0.71033 0.89696 0.12775 0.0
H191 H 0.95393 0.97404 0.11679 0.0
H192 H 0.80096 1.00014 0.04914 0.0
H193 H 0.71403 0.9752 0.13448 0.0
O194 O 0.88036 0.18493 0.11014 0.0
H195 H 0.1065 0.11569 0.12714 0.0
H196 H 0.97457 0.22856 0.14181 0.0
H197 H 0.95254 0.89582 0.1092 0.0
H198 H 0.59621 0.10507 0.07344 0.0
H199 H 0.83011 0.85674 0.11474 0.0
H200 H 0.59331 0.05956 0.00917 0.0
O201 O 0.92088 0.03266 0.17433 0.0
H202 H 0.78031 0.20709 0.2471 0.0
H203 H 0.0302 0.14308 0.21448 0.0
H204 H 1.00632 0.1715 0.28575 0.0
H205 H 0.88071 0.20396 0.30247 0.0
H206 H 0.80615 0.17756 0.17648 0.0
H207 H 0.09023 0.27194 0.13778 0.0
H208 H 0.216 0.23687 0.12832 0.0
O209 O 0.99837 0.08766 0.16104 0.0
C210 C 0.95227 0.07201 0.06506 0.0
C211 C 0.16858 0.17375 0.12658 0.0
C212 C 0.09402 0.23764 0.13463 0.0
N213 N 0.03211 0.16928 0.13212 0.0
C214 C 0.10164 0.14985 0.12833 0.0
C215 C 0.02826 0.21271 0.13622 0.0
C216 C 0.16456 0.21796 0.12949 0.0
C217 C 0.70016 0.07694 0.09693 0.0
N218 N 0.75655 0.04766 0.09047 0.0
C219 C 0.64064 0.08173 0.06795 0.0
C220 C 0.6391 0.05625 0.03191 0.0
C221 C 0.6971 0.02663 0.02522 0.0
C222 C 0.75583 0.02291 0.05488 0.0
C223 C 0.76403 0.91363 0.12523 0.0
C224 C 0.90031 0.95733 0.11888 0.0
C225 C 0.76656 0.95795 0.12923 0.0
N226 N 0.83412 0.97928 0.12575 0.0
C227 C 0.89993 0.913 0.11472 0.0
C228 C 0.83124 0.89109 0.11789 0.0
C229 C 0.98476 0.05159 0.17771 0.0
C230 C 0.8353 0.19304 0.24022 0.0
C231 C 0.97509 0.15674 0.2215 0.0
C232 C 0.96205 0.17299 0.26193 0.0
C233 C 0.89161 0.19123 0.27128 0.0
N234 N 0.91946 0.15846 0.19121 0.0
C235 C 0.85038 0.17641 0.20017 0.0
Co236 Co 0.82435 0.50767 0.63784 0.0
Co237 Co 0.92471 0.41294 0.63412 0.0
O238 O 0.82946 0.44513 0.64065 0.0
C239 C 0.70284 0.48148 0.70142 0.0
O240 O 0.72024 0.44105 0.69709 0.0
C241 C 0.81488 0.36169 0.57996 0.0
O242 O 0.78827 0.39602 0.56142 0.0
O243 O 0.94299 0.4421 0.57849 0.0
O244 O 0.90499 0.50899 0.59382 0.0
H245 H 0.19666 0.38968 0.58845 0.0
H246 H 0.68963 0.45167 0.62028 0.0
O247 O 0.74047 0.51014 0.68193 0.0
H248 H 0.71228 0.54464 0.49594 0.0
H249 H 0.68976 0.64979 0.63289 0.0
H250 H 0.93884 0.57766 0.64079 0.0
H251 H 0.80178 0.55164 0.55548 0.0
H252 H 0.69779 0.57144 0.63393 0.0
O253 O 0.86838 0.36418 0.60699 0.0
H254 H 0.07833 0.43061 0.59766 0.0
H255 H 0.96956 0.3226 0.65048 0.0
H256 H 0.9338 0.65598 0.63895 0.0
H257 H 0.59895 0.4436 0.56163 0.0
H258 H 0.80843 0.6927 0.635 0.0
H259 H 0.60944 0.49051 0.49882 0.0
O260 O 0.90567 0.51181 0.68254 0.0
H261 H 0.76813 0.33699 0.74331 0.0
H262 H 0.0185 0.40036 0.71223 0.0
H263 H 0.9953 0.36913 0.78233 0.0
H264 H 0.86944 0.33701 0.79825 0.0
H265 H 0.79332 0.36917 0.67386 0.0
H266 H 0.08644 0.28012 0.64114 0.0
H267 H 0.2015 0.31372 0.61032 0.0
O268 O 0.98438 0.45872 0.66309 0.0
C269 C 0.94122 0.48236 0.57099 0.0
C270 C 0.1474 0.37487 0.60267 0.0
C271 C 0.08552 0.31339 0.63213 0.0
N272 N 0.01794 0.37997 0.62669 0.0
C273 C 0.08036 0.39821 0.60857 0.0
C274 C 0.01952 0.33775 0.63755 0.0
C275 C 0.15 0.33223 0.6148 0.0
C276 C 0.69432 0.47257 0.59357 0.0
N277 N 0.74945 0.50316 0.59242 0.0
C278 C 0.64281 0.46773 0.56021 0.0
C279 C 0.64882 0.49397 0.52496 0.0
C280 C 0.70635 0.5244 0.52338 0.0
C281 C 0.75667 0.52834 0.55739 0.0
C282 C 0.74479 0.63419 0.63422 0.0
C283 C 0.88434 0.59315 0.63808 0.0
C284 C 0.74973 0.58975 0.63485 0.0
N285 N 0.81901 0.56968 0.63613 0.0
C286 C 0.88169 0.63765 0.6375 0.0
C287 C 0.81136 0.65824 0.63541 0.0
C288 C 0.97074 0.49294 0.68367 0.0
C289 C 0.82323 0.35087 0.73677 0.0
C290 C 0.96326 0.38687 0.71896 0.0
C291 C 0.95063 0.369 0.75869 0.0
C292 C 0.88005 0.35094 0.76759 0.0
N293 N 0.90718 0.38676 0.68887 0.0
C294 C 0.83793 0.36902 0.6974 0.0
Co295 Co 0.70418 0.03496 0.63529 0.0
Co296 Co 0.58949 0.12342 0.63065 0.0
O297 O 0.69015 0.09697 0.63899 0.0
C298 C 0.79107 0.05472 0.71513 0.0
O299 O 0.73371 0.07797 0.7285 0.0
C300 C 0.70538 0.18932 0.59982 0.0
O301 O 0.76172 0.16273 0.60672 0.0
O302 O 0.58343 0.09573 0.57356 0.0
O303 O 0.6237 0.02995 0.59083 0.0
H304 H 0.32108 0.1281 0.57377 0.0
H305 H 0.83333 0.09367 0.62159 0.0
O306 O 0.78842 0.03732 0.67879 0.0
H307 H 0.82345 1.00433 0.49385 0.0
H308 H 0.8578 0.89904 0.63362 0.0
H309 H 0.59935 0.96076 0.63174 0.0
H310 H 0.73172 0.99366 0.55158 0.0
H311 H 0.83935 0.97694 0.63522 0.0
O312 O 0.63641 0.17739 0.60556 0.0
H313 H 0.44648 0.09607 0.58732 0.0
H314 H 0.51926 0.20883 0.6493 0.0
H315 H 0.61512 0.88276 0.62942 0.0
H316 H 0.92751 0.10522 0.56508 0.0
H317 H 0.74519 0.85135 0.63046 0.0
H318 H 0.9227 0.06028 0.50046 0.0
O319 O 0.62487 0.02747 0.68 0.0
H320 H 0.72233 0.19122 0.75523 0.0
H321 H 0.48065 0.13171 0.7023 0.0
H322 H 0.48777 0.15894 0.77512 0.0
H323 H 0.6091 0.18935 0.802 0.0
H324 H 0.71298 0.16342 0.68286 0.0
H325 H 0.39512 0.2425 0.6357 0.0
H326 H 0.29432 0.20195 0.59805 0.0
O327 O 0.53671 0.07269 0.6563 0.0
C328 C 0.58862 0.05557 0.56632 0.0
C329 C 0.3641 0.14594 0.59075 0.0
C330 C 0.40569 0.21012 0.62537 0.0
N331 N 0.49001 0.1497 0.62069 0.0
C332 C 0.4353 0.12771 0.59898 0.0
C333 C 0.47619 0.19081 0.63302 0.0
C334 C 0.34919 0.18738 0.60425 0.0
C335 C 0.83227 0.07357 0.59412 0.0
N336 N 0.77848 0.04253 0.59055 0.0
C337 C 0.88511 0.08042 0.56197 0.0
C338 C 0.88223 0.05529 0.52569 0.0
C339 C 0.82661 0.0239 0.52197 0.0
C340 C 0.7748 1.01801 0.55483 0.0
C341 C 0.80083 0.91233 0.63303 0.0
C342 C 0.65603 0.94746 0.63162 0.0
C343 C 0.78997 0.95645 0.63406 0.0
N344 N 0.71819 0.97352 0.63312 0.0
C345 C 0.66467 0.9032 0.63057 0.0
C346 C 0.73764 0.8856 0.63123 0.0
C347 C 0.55555 0.04005 0.67821 0.0
C348 C 0.66878 0.17868 0.74369 0.0
C349 C 0.53352 0.14536 0.71343 0.0
C350 C 0.53723 0.16056 0.75485 0.0
C351 C 0.60532 0.17752 0.76994 0.0
N352 N 0.59543 0.14763 0.68734 0.0
C353 C 0.66296 0.16308 0.70247 0.0
Co354 Co 0.31798 0.5381 0.86393 0.0
Co355 Co 0.43522 0.62654 0.85413 0.0
O356 O 0.33436 0.59928 0.85336 0.0
C357 C 0.22324 0.55563 0.78688 0.0
O358 O 0.27842 0.57911 0.77181 0.0
C359 C 0.3242 0.69223 0.89093 0.0
O360 O 0.26845 0.66472 0.88825 0.0
O361 O 0.45625 0.6018 0.91125 0.0
O362 O 0.40358 0.5367 0.90547 0.0
H363 H 0.71922 0.62796 0.87726 0.0
H364 H 0.18715 0.59733 0.8726 0.0
O365 O 0.23033 0.53775 0.82266 0.0
H366 H 0.21373 0.52862 0.01159 0.0
H367 H 0.15312 0.40736 0.87685 0.0
H368 H 0.41401 0.46249 0.88925 0.0
H369 H 0.30029 0.50989 0.95331 0.0
H370 H 0.17872 0.48335 0.86603 0.0
O371 O 0.39218 0.68104 0.88098 0.0
H372 H 0.59167 0.59598 0.87382 0.0
H373 H 0.49598 0.71457 0.83793 0.0
H374 H 0.39111 0.38636 0.90012 0.0
H375 H 0.09811 0.61668 0.9297 0.0
H376 H 0.25966 0.35799 0.8938 0.0
H377 H 0.11146 0.58229 -3e-05 0.0
O378 O 0.3924 0.52319 0.81787 0.0
H379 H 0.2748 0.692 0.73848 0.0
H380 H 0.52858 0.63616 0.77633 0.0
H381 H 0.5068 0.66509 0.70514 0.0
H382 H 0.37914 0.69336 0.68572 0.0
H383 H 0.29922 0.66343 0.80941 0.0
H384 H 0.62196 0.74827 0.84143 0.0
H385 H 0.73516 0.70486 0.86104 0.0
O386 O 0.48133 0.57456 0.82643 0.0
C387 C 0.44751 0.5633 0.92353 0.0
C388 C 0.67039 0.64727 0.86868 0.0
C389 C 0.61583 0.71475 0.84869 0.0
N390 N 0.53568 0.65311 0.85582 0.0
C391 C 0.59783 0.62919 0.86665 0.0
C392 C 0.5442 0.6955 0.84703 0.0
C393 C 0.6793 0.69039 0.85962 0.0
C394 C 0.1923 0.58187 0.90278 0.0
N395 N 0.2484 0.55245 0.90937 0.0
C396 C 0.14218 0.5931 0.93514 0.0
C397 C 0.14979 0.57387 0.97457 0.0
C398 C 0.20716 0.54377 0.98111 0.0
C399 C 0.25616 0.53337 0.94796 0.0
C400 C 0.21095 0.41912 0.87875 0.0
C401 C 0.35744 0.45066 0.88478 0.0
C402 C 0.22621 0.46225 0.87202 0.0
N403 N 0.29916 0.47756 0.8741 0.0
C404 C 0.34439 0.40734 0.89175 0.0
C405 C 0.27065 0.39146 0.88837 0.0
C406 C 0.45853 0.5391 0.81082 0.0
C407 C 0.33095 0.68026 0.7467 0.0
C408 C 0.47323 0.6492 0.7686 0.0
C409 C 0.46112 0.66528 0.72802 0.0
C410 C 0.38946 0.68099 0.71711 0.0
N411 N 0.4161 0.6495 0.79791 0.0
C412 C 0.34528 0.6641 0.78703 0.0
Co413 Co 0.19774 1.01003 0.85896 0.0
Co414 Co 0.09829 0.91498 0.85836 0.0
O415 O 0.19377 0.94765 0.855 0.0
C416 C 0.31999 0.98465 0.79563 0.0
O417 O 0.30826 0.94406 0.80263 0.0
C418 C 0.20795 0.86328 0.91257 0.0
O419 O 0.23041 0.89725 0.93334 0.0
O420 O 0.07645 0.94108 0.91532 0.0
O421 O 0.11855 1.00841 0.90467 0.0
H422 H 0.81364 0.89165 0.86872 0.0
H423 H 0.33088 0.95229 0.87703 0.0
O424 O 0.27923 1.01328 0.81355 0.0
H425 H 0.32816 0.05585 0.99358 0.0
H426 H 0.32066 0.15521 0.85662 0.0
H427 H 0.07898 0.07649 0.86904 0.0
H428 H 0.22889 0.05783 0.93875 0.0
H429 H 0.31956 0.07668 0.85438 0.0
O430 O 0.15665 0.86596 0.8842 0.0
H431 H 0.92973 0.93429 0.86459 0.0
H432 H 0.06344 0.8217 0.85325 0.0
H433 H 0.07775 0.15502 0.87219 0.0
H434 H 0.43041 0.94858 0.93132 0.0
H435 H 0.19921 0.19492 0.8659 0.0
H436 H 0.43023 1.00097 0.9902 0.0
O437 O 0.11711 1.01541 0.81454 0.0
H438 H 0.25967 0.84358 0.74772 0.0
H439 H 1.00762 0.90559 0.77896 0.0
H440 H 0.03309 0.87678 0.70802 0.0
H441 H 0.15985 0.84539 0.69196 0.0
H442 H 0.23199 0.87327 0.81806 0.0
H443 H 0.94835 0.77797 0.85753 0.0
H444 H 0.82195 0.8127 0.8655 0.0
O445 O 0.0384 0.96223 0.83156 0.0
C446 C 0.08178 0.98057 0.92602 0.0
C447 C 0.86852 0.87604 0.86621 0.0
C448 C 0.94406 0.81232 0.85998 0.0
N449 N 1.00508 0.88098 0.86153 0.0
C450 C 0.93519 0.90017 0.86439 0.0
C451 C 1.00952 0.83748 0.85828 0.0
C452 C 0.87317 0.83179 0.86428 0.0
C453 C 0.33056 0.97553 0.90177 0.0
N454 N 0.27558 1.00634 0.90308 0.0
C455 C 0.38702 0.97312 0.93285 0.0
C456 C 0.38683 1.00243 0.96589 0.0
C457 C 0.32981 0.03329 0.9677 0.0
C458 C 0.27399 0.03446 0.93618 0.0
C459 C 0.26737 0.13818 0.85943 0.0
C460 C 0.13217 0.09358 0.86666 0.0
C461 C 0.26631 0.09368 0.85793 0.0
N462 N 0.19927 0.07192 0.86185 0.0
C463 C 0.13107 0.13807 0.86828 0.0
C464 C 0.19922 0.16044 0.86468 0.0
C465 C 0.05252 0.99702 0.81257 0.0
C466 C 0.20421 0.8572 0.75428 0.0
C467 C 0.06316 0.89231 0.77226 0.0
C468 C 0.07713 0.87588 0.732 0.0
C469 C 0.14822 0.85825 0.72302 0.0
N470 N 0.11849 0.89136 0.80275 0.0
C471 C 0.18818 0.87398 0.79415 0.0
C472 C 0.39676 0.5592 0.22715 0.0
C473 C 0.4016 0.54839 0.27048 0.0
C474 C 0.52898 0.51742 0.25844 0.0
C475 C 0.52438 0.52956 0.21538 0.0
N476 N 0.46645 0.57557 0.16392 0.0
N477 N 0.47977 0.52617 0.32942 0.0
C478 C 0.46196 0.5545 0.2013 0.0
C479 C 0.46992 0.53 0.28681 0.0
N480 N 0.32897 0.57213 0.20995 0.0
N481 N 0.58915 0.49331 0.27207 0.0
H482 H 0.43874 0.53576 0.35107 0.0
H483 H 0.53095 0.51711 0.34351 0.0
H484 H 0.63518 0.48555 0.25273 0.0
H485 H 0.59159 0.47904 0.30171 0.0
H486 H 0.3209 0.57607 0.17757 0.0
H487 H 0.27875 0.57473 0.22728 0.0
H488 H 0.42599 0.59771 0.15376 0.0
H489 H 0.51533 0.57433 0.1457 0.0
C490 C 0.04262 1.01782 0.24288 0.0
C491 C 0.04895 0.02999 0.19999 0.0
C492 C 0.18538 1.01253 0.20177 0.0
C493 C 0.17789 0.99757 0.24386 0.0
N494 N 0.09291 0.97222 0.29774 0.0
N495 N 0.12102 0.02571 0.13541 0.0
C496 C 0.10445 0.99614 0.26248 0.0
C497 C 0.11876 0.02324 0.17841 0.0
N498 N 0.97928 0.02841 0.26552 0.0
N499 N 0.25571 1.01874 0.18459 0.0
H500 H 0.07238 0.0314 0.11729 0.0
H501 H 0.16888 1.01735 0.1178 0.0
H502 H 0.30611 1.01262 0.20086 0.0
H503 H 0.2638 0.03382 0.15565 0.0
H504 H 0.97513 0.02354 0.29799 0.0
H505 H 0.93433 0.04591 0.25268 0.0
H506 H 0.03939 0.96775 0.31118 0.0
H507 H 0.13509 0.952 0.30939 0.0
C508 C 0.89886 0.48053 0.26789 0.0
C509 C 0.90309 0.49133 0.22456 0.0
C510 C 0.03033 0.52227 0.23638 0.0
C511 C 0.02594 0.51069 0.27955 0.0
N512 N 0.96903 0.46539 0.33159 0.0
N513 N 0.98002 0.5136 0.16549 0.0
C514 C 0.96405 0.48578 0.29384 0.0
C515 C 0.97098 0.5097 0.20812 0.0
N516 N 0.83155 0.46719 0.28498 0.0
N517 N 0.0907 0.5458 0.22255 0.0
H518 H 0.93855 0.50423 0.14395 0.0
H519 H 0.03081 0.52263 0.15123 0.0
H520 H 0.13714 0.5532 0.24182 0.0
H521 H 0.09318 0.55981 0.19282 0.0
H522 H 0.82362 0.46332 0.31735 0.0
H523 H 0.78143 0.46401 0.2675 0.0
H524 H 0.92926 0.44317 0.34197 0.0
H525 H 1.01761 0.46747 0.35014 0.0
C526 C 0.58734 0.04949 0.21828 0.0
C527 C 0.6647 0.04622 0.2306 0.0
C528 C 0.62845 0.99897 0.28883 0.0
C529 C 0.55019 1.0012 0.27579 0.0
N530 N 0.46551 1.01412 0.21711 0.0
N531 N 0.76112 1.01588 0.27542 0.0
C532 C 0.53239 0.02266 0.23749 0.0
C533 C 0.68563 1.02075 0.26555 0.0
N534 N 0.56598 0.07822 0.18812 0.0
N535 N 0.64963 0.97497 0.32261 0.0
H536 H 0.80388 0.0335 0.26089 0.0
H537 H 0.78202 0.99356 0.29684 0.0
H538 H 0.62528 0.94549 0.32807 0.0
H539 H 0.6977 0.98131 0.34093 0.0
H540 H 0.50919 0.0846 0.1807 0.0
H541 H 0.60439 0.09897 0.17396 0.0
H542 H 0.4521 0.02608 0.18732 0.0
H543 H 0.42909 0.98995 0.22699 0.0
C544 C 0.514 0.53136 0.73795 0.0
C545 C 0.51183 0.51775 0.78058 0.0
C546 C 0.63493 0.48123 0.77132 0.0
C547 C 0.63664 0.49393 0.72841 0.0
N548 N 0.56927 0.52332 0.66847 0.0
N549 N 0.55827 0.46915 0.83325 0.0
C550 C 0.57373 0.51687 0.71101 0.0
C551 C 0.56869 0.48941 0.7958 0.0
N552 N 0.45922 0.55862 0.72328 0.0
N553 N 0.69808 0.46334 0.78955 0.0
H554 H 0.50994 0.47439 0.8512 0.0
H555 H 0.59324 0.44463 0.8442 0.0
H556 H 0.74864 0.45778 0.77319 0.0
H557 H 0.70289 0.45781 0.82188 0.0
H558 H 0.46234 0.57431 0.6944 0.0
H559 H 0.41195 0.5673 0.74118 0.0
H560 H 0.52129 0.53532 0.65313 0.0
H561 H 0.61135 0.51332 0.64779 0.0
C562 C 0.85051 0.03125 0.78473 0.0
C563 C 0.85896 0.04632 0.74273 0.0
C564 C 0.99566 0.02931 0.74611 0.0
C565 C 0.98825 1.01748 0.78904 0.0
N566 N 0.91248 0.02176 0.85235 0.0
N567 N 0.94532 0.07393 0.69056 0.0
C568 C 0.91679 0.02299 0.80936 0.0
C569 C 0.93339 0.04961 0.72549 0.0
N570 N 0.78007 0.0224 0.80065 0.0
N571 N 0.06037 1.01966 0.72427 0.0
H572 H 0.90252 0.09339 0.67839 0.0
H573 H 0.99928 0.07964 0.67815 0.0
H574 H 0.10566 1.0029 0.73766 0.0
H575 H 0.06537 0.02438 0.69182 0.0
H576 H 0.77242 1.00739 0.82968 0.0
H577 H 0.72986 0.02586 0.78337 0.0
H578 H 0.86285 0.02914 0.86886 0.0
H579 H 0.9607 1.01835 0.87135 0.0
C580 C 0.17345 0.51809 0.7227 0.0
C581 C 0.15876 0.54262 0.75921 0.0
C582 C 0.02159 0.53035 0.74961 0.0
C583 C 0.03528 0.51108 0.70957 0.0
N584 N 0.12868 0.49673 0.65444 0.0
N585 N 0.06762 0.58052 0.80187 0.0
C586 C 0.11244 0.50781 0.69509 0.0
C587 C 0.08241 0.55135 0.77098 0.0
N588 N 0.24528 0.50303 0.71485 0.0
N589 N 0.95243 0.52636 0.76887 0.0
H590 H 0.11073 0.59817 0.81618 0.0
H591 H 1.0127 0.59072 0.80933 0.0
H592 H 0.90828 0.5079 0.75669 0.0
H593 H 0.94235 0.53685 0.7996 0.0
H594 H 0.2569 0.48077 0.69124 0.0
H595 H 0.29192 0.5092 0.73436 0.0
H596 H 0.18322 0.49868 0.64165 0.0
H597 H 0.08749 0.49042 0.63198 0.0
C598 C 0.45722 0.98824 0.77301 0.0
C599 C 0.37942 0.99716 0.76466 0.0
C600 C 0.41448 0.02678 0.69582 0.0
C601 C 0.49367 1.01837 0.7042 0.0
N602 N 0.57949 0.97145 0.74295 0.0
N603 N 0.28184 1.01618 0.71476 0.0
C604 C 0.51225 0.99338 0.74049 0.0
C605 C 0.35752 1.01425 0.72522 0.0
N606 N 0.47927 0.97546 0.81241 0.0
N607 N 0.39254 0.04531 0.65886 0.0
H608 H 0.23865 1.00733 0.73542 0.0
H609 H 0.26142 0.02336 0.68471 0.0
H610 H 0.42532 0.04337 0.63183 0.0
H611 H 0.34071 0.06102 0.65466 0.0
H612 H 0.5362 0.9734 0.82168 0.0
H613 H 0.44089 0.97098 0.83699 0.0
H614 H 0.59276 0.95089 0.76773 0.0
H615 H 0.61586 0.96718 0.7175 0.0
C616 C 0.0768 0.54836 0.50263 0.0
C617 C 0.04968 0.53849 0.4618 0.0
C618 C 0.95696 0.4885 0.49212 0.0
C619 C 0.98076 0.50039 0.53336 0.0
N620 N 0.05028 0.55101 0.57694 0.0
N621 N 0.95347 0.50664 0.41794 0.0
C622 C 0.03672 0.5331 0.53838 0.0
C623 C 0.98699 0.51049 0.45663 0.0
N624 N 0.1423 0.57137 0.50746 0.0
N625 N 0.90453 0.45681 0.48664 0.0
H626 H 0.97409 0.52247 0.39156 0.0
H627 H 0.90189 0.49116 0.41274 0.0
H628 H 0.87559 0.44252 0.51148 0.0
H629 H 0.8926 0.44303 0.45744 0.0
H630 H 0.17034 0.57473 0.53631 0.0
H631 H 0.17219 0.58414 0.48209 0.0
H632 H 0.08314 0.5783 0.58119 0.0
H633 H 0.02368 0.54123 0.60436 0.0
C634 C 0.54967 0.02464 0.45149 0.0
C635 C 0.48674 0.99648 0.45613 0.0
C636 C 0.49474 1.00446 0.5329 0.0
C637 C 0.55176 0.03647 0.52822 0.0
N638 N 0.63084 0.07891 0.48249 0.0
N639 N 0.38935 0.96677 0.50071 0.0
C640 C 0.57793 0.04738 0.48727 0.0
C641 C 0.45666 0.98825 0.49667 0.0
N642 N 0.58491 0.02807 0.4132 0.0
N643 N 0.47754 0.98856 0.57182 0.0
H644 H 0.35892 0.95462 0.47508 0.0
H645 H 0.35985 0.96459 0.52912 0.0
H646 H 0.50204 0.99957 0.59958 0.0
H647 H 0.44363 0.96174 0.57626 0.0
H648 H 0.6359 0.04422 0.40856 0.0
H649 H 0.56709 1.01136 0.38654 0.0
H650 H 0.64495 0.09206 0.45338 0.0
H651 H 0.65788 0.09388 0.5078 0.0
C652 C 0.48904 0.53301 0.03711 0.0
C653 C 0.55324 0.50572 0.03198 0.0
C654 C 0.55307 0.51998 0.95589 0.0
C655 C 0.48899 0.54734 0.96118 0.0
N656 N 0.40126 0.58453 0.00641 0.0
N657 N 0.64341 0.46993 0.98709 0.0
C658 C 0.45846 0.55515 0.00173 0.0
C659 C 0.58462 0.49837 0.99146 0.0
N660 N 0.45518 0.53608 0.07569 0.0
N661 N 0.5851 0.51601 0.91686 0.0
H662 H 0.66836 0.45416 0.01261 0.0
H663 H 0.66559 0.45995 0.95833 0.0
H664 H 0.562 0.53061 0.8903 0.0
H665 H 0.63611 0.50034 0.91064 0.0
H666 H 0.40291 0.55075 0.08115 0.0
H667 H 0.47741 0.52114 0.10224 0.0
H668 H 0.38128 0.59532 0.03541 0.0
H669 H 0.37666 0.6007 0.98102 0.0
C670 C 0.9673 1.00603 0.96692 0.0
C671 C 0.04628 0.99701 0.96571 0.0
C672 C 0.06686 0.04764 0.02367 0.0
C673 C 0.98783 0.05651 0.02502 0.0
N674 N 0.86795 0.05502 0.98887 0.0
N675 N 0.16619 0.99859 0.00188 0.0
C676 C 0.93948 0.03873 0.99393 0.0
C677 C 0.09468 1.01489 -0.00328 0.0
N678 N 0.91826 0.98077 0.94507 0.0
N679 N 0.11592 0.07304 0.04535 0.0
H680 H 0.18609 0.97323 0.98353 0.0
H681 H 0.20192 1.00709 0.02682 0.0
H682 H 0.09663 0.10076 0.05973 0.0
H683 H 0.175 0.07033 0.04353 0.0
H684 H 0.85918 0.9835 0.94681 0.0
H685 H 0.93761 0.9532 0.93047 0.0
H686 H 0.83197 0.04648 0.96406 0.0
H687 H 0.84827 0.08045 0.00722 0.0
C688 C 0.2945 0.72794 0.38526 0.0
C689 C 0.22903 0.7211 0.41021 0.0
C690 C 0.22475 0.79798 0.42613 0.0
C691 C 0.28271 0.80547 0.39565 0.0
N692 N 0.35832 0.77621 0.33867 0.0
N693 N 0.12722 0.74985 0.45231 0.0
C694 C 0.31458 0.77005 0.3736 0.0
C695 C 0.19286 0.75623 0.43018 0.0
N696 N 0.33694 0.69409 0.37169 0.0
N697 N 0.20176 0.83036 0.45206 0.0
H698 H 0.10458 0.71954 0.45731 0.0
H699 H 0.09319 0.77463 0.46351 0.0
H700 H 0.22544 0.8608 0.45089 0.0
H701 H 0.16478 0.82602 0.47734 0.0
H702 H 0.38979 0.69743 0.35715 0.0
H703 H 0.32266 0.66273 0.37858 0.0
H704 H 0.37591 0.75158 0.31881 0.0
H705 H 0.36895 0.80612 0.32645 0.0
C706 C 0.81359 0.26228 0.05473 0.0
C707 C 0.78491 0.22798 0.07897 0.0
C708 C 0.70137 0.27732 0.1171 0.0
C709 C 0.72749 0.31196 0.09192 0.0
N710 N 0.79342 0.33432 0.02898 0.0
N711 N 0.68552 0.20102 0.12359 0.0
C712 C 0.77896 0.30342 0.05822 0.0
C713 C 0.72289 0.23495 0.10654 0.0
N714 N 0.87513 0.25582 0.02921 0.0
N715 N 0.6623 0.28462 0.15356 0.0
H716 H 0.70071 0.16966 0.11685 0.0
H717 H 0.63518 0.20405 0.14073 0.0
H718 H 0.65063 0.31489 0.16477 0.0
H719 H 0.64955 0.26077 0.17527 0.0
H720 H 0.90448 0.28051 0.01458 0.0
H721 H 0.89928 0.22573 0.0246 0.0
H722 H 0.82538 0.32896 0.00182 0.0
H723 H 0.76678 0.3641 0.0296 0.0
C724 C 0.77846 0.24378 0.55705 0.0
C725 C 0.72359 0.23487 0.58885 0.0
C726 C 0.71105 0.31208 0.60175 0.0
C727 C 0.77521 0.3199 0.576 0.0
N728 N 0.87345 0.29303 0.53027 0.0
N729 N 0.64919 0.26191 0.64744 0.0
C730 C 0.8097 0.28568 0.55376 0.0
C731 C 0.69182 0.26943 0.61232 0.0
N732 N 0.79932 0.21249 0.52929 0.0
N733 N 0.66954 0.34546 0.61727 0.0
H734 H 0.63869 0.23157 0.6587 0.0
H735 H 0.63202 0.28577 0.66829 0.0
H736 H 0.683 0.3771 0.61096 0.0
H737 H 0.6177 0.34159 0.63274 0.0
H738 H 0.83401 0.21793 0.50324 0.0
H739 H 0.7756 0.18204 0.52979 0.0
H740 H 0.90675 0.26875 0.51744 0.0
H741 H 0.89521 0.32359 0.52556 0.0
C742 C 0.25541 0.74663 0.93636 0.0
C743 C 0.30534 0.73774 0.90203 0.0
C744 C 0.31115 0.81469 0.88739 0.0
C745 C 0.25052 0.82219 0.91574 0.0
N746 N 0.16147 0.79498 0.96647 0.0
N747 N 0.36669 0.76458 0.839 0.0
C748 C 0.2219 0.78807 0.94027 0.0
C749 C 0.33066 0.77217 0.87635 0.0
N750 N 0.24137 0.71584 0.96577 0.0
N751 N 0.34912 0.84826 0.87009 0.0
H752 H 0.3756 0.73418 0.82725 0.0
H753 H 0.37898 0.78842 0.8172 0.0
H754 H 0.33565 0.87973 0.87742 0.0
H755 H 0.39842 0.84466 0.85214 0.0
H756 H 0.2106 0.72146 0.9933 0.0
H757 H 0.26717 0.68585 0.96481 0.0
H758 H 0.1321 0.77049 0.98144 0.0
H759 H 0.13822 0.82525 0.97133 0.0
loop_
_geom_bond_atom_site_label_1
_geom_bond_atom_site_label_2
_geom_bond_distance
_geom_bond_site_symmetry_2
_ccdc_geom_bond_type
Co0 O2 2.143 . S
Co0 O8 2.074 . S
Co0 O11 2.093 . S
Co0 O24 2.097 . S
Co0 N41 2.151 . S
Co0 N49 2.214 . S
Co1 O2 2.160 . S
Co1 O7 2.058 . S
Co1 O17 2.057 . S
Co1 O32 2.037 . S
Co1 N36 2.145 1_455 S
Co1 N57 2.257 . S
O2 Co0 2.143 . S
O2 Co1 2.160 . S
C3 O4 1.278 . S
C3 O11 1.224 . S
O4 C3 1.278 . S
C5 O6 1.245 . S
C5 O17 1.232 . S
O6 C5 1.245 . S
O7 Co1 2.058 . S
O7 C33 1.269 . S
O8 Co0 2.074 . S
O8 C33 1.257 . S
H9 C34 0.930 . S
H10 C40 0.930 . S
O11 Co0 2.093 . S
O11 C3 1.224 . S
H12 C44 0.929 . S
H13 C46 0.930 . S
H14 C47 0.930 . S
H15 C45 0.929 . S
H16 C48 0.928 . S
O17 Co1 2.057 . S
O17 C5 1.232 . S
H18 C37 0.929 . S
H19 C38 0.929 1_455 S
H20 C50 0.931 . S
H21 C42 0.929 . S
H22 C51 0.930 . S
H23 C43 0.931 . S
O24 Co0 2.097 . S
O24 C52 1.214 . S
H25 C53 0.929 . S
H26 C54 0.929 . S
H27 C55 0.930 . S
H28 C56 0.929 . S
H29 C58 0.930 . S
H30 C35 0.930 . S
H31 C39 0.930 . S
O32 Co1 2.037 . S
O32 C52 1.234 . S
C33 O7 1.269 . S
C33 O8 1.257 . S
C34 H9 0.930 . S
C34 C37 1.388 . S
C34 C39 1.418 . S
C35 H30 0.930 . S
C35 C38 1.404 . S
C35 C39 1.353 . S
N36 Co1 2.145 1_655 S
N36 C37 1.397 . S
N36 C38 1.334 . S
C37 H18 0.929 . S
C37 C34 1.388 . S
C37 N36 1.397 . S
C38 H19 0.929 1_655 S
C38 C35 1.404 . S
C38 N36 1.334 . S
C39 H31 0.930 . S
C39 C34 1.418 . S
C39 C35 1.353 . S
C40 H10 0.930 . S
C40 N41 1.330 . S
C40 C42 1.446 . S
N41 Co0 2.151 . S
N41 C40 1.330 . S
N41 C45 1.418 . S
C42 H21 0.929 . S
C42 C40 1.446 . S
C42 C43 1.332 . S
C43 H23 0.931 . S
C43 C42 1.332 . S
C43 C44 1.267 . S
C44 H12 0.929 . S
C44 C43 1.267 . S
C44 C45 1.251 . S
C45 H15 0.929 . S
C45 N41 1.418 . S
C45 C44 1.251 . S
C46 H13 0.930 . S
C46 C48 1.406 . S
C46 C51 1.261 . S
C47 H14 0.930 . S
C47 N49 1.325 . S
C47 C50 1.357 . S
C48 H16 0.928 . S
C48 C46 1.406 . S
C48 N49 1.261 . S
N49 Co0 2.214 . S
N49 C47 1.325 . S
N49 C48 1.261 . S
C50 H20 0.931 . S
C50 C47 1.357 . S
C50 C51 1.312 . S
C51 H22 0.930 . S
C51 C46 1.261 . S
C51 C50 1.312 . S
C52 O24 1.214 . S
C52 O32 1.234 . S
C53 H25 0.929 . S
C53 C56 1.391 . S
C53 C58 1.391 . S
C54 H26 0.929 . S
C54 C55 1.390 . S
C54 N57 1.391 . S
C55 H27 0.930 . S
C55 C54 1.390 . S
C55 C56 1.392 . S
C56 H28 0.929 . S
C56 C53 1.391 . S
C56 C55 1.392 . S
N57 Co1 2.257 . S
N57 C54 1.391 . S
N57 C58 1.388 . S
C58 H29 0.930 . S
C58 C53 1.391 . S
C58 N57 1.388 . S
Co59 O61 2.143 . S
Co59 O67 2.074 . S
Co59 O70 2.093 1_565 S
Co59 O83 2.097 . S
Co59 N100 2.151 . S
Co59 N108 2.214 1_565 S
Co60 O61 2.160 . S
Co60 O66 2.058 . S
Co60 O76 2.057 . S
Co60 O91 2.037 . S
Co60 N95 2.145 . S
Co60 N116 2.257 . S
O61 Co59 2.143 . S
O61 Co60 2.160 . S
C62 O63 1.278 . S
C62 O70 1.224 1_565 S
O63 C62 1.278 . S
C64 O65 1.245 . S
C64 O76 1.232 . S
O65 C64 1.245 . S
O66 Co60 2.058 . S
O66 C92 1.269 . S
O67 Co59 2.074 . S
O67 C92 1.257 . S
H68 C93 0.930 . S
H69 C99 0.930 . S
O70 Co59 2.093 1_545 S
O70 C62 1.224 1_545 S
H71 C103 0.929 . S
H72 C105 0.930 . S
H73 C106 0.930 . S
H74 C104 0.929 . S
H75 C107 0.928 . S
O76 Co60 2.057 . S
O76 C64 1.232 . S
H77 C96 0.929 . S
H78 C97 0.929 . S
H79 C109 0.931 . S
H80 C101 0.929 . S
H81 C110 0.930 . S
H82 C102 0.931 . S
O83 Co59 2.097 . S
O83 C111 1.214 . S
H84 C112 0.929 . S
H85 C113 0.929 . S
H86 C114 0.930 . S
H87 C115 0.929 . S
H88 C117 0.930 . S
H89 C94 0.930 . S
H90 C98 0.930 . S
O91 Co60 2.037 . S
O91 C111 1.234 . S
C92 O66 1.269 . S
C92 O67 1.257 . S
C93 H68 0.930 . S
C93 C96 1.388 . S
C93 C98 1.418 . S
C94 H89 0.930 . S
C94 C97 1.404 . S
C94 C98 1.353 . S
N95 Co60 2.145 . S
N95 C96 1.397 . S
N95 C97 1.334 . S
C96 H77 0.929 . S
C96 C93 1.388 . S
C96 N95 1.397 . S
C97 H78 0.929 . S
C97 C94 1.404 . S
C97 N95 1.334 . S
C98 H90 0.930 . S
C98 C93 1.418 . S
C98 C94 1.353 . S
C99 H69 0.930 . S
C99 N100 1.330 . S
C99 C101 1.446 . S
N100 Co59 2.151 . S
N100 C99 1.330 . S
N100 C104 1.418 1_565 S
C101 H80 0.929 . S
C101 C99 1.446 . S
C101 C102 1.332 1_565 S
C102 H82 0.931 . S
C102 C101 1.332 1_545 S
C102 C103 1.267 . S
C103 H71 0.929 . S
C103 C102 1.267 . S
C103 C104 1.251 . S
C104 H74 0.929 . S
C104 N100 1.418 1_545 S
C104 C103 1.251 . S
C105 H72 0.930 . S
C105 C107 1.406 . S
C105 C110 1.261 . S
C106 H73 0.930 . S
C106 N108 1.325 . S
C106 C109 1.357 . S
C107 H75 0.928 . S
C107 C105 1.406 . S
C107 N108 1.261 . S
N108 Co59 2.214 1_545 S
N108 C106 1.325 . S
N108 C107 1.261 . S
C109 H79 0.931 . S
C109 C106 1.357 . S
C109 C110 1.312 . S
C110 H81 0.930 . S
C110 C105 1.261 . S
C110 C109 1.312 . S
C111 O83 1.214 . S
C111 O91 1.234 . S
C112 H84 0.929 . S
C112 C115 1.391 . S
C112 C117 1.391 . S
C113 H85 0.929 . S
C113 C114 1.390 . S
C113 N116 1.391 . S
C114 H86 0.930 . S
C114 C113 1.390 . S
C114 C115 1.392 . S
C115 H87 0.929 . S
C115 C112 1.391 . S
C115 C114 1.392 . S
N116 Co60 2.257 . S
N116 C113 1.391 . S
N116 C117 1.388 . S
C117 H88 0.930 . S
C117 C112 1.391 . S
C117 N116 1.388 . S
Co118 O120 2.143 . S
Co118 O126 2.074 . S
Co118 O129 2.093 . S
Co118 O142 2.097 . S
Co118 N159 2.151 . S
Co118 N167 2.214 . S
Co119 O120 2.160 . S
Co119 O125 2.058 . S
Co119 O135 2.057 . S
Co119 O150 2.037 . S
Co119 N154 2.145 . S
Co119 N175 2.257 . S
O120 Co118 2.143 . S
O120 Co119 2.160 . S
C121 O122 1.278 . S
C121 O129 1.224 . S
O122 C121 1.278 . S
C123 O124 1.245 . S
C123 O135 1.232 . S
O124 C123 1.245 . S
O125 Co119 2.058 . S
O125 C151 1.269 . S
O126 Co118 2.074 . S
O126 C151 1.257 . S
H127 C152 0.930 . S
H128 C158 0.930 . S
O129 Co118 2.093 . S
O129 C121 1.224 . S
H130 C162 0.929 1_556 S
H131 C164 0.930 . S
H132 C165 0.930 . S
H133 C163 0.929 . S
H134 C166 0.928 . S
O135 Co119 2.057 . S
O135 C123 1.232 . S
H136 C155 0.929 . S
H137 C156 0.929 . S
H138 C168 0.931 . S
H139 C160 0.929 . S
H140 C169 0.930 . S
H141 C161 0.931 . S
O142 Co118 2.097 . S
O142 C170 1.214 . S
H143 C171 0.929 . S
H144 C172 0.929 . S
H145 C173 0.930 . S
H146 C174 0.929 . S
H147 C176 0.930 . S
H148 C153 0.930 . S
H149 C157 0.930 . S
O150 Co119 2.037 . S
O150 C170 1.234 . S
C151 O125 1.269 . S
C151 O126 1.257 . S
C152 H127 0.930 . S
C152 C155 1.388 . S
C152 C157 1.418 . S
C153 H148 0.930 . S
C153 C156 1.404 . S
C153 C157 1.353 . S
N154 Co119 2.145 . S
N154 C155 1.397 . S
N154 C156 1.334 . S
C155 H136 0.929 . S
C155 C152 1.388 . S
C155 N154 1.397 . S
C156 H137 0.929 . S
C156 C153 1.404 . S
C156 N154 1.334 . S
C157 H149 0.930 . S
C157 C152 1.418 . S
C157 C153 1.353 . S
C158 H128 0.930 . S
C158 N159 1.330 . S
C158 C160 1.446 . S
N159 Co118 2.151 . S
N159 C158 1.330 . S
N159 C163 1.418 . S
C160 H139 0.929 . S
C160 C158 1.446 . S
C160 C161 1.332 . S
C161 H141 0.931 . S
C161 C160 1.332 . S
C161 C162 1.267 . S
C162 H130 0.929 1_554 S
C162 C161 1.267 . S
C162 C163 1.251 . S
C163 H133 0.929 . S
C163 N159 1.418 . S
C163 C162 1.251 . S
C164 H131 0.930 . S
C164 C166 1.406 . S
C164 C169 1.261 . S
C165 H132 0.930 . S
C165 N167 1.325 . S
C165 C168 1.357 . S
C166 H134 0.928 . S
C166 C164 1.406 . S
C166 N167 1.261 . S
N167 Co118 2.214 . S
N167 C165 1.325 . S
N167 C166 1.261 . S
C168 H138 0.931 . S
C168 C165 1.357 . S
C168 C169 1.312 . S
C169 H140 0.930 . S
C169 C164 1.261 . S
C169 C168 1.312 . S
C170 O142 1.214 . S
C170 O150 1.234 . S
C171 H143 0.929 . S
C171 C174 1.391 . S
C171 C176 1.391 . S
C172 H144 0.929 . S
C172 C173 1.390 . S
C172 N175 1.391 . S
C173 H145 0.930 . S
C173 C172 1.390 . S
C173 C174 1.392 . S
C174 H146 0.929 . S
C174 C171 1.391 . S
C174 C173 1.392 . S
N175 Co119 2.257 . S
N175 C172 1.391 . S
N175 C176 1.388 . S
C176 H147 0.930 . S
C176 C171 1.391 . S
C176 N175 1.388 . S
Co177 O179 2.143 . S
Co177 O185 2.074 . S
Co177 O188 2.093 1_545 S
Co177 O201 2.097 . S
Co177 N218 2.151 . S
Co177 N226 2.214 1_545 S
Co178 O179 2.160 . S
Co178 O184 2.058 . S
Co178 O194 2.057 . S
Co178 O209 2.037 . S
Co178 N213 2.145 1_655 S
Co178 N234 2.257 . S
O179 Co177 2.143 . S
O179 Co178 2.160 . S
C180 O181 1.278 . S
C180 O188 1.224 1_545 S
O181 C180 1.278 . S
C182 O183 1.245 . S
C182 O194 1.232 . S
O183 C182 1.245 . S
O184 Co178 2.058 . S
O184 C210 1.269 . S
O185 Co177 2.074 . S
O185 C210 1.257 . S
H186 C211 0.930 . S
H187 C217 0.930 . S
O188 Co177 2.093 1_565 S
O188 C180 1.224 1_565 S
H189 C221 0.929 1_556 S
H190 C223 0.930 . S
H191 C224 0.930 . S
H192 C222 0.929 . S
H193 C225 0.928 . S
O194 Co178 2.057 . S
O194 C182 1.232 . S
H195 C214 0.929 . S
H196 C215 0.929 1_655 S
H197 C227 0.931 . S
H198 C219 0.929 . S
H199 C228 0.930 . S
H200 C220 0.931 . S
O201 Co177 2.097 . S
O201 C229 1.214 . S
H202 C230 0.929 . S
H203 C231 0.929 . S
H204 C232 0.930 . S
H205 C233 0.929 . S
H206 C235 0.930 . S
H207 C212 0.930 . S
H208 C216 0.930 . S
O209 Co178 2.037 . S
O209 C229 1.234 . S
C210 O184 1.269 . S
C210 O185 1.257 . S
C211 H186 0.930 . S
C211 C214 1.388 . S
C211 C216 1.418 . S
C212 H207 0.930 . S
C212 C215 1.404 . S
C212 C216 1.353 . S
N213 Co178 2.145 1_455 S
N213 C214 1.397 . S
N213 C215 1.334 . S
C214 H195 0.929 . S
C214 C211 1.388 . S
C214 N213 1.397 . S
C215 H196 0.929 1_455 S
C215 C212 1.404 . S
C215 N213 1.334 . S
C216 H208 0.930 . S
C216 C211 1.418 . S
C216 C212 1.353 . S
C217 H187 0.930 . S
C217 N218 1.330 . S
C217 C219 1.446 . S
N218 Co177 2.151 . S
N218 C217 1.330 . S
N218 C222 1.418 1_545 S
C219 H198 0.929 . S
C219 C217 1.446 . S
C219 C220 1.332 1_545 S
C220 H200 0.931 . S
C220 C219 1.332 1_565 S
C220 C221 1.267 . S
C221 H189 0.929 1_554 S
C221 C220 1.267 . S
C221 C222 1.251 . S
C222 H192 0.929 . S
C222 N218 1.418 1_565 S
C222 C221 1.251 . S
C223 H190 0.930 . S
C223 C225 1.406 . S
C223 C228 1.261 . S
C224 H191 0.930 . S
C224 N226 1.325 . S
C224 C227 1.357 . S
C225 H193 0.928 . S
C225 C223 1.406 . S
C225 N226 1.261 . S
N226 Co177 2.214 1_565 S
N226 C224 1.325 . S
N226 C225 1.261 . S
C227 H197 0.931 . S
C227 C224 1.357 . S
C227 C228 1.312 . S
C228 H199 0.930 . S
C228 C223 1.261 . S
C228 C227 1.312 . S
C229 O201 1.214 . S
C229 O209 1.234 . S
C230 H202 0.929 . S
C230 C233 1.391 . S
C230 C235 1.391 . S
C231 H203 0.929 . S
C231 C232 1.390 . S
C231 N234 1.391 . S
C232 H204 0.930 . S
C232 C231 1.390 . S
C232 C233 1.392 . S
C233 H205 0.929 . S
C233 C230 1.391 . S
C233 C232 1.392 . S
N234 Co178 2.257 . S
N234 C231 1.391 . S
N234 C235 1.388 . S
C235 H206 0.930 . S
C235 C230 1.391 . S
C235 N234 1.388 . S
Co236 O238 2.143 . S
Co236 O244 2.074 . S
Co236 O247 2.093 . S
Co236 O260 2.097 . S
Co236 N277 2.151 . S
Co236 N285 2.214 . S
Co237 O238 2.160 . S
Co237 O243 2.058 . S
Co237 O253 2.057 . S
Co237 O268 2.037 . S
Co237 N272 2.145 1_655 S
Co237 N293 2.257 . S
O238 Co236 2.143 . S
O238 Co237 2.160 . S
C239 O240 1.278 . S
C239 O247 1.224 . S
O240 C239 1.278 . S
C241 O242 1.245 . S
C241 O253 1.232 . S
O242 C241 1.245 . S
O243 Co237 2.058 . S
O243 C269 1.269 . S
O244 Co236 2.074 . S
O244 C269 1.257 . S
H245 C270 0.930 . S
H246 C276 0.930 . S
O247 Co236 2.093 . S
O247 C239 1.224 . S
H248 C280 0.929 . S
H249 C282 0.930 . S
H250 C283 0.930 . S
H251 C281 0.929 . S
H252 C284 0.928 . S
O253 Co237 2.057 . S
O253 C241 1.232 . S
H254 C273 0.929 . S
H255 C274 0.929 1_655 S
H256 C286 0.931 . S
H257 C278 0.929 . S
H258 C287 0.930 . S
H259 C279 0.931 . S
O260 Co236 2.097 . S
O260 C288 1.214 . S
H261 C289 0.929 . S
H262 C290 0.929 . S
H263 C291 0.930 . S
H264 C292 0.929 . S
H265 C294 0.930 . S
H266 C271 0.930 . S
H267 C275 0.930 . S
O268 Co237 2.037 . S
O268 C288 1.234 . S
C269 O243 1.269 . S
C269 O244 1.257 . S
C270 H245 0.930 . S
C270 C273 1.388 . S
C270 C275 1.418 . S
C271 H266 0.930 . S
C271 C274 1.404 . S
C271 C275 1.353 . S
N272 Co237 2.145 1_455 S
N272 C273 1.397 . S
N272 C274 1.334 . S
C273 H254 0.929 . S
C273 C270 1.388 . S
C273 N272 1.397 . S
C274 H255 0.929 1_455 S
C274 C271 1.404 . S
C274 N272 1.334 . S
C275 H267 0.930 . S
C275 C270 1.418 . S
C275 C271 1.353 . S
C276 H246 0.930 . S
C276 N277 1.330 . S
C276 C278 1.446 . S
N277 Co236 2.151 . S
N277 C276 1.330 . S
N277 C281 1.418 . S
C278 H257 0.929 . S
C278 C276 1.446 . S
C278 C279 1.332 . S
C279 H259 0.931 . S
C279 C278 1.332 . S
C279 C280 1.267 . S
C280 H248 0.929 . S
C280 C279 1.267 . S
C280 C281 1.251 . S
C281 H251 0.929 . S
C281 N277 1.418 . S
C281 C280 1.251 . S
C282 H249 0.930 . S
C282 C284 1.406 . S
C282 C287 1.261 . S
C283 H250 0.930 . S
C283 N285 1.325 . S
C283 C286 1.357 . S
C284 H252 0.928 . S
C284 C282 1.406 . S
C284 N285 1.261 . S
N285 Co236 2.214 . S
N285 C283 1.325 . S
N285 C284 1.261 . S
C286 H256 0.931 . S
C286 C283 1.357 . S
C286 C287 1.312 . S
C287 H258 0.930 . S
C287 C282 1.261 . S
C287 C286 1.312 . S
C288 O260 1.214 . S
C288 O268 1.234 . S
C289 H261 0.929 . S
C289 C292 1.391 . S
C289 C294 1.391 . S
C290 H262 0.929 . S
C290 C291 1.390 . S
C290 N293 1.391 . S
C291 H263 0.930 . S
C291 C290 1.390 . S
C291 C292 1.392 . S
C292 H264 0.929 . S
C292 C289 1.391 . S
C292 C291 1.392 . S
N293 Co237 2.257 . S
N293 C290 1.391 . S
N293 C294 1.388 . S
C294 H265 0.930 . S
C294 C289 1.391 . S
C294 N293 1.388 . S
Co295 O297 2.143 . S
Co295 O303 2.074 . S
Co295 O306 2.093 1_545 S
Co295 O319 2.097 . S
Co295 N336 2.151 . S
Co295 N344 2.214 1_545 S
Co296 O297 2.160 . S
Co296 O302 2.058 . S
Co296 O312 2.057 . S
Co296 O327 2.037 . S
Co296 N331 2.145 . S
Co296 N352 2.257 . S
O297 Co295 2.143 . S
O297 Co296 2.160 . S
C298 O299 1.278 . S
C298 O306 1.224 1_545 S
O299 C298 1.278 . S
C300 O301 1.245 . S
C300 O312 1.232 . S
O301 C300 1.245 . S
O302 Co296 2.058 . S
O302 C328 1.269 . S
O303 Co295 2.074 . S
O303 C328 1.257 . S
H304 C329 0.930 . S
H305 C335 0.930 . S
O306 Co295 2.093 1_565 S
O306 C298 1.224 1_565 S
H307 C339 0.929 . S
H308 C341 0.930 . S
H309 C342 0.930 . S
H310 C340 0.929 . S
H311 C343 0.928 . S
O312 Co296 2.057 . S
O312 C300 1.232 . S
H313 C332 0.929 . S
H314 C333 0.929 . S
H315 C345 0.931 . S
H316 C337 0.929 . S
H317 C346 0.930 . S
H318 C338 0.931 . S
O319 Co295 2.097 . S
O319 C347 1.214 . S
H320 C348 0.929 . S
H321 C349 0.929 . S
H322 C350 0.930 . S
H323 C351 0.929 . S
H324 C353 0.930 . S
H325 C330 0.930 . S
H326 C334 0.930 . S
O327 Co296 2.037 . S
O327 C347 1.234 . S
C328 O302 1.269 . S
C328 O303 1.257 . S
C329 H304 0.930 . S
C329 C332 1.388 . S
C329 C334 1.418 . S
C330 H325 0.930 . S
C330 C333 1.404 . S
C330 C334 1.353 . S
N331 Co296 2.145 . S
N331 C332 1.397 . S
N331 C333 1.334 . S
C332 H313 0.929 . S
C332 C329 1.388 . S
C332 N331 1.397 . S
C333 H314 0.929 . S
C333 C330 1.404 . S
C333 N331 1.334 . S
C334 H326 0.930 . S
C334 C329 1.418 . S
C334 C330 1.353 . S
C335 H305 0.930 . S
C335 N336 1.330 . S
C335 C337 1.446 . S
N336 Co295 2.151 . S
N336 C335 1.330 . S
N336 C340 1.418 1_545 S
C337 H316 0.929 . S
C337 C335 1.446 . S
C337 C338 1.332 1_545 S
C338 H318 0.931 . S
C338 C337 1.332 1_565 S
C338 C339 1.267 . S
C339 H307 0.929 . S
C339 C338 1.267 . S
C339 C340 1.251 . S
C340 H310 0.929 . S
C340 N336 1.418 1_565 S
C340 C339 1.251 . S
C341 H308 0.930 . S
C341 C343 1.406 . S
C341 C346 1.261 . S
C342 H309 0.930 . S
C342 N344 1.325 . S
C342 C345 1.357 . S
C343 H311 0.928 . S
C343 C341 1.406 . S
C343 N344 1.261 . S
N344 Co295 2.214 1_565 S
N344 C342 1.325 . S
N344 C343 1.261 . S
C345 H315 0.931 . S
C345 C342 1.357 . S
C345 C346 1.312 . S
C346 H317 0.930 . S
C346 C341 1.261 . S
C346 C345 1.312 . S
C347 O319 1.214 . S
C347 O327 1.234 . S
C348 H320 0.929 . S
C348 C351 1.391 . S
C348 C353 1.391 . S
C349 H321 0.929 . S
C349 C350 1.390 . S
C349 N352 1.391 . S
C350 H322 0.930 . S
C350 C349 1.390 . S
C350 C351 1.392 . S
C351 H323 0.929 . S
C351 C348 1.391 . S
C351 C350 1.392 . S
N352 Co296 2.257 . S
N352 C349 1.391 . S
N352 C353 1.388 . S
C353 H324 0.930 . S
C353 C348 1.391 . S
C353 N352 1.388 . S
Co354 O356 2.143 . S
Co354 O362 2.074 . S
Co354 O365 2.093 . S
Co354 O378 2.097 . S
Co354 N395 2.151 . S
Co354 N403 2.214 . S
Co355 O356 2.160 . S
Co355 O361 2.058 . S
Co355 O371 2.057 . S
Co355 O386 2.037 . S
Co355 N390 2.145 . S
Co355 N411 2.257 . S
O356 Co354 2.143 . S
O356 Co355 2.160 . S
C357 O358 1.278 . S
C357 O365 1.224 . S
O358 C357 1.278 . S
C359 O360 1.245 . S
C359 O371 1.232 . S
O360 C359 1.245 . S
O361 Co355 2.058 . S
O361 C387 1.269 . S
O362 Co354 2.074 . S
O362 C387 1.257 . S
H363 C388 0.930 . S
H364 C394 0.930 . S
O365 Co354 2.093 . S
O365 C357 1.224 . S
H366 C398 0.929 1_554 S
H367 C400 0.930 . S
H368 C401 0.930 . S
H369 C399 0.929 . S
H370 C402 0.928 . S
O371 Co355 2.057 . S
O371 C359 1.232 . S
H372 C391 0.929 . S
H373 C392 0.929 . S
H374 C404 0.931 . S
H375 C396 0.929 . S
H376 C405 0.930 . S
H377 C397 0.931 . S
O378 Co354 2.097 . S
O378 C406 1.214 . S
H379 C407 0.929 . S
H380 C408 0.929 . S
H381 C409 0.930 . S
H382 C410 0.929 . S
H383 C412 0.930 . S
H384 C389 0.930 . S
H385 C393 0.930 . S
O386 Co355 2.037 . S
O386 C406 1.234 . S
C387 O361 1.269 . S
C387 O362 1.257 . S
C388 H363 0.930 . S
C388 C391 1.388 . S
C388 C393 1.418 . S
C389 H384 0.930 . S
C389 C392 1.404 . S
C389 C393 1.353 . S
N390 Co355 2.145 . S
N390 C391 1.397 . S
N390 C392 1.334 . S
C391 H372 0.929 . S
C391 C388 1.388 . S
C391 N390 1.397 . S
C392 H373 0.929 . S
C392 C389 1.404 . S
C392 N390 1.334 . S
C393 H385 0.930 . S
C393 C388 1.418 . S
C393 C389 1.353 . S
C394 H364 0.930 . S
C394 N395 1.330 . S
C394 C396 1.446 . S
N395 Co354 2.151 . S
N395 C394 1.330 . S
N395 C399 1.418 . S
C396 H375 0.929 . S
C396 C394 1.446 . S
C396 C397 1.332 . S
C397 H377 0.931 . S
C397 C396 1.332 . S
C397 C398 1.267 . S
C398 H366 0.929 1_556 S
C398 C397 1.267 . S
C398 C399 1.251 . S
C399 H369 0.929 . S
C399 N395 1.418 . S
C399 C398 1.251 . S
C400 H367 0.930 . S
C400 C402 1.406 . S
C400 C405 1.261 . S
C401 H368 0.930 . S
C401 N403 1.325 . S
C401 C404 1.357 . S
C402 H370 0.928 . S
C402 C400 1.406 . S
C402 N403 1.261 . S
N403 Co354 2.214 . S
N403 C401 1.325 . S
N403 C402 1.261 . S
C404 H374 0.931 . S
C404 C401 1.357 . S
C404 C405 1.312 . S
C405 H376 0.930 . S
C405 C400 1.261 . S
C405 C404 1.312 . S
C406 O378 1.214 . S
C406 O386 1.234 . S
C407 H379 0.929 . S
C407 C410 1.391 . S
C407 C412 1.391 . S
C408 H380 0.929 . S
C408 C409 1.390 . S
C408 N411 1.391 . S
C409 H381 0.930 . S
C409 C408 1.390 . S
C409 C410 1.392 . S
C410 H382 0.929 . S
C410 C407 1.391 . S
C410 C409 1.392 . S
N411 Co355 2.257 . S
N411 C408 1.391 . S
N411 C412 1.388 . S
C412 H383 0.930 . S
C412 C407 1.391 . S
C412 N411 1.388 . S
Co413 O415 2.143 . S
Co413 O421 2.074 . S
Co413 O424 2.093 1_565 S
Co413 O437 2.097 . S
Co413 N454 2.151 . S
Co413 N462 2.214 1_565 S
Co414 O415 2.160 . S
Co414 O420 2.058 . S
Co414 O430 2.057 . S
Co414 O445 2.037 . S
Co414 N449 2.145 1_455 S
Co414 N470 2.257 . S
O415 Co413 2.143 . S
O415 Co414 2.160 . S
C416 O417 1.278 . S
C416 O424 1.224 1_565 S
O417 C416 1.278 . S
C418 O419 1.245 . S
C418 O430 1.232 . S
O419 C418 1.245 . S
O420 Co414 2.058 . S
O420 C446 1.269 . S
O421 Co413 2.074 . S
O421 C446 1.257 . S
H422 C447 0.930 . S
H423 C453 0.930 . S
O424 Co413 2.093 1_545 S
O424 C416 1.224 1_545 S
H425 C457 0.929 1_554 S
H426 C459 0.930 . S
H427 C460 0.930 . S
H428 C458 0.929 . S
H429 C461 0.928 . S
O430 Co414 2.057 . S
O430 C418 1.232 . S
H431 C450 0.929 . S
H432 C451 0.929 1_455 S
H433 C463 0.931 . S
H434 C455 0.929 . S
H435 C464 0.930 . S
H436 C456 0.931 . S
O437 Co413 2.097 . S
O437 C465 1.214 . S
H438 C466 0.929 . S
H439 C467 0.929 . S
H440 C468 0.930 . S
H441 C469 0.929 . S
H442 C471 0.930 . S
H443 C448 0.930 . S
H444 C452 0.930 . S
O445 Co414 2.037 . S
O445 C465 1.234 . S
C446 O420 1.269 . S
C446 O421 1.257 . S
C447 H422 0.930 . S
C447 C450 1.388 . S
C447 C452 1.418 . S
C448 H443 0.930 . S
C448 C451 1.404 . S
C448 C452 1.353 . S
N449 Co414 2.145 1_655 S
N449 C450 1.397 . S
N449 C451 1.334 . S
C450 H431 0.929 . S
C450 C447 1.388 . S
C450 N449 1.397 . S
C451 H432 0.929 1_655 S
C451 C448 1.404 . S
C451 N449 1.334 . S
C452 H444 0.930 . S
C452 C447 1.418 . S
C452 C448 1.353 . S
C453 H423 0.930 . S
C453 N454 1.330 . S
C453 C455 1.446 . S
N454 Co413 2.151 . S
N454 C453 1.330 . S
N454 C458 1.418 1_565 S
C455 H434 0.929 . S
C455 C453 1.446 . S
C455 C456 1.332 1_565 S
C456 H436 0.931 . S
C456 C455 1.332 1_545 S
C456 C457 1.267 . S
C457 H425 0.929 1_556 S
C457 C456 1.267 . S
C457 C458 1.251 . S
C458 H428 0.929 . S
C458 N454 1.418 1_545 S
C458 C457 1.251 . S
C459 H426 0.930 . S
C459 C461 1.406 . S
C459 C464 1.261 . S
C460 H427 0.930 . S
C460 N462 1.325 . S
C460 C463 1.357 . S
C461 H429 0.928 . S
C461 C459 1.406 . S
C461 N462 1.261 . S
N462 Co413 2.214 1_545 S
N462 C460 1.325 . S
N462 C461 1.261 . S
C463 H433 0.931 . S
C463 C460 1.357 . S
C463 C464 1.312 . S
C464 H435 0.930 . S
C464 C459 1.261 . S
C464 C463 1.312 . S
C465 O437 1.214 . S
C465 O445 1.234 . S
C466 H438 0.929 . S
C466 C469 1.391 . S
C466 C471 1.391 . S
C467 H439 0.929 . S
C467 C468 1.390 . S
C467 N470 1.391 . S
C468 H440 0.930 . S
C468 C467 1.390 . S
C468 C469 1.392 . S
C469 H441 0.929 . S
C469 C466 1.391 . S
C469 C468 1.392 . S
N470 Co414 2.257 . S
N470 C467 1.391 . S
N470 C471 1.388 . S
C471 H442 0.930 . S
C471 C466 1.391 . S
C471 N470 1.388 . S
C472 C473 1.363 . S
C472 C478 1.379 . S
C472 N480 1.356 . S
C473 C472 1.363 . S
C473 C479 1.363 . S
C474 C475 1.363 . S
C474 C479 1.379 . S
C474 N481 1.356 . S
C475 C474 1.363 . S
C475 C478 1.363 . S
N476 C478 1.356 . S
N476 H488 0.984 . S
N476 H489 0.985 . S
N477 C479 1.356 . S
N477 H482 0.984 . S
N477 H483 0.985 . S
C478 C472 1.379 . S
C478 C475 1.363 . S
C478 N476 1.356 . S
C479 C473 1.363 . S
C479 C474 1.379 . S
C479 N477 1.356 . S
N480 C472 1.356 . S
N480 H486 0.984 . S
N480 H487 0.984 . S
N481 C474 1.356 . S
N481 H484 0.984 . S
N481 H485 0.985 . S
H482 N477 0.984 . S
H483 N477 0.985 . S
H484 N481 0.984 . S
H485 N481 0.985 . S
H486 N480 0.984 . S
H487 N480 0.984 . S
H488 N476 0.984 . S
H489 N476 0.985 . S
C490 C491 1.363 1_565 S
C490 C496 1.379 . S
C490 N498 1.356 1_455 S
C491 C490 1.363 1_545 S
C491 C497 1.363 . S
C492 C493 1.363 1_545 S
C492 C497 1.379 . S
C492 N499 1.356 . S
C493 C492 1.363 1_565 S
C493 C496 1.363 . S
N494 C496 1.356 . S
N494 H506 0.984 . S
N494 H507 0.985 . S
N495 C497 1.356 . S
N495 H500 0.984 . S
N495 H501 0.985 . S
C496 C490 1.379 . S
C496 C493 1.363 . S
C496 N494 1.356 . S
C497 C491 1.363 . S
C497 C492 1.379 . S
C497 N495 1.356 . S
N498 C490 1.356 1_655 S
N498 H504 0.984 . S
N498 H505 0.984 . S
N499 C492 1.356 . S
N499 H502 0.984 . S
N499 H503 0.985 . S
H500 N495 0.984 . S
H501 N495 0.985 . S
H502 N499 0.984 . S
H503 N499 0.985 . S
H504 N498 0.984 . S
H505 N498 0.984 . S
H506 N494 0.984 . S
H507 N494 0.985 . S
C508 C509 1.363 . S
C508 C514 1.379 . S
C508 N516 1.356 . S
C509 C508 1.363 . S
C509 C515 1.363 . S
C510 C511 1.363 . S
C510 C515 1.379 . S
C510 N517 1.356 1_655 S
C511 C510 1.363 . S
C511 C514 1.363 . S
N512 C514 1.356 . S
N512 H524 0.984 . S
N512 H525 0.985 1_655 S
N513 C515 1.356 . S
N513 H518 0.984 . S
N513 H519 0.985 . S
C514 C508 1.379 . S
C514 C511 1.363 . S
C514 N512 1.356 . S
C515 C509 1.363 . S
C515 C510 1.379 . S
C515 N513 1.356 . S
N516 C508 1.356 . S
N516 H522 0.984 . S
N516 H523 0.984 . S
N517 C510 1.356 1_455 S
N517 H520 0.984 . S
N517 H521 0.985 . S
H518 N513 0.984 . S
H519 N513 0.985 . S
H520 N517 0.984 . S
H521 N517 0.985 . S
H522 N516 0.984 . S
H523 N516 0.984 . S
H524 N512 0.984 . S
H525 N512 0.985 1_455 S
C526 C527 1.363 . S
C526 C532 1.379 . S
C526 N534 1.356 . S
C527 C526 1.363 . S
C527 C533 1.363 1_545 S
C528 C529 1.363 . S
C528 C533 1.379 . S
C528 N535 1.356 . S
C529 C528 1.363 . S
C529 C532 1.363 1_565 S
N530 C532 1.356 . S
N530 H542 0.984 . S
N530 H543 0.985 . S
N531 C533 1.356 . S
N531 H536 0.984 . S
N531 H537 0.985 . S
C532 C526 1.379 . S
C532 C529 1.363 1_545 S
C532 N530 1.356 . S
C533 C527 1.363 1_565 S
C533 C528 1.379 . S
C533 N531 1.356 . S
N534 C526 1.356 . S
N534 H540 0.984 . S
N534 H541 0.984 . S
N535 C528 1.356 . S
N535 H538 0.984 . S
N535 H539 0.985 . S
H536 N531 0.984 . S
H537 N531 0.985 . S
H538 N535 0.984 . S
H539 N535 0.985 . S
H540 N534 0.984 . S
H541 N534 0.984 . S
H542 N530 0.984 . S
H543 N530 0.985 . S
C544 C545 1.363 . S
C544 C550 1.379 . S
C544 N552 1.356 . S
C545 C544 1.363 . S
C545 C551 1.363 . S
C546 C547 1.363 . S
C546 C551 1.379 . S
C546 N553 1.356 . S
C547 C546 1.363 . S
C547 C550 1.363 . S
N548 C550 1.356 . S
N548 H560 0.984 . S
N548 H561 0.985 . S
N549 C551 1.356 . S
N549 H554 0.984 . S
N549 H555 0.985 . S
C550 C544 1.379 . S
C550 C547 1.363 . S
C550 N548 1.356 . S
C551 C545 1.363 . S
C551 C546 1.379 . S
C551 N549 1.356 . S
N552 C544 1.356 . S
N552 H558 0.984 . S
N552 H559 0.984 . S
N553 C546 1.356 . S
N553 H556 0.984 . S
N553 H557 0.985 . S
H554 N549 0.984 . S
H555 N549 0.985 . S
H556 N553 0.984 . S
H557 N553 0.985 . S
H558 N552 0.984 . S
H559 N552 0.984 . S
H560 N548 0.984 . S
H561 N548 0.985 . S
C562 C563 1.363 1_565 S
C562 C568 1.379 . S
C562 N570 1.356 . S
C563 C562 1.363 1_545 S
C563 C569 1.363 . S
C564 C565 1.363 1_545 S
C564 C569 1.379 . S
C564 N571 1.356 1_655 S
C565 C564 1.363 1_565 S
C565 C568 1.363 . S
N566 C568 1.356 . S
N566 H578 0.984 . S
N566 H579 0.985 . S
N567 C569 1.356 . S
N567 H572 0.984 . S
N567 H573 0.985 . S
C568 C562 1.379 . S
C568 C565 1.363 . S
C568 N566 1.356 . S
C569 C563 1.363 . S
C569 C564 1.379 . S
C569 N567 1.356 . S
N570 C562 1.356 . S
N570 H576 0.984 . S
N570 H577 0.984 . S
N571 C564 1.356 1_455 S
N571 H574 0.984 . S
N571 H575 0.985 . S
H572 N567 0.984 . S
H573 N567 0.985 . S
H574 N571 0.984 . S
H575 N571 0.985 . S
H576 N570 0.984 . S
H577 N570 0.984 . S
H578 N566 0.984 . S
H579 N566 0.985 . S
C580 C581 1.363 . S
C580 C586 1.379 . S
C580 N588 1.356 . S
C581 C580 1.363 . S
C581 C587 1.363 . S
C582 C583 1.363 . S
C582 C587 1.379 . S
C582 N589 1.356 1_455 S
C583 C582 1.363 . S
C583 C586 1.363 . S
N584 C586 1.356 . S
N584 H596 0.984 . S
N584 H597 0.985 . S
N585 C587 1.356 . S
N585 H590 0.984 . S
N585 H591 0.985 . S
C586 C580 1.379 . S
C586 C583 1.363 . S
C586 N584 1.356 . S
C587 C581 1.363 . S
C587 C582 1.379 . S
C587 N585 1.356 . S
N588 C580 1.356 . S
N588 H594 0.984 . S
N588 H595 0.984 . S
N589 C582 1.356 1_655 S
N589 H592 0.984 . S
N589 H593 0.985 . S
H590 N585 0.984 . S
H591 N585 0.985 . S
H592 N589 0.984 . S
H593 N589 0.985 . S
H594 N588 0.984 . S
H595 N588 0.984 . S
H596 N584 0.984 . S
H597 N584 0.985 . S
C598 C599 1.363 . S
C598 C604 1.379 . S
C598 N606 1.356 . S
C599 C598 1.363 . S
C599 C605 1.363 1_565 S
C600 C601 1.363 . S
C600 C605 1.379 . S
C600 N607 1.356 . S
C601 C600 1.363 . S
C601 C604 1.363 1_545 S
N602 C604 1.356 . S
N602 H614 0.984 . S
N602 H615 0.985 . S
N603 C605 1.356 . S
N603 H608 0.984 . S
N603 H609 0.985 . S
C604 C598 1.379 . S
C604 C601 1.363 1_565 S
C604 N602 1.356 . S
C605 C599 1.363 1_545 S
C605 C600 1.379 . S
C605 N603 1.356 . S
N606 C598 1.356 . S
N606 H612 0.984 . S
N606 H613 0.984 . S
N607 C600 1.356 . S
N607 H610 0.984 . S
N607 H611 0.985 . S
H608 N603 0.984 . S
H609 N603 0.985 . S
H610 N607 0.984 . S
H611 N607 0.985 . S
H612 N606 0.984 . S
H613 N606 0.984 . S
H614 N602 0.984 . S
H615 N602 0.985 . S
C616 C617 1.363 . S
C616 C622 1.379 . S
C616 N624 1.356 . S
C617 C616 1.363 . S
C617 C623 1.363 1_455 S
C618 C619 1.363 . S
C618 C623 1.379 . S
C618 N625 1.356 . S
C619 C618 1.363 . S
C619 C622 1.363 1_655 S
N620 C622 1.356 . S
N620 H632 0.984 . S
N620 H633 0.975 1_455 S
N621 C623 1.356 . S
N621 H626 0.975 1_655 S
N621 H627 0.985 . S
C622 C616 1.379 . S
C622 C619 1.363 1_455 S
C622 N620 1.356 . S
C623 C617 1.363 1_655 S
C623 C618 1.379 . S
C623 N621 1.356 . S
N624 C616 1.356 . S
N624 H630 0.984 . S
N624 H631 0.984 . S
N625 C618 1.356 . S
N625 H628 0.984 . S
N625 H629 0.985 . S
H626 N621 0.975 1_455 S
H627 N621 0.985 . S
H628 N625 0.984 . S
H629 N625 0.985 . S
H630 N624 0.984 . S
H631 N624 0.984 . S
H632 N620 0.984 . S
H633 N620 0.975 1_655 S
C634 C635 1.363 . S
C634 C640 1.379 1_565 S
C634 N642 1.356 . S
C635 C634 1.363 . S
C635 C641 1.363 . S
C636 C637 1.363 . S
C636 C641 1.379 1_545 S
C636 N643 1.356 . S
C637 C636 1.363 . S
C637 C640 1.363 . S
N638 C640 1.356 . S
N638 H650 0.984 . S
N638 H651 0.985 . S
N639 C641 1.356 . S
N639 H644 0.984 . S
N639 H645 0.985 . S
C640 C634 1.379 1_545 S
C640 C637 1.363 . S
C640 N638 1.356 . S
C641 C635 1.363 . S
C641 C636 1.379 1_565 S
C641 N639 1.356 . S
N642 C634 1.356 . S
N642 H648 0.984 . S
N642 H649 0.984 . S
N643 C636 1.356 . S
N643 H646 0.984 . S
N643 H647 0.985 . S
H644 N639 0.984 . S
H645 N639 0.985 . S
H646 N643 0.984 . S
H647 N643 0.985 . S
H648 N642 0.984 . S
H649 N642 0.984 . S
H650 N638 0.984 . S
H651 N638 0.985 . S
C652 C653 1.363 . S
C652 C658 1.379 . S
C652 N660 1.356 . S
C653 C652 1.363 . S
C653 C659 1.363 1_554 S
C654 C655 1.363 . S
C654 C659 1.379 . S
C654 N661 1.356 . S
C655 C654 1.363 . S
C655 C658 1.363 1_556 S
N656 C658 1.356 . S
N656 H668 0.984 . S
N656 H669 0.985 1_554 S
N657 C659 1.356 . S
N657 H662 0.984 1_556 S
N657 H663 0.985 . S
C658 C652 1.379 . S
C658 C655 1.363 1_554 S
C658 N656 1.356 . S
C659 C653 1.363 1_556 S
C659 C654 1.379 . S
C659 N657 1.356 . S
N660 C652 1.356 . S
N660 H666 0.984 . S
N660 H667 0.984 . S
N661 C654 1.356 . S
N661 H664 0.984 . S
N661 H665 0.985 . S
H662 N657 0.984 1_554 S
H663 N657 0.985 . S
H664 N661 0.984 . S
H665 N661 0.985 . S
H666 N660 0.984 . S
H667 N660 0.984 . S
H668 N656 0.984 . S
H669 N656 0.985 1_556 S
C670 C671 1.363 1_655 S
C670 C676 1.379 1_556 S
C670 N678 1.356 . S
C671 C670 1.363 1_455 S
C671 C677 1.363 1_565 S
C672 C673 1.363 1_455 S
C672 C677 1.379 1_554 S
C672 N679 1.356 . S
C673 C672 1.363 1_655 S
C673 C676 1.363 1_545 S
N674 C676 1.356 . S
N674 H686 0.984 . S
N674 H687 0.985 1_565 S
N675 C677 1.356 . S
N675 H680 0.984 1_545 S
N675 H681 0.985 . S
C676 C670 1.379 1_554 S
C676 C673 1.363 1_565 S
C676 N674 1.356 . S
C677 C671 1.363 1_545 S
C677 C672 1.379 1_556 S
C677 N675 1.356 . S
N678 C670 1.356 . S
N678 H684 0.984 . S
N678 H685 0.984 . S
N679 C672 1.356 . S
N679 H682 0.984 . S
N679 H683 0.985 . S
H680 N675 0.984 1_565 S
H681 N675 0.985 . S
H682 N679 0.984 . S
H683 N679 0.985 . S
H684 N678 0.984 . S
H685 N678 0.984 . S
H686 N674 0.984 . S
H687 N674 0.985 1_545 S
C688 C689 1.363 . S
C688 C694 1.379 . S
C688 N696 1.356 . S
C689 C688 1.363 . S
C689 C695 1.363 . S
C690 C691 1.363 . S
C690 C695 1.379 . S
C690 N697 1.356 . S
C691 C690 1.363 . S
C691 C694 1.363 . S
N692 C694 1.356 . S
N692 H704 0.984 . S
N692 H705 0.985 . S
N693 C695 1.356 . S
N693 H698 0.984 . S
N693 H699 0.985 . S
C694 C688 1.379 . S
C694 C691 1.363 . S
C694 N692 1.356 . S
C695 C689 1.363 . S
C695 C690 1.379 . S
C695 N693 1.356 . S
N696 C688 1.356 . S
N696 H702 0.984 . S
N696 H703 0.984 . S
N697 C690 1.356 . S
N697 H700 0.984 . S
N697 H701 0.985 . S
H698 N693 0.984 . S
H699 N693 0.985 . S
H700 N697 0.984 . S
H701 N697 0.985 . S
H702 N696 0.984 . S
H703 N696 0.984 . S
H704 N692 0.984 . S
H705 N692 0.985 . S
C706 C707 1.363 . S
C706 C712 1.379 . S
C706 N714 1.356 . S
C707 C706 1.363 . S
C707 C713 1.363 . S
C708 C709 1.363 . S
C708 C713 1.379 . S
C708 N715 1.356 . S
C709 C708 1.363 . S
C709 C712 1.363 . S
N710 C712 1.356 . S
N710 H722 0.984 . S
N710 H723 0.985 . S
N711 C713 1.356 . S
N711 H716 0.984 . S
N711 H717 0.985 . S
C712 C706 1.379 . S
C712 C709 1.363 . S
C712 N710 1.356 . S
C713 C707 1.363 . S
C713 C708 1.379 . S
C713 N711 1.356 . S
N714 C706 1.356 . S
N714 H720 0.984 . S
N714 H721 0.984 . S
N715 C708 1.356 . S
N715 H718 0.984 . S
N715 H719 0.985 . S
H716 N711 0.984 . S
H717 N711 0.985 . S
H718 N715 0.984 . S
H719 N715 0.985 . S
H720 N714 0.984 . S
H721 N714 0.984 . S
H722 N710 0.984 . S
H723 N710 0.985 . S
C724 C725 1.363 . S
C724 C730 1.379 . S
C724 N732 1.356 . S
C725 C724 1.363 . S
C725 C731 1.363 . S
C726 C727 1.363 . S
C726 C731 1.379 . S
C726 N733 1.356 . S
C727 C726 1.363 . S
C727 C730 1.363 . S
N728 C730 1.356 . S
N728 H740 0.984 . S
N728 H741 0.985 . S
N729 C731 1.356 . S
N729 H734 0.984 . S
N729 H735 0.985 . S
C730 C724 1.379 . S
C730 C727 1.363 . S
C730 N728 1.356 . S
C731 C725 1.363 . S
C731 C726 1.379 . S
C731 N729 1.356 . S
N732 C724 1.356 . S
N732 H738 0.984 . S
N732 H739 0.984 . S
N733 C726 1.356 . S
N733 H736 0.984 . S
N733 H737 0.985 . S
H734 N729 0.984 . S
H735 N729 0.985 . S
H736 N733 0.984 . S
H737 N733 0.985 . S
H738 N732 0.984 . S
H739 N732 0.984 . S
H740 N728 0.984 . S
H741 N728 0.985 . S
C742 C743 1.363 . S
C742 C748 1.379 . S
C742 N750 1.356 . S
C743 C742 1.363 . S
C743 C749 1.363 . S
C744 C745 1.363 . S
C744 C749 1.379 . S
C744 N751 1.356 . S
C745 C744 1.363 . S
C745 C748 1.363 . S
N746 C748 1.356 . S
N746 H758 0.984 . S
N746 H759 0.985 . S
N747 C749 1.356 . S
N747 H752 0.984 . S
N747 H753 0.985 . S
C748 C742 1.379 . S
C748 C745 1.363 . S
C748 N746 1.356 . S
C749 C743 1.363 . S
C749 C744 1.379 . S
C749 N747 1.356 . S
N750 C742 1.356 . S
N750 H756 0.984 . S
N750 H757 0.984 . S
N751 C744 1.356 . S
N751 H754 0.984 . S
N751 H755 0.985 . S
H752 N747 0.984 . S
H753 N747 0.985 . S
H754 N751 0.984 . S
H755 N751 0.985 . S
H756 N750 0.984 . S
H757 N750 0.984 . S
H758 N746 0.984 . S
H759 N746 0.985 . S
C473 C3 1.565 . S
C475 C170 1.556 . S
C491 C229 1.556 1_455 S
C493 C62 1.565 . S
C509 C121 1.565 . S
C511 C52 1.556 1_655 S
C527 C180 1.565 . S
C529 C111 1.556 . S
C545 C406 1.556 . S
C547 C239 1.565 . S
C563 C298 1.565 . S
C565 C465 1.556 1_655 S
C581 C357 1.565 . S
C583 C288 1.556 1_455 S
C599 C416 1.565 . S
C601 C347 1.556 . S
C617 C33 1.601 . S
C619 C269 1.601 . S
C635 C92 1.601 . S
C637 C328 1.601 . S
C653 C151 1.601 . S
C655 C387 1.601 . S
C671 C446 1.601 . S
C673 C210 1.601 . S
C689 C5 1.643 . S
C691 C64 1.643 . S
C707 C182 1.643 . S
C709 C123 1.643 . S
C725 C300 1.643 . S
C727 C241 1.643 . S
C743 C359 1.643 . S
C745 C418 1.643 . S
