# Generated by pormake.
# Topology zfx, (5)-cn, num edge types: 1
# Building blocks:
#     Node 0, Type 0, BuildingBlock: XOMCOT_clean_sbu_0, # of connection points: 5
#     Node 1, Type 0, BuildingBlock: XOMCOT_clean_sbu_0, # of connection points: 5
#     Node 2, Type 0, BuildingBlock: XOMCOT_clean_sbu_0, # of connection points: 5
#     Node 3, Type 0, BuildingBlock: XOMCOT_clean_sbu_0, # of connection points: 5
#     Node 4, Type 0, BuildingBlock: XOMCOT_clean_sbu_0, # of connection points: 5
#     Node 5, Type 0, BuildingBlock: XOMCOT_clean_sbu_0, # of connection points: 5
#     Node 6, Type 0, BuildingBlock: XOMCOT_clean_sbu_0, # of connection points: 5
#     Node 7, Type 0, BuildingBlock: XOMCOT_clean_sbu_0, # of connection points: 5
#     Node 8, Type 0, BuildingBlock: XOMCOT_clean_sbu_0, # of connection points: 5
#     Node 9, Type 0, BuildingBlock: XOMCOT_clean_sbu_0, # of connection points: 5
#     Node 10, Type 0, BuildingBlock: XOMCOT_clean_sbu_0, # of connection points: 5
#     Node 11, Type 0, BuildingBlock: XOMCOT_clean_sbu_0, # of connection points: 5
#     Node 12, Type 0, BuildingBlock: XOMCOT_clean_sbu_0, # of connection points: 5
#     Node 13, Type 0, BuildingBlock: XOMCOT_clean_sbu_0, # of connection points: 5
#     Node 14, Type 0, BuildingBlock: XOMCOT_clean_sbu_0, # of connection points: 5
#     Node 15, Type 0, BuildingBlock: XOMCOT_clean_sbu_0, # of connection points: 5
#     Edge 16, Type (0, 0), BuildingBlock: OJICUG_clean_linker_0, # of connection points: 2
#     Edge 17, Type (0, 0), BuildingBlock: OJICUG_clean_linker_0, # of connection points: 2
#     Edge 18, Type (0, 0), BuildingBlock: OJICUG_clean_linker_0, # of connection points: 2
#     Edge 19, Type (0, 0), BuildingBlock: OJICUG_clean_linker_0, # of connection points: 2
#     Edge 20, Type (0, 0), BuildingBlock: OJICUG_clean_linker_0, # of connection points: 2
#     Edge 21, Type (0, 0), BuildingBlock: OJICUG_clean_linker_0, # of connection points: 2
#     Edge 22, Type (0, 0), BuildingBlock: OJICUG_clean_linker_0, # of connection points: 2
#     Edge 23, Type (0, 0), BuildingBlock: OJICUG_clean_linker_0, # of connection points: 2
#     Edge 24, Type (0, 0), BuildingBlock: OJICUG_clean_linker_0, # of connection points: 2
#     Edge 25, Type (0, 0), BuildingBlock: OJICUG_clean_linker_0, # of connection points: 2
#     Edge 26, Type (0, 0), BuildingBlock: OJICUG_clean_linker_0, # of connection points: 2
#     Edge 27, Type (0, 0), BuildingBlock: OJICUG_clean_linker_0, # of connection points: 2
#     Edge 28, Type (0, 0), BuildingBlock: OJICUG_clean_linker_0, # of connection points: 2
#     Edge 29, Type (0, 0), BuildingBlock: OJICUG_clean_linker_0, # of connection points: 2
#     Edge 30, Type (0, 0), BuildingBlock: OJICUG_clean_linker_0, # of connection points: 2
#     Edge 31, Type (0, 0), BuildingBlock: OJICUG_clean_linker_0, # of connection points: 2
#     Edge 32, Type (0, 0), BuildingBlock: OJICUG_clean_linker_0, # of connection points: 2
#     Edge 33, Type (0, 0), BuildingBlock: OJICUG_clean_linker_0, # of connection points: 2
#     Edge 34, Type (0, 0), BuildingBlock: OJICUG_clean_linker_0, # of connection points: 2
#     Edge 35, Type (0, 0), BuildingBlock: OJICUG_clean_linker_0, # of connection points: 2
#     Edge 36, Type (0, 0), BuildingBlock: OJICUG_clean_linker_0, # of connection points: 2
#     Edge 37, Type (0, 0), BuildingBlock: OJICUG_clean_linker_0, # of connection points: 2
#     Edge 38, Type (0, 0), BuildingBlock: OJICUG_clean_linker_0, # of connection points: 2
#     Edge 39, Type (0, 0), BuildingBlock: OJICUG_clean_linker_0, # of connection points: 2
#     Edge 40, Type (0, 0), BuildingBlock: OJICUG_clean_linker_0, # of connection points: 2
#     Edge 41, Type (0, 0), BuildingBlock: OJICUG_clean_linker_0, # of connection points: 2
#     Edge 42, Type (0, 0), BuildingBlock: OJICUG_clean_linker_0, # of connection points: 2
#     Edge 43, Type (0, 0), BuildingBlock: OJICUG_clean_linker_0, # of connection points: 2
#     Edge 44, Type (0, 0), BuildingBlock: OJICUG_clean_linker_0, # of connection points: 2
#     Edge 45, Type (0, 0), BuildingBlock: OJICUG_clean_linker_0, # of connection points: 2
#     Edge 46, Type (0, 0), BuildingBlock: OJICUG_clean_linker_0, # of connection points: 2
#     Edge 47, Type (0, 0), BuildingBlock: OJICUG_clean_linker_0, # of connection points: 2
#     Edge 48, Type (0, 0), BuildingBlock: OJICUG_clean_linker_0, # of connection points: 2
#     Edge 49, Type (0, 0), BuildingBlock: OJICUG_clean_linker_0, # of connection points: 2
#     Edge 50, Type (0, 0), BuildingBlock: OJICUG_clean_linker_0, # of connection points: 2
#     Edge 51, Type (0, 0), BuildingBlock: OJICUG_clean_linker_0, # of connection points: 2
#     Edge 52, Type (0, 0), BuildingBlock: OJICUG_clean_linker_0, # of connection points: 2
#     Edge 53, Type (0, 0), BuildingBlock: OJICUG_clean_linker_0, # of connection points: 2
#     Edge 54, Type (0, 0), BuildingBlock: OJICUG_clean_linker_0, # of connection points: 2
#     Edge 55, Type (0, 0), BuildingBlock: OJICUG_clean_linker_0, # of connection points: 2
# Relax obj value: 0.396
# Max RMSD: 0.229
# Mean RMSD: 0.229
data_MOF--net-zfx--node1-XOMCOT_clean_sbu_0--edge1-OJICUG_clean_linker_0
_symmetry_space_group_name_H-M    P1
_symmetry_Int_Tables_number       1
_symmetry_cell_setting            triclinic
loop_
_symmetry_equiv_pos_as_xyz
'x, y, z'
_cell_length_a     47.362332
_cell_length_b     47.56084
_cell_length_c     17.504484
_cell_angle_alpha  90.041398
_cell_angle_beta   89.971247
_cell_angle_gamma 89.670042
loop_
_atom_site_label
_atom_site_type_symbol
_atom_site_fract_x
_atom_site_fract_y
_atom_site_fract_z
_atom_type_partial_charge
Co0 Co 0.53927 0.1829 0.43979 0.0
C1 C 0.5981 0.17421 0.49422 0.0
C2 C 0.58822 0.21771 0.47835 0.0
C3 C 0.61624 0.21527 0.49796 0.0
N4 N 0.57662 0.19191 0.47744 0.0
N5 N 0.62248 0.18776 0.50768 0.0
H6 H 0.5966 0.15168 0.49387 0.0
H7 H 0.57727 0.23708 0.46496 0.0
C8 C 0.57852 0.17908 0.30258 0.0
O9 O 0.59341 0.16034 0.34021 0.0
N10 N 0.50262 0.17502 0.39823 0.0
C11 C 0.48543 0.15283 0.40872 0.0
C12 C 0.46424 0.15405 0.35437 0.0
C13 C 0.49145 0.18964 0.34 0.0
N14 N 0.46817 0.17735 0.31187 0.0
C15 C 0.54832 0.13227 0.52238 0.0
C16 C 0.54825 0.09384 0.40439 0.0
C17 C 0.54951 0.0839 0.48023 0.0
C18 C 0.54972 0.10367 0.53898 0.0
C19 C 0.54648 0.12314 0.38987 0.0
N20 N 0.54688 0.1421 0.44886 0.0
H21 H 0.54897 0.14667 0.56991 0.0
H22 H 0.54385 0.13044 0.33182 0.0
H23 H 0.48887 0.13617 0.44973 0.0
H24 H 0.50145 0.20786 0.31494 0.0
O25 O 0.52311 0.18746 0.54147 0.0
O26 O 0.52651 0.2221 0.45947 0.0
O27 O 0.55491 0.18774 0.33055 0.0
C28 C 0.51877 0.21375 0.52727 0.0
H29 H 0.63046 0.23262 0.50786 0.0
H30 H 0.44793 0.13858 0.34493 0.0
H31 H 0.5476 0.07914 0.35719 0.0
H32 H 0.5508 0.09703 0.59813 0.0
Co33 Co 0.11201 0.27014 0.68794 0.0
C34 C 0.12382 0.32645 0.75394 0.0
C35 C 0.08183 0.32255 0.71099 0.0
C36 C 0.08672 0.35042 0.72664 0.0
N37 N 0.10512 0.30742 0.72818 0.0
N38 N 0.1134 0.35293 0.75269 0.0
H39 H 0.14503 0.32152 0.77066 0.0
H40 H 0.06311 0.31419 0.68417 0.0
C41 C 0.12038 0.3104 0.55458 0.0
O42 O 0.13852 0.32407 0.59712 0.0
N43 N 0.11738 0.23381 0.64144 0.0
C44 C 0.13884 0.21518 0.64704 0.0
C45 C 0.13807 0.19762 0.58375 0.0
C46 C 0.1037 0.22703 0.5769 0.0
N47 N 0.11622 0.20566 0.5392 0.0
C48 C 0.16336 0.27238 0.7729 0.0
C49 C 0.20216 0.27568 0.65599 0.0
C50 C 0.21203 0.27434 0.73192 0.0
C51 C 0.19207 0.27256 0.79009 0.0
C52 C 0.17273 0.27495 0.64075 0.0
N53 N 0.15351 0.27419 0.69933 0.0
H54 H 0.14898 0.27184 0.82052 0.0
H55 H 0.16559 0.27439 0.58217 0.0
H56 H 0.15529 0.21582 0.68982 0.0
H57 H 0.08617 0.23923 0.55477 0.0
O58 O 0.10574 0.25321 0.78775 0.0
O59 O 0.07158 0.26068 0.70598 0.0
O60 O 0.10941 0.28758 0.58007 0.0
C61 C 0.07913 0.25163 0.77341 0.0
H62 H 0.07168 0.36738 0.71911 0.0
H63 H 0.15374 0.18193 0.56855 0.0
H64 H 0.217 0.27643 0.60898 0.0
H65 H 0.19863 0.27146 0.84934 0.0
Co66 Co 0.03865 0.85381 0.95117 0.0
C67 C 0.98469 0.86647 1.02583 0.0
C68 C 0.98269 0.82988 0.95498 0.0
C69 C 0.95558 0.83792 0.97323 0.0
N70 N 1.00088 0.84804 0.98733 0.0
N71 N 0.95688 0.86133 1.01657 0.0
H72 H 0.99316 0.88363 0.05906 0.0
H73 H 0.98866 0.81309 0.9164 0.0
C74 C 0.02418 0.86384 0.78103 0.0
O75 O 0.04036 0.88614 0.77711 0.0
N76 N 0.07609 0.85859 0.90866 0.0
C77 C 0.09484 0.87986 0.91386 0.0
C78 C 0.11497 0.87654 0.85765 0.0
C79 C 0.08561 0.84243 0.85091 0.0
N80 N 0.10896 0.85305 0.81821 0.0
C81 C 0.04774 0.90695 1.02153 0.0
C82 C 1.00894 0.93957 0.9447 0.0
C83 C 0.02392 0.95182 1.0061 0.0
C84 C 0.04344 0.93471 0.04406 0.0
C85 C 1.01391 0.91114 0.92361 0.0
N86 N 0.03353 0.89511 0.96154 0.0
H87 H 0.06285 0.89496 0.05405 0.0
H88 H 1.00097 0.90187 0.87968 0.0
H89 H 0.09363 0.89765 0.95164 0.0
H90 H 0.07399 0.82473 0.82835 0.0
O91 O 0.0538 0.8474 0.0529 0.0
O92 O 0.04759 0.81361 0.96923 0.0
O93 O 1.02199 0.85036 0.84386 0.0
C94 C 0.05592 0.82094 0.03738 0.0
H95 H 0.93646 0.82749 0.95521 0.0
H96 H 0.13177 0.89106 0.84414 0.0
H97 H 0.99328 0.95165 0.91366 0.0
H98 H 0.05499 0.94231 0.0932 0.0
Co99 Co 0.46135 0.76272 0.19168 0.0
C100 C 0.4426 0.71106 0.26883 0.0
C101 C 0.48545 0.70783 0.22987 0.0
C102 C 0.47729 0.68214 0.25786 0.0
N103 N 0.46345 0.72574 0.23559 0.0
N104 N 0.45012 0.68403 0.28143 0.0
H105 H 0.4225 0.72012 0.28451 0.0
H106 H 0.50567 0.71283 0.20472 0.0
C107 C 0.4611 0.7199 0.05889 0.0
O108 O 0.44887 0.70141 0.10328 0.0
N109 N 0.45946 0.7998 0.14622 0.0
C110 C 0.4633 0.82521 0.17893 0.0
C111 C 0.46194 0.84556 0.1229 0.0
C112 C 0.45522 0.80518 0.07158 0.0
N113 N 0.45688 0.83282 0.05542 0.0
C114 C 0.40827 0.78134 0.24597 0.0
C115 C 0.37264 0.74345 0.17714 0.0
C116 C 0.36154 0.76108 0.23479 0.0
C117 C 0.37995 0.78062 0.26749 0.0
C118 C 0.40155 0.74494 0.15682 0.0
N119 N 0.4195 0.7627 0.19455 0.0
H120 H 0.42142 0.79675 0.27337 0.0
H121 H 0.4091 0.73135 0.11238 0.0
H122 H 0.46749 0.82886 0.23879 0.0
H123 H 0.45231 0.7891 1.0288 0.0
O124 O 0.46683 0.77838 0.29365 0.0
O125 O 0.5018 0.76878 0.21537 0.0
O126 O 0.46563 0.74508 0.08347 0.0
C127 C 0.49376 0.7783 0.28192 0.0
H128 H 0.49082 0.66384 0.2628 0.0
H129 H 0.46524 0.86786 0.13097 0.0
H130 H 0.35916 0.7286 0.148 0.0
H131 H 0.3729 0.79489 0.31186 0.0
Co132 Co 0.55863 0.86978 0.62702 0.0
C133 C 0.60335 0.89159 0.53035 0.0
C134 C 0.62101 0.86797 0.62299 0.0
C135 C 0.64267 0.88091 0.58413 0.0
N136 N 0.59639 0.87489 0.58903 0.0
N137 N 0.63144 0.89612 0.52641 0.0
H138 H 0.58791 0.90035 0.4914 0.0
H139 H 0.62321 0.85484 0.67301 0.0
C140 C 0.58223 0.87547 0.79261 0.0
O141 O 0.57664 0.90249 0.79586 0.0
N142 N 0.5208 0.86458 0.66778 0.0
C143 C 0.49748 0.85436 0.63333 0.0
C144 C 0.47611 0.85256 0.68655 0.0
C145 C 0.51296 0.86933 0.74063 0.0
N146 N 0.48599 0.86192 0.75415 0.0
C147 C 0.53051 0.92254 0.60843 0.0
C148 C 0.5766 0.95698 0.62862 0.0
C149 C 0.5523 0.96842 0.59428 0.0
C150 C 0.52875 0.95091 0.58727 0.0
C151 C 0.57731 0.92849 0.65081 0.0
N152 N 0.55476 0.9111 0.638 0.0
H153 H 0.5129 0.90926 0.59418 0.0
H154 H 0.59697 0.92007 0.67237 0.0
H155 H 0.49593 0.84807 0.57422 0.0
H156 H 0.52703 0.87688 0.78417 0.0
O157 O 0.54457 0.86767 0.52212 0.0
O158 O 0.5585 0.8309 0.58879 0.0
O159 O 0.57528 0.8612 0.73335 0.0
C160 C 0.54859 0.84063 0.52446 0.0
H161 H 0.66497 0.87862 0.59616 0.0
H162 H 0.45522 0.84423 0.6766 0.0
H163 H 0.59528 0.9697 0.63619 0.0
H164 H 0.50955 0.95853 0.56058 0.0
Co165 Co 0.42696 0.28043 0.87357 0.0
C166 C 0.40028 0.32347 0.77925 0.0
C167 C 0.43908 0.3386 0.82622 0.0
C168 C 0.42799 0.35881 0.77851 0.0
N169 N 0.42129 0.31672 0.82753 0.0
N170 N 0.40358 0.34917 0.748 0.0
H171 H 0.38429 0.30863 0.76228 0.0
H172 H 0.45927 0.33923 0.85503 0.0
C173 C 0.43146 0.32277 1.00884 0.0
O174 O 0.41659 0.34176 0.97213 0.0
N175 N 0.43249 0.24402 0.92093 0.0
C176 C 0.44516 0.22051 0.89421 0.0
C177 C 0.44742 0.20141 0.95329 0.0
C178 C 0.42668 0.2386 0.99473 0.0
N179 N 0.43606 0.21304 1.01665 0.0
C180 C 0.37464 0.25305 0.85233 0.0
C181 C 0.33901 0.29707 0.8894 0.0
C182 C 0.32791 0.27436 0.84763 0.0
C183 C 0.34603 0.25163 0.83253 0.0
C184 C 0.36785 0.29737 0.90993 0.0
N185 N 0.38576 0.27626 0.8871 0.0
H186 H 0.38841 0.23625 0.83343 0.0
H187 H 0.37592 0.31582 0.93736 0.0
H188 H 0.45339 0.21764 0.83718 0.0
H189 H 0.41669 0.2536 0.03268 0.0
O190 O 0.42899 0.26429 0.77083 0.0
O191 O 0.46595 0.27939 0.83466 0.0
O192 O 0.43518 0.2982 0.97942 0.0
C193 C 0.45605 0.26844 0.77184 0.0
H194 H 0.43887 0.37772 0.76128 0.0
H195 H 0.45837 0.18139 0.951 0.0
H196 H 0.32574 0.31492 0.90387 0.0
H197 H 0.33865 0.23354 0.80083 0.0
Co198 Co 1.00586 0.16838 0.12528 0.0
C199 C 0.9562 0.17059 1.02302 0.0
C200 C 0.94511 0.15726 0.13535 0.0
C201 C 0.92327 0.15032 0.08731 0.0
N202 N 0.96628 0.1692 0.09473 0.0
N203 N 0.93072 0.15822 1.01687 0.0
H204 H 0.9688 0.17641 0.97404 0.0
H205 H 0.94657 0.15022 0.19346 0.0
C206 C 0.98385 0.16682 0.29381 0.0
O207 O 0.98187 0.13932 0.29463 0.0
N208 N 0.04454 0.16769 0.16016 0.0
C209 C 0.0656 0.1497 0.14176 0.0
C210 C 0.08736 0.15315 0.19365 0.0
C211 C 0.0541 0.18243 0.2203 0.0
N212 N 0.07992 0.1738 0.24268 0.0
C213 C 0.99309 0.11425 0.06924 0.0
C214 C 1.01858 0.0807 0.17695 0.0
C215 C 1.00699 0.06789 0.11127 0.0
C216 C 0.99379 0.08532 0.05817 0.0
C217 C 1.01651 0.11026 0.18725 0.0
N218 N 1.00349 0.12686 0.13361 0.0
H219 H 0.98592 0.12665 1.02201 0.0
H220 H 0.02674 0.11975 0.236 0.0
H221 H 0.06438 0.13385 0.09754 0.0
H222 H 0.04156 0.19788 0.25078 0.0
O223 O 1.01901 0.16864 1.01907 0.0
O224 O 1.01184 0.20687 0.08704 0.0
O225 O 0.99278 0.17935 0.2337 0.0
C226 C 1.01997 0.19587 1.0223 0.0
H227 H 0.90507 0.13765 0.1013 0.0
H228 H 0.10655 0.14075 0.19701 0.0
H229 H 0.02967 0.06812 0.21897 0.0
H230 H 0.98573 0.0769 1.00498 0.0
Co231 Co 0.14624 0.75014 0.37633 0.0
C232 C 0.17333 0.7068 0.28386 0.0
C233 C 0.13444 0.6917 0.33035 0.0
C234 C 0.14571 0.67141 0.28304 0.0
N235 N 0.15213 0.71366 0.33147 0.0
N236 N 0.17014 0.68106 0.25259 0.0
H237 H 0.1893 0.72168 0.26702 0.0
H238 H 0.11418 0.69108 0.35885 0.0
C239 C 0.14184 0.70873 0.51315 0.0
O240 O 0.15648 0.68923 0.47754 0.0
N241 N 0.14064 0.78666 0.4228 0.0
C242 C 0.12775 0.81009 0.39632 0.0
C243 C 0.12528 0.8291 0.45568 0.0
C244 C 0.14645 0.79209 0.49654 0.0
N245 N 0.13675 0.81744 0.51874 0.0
C246 C 0.19814 0.77738 0.35248 0.0
C247 C 0.23445 0.73499 0.39759 0.0
C248 C 0.24541 0.75721 0.35347 0.0
C249 C 0.22673 0.77901 0.33362 0.0
C250 C 0.20538 0.73422 0.41577 0.0
N251 N 0.18729 0.7546 0.3896 0.0
H252 H 0.18417 0.79361 0.33124 0.0
H253 H 0.1974 0.71611 0.44511 0.0
H254 H 0.11951 0.81294 0.33935 0.0
H255 H 0.15658 0.7772 0.53447 0.0
O256 O 0.14401 0.76585 0.27336 0.0
O257 O 0.10721 0.75088 0.3383 0.0
O258 O 0.13826 0.733 0.48235 0.0
C259 C 0.11694 0.76179 0.27528 0.0
H260 H 0.1349 0.65244 0.26596 0.0
H261 H 0.11413 0.84902 0.45387 0.0
H262 H 0.24799 0.71787 0.41594 0.0
H263 H 0.23363 0.7966 0.29927 0.0
Co264 Co 0.94881 0.78968 0.37948 0.0
C265 C 0.925 0.83721 0.29335 0.0
C266 C 0.96529 0.84744 0.34094 0.0
C267 C 0.95504 0.8705 0.30239 0.0
N268 N 0.94599 0.82691 0.33692 0.0
N269 N 0.92958 0.8641 0.27186 0.0
H270 H 0.90772 0.82442 0.2735 0.0
H271 H 0.98551 0.84565 0.36933 0.0
C272 C 0.95582 0.83053 0.51682 0.0
O273 O 0.94092 0.85027 0.48324 0.0
N274 N 0.95195 0.75254 0.42467 0.0
C275 C 0.96432 0.72884 0.3982 0.0
C276 C 0.96514 0.70931 0.45654 0.0
C277 C 0.94496 0.74682 0.49763 0.0
N278 N 0.95323 0.72083 0.51939 0.0
C279 C 0.89555 0.76508 0.35543 0.0
C280 C 0.86125 0.80998 0.39335 0.0
C281 C 0.84955 0.78783 0.35033 0.0
C282 C 0.86705 0.7647 0.33467 0.0
C283 C 0.89007 0.80926 0.4147 0.0
N284 N 0.90735 0.78768 0.3915 0.0
H285 H 0.90876 0.74789 0.33621 0.0
H286 H 0.89868 0.82727 0.4432 0.0
H287 H 0.97338 0.72612 0.34206 0.0
H288 H 0.93497 0.76198 0.5351 0.0
O289 O 0.94988 0.77457 0.27562 0.0
O290 O 0.98774 0.78647 0.34056 0.0
O291 O 0.95793 0.80592 0.48646 0.0
C292 C 0.97714 0.7769 0.27687 0.0
H293 H 0.96675 0.88961 0.29237 0.0
H294 H 0.97553 0.689 0.45419 0.0
H295 H 0.84849 0.82813 0.40833 0.0
H296 H 0.85933 0.74703 0.30185 0.0
Co297 Co 0.62993 0.25745 0.87445 0.0
C298 C 0.65336 0.21518 0.7723 0.0
C299 C 0.6304 0.1954 0.86271 0.0
C300 C 0.64374 0.17486 0.82008 0.0
N301 N 0.63654 0.22063 0.83223 0.0
N302 N 0.65842 0.1874 0.76341 0.0
H303 H 0.66154 0.23147 0.73547 0.0
H304 H 0.61742 0.19201 0.91262 0.0
C305 C 0.63323 0.23249 0.03891 0.0
O306 O 0.66035 0.2375 0.04467 0.0
N307 N 0.62336 0.29417 0.9199 0.0
C308 C 0.60681 0.31568 0.89628 0.0
C309 C 0.60508 0.33535 0.95411 0.0
C310 C 0.63179 0.30143 0.99064 0.0
N311 N 0.62056 0.3261 1.01376 0.0
C312 C 0.68247 0.28576 0.86303 0.0
C313 C 0.71727 0.23941 0.87951 0.0
C314 C 0.72862 0.26384 0.84677 0.0
C315 C 0.71096 0.28753 0.84188 0.0
C316 C 0.68866 0.23866 0.90158 0.0
N317 N 0.67109 0.26131 0.89014 0.0
H318 H 0.66897 0.30351 0.85025 0.0
H319 H 0.68027 0.21889 0.9213 0.0
H320 H 0.5954 0.3166 0.84298 0.0
H321 H 0.64504 0.28834 1.02599 0.0
O322 O 0.62928 0.27331 0.77138 0.0
O323 O 0.59161 0.25773 0.83119 0.0
O324 O 0.61983 0.23947 0.97804 0.0
C325 C 0.60231 0.2686 0.76925 0.0
H326 H 0.64188 0.15242 0.82862 0.0
H327 H 0.59165 0.35385 0.95441 0.0
H328 H 0.73013 0.22064 0.88564 0.0
H329 H 0.7185 0.30686 0.81664 0.0
Co330 Co 0.63421 0.78331 0.194 0.0
C331 C 0.6456 0.84082 0.25262 0.0
C332 C 0.60148 0.83311 0.23928 0.0
C333 C 0.60507 0.86066 0.26075 0.0
N334 N 0.62694 0.82039 0.23578 0.0
N335 N 0.63297 0.86553 0.26897 0.0
H336 H 0.66817 0.83842 0.25038 0.0
H337 H 0.58156 0.82325 0.22629 0.0
C338 C 0.6373 0.82377 0.05871 0.0
O339 O 0.65614 0.8386 0.09569 0.0
N340 N 0.6403 0.74715 0.14708 0.0
C341 C 0.6617 0.72856 0.15462 0.0
C342 C 0.66079 0.71006 0.09341 0.0
C343 C 0.62654 0.73949 0.08336 0.0
N344 N 0.63888 0.71743 0.04812 0.0
C345 C 0.68571 0.7892 0.27496 0.0
C346 C 0.72383 0.78996 0.15605 0.0
C347 C 0.73409 0.79022 0.23177 0.0
C348 C 0.71446 0.78997 0.29093 0.0
C349 C 0.69428 0.789 0.14208 0.0
N350 N 0.6755 0.78894 0.20163 0.0
H351 H 0.67152 0.78971 0.32306 0.0
H352 H 0.68667 0.78754 0.084 0.0
H353 H 0.678 0.72963 0.19776 0.0
H354 H 0.60873 0.75113 0.06073 0.0
O355 O 0.63008 0.76614 0.29436 0.0
O356 O 0.59457 0.77224 0.21587 0.0
O357 O 0.62889 0.80033 0.0868 0.0
C358 C 0.60336 0.76355 0.28252 0.0
H359 H 0.58825 0.87547 0.27316 0.0
H360 H 0.67625 0.69391 0.08037 0.0
H361 H 0.73843 0.78968 0.10845 0.0
H362 H 0.72135 0.7902 0.34997 0.0
Co363 Co 0.94493 0.26944 0.68931 0.0
C364 C 0.93144 0.21493 0.76013 0.0
C365 C 0.97188 0.21461 0.70609 0.0
C366 C 0.9649 0.18737 0.72455 0.0
N367 N 0.95065 0.23185 0.72782 0.0
N368 N 0.93909 0.18761 0.75735 0.0
H369 H 0.91203 0.22217 0.78476 0.0
H370 H 0.99033 0.22115 0.67445 0.0
C371 C 0.93757 0.22899 0.55669 0.0
O372 O 0.9194 0.2154 0.59936 0.0
N373 N 0.94025 0.30639 0.6469 0.0
C374 C 0.91923 0.32535 0.65655 0.0
C375 C 0.92187 0.3459 0.60121 0.0
C376 C 0.95557 0.31584 0.58789 0.0
N377 N 0.94484 0.33977 0.55871 0.0
C378 C 0.8931 0.27063 0.77316 0.0
C379 C 0.85477 0.2631 0.65676 0.0
C380 C 0.8446 0.26656 0.73195 0.0
C381 C 0.86437 0.27053 0.78979 0.0
C382 C 0.88424 0.26388 0.64195 0.0
N383 N 0.90326 0.2665 0.70054 0.0
H384 H 0.90713 0.27292 0.82096 0.0
H385 H 0.89149 0.26286 0.58353 0.0
H386 H 0.90227 0.3236 0.69757 0.0
H387 H 0.97296 0.30415 0.56285 0.0
O388 O 0.95216 0.28533 0.78985 0.0
O389 O 0.98563 0.27737 0.70599 0.0
O390 O 0.9472 0.25274 0.58026 0.0
C391 C 0.9787 0.28631 0.77398 0.0
H392 H 0.97787 0.16896 0.7143 0.0
H393 H 0.90747 0.36324 0.59095 0.0
H394 H 0.84013 0.26065 0.60979 0.0
H395 H 0.85768 0.27321 0.84858 0.0
Co396 Co 0.05196 0.68604 0.94203 0.0
C397 C 0.11034 0.67684 1.00131 0.0
C398 C 0.10416 0.7173 0.951 0.0
C399 C 0.13252 0.71364 0.96475 0.0
N400 N 0.09015 0.69421 0.97406 0.0
N401 N 0.13644 0.68794 0.99567 0.0
H402 H 0.10646 0.65628 1.02382 0.0
H403 H 0.0946 0.73506 0.92219 0.0
C404 C 0.08929 0.67697 0.80399 0.0
O405 O 0.1038 0.65919 0.84596 0.0
N406 N 1.01441 0.67958 0.90406 0.0
C407 C 0.99695 0.65749 0.91273 0.0
C408 C 0.97601 0.6593 0.8577 0.0
C409 C 1.00355 0.69473 0.84629 0.0
N410 N 0.98031 0.68286 0.8166 0.0
C411 C 0.05848 0.63577 1.02867 0.0
C412 C 0.05716 0.59619 0.91396 0.0
C413 C 0.05892 0.58676 0.99047 0.0
C414 C 0.05928 0.60737 0.04747 0.0
C415 C 0.05623 0.62537 0.89726 0.0
N416 N 0.05771 0.64497 0.95456 0.0
H417 H 0.05924 0.65049 0.0754 0.0
H418 H 0.05352 0.63205 0.83871 0.0
H419 H 1.00019 0.64031 0.95224 0.0
H420 H 1.01403 0.71279 0.82177 0.0
O421 O 0.03749 0.6926 0.04441 0.0
O422 O 0.04155 0.72617 0.95956 0.0
O423 O 0.06655 0.688 0.83124 0.0
C424 C 0.03441 0.7189 1.02883 0.0
H425 H 0.14884 0.72885 0.95307 0.0
H426 H 0.95979 0.6439 0.84638 0.0
H427 H 0.05631 0.58126 0.86735 0.0
H428 H 0.05949 0.60179 0.1074 0.0
Co429 Co 0.52141 0.35349 0.43496 0.0
C430 C 0.46281 0.35945 0.49456 0.0
C431 C 0.47106 0.31938 0.44373 0.0
C432 C 0.44259 0.32155 0.45789 0.0
N433 N 0.48381 0.34317 0.46685 0.0
N434 N 0.43733 0.34698 0.48925 0.0
H435 H 0.46574 0.38017 0.51733 0.0
H436 H 0.48153 0.30214 0.41479 0.0
C437 C 0.48349 0.35986 0.29655 0.0
O438 O 0.46788 0.37687 0.33812 0.0
N439 N 0.55853 0.36226 0.39772 0.0
C440 C 0.57481 0.38512 0.40845 0.0
C441 C 0.59618 0.3847 0.35445 0.0
C442 C 0.57051 0.34802 0.33985 0.0
N443 N 0.59334 0.3612 0.3121 0.0
C444 C 0.51293 0.40344 0.52233 0.0
C445 C 0.51225 0.44299 0.40781 0.0
C446 C 0.51184 0.45266 0.48452 0.0
C447 C 0.51228 0.43189 0.54133 0.0
C448 C 0.51361 0.41382 0.39097 0.0
N449 N 0.5134 0.39421 0.4482 0.0
H450 H 0.51294 0.3887 0.56901 0.0
H451 H 0.51583 0.40721 0.3322 0.0
H452 H 0.57049 0.40182 0.44878 0.0
H453 H 0.56113 0.32961 0.31396 0.0
O454 O 0.53626 0.34739 0.5373 0.0
O455 O 0.5341 0.31402 0.45106 0.0
O456 O 0.50701 0.35063 0.32386 0.0
C457 C 0.54097 0.32141 0.5204 0.0
H458 H 0.42713 0.30545 0.44641 0.0
H459 H 0.61165 0.40097 0.34459 0.0
H460 H 0.51204 0.45763 0.36064 0.0
H461 H 0.51311 0.43715 0.60132 0.0
Co462 Co 0.05075 0.37079 0.12232 0.0
C463 C 0.09683 0.39403 0.03233 0.0
C464 C 0.10879 0.35426 0.07997 0.0
C465 C 0.13041 0.36381 0.03454 0.0
N466 N 0.08802 0.37358 0.07942 0.0
N467 N 0.12277 0.38882 1.00335 0.0
H468 H 0.08319 0.41103 1.01421 0.0
H469 H 0.10774 0.33414 0.1086 0.0
C470 C 0.09107 0.3631 0.2614 0.0
O471 O 0.11172 0.37601 0.22626 0.0
N472 N 1.01346 0.3682 0.16678 0.0
C473 C 0.98971 0.35595 0.14068 0.0
C474 C 0.97017 0.3554 0.19926 0.0
C475 C 1.00776 0.37545 0.23948 0.0
N476 N 0.98182 0.36735 0.26157 0.0
C477 C 0.0273 0.42501 0.09986 0.0
C478 C 0.07326 0.45656 0.14284 0.0
C479 C 0.0521 0.4697 0.09838 0.0
C480 C 0.0282 0.45359 0.08091 0.0
C481 C 0.07121 0.42787 0.16223 0.0
N482 N 0.04924 0.41193 0.13638 0.0
H483 H 1.00965 0.41282 0.07951 0.0
H484 H 0.0887 0.41823 0.19116 0.0
H485 H 0.98704 0.34663 0.08491 0.0
H486 H 0.02299 0.38523 0.27695 0.0
O487 O 0.03557 0.37032 1.01851 0.0
O488 O 0.04746 0.33223 0.08244 0.0
O489 O 0.06667 0.36121 0.22949 0.0
C490 C 0.0378 0.34311 1.01913 0.0
H491 H 0.14891 0.35159 1.01922 0.0
H492 H 0.94991 0.34498 0.19782 0.0
H493 H 0.09222 0.46769 0.1588 0.0
H494 H 1.01053 0.46258 0.05011 0.0
Co495 Co 0.53449 0.67072 0.62217 0.0
C496 C 0.48158 0.6524 0.5486 0.0
C497 C 0.47852 0.69439 0.59254 0.0
C498 C 0.4527 0.68681 0.56376 0.0
N499 N 0.49648 0.67263 0.58373 0.0
N500 N 0.45452 0.66031 0.5356 0.0
H501 H 0.49072 0.63279 0.52953 0.0
H502 H 0.48377 0.71423 0.61907 0.0
C503 C 0.49485 0.67351 0.76216 0.0
O504 O 0.47481 0.66075 0.72394 0.0
N505 N 0.57234 0.66984 0.66448 0.0
C506 C 0.59394 0.65143 0.65563 0.0
C507 C 0.61384 0.65639 0.71169 0.0
C508 C 0.57986 0.68603 0.72424 0.0
N509 N 0.60477 0.6781 0.75483 0.0
C510 C 0.54718 0.61648 0.56107 0.0
C511 C 0.51144 0.58376 0.6464 0.0
C512 C 0.52466 0.57128 0.58198 0.0
C513 C 0.54382 0.5882 0.54222 0.0
C514 C 0.51641 0.61229 0.66565 0.0
N515 N 0.53315 0.62889 0.6208 0.0
H516 H 0.56109 0.62844 0.52519 0.0
H517 H 0.50596 0.62083 0.71492 0.0
H518 H 0.59512 0.6347 0.61432 0.0
H519 H 0.56626 0.70209 0.74843 0.0
O520 O 0.54864 0.67538 0.51814 0.0
O521 O 0.54016 0.71079 0.59508 0.0
O522 O 0.51957 0.67618 0.73243 0.0
C523 C 0.54852 0.70229 0.52784 0.0
H524 H 0.43456 0.70064 0.55947 0.0
H525 H 0.63298 0.64438 0.72145 0.0
H526 H 0.49671 0.57208 0.68103 0.0
H527 H 0.55628 0.5801 0.49534 0.0
C528 C 0.57286 0.03592 0.48793 0.0
C529 C 0.5493 0.05339 0.50116 0.0
H530 H 0.59254 0.99565 0.50775 0.0
C531 C 0.52681 0.04266 0.54467 0.0
H532 H 0.59072 0.04376 0.45589 0.0
C533 C 0.52779 1.01526 0.57436 0.0
C534 C 0.55156 0.99786 0.5628 0.0
H535 H 0.50858 0.05577 0.55694 0.0
H536 H 0.51013 1.00791 0.60803 0.0
C537 C 0.57405 1.00854 0.51875 0.0
C538 C 0.28692 0.29834 0.77933 0.0
C539 C 0.29825 0.27452 0.81663 0.0
H540 H 0.25119 0.31672 0.72094 0.0
C541 C 0.28142 0.25024 0.82079 0.0
H542 H 0.29935 0.31728 0.77405 0.0
C543 C 0.25398 0.24997 0.79035 0.0
C544 C 0.24266 0.27373 0.7533 0.0
H545 H 0.28927 0.23153 0.84911 0.0
H546 H 0.24132 0.23123 0.79693 0.0
C547 C 0.25953 0.2979 0.74769 0.0
C548 C 0.03742 0.02452 0.0945 0.0
C549 C 1.01067 0.03731 0.0918 0.0
H550 H 0.06292 0.98877 0.06644 0.0
C551 C 0.98817 0.02178 0.06024 0.0
H552 H 0.05537 0.03602 0.11634 0.0
C553 C 0.99235 0.99437 0.03182 0.0
C554 C 1.01925 0.98164 0.03344 0.0
H555 H 0.96725 0.031 0.05686 0.0
H556 H 0.97439 0.98311 1.00928 0.0
C557 C 0.0417 0.9973 0.06527 0.0
C558 C 0.31702 0.78429 0.28506 0.0
C559 C 0.33137 0.75963 0.26217 0.0
H560 H 0.2801 0.80285 0.33421 0.0
C561 C 0.31716 0.73384 0.27059 0.0
H562 H 0.32679 0.80468 0.27874 0.0
C563 C 0.28965 0.73283 0.30157 0.0
C564 C 0.2755 0.75759 0.32499 0.0
H565 H 0.32746 0.71433 0.25451 0.0
H566 H 0.27932 0.71265 0.30598 0.0
C567 C 0.28983 0.78327 0.31639 0.0
C568 C 0.80311 0.76443 0.3182 0.0
C569 C 0.81994 0.78878 0.31867 0.0
H570 H 0.76326 0.74583 0.28942 0.0
C571 C 0.80873 0.81335 0.28477 0.0
H572 H 0.81073 0.74516 0.34411 0.0
C573 C 0.78148 0.81351 0.25203 0.0
C574 C 0.76474 0.78916 0.25253 0.0
H575 H 0.8211 0.83241 0.28303 0.0
H576 H 0.77316 0.83289 0.22836 0.0
C577 C 0.77592 0.76469 0.2862 0.0
C578 C 0.7965 0.24346 0.73917 0.0
C579 C 0.8139 0.2668 0.75295 0.0
H580 H 0.75623 0.22395 0.75879 0.0
C581 C 0.80283 0.28918 0.7966 0.0
H582 H 0.8045 0.22571 0.7068 0.0
C583 C 0.77537 0.28819 0.82652 0.0
C584 C 0.75812 0.26459 0.81477 0.0
H585 H 0.81573 0.30737 0.80888 0.0
H586 H 0.76787 0.30574 0.86055 0.0
C587 C 0.76901 0.24229 0.77011 0.0
C588 C 0.07344 0.54723 0.08008 0.0
C589 C 0.05923 0.5561 1.01325 0.0
H590 H 0.08165 0.5144 0.16053 0.0
C591 C 0.04389 0.53576 0.97255 0.0
H592 H 0.08622 0.56179 0.11245 0.0
C593 C 0.042 0.5079 0.99926 0.0
C594 C 0.05508 0.4994 0.06826 0.0
H595 H 0.03261 0.54145 0.92102 0.0
H596 H 0.03015 0.49308 0.96531 0.0
C597 C 0.07117 0.51959 0.10744 0.0
C598 C 0.52285 0.5043 0.45675 0.0
C599 C 0.51251 0.48362 0.50682 0.0
H600 H 0.53299 0.54721 0.43769 0.0
C601 C 0.50409 0.49282 0.5805 0.0
H602 H 0.52955 0.49889 0.39954 0.0
C603 C 0.50781 0.52079 0.60469 0.0
C604 C 0.51916 0.54126 0.55553 0.0
H605 H 0.4947 0.47848 0.6209 0.0
H606 H 0.50215 0.52596 0.66287 0.0
C607 C 0.52559 0.53248 0.48003 0.0
C608 C 0.44923 0.16565 0.18453 0.0
C609 C 0.45447 0.18549 0.24218 0.0
H610 H 0.43915 0.15901 0.06633 0.0
C611 C 0.45033 0.21411 0.22667 0.0
H612 H 0.4526 0.14346 0.19516 0.0
C613 C 0.44278 0.22299 0.1537 0.0
C614 C 0.43938 0.2034 0.09419 0.0
H615 H 0.45432 0.22972 0.2704 0.0
H616 H 0.44139 0.24536 0.14317 0.0
C617 C 0.44189 0.17456 0.11085 0.0
C618 C 0.09139 0.2102 0.33662 0.0
C619 C 0.09349 0.18217 0.31253 0.0
H620 H 0.09762 0.23975 0.42636 0.0
C621 C 0.1058 0.16219 0.36177 0.0
H622 H 0.08237 0.22603 0.29933 0.0
C623 C 0.11424 0.16995 0.43574 0.0
C624 C 0.11044 0.19775 0.46122 0.0
H625 H 0.10744 0.14037 0.34462 0.0
H626 H 0.12251 0.15405 0.47403 0.0
C627 C 0.09986 0.21793 0.40975 0.0
C628 C 0.13252 0.85547 0.61444 0.0
C629 C 0.13332 0.82671 0.59642 0.0
H630 H 0.12456 0.88653 0.70085 0.0
C631 C 0.12869 0.80691 0.65471 0.0
H632 H 0.1361 0.8711 0.57061 0.0
C633 C 0.1221 0.81566 0.72851 0.0
C634 C 0.12026 0.84436 0.74591 0.0
H635 H 0.12873 0.78459 0.64264 0.0
H636 H 0.11747 0.80003 0.77164 0.0
C637 C 0.12624 0.86425 0.68887 0.0
C638 C 0.44627 0.83071 0.91753 0.0
C639 C 0.45874 0.84461 0.9798 0.0
H640 H 0.44518 0.82519 0.79657 0.0
C641 C 0.47617 0.86781 0.96547 0.0
H642 H 0.43209 0.81326 0.92666 0.0
C643 C 0.48327 0.87502 0.89061 0.0
C644 C 0.47327 0.85908 0.82859 0.0
H645 H 0.48597 0.87915 1.01192 0.0
H646 H 0.49785 0.89214 0.88161 0.0
C647 C 0.45353 0.83778 0.84271 0.0
C648 C 0.59429 0.83238 0.87336 0.0
C649 C 0.59659 0.8615 0.85923 0.0
H650 H 0.60466 0.79766 0.9476 0.0
C651 C 0.61287 0.87754 0.9102 0.0
H652 H 0.58187 0.81931 0.83561 0.0
C653 C 0.62646 0.86504 0.97297 0.0
C654 C 0.62385 0.83608 0.98826 0.0
H655 H 0.61533 0.89993 0.90135 0.0
H656 H 0.63864 0.87838 1.01061 0.0
C657 C 0.60741 0.81992 0.93759 0.0
C658 C 0.99823 0.87466 0.65841 0.0
C659 C 1.00699 0.8549 0.71326 0.0
H660 H 0.97495 0.88265 0.55566 0.0
C661 C 0.99866 0.82667 0.7032 0.0
H662 H 1.00406 0.89655 0.66417 0.0
C663 C 0.98237 0.81847 0.63947 0.0
C664 C 0.97313 0.83842 0.58549 0.0
H665 H 1.00507 0.81081 0.74415 0.0
H666 H 0.97677 0.79658 0.63291 0.0
C667 C 0.98129 0.86664 0.59626 0.0
C668 C 0.95503 0.17041 0.41458 0.0
C669 C 0.97246 0.18352 0.36035 0.0
H670 H 0.93034 0.17419 0.51619 0.0
C671 C 0.9781 0.21245 0.3703 0.0
H672 H 0.94995 0.14832 0.40926 0.0
C673 C 0.96686 0.22758 0.43324 0.0
C674 C 0.94922 0.21429 0.48704 0.0
H675 H 0.99144 0.22336 0.32988 0.0
H676 H 0.97195 0.24962 0.43966 0.0
C677 C 0.94352 0.18548 0.47616 0.0
C678 C 0.57563 0.20848 0.18001 0.0
C679 C 0.59134 0.19218 0.2324 0.0
H680 H 0.57619 0.23356 0.07721 0.0
C681 C 0.62058 0.18917 0.21915 0.0
H682 H 0.55314 0.21142 0.18821 0.0
C683 C 0.63379 0.20223 0.15692 0.0
C684 C 0.61827 0.21843 0.1043 0.0
H685 H 0.63362 0.17708 0.25806 0.0
H686 H 0.65636 0.19947 0.14991 0.0
C687 C 0.58887 0.22115 0.11625 0.0
C688 C 0.9642 0.67195 0.68582 0.0
C689 C 0.96751 0.69127 0.7458 0.0
H690 H 0.9569 0.66627 0.56582 0.0
C691 C 0.96263 0.71988 0.7319 0.0
H692 H 0.96817 0.64978 0.6952 0.0
C693 C 0.95622 0.72933 0.65856 0.0
C694 C 0.95496 0.71039 0.59681 0.0
H695 H 0.96517 0.73511 0.77741 0.0
H696 H 0.95401 0.75171 0.64997 0.0
C697 C 0.95811 0.68145 0.61176 0.0
C698 C 0.62014 0.72599 0.91859 0.0
C699 C 0.63248 0.70758 0.97206 0.0
H700 H 0.60219 0.73113 0.80746 0.0
C701 C 0.63796 0.67965 0.95002 0.0
H702 H 0.61653 0.74788 0.93227 0.0
C703 C 0.62997 0.67009 0.8773 0.0
C704 C 0.61637 0.68834 0.82558 0.0
H705 H 0.64752 0.66501 0.98979 0.0
H706 H 0.63335 0.64821 0.8628 0.0
C707 C 0.61211 0.71648 0.8466 0.0
C708 C 0.61417 0.36483 0.10699 0.0
C709 C 0.61918 0.33622 0.0913 0.0
H710 H 0.60256 0.3955 0.19178 0.0
C711 C 0.61985 0.31703 0.15244 0.0
H712 H 0.61373 0.38008 0.06112 0.0
C713 C 0.61354 0.32585 0.2264 0.0
C714 C 0.60673 0.35403 0.2412 0.0
H715 H 0.62326 0.2948 0.1427 0.0
H716 H 0.61231 0.31037 0.27163 0.0
C717 C 0.60814 0.37371 0.18161 0.0
C718 C 0.93391 0.35825 0.43041 0.0
C719 C 0.95364 0.35215 0.48803 0.0
H720 H 0.9276 0.36788 0.31175 0.0
C721 C 0.98251 0.3542 0.47196 0.0
H722 H 0.91151 0.35644 0.44155 0.0
C723 C 0.99167 0.36068 0.39856 0.0
C724 C 0.97209 0.36503 0.33925 0.0
H725 H 0.99801 0.34947 0.51565 0.0
H726 H 1.01416 0.36053 0.38758 0.0
C727 C 0.94309 0.36446 0.35627 0.0
C728 C 0.07998 0.32855 0.36956 0.0
C729 C 0.09721 0.34963 0.3375 0.0
H730 H 0.07386 0.29907 0.46193 0.0
C731 C 0.12197 0.35692 0.37717 0.0
H732 H 0.06085 0.32217 0.34065 0.0
C733 C 0.1293 0.34387 0.44619 0.0
C734 C 0.1124 0.32268 0.4783 0.0
H735 H 0.1359 0.37293 0.35492 0.0
H736 H 0.1485 0.35048 0.47443 0.0
C737 C 0.08759 0.31509 0.43882 0.0
C738 C 0.46706 0.31536 0.11767 0.0
C739 C 0.44513 0.33113 0.08325 0.0
H740 H 0.49693 0.31211 0.21066 0.0
C741 C 0.43706 0.35652 0.11875 0.0
H742 H 0.47407 0.29579 0.09205 0.0
C743 C 0.45006 0.36578 0.18611 0.0
C744 C 0.47198 0.35026 0.22075 0.0
H745 H 0.42041 0.36945 0.0946 0.0
H746 H 0.44274 0.38531 0.21131 0.0
C747 C 0.48043 0.32489 0.18531 0.0
C748 C 0.49356 0.72045 0.94187 0.0
C749 C 0.46961 0.71017 0.98054 0.0
H750 H 0.52102 0.71655 0.8437 0.0
C751 C 0.45483 0.68774 0.94701 0.0
H752 H 0.50571 0.73744 0.96639 0.0
C753 C 0.46348 0.6759 0.87755 0.0
C754 C 0.48756 0.68567 0.83899 0.0
H755 H 0.43637 0.6791 0.97481 0.0
H756 H 0.45118 0.65879 0.85418 0.0
C757 C 0.50258 0.70818 0.87212 0.0
C758 C 0.12227 0.66837 0.69382 0.0
C759 C 0.1011 0.68518 0.72755 0.0
H760 H 0.15147 0.66248 0.60188 0.0
C761 C 0.09347 0.71038 0.69023 0.0
H762 H 0.1289 0.64889 0.72053 0.0
C763 C 0.10692 0.71852 0.62158 0.0
C764 C 0.12813 0.70151 0.58811 0.0
H765 H 0.07752 0.72407 0.7148 0.0
H766 H 0.10055 0.738 0.59447 0.0
C767 C 0.1354 0.67628 0.6254 0.0
C768 C 0.49946 0.24336 0.72273 0.0
C769 C 0.47449 0.25843 0.70763 0.0
H770 H 0.53276 0.21731 0.67754 0.0
C771 C 0.46592 0.26134 0.6308 0.0
H772 H 0.50659 0.24055 0.78104 0.0
C773 C 0.48153 0.24879 0.5709 0.0
C774 C 0.5055 0.2322 0.58676 0.0
H775 H 0.44676 0.27282 0.61718 0.0
H776 H 0.47387 0.25065 0.51281 0.0
C777 C 0.51445 0.23002 0.66332 0.0
C778 C 0.02749 0.20411 0.88029 0.0
C779 C 0.0313 0.21284 0.95678 0.0
H780 H 0.03853 0.21016 0.76167 0.0
C781 C 0.04832 0.23644 0.97017 0.0
H782 H 1.01449 0.18602 0.86777 0.0
C783 C 0.06257 0.24976 0.90965 0.0
C784 C 0.05951 0.24057 0.83349 0.0
H785 H 0.05186 0.24372 1.028 0.0
H786 H 0.0767 0.26693 0.92276 0.0
C787 C 0.04108 0.21807 0.81928 0.0
C788 C 0.06038 0.80428 0.17261 0.0
C789 C 0.0681 0.80129 0.0953 0.0
H790 H 0.06892 0.79324 0.28947 0.0
C791 C 0.09033 0.78274 0.07706 0.0
H792 H 0.04345 0.81853 0.18859 0.0
C793 C 0.10561 0.76895 0.13538 0.0
C794 C 0.09832 0.77263 0.2129 0.0
H795 H 0.09708 0.78032 1.01828 0.0
H796 H 0.12363 0.75599 0.12002 0.0
C797 C 0.07495 0.78976 0.23049 0.0
C798 C 0.51239 0.78118 0.41617 0.0
C799 C 0.51303 0.79083 0.34015 0.0
H800 H 0.52402 0.78862 0.5333 0.0
C801 C 0.52786 0.81569 0.3244 0.0
H802 H 0.50076 0.76234 0.43038 0.0
C803 C 0.54036 0.83131 0.38386 0.0
C804 C 0.53904 0.82205 0.46029 0.0
H805 H 0.52817 0.82405 0.26687 0.0
H806 H 0.55036 0.85111 0.37034 0.0
C807 C 0.52568 0.79628 0.47523 0.0
C808 C 0.66926 0.89174 0.43321 0.0
C809 C 0.64566 0.90673 0.45993 0.0
H810 H 0.68437 0.86618 0.34264 0.0
C811 C 0.62955 0.92165 0.4058 0.0
H812 H 0.68403 0.88213 0.4726 0.0
C813 C 0.62885 0.91165 0.33092 0.0
C814 C 0.64547 0.88813 0.31182 0.0
H815 H 0.61296 0.93588 0.42428 0.0
H816 H 0.61197 0.91864 0.2937 0.0
C817 C 0.66918 0.88228 0.35794 0.0
C818 C 0.90118 0.86106 0.15566 0.0
C819 C 0.91675 0.87779 0.20677 0.0
H820 H 0.90396 0.84077 0.04734 0.0
C821 C 0.93055 0.90116 0.17533 0.0
H822 H 0.88651 0.84545 0.17623 0.0
C823 C 0.93999 0.89928 0.10005 0.0
C824 C 0.93438 0.87457 0.0586 0.0
H825 H 0.9396 0.91711 0.21185 0.0
H826 H 0.95568 0.9141 0.08045 0.0
C827 C 0.91105 0.85846 0.08097 0.0
C828 C 0.9414 0.14231 0.82361 0.0
C829 C 0.92529 0.16532 0.79829 0.0
H830 H 0.95385 0.11938 0.92248 0.0
C831 C 0.89984 0.17128 0.83722 0.0
H832 H 0.95977 0.1351 0.79236 0.0
C833 C 0.89749 0.16351 0.91364 0.0
C834 C 0.91948 0.14813 0.94662 0.0
H835 H 0.88485 0.18646 0.81506 0.0
H836 H 0.8819 0.17391 0.94924 0.0
C837 C 0.93792 0.13315 0.89846 0.0
C838 C 0.66926 0.19383 0.56597 0.0
C839 C 0.64638 0.17633 0.54834 0.0
H840 H 0.6949 0.2092 0.65677 0.0
C841 C 0.64284 0.15187 0.59271 0.0
H842 H 0.67459 0.21141 0.52958 0.0
C843 C 0.65404 0.15108 0.66619 0.0
C844 C 0.66826 0.17484 0.69338 0.0
H845 H 0.62746 0.13607 0.57798 0.0
H846 H 0.64628 0.13521 0.70501 0.0
C847 C 0.68104 0.19241 0.63887 0.0
C848 C 0.03183 0.73463 0.16536 0.0
C849 C 0.02314 0.73836 0.08897 0.0
H850 H 0.02491 0.74456 0.28384 0.0
C851 C 1.00091 0.75733 0.07436 0.0
H852 H 0.04883 0.72011 0.1787 0.0
C853 C 0.98658 0.77072 0.13528 0.0
C854 C 0.99477 0.7662 0.21188 0.0
H855 H 0.99345 0.76043 1.01648 0.0
H856 H 0.96858 0.78408 0.12261 0.0
C857 C 1.01814 0.74866 0.22579 0.0
C858 C 0.58994 0.75844 0.42086 0.0
C859 C 0.58495 0.75141 0.34369 0.0
H860 H 0.58166 0.74934 0.53931 0.0
C861 C 0.56529 0.73016 0.32801 0.0
H862 H 0.60496 0.77474 0.43497 0.0
C863 C 0.55259 0.71502 0.38809 0.0
C864 C 0.55846 0.72136 0.46532 0.0
H865 H 0.56108 0.72406 0.2695 0.0
H866 H 0.53869 0.69775 0.37409 0.0
C867 C 0.57655 0.74394 0.48082 0.0
C868 C 0.54226 0.30069 0.65216 0.0
C869 C 0.55414 0.30244 0.57852 0.0
H870 H 0.54759 0.2879 0.76919 0.0
C871 C 0.58105 0.29058 0.56672 0.0
H872 H 0.52172 0.30998 0.66338 0.0
C873 C 0.59629 0.27871 0.62811 0.0
C874 C 0.58473 0.27777 0.70238 0.0
H875 H 0.59104 0.29208 0.51121 0.0
H876 H 0.6175 0.27094 0.61789 0.0
C877 C 0.55712 0.28809 0.71293 0.0
C878 C 0.02864 0.33581 0.878 0.0
C879 C 0.02702 0.32583 0.9538 0.0
H880 H 1.01567 0.33048 0.76075 0.0
C881 C 1.01233 0.30071 0.96712 0.0
H882 H 0.03976 0.35512 0.8657 0.0
C883 C 0.99806 0.28702 0.90732 0.0
C884 C 0.99889 0.29746 0.83204 0.0
H885 H 1.01045 0.29253 1.02462 0.0
H886 H 0.98551 0.26866 0.92045 0.0
C887 C 1.01506 0.32157 0.81765 0.0
C888 C 0.10894 0.39994 0.81025 0.0
C889 C 0.12604 0.37707 0.78861 0.0
H890 H 0.09729 0.42665 0.90238 0.0
C891 C 0.15251 0.3743 0.82475 0.0
H892 H 0.08987 0.40523 0.77936 0.0
C893 C 0.15613 0.38604 0.89707 0.0
C894 C 0.13295 0.39958 0.93129 0.0
H895 H 0.16824 0.35951 0.80448 0.0
H896 H 0.17392 0.3791 0.93116 0.0
C897 C 0.11327 0.41225 0.88151 0.0
C898 C 0.40192 0.38282 0.6423 0.0
C899 C 0.39202 0.35788 0.67544 0.0
H900 H 0.42414 0.39955 0.54691 0.0
C901 C 0.3816 0.33713 0.62548 0.0
H902 H 0.40719 0.40075 0.67757 0.0
C903 C 0.39236 0.33578 0.55153 0.0
C904 C 0.41209 0.35599 0.52848 0.0
H905 H 0.3703 0.31903 0.64644 0.0
H906 H 0.38918 0.31668 0.51923 0.0
C907 C 0.412 0.38191 0.5675 0.0
C908 C 0.44819 0.62998 0.42449 0.0
C909 C 0.43608 0.64832 0.47865 0.0
H910 H 0.46331 0.62839 0.30963 0.0
C911 C 0.41331 0.66485 0.45306 0.0
H912 H 0.46256 0.6134 0.44172 0.0
C913 C 0.41349 0.67367 0.37711 0.0
C914 C 0.43546 0.66418 0.32908 0.0
H915 H 0.40018 0.67625 0.49331 0.0
H916 H 0.39997 0.69111 0.36142 0.0
C917 C 0.44875 0.63866 0.34846 0.0
C918 C 0.17069 0.64848 0.14421 0.0
C919 C 0.18172 0.6725 0.17974 0.0
H920 H 0.1473 0.63417 0.04787 0.0
C921 C 0.19311 0.69329 0.13153 0.0
H922 H 0.16477 0.6303 0.17763 0.0
C923 C 0.18198 0.69632 0.05833 0.0
C924 C 0.16129 0.67735 0.03373 0.0
H925 H 0.20549 0.71043 0.15399 0.0
H926 H 0.18587 0.71574 1.02811 0.0
C927 C 0.16033 0.65093 0.06996 0.0
loop_
_geom_bond_atom_site_label_1
_geom_bond_atom_site_label_2
_geom_bond_distance
_geom_bond_site_symmetry_2
_ccdc_geom_bond_type
Co0 N4 2.148 . S
Co0 N10 2.128 . S
Co0 N20 2.194 . S
Co0 O25 2.351 . S
Co0 O26 2.155 . S
Co0 O27 2.096 . S
C1 N4 1.301 . S
C1 N5 1.328 . S
C1 H6 0.930 . S
C2 C3 1.333 . S
C2 N4 1.317 . S
C2 H7 0.930 . S
C3 C2 1.333 . S
C3 N5 1.350 . S
C3 H29 0.931 . S
N4 Co0 2.148 . S
N4 C1 1.301 . S
N4 C2 1.317 . S
N5 C1 1.328 . S
N5 C3 1.350 . S
H6 C1 0.930 . S
H7 C2 0.930 . S
C8 O9 1.224 . S
C8 O27 1.247 . S
O9 C8 1.224 . S
N10 Co0 2.128 . S
N10 C11 1.355 . S
N10 C13 1.311 . S
C11 N10 1.355 . S
C11 C12 1.363 . S
C11 H23 0.929 . S
C12 C11 1.363 . S
C12 N14 1.375 . S
C12 H30 0.931 . S
C13 N10 1.311 . S
C13 N14 1.347 . S
C13 H24 0.929 . S
N14 C12 1.375 . S
N14 C13 1.347 . S
C15 C18 1.365 . S
C15 N20 1.328 . S
C15 H21 0.929 . S
C16 C17 1.362 . S
C16 C19 1.378 . S
C16 H31 0.929 . S
C17 C16 1.362 . S
C17 C18 1.366 . S
C18 C15 1.365 . S
C18 C17 1.366 . S
C18 H32 0.930 . S
C19 C16 1.378 . S
C19 N20 1.315 . S
C19 H22 0.930 . S
N20 Co0 2.194 . S
N20 C15 1.328 . S
N20 C19 1.315 . S
H21 C15 0.929 . S
H22 C19 0.930 . S
H23 C11 0.929 . S
H24 C13 0.929 . S
O25 Co0 2.351 . S
O25 C28 1.244 . S
O26 Co0 2.155 . S
O26 C28 1.240 . S
O27 Co0 2.096 . S
O27 C8 1.247 . S
C28 O25 1.244 . S
C28 O26 1.240 . S
H29 C3 0.931 . S
H30 C12 0.931 . S
H31 C16 0.929 . S
H32 C18 0.930 . S
Co33 N37 2.148 . S
Co33 N43 2.128 . S
Co33 N53 2.194 . S
Co33 O58 2.351 . S
Co33 O59 2.155 . S
Co33 O60 2.096 . S
C34 N37 1.301 . S
C34 N38 1.328 . S
C34 H39 0.930 . S
C35 C36 1.333 . S
C35 N37 1.317 . S
C35 H40 0.930 . S
C36 C35 1.333 . S
C36 N38 1.350 . S
C36 H62 0.931 . S
N37 Co33 2.148 . S
N37 C34 1.301 . S
N37 C35 1.317 . S
N38 C34 1.328 . S
N38 C36 1.350 . S
H39 C34 0.930 . S
H40 C35 0.930 . S
C41 O42 1.224 . S
C41 O60 1.247 . S
O42 C41 1.224 . S
N43 Co33 2.128 . S
N43 C44 1.355 . S
N43 C46 1.311 . S
C44 N43 1.355 . S
C44 C45 1.363 . S
C44 H56 0.929 . S
C45 C44 1.363 . S
C45 N47 1.375 . S
C45 H63 0.931 . S
C46 N43 1.311 . S
C46 N47 1.347 . S
C46 H57 0.929 . S
N47 C45 1.375 . S
N47 C46 1.347 . S
C48 C51 1.365 . S
C48 N53 1.328 . S
C48 H54 0.929 . S
C49 C50 1.362 . S
C49 C52 1.378 . S
C49 H64 0.929 . S
C50 C49 1.362 . S
C50 C51 1.366 . S
C51 C48 1.365 . S
C51 C50 1.366 . S
C51 H65 0.930 . S
C52 C49 1.378 . S
C52 N53 1.315 . S
C52 H55 0.930 . S
N53 Co33 2.194 . S
N53 C48 1.328 . S
N53 C52 1.315 . S
H54 C48 0.929 . S
H55 C52 0.930 . S
H56 C44 0.929 . S
H57 C46 0.929 . S
O58 Co33 2.351 . S
O58 C61 1.244 . S
O59 Co33 2.155 . S
O59 C61 1.240 . S
O60 Co33 2.096 . S
O60 C41 1.247 . S
C61 O58 1.244 . S
C61 O59 1.240 . S
H62 C36 0.931 . S
H63 C45 0.931 . S
H64 C49 0.929 . S
H65 C51 0.930 . S
Co66 N70 2.148 1_455 S
Co66 N76 2.128 . S
Co66 N86 2.194 . S
Co66 O91 2.351 . S
Co66 O92 2.155 . S
Co66 O93 2.096 1_455 S
C67 N70 1.301 1_554 S
C67 N71 1.328 . S
C67 H72 0.930 . S
C68 C69 1.333 1_556 S
C68 N70 1.317 . S
C68 H73 0.930 . S
C69 C68 1.333 1_554 S
C69 N71 1.350 . S
C69 H95 0.931 . S
N70 Co66 2.148 1_655 S
N70 C67 1.301 1_556 S
N70 C68 1.317 . S
N71 C67 1.328 . S
N71 C69 1.350 . S
H72 C67 0.930 . S
H73 C68 0.930 . S
C74 O75 1.224 . S
C74 O93 1.247 . S
O75 C74 1.224 . S
N76 Co66 2.128 . S
N76 C77 1.355 . S
N76 C79 1.311 . S
C77 N76 1.355 . S
C77 C78 1.363 . S
C77 H89 0.929 . S
C78 C77 1.363 . S
C78 N80 1.375 . S
C78 H96 0.931 . S
C79 N76 1.311 . S
C79 N80 1.347 . S
C79 H90 0.929 . S
N80 C78 1.375 . S
N80 C79 1.347 . S
C81 C84 1.365 . S
C81 N86 1.328 . S
C81 H87 0.929 . S
C82 C83 1.362 1_655 S
C82 C85 1.378 . S
C82 H97 0.929 . S
C83 C82 1.362 1_455 S
C83 C84 1.366 . S
C84 C81 1.365 . S
C84 C83 1.366 . S
C84 H98 0.930 . S
C85 C82 1.378 . S
C85 N86 1.315 1_655 S
C85 H88 0.930 . S
N86 Co66 2.194 . S
N86 C81 1.328 . S
N86 C85 1.315 1_455 S
H87 C81 0.929 . S
H88 C85 0.930 . S
H89 C77 0.929 . S
H90 C79 0.929 . S
O91 Co66 2.351 . S
O91 C94 1.244 . S
O92 Co66 2.155 . S
O92 C94 1.240 . S
O93 Co66 2.096 1_655 S
O93 C74 1.247 . S
C94 O91 1.244 . S
C94 O92 1.240 . S
H95 C69 0.931 . S
H96 C78 0.931 . S
H97 C82 0.929 . S
H98 C84 0.930 . S
Co99 N103 2.148 . S
Co99 N109 2.128 . S
Co99 N119 2.194 . S
Co99 O124 2.351 . S
Co99 O125 2.155 . S
Co99 O126 2.096 . S
C100 N103 1.301 . S
C100 N104 1.328 . S
C100 H105 0.930 . S
C101 C102 1.333 . S
C101 N103 1.317 . S
C101 H106 0.930 . S
C102 C101 1.333 . S
C102 N104 1.350 . S
C102 H128 0.931 . S
N103 Co99 2.148 . S
N103 C100 1.301 . S
N103 C101 1.317 . S
N104 C100 1.328 . S
N104 C102 1.350 . S
H105 C100 0.930 . S
H106 C101 0.930 . S
C107 O108 1.224 . S
C107 O126 1.247 . S
O108 C107 1.224 . S
N109 Co99 2.128 . S
N109 C110 1.355 . S
N109 C112 1.311 1_554 S
C110 N109 1.355 . S
C110 C111 1.363 . S
C110 H122 0.929 . S
C111 C110 1.363 . S
C111 N113 1.375 1_554 S
C111 H129 0.931 . S
C112 N109 1.311 1_556 S
C112 N113 1.347 . S
C112 H123 0.929 . S
N113 C111 1.375 1_556 S
N113 C112 1.347 . S
C114 C117 1.365 . S
C114 N119 1.328 . S
C114 H120 0.929 . S
C115 C116 1.362 . S
C115 C118 1.378 . S
C115 H130 0.929 . S
C116 C115 1.362 . S
C116 C117 1.366 . S
C117 C114 1.365 . S
C117 C116 1.366 . S
C117 H131 0.930 . S
C118 C115 1.378 . S
C118 N119 1.315 . S
C118 H121 0.930 . S
N119 Co99 2.194 . S
N119 C114 1.328 . S
N119 C118 1.315 . S
H120 C114 0.929 . S
H121 C118 0.930 . S
H122 C110 0.929 . S
H123 C112 0.929 . S
O124 Co99 2.351 . S
O124 C127 1.244 . S
O125 Co99 2.155 . S
O125 C127 1.240 . S
O126 Co99 2.096 . S
O126 C107 1.247 . S
C127 O124 1.244 . S
C127 O125 1.240 . S
H128 C102 0.931 . S
H129 C111 0.931 . S
H130 C115 0.929 . S
H131 C117 0.930 . S
Co132 N136 2.148 . S
Co132 N142 2.128 . S
Co132 N152 2.194 . S
Co132 O157 2.351 . S
Co132 O158 2.155 . S
Co132 O159 2.096 . S
C133 N136 1.301 . S
C133 N137 1.328 . S
C133 H138 0.930 . S
C134 C135 1.333 . S
C134 N136 1.317 . S
C134 H139 0.930 . S
C135 C134 1.333 . S
C135 N137 1.350 . S
C135 H161 0.931 . S
N136 Co132 2.148 . S
N136 C133 1.301 . S
N136 C134 1.317 . S
N137 C133 1.328 . S
N137 C135 1.350 . S
H138 C133 0.930 . S
H139 C134 0.930 . S
C140 O141 1.224 . S
C140 O159 1.247 . S
O141 C140 1.224 . S
N142 Co132 2.128 . S
N142 C143 1.355 . S
N142 C145 1.311 . S
C143 N142 1.355 . S
C143 C144 1.363 . S
C143 H155 0.929 . S
C144 C143 1.363 . S
C144 N146 1.375 . S
C144 H162 0.931 . S
C145 N142 1.311 . S
C145 N146 1.347 . S
C145 H156 0.929 . S
N146 C144 1.375 . S
N146 C145 1.347 . S
C147 C150 1.365 . S
C147 N152 1.328 . S
C147 H153 0.929 . S
C148 C149 1.362 . S
C148 C151 1.378 . S
C148 H163 0.929 . S
C149 C148 1.362 . S
C149 C150 1.366 . S
C150 C147 1.365 . S
C150 C149 1.366 . S
C150 H164 0.930 . S
C151 C148 1.378 . S
C151 N152 1.315 . S
C151 H154 0.930 . S
N152 Co132 2.194 . S
N152 C147 1.328 . S
N152 C151 1.315 . S
H153 C147 0.929 . S
H154 C151 0.930 . S
H155 C143 0.929 . S
H156 C145 0.929 . S
O157 Co132 2.351 . S
O157 C160 1.244 . S
O158 Co132 2.155 . S
O158 C160 1.240 . S
O159 Co132 2.096 . S
O159 C140 1.247 . S
C160 O157 1.244 . S
C160 O158 1.240 . S
H161 C135 0.931 . S
H162 C144 0.931 . S
H163 C148 0.929 . S
H164 C150 0.930 . S
Co165 N169 2.148 . S
Co165 N175 2.128 . S
Co165 N185 2.194 . S
Co165 O190 2.351 . S
Co165 O191 2.155 . S
Co165 O192 2.096 . S
C166 N169 1.301 . S
C166 N170 1.328 . S
C166 H171 0.930 . S
C167 C168 1.333 . S
C167 N169 1.317 . S
C167 H172 0.930 . S
C168 C167 1.333 . S
C168 N170 1.350 . S
C168 H194 0.931 . S
N169 Co165 2.148 . S
N169 C166 1.301 . S
N169 C167 1.317 . S
N170 C166 1.328 . S
N170 C168 1.350 . S
H171 C166 0.930 . S
H172 C167 0.930 . S
C173 O174 1.224 . S
C173 O192 1.247 . S
O174 C173 1.224 . S
N175 Co165 2.128 . S
N175 C176 1.355 . S
N175 C178 1.311 1_556 S
C176 N175 1.355 . S
C176 C177 1.363 . S
C176 H188 0.929 . S
C177 C176 1.363 . S
C177 N179 1.375 1_556 S
C177 H195 0.931 . S
C178 N175 1.311 1_554 S
C178 N179 1.347 . S
C178 H189 0.929 . S
N179 C177 1.375 1_554 S
N179 C178 1.347 . S
C180 C183 1.365 . S
C180 N185 1.328 . S
C180 H186 0.929 . S
C181 C182 1.362 . S
C181 C184 1.378 . S
C181 H196 0.929 . S
C182 C181 1.362 . S
C182 C183 1.366 . S
C183 C180 1.365 . S
C183 C182 1.366 . S
C183 H197 0.930 . S
C184 C181 1.378 . S
C184 N185 1.315 . S
C184 H187 0.930 . S
N185 Co165 2.194 . S
N185 C180 1.328 . S
N185 C184 1.315 . S
H186 C180 0.929 . S
H187 C184 0.930 . S
H188 C176 0.929 . S
H189 C178 0.929 . S
O190 Co165 2.351 . S
O190 C193 1.244 . S
O191 Co165 2.155 . S
O191 C193 1.240 . S
O192 Co165 2.096 . S
O192 C173 1.247 . S
C193 O190 1.244 . S
C193 O191 1.240 . S
H194 C168 0.931 . S
H195 C177 0.931 . S
H196 C181 0.929 . S
H197 C183 0.930 . S
Co198 N202 2.148 1_455 S
Co198 N208 2.128 . S
Co198 N218 2.194 . S
Co198 O223 2.351 . S
Co198 O224 2.155 . S
Co198 O225 2.096 1_455 S
C199 N202 1.301 1_556 S
C199 N203 1.328 . S
C199 H204 0.930 . S
C200 C201 1.333 1_554 S
C200 N202 1.317 . S
C200 H205 0.930 . S
C201 C200 1.333 1_556 S
C201 N203 1.350 . S
C201 H227 0.931 . S
N202 Co198 2.148 1_655 S
N202 C199 1.301 1_554 S
N202 C200 1.317 . S
N203 C199 1.328 . S
N203 C201 1.350 . S
H204 C199 0.930 . S
H205 C200 0.930 . S
C206 O207 1.224 . S
C206 O225 1.247 . S
O207 C206 1.224 . S
N208 Co198 2.128 . S
N208 C209 1.355 . S
N208 C211 1.311 . S
C209 N208 1.355 . S
C209 C210 1.363 . S
C209 H221 0.929 . S
C210 C209 1.363 . S
C210 N212 1.375 . S
C210 H228 0.931 . S
C211 N208 1.311 . S
C211 N212 1.347 . S
C211 H222 0.929 . S
N212 C210 1.375 . S
N212 C211 1.347 . S
C213 C216 1.365 . S
C213 N218 1.328 . S
C213 H219 0.929 . S
C214 C215 1.362 1_655 S
C214 C217 1.378 . S
C214 H229 0.929 . S
C215 C214 1.362 1_455 S
C215 C216 1.366 . S
C216 C213 1.365 . S
C216 C215 1.366 . S
C216 H230 0.930 . S
C217 C214 1.378 . S
C217 N218 1.315 1_655 S
C217 H220 0.930 . S
N218 Co198 2.194 . S
N218 C213 1.328 . S
N218 C217 1.315 1_455 S
H219 C213 0.929 . S
H220 C217 0.930 . S
H221 C209 0.929 . S
H222 C211 0.929 . S
O223 Co198 2.351 . S
O223 C226 1.244 . S
O224 Co198 2.155 . S
O224 C226 1.240 . S
O225 Co198 2.096 1_655 S
O225 C206 1.247 . S
C226 O223 1.244 . S
C226 O224 1.240 . S
H227 C201 0.931 . S
H228 C210 0.931 . S
H229 C214 0.929 . S
H230 C216 0.930 . S
Co231 N235 2.148 . S
Co231 N241 2.128 . S
Co231 N251 2.194 . S
Co231 O256 2.351 . S
Co231 O257 2.155 . S
Co231 O258 2.096 . S
C232 N235 1.301 . S
C232 N236 1.328 . S
C232 H237 0.930 . S
C233 C234 1.333 . S
C233 N235 1.317 . S
C233 H238 0.930 . S
C234 C233 1.333 . S
C234 N236 1.350 . S
C234 H260 0.931 . S
N235 Co231 2.148 . S
N235 C232 1.301 . S
N235 C233 1.317 . S
N236 C232 1.328 . S
N236 C234 1.350 . S
H237 C232 0.930 . S
H238 C233 0.930 . S
C239 O240 1.224 . S
C239 O258 1.247 . S
O240 C239 1.224 . S
N241 Co231 2.128 . S
N241 C242 1.355 . S
N241 C244 1.311 . S
C242 N241 1.355 . S
C242 C243 1.363 . S
C242 H254 0.929 . S
C243 C242 1.363 . S
C243 N245 1.375 . S
C243 H261 0.931 . S
C244 N241 1.311 . S
C244 N245 1.347 . S
C244 H255 0.929 . S
N245 C243 1.375 . S
N245 C244 1.347 . S
C246 C249 1.365 . S
C246 N251 1.328 . S
C246 H252 0.929 . S
C247 C248 1.362 . S
C247 C250 1.378 . S
C247 H262 0.929 . S
C248 C247 1.362 . S
C248 C249 1.366 . S
C249 C246 1.365 . S
C249 C248 1.366 . S
C249 H263 0.930 . S
C250 C247 1.378 . S
C250 N251 1.315 . S
C250 H253 0.930 . S
N251 Co231 2.194 . S
N251 C246 1.328 . S
N251 C250 1.315 . S
H252 C246 0.929 . S
H253 C250 0.930 . S
H254 C242 0.929 . S
H255 C244 0.929 . S
O256 Co231 2.351 . S
O256 C259 1.244 . S
O257 Co231 2.155 . S
O257 C259 1.240 . S
O258 Co231 2.096 . S
O258 C239 1.247 . S
C259 O256 1.244 . S
C259 O257 1.240 . S
H260 C234 0.931 . S
H261 C243 0.931 . S
H262 C247 0.929 . S
H263 C249 0.930 . S
Co264 N268 2.148 . S
Co264 N274 2.128 . S
Co264 N284 2.194 . S
Co264 O289 2.351 . S
Co264 O290 2.155 . S
Co264 O291 2.096 . S
C265 N268 1.301 . S
C265 N269 1.328 . S
C265 H270 0.930 . S
C266 C267 1.333 . S
C266 N268 1.317 . S
C266 H271 0.930 . S
C267 C266 1.333 . S
C267 N269 1.350 . S
C267 H293 0.931 . S
N268 Co264 2.148 . S
N268 C265 1.301 . S
N268 C266 1.317 . S
N269 C265 1.328 . S
N269 C267 1.350 . S
H270 C265 0.930 . S
H271 C266 0.930 . S
C272 O273 1.224 . S
C272 O291 1.247 . S
O273 C272 1.224 . S
N274 Co264 2.128 . S
N274 C275 1.355 . S
N274 C277 1.311 . S
C275 N274 1.355 . S
C275 C276 1.363 . S
C275 H287 0.929 . S
C276 C275 1.363 . S
C276 N278 1.375 . S
C276 H294 0.931 . S
C277 N274 1.311 . S
C277 N278 1.347 . S
C277 H288 0.929 . S
N278 C276 1.375 . S
N278 C277 1.347 . S
C279 C282 1.365 . S
C279 N284 1.328 . S
C279 H285 0.929 . S
C280 C281 1.362 . S
C280 C283 1.378 . S
C280 H295 0.929 . S
C281 C280 1.362 . S
C281 C282 1.366 . S
C282 C279 1.365 . S
C282 C281 1.366 . S
C282 H296 0.930 . S
C283 C280 1.378 . S
C283 N284 1.315 . S
C283 H286 0.930 . S
N284 Co264 2.194 . S
N284 C279 1.328 . S
N284 C283 1.315 . S
H285 C279 0.929 . S
H286 C283 0.930 . S
H287 C275 0.929 . S
H288 C277 0.929 . S
O289 Co264 2.351 . S
O289 C292 1.244 . S
O290 Co264 2.155 . S
O290 C292 1.240 . S
O291 Co264 2.096 . S
O291 C272 1.247 . S
C292 O289 1.244 . S
C292 O290 1.240 . S
H293 C267 0.931 . S
H294 C276 0.931 . S
H295 C280 0.929 . S
H296 C282 0.930 . S
Co297 N301 2.148 . S
Co297 N307 2.128 . S
Co297 N317 2.194 . S
Co297 O322 2.351 . S
Co297 O323 2.155 . S
Co297 O324 2.096 . S
C298 N301 1.301 . S
C298 N302 1.328 . S
C298 H303 0.930 . S
C299 C300 1.333 . S
C299 N301 1.317 . S
C299 H304 0.930 . S
C300 C299 1.333 . S
C300 N302 1.350 . S
C300 H326 0.931 . S
N301 Co297 2.148 . S
N301 C298 1.301 . S
N301 C299 1.317 . S
N302 C298 1.328 . S
N302 C300 1.350 . S
H303 C298 0.930 . S
H304 C299 0.930 . S
C305 O306 1.224 . S
C305 O324 1.247 . S
O306 C305 1.224 . S
N307 Co297 2.128 . S
N307 C308 1.355 . S
N307 C310 1.311 1_556 S
C308 N307 1.355 . S
C308 C309 1.363 . S
C308 H320 0.929 . S
C309 C308 1.363 . S
C309 N311 1.375 1_556 S
C309 H327 0.931 . S
C310 N307 1.311 1_554 S
C310 N311 1.347 . S
C310 H321 0.929 . S
N311 C309 1.375 1_554 S
N311 C310 1.347 . S
C312 C315 1.365 . S
C312 N317 1.328 . S
C312 H318 0.929 . S
C313 C314 1.362 . S
C313 C316 1.378 . S
C313 H328 0.929 . S
C314 C313 1.362 . S
C314 C315 1.366 . S
C315 C312 1.365 . S
C315 C314 1.366 . S
C315 H329 0.930 . S
C316 C313 1.378 . S
C316 N317 1.315 . S
C316 H319 0.930 . S
N317 Co297 2.194 . S
N317 C312 1.328 . S
N317 C316 1.315 . S
H318 C312 0.929 . S
H319 C316 0.930 . S
H320 C308 0.929 . S
H321 C310 0.929 . S
O322 Co297 2.351 . S
O322 C325 1.244 . S
O323 Co297 2.155 . S
O323 C325 1.240 . S
O324 Co297 2.096 . S
O324 C305 1.247 . S
C325 O322 1.244 . S
C325 O323 1.240 . S
H326 C300 0.931 . S
H327 C309 0.931 . S
H328 C313 0.929 . S
H329 C315 0.930 . S
Co330 N334 2.148 . S
Co330 N340 2.128 . S
Co330 N350 2.194 . S
Co330 O355 2.351 . S
Co330 O356 2.155 . S
Co330 O357 2.096 . S
C331 N334 1.301 . S
C331 N335 1.328 . S
C331 H336 0.930 . S
C332 C333 1.333 . S
C332 N334 1.317 . S
C332 H337 0.930 . S
C333 C332 1.333 . S
C333 N335 1.350 . S
C333 H359 0.931 . S
N334 Co330 2.148 . S
N334 C331 1.301 . S
N334 C332 1.317 . S
N335 C331 1.328 . S
N335 C333 1.350 . S
H336 C331 0.930 . S
H337 C332 0.930 . S
C338 O339 1.224 . S
C338 O357 1.247 . S
O339 C338 1.224 . S
N340 Co330 2.128 . S
N340 C341 1.355 . S
N340 C343 1.311 1_554 S
C341 N340 1.355 . S
C341 C342 1.363 . S
C341 H353 0.929 . S
C342 C341 1.363 . S
C342 N344 1.375 1_554 S
C342 H360 0.931 . S
C343 N340 1.311 1_556 S
C343 N344 1.347 . S
C343 H354 0.929 . S
N344 C342 1.375 1_556 S
N344 C343 1.347 . S
C345 C348 1.365 . S
C345 N350 1.328 . S
C345 H351 0.929 . S
C346 C347 1.362 . S
C346 C349 1.378 . S
C346 H361 0.929 . S
C347 C346 1.362 . S
C347 C348 1.366 . S
C348 C345 1.365 . S
C348 C347 1.366 . S
C348 H362 0.930 . S
C349 C346 1.378 . S
C349 N350 1.315 . S
C349 H352 0.930 . S
N350 Co330 2.194 . S
N350 C345 1.328 . S
N350 C349 1.315 . S
H351 C345 0.929 . S
H352 C349 0.930 . S
H353 C341 0.929 . S
H354 C343 0.929 . S
O355 Co330 2.351 . S
O355 C358 1.244 . S
O356 Co330 2.155 . S
O356 C358 1.240 . S
O357 Co330 2.096 . S
O357 C338 1.247 . S
C358 O355 1.244 . S
C358 O356 1.240 . S
H359 C333 0.931 . S
H360 C342 0.931 . S
H361 C346 0.929 . S
H362 C348 0.930 . S
Co363 N367 2.148 . S
Co363 N373 2.128 . S
Co363 N383 2.194 . S
Co363 O388 2.351 . S
Co363 O389 2.155 . S
Co363 O390 2.096 . S
C364 N367 1.301 . S
C364 N368 1.328 . S
C364 H369 0.930 . S
C365 C366 1.333 . S
C365 N367 1.317 . S
C365 H370 0.930 . S
C366 C365 1.333 . S
C366 N368 1.350 . S
C366 H392 0.931 . S
N367 Co363 2.148 . S
N367 C364 1.301 . S
N367 C365 1.317 . S
N368 C364 1.328 . S
N368 C366 1.350 . S
H369 C364 0.930 . S
H370 C365 0.930 . S
C371 O372 1.224 . S
C371 O390 1.247 . S
O372 C371 1.224 . S
N373 Co363 2.128 . S
N373 C374 1.355 . S
N373 C376 1.311 . S
C374 N373 1.355 . S
C374 C375 1.363 . S
C374 H386 0.929 . S
C375 C374 1.363 . S
C375 N377 1.375 . S
C375 H393 0.931 . S
C376 N373 1.311 . S
C376 N377 1.347 . S
C376 H387 0.929 . S
N377 C375 1.375 . S
N377 C376 1.347 . S
C378 C381 1.365 . S
C378 N383 1.328 . S
C378 H384 0.929 . S
C379 C380 1.362 . S
C379 C382 1.378 . S
C379 H394 0.929 . S
C380 C379 1.362 . S
C380 C381 1.366 . S
C381 C378 1.365 . S
C381 C380 1.366 . S
C381 H395 0.930 . S
C382 C379 1.378 . S
C382 N383 1.315 . S
C382 H385 0.930 . S
N383 Co363 2.194 . S
N383 C378 1.328 . S
N383 C382 1.315 . S
H384 C378 0.929 . S
H385 C382 0.930 . S
H386 C374 0.929 . S
H387 C376 0.929 . S
O388 Co363 2.351 . S
O388 C391 1.244 . S
O389 Co363 2.155 . S
O389 C391 1.240 . S
O390 Co363 2.096 . S
O390 C371 1.247 . S
C391 O388 1.244 . S
C391 O389 1.240 . S
H392 C366 0.931 . S
H393 C375 0.931 . S
H394 C379 0.929 . S
H395 C381 0.930 . S
Co396 N400 2.148 . S
Co396 N406 2.128 1_455 S
Co396 N416 2.194 . S
Co396 O421 2.351 1_455 S
Co396 O422 2.155 1_455 S
Co396 O423 2.096 . S
C397 N400 1.301 1_554 S
C397 N401 1.328 . S
C397 H402 0.930 . S
C398 C399 1.333 1_556 S
C398 N400 1.317 . S
C398 H403 0.930 . S
C399 C398 1.333 1_554 S
C399 N401 1.350 . S
C399 H425 0.931 . S
N400 Co396 2.148 . S
N400 C397 1.301 1_556 S
N400 C398 1.317 . S
N401 C397 1.328 . S
N401 C399 1.350 . S
H402 C397 0.930 . S
H403 C398 0.930 . S
C404 O405 1.224 . S
C404 O423 1.247 . S
O405 C404 1.224 . S
N406 Co396 2.128 1_655 S
N406 C407 1.355 . S
N406 C409 1.311 . S
C407 N406 1.355 . S
C407 C408 1.363 . S
C407 H419 0.929 . S
C408 C407 1.363 . S
C408 N410 1.375 . S
C408 H426 0.931 . S
C409 N406 1.311 . S
C409 N410 1.347 . S
C409 H420 0.929 . S
N410 C408 1.375 . S
N410 C409 1.347 . S
C411 C414 1.365 . S
C411 N416 1.328 . S
C411 H417 0.911 1_455 S
C412 C413 1.362 . S
C412 C415 1.378 . S
C412 H427 0.929 . S
C413 C412 1.362 . S
C413 C414 1.366 . S
C414 C411 1.365 . S
C414 C413 1.366 . S
C414 H428 0.930 1_455 S
C415 C412 1.378 . S
C415 N416 1.315 . S
C415 H418 0.930 . S
N416 Co396 2.194 . S
N416 C411 1.328 . S
N416 C415 1.315 . S
H417 C411 0.911 1_655 S
H418 C415 0.930 . S
H419 C407 0.929 . S
H420 C409 0.929 . S
O421 Co396 2.351 1_655 S
O421 C424 1.244 . S
O422 Co396 2.155 1_655 S
O422 C424 1.240 . S
O423 Co396 2.096 . S
O423 C404 1.247 . S
C424 O421 1.244 . S
C424 O422 1.240 . S
H425 C399 0.931 . S
H426 C408 0.931 . S
H427 C412 0.929 . S
H428 C414 0.930 1_655 S
Co429 N433 2.148 . S
Co429 N439 2.128 . S
Co429 N449 2.194 . S
Co429 O454 2.351 . S
Co429 O455 2.155 . S
Co429 O456 2.096 . S
C430 N433 1.301 . S
C430 N434 1.328 . S
C430 H435 0.930 . S
C431 C432 1.333 . S
C431 N433 1.317 . S
C431 H436 0.930 . S
C432 C431 1.333 . S
C432 N434 1.350 . S
C432 H458 0.931 . S
N433 Co429 2.148 . S
N433 C430 1.301 . S
N433 C431 1.317 . S
N434 C430 1.328 . S
N434 C432 1.350 . S
H435 C430 0.930 . S
H436 C431 0.930 . S
C437 O438 1.224 . S
C437 O456 1.247 . S
O438 C437 1.224 . S
N439 Co429 2.128 . S
N439 C440 1.355 . S
N439 C442 1.311 . S
C440 N439 1.355 . S
C440 C441 1.363 . S
C440 H452 0.929 . S
C441 C440 1.363 . S
C441 N443 1.375 . S
C441 H459 0.931 . S
C442 N439 1.311 . S
C442 N443 1.347 . S
C442 H453 0.929 . S
N443 C441 1.375 . S
N443 C442 1.347 . S
C444 C447 1.365 . S
C444 N449 1.328 . S
C444 H450 0.929 . S
C445 C446 1.362 . S
C445 C448 1.378 . S
C445 H460 0.929 . S
C446 C445 1.362 . S
C446 C447 1.366 . S
C447 C444 1.365 . S
C447 C446 1.366 . S
C447 H461 0.930 . S
C448 C445 1.378 . S
C448 N449 1.315 . S
C448 H451 0.930 . S
N449 Co429 2.194 . S
N449 C444 1.328 . S
N449 C448 1.315 . S
H450 C444 0.929 . S
H451 C448 0.930 . S
H452 C440 0.929 . S
H453 C442 0.929 . S
O454 Co429 2.351 . S
O454 C457 1.244 . S
O455 Co429 2.155 . S
O455 C457 1.240 . S
O456 Co429 2.096 . S
O456 C437 1.247 . S
C457 O454 1.244 . S
C457 O455 1.240 . S
H458 C432 0.931 . S
H459 C441 0.931 . S
H460 C445 0.929 . S
H461 C447 0.930 . S
Co462 N466 2.148 . S
Co462 N472 2.128 1_455 S
Co462 N482 2.194 . S
Co462 O487 2.351 1_455 S
Co462 O488 2.155 1_455 S
Co462 O489 2.096 . S
C463 N466 1.301 1_556 S
C463 N467 1.328 . S
C463 H468 0.930 . S
C464 C465 1.333 1_554 S
C464 N466 1.317 . S
C464 H469 0.930 . S
C465 C464 1.333 1_556 S
C465 N467 1.350 . S
C465 H491 0.931 . S
N466 Co462 2.148 . S
N466 C463 1.301 1_554 S
N466 C464 1.317 . S
N467 C463 1.328 . S
N467 C465 1.350 . S
H468 C463 0.930 . S
H469 C464 0.930 . S
C470 O471 1.224 . S
C470 O489 1.247 . S
O471 C470 1.224 . S
N472 Co462 2.128 1_655 S
N472 C473 1.355 . S
N472 C475 1.311 . S
C473 N472 1.355 . S
C473 C474 1.363 . S
C473 H485 0.929 . S
C474 C473 1.363 . S
C474 N476 1.375 . S
C474 H492 0.931 . S
C475 N472 1.311 . S
C475 N476 1.347 . S
C475 H486 0.929 . S
N476 C474 1.375 . S
N476 C475 1.347 . S
C477 C480 1.365 . S
C477 N482 1.328 . S
C477 H483 0.911 1_455 S
C478 C479 1.362 . S
C478 C481 1.378 . S
C478 H493 0.929 . S
C479 C478 1.362 . S
C479 C480 1.366 . S
C480 C477 1.365 . S
C480 C479 1.366 . S
C480 H494 0.930 1_455 S
C481 C478 1.378 . S
C481 N482 1.315 . S
C481 H484 0.930 . S
N482 Co462 2.194 . S
N482 C477 1.328 . S
N482 C481 1.315 . S
H483 C477 0.911 1_655 S
H484 C481 0.930 . S
H485 C473 0.929 . S
H486 C475 0.929 . S
O487 Co462 2.351 1_655 S
O487 C490 1.244 . S
O488 Co462 2.155 1_655 S
O488 C490 1.240 . S
O489 Co462 2.096 . S
O489 C470 1.247 . S
C490 O487 1.244 . S
C490 O488 1.240 . S
H491 C465 0.931 . S
H492 C474 0.931 . S
H493 C478 0.929 . S
H494 C480 0.930 1_655 S
Co495 N499 2.148 . S
Co495 N505 2.128 . S
Co495 N515 2.194 . S
Co495 O520 2.351 . S
Co495 O521 2.155 . S
Co495 O522 2.096 . S
C496 N499 1.301 . S
C496 N500 1.328 . S
C496 H501 0.930 . S
C497 C498 1.333 . S
C497 N499 1.317 . S
C497 H502 0.930 . S
C498 C497 1.333 . S
C498 N500 1.350 . S
C498 H524 0.931 . S
N499 Co495 2.148 . S
N499 C496 1.301 . S
N499 C497 1.317 . S
N500 C496 1.328 . S
N500 C498 1.350 . S
H501 C496 0.930 . S
H502 C497 0.930 . S
C503 O504 1.224 . S
C503 O522 1.247 . S
O504 C503 1.224 . S
N505 Co495 2.128 . S
N505 C506 1.355 . S
N505 C508 1.311 . S
C506 N505 1.355 . S
C506 C507 1.363 . S
C506 H518 0.929 . S
C507 C506 1.363 . S
C507 N509 1.375 . S
C507 H525 0.931 . S
C508 N505 1.311 . S
C508 N509 1.347 . S
C508 H519 0.929 . S
N509 C507 1.375 . S
N509 C508 1.347 . S
C510 C513 1.365 . S
C510 N515 1.328 . S
C510 H516 0.929 . S
C511 C512 1.362 . S
C511 C514 1.378 . S
C511 H526 0.929 . S
C512 C511 1.362 . S
C512 C513 1.366 . S
C513 C510 1.365 . S
C513 C512 1.366 . S
C513 H527 0.930 . S
C514 C511 1.378 . S
C514 N515 1.315 . S
C514 H517 0.930 . S
N515 Co495 2.194 . S
N515 C510 1.328 . S
N515 C514 1.315 . S
H516 C510 0.929 . S
H517 C514 0.930 . S
H518 C506 0.929 . S
H519 C508 0.929 . S
O520 Co495 2.351 . S
O520 C523 1.244 . S
O521 Co495 2.155 . S
O521 C523 1.240 . S
O522 Co495 2.096 . S
O522 C503 1.247 . S
C523 O520 1.244 . S
C523 O521 1.240 . S
H524 C498 0.931 . S
H525 C507 0.931 . S
H526 C511 0.929 . S
H527 C513 0.930 . S
C528 C529 1.387 . S
C528 H532 0.950 . S
C528 C537 1.390 1_545 S
C529 C528 1.387 . S
C529 C531 1.387 . S
H530 C537 0.950 . S
C531 C529 1.387 . S
C531 C533 1.390 1_545 S
C531 H535 0.950 . S
H532 C528 0.950 . S
C533 C531 1.390 1_565 S
C533 C534 1.387 . S
C533 H536 0.950 . S
C534 C533 1.387 . S
C534 C537 1.387 . S
H535 C531 0.950 . S
H536 C533 0.950 . S
C537 C528 1.390 1_565 S
C537 H530 0.950 . S
C537 C534 1.387 . S
C538 C539 1.387 . S
C538 H542 0.950 . S
C538 C547 1.390 . S
C539 C538 1.387 . S
C539 C541 1.387 . S
H540 C547 0.950 . S
C541 C539 1.387 . S
C541 C543 1.390 . S
C541 H545 0.950 . S
H542 C538 0.950 . S
C543 C541 1.390 . S
C543 C544 1.387 . S
C543 H546 0.950 . S
C544 C543 1.387 . S
C544 C547 1.387 . S
H545 C541 0.950 . S
H546 C543 0.950 . S
C547 C538 1.390 . S
C547 H540 0.950 . S
C547 C544 1.387 . S
C548 C549 1.387 . S
C548 H552 0.950 . S
C548 C557 1.390 1_544 S
C549 C548 1.387 . S
C549 C551 1.387 1_455 S
H550 C557 0.950 . S
C551 C549 1.387 1_655 S
C551 C553 1.390 1_544 S
C551 H555 0.950 . S
H552 C548 0.950 . S
C553 C551 1.390 1_566 S
C553 C554 1.387 1_655 S
C553 H556 0.950 . S
C554 C553 1.387 1_455 S
C554 C557 1.387 . S
H555 C551 0.950 . S
H556 C553 0.950 . S
C557 C548 1.390 1_566 S
C557 H550 0.950 . S
C557 C554 1.387 . S
C558 C559 1.387 . S
C558 H562 0.950 . S
C558 C567 1.390 . S
C559 C558 1.387 . S
C559 C561 1.387 . S
H560 C567 0.950 . S
C561 C559 1.387 . S
C561 C563 1.390 . S
C561 H565 0.950 . S
H562 C558 0.950 . S
C563 C561 1.390 . S
C563 C564 1.387 . S
C563 H566 0.950 . S
C564 C563 1.387 . S
C564 C567 1.387 . S
H565 C561 0.950 . S
H566 C563 0.950 . S
C567 C558 1.390 . S
C567 H560 0.950 . S
C567 C564 1.387 . S
C568 C569 1.387 . S
C568 H572 0.950 . S
C568 C577 1.390 . S
C569 C568 1.387 . S
C569 C571 1.387 . S
H570 C577 0.950 . S
C571 C569 1.387 . S
C571 C573 1.390 . S
C571 H575 0.950 . S
H572 C568 0.950 . S
C573 C571 1.390 . S
C573 C574 1.387 . S
C573 H576 0.950 . S
C574 C573 1.387 . S
C574 C577 1.387 . S
H575 C571 0.950 . S
H576 C573 0.950 . S
C577 C568 1.390 . S
C577 H570 0.950 . S
C577 C574 1.387 . S
C578 C579 1.387 . S
C578 H582 0.950 . S
C578 C587 1.390 . S
C579 C578 1.387 . S
C579 C581 1.387 . S
H580 C587 0.950 . S
C581 C579 1.387 . S
C581 C583 1.390 . S
C581 H585 0.950 . S
H582 C578 0.950 . S
C583 C581 1.390 . S
C583 C584 1.387 . S
C583 H586 0.950 . S
C584 C583 1.387 . S
C584 C587 1.387 . S
H585 C581 0.950 . S
H586 C583 0.950 . S
C587 C578 1.390 . S
C587 H580 0.950 . S
C587 C584 1.387 . S
C588 C589 1.387 . S
C588 H592 0.950 . S
C588 C597 1.390 1_556 S
C589 C588 1.387 . S
C589 C591 1.387 1_455 S
H590 C597 0.950 . S
C591 C589 1.387 1_655 S
C591 C593 1.390 1_556 S
C591 H595 0.950 . S
H592 C588 0.950 . S
C593 C591 1.390 1_554 S
C593 C594 1.387 1_655 S
C593 H596 0.950 . S
C594 C593 1.387 1_455 S
C594 C597 1.387 . S
H595 C591 0.950 . S
H596 C593 0.950 . S
C597 C588 1.390 1_554 S
C597 H590 0.950 . S
C597 C594 1.387 . S
C598 C599 1.387 . S
C598 H602 0.950 . S
C598 C607 1.390 . S
C599 C598 1.387 . S
C599 C601 1.387 . S
H600 C607 0.950 . S
C601 C599 1.387 . S
C601 C603 1.390 . S
C601 H605 0.950 . S
H602 C598 0.950 . S
C603 C601 1.390 . S
C603 C604 1.387 . S
C603 H606 0.950 . S
C604 C603 1.387 . S
C604 C607 1.387 . S
H605 C601 0.950 . S
H606 C603 0.950 . S
C607 C598 1.390 . S
C607 H600 0.950 . S
C607 C604 1.387 . S
C608 C609 1.387 . S
C608 H612 0.950 . S
C608 C617 1.390 . S
C609 C608 1.387 . S
C609 C611 1.387 . S
H610 C617 0.950 . S
C611 C609 1.387 . S
C611 C613 1.390 . S
C611 H615 0.950 . S
H612 C608 0.950 . S
C613 C611 1.390 . S
C613 C614 1.387 . S
C613 H616 0.950 . S
C614 C613 1.387 . S
C614 C617 1.387 . S
H615 C611 0.950 . S
H616 C613 0.950 . S
C617 C608 1.390 . S
C617 H610 0.950 . S
C617 C614 1.387 . S
C618 C619 1.387 . S
C618 H622 0.950 . S
C618 C627 1.390 . S
C619 C618 1.387 . S
C619 C621 1.387 . S
H620 C627 0.950 . S
C621 C619 1.387 . S
C621 C623 1.390 . S
C621 H625 0.950 . S
H622 C618 0.950 . S
C623 C621 1.390 . S
C623 C624 1.387 . S
C623 H626 0.950 . S
C624 C623 1.387 . S
C624 C627 1.387 . S
H625 C621 0.950 . S
H626 C623 0.950 . S
C627 C618 1.390 . S
C627 H620 0.950 . S
C627 C624 1.387 . S
C628 C629 1.387 . S
C628 H632 0.950 . S
C628 C637 1.390 . S
C629 C628 1.387 . S
C629 C631 1.387 . S
H630 C637 0.950 . S
C631 C629 1.387 . S
C631 C633 1.390 . S
C631 H635 0.950 . S
H632 C628 0.950 . S
C633 C631 1.390 . S
C633 C634 1.387 . S
C633 H636 0.950 . S
C634 C633 1.387 . S
C634 C637 1.387 . S
H635 C631 0.950 . S
H636 C633 0.950 . S
C637 C628 1.390 . S
C637 H630 0.950 . S
C637 C634 1.387 . S
C638 C639 1.387 . S
C638 H642 0.950 . S
C638 C647 1.390 . S
C639 C638 1.387 . S
C639 C641 1.387 . S
H640 C647 0.950 . S
C641 C639 1.387 . S
C641 C643 1.390 . S
C641 H645 0.949 1_556 S
H642 C638 0.950 . S
C643 C641 1.390 . S
C643 C644 1.387 . S
C643 H646 0.950 . S
C644 C643 1.387 . S
C644 C647 1.387 . S
H645 C641 0.949 1_554 S
H646 C643 0.950 . S
C647 C638 1.390 . S
C647 H640 0.950 . S
C647 C644 1.387 . S
C648 C649 1.387 . S
C648 H652 0.950 . S
C648 C657 1.390 . S
C649 C648 1.387 . S
C649 C651 1.387 . S
H650 C657 0.950 . S
C651 C649 1.387 . S
C651 C653 1.390 . S
C651 H655 0.950 . S
H652 C648 0.950 . S
C653 C651 1.390 . S
C653 C654 1.387 . S
C653 H656 0.950 . S
C654 C653 1.387 . S
C654 C657 1.387 . S
H655 C651 0.950 . S
H656 C653 0.950 . S
C657 C648 1.390 . S
C657 H650 0.950 . S
C657 C654 1.387 . S
C658 C659 1.387 . S
C658 H662 0.950 . S
C658 C667 1.390 . S
C659 C658 1.387 . S
C659 C661 1.387 . S
H660 C667 0.950 . S
C661 C659 1.387 . S
C661 C663 1.390 . S
C661 H665 0.950 . S
H662 C658 0.950 . S
C663 C661 1.390 . S
C663 C664 1.387 . S
C663 H666 0.950 . S
C664 C663 1.387 . S
C664 C667 1.387 . S
H665 C661 0.950 . S
H666 C663 0.950 . S
C667 C658 1.390 . S
C667 H660 0.950 . S
C667 C664 1.387 . S
C668 C669 1.387 . S
C668 H672 0.950 . S
C668 C677 1.390 . S
C669 C668 1.387 . S
C669 C671 1.387 . S
H670 C677 0.950 . S
C671 C669 1.387 . S
C671 C673 1.390 . S
C671 H675 0.950 . S
H672 C668 0.950 . S
C673 C671 1.390 . S
C673 C674 1.387 . S
C673 H676 0.950 . S
C674 C673 1.387 . S
C674 C677 1.387 . S
H675 C671 0.950 . S
H676 C673 0.950 . S
C677 C668 1.390 . S
C677 H670 0.950 . S
C677 C674 1.387 . S
C678 C679 1.387 . S
C678 H682 0.950 . S
C678 C687 1.390 . S
C679 C678 1.387 . S
C679 C681 1.387 . S
H680 C687 0.950 . S
C681 C679 1.387 . S
C681 C683 1.390 . S
C681 H685 0.950 . S
H682 C678 0.950 . S
C683 C681 1.390 . S
C683 C684 1.387 . S
C683 H686 0.950 . S
C684 C683 1.387 . S
C684 C687 1.387 . S
H685 C681 0.950 . S
H686 C683 0.950 . S
C687 C678 1.390 . S
C687 H680 0.950 . S
C687 C684 1.387 . S
C688 C689 1.387 . S
C688 H692 0.950 . S
C688 C697 1.390 . S
C689 C688 1.387 . S
C689 C691 1.387 . S
H690 C697 0.950 . S
C691 C689 1.387 . S
C691 C693 1.390 . S
C691 H695 0.950 . S
H692 C688 0.950 . S
C693 C691 1.390 . S
C693 C694 1.387 . S
C693 H696 0.950 . S
C694 C693 1.387 . S
C694 C697 1.387 . S
H695 C691 0.950 . S
H696 C693 0.950 . S
C697 C688 1.390 . S
C697 H690 0.950 . S
C697 C694 1.387 . S
C698 C699 1.387 . S
C698 H702 0.950 . S
C698 C707 1.390 . S
C699 C698 1.387 . S
C699 C701 1.387 . S
H700 C707 0.950 . S
C701 C699 1.387 . S
C701 C703 1.390 . S
C701 H705 0.950 . S
H702 C698 0.950 . S
C703 C701 1.390 . S
C703 C704 1.387 . S
C703 H706 0.950 . S
C704 C703 1.387 . S
C704 C707 1.387 . S
H705 C701 0.950 . S
H706 C703 0.950 . S
C707 C698 1.390 . S
C707 H700 0.950 . S
C707 C704 1.387 . S
C708 C709 1.387 . S
C708 H712 0.950 . S
C708 C717 1.390 . S
C709 C708 1.387 . S
C709 C711 1.387 . S
H710 C717 0.950 . S
C711 C709 1.387 . S
C711 C713 1.390 . S
C711 H715 0.950 . S
H712 C708 0.950 . S
C713 C711 1.390 . S
C713 C714 1.387 . S
C713 H716 0.950 . S
C714 C713 1.387 . S
C714 C717 1.387 . S
H715 C711 0.950 . S
H716 C713 0.950 . S
C717 C708 1.390 . S
C717 H710 0.950 . S
C717 C714 1.387 . S
C718 C719 1.387 . S
C718 H722 0.950 . S
C718 C727 1.390 . S
C719 C718 1.387 . S
C719 C721 1.387 . S
H720 C727 0.950 . S
C721 C719 1.387 . S
C721 C723 1.390 . S
C721 H725 0.950 . S
H722 C718 0.950 . S
C723 C721 1.390 . S
C723 C724 1.387 . S
C723 H726 0.950 . S
C724 C723 1.387 . S
C724 C727 1.387 . S
H725 C721 0.950 . S
H726 C723 0.950 . S
C727 C718 1.390 . S
C727 H720 0.950 . S
C727 C724 1.387 . S
C728 C729 1.387 . S
C728 H732 0.950 . S
C728 C737 1.390 . S
C729 C728 1.387 . S
C729 C731 1.387 . S
H730 C737 0.950 . S
C731 C729 1.387 . S
C731 C733 1.390 . S
C731 H735 0.950 . S
H732 C728 0.950 . S
C733 C731 1.390 . S
C733 C734 1.387 . S
C733 H736 0.950 . S
C734 C733 1.387 . S
C734 C737 1.387 . S
H735 C731 0.950 . S
H736 C733 0.950 . S
C737 C728 1.390 . S
C737 H730 0.950 . S
C737 C734 1.387 . S
C738 C739 1.387 . S
C738 H742 0.950 . S
C738 C747 1.390 . S
C739 C738 1.387 . S
C739 C741 1.387 . S
H740 C747 0.950 . S
C741 C739 1.387 . S
C741 C743 1.390 . S
C741 H745 0.950 . S
H742 C738 0.950 . S
C743 C741 1.390 . S
C743 C744 1.387 . S
C743 H746 0.950 . S
C744 C743 1.387 . S
C744 C747 1.387 . S
H745 C741 0.950 . S
H746 C743 0.950 . S
C747 C738 1.390 . S
C747 H740 0.950 . S
C747 C744 1.387 . S
C748 C749 1.387 . S
C748 H752 0.950 . S
C748 C757 1.390 . S
C749 C748 1.387 . S
C749 C751 1.387 . S
H750 C757 0.950 . S
C751 C749 1.387 . S
C751 C753 1.390 . S
C751 H755 0.950 . S
H752 C748 0.950 . S
C753 C751 1.390 . S
C753 C754 1.387 . S
C753 H756 0.950 . S
C754 C753 1.387 . S
C754 C757 1.387 . S
H755 C751 0.950 . S
H756 C753 0.950 . S
C757 C748 1.390 . S
C757 H750 0.950 . S
C757 C754 1.387 . S
C758 C759 1.387 . S
C758 H762 0.950 . S
C758 C767 1.390 . S
C759 C758 1.387 . S
C759 C761 1.387 . S
H760 C767 0.950 . S
C761 C759 1.387 . S
C761 C763 1.390 . S
C761 H765 0.950 . S
H762 C758 0.950 . S
C763 C761 1.390 . S
C763 C764 1.387 . S
C763 H766 0.950 . S
C764 C763 1.387 . S
C764 C767 1.387 . S
H765 C761 0.950 . S
H766 C763 0.950 . S
C767 C758 1.390 . S
C767 H760 0.950 . S
C767 C764 1.387 . S
C768 C769 1.387 . S
C768 H772 0.950 . S
C768 C777 1.390 . S
C769 C768 1.387 . S
C769 C771 1.387 . S
H770 C777 0.950 . S
C771 C769 1.387 . S
C771 C773 1.390 . S
C771 H775 0.950 . S
H772 C768 0.950 . S
C773 C771 1.390 . S
C773 C774 1.387 . S
C773 H776 0.950 . S
C774 C773 1.387 . S
C774 C777 1.387 . S
H775 C771 0.950 . S
H776 C773 0.950 . S
C777 C768 1.390 . S
C777 H770 0.950 . S
C777 C774 1.387 . S
C778 C779 1.387 . S
C778 H782 0.950 . S
C778 C787 1.390 . S
C779 C778 1.387 . S
C779 C781 1.387 . S
H780 C787 0.950 . S
C781 C779 1.387 . S
C781 C783 1.390 . S
C781 H785 0.950 . S
H782 C778 0.950 . S
C783 C781 1.390 . S
C783 C784 1.387 . S
C783 H786 0.950 . S
C784 C783 1.387 . S
C784 C787 1.387 . S
H785 C781 0.950 . S
H786 C783 0.950 . S
C787 C778 1.390 . S
C787 H780 0.950 . S
C787 C784 1.387 . S
C788 C789 1.387 . S
C788 H792 0.950 . S
C788 C797 1.390 . S
C789 C788 1.387 . S
C789 C791 1.387 . S
H790 C797 0.950 . S
C791 C789 1.387 . S
C791 C793 1.390 . S
C791 H795 0.950 . S
H792 C788 0.950 . S
C793 C791 1.390 . S
C793 C794 1.387 . S
C793 H796 0.950 . S
C794 C793 1.387 . S
C794 C797 1.387 . S
H795 C791 0.950 . S
H796 C793 0.950 . S
C797 C788 1.390 . S
C797 H790 0.950 . S
C797 C794 1.387 . S
C798 C799 1.387 . S
C798 H802 0.950 . S
C798 C807 1.390 . S
C799 C798 1.387 . S
C799 C801 1.387 . S
H800 C807 0.950 . S
C801 C799 1.387 . S
C801 C803 1.390 . S
C801 H805 0.950 . S
H802 C798 0.950 . S
C803 C801 1.390 . S
C803 C804 1.387 . S
C803 H806 0.950 . S
C804 C803 1.387 . S
C804 C807 1.387 . S
H805 C801 0.950 . S
H806 C803 0.950 . S
C807 C798 1.390 . S
C807 H800 0.950 . S
C807 C804 1.387 . S
C808 C809 1.387 . S
C808 H812 0.950 . S
C808 C817 1.390 . S
C809 C808 1.387 . S
C809 C811 1.387 . S
H810 C817 0.950 . S
C811 C809 1.387 . S
C811 C813 1.390 . S
C811 H815 0.950 . S
H812 C808 0.950 . S
C813 C811 1.390 . S
C813 C814 1.387 . S
C813 H816 0.950 . S
C814 C813 1.387 . S
C814 C817 1.387 . S
H815 C811 0.950 . S
H816 C813 0.950 . S
C817 C808 1.390 . S
C817 H810 0.950 . S
C817 C814 1.387 . S
C818 C819 1.387 . S
C818 H822 0.950 . S
C818 C827 1.390 . S
C819 C818 1.387 . S
C819 C821 1.387 . S
H820 C827 0.950 . S
C821 C819 1.387 . S
C821 C823 1.390 . S
C821 H825 0.950 . S
H822 C818 0.950 . S
C823 C821 1.390 . S
C823 C824 1.387 . S
C823 H826 0.950 . S
C824 C823 1.387 . S
C824 C827 1.387 . S
H825 C821 0.950 . S
H826 C823 0.950 . S
C827 C818 1.390 . S
C827 H820 0.950 . S
C827 C824 1.387 . S
C828 C829 1.387 . S
C828 H832 0.950 . S
C828 C837 1.390 . S
C829 C828 1.387 . S
C829 C831 1.387 . S
H830 C837 0.950 . S
C831 C829 1.387 . S
C831 C833 1.390 . S
C831 H835 0.950 . S
H832 C828 0.950 . S
C833 C831 1.390 . S
C833 C834 1.387 . S
C833 H836 0.950 1_556 S
C834 C833 1.387 . S
C834 C837 1.387 . S
H835 C831 0.950 . S
H836 C833 0.950 1_554 S
C837 C828 1.390 . S
C837 H830 0.950 . S
C837 C834 1.387 . S
C838 C839 1.387 . S
C838 H842 0.950 . S
C838 C847 1.390 . S
C839 C838 1.387 . S
C839 C841 1.387 . S
H840 C847 0.950 . S
C841 C839 1.387 . S
C841 C843 1.390 . S
C841 H845 0.950 . S
H842 C838 0.950 . S
C843 C841 1.390 . S
C843 C844 1.387 . S
C843 H846 0.950 . S
C844 C843 1.387 . S
C844 C847 1.387 . S
H845 C841 0.950 . S
H846 C843 0.950 . S
C847 C838 1.390 . S
C847 H840 0.950 . S
C847 C844 1.387 . S
C848 C849 1.387 . S
C848 H852 0.950 . S
C848 C857 1.390 . S
C849 C848 1.387 . S
C849 C851 1.387 . S
H850 C857 0.950 . S
C851 C849 1.387 . S
C851 C853 1.390 . S
C851 H855 0.950 . S
H852 C848 0.950 . S
C853 C851 1.390 . S
C853 C854 1.387 . S
C853 H856 0.950 . S
C854 C853 1.387 . S
C854 C857 1.387 . S
H855 C851 0.950 . S
H856 C853 0.950 . S
C857 C848 1.390 . S
C857 H850 0.950 . S
C857 C854 1.387 . S
C858 C859 1.387 . S
C858 H862 0.950 . S
C858 C867 1.390 . S
C859 C858 1.387 . S
C859 C861 1.387 . S
H860 C867 0.950 . S
C861 C859 1.387 . S
C861 C863 1.390 . S
C861 H865 0.950 . S
H862 C858 0.950 . S
C863 C861 1.390 . S
C863 C864 1.387 . S
C863 H866 0.950 . S
C864 C863 1.387 . S
C864 C867 1.387 . S
H865 C861 0.950 . S
H866 C863 0.950 . S
C867 C858 1.390 . S
C867 H860 0.950 . S
C867 C864 1.387 . S
C868 C869 1.387 . S
C868 H872 0.950 . S
C868 C877 1.390 . S
C869 C868 1.387 . S
C869 C871 1.387 . S
H870 C877 0.950 . S
C871 C869 1.387 . S
C871 C873 1.390 . S
C871 H875 0.950 . S
H872 C868 0.950 . S
C873 C871 1.390 . S
C873 C874 1.387 . S
C873 H876 0.950 . S
C874 C873 1.387 . S
C874 C877 1.387 . S
H875 C871 0.950 . S
H876 C873 0.950 . S
C877 C868 1.390 . S
C877 H870 0.950 . S
C877 C874 1.387 . S
C878 C879 1.387 . S
C878 H882 0.950 . S
C878 C887 1.390 . S
C879 C878 1.387 . S
C879 C881 1.387 . S
H880 C887 0.950 . S
C881 C879 1.387 . S
C881 C883 1.390 . S
C881 H885 0.950 . S
H882 C878 0.950 . S
C883 C881 1.390 . S
C883 C884 1.387 . S
C883 H886 0.950 . S
C884 C883 1.387 . S
C884 C887 1.387 . S
H885 C881 0.950 . S
H886 C883 0.950 . S
C887 C878 1.390 . S
C887 H880 0.950 . S
C887 C884 1.387 . S
C888 C889 1.387 . S
C888 H892 0.950 . S
C888 C897 1.390 . S
C889 C888 1.387 . S
C889 C891 1.387 . S
H890 C897 0.950 . S
C891 C889 1.387 . S
C891 C893 1.390 . S
C891 H895 0.950 . S
H892 C888 0.950 . S
C893 C891 1.390 . S
C893 C894 1.387 . S
C893 H896 0.950 . S
C894 C893 1.387 . S
C894 C897 1.387 . S
H895 C891 0.950 . S
H896 C893 0.950 . S
C897 C888 1.390 . S
C897 H890 0.950 . S
C897 C894 1.387 . S
C898 C899 1.387 . S
C898 H902 0.950 . S
C898 C907 1.390 . S
C899 C898 1.387 . S
C899 C901 1.387 . S
H900 C907 0.950 . S
C901 C899 1.387 . S
C901 C903 1.390 . S
C901 H905 0.950 . S
H902 C898 0.950 . S
C903 C901 1.390 . S
C903 C904 1.387 . S
C903 H906 0.950 . S
C904 C903 1.387 . S
C904 C907 1.387 . S
H905 C901 0.950 . S
H906 C903 0.950 . S
C907 C898 1.390 . S
C907 H900 0.950 . S
C907 C904 1.387 . S
C908 C909 1.387 . S
C908 H912 0.950 . S
C908 C917 1.390 . S
C909 C908 1.387 . S
C909 C911 1.387 . S
H910 C917 0.950 . S
C911 C909 1.387 . S
C911 C913 1.390 . S
C911 H915 0.950 . S
H912 C908 0.950 . S
C913 C911 1.390 . S
C913 C914 1.387 . S
C913 H916 0.950 . S
C914 C913 1.387 . S
C914 C917 1.387 . S
H915 C911 0.950 . S
H916 C913 0.950 . S
C917 C908 1.390 . S
C917 H910 0.950 . S
C917 C914 1.387 . S
C918 C919 1.387 . S
C918 H922 0.950 . S
C918 C927 1.390 . S
C919 C918 1.387 . S
C919 C921 1.387 . S
H920 C927 0.950 . S
C921 C919 1.387 . S
C921 C923 1.390 . S
C921 H925 0.950 . S
H922 C918 0.950 . S
C923 C921 1.390 . S
C923 C924 1.387 . S
C923 H926 0.950 . S
C924 C923 1.387 . S
C924 C927 1.387 . S
H925 C921 0.950 . S
H926 C923 0.950 . S
C927 C918 1.390 . S
C927 H920 0.950 . S
C927 C924 1.387 . S
C529 C17 1.429 . S
C534 C149 1.429 . S
C539 C182 1.429 . S
C544 C50 1.429 . S
C549 C215 1.424 . S
C554 C83 1.424 . S
C559 C116 1.424 . S
C564 C248 1.424 . S
C569 C281 1.424 . S
C574 C347 1.424 . S
C579 C380 1.429 . S
C584 C314 1.429 . S
C589 C413 1.429 . S
C594 C479 1.429 . S
C599 C446 1.424 . S
C604 C512 1.424 . S
C609 N14 1.355 . S
C614 N179 1.356 . S
C619 N212 1.352 . S
C624 N47 1.352 . S
C629 N245 1.356 . S
C634 N80 1.355 . S
C639 N113 1.354 . S
C644 N146 1.354 . S
C649 C140 2.008 . S
C654 C338 2.008 1_556 S
C659 C74 2.009 . S
C664 C272 2.008 . S
C669 C206 2.009 . S
C674 C371 2.009 . S
C679 C8 2.008 . S
C684 C305 2.008 1_554 S
C689 N410 1.354 . S
C694 N278 1.355 . S
C699 N344 1.352 . S
C704 N509 1.352 . S
C709 N311 1.356 . S
C714 N443 1.355 . S
C719 N377 1.356 . S
C724 N476 1.357 . S
C729 C470 2.008 . S
C734 C41 2.008 . S
C739 C173 2.008 1_554 S
C744 C437 2.008 . S
C749 C107 2.008 1_556 S
C754 C503 2.008 . S
C759 C404 2.009 . S
C764 C239 2.009 . S
C769 C193 1.847 . S
C774 C28 1.847 . S
C779 C226 1.847 1_556 S
C784 C61 1.847 . S
C789 C94 1.846 1_554 S
C794 C259 1.846 . S
C799 C127 1.846 . S
C804 C160 1.846 . S
C809 N137 0.775 . S
C814 N335 0.772 . S
C819 N269 0.767 . S
C824 N71 0.769 . S
C829 N368 0.772 . S
C834 N203 0.769 . S
C839 N5 0.767 . S
C844 N302 0.766 . S
C849 C424 1.846 1_554 S
C854 C292 1.846 . S
C859 C358 1.846 . S
C864 C523 1.846 . S
C869 C457 1.847 . S
C874 C325 1.847 . S
C879 C490 1.847 1_556 S
C884 C391 1.847 . S
C889 N38 0.775 . S
C894 N467 0.775 . S
C899 N170 0.774 . S
C904 N434 0.772 . S
C909 N500 0.774 . S
C914 N104 0.775 . S
C919 N236 0.775 . S
C924 N401 0.772 . S
