# Generated by pormake.
# Topology wme, (6)-cn, num edge types: 1
# Building blocks:
#     Node 0, Type 0, BuildingBlock: KUMJIN_clean_sbu_1, # of connection points: 6
#     Node 1, Type 0, BuildingBlock: KUMJIN_clean_sbu_1, # of connection points: 6
#     Node 2, Type 0, BuildingBlock: KUMJIN_clean_sbu_1, # of connection points: 6
#     Node 3, Type 0, BuildingBlock: KUMJIN_clean_sbu_1, # of connection points: 6
#     Node 4, Type 0, BuildingBlock: KUMJIN_clean_sbu_1, # of connection points: 6
#     Node 5, Type 0, BuildingBlock: KUMJIN_clean_sbu_1, # of connection points: 6
#     Node 6, Type 0, BuildingBlock: KUMJIN_clean_sbu_1, # of connection points: 6
#     Node 7, Type 0, BuildingBlock: KUMJIN_clean_sbu_1, # of connection points: 6
#     Node 8, Type 0, BuildingBlock: KUMJIN_clean_sbu_1, # of connection points: 6
#     Node 9, Type 0, BuildingBlock: KUMJIN_clean_sbu_1, # of connection points: 6
#     Node 10, Type 0, BuildingBlock: KUMJIN_clean_sbu_1, # of connection points: 6
#     Node 11, Type 0, BuildingBlock: KUMJIN_clean_sbu_1, # of connection points: 6
#     Edge 12, Type (0, 0), BuildingBlock: TEMPAE_clean_linker_10, # of connection points: 2
#     Edge 13, Type (0, 0), BuildingBlock: TEMPAE_clean_linker_10, # of connection points: 2
#     Edge 14, Type (0, 0), BuildingBlock: TEMPAE_clean_linker_10, # of connection points: 2
#     Edge 15, Type (0, 0), BuildingBlock: TEMPAE_clean_linker_10, # of connection points: 2
#     Edge 16, Type (0, 0), BuildingBlock: TEMPAE_clean_linker_10, # of connection points: 2
#     Edge 17, Type (0, 0), BuildingBlock: TEMPAE_clean_linker_10, # of connection points: 2
#     Edge 18, Type (0, 0), BuildingBlock: TEMPAE_clean_linker_10, # of connection points: 2
#     Edge 19, Type (0, 0), BuildingBlock: TEMPAE_clean_linker_10, # of connection points: 2
#     Edge 20, Type (0, 0), BuildingBlock: TEMPAE_clean_linker_10, # of connection points: 2
#     Edge 21, Type (0, 0), BuildingBlock: TEMPAE_clean_linker_10, # of connection points: 2
#     Edge 22, Type (0, 0), BuildingBlock: TEMPAE_clean_linker_10, # of connection points: 2
#     Edge 23, Type (0, 0), BuildingBlock: TEMPAE_clean_linker_10, # of connection points: 2
#     Edge 24, Type (0, 0), BuildingBlock: TEMPAE_clean_linker_10, # of connection points: 2
#     Edge 25, Type (0, 0), BuildingBlock: TEMPAE_clean_linker_10, # of connection points: 2
#     Edge 26, Type (0, 0), BuildingBlock: TEMPAE_clean_linker_10, # of connection points: 2
#     Edge 27, Type (0, 0), BuildingBlock: TEMPAE_clean_linker_10, # of connection points: 2
#     Edge 28, Type (0, 0), BuildingBlock: TEMPAE_clean_linker_10, # of connection points: 2
#     Edge 29, Type (0, 0), BuildingBlock: TEMPAE_clean_linker_10, # of connection points: 2
#     Edge 30, Type (0, 0), BuildingBlock: TEMPAE_clean_linker_10, # of connection points: 2
#     Edge 31, Type (0, 0), BuildingBlock: TEMPAE_clean_linker_10, # of connection points: 2
#     Edge 32, Type (0, 0), BuildingBlock: TEMPAE_clean_linker_10, # of connection points: 2
#     Edge 33, Type (0, 0), BuildingBlock: TEMPAE_clean_linker_10, # of connection points: 2
#     Edge 34, Type (0, 0), BuildingBlock: TEMPAE_clean_linker_10, # of connection points: 2
#     Edge 35, Type (0, 0), BuildingBlock: TEMPAE_clean_linker_10, # of connection points: 2
#     Edge 36, Type (0, 0), BuildingBlock: TEMPAE_clean_linker_10, # of connection points: 2
#     Edge 37, Type (0, 0), BuildingBlock: TEMPAE_clean_linker_10, # of connection points: 2
#     Edge 38, Type (0, 0), BuildingBlock: TEMPAE_clean_linker_10, # of connection points: 2
#     Edge 39, Type (0, 0), BuildingBlock: TEMPAE_clean_linker_10, # of connection points: 2
#     Edge 40, Type (0, 0), BuildingBlock: TEMPAE_clean_linker_10, # of connection points: 2
#     Edge 41, Type (0, 0), BuildingBlock: TEMPAE_clean_linker_10, # of connection points: 2
#     Edge 42, Type (0, 0), BuildingBlock: TEMPAE_clean_linker_10, # of connection points: 2
#     Edge 43, Type (0, 0), BuildingBlock: TEMPAE_clean_linker_10, # of connection points: 2
#     Edge 44, Type (0, 0), BuildingBlock: TEMPAE_clean_linker_10, # of connection points: 2
#     Edge 45, Type (0, 0), BuildingBlock: TEMPAE_clean_linker_10, # of connection points: 2
#     Edge 46, Type (0, 0), BuildingBlock: TEMPAE_clean_linker_10, # of connection points: 2
#     Edge 47, Type (0, 0), BuildingBlock: TEMPAE_clean_linker_10, # of connection points: 2
# Relax obj value: 0.062
# Max RMSD: 0.170
# Mean RMSD: 0.170
data_MOF--net-wme--node1-KUMJIN_clean_sbu_1--edge1-TEMPAE_clean_linker_10
_symmetry_space_group_name_H-M    P1
_symmetry_Int_Tables_number       1
_symmetry_cell_setting            triclinic
loop_
_symmetry_equiv_pos_as_xyz
'x, y, z'
_cell_length_a     39.652203
_cell_length_b     39.651328
_cell_length_c     54.583925
_cell_angle_alpha  89.771518
_cell_angle_beta   90.198159
_cell_angle_gamma 119.97473
loop_
_atom_site_label
_atom_site_type_symbol
_atom_site_fract_x
_atom_site_fract_y
_atom_site_fract_z
_atom_type_partial_charge
Eu0 Eu 0.25679 0.31115 0.13762 0.0
C1 C 0.12471 0.32217 0.07756 0.0
N2 N 0.16308 0.33688 0.07238 0.0
C3 C 0.14751 0.31708 0.0305 0.0
C4 C 0.09615 0.30446 0.05914 0.0
C5 C 0.17488 0.33526 0.04918 0.0
C6 C 0.10796 0.30152 0.0355 0.0
C7 C 0.07487 0.31361 0.10665 0.0
C8 C 0.1141 0.32599 0.10122 0.0
C9 C 0.04641 0.29618 0.08829 0.0
C10 C 0.05694 0.29115 0.06471 0.0
Eu11 Eu 0.20696 0.36822 0.10496 0.0
N12 N 0.14223 0.34267 0.11873 0.0
C13 C 0.06551 0.31995 0.13023 0.0
C14 C 0.13315 0.34896 0.14171 0.0
C15 C 0.09471 0.33737 0.14787 0.0
H16 H 0.20542 0.34867 0.04484 0.0
H17 H 0.08776 0.34274 0.16609 0.0
H18 H 0.28434 0.35235 0.19315 0.0
H19 H 0.34872 0.30578 0.06508 0.0
H20 H 0.15544 0.36422 0.15518 0.0
H21 H 0.03595 0.31206 0.13491 0.0
H22 H 0.28883 0.28209 0.08951 0.0
H23 H 0.15699 0.31567 0.01215 0.0
H24 H 0.01615 0.28663 0.09211 0.0
H25 H 0.03462 0.27761 0.05078 0.0
H26 H 0.34429 0.40093 0.21428 0.0
H27 H 0.08687 0.28799 0.02088 0.0
H28 H 0.41005 0.36245 0.07951 0.0
N29 N 0.31318 0.3547 0.16009 0.0
C30 C 0.34787 0.36919 0.14826 0.0
C31 C 0.34567 0.39241 0.19567 0.0
C32 C 0.38279 0.39725 0.15944 0.0
C33 C 0.31174 0.36498 0.18372 0.0
C34 C 0.38131 0.40896 0.18338 0.0
N35 N 0.31391 0.32867 0.11467 0.0
C36 C 0.31448 0.30862 0.09466 0.0
C37 C 0.38363 0.37006 0.11213 0.0
C38 C 0.34807 0.35635 0.12469 0.0
C39 C 0.38339 0.35294 0.08971 0.0
C40 C 0.3488 0.3212 0.08136 0.0
H41 H 0.40749 0.4305 0.1926 0.0
H42 H 0.44497 0.43467 0.15453 0.0
H43 H 0.44581 0.41041 0.11323 0.0
O44 O 0.25177 0.25305 0.13408 0.0
O45 O 0.28722 0.37828 0.13775 0.0
O46 O 0.27113 0.39118 0.10021 0.0
O47 O 0.26067 0.28057 0.16986 0.0
O48 O 0.23392 0.29503 0.09868 0.0
O49 O 0.24424 0.35228 0.08071 0.0
O50 O 0.21033 0.4232 0.11611 0.0
O51 O 0.17056 0.30218 0.10713 0.0
O52 O 0.19068 0.28339 0.14176 0.0
O53 O 0.21051 0.41082 0.07788 0.0
O54 O 0.22114 0.3788 0.14646 0.0
O55 O 0.21755 0.32235 0.16139 0.0
C56 C 0.29531 0.40137 0.11863 0.0
C57 C 0.2559 0.21685 0.16981 0.0
C58 C 0.24243 0.14912 0.17076 0.0
C59 C 0.25727 0.15534 0.19478 0.0
C60 C 0.27047 0.22175 0.19382 0.0
C61 C 0.27109 0.19126 0.20615 0.0
C62 C 0.24157 0.18014 0.15828 0.0
C63 C 0.24161 0.31766 0.07933 0.0
C64 C 0.25576 0.25039 0.15757 0.0
C65 C 0.4179 0.4127 0.14638 0.0
C66 C 0.41834 0.39907 0.1228 0.0
C67 C 0.16342 0.27896 0.126 0.0
C68 C 0.17792 0.44533 0.08911 0.0
C69 C 0.15269 0.49061 0.09338 0.0
C70 C 0.11869 0.46375 0.08104 0.0
C71 C 0.14401 0.42005 0.07604 0.0
C72 C 0.18247 0.48126 0.09748 0.0
C73 C 0.11456 0.42895 0.07232 0.0
C74 C 0.21821 0.35541 0.16482 0.0
C75 C 0.20795 0.4338 0.09384 0.0
H76 H 0.25787 0.13213 0.20495 0.0
H77 H 0.28159 0.24937 0.20317 0.0
H78 H 0.28234 0.19549 0.22466 0.0
H79 H 0.23019 0.17583 0.13978 0.0
H80 H 0.09555 0.4702 0.07762 0.0
H81 H 0.14023 0.39341 0.06838 0.0
H82 H 0.20872 0.50159 0.10716 0.0
H83 H 0.08852 0.40888 0.06239 0.0
Eu84 Eu 0.94338 0.23715 0.63973 0.0
C85 C 0.80071 0.11293 0.57987 0.0
N86 N 0.82507 0.15104 0.5742 0.0
C87 C 0.82722 0.1344 0.53233 0.0
C88 C 0.78881 0.08391 0.56174 0.0
C89 C 0.83812 0.16221 0.55085 0.0
C90 C 0.80248 0.09509 0.53778 0.0
C91 C 0.76332 0.06348 0.61035 0.0
C92 C 0.78836 0.10284 0.60403 0.0
C93 C 0.75104 0.03462 0.59224 0.0
C94 C 0.76386 0.04478 0.56805 0.0
Eu95 Eu 0.83937 0.19568 0.60626 0.0
N96 N 0.8011 0.13136 0.62133 0.0
C97 C 0.7511 0.05425 0.63469 0.0
C98 C 0.7878 0.12258 0.64482 0.0
C99 C 0.76327 0.08395 0.65195 0.0
H100 H 0.85634 0.1926 0.54635 0.0
H101 H 0.7531 0.07717 0.67067 0.0
H102 H 0.93363 0.215 0.6994 0.0
H103 H 0.02434 0.37831 0.59408 0.0
H104 H 0.79471 0.1451 0.65803 0.0
H105 H 0.73171 0.0244 0.64025 0.0
H106 H 0.98594 0.30656 0.59665 0.0
H107 H 0.83763 0.14334 0.51381 0.0
H108 H 0.73165 1.00428 0.59676 0.0
H109 H 0.75434 0.02211 0.55435 0.0
H110 H 0.9509 0.24905 0.73914 0.0
H111 H 0.79401 0.07364 0.52336 0.0
H112 H 0.04195 0.41763 0.63198 0.0
N113 N 0.95894 0.26713 0.67846 0.0
C114 C 0.97992 0.30664 0.67861 0.0
C115 C 0.95871 0.26566 0.7223 0.0
C116 C 0.99039 0.32737 0.70087 0.0
C117 C 0.94876 0.24643 0.69979 0.0
C118 C 0.97923 0.30633 0.72288 0.0
N119 N 0.981 0.30546 0.63531 0.0
C120 C 0.99333 0.32346 0.61317 0.0
C121 C 0.01361 0.36738 0.65592 0.0
C122 C 0.99161 0.3264 0.65643 0.0
C123 C 0.02509 0.38617 0.63317 0.0
C124 C 0.01516 0.36407 0.61172 0.0
H125 H 0.98685 0.32114 0.74038 0.0
H126 H 0.02015 0.3847 0.71736 0.0
H127 H 0.0403 0.41972 0.67801 0.0
O128 O 0.99366 0.23724 0.62287 0.0
O129 O 0.91839 0.27893 0.63771 0.0
O130 O 0.87887 0.26057 0.6034 0.0
O131 O 0.98016 0.22146 0.66092 0.0
O132 O 0.93808 0.2239 0.59907 0.0
O133 O 0.89161 0.23506 0.58166 0.0
O134 O 0.78496 0.19381 0.61679 0.0
O135 O 0.86953 0.15922 0.60524 0.0
O136 O 0.89965 0.17261 0.64251 0.0
O137 O 0.80273 0.20261 0.57902 0.0
O138 O 0.84427 0.21334 0.64703 0.0
O139 O 0.88941 0.19795 0.66107 0.0
C140 C 0.89867 0.28572 0.62067 0.0
C141 C 0.04556 0.24648 0.64929 0.0
C142 C 0.1064 0.24444 0.65184 0.0
C143 C 0.12242 0.27881 0.66596 0.0
C144 C 0.06266 0.28107 0.6628 0.0
C145 C 0.10091 0.29709 0.67106 0.0
C146 C 0.06757 0.22857 0.64352 0.0
C147 C 0.92616 0.23742 0.58108 0.0
C148 C 1.00388 0.22688 0.643 0.0
C149 C 1.01198 0.36825 0.70045 0.0
C150 C 0.0235 0.3882 0.67803 0.0
C151 C 0.88334 0.14893 0.62394 0.0
C152 C 0.7346 0.16539 0.58689 0.0
C153 C 0.66341 0.13484 0.59092 0.0
C154 C 0.65925 0.10823 0.57252 0.0
C155 C 0.72904 0.13847 0.56844 0.0
C156 C 0.70152 0.16356 0.59805 0.0
C157 C 0.69174 0.11005 0.56148 0.0
C158 C 0.86195 0.20634 0.66527 0.0
C159 C 0.77472 0.19533 0.5943 0.0
H160 H 0.15146 0.29148 0.67355 0.0
H161 H 0.04616 0.29514 0.66747 0.0
H162 H 0.11375 0.32345 0.68188 0.0
H163 H 0.05416 0.20218 0.63271 0.0
H164 H 0.63071 0.08643 0.5661 0.0
H165 H 0.75349 0.13946 0.55909 0.0
H166 H 0.70548 0.18429 0.61223 0.0
H167 H 0.68796 0.08958 0.5472 0.0
Eu168 Eu 0.71962 0.93888 0.13668 0.0
C169 C 0.69373 0.79427 0.07371 0.0
N170 N 0.68148 0.82013 0.06896 0.0
C171 C 0.69894 0.823 0.02672 0.0
C172 C 0.7093 0.78184 0.05492 0.0
C173 C 0.68339 0.83424 0.04587 0.0
C174 C 0.712 0.79672 0.03126 0.0
C175 C 0.70307 0.75326 0.10288 0.0
C176 C 0.69106 0.78051 0.09754 0.0
C177 C 0.7182 0.74054 0.08413 0.0
C178 C 0.72154 0.75496 0.06027 0.0
Eu179 Eu 0.6538 0.83553 0.10212 0.0
N180 N 0.67667 0.79366 0.11544 0.0
C181 C 0.69902 0.73917 0.12686 0.0
C182 C 0.6711 0.77864 0.13855 0.0
C183 C 0.68286 0.75183 0.14474 0.0
H184 H 0.67227 0.8536 0.04203 0.0
H185 H 0.6786 0.74026 0.16317 0.0
H186 H 0.71872 0.92515 0.19742 0.0
H187 H 0.67414 0.02673 0.08367 0.0
H188 H 0.65627 0.78592 0.15211 0.0
H189 H 0.70747 0.71788 0.13164 0.0
H190 H 0.70316 0.98521 0.09017 0.0
H191 H 0.70049 0.83429 0.00842 0.0
H192 H 0.72737 0.71946 0.08787 0.0
H193 H 0.73348 0.74501 0.04605 0.0
H194 H 0.69655 0.94344 0.23483 0.0
H195 H 0.72384 0.78792 0.01634 0.0
H196 H 0.64907 0.0464 0.11902 0.0
N197 N 0.70023 0.95516 0.17348 0.0
C198 C 0.6843 0.97848 0.17138 0.0
C199 C 0.69281 0.95325 0.21708 0.0
C200 C 0.67139 0.98961 0.19224 0.0
C201 C 0.70511 0.94284 0.19588 0.0
C202 C 0.67567 0.97651 0.21526 0.0
N203 N 0.69279 0.9793 0.12839 0.0
C204 C 0.69145 0.99255 0.10556 0.0
C205 C 0.66435 0.01537 0.14547 0.0
C206 C 0.68082 0.99122 0.14824 0.0
C207 C 0.66151 0.02781 0.12192 0.0
C208 C 0.67545 0.01661 0.1019 0.0
H209 H 0.6661 0.98441 0.23173 0.0
H210 H 0.64454 0.02217 0.20535 0.0
H211 H 0.63837 0.0447 0.16442 0.0
O212 O 0.77313 0.98952 0.12304 0.0
O213 O 0.65319 0.91383 0.13751 0.0
O214 O 0.63688 0.88168 0.10119 0.0
O215 O 0.76916 0.9718 0.16088 0.0
O216 O 0.72852 0.93521 0.09563 0.0
O217 O 0.67004 0.88949 0.07823 0.0
O218 O 0.5988 0.78367 0.11279 0.0
O219 O 0.71982 0.86261 0.10125 0.0
O220 O 0.73864 0.8935 0.13832 0.0
O221 O 0.60847 0.802 0.07511 0.0
O222 O 0.64304 0.83886 0.14345 0.0
O223 O 0.70351 0.88422 0.15814 0.0
C224 C 0.62714 0.89397 0.12054 0.0
C225 C 0.81241 0.03806 0.15218 0.0
C226 C 0.87505 0.09854 0.15658 0.0
C227 C 0.85621 0.11343 0.1712 0.0
C228 C 0.79441 0.05405 0.16627 0.0
C229 C 0.81626 0.09153 0.1757 0.0
C230 C 0.85253 0.06048 0.1471 0.0
C231 C 0.70417 0.9222 0.07693 0.0
C232 C 0.79049 0.99712 0.1443 0.0
C233 C 0.65472 0.01343 0.18952 0.0
C234 C 0.65123 0.02628 0.16621 0.0
C235 C 0.74399 0.87549 0.11987 0.0
C236 C 0.57456 0.73361 0.08274 0.0
C237 C 0.53348 0.66253 0.08771 0.0
C238 C 0.55408 0.65762 0.0684 0.0
C239 C 0.5941 0.72722 0.06344 0.0
C240 C 0.54389 0.70095 0.09477 0.0
C241 C 0.58403 0.68963 0.05647 0.0
C242 C 0.66762 0.8562 0.16175 0.0
C243 C 0.58669 0.77418 0.09033 0.0
H244 H 0.87231 0.14188 0.17956 0.0
H245 H 0.76369 0.03729 0.17043 0.0
H246 H 0.8023 0.10348 0.18691 0.0
H247 H 0.866 0.04805 0.13585 0.0
H248 H 0.54649 0.62882 0.06207 0.0
H249 H 0.61719 0.75127 0.05352 0.0
H250 H 0.52854 0.70544 0.10964 0.0
H251 H 0.59936 0.68526 0.04156 0.0
Eu252 Eu 0.77851 0.7032 0.64105 0.0
C253 C 0.90184 0.68709 0.57382 0.0
N254 N 0.86319 0.67167 0.56923 0.0
C255 C 0.87621 0.68677 0.52654 0.0
C256 C 0.92934 0.70338 0.55473 0.0
C257 C 0.84998 0.67042 0.54596 0.0
C258 C 0.91609 0.70353 0.53095 0.0
C259 C 0.95361 0.69971 0.60259 0.0
C260 C 0.91387 0.68585 0.59761 0.0
C261 C 0.98107 0.71622 0.58366 0.0
C262 C 0.96901 0.71832 0.55985 0.0
Eu263 Eu 0.82118 0.64429 0.60301 0.0
N264 N 0.88669 0.67001 0.61568 0.0
C265 C 0.96447 0.69556 0.62632 0.0
C266 C 0.89705 0.66413 0.63847 0.0
C267 C 0.93604 0.67755 0.64429 0.0
H268 H 0.81914 0.65606 0.54222 0.0
H269 H 0.94399 0.67291 0.66247 0.0
H270 H 0.78693 0.68448 0.70056 0.0
H271 H 0.6517 0.69892 0.59883 0.0
H272 H 0.87542 0.64737 0.65192 0.0
H273 H 0.99451 0.70491 0.63075 0.0
H274 H 0.72208 0.72356 0.60584 0.0
H275 H 0.8656 0.68598 0.50813 0.0
H276 H 1.0117 0.72712 0.58718 0.0
H277 H 0.99055 0.73098 0.54542 0.0
H278 H 0.74401 0.64433 0.73441 0.0
H279 H 0.93632 0.71584 0.51582 0.0
H280 H 0.60298 0.64852 0.62636 0.0
N281 N 0.74031 0.66938 0.67569 0.0
C282 C 0.70107 0.65256 0.673 0.0
C283 C 0.73166 0.64583 0.71703 0.0
C284 C 0.67548 0.62975 0.69183 0.0
C285 C 0.75586 0.668 0.69773 0.0
C286 C 0.69132 0.6258 0.71386 0.0
N287 N 0.71241 0.68385 0.63463 0.0
C288 C 0.70071 0.70009 0.61699 0.0
C289 C 0.64642 0.64571 0.64906 0.0
C290 C 0.68668 0.65997 0.65175 0.0
C291 C 0.63364 0.65854 0.62905 0.0
C292 C 0.66106 0.68688 0.6134 0.0
H293 H 0.6727 0.60868 0.72885 0.0
H294 H 0.61496 0.59482 0.70253 0.0
H295 H 0.58949 0.60913 0.66513 0.0
O296 O 0.78967 0.76321 0.63337 0.0
O297 O 0.74136 0.63644 0.63856 0.0
O298 O 0.75637 0.6207 0.60121 0.0
O299 O 0.78181 0.74058 0.67077 0.0
O300 O 0.77689 0.70869 0.59918 0.0
O301 O 0.78529 0.66172 0.57818 0.0
O302 O 0.82212 0.59144 0.61438 0.0
O303 O 0.85684 0.71085 0.60259 0.0
O304 O 0.8442 0.72847 0.63998 0.0
O305 O 0.81157 0.59885 0.57664 0.0
O306 O 0.80674 0.63142 0.64406 0.0
O307 O 0.82222 0.69111 0.65966 0.0
C308 C 0.7326 0.61281 0.61972 0.0
C309 C 0.79229 0.80593 0.66736 0.0
C310 C 0.80467 0.87285 0.66414 0.0
C311 C 0.79685 0.87213 0.68927 0.0
C312 C 0.78482 0.80637 0.69252 0.0
C313 C 0.78719 0.83921 0.70333 0.0
C314 C 0.80268 0.83966 0.65315 0.0
C315 C 0.77629 0.68985 0.57897 0.0
C316 C 0.78791 0.76956 0.65667 0.0
C317 C 0.63511 0.61289 0.68841 0.0
C318 C 0.6206 0.62094 0.66707 0.0
C319 C 0.86762 0.73471 0.62134 0.0
C320 C 0.84835 0.56713 0.58461 0.0
C321 C 0.87917 0.52654 0.5893 0.0
C322 C 0.90405 0.54722 0.56968 0.0
C323 C 0.87389 0.58686 0.56515 0.0
C324 C 0.851 0.53668 0.59663 0.0
C325 C 0.90147 0.57704 0.55787 0.0
C326 C 0.81714 0.65606 0.66248 0.0
C327 C 0.81923 0.57848 0.59216 0.0
H328 H 0.79847 0.89734 0.6981 0.0
H329 H 0.77677 0.78109 0.70397 0.0
H330 H 0.7813 0.83907 0.72269 0.0
H331 H 0.8085 0.83993 0.63375 0.0
H332 H 0.92523 0.53985 0.56299 0.0
H333 H 0.8725 0.60982 0.55529 0.0
H334 H 0.8315 0.52126 0.61167 0.0
H335 H 0.92078 0.59244 0.54276 0.0
Eu336 Eu 0.08709 0.77674 0.12676 0.0
C337 C 0.22887 0.89816 0.06032 0.0
N338 N 0.20878 0.8585 0.05994 0.0
C339 C 0.2076 0.85938 0.01595 0.0
C340 C 0.23751 0.91986 0.03835 0.0
C341 C 0.20026 0.83913 0.0381 0.0
C342 C 0.22573 0.89989 0.01608 0.0
C343 C 0.26471 0.95835 0.08333 0.0
C344 C 0.2425 0.91733 0.08261 0.0
C345 C 0.27229 0.97988 0.06156 0.0
C346 C 0.25863 0.96071 0.03915 0.0
Eu347 Eu 0.1982 0.82778 0.09878 0.0
N348 N 0.2342 0.89597 0.10358 0.0
C349 C 0.27885 0.97659 0.10593 0.0
C350 C 0.24822 0.91359 0.12565 0.0
C351 C 0.27057 0.95412 0.12718 0.0
H352 H 0.18852 0.80804 0.03751 0.0
H353 H 0.28154 0.96798 0.14472 0.0
H354 H 0.08875 0.82892 0.17511 0.0
H355 H 1.01197 0.61744 0.11806 0.0
H356 H 0.24232 0.89647 0.14208 0.0
H357 H 0.29642 1.00799 0.1071 0.0
H358 H 0.04013 0.68496 0.10302 0.0
H359 H 0.19995 0.84374 0.99876 0.0
H360 H 0.28899 0.01141 0.06183 0.0
H361 H 0.26526 0.97776 0.02247 0.0
H362 H 0.07639 0.81996 0.21967 0.0
H363 H 0.23181 0.91552 0.99885 0.0
H364 H 1.00799 0.60421 0.16259 0.0
N365 N 0.07416 0.77026 0.16911 0.0
C366 C 0.06012 0.73414 0.17884 0.0
C367 C 0.07211 0.79568 0.20845 0.0
C368 C 0.05297 0.72773 0.2042 0.0
C369 C 0.07906 0.80069 0.18326 0.0
C370 C 0.05967 0.75921 0.21906 0.0
N371 N 0.05513 0.71007 0.13865 0.0
C372 C 0.03941 0.67963 0.12252 0.0
C373 C 0.03384 0.66497 0.17257 0.0
C374 C 0.05074 0.7032 0.16318 0.0
C375 C 0.02101 0.63398 0.1561 0.0
C376 C 0.02314 0.64131 0.13096 0.0
H377 H 0.05442 0.75545 0.23861 0.0
H378 H 0.03312 0.68464 0.23323 0.0
H379 H 0.01631 0.62963 0.20554 0.0
O380 O 0.02711 0.74744 0.11316 0.0
O381 O 0.10747 0.73878 0.10738 0.0
O382 O 0.17164 0.7697 0.11862 0.0
O383 O 0.05191 0.80519 0.12797 0.0
O384 O 0.10682 0.80497 0.08974 0.0
O385 O 0.14805 0.78869 0.07252 0.0
O386 O 0.2596 0.84856 0.10685 0.0
O387 O 0.16943 0.86516 0.10258 0.0
O388 O 0.12757 0.84105 0.13573 0.0
O389 O 0.2307 0.80571 0.07857 0.0
O390 O 0.19639 0.82602 0.141 0.0
O391 O 0.13237 0.78897 0.15585 0.0
C392 C 0.13942 0.73786 0.11277 0.0
C393 C 0.98471 0.76347 0.13397 0.0
C394 C 0.92767 0.77002 0.14252 0.0
C395 C 0.91776 0.74288 0.16173 0.0
C396 C 0.97381 0.7361 0.15298 0.0
C397 C 0.94062 0.72605 0.16683 0.0
C398 C 0.9616 0.7804 0.12878 0.0
C399 C 0.11492 0.78886 0.07167 0.0
C400 C 0.02051 0.77508 0.11985 0.0
C401 C 0.03828 0.69005 0.21376 0.0
C402 C 0.02879 0.65874 0.19798 0.0
C403 C 0.1519 0.87013 0.12158 0.0
C404 C 0.28216 0.80437 0.10047 0.0
C405 C 0.34168 0.80561 0.11455 0.0
C406 C 0.31988 0.76491 0.11761 0.0
C407 C 0.26131 0.76387 0.1038 0.0
C408 C 0.32235 0.82515 0.10591 0.0
C409 C 0.28013 0.7444 0.11236 0.0
C410 C 0.17049 0.80885 0.15883 0.0
C411 C 0.26251 0.82534 0.09138 0.0
H412 H 0.89243 0.73484 0.17302 0.0
H413 H 0.99089 0.72249 0.15715 0.0
H414 H 0.93261 0.70514 0.1816 0.0
H415 H 0.96979 0.80117 0.11387 0.0
H416 H 0.33366 0.74862 0.12358 0.0
H417 H 0.23054 0.74724 0.09962 0.0
H418 H 0.33837 0.85648 0.10353 0.0
H419 H 0.26397 0.71317 0.11473 0.0
Eu420 Eu 0.31338 0.06904 0.63205 0.0
C421 C 0.33176 0.2167 0.57356 0.0
N422 N 0.3454 0.19204 0.56877 0.0
C423 C 0.3294 0.19071 0.52626 0.0
C424 C 0.3164 0.22944 0.55466 0.0
C425 C 0.34514 0.17953 0.54547 0.0
C426 C 0.31488 0.2157 0.53087 0.0
C427 C 0.32204 0.2572 0.60264 0.0
C428 C 0.33381 0.22982 0.59742 0.0
C429 C 0.30703 0.27017 0.5838 0.0
C430 C 0.30377 0.25596 0.55996 0.0
Eu431 Eu 0.3735 0.17701 0.60219 0.0
N432 N 0.34784 0.21628 0.61543 0.0
C433 C 0.32639 0.27132 0.62656 0.0
C434 C 0.35184 0.22982 0.6388 0.0
C435 C 0.34092 0.25724 0.64476 0.0
H436 H 0.35784 0.16165 0.54146 0.0
H437 H 0.34456 0.26818 0.66329 0.0
H438 H 0.35186 0.07773 0.68826 0.0
H439 H 0.30764 0.97422 0.55783 0.0
H440 H 0.36477 0.22083 0.6528 0.0
H441 H 0.31904 0.29342 0.63113 0.0
H442 H 0.28487 0.01092 0.58229 0.0
H443 H 0.32907 0.18057 0.50783 0.0
H444 H 0.29789 0.29123 0.58748 0.0
H445 H 0.29203 0.26618 0.54565 0.0
H446 H 0.39849 0.06345 0.70947 0.0
H447 H 0.30319 0.22474 0.51587 0.0
H448 H 0.36287 0.96711 0.57238 0.0
N449 N 0.35502 0.05329 0.65456 0.0
C450 C 0.36926 0.0332 0.64238 0.0
C451 C 0.39068 0.05496 0.69056 0.0
C452 C 0.39623 0.02467 0.65361 0.0
C453 C 0.36433 0.06311 0.67857 0.0
C454 C 0.4071 0.03609 0.67794 0.0
N455 N 0.33036 0.02968 0.60842 0.0
C456 C 0.31064 0.01038 0.5879 0.0
C457 C 0.37042 0.99986 0.60559 0.0
C458 C 0.35712 0.02175 0.61847 0.0
C459 C 0.35373 0.98433 0.58282 0.0
C460 C 0.32279 0.98854 0.57438 0.0
H461 H 0.42779 0.03014 0.6872 0.0
H462 H 0.43256 0.99873 0.64845 0.0
H463 H 0.40949 0.97643 0.6065 0.0
O464 O 0.25496 0.01708 0.62691 0.0
O465 O 0.38036 0.1045 0.63444 0.0
O466 O 0.39696 0.13616 0.59776 0.0
O467 O 0.28114 0.03301 0.66328 0.0
O468 O 0.30039 0.07847 0.5927 0.0
O469 O 0.35954 0.12529 0.57715 0.0
O470 O 0.42643 0.22955 0.61491 0.0
O471 O 0.30746 0.14829 0.60234 0.0
O472 O 0.28641 0.10812 0.63629 0.0
O473 O 0.41902 0.21514 0.5766 0.0
O474 O 0.38181 0.17114 0.64372 0.0
O475 O 0.32428 0.1181 0.65716 0.0
C476 C 0.40486 0.12003 0.6161 0.0
C477 C 0.21714 0.97483 0.66141 0.0
C478 C 0.1497 0.92057 0.66009 0.0
C479 C 0.15444 0.91012 0.68397 0.0
C480 C 0.22067 0.96355 0.68529 0.0
C481 C 0.18956 0.9315 0.69643 0.0
C482 C 0.18125 0.95331 0.64883 0.0
C483 C 0.32493 0.0939 0.57431 0.0
C484 C 0.2514 0.00883 0.6502 0.0
C485 C 0.41141 1.00508 0.64025 0.0
C486 C 0.39846 0.99262 0.61631 0.0
C487 C 0.28339 0.1321 0.62075 0.0
C488 C 0.45018 0.28252 0.58655 0.0
C489 C 0.49085 0.35346 0.59238 0.0
C490 C 0.46941 0.35885 0.57368 0.0
C491 C 0.42987 0.28947 0.56788 0.0
C492 C 0.48099 0.31483 0.59874 0.0
C493 C 0.43925 0.3272 0.56168 0.0
C494 C 0.35737 0.15012 0.66145 0.0
C495 C 0.43931 0.24168 0.59284 0.0
H496 H 0.13068 0.88541 0.69312 0.0
H497 H 0.2477 0.97937 0.6954 0.0
H498 H 0.1927 0.92313 0.71482 0.0
H499 H 0.178 0.96162 0.63042 0.0
H500 H 0.47656 0.38778 0.56777 0.0
H501 H 0.40691 0.26577 0.5577 0.0
H502 H 0.49702 0.30989 0.61306 0.0
H503 H 0.42336 0.33198 0.5472 0.0
Eu504 Eu 0.70962 0.78272 0.37257 0.0
C505 C 0.68918 0.90837 0.43131 0.0
N506 N 0.67399 0.86974 0.43601 0.0
C507 C 0.68632 0.88275 0.47892 0.0
C508 C 0.70358 0.93582 0.45047 0.0
C509 C 0.67185 0.85653 0.45939 0.0
C510 C 0.70228 0.92256 0.47445 0.0
C511 C 0.70477 0.96028 0.40192 0.0
C512 C 0.69064 0.92061 0.40717 0.0
C513 C 0.71881 0.98761 0.421 0.0
C514 C 0.71859 0.97547 0.44517 0.0
Eu515 Eu 0.64903 0.82833 0.40181 0.0
N516 N 0.67821 0.89376 0.38887 0.0
C517 C 0.70382 0.97123 0.37764 0.0
C518 C 0.67713 0.90435 0.36522 0.0
C519 C 0.69027 0.94322 0.3592 0.0
H520 H 0.65841 0.82575 0.46315 0.0
H521 H 0.68902 0.95141 0.34042 0.0
H522 H 0.69187 0.77828 0.31196 0.0
H523 H 0.69373 0.66719 0.43433 0.0
H524 H 0.6646 0.88284 0.35105 0.0
H525 H 0.71275 1.0011 0.37299 0.0
H526 H 0.71883 0.73502 0.42059 0.0
H527 H 0.68473 0.87221 0.49744 0.0
H528 H 0.73003 0.01825 0.41725 0.0
H529 H 0.72976 0.99696 0.45966 0.0
H530 H 0.65552 0.7281 0.28064 0.0
H531 H 0.71318 0.94276 0.48966 0.0
H532 H 0.65132 0.61265 0.40688 0.0
N533 N 0.679 0.73728 0.34065 0.0
C534 C 0.66331 0.69909 0.34685 0.0
C535 C 0.65728 0.71961 0.29923 0.0
C536 C 0.64302 0.66951 0.32945 0.0
C537 C 0.67735 0.74794 0.31709 0.0
C538 C 0.63972 0.68022 0.30548 0.0
N539 N 0.68768 0.71896 0.38706 0.0
C540 C 0.69867 0.71144 0.40912 0.0
C541 C 0.65334 0.65049 0.3775 0.0
C542 C 0.6678 0.68969 0.37074 0.0
C543 C 0.66162 0.64236 0.40102 0.0
C544 C 0.68525 0.67305 0.41666 0.0
H545 H 0.62429 0.65836 0.29157 0.0
H546 H 0.61111 0.60719 0.32336 0.0
H547 H 0.62061 0.59055 0.36533 0.0
O548 O 0.76561 0.78987 0.38461 0.0
O549 O 0.6423 0.74507 0.37222 0.0
O550 O 0.62333 0.76383 0.40679 0.0
O551 O 0.75249 0.78713 0.34595 0.0
O552 O 0.71803 0.7984 0.41329 0.0
O553 O 0.65906 0.78839 0.42786 0.0
O554 O 0.60066 0.83236 0.38572 0.0
O555 O 0.71547 0.86507 0.40317 0.0
O556 O 0.73464 0.84797 0.36809 0.0
O557 O 0.60216 0.82503 0.42485 0.0
O558 O 0.63935 0.81114 0.3609 0.0
O559 O 0.69915 0.82214 0.34792 0.0
C560 C 0.61643 0.73846 0.38946 0.0
C561 C 0.79589 0.7656 0.35824 0.0
C562 C 0.85529 0.76104 0.35784 0.0
C563 C 0.83364 0.72376 0.34726 0.0
C564 C 0.77493 0.72821 0.34816 0.0
C565 C 0.7938 0.70745 0.34275 0.0
C566 C 0.83576 0.78162 0.3634 0.0
C567 C 0.69186 0.78763 0.4308 0.0
C568 C 0.77726 0.78919 0.36242 0.0
C569 C 0.62701 0.63034 0.33645 0.0
C570 C 0.63229 0.62086 0.36038 0.0
C571 C 0.74022 0.87365 0.38508 0.0
C572 C 0.54051 0.80698 0.40638 0.0
C573 C 0.47852 0.80452 0.39754 0.0
C574 C 0.45884 0.76526 0.40503 0.0
C575 C 0.52015 0.76793 0.41377 0.0
C576 C 0.51961 0.82522 0.39836 0.0
C577 C 0.47951 0.7473 0.41317 0.0
C578 C 0.66488 0.81813 0.34337 0.0
C579 C 0.58346 0.82936 0.40652 0.0
H580 H 0.84746 0.70726 0.34202 0.0
H581 H 0.74421 0.71535 0.3441 0.0
H582 H 0.7776 0.67879 0.33465 0.0
H583 H 0.85139 0.81019 0.37171 0.0
H584 H 0.42733 0.74856 0.4051 0.0
H585 H 0.53564 0.75351 0.42006 0.0
H586 H 0.53541 0.85541 0.39255 0.0
H587 H 0.46386 0.71724 0.41909 0.0
Eu588 Eu 0.94456 0.71153 0.86682 0.0
C589 C 0.804 0.69117 0.93345 0.0
N590 N 0.8286 0.67699 0.9369 0.0
C591 C 0.83265 0.69119 0.97979 0.0
C592 C 0.79258 0.70583 0.95331 0.0
C593 C 0.84261 0.6763 0.95965 0.0
C594 C 0.80756 0.70606 0.97662 0.0
C595 C 0.7629 0.70352 0.90611 0.0
C596 C 0.79006 0.69095 0.90996 0.0
C597 C 0.75116 0.71773 0.92592 0.0
C598 C 0.76634 0.71935 0.94937 0.0
Eu599 Eu 0.8418 0.65106 0.9019 0.0
N600 N 0.80273 0.67808 0.89094 0.0
C601 C 0.74778 0.70073 0.88254 0.0
C602 C 0.78813 0.67542 0.86793 0.0
C603 C 0.76075 0.68705 0.86333 0.0
H604 H 0.86087 0.66358 0.96245 0.0
H605 H 0.74895 0.68453 0.84508 0.0
H606 H 0.9256 0.6808 0.80867 0.0
H607 H 0.04819 0.7065 0.93115 0.0
H608 H 0.79621 0.66295 0.85324 0.0
H609 H 0.72559 0.70844 0.87904 0.0
H610 H 1.00706 0.73117 0.91397 0.0
H611 H 0.8439 0.69072 0.9978 0.0
H612 H 0.73035 0.72756 0.92329 0.0
H613 H 0.75714 0.7306 0.96442 0.0
H614 H 0.93743 0.6389 0.78068 0.0
H615 H 0.79958 0.7172 0.99231 0.0
H616 H 0.05739 0.65824 0.9079 0.0
N617 N 0.95686 0.6744 0.83824 0.0
C618 C 0.98022 0.6604 0.84591 0.0
C619 C 0.94933 0.64441 0.79905 0.0
C620 C 0.98787 0.63649 0.83059 0.0
C621 C 0.94233 0.66777 0.81498 0.0
C622 C 0.97183 0.62833 0.80698 0.0
N623 N 0.9879 0.69278 0.88371 0.0
C624 C 1.00834 0.70797 0.90479 0.0
C625 C 0.0204 0.65571 0.87784 0.0
C626 C 0.99572 0.66942 0.86944 0.0
C627 C 0.03817 0.66802 0.90079 0.0
C628 C 0.03282 0.69501 0.91406 0.0
H629 H 0.97703 0.61007 0.79464 0.0
H630 H 0.01714 0.60286 0.82786 0.0
H631 H 0.04599 0.62005 0.8691 0.0
O632 O 0.99629 0.77075 0.87192 0.0
O633 O 0.91319 0.64423 0.86728 0.0
O634 O 0.8844 0.62966 0.9049 0.0
O635 O 0.97645 0.7464 0.83546 0.0
O636 O 0.94164 0.72429 0.90744 0.0
O637 O 0.89594 0.66592 0.92497 0.0
O638 O 0.78948 0.59924 0.88856 0.0
O639 O 0.86982 0.71709 0.90089 0.0
O640 O 0.90314 0.73559 0.86443 0.0
O641 O 0.80201 0.60579 0.92738 0.0
O642 O 0.84377 0.63903 0.86077 0.0
O643 O 0.89117 0.69752 0.84457 0.0
C644 C 0.89806 0.62024 0.88602 0.0
C645 C 0.03358 0.81063 0.83609 0.0
C646 C 0.08571 0.8791 0.83533 0.0
C647 C 0.0931 0.87443 0.81078 0.0
C648 C 0.04196 0.80721 0.81151 0.0
C649 C 0.07138 0.83884 0.79901 0.0
C650 C 0.05553 0.847 0.84803 0.0
C651 C 0.92842 0.70013 0.9263 0.0
C652 C 1.00157 0.7758 0.84833 0.0
C653 C 1.01115 0.62153 0.8393 0.0
C654 C 0.02744 0.63117 0.86283 0.0
C655 C 0.8834 0.74059 0.88196 0.0
C656 C 0.75722 0.54161 0.91274 0.0
C657 C 0.69678 0.47852 0.90841 0.0
C658 C 0.7162 0.46048 0.91907 0.0
C659 C 0.77567 0.52271 0.92313 0.0
C660 C 0.71786 0.51943 0.90532 0.0
C661 C 0.75517 0.48238 0.92628 0.0
C662 C 0.86055 0.66277 0.84206 0.0
C663 C 0.77766 0.58446 0.91029 0.0
H664 H 0.11584 0.89857 0.8006 0.0
H665 H 0.0258 0.77986 0.80182 0.0
H666 H 0.07745 0.83573 0.7801 0.0
H667 H 0.04956 0.8502 0.86697 0.0
H668 H 0.7011 0.4294 0.92239 0.0
H669 H 0.8057 0.53916 0.92908 0.0
H670 H 0.70377 0.53417 0.89716 0.0
H671 H 0.76938 0.46795 0.93461 0.0
Eu672 Eu 0.23396 0.93752 0.36311 0.0
C673 C 0.11291 0.7918 0.42345 0.0
N674 N 0.14996 0.81937 0.42921 0.0
C675 C 0.13065 0.82253 0.47028 0.0
C676 C 0.08316 0.77829 0.4412 0.0
C677 C 0.15934 0.83456 0.45223 0.0
C678 C 0.0924 0.79424 0.46476 0.0
C679 C 0.06668 0.74774 0.39351 0.0
C680 C 0.10471 0.77721 0.39967 0.0
C681 C 0.03734 0.7334 0.41139 0.0
C682 C 0.04538 0.74901 0.43503 0.0
Eu683 Eu 0.19675 0.83507 0.39833 0.0
N684 N 0.13389 0.79117 0.38278 0.0
C685 C 0.05936 0.73288 0.36969 0.0
C686 C 0.12713 0.77528 0.35988 0.0
C687 C 0.08973 0.7467 0.35284 0.0
H688 H 0.18904 0.8554 0.45688 0.0
H689 H 0.08459 0.73451 0.33458 0.0
H690 H 0.21291 0.92603 0.30333 0.0
H691 H 0.37403 0.0208 0.40965 0.0
H692 H 0.15044 0.78298 0.34715 0.0
H693 H 0.03056 0.71019 0.36428 0.0
H694 H 0.30255 0.98029 0.40672 0.0
H695 H 0.13817 0.83469 0.48853 0.0
H696 H 1.00831 0.71 0.40713 0.0
H697 H 0.02226 0.73789 0.44851 0.0
H698 H 0.24768 0.94366 0.26378 0.0
H699 H 0.07031 0.78466 0.47887 0.0
H700 H 0.41395 0.04037 0.37195 0.0
N701 N 0.2646 0.95332 0.32458 0.0
C702 C 0.30404 0.97552 0.32468 0.0
C703 C 0.26396 0.95236 0.28074 0.0
C704 C 0.32517 0.98645 0.30256 0.0
C705 C 0.24433 0.94211 0.30313 0.0
C706 C 0.30459 0.97433 0.28042 0.0
N707 N 0.30208 0.97625 0.36802 0.0
C708 C 0.31964 0.98846 0.39027 0.0
C709 C 0.36422 0.01086 0.34774 0.0
C710 C 0.32333 0.98775 0.347 0.0
C711 C 0.38257 0.02259 0.37059 0.0
C712 C 0.36014 0.01153 0.39193 0.0
H713 H 0.31972 0.98221 0.26302 0.0
H714 H 0.3827 0.01792 0.28643 0.0
H715 H 0.41688 0.03917 0.32596 0.0
O716 O 0.23314 0.98831 0.37833 0.0
O717 O 0.2763 0.91303 0.36322 0.0
O718 O 0.25956 0.88126 0.39965 0.0
O719 O 0.21601 0.97144 0.34075 0.0
O720 O 0.22225 0.93515 0.40399 0.0
O721 O 0.23392 0.88908 0.42209 0.0
O722 O 0.20183 0.78349 0.39035 0.0
O723 O 0.15856 0.86286 0.39941 0.0
O724 O 0.16935 0.89195 0.36174 0.0
O725 O 0.20786 0.80389 0.42743 0.0
O726 O 0.21239 0.83856 0.35719 0.0
O727 O 0.19482 0.88216 0.3431 0.0
C728 C 0.28226 0.8934 0.38061 0.0
C729 C 0.24034 0.03757 0.35023 0.0
C730 C 0.23809 0.09818 0.34714 0.0
C731 C 0.27111 0.11333 0.33182 0.0
C732 C 0.27365 0.05381 0.33547 0.0
C733 C 0.28887 0.09149 0.32632 0.0
C734 C 0.22291 0.0599 0.35628 0.0
C735 C 0.2339 0.92256 0.4227 0.0
C736 C 0.22168 0.99649 0.35785 0.0
C737 C 0.36595 0.00932 0.30323 0.0
C738 C 0.38542 0.02147 0.32575 0.0
C739 C 0.14611 0.87348 0.38026 0.0
C740 C 0.17454 0.7353 0.42155 0.0
C741 C 0.14455 0.66425 0.41764 0.0
C742 C 0.11891 0.65985 0.43677 0.0
C743 C 0.14846 0.72959 0.44065 0.0
C744 C 0.17253 0.70238 0.41013 0.0
C745 C 0.12085 0.69221 0.44806 0.0
C746 C 0.20403 0.85527 0.33897 0.0
C747 C 0.20312 0.77542 0.41335 0.0
H748 H 0.28311 0.14199 0.32369 0.0
H749 H 0.28737 0.03709 0.33058 0.0
H750 H 0.31423 0.10364 0.31458 0.0
H751 H 0.19753 0.04727 0.36803 0.0
H752 H 0.09772 0.63124 0.44347 0.0
H753 H 0.14932 0.75398 0.45002 0.0
H754 H 0.19243 0.70648 0.39536 0.0
H755 H 0.10103 0.68829 0.46281 0.0
Eu756 Eu 0.31976 0.25164 0.87094 0.0
C757 C 0.3275 0.11292 0.92609 0.0
N758 N 0.34477 0.15138 0.93182 0.0
C759 C 0.33074 0.13553 0.97437 0.0
C760 C 0.31101 0.08414 0.94451 0.0
C761 C 0.34718 0.16306 0.95557 0.0
C762 C 0.31248 0.09591 0.96883 0.0
C763 C 0.31011 0.06264 0.89541 0.0
C764 C 0.32633 0.10222 0.90169 0.0
C765 C 0.29379 0.03397 0.91373 0.0
C766 C 0.29391 0.04466 0.93817 0.0
Eu767 Eu 0.37207 0.19519 0.89869 0.0
N768 N 0.34111 0.13048 0.88413 0.0
C769 C 0.31129 0.05305 0.87092 0.0
C770 C 0.3423 0.12116 0.86024 0.0
C771 C 0.32717 0.08239 0.85325 0.0
H772 H 0.36246 0.19358 0.96019 0.0
H773 H 0.32848 0.07522 0.83429 0.0
H774 H 0.35222 0.27569 0.81336 0.0
H775 H 0.33634 0.34826 0.94704 0.0
H776 H 0.35598 0.14337 0.84653 0.0
H777 H 0.3006 0.02316 0.8655 0.0
H778 H 0.30457 0.28752 0.92312 0.0
H779 H 0.33258 0.1449 0.99317 0.0
H780 H 0.28093 1.00341 0.90918 0.0
H781 H 0.28108 0.02218 0.95208 0.0
H782 H 0.39953 0.33348 0.78993 0.0
H783 H 0.30005 0.07466 0.98348 0.0
H784 H 0.39082 0.40768 0.92889 0.0
N785 N 0.36161 0.30624 0.84662 0.0
C786 C 0.37977 0.3414 0.85803 0.0
C787 C 0.39443 0.33609 0.80912 0.0
C788 C 0.40709 0.37525 0.84549 0.0
C789 C 0.36785 0.3033 0.8224 0.0
C790 C 0.41443 0.37219 0.82077 0.0
N791 N 0.34489 0.30991 0.89403 0.0
C792 C 0.33033 0.31212 0.91611 0.0
C793 C 0.38954 0.37921 0.89484 0.0
C794 C 0.3716 0.34314 0.88254 0.0
C795 C 0.37788 0.38057 0.9188 0.0
C796 C 0.34736 0.34703 0.92921 0.0
H797 H 0.43523 0.3975 0.81049 0.0
H798 H 0.44766 0.43713 0.84876 0.0
H799 H 0.4319 0.44072 0.8919 0.0
O800 O 0.2648 0.24976 0.87949 0.0
O801 O 0.38671 0.27959 0.87045 0.0
O802 O 0.39832 0.25901 0.90676 0.0
O803 O 0.28621 0.26073 0.84246 0.0
O804 O 0.30363 0.22548 0.9091 0.0
O805 O 0.35979 0.23178 0.92594 0.0
O806 O 0.42564 0.20063 0.8832 0.0
O807 O 0.30602 0.16038 0.89654 0.0
O808 O 0.28823 0.18575 0.86409 0.0
O809 O 0.41318 0.1877 0.92162 0.0
O810 O 0.38115 0.21137 0.85746 0.0
O811 O 0.32693 0.21366 0.84377 0.0
C812 C 0.40968 0.28499 0.88929 0.0
C813 C 0.21819 0.22033 0.84797 0.0
C814 C 0.14673 0.18624 0.84884 0.0
C815 C 0.14605 0.15775 0.83322 0.0
C816 C 0.21635 0.19119 0.83249 0.0
C817 C 0.18055 0.16028 0.82516 0.0
C818 C 0.18318 0.21781 0.85605 0.0
C819 C 0.32601 0.23068 0.92818 0.0
C820 C 0.25654 0.25185 0.85663 0.0
C821 C 0.4263 0.41087 0.85802 0.0
C822 C 0.41749 0.41287 0.88262 0.0
C823 C 0.28181 0.15673 0.87891 0.0
C824 C 0.4792 0.21466 0.9095 0.0
C825 C 0.54231 0.2171 0.91023 0.0
C826 C 0.55798 0.25239 0.92319 0.0
C827 C 0.49555 0.24968 0.92255 0.0
C828 C 0.50276 0.19859 0.90316 0.0
C829 C 0.53476 0.26844 0.92927 0.0
C830 C 0.35808 0.21095 0.83964 0.0
C831 C 0.43717 0.1931 0.90384 0.0
H832 H 0.1187 0.13355 0.82698 0.0
H833 H 0.24266 0.19213 0.82614 0.0
H834 H 0.17952 0.13809 0.81319 0.0
H835 H 0.18436 0.23982 0.8683 0.0
H836 H 0.5883 0.26762 0.92868 0.0
H837 H 0.4778 0.26205 0.92792 0.0
H838 H 0.48998 0.17108 0.89349 0.0
H839 H 0.54719 0.29535 0.93947 0.0
Eu840 Eu 0.0745 0.31497 0.37199 0.0
C841 C 0.22084 0.33027 0.43181 0.0
N842 N 0.19792 0.34615 0.43602 0.0
C843 C 0.19841 0.33462 0.47912 0.0
C844 C 0.23368 0.31609 0.45134 0.0
C845 C 0.18708 0.34909 0.45926 0.0
C846 C 0.22174 0.31799 0.47516 0.0
C847 C 0.25792 0.3149 0.4032 0.0
C848 C 0.23195 0.32862 0.40789 0.0
C849 C 0.2709 0.30092 0.42261 0.0
C850 C 0.2584 0.30103 0.44657 0.0
Eu851 Eu 0.18225 0.37109 0.40123 0.0
N852 N 0.21786 0.34098 0.38926 0.0
C853 C 0.27077 0.31647 0.37916 0.0
C854 C 0.22957 0.34165 0.36572 0.0
C855 C 0.25608 0.3293 0.3603 0.0
H856 H 0.1704 0.36331 0.46268 0.0
H857 H 0.26584 0.33051 0.34166 0.0
H858 H 0.0859 0.35897 0.3173 0.0
H859 H 0.97471 0.30025 0.44508 0.0
H860 H 0.21978 0.35301 0.35117 0.0
H861 H 0.29241 0.30832 0.37501 0.0
H862 H 0.01381 0.2811 0.42004 0.0
H863 H 0.18962 0.33684 0.49752 0.0
H864 H 0.29061 0.28995 0.41929 0.0
H865 H 0.26859 0.29005 0.46135 0.0
H866 H 0.07244 0.40758 0.29803 0.0
H867 H 0.23087 0.30725 0.49063 0.0
H868 H 0.96899 0.35755 0.43332 0.0
N869 N 0.06045 0.35927 0.35128 0.0
C870 C 0.04016 0.37257 0.36417 0.0
C871 C 0.06336 0.39811 0.31668 0.0
C872 C 0.03206 0.40054 0.35405 0.0
C873 C 0.07098 0.37061 0.32757 0.0
C874 C 0.04427 0.41355 0.33008 0.0
N875 N 0.03434 0.32976 0.39628 0.0
C876 C 0.0135 0.30745 0.41566 0.0
C877 C 1.00447 0.36949 0.40083 0.0
C878 C 0.02733 0.35783 0.3875 0.0
C879 C 0.98709 0.34983 0.42262 0.0
C880 C 0.99053 0.31775 0.42953 0.0
H881 H 0.03868 0.43507 0.32167 0.0
H882 H 1.00572 0.43616 0.3607 0.0
H883 H 0.98099 0.40851 0.40154 0.0
O884 O 0.02264 0.25632 0.37586 0.0
O885 O 0.11187 0.38201 0.37086 0.0
O886 O 0.14446 0.39758 0.4073 0.0
O887 O 0.03771 0.28578 0.34038 0.0
O888 O 0.08383 0.30117 0.41124 0.0
O889 O 0.13179 0.35944 0.42698 0.0
O890 O 0.23245 0.42128 0.38461 0.0
O891 O 0.15236 0.30501 0.40004 0.0
O892 O 0.11128 0.28587 0.36658 0.0
O893 O 0.22833 0.416 0.42404 0.0
O894 O 0.17652 0.38004 0.35984 0.0
O895 O 0.12176 0.32477 0.34571 0.0
C896 C 0.12769 0.40584 0.3895 0.0
C897 C 0.97974 0.22157 0.34105 0.0
C898 C 0.9255 0.15421 0.34129 0.0
C899 C 0.91533 0.16006 0.31759 0.0
C900 C 0.96873 0.22634 0.31736 0.0
C901 C 0.93682 0.19578 0.30576 0.0
C902 C 0.9581 0.18515 0.35298 0.0
C903 C 0.09918 0.3257 0.42964 0.0
C904 C 0.01392 0.25486 0.35273 0.0
C905 C 1.01176 0.41428 0.36802 0.0
C906 C 0.9979 0.39871 0.39135 0.0
C907 C 0.1345 0.28114 0.38179 0.0
C908 C 0.27033 0.4792 0.40729 0.0
C909 C 0.33129 0.54154 0.40245 0.0
C910 C 0.31177 0.5606 0.41119 0.0
C911 C 0.25166 0.499 0.41566 0.0
C912 C 0.31004 0.50049 0.40065 0.0
C913 C 0.27242 0.53949 0.41768 0.0
C914 C 0.15483 0.35694 0.34185 0.0
C915 C 0.24922 0.43637 0.40544 0.0
H916 H 0.89075 0.13675 0.30807 0.0
H917 H 0.98476 0.25383 0.30774 0.0
H918 H 0.92866 0.19981 0.2875 0.0
H919 H 0.96621 0.18102 0.37125 0.0
H920 H 0.32706 0.5919 0.41348 0.0
H921 H 0.2212 0.48316 0.42078 0.0
H922 H 0.3242 0.48502 0.39391 0.0
H923 H 0.25808 0.55462 0.42458 0.0
Eu924 Eu 0.78725 0.08626 0.8701 0.0
C925 C 0.90861 0.21945 0.94011 0.0
N926 N 0.8691 0.19951 0.94203 0.0
C927 C 0.87397 0.19437 0.98553 0.0
C928 C 0.93239 0.22709 0.96099 0.0
C929 C 0.85156 0.18761 0.96435 0.0
C930 C 0.91453 0.21403 0.98384 0.0
C931 C 0.9663 0.25281 0.91453 0.0
C932 C 0.92547 0.23217 0.91713 0.0
C933 C 0.98999 0.26037 0.9353 0.0
C934 C 0.97309 0.2475 0.95844 0.0
Eu935 Eu 0.8345 0.19021 0.90501 0.0
N936 N 0.90187 0.2231 0.89719 0.0
C937 C 0.98205 0.26484 0.89106 0.0
C938 C 0.91693 0.23555 0.87441 0.0
C939 C 0.95725 0.25624 0.87091 0.0
H940 H 0.82031 0.17358 0.966 0.0
H941 H 0.96915 0.26555 0.85272 0.0
H942 H 0.80343 0.09189 0.80954 0.0
H943 H 0.65134 1.00387 0.92076 0.0
H944 H 0.8977 0.22894 0.85903 0.0
H945 H 0.01326 0.28088 0.88831 0.0
H946 H 0.72238 0.04422 0.91554 0.0
H947 H 0.85994 0.18472 0.00317 0.0
H948 H 0.02142 0.27599 0.93364 0.0
H949 H 0.99179 0.25352 0.97428 0.0
H950 H 0.76516 0.07067 0.77116 0.0
H951 H 0.93179 0.21931 1.00031 0.0
H952 H 0.60817 0.98432 0.88443 0.0
N953 N 0.75348 0.06791 0.83249 0.0
C954 C 0.71403 0.04709 0.83382 0.0
C955 C 0.75046 0.06415 0.78866 0.0
C956 C 0.6911 0.03445 0.81239 0.0
C957 C 0.77198 0.07616 0.81039 0.0
C958 C 0.70984 0.04358 0.78963 0.0
N959 N 0.71954 0.0489 0.87702 0.0
C960 C 0.70391 0.03654 0.89972 0.0
C961 C 0.65575 0.01374 0.85875 0.0
C962 C 0.69654 0.03694 0.85672 0.0
C963 C 0.63937 1.00225 0.8821 0.0
C964 C 0.66363 0.01328 0.90266 0.0
H965 H 0.69326 0.03432 0.77274 0.0
H966 H 0.63228 1.00257 0.79807 0.0
H967 H 0.60134 0.98438 0.83865 0.0
O968 O 0.78689 0.03605 0.88744 0.0
O969 O 0.74781 0.11339 0.87267 0.0
O970 O 0.76905 0.1544 0.90637 0.0
O971 O 0.80145 0.04845 0.84913 0.0
O972 O 0.80542 0.09432 0.91019 0.0
O973 O 0.79189 0.13789 0.9283 0.0
O974 O 0.8413 0.24471 0.89024 0.0
O975 O 0.87009 0.15936 0.90114 0.0
O976 O 0.85135 0.12836 0.86414 0.0
O977 O 0.83424 0.23382 0.92924 0.0
O978 O 0.82013 0.1902 0.86407 0.0
O979 O 0.822 0.13844 0.84575 0.0
C980 C 0.74458 0.13703 0.88826 0.0
C981 C 0.77439 0.98311 0.86141 0.0
C982 C 0.77361 0.92107 0.85853 0.0
C983 C 0.73788 0.90556 0.84582 0.0
C984 C 0.73849 0.96667 0.84925 0.0
C985 C 0.72037 0.92807 0.84154 0.0
C986 C 0.79156 0.96018 0.86635 0.0
C987 C 0.79048 0.1039 0.92843 0.0
C988 C 0.79583 0.02485 0.86726 0.0
C989 C 0.65037 0.01238 0.81433 0.0
C990 C 0.63275 1.00202 0.83745 0.0
C991 C 0.87717 0.14445 0.88167 0.0
C992 C 0.81565 0.27791 0.91273 0.0
C993 C 0.81184 0.33711 0.90549 0.0
C994 C 0.77547 0.31906 0.91741 0.0
C995 C 0.77921 0.26059 0.92424 0.0
C996 C 0.8317 0.316 0.90324 0.0
C997 C 0.75943 0.28123 0.92665 0.0
C998 C 0.81981 0.17042 0.84455 0.0
C999 C 0.8384 0.25775 0.91153 0.0
H1000 H 0.72355 0.87617 0.83875 0.0
H1001 H 0.72492 0.98387 0.84525 0.0
H1002 H 0.69293 0.9157 0.83179 0.0
H1003 H 0.81899 0.97308 0.87615 0.0
H1004 H 0.75966 0.33446 0.92018 0.0
H1005 H 0.76627 0.23134 0.93163 0.0
H1006 H 0.85977 0.32914 0.89422 0.0
H1007 H 0.73161 0.268 0.9359 0.0
C1008 C 0.17614 0.93967 0.10896 0.0
C1009 C 0.16021 0.91052 0.12705 0.0
C1010 C 0.18789 0.97875 0.1143 0.0
C1011 C 0.18285 0.98916 0.13825 0.0
C1012 C 0.16505 0.95954 0.15631 0.0
C1013 C 0.15413 0.92073 0.15054 0.0
C1014 C 0.20706 0.00911 0.09448 0.0
C1015 C 0.15885 0.9691 0.18205 0.0
C1016 C 0.25123 0.09217 0.1614 0.0
C1017 C 0.2283 0.10992 0.15952 0.0
C1018 C 0.23695 0.0533 0.15433 0.0
C1019 C 0.19865 0.03122 0.14489 0.0
C1020 C 0.17566 0.04931 0.14222 0.0
C1021 C 0.1908 0.08848 0.14947 0.0
C1022 C 0.26303 0.03594 0.15708 0.0
C1023 C 0.13459 0.02687 0.13249 0.0
H1024 H 0.18008 0.93208 0.09058 0.0
H1025 H 0.14187 0.89859 0.16469 0.0
H1026 H 0.19311 0.0273 0.09304 0.0
H1027 H 0.2381 0.02875 0.09926 0.0
H1028 H 0.20565 0.99596 0.07631 0.0
H1029 H 0.14173 0.94255 0.19337 0.0
H1030 H 0.18745 0.98748 0.19104 0.0
H1031 H 0.14351 0.98606 0.18165 0.0
H1032 H 0.28039 0.10866 0.1689 0.0
H1033 H 0.17273 0.1018 0.14821 0.0
H1034 H 0.27084 0.03054 0.13865 0.0
H1035 H 0.24773 1.00758 0.16681 0.0
H1036 H 0.29033 0.05544 0.16714 0.0
H1037 H 0.13429 0.01421 0.11435 0.0
H1038 H 0.12097 0.04535 0.13064 0.0
H1039 H 0.11654 1.00227 0.14502 0.0
C1040 C 0.23925 0.15584 0.60523 0.0
C1041 C 0.25341 0.14358 0.62491 0.0
C1042 C 0.21329 0.16981 0.60899 0.0
C1043 C 0.20152 0.17225 0.63311 0.0
C1044 C 0.21545 0.15951 0.65304 0.0
C1045 C 0.24085 0.14497 0.64868 0.0
C1046 C 0.19909 0.18268 0.58714 0.0
C1047 C 0.20484 0.16279 0.67911 0.0
C1048 C 0.17085 0.24812 0.64397 0.0
C1049 C 0.1302 0.22541 0.64629 0.0
C1050 C 0.19412 0.23111 0.64031 0.0
C1051 C 0.17663 0.1903 0.6376 0.0
C1052 C 0.13556 0.16708 0.6391 0.0
C1053 C 0.11294 0.18476 0.64379 0.0
C1054 C 0.23762 0.25712 0.63923 0.0
C1055 C 0.11552 0.12352 0.63581 0.0
H1056 H 0.24872 0.15475 0.58679 0.0
H1057 H 0.25213 0.13613 0.66402 0.0
H1058 H 0.16687 0.16859 0.58748 0.0
H1059 H 0.21095 0.21459 0.58787 0.0
H1060 H 0.20808 0.17565 0.56951 0.0
H1061 H 0.21691 0.1504 0.6925 0.0
H1062 H 0.21612 0.19387 0.68366 0.0
H1063 H 0.17274 0.14756 0.68121 0.0
H1064 H 0.18485 0.27954 0.64494 0.0
H1065 H 0.08175 0.16649 0.64583 0.0
H1066 H 0.24751 0.25736 0.62027 0.0
H1067 H 0.25213 0.24577 0.65144 0.0
H1068 H 0.24708 0.28757 0.6446 0.0
H1069 H 0.12395 0.11655 0.61797 0.0
H1070 H 0.0833 0.10968 0.63644 0.0
H1071 H 0.12499 0.11045 0.65037 0.0
C1072 C 0.94159 0.10582 0.14904 0.0
C1073 C 0.91793 0.12276 0.15158 0.0
C1074 C 0.98194 0.12884 0.14469 0.0
C1075 C 0.99944 0.1699 0.14346 0.0
C1076 C 0.97584 0.18707 0.14633 0.0
C1077 C 0.93557 0.16345 0.14976 0.0
C1078 C 1.00588 0.10922 0.14144 0.0
C1079 C 0.9929 0.23053 0.14534 0.0
C1080 C 0.10866 0.23565 0.15421 0.0
C1081 C 0.12235 0.24819 0.13036 0.0
C1082 C 0.06892 0.20954 0.1587 0.0
C1083 C 0.04224 0.19513 0.13885 0.0
C1084 C 0.05622 0.20683 0.11466 0.0
C1085 C 0.09598 0.23322 0.11074 0.0
C1086 C 0.05522 0.19874 0.18481 0.0
C1087 C 0.02905 0.19221 0.09292 0.0
H1088 H 0.92879 0.07458 0.15074 0.0
H1089 H 0.91788 0.17716 0.15086 0.0
H1090 H 0.02103 0.11758 0.1235 0.0
H1091 H 0.02863 0.11914 0.15585 0.0
H1092 H 0.98786 0.07698 0.14232 0.0
H1093 H 0.972 0.23966 0.15151 0.0
H1094 H 0.0195 0.24538 0.15684 0.0
H1095 H 1.0012 0.24035 0.1262 0.0
H1096 H 0.12875 0.24744 0.16949 0.0
H1097 H 0.10639 0.24249 0.09223 0.0
H1098 H 0.03838 0.16663 0.18693 0.0
H1099 H 0.03546 0.21002 0.1895 0.0
H1100 H 0.07976 0.21074 0.19809 0.0
H1101 H 1.01199 0.15992 0.09312 0.0
H1102 H 0.04485 0.20202 0.07522 0.0
H1103 H 1.00802 0.20287 0.09397 0.0
C1104 C 0.78841 0.92285 0.65016 0.0
C1105 C 0.81464 0.90889 0.65024 0.0
C1106 C 0.79991 0.9609 0.64247 0.0
C1107 C 0.83879 0.9859 0.63484 0.0
C1108 C 0.86474 0.97109 0.63339 0.0
C1109 C 0.8523 0.93264 0.64108 0.0
C1110 C 0.77109 0.97511 0.64398 0.0
C1111 C 0.90642 0.99668 0.62543 0.0
C1112 C 0.86216 0.083 0.6057 0.0
C1113 C 0.87454 0.10787 0.62607 0.0
C1114 C 0.85108 0.04339 0.60805 0.0
C1115 C 0.85311 0.02839 0.63128 0.0
C1116 C 0.86695 0.05375 0.65171 0.0
C1117 C 0.87737 0.09301 0.64888 0.0
C1118 C 0.83628 0.01743 0.58583 0.0
C1119 C 0.86975 0.03917 0.67682 0.0
H1120 H 0.7593 0.90449 0.65733 0.0
H1121 H 0.87276 0.92203 0.64145 0.0
H1122 H 0.78025 0.99761 0.65845 0.0
H1123 H 0.77046 0.98885 0.62641 0.0
H1124 H 0.74117 0.95125 0.64819 0.0
H1125 H 0.9213 0.97967 0.62217 0.0
H1126 H 0.90784 0.0128 0.60845 0.0
H1127 H 0.9226 0.01857 0.63987 0.0
H1128 H 0.86074 0.09438 0.5879 0.0
H1129 H 0.88695 0.11188 0.66476 0.0
H1130 H 0.80529 0.99503 0.58854 0.0
H1131 H 0.85277 1.00188 0.58333 0.0
H1132 H 0.83865 0.03398 0.56883 0.0
H1133 H 0.84025 0.01735 0.6833 0.0
H1134 H 0.88313 0.06299 0.69051 0.0
H1135 H 0.88729 0.02447 0.67596 0.0
C1136 C 0.86168 0.76354 0.13812 0.0
C1137 C 0.90234 0.78706 0.13706 0.0
C1138 C 0.83718 0.77919 0.13454 0.0
C1139 C 0.8535 0.81938 0.12941 0.0
C1140 C 0.89449 0.84321 0.12771 0.0
C1141 C 0.91843 0.8268 0.13158 0.0
C1142 C 0.79373 0.75265 0.13634 0.0
C1143 C 0.91305 0.8862 0.12232 0.0
C1144 C 0.78578 0.85132 0.10128 0.0
C1145 C 0.7741 0.86377 0.12195 0.0
C1146 C 0.81208 0.83742 0.10332 0.0
C1147 C 0.82754 0.83641 0.12657 0.0
C1148 C 0.8167 0.85 0.1474 0.0
C1149 C 0.79015 0.8635 0.14485 0.0
C1150 C 0.82267 0.82306 0.08066 0.0
C1151 C 0.83227 0.84924 0.17256 0.0
H1152 H 0.84889 0.73266 0.14179 0.0
H1153 H 0.94979 0.84532 0.13093 0.0
H1154 H 0.78132 0.76385 0.15014 0.0
H1155 H 0.7802 0.75212 0.11846 0.0
H1156 H 0.78562 0.72235 0.14136 0.0
H1157 H 0.94521 0.90045 0.1206 0.0
H1158 H 0.90105 0.89088 0.10507 0.0
H1159 H 0.90609 0.90072 0.1372 0.0
H1160 H 0.77405 0.85207 0.08346 0.0
H1161 H 0.78125 0.87293 0.16096 0.0
H1162 H 0.81259 0.79157 0.0826 0.0
H1163 H 0.85475 0.8384 0.07842 0.0
H1164 H 0.80947 0.82738 0.06381 0.0
H1165 H 0.8223 0.81869 0.17802 0.0
H1166 H 0.82258 0.86265 0.18667 0.0
H1167 H 0.86457 0.86492 0.17229 0.0
C1168 C 0.92468 0.78202 0.64667 0.0
C1169 C 0.90933 0.76582 0.62365 0.0
C1170 C 0.9644 0.80938 0.64976 0.0
C1171 C 0.98985 0.82114 0.62934 0.0
C1172 C 0.97441 0.80568 0.60591 0.0
C1173 C 0.93438 0.77843 0.60333 0.0
C1174 C 0.97939 0.82473 0.67513 0.0
C1175 C 1.00031 0.81729 0.58365 0.0
C1176 C 0.08893 0.91262 0.63974 0.0
C1177 C 0.11144 0.8964 0.64769 0.0
C1178 C 0.04974 0.88861 0.63251 0.0
C1179 C 0.03282 0.84748 0.63313 0.0
C1180 C 0.05636 0.83132 0.63977 0.0
C1181 C 0.09518 0.85586 0.64695 0.0
C1182 C 0.02585 0.90718 0.62561 0.0
C1183 C 0.04012 0.78792 0.64022 0.0
H1184 H 0.9058 0.77256 0.66257 0.0
H1185 H 0.9228 0.76666 0.5854 0.0
H1186 H 1.0 0.81507 0.6811 0.0
H1187 H 0.99557 0.85703 0.67497 0.0
H1188 H 0.95559 0.81453 0.68883 0.0
H1189 H 0.98361 0.80423 0.56655 0.0
H1190 H 0.01653 0.84943 0.58163 0.0
H1191 H 0.02218 0.80786 0.58592 0.0
H1192 H 0.10126 0.94392 0.64048 0.0
H1193 H 0.11259 0.84323 0.65289 0.0
H1194 H 1.00416 0.90135 0.64019 0.0
H1195 H 1.00949 0.89436 0.60841 0.0
H1196 H 0.04414 0.9392 0.62319 0.0
H1197 H 0.01514 0.77396 0.65304 0.0
H1198 H 0.06214 0.77985 0.6458 0.0
H1199 H 0.02924 0.77601 0.62172 0.0
C1200 C 0.08621 0.84897 0.35446 0.0
C1201 C 0.10374 0.85837 0.37766 0.0
C1202 C 0.04579 0.83278 0.35174 0.0
C1203 C 0.02236 0.82686 0.37266 0.0
C1204 C 0.03999 0.8364 0.39615 0.0
C1205 C 0.08041 0.85168 0.39838 0.0
C1206 C 0.02797 0.82094 0.32654 0.0
C1207 C 0.01619 0.83022 0.41896 0.0
C1208 C 0.92377 0.81869 0.36052 0.0
C1209 C 0.89806 0.77837 0.36259 0.0
C1210 C 0.96403 0.8349 0.36449 0.0
C1211 C 0.97939 0.81022 0.36985 0.0
C1212 C 0.95369 0.7696 0.37188 0.0
C1213 C 0.9135 0.75438 0.36882 0.0
C1214 C 0.9902 0.87848 0.36282 0.0
C1215 C 0.96814 0.74182 0.37765 0.0
H1216 H 0.104 0.85322 0.33843 0.0
H1217 H 0.09384 0.85865 0.41637 0.0
H1218 H 1.00623 0.78935 0.32646 0.0
H1219 H 0.01238 0.83675 0.32171 0.0
H1220 H 0.05008 0.82684 0.3122 0.0
H1221 H 0.03472 0.84274 0.43549 0.0
H1222 H 0.99753 0.84356 0.41671 0.0
H1223 H 0.99672 0.7986 0.42207 0.0
H1224 H 0.91267 0.83775 0.35541 0.0
H1225 H 0.89419 0.72341 0.37136 0.0
H1226 H 1.0107 0.88581 0.34729 0.0
H1227 H 1.0079 0.88955 0.37977 0.0
H1228 H 0.97352 0.8939 0.36014 0.0
H1229 H 0.99709 0.75154 0.36945 0.0
H1230 H 0.94761 0.71196 0.37101 0.0
H1231 H 0.97051 0.74034 0.39781 0.0
C1232 C 0.15146 0.93414 0.84584 0.0
C1233 C 0.11095 0.91774 0.84695 0.0
C1234 C 0.1767 0.97303 0.85243 0.0
C1235 C 0.16133 0.99652 0.86054 0.0
C1236 C 0.12034 0.97966 0.86268 0.0
C1237 C 0.09558 0.94039 0.85588 0.0
C1238 C 0.21993 0.98887 0.85065 0.0
C1239 C 0.10266 1.00346 0.87137 0.0
C1240 C 0.23453 0.08926 0.89369 0.0
C1241 C 0.24766 0.1171 0.87478 0.0
C1242 C 0.20534 0.05041 0.88964 0.0
C1243 C 0.18849 0.0388 0.86607 0.0
C1244 C 0.20055 0.06714 0.84712 0.0
C1245 C 0.22985 0.10589 0.85171 0.0
C1246 C 0.1936 0.0215 0.91043 0.0
C1247 C 0.18386 0.05605 0.82162 0.0
H1248 H 0.16344 0.91663 0.83909 0.0
H1249 H 0.06426 0.92796 0.85651 0.0
H1250 H 0.23441 0.01737 0.84103 0.0
H1251 H 0.23197 0.99338 0.86945 0.0
H1252 H 0.22719 0.9687 0.84099 0.0
H1253 H 0.07058 0.98558 0.87357 0.0
H1254 H 0.11572 0.01747 0.88914 0.0
H1255 H 0.10917 0.0271 0.85801 0.0
H1256 H 0.24767 0.09765 0.9117 0.0
H1257 H 0.23995 0.12698 0.83691 0.0
H1258 H 0.20279 0.9999 0.90634 0.0
H1259 H 0.16148 1.00527 0.91248 0.0
H1260 H 0.20694 0.03574 0.92814 0.0
H1261 H 0.19137 0.03485 0.81378 0.0
H1262 H 0.19504 0.08162 0.80916 0.0
H1263 H 0.15164 0.04165 0.82227 0.0
C1264 C 0.15608 0.23494 0.39658 0.0
C1265 C 0.14386 0.24974 0.37723 0.0
C1266 C 0.16844 0.20781 0.3924 0.0
C1267 C 0.16942 0.19559 0.36817 0.0
C1268 C 0.15663 0.21009 0.34858 0.0
C1269 C 0.1436 0.23661 0.35337 0.0
C1270 C 0.18146 0.19308 0.41391 0.0
C1271 C 0.15856 0.19913 0.32239 0.0
C1272 C 0.24331 0.16299 0.35548 0.0
C1273 C 0.2199 0.12245 0.35327 0.0
C1274 C 0.22715 0.18683 0.35978 0.0
C1275 C 0.18651 0.17002 0.36312 0.0
C1276 C 0.16261 0.12901 0.36171 0.0
C1277 C 0.17945 0.10578 0.3565 0.0
C1278 C 0.254 0.23013 0.3611 0.0
C1279 C 0.11925 0.10969 0.36572 0.0
H1280 H 0.15638 0.24493 0.41508 0.0
H1281 H 0.13482 0.24838 0.33827 0.0
H1282 H 0.16792 0.16093 0.41313 0.0
H1283 H 0.21347 0.20558 0.41322 0.0
H1284 H 0.17403 0.20119 0.43172 0.0
H1285 H 0.14594 0.21144 0.30934 0.0
H1286 H 0.18938 0.20999 0.31728 0.0
H1287 H 0.14284 0.16702 0.32037 0.0
H1288 H 0.27464 0.17643 0.35395 0.0
H1289 H 0.16074 0.07461 0.35464 0.0
H1290 H 0.25697 0.23915 0.38053 0.0
H1291 H 0.24188 0.2457 0.35062 0.0
H1292 H 0.2835 0.23915 0.3539 0.0
H1293 H 0.11326 0.11822 0.38383 0.0
H1294 H 0.10482 0.07743 0.36496 0.0
H1295 H 0.10599 0.11968 0.35161 0.0
C1296 C 0.07825 0.14576 0.86425 0.0
C1297 C 0.10909 0.18235 0.8572 0.0
C1298 C 0.0412 0.14026 0.8696 0.0
C1299 C 0.03455 0.17212 0.86795 0.0
C1300 C 0.0659 0.20948 0.86176 0.0
C1301 C 0.10283 0.21419 0.85657 0.0
C1302 C 1.00883 0.10002 0.87634 0.0
C1303 C 0.06028 0.24436 0.86024 0.0
C1304 C 0.93022 0.14782 0.85494 0.0
C1305 C 0.91709 0.15058 0.87827 0.0
C1306 C 0.96846 0.15525 0.85134 0.0
C1307 C 0.99434 0.16569 0.87153 0.0
C1308 C 0.98121 0.16846 0.89514 0.0
C1309 C 0.94274 0.16059 0.89823 0.0
C1310 C 0.98121 0.152 0.82585 0.0
C1311 C 1.0078 0.17982 0.91714 0.0
H1312 H 0.08298 0.12113 0.86526 0.0
H1313 H 0.12642 0.24252 0.85113 0.0
H1314 H 0.99552 0.10088 0.894 0.0
H1315 H 0.98559 0.08949 0.86221 0.0
H1316 H 0.01915 0.0787 0.87795 0.0
H1317 H 0.08645 0.27058 0.85303 0.0
H1318 H 0.03503 0.238 0.84834 0.0
H1319 H 0.0539 0.25109 0.87876 0.0
H1320 H 0.91076 0.14032 0.83937 0.0
H1321 H 0.93276 0.16237 0.91638 0.0
H1322 H 0.99013 0.12956 0.82557 0.0
H1323 H 1.00692 0.18006 0.8204 0.0
H1324 H 0.95783 0.14416 0.81203 0.0
H1325 H 0.99283 0.17971 0.93434 0.0
H1326 H 0.03311 0.20943 0.91439 0.0
H1327 H 0.0193 0.15958 0.91932 0.0
C1328 C 0.91771 0.09392 0.36235 0.0
C1329 C 0.90122 0.11558 0.35323 0.0
C1330 C 0.89393 0.05495 0.37006 0.0
C1331 C 0.8528 0.03741 0.3687 0.0
C1332 C 0.83633 0.06004 0.36065 0.0
C1333 C 0.86062 0.09867 0.35312 0.0
C1334 C 0.9128 0.03204 0.37859 0.0
C1335 C 0.7929 0.04332 0.35961 0.0
C1336 C 0.78851 0.92817 0.3585 0.0
C1337 C 0.77156 0.91492 0.38163 0.0
C1338 C 0.81583 0.96764 0.35433 0.0
C1339 C 0.82682 0.99479 0.37376 0.0
C1340 C 0.81066 0.9814 0.39734 0.0
C1341 C 0.78338 0.94169 0.401 0.0
C1342 C 0.83171 0.98054 0.32879 0.0
C1343 C 0.8214 0.00916 0.41859 0.0
H1344 H 0.9491 0.10681 0.36237 0.0
H1345 H 0.84777 0.11554 0.34647 0.0
H1346 H 0.90002 0.01734 0.39626 0.0
H1347 H 0.9071 0.009 0.36503 0.0
H1348 H 0.94479 0.05073 0.38088 0.0
H1349 H 0.78459 0.06353 0.35095 0.0
H1350 H 0.77887 0.01553 0.34929 0.0
H1351 H 0.78137 0.03712 0.37854 0.0
H1352 H 0.77953 0.90788 0.34335 0.0
H1353 H 0.77088 0.93169 0.41902 0.0
H1354 H 0.864 0.99714 0.32922 0.0
H1355 H 0.82179 1.00027 0.32143 0.0
H1356 H 0.82211 0.95562 0.31603 0.0
H1357 H 0.8535 0.02633 0.42069 0.0
H1358 H 0.80845 0.99382 0.43611 0.0
H1359 H 0.8111 0.03008 0.415 0.0
C1360 C 0.86279 0.78577 0.89948 0.0
C1361 C 0.87153 0.77042 0.87893 0.0
C1362 C 0.84904 0.81214 0.8969 0.0
C1363 C 0.84312 0.82289 0.87316 0.0
C1364 C 0.85206 0.80753 0.85234 0.0
C1365 C 0.86657 0.78187 0.85549 0.0
C1366 C 0.84027 0.82795 0.91961 0.0
C1367 C 0.84496 0.8171 0.82672 0.0
C1368 C 0.76855 0.85621 0.86684 0.0
C1369 C 0.79198 0.8965 0.86316 0.0
C1370 C 0.78483 0.83214 0.86971 0.0
C1371 C 0.82575 0.84858 0.87007 0.0
C1372 C 0.84979 0.88936 0.86723 0.0
C1373 C 0.83269 0.91273 0.86344 0.0
C1374 C 0.75803 0.78893 0.87218 0.0
C1375 C 0.89357 0.90827 0.86805 0.0
H1376 H 0.86655 0.777 0.91766 0.0
H1377 H 0.87266 0.76961 0.83953 0.0
H1378 H 0.8547 0.86017 0.91858 0.0
H1379 H 0.80849 0.81657 0.92095 0.0
H1380 H 0.84999 0.81974 0.9366 0.0
H1381 H 0.85402 0.80331 0.81247 0.0
H1382 H 0.81353 0.80697 0.82424 0.0
H1383 H 0.86104 0.84906 0.8238 0.0
H1384 H 0.73719 0.84318 0.86748 0.0
H1385 H 0.85137 0.94364 0.8603 0.0
H1386 H 0.76197 0.77937 0.89052 0.0
H1387 H 0.76551 0.77341 0.85827 0.0
H1388 H 0.72689 0.7803 0.86995 0.0
H1389 H 0.90273 0.90014 0.88528 0.0
H1390 H 0.90819 0.94052 0.86691 0.0
H1391 H 0.90384 0.89758 0.85264 0.0
C1392 C 0.11716 0.671 0.09558 0.0
C1393 C 0.13994 0.70052 0.11231 0.0
C1394 C 0.12027 0.63713 0.09377 0.0
C1395 C 0.14632 0.63223 0.10933 0.0
C1396 C 0.16839 0.66147 0.1268 0.0
C1397 C 0.16508 0.69518 0.12798 0.0
C1398 C 0.09626 0.60694 0.07479 0.0
C1399 C 0.19545 0.6571 0.14437 0.0
C1400 C 0.12856 0.52857 0.11685 0.0
C1401 C 0.15606 0.52837 0.1008 0.0
C1402 C 0.1259 0.56237 0.12041 0.0
C1403 C 0.15075 0.5968 0.10717 0.0
C1404 C 0.17931 0.597 0.09142 0.0
C1405 C 0.18177 0.56291 0.08855 0.0
C1406 C 0.09551 0.56078 0.1377 0.0
C1407 C 0.20615 0.63277 0.07672 0.0
H1408 H 0.0978 0.67494 0.08335 0.0
H1409 H 0.18244 0.71763 0.14119 0.0
H1410 H 0.11576 0.60346 0.0618 0.0
H1411 H 0.07785 0.5783 0.08373 0.0
H1412 H 0.07713 0.61478 0.06426 0.0
H1413 H 0.21346 0.684 0.15515 0.0
H1414 H 0.17812 0.63286 0.15728 0.0
H1415 H 0.21509 0.64958 0.13435 0.0
H1416 H 0.10823 0.50176 0.12608 0.0
H1417 H 0.20243 0.56266 0.0757 0.0
H1418 H 0.07354 0.56453 0.12727 0.0
H1419 H 0.10912 0.58497 0.15109 0.0
H1420 H 0.08031 0.53279 0.1479 0.0
H1421 H 0.18886 0.63906 0.06334 0.0
H1422 H 0.22843 0.62923 0.06659 0.0
H1423 H 0.22114 0.6584 0.08891 0.0
C1424 C 0.62526 0.16676 0.60481 0.0
C1425 C 0.62755 0.13288 0.60139 0.0
C1426 C 0.58962 0.16465 0.61064 0.0
C1427 C 0.5553 0.12782 0.61294 0.0
C1428 C 0.55795 0.09363 0.61106 0.0
C1429 C 0.59396 0.09659 0.60553 0.0
C1430 C 0.58827 0.20187 0.6129 0.0
C1431 C 0.52225 0.05375 0.61335 0.0
C1432 C 0.46136 0.12026 0.63758 0.0
C1433 C 0.44242 0.12023 0.61583 0.0
C1434 C 0.49808 0.12266 0.63707 0.0
C1435 C 0.51617 0.12491 0.61426 0.0
C1436 C 0.49663 0.12407 0.59228 0.0
C1437 C 0.46026 0.12198 0.59335 0.0
C1438 C 0.51783 0.12359 0.66093 0.0
C1439 C 0.51421 0.1255 0.56752 0.0
H1440 H 0.65083 0.19494 0.60164 0.0
H1441 H 0.59548 0.07019 0.60357 0.0
H1442 H 0.57294 0.20508 0.5968 0.0
H1443 H 0.57172 0.201 0.62947 0.0
H1444 H 0.61786 0.2279 0.61389 0.0
H1445 H 0.52965 0.03017 0.61364 0.0
H1446 H 0.50597 0.05176 0.63028 0.0
H1447 H 0.50243 0.04871 0.59765 0.0
H1448 H 0.44792 0.11936 0.655 0.0
H1449 H 0.44564 0.12161 0.57644 0.0
H1450 H 0.54533 0.15182 0.66265 0.0
H1451 H 0.52561 0.10034 0.66125 0.0
H1452 H 0.49919 0.11978 0.67704 0.0
H1453 H 0.54246 0.15293 0.56564 0.0
H1454 H 0.49493 0.12376 0.55218 0.0
H1455 H 0.5201 0.10103 0.56581 0.0
C1456 C 0.46439 0.62422 0.10349 0.0
C1457 C 0.50059 0.62697 0.09931 0.0
C1458 C 0.43149 0.58846 0.11012 0.0
C1459 C 0.43473 0.55451 0.11253 0.0
C1460 C 0.47175 0.55776 0.10995 0.0
C1461 C 0.50412 0.59384 0.10357 0.0
C1462 C 0.39275 0.58652 0.11309 0.0
C1463 C 0.47678 0.52254 0.11232 0.0
C1464 C 0.35102 0.4599 0.13897 0.0
C1465 C 0.33164 0.43996 0.11761 0.0
C1466 C 0.38448 0.49725 0.13775 0.0
C1467 C 0.399 0.51504 0.11462 0.0
C1468 C 0.3797 0.49465 0.09304 0.0
C1469 C 0.34633 0.45764 0.09482 0.0
C1470 C 0.40398 0.51785 0.16121 0.0
C1471 C 0.39439 0.5119 0.06796 0.0
H1472 H 0.4612 0.64947 0.10025 0.0
H1473 H 0.53211 0.59575 0.10096 0.0
H1474 H 0.37366 0.57071 0.09733 0.0
H1475 H 0.37794 0.57015 0.12995 0.0
H1476 H 0.39587 0.61593 0.11399 0.0
H1477 H 0.50791 0.53051 0.11232 0.0
H1478 H 0.46304 0.50628 0.1294 0.0
H1479 H 0.46198 0.50249 0.09678 0.0
H1480 H 0.33958 0.44667 0.15665 0.0
H1481 H 0.33174 0.44236 0.07819 0.0
H1482 H 0.40346 0.54551 0.16254 0.0
H1483 H 0.43496 0.52547 0.16122 0.0
H1484 H 0.38959 0.49984 0.17767 0.0
H1485 H 0.39457 0.53985 0.06608 0.0
H1486 H 0.37631 0.49218 0.05298 0.0
H1487 H 0.4248 0.51826 0.06559 0.0
C1488 C 0.84973 0.45799 0.60654 0.0
C1489 C 0.88273 0.49394 0.60091 0.0
C1490 C 0.85317 0.42538 0.61335 0.0
C1491 C 0.89043 0.42849 0.61435 0.0
C1492 C 0.92388 0.4653 0.61024 0.0
C1493 C 0.91965 0.49744 0.60389 0.0
C1494 C 0.81671 0.387 0.61811 0.0
C1495 C 0.9642 0.47025 0.61088 0.0
C1496 C 0.9035 0.34551 0.64066 0.0
C1497 C 0.9001 0.32402 0.6195 0.0
C1498 C 0.90022 0.37943 0.63944 0.0
C1499 C 0.89425 0.39266 0.61647 0.0
C1500 C 0.89236 0.37175 0.59502 0.0
C1501 C 0.89494 0.33774 0.59683 0.0
C1502 C 0.90196 0.40041 0.66281 0.0
C1503 C 0.88726 0.38511 0.57003 0.0
H1504 H 0.82107 0.4547 0.60437 0.0
H1505 H 0.94551 0.52522 0.60029 0.0
H1506 H 0.81155 0.36691 0.60263 0.0
H1507 H 0.82007 0.37316 0.63494 0.0
H1508 H 0.7907 0.39041 0.62013 0.0
H1509 H 0.98736 0.50134 0.60991 0.0
H1510 H 0.96846 0.45724 0.62779 0.0
H1511 H 0.96775 0.45472 0.5951 0.0
H1512 H 0.90726 0.33503 0.65826 0.0
H1513 H 0.89273 0.32166 0.58031 0.0
H1514 H 0.87351 0.39874 0.66588 0.0
H1515 H 0.92423 0.43169 0.66134 0.0
H1516 H 0.90882 0.38782 0.679 0.0
H1517 H 0.85916 0.38483 0.56921 0.0
H1518 H 0.88772 0.36643 0.55507 0.0
H1519 H 0.91075 0.4155 0.56666 0.0
C1520 C 0.57575 0.90744 0.13748 0.0
C1521 C 0.58635 0.88574 0.12235 0.0
C1522 C 0.53689 0.89959 0.13824 0.0
C1523 C 0.50791 0.86865 0.12407 0.0
C1524 C 0.51854 0.84632 0.10918 0.0
C1525 C 0.55748 0.85538 0.10833 0.0
C1526 C 0.52692 0.9245 0.15403 0.0
C1527 C 0.4887 0.81253 0.09416 0.0
C1528 C 0.39991 0.8149 0.1388 0.0
C1529 C 0.3846 0.82675 0.11949 0.0
C1530 C 0.44022 0.83017 0.14151 0.0
C1531 C 0.46619 0.85859 0.12477 0.0
C1532 C 0.45118 0.87292 0.10642 0.0
C1533 C 0.41063 0.85669 0.10388 0.0
C1534 C 0.45476 0.81378 0.16125 0.0
C1535 C 0.47782 0.90366 0.08842 0.0
H1536 H 0.59782 0.93086 0.1484 0.0
H1537 H 0.56523 0.83813 0.09678 0.0
H1538 H 0.5127 0.93725 0.14277 0.0
H1539 H 0.50585 0.90634 0.16839 0.0
H1540 H 0.55303 0.94849 0.16304 0.0
H1541 H 0.50162 0.79751 0.084 0.0
H1542 H 0.46536 0.79099 0.10625 0.0
H1543 H 0.47483 0.82295 0.08075 0.0
H1544 H 0.38024 0.79262 0.15143 0.0
H1545 H 0.39937 0.86613 0.08886 0.0
H1546 H 0.47941 0.83755 0.17138 0.0
H1547 H 0.46567 0.79572 0.15269 0.0
H1548 H 0.43156 0.79539 0.17453 0.0
H1549 H 0.50315 0.92756 0.09804 0.0
H1550 H 0.46254 0.91617 0.07797 0.0
H1551 H 0.48925 0.89064 0.07521 0.0
C1552 C 0.67987 0.55647 0.59687 0.0
C1553 C 0.69528 0.57504 0.61931 0.0
C1554 C 0.64595 0.51978 0.59577 0.0
C1555 C 0.62699 0.50046 0.61771 0.0
C1556 C 0.64216 0.51919 0.64049 0.0
C1557 C 0.67592 0.55639 0.64102 0.0
C1558 C 0.63039 0.50168 0.57101 0.0
C1559 C 0.62332 0.49957 0.66434 0.0
C1560 C 0.5212 0.42219 0.60815 0.0
C1561 C 0.52422 0.38881 0.60386 0.0
C1562 C 0.55399 0.45822 0.61402 0.0
C1563 C 0.59092 0.46111 0.61631 0.0
C1564 C 0.59364 0.42687 0.61417 0.0
C1565 C 0.56037 0.39122 0.60782 0.0
C1566 C 0.54948 0.49375 0.61596 0.0
C1567 C 0.63219 0.42834 0.6171 0.0
H1568 H 0.69437 0.57076 0.57998 0.0
H1569 H 0.6878 0.57034 0.65846 0.0
H1570 H 0.63031 0.47375 0.56951 0.0
H1571 H 0.59985 0.4951 0.56888 0.0
H1572 H 0.64788 0.52093 0.55567 0.0
H1573 H 0.63723 0.51884 0.68038 0.0
H1574 H 0.59192 0.49041 0.66415 0.0
H1575 H 0.62543 0.47288 0.66666 0.0
H1576 H 0.49328 0.42058 0.60583 0.0
H1577 H 0.56323 0.36581 0.60464 0.0
H1578 H 0.56361 0.51307 0.59997 0.0
H1579 H 0.56414 0.51064 0.63266 0.0
H1580 H 0.51843 0.48607 0.6164 0.0
H1581 H 0.6509 0.44329 0.60104 0.0
H1582 H 0.62865 0.39879 0.61857 0.0
H1583 H 0.64765 0.44529 0.63364 0.0
C1584 C 0.34338 0.89956 0.36132 0.0
C1585 C 0.31555 0.88584 0.38013 0.0
C1586 C 0.37373 0.89057 0.36115 0.0
C1587 C 0.37608 0.86714 0.38011 0.0
C1588 C 0.34824 0.85369 0.39917 0.0
C1589 C 0.31862 0.86318 0.39894 0.0
C1590 C 0.40285 0.90558 0.34052 0.0
C1591 C 0.34925 0.8286 0.41977 0.0
C1592 C 0.42247 0.80355 0.37498 0.0
C1593 C 0.4558 0.82364 0.38972 0.0
C1594 C 0.39786 0.81885 0.37006 0.0
C1595 C 0.40652 0.85519 0.38017 0.0
C1596 C 0.44143 0.87676 0.39374 0.0
C1597 C 0.46564 0.86079 0.39833 0.0
C1598 C 0.3612 0.79486 0.35535 0.0
C1599 C 0.45191 0.91557 0.40488 0.0
H1600 H 0.34133 0.91703 0.3467 0.0
H1601 H 0.29738 0.85217 0.4136 0.0
H1602 H 0.43295 0.92049 0.34793 0.0
H1603 H 0.39942 0.88078 0.32931 0.0
H1604 H 0.39921 0.92615 0.32842 0.0
H1605 H 0.32594 0.82122 0.4335 0.0
H1606 H 0.34577 0.80107 0.41226 0.0
H1607 H 0.3778 0.84379 0.42927 0.0
H1608 H 0.41499 0.7752 0.3678 0.0
H1609 H 0.4912 0.87658 0.40977 0.0
H1610 H 0.35751 0.81317 0.34139 0.0
H1611 H 0.33559 0.78308 0.3677 0.0
H1612 H 0.36126 0.77006 0.346 0.0
H1613 H 0.44783 0.93419 0.39137 0.0
H1614 H 0.48246 0.93134 0.41159 0.0
H1615 H 0.43232 0.91091 0.42058 0.0
C1616 C 0.6284 0.46834 0.90517 0.0
C1617 C 0.65448 0.45451 0.90146 0.0
C1618 C 0.58809 0.44448 0.90085 0.0
C1619 C 0.57313 0.40552 0.89298 0.0
C1620 C 0.59942 0.39192 0.88824 0.0
C1621 C 0.63956 0.41658 0.89226 0.0
C1622 C 0.56137 0.46058 0.90559 0.0
C1623 C 0.58498 0.3507 0.8798 0.0
C1624 C 0.47115 0.3277 0.91234 0.0
C1625 C 0.45027 0.31861 0.89023 0.0
C1626 C 0.51069 0.35642 0.91352 0.0
C1627 C 0.53001 0.37763 0.89217 0.0
C1628 C 0.50852 0.3702 0.87004 0.0
C1629 C 0.46905 0.34052 0.86927 0.0
C1630 C 0.53193 0.36347 0.93765 0.0
C1631 C 0.5274 0.39283 0.847 0.0
H1632 H 0.6392 0.49739 0.91235 0.0
H1633 H 0.65928 0.40574 0.88858 0.0
H1634 H 0.53985 0.45262 0.89053 0.0
H1635 H 0.54487 0.4478 0.92274 0.0
H1636 H 0.5777 0.49277 0.90753 0.0
H1637 H 0.60891 0.34404 0.87779 0.0
H1638 H 0.5635 0.32984 0.89307 0.0
H1639 H 0.56987 0.34582 0.86193 0.0
H1640 H 0.45673 0.31168 0.92882 0.0
H1641 H 0.45327 0.33383 0.85209 0.0
H1642 H 0.53977 0.39273 0.94462 0.0
H1643 H 0.55942 0.36293 0.93521 0.0
H1644 H 0.51406 0.34153 0.95176 0.0
H1645 H 0.54524 0.4244 0.851 0.0
H1646 H 0.50554 0.38848 0.83273 0.0
H1647 H 0.54715 0.3832 0.83948 0.0
C1648 C 0.1061 0.59486 0.40315 0.0
C1649 C 0.14241 0.62867 0.40668 0.0
C1650 C 0.10329 0.55912 0.39712 0.0
C1651 C 0.13763 0.55702 0.3941 0.0
C1652 C 0.17434 0.59161 0.39565 0.0
C1653 C 0.17631 0.62695 0.40206 0.0
C1654 C 0.06354 0.5231 0.39555 0.0
C1655 C 0.21173 0.59093 0.39228 0.0
C1656 C 0.13272 0.46214 0.41278 0.0
C1657 C 0.12919 0.44398 0.39018 0.0
C1658 C 0.13557 0.4988 0.41419 0.0
C1659 C 0.1351 0.51815 0.39242 0.0
C1660 C 0.13153 0.49997 0.36948 0.0
C1661 C 0.12864 0.46308 0.36864 0.0
C1662 C 0.13896 0.51677 0.43907 0.0
C1663 C 0.1313 0.51968 0.34584 0.0
H1664 H 0.07965 0.59601 0.40601 0.0
H1665 H 0.20452 0.65272 0.40476 0.0
H1666 H 0.06072 0.50703 0.37838 0.0
H1667 H 0.05975 0.50327 0.41103 0.0
H1668 H 0.03968 0.53007 0.39623 0.0
H1669 H 0.23679 0.6205 0.38877 0.0
H1670 H 0.21787 0.57939 0.4092 0.0
H1671 H 0.20927 0.57155 0.37694 0.0
H1672 H 0.1331 0.44752 0.42953 0.0
H1673 H 0.12677 0.44956 0.35111 0.0
H1674 H 0.11473 0.5228 0.44175 0.0
H1675 H 0.16657 0.54498 0.44027 0.0
H1676 H 0.13832 0.49769 0.45424 0.0
H1677 H 0.107 0.52596 0.34587 0.0
H1678 H 0.12818 0.50164 0.32955 0.0
H1679 H 0.15874 0.54798 0.34416 0.0
C1680 C 0.71856 0.18193 0.88234 0.0
C1681 C 0.71128 0.14395 0.88632 0.0
C1682 C 0.68841 0.19082 0.88345 0.0
C1683 C 0.6501 0.16119 0.88942 0.0
C1684 C 0.64239 0.1224 0.89254 0.0
C1685 C 0.67308 0.11423 0.89076 0.0
C1686 C 0.69779 0.2322 0.87895 0.0
C1687 C 0.6022 0.08988 0.89904 0.0
C1688 C 0.5911 0.19792 0.92354 0.0
C1689 C 0.5673 0.19955 0.90502 0.0
C1690 C 0.61697 0.18417 0.91884 0.0
C1691 C 0.61954 0.17186 0.89492 0.0
C1692 C 0.59476 0.1723 0.87626 0.0
C1693 C 0.5688 0.18594 0.88156 0.0
C1694 C 0.6422 0.18357 0.93944 0.0
C1695 C 0.59655 0.1596 0.85052 0.0
H1696 H 0.74815 0.20491 0.87877 0.0
H1697 H 0.6675 0.085 0.89407 0.0
H1698 H 0.68013 0.23302 0.8634 0.0
H1699 H 0.68999 0.24351 0.89524 0.0
H1700 H 0.72906 0.25192 0.8747 0.0
H1701 H 0.59983 0.06082 0.89764 0.0
H1702 H 0.59524 0.09385 0.9181 0.0
H1703 H 0.58001 0.09051 0.88691 0.0
H1704 H 0.58965 0.20769 0.94183 0.0
H1705 H 0.55062 0.18721 0.86713 0.0
H1706 H 0.67338 0.2019 0.93458 0.0
H1707 H 0.63658 0.15347 0.94226 0.0
H1708 H 0.6369 0.19428 0.95697 0.0
H1709 H 0.62484 0.18065 0.84212 0.0
H1710 H 0.57276 0.15779 0.83878 0.0
H1711 H 0.5948 0.13079 0.85071 0.0
C1712 C 0.38899 0.60147 0.38475 0.0
C1713 C 0.37377 0.56474 0.39596 0.0
C1714 C 0.42927 0.62579 0.38113 0.0
C1715 C 0.4554 0.61296 0.38841 0.0
C1716 C 0.44008 0.57483 0.39807 0.0
C1717 C 0.39962 0.55137 0.40193 0.0
C1718 C 0.44362 0.66549 0.36981 0.0
C1719 C 0.46655 0.55926 0.40519 0.0
C1720 C 0.56141 0.67958 0.36847 0.0
C1721 C 0.57729 0.70256 0.38948 0.0
C1722 C 0.5223 0.64886 0.3681 0.0
C1723 C 0.49842 0.64128 0.38909 0.0
C1724 C 0.51503 0.66333 0.41061 0.0
C1725 C 0.55414 0.69307 0.41061 0.0
C1726 C 0.50624 0.62559 0.34495 0.0
C1727 C 0.49113 0.65662 0.43351 0.0
H1728 H 0.36937 0.61168 0.37914 0.0
H1729 H 0.38849 0.5231 0.41052 0.0
H1730 H 0.47106 0.68793 0.37841 0.0
H1731 H 0.44955 0.6642 0.35009 0.0
H1732 H 0.42166 0.67499 0.37126 0.0
H1733 H 0.45016 0.52719 0.4079 0.0
H1734 H 0.48912 0.56652 0.39096 0.0
H1735 H 0.48176 0.57298 0.42255 0.0
H1736 H 0.579 0.68644 0.35207 0.0
H1737 H 0.56624 0.70992 0.42717 0.0
H1738 H 0.4882 0.63563 0.33525 0.0
H1739 H 0.48731 0.5942 0.34919 0.0
H1740 H 0.52982 0.62914 0.3324 0.0
H1741 H 0.46374 0.65652 0.42912 0.0
H1742 H 0.50713 0.67912 0.44769 0.0
H1743 H 0.48298 0.62774 0.44142 0.0
C1744 C 0.88259 0.55862 0.90753 0.0
C1745 C 0.89312 0.5805 0.88577 0.0
C1746 C 0.87293 0.51947 0.90781 0.0
C1747 C 0.87463 0.50153 0.88584 0.0
C1748 C 0.88745 0.52401 0.864 0.0
C1749 C 0.89621 0.56318 0.86416 0.0
C1750 C 0.85989 0.49707 0.93165 0.0
C1751 C 0.89077 0.50653 0.84028 0.0
C1752 C 0.86945 0.40476 0.89918 0.0
C1753 C 0.82936 0.37837 0.89666 0.0
C1754 C 0.88527 0.4446 0.89369 0.0
C1755 C 0.86044 0.45873 0.88598 0.0
C1756 C 0.82042 0.43195 0.88202 0.0
C1757 C 0.80553 0.3922 0.88712 0.0
C1758 C 0.9283 0.47188 0.89738 0.0
C1759 C 0.79286 0.44556 0.87359 0.0
H1760 H 0.88086 0.57185 0.92447 0.0
H1761 H 0.90431 0.57978 0.84725 0.0
H1762 H 0.83184 0.46964 0.92912 0.0
H1763 H 0.88167 0.48904 0.93771 0.0
H1764 H 0.85628 0.51412 0.94647 0.0
H1765 H 0.90961 0.52937 0.82689 0.0
H1766 H 0.9027 0.48683 0.84345 0.0
H1767 H 0.86142 0.48906 0.83204 0.0
H1768 H 0.88834 0.39475 0.90652 0.0
H1769 H 0.77481 0.37205 0.88427 0.0
H1770 H 0.93304 0.48874 0.91447 0.0
H1771 H 0.94052 0.49303 0.88202 0.0
H1772 H 0.94462 0.45592 0.89887 0.0
H1773 H 0.79422 0.46799 0.88627 0.0
H1774 H 0.76223 0.42138 0.87253 0.0
H1775 H 0.80177 0.45927 0.85524 0.0
C1776 C 0.14098 0.34518 0.29708 0.0
C1777 C 0.16758 0.36625 0.31584 0.0
C1778 C 0.1515 0.35185 0.27237 0.0
C1779 C 0.19044 0.37863 0.26594 0.0
C1780 C 0.21754 0.40061 0.28461 0.0
C1781 C 0.20559 0.39466 0.30936 0.0
C1782 C 0.12124 0.32826 0.25321 0.0
C1783 C 0.25965 0.42848 0.27861 0.0
C1784 C 0.21529 0.34105 0.20955 0.0
C1785 C 0.21419 0.3648 0.19071 0.0
C1786 C 0.21127 0.34782 0.23417 0.0
C1787 C 0.2034 0.37774 0.24043 0.0
C1788 C 0.20246 0.40224 0.22171 0.0
C1789 C 0.20861 0.39595 0.19706 0.0
C1790 C 0.21349 0.32141 0.25339 0.0
C1791 C 0.19283 0.43361 0.22755 0.0
H1792 H 0.11162 0.32275 0.30161 0.0
H1793 H 0.22645 0.41099 0.32363 0.0
H1794 H 0.12313 0.34688 0.23745 0.0
H1795 H 0.12649 0.30506 0.24619 0.0
H1796 H 0.0912 0.31421 0.26071 0.0
H1797 H 0.27556 0.44755 0.29437 0.0
H1798 H 0.27407 0.41164 0.27359 0.0
H1799 H 0.26211 0.44695 0.26264 0.0
H1800 H 0.21913 0.31655 0.20517 0.0
H1801 H 0.20763 0.41448 0.18276 0.0
H1802 H 0.18385 0.30093 0.26031 0.0
H1803 H 0.23141 0.33859 0.2692 0.0
H1804 H 0.22611 0.30403 0.24602 0.0
H1805 H 0.1616 0.41989 0.23254 0.0
H1806 H 0.1984 0.45346 0.21175 0.0
H1807 H 0.20998 0.451 0.24352 0.0
C1808 C 0.8341 0.22633 0.70025 0.0
C1809 C 0.84811 0.20273 0.69095 0.0
C1810 C 0.82583 0.22576 0.72548 0.0
C1811 C 0.8316 0.20093 0.74164 0.0
C1812 C 0.84468 0.17634 0.73206 0.0
C1813 C 0.85234 0.17729 0.70695 0.0
C1814 C 0.81271 0.25294 0.73504 0.0
C1815 C 0.85217 0.15003 0.7485 0.0
C1816 C 0.85387 0.21623 0.80975 0.0
C1817 C 0.81979 0.1856 0.81972 0.0
C1818 C 0.857 0.22427 0.78447 0.0
C1819 C 0.82531 0.20081 0.76871 0.0
C1820 C 0.78956 0.17234 0.77915 0.0
C1821 C 0.78727 0.16508 0.80453 0.0
C1822 C 0.8957 0.25575 0.77489 0.0
C1823 C 0.7546 0.14755 0.76326 0.0
H1824 H 0.83108 0.24627 0.68802 0.0
H1825 H 0.86275 0.15861 0.69987 0.0
H1826 H 0.78597 0.23662 0.74622 0.0
H1827 H 0.83561 0.27492 0.74717 0.0
H1828 H 0.80685 0.26834 0.72003 0.0
H1829 H 0.86021 0.13112 0.73803 0.0
H1830 H 0.87624 0.168 0.76138 0.0
H1831 H 0.82601 0.13124 0.75964 0.0
H1832 H 0.87907 0.23252 0.82129 0.0
H1833 H 0.76056 0.14189 0.81234 0.0
H1834 H 0.89415 0.26479 0.75587 0.0
H1835 H 0.91669 0.24501 0.7756 0.0
H1836 H 0.9074 0.28176 0.7869 0.0
H1837 H 0.72805 0.1292 0.77427 0.0
H1838 H 0.76061 0.12824 0.75165 0.0
H1839 H 0.7488 0.16622 0.75077 0.0
C1840 C 0.63255 0.85168 0.20064 0.0
C1841 C 0.6566 0.84207 0.1872 0.0
C1842 C 0.62932 0.84677 0.22632 0.0
C1843 C 0.64927 0.83027 0.23865 0.0
C1844 C 0.67187 0.81861 0.22476 0.0
C1845 C 0.676 0.82554 0.19938 0.0
C1846 C 0.60717 0.86208 0.24043 0.0
C1847 C 0.69384 0.80116 0.23694 0.0
C1848 C 0.68522 0.85585 0.30455 0.0
C1849 C 0.65672 0.82393 0.31766 0.0
C1850 C 0.68237 0.85911 0.27911 0.0
C1851 C 0.65034 0.82919 0.26613 0.0
C1852 C 0.62101 0.79706 0.27943 0.0
C1853 C 0.62426 0.79511 0.30512 0.0
C1854 C 0.71506 0.8943 0.26665 0.0
C1855 C 0.58775 0.76335 0.26636 0.0
H1856 H 0.61866 0.86574 0.19132 0.0
H1857 H 0.69553 0.81917 0.18912 0.0
H1858 H 0.58492 0.8389 0.25226 0.0
H1859 H 0.62756 0.88603 0.25263 0.0
H1860 H 0.59257 0.87334 0.22817 0.0
H1861 H 0.67484 0.77832 0.2502 0.0
H1862 H 0.70505 0.78826 0.22344 0.0
H1863 H 0.71893 0.82414 0.24727 0.0
H1864 H 0.71058 0.87805 0.3142 0.0
H1865 H 0.6028 0.76982 0.31515 0.0
H1866 H 0.71256 0.89414 0.24644 0.0
H1867 H 0.74332 0.89643 0.27142 0.0
H1868 H 0.71611 0.92098 0.2738 0.0
H1869 H 0.56603 0.74186 0.27933 0.0
H1870 H 0.59936 0.74835 0.25495 0.0
H1871 H 0.57282 0.77384 0.25387 0.0
C1872 C 0.79457 0.61381 0.69996 0.0
C1873 C 0.82429 0.64529 0.68718 0.0
C1874 C 0.79707 0.61033 0.72557 0.0
C1875 C 0.83122 0.63758 0.73829 0.0
C1876 C 0.8631 0.66642 0.72469 0.0
C1877 C 0.85873 0.67077 0.69953 0.0
C1878 C 0.76221 0.57886 0.73895 0.0
C1879 C 0.9012 0.69434 0.73688 0.0
C1880 C 0.83639 0.67526 0.80306 0.0
C1881 C 0.84506 0.6509 0.81698 0.0
C1882 C 0.82913 0.66946 0.77781 0.0
C1883 C 0.8325 0.63953 0.76577 0.0
C1884 C 0.84034 0.61412 0.78003 0.0
C1885 C 0.8454 0.61948 0.8056 0.0
C1886 C 0.81979 0.69721 0.76439 0.0
C1887 C 0.84532 0.58236 0.76848 0.0
H1888 H 0.76787 0.59417 0.69039 0.0
H1889 H 0.88193 0.69496 0.68961 0.0
H1890 H 0.76682 0.55389 0.74237 0.0
H1891 H 0.75788 0.58927 0.75687 0.0
H1892 H 0.7351 0.56809 0.72798 0.0
H1893 H 0.92546 0.70736 0.72345 0.0
H1894 H 0.89876 0.71835 0.74543 0.0
H1895 H 0.90859 0.6795 0.75149 0.0
H1896 H 0.83625 0.69968 0.81186 0.0
H1897 H 0.8527 0.60097 0.81638 0.0
H1898 H 0.81086 0.68907 0.7451 0.0
H1899 H 0.84571 0.72689 0.76475 0.0
H1900 H 0.79609 0.69891 0.77408 0.0
H1901 H 0.81659 0.55532 0.76763 0.0
H1902 H 0.86492 0.57588 0.77962 0.0
H1903 H 0.85721 0.59004 0.74963 0.0
C1904 C 0.16254 0.78009 0.20061 0.0
C1905 C 0.18414 0.81122 0.18449 0.0
C1906 C 0.16996 0.7837 0.22591 0.0
C1907 C 0.19959 0.8195 0.23552 0.0
C1908 C 0.22365 0.84993 0.21907 0.0
C1909 C 0.21567 0.84535 0.19374 0.0
C1910 C 0.14424 0.75 0.24249 0.0
C1911 C 0.2559 0.88876 0.2279 0.0
C1912 C 0.17596 0.84652 0.29717 0.0
C1913 C 0.20103 0.84189 0.31325 0.0
C1914 C 0.17601 0.84008 0.27199 0.0
C1915 C 0.20056 0.82695 0.26246 0.0
C1916 C 0.22487 0.82056 0.2787 0.0
C1917 C 0.22496 0.82826 0.30398 0.0
C1918 C 0.15009 0.848 0.25551 0.0
C1919 C 0.25151 0.8067 0.26923 0.0
H1920 H 0.13878 0.75315 0.1935 0.0
H1921 H 0.23267 0.86949 0.18148 0.0
H1922 H 0.16201 0.74533 0.25638 0.0
H1923 H 0.12394 0.75668 0.25245 0.0
H1924 H 0.12674 0.72257 0.2321 0.0
H1925 H 0.28165 0.89939 0.21572 0.0
H1926 H 0.2458 0.91025 0.22677 0.0
H1927 H 0.26511 0.88786 0.24697 0.0
H1928 H 0.15689 0.85645 0.30423 0.0
H1929 H 0.24455 0.82483 0.3163 0.0
H1930 H 0.12867 0.82062 0.24645 0.0
H1931 H 0.16769 0.86905 0.24095 0.0
H1932 H 0.13401 0.85979 0.26565 0.0
H1933 H 0.23449 0.77929 0.25877 0.0
H1934 H 0.26748 0.80161 0.28422 0.0
H1935 H 0.27299 0.8287 0.25642 0.0
C1936 C 0.34248 0.20868 0.79507 0.0
C1937 C 0.36606 0.20635 0.81354 0.0
C1938 C 0.34895 0.20533 0.77028 0.0
C1939 C 0.37774 0.1961 0.76349 0.0
C1940 C 0.40155 0.19314 0.78188 0.0
C1941 C 0.39603 0.19921 0.80668 0.0
C1942 C 0.3235 0.20995 0.75142 0.0
C1943 C 0.43118 0.18132 0.77555 0.0
C1944 C 0.34274 0.13606 0.70597 0.0
C1945 C 0.36607 0.16225 0.6876 0.0
C1946 C 0.3493 0.1456 0.7308 0.0
C1947 C 0.3779 0.18361 0.73775 0.0
C1948 C 0.4017 0.21053 0.71948 0.0
C1949 C 0.39618 0.19918 0.69461 0.0
C1950 C 0.32402 0.11531 0.74953 0.0
C1951 C 0.4312 0.25195 0.72598 0.0
H1952 H 0.31844 0.21303 0.79986 0.0
H1953 H 0.41417 0.1969 0.82072 0.0
H1954 H 0.34107 0.22724 0.73551 0.0
H1955 H 0.30128 0.1809 0.74456 0.0
H1956 H 0.30813 0.22445 0.75916 0.0
H1957 H 0.45067 0.18513 0.79125 0.0
H1958 H 0.41582 0.15021 0.77011 0.0
H1959 H 0.44916 0.19841 0.75974 0.0
H1960 H 0.31879 0.10767 0.70106 0.0
H1961 H 0.41428 0.21976 0.68067 0.0
H1962 H 0.3015 0.12174 0.75632 0.0
H1963 H 0.34161 0.11571 0.76551 0.0
H1964 H 0.309 0.08549 0.74169 0.0
H1965 H 0.41571 0.2676 0.73137 0.0
H1966 H 0.45077 0.26775 0.71038 0.0
H1967 H 0.4491 0.25281 0.74188 0.0
C1968 C 0.33895 0.25707 0.97149 0.0
C1969 C 0.31293 0.23834 0.95214 0.0
C1970 C 0.3274 0.26975 0.99235 0.0
C1971 C 0.28931 0.26464 0.99359 0.0
C1972 C 0.26279 0.24493 0.97432 0.0
C1973 C 0.27442 0.23083 0.95443 0.0
C1974 C 0.35591 0.2883 0.01312 0.0
C1975 C 0.22247 0.24005 0.97416 0.0
C1976 C 0.24074 0.26486 0.05368 0.0
C1977 C 0.25034 0.304 0.05595 0.0
C1978 C 0.25478 0.2523 0.03421 0.0
C1979 C 0.2764 0.27862 0.01523 0.0
C1980 C 0.28371 0.3175 0.01641 0.0
C1981 C 0.27124 0.32993 0.03695 0.0
C1982 C 0.2475 0.21108 0.03442 0.0
C1983 C 0.30461 0.34598 0.99595 0.0
H1984 H 0.36858 0.26268 0.97009 0.0
H1985 H 0.25378 0.21599 0.93976 0.0
H1986 H 0.35773 0.31603 0.01871 0.0
H1987 H 0.34552 0.2684 0.02916 0.0
H1988 H 0.38555 0.29416 0.00829 0.0
H1989 H 0.20642 0.22668 0.95692 0.0
H1990 H 0.2052 0.22147 0.98972 0.0
H1991 H 0.22445 0.26879 0.97644 0.0
H1992 H 0.22405 0.24429 0.06802 0.0
H1993 H 0.27848 0.36008 0.0383 0.0
H1994 H 0.27544 0.21129 0.03234 0.0
H1995 H 0.2287 0.19457 0.01875 0.0
H1996 H 0.23325 0.19534 0.0516 0.0
H1997 H 0.33367 0.34904 0.99302 0.0
H1998 H 0.30844 0.37521 0.99969 0.0
H1999 H 0.28777 0.33472 0.97871 0.0
C2000 C 0.05106 0.27593 0.45883 0.0
C2001 C 0.07752 0.31517 0.45343 0.0
C2002 C 0.0258 0.26513 0.47906 0.0
C2003 C 0.0278 0.29405 0.49513 0.0
C2004 C 0.05569 0.33367 0.49044 0.0
C2005 C 0.08001 0.34378 0.46961 0.0
C2006 C 0.99641 0.22263 0.48298 0.0
C2007 C 0.05955 0.36542 0.50734 0.0
C2008 C 0.94042 0.26489 0.53785 0.0
C2009 C 0.95185 0.25294 0.55897 0.0
C2010 C 0.96504 0.27929 0.51717 0.0
C2011 C 1.00229 0.28222 0.51756 0.0
C2012 C 0.01434 0.27128 0.53913 0.0
C2013 C 0.98902 0.25652 0.55929 0.0
C2014 C 0.9504 0.29004 0.49469 0.0
C2015 C 0.05394 0.27464 0.54088 0.0
H2016 H 0.04904 0.25352 0.4466 0.0
H2017 H 0.10023 0.37416 0.46563 0.0
H2018 H 1.00198 0.21259 0.50074 0.0
H2019 H 0.96664 0.21858 0.4838 0.0
H2020 H 0.99723 0.20388 0.4682 0.0
H2021 H 0.08311 0.39467 0.50154 0.0
H2022 H 0.03171 0.36568 0.50786 0.0
H2023 H 0.0657 0.35967 0.52627 0.0
H2024 H 0.91202 0.2626 0.53733 0.0
H2025 H 0.99871 0.24784 0.57544 0.0
H2026 H 0.94193 0.2668 0.48081 0.0
H2027 H 0.97347 0.31781 0.48675 0.0
H2028 H 0.92454 0.29301 0.49865 0.0
H2029 H 0.05564 0.25411 0.52788 0.0
H2030 H 0.06029 0.26815 0.5596 0.0
H2031 H 0.07698 0.30443 0.53567 0.0
C2032 C 0.6891 0.93981 0.03503 0.0
C2033 C 0.71551 0.94714 0.05428 0.0
C2034 C 0.69937 0.96516 0.01461 0.0
C2035 C 0.73692 0.99885 0.01331 0.0
C2036 C 0.76364 1.00623 0.03263 0.0
C2037 C 0.75275 0.98041 0.05266 0.0
C2038 C 0.67 0.95593 0.9944 0.0
C2039 C 0.80399 0.04154 0.03217 0.0
C2040 C 0.78138 0.04482 0.95146 0.0
C2041 C 0.77678 0.07779 0.95055 0.0
C2042 C 0.76783 0.01872 0.97137 0.0
C2043 C 0.74924 0.02547 0.99131 0.0
C2044 C 0.74438 0.05863 0.99061 0.0
C2045 C 0.75807 0.08428 0.97027 0.0
C2046 C 0.77384 0.98398 0.97114 0.0
C2047 C 0.7249 0.06713 0.01146 0.0
H2048 H 0.66018 0.91452 0.03604 0.0
H2049 H 0.77361 0.98672 0.06728 0.0
H2050 H 0.66443 0.98051 0.99194 0.0
H2051 H 0.68176 0.95225 0.97683 0.0
H2052 H 0.64191 0.92902 0.99819 0.0
H2053 H 0.82095 0.04393 0.04896 0.0
H2054 H 0.82021 0.04017 0.01604 0.0
H2055 H 0.80208 0.06841 0.03031 0.0
H2056 H 0.79579 0.03922 0.93652 0.0
H2057 H 0.75393 0.1093 0.96978 0.0
H2058 H 0.74561 0.95674 0.97369 0.0
H2059 H 0.79301 0.98602 0.98659 0.0
H2060 H 0.78717 0.98177 0.95379 0.0
H2061 H 0.69533 0.04192 0.01452 0.0
H2062 H 0.72242 0.09344 0.00799 0.0
H2063 H 0.74169 0.07154 0.02861 0.0
C2064 C 0.78268 0.71058 0.53421 0.0
C2065 C 0.76137 0.69935 0.55611 0.0
C2066 C 0.7696 0.72265 0.51353 0.0
C2067 C 0.73569 0.72637 0.51519 0.0
C2068 C 0.71411 0.71464 0.53735 0.0
C2069 C 0.72608 0.69933 0.55663 0.0
C2070 C 0.79285 0.73171 0.49019 0.0
C2071 C 0.67887 0.71896 0.54177 0.0
C2072 C 0.7337 0.7974 0.46769 0.0
C2073 C 0.69989 0.77348 0.45425 0.0
C2074 C 0.7447 0.78302 0.48809 0.0
C2075 C 0.7231 0.74275 0.4942 0.0
C2076 C 0.68887 0.71844 0.4804 0.0
C2077 C 0.6769 0.73446 0.46138 0.0
C2078 C 0.7798 0.81145 0.50272 0.0
C2079 C 0.66503 0.67521 0.48519 0.0
H2080 H 0.80992 0.71057 0.53323 0.0
H2081 H 0.70738 0.68714 0.57222 0.0
H2082 H 0.77558 0.72999 0.47371 0.0
H2083 H 0.81849 0.76143 0.4914 0.0
H2084 H 0.8041 0.71127 0.48782 0.0
H2085 H 0.68215 0.73379 0.55957 0.0
H2086 H 0.67392 0.73584 0.52741 0.0
H2087 H 0.65261 0.68966 0.54332 0.0
H2088 H 0.75162 0.82764 0.46229 0.0
H2089 H 0.65093 0.71571 0.45087 0.0
H2090 H 0.80647 0.81468 0.494 0.0
H2091 H 0.77868 0.80189 0.52198 0.0
H2092 H 0.78242 0.84069 0.5028 0.0
H2093 H 0.68381 0.66294 0.49043 0.0
H2094 H 0.64749 0.65928 0.4689 0.0
H2095 H 0.64444 0.66977 0.50037 0.0
C2096 C 0.94957 0.68298 0.96601 0.0
C2097 C 0.95258 0.71125 0.94918 0.0
C2098 C 0.97527 0.69306 0.98618 0.0
C2099 C 1.00502 0.73233 0.9896 0.0
C2100 C 1.00762 0.76102 0.97291 0.0
C2101 C 0.98119 0.75026 0.95324 0.0
C2102 C 0.97077 0.66161 0.00375 0.0
C2103 C 0.03879 0.80318 0.97563 0.0
C2104 C 0.05069 0.7711 0.05228 0.0
C2105 C 0.08661 0.77209 0.05082 0.0
C2106 C 0.02349 0.75684 0.03301 0.0
C2107 C 0.03245 0.74399 0.01111 0.0
C2108 C 0.06847 0.74448 0.00948 0.0
C2109 C 0.09489 0.75809 0.02941 0.0
C2110 C 0.98539 0.75638 0.03596 0.0
C2111 C 0.07955 0.73163 0.98638 0.0
H2112 H 0.9277 0.65276 0.96311 0.0
H2113 H 0.98373 0.77245 0.9405 0.0
H2114 H 0.96652 0.66904 0.02264 0.0
H2115 H 0.94577 0.63265 0.99891 0.0
H2116 H 0.99769 0.65962 0.00386 0.0
H2117 H 0.03784 0.82175 0.96065 0.0
H2118 H 0.03536 0.81465 0.99338 0.0
H2119 H 0.06797 0.80574 0.97572 0.0
H2120 H 0.04375 0.78195 0.06853 0.0
H2121 H 0.12228 0.75843 0.028 0.0
H2122 H 0.96062 0.72717 0.03143 0.0
H2123 H 0.98429 0.77748 0.02305 0.0
H2124 H 0.98132 0.76401 0.05486 0.0
H2125 H 0.10766 0.73204 0.98828 0.0
H2126 H 0.08202 0.75115 0.97101 0.0
H2127 H 0.05654 0.70178 0.98136 0.0
C2128 C 0.25314 0.98576 0.44404 0.0
C2129 C 0.24859 0.9482 0.44477 0.0
C2130 C 0.26786 0.01111 0.46417 0.0
C2131 C 0.27764 0.99863 0.48602 0.0
C2132 C 0.27321 0.9608 0.48691 0.0
C2133 C 0.25918 0.93628 0.46625 0.0
C2134 C 0.27267 0.05129 0.46205 0.0
C2135 C 0.28261 0.94586 0.50981 0.0
C2136 C 0.34145 0.0748 0.53389 0.0
C2137 C 0.31349 0.07312 0.5503 0.0
C2138 C 0.33034 0.05089 0.51287 0.0
C2139 C 0.29034 0.02444 0.50821 0.0
C2140 C 0.26207 0.0235 0.52443 0.0
C2141 C 0.27392 0.04812 0.54496 0.0
C2142 C 0.36144 0.0535 0.49584 0.0
C2143 C 0.21917 0.9958 0.52039 0.0
H2144 H 0.24555 0.99576 0.42756 0.0
H2145 H 0.25623 0.90762 0.46704 0.0
H2146 H 0.25292 0.0542 0.47512 0.0
H2147 H 0.30287 0.07369 0.46695 0.0
H2148 H 0.26621 0.05754 0.4433 0.0
H2149 H 0.27849 0.91622 0.50743 0.0
H2150 H 0.31324 0.96586 0.51526 0.0
H2151 H 0.2635 0.94492 0.52491 0.0
H2152 H 0.37206 0.09387 0.53787 0.0
H2153 H 0.25205 0.04676 0.55744 0.0
H2154 H 0.3556 0.05932 0.47684 0.0
H2155 H 0.36096 0.02529 0.49564 0.0
H2156 H 0.39102 0.07674 0.50132 0.0
H2157 H 0.20997 1.0019 0.50249 0.0
H2158 H 0.20089 0.99795 0.535 0.0
H2159 H 0.21344 0.96541 0.51981 0.0
loop_
_geom_bond_atom_site_label_1
_geom_bond_atom_site_label_2
_geom_bond_distance
_geom_bond_site_symmetry_2
_ccdc_geom_bond_type
Eu0 N29 2.600 . S
Eu0 N35 2.562 . S
Eu0 O44 2.462 . S
Eu0 O45 2.373 . S
Eu0 O47 2.432 . S
Eu0 O48 2.291 . S
Eu0 O52 2.335 . S
Eu0 O55 2.372 . S
Eu0 C64 2.787 . S
C1 N2 1.365 . S
C1 C4 1.405 . S
C1 C8 1.448 . S
N2 C1 1.365 . S
N2 C5 1.319 . S
N2 Eu11 2.600 . S
C3 C5 1.397 . S
C3 C6 1.367 . S
C3 H23 0.931 1_554 S
C4 C1 1.405 . S
C4 C6 1.403 . S
C4 C10 1.439 . S
C5 N2 1.319 . S
C5 C3 1.397 . S
C5 H16 0.930 . S
C6 C3 1.367 . S
C6 C4 1.403 . S
C6 H27 0.929 . S
C7 C8 1.430 . S
C7 C9 1.398 . S
C7 C13 1.404 . S
C8 C1 1.448 . S
C8 C7 1.430 . S
C8 N12 1.351 . S
C9 C7 1.398 . S
C9 C10 1.382 . S
C9 H24 0.912 1_455 S
C10 C4 1.439 . S
C10 C9 1.382 . S
C10 H25 0.931 1_455 S
Eu11 N2 2.600 . S
Eu11 N12 2.562 . S
Eu11 O46 2.335 . S
Eu11 O49 2.372 . S
Eu11 O50 2.462 . S
Eu11 O51 2.373 . S
Eu11 O53 2.432 . S
Eu11 O54 2.291 . S
Eu11 C75 2.787 . S
N12 C8 1.351 . S
N12 Eu11 2.562 . S
N12 C14 1.325 . S
C13 C7 1.404 . S
C13 C15 1.366 . S
C13 H21 0.930 1_455 S
C14 N12 1.325 . S
C14 C15 1.416 . S
C14 H20 0.929 . S
C15 C13 1.366 . S
C15 C14 1.416 . S
C15 H17 0.930 . S
H16 C5 0.930 . S
H17 C15 0.930 . S
H18 C33 0.930 . S
H19 C40 0.930 . S
H20 C14 0.929 . S
H21 C13 0.930 1_655 S
H22 C36 0.929 . S
H23 C3 0.931 1_556 S
H24 C9 0.912 1_655 S
H25 C10 0.931 1_655 S
H26 C31 0.931 . S
H27 C6 0.929 . S
H28 C39 0.930 . S
N29 Eu0 2.600 . S
N29 C30 1.365 . S
N29 C33 1.319 . S
C30 N29 1.365 . S
C30 C32 1.405 . S
C30 C38 1.448 . S
C31 H26 0.931 . S
C31 C33 1.397 . S
C31 C34 1.367 . S
C32 C30 1.405 . S
C32 C34 1.403 . S
C32 C65 1.439 . S
C33 H18 0.930 . S
C33 N29 1.319 . S
C33 C31 1.397 . S
C34 C31 1.367 . S
C34 C32 1.403 . S
C34 H41 0.929 . S
N35 Eu0 2.562 . S
N35 C36 1.325 . S
N35 C38 1.351 . S
C36 H22 0.929 . S
C36 N35 1.325 . S
C36 C40 1.416 . S
C37 C38 1.430 . S
C37 C39 1.404 . S
C37 C66 1.387 . S
C38 C30 1.448 . S
C38 N35 1.351 . S
C38 C37 1.430 . S
C39 H28 0.930 . S
C39 C37 1.404 . S
C39 C40 1.366 . S
C40 H19 0.930 . S
C40 C36 1.416 . S
C40 C39 1.366 . S
H41 C34 0.929 . S
H42 C65 0.931 . S
H43 C66 0.931 . S
O44 Eu0 2.462 . S
O44 C64 1.252 . S
O45 Eu0 2.373 . S
O45 C56 1.249 . S
O46 Eu11 2.335 . S
O46 C56 1.264 . S
O47 Eu0 2.432 . S
O47 C64 1.268 . S
O48 Eu0 2.291 . S
O48 C63 1.255 . S
O49 Eu11 2.372 . S
O49 C63 1.257 . S
O50 Eu11 2.462 . S
O50 C75 1.252 . S
O51 Eu11 2.373 . S
O51 C67 1.249 . S
O52 Eu0 2.335 . S
O52 C67 1.264 . S
O53 Eu11 2.432 . S
O53 C75 1.268 . S
O54 Eu11 2.291 . S
O54 C74 1.255 . S
O55 Eu0 2.372 . S
O55 C74 1.257 . S
C56 O45 1.249 . S
C56 O46 1.264 . S
C57 C60 1.382 . S
C57 C62 1.390 . S
C57 C64 1.506 . S
C58 C59 1.398 . S
C58 C62 1.392 . S
C59 C58 1.398 . S
C59 C61 1.372 . S
C59 H76 0.931 . S
C60 C57 1.382 . S
C60 C61 1.390 . S
C60 H77 0.931 . S
C61 C59 1.372 . S
C61 C60 1.390 . S
C61 H78 0.929 . S
C62 C57 1.390 . S
C62 C58 1.392 . S
C62 H79 0.930 . S
C63 O48 1.255 . S
C63 O49 1.257 . S
C64 Eu0 2.787 . S
C64 O44 1.252 . S
C64 O47 1.268 . S
C64 C57 1.506 . S
C65 C32 1.439 . S
C65 H42 0.931 . S
C65 C66 1.374 . S
C66 C37 1.387 . S
C66 H43 0.931 . S
C66 C65 1.374 . S
C67 O51 1.249 . S
C67 O52 1.264 . S
C68 C71 1.382 . S
C68 C72 1.390 . S
C68 C75 1.506 . S
C69 C70 1.398 . S
C69 C72 1.392 . S
C70 C69 1.398 . S
C70 C73 1.372 . S
C70 H80 0.931 . S
C71 C68 1.382 . S
C71 C73 1.390 . S
C71 H81 0.931 . S
C72 C68 1.390 . S
C72 C69 1.392 . S
C72 H82 0.930 . S
C73 C70 1.372 . S
C73 C71 1.390 . S
C73 H83 0.929 . S
C74 O54 1.255 . S
C74 O55 1.257 . S
C75 Eu11 2.787 . S
C75 O50 1.252 . S
C75 O53 1.268 . S
C75 C68 1.506 . S
H76 C59 0.931 . S
H77 C60 0.931 . S
H78 C61 0.929 . S
H79 C62 0.930 . S
H80 C70 0.931 . S
H81 C71 0.931 . S
H82 C72 0.930 . S
H83 C73 0.929 . S
Eu84 N113 2.600 . S
Eu84 N119 2.562 . S
Eu84 O128 2.462 . S
Eu84 O129 2.373 . S
Eu84 O131 2.432 . S
Eu84 O132 2.291 . S
Eu84 O136 2.335 . S
Eu84 O139 2.372 . S
Eu84 C148 2.787 . S
C85 N86 1.365 . S
C85 C88 1.405 . S
C85 C92 1.448 . S
N86 C85 1.365 . S
N86 C89 1.319 . S
N86 Eu95 2.600 . S
C87 C89 1.397 . S
C87 C90 1.367 . S
C87 H107 0.931 . S
C88 C85 1.405 . S
C88 C90 1.403 . S
C88 C94 1.439 . S
C89 N86 1.319 . S
C89 C87 1.397 . S
C89 H100 0.930 . S
C90 C87 1.367 . S
C90 C88 1.403 . S
C90 H111 0.929 . S
C91 C92 1.430 . S
C91 C93 1.399 . S
C91 C97 1.404 . S
C92 C85 1.448 . S
C92 C91 1.430 . S
C92 N96 1.351 . S
C93 C91 1.399 . S
C93 C94 1.378 . S
C93 H108 0.915 1_545 S
C94 C88 1.439 . S
C94 C93 1.378 . S
C94 H109 0.931 1_545 S
Eu95 N86 2.600 . S
Eu95 N96 2.562 . S
Eu95 O130 2.335 . S
Eu95 O133 2.372 . S
Eu95 O134 2.462 . S
Eu95 O135 2.373 . S
Eu95 O137 2.432 . S
Eu95 O138 2.291 . S
Eu95 C159 2.787 . S
N96 C92 1.351 . S
N96 Eu95 2.562 . S
N96 C98 1.325 . S
C97 C91 1.404 . S
C97 C99 1.366 . S
C97 H105 0.930 1_545 S
C98 N96 1.325 . S
C98 C99 1.416 . S
C98 H104 0.929 . S
C99 C97 1.366 . S
C99 C98 1.416 . S
C99 H101 0.930 . S
H100 C89 0.930 . S
H101 C99 0.930 . S
H102 C117 0.930 . S
H103 C124 0.930 . S
H104 C98 0.929 . S
H105 C97 0.930 1_565 S
H106 C120 0.929 . S
H107 C87 0.931 . S
H108 C93 0.915 1_565 S
H109 C94 0.931 1_565 S
H110 C115 0.931 . S
H111 C90 0.929 . S
H112 C123 0.930 . S
N113 Eu84 2.600 . S
N113 C114 1.365 . S
N113 C117 1.319 . S
C114 N113 1.365 . S
C114 C116 1.405 . S
C114 C122 1.448 . S
C115 H110 0.931 . S
C115 C117 1.397 . S
C115 C118 1.367 . S
C116 C114 1.405 . S
C116 C118 1.403 . S
C116 C149 1.439 . S
C117 H102 0.930 . S
C117 N113 1.319 . S
C117 C115 1.397 . S
C118 C115 1.367 . S
C118 C116 1.403 . S
C118 H125 0.929 . S
N119 Eu84 2.562 . S
N119 C120 1.325 . S
N119 C122 1.351 . S
C120 H106 0.929 . S
C120 N119 1.325 . S
C120 C124 1.415 1_655 S
C121 C122 1.434 . S
C121 C123 1.399 1_655 S
C121 C150 1.389 1_655 S
C122 C114 1.448 . S
C122 N119 1.351 . S
C122 C121 1.434 . S
C123 H112 0.930 . S
C123 C121 1.399 1_455 S
C123 C124 1.366 . S
C124 H103 0.930 . S
C124 C120 1.415 1_455 S
C124 C123 1.366 . S
H125 C118 0.929 . S
H126 C149 0.931 1_455 S
H127 C150 0.931 . S
O128 Eu84 2.462 . S
O128 C148 1.252 . S
O129 Eu84 2.373 . S
O129 C140 1.249 . S
O130 Eu95 2.335 . S
O130 C140 1.264 . S
O131 Eu84 2.432 . S
O131 C148 1.268 . S
O132 Eu84 2.291 . S
O132 C147 1.255 . S
O133 Eu95 2.372 . S
O133 C147 1.257 . S
O134 Eu95 2.462 . S
O134 C159 1.252 . S
O135 Eu95 2.373 . S
O135 C151 1.249 . S
O136 Eu84 2.335 . S
O136 C151 1.264 . S
O137 Eu95 2.432 . S
O137 C159 1.268 . S
O138 Eu95 2.291 . S
O138 C158 1.255 . S
O139 Eu84 2.372 . S
O139 C158 1.257 . S
C140 O129 1.249 . S
C140 O130 1.264 . S
C141 C144 1.382 . S
C141 C146 1.390 . S
C141 C148 1.506 1_455 S
C142 C143 1.398 . S
C142 C146 1.392 . S
C143 C142 1.398 . S
C143 C145 1.372 . S
C143 H160 0.931 . S
C144 C141 1.382 . S
C144 C145 1.390 . S
C144 H161 0.931 . S
C145 C143 1.372 . S
C145 C144 1.390 . S
C145 H162 0.929 . S
C146 C141 1.390 . S
C146 C142 1.392 . S
C146 H163 0.930 . S
C147 O132 1.255 . S
C147 O133 1.257 . S
C148 Eu84 2.787 . S
C148 O128 1.252 . S
C148 O131 1.268 . S
C148 C141 1.506 1_655 S
C149 C116 1.439 . S
C149 H126 0.931 1_655 S
C149 C150 1.374 1_655 S
C150 C121 1.389 1_455 S
C150 H127 0.931 . S
C150 C149 1.374 1_455 S
C151 O135 1.249 . S
C151 O136 1.264 . S
C152 C155 1.382 . S
C152 C156 1.390 . S
C152 C159 1.506 . S
C153 C154 1.398 . S
C153 C156 1.392 . S
C154 C153 1.398 . S
C154 C157 1.372 . S
C154 H164 0.931 . S
C155 C152 1.382 . S
C155 C157 1.390 . S
C155 H165 0.931 . S
C156 C152 1.390 . S
C156 C153 1.392 . S
C156 H166 0.930 . S
C157 C154 1.372 . S
C157 C155 1.390 . S
C157 H167 0.929 . S
C158 O138 1.255 . S
C158 O139 1.257 . S
C159 Eu95 2.787 . S
C159 O134 1.252 . S
C159 O137 1.268 . S
C159 C152 1.506 . S
H160 C143 0.931 . S
H161 C144 0.931 . S
H162 C145 0.929 . S
H163 C146 0.930 . S
H164 C154 0.931 . S
H165 C155 0.931 . S
H166 C156 0.930 . S
H167 C157 0.929 . S
Eu168 N197 2.600 . S
Eu168 N203 2.562 . S
Eu168 O212 2.462 . S
Eu168 O213 2.373 . S
Eu168 O215 2.432 . S
Eu168 O216 2.291 . S
Eu168 O220 2.335 . S
Eu168 O223 2.372 . S
Eu168 C232 2.787 . S
C169 N170 1.365 . S
C169 C172 1.405 . S
C169 C176 1.448 . S
N170 C169 1.365 . S
N170 C173 1.319 . S
N170 Eu179 2.600 . S
C171 C173 1.397 . S
C171 C174 1.367 . S
C171 H191 0.931 1_554 S
C172 C169 1.405 . S
C172 C174 1.403 . S
C172 C178 1.439 . S
C173 N170 1.319 . S
C173 C171 1.397 . S
C173 H184 0.930 . S
C174 C171 1.367 . S
C174 C172 1.403 . S
C174 H195 0.929 . S
C175 C176 1.430 . S
C175 C177 1.387 . S
C175 C181 1.404 . S
C176 C169 1.448 . S
C176 C175 1.430 . S
C176 N180 1.351 . S
C177 C175 1.387 . S
C177 C178 1.374 . S
C177 H192 0.931 . S
C178 C172 1.439 . S
C178 C177 1.374 . S
C178 H193 0.931 . S
Eu179 N170 2.600 . S
Eu179 N180 2.562 . S
Eu179 O214 2.335 . S
Eu179 O217 2.372 . S
Eu179 O218 2.462 . S
Eu179 O219 2.373 . S
Eu179 O221 2.432 . S
Eu179 O222 2.291 . S
Eu179 C243 2.787 . S
N180 C176 1.351 . S
N180 Eu179 2.562 . S
N180 C182 1.325 . S
C181 C175 1.404 . S
C181 C183 1.366 . S
C181 H189 0.930 . S
C182 N180 1.325 . S
C182 C183 1.416 . S
C182 H188 0.929 . S
C183 C181 1.366 . S
C183 C182 1.416 . S
C183 H185 0.930 . S
H184 C173 0.930 . S
H185 C183 0.930 . S
H186 C201 0.930 . S
H187 C208 0.930 . S
H188 C182 0.929 . S
H189 C181 0.930 . S
H190 C204 0.929 . S
H191 C171 0.931 1_556 S
H192 C177 0.931 . S
H193 C178 0.931 . S
H194 C199 0.931 . S
H195 C174 0.929 . S
H196 C207 0.930 . S
N197 Eu168 2.600 . S
N197 C198 1.365 . S
N197 C201 1.319 . S
C198 N197 1.365 . S
C198 C200 1.405 . S
C198 C206 1.448 . S
C199 H194 0.931 . S
C199 C201 1.397 . S
C199 C202 1.367 . S
C200 C198 1.405 . S
C200 C202 1.403 . S
C200 C233 1.439 . S
C201 H186 0.930 . S
C201 N197 1.319 . S
C201 C199 1.397 . S
C202 C199 1.367 . S
C202 C200 1.403 . S
C202 H209 0.929 . S
N203 Eu168 2.562 . S
N203 C204 1.325 . S
N203 C206 1.351 . S
C204 H190 0.929 . S
C204 N203 1.325 . S
C204 C208 1.414 1_565 S
C205 C206 1.458 . S
C205 C207 1.394 1_565 S
C205 C234 1.371 1_565 S
C206 C198 1.448 . S
C206 N203 1.351 . S
C206 C205 1.458 . S
C207 H196 0.930 . S
C207 C205 1.394 1_545 S
C207 C208 1.367 . S
C208 H187 0.930 . S
C208 C204 1.414 1_545 S
C208 C207 1.367 . S
H209 C202 0.929 . S
H210 C233 0.931 1_545 S
H211 C234 0.931 . S
O212 Eu168 2.462 . S
O212 C232 1.252 . S
O213 Eu168 2.373 . S
O213 C224 1.249 . S
O214 Eu179 2.335 . S
O214 C224 1.264 . S
O215 Eu168 2.432 . S
O215 C232 1.268 . S
O216 Eu168 2.291 . S
O216 C231 1.255 . S
O217 Eu179 2.372 . S
O217 C231 1.257 . S
O218 Eu179 2.462 . S
O218 C243 1.252 . S
O219 Eu179 2.373 . S
O219 C235 1.249 . S
O220 Eu168 2.335 . S
O220 C235 1.264 . S
O221 Eu179 2.432 . S
O221 C243 1.268 . S
O222 Eu179 2.291 . S
O222 C242 1.255 . S
O223 Eu168 2.372 . S
O223 C242 1.257 . S
C224 O213 1.249 . S
C224 O214 1.264 . S
C225 C228 1.382 . S
C225 C230 1.390 . S
C225 C232 1.506 1_545 S
C226 C227 1.398 . S
C226 C230 1.392 . S
C227 C226 1.398 . S
C227 C229 1.372 . S
C227 H244 0.931 . S
C228 C225 1.382 . S
C228 C229 1.390 . S
C228 H245 0.931 . S
C229 C227 1.372 . S
C229 C228 1.390 . S
C229 H246 0.929 . S
C230 C225 1.390 . S
C230 C226 1.392 . S
C230 H247 0.930 . S
C231 O216 1.255 . S
C231 O217 1.257 . S
C232 Eu168 2.787 . S
C232 O212 1.252 . S
C232 O215 1.268 . S
C232 C225 1.506 1_565 S
C233 C200 1.439 . S
C233 H210 0.931 1_565 S
C233 C234 1.374 1_565 S
C234 C205 1.371 1_545 S
C234 H211 0.931 . S
C234 C233 1.374 1_545 S
C235 O219 1.249 . S
C235 O220 1.264 . S
C236 C239 1.382 . S
C236 C240 1.390 . S
C236 C243 1.506 . S
C237 C238 1.398 . S
C237 C240 1.392 . S
C238 C237 1.398 . S
C238 C241 1.372 . S
C238 H248 0.931 . S
C239 C236 1.382 . S
C239 C241 1.390 . S
C239 H249 0.931 . S
C240 C236 1.390 . S
C240 C237 1.392 . S
C240 H250 0.930 . S
C241 C238 1.372 . S
C241 C239 1.390 . S
C241 H251 0.929 . S
C242 O222 1.255 . S
C242 O223 1.257 . S
C243 Eu179 2.787 . S
C243 O218 1.252 . S
C243 O221 1.268 . S
C243 C236 1.506 . S
H244 C227 0.931 . S
H245 C228 0.931 . S
H246 C229 0.929 . S
H247 C230 0.930 . S
H248 C238 0.931 . S
H249 C239 0.931 . S
H250 C240 0.930 . S
H251 C241 0.929 . S
Eu252 N281 2.600 . S
Eu252 N287 2.562 . S
Eu252 O296 2.462 . S
Eu252 O297 2.373 . S
Eu252 O299 2.432 . S
Eu252 O300 2.291 . S
Eu252 O304 2.335 . S
Eu252 O307 2.372 . S
Eu252 C316 2.787 . S
C253 N254 1.365 . S
C253 C256 1.405 . S
C253 C260 1.448 . S
N254 C253 1.365 . S
N254 C257 1.319 . S
N254 Eu263 2.600 . S
C255 C257 1.397 . S
C255 C258 1.367 . S
C255 H275 0.931 . S
C256 C253 1.405 . S
C256 C258 1.403 . S
C256 C262 1.439 . S
C257 N254 1.319 . S
C257 C255 1.397 . S
C257 H268 0.930 . S
C258 C255 1.367 . S
C258 C256 1.403 . S
C258 H279 0.929 . S
C259 C260 1.430 . S
C259 C261 1.398 . S
C259 C265 1.404 . S
C260 C253 1.448 . S
C260 C259 1.430 . S
C260 N264 1.351 . S
C261 C259 1.398 . S
C261 C262 1.382 . S
C261 H276 0.912 1_655 S
C262 C256 1.439 . S
C262 C261 1.382 . S
C262 H277 0.931 1_655 S
Eu263 N254 2.600 . S
Eu263 N264 2.562 . S
Eu263 O298 2.335 . S
Eu263 O301 2.372 . S
Eu263 O302 2.462 . S
Eu263 O303 2.373 . S
Eu263 O305 2.432 . S
Eu263 O306 2.291 . S
Eu263 C327 2.787 . S
N264 C260 1.351 . S
N264 Eu263 2.562 . S
N264 C266 1.325 . S
C265 C259 1.404 . S
C265 C267 1.366 . S
C265 H273 0.930 1_655 S
C266 N264 1.325 . S
C266 C267 1.416 . S
C266 H272 0.929 . S
C267 C265 1.366 . S
C267 C266 1.416 . S
C267 H269 0.930 . S
H268 C257 0.930 . S
H269 C267 0.930 . S
H270 C285 0.930 . S
H271 C292 0.930 . S
H272 C266 0.929 . S
H273 C265 0.930 1_455 S
H274 C288 0.929 . S
H275 C255 0.931 . S
H276 C261 0.912 1_455 S
H277 C262 0.931 1_455 S
H278 C283 0.931 . S
H279 C258 0.929 . S
H280 C291 0.930 . S
N281 Eu252 2.600 . S
N281 C282 1.365 . S
N281 C285 1.319 . S
C282 N281 1.365 . S
C282 C284 1.405 . S
C282 C290 1.448 . S
C283 H278 0.931 . S
C283 C285 1.397 . S
C283 C286 1.367 . S
C284 C282 1.405 . S
C284 C286 1.403 . S
C284 C317 1.439 . S
C285 H270 0.930 . S
C285 N281 1.319 . S
C285 C283 1.397 . S
C286 C283 1.367 . S
C286 C284 1.403 . S
C286 H293 0.929 . S
N287 Eu252 2.562 . S
N287 C288 1.325 . S
N287 C290 1.351 . S
C288 H274 0.929 . S
C288 N287 1.325 . S
C288 C292 1.416 . S
C289 C290 1.430 . S
C289 C291 1.404 . S
C289 C318 1.387 . S
C290 C282 1.448 . S
C290 N287 1.351 . S
C290 C289 1.430 . S
C291 H280 0.930 . S
C291 C289 1.404 . S
C291 C292 1.366 . S
C292 H271 0.930 . S
C292 C288 1.416 . S
C292 C291 1.366 . S
H293 C286 0.929 . S
H294 C317 0.931 . S
H295 C318 0.931 . S
O296 Eu252 2.462 . S
O296 C316 1.252 . S
O297 Eu252 2.373 . S
O297 C308 1.249 . S
O298 Eu263 2.335 . S
O298 C308 1.264 . S
O299 Eu252 2.432 . S
O299 C316 1.268 . S
O300 Eu252 2.291 . S
O300 C315 1.255 . S
O301 Eu263 2.372 . S
O301 C315 1.257 . S
O302 Eu263 2.462 . S
O302 C327 1.252 . S
O303 Eu263 2.373 . S
O303 C319 1.249 . S
O304 Eu252 2.335 . S
O304 C319 1.264 . S
O305 Eu263 2.432 . S
O305 C327 1.268 . S
O306 Eu263 2.291 . S
O306 C326 1.255 . S
O307 Eu252 2.372 . S
O307 C326 1.257 . S
C308 O297 1.249 . S
C308 O298 1.264 . S
C309 C312 1.382 . S
C309 C314 1.390 . S
C309 C316 1.506 . S
C310 C311 1.398 . S
C310 C314 1.392 . S
C311 C310 1.398 . S
C311 C313 1.372 . S
C311 H328 0.931 . S
C312 C309 1.382 . S
C312 C313 1.390 . S
C312 H329 0.931 . S
C313 C311 1.372 . S
C313 C312 1.390 . S
C313 H330 0.929 . S
C314 C309 1.390 . S
C314 C310 1.392 . S
C314 H331 0.930 . S
C315 O300 1.255 . S
C315 O301 1.257 . S
C316 Eu252 2.787 . S
C316 O296 1.252 . S
C316 O299 1.268 . S
C316 C309 1.506 . S
C317 C284 1.439 . S
C317 H294 0.931 . S
C317 C318 1.374 . S
C318 C289 1.387 . S
C318 H295 0.931 . S
C318 C317 1.374 . S
C319 O303 1.249 . S
C319 O304 1.264 . S
C320 C323 1.382 . S
C320 C324 1.390 . S
C320 C327 1.506 . S
C321 C322 1.398 . S
C321 C324 1.392 . S
C322 C321 1.398 . S
C322 C325 1.372 . S
C322 H332 0.931 . S
C323 C320 1.382 . S
C323 C325 1.390 . S
C323 H333 0.931 . S
C324 C320 1.390 . S
C324 C321 1.392 . S
C324 H334 0.930 . S
C325 C322 1.372 . S
C325 C323 1.390 . S
C325 H335 0.929 . S
C326 O306 1.255 . S
C326 O307 1.257 . S
C327 Eu263 2.787 . S
C327 O302 1.252 . S
C327 O305 1.268 . S
C327 C320 1.506 . S
H328 C311 0.931 . S
H329 C312 0.931 . S
H330 C313 0.929 . S
H331 C314 0.930 . S
H332 C322 0.931 . S
H333 C323 0.931 . S
H334 C324 0.930 . S
H335 C325 0.929 . S
Eu336 N365 2.600 . S
Eu336 N371 2.562 . S
Eu336 O380 2.462 . S
Eu336 O381 2.373 . S
Eu336 O383 2.432 . S
Eu336 O384 2.291 . S
Eu336 O388 2.335 . S
Eu336 O391 2.372 . S
Eu336 C400 2.787 . S
C337 N338 1.365 . S
C337 C340 1.405 . S
C337 C344 1.448 . S
N338 C337 1.365 . S
N338 C341 1.319 . S
N338 Eu347 2.600 . S
C339 C341 1.397 . S
C339 C342 1.367 . S
C339 H359 0.931 1_554 S
C340 C337 1.405 . S
C340 C342 1.403 . S
C340 C346 1.439 . S
C341 N338 1.319 . S
C341 C339 1.397 . S
C341 H352 0.930 . S
C342 C339 1.367 . S
C342 C340 1.403 . S
C342 H363 0.929 . S
C343 C344 1.430 . S
C343 C345 1.399 . S
C343 C349 1.404 . S
C344 C337 1.448 . S
C344 C343 1.430 . S
C344 N348 1.351 . S
C345 C343 1.399 . S
C345 C346 1.378 . S
C345 H360 0.916 1_565 S
C346 C340 1.439 . S
C346 C345 1.378 . S
C346 H361 0.931 1_565 S
Eu347 N338 2.600 . S
Eu347 N348 2.562 . S
Eu347 O382 2.335 . S
Eu347 O385 2.372 . S
Eu347 O386 2.462 . S
Eu347 O387 2.373 . S
Eu347 O389 2.432 . S
Eu347 O390 2.291 . S
Eu347 C411 2.787 . S
N348 C344 1.351 . S
N348 Eu347 2.562 . S
N348 C350 1.325 . S
C349 C343 1.404 . S
C349 C351 1.366 . S
C349 H357 0.930 1_565 S
C350 N348 1.325 . S
C350 C351 1.416 . S
C350 H356 0.929 . S
C351 C349 1.366 . S
C351 C350 1.416 . S
C351 H353 0.930 . S
H352 C341 0.930 . S
H353 C351 0.930 . S
H354 C369 0.930 . S
H355 C376 0.930 . S
H356 C350 0.929 . S
H357 C349 0.930 1_545 S
H358 C372 0.929 . S
H359 C339 0.931 1_556 S
H360 C345 0.916 1_545 S
H361 C346 0.931 1_545 S
H362 C367 0.931 . S
H363 C342 0.929 . S
H364 C375 0.930 . S
N365 Eu336 2.600 . S
N365 C366 1.365 . S
N365 C369 1.319 . S
C366 N365 1.365 . S
C366 C368 1.405 . S
C366 C374 1.448 . S
C367 H362 0.931 . S
C367 C369 1.397 . S
C367 C370 1.367 . S
C368 C366 1.405 . S
C368 C370 1.403 . S
C368 C401 1.439 . S
C369 H354 0.930 . S
C369 N365 1.319 . S
C369 C367 1.397 . S
C370 C367 1.367 . S
C370 C368 1.403 . S
C370 H377 0.929 . S
N371 Eu336 2.562 . S
N371 C372 1.325 . S
N371 C374 1.351 . S
C372 H358 0.929 . S
C372 N371 1.325 . S
C372 C376 1.415 1_455 S
C373 C374 1.434 . S
C373 C375 1.399 1_455 S
C373 C402 1.389 1_455 S
C374 C366 1.448 . S
C374 N371 1.351 . S
C374 C373 1.434 . S
C375 H364 0.930 . S
C375 C373 1.399 1_655 S
C375 C376 1.366 . S
C376 H355 0.930 . S
C376 C372 1.415 1_655 S
C376 C375 1.366 . S
H377 C370 0.929 . S
H378 C401 0.931 1_655 S
H379 C402 0.931 . S
O380 Eu336 2.462 . S
O380 C400 1.252 . S
O381 Eu336 2.373 . S
O381 C392 1.249 . S
O382 Eu347 2.335 . S
O382 C392 1.264 . S
O383 Eu336 2.432 . S
O383 C400 1.268 . S
O384 Eu336 2.291 . S
O384 C399 1.255 . S
O385 Eu347 2.372 . S
O385 C399 1.257 . S
O386 Eu347 2.462 . S
O386 C411 1.252 . S
O387 Eu347 2.373 . S
O387 C403 1.249 . S
O388 Eu336 2.335 . S
O388 C403 1.264 . S
O389 Eu347 2.432 . S
O389 C411 1.268 . S
O390 Eu347 2.291 . S
O390 C410 1.255 . S
O391 Eu336 2.372 . S
O391 C410 1.257 . S
C392 O381 1.249 . S
C392 O382 1.264 . S
C393 C396 1.382 . S
C393 C398 1.390 . S
C393 C400 1.506 1_655 S
C394 C395 1.398 . S
C394 C398 1.392 . S
C395 C394 1.398 . S
C395 C397 1.372 . S
C395 H412 0.931 . S
C396 C393 1.382 . S
C396 C397 1.390 . S
C396 H413 0.931 . S
C397 C395 1.372 . S
C397 C396 1.390 . S
C397 H414 0.929 . S
C398 C393 1.390 . S
C398 C394 1.392 . S
C398 H415 0.930 . S
C399 O384 1.255 . S
C399 O385 1.257 . S
C400 Eu336 2.787 . S
C400 O380 1.252 . S
C400 O383 1.268 . S
C400 C393 1.506 1_455 S
C401 C368 1.439 . S
C401 H378 0.931 1_455 S
C401 C402 1.374 1_455 S
C402 C373 1.389 1_655 S
C402 H379 0.931 . S
C402 C401 1.374 1_655 S
C403 O387 1.249 . S
C403 O388 1.264 . S
C404 C407 1.382 . S
C404 C408 1.390 . S
C404 C411 1.506 . S
C405 C406 1.398 . S
C405 C408 1.392 . S
C406 C405 1.398 . S
C406 C409 1.372 . S
C406 H416 0.931 . S
C407 C404 1.382 . S
C407 C409 1.390 . S
C407 H417 0.931 . S
C408 C404 1.390 . S
C408 C405 1.392 . S
C408 H418 0.930 . S
C409 C406 1.372 . S
C409 C407 1.390 . S
C409 H419 0.929 . S
C410 O390 1.255 . S
C410 O391 1.257 . S
C411 Eu347 2.787 . S
C411 O386 1.252 . S
C411 O389 1.268 . S
C411 C404 1.506 . S
H412 C395 0.931 . S
H413 C396 0.931 . S
H414 C397 0.929 . S
H415 C398 0.930 . S
H416 C406 0.931 . S
H417 C407 0.931 . S
H418 C408 0.930 . S
H419 C409 0.929 . S
Eu420 N449 2.600 . S
Eu420 N455 2.562 . S
Eu420 O464 2.462 . S
Eu420 O465 2.373 . S
Eu420 O467 2.432 . S
Eu420 O468 2.291 . S
Eu420 O472 2.335 . S
Eu420 O475 2.372 . S
Eu420 C484 2.787 . S
C421 N422 1.365 . S
C421 C424 1.405 . S
C421 C428 1.448 . S
N422 C421 1.365 . S
N422 C425 1.319 . S
N422 Eu431 2.600 . S
C423 C425 1.397 . S
C423 C426 1.367 . S
C423 H443 0.931 . S
C424 C421 1.405 . S
C424 C426 1.403 . S
C424 C430 1.439 . S
C425 N422 1.319 . S
C425 C423 1.397 . S
C425 H436 0.930 . S
C426 C423 1.367 . S
C426 C424 1.403 . S
C426 H447 0.929 . S
C427 C428 1.430 . S
C427 C429 1.387 . S
C427 C433 1.404 . S
C428 C421 1.448 . S
C428 C427 1.430 . S
C428 N432 1.351 . S
C429 C427 1.387 . S
C429 C430 1.374 . S
C429 H444 0.931 . S
C430 C424 1.439 . S
C430 C429 1.374 . S
C430 H445 0.931 . S
Eu431 N422 2.600 . S
Eu431 N432 2.562 . S
Eu431 O466 2.335 . S
Eu431 O469 2.372 . S
Eu431 O470 2.462 . S
Eu431 O471 2.373 . S
Eu431 O473 2.432 . S
Eu431 O474 2.291 . S
Eu431 C495 2.787 . S
N432 C428 1.351 . S
N432 Eu431 2.562 . S
N432 C434 1.325 . S
C433 C427 1.404 . S
C433 C435 1.366 . S
C433 H441 0.930 . S
C434 N432 1.325 . S
C434 C435 1.416 . S
C434 H440 0.929 . S
C435 C433 1.366 . S
C435 C434 1.416 . S
C435 H437 0.930 . S
H436 C425 0.930 . S
H437 C435 0.930 . S
H438 C453 0.930 . S
H439 C460 0.930 . S
H440 C434 0.929 . S
H441 C433 0.930 . S
H442 C456 0.929 . S
H443 C423 0.931 . S
H444 C429 0.931 . S
H445 C430 0.931 . S
H446 C451 0.931 . S
H447 C426 0.929 . S
H448 C459 0.930 . S
N449 Eu420 2.600 . S
N449 C450 1.365 . S
N449 C453 1.319 . S
C450 N449 1.365 . S
C450 C452 1.405 . S
C450 C458 1.448 . S
C451 H446 0.931 . S
C451 C453 1.397 . S
C451 C454 1.367 . S
C452 C450 1.405 . S
C452 C454 1.403 . S
C452 C485 1.439 . S
C453 H438 0.930 . S
C453 N449 1.319 . S
C453 C451 1.397 . S
C454 C451 1.367 . S
C454 C452 1.403 . S
C454 H461 0.929 . S
N455 Eu420 2.562 . S
N455 C456 1.325 . S
N455 C458 1.351 . S
C456 H442 0.929 . S
C456 N455 1.325 . S
C456 C460 1.414 1_545 S
C457 C458 1.458 . S
C457 C459 1.394 1_545 S
C457 C486 1.371 1_545 S
C458 C450 1.448 . S
C458 N455 1.351 . S
C458 C457 1.458 . S
C459 H448 0.930 . S
C459 C457 1.394 1_565 S
C459 C460 1.367 . S
C460 H439 0.930 . S
C460 C456 1.414 1_565 S
C460 C459 1.367 . S
H461 C454 0.929 . S
H462 C485 0.931 1_565 S
H463 C486 0.931 . S
O464 Eu420 2.462 . S
O464 C484 1.252 . S
O465 Eu420 2.373 . S
O465 C476 1.249 . S
O466 Eu431 2.335 . S
O466 C476 1.264 . S
O467 Eu420 2.432 . S
O467 C484 1.268 . S
O468 Eu420 2.291 . S
O468 C483 1.255 . S
O469 Eu431 2.372 . S
O469 C483 1.257 . S
O470 Eu431 2.462 . S
O470 C495 1.252 . S
O471 Eu431 2.373 . S
O471 C487 1.249 . S
O472 Eu420 2.335 . S
O472 C487 1.264 . S
O473 Eu431 2.432 . S
O473 C495 1.268 . S
O474 Eu431 2.291 . S
O474 C494 1.255 . S
O475 Eu420 2.372 . S
O475 C494 1.257 . S
C476 O465 1.249 . S
C476 O466 1.264 . S
C477 C480 1.382 . S
C477 C482 1.390 . S
C477 C484 1.506 1_565 S
C478 C479 1.398 . S
C478 C482 1.392 . S
C479 C478 1.398 . S
C479 C481 1.372 . S
C479 H496 0.931 . S
C480 C477 1.382 . S
C480 C481 1.390 . S
C480 H497 0.931 . S
C481 C479 1.372 . S
C481 C480 1.390 . S
C481 H498 0.929 . S
C482 C477 1.390 . S
C482 C478 1.392 . S
C482 H499 0.930 . S
C483 O468 1.255 . S
C483 O469 1.257 . S
C484 Eu420 2.787 . S
C484 O464 1.252 . S
C484 O467 1.268 . S
C484 C477 1.506 1_545 S
C485 C452 1.439 . S
C485 H462 0.931 1_545 S
C485 C486 1.374 1_545 S
C486 C457 1.371 1_565 S
C486 H463 0.931 . S
C486 C485 1.374 1_565 S
C487 O471 1.249 . S
C487 O472 1.264 . S
C488 C491 1.382 . S
C488 C492 1.390 . S
C488 C495 1.506 . S
C489 C490 1.398 . S
C489 C492 1.392 . S
C490 C489 1.398 . S
C490 C493 1.372 . S
C490 H500 0.931 . S
C491 C488 1.382 . S
C491 C493 1.390 . S
C491 H501 0.931 . S
C492 C488 1.390 . S
C492 C489 1.392 . S
C492 H502 0.930 . S
C493 C490 1.372 . S
C493 C491 1.390 . S
C493 H503 0.929 . S
C494 O474 1.255 . S
C494 O475 1.257 . S
C495 Eu431 2.787 . S
C495 O470 1.252 . S
C495 O473 1.268 . S
C495 C488 1.506 . S
H496 C479 0.931 . S
H497 C480 0.931 . S
H498 C481 0.929 . S
H499 C482 0.930 . S
H500 C490 0.931 . S
H501 C491 0.931 . S
H502 C492 0.930 . S
H503 C493 0.929 . S
Eu504 N533 2.600 . S
Eu504 N539 2.562 . S
Eu504 O548 2.462 . S
Eu504 O549 2.373 . S
Eu504 O551 2.432 . S
Eu504 O552 2.291 . S
Eu504 O556 2.335 . S
Eu504 O559 2.372 . S
Eu504 C568 2.787 . S
C505 N506 1.365 . S
C505 C508 1.405 . S
C505 C512 1.448 . S
N506 C505 1.365 . S
N506 C509 1.319 . S
N506 Eu515 2.600 . S
C507 C509 1.397 . S
C507 C510 1.367 . S
C507 H527 0.931 . S
C508 C505 1.405 . S
C508 C510 1.403 . S
C508 C514 1.439 . S
C509 N506 1.319 . S
C509 C507 1.397 . S
C509 H520 0.930 . S
C510 C507 1.367 . S
C510 C508 1.403 . S
C510 H531 0.929 . S
C511 C512 1.430 . S
C511 C513 1.398 . S
C511 C517 1.404 . S
C512 C505 1.448 . S
C512 C511 1.430 . S
C512 N516 1.351 . S
C513 C511 1.398 . S
C513 C514 1.382 . S
C513 H528 0.912 1_565 S
C514 C508 1.439 . S
C514 C513 1.382 . S
C514 H529 0.931 1_565 S
Eu515 N506 2.600 . S
Eu515 N516 2.562 . S
Eu515 O550 2.335 . S
Eu515 O553 2.372 . S
Eu515 O554 2.462 . S
Eu515 O555 2.373 . S
Eu515 O557 2.432 . S
Eu515 O558 2.291 . S
Eu515 C579 2.787 . S
N516 C512 1.351 . S
N516 Eu515 2.562 . S
N516 C518 1.325 . S
C517 C511 1.404 . S
C517 C519 1.366 . S
C517 H525 0.930 1_565 S
C518 N516 1.325 . S
C518 C519 1.416 . S
C518 H524 0.929 . S
C519 C517 1.366 . S
C519 C518 1.416 . S
C519 H521 0.930 . S
H520 C509 0.930 . S
H521 C519 0.930 . S
H522 C537 0.930 . S
H523 C544 0.930 . S
H524 C518 0.929 . S
H525 C517 0.930 1_545 S
H526 C540 0.929 . S
H527 C507 0.931 . S
H528 C513 0.912 1_545 S
H529 C514 0.931 1_545 S
H530 C535 0.931 . S
H531 C510 0.929 . S
H532 C543 0.930 . S
N533 Eu504 2.600 . S
N533 C534 1.365 . S
N533 C537 1.319 . S
C534 N533 1.365 . S
C534 C536 1.405 . S
C534 C542 1.448 . S
C535 H530 0.931 . S
C535 C537 1.397 . S
C535 C538 1.367 . S
C536 C534 1.405 . S
C536 C538 1.403 . S
C536 C569 1.439 . S
C537 H522 0.930 . S
C537 N533 1.319 . S
C537 C535 1.397 . S
C538 C535 1.367 . S
C538 C536 1.403 . S
C538 H545 0.929 . S
N539 Eu504 2.562 . S
N539 C540 1.325 . S
N539 C542 1.351 . S
C540 H526 0.929 . S
C540 N539 1.325 . S
C540 C544 1.416 . S
C541 C542 1.430 . S
C541 C543 1.404 . S
C541 C570 1.387 . S
C542 C534 1.448 . S
C542 N539 1.351 . S
C542 C541 1.430 . S
C543 H532 0.930 . S
C543 C541 1.404 . S
C543 C544 1.366 . S
C544 H523 0.930 . S
C544 C540 1.416 . S
C544 C543 1.366 . S
H545 C538 0.929 . S
H546 C569 0.931 . S
H547 C570 0.931 . S
O548 Eu504 2.462 . S
O548 C568 1.252 . S
O549 Eu504 2.373 . S
O549 C560 1.249 . S
O550 Eu515 2.335 . S
O550 C560 1.264 . S
O551 Eu504 2.432 . S
O551 C568 1.268 . S
O552 Eu504 2.291 . S
O552 C567 1.255 . S
O553 Eu515 2.372 . S
O553 C567 1.257 . S
O554 Eu515 2.462 . S
O554 C579 1.252 . S
O555 Eu515 2.373 . S
O555 C571 1.249 . S
O556 Eu504 2.335 . S
O556 C571 1.264 . S
O557 Eu515 2.432 . S
O557 C579 1.268 . S
O558 Eu515 2.291 . S
O558 C578 1.255 . S
O559 Eu504 2.372 . S
O559 C578 1.257 . S
C560 O549 1.249 . S
C560 O550 1.264 . S
C561 C564 1.382 . S
C561 C566 1.390 . S
C561 C568 1.506 . S
C562 C563 1.398 . S
C562 C566 1.392 . S
C563 C562 1.398 . S
C563 C565 1.372 . S
C563 H580 0.931 . S
C564 C561 1.382 . S
C564 C565 1.390 . S
C564 H581 0.931 . S
C565 C563 1.372 . S
C565 C564 1.390 . S
C565 H582 0.929 . S
C566 C561 1.390 . S
C566 C562 1.392 . S
C566 H583 0.930 . S
C567 O552 1.255 . S
C567 O553 1.257 . S
C568 Eu504 2.787 . S
C568 O548 1.252 . S
C568 O551 1.268 . S
C568 C561 1.506 . S
C569 C536 1.439 . S
C569 H546 0.931 . S
C569 C570 1.374 . S
C570 C541 1.387 . S
C570 H547 0.931 . S
C570 C569 1.374 . S
C571 O555 1.249 . S
C571 O556 1.264 . S
C572 C575 1.382 . S
C572 C576 1.390 . S
C572 C579 1.506 . S
C573 C574 1.398 . S
C573 C576 1.392 . S
C574 C573 1.398 . S
C574 C577 1.372 . S
C574 H584 0.931 . S
C575 C572 1.382 . S
C575 C577 1.390 . S
C575 H585 0.931 . S
C576 C572 1.390 . S
C576 C573 1.392 . S
C576 H586 0.930 . S
C577 C574 1.372 . S
C577 C575 1.390 . S
C577 H587 0.929 . S
C578 O558 1.255 . S
C578 O559 1.257 . S
C579 Eu515 2.787 . S
C579 O554 1.252 . S
C579 O557 1.268 . S
C579 C572 1.506 . S
H580 C563 0.931 . S
H581 C564 0.931 . S
H582 C565 0.929 . S
H583 C566 0.930 . S
H584 C574 0.931 . S
H585 C575 0.931 . S
H586 C576 0.930 . S
H587 C577 0.929 . S
Eu588 N617 2.600 . S
Eu588 N623 2.562 . S
Eu588 O632 2.462 . S
Eu588 O633 2.373 . S
Eu588 O635 2.432 . S
Eu588 O636 2.291 . S
Eu588 O640 2.335 . S
Eu588 O643 2.372 . S
Eu588 C652 2.787 . S
C589 N590 1.365 . S
C589 C592 1.405 . S
C589 C596 1.448 . S
N590 C589 1.365 . S
N590 C593 1.319 . S
N590 Eu599 2.600 . S
C591 C593 1.397 . S
C591 C594 1.367 . S
C591 H611 0.931 1_556 S
C592 C589 1.405 . S
C592 C594 1.403 . S
C592 C598 1.439 . S
C593 N590 1.319 . S
C593 C591 1.397 . S
C593 H604 0.930 . S
C594 C591 1.367 . S
C594 C592 1.403 . S
C594 H615 0.929 . S
C595 C596 1.430 . S
C595 C597 1.387 . S
C595 C601 1.404 . S
C596 C589 1.448 . S
C596 C595 1.430 . S
C596 N600 1.351 . S
C597 C595 1.387 . S
C597 C598 1.374 . S
C597 H612 0.931 . S
C598 C592 1.439 . S
C598 C597 1.374 . S
C598 H613 0.931 . S
Eu599 N590 2.600 . S
Eu599 N600 2.562 . S
Eu599 O634 2.335 . S
Eu599 O637 2.372 . S
Eu599 O638 2.462 . S
Eu599 O639 2.373 . S
Eu599 O641 2.432 . S
Eu599 O642 2.291 . S
Eu599 C663 2.787 . S
N600 C596 1.351 . S
N600 Eu599 2.562 . S
N600 C602 1.325 . S
C601 C595 1.404 . S
C601 C603 1.366 . S
C601 H609 0.930 . S
C602 N600 1.325 . S
C602 C603 1.416 . S
C602 H608 0.929 . S
C603 C601 1.366 . S
C603 C602 1.416 . S
C603 H605 0.930 . S
H604 C593 0.930 . S
H605 C603 0.930 . S
H606 C621 0.930 . S
H607 C628 0.930 . S
H608 C602 0.929 . S
H609 C601 0.930 . S
H610 C624 0.929 . S
H611 C591 0.931 1_554 S
H612 C597 0.931 . S
H613 C598 0.931 . S
H614 C619 0.931 . S
H615 C594 0.929 . S
H616 C627 0.930 . S
N617 Eu588 2.600 . S
N617 C618 1.365 . S
N617 C621 1.319 . S
C618 N617 1.365 . S
C618 C620 1.405 . S
C618 C626 1.448 . S
C619 H614 0.931 . S
C619 C621 1.397 . S
C619 C622 1.367 . S
C620 C618 1.405 . S
C620 C622 1.403 . S
C620 C653 1.439 . S
C621 H606 0.930 . S
C621 N617 1.319 . S
C621 C619 1.397 . S
C622 C619 1.367 . S
C622 C620 1.403 . S
C622 H629 0.929 . S
N623 Eu588 2.562 . S
N623 C624 1.325 . S
N623 C626 1.351 . S
C624 H610 0.929 . S
C624 N623 1.325 . S
C624 C628 1.414 1_655 S
C625 C626 1.458 . S
C625 C627 1.394 1_655 S
C625 C654 1.371 1_655 S
C626 C618 1.448 . S
C626 N623 1.351 . S
C626 C625 1.458 . S
C627 H616 0.930 . S
C627 C625 1.394 1_455 S
C627 C628 1.367 . S
C628 H607 0.930 . S
C628 C624 1.414 1_455 S
C628 C627 1.367 . S
H629 C622 0.929 . S
H630 C653 0.931 1_455 S
H631 C654 0.931 . S
O632 Eu588 2.462 . S
O632 C652 1.252 . S
O633 Eu588 2.373 . S
O633 C644 1.249 . S
O634 Eu599 2.335 . S
O634 C644 1.264 . S
O635 Eu588 2.432 . S
O635 C652 1.268 . S
O636 Eu588 2.291 . S
O636 C651 1.255 . S
O637 Eu599 2.372 . S
O637 C651 1.257 . S
O638 Eu599 2.462 . S
O638 C663 1.252 . S
O639 Eu599 2.373 . S
O639 C655 1.249 . S
O640 Eu588 2.335 . S
O640 C655 1.264 . S
O641 Eu599 2.432 . S
O641 C663 1.268 . S
O642 Eu599 2.291 . S
O642 C662 1.255 . S
O643 Eu588 2.372 . S
O643 C662 1.257 . S
C644 O633 1.249 . S
C644 O634 1.264 . S
C645 C648 1.382 . S
C645 C650 1.390 . S
C645 C652 1.506 1_455 S
C646 C647 1.398 . S
C646 C650 1.392 . S
C647 C646 1.398 . S
C647 C649 1.372 . S
C647 H664 0.931 . S
C648 C645 1.382 . S
C648 C649 1.390 . S
C648 H665 0.931 . S
C649 C647 1.372 . S
C649 C648 1.390 . S
C649 H666 0.929 . S
C650 C645 1.390 . S
C650 C646 1.392 . S
C650 H667 0.930 . S
C651 O636 1.255 . S
C651 O637 1.257 . S
C652 Eu588 2.787 . S
C652 O632 1.252 . S
C652 O635 1.268 . S
C652 C645 1.506 1_655 S
C653 C620 1.439 . S
C653 H630 0.931 1_655 S
C653 C654 1.374 1_655 S
C654 C625 1.371 1_455 S
C654 H631 0.931 . S
C654 C653 1.374 1_455 S
C655 O639 1.249 . S
C655 O640 1.264 . S
C656 C659 1.382 . S
C656 C660 1.390 . S
C656 C663 1.506 . S
C657 C658 1.398 . S
C657 C660 1.392 . S
C658 C657 1.398 . S
C658 C661 1.372 . S
C658 H668 0.931 . S
C659 C656 1.382 . S
C659 C661 1.390 . S
C659 H669 0.931 . S
C660 C656 1.390 . S
C660 C657 1.392 . S
C660 H670 0.930 . S
C661 C658 1.372 . S
C661 C659 1.390 . S
C661 H671 0.929 . S
C662 O642 1.255 . S
C662 O643 1.257 . S
C663 Eu599 2.787 . S
C663 O638 1.252 . S
C663 O641 1.268 . S
C663 C656 1.506 . S
H664 C647 0.931 . S
H665 C648 0.931 . S
H666 C649 0.929 . S
H667 C650 0.930 . S
H668 C658 0.931 . S
H669 C659 0.931 . S
H670 C660 0.930 . S
H671 C661 0.929 . S
Eu672 N701 2.600 . S
Eu672 N707 2.562 . S
Eu672 O716 2.462 . S
Eu672 O717 2.373 . S
Eu672 O719 2.432 . S
Eu672 O720 2.291 . S
Eu672 O724 2.335 . S
Eu672 O727 2.372 . S
Eu672 C736 2.787 . S
C673 N674 1.365 . S
C673 C676 1.405 . S
C673 C680 1.448 . S
N674 C673 1.365 . S
N674 C677 1.319 . S
N674 Eu683 2.600 . S
C675 C677 1.397 . S
C675 C678 1.367 . S
C675 H695 0.931 . S
C676 C673 1.405 . S
C676 C678 1.403 . S
C676 C682 1.439 . S
C677 N674 1.319 . S
C677 C675 1.397 . S
C677 H688 0.930 . S
C678 C675 1.367 . S
C678 C676 1.403 . S
C678 H699 0.929 . S
C679 C680 1.430 . S
C679 C681 1.399 . S
C679 C685 1.404 . S
C680 C673 1.448 . S
C680 C679 1.430 . S
C680 N684 1.351 . S
C681 C679 1.399 . S
C681 C682 1.378 . S
C681 H696 0.915 1_455 S
C682 C676 1.439 . S
C682 C681 1.378 . S
C682 H697 0.931 1_455 S
Eu683 N674 2.600 . S
Eu683 N684 2.562 . S
Eu683 O718 2.335 . S
Eu683 O721 2.372 . S
Eu683 O722 2.462 . S
Eu683 O723 2.373 . S
Eu683 O725 2.432 . S
Eu683 O726 2.291 . S
Eu683 C747 2.787 . S
N684 C680 1.351 . S
N684 Eu683 2.562 . S
N684 C686 1.325 . S
C685 C679 1.404 . S
C685 C687 1.366 . S
C685 H693 0.930 1_455 S
C686 N684 1.325 . S
C686 C687 1.416 . S
C686 H692 0.929 . S
C687 C685 1.366 . S
C687 C686 1.416 . S
C687 H689 0.930 . S
H688 C677 0.930 . S
H689 C687 0.930 . S
H690 C705 0.930 . S
H691 C712 0.930 . S
H692 C686 0.929 . S
H693 C685 0.930 1_655 S
H694 C708 0.929 . S
H695 C675 0.931 . S
H696 C681 0.915 1_655 S
H697 C682 0.931 1_655 S
H698 C703 0.931 . S
H699 C678 0.929 . S
H700 C711 0.930 . S
N701 Eu672 2.600 . S
N701 C702 1.365 . S
N701 C705 1.319 . S
C702 N701 1.365 . S
C702 C704 1.405 . S
C702 C710 1.448 . S
C703 H698 0.931 . S
C703 C705 1.397 . S
C703 C706 1.367 . S
C704 C702 1.405 . S
C704 C706 1.403 . S
C704 C737 1.439 . S
C705 H690 0.930 . S
C705 N701 1.319 . S
C705 C703 1.397 . S
C706 C703 1.367 . S
C706 C704 1.403 . S
C706 H713 0.929 . S
N707 Eu672 2.562 . S
N707 C708 1.325 . S
N707 C710 1.351 . S
C708 H694 0.929 . S
C708 N707 1.325 . S
C708 C712 1.415 1_565 S
C709 C710 1.434 . S
C709 C711 1.399 1_565 S
C709 C738 1.389 1_565 S
C710 C702 1.448 . S
C710 N707 1.351 . S
C710 C709 1.434 . S
C711 H700 0.930 . S
C711 C709 1.399 1_545 S
C711 C712 1.366 . S
C712 H691 0.930 . S
C712 C708 1.415 1_545 S
C712 C711 1.366 . S
H713 C706 0.929 . S
H714 C737 0.931 1_545 S
H715 C738 0.931 . S
O716 Eu672 2.462 . S
O716 C736 1.252 . S
O717 Eu672 2.373 . S
O717 C728 1.249 . S
O718 Eu683 2.335 . S
O718 C728 1.264 . S
O719 Eu672 2.432 . S
O719 C736 1.268 . S
O720 Eu672 2.291 . S
O720 C735 1.255 . S
O721 Eu683 2.372 . S
O721 C735 1.257 . S
O722 Eu683 2.462 . S
O722 C747 1.252 . S
O723 Eu683 2.373 . S
O723 C739 1.249 . S
O724 Eu672 2.335 . S
O724 C739 1.264 . S
O725 Eu683 2.432 . S
O725 C747 1.268 . S
O726 Eu683 2.291 . S
O726 C746 1.255 . S
O727 Eu672 2.372 . S
O727 C746 1.257 . S
C728 O717 1.249 . S
C728 O718 1.264 . S
C729 C732 1.382 . S
C729 C734 1.390 . S
C729 C736 1.506 1_545 S
C730 C731 1.398 . S
C730 C734 1.392 . S
C731 C730 1.398 . S
C731 C733 1.372 . S
C731 H748 0.931 . S
C732 C729 1.382 . S
C732 C733 1.390 . S
C732 H749 0.931 . S
C733 C731 1.372 . S
C733 C732 1.390 . S
C733 H750 0.929 . S
C734 C729 1.390 . S
C734 C730 1.392 . S
C734 H751 0.930 . S
C735 O720 1.255 . S
C735 O721 1.257 . S
C736 Eu672 2.787 . S
C736 O716 1.252 . S
C736 O719 1.268 . S
C736 C729 1.506 1_565 S
C737 C704 1.439 . S
C737 H714 0.931 1_565 S
C737 C738 1.374 1_565 S
C738 C709 1.389 1_545 S
C738 H715 0.931 . S
C738 C737 1.374 1_545 S
C739 O723 1.249 . S
C739 O724 1.264 . S
C740 C743 1.382 . S
C740 C744 1.390 . S
C740 C747 1.506 . S
C741 C742 1.398 . S
C741 C744 1.392 . S
C742 C741 1.398 . S
C742 C745 1.372 . S
C742 H752 0.931 . S
C743 C740 1.382 . S
C743 C745 1.390 . S
C743 H753 0.931 . S
C744 C740 1.390 . S
C744 C741 1.392 . S
C744 H754 0.930 . S
C745 C742 1.372 . S
C745 C743 1.390 . S
C745 H755 0.929 . S
C746 O726 1.255 . S
C746 O727 1.257 . S
C747 Eu683 2.787 . S
C747 O722 1.252 . S
C747 O725 1.268 . S
C747 C740 1.506 . S
H748 C731 0.931 . S
H749 C732 0.931 . S
H750 C733 0.929 . S
H751 C734 0.930 . S
H752 C742 0.931 . S
H753 C743 0.931 . S
H754 C744 0.930 . S
H755 C745 0.929 . S
Eu756 N785 2.600 . S
Eu756 N791 2.562 . S
Eu756 O800 2.462 . S
Eu756 O801 2.373 . S
Eu756 O803 2.432 . S
Eu756 O804 2.291 . S
Eu756 O808 2.335 . S
Eu756 O811 2.372 . S
Eu756 C820 2.787 . S
C757 N758 1.365 . S
C757 C760 1.405 . S
C757 C764 1.448 . S
N758 C757 1.365 . S
N758 C761 1.319 . S
N758 Eu767 2.600 . S
C759 C761 1.397 . S
C759 C762 1.367 . S
C759 H779 0.931 1_556 S
C760 C757 1.405 . S
C760 C762 1.403 . S
C760 C766 1.439 . S
C761 N758 1.319 . S
C761 C759 1.397 . S
C761 H772 0.930 . S
C762 C759 1.367 . S
C762 C760 1.403 . S
C762 H783 0.929 . S
C763 C764 1.430 . S
C763 C765 1.398 . S
C763 C769 1.404 . S
C764 C757 1.448 . S
C764 C763 1.430 . S
C764 N768 1.351 . S
C765 C763 1.398 . S
C765 C766 1.382 . S
C765 H780 0.912 1_545 S
C766 C760 1.439 . S
C766 C765 1.382 . S
C766 H781 0.931 1_545 S
Eu767 N758 2.600 . S
Eu767 N768 2.562 . S
Eu767 O802 2.335 . S
Eu767 O805 2.372 . S
Eu767 O806 2.462 . S
Eu767 O807 2.373 . S
Eu767 O809 2.432 . S
Eu767 O810 2.291 . S
Eu767 C831 2.787 . S
N768 C764 1.351 . S
N768 Eu767 2.562 . S
N768 C770 1.325 . S
C769 C763 1.404 . S
C769 C771 1.366 . S
C769 H777 0.930 1_545 S
C770 N768 1.325 . S
C770 C771 1.416 . S
C770 H776 0.929 . S
C771 C769 1.366 . S
C771 C770 1.416 . S
C771 H773 0.930 . S
H772 C761 0.930 . S
H773 C771 0.930 . S
H774 C789 0.930 . S
H775 C796 0.930 . S
H776 C770 0.929 . S
H777 C769 0.930 1_565 S
H778 C792 0.929 . S
H779 C759 0.931 1_554 S
H780 C765 0.912 1_565 S
H781 C766 0.931 1_565 S
H782 C787 0.931 . S
H783 C762 0.929 . S
H784 C795 0.930 . S
N785 Eu756 2.600 . S
N785 C786 1.365 . S
N785 C789 1.319 . S
C786 N785 1.365 . S
C786 C788 1.405 . S
C786 C794 1.448 . S
C787 H782 0.931 . S
C787 C789 1.397 . S
C787 C790 1.367 . S
C788 C786 1.405 . S
C788 C790 1.403 . S
C788 C821 1.439 . S
C789 H774 0.930 . S
C789 N785 1.319 . S
C789 C787 1.397 . S
C790 C787 1.367 . S
C790 C788 1.403 . S
C790 H797 0.929 . S
N791 Eu756 2.562 . S
N791 C792 1.325 . S
N791 C794 1.351 . S
C792 H778 0.929 . S
C792 N791 1.325 . S
C792 C796 1.416 . S
C793 C794 1.430 . S
C793 C795 1.404 . S
C793 C822 1.387 . S
C794 C786 1.448 . S
C794 N791 1.351 . S
C794 C793 1.430 . S
C795 H784 0.930 . S
C795 C793 1.404 . S
C795 C796 1.366 . S
C796 H775 0.930 . S
C796 C792 1.416 . S
C796 C795 1.366 . S
H797 C790 0.929 . S
H798 C821 0.931 . S
H799 C822 0.931 . S
O800 Eu756 2.462 . S
O800 C820 1.252 . S
O801 Eu756 2.373 . S
O801 C812 1.249 . S
O802 Eu767 2.335 . S
O802 C812 1.264 . S
O803 Eu756 2.432 . S
O803 C820 1.268 . S
O804 Eu756 2.291 . S
O804 C819 1.255 . S
O805 Eu767 2.372 . S
O805 C819 1.257 . S
O806 Eu767 2.462 . S
O806 C831 1.252 . S
O807 Eu767 2.373 . S
O807 C823 1.249 . S
O808 Eu756 2.335 . S
O808 C823 1.264 . S
O809 Eu767 2.432 . S
O809 C831 1.268 . S
O810 Eu767 2.291 . S
O810 C830 1.255 . S
O811 Eu756 2.372 . S
O811 C830 1.257 . S
C812 O801 1.249 . S
C812 O802 1.264 . S
C813 C816 1.382 . S
C813 C818 1.390 . S
C813 C820 1.506 . S
C814 C815 1.398 . S
C814 C818 1.392 . S
C815 C814 1.398 . S
C815 C817 1.372 . S
C815 H832 0.931 . S
C816 C813 1.382 . S
C816 C817 1.390 . S
C816 H833 0.931 . S
C817 C815 1.372 . S
C817 C816 1.390 . S
C817 H834 0.929 . S
C818 C813 1.390 . S
C818 C814 1.392 . S
C818 H835 0.930 . S
C819 O804 1.255 . S
C819 O805 1.257 . S
C820 Eu756 2.787 . S
C820 O800 1.252 . S
C820 O803 1.268 . S
C820 C813 1.506 . S
C821 C788 1.439 . S
C821 H798 0.931 . S
C821 C822 1.374 . S
C822 C793 1.387 . S
C822 H799 0.931 . S
C822 C821 1.374 . S
C823 O807 1.249 . S
C823 O808 1.264 . S
C824 C827 1.382 . S
C824 C828 1.390 . S
C824 C831 1.506 . S
C825 C826 1.398 . S
C825 C828 1.392 . S
C826 C825 1.398 . S
C826 C829 1.372 . S
C826 H836 0.931 . S
C827 C824 1.382 . S
C827 C829 1.390 . S
C827 H837 0.931 . S
C828 C824 1.390 . S
C828 C825 1.392 . S
C828 H838 0.930 . S
C829 C826 1.372 . S
C829 C827 1.390 . S
C829 H839 0.929 . S
C830 O810 1.255 . S
C830 O811 1.257 . S
C831 Eu767 2.787 . S
C831 O806 1.252 . S
C831 O809 1.268 . S
C831 C824 1.506 . S
H832 C815 0.931 . S
H833 C816 0.931 . S
H834 C817 0.929 . S
H835 C818 0.930 . S
H836 C826 0.931 . S
H837 C827 0.931 . S
H838 C828 0.930 . S
H839 C829 0.929 . S
Eu840 N869 2.600 . S
Eu840 N875 2.562 . S
Eu840 O884 2.462 . S
Eu840 O885 2.373 . S
Eu840 O887 2.432 . S
Eu840 O888 2.291 . S
Eu840 O892 2.335 . S
Eu840 O895 2.372 . S
Eu840 C904 2.787 . S
C841 N842 1.365 . S
C841 C844 1.405 . S
C841 C848 1.448 . S
N842 C841 1.365 . S
N842 C845 1.319 . S
N842 Eu851 2.600 . S
C843 C845 1.397 . S
C843 C846 1.367 . S
C843 H863 0.931 . S
C844 C841 1.405 . S
C844 C846 1.403 . S
C844 C850 1.439 . S
C845 N842 1.319 . S
C845 C843 1.397 . S
C845 H856 0.930 . S
C846 C843 1.367 . S
C846 C844 1.403 . S
C846 H867 0.929 . S
C847 C848 1.430 . S
C847 C849 1.387 . S
C847 C853 1.404 . S
C848 C841 1.448 . S
C848 C847 1.430 . S
C848 N852 1.351 . S
C849 C847 1.387 . S
C849 C850 1.374 . S
C849 H864 0.931 . S
C850 C844 1.439 . S
C850 C849 1.374 . S
C850 H865 0.931 . S
Eu851 N842 2.600 . S
Eu851 N852 2.562 . S
Eu851 O886 2.335 . S
Eu851 O889 2.372 . S
Eu851 O890 2.462 . S
Eu851 O891 2.373 . S
Eu851 O893 2.432 . S
Eu851 O894 2.291 . S
Eu851 C915 2.787 . S
N852 C848 1.351 . S
N852 Eu851 2.562 . S
N852 C854 1.325 . S
C853 C847 1.404 . S
C853 C855 1.366 . S
C853 H861 0.930 . S
C854 N852 1.325 . S
C854 C855 1.416 . S
C854 H860 0.929 . S
C855 C853 1.366 . S
C855 C854 1.416 . S
C855 H857 0.930 . S
H856 C845 0.930 . S
H857 C855 0.930 . S
H858 C873 0.930 . S
H859 C880 0.930 . S
H860 C854 0.929 . S
H861 C853 0.930 . S
H862 C876 0.929 . S
H863 C843 0.931 . S
H864 C849 0.931 . S
H865 C850 0.931 . S
H866 C871 0.931 . S
H867 C846 0.929 . S
H868 C879 0.930 . S
N869 Eu840 2.600 . S
N869 C870 1.365 . S
N869 C873 1.319 . S
C870 N869 1.365 . S
C870 C872 1.405 . S
C870 C878 1.448 . S
C871 H866 0.931 . S
C871 C873 1.397 . S
C871 C874 1.367 . S
C872 C870 1.405 . S
C872 C874 1.403 . S
C872 C905 1.439 . S
C873 H858 0.930 . S
C873 N869 1.319 . S
C873 C871 1.397 . S
C874 C871 1.367 . S
C874 C872 1.403 . S
C874 H881 0.929 . S
N875 Eu840 2.562 . S
N875 C876 1.325 . S
N875 C878 1.351 . S
C876 H862 0.929 . S
C876 N875 1.325 . S
C876 C880 1.414 1_455 S
C877 C878 1.458 . S
C877 C879 1.394 1_455 S
C877 C906 1.371 1_455 S
C878 C870 1.448 . S
C878 N875 1.351 . S
C878 C877 1.458 . S
C879 H868 0.930 . S
C879 C877 1.394 1_655 S
C879 C880 1.367 . S
C880 H859 0.930 . S
C880 C876 1.414 1_655 S
C880 C879 1.367 . S
H881 C874 0.929 . S
H882 C905 0.931 1_655 S
H883 C906 0.931 . S
O884 Eu840 2.462 . S
O884 C904 1.252 . S
O885 Eu840 2.373 . S
O885 C896 1.249 . S
O886 Eu851 2.335 . S
O886 C896 1.264 . S
O887 Eu840 2.432 . S
O887 C904 1.268 . S
O888 Eu840 2.291 . S
O888 C903 1.255 . S
O889 Eu851 2.372 . S
O889 C903 1.257 . S
O890 Eu851 2.462 . S
O890 C915 1.252 . S
O891 Eu851 2.373 . S
O891 C907 1.249 . S
O892 Eu840 2.335 . S
O892 C907 1.264 . S
O893 Eu851 2.432 . S
O893 C915 1.268 . S
O894 Eu851 2.291 . S
O894 C914 1.255 . S
O895 Eu840 2.372 . S
O895 C914 1.257 . S
C896 O885 1.249 . S
C896 O886 1.264 . S
C897 C900 1.382 . S
C897 C902 1.390 . S
C897 C904 1.506 1_655 S
C898 C899 1.398 . S
C898 C902 1.392 . S
C899 C898 1.398 . S
C899 C901 1.372 . S
C899 H916 0.931 . S
C900 C897 1.382 . S
C900 C901 1.390 . S
C900 H917 0.931 . S
C901 C899 1.372 . S
C901 C900 1.390 . S
C901 H918 0.929 . S
C902 C897 1.390 . S
C902 C898 1.392 . S
C902 H919 0.930 . S
C903 O888 1.255 . S
C903 O889 1.257 . S
C904 Eu840 2.787 . S
C904 O884 1.252 . S
C904 O887 1.268 . S
C904 C897 1.506 1_455 S
C905 C872 1.439 . S
C905 H882 0.931 1_455 S
C905 C906 1.374 1_455 S
C906 C877 1.371 1_655 S
C906 H883 0.931 . S
C906 C905 1.374 1_655 S
C907 O891 1.249 . S
C907 O892 1.264 . S
C908 C911 1.382 . S
C908 C912 1.390 . S
C908 C915 1.506 . S
C909 C910 1.398 . S
C909 C912 1.392 . S
C910 C909 1.398 . S
C910 C913 1.372 . S
C910 H920 0.931 . S
C911 C908 1.382 . S
C911 C913 1.390 . S
C911 H921 0.931 . S
C912 C908 1.390 . S
C912 C909 1.392 . S
C912 H922 0.930 . S
C913 C910 1.372 . S
C913 C911 1.390 . S
C913 H923 0.929 . S
C914 O894 1.255 . S
C914 O895 1.257 . S
C915 Eu851 2.787 . S
C915 O890 1.252 . S
C915 O893 1.268 . S
C915 C908 1.506 . S
H916 C899 0.931 . S
H917 C900 0.931 . S
H918 C901 0.929 . S
H919 C902 0.930 . S
H920 C910 0.931 . S
H921 C911 0.931 . S
H922 C912 0.930 . S
H923 C913 0.929 . S
Eu924 N953 2.600 . S
Eu924 N959 2.562 . S
Eu924 O968 2.462 . S
Eu924 O969 2.373 . S
Eu924 O971 2.432 . S
Eu924 O972 2.291 . S
Eu924 O976 2.335 . S
Eu924 O979 2.372 . S
Eu924 C988 2.787 . S
C925 N926 1.365 . S
C925 C928 1.405 . S
C925 C932 1.448 . S
N926 C925 1.365 . S
N926 C929 1.319 . S
N926 Eu935 2.600 . S
C927 C929 1.397 . S
C927 C930 1.367 . S
C927 H947 0.931 1_556 S
C928 C925 1.405 . S
C928 C930 1.403 . S
C928 C934 1.439 . S
C929 N926 1.319 . S
C929 C927 1.397 . S
C929 H940 0.930 . S
C930 C927 1.367 . S
C930 C928 1.403 . S
C930 H951 0.929 . S
C931 C932 1.430 . S
C931 C933 1.399 . S
C931 C937 1.404 . S
C932 C925 1.448 . S
C932 C931 1.430 . S
C932 N936 1.351 . S
C933 C931 1.399 . S
C933 C934 1.378 . S
C933 H948 0.915 1_655 S
C934 C928 1.439 . S
C934 C933 1.378 . S
C934 H949 0.931 1_655 S
Eu935 N926 2.600 . S
Eu935 N936 2.562 . S
Eu935 O970 2.335 . S
Eu935 O973 2.372 . S
Eu935 O974 2.462 . S
Eu935 O975 2.373 . S
Eu935 O977 2.432 . S
Eu935 O978 2.291 . S
Eu935 C999 2.787 . S
N936 C932 1.351 . S
N936 Eu935 2.562 . S
N936 C938 1.325 . S
C937 C931 1.404 . S
C937 C939 1.366 . S
C937 H945 0.930 1_655 S
C938 N936 1.325 . S
C938 C939 1.416 . S
C938 H944 0.929 . S
C939 C937 1.366 . S
C939 C938 1.416 . S
C939 H941 0.930 . S
H940 C929 0.930 . S
H941 C939 0.930 . S
H942 C957 0.930 . S
H943 C964 0.930 . S
H944 C938 0.929 . S
H945 C937 0.930 1_455 S
H946 C960 0.929 . S
H947 C927 0.931 1_554 S
H948 C933 0.915 1_455 S
H949 C934 0.931 1_455 S
H950 C955 0.931 . S
H951 C930 0.929 . S
H952 C963 0.930 . S
N953 Eu924 2.600 . S
N953 C954 1.365 . S
N953 C957 1.319 . S
C954 N953 1.365 . S
C954 C956 1.405 . S
C954 C962 1.448 . S
C955 H950 0.931 . S
C955 C957 1.397 . S
C955 C958 1.367 . S
C956 C954 1.405 . S
C956 C958 1.403 . S
C956 C989 1.439 . S
C957 H942 0.930 . S
C957 N953 1.319 . S
C957 C955 1.397 . S
C958 C955 1.367 . S
C958 C956 1.403 . S
C958 H965 0.929 . S
N959 Eu924 2.562 . S
N959 C960 1.325 . S
N959 C962 1.351 . S
C960 H946 0.929 . S
C960 N959 1.325 . S
C960 C964 1.415 1_545 S
C961 C962 1.434 . S
C961 C963 1.399 1_545 S
C961 C990 1.389 1_545 S
C962 C954 1.448 . S
C962 N959 1.351 . S
C962 C961 1.434 . S
C963 H952 0.930 . S
C963 C961 1.399 1_565 S
C963 C964 1.366 . S
C964 H943 0.930 . S
C964 C960 1.415 1_565 S
C964 C963 1.366 . S
H965 C958 0.929 . S
H966 C989 0.931 1_565 S
H967 C990 0.931 . S
O968 Eu924 2.462 . S
O968 C988 1.252 . S
O969 Eu924 2.373 . S
O969 C980 1.249 . S
O970 Eu935 2.335 . S
O970 C980 1.264 . S
O971 Eu924 2.432 . S
O971 C988 1.268 . S
O972 Eu924 2.291 . S
O972 C987 1.255 . S
O973 Eu935 2.372 . S
O973 C987 1.257 . S
O974 Eu935 2.462 . S
O974 C999 1.252 . S
O975 Eu935 2.373 . S
O975 C991 1.249 . S
O976 Eu924 2.335 . S
O976 C991 1.264 . S
O977 Eu935 2.432 . S
O977 C999 1.268 . S
O978 Eu935 2.291 . S
O978 C998 1.255 . S
O979 Eu924 2.372 . S
O979 C998 1.257 . S
C980 O969 1.249 . S
C980 O970 1.264 . S
C981 C984 1.382 . S
C981 C986 1.390 . S
C981 C988 1.506 1_565 S
C982 C983 1.398 . S
C982 C986 1.392 . S
C983 C982 1.398 . S
C983 C985 1.372 . S
C983 H1000 0.931 . S
C984 C981 1.382 . S
C984 C985 1.390 . S
C984 H1001 0.931 . S
C985 C983 1.372 . S
C985 C984 1.390 . S
C985 H1002 0.929 . S
C986 C981 1.390 . S
C986 C982 1.392 . S
C986 H1003 0.930 . S
C987 O972 1.255 . S
C987 O973 1.257 . S
C988 Eu924 2.787 . S
C988 O968 1.252 . S
C988 O971 1.268 . S
C988 C981 1.506 1_545 S
C989 C956 1.439 . S
C989 H966 0.931 1_545 S
C989 C990 1.374 1_545 S
C990 C961 1.389 1_565 S
C990 H967 0.931 . S
C990 C989 1.374 1_565 S
C991 O975 1.249 . S
C991 O976 1.264 . S
C992 C995 1.382 . S
C992 C996 1.390 . S
C992 C999 1.506 . S
C993 C994 1.398 . S
C993 C996 1.392 . S
C994 C993 1.398 . S
C994 C997 1.372 . S
C994 H1004 0.931 . S
C995 C992 1.382 . S
C995 C997 1.390 . S
C995 H1005 0.931 . S
C996 C992 1.390 . S
C996 C993 1.392 . S
C996 H1006 0.930 . S
C997 C994 1.372 . S
C997 C995 1.390 . S
C997 H1007 0.929 . S
C998 O978 1.255 . S
C998 O979 1.257 . S
C999 Eu935 2.787 . S
C999 O974 1.252 . S
C999 O977 1.268 . S
C999 C992 1.506 . S
H1000 C983 0.931 . S
H1001 C984 0.931 . S
H1002 C985 0.929 . S
H1003 C986 0.930 . S
H1004 C994 0.931 . S
H1005 C995 0.931 . S
H1006 C996 0.930 . S
H1007 C997 0.929 . S
C1008 C1009 1.391 . S
C1008 C1010 1.394 . S
C1008 H1024 0.931 . S
C1009 C1008 1.391 . S
C1009 C1013 1.376 . S
C1010 C1008 1.394 . S
C1010 C1011 1.369 . S
C1010 C1014 1.531 1_565 S
C1011 C1010 1.369 . S
C1011 C1012 1.410 . S
C1011 C1019 1.503 1_565 S
C1012 C1011 1.410 . S
C1012 C1013 1.392 . S
C1012 C1015 1.511 . S
C1013 C1009 1.376 . S
C1013 C1012 1.392 . S
C1013 H1025 0.929 . S
C1014 C1010 1.531 1_545 S
C1014 H1026 0.960 . S
C1014 H1027 0.962 . S
C1014 H1028 0.960 1_545 S
C1015 C1012 1.511 . S
C1015 H1029 0.961 . S
C1015 H1030 0.961 1_565 S
C1015 H1031 0.961 . S
C1016 C1017 1.370 . S
C1016 C1018 1.363 . S
C1016 H1032 0.931 . S
C1017 C1016 1.370 . S
C1017 C1021 1.408 . S
C1018 C1016 1.363 . S
C1018 C1019 1.370 . S
C1018 C1022 1.524 . S
C1019 C1011 1.503 1_545 S
C1019 C1018 1.370 . S
C1019 C1020 1.403 . S
C1020 C1019 1.403 . S
C1020 C1021 1.404 . S
C1020 C1023 1.539 . S
C1021 C1017 1.408 . S
C1021 C1020 1.404 . S
C1021 H1033 0.930 . S
C1022 C1018 1.524 . S
C1022 H1034 0.956 . S
C1022 H1035 0.961 . S
C1022 H1036 0.961 . S
C1023 C1020 1.539 . S
C1023 H1037 0.958 . S
C1023 H1038 0.961 . S
C1023 H1039 0.960 1_545 S
H1024 C1008 0.931 . S
H1025 C1013 0.929 . S
H1026 C1014 0.960 . S
H1027 C1014 0.962 . S
H1028 C1014 0.960 1_565 S
H1029 C1015 0.961 . S
H1030 C1015 0.961 1_545 S
H1031 C1015 0.961 . S
H1032 C1016 0.931 . S
H1033 C1021 0.930 . S
H1034 C1022 0.956 . S
H1035 C1022 0.961 . S
H1036 C1022 0.961 . S
H1037 C1023 0.958 . S
H1038 C1023 0.961 . S
H1039 C1023 0.960 1_565 S
C1040 C1041 1.391 . S
C1040 C1042 1.394 . S
C1040 H1056 0.931 . S
C1041 C1040 1.391 . S
C1041 C1045 1.376 . S
C1042 C1040 1.394 . S
C1042 C1043 1.369 . S
C1042 C1046 1.531 . S
C1043 C1042 1.369 . S
C1043 C1044 1.410 . S
C1043 C1051 1.503 . S
C1044 C1043 1.410 . S
C1044 C1045 1.392 . S
C1044 C1047 1.511 . S
C1045 C1041 1.376 . S
C1045 C1044 1.392 . S
C1045 H1057 0.929 . S
C1046 C1042 1.531 . S
C1046 H1058 0.960 . S
C1046 H1059 0.962 . S
C1046 H1060 0.960 . S
C1047 C1044 1.511 . S
C1047 H1061 0.961 . S
C1047 H1062 0.961 . S
C1047 H1063 0.961 . S
C1048 C1049 1.370 . S
C1048 C1050 1.363 . S
C1048 H1064 0.931 . S
C1049 C1048 1.370 . S
C1049 C1053 1.408 . S
C1050 C1048 1.363 . S
C1050 C1051 1.370 . S
C1050 C1054 1.524 . S
C1051 C1043 1.503 . S
C1051 C1050 1.370 . S
C1051 C1052 1.403 . S
C1052 C1051 1.403 . S
C1052 C1053 1.404 . S
C1052 C1055 1.539 . S
C1053 C1049 1.408 . S
C1053 C1052 1.404 . S
C1053 H1065 0.930 . S
C1054 C1050 1.524 . S
C1054 H1066 0.956 . S
C1054 H1067 0.961 . S
C1054 H1068 0.961 . S
C1055 C1052 1.539 . S
C1055 H1069 0.958 . S
C1055 H1070 0.961 . S
C1055 H1071 0.960 . S
H1056 C1040 0.931 . S
H1057 C1045 0.929 . S
H1058 C1046 0.960 . S
H1059 C1046 0.962 . S
H1060 C1046 0.960 . S
H1061 C1047 0.961 . S
H1062 C1047 0.961 . S
H1063 C1047 0.961 . S
H1064 C1048 0.931 . S
H1065 C1053 0.930 . S
H1066 C1054 0.956 . S
H1067 C1054 0.961 . S
H1068 C1054 0.961 . S
H1069 C1055 0.958 . S
H1070 C1055 0.961 . S
H1071 C1055 0.960 . S
C1072 C1073 1.391 . S
C1072 C1074 1.394 . S
C1072 H1088 0.931 . S
C1073 C1072 1.391 . S
C1073 C1077 1.376 . S
C1074 C1072 1.394 . S
C1074 C1075 1.369 . S
C1074 C1078 1.531 . S
C1075 C1074 1.369 . S
C1075 C1076 1.410 . S
C1075 C1083 1.503 1_655 S
C1076 C1075 1.410 . S
C1076 C1077 1.392 . S
C1076 C1079 1.511 . S
C1077 C1073 1.376 . S
C1077 C1076 1.392 . S
C1077 H1089 0.929 . S
C1078 C1074 1.531 . S
C1078 H1090 0.960 1_655 S
C1078 H1091 0.943 1_655 S
C1078 H1092 0.960 . S
C1079 C1076 1.511 . S
C1079 H1093 0.961 . S
C1079 H1094 0.961 . S
C1079 H1095 0.961 . S
C1080 C1081 1.370 . S
C1080 C1082 1.363 . S
C1080 H1096 0.931 . S
C1081 C1080 1.370 . S
C1081 C1085 1.408 . S
C1082 C1080 1.363 . S
C1082 C1083 1.370 . S
C1082 C1086 1.524 . S
C1083 C1075 1.503 1_455 S
C1083 C1082 1.370 . S
C1083 C1084 1.403 . S
C1084 C1083 1.403 . S
C1084 C1085 1.404 . S
C1084 C1087 1.539 . S
C1085 C1081 1.408 . S
C1085 C1084 1.404 . S
C1085 H1097 0.930 . S
C1086 C1082 1.524 . S
C1086 H1098 0.956 . S
C1086 H1099 0.961 1_455 S
C1086 H1100 0.961 . S
C1087 C1084 1.539 . S
C1087 H1101 0.958 . S
C1087 H1102 0.961 . S
C1087 H1103 0.960 1_455 S
H1088 C1072 0.931 . S
H1089 C1077 0.929 . S
H1090 C1078 0.960 1_455 S
H1091 C1078 0.943 1_455 S
H1092 C1078 0.960 . S
H1093 C1079 0.961 . S
H1094 C1079 0.961 . S
H1095 C1079 0.961 . S
H1096 C1080 0.931 . S
H1097 C1085 0.930 . S
H1098 C1086 0.956 . S
H1099 C1086 0.961 1_655 S
H1100 C1086 0.961 . S
H1101 C1087 0.958 . S
H1102 C1087 0.961 . S
H1103 C1087 0.960 1_655 S
C1104 C1105 1.391 . S
C1104 C1106 1.394 . S
C1104 H1120 0.931 . S
C1105 C1104 1.391 . S
C1105 C1109 1.376 . S
C1106 C1104 1.394 . S
C1106 C1107 1.369 . S
C1106 C1110 1.531 . S
C1107 C1106 1.369 . S
C1107 C1108 1.410 . S
C1107 C1115 1.503 1_565 S
C1108 C1107 1.410 . S
C1108 C1109 1.392 . S
C1108 C1111 1.511 . S
C1109 C1105 1.376 . S
C1109 C1108 1.392 . S
C1109 H1121 0.929 . S
C1110 C1106 1.531 . S
C1110 H1122 0.960 . S
C1110 H1123 0.962 . S
C1110 H1124 0.960 . S
C1111 C1108 1.511 . S
C1111 H1125 0.961 . S
C1111 H1126 0.961 1_565 S
C1111 H1127 0.961 . S
C1112 C1113 1.370 . S
C1112 C1114 1.363 . S
C1112 H1128 0.931 . S
C1113 C1112 1.370 . S
C1113 C1117 1.408 . S
C1114 C1112 1.363 . S
C1114 C1115 1.370 . S
C1114 C1118 1.524 . S
C1115 C1107 1.503 1_545 S
C1115 C1114 1.370 . S
C1115 C1116 1.403 . S
C1116 C1115 1.403 . S
C1116 C1117 1.404 . S
C1116 C1119 1.539 . S
C1117 C1113 1.408 . S
C1117 C1116 1.404 . S
C1117 H1129 0.930 . S
C1118 C1114 1.524 . S
C1118 H1130 0.956 1_545 S
C1118 H1131 0.961 1_545 S
C1118 H1132 0.961 . S
C1119 C1116 1.539 . S
C1119 H1133 0.958 . S
C1119 H1134 0.961 . S
C1119 H1135 0.960 1_545 S
H1120 C1104 0.931 . S
H1121 C1109 0.929 . S
H1122 C1110 0.960 . S
H1123 C1110 0.962 . S
H1124 C1110 0.960 . S
H1125 C1111 0.961 . S
H1126 C1111 0.961 1_545 S
H1127 C1111 0.961 . S
H1128 C1112 0.931 . S
H1129 C1117 0.930 . S
H1130 C1118 0.956 1_565 S
H1131 C1118 0.961 1_565 S
H1132 C1118 0.961 . S
H1133 C1119 0.958 . S
H1134 C1119 0.961 . S
H1135 C1119 0.960 1_565 S
C1136 C1137 1.391 . S
C1136 C1138 1.394 . S
C1136 H1152 0.931 . S
C1137 C1136 1.391 . S
C1137 C1141 1.376 . S
C1138 C1136 1.394 . S
C1138 C1139 1.369 . S
C1138 C1142 1.531 . S
C1139 C1138 1.369 . S
C1139 C1140 1.410 . S
C1139 C1147 1.503 . S
C1140 C1139 1.410 . S
C1140 C1141 1.392 . S
C1140 C1143 1.511 . S
C1141 C1137 1.376 . S
C1141 C1140 1.392 . S
C1141 H1153 0.929 . S
C1142 C1138 1.531 . S
C1142 H1154 0.960 . S
C1142 H1155 0.962 . S
C1142 H1156 0.960 . S
C1143 C1140 1.511 . S
C1143 H1157 0.961 . S
C1143 H1158 0.961 . S
C1143 H1159 0.961 . S
C1144 C1145 1.370 . S
C1144 C1146 1.363 . S
C1144 H1160 0.931 . S
C1145 C1144 1.370 . S
C1145 C1149 1.408 . S
C1146 C1144 1.363 . S
C1146 C1147 1.370 . S
C1146 C1150 1.524 . S
C1147 C1139 1.503 . S
C1147 C1146 1.370 . S
C1147 C1148 1.403 . S
C1148 C1147 1.403 . S
C1148 C1149 1.404 . S
C1148 C1151 1.539 . S
C1149 C1145 1.408 . S
C1149 C1148 1.404 . S
C1149 H1161 0.930 . S
C1150 C1146 1.524 . S
C1150 H1162 0.956 . S
C1150 H1163 0.961 . S
C1150 H1164 0.961 . S
C1151 C1148 1.539 . S
C1151 H1165 0.958 . S
C1151 H1166 0.961 . S
C1151 H1167 0.960 . S
H1152 C1136 0.931 . S
H1153 C1141 0.929 . S
H1154 C1142 0.960 . S
H1155 C1142 0.962 . S
H1156 C1142 0.960 . S
H1157 C1143 0.961 . S
H1158 C1143 0.961 . S
H1159 C1143 0.961 . S
H1160 C1144 0.931 . S
H1161 C1149 0.930 . S
H1162 C1150 0.956 . S
H1163 C1150 0.961 . S
H1164 C1150 0.961 . S
H1165 C1151 0.958 . S
H1166 C1151 0.961 . S
H1167 C1151 0.960 . S
C1168 C1169 1.391 . S
C1168 C1170 1.394 . S
C1168 H1184 0.931 . S
C1169 C1168 1.391 . S
C1169 C1173 1.376 . S
C1170 C1168 1.394 . S
C1170 C1171 1.369 . S
C1170 C1174 1.531 . S
C1171 C1170 1.369 . S
C1171 C1172 1.410 . S
C1171 C1179 1.503 1_655 S
C1172 C1171 1.410 . S
C1172 C1173 1.392 . S
C1172 C1175 1.511 . S
C1173 C1169 1.376 . S
C1173 C1172 1.392 . S
C1173 H1185 0.929 . S
C1174 C1170 1.531 . S
C1174 H1186 0.960 1_655 S
C1174 H1187 0.962 . S
C1174 H1188 0.960 . S
C1175 C1172 1.511 . S
C1175 H1189 0.961 . S
C1175 H1190 0.961 1_655 S
C1175 H1191 0.961 1_655 S
C1176 C1177 1.370 . S
C1176 C1178 1.363 . S
C1176 H1192 0.931 . S
C1177 C1176 1.370 . S
C1177 C1181 1.408 . S
C1178 C1176 1.363 . S
C1178 C1179 1.370 . S
C1178 C1182 1.524 . S
C1179 C1171 1.503 1_455 S
C1179 C1178 1.370 . S
C1179 C1180 1.403 . S
C1180 C1179 1.403 . S
C1180 C1181 1.404 . S
C1180 C1183 1.539 . S
C1181 C1177 1.408 . S
C1181 C1180 1.404 . S
C1181 H1193 0.930 . S
C1182 C1178 1.524 . S
C1182 H1194 0.956 1_455 S
C1182 H1195 0.961 1_455 S
C1182 H1196 0.961 . S
C1183 C1180 1.539 . S
C1183 H1197 0.958 . S
C1183 H1198 0.961 . S
C1183 H1199 0.960 . S
H1184 C1168 0.931 . S
H1185 C1173 0.929 . S
H1186 C1174 0.960 1_455 S
H1187 C1174 0.962 . S
H1188 C1174 0.960 . S
H1189 C1175 0.961 . S
H1190 C1175 0.961 1_455 S
H1191 C1175 0.961 1_455 S
H1192 C1176 0.931 . S
H1193 C1181 0.930 . S
H1194 C1182 0.956 1_655 S
H1195 C1182 0.961 1_655 S
H1196 C1182 0.961 . S
H1197 C1183 0.958 . S
H1198 C1183 0.961 . S
H1199 C1183 0.960 . S
C1200 C1201 1.391 . S
C1200 C1202 1.394 . S
C1200 H1216 0.931 . S
C1201 C1200 1.391 . S
C1201 C1205 1.376 . S
C1202 C1200 1.394 . S
C1202 C1203 1.369 . S
C1202 C1206 1.531 1_455 S
C1203 C1202 1.369 . S
C1203 C1204 1.410 . S
C1203 C1211 1.503 1_455 S
C1204 C1203 1.410 . S
C1204 C1205 1.392 . S
C1204 C1207 1.511 . S
C1205 C1201 1.376 . S
C1205 C1204 1.392 . S
C1205 H1217 0.929 . S
C1206 C1202 1.531 1_655 S
C1206 H1218 0.960 . S
C1206 H1219 0.962 . S
C1206 H1220 0.965 . S
C1207 C1204 1.511 . S
C1207 H1221 0.961 . S
C1207 H1222 0.969 . S
C1207 H1223 0.961 . S
C1208 C1209 1.370 . S
C1208 C1210 1.363 . S
C1208 H1224 0.931 . S
C1209 C1208 1.370 . S
C1209 C1213 1.408 . S
C1210 C1208 1.363 . S
C1210 C1211 1.370 . S
C1210 C1214 1.524 . S
C1211 C1203 1.503 1_655 S
C1211 C1210 1.370 . S
C1211 C1212 1.403 . S
C1212 C1211 1.403 . S
C1212 C1213 1.404 . S
C1212 C1215 1.539 . S
C1213 C1209 1.408 . S
C1213 C1212 1.404 . S
C1213 H1225 0.930 . S
C1214 C1210 1.524 . S
C1214 H1226 0.956 . S
C1214 H1227 0.961 1_655 S
C1214 H1228 0.961 . S
C1215 C1212 1.539 . S
C1215 H1229 0.958 . S
C1215 H1230 0.961 . S
C1215 H1231 0.960 . S
H1216 C1200 0.931 . S
H1217 C1205 0.929 . S
H1218 C1206 0.960 . S
H1219 C1206 0.962 . S
H1220 C1206 0.965 . S
H1221 C1207 0.961 . S
H1222 C1207 0.969 . S
H1223 C1207 0.961 . S
H1224 C1208 0.931 . S
H1225 C1213 0.930 . S
H1226 C1214 0.956 . S
H1227 C1214 0.961 1_455 S
H1228 C1214 0.961 . S
H1229 C1215 0.958 . S
H1230 C1215 0.961 . S
H1231 C1215 0.960 . S
C1232 C1233 1.391 . S
C1232 C1234 1.394 . S
C1232 H1248 0.931 . S
C1233 C1232 1.391 . S
C1233 C1237 1.376 . S
C1234 C1232 1.394 . S
C1234 C1235 1.369 . S
C1234 C1238 1.531 . S
C1235 C1234 1.369 . S
C1235 C1236 1.410 . S
C1235 C1243 1.503 1_565 S
C1236 C1235 1.410 . S
C1236 C1237 1.392 . S
C1236 C1239 1.511 . S
C1237 C1233 1.376 . S
C1237 C1236 1.392 . S
C1237 H1249 0.929 . S
C1238 C1234 1.531 . S
C1238 H1250 0.960 . S
C1238 H1251 0.962 . S
C1238 H1252 0.960 . S
C1239 C1236 1.511 . S
C1239 H1253 0.961 . S
C1239 H1254 0.961 1_565 S
C1239 H1255 0.961 . S
C1240 C1241 1.370 . S
C1240 C1242 1.363 . S
C1240 H1256 0.931 . S
C1241 C1240 1.370 . S
C1241 C1245 1.408 . S
C1242 C1240 1.363 . S
C1242 C1243 1.370 . S
C1242 C1246 1.524 . S
C1243 C1235 1.503 1_545 S
C1243 C1242 1.370 . S
C1243 C1244 1.403 . S
C1244 C1243 1.403 . S
C1244 C1245 1.404 . S
C1244 C1247 1.539 . S
C1245 C1241 1.408 . S
C1245 C1244 1.404 . S
C1245 H1257 0.930 . S
C1246 C1242 1.524 . S
C1246 H1258 0.956 1_545 S
C1246 H1259 0.961 1_545 S
C1246 H1260 0.961 . S
C1247 C1244 1.539 . S
C1247 H1261 0.958 . S
C1247 H1262 0.961 . S
C1247 H1263 0.960 1_545 S
H1248 C1232 0.931 . S
H1249 C1237 0.929 . S
H1250 C1238 0.960 . S
H1251 C1238 0.962 . S
H1252 C1238 0.960 . S
H1253 C1239 0.961 . S
H1254 C1239 0.961 1_545 S
H1255 C1239 0.961 . S
H1256 C1240 0.931 . S
H1257 C1245 0.930 . S
H1258 C1246 0.956 1_565 S
H1259 C1246 0.961 1_565 S
H1260 C1246 0.961 . S
H1261 C1247 0.958 . S
H1262 C1247 0.961 . S
H1263 C1247 0.960 1_565 S
C1264 C1265 1.391 . S
C1264 C1266 1.394 . S
C1264 H1280 0.931 . S
C1265 C1264 1.391 . S
C1265 C1269 1.376 . S
C1266 C1264 1.394 . S
C1266 C1267 1.369 . S
C1266 C1270 1.531 . S
C1267 C1266 1.369 . S
C1267 C1268 1.410 . S
C1267 C1275 1.503 . S
C1268 C1267 1.410 . S
C1268 C1269 1.392 . S
C1268 C1271 1.511 . S
C1269 C1265 1.376 . S
C1269 C1268 1.392 . S
C1269 H1281 0.929 . S
C1270 C1266 1.531 . S
C1270 H1282 0.960 . S
C1270 H1283 0.962 . S
C1270 H1284 0.960 . S
C1271 C1268 1.511 . S
C1271 H1285 0.961 . S
C1271 H1286 0.961 . S
C1271 H1287 0.961 . S
C1272 C1273 1.370 . S
C1272 C1274 1.363 . S
C1272 H1288 0.931 . S
C1273 C1272 1.370 . S
C1273 C1277 1.408 . S
C1274 C1272 1.363 . S
C1274 C1275 1.370 . S
C1274 C1278 1.524 . S
C1275 C1267 1.503 . S
C1275 C1274 1.370 . S
C1275 C1276 1.403 . S
C1276 C1275 1.403 . S
C1276 C1277 1.404 . S
C1276 C1279 1.539 . S
C1277 C1273 1.408 . S
C1277 C1276 1.404 . S
C1277 H1289 0.930 . S
C1278 C1274 1.524 . S
C1278 H1290 0.956 . S
C1278 H1291 0.961 . S
C1278 H1292 0.961 . S
C1279 C1276 1.539 . S
C1279 H1293 0.958 . S
C1279 H1294 0.961 . S
C1279 H1295 0.960 . S
H1280 C1264 0.931 . S
H1281 C1269 0.929 . S
H1282 C1270 0.960 . S
H1283 C1270 0.962 . S
H1284 C1270 0.960 . S
H1285 C1271 0.961 . S
H1286 C1271 0.961 . S
H1287 C1271 0.961 . S
H1288 C1272 0.931 . S
H1289 C1277 0.930 . S
H1290 C1278 0.956 . S
H1291 C1278 0.961 . S
H1292 C1278 0.961 . S
H1293 C1279 0.958 . S
H1294 C1279 0.961 . S
H1295 C1279 0.960 . S
C1296 C1297 1.391 . S
C1296 C1298 1.394 . S
C1296 H1312 0.931 . S
C1297 C1296 1.391 . S
C1297 C1301 1.376 . S
C1298 C1296 1.394 . S
C1298 C1299 1.369 . S
C1298 C1302 1.531 . S
C1299 C1298 1.369 . S
C1299 C1300 1.410 . S
C1299 C1307 1.503 1_455 S
C1300 C1299 1.410 . S
C1300 C1301 1.392 . S
C1300 C1303 1.511 . S
C1301 C1297 1.376 . S
C1301 C1300 1.392 . S
C1301 H1313 0.929 . S
C1302 C1298 1.531 . S
C1302 H1314 0.960 . S
C1302 H1315 0.962 . S
C1302 H1316 0.960 . S
C1303 C1300 1.511 . S
C1303 H1317 0.961 . S
C1303 H1318 0.961 . S
C1303 H1319 0.961 . S
C1304 C1305 1.370 . S
C1304 C1306 1.363 . S
C1304 H1320 0.931 . S
C1305 C1304 1.370 . S
C1305 C1309 1.408 . S
C1306 C1304 1.363 . S
C1306 C1307 1.370 . S
C1306 C1310 1.524 . S
C1307 C1299 1.503 1_655 S
C1307 C1306 1.370 . S
C1307 C1308 1.403 . S
C1308 C1307 1.403 . S
C1308 C1309 1.404 . S
C1308 C1311 1.539 1_655 S
C1309 C1305 1.408 . S
C1309 C1308 1.404 . S
C1309 H1321 0.930 . S
C1310 C1306 1.524 . S
C1310 H1322 0.956 . S
C1310 H1323 0.961 . S
C1310 H1324 0.961 . S
C1311 C1308 1.539 1_455 S
C1311 H1325 0.958 . S
C1311 H1326 0.960 . S
C1311 H1327 0.960 . S
H1312 C1296 0.931 . S
H1313 C1301 0.929 . S
H1314 C1302 0.960 . S
H1315 C1302 0.962 . S
H1316 C1302 0.960 . S
H1317 C1303 0.961 . S
H1318 C1303 0.961 . S
H1319 C1303 0.961 . S
H1320 C1304 0.931 . S
H1321 C1309 0.930 . S
H1322 C1310 0.956 . S
H1323 C1310 0.961 . S
H1324 C1310 0.961 . S
H1325 C1311 0.958 . S
H1326 C1311 0.960 . S
H1327 C1311 0.960 . S
C1328 C1329 1.391 . S
C1328 C1330 1.394 . S
C1328 H1344 0.931 . S
C1329 C1328 1.391 . S
C1329 C1333 1.376 . S
C1330 C1328 1.394 . S
C1330 C1331 1.369 . S
C1330 C1334 1.531 . S
C1331 C1330 1.369 . S
C1331 C1332 1.410 . S
C1331 C1339 1.503 1_545 S
C1332 C1331 1.410 . S
C1332 C1333 1.392 . S
C1332 C1335 1.511 . S
C1333 C1329 1.376 . S
C1333 C1332 1.392 . S
C1333 H1345 0.929 . S
C1334 C1330 1.531 . S
C1334 H1346 0.960 1_545 S
C1334 H1347 0.962 1_545 S
C1334 H1348 0.960 . S
C1335 C1332 1.511 . S
C1335 H1349 0.961 . S
C1335 H1350 0.961 . S
C1335 H1351 0.961 . S
C1336 C1337 1.370 . S
C1336 C1338 1.363 . S
C1336 H1352 0.931 . S
C1337 C1336 1.370 . S
C1337 C1341 1.408 . S
C1338 C1336 1.363 . S
C1338 C1339 1.370 . S
C1338 C1342 1.524 . S
C1339 C1331 1.503 1_565 S
C1339 C1338 1.370 . S
C1339 C1340 1.403 . S
C1340 C1339 1.403 . S
C1340 C1341 1.404 . S
C1340 C1343 1.539 . S
C1341 C1337 1.408 . S
C1341 C1340 1.404 . S
C1341 H1353 0.930 . S
C1342 C1338 1.524 . S
C1342 H1354 0.956 . S
C1342 H1355 0.961 1_565 S
C1342 H1356 0.961 . S
C1343 C1340 1.539 . S
C1343 H1357 0.958 . S
C1343 H1358 0.961 . S
C1343 H1359 0.960 1_565 S
H1344 C1328 0.931 . S
H1345 C1333 0.929 . S
H1346 C1334 0.960 1_565 S
H1347 C1334 0.962 1_565 S
H1348 C1334 0.960 . S
H1349 C1335 0.961 . S
H1350 C1335 0.961 . S
H1351 C1335 0.961 . S
H1352 C1336 0.931 . S
H1353 C1341 0.930 . S
H1354 C1342 0.956 . S
H1355 C1342 0.961 1_545 S
H1356 C1342 0.961 . S
H1357 C1343 0.958 . S
H1358 C1343 0.961 . S
H1359 C1343 0.960 1_545 S
C1360 C1361 1.391 . S
C1360 C1362 1.394 . S
C1360 H1376 0.931 . S
C1361 C1360 1.391 . S
C1361 C1365 1.376 . S
C1362 C1360 1.394 . S
C1362 C1363 1.369 . S
C1362 C1366 1.531 . S
C1363 C1362 1.369 . S
C1363 C1364 1.410 . S
C1363 C1371 1.503 . S
C1364 C1363 1.410 . S
C1364 C1365 1.392 . S
C1364 C1367 1.511 . S
C1365 C1361 1.376 . S
C1365 C1364 1.392 . S
C1365 H1377 0.929 . S
C1366 C1362 1.531 . S
C1366 H1378 0.960 . S
C1366 H1379 0.962 . S
C1366 H1380 0.960 . S
C1367 C1364 1.511 . S
C1367 H1381 0.961 . S
C1367 H1382 0.961 . S
C1367 H1383 0.961 . S
C1368 C1369 1.370 . S
C1368 C1370 1.363 . S
C1368 H1384 0.931 . S
C1369 C1368 1.370 . S
C1369 C1373 1.408 . S
C1370 C1368 1.363 . S
C1370 C1371 1.370 . S
C1370 C1374 1.524 . S
C1371 C1363 1.503 . S
C1371 C1370 1.370 . S
C1371 C1372 1.403 . S
C1372 C1371 1.403 . S
C1372 C1373 1.404 . S
C1372 C1375 1.539 . S
C1373 C1369 1.408 . S
C1373 C1372 1.404 . S
C1373 H1385 0.930 . S
C1374 C1370 1.524 . S
C1374 H1386 0.956 . S
C1374 H1387 0.961 . S
C1374 H1388 0.961 . S
C1375 C1372 1.539 . S
C1375 H1389 0.958 . S
C1375 H1390 0.961 . S
C1375 H1391 0.960 . S
H1376 C1360 0.931 . S
H1377 C1365 0.929 . S
H1378 C1366 0.960 . S
H1379 C1366 0.962 . S
H1380 C1366 0.960 . S
H1381 C1367 0.961 . S
H1382 C1367 0.961 . S
H1383 C1367 0.961 . S
H1384 C1368 0.931 . S
H1385 C1373 0.930 . S
H1386 C1374 0.956 . S
H1387 C1374 0.961 . S
H1388 C1374 0.961 . S
H1389 C1375 0.958 . S
H1390 C1375 0.961 . S
H1391 C1375 0.960 . S
C1392 C1393 1.391 . S
C1392 C1394 1.394 . S
C1392 H1408 0.931 . S
C1393 C1392 1.391 . S
C1393 C1397 1.376 . S
C1394 C1392 1.394 . S
C1394 C1395 1.369 . S
C1394 C1398 1.531 . S
C1395 C1394 1.369 . S
C1395 C1396 1.410 . S
C1395 C1403 1.503 . S
C1396 C1395 1.410 . S
C1396 C1397 1.392 . S
C1396 C1399 1.511 . S
C1397 C1393 1.376 . S
C1397 C1396 1.392 . S
C1397 H1409 0.929 . S
C1398 C1394 1.531 . S
C1398 H1410 0.960 . S
C1398 H1411 0.962 . S
C1398 H1412 0.960 . S
C1399 C1396 1.511 . S
C1399 H1413 0.961 . S
C1399 H1414 0.961 . S
C1399 H1415 0.961 . S
C1400 C1401 1.370 . S
C1400 C1402 1.363 . S
C1400 H1416 0.931 . S
C1401 C1400 1.370 . S
C1401 C1405 1.408 . S
C1402 C1400 1.363 . S
C1402 C1403 1.370 . S
C1402 C1406 1.524 . S
C1403 C1395 1.503 . S
C1403 C1402 1.370 . S
C1403 C1404 1.403 . S
C1404 C1403 1.403 . S
C1404 C1405 1.404 . S
C1404 C1407 1.539 . S
C1405 C1401 1.408 . S
C1405 C1404 1.404 . S
C1405 H1417 0.930 . S
C1406 C1402 1.524 . S
C1406 H1418 0.956 . S
C1406 H1419 0.961 . S
C1406 H1420 0.961 . S
C1407 C1404 1.539 . S
C1407 H1421 0.958 . S
C1407 H1422 0.961 . S
C1407 H1423 0.960 . S
H1408 C1392 0.931 . S
H1409 C1397 0.929 . S
H1410 C1398 0.960 . S
H1411 C1398 0.962 . S
H1412 C1398 0.960 . S
H1413 C1399 0.961 . S
H1414 C1399 0.961 . S
H1415 C1399 0.961 . S
H1416 C1400 0.931 . S
H1417 C1405 0.930 . S
H1418 C1406 0.956 . S
H1419 C1406 0.961 . S
H1420 C1406 0.961 . S
H1421 C1407 0.958 . S
H1422 C1407 0.961 . S
H1423 C1407 0.960 . S
C1424 C1425 1.391 . S
C1424 C1426 1.394 . S
C1424 H1440 0.931 . S
C1425 C1424 1.391 . S
C1425 C1429 1.376 . S
C1426 C1424 1.394 . S
C1426 C1427 1.369 . S
C1426 C1430 1.531 . S
C1427 C1426 1.369 . S
C1427 C1428 1.410 . S
C1427 C1435 1.503 . S
C1428 C1427 1.410 . S
C1428 C1429 1.392 . S
C1428 C1431 1.511 . S
C1429 C1425 1.376 . S
C1429 C1428 1.392 . S
C1429 H1441 0.929 . S
C1430 C1426 1.531 . S
C1430 H1442 0.960 . S
C1430 H1443 0.962 . S
C1430 H1444 0.960 . S
C1431 C1428 1.511 . S
C1431 H1445 0.961 . S
C1431 H1446 0.961 . S
C1431 H1447 0.961 . S
C1432 C1433 1.370 . S
C1432 C1434 1.363 . S
C1432 H1448 0.931 . S
C1433 C1432 1.370 . S
C1433 C1437 1.408 . S
C1434 C1432 1.363 . S
C1434 C1435 1.370 . S
C1434 C1438 1.524 . S
C1435 C1427 1.503 . S
C1435 C1434 1.370 . S
C1435 C1436 1.403 . S
C1436 C1435 1.403 . S
C1436 C1437 1.404 . S
C1436 C1439 1.539 . S
C1437 C1433 1.408 . S
C1437 C1436 1.404 . S
C1437 H1449 0.930 . S
C1438 C1434 1.524 . S
C1438 H1450 0.956 . S
C1438 H1451 0.961 . S
C1438 H1452 0.961 . S
C1439 C1436 1.539 . S
C1439 H1453 0.958 . S
C1439 H1454 0.961 . S
C1439 H1455 0.960 . S
H1440 C1424 0.931 . S
H1441 C1429 0.929 . S
H1442 C1430 0.960 . S
H1443 C1430 0.962 . S
H1444 C1430 0.960 . S
H1445 C1431 0.961 . S
H1446 C1431 0.961 . S
H1447 C1431 0.961 . S
H1448 C1432 0.931 . S
H1449 C1437 0.930 . S
H1450 C1438 0.956 . S
H1451 C1438 0.961 . S
H1452 C1438 0.961 . S
H1453 C1439 0.958 . S
H1454 C1439 0.961 . S
H1455 C1439 0.960 . S
C1456 C1457 1.391 . S
C1456 C1458 1.394 . S
C1456 H1472 0.931 . S
C1457 C1456 1.391 . S
C1457 C1461 1.376 . S
C1458 C1456 1.394 . S
C1458 C1459 1.369 . S
C1458 C1462 1.531 . S
C1459 C1458 1.369 . S
C1459 C1460 1.410 . S
C1459 C1467 1.503 . S
C1460 C1459 1.410 . S
C1460 C1461 1.392 . S
C1460 C1463 1.511 . S
C1461 C1457 1.376 . S
C1461 C1460 1.392 . S
C1461 H1473 0.929 . S
C1462 C1458 1.531 . S
C1462 H1474 0.960 . S
C1462 H1475 0.962 . S
C1462 H1476 0.960 . S
C1463 C1460 1.511 . S
C1463 H1477 0.961 . S
C1463 H1478 0.961 . S
C1463 H1479 0.961 . S
C1464 C1465 1.370 . S
C1464 C1466 1.363 . S
C1464 H1480 0.931 . S
C1465 C1464 1.370 . S
C1465 C1469 1.408 . S
C1466 C1464 1.363 . S
C1466 C1467 1.370 . S
C1466 C1470 1.524 . S
C1467 C1459 1.503 . S
C1467 C1466 1.370 . S
C1467 C1468 1.403 . S
C1468 C1467 1.403 . S
C1468 C1469 1.404 . S
C1468 C1471 1.539 . S
C1469 C1465 1.408 . S
C1469 C1468 1.404 . S
C1469 H1481 0.930 . S
C1470 C1466 1.524 . S
C1470 H1482 0.956 . S
C1470 H1483 0.961 . S
C1470 H1484 0.961 . S
C1471 C1468 1.539 . S
C1471 H1485 0.958 . S
C1471 H1486 0.961 . S
C1471 H1487 0.960 . S
H1472 C1456 0.931 . S
H1473 C1461 0.929 . S
H1474 C1462 0.960 . S
H1475 C1462 0.962 . S
H1476 C1462 0.960 . S
H1477 C1463 0.961 . S
H1478 C1463 0.961 . S
H1479 C1463 0.961 . S
H1480 C1464 0.931 . S
H1481 C1469 0.930 . S
H1482 C1470 0.956 . S
H1483 C1470 0.961 . S
H1484 C1470 0.961 . S
H1485 C1471 0.958 . S
H1486 C1471 0.961 . S
H1487 C1471 0.960 . S
C1488 C1489 1.391 . S
C1488 C1490 1.394 . S
C1488 H1504 0.931 . S
C1489 C1488 1.391 . S
C1489 C1493 1.376 . S
C1490 C1488 1.394 . S
C1490 C1491 1.369 . S
C1490 C1494 1.531 . S
C1491 C1490 1.369 . S
C1491 C1492 1.410 . S
C1491 C1499 1.503 . S
C1492 C1491 1.410 . S
C1492 C1493 1.392 . S
C1492 C1495 1.511 . S
C1493 C1489 1.376 . S
C1493 C1492 1.392 . S
C1493 H1505 0.929 . S
C1494 C1490 1.531 . S
C1494 H1506 0.960 . S
C1494 H1507 0.962 . S
C1494 H1508 0.960 . S
C1495 C1492 1.511 . S
C1495 H1509 0.961 . S
C1495 H1510 0.961 . S
C1495 H1511 0.961 . S
C1496 C1497 1.370 . S
C1496 C1498 1.363 . S
C1496 H1512 0.931 . S
C1497 C1496 1.370 . S
C1497 C1501 1.408 . S
C1498 C1496 1.363 . S
C1498 C1499 1.370 . S
C1498 C1502 1.524 . S
C1499 C1491 1.503 . S
C1499 C1498 1.370 . S
C1499 C1500 1.403 . S
C1500 C1499 1.403 . S
C1500 C1501 1.404 . S
C1500 C1503 1.539 . S
C1501 C1497 1.408 . S
C1501 C1500 1.404 . S
C1501 H1513 0.930 . S
C1502 C1498 1.524 . S
C1502 H1514 0.956 . S
C1502 H1515 0.961 . S
C1502 H1516 0.961 . S
C1503 C1500 1.539 . S
C1503 H1517 0.958 . S
C1503 H1518 0.961 . S
C1503 H1519 0.960 . S
H1504 C1488 0.931 . S
H1505 C1493 0.929 . S
H1506 C1494 0.960 . S
H1507 C1494 0.962 . S
H1508 C1494 0.960 . S
H1509 C1495 0.961 . S
H1510 C1495 0.961 . S
H1511 C1495 0.961 . S
H1512 C1496 0.931 . S
H1513 C1501 0.930 . S
H1514 C1502 0.956 . S
H1515 C1502 0.961 . S
H1516 C1502 0.961 . S
H1517 C1503 0.958 . S
H1518 C1503 0.961 . S
H1519 C1503 0.960 . S
C1520 C1521 1.391 . S
C1520 C1522 1.394 . S
C1520 H1536 0.931 . S
C1521 C1520 1.391 . S
C1521 C1525 1.376 . S
C1522 C1520 1.394 . S
C1522 C1523 1.369 . S
C1522 C1526 1.531 . S
C1523 C1522 1.369 . S
C1523 C1524 1.410 . S
C1523 C1531 1.503 . S
C1524 C1523 1.410 . S
C1524 C1525 1.392 . S
C1524 C1527 1.511 . S
C1525 C1521 1.376 . S
C1525 C1524 1.392 . S
C1525 H1537 0.929 . S
C1526 C1522 1.531 . S
C1526 H1538 0.960 . S
C1526 H1539 0.962 . S
C1526 H1540 0.960 . S
C1527 C1524 1.511 . S
C1527 H1541 0.961 . S
C1527 H1542 0.961 . S
C1527 H1543 0.961 . S
C1528 C1529 1.370 . S
C1528 C1530 1.363 . S
C1528 H1544 0.931 . S
C1529 C1528 1.370 . S
C1529 C1533 1.408 . S
C1530 C1528 1.363 . S
C1530 C1531 1.370 . S
C1530 C1534 1.524 . S
C1531 C1523 1.503 . S
C1531 C1530 1.370 . S
C1531 C1532 1.403 . S
C1532 C1531 1.403 . S
C1532 C1533 1.404 . S
C1532 C1535 1.539 . S
C1533 C1529 1.408 . S
C1533 C1532 1.404 . S
C1533 H1545 0.930 . S
C1534 C1530 1.524 . S
C1534 H1546 0.956 . S
C1534 H1547 0.961 . S
C1534 H1548 0.961 . S
C1535 C1532 1.539 . S
C1535 H1549 0.958 . S
C1535 H1550 0.961 . S
C1535 H1551 0.960 . S
H1536 C1520 0.931 . S
H1537 C1525 0.929 . S
H1538 C1526 0.960 . S
H1539 C1526 0.962 . S
H1540 C1526 0.960 . S
H1541 C1527 0.961 . S
H1542 C1527 0.961 . S
H1543 C1527 0.961 . S
H1544 C1528 0.931 . S
H1545 C1533 0.930 . S
H1546 C1534 0.956 . S
H1547 C1534 0.961 . S
H1548 C1534 0.961 . S
H1549 C1535 0.958 . S
H1550 C1535 0.961 . S
H1551 C1535 0.960 . S
C1552 C1553 1.391 . S
C1552 C1554 1.394 . S
C1552 H1568 0.931 . S
C1553 C1552 1.391 . S
C1553 C1557 1.376 . S
C1554 C1552 1.394 . S
C1554 C1555 1.369 . S
C1554 C1558 1.531 . S
C1555 C1554 1.369 . S
C1555 C1556 1.410 . S
C1555 C1563 1.503 . S
C1556 C1555 1.410 . S
C1556 C1557 1.392 . S
C1556 C1559 1.511 . S
C1557 C1553 1.376 . S
C1557 C1556 1.392 . S
C1557 H1569 0.929 . S
C1558 C1554 1.531 . S
C1558 H1570 0.960 . S
C1558 H1571 0.962 . S
C1558 H1572 0.960 . S
C1559 C1556 1.511 . S
C1559 H1573 0.961 . S
C1559 H1574 0.961 . S
C1559 H1575 0.961 . S
C1560 C1561 1.370 . S
C1560 C1562 1.363 . S
C1560 H1576 0.931 . S
C1561 C1560 1.370 . S
C1561 C1565 1.408 . S
C1562 C1560 1.363 . S
C1562 C1563 1.370 . S
C1562 C1566 1.524 . S
C1563 C1555 1.503 . S
C1563 C1562 1.370 . S
C1563 C1564 1.403 . S
C1564 C1563 1.403 . S
C1564 C1565 1.404 . S
C1564 C1567 1.539 . S
C1565 C1561 1.408 . S
C1565 C1564 1.404 . S
C1565 H1577 0.930 . S
C1566 C1562 1.524 . S
C1566 H1578 0.956 . S
C1566 H1579 0.961 . S
C1566 H1580 0.961 . S
C1567 C1564 1.539 . S
C1567 H1581 0.958 . S
C1567 H1582 0.961 . S
C1567 H1583 0.960 . S
H1568 C1552 0.931 . S
H1569 C1557 0.929 . S
H1570 C1558 0.960 . S
H1571 C1558 0.962 . S
H1572 C1558 0.960 . S
H1573 C1559 0.961 . S
H1574 C1559 0.961 . S
H1575 C1559 0.961 . S
H1576 C1560 0.931 . S
H1577 C1565 0.930 . S
H1578 C1566 0.956 . S
H1579 C1566 0.961 . S
H1580 C1566 0.961 . S
H1581 C1567 0.958 . S
H1582 C1567 0.961 . S
H1583 C1567 0.960 . S
C1584 C1585 1.391 . S
C1584 C1586 1.394 . S
C1584 H1600 0.931 . S
C1585 C1584 1.391 . S
C1585 C1589 1.376 . S
C1586 C1584 1.394 . S
C1586 C1587 1.369 . S
C1586 C1590 1.531 . S
C1587 C1586 1.369 . S
C1587 C1588 1.410 . S
C1587 C1595 1.503 . S
C1588 C1587 1.410 . S
C1588 C1589 1.392 . S
C1588 C1591 1.511 . S
C1589 C1585 1.376 . S
C1589 C1588 1.392 . S
C1589 H1601 0.929 . S
C1590 C1586 1.531 . S
C1590 H1602 0.960 . S
C1590 H1603 0.962 . S
C1590 H1604 0.960 . S
C1591 C1588 1.511 . S
C1591 H1605 0.961 . S
C1591 H1606 0.961 . S
C1591 H1607 0.961 . S
C1592 C1593 1.370 . S
C1592 C1594 1.363 . S
C1592 H1608 0.931 . S
C1593 C1592 1.370 . S
C1593 C1597 1.408 . S
C1594 C1592 1.363 . S
C1594 C1595 1.370 . S
C1594 C1598 1.524 . S
C1595 C1587 1.503 . S
C1595 C1594 1.370 . S
C1595 C1596 1.403 . S
C1596 C1595 1.403 . S
C1596 C1597 1.404 . S
C1596 C1599 1.539 . S
C1597 C1593 1.408 . S
C1597 C1596 1.404 . S
C1597 H1609 0.930 . S
C1598 C1594 1.524 . S
C1598 H1610 0.956 . S
C1598 H1611 0.961 . S
C1598 H1612 0.961 . S
C1599 C1596 1.539 . S
C1599 H1613 0.958 . S
C1599 H1614 0.961 . S
C1599 H1615 0.960 . S
H1600 C1584 0.931 . S
H1601 C1589 0.929 . S
H1602 C1590 0.960 . S
H1603 C1590 0.962 . S
H1604 C1590 0.960 . S
H1605 C1591 0.961 . S
H1606 C1591 0.961 . S
H1607 C1591 0.961 . S
H1608 C1592 0.931 . S
H1609 C1597 0.930 . S
H1610 C1598 0.956 . S
H1611 C1598 0.961 . S
H1612 C1598 0.961 . S
H1613 C1599 0.958 . S
H1614 C1599 0.961 . S
H1615 C1599 0.960 . S
C1616 C1617 1.391 . S
C1616 C1618 1.394 . S
C1616 H1632 0.931 . S
C1617 C1616 1.391 . S
C1617 C1621 1.376 . S
C1618 C1616 1.394 . S
C1618 C1619 1.369 . S
C1618 C1622 1.531 . S
C1619 C1618 1.369 . S
C1619 C1620 1.410 . S
C1619 C1627 1.503 . S
C1620 C1619 1.410 . S
C1620 C1621 1.392 . S
C1620 C1623 1.511 . S
C1621 C1617 1.376 . S
C1621 C1620 1.392 . S
C1621 H1633 0.929 . S
C1622 C1618 1.531 . S
C1622 H1634 0.960 . S
C1622 H1635 0.962 . S
C1622 H1636 0.960 . S
C1623 C1620 1.511 . S
C1623 H1637 0.961 . S
C1623 H1638 0.961 . S
C1623 H1639 0.961 . S
C1624 C1625 1.370 . S
C1624 C1626 1.363 . S
C1624 H1640 0.931 . S
C1625 C1624 1.370 . S
C1625 C1629 1.408 . S
C1626 C1624 1.363 . S
C1626 C1627 1.370 . S
C1626 C1630 1.524 . S
C1627 C1619 1.503 . S
C1627 C1626 1.370 . S
C1627 C1628 1.403 . S
C1628 C1627 1.403 . S
C1628 C1629 1.404 . S
C1628 C1631 1.539 . S
C1629 C1625 1.408 . S
C1629 C1628 1.404 . S
C1629 H1641 0.930 . S
C1630 C1626 1.524 . S
C1630 H1642 0.956 . S
C1630 H1643 0.961 . S
C1630 H1644 0.961 . S
C1631 C1628 1.539 . S
C1631 H1645 0.958 . S
C1631 H1646 0.961 . S
C1631 H1647 0.960 . S
H1632 C1616 0.931 . S
H1633 C1621 0.929 . S
H1634 C1622 0.960 . S
H1635 C1622 0.962 . S
H1636 C1622 0.960 . S
H1637 C1623 0.961 . S
H1638 C1623 0.961 . S
H1639 C1623 0.961 . S
H1640 C1624 0.931 . S
H1641 C1629 0.930 . S
H1642 C1630 0.956 . S
H1643 C1630 0.961 . S
H1644 C1630 0.961 . S
H1645 C1631 0.958 . S
H1646 C1631 0.961 . S
H1647 C1631 0.960 . S
C1648 C1649 1.391 . S
C1648 C1650 1.394 . S
C1648 H1664 0.931 . S
C1649 C1648 1.391 . S
C1649 C1653 1.376 . S
C1650 C1648 1.394 . S
C1650 C1651 1.369 . S
C1650 C1654 1.531 . S
C1651 C1650 1.369 . S
C1651 C1652 1.410 . S
C1651 C1659 1.503 . S
C1652 C1651 1.410 . S
C1652 C1653 1.392 . S
C1652 C1655 1.511 . S
C1653 C1649 1.376 . S
C1653 C1652 1.392 . S
C1653 H1665 0.929 . S
C1654 C1650 1.531 . S
C1654 H1666 0.960 . S
C1654 H1667 0.962 . S
C1654 H1668 0.960 . S
C1655 C1652 1.511 . S
C1655 H1669 0.961 . S
C1655 H1670 0.961 . S
C1655 H1671 0.961 . S
C1656 C1657 1.370 . S
C1656 C1658 1.363 . S
C1656 H1672 0.931 . S
C1657 C1656 1.370 . S
C1657 C1661 1.408 . S
C1658 C1656 1.363 . S
C1658 C1659 1.370 . S
C1658 C1662 1.524 . S
C1659 C1651 1.503 . S
C1659 C1658 1.370 . S
C1659 C1660 1.403 . S
C1660 C1659 1.403 . S
C1660 C1661 1.404 . S
C1660 C1663 1.539 . S
C1661 C1657 1.408 . S
C1661 C1660 1.404 . S
C1661 H1673 0.930 . S
C1662 C1658 1.524 . S
C1662 H1674 0.956 . S
C1662 H1675 0.961 . S
C1662 H1676 0.961 . S
C1663 C1660 1.539 . S
C1663 H1677 0.958 . S
C1663 H1678 0.961 . S
C1663 H1679 0.960 . S
H1664 C1648 0.931 . S
H1665 C1653 0.929 . S
H1666 C1654 0.960 . S
H1667 C1654 0.962 . S
H1668 C1654 0.960 . S
H1669 C1655 0.961 . S
H1670 C1655 0.961 . S
H1671 C1655 0.961 . S
H1672 C1656 0.931 . S
H1673 C1661 0.930 . S
H1674 C1662 0.956 . S
H1675 C1662 0.961 . S
H1676 C1662 0.961 . S
H1677 C1663 0.958 . S
H1678 C1663 0.961 . S
H1679 C1663 0.960 . S
C1680 C1681 1.391 . S
C1680 C1682 1.394 . S
C1680 H1696 0.931 . S
C1681 C1680 1.391 . S
C1681 C1685 1.376 . S
C1682 C1680 1.394 . S
C1682 C1683 1.369 . S
C1682 C1686 1.531 . S
C1683 C1682 1.369 . S
C1683 C1684 1.410 . S
C1683 C1691 1.503 . S
C1684 C1683 1.410 . S
C1684 C1685 1.392 . S
C1684 C1687 1.511 . S
C1685 C1681 1.376 . S
C1685 C1684 1.392 . S
C1685 H1697 0.929 . S
C1686 C1682 1.531 . S
C1686 H1698 0.960 . S
C1686 H1699 0.962 . S
C1686 H1700 0.960 . S
C1687 C1684 1.511 . S
C1687 H1701 0.961 . S
C1687 H1702 0.961 . S
C1687 H1703 0.961 . S
C1688 C1689 1.370 . S
C1688 C1690 1.363 . S
C1688 H1704 0.931 . S
C1689 C1688 1.370 . S
C1689 C1693 1.408 . S
C1690 C1688 1.363 . S
C1690 C1691 1.370 . S
C1690 C1694 1.524 . S
C1691 C1683 1.503 . S
C1691 C1690 1.370 . S
C1691 C1692 1.403 . S
C1692 C1691 1.403 . S
C1692 C1693 1.404 . S
C1692 C1695 1.539 . S
C1693 C1689 1.408 . S
C1693 C1692 1.404 . S
C1693 H1705 0.930 . S
C1694 C1690 1.524 . S
C1694 H1706 0.956 . S
C1694 H1707 0.961 . S
C1694 H1708 0.961 . S
C1695 C1692 1.539 . S
C1695 H1709 0.958 . S
C1695 H1710 0.961 . S
C1695 H1711 0.960 . S
H1696 C1680 0.931 . S
H1697 C1685 0.929 . S
H1698 C1686 0.960 . S
H1699 C1686 0.962 . S
H1700 C1686 0.960 . S
H1701 C1687 0.961 . S
H1702 C1687 0.961 . S
H1703 C1687 0.961 . S
H1704 C1688 0.931 . S
H1705 C1693 0.930 . S
H1706 C1694 0.956 . S
H1707 C1694 0.961 . S
H1708 C1694 0.961 . S
H1709 C1695 0.958 . S
H1710 C1695 0.961 . S
H1711 C1695 0.960 . S
C1712 C1713 1.391 . S
C1712 C1714 1.394 . S
C1712 H1728 0.931 . S
C1713 C1712 1.391 . S
C1713 C1717 1.376 . S
C1714 C1712 1.394 . S
C1714 C1715 1.369 . S
C1714 C1718 1.531 . S
C1715 C1714 1.369 . S
C1715 C1716 1.410 . S
C1715 C1723 1.503 . S
C1716 C1715 1.410 . S
C1716 C1717 1.392 . S
C1716 C1719 1.511 . S
C1717 C1713 1.376 . S
C1717 C1716 1.392 . S
C1717 H1729 0.929 . S
C1718 C1714 1.531 . S
C1718 H1730 0.960 . S
C1718 H1731 0.962 . S
C1718 H1732 0.960 . S
C1719 C1716 1.511 . S
C1719 H1733 0.961 . S
C1719 H1734 0.961 . S
C1719 H1735 0.961 . S
C1720 C1721 1.370 . S
C1720 C1722 1.363 . S
C1720 H1736 0.931 . S
C1721 C1720 1.370 . S
C1721 C1725 1.408 . S
C1722 C1720 1.363 . S
C1722 C1723 1.370 . S
C1722 C1726 1.524 . S
C1723 C1715 1.503 . S
C1723 C1722 1.370 . S
C1723 C1724 1.403 . S
C1724 C1723 1.403 . S
C1724 C1725 1.404 . S
C1724 C1727 1.539 . S
C1725 C1721 1.408 . S
C1725 C1724 1.404 . S
C1725 H1737 0.930 . S
C1726 C1722 1.524 . S
C1726 H1738 0.956 . S
C1726 H1739 0.961 . S
C1726 H1740 0.961 . S
C1727 C1724 1.539 . S
C1727 H1741 0.958 . S
C1727 H1742 0.961 . S
C1727 H1743 0.960 . S
H1728 C1712 0.931 . S
H1729 C1717 0.929 . S
H1730 C1718 0.960 . S
H1731 C1718 0.962 . S
H1732 C1718 0.960 . S
H1733 C1719 0.961 . S
H1734 C1719 0.961 . S
H1735 C1719 0.961 . S
H1736 C1720 0.931 . S
H1737 C1725 0.930 . S
H1738 C1726 0.956 . S
H1739 C1726 0.961 . S
H1740 C1726 0.961 . S
H1741 C1727 0.958 . S
H1742 C1727 0.961 . S
H1743 C1727 0.960 . S
C1744 C1745 1.391 . S
C1744 C1746 1.394 . S
C1744 H1760 0.931 . S
C1745 C1744 1.391 . S
C1745 C1749 1.376 . S
C1746 C1744 1.394 . S
C1746 C1747 1.369 . S
C1746 C1750 1.531 . S
C1747 C1746 1.369 . S
C1747 C1748 1.410 . S
C1747 C1755 1.503 . S
C1748 C1747 1.410 . S
C1748 C1749 1.392 . S
C1748 C1751 1.511 . S
C1749 C1745 1.376 . S
C1749 C1748 1.392 . S
C1749 H1761 0.929 . S
C1750 C1746 1.531 . S
C1750 H1762 0.960 . S
C1750 H1763 0.962 . S
C1750 H1764 0.960 . S
C1751 C1748 1.511 . S
C1751 H1765 0.961 . S
C1751 H1766 0.961 . S
C1751 H1767 0.961 . S
C1752 C1753 1.370 . S
C1752 C1754 1.363 . S
C1752 H1768 0.931 . S
C1753 C1752 1.370 . S
C1753 C1757 1.408 . S
C1754 C1752 1.363 . S
C1754 C1755 1.370 . S
C1754 C1758 1.524 . S
C1755 C1747 1.503 . S
C1755 C1754 1.370 . S
C1755 C1756 1.403 . S
C1756 C1755 1.403 . S
C1756 C1757 1.404 . S
C1756 C1759 1.539 . S
C1757 C1753 1.408 . S
C1757 C1756 1.404 . S
C1757 H1769 0.930 . S
C1758 C1754 1.524 . S
C1758 H1770 0.956 . S
C1758 H1771 0.961 . S
C1758 H1772 0.961 . S
C1759 C1756 1.539 . S
C1759 H1773 0.958 . S
C1759 H1774 0.961 . S
C1759 H1775 0.960 . S
H1760 C1744 0.931 . S
H1761 C1749 0.929 . S
H1762 C1750 0.960 . S
H1763 C1750 0.962 . S
H1764 C1750 0.960 . S
H1765 C1751 0.961 . S
H1766 C1751 0.961 . S
H1767 C1751 0.961 . S
H1768 C1752 0.931 . S
H1769 C1757 0.930 . S
H1770 C1758 0.956 . S
H1771 C1758 0.961 . S
H1772 C1758 0.961 . S
H1773 C1759 0.958 . S
H1774 C1759 0.961 . S
H1775 C1759 0.960 . S
C1776 C1777 1.391 . S
C1776 C1778 1.394 . S
C1776 H1792 0.931 . S
C1777 C1776 1.391 . S
C1777 C1781 1.376 . S
C1778 C1776 1.394 . S
C1778 C1779 1.369 . S
C1778 C1782 1.531 . S
C1779 C1778 1.369 . S
C1779 C1780 1.410 . S
C1779 C1787 1.503 . S
C1780 C1779 1.410 . S
C1780 C1781 1.392 . S
C1780 C1783 1.511 . S
C1781 C1777 1.376 . S
C1781 C1780 1.392 . S
C1781 H1793 0.929 . S
C1782 C1778 1.531 . S
C1782 H1794 0.960 . S
C1782 H1795 0.962 . S
C1782 H1796 0.960 . S
C1783 C1780 1.511 . S
C1783 H1797 0.961 . S
C1783 H1798 0.961 . S
C1783 H1799 0.961 . S
C1784 C1785 1.370 . S
C1784 C1786 1.363 . S
C1784 H1800 0.931 . S
C1785 C1784 1.370 . S
C1785 C1789 1.408 . S
C1786 C1784 1.363 . S
C1786 C1787 1.370 . S
C1786 C1790 1.524 . S
C1787 C1779 1.503 . S
C1787 C1786 1.370 . S
C1787 C1788 1.403 . S
C1788 C1787 1.403 . S
C1788 C1789 1.404 . S
C1788 C1791 1.539 . S
C1789 C1785 1.408 . S
C1789 C1788 1.404 . S
C1789 H1801 0.930 . S
C1790 C1786 1.524 . S
C1790 H1802 0.956 . S
C1790 H1803 0.961 . S
C1790 H1804 0.961 . S
C1791 C1788 1.539 . S
C1791 H1805 0.958 . S
C1791 H1806 0.961 . S
C1791 H1807 0.960 . S
H1792 C1776 0.931 . S
H1793 C1781 0.929 . S
H1794 C1782 0.960 . S
H1795 C1782 0.962 . S
H1796 C1782 0.960 . S
H1797 C1783 0.961 . S
H1798 C1783 0.961 . S
H1799 C1783 0.961 . S
H1800 C1784 0.931 . S
H1801 C1789 0.930 . S
H1802 C1790 0.956 . S
H1803 C1790 0.961 . S
H1804 C1790 0.961 . S
H1805 C1791 0.958 . S
H1806 C1791 0.961 . S
H1807 C1791 0.960 . S
C1808 C1809 1.391 . S
C1808 C1810 1.394 . S
C1808 H1824 0.931 . S
C1809 C1808 1.391 . S
C1809 C1813 1.376 . S
C1810 C1808 1.394 . S
C1810 C1811 1.369 . S
C1810 C1814 1.531 . S
C1811 C1810 1.369 . S
C1811 C1812 1.410 . S
C1811 C1819 1.503 . S
C1812 C1811 1.410 . S
C1812 C1813 1.392 . S
C1812 C1815 1.511 . S
C1813 C1809 1.376 . S
C1813 C1812 1.392 . S
C1813 H1825 0.929 . S
C1814 C1810 1.531 . S
C1814 H1826 0.960 . S
C1814 H1827 0.962 . S
C1814 H1828 0.960 . S
C1815 C1812 1.511 . S
C1815 H1829 0.961 . S
C1815 H1830 0.961 . S
C1815 H1831 0.961 . S
C1816 C1817 1.370 . S
C1816 C1818 1.363 . S
C1816 H1832 0.931 . S
C1817 C1816 1.370 . S
C1817 C1821 1.408 . S
C1818 C1816 1.363 . S
C1818 C1819 1.370 . S
C1818 C1822 1.524 . S
C1819 C1811 1.503 . S
C1819 C1818 1.370 . S
C1819 C1820 1.403 . S
C1820 C1819 1.403 . S
C1820 C1821 1.404 . S
C1820 C1823 1.539 . S
C1821 C1817 1.408 . S
C1821 C1820 1.404 . S
C1821 H1833 0.930 . S
C1822 C1818 1.524 . S
C1822 H1834 0.956 . S
C1822 H1835 0.961 . S
C1822 H1836 0.961 . S
C1823 C1820 1.539 . S
C1823 H1837 0.958 . S
C1823 H1838 0.961 . S
C1823 H1839 0.960 . S
H1824 C1808 0.931 . S
H1825 C1813 0.929 . S
H1826 C1814 0.960 . S
H1827 C1814 0.962 . S
H1828 C1814 0.960 . S
H1829 C1815 0.961 . S
H1830 C1815 0.961 . S
H1831 C1815 0.961 . S
H1832 C1816 0.931 . S
H1833 C1821 0.930 . S
H1834 C1822 0.956 . S
H1835 C1822 0.961 . S
H1836 C1822 0.961 . S
H1837 C1823 0.958 . S
H1838 C1823 0.961 . S
H1839 C1823 0.960 . S
C1840 C1841 1.391 . S
C1840 C1842 1.394 . S
C1840 H1856 0.931 . S
C1841 C1840 1.391 . S
C1841 C1845 1.376 . S
C1842 C1840 1.394 . S
C1842 C1843 1.369 . S
C1842 C1846 1.531 . S
C1843 C1842 1.369 . S
C1843 C1844 1.410 . S
C1843 C1851 1.503 . S
C1844 C1843 1.410 . S
C1844 C1845 1.392 . S
C1844 C1847 1.511 . S
C1845 C1841 1.376 . S
C1845 C1844 1.392 . S
C1845 H1857 0.929 . S
C1846 C1842 1.531 . S
C1846 H1858 0.960 . S
C1846 H1859 0.962 . S
C1846 H1860 0.960 . S
C1847 C1844 1.511 . S
C1847 H1861 0.961 . S
C1847 H1862 0.961 . S
C1847 H1863 0.961 . S
C1848 C1849 1.370 . S
C1848 C1850 1.363 . S
C1848 H1864 0.931 . S
C1849 C1848 1.370 . S
C1849 C1853 1.408 . S
C1850 C1848 1.363 . S
C1850 C1851 1.370 . S
C1850 C1854 1.524 . S
C1851 C1843 1.503 . S
C1851 C1850 1.370 . S
C1851 C1852 1.403 . S
C1852 C1851 1.403 . S
C1852 C1853 1.404 . S
C1852 C1855 1.539 . S
C1853 C1849 1.408 . S
C1853 C1852 1.404 . S
C1853 H1865 0.930 . S
C1854 C1850 1.524 . S
C1854 H1866 0.956 . S
C1854 H1867 0.961 . S
C1854 H1868 0.961 . S
C1855 C1852 1.539 . S
C1855 H1869 0.958 . S
C1855 H1870 0.961 . S
C1855 H1871 0.960 . S
H1856 C1840 0.931 . S
H1857 C1845 0.929 . S
H1858 C1846 0.960 . S
H1859 C1846 0.962 . S
H1860 C1846 0.960 . S
H1861 C1847 0.961 . S
H1862 C1847 0.961 . S
H1863 C1847 0.961 . S
H1864 C1848 0.931 . S
H1865 C1853 0.930 . S
H1866 C1854 0.956 . S
H1867 C1854 0.961 . S
H1868 C1854 0.961 . S
H1869 C1855 0.958 . S
H1870 C1855 0.961 . S
H1871 C1855 0.960 . S
C1872 C1873 1.391 . S
C1872 C1874 1.394 . S
C1872 H1888 0.931 . S
C1873 C1872 1.391 . S
C1873 C1877 1.376 . S
C1874 C1872 1.394 . S
C1874 C1875 1.369 . S
C1874 C1878 1.531 . S
C1875 C1874 1.369 . S
C1875 C1876 1.410 . S
C1875 C1883 1.503 . S
C1876 C1875 1.410 . S
C1876 C1877 1.392 . S
C1876 C1879 1.511 . S
C1877 C1873 1.376 . S
C1877 C1876 1.392 . S
C1877 H1889 0.929 . S
C1878 C1874 1.531 . S
C1878 H1890 0.960 . S
C1878 H1891 0.962 . S
C1878 H1892 0.960 . S
C1879 C1876 1.511 . S
C1879 H1893 0.961 . S
C1879 H1894 0.961 . S
C1879 H1895 0.961 . S
C1880 C1881 1.370 . S
C1880 C1882 1.363 . S
C1880 H1896 0.931 . S
C1881 C1880 1.370 . S
C1881 C1885 1.408 . S
C1882 C1880 1.363 . S
C1882 C1883 1.370 . S
C1882 C1886 1.524 . S
C1883 C1875 1.503 . S
C1883 C1882 1.370 . S
C1883 C1884 1.403 . S
C1884 C1883 1.403 . S
C1884 C1885 1.404 . S
C1884 C1887 1.539 . S
C1885 C1881 1.408 . S
C1885 C1884 1.404 . S
C1885 H1897 0.930 . S
C1886 C1882 1.524 . S
C1886 H1898 0.956 . S
C1886 H1899 0.961 . S
C1886 H1900 0.961 . S
C1887 C1884 1.539 . S
C1887 H1901 0.958 . S
C1887 H1902 0.961 . S
C1887 H1903 0.960 . S
H1888 C1872 0.931 . S
H1889 C1877 0.929 . S
H1890 C1878 0.960 . S
H1891 C1878 0.962 . S
H1892 C1878 0.960 . S
H1893 C1879 0.961 . S
H1894 C1879 0.961 . S
H1895 C1879 0.961 . S
H1896 C1880 0.931 . S
H1897 C1885 0.930 . S
H1898 C1886 0.956 . S
H1899 C1886 0.961 . S
H1900 C1886 0.961 . S
H1901 C1887 0.958 . S
H1902 C1887 0.961 . S
H1903 C1887 0.960 . S
C1904 C1905 1.391 . S
C1904 C1906 1.394 . S
C1904 H1920 0.931 . S
C1905 C1904 1.391 . S
C1905 C1909 1.376 . S
C1906 C1904 1.394 . S
C1906 C1907 1.369 . S
C1906 C1910 1.531 . S
C1907 C1906 1.369 . S
C1907 C1908 1.410 . S
C1907 C1915 1.503 . S
C1908 C1907 1.410 . S
C1908 C1909 1.392 . S
C1908 C1911 1.511 . S
C1909 C1905 1.376 . S
C1909 C1908 1.392 . S
C1909 H1921 0.929 . S
C1910 C1906 1.531 . S
C1910 H1922 0.960 . S
C1910 H1923 0.962 . S
C1910 H1924 0.960 . S
C1911 C1908 1.511 . S
C1911 H1925 0.961 . S
C1911 H1926 0.961 . S
C1911 H1927 0.961 . S
C1912 C1913 1.370 . S
C1912 C1914 1.363 . S
C1912 H1928 0.931 . S
C1913 C1912 1.370 . S
C1913 C1917 1.408 . S
C1914 C1912 1.363 . S
C1914 C1915 1.370 . S
C1914 C1918 1.524 . S
C1915 C1907 1.503 . S
C1915 C1914 1.370 . S
C1915 C1916 1.403 . S
C1916 C1915 1.403 . S
C1916 C1917 1.404 . S
C1916 C1919 1.539 . S
C1917 C1913 1.408 . S
C1917 C1916 1.404 . S
C1917 H1929 0.930 . S
C1918 C1914 1.524 . S
C1918 H1930 0.956 . S
C1918 H1931 0.961 . S
C1918 H1932 0.961 . S
C1919 C1916 1.539 . S
C1919 H1933 0.958 . S
C1919 H1934 0.961 . S
C1919 H1935 0.960 . S
H1920 C1904 0.931 . S
H1921 C1909 0.929 . S
H1922 C1910 0.960 . S
H1923 C1910 0.962 . S
H1924 C1910 0.960 . S
H1925 C1911 0.961 . S
H1926 C1911 0.961 . S
H1927 C1911 0.961 . S
H1928 C1912 0.931 . S
H1929 C1917 0.930 . S
H1930 C1918 0.956 . S
H1931 C1918 0.961 . S
H1932 C1918 0.961 . S
H1933 C1919 0.958 . S
H1934 C1919 0.961 . S
H1935 C1919 0.960 . S
C1936 C1937 1.391 . S
C1936 C1938 1.394 . S
C1936 H1952 0.931 . S
C1937 C1936 1.391 . S
C1937 C1941 1.376 . S
C1938 C1936 1.394 . S
C1938 C1939 1.369 . S
C1938 C1942 1.531 . S
C1939 C1938 1.369 . S
C1939 C1940 1.410 . S
C1939 C1947 1.503 . S
C1940 C1939 1.410 . S
C1940 C1941 1.392 . S
C1940 C1943 1.511 . S
C1941 C1937 1.376 . S
C1941 C1940 1.392 . S
C1941 H1953 0.929 . S
C1942 C1938 1.531 . S
C1942 H1954 0.960 . S
C1942 H1955 0.962 . S
C1942 H1956 0.960 . S
C1943 C1940 1.511 . S
C1943 H1957 0.961 . S
C1943 H1958 0.961 . S
C1943 H1959 0.961 . S
C1944 C1945 1.370 . S
C1944 C1946 1.363 . S
C1944 H1960 0.931 . S
C1945 C1944 1.370 . S
C1945 C1949 1.408 . S
C1946 C1944 1.363 . S
C1946 C1947 1.370 . S
C1946 C1950 1.524 . S
C1947 C1939 1.503 . S
C1947 C1946 1.370 . S
C1947 C1948 1.403 . S
C1948 C1947 1.403 . S
C1948 C1949 1.404 . S
C1948 C1951 1.539 . S
C1949 C1945 1.408 . S
C1949 C1948 1.404 . S
C1949 H1961 0.930 . S
C1950 C1946 1.524 . S
C1950 H1962 0.956 . S
C1950 H1963 0.961 . S
C1950 H1964 0.961 . S
C1951 C1948 1.539 . S
C1951 H1965 0.958 . S
C1951 H1966 0.961 . S
C1951 H1967 0.960 . S
H1952 C1936 0.931 . S
H1953 C1941 0.929 . S
H1954 C1942 0.960 . S
H1955 C1942 0.962 . S
H1956 C1942 0.960 . S
H1957 C1943 0.961 . S
H1958 C1943 0.961 . S
H1959 C1943 0.961 . S
H1960 C1944 0.931 . S
H1961 C1949 0.930 . S
H1962 C1950 0.956 . S
H1963 C1950 0.961 . S
H1964 C1950 0.961 . S
H1965 C1951 0.958 . S
H1966 C1951 0.961 . S
H1967 C1951 0.960 . S
C1968 C1969 1.391 . S
C1968 C1970 1.394 . S
C1968 H1984 0.931 . S
C1969 C1968 1.391 . S
C1969 C1973 1.376 . S
C1970 C1968 1.394 . S
C1970 C1971 1.369 . S
C1970 C1974 1.531 1_556 S
C1971 C1970 1.369 . S
C1971 C1972 1.410 . S
C1971 C1979 1.503 1_556 S
C1972 C1971 1.410 . S
C1972 C1973 1.392 . S
C1972 C1975 1.511 . S
C1973 C1969 1.376 . S
C1973 C1972 1.392 . S
C1973 H1985 0.929 . S
C1974 C1970 1.531 1_554 S
C1974 H1986 0.960 . S
C1974 H1987 0.962 . S
C1974 H1988 0.960 . S
C1975 C1972 1.511 . S
C1975 H1989 0.961 . S
C1975 H1990 0.961 . S
C1975 H1991 0.961 . S
C1976 C1977 1.370 . S
C1976 C1978 1.363 . S
C1976 H1992 0.931 . S
C1977 C1976 1.370 . S
C1977 C1981 1.408 . S
C1978 C1976 1.363 . S
C1978 C1979 1.370 . S
C1978 C1982 1.524 . S
C1979 C1971 1.503 1_554 S
C1979 C1978 1.370 . S
C1979 C1980 1.403 . S
C1980 C1979 1.403 . S
C1980 C1981 1.404 . S
C1980 C1983 1.539 1_554 S
C1981 C1977 1.408 . S
C1981 C1980 1.404 . S
C1981 H1993 0.930 . S
C1982 C1978 1.524 . S
C1982 H1994 0.956 . S
C1982 H1995 0.961 . S
C1982 H1996 0.961 . S
C1983 C1980 1.539 1_556 S
C1983 H1997 0.958 . S
C1983 H1998 0.961 . S
C1983 H1999 0.960 . S
H1984 C1968 0.931 . S
H1985 C1973 0.929 . S
H1986 C1974 0.960 . S
H1987 C1974 0.962 . S
H1988 C1974 0.960 . S
H1989 C1975 0.961 . S
H1990 C1975 0.961 . S
H1991 C1975 0.961 . S
H1992 C1976 0.931 . S
H1993 C1981 0.930 . S
H1994 C1982 0.956 . S
H1995 C1982 0.961 . S
H1996 C1982 0.961 . S
H1997 C1983 0.958 . S
H1998 C1983 0.961 . S
H1999 C1983 0.960 . S
C2000 C2001 1.391 . S
C2000 C2002 1.394 . S
C2000 H2016 0.931 . S
C2001 C2000 1.391 . S
C2001 C2005 1.376 . S
C2002 C2000 1.394 . S
C2002 C2003 1.369 . S
C2002 C2006 1.531 1_455 S
C2003 C2002 1.369 . S
C2003 C2004 1.410 . S
C2003 C2011 1.503 1_455 S
C2004 C2003 1.410 . S
C2004 C2005 1.392 . S
C2004 C2007 1.511 . S
C2005 C2001 1.376 . S
C2005 C2004 1.392 . S
C2005 H2017 0.929 . S
C2006 C2002 1.531 1_655 S
C2006 H2018 0.960 . S
C2006 H2019 0.962 . S
C2006 H2020 0.960 1_655 S
C2007 C2004 1.511 . S
C2007 H2021 0.961 . S
C2007 H2022 0.961 . S
C2007 H2023 0.961 . S
C2008 C2009 1.370 . S
C2008 C2010 1.363 . S
C2008 H2024 0.931 . S
C2009 C2008 1.370 . S
C2009 C2013 1.408 . S
C2010 C2008 1.363 . S
C2010 C2011 1.370 . S
C2010 C2014 1.524 . S
C2011 C2003 1.503 1_655 S
C2011 C2010 1.370 . S
C2011 C2012 1.403 . S
C2012 C2011 1.403 . S
C2012 C2013 1.404 . S
C2012 C2015 1.539 1_655 S
C2013 C2009 1.408 . S
C2013 C2012 1.404 . S
C2013 H2025 0.930 . S
C2014 C2010 1.524 . S
C2014 H2026 0.956 . S
C2014 H2027 0.961 . S
C2014 H2028 0.961 . S
C2015 C2012 1.539 1_455 S
C2015 H2029 0.958 . S
C2015 H2030 0.961 . S
C2015 H2031 0.960 . S
H2016 C2000 0.931 . S
H2017 C2005 0.929 . S
H2018 C2006 0.960 . S
H2019 C2006 0.962 . S
H2020 C2006 0.960 1_455 S
H2021 C2007 0.961 . S
H2022 C2007 0.961 . S
H2023 C2007 0.961 . S
H2024 C2008 0.931 . S
H2025 C2013 0.930 . S
H2026 C2014 0.956 . S
H2027 C2014 0.961 . S
H2028 C2014 0.961 . S
H2029 C2015 0.958 . S
H2030 C2015 0.961 . S
H2031 C2015 0.960 . S
C2032 C2033 1.391 . S
C2032 C2034 1.394 . S
C2032 H2048 0.931 . S
C2033 C2032 1.391 . S
C2033 C2037 1.376 . S
C2034 C2032 1.394 . S
C2034 C2035 1.369 . S
C2034 C2038 1.531 1_565 S
C2035 C2034 1.369 . S
C2035 C2036 1.410 . S
C2035 C2043 1.503 1_564 S
C2036 C2035 1.410 . S
C2036 C2037 1.392 . S
C2036 C2039 1.511 1_554 S
C2037 C2033 1.376 . S
C2037 C2036 1.392 . S
C2037 H2049 0.929 . S
C2038 C2034 1.531 1_545 S
C2038 H2050 0.960 . S
C2038 H2051 0.962 . S
C2038 H2052 0.960 . S
C2039 C2036 1.511 1_556 S
C2039 H2053 0.961 . S
C2039 H2054 0.961 . S
C2039 H2055 0.961 1_556 S
C2040 C2041 1.370 . S
C2040 C2042 1.363 . S
C2040 H2056 0.931 . S
C2041 C2040 1.370 . S
C2041 C2045 1.408 . S
C2042 C2040 1.363 . S
C2042 C2043 1.370 . S
C2042 C2046 1.524 1_545 S
C2043 C2035 1.503 1_546 S
C2043 C2042 1.370 . S
C2043 C2044 1.402 1_556 S
C2044 C2043 1.402 1_554 S
C2044 C2045 1.401 1_554 S
C2044 C2047 1.543 . S
C2045 C2041 1.408 . S
C2045 C2044 1.401 1_556 S
C2045 H2057 0.930 . S
C2046 C2042 1.524 1_565 S
C2046 H2058 0.956 . S
C2046 H2059 0.961 . S
C2046 H2060 0.961 . S
C2047 C2044 1.543 . S
C2047 H2061 0.958 . S
C2047 H2062 0.961 . S
C2047 H2063 0.960 . S
H2048 C2032 0.931 . S
H2049 C2037 0.929 . S
H2050 C2038 0.960 . S
H2051 C2038 0.962 . S
H2052 C2038 0.960 . S
H2053 C2039 0.961 . S
H2054 C2039 0.961 . S
H2055 C2039 0.961 1_554 S
H2056 C2040 0.931 . S
H2057 C2045 0.930 . S
H2058 C2046 0.956 . S
H2059 C2046 0.961 . S
H2060 C2046 0.961 . S
H2061 C2047 0.958 . S
H2062 C2047 0.961 . S
H2063 C2047 0.960 . S
C2064 C2065 1.391 . S
C2064 C2066 1.394 . S
C2064 H2080 0.931 . S
C2065 C2064 1.391 . S
C2065 C2069 1.376 . S
C2066 C2064 1.394 . S
C2066 C2067 1.369 . S
C2066 C2070 1.531 . S
C2067 C2066 1.369 . S
C2067 C2068 1.410 . S
C2067 C2075 1.503 . S
C2068 C2067 1.410 . S
C2068 C2069 1.392 . S
C2068 C2071 1.511 . S
C2069 C2065 1.376 . S
C2069 C2068 1.392 . S
C2069 H2081 0.929 . S
C2070 C2066 1.531 . S
C2070 H2082 0.960 . S
C2070 H2083 0.962 . S
C2070 H2084 0.960 . S
C2071 C2068 1.511 . S
C2071 H2085 0.961 . S
C2071 H2086 0.961 . S
C2071 H2087 0.961 . S
C2072 C2073 1.370 . S
C2072 C2074 1.363 . S
C2072 H2088 0.931 . S
C2073 C2072 1.370 . S
C2073 C2077 1.408 . S
C2074 C2072 1.363 . S
C2074 C2075 1.370 . S
C2074 C2078 1.524 . S
C2075 C2067 1.503 . S
C2075 C2074 1.370 . S
C2075 C2076 1.403 . S
C2076 C2075 1.403 . S
C2076 C2077 1.404 . S
C2076 C2079 1.539 . S
C2077 C2073 1.408 . S
C2077 C2076 1.404 . S
C2077 H2089 0.930 . S
C2078 C2074 1.524 . S
C2078 H2090 0.956 . S
C2078 H2091 0.961 . S
C2078 H2092 0.961 . S
C2079 C2076 1.539 . S
C2079 H2093 0.958 . S
C2079 H2094 0.961 . S
C2079 H2095 0.960 . S
H2080 C2064 0.931 . S
H2081 C2069 0.929 . S
H2082 C2070 0.960 . S
H2083 C2070 0.962 . S
H2084 C2070 0.960 . S
H2085 C2071 0.961 . S
H2086 C2071 0.961 . S
H2087 C2071 0.961 . S
H2088 C2072 0.931 . S
H2089 C2077 0.930 . S
H2090 C2078 0.956 . S
H2091 C2078 0.961 . S
H2092 C2078 0.961 . S
H2093 C2079 0.958 . S
H2094 C2079 0.961 . S
H2095 C2079 0.960 . S
C2096 C2097 1.391 . S
C2096 C2098 1.394 . S
C2096 H2112 0.931 . S
C2097 C2096 1.391 . S
C2097 C2101 1.376 . S
C2098 C2096 1.394 . S
C2098 C2099 1.369 . S
C2098 C2102 1.531 1_655 S
C2099 C2098 1.369 . S
C2099 C2100 1.410 . S
C2099 C2107 1.503 1_656 S
C2100 C2099 1.410 . S
C2100 C2101 1.392 . S
C2100 C2103 1.511 1_556 S
C2101 C2097 1.376 . S
C2101 C2100 1.392 . S
C2101 H2113 0.929 . S
C2102 C2098 1.531 1_455 S
C2102 H2114 0.960 . S
C2102 H2115 0.962 . S
C2102 H2116 0.960 . S
C2103 C2100 1.511 1_554 S
C2103 H2117 0.961 . S
C2103 H2118 0.961 . S
C2103 H2119 0.961 . S
C2104 C2105 1.370 . S
C2104 C2106 1.363 . S
C2104 H2120 0.931 . S
C2105 C2104 1.370 . S
C2105 C2109 1.408 . S
C2106 C2104 1.363 . S
C2106 C2107 1.370 . S
C2106 C2110 1.524 1_455 S
C2107 C2099 1.503 1_454 S
C2107 C2106 1.370 . S
C2107 C2108 1.403 . S
C2108 C2107 1.403 . S
C2108 C2109 1.404 . S
C2108 C2111 1.539 1_554 S
C2109 C2105 1.408 . S
C2109 C2108 1.404 . S
C2109 H2121 0.930 . S
C2110 C2106 1.524 1_655 S
C2110 H2122 0.956 . S
C2110 H2123 0.961 . S
C2110 H2124 0.961 . S
C2111 C2108 1.539 1_556 S
C2111 H2125 0.958 . S
C2111 H2126 0.961 . S
C2111 H2127 0.960 . S
H2112 C2096 0.931 . S
H2113 C2101 0.929 . S
H2114 C2102 0.960 . S
H2115 C2102 0.962 . S
H2116 C2102 0.960 . S
H2117 C2103 0.961 . S
H2118 C2103 0.961 . S
H2119 C2103 0.961 . S
H2120 C2104 0.931 . S
H2121 C2109 0.930 . S
H2122 C2110 0.956 . S
H2123 C2110 0.961 . S
H2124 C2110 0.961 . S
H2125 C2111 0.958 . S
H2126 C2111 0.961 . S
H2127 C2111 0.960 . S
C2128 C2129 1.391 . S
C2128 C2130 1.394 . S
C2128 H2144 0.931 . S
C2129 C2128 1.391 . S
C2129 C2133 1.376 . S
C2130 C2128 1.394 . S
C2130 C2131 1.369 . S
C2130 C2134 1.531 1_565 S
C2131 C2130 1.369 . S
C2131 C2132 1.410 . S
C2131 C2139 1.503 1_565 S
C2132 C2131 1.410 . S
C2132 C2133 1.392 . S
C2132 C2135 1.511 . S
C2133 C2129 1.376 . S
C2133 C2132 1.392 . S
C2133 H2145 0.929 . S
C2134 C2130 1.531 1_545 S
C2134 H2146 0.960 . S
C2134 H2147 0.962 . S
C2134 H2148 0.960 . S
C2135 C2132 1.511 . S
C2135 H2149 0.961 . S
C2135 H2150 0.961 . S
C2135 H2151 0.961 . S
C2136 C2137 1.370 . S
C2136 C2138 1.363 . S
C2136 H2152 0.931 . S
C2137 C2136 1.370 . S
C2137 C2141 1.408 . S
C2138 C2136 1.363 . S
C2138 C2139 1.370 . S
C2138 C2142 1.524 . S
C2139 C2131 1.503 1_545 S
C2139 C2138 1.370 . S
C2139 C2140 1.403 . S
C2140 C2139 1.403 . S
C2140 C2141 1.404 . S
C2140 C2143 1.539 . S
C2141 C2137 1.408 . S
C2141 C2140 1.404 . S
C2141 H2153 0.930 . S
C2142 C2138 1.524 . S
C2142 H2154 0.956 . S
C2142 H2155 0.961 1_545 S
C2142 H2156 0.961 . S
C2143 C2140 1.539 . S
C2143 H2157 0.958 . S
C2143 H2158 0.961 . S
C2143 H2159 0.960 1_545 S
H2144 C2128 0.931 . S
H2145 C2133 0.929 . S
H2146 C2134 0.960 . S
H2147 C2134 0.962 . S
H2148 C2134 0.960 . S
H2149 C2135 0.961 . S
H2150 C2135 0.961 . S
H2151 C2135 0.961 . S
H2152 C2136 0.931 . S
H2153 C2141 0.930 . S
H2154 C2142 0.956 . S
H2155 C2142 0.961 1_565 S
H2156 C2142 0.961 . S
H2157 C2143 0.958 . S
H2158 C2143 0.961 . S
H2159 C2143 0.960 1_565 S
C1009 C403 1.355 . S
C1017 C58 1.213 . S
C1041 C487 1.359 . S
C1049 C142 1.206 . S
C1073 C226 1.260 . S
C1081 C67 1.355 . S
C1105 C310 1.138 . S
C1113 C151 1.366 . S
C1137 C394 1.140 . S
C1145 C235 1.366 . S
C1169 C319 1.350 . S
C1177 C478 1.211 . S
C1201 C739 1.344 . S
C1209 C562 1.225 . S
C1233 C646 1.138 . S
C1241 C823 1.366 . S
C1265 C907 1.368 . S
C1273 C730 1.187 . S
C1297 C814 1.232 . S
C1305 C991 1.356 . S
C1329 C898 1.262 . S
C1337 C571 1.355 . S
C1361 C655 1.371 . S
C1369 C982 1.178 . S
C1393 C392 1.437 . S
C1401 C69 1.264 . S
C1425 C153 1.237 . S
C1433 C476 1.442 . S
C1457 C237 1.237 . S
C1465 C56 1.442 . S
C1489 C321 1.251 . S
C1497 C140 1.441 . S
C1521 C224 1.440 . S
C1529 C405 1.262 . S
C1553 C308 1.430 . S
C1561 C489 1.270 . S
C1585 C728 1.440 . S
C1593 C573 1.262 . S
C1617 C657 1.329 . S
C1625 C812 1.432 . S
C1649 C741 1.318 . S
C1657 C896 1.426 . S
C1681 C980 1.418 . S
C1689 C825 1.309 . S
C1713 C909 1.228 . S
C1721 C560 1.441 . S
C1745 C644 1.412 . S
C1753 C993 1.307 . S
C1777 C914 1.823 . S
C1785 C74 1.832 . S
C1809 C158 1.801 . S
C1817 C998 1.806 . S
C1841 C242 1.835 . S
C1849 C578 1.809 . S
C1873 C326 1.842 . S
C1881 C662 1.826 . S
C1905 C410 1.834 . S
C1913 C746 1.830 . S
C1937 C830 1.823 . S
C1945 C494 1.832 . S
C1969 C819 1.921 . S
C1977 C63 1.942 . S
C2001 C903 1.950 . S
C2009 C147 1.939 . S
C2033 C231 1.932 . S
C2041 C987 1.947 . S
C2065 C315 1.933 . S
C2073 C567 1.934 . S
C2097 C651 1.935 . S
C2105 C399 1.947 . S
C2129 C735 1.948 . S
C2137 C483 1.945 . S
