# Generated by pormake.
# Topology yfr, (5)-cn, num edge types: 1
# Building blocks:
#     Node 0, Type 0, BuildingBlock: XOMCOT_clean_sbu_1, # of connection points: 5
#     Node 1, Type 0, BuildingBlock: XOMCOT_clean_sbu_1, # of connection points: 5
#     Node 2, Type 0, BuildingBlock: XOMCOT_clean_sbu_1, # of connection points: 5
#     Node 3, Type 0, BuildingBlock: XOMCOT_clean_sbu_1, # of connection points: 5
#     Node 4, Type 0, BuildingBlock: XOMCOT_clean_sbu_1, # of connection points: 5
#     Node 5, Type 0, BuildingBlock: XOMCOT_clean_sbu_1, # of connection points: 5
#     Node 6, Type 0, BuildingBlock: XOMCOT_clean_sbu_1, # of connection points: 5
#     Node 7, Type 0, BuildingBlock: XOMCOT_clean_sbu_1, # of connection points: 5
#     Node 8, Type 0, BuildingBlock: XOMCOT_clean_sbu_1, # of connection points: 5
#     Node 9, Type 0, BuildingBlock: XOMCOT_clean_sbu_1, # of connection points: 5
#     Node 10, Type 0, BuildingBlock: XOMCOT_clean_sbu_1, # of connection points: 5
#     Node 11, Type 0, BuildingBlock: XOMCOT_clean_sbu_1, # of connection points: 5
#     Node 12, Type 0, BuildingBlock: XOMCOT_clean_sbu_1, # of connection points: 5
#     Node 13, Type 0, BuildingBlock: XOMCOT_clean_sbu_1, # of connection points: 5
#     Node 14, Type 0, BuildingBlock: XOMCOT_clean_sbu_1, # of connection points: 5
#     Node 15, Type 0, BuildingBlock: XOMCOT_clean_sbu_1, # of connection points: 5
#     Node 16, Type 0, BuildingBlock: XOMCOT_clean_sbu_1, # of connection points: 5
#     Node 17, Type 0, BuildingBlock: XOMCOT_clean_sbu_1, # of connection points: 5
#     Node 18, Type 0, BuildingBlock: XOMCOT_clean_sbu_1, # of connection points: 5
#     Node 19, Type 0, BuildingBlock: XOMCOT_clean_sbu_1, # of connection points: 5
#     Node 20, Type 0, BuildingBlock: XOMCOT_clean_sbu_1, # of connection points: 5
#     Node 21, Type 0, BuildingBlock: XOMCOT_clean_sbu_1, # of connection points: 5
#     Node 22, Type 0, BuildingBlock: XOMCOT_clean_sbu_1, # of connection points: 5
#     Node 23, Type 0, BuildingBlock: XOMCOT_clean_sbu_1, # of connection points: 5
#     Node 24, Type 0, BuildingBlock: XOMCOT_clean_sbu_1, # of connection points: 5
#     Node 25, Type 0, BuildingBlock: XOMCOT_clean_sbu_1, # of connection points: 5
#     Node 26, Type 0, BuildingBlock: XOMCOT_clean_sbu_1, # of connection points: 5
#     Node 27, Type 0, BuildingBlock: XOMCOT_clean_sbu_1, # of connection points: 5
#     Node 28, Type 0, BuildingBlock: XOMCOT_clean_sbu_1, # of connection points: 5
#     Node 29, Type 0, BuildingBlock: XOMCOT_clean_sbu_1, # of connection points: 5
#     Node 30, Type 0, BuildingBlock: XOMCOT_clean_sbu_1, # of connection points: 5
#     Node 31, Type 0, BuildingBlock: XOMCOT_clean_sbu_1, # of connection points: 5
#     Edge 32, Type (0, 0), BuildingBlock: TEMPAE_clean_linker_10, # of connection points: 2
#     Edge 33, Type (0, 0), BuildingBlock: TEMPAE_clean_linker_10, # of connection points: 2
#     Edge 34, Type (0, 0), BuildingBlock: TEMPAE_clean_linker_10, # of connection points: 2
#     Edge 35, Type (0, 0), BuildingBlock: TEMPAE_clean_linker_10, # of connection points: 2
#     Edge 36, Type (0, 0), BuildingBlock: TEMPAE_clean_linker_10, # of connection points: 2
#     Edge 37, Type (0, 0), BuildingBlock: TEMPAE_clean_linker_10, # of connection points: 2
#     Edge 38, Type (0, 0), BuildingBlock: TEMPAE_clean_linker_10, # of connection points: 2
#     Edge 39, Type (0, 0), BuildingBlock: TEMPAE_clean_linker_10, # of connection points: 2
#     Edge 40, Type (0, 0), BuildingBlock: TEMPAE_clean_linker_10, # of connection points: 2
#     Edge 41, Type (0, 0), BuildingBlock: TEMPAE_clean_linker_10, # of connection points: 2
#     Edge 42, Type (0, 0), BuildingBlock: TEMPAE_clean_linker_10, # of connection points: 2
#     Edge 43, Type (0, 0), BuildingBlock: TEMPAE_clean_linker_10, # of connection points: 2
#     Edge 44, Type (0, 0), BuildingBlock: TEMPAE_clean_linker_10, # of connection points: 2
#     Edge 45, Type (0, 0), BuildingBlock: TEMPAE_clean_linker_10, # of connection points: 2
#     Edge 46, Type (0, 0), BuildingBlock: TEMPAE_clean_linker_10, # of connection points: 2
#     Edge 47, Type (0, 0), BuildingBlock: TEMPAE_clean_linker_10, # of connection points: 2
#     Edge 48, Type (0, 0), BuildingBlock: TEMPAE_clean_linker_10, # of connection points: 2
#     Edge 49, Type (0, 0), BuildingBlock: TEMPAE_clean_linker_10, # of connection points: 2
#     Edge 50, Type (0, 0), BuildingBlock: TEMPAE_clean_linker_10, # of connection points: 2
#     Edge 51, Type (0, 0), BuildingBlock: TEMPAE_clean_linker_10, # of connection points: 2
#     Edge 52, Type (0, 0), BuildingBlock: TEMPAE_clean_linker_10, # of connection points: 2
#     Edge 53, Type (0, 0), BuildingBlock: TEMPAE_clean_linker_10, # of connection points: 2
#     Edge 54, Type (0, 0), BuildingBlock: TEMPAE_clean_linker_10, # of connection points: 2
#     Edge 55, Type (0, 0), BuildingBlock: TEMPAE_clean_linker_10, # of connection points: 2
#     Edge 56, Type (0, 0), BuildingBlock: TEMPAE_clean_linker_10, # of connection points: 2
#     Edge 57, Type (0, 0), BuildingBlock: TEMPAE_clean_linker_10, # of connection points: 2
#     Edge 58, Type (0, 0), BuildingBlock: TEMPAE_clean_linker_10, # of connection points: 2
#     Edge 59, Type (0, 0), BuildingBlock: TEMPAE_clean_linker_10, # of connection points: 2
#     Edge 60, Type (0, 0), BuildingBlock: TEMPAE_clean_linker_10, # of connection points: 2
#     Edge 61, Type (0, 0), BuildingBlock: TEMPAE_clean_linker_10, # of connection points: 2
#     Edge 62, Type (0, 0), BuildingBlock: TEMPAE_clean_linker_10, # of connection points: 2
#     Edge 63, Type (0, 0), BuildingBlock: TEMPAE_clean_linker_10, # of connection points: 2
#     Edge 64, Type (0, 0), BuildingBlock: TEMPAE_clean_linker_10, # of connection points: 2
#     Edge 65, Type (0, 0), BuildingBlock: TEMPAE_clean_linker_10, # of connection points: 2
#     Edge 66, Type (0, 0), BuildingBlock: TEMPAE_clean_linker_10, # of connection points: 2
#     Edge 67, Type (0, 0), BuildingBlock: TEMPAE_clean_linker_10, # of connection points: 2
#     Edge 68, Type (0, 0), BuildingBlock: TEMPAE_clean_linker_10, # of connection points: 2
#     Edge 69, Type (0, 0), BuildingBlock: TEMPAE_clean_linker_10, # of connection points: 2
#     Edge 70, Type (0, 0), BuildingBlock: TEMPAE_clean_linker_10, # of connection points: 2
#     Edge 71, Type (0, 0), BuildingBlock: TEMPAE_clean_linker_10, # of connection points: 2
#     Edge 72, Type (0, 0), BuildingBlock: TEMPAE_clean_linker_10, # of connection points: 2
#     Edge 73, Type (0, 0), BuildingBlock: TEMPAE_clean_linker_10, # of connection points: 2
#     Edge 74, Type (0, 0), BuildingBlock: TEMPAE_clean_linker_10, # of connection points: 2
#     Edge 75, Type (0, 0), BuildingBlock: TEMPAE_clean_linker_10, # of connection points: 2
#     Edge 76, Type (0, 0), BuildingBlock: TEMPAE_clean_linker_10, # of connection points: 2
#     Edge 77, Type (0, 0), BuildingBlock: TEMPAE_clean_linker_10, # of connection points: 2
#     Edge 78, Type (0, 0), BuildingBlock: TEMPAE_clean_linker_10, # of connection points: 2
#     Edge 79, Type (0, 0), BuildingBlock: TEMPAE_clean_linker_10, # of connection points: 2
#     Edge 80, Type (0, 0), BuildingBlock: TEMPAE_clean_linker_10, # of connection points: 2
#     Edge 81, Type (0, 0), BuildingBlock: TEMPAE_clean_linker_10, # of connection points: 2
#     Edge 82, Type (0, 0), BuildingBlock: TEMPAE_clean_linker_10, # of connection points: 2
#     Edge 83, Type (0, 0), BuildingBlock: TEMPAE_clean_linker_10, # of connection points: 2
#     Edge 84, Type (0, 0), BuildingBlock: TEMPAE_clean_linker_10, # of connection points: 2
#     Edge 85, Type (0, 0), BuildingBlock: TEMPAE_clean_linker_10, # of connection points: 2
#     Edge 86, Type (0, 0), BuildingBlock: TEMPAE_clean_linker_10, # of connection points: 2
#     Edge 87, Type (0, 0), BuildingBlock: TEMPAE_clean_linker_10, # of connection points: 2
#     Edge 88, Type (0, 0), BuildingBlock: TEMPAE_clean_linker_10, # of connection points: 2
#     Edge 89, Type (0, 0), BuildingBlock: TEMPAE_clean_linker_10, # of connection points: 2
#     Edge 90, Type (0, 0), BuildingBlock: TEMPAE_clean_linker_10, # of connection points: 2
#     Edge 91, Type (0, 0), BuildingBlock: TEMPAE_clean_linker_10, # of connection points: 2
#     Edge 92, Type (0, 0), BuildingBlock: TEMPAE_clean_linker_10, # of connection points: 2
#     Edge 93, Type (0, 0), BuildingBlock: TEMPAE_clean_linker_10, # of connection points: 2
#     Edge 94, Type (0, 0), BuildingBlock: TEMPAE_clean_linker_10, # of connection points: 2
#     Edge 95, Type (0, 0), BuildingBlock: TEMPAE_clean_linker_10, # of connection points: 2
#     Edge 96, Type (0, 0), BuildingBlock: TEMPAE_clean_linker_10, # of connection points: 2
#     Edge 97, Type (0, 0), BuildingBlock: TEMPAE_clean_linker_10, # of connection points: 2
#     Edge 98, Type (0, 0), BuildingBlock: TEMPAE_clean_linker_10, # of connection points: 2
#     Edge 99, Type (0, 0), BuildingBlock: TEMPAE_clean_linker_10, # of connection points: 2
#     Edge 100, Type (0, 0), BuildingBlock: TEMPAE_clean_linker_10, # of connection points: 2
#     Edge 101, Type (0, 0), BuildingBlock: TEMPAE_clean_linker_10, # of connection points: 2
#     Edge 102, Type (0, 0), BuildingBlock: TEMPAE_clean_linker_10, # of connection points: 2
#     Edge 103, Type (0, 0), BuildingBlock: TEMPAE_clean_linker_10, # of connection points: 2
#     Edge 104, Type (0, 0), BuildingBlock: TEMPAE_clean_linker_10, # of connection points: 2
#     Edge 105, Type (0, 0), BuildingBlock: TEMPAE_clean_linker_10, # of connection points: 2
#     Edge 106, Type (0, 0), BuildingBlock: TEMPAE_clean_linker_10, # of connection points: 2
#     Edge 107, Type (0, 0), BuildingBlock: TEMPAE_clean_linker_10, # of connection points: 2
#     Edge 108, Type (0, 0), BuildingBlock: TEMPAE_clean_linker_10, # of connection points: 2
#     Edge 109, Type (0, 0), BuildingBlock: TEMPAE_clean_linker_10, # of connection points: 2
#     Edge 110, Type (0, 0), BuildingBlock: TEMPAE_clean_linker_10, # of connection points: 2
#     Edge 111, Type (0, 0), BuildingBlock: TEMPAE_clean_linker_10, # of connection points: 2
# Relax obj value: 0.554
# Max RMSD: 0.321
# Mean RMSD: 0.321
data_MOF--net-yfr--node1-XOMCOT_clean_sbu_1--edge1-TEMPAE_clean_linker_10
_symmetry_space_group_name_H-M    P1
_symmetry_Int_Tables_number       1
_symmetry_cell_setting            triclinic
loop_
_symmetry_equiv_pos_as_xyz
'x, y, z'
_cell_length_a     53.581427
_cell_length_b     53.590918
_cell_length_c     60.271572
_cell_angle_alpha  90.003693
_cell_angle_beta   90.015873
_cell_angle_gamma 90.005962
loop_
_atom_site_label
_atom_site_type_symbol
_atom_site_fract_x
_atom_site_fract_y
_atom_site_fract_z
_atom_type_partial_charge
C0 C 0.08674 0.09634 0.29704 0.0
C1 C 0.06818 0.09093 0.31193 0.0
N2 N 0.04993 0.10805 0.30961 0.0
N3 N 0.08035 0.11679 0.28543 0.0
C4 C 0.05775 0.12351 0.29328 0.0
H5 H 0.10394 0.08609 0.29478 0.0
Co6 Co 0.1008 0.12836 0.26324 0.0
C7 C 0.08498 0.17891 0.25091 0.0
O8 O 0.10895 0.18415 0.25047 0.0
N9 N 0.12219 0.13826 0.23995 0.0
C10 C 0.15387 0.14325 0.21633 0.0
C11 C 0.14734 0.13755 0.23787 0.0
C12 C 0.11401 0.14398 0.21935 0.0
N13 N 0.13279 0.1475 0.20489 0.0
O14 O 0.08329 0.10687 0.24343 0.0
H15 H 0.16031 0.13211 0.25062 0.0
H16 H 0.09447 0.14473 0.2148 0.0
O17 O 0.07788 0.15668 0.25601 0.0
C18 C 0.09464 0.08676 0.23859 0.0
O19 O 0.11873 0.0854 0.2425 0.0
N20 N 0.11776 0.14783 0.28476 0.0
C21 C 0.1383 0.16908 0.32288 0.0
C22 C 0.1148 0.17634 0.31535 0.0
C23 C 0.10465 0.16513 0.29673 0.0
C24 C 0.1405 0.13994 0.29232 0.0
C25 C 0.1515 0.15084 0.31113 0.0
H26 H 0.08545 0.16937 0.29309 0.0
H27 H 0.14939 0.12397 0.28482 0.0
H28 H 0.04728 0.13933 0.28717 0.0
H29 H 0.06852 0.07599 0.32401 0.0
H30 H 0.17255 0.14375 0.20951 0.0
H31 H 0.1038 0.18994 0.3244 0.0
H32 H 0.16939 0.14422 0.31706 0.0
C33 C 0.17031 0.79163 0.55096 0.0
C34 C 0.17317 0.77882 0.57045 0.0
N35 N 0.15103 0.76865 0.57589 0.0
N36 N 0.14654 0.78949 0.5439 0.0
C37 C 0.13521 0.77514 0.55935 0.0
H38 H 0.18445 0.80281 0.54292 0.0
Co39 Co 0.13548 0.80817 0.52 0.0
C40 C 0.08774 0.78698 0.50332 0.0
O41 O 0.08092 0.81001 0.49897 0.0
N42 N 0.12592 0.8281 0.49552 0.0
C43 C 0.11734 0.85997 0.47313 0.0
C44 C 0.12108 0.85284 0.49473 0.0
C45 C 0.12534 0.8208 0.47401 0.0
N46 N 0.12003 0.8398 0.46006 0.0
O47 O 0.1598 0.79128 0.50178 0.0
H48 H 0.12112 0.86548 0.50859 0.0
H49 H 0.12892 0.80184 0.46874 0.0
O50 O 0.10919 0.78287 0.5123 0.0
C51 C 0.17837 0.80482 0.49622 0.0
O52 O 0.17763 0.8288 0.50072 0.0
N53 N 0.11376 0.82547 0.53927 0.0
C54 C 0.08586 0.85429 0.56867 0.0
C55 C 0.07734 0.83085 0.56179 0.0
C56 C 0.09176 0.81652 0.54751 0.0
C57 C 0.12343 0.84715 0.54747 0.0
C58 C 0.10958 0.86218 0.56191 0.0
H59 H 0.08527 0.798 0.54388 0.0
H60 H 0.14184 0.85309 0.54231 0.0
H61 H 0.11552 0.77074 0.55921 0.0
H62 H 0.19009 0.77775 0.58022 0.0
H63 H 0.11408 0.87886 0.46747 0.0
H64 H 0.05983 0.82333 0.56782 0.0
H65 H 0.1172 0.87983 0.56746 0.0
C66 C 0.41598 0.92113 0.79282 0.0
C67 C 0.42567 0.92502 0.81359 0.0
N68 N 0.43822 0.90435 0.81968 0.0
N69 N 0.42242 0.89816 0.78576 0.0
C70 C 0.43602 0.88831 0.80245 0.0
H71 H 0.40468 0.93413 0.78348 0.0
Co72 Co 0.41172 0.88576 0.7588 0.0
C73 C 0.46186 0.86002 0.7501 0.0
O74 O 0.47249 0.87822 0.73898 0.0
N75 N 0.4002 0.87442 0.73162 0.0
C76 C 0.37342 0.86693 0.70434 0.0
C77 C 0.37582 0.87423 0.72607 0.0
C78 C 0.41234 0.86706 0.71312 0.0
N79 N 0.3964 0.86241 0.69629 0.0
O80 O 0.43007 0.91232 0.74451 0.0
H81 H 0.36083 0.87969 0.73707 0.0
H82 H 0.43243 0.86614 0.71165 0.0
O83 O 0.43983 0.8628 0.75763 0.0
C84 C 0.41724 0.93018 0.7364 0.0
O85 O 0.39287 0.92774 0.73544 0.0
N86 N 0.39331 0.86052 0.77326 0.0
C87 C 0.37395 0.82284 0.79994 0.0
C88 C 0.38707 0.817 0.78054 0.0
C89 C 0.39636 0.83612 0.76728 0.0
C90 C 0.3783 0.86658 0.79073 0.0
C91 C 0.36854 0.84794 0.80448 0.0
H92 H 0.4071 0.83121 0.75275 0.0
H93 H 0.37505 0.88595 0.79484 0.0
H94 H 0.44355 0.86957 0.80219 0.0
H95 H 0.42381 0.94186 0.82336 0.0
H96 H 0.35619 0.8653 0.69506 0.0
H97 H 0.39101 0.7978 0.77613 0.0
H98 H 0.3582 0.85316 0.81921 0.0
C99 C 0.32973 0.19511 0.04708 0.0
C100 C 0.32302 0.21038 0.06442 0.0
N101 N 0.34128 0.22731 0.06729 0.0
N102 N 0.35195 0.20261 0.03897 0.0
C103 C 0.35851 0.22228 0.05161 0.0
H104 H 0.31935 0.17916 0.04116 0.0
Co105 Co 0.36907 0.18691 0.01632 0.0
C106 C 0.40101 0.22547 -0.00437 0.0
O107 O 0.3918 0.21941 0.97615 0.0
N108 N 0.38644 0.17032 0.99348 0.0
C109 C 0.41766 0.1548 0.97339 0.0
C110 C 0.4112 0.16537 0.99329 0.0
C111 C 0.37834 0.16235 0.97346 0.0
N112 N 0.39696 0.15304 0.96085 0.0
O113 O 0.34562 0.20147 -0.00415 0.0
H114 H 0.42413 0.17032 0.00632 0.0
H115 H 0.35939 0.16417 0.96772 0.0
O116 O 0.39216 0.21521 0.01308 0.0
C117 C 0.32679 0.18733 0.99268 0.0
O118 O 0.3278 0.16423 -4e-05 0.0
N119 N 0.38975 0.17194 0.03733 0.0
C120 C 0.4171 0.14627 0.06929 0.0
C121 C 0.42204 0.17147 0.06471 0.0
C122 C 0.40795 0.18407 0.04893 0.0
C123 C 0.38454 0.14751 0.0415 0.0
C124 C 0.39805 0.13423 0.05742 0.0
H125 H 0.41184 0.20355 0.04626 0.0
H126 H 0.36969 0.13837 0.03244 0.0
H127 H 0.37577 0.23252 0.04966 0.0
H128 H 0.30657 0.20851 0.07472 0.0
H129 H 0.43643 0.15041 0.96802 0.0
H130 H 0.43684 0.18146 0.07313 0.0
H131 H 0.3934 0.11489 0.0606 0.0
C132 C 0.08304 0.91399 0.20701 0.0
C133 C 0.06726 0.91629 0.18917 0.0
N134 N 0.05855 0.89344 0.18408 0.0
N135 N 0.08394 0.8899 0.21334 0.0
C136 C 0.06896 0.87771 0.19894 0.0
H137 H 0.09328 0.92894 0.21492 0.0
Co138 Co 0.10324 0.87952 0.23697 0.0
C139 C 0.09051 0.82677 0.24691 0.0
O140 O 0.11417 0.82324 0.2517 0.0
N141 N 0.12329 0.87026 0.26131 0.0
C142 C 0.15485 0.86404 0.28468 0.0
C143 C 0.14843 0.87019 0.26328 0.0
C144 C 0.11494 0.86436 0.28183 0.0
N145 N 0.13373 0.86031 0.29625 0.0
O146 O 0.08092 0.89729 0.2562 0.0
H147 H 0.1615 0.8748 0.25032 0.0
H148 H 0.09536 0.86355 0.2862 0.0
O149 O 0.08321 0.84837 0.24027 0.0
C150 C 0.09007 0.91714 0.26454 0.0
O151 O 0.11439 0.92025 0.26388 0.0
N152 N 0.12531 0.86488 0.21669 0.0
C153 C 0.15536 0.85338 0.18045 0.0
C154 C 0.13632 0.83716 0.18714 0.0
C155 C 0.12106 0.84356 0.20486 0.0
C156 C 0.14372 0.88096 0.2103 0.0
C157 C 0.1591 0.87554 0.19222 0.0
H158 H 0.10484 0.83219 0.20756 0.0
H159 H 0.14567 0.89869 0.21872 0.0
H160 H 0.06564 0.8578 0.19936 0.0
H161 H 0.06292 0.93333 0.18032 0.0
H162 H 0.1736 0.86261 0.29125 0.0
H163 H 0.13198 0.82054 0.17765 0.0
H164 H 0.17312 0.88888 0.18703 0.0
C165 C 0.36858 0.83288 0.44123 0.0
C166 C 0.35685 0.82542 0.422 0.0
N167 N 0.36374 0.80174 0.41767 0.0
N168 N 0.38274 0.81397 0.4489 0.0
C169 C 0.37931 0.79522 0.43431 0.0
H170 H 0.36679 0.85084 0.44926 0.0
Co171 Co 0.40054 0.81415 0.47522 0.0
C172 C 0.42869 0.76625 0.47266 0.0
O173 O 0.4166 0.75652 0.48953 0.0
N174 N 0.41828 0.8145 0.50205 0.0
C175 C 0.4494 0.81669 0.52647 0.0
C176 C 0.44338 0.81419 0.50441 0.0
C177 C 0.40949 0.81694 0.52293 0.0
N178 N 0.42802 0.81833 0.53803 0.0
O179 O 0.37645 0.79128 0.48693 0.0
H180 H 0.45655 0.81307 0.49087 0.0
H181 H 0.38995 0.81871 0.52706 0.0
O182 O 0.42232 0.78754 0.46516 0.0
C183 C 0.35752 0.80309 0.49421 0.0
O184 O 0.35875 0.82755 0.4955 0.0
N185 N 0.42272 0.83754 0.4631 0.0
C186 C 0.4553 0.87216 0.44484 0.0
C187 C 0.45106 0.84936 0.4343 0.0
C188 C 0.43453 0.83239 0.44356 0.0
C189 C 0.42597 0.86009 0.47328 0.0
C190 C 0.44249 0.87778 0.46444 0.0
H191 H 0.43112 0.81514 0.43481 0.0
H192 H 0.41589 0.86425 0.48838 0.0
H193 H 0.38764 0.77694 0.43611 0.0
H194 H 0.34452 0.83663 0.41186 0.0
H195 H 0.46799 0.8176 0.53345 0.0
H196 H 0.46046 0.84474 0.41891 0.0
H197 H 0.44527 0.89547 0.47277 0.0
C198 C 0.39816 0.15048 0.68805 0.0
C199 C 0.40654 0.14121 0.66811 0.0
N200 N 0.43037 0.13412 0.67086 0.0
N201 N 0.41695 0.14987 0.70304 0.0
C202 C 0.43626 0.13951 0.69202 0.0
H203 H 0.37948 0.15712 0.69132 0.0
Co204 Co 0.41607 0.15928 0.73285 0.0
C205 C 0.46808 0.18276 0.72687 0.0
O206 O 0.48145 0.16224 0.72605 0.0
N207 N 0.41514 0.16874 0.76257 0.0
C208 C 0.41603 0.19256 0.7927 0.0
C209 C 0.41657 0.19247 0.77 0.0
C210 C 0.41346 0.15472 0.78114 0.0
N211 N 0.41417 0.1688 0.79969 0.0
O212 O 0.43682 0.13093 0.73986 0.0
H213 H 0.41763 0.20879 0.75958 0.0
H214 H 0.41211 0.13461 0.78121 0.0
O215 O 0.44449 0.18148 0.72919 0.0
C216 C 0.42269 0.11195 0.74226 0.0
O217 O 0.3984 0.11531 0.74155 0.0
N218 N 0.39427 0.18535 0.72578 0.0
C219 C 0.35744 0.21651 0.70887 0.0
C220 C 0.38271 0.22117 0.70449 0.0
C221 C 0.40083 0.20517 0.71279 0.0
C222 C 0.36997 0.18157 0.73162 0.0
C223 C 0.3511 0.19684 0.72312 0.0
H224 H 0.41978 0.20778 0.70724 0.0
H225 H 0.3651 0.16552 0.74161 0.0
H226 H 0.45436 0.13598 0.69927 0.0
H227 H 0.39595 0.13952 0.65288 0.0
H228 H 0.41651 0.2089 0.80325 0.0
H229 H 0.38832 0.2357 0.69302 0.0
H230 H 0.33175 0.19249 0.72658 0.0
C231 C 0.11766 0.1567 0.93916 0.0
C232 C 0.12488 0.16336 0.91811 0.0
N233 N 0.1202 0.18786 0.91544 0.0
N234 N 0.10841 0.17687 0.94968 0.0
C235 C 0.11025 0.19562 0.93486 0.0
H236 H 0.11932 0.13836 0.9465 0.0
Co237 Co 0.09857 0.17622 0.97908 0.0
C238 C 0.07462 0.22803 0.97485 0.0
O239 O 0.09502 0.24155 0.97617 0.0
N240 N 0.0889 0.17494 0.00883 0.0
C241 C 0.06539 0.17251 0.03917 0.0
C242 C 0.06521 0.17517 0.01651 0.0
C243 C 0.10316 0.17234 0.02719 0.0
N244 N 0.08929 0.17081 0.0458 0.0
O245 O 0.12641 0.19749 0.98617 0.0
H246 H 0.04875 0.17665 0.00624 0.0
H247 H 0.12326 0.17088 0.02704 0.0
O248 O 0.07603 0.20432 0.97554 0.0
C249 C 0.14609 0.18447 0.9889 0.0
O250 O 0.14417 0.16002 0.98846 0.0
N251 N 0.07275 0.15427 0.9714 0.0
C252 C 0.03911 0.11893 0.95567 0.0
C253 C 0.03668 0.14408 0.94983 0.0
C254 C 0.05395 0.16134 0.95745 0.0
C255 C 0.07513 0.12995 0.97777 0.0
C256 C 0.05855 0.11177 0.96985 0.0
H257 H 0.0528 0.18008 0.95101 0.0
H258 H 0.0906 0.1245 0.98824 0.0
H259 H 0.10514 0.21471 0.9384 0.0
H260 H 0.13281 0.1511 0.9057 0.0
H261 H 0.04926 0.17187 0.04996 0.0
H262 H 0.02248 0.1501 0.93818 0.0
H263 H 0.06128 0.09236 0.9742 0.0
C264 C 0.91722 0.90291 0.68497 0.0
C265 C 0.93562 0.91028 0.67045 0.0
N266 N 0.95701 0.89883 0.67635 0.0
N267 N 0.92703 0.88685 0.69978 0.0
C268 C 0.95133 0.88499 0.69432 0.0
H269 H 0.89783 0.90852 0.68459 0.0
Co270 Co 0.90991 0.87224 0.72289 0.0
C271 C 0.94717 0.84001 0.74548 0.0
O272 O 0.94562 0.85275 0.76405 0.0
N273 N 0.89242 0.85776 0.74676 0.0
C274 C 0.88072 0.82916 0.77139 0.0
C275 C 0.88733 0.83329 0.74966 0.0
C276 C 0.88791 0.86812 0.76678 0.0
N277 N 0.88152 0.8511 0.7823 0.0
O278 O 0.92542 0.89622 0.74197 0.0
H279 H 0.89054 0.81891 0.73741 0.0
H280 H 0.89096 0.88755 0.77041 0.0
O281 O 0.9361 0.84789 0.72813 0.0
C282 C 0.91368 0.91686 0.74238 0.0
O283 O 0.89134 0.9179 0.7334 0.0
N284 N 0.89505 0.84986 0.70269 0.0
C285 C 0.87469 0.81629 0.67251 0.0
C286 C 0.90048 0.81878 0.67454 0.0
C287 C 0.91027 0.83587 0.68941 0.0
C288 C 0.86973 0.84855 0.7003 0.0
C289 C 0.85904 0.83167 0.68519 0.0
H290 H 0.9303 0.83768 0.69016 0.0
H291 H 0.85784 0.86035 0.71031 0.0
H292 H 0.96456 0.87338 0.70311 0.0
H293 H 0.93322 0.92218 0.6561 0.0
H294 H 0.87799 0.81104 0.77893 0.0
H295 H 0.91306 0.80757 0.66459 0.0
H296 H 0.83894 0.83035 0.68369 0.0
C297 C 0.84405 0.18691 0.4521 0.0
C298 C 0.83801 0.20187 0.43447 0.0
N299 N 0.85587 0.21938 0.4324 0.0
N300 N 0.86555 0.19493 0.4612 0.0
C301 C 0.87239 0.21482 0.4489 0.0
H302 H 0.83367 0.17081 0.45777 0.0
Co303 Co 0.87894 0.17807 0.48493 0.0
C304 C 0.92447 0.20419 0.50018 0.0
O305 O 0.93402 0.18189 0.50336 0.0
N306 N 0.89079 0.15983 0.50951 0.0
C307 C 0.90042 0.12963 0.53343 0.0
C308 C 0.89543 0.13512 0.51157 0.0
C309 C 0.89274 0.16878 0.53043 0.0
N310 N 0.89886 0.15091 0.54513 0.0
O311 O 0.85284 0.192 0.50297 0.0
H312 H 0.89439 0.12156 0.49841 0.0
H313 H 0.88912 0.18801 0.53489 0.0
O314 O 0.90215 0.2063 0.49239 0.0
C315 C 0.83554 0.1766 0.50785 0.0
O316 O 0.8392 0.15277 0.50386 0.0
N317 N 0.90256 0.16369 0.46543 0.0
C318 C 0.93078 0.14213 0.43159 0.0
C319 C 0.93597 0.16626 0.43899 0.0
C320 C 0.92117 0.17699 0.45532 0.0
C321 C 0.8965 0.14055 0.45762 0.0
C322 C 0.91054 0.12926 0.44079 0.0
H323 H 0.92408 0.19648 0.45865 0.0
H324 H 0.88005 0.13121 0.46385 0.0
H325 H 0.88918 0.22553 0.4518 0.0
H326 H 0.82222 0.19939 0.42348 0.0
H327 H 0.90462 0.11142 0.54026 0.0
H328 H 0.95061 0.17727 0.43136 0.0
H329 H 0.90543 0.11089 0.43482 0.0
C330 C 0.58306 0.1091 0.19041 0.0
C331 C 0.57133 0.09747 0.17292 0.0
N332 N 0.54657 0.10088 0.17522 0.0
N333 N 0.56571 0.12024 0.20321 0.0
C334 C 0.54366 0.11457 0.19378 0.0
H335 H 0.60297 0.11027 0.19318 0.0
Co336 Co 0.57221 0.13935 0.22799 0.0
C337 C 0.52626 0.16811 0.23835 0.0
O338 O 0.52499 0.15815 0.25823 0.0
N339 N 0.57918 0.15831 0.2536 0.0
C340 C 0.58406 0.18982 0.27742 0.0
C341 C 0.58093 0.18344 0.25546 0.0
C342 C 0.58119 0.14997 0.27467 0.0
N343 N 0.58396 0.16867 0.28939 0.0
O344 O 0.55566 0.11379 0.24502 0.0
H345 H 0.57902 0.19644 0.24184 0.0
H346 H 0.58005 0.13059 0.27943 0.0
O347 O 0.54169 0.15919 0.22426 0.0
C348 C 0.57072 0.09595 0.24928 0.0
O349 O 0.59465 0.09956 0.24573 0.0
N350 N 0.58899 0.1627 0.20989 0.0
C351 C 0.61271 0.19544 0.18099 0.0
C352 C 0.5883 0.18774 0.17695 0.0
C353 C 0.57685 0.17132 0.19146 0.0
C354 C 0.61323 0.16932 0.21374 0.0
C355 C 0.62543 0.18619 0.19958 0.0
H356 H 0.55813 0.16529 0.18758 0.0
H357 H 0.62304 0.16168 0.22788 0.0
H358 H 0.52591 0.12163 0.19962 0.0
H359 H 0.58028 0.08824 0.15907 0.0
H360 H 0.58514 0.20851 0.28416 0.0
H361 H 0.5781 0.19445 0.16261 0.0
H362 H 0.64448 0.19175 0.20295 0.0
C363 C 0.63535 0.84407 0.93707 0.0
C364 C 0.64875 0.8381 0.91836 0.0
N365 N 0.65389 0.81351 0.91893 0.0
N366 N 0.63152 0.82325 0.94916 0.0
C367 C 0.64381 0.80516 0.93809 0.0
H368 H 0.62825 0.86235 0.94135 0.0
Co369 Co 0.6149 0.82236 0.97631 0.0
C370 C 0.59156 0.77331 0.95695 0.0
O371 O 0.60212 0.7719 0.93737 0.0
N372 N 0.59884 0.82211 0.00384 0.0
C373 C 0.56954 0.81837 0.02969 0.0
C374 C 0.57486 0.8156 0.00757 0.0
C375 C 0.60768 0.82882 0.02396 0.0
N376 N 0.59023 0.82665 0.04006 0.0
O377 O 0.64307 0.80492 0.98828 0.0
H378 H 0.56185 0.80963 0.9949 0.0
H379 H 0.62661 0.83494 0.02682 0.0
O380 O 0.59713 0.79109 0.97015 0.0
C381 C 0.66082 0.81944 0.99386 0.0
O382 O 0.65672 0.84361 0.99393 0.0
N383 N 0.5879 0.84016 0.96386 0.0
C384 C 0.54712 0.86463 0.94542 0.0
C385 C 0.55657 0.84302 0.93566 0.0
C386 C 0.57716 0.83138 0.94486 0.0
C387 C 0.57957 0.86184 0.97322 0.0
C388 C 0.55904 0.87454 0.96415 0.0
H389 H 0.58482 0.81562 0.93622 0.0
H390 H 0.58874 0.86921 0.98781 0.0
H391 H 0.64526 0.78613 0.9439 0.0
H392 H 0.65309 0.8506 0.9048 0.0
H393 H 0.55163 0.81496 0.03739 0.0
H394 H 0.54842 0.83548 0.92061 0.0
H395 H 0.55248 0.89166 0.97171 0.0
C396 C 0.91187 0.09908 0.80227 0.0
C397 C 0.92033 0.08738 0.82118 0.0
N398 N 0.94384 0.09516 0.82513 0.0
N399 N 0.92992 0.11421 0.79449 0.0
C400 C 0.94928 0.1111 0.80848 0.0
H401 H 0.89353 0.09722 0.79495 0.0
Co402 Co 0.92745 0.13452 0.76972 0.0
C403 C 0.97413 0.16438 0.77006 0.0
O404 O 0.98126 0.15518 0.75089 0.0
N405 N 0.92482 0.15474 0.74427 0.0
C406 C 0.92077 0.18761 0.72188 0.0
C407 C 0.92329 0.17994 0.74356 0.0
C408 C 0.92361 0.14763 0.72279 0.0
N409 N 0.92113 0.1672 0.70894 0.0
O410 O 0.94926 0.11179 0.75493 0.0
H411 H 0.92375 0.19201 0.75793 0.0
H412 H 0.92406 0.1285 0.71719 0.0
O413 O 0.95476 0.15564 0.77956 0.0
C414 C 0.93661 0.09375 0.74701 0.0
O415 O 0.91216 0.0957 0.74667 0.0
N416 N 0.90521 0.15534 0.78519 0.0
C417 C 0.87324 0.18621 0.80887 0.0
C418 C 0.8963 0.17936 0.81771 0.0
C419 C 0.912 0.16396 0.80565 0.0
C420 C 0.88222 0.16086 0.77669 0.0
C421 C 0.86602 0.17689 0.78813 0.0
H422 H 0.92976 0.15907 0.81288 0.0
H423 H 0.87669 0.15331 0.76079 0.0
H424 H 0.9669 0.12074 0.80668 0.0
H425 H 0.90958 0.07509 0.83174 0.0
H426 H 0.91899 0.20663 0.71605 0.0
H427 H 0.90242 0.18638 0.83369 0.0
H428 H 0.84821 0.18194 0.78093 0.0
C429 C 0.64853 0.15295 0.54985 0.0
C430 C 0.65681 0.16852 0.56633 0.0
N431 N 0.64035 0.18735 0.56839 0.0
N432 N 0.62674 0.16162 0.54173 0.0
C433 C 0.62222 0.1827 0.55333 0.0
H434 H 0.65857 0.13714 0.54315 0.0
Co435 Co 0.61424 0.14988 0.51506 0.0
C436 C 0.58109 0.19582 0.50802 0.0
O437 O 0.59666 0.20877 0.49573 0.0
N438 N 0.60324 0.13783 0.48795 0.0
C439 C 0.5982 0.11148 0.45992 0.0
C440 C 0.603 0.1135 0.48224 0.0
C441 C 0.59851 0.15028 0.46895 0.0
N442 N 0.59547 0.13464 0.45163 0.0
O443 O 0.63723 0.17194 0.50074 0.0
H444 H 0.60737 0.09831 0.4934 0.0
H445 H 0.59922 0.17038 0.46745 0.0
O446 O 0.58757 0.17452 0.51542 0.0
C447 C 0.65677 0.16153 0.49311 0.0
O448 O 0.65708 0.1371 0.49126 0.0
N449 N 0.59249 0.12778 0.52992 0.0
C450 C 0.55943 0.1043 0.55854 0.0
C451 C 0.55062 0.11627 0.53945 0.0
C452 C 0.56753 0.12782 0.52523 0.0
C453 C 0.60152 0.1131 0.54657 0.0
C454 C 0.58523 0.10157 0.56145 0.0
H455 H 0.56035 0.13816 0.51122 0.0
H456 H 0.62135 0.11152 0.54929 0.0
H457 H 0.60712 0.19543 0.54969 0.0
H458 H 0.67408 0.16662 0.57548 0.0
H459 H 0.59771 0.09439 0.45035 0.0
H460 H 0.5308 0.11862 0.53655 0.0
H461 H 0.59267 0.09194 0.5758 0.0
C462 C 0.60316 0.89983 0.30393 0.0
C463 C 0.59326 0.90879 0.32346 0.0
N464 N 0.56959 0.90051 0.32514 0.0
N465 N 0.5858 0.88596 0.29348 0.0
C466 C 0.56547 0.887 0.30659 0.0
H467 H 0.62196 0.90272 0.29793 0.0
Co468 Co 0.59033 0.86929 0.26694 0.0
C469 C 0.54302 0.84146 0.25987 0.0
O470 O 0.539 0.85328 0.24111 0.0
N471 N 0.59515 0.8525 0.23992 0.0
C472 C 0.59957 0.82148 0.21571 0.0
C473 C 0.59573 0.82741 0.23755 0.0
C474 C 0.59844 0.8614 0.21912 0.0
N475 N 0.60125 0.84286 0.20413 0.0
O476 O 0.57044 0.8948 0.25296 0.0
H477 H 0.59317 0.81415 0.25088 0.0
H478 H 0.59872 0.881 0.21493 0.0
O479 O 0.56137 0.84786 0.2721 0.0
C480 C 0.5833 0.91394 0.24767 0.0
O481 O 0.60775 0.9124 0.2488 0.0
N482 N 0.61056 0.84575 0.28162 0.0
C483 C 0.63895 0.80858 0.3017 0.0
C484 C 0.61494 0.81413 0.30938 0.0
C485 C 0.60119 0.83291 0.29932 0.0
C486 C 0.63456 0.84185 0.27481 0.0
C487 C 0.64916 0.82313 0.28463 0.0
H488 H 0.58281 0.83688 0.30572 0.0
H489 H 0.6421 0.85275 0.26127 0.0
H490 H 0.54807 0.87773 0.30276 0.0
H491 H 0.60305 0.91963 0.33587 0.0
H492 H 0.60026 0.80287 0.20875 0.0
H493 H 0.60676 0.80391 0.32308 0.0
H494 H 0.66786 0.81962 0.27857 0.0
C495 C 0.85693 0.82049 0.04054 0.0
C496 C 0.84844 0.80523 0.05719 0.0
N497 N 0.85926 0.78268 0.05482 0.0
N498 N 0.87302 0.80768 0.02774 0.0
C499 C 0.87393 0.78463 0.03665 0.0
H500 H 0.85229 0.83995 0.03825 0.0
Co501 Co 0.88908 0.82215 0.004 0.0
C502 C 0.91448 0.78276 0.97883 0.0
O503 O 0.90222 0.78938 0.96089 0.0
N504 N 0.905 0.83773 0.9798 0.0
C505 C 0.93421 0.84867 0.95537 0.0
C506 C 0.92986 0.84029 0.97659 0.0
C507 C 0.89472 0.8453 0.96047 0.0
N508 N 0.91202 0.85165 0.94527 0.0
O509 O 0.86181 0.81098 0.98591 0.0
H510 H 0.94409 0.83465 0.9883 0.0
H511 H 0.87508 0.84413 0.95671 0.0
O512 O 0.90823 0.79199 -0.00244 0.0
C513 C 0.8432 0.82578 0.98538 0.0
O514 O 0.84602 0.8486 0.99294 0.0
N515 N 0.91443 0.83306 0.02331 0.0
C516 C 0.94681 0.84987 0.05623 0.0
C517 C 0.94429 0.82438 0.05195 0.0
C518 C 0.92804 0.81633 0.03545 0.0
C519 C 0.91685 0.85805 0.02704 0.0
C520 C 0.9333 0.86694 0.04331 0.0
H521 H 0.92571 0.7965 0.03328 0.0
H522 H 0.90552 0.87108 0.01773 0.0
H523 H 0.88563 0.76981 0.03032 0.0
H524 H 0.83641 0.8108 0.07074 0.0
H525 H 0.95227 0.85098 0.94761 0.0
H526 H 0.95442 0.8107 0.06167 0.0
H527 H 0.9347 0.88681 0.04637 0.0
C528 C 0.59954 0.63226 0.78903 0.0
C529 C 0.59 0.62032 0.80735 0.0
N530 N 0.56528 0.62479 0.80814 0.0
N531 N 0.58092 0.64421 0.77841 0.0
C532 C 0.56025 0.63931 0.79038 0.0
H533 H 0.61874 0.63192 0.78349 0.0
Co534 Co 0.58447 0.65981 0.75126 0.0
C535 C 0.53638 0.68608 0.74316 0.0
O536 O 0.53342 0.67404 0.72435 0.0
N537 N 0.58858 0.6751 0.72349 0.0
C538 C 0.59118 0.70327 0.69648 0.0
C539 C 0.58769 0.69976 0.71887 0.0
C540 C 0.59278 0.66409 0.70368 0.0
N541 N 0.59429 0.68076 0.68695 0.0
O542 O 0.56581 0.63274 0.73847 0.0
H543 H 0.58432 0.71426 0.73099 0.0
H544 H 0.59475 0.64422 0.70143 0.0
O545 O 0.55448 0.68017 0.7559 0.0
C546 C 0.58009 0.61421 0.73458 0.0
O547 O 0.60432 0.61732 0.73649 0.0
N548 N 0.60368 0.68482 0.76479 0.0
C549 C 0.63268 0.72009 0.78685 0.0
C550 C 0.60809 0.71539 0.79345 0.0
C551 C 0.59408 0.69749 0.78247 0.0
C552 C 0.62781 0.68863 0.75833 0.0
C553 C 0.64278 0.70628 0.76924 0.0
H554 H 0.57574 0.69324 0.78879 0.0
H555 H 0.63552 0.67776 0.74485 0.0
H556 H 0.54176 0.6456 0.7858 0.0
H557 H 0.60044 0.60938 0.81926 0.0
H558 H 0.59072 0.72096 0.68783 0.0
H559 H 0.59996 0.72487 0.80759 0.0
H560 H 0.66192 0.70907 0.76404 0.0
C561 C 0.6312 0.35846 0.0457 0.0
C562 C 0.63817 0.34411 0.06345 0.0
N563 N 0.62447 0.32306 0.06317 0.0
N564 N 0.61314 0.34663 0.03428 0.0
C565 C 0.6093 0.32503 0.04529 0.0
H566 H 0.63915 0.37625 0.04103 0.0
Co567 Co 0.60224 0.3601 0.00796 0.0
C568 C 0.55318 0.33827 -0.00343 0.0
O569 O 0.54746 0.36093 0.99 0.0
N570 N 0.59281 0.37478 0.98064 0.0
C571 C 0.58477 0.40144 0.95328 0.0
C572 C 0.58785 0.39889 0.97572 0.0
C573 C 0.59267 0.36315 0.96069 0.0
N574 N 0.58789 0.37896 0.94374 0.0
O575 O 0.62645 0.33969 0.99304 0.0
H576 H 0.58736 0.41422 0.98721 0.0
H577 H 0.59654 0.34347 0.95869 0.0
O578 O 0.57521 0.3341 0.00437 0.0
C579 C 0.6456 0.35238 0.98746 0.0
O580 O 0.6446 0.3768 0.98913 0.0
N581 N 0.58109 0.38118 0.02441 0.0
C582 C 0.55673 0.41354 0.05341 0.0
C583 C 0.54826 0.38905 0.05046 0.0
C584 C 0.56119 0.37293 0.03653 0.0
C585 C 0.59052 0.40446 0.02822 0.0
C586 C 0.57839 0.42117 0.04238 0.0
H587 H 0.5559 0.35354 0.03669 0.0
H588 H 0.60798 0.40988 0.02061 0.0
H589 H 0.59636 0.31073 0.03994 0.0
H590 H 0.65222 0.34883 0.07565 0.0
H591 H 0.58186 0.41889 0.94462 0.0
H592 H 0.53264 0.38189 0.05996 0.0
H593 H 0.58618 0.43957 0.04509 0.0
C594 C 0.93385 0.39982 0.29256 0.0
C595 C 0.94438 0.41478 0.30853 0.0
N596 N 0.96929 0.41431 0.30581 0.0
N597 N 0.95205 0.3895 0.28012 0.0
C598 C 0.97338 0.39936 0.28816 0.0
H599 H 0.91412 0.39634 0.29033 0.0
Co600 Co 0.94549 0.36956 0.2555 0.0
C601 C 0.99326 0.34057 0.27123 0.0
O602 O 0.99895 0.35238 0.28961 0.0
N603 N 0.93798 0.35051 0.23046 0.0
C604 C 0.93134 0.3188 0.20736 0.0
C605 C 0.93803 0.32539 0.22861 0.0
C606 C 0.93075 0.35874 0.21031 0.0
N607 N 0.92669 0.33987 0.19594 0.0
O608 O 0.96535 0.39203 0.23836 0.0
H609 H 0.94243 0.31263 0.24196 0.0
H610 H 0.9288 0.3782 0.20603 0.0
O611 O 0.97437 0.34737 0.25976 0.0
C612 C 0.95366 0.41178 0.23294 0.0
O613 O 0.92938 0.41248 0.236 0.0
N614 N 0.92556 0.34859 0.27314 0.0
C615 C 0.89483 0.32287 0.30233 0.0
C616 C 0.92007 0.32616 0.30712 0.0
C617 C 0.93507 0.33915 0.2924 0.0
C618 C 0.90089 0.34547 0.26809 0.0
C619 C 0.88509 0.33231 0.28248 0.0
H620 H 0.95396 0.34287 0.29729 0.0
H621 H 0.89333 0.35374 0.25316 0.0
H622 H 0.99162 0.39591 0.28117 0.0
H623 H 0.93459 0.42415 0.32185 0.0
H624 H 0.92969 0.30003 0.2009 0.0
H625 H 0.92799 0.31931 0.32251 0.0
H626 H 0.8655 0.33018 0.27851 0.0
C627 C 0.87041 0.64329 0.54898 0.0
C628 C 0.86204 0.65934 0.56503 0.0
N629 N 0.87172 0.68208 0.56097 0.0
N630 N 0.88547 0.65573 0.53493 0.0
C631 C 0.88598 0.6794 0.5426 0.0
H632 H 0.86527 0.62388 0.5472 0.0
Co633 Co 0.89659 0.64093 0.50924 0.0
C634 C 0.9446 0.66385 0.49641 0.0
O635 O 0.95162 0.64118 0.49095 0.0
N636 N 0.90637 0.62512 0.48254 0.0
C637 C 0.91842 0.59877 0.45601 0.0
C638 C 0.91342 0.60134 0.47825 0.0
C639 C 0.90674 0.63637 0.46244 0.0
N640 N 0.91413 0.62082 0.44614 0.0
O641 O 0.87195 0.65991 0.49347 0.0
H642 H 0.91499 0.58648 0.49016 0.0
H643 H 0.9022 0.65583 0.45987 0.0
O644 O 0.92256 0.66737 0.50438 0.0
C645 C 0.85271 0.64722 0.48827 0.0
O646 O 0.85329 0.6229 0.49103 0.0
N647 N 0.91873 0.62165 0.52655 0.0
C648 C 0.9441 0.59357 0.5584 0.0
C649 C 0.95095 0.61828 0.55401 0.0
C650 C 0.93757 0.63219 0.53863 0.0
C651 C 0.91112 0.59792 0.53128 0.0
C652 C 0.92379 0.58335 0.54692 0.0
H653 H 0.94144 0.6519 0.5378 0.0
H654 H 0.89444 0.5906 0.52353 0.0
H655 H 0.89569 0.69452 0.5344 0.0
H656 H 0.84972 0.65465 0.57864 0.0
H657 H 0.92437 0.58189 0.44768 0.0
H658 H 0.96542 0.62744 0.56358 0.0
H659 H 0.91726 0.56466 0.55053 0.0
C660 C 0.58511 0.41635 0.68132 0.0
C661 C 0.56913 0.41993 0.66378 0.0
N662 N 0.55119 0.40241 0.66493 0.0
N663 N 0.57717 0.39676 0.69341 0.0
C664 C 0.55639 0.38869 0.6831 0.0
H665 H 0.60156 0.42726 0.68508 0.0
Co666 Co 0.5933 0.38655 0.71865 0.0
C667 C 0.56705 0.34171 0.73623 0.0
O668 O 0.58909 0.33317 0.74199 0.0
N669 N 0.61057 0.37782 0.7447 0.0
C670 C 0.63942 0.37047 0.77051 0.0
C671 C 0.63522 0.37403 0.74822 0.0
C672 C 0.60039 0.37711 0.76521 0.0
N673 N 0.6174 0.3722 0.78105 0.0
O674 O 0.57757 0.41383 0.73404 0.0
H675 H 0.6496 0.37454 0.73576 0.0
H676 H 0.58081 0.38047 0.76851 0.0
O677 O 0.5653 0.3632 0.72675 0.0
C678 C 0.59164 0.43253 0.73787 0.0
O679 O 0.6157 0.43033 0.73413 0.0
N680 N 0.60927 0.36131 0.70175 0.0
C681 C 0.63295 0.32756 0.67358 0.0
C682 C 0.60796 0.32438 0.67927 0.0
C683 C 0.59627 0.34185 0.69265 0.0
C684 C 0.63322 0.36568 0.69499 0.0
C685 C 0.64563 0.34879 0.68104 0.0
H686 H 0.57646 0.34005 0.69462 0.0
H687 H 0.64249 0.38274 0.69985 0.0
H688 H 0.54519 0.37319 0.68878 0.0
H689 H 0.5709 0.43387 0.65087 0.0
H690 H 0.65725 0.36705 0.7784 0.0
H691 H 0.5972 0.30895 0.67262 0.0
H692 H 0.66468 0.3524 0.67596 0.0
C693 C 0.84169 0.35457 0.93518 0.0
C694 C 0.83482 0.34031 0.91729 0.0
N695 N 0.84829 0.31911 0.91772 0.0
N696 N 0.85937 0.34243 0.94682 0.0
C697 C 0.86306 0.32082 0.93584 0.0
H698 H 0.83419 0.37263 0.93963 0.0
Co699 Co 0.87165 0.35546 0.97279 0.0
C700 C 0.91618 0.3263 0.98642 0.0
O701 O 0.92582 0.34757 0.99302 0.0
N702 N 0.88262 0.36971 -0.00024 0.0
C703 C 0.89672 0.39468 0.0265 0.0
C704 C 0.89089 0.39299 0.00437 0.0
C705 C 0.8828 0.35795 0.01965 0.0
N706 N 0.89172 0.37258 0.03605 0.0
O707 O 0.84466 0.33929 0.98802 0.0
H708 H 0.89267 0.40813 0.99278 0.0
H709 H 0.87736 0.33866 0.02188 0.0
O710 O 0.89421 0.32593 0.97771 0.0
C711 C 0.82662 0.35369 0.99306 0.0
O712 O 0.82977 0.3779 0.99095 0.0
N713 N 0.89645 0.37202 0.95596 0.0
C714 C 0.92788 0.39635 0.92597 0.0
C715 C 0.93042 0.37081 0.93009 0.0
C716 C 0.91409 0.35893 0.94443 0.0
C717 C 0.89281 0.39669 0.95126 0.0
C718 C 0.9088 0.40947 0.93677 0.0
H719 H 0.91495 0.33893 0.94504 0.0
H720 H 0.8769 0.40634 0.9582 0.0
H721 H 0.87595 0.30648 0.94118 0.0
H722 H 0.82122 0.34529 0.90476 0.0
H723 H 0.9039 0.41099 0.03495 0.0
H724 H 0.94451 0.35978 0.92171 0.0
H725 H 0.90562 0.42905 0.93333 0.0
C726 C 0.95311 0.60798 0.18037 0.0
C727 C 0.96719 0.59591 0.16457 0.0
N728 N 0.99117 0.59543 0.17145 0.0
N729 N 0.96814 0.61555 0.19698 0.0
C730 C 0.9909 0.6068 0.19147 0.0
H731 H 0.93321 0.61121 0.17965 0.0
Co732 Co 0.95853 0.63161 0.22305 0.0
C733 C 0.00517 0.66397 0.21144 0.0
O734 O 0.01051 0.65472 0.19184 0.0
N735 N 0.94855 0.64732 0.24937 0.0
C736 C 0.94039 0.67705 0.27412 0.0
C737 C 0.94671 0.67223 0.25245 0.0
C738 C 0.94282 0.6374 0.26933 0.0
N739 N 0.93795 0.65508 0.28467 0.0
O740 O 0.97812 0.60784 0.2391 0.0
H741 H 0.95019 0.68612 0.23981 0.0
H742 H 0.94302 0.61767 0.27294 0.0
O743 O 0.9866 0.65546 0.22245 0.0
C744 C 0.96507 0.58836 0.24251 0.0
O745 O 0.94112 0.58913 0.23782 0.0
N746 N 0.93804 0.65324 0.20679 0.0
C747 C 0.9045 0.68042 0.18125 0.0
C748 C 0.9302 0.68411 0.179 0.0
C749 C 0.94668 0.67006 0.19165 0.0
C750 C 0.91302 0.6495 0.20936 0.0
C751 C 0.89579 0.66282 0.19656 0.0
H752 H 0.96621 0.6722 0.18843 0.0
H753 H 0.90647 0.63559 0.221 0.0
H754 H 0.00718 0.60959 0.20175 0.0
H755 H 0.96024 0.58869 0.149 0.0
H756 H 0.93794 0.69527 0.28158 0.0
H757 H 0.93755 0.69704 0.16681 0.0
H758 H 0.87599 0.65928 0.19841 0.0
C759 C 0.65684 0.64195 0.42071 0.0
C760 C 0.66943 0.65379 0.40378 0.0
N761 N 0.67108 0.67833 0.40867 0.0
N762 N 0.64997 0.65903 0.43593 0.0
C763 C 0.65993 0.68061 0.42868 0.0
H764 H 0.65186 0.6224 0.42129 0.0
Co765 Co 0.63067 0.65474 0.46146 0.0
C766 C 0.60243 0.70112 0.44228 0.0
O767 O 0.61321 0.70384 0.42287 0.0
N768 N 0.61148 0.65093 0.48745 0.0
C769 C 0.5784 0.65167 0.50977 0.0
C770 C 0.58626 0.65135 0.48813 0.0
C771 C 0.61845 0.65111 0.50904 0.0
N772 N 0.59867 0.65175 0.52296 0.0
O773 O 0.65497 0.67438 0.47704 0.0
H774 H 0.57423 0.65246 0.47375 0.0
H775 H 0.63759 0.65229 0.51454 0.0
O776 O 0.60949 0.68391 0.45554 0.0
C777 C 0.6726 0.66029 0.48374 0.0
O778 O 0.66949 0.636 0.48246 0.0
N779 N 0.60816 0.63416 0.44558 0.0
C780 C 0.57566 0.60358 0.42192 0.0
C781 C 0.58241 0.62698 0.41372 0.0
C782 C 0.59863 0.64193 0.42575 0.0
C783 C 0.60258 0.61089 0.45345 0.0
C784 C 0.58579 0.5954 0.44207 0.0
H785 H 0.6041 0.65943 0.41862 0.0
H786 H 0.61085 0.60448 0.46881 0.0
H787 H 0.65803 0.69793 0.43771 0.0
H788 H 0.67528 0.64516 0.38842 0.0
H789 H 0.5592 0.65249 0.51528 0.0
H790 H 0.57496 0.63382 0.39814 0.0
H791 H 0.58093 0.5773 0.44879 0.0
C792 C 0.43019 0.42565 0.20887 0.0
C793 C 0.44213 0.43893 0.19248 0.0
N794 N 0.46436 0.42801 0.1886 0.0
N795 N 0.44482 0.40647 0.21515 0.0
C796 C 0.46562 0.40859 0.2028 0.0
H797 H 0.41186 0.42943 0.21559 0.0
Co798 Co 0.43693 0.3837 0.23692 0.0
C799 C 0.48079 0.35102 0.24152 0.0
O800 O 0.48464 0.36017 0.26146 0.0
N801 N 0.42877 0.36066 0.2592 0.0
C802 C 0.42182 0.32433 0.27596 0.0
C803 C 0.42515 0.33593 0.25595 0.0
C804 C 0.42745 0.36357 0.28142 0.0
N805 N 0.42336 0.34174 0.29196 0.0
O806 O 0.45728 0.40318 0.25655 0.0
H807 H 0.42567 0.32667 0.24003 0.0
H808 H 0.43058 0.38106 0.28988 0.0
O809 O 0.4645 0.36125 0.22898 0.0
C810 C 0.44458 0.42124 0.26446 0.0
O811 O 0.42012 0.41933 0.264 0.0
N812 N 0.41616 0.36703 0.21687 0.0
C813 C 0.38445 0.34406 0.18674 0.0
C814 C 0.40974 0.34718 0.18179 0.0
C815 C 0.42532 0.3587 0.19708 0.0
C816 C 0.39136 0.36498 0.22168 0.0
C817 C 0.37514 0.35296 0.20694 0.0
H818 H 0.44474 0.36113 0.19282 0.0
H819 H 0.38425 0.37236 0.23714 0.0
H820 H 0.48126 0.39591 0.20399 0.0
H821 H 0.43455 0.45464 0.18342 0.0
H822 H 0.4188 0.30457 0.27855 0.0
H823 H 0.41748 0.3404 0.16631 0.0
H824 H 0.35561 0.35083 0.21116 0.0
C825 C 0.35779 0.65207 0.93114 0.0
C826 C 0.34877 0.66539 0.91332 0.0
N827 N 0.35831 0.68867 0.9142 0.0
N828 N 0.37304 0.66683 0.94309 0.0
C829 C 0.37285 0.689 0.93251 0.0
H830 H 0.35344 0.63291 0.93525 0.0
Co831 Co 0.38885 0.65814 0.96929 0.0
C832 C 0.41773 0.7046 0.98023 0.0
O833 O 0.40547 0.70935 -0.00139 0.0
N834 N 0.4048 0.64955 -0.00378 0.0
C835 C 0.43492 0.64337 0.0211 0.0
C836 C 0.42959 0.64592 -0.00104 0.0
C837 C 0.39554 0.6491 0.01713 0.0
N838 N 0.41349 0.64554 0.03257 0.0
O839 O 0.36348 0.67649 0.98451 0.0
H840 H 0.44326 0.64618 0.9858 0.0
H841 H 0.37628 0.65279 0.02123 0.0
O842 O 0.41101 0.68661 0.9678 0.0
C843 C 0.34436 0.66303 0.98843 0.0
O844 O 0.34619 0.63875 0.98596 0.0
N845 N 0.41232 0.63958 0.95286 0.0
C846 C 0.44741 0.61337 0.92819 0.0
C847 C 0.44333 0.63869 0.92431 0.0
C848 C 0.42552 0.65136 0.93654 0.0
C849 C 0.41516 0.61453 0.95624 0.0
C850 C 0.43288 0.60093 0.94404 0.0
H851 H 0.42243 0.67077 0.93269 0.0
H852 H 0.40395 0.60519 0.96865 0.0
H853 H 0.38357 0.70494 0.93795 0.0
H854 H 0.33605 0.65845 0.90081 0.0
H855 H 0.45328 0.64079 0.02822 0.0
H856 H 0.45384 0.64865 0.91173 0.0
H857 H 0.43539 0.58117 0.94707 0.0
C858 C 0.05675 0.59427 0.72489 0.0
C859 C 0.04825 0.58128 0.70672 0.0
N860 N 0.0252 0.58963 0.70181 0.0
N861 N 0.03913 0.61068 0.73133 0.0
C862 C 0.02004 0.60729 0.7171 0.0
H863 H 0.07467 0.59203 0.73291 0.0
Co864 Co 0.04196 0.63093 0.75598 0.0
C865 C 0.99422 0.65808 0.76027 0.0
O866 O 0.99019 0.64809 0.77985 0.0
N867 N 0.04523 0.65095 0.7814 0.0
C868 C 0.04492 0.68338 0.80441 0.0
C869 C 0.04423 0.67609 0.78255 0.0
C870 C 0.04698 0.64349 0.80274 0.0
N871 N 0.04656 0.66278 0.81717 0.0
O872 O 0.0229 0.60653 0.77167 0.0
H873 H 0.04226 0.68836 0.7684 0.0
H874 H 0.04837 0.62423 0.80767 0.0
O875 O 0.01217 0.64997 0.74838 0.0
C876 C 0.03634 0.58841 0.77833 0.0
O877 O 0.06067 0.59153 0.77895 0.0
N878 N 0.06127 0.65344 0.7393 0.0
C879 C 0.09 0.68424 0.71228 0.0
C880 C 0.06543 0.67847 0.70659 0.0
C881 C 0.05162 0.66269 0.72 0.0
C882 C 0.08538 0.65851 0.74508 0.0
C883 C 0.10025 0.67392 0.73165 0.0
H884 H 0.03325 0.65745 0.71438 0.0
H885 H 0.09318 0.6503 0.75995 0.0
H886 H 1.0027 0.6176 0.71786 0.0
H887 H 0.05857 0.56745 0.69738 0.0
H888 H 0.04357 0.70239 0.81032 0.0
H889 H 0.05721 0.6854 0.69135 0.0
H890 H 0.11943 0.67765 0.73624 0.0
C891 C 0.12382 0.34506 0.43314 0.0
C892 C 0.129 0.3282 0.41664 0.0
N893 N 0.12812 0.30519 0.42549 0.0
N894 N 0.11905 0.33265 0.45216 0.0
C895 C 0.12211 0.30831 0.44704 0.0
H896 H 0.12422 0.36515 0.43153 0.0
Co897 Co 0.11453 0.34736 0.47965 0.0
C898 C 0.06585 0.32876 0.49594 0.0
O899 O 0.06118 0.35195 0.50175 0.0
N900 N 0.1119 0.36247 0.50778 0.0
C901 C 0.11934 0.38745 0.53662 0.0
C902 C 0.12125 0.38485 0.51401 0.0
C903 C 0.10567 0.35138 0.52718 0.0
N904 N 0.10935 0.3664 0.54479 0.0
O905 O 0.13928 0.32519 0.49146 0.0
H906 H 0.13077 0.39782 0.5033 0.0
H907 H 0.09974 0.33215 0.5286 0.0
O908 O 0.08703 0.32339 0.48704 0.0
C909 C 0.16087 0.3351 0.49211 0.0
O910 O 0.16309 0.35879 0.48684 0.0
N911 N 0.09123 0.36988 0.46652 0.0
C912 C 0.06203 0.40133 0.43997 0.0
C913 C 0.05651 0.37588 0.44185 0.0
C914 C 0.07154 0.3605 0.45469 0.0
C915 C 0.09723 0.39456 0.46447 0.0
C916 C 0.08267 0.41071 0.45156 0.0
H917 H 0.06826 0.34067 0.45372 0.0
H918 H 0.11441 0.40157 0.47119 0.0
H919 H 0.12055 0.29327 0.45895 0.0
H920 H 0.13399 0.33251 0.39966 0.0
H921 H 0.12542 0.40331 0.54636 0.0
H922 H 0.04172 0.36742 0.43218 0.0
H923 H 0.08819 0.43005 0.44988 0.0
C924 C 0.40956 0.59922 0.29271 0.0
C925 C 0.42143 0.58744 0.31007 0.0
N926 N 0.44336 0.59907 0.31356 0.0
N927 N 0.42397 0.61817 0.28543 0.0
C928 C 0.44455 0.61741 0.29827 0.0
H929 H 0.39172 0.59415 0.28562 0.0
Co930 Co 0.41789 0.63771 0.26053 0.0
C931 C 0.44218 0.68513 0.27814 0.0
O932 O 0.42023 0.69438 0.28304 0.0
N933 N 0.41241 0.6561 0.23406 0.0
C934 C 0.40969 0.68534 0.20786 0.0
C935 C 0.4134 0.68092 0.23007 0.0
C936 C 0.40788 0.646 0.21387 0.0
N937 N 0.40633 0.6633 0.19762 0.0
O938 O 0.44287 0.61774 0.24598 0.0
H939 H 0.41662 0.69524 0.24221 0.0
H940 H 0.40585 0.62626 0.21098 0.0
O941 O 0.44393 0.66323 0.26941 0.0
C942 C 0.43339 0.5969 0.24005 0.0
O943 O 0.40897 0.59465 0.24049 0.0
N944 N 0.39148 0.6552 0.27595 0.0
C945 C 0.35597 0.68352 0.29885 0.0
C946 C 0.37484 0.67104 0.31028 0.0
C947 C 0.39235 0.65718 0.29866 0.0
C948 C 0.37127 0.66481 0.26491 0.0
C949 C 0.35381 0.67993 0.27593 0.0
H950 H 0.40799 0.65044 0.30813 0.0
H951 H 0.36886 0.66171 0.24735 0.0
H952 H 0.46039 0.62969 0.29612 0.0
H953 H 0.4144 0.57176 0.3195 0.0
H954 H 0.41029 0.70339 0.19983 0.0
H955 H 0.37742 0.67372 0.32797 0.0
H956 H 0.33918 0.68912 0.2666 0.0
C957 C 0.16894 0.72686 0.03402 0.0
C958 C 0.17971 0.74747 0.04344 0.0
N959 N 0.16228 0.76545 0.0449 0.0
N960 N 0.14479 0.73174 0.02925 0.0
C961 C 0.14132 0.75548 0.0361 0.0
H962 H 0.17784 0.70889 0.03197 0.0
Co963 Co 0.12204 0.70846 0.01772 0.0
C964 C 0.09093 0.74217 0.00499 0.0
O965 O 0.08637 0.73758 0.02603 0.0
N966 N 0.09963 0.68575 0.00553 0.0
C967 C 0.06592 0.66284 -0.00156 0.0
C968 C 0.07941 0.67492 0.01479 0.0
C969 C 0.09785 0.68044 0.98378 0.0
N970 N 0.07788 0.66623 0.97903 0.0
O971 O 0.14956 0.6973 -0.00105 0.0
H972 H 0.07429 0.6766 0.03209 0.0
H973 H 0.10994 0.6885 0.9713 0.0
O974 O 0.11025 0.7322 -0.00378 0.0
C975 C 0.15978 0.68113 0.98632 0.0
O976 O 0.14787 0.66047 0.98128 0.0
N977 N 0.13057 0.68544 0.04028 0.0
C978 C 0.12203 0.6532 0.07585 0.0
C979 C 0.12602 0.67877 0.07939 0.0
C980 C 0.12895 0.69462 0.06134 0.0
C981 C 0.13138 0.66023 0.03691 0.0
C982 C 0.12652 0.64374 0.05444 0.0
H983 H 0.12757 0.71444 0.06427 0.0
H984 H 0.13237 0.65281 0.02032 0.0
H985 H 0.12353 0.76495 0.03565 0.0
H986 H 0.19833 0.7484 0.05037 0.0
H987 H 0.04843 0.65301 0.00052 0.0
H988 H 0.12421 0.68699 0.09572 0.0
H989 H 0.1239 0.62417 0.05067 0.0
C990 C 0.09219 0.3951 0.80416 0.0
C991 C 0.08553 0.41004 0.82181 0.0
N992 N 0.06073 0.41377 0.82082 0.0
N993 N 0.07146 0.38859 0.79279 0.0
C994 C 0.05277 0.4009 0.80299 0.0
H995 H 0.11086 0.38884 0.80021 0.0
Co996 Co 0.06953 0.36924 0.7671 0.0
C997 C 0.02741 0.34264 0.79374 0.0
O998 O 0.02836 0.3545 0.81278 0.0
N999 N 0.06774 0.35084 0.74095 0.0
C1000 C 0.06448 0.32007 0.71636 0.0
C1001 C 0.0626 0.32629 0.73844 0.0
C1002 C 0.07246 0.35913 0.72026 0.0
N1003 N 0.07058 0.34082 0.70502 0.0
O1004 O 0.04709 0.39365 0.75518 0.0
H1005 H 0.05841 0.31357 0.75187 0.0
H1006 H 0.07793 0.37806 0.71646 0.0
O1007 O 0.04184 0.34886 0.77784 0.0
C1008 C 0.05786 0.41327 0.74812 0.0
O1009 O 0.08232 0.41306 0.74634 0.0
N1010 N 0.09206 0.3456 0.77927 0.0
C1011 C 0.12107 0.3074 0.79681 0.0
C1012 C 0.10218 0.3183 0.80939 0.0
C1013 C 0.08795 0.33728 0.80037 0.0
C1014 C 0.11161 0.33631 0.76722 0.0
C1015 C 0.12616 0.31664 0.77557 0.0
H1016 H 0.07353 0.34523 0.81053 0.0
H1017 H 0.11539 0.34345 0.75078 0.0
H1018 H 0.03341 0.39963 0.79797 0.0
H1019 H 0.09776 0.417 0.8347 0.0
H1020 H 0.06165 0.30176 0.70919 0.0
H1021 H 0.09793 0.31162 0.82595 0.0
H1022 H 0.14082 0.30855 0.76551 0.0
C1023 C 0.33674 0.31388 0.54074 0.0
C1024 C 0.32411 0.30726 0.55969 0.0
N1025 N 0.33269 0.28488 0.56645 0.0
N1026 N 0.35319 0.29578 0.5356 0.0
C1027 C 0.35005 0.27819 0.55131 0.0
H1028 H 0.33473 0.33118 0.53168 0.0
Co1029 Co 0.37514 0.29783 0.51206 0.0
C1030 C 0.40043 0.24933 0.50923 0.0
O1031 O 0.38975 0.24571 0.48986 0.0
N1032 N 0.3972 0.30051 0.48808 0.0
C1033 C 0.43225 0.30263 0.46838 0.0
C1034 C 0.42236 0.29868 0.48907 0.0
C1035 C 0.39232 0.3057 0.46662 0.0
N1036 N 0.41328 0.30708 0.45429 0.0
O1037 O 0.3515 0.27912 0.49505 0.0
H1038 H 0.43291 0.29496 0.50401 0.0
H1039 H 0.37386 0.30903 0.46014 0.0
O1040 O 0.39343 0.2678 0.52111 0.0
C1041 C 0.33507 0.29348 0.48662 0.0
O1042 O 0.33927 0.31764 0.4868 0.0
N1043 N 0.39639 0.31737 0.52934 0.0
C1044 C 0.42513 0.34857 0.55565 0.0
C1045 C 0.41942 0.32442 0.56274 0.0
C1046 C 0.40503 0.30905 0.54932 0.0
C1047 C 0.40133 0.34107 0.52235 0.0
C1048 C 0.41619 0.35696 0.53515 0.0
H1049 H 0.40046 0.29063 0.55528 0.0
H1050 H 0.39373 0.34762 0.50677 0.0
H1051 H 0.36089 0.26119 0.55203 0.0
H1052 H 0.31079 0.31874 0.56852 0.0
H1053 H 0.45184 0.30215 0.46405 0.0
H1054 H 0.42617 0.31743 0.57852 0.0
H1055 H 0.42032 0.37562 0.52932 0.0
C1056 C 0.08542 0.1512 0.08245 0.0
C1057 C 0.09806 0.16739 0.0681 0.0
C1058 C 0.09326 0.14809 0.10445 0.0
C1059 C 0.11388 0.162 0.11241 0.0
C1060 C 0.12684 0.17827 0.09792 0.0
C1061 C 0.11893 0.18053 0.07579 0.0
C1062 C 0.0793 0.13013 0.11924 0.0
C1063 C 0.14854 0.19381 0.10595 0.0
C1064 C 0.11307 0.17096 0.17472 0.0
C1065 C 0.1302 0.15289 0.1817 0.0
C1066 C 0.10857 0.17504 0.15211 0.0
C1067 C 0.12104 0.16017 0.13617 0.0
C1068 C 0.13888 0.1423 0.14316 0.0
C1069 C 0.14347 0.13909 0.16592 0.0
C1070 C 0.08988 0.1947 0.14533 0.0
C1071 C 0.15214 0.12573 0.1267 0.0
H1072 H 0.06949 0.14083 0.07633 0.0
H1073 H 0.12853 0.19317 0.06466 0.0
H1074 H 0.09248 0.11665 0.12686 0.0
H1075 H 0.07018 0.14049 0.13295 0.0
H1076 H 0.06475 0.11954 0.11007 0.0
H1077 H 0.15716 0.20488 0.09238 0.0
H1078 H 0.14209 0.20682 0.11908 0.0
H1079 H 0.16304 0.18169 0.11344 0.0
H1080 H 0.10303 0.18172 0.18707 0.0
H1081 H 0.15654 0.12497 0.17146 0.0
H1082 H 0.0732 0.18564 0.13799 0.0
H1083 H 0.09799 0.20709 0.13246 0.0
H1084 H 0.08376 0.20633 0.15959 0.0
H1085 H 0.13838 0.1133 0.11848 0.0
H1086 H 0.16666 0.11397 0.13469 0.0
H1087 H 0.16104 0.13711 0.11353 0.0
C1088 C 0.10636 0.85784 0.42446 0.0
C1089 C 0.11961 0.83948 0.43615 0.0
C1090 C 0.10775 0.85948 0.4013 0.0
C1091 C 0.12249 0.8421 0.38947 0.0
C1092 C 0.13494 0.82275 0.401 0.0
C1093 C 0.13346 0.82174 0.42423 0.0
C1094 C 0.09423 0.88042 0.3896 0.0
C1095 C 0.15059 0.8037 0.38887 0.0
C1096 C 0.11204 0.83958 0.32721 0.0
C1097 C 0.13156 0.85466 0.31948 0.0
C1098 C 0.10926 0.83462 0.34994 0.0
C1099 C 0.12621 0.84535 0.36523 0.0
C1100 C 0.14615 0.86031 0.35745 0.0
C1101 C 0.14867 0.86465 0.33464 0.0
C1102 C 0.08802 0.81825 0.35761 0.0
C1103 C 0.16441 0.87235 0.37327 0.0
H1104 H 0.09516 0.87125 0.43347 0.0
H1105 H 0.14392 0.8076 0.43306 0.0
H1106 H 0.10798 0.89296 0.38152 0.0
H1107 H 0.08203 0.87284 0.37635 0.0
H1108 H 0.08262 0.89168 0.40113 0.0
H1109 H 0.15694 0.78841 0.39996 0.0
H1110 H 0.13987 0.79548 0.37492 0.0
H1111 H 0.16727 0.81293 0.38169 0.0
H1112 H 0.09903 0.83157 0.31543 0.0
H1113 H 0.16359 0.87653 0.32869 0.0
H1114 H 0.07496 0.82928 0.36798 0.0
H1115 H 0.09526 0.80284 0.3681 0.0
H1116 H 0.07744 0.8101 0.34351 0.0
H1117 H 0.15437 0.8854 0.38443 0.0
H1118 H 0.1793 0.88285 0.36448 0.0
H1119 H 0.1733 0.85795 0.38387 0.0
C1120 C 0.39015 0.86704 0.65618 0.0
C1121 C 0.40255 0.85563 0.67392 0.0
C1122 C 0.39554 0.86046 0.63421 0.0
C1123 C 0.41334 0.84154 0.62994 0.0
C1124 C 0.42591 0.82988 0.64784 0.0
C1125 C 0.42058 0.83734 0.66968 0.0
C1126 C 0.3822 0.87379 0.61557 0.0
C1127 C 0.44458 0.80925 0.64395 0.0
C1128 C 0.4066 0.81093 0.5735 0.0
C1129 C 0.42541 0.82289 0.5614 0.0
C1130 C 0.40318 0.816 0.59614 0.0
C1131 C 0.41853 0.83396 0.60668 0.0
C1132 C 0.43777 0.84587 0.59454 0.0
C1133 C 0.44116 0.83995 0.57208 0.0
C1134 C 0.38283 0.80251 0.60864 0.0
C1135 C 0.45411 0.86557 0.60504 0.0
H1136 H 0.37644 0.88141 0.65956 0.0
H1137 H 0.42997 0.82845 0.6835 0.0
H1138 H 0.396 0.88214 0.60403 0.0
H1139 H 0.37089 0.86029 0.6059 0.0
H1140 H 0.36968 0.8888 0.62172 0.0
H1141 H 0.45264 0.80205 0.65969 0.0
H1142 H 0.43546 0.79357 0.63506 0.0
H1143 H 0.46 0.81604 0.63327 0.0
H1144 H 0.39463 0.79756 0.56521 0.0
H1145 H 0.45552 0.84936 0.56259 0.0
H1146 H 0.36816 0.81596 0.61369 0.0
H1147 H 0.3905 0.79409 0.62402 0.0
H1148 H 0.37402 0.78757 0.59855 0.0
H1149 H 0.44248 0.88172 0.61013 0.0
H1150 H 0.46888 0.8723 0.59357 0.0
H1151 H 0.46312 0.85814 0.62023 0.0
C1152 C 0.3986 0.13974 0.82828 0.0
C1153 C 0.41292 0.1606 0.82235 0.0
C1154 C 0.3953 0.13327 0.85067 0.0
C1155 C 0.40658 0.1481 0.86731 0.0
C1156 C 0.42213 0.16835 0.86129 0.0
C1157 C 0.42512 0.1743 0.83888 0.0
C1158 C 0.37878 0.11143 0.8565 0.0
C1159 C 0.43471 0.1845 0.87855 0.0
C1160 C 0.37897 0.15979 0.92373 0.0
C1161 C 0.39617 0.14755 0.93748 0.0
C1162 C 0.38087 0.15833 0.90061 0.0
C1163 C 0.40051 0.14434 0.89105 0.0
C1164 C 0.41659 0.1302 0.90475 0.0
C1165 C 0.41424 0.132 0.92787 0.0
C1166 C 0.36324 0.17359 0.88653 0.0
C1167 C 0.43748 0.11473 0.89511 0.0
H1168 H 0.38912 0.12913 0.81551 0.0
H1169 H 0.4367 0.19003 0.83427 0.0
H1170 H 0.38749 0.09983 0.86963 0.0
H1171 H 0.36076 0.11843 0.8631 0.0
H1172 H 0.37484 0.09947 0.84185 0.0
H1173 H 0.44739 0.19856 0.87103 0.0
H1174 H 0.42037 0.19448 0.88843 0.0
H1175 H 0.44566 0.17279 0.89018 0.0
H1176 H 0.36502 0.17196 0.9309 0.0
H1177 H 0.42721 0.12204 0.93844 0.0
H1178 H 0.35614 0.1624 0.8724 0.0
H1179 H 0.37339 0.18985 0.87955 0.0
H1180 H 0.34707 0.18063 0.89623 0.0
H1181 H 0.43098 0.10416 0.88038 0.0
H1182 H 0.44522 0.1014 0.90744 0.0
H1183 H 0.45277 0.12725 0.8896 0.0
C1184 C 0.88588 0.86747 0.91477 0.0
C1185 C 0.90746 0.85511 0.92196 0.0
C1186 C 0.87983 0.86877 0.89214 0.0
C1187 C 0.89564 0.85715 0.87643 0.0
C1188 C 0.9177 0.84502 0.88359 0.0
C1189 C 0.92341 0.84426 0.90627 0.0
C1190 C 0.85638 0.88222 0.88509 0.0
C1191 C 0.93495 0.83225 0.86734 0.0
C1192 C 0.87134 0.83662 0.8202 0.0
C1193 C 0.88209 0.85447 0.80609 0.0
C1194 C 0.87485 0.83773 0.84326 0.0
C1195 C 0.88915 0.85737 0.85248 0.0
C1196 C 0.89882 0.87623 0.83855 0.0
C1197 C 0.89535 0.87447 0.81556 0.0
C1198 C 0.86423 0.81724 0.85764 0.0
C1199 C 0.91394 0.89764 0.84779 0.0
H1200 H 0.87363 0.87594 0.92693 0.0
H1201 H 0.93985 0.83429 0.91182 0.0
H1202 H 0.86094 0.89681 0.87268 0.0
H1203 H 0.84337 0.86891 0.87702 0.0
H1204 H 0.84663 0.89112 0.8993 0.0
H1205 H 0.95148 0.82387 0.8756 0.0
H1206 H 0.92471 0.81729 0.85844 0.0
H1207 H 0.94152 0.84578 0.8547 0.0
H1208 H 0.86071 0.82137 0.81316 0.0
H1209 H 0.9041 0.8883 0.80508 0.0
H1210 H 0.85316 0.82532 0.87142 0.0
H1211 H 0.8797 0.8064 0.86519 0.0
H1212 H 0.85216 0.80422 0.84811 0.0
H1213 H 0.90407 0.90639 0.86198 0.0
H1214 H 0.91773 0.91221 0.83512 0.0
H1215 H 0.93206 0.89055 0.85409 0.0
C1216 C 0.90039 0.18022 0.67446 0.0
C1217 C 0.91878 0.1662 0.68525 0.0
C1218 C 0.89699 0.17832 0.65142 0.0
C1219 C 0.9129 0.16257 0.63892 0.0
C1220 C 0.932 0.14894 0.64973 0.0
C1221 C 0.93446 0.15064 0.67285 0.0
C1222 C 0.87599 0.1926 0.64058 0.0
C1223 C 0.94976 0.13249 0.63691 0.0
C1224 C 0.89116 0.13717 0.58339 0.0
C1225 C 0.90227 0.15391 0.56858 0.0
C1226 C 0.89407 0.14007 0.60637 0.0
C1227 C 0.9091 0.15975 0.61461 0.0
C1228 C 0.92064 0.17653 0.59963 0.0
C1229 C 0.91675 0.17361 0.57675 0.0
C1230 C 0.88093 0.1222 0.62182 0.0
C1231 C 0.93737 0.19729 0.60774 0.0
H1232 H 0.88817 0.19203 0.68419 0.0
H1233 H 0.9488 0.14002 0.68131 0.0
H1234 H 0.88347 0.20508 0.62749 0.0
H1235 H 0.86296 0.17939 0.6324 0.0
H1236 H 0.86533 0.20405 0.65267 0.0
H1237 H 0.96454 0.12439 0.64765 0.0
H1238 H 0.93933 0.11701 0.62897 0.0
H1239 H 0.95879 0.14337 0.62345 0.0
H1240 H 0.87978 0.12212 0.57692 0.0
H1241 H 0.92546 0.18636 0.56514 0.0
H1242 H 0.86899 0.13274 0.6336 0.0
H1243 H 0.89482 0.11175 0.63181 0.0
H1244 H 0.86909 0.10857 0.61275 0.0
H1245 H 0.92675 0.21003 0.61874 0.0
H1246 H 0.94537 0.20836 0.59387 0.0
H1247 H 0.95291 0.1894 0.61769 0.0
C1248 C 0.56855 0.14926 0.32364 0.0
C1249 C 0.58437 0.16636 0.31311 0.0
C1250 C 0.56936 0.14589 0.34667 0.0
C1251 C 0.58681 0.15962 0.3594 0.0
C1252 C 0.6025 0.17733 0.3489 0.0
C1253 C 0.60088 0.18068 0.32584 0.0
C1254 C 0.55197 0.12721 0.35729 0.0
C1255 C 0.62163 0.19197 0.36189 0.0
C1256 C 0.5783 0.16122 0.422 0.0
C1257 C 0.59356 0.14136 0.42863 0.0
C1258 C 0.57599 0.16758 0.39949 0.0
C1259 C 0.58974 0.15407 0.38341 0.0
C1260 C 0.60568 0.13442 0.39015 0.0
C1261 C 0.60719 0.12815 0.41266 0.0
C1262 C 0.55845 0.18832 0.39287 0.0
C1263 C 0.62101 0.11987 0.37356 0.0
H1264 H 0.55548 0.13853 0.31377 0.0
H1265 H 0.61313 0.19383 0.31759 0.0
H1266 H 0.56291 0.11143 0.36417 0.0
H1267 H 0.54179 0.13598 0.3713 0.0
H1268 H 0.53813 0.11964 0.34533 0.0
H1269 H 0.63143 0.20597 0.35145 0.0
H1270 H 0.61263 0.20173 0.376 0.0
H1271 H 0.6357 0.17901 0.36895 0.0
H1272 H 0.56775 0.17133 0.43443 0.0
H1273 H 0.61934 0.11309 0.41788 0.0
H1274 H 0.54352 0.18078 0.382 0.0
H1275 H 0.5686 0.20269 0.38318 0.0
H1276 H 0.54962 0.19741 0.40745 0.0
H1277 H 0.60849 0.10975 0.36199 0.0
H1278 H 0.63353 0.1061 0.38167 0.0
H1279 H 0.63254 0.1328 0.36348 0.0
C1280 C 0.57729 0.82001 0.07892 0.0
C1281 C 0.59305 0.83165 0.06347 0.0
C1282 C 0.57983 0.82436 0.10172 0.0
C1283 C 0.5988 0.84057 0.10941 0.0
C1284 C 0.61471 0.85256 0.094 0.0
C1285 C 0.6116 0.84802 0.0712 0.0
C1286 C 0.56246 0.8112 0.11764 0.0
C1287 C 0.63521 0.86989 0.10162 0.0
C1288 C 0.58992 0.86284 0.16868 0.0
C1289 C 0.60349 0.84482 0.18042 0.0
C1290 C 0.58916 0.86251 0.14538 0.0
C1291 C 0.60251 0.84387 0.13368 0.0
C1292 C 0.61748 0.82663 0.14548 0.0
C1293 C 0.61768 0.82726 0.16871 0.0
C1294 C 0.57289 0.88113 0.13339 0.0
C1295 C 0.63227 0.80668 0.13363 0.0
H1296 H 0.56319 0.80703 0.07325 0.0
H1297 H 0.62364 0.85741 0.05945 0.0
H1298 H 0.57331 0.79844 0.12846 0.0
H1299 H 0.5531 0.82499 0.12855 0.0
H1300 H 0.54791 0.80014 0.10892 0.0
H1301 H 0.64551 0.87835 0.08751 0.0
H1302 H 0.62728 0.88507 0.11196 0.0
H1303 H 0.64866 0.85951 0.11214 0.0
H1304 H 0.57882 0.87633 0.17773 0.0
H1305 H 0.62849 0.81358 0.17782 0.0
H1306 H 0.55648 0.87137 0.12624 0.0
H1307 H 0.58322 0.88978 0.11943 0.0
H1308 H 0.56609 0.89612 0.14459 0.0
H1309 H 0.61929 0.79303 0.12598 0.0
H1310 H 0.64497 0.79647 0.14503 0.0
H1311 H 0.64352 0.81499 0.12007 0.0
C1312 C 0.57931 0.66707 0.55755 0.0
C1313 C 0.59909 0.65493 0.54674 0.0
C1314 C 0.57951 0.67072 0.58057 0.0
C1315 C 0.60007 0.66217 0.59318 0.0
C1316 C 0.62014 0.64993 0.58246 0.0
C1317 C 0.6194 0.64643 0.55936 0.0
C1318 C 0.55775 0.68389 0.59138 0.0
C1319 C 0.64238 0.64055 0.59539 0.0
C1320 C 0.60833 0.69293 0.64946 0.0
C1321 C 0.5971 0.67547 0.66363 0.0
C1322 C 0.61014 0.6885 0.62656 0.0
C1323 C 0.60038 0.66611 0.61761 0.0
C1324 C 0.58953 0.64816 0.63187 0.0
C1325 C 0.58803 0.65305 0.6547 0.0
C1326 C 0.62199 0.70802 0.61189 0.0
C1327 C 0.57876 0.62413 0.62293 0.0
H1328 H 0.56378 0.67418 0.54797 0.0
H1329 H 0.63462 0.63683 0.5512 0.0
H1330 H 0.54928 0.67172 0.60421 0.0
H1331 H 0.56433 0.70106 0.59984 0.0
H1332 H 0.54305 0.68914 0.57923 0.0
H1333 H 0.65657 0.63163 0.58455 0.0
H1334 H 0.65129 0.65623 0.60443 0.0
H1335 H 0.63622 0.62678 0.60799 0.0
H1336 H 0.6157 0.7101 0.6563 0.0
H1337 H 0.57903 0.63961 0.66546 0.0
H1338 H 0.60787 0.71557 0.60022 0.0
H1339 H 0.63706 0.69955 0.60177 0.0
H1340 H 0.62995 0.72376 0.62159 0.0
H1341 H 0.56261 0.62832 0.61203 0.0
H1342 H 0.57243 0.61142 0.63637 0.0
H1343 H 0.59283 0.61424 0.61269 0.0
C1344 C 0.60318 0.35398 0.91196 0.0
C1345 C 0.58912 0.37404 0.92022 0.0
C1346 C 0.60682 0.35087 0.88905 0.0
C1347 C 0.59652 0.36846 0.87414 0.0
C1348 C 0.58145 0.38809 0.88228 0.0
C1349 C 0.57769 0.39043 0.90517 0.0
C1350 C 0.62255 0.32937 0.8809 0.0
C1351 C 0.57025 0.40735 0.86691 0.0
C1352 C 0.62928 0.38108 0.81959 0.0
C1353 C 0.61291 0.37001 0.80442 0.0
C1354 C 0.62438 0.38029 0.84241 0.0
C1355 C 0.6029 0.3676 0.85019 0.0
C1356 C 0.58682 0.35554 0.83494 0.0
C1357 C 0.59187 0.35719 0.81215 0.0
C1358 C 0.64171 0.39379 0.85812 0.0
C1359 C 0.56412 0.34129 0.84265 0.0
H1360 H 0.6122 0.34123 0.92334 0.0
H1361 H 0.56625 0.40557 0.91131 0.0
H1362 H 0.61306 0.31962 0.86702 0.0
H1363 H 0.64057 0.33654 0.87447 0.0
H1364 H 0.62652 0.31564 0.89425 0.0
H1365 H 0.55819 0.42089 0.87583 0.0
H1366 H 0.5854 0.41781 0.85848 0.0
H1367 H 0.55899 0.39812 0.85383 0.0
H1368 H 0.64543 0.39111 0.81348 0.0
H1369 H 0.57946 0.34835 0.80031 0.0
H1370 H 0.64876 0.38076 0.87097 0.0
H1371 H 0.63135 0.40883 0.86682 0.0
H1372 H 0.65793 0.40223 0.84943 0.0
H1373 H 0.56943 0.32766 0.85569 0.0
H1374 H 0.55485 0.33112 0.82886 0.0
H1375 H 0.55044 0.35434 0.85013 0.0
C1376 C 0.90394 0.36159 0.16618 0.0
C1377 C 0.91957 0.34208 0.17301 0.0
C1378 C 0.89809 0.36501 0.14372 0.0
C1379 C 0.90833 0.34865 0.12769 0.0
C1380 C 0.92358 0.32849 0.13454 0.0
C1381 C 0.92891 0.32537 0.15717 0.0
C1382 C 0.88151 0.38655 0.1371 0.0
C1383 C 0.93505 0.31083 0.1179 0.0
C1384 C 0.88021 0.3492 0.06979 0.0
C1385 C 0.89618 0.3658 0.05879 0.0
C1386 C 0.88405 0.34316 0.09221 0.0
C1387 C 0.9045 0.35378 0.10372 0.0
C1388 C 0.921 0.37009 0.0925 0.0
C1389 C 0.91656 0.37599 0.07021 0.0
C1390 C 0.86595 0.32588 0.10371 0.0
C1391 C 0.94321 0.38155 0.10411 0.0
H1392 H 0.89637 0.37427 0.17845 0.0
H1393 H 0.94115 0.31041 0.16242 0.0
H1394 H 0.89237 0.40014 0.12712 0.0
H1395 H 0.86592 0.37982 0.12656 0.0
H1396 H 0.8736 0.39642 0.1517 0.0
H1397 H 0.94509 0.29516 0.12601 0.0
H1398 H 0.92044 0.30304 0.10685 0.0
H1399 H 0.94844 0.32114 0.10725 0.0
H1400 H 0.86437 0.34145 0.061 0.0
H1401 H 0.92918 0.38846 0.06161 0.0
H1402 H 0.85652 0.33594 0.11744 0.0
H1403 H 0.8761 0.30991 0.11117 0.0
H1404 H 0.85149 0.31853 0.09222 0.0
H1405 H 0.93677 0.39352 0.118 0.0
H1406 H 0.95479 0.39307 0.09276 0.0
H1407 H 0.95512 0.36669 0.11134 0.0
C1408 C 0.94295 0.66761 0.3237 0.0
C1409 C 0.93303 0.65124 0.30786 0.0
C1410 C 0.9394 0.6634 0.34644 0.0
C1411 C 0.92526 0.64252 0.35344 0.0
C1412 C 0.91466 0.62628 0.33748 0.0
C1413 C 0.91888 0.63072 0.31485 0.0
C1414 C 0.95134 0.68089 0.36298 0.0
C1415 C 0.89913 0.60406 0.34431 0.0
C1416 C 0.93665 0.61602 0.41087 0.0
C1417 C 0.91701 0.62655 0.423 0.0
C1418 C 0.93969 0.62128 0.38826 0.0
C1419 C 0.92238 0.63712 0.37747 0.0
C1420 C 0.90241 0.64774 0.38962 0.0
C1421 C 0.90011 0.64249 0.41234 0.0
C1422 C 0.96148 0.60997 0.37595 0.0
C1423 C 0.88337 0.66438 0.37858 0.0
H1424 H 0.95416 0.68329 0.31829 0.0
H1425 H 0.91099 0.61824 0.30256 0.0
H1426 H 0.93698 0.68868 0.37427 0.0
H1427 H 0.96488 0.67046 0.37339 0.0
H1428 H 0.96128 0.69658 0.3548 0.0
H1429 H 0.89111 0.59405 0.32982 0.0
H1430 H 0.91075 0.59078 0.35392 0.0
H1431 H 0.88365 0.61014 0.35527 0.0
H1432 H 0.94987 0.60394 0.41922 0.0
H1433 H 0.88477 0.6504 0.42171 0.0
H1434 H 0.973 0.62495 0.36843 0.0
H1435 H 0.9546 0.59804 0.36221 0.0
H1436 H 0.97356 0.59849 0.38691 0.0
H1437 H 0.89272 0.68089 0.37123 0.0
H1438 H 0.86883 0.67094 0.39035 0.0
H1439 H 0.87413 0.65417 0.36483 0.0
C1440 C 0.39525 0.30655 0.41672 0.0
C1441 C 0.41495 0.3127 0.43102 0.0
C1442 C 0.39654 0.31199 0.39404 0.0
C1443 C 0.41812 0.32375 0.38548 0.0
C1444 C 0.43806 0.33008 0.39979 0.0
C1445 C 0.43622 0.3245 0.42243 0.0
C1446 C 0.37495 0.30491 0.3792 0.0
C1447 C 0.46135 0.34265 0.39117 0.0
C1448 C 0.43119 0.315 0.32434 0.0
C1449 C 0.42247 0.33754 0.31547 0.0
C1450 C 0.43015 0.31039 0.34717 0.0
C1451 C 0.42007 0.32878 0.36141 0.0
C1452 C 0.41146 0.3517 0.35261 0.0
C1453 C 0.41282 0.35583 0.32968 0.0
C1454 C 0.4397 0.28581 0.35603 0.0
C1455 C 0.4005 0.37166 0.36736 0.0
H1456 H 0.37895 0.2971 0.4232 0.0
H1457 H 0.45132 0.32962 0.43346 0.0
H1458 H 0.36802 0.3216 0.37021 0.0
H1459 H 0.38127 0.29128 0.36654 0.0
H1460 H 0.3592 0.29658 0.38862 0.0
H1461 H 0.47504 0.34659 0.40456 0.0
H1462 H 0.47044 0.33063 0.37854 0.0
H1463 H 0.45643 0.36047 0.38289 0.0
H1464 H 0.4391 0.30103 0.31343 0.0
H1465 H 0.40589 0.37316 0.32279 0.0
H1466 H 0.42438 0.27564 0.36449 0.0
H1467 H 0.45453 0.28914 0.36853 0.0
H1468 H 0.44737 0.27368 0.34272 0.0
H1469 H 0.38366 0.36435 0.37587 0.0
H1470 H 0.39522 0.38868 0.35793 0.0
H1471 H 0.4141 0.37695 0.38041 0.0
C1472 C 0.43039 0.65624 0.06943 0.0
C1473 C 0.41086 0.64685 0.05636 0.0
C1474 C 0.4281 0.65812 0.09253 0.0
C1475 C 0.40574 0.65034 0.10294 0.0
C1476 C 0.38594 0.64075 0.0899 0.0
C1477 C 0.38871 0.6392 0.06674 0.0
C1478 C 0.44958 0.66867 0.1058 0.0
C1479 C 0.36189 0.63211 0.10043 0.0
C1480 C 0.41201 0.63658 0.1645 0.0
C1481 C 0.40393 0.65908 0.17403 0.0
C1482 C 0.41168 0.63306 0.14141 0.0
C1483 C 0.40323 0.65256 0.12746 0.0
C1484 C 0.39422 0.67496 0.13698 0.0
C1485 C 0.39462 0.67792 0.16012 0.0
C1486 C 0.42136 0.60885 0.13191 0.0
C1487 C 0.38503 0.69619 0.12267 0.0
H1488 H 0.44737 0.66265 0.06153 0.0
H1489 H 0.37365 0.63174 0.05674 0.0
H1490 H 0.4434 0.68557 0.11491 0.0
H1491 H 0.45588 0.65488 0.11833 0.0
H1492 H 0.46576 0.67375 0.09518 0.0
H1493 H 0.34834 0.62499 0.08799 0.0
H1494 H 0.36579 0.61709 0.11261 0.0
H1495 H 0.35312 0.64773 0.10965 0.0
H1496 H 0.41949 0.62199 0.17498 0.0
H1497 H 0.3879 0.69516 0.16731 0.0
H1498 H 0.43899 0.61236 0.12277 0.0
H1499 H 0.40779 0.60101 0.11988 0.0
H1500 H 0.42504 0.5947 0.14498 0.0
H1501 H 0.4007 0.70364 0.11264 0.0
H1502 H 0.37706 0.71169 0.13266 0.0
H1503 H 0.37058 0.68946 0.11093 0.0
C1504 C 0.04514 0.66211 0.95052 0.0
C1505 C 0.07008 0.6595 0.95704 0.0
C1506 C 0.03845 0.6607 0.92799 0.0
C1507 C 0.05712 0.65593 0.91189 0.0
C1508 C 0.08193 0.65117 0.91872 0.0
C1509 C 0.08812 0.65321 0.9412 0.0
C1510 C 0.01183 0.66606 0.92133 0.0
C1511 C 0.1023 0.6454 0.90217 0.0
C1512 C 0.04208 0.63898 0.85225 0.0
C1513 C 0.04734 0.66146 0.84114 0.0
C1514 C 0.04432 0.63705 0.87539 0.0
C1515 C 0.05155 0.6582 0.88783 0.0
C1516 C 0.05575 0.68122 0.87693 0.0
C1517 C 0.0538 0.68252 0.85375 0.0
C1518 C 0.0399 0.61213 0.88641 0.0
C1519 C 0.06315 0.70434 0.88969 0.0
H1520 H 0.03124 0.66695 0.96282 0.0
H1521 H 0.10733 0.65078 0.94639 0.0
H1522 H 0.01099 0.68429 0.91263 0.0
H1523 H 0.00493 0.65167 0.90962 0.0
H1524 H 0.99913 0.66682 0.93588 0.0
H1525 H 0.11992 0.63954 0.91039 0.0
H1526 H 0.09626 0.63038 0.8907 0.0
H1527 H 0.1062 0.66222 0.89201 0.0
H1528 H 0.0364 0.62269 0.84295 0.0
H1529 H 0.05801 0.69996 0.84554 0.0
H1530 H 0.02679 0.61417 0.90053 0.0
H1531 H 0.05776 0.60497 0.89323 0.0
H1532 H 0.03228 0.59804 0.8747 0.0
H1533 H 0.04964 0.70785 0.90328 0.0
H1534 H 0.06401 0.72117 0.87896 0.0
H1535 H 0.08174 0.70153 0.89742 0.0
C1536 C 0.08759 0.32398 0.67018 0.0
C1537 C 0.07514 0.34301 0.68163 0.0
C1538 C 0.09326 0.32649 0.64756 0.0
C1539 C 0.08585 0.34836 0.63615 0.0
C1540 C 0.07268 0.36734 0.64755 0.0
C1541 C 0.0677 0.36452 0.67023 0.0
C1542 C 0.10772 0.30608 0.63604 0.0
C1543 C 0.06406 0.39072 0.63584 0.0
C1544 C 0.12016 0.36915 0.58437 0.0
C1545 C 0.10409 0.36084 0.56761 0.0
C1546 C 0.11477 0.36459 0.60676 0.0
C1547 C 0.09253 0.35184 0.61246 0.0
C1548 C 0.07633 0.34322 0.59555 0.0
C1549 C 0.08246 0.34763 0.57328 0.0
C1550 C 0.13274 0.37364 0.62432 0.0
C1551 C 0.05224 0.32995 0.60101 0.0
H1552 H 0.09355 0.30748 0.6791 0.0
H1553 H 0.05781 0.37906 0.67909 0.0
H1554 H 0.0972 0.29923 0.62141 0.0
H1555 H 0.12573 0.3136 0.62988 0.0
H1556 H 0.11163 0.29003 0.64718 0.0
H1557 H 0.05294 0.40308 0.64684 0.0
H1558 H 0.08044 0.40133 0.6297 0.0
H1559 H 0.05255 0.38575 0.62118 0.0
H1560 H 0.13703 0.37909 0.57991 0.0
H1561 H 0.06995 0.34144 0.56025 0.0
H1562 H 0.13828 0.35793 0.63526 0.0
H1563 H 0.12351 0.38783 0.63491 0.0
H1564 H 0.14985 0.38202 0.61705 0.0
H1565 H 0.05604 0.31331 0.61141 0.0
H1566 H 0.04202 0.32391 0.58588 0.0
H1567 H 0.03996 0.3425 0.61077 0.0
C1568 C 0.05579 0.94491 0.25145 0.0
C1569 C 0.07473 0.93985 0.2669 0.0
C1570 C 0.04941 0.9697 0.24626 0.0
C1571 C 0.06208 0.98948 0.25701 0.0
C1572 C 0.07783 0.98415 0.27531 0.0
C1573 C 0.08402 0.95932 0.27998 0.0
C1574 C 0.03154 0.97451 0.22742 0.0
C1575 C 0.09104 0.00464 0.2879 0.0
C1576 C 0.09245 0.04262 0.22677 0.0
C1577 C 0.0807 0.06312 0.23661 0.0
C1578 C 0.08448 0.01826 0.23128 0.0
C1579 C 0.06438 0.01437 0.2462 0.0
C1580 C 0.05048 0.0351 0.25391 0.0
C1581 C 0.05882 0.05936 0.24898 0.0
C1582 C 0.09951 0.99673 0.22212 0.0
C1583 C 0.02843 0.03194 0.26919 0.0
H1584 H 0.04813 0.92986 0.24155 0.0
H1585 H 0.09829 0.95535 0.29225 0.0
H1586 H 0.02137 0.99236 0.22975 0.0
H1587 H 0.04214 0.97568 0.21164 0.0
H1588 H 0.01781 0.95908 0.2258 0.0
H1589 H 0.09982 0.99761 0.30339 0.0
H1590 H 0.10587 0.0128 0.27729 0.0
H1591 H 0.07785 0.01979 0.29227 0.0
H1592 H 0.1092 0.04556 0.21701 0.0
H1593 H 0.04959 0.07518 0.25665 0.0
H1594 H 0.08701 0.98228 0.21507 0.0
H1595 H 0.1104 0.98795 0.23571 0.0
H1596 H 0.11274 1.0028 0.20899 0.0
H1597 H 0.01888 0.01382 0.26654 0.0
H1598 H 0.01476 0.0473 0.26682 0.0
H1599 H 0.03494 0.03272 0.28666 0.0
C1600 C 0.21911 0.80835 0.47714 0.0
C1601 C 0.20263 0.79391 0.48978 0.0
C1602 C 0.24463 0.80271 0.47631 0.0
C1603 C 0.25397 0.78223 0.48866 0.0
C1604 C 0.23699 0.76601 0.49949 0.0
C1605 C 0.21139 0.77203 0.49991 0.0
C1606 C 0.26188 0.82028 0.46411 0.0
C1607 C 0.24605 0.7437 0.51242 0.0
C1608 C 0.3239 0.77464 0.48051 0.0
C1609 C 0.33284 0.79121 0.49667 0.0
C1610 C 0.29818 0.76952 0.47876 0.0
C1611 C 0.28126 0.7812 0.49357 0.0
C1612 C 0.29069 0.79582 0.51129 0.0
C1613 C 0.31632 0.80078 0.5125 0.0
C1614 C 0.28906 0.75354 0.45982 0.0
C1615 C 0.27349 0.80838 0.52772 0.0
H1616 H 0.2123 0.82516 0.46914 0.0
H1617 H 0.19871 0.76084 0.50979 0.0
H1618 H 0.27255 0.83156 0.4763 0.0
H1619 H 0.27554 0.80969 0.454 0.0
H1620 H 0.25152 0.83322 0.45303 0.0
H1621 H 0.23082 0.73 0.51526 0.0
H1622 H 0.26165 0.73427 0.50368 0.0
H1623 H 0.25309 0.74995 0.52881 0.0
H1624 H 0.33663 0.76743 0.46808 0.0
H1625 H 0.32328 0.81356 0.52502 0.0
H1626 H 0.28351 0.76574 0.44579 0.0
H1627 H 0.27251 0.74239 0.46472 0.0
H1628 H 0.30391 0.74073 0.45384 0.0
H1629 H 0.26309 0.82358 0.51929 0.0
H1630 H 0.28386 0.81655 0.54194 0.0
H1631 H 0.2596 0.79491 0.53424 0.0
C1632 C 0.41933 0.0694 0.75779 0.0
C1633 C 0.43222 0.08616 0.74415 0.0
C1634 C 0.42319 0.0436 0.75614 0.0
C1635 C 0.44012 0.03417 0.74014 0.0
C1636 C 0.45462 0.05114 0.72745 0.0
C1637 C 0.45056 0.07705 0.72967 0.0
C1638 C 0.40752 0.02639 0.77029 0.0
C1639 C 0.47297 0.04198 0.71034 0.0
C1640 C 0.44796 0.96391 0.74608 0.0
C1641 C 0.42807 0.95537 0.73296 0.0
C1642 C 0.45379 0.98955 0.74717 0.0
C1643 C 0.43946 0.00691 0.73479 0.0
C1644 C 0.42106 0.99795 0.71989 0.0
C1645 C 0.41553 0.97237 0.71926 0.0
C1646 C 0.47377 0.99818 0.76305 0.0
C1647 C 0.40552 0.01561 0.70608 0.0
H1648 H 0.40518 0.07645 0.76902 0.0
H1649 H 0.46036 0.08999 0.71893 0.0
H1650 H 0.39364 0.01667 0.75969 0.0
H1651 H 0.41936 0.01191 0.77817 0.0
H1652 H 0.39733 0.03661 0.78352 0.0
H1653 H 0.48608 0.05694 0.70513 0.0
H1654 H 0.48386 0.02593 0.71678 0.0
H1655 H 0.46265 0.03547 0.69546 0.0
H1656 H 0.4577 0.9509 0.7568 0.0
H1657 H 0.40029 0.96583 0.70894 0.0
H1658 H 0.46487 0.00521 0.77845 0.0
H1659 H 0.48478 0.01371 0.75581 0.0
H1660 H 0.48664 0.98275 0.7676 0.0
H1661 H 0.39242 0.02589 0.71703 0.0
H1662 H 0.39445 0.00564 0.69326 0.0
H1663 H 0.41755 0.02959 0.69774 0.0
C1664 C 0.29216 0.21823 -0.00388 0.0
C1665 C 0.30225 0.19712 0.98572 0.0
C1666 C 0.26626 0.22284 -0.00447 0.0
C1667 C 0.25032 0.20606 0.9841 0.0
C1668 C 0.26096 0.18632 0.97162 0.0
C1669 C 0.28673 0.18194 0.97281 0.0
C1670 C 0.25583 0.24415 0.00897 0.0
C1671 C 0.24487 0.16822 0.9588 0.0
C1672 C 0.18779 0.18515 0.00643 0.0
C1673 C 0.17119 0.19555 0.99108 0.0
C1674 C 0.21342 0.19032 0.00548 0.0
C1675 C 0.22283 0.20585 0.98838 0.0
C1676 C 0.20587 0.21788 0.97379 0.0
C1677 C 0.18012 0.21267 0.97539 0.0
C1678 C 0.23061 0.17744 0.02172 0.0
C1679 C 0.21503 0.23459 0.95539 0.0
H1680 H 0.30408 0.2298 0.0064 0.0
H1681 H 0.29455 0.16558 0.96482 0.0
H1682 H 0.24001 0.2532 0.00024 0.0
H1683 H 0.24869 0.23686 0.02499 0.0
H1684 H 0.27031 0.25843 0.01259 0.0
H1685 H 0.25607 0.15636 0.94744 0.0
H1686 H 0.23485 0.15586 0.97059 0.0
H1687 H 0.23063 0.17835 0.94893 0.0
H1688 H 0.18084 0.1719 0.01855 0.0
H1689 H 0.1673 0.22045 0.96331 0.0
H1690 H 0.24416 0.19091 0.02881 0.0
H1691 H 0.24142 0.16278 0.01295 0.0
H1692 H 0.2202 0.16852 0.03555 0.0
H1693 H 0.23042 0.24678 0.96123 0.0
H1694 H 0.1998 0.24644 0.94864 0.0
H1695 H 0.22244 0.22291 0.94169 0.0
C1696 C 0.95968 0.05736 0.76206 0.0
C1697 C 0.94734 0.06871 0.74421 0.0
C1698 C 0.96121 0.0312 0.76354 0.0
C1699 C 0.95039 0.01634 0.74664 0.0
C1700 C 0.94081 0.02797 0.7273 0.0
C1701 C 0.9391 0.05405 0.72648 0.0
C1702 C 0.97179 0.01966 0.78433 0.0
C1703 C 0.92963 0.01292 0.70859 0.0
C1704 C 0.95038 0.94558 0.74235 0.0
C1705 C 0.92587 0.94034 0.74904 0.0
C1706 C 0.95966 0.97016 0.74304 0.0
C1707 C 0.94408 0.98965 0.75081 0.0
C1708 C 0.92024 0.98384 0.75961 0.0
C1709 C 0.91135 0.9593 0.75838 0.0
C1710 C 0.9852 0.97546 0.73365 0.0
C1711 C 0.90315 0.00389 0.76855 0.0
H1712 H 0.96575 0.06871 0.77595 0.0
H1713 H 0.92946 0.0629 0.71274 0.0
H1714 H 0.95628 0.0151 0.79584 0.0
H1715 H 0.98186 1.00207 0.78057 0.0
H1716 H 0.98469 0.03266 0.79298 0.0
H1717 H 0.9267 0.0244 0.69347 0.0
H1718 H 0.94181 0.9969 0.70432 0.0
H1719 H 0.9113 0.00533 0.7139 0.0
H1720 H 0.96155 0.93093 0.7349 0.0
H1721 H 0.89243 0.95518 0.76362 0.0
H1722 H 0.99491 0.99013 0.74336 0.0
H1723 H 0.98323 0.98234 0.71638 0.0
H1724 H 0.99699 0.95841 0.73334 0.0
H1725 H 0.91333 0.01615 0.7803 0.0
H1726 H 0.88666 0.99593 0.77719 0.0
H1727 H 0.89644 0.01572 0.75466 0.0
C1728 C 0.79986 0.20543 0.50013 0.0
C1729 C 0.80963 0.18498 0.51178 0.0
C1730 C 0.77387 0.2086 0.49794 0.0
C1731 C 0.7575 0.19098 0.50772 0.0
C1732 C 0.7674 0.17202 0.52155 0.0
C1733 C 0.79334 0.16917 0.52328 0.0
C1734 C 0.76413 0.22933 0.48341 0.0
C1735 C 0.75071 0.15309 0.53271 0.0
C1736 C 0.68656 0.19263 0.50914 0.0
C1737 C 0.68092 0.17486 0.49277 0.0
C1738 C 0.71142 0.19982 0.51322 0.0
C1739 C 0.73091 0.18912 0.50048 0.0
C1740 C 0.7249 0.17311 0.48252 0.0
C1741 C 0.70001 0.16604 0.47902 0.0
C1742 C 0.71686 0.21704 0.53242 0.0
C1743 C 0.74496 0.16153 0.46823 0.0
H1744 H 0.81239 0.21762 0.49108 0.0
H1745 H 0.80088 0.15343 0.53239 0.0
H1746 H 0.75948 0.22169 0.4668 0.0
H1747 H 0.74683 0.2375 0.49046 0.0
H1748 H 0.7782 0.24436 0.48122 0.0
H1749 H 0.76096 0.14176 0.54516 0.0
H1750 H 0.73482 0.16246 0.54106 0.0
H1751 H 0.74287 0.14029 0.52001 0.0
H1752 H 0.67187 0.19934 0.51998 0.0
H1753 H 0.69566 0.15236 0.46634 0.0
H1754 H 0.73263 0.22974 0.52857 0.0
H1755 H 0.72218 0.20577 0.54712 0.0
H1756 H 0.70025 0.22837 0.53692 0.0
H1757 H 0.75834 0.17595 0.46251 0.0
H1758 H 0.73709 0.15192 0.45347 0.0
H1759 H 0.75559 0.14767 0.47814 0.0
C1760 C 0.57629 0.05482 0.26743 0.0
C1761 C 0.56216 0.07012 0.2534 0.0
C1762 C 0.57373 0.02875 0.26697 0.0
C1763 C 0.55702 0.01757 0.25168 0.0
C1764 C 0.54126 0.03305 0.23869 0.0
C1765 C 0.54392 0.05922 0.2398 0.0
C1766 C 0.59059 0.01315 0.28149 0.0
C1767 C 0.52319 0.02205 0.22218 0.0
C1768 C 0.58404 0.95641 0.23118 0.0
C1769 C 0.57191 0.93892 0.24466 0.0
C1770 C 0.57781 0.98184 0.23199 0.0
C1771 C 0.55925 0.99019 0.24703 0.0
C1772 C 0.54568 0.97235 0.25956 0.0
C1773 C 0.55209 0.94685 0.25814 0.0
C1774 C 0.59252 0.99999 0.21798 0.0
C1775 C 0.52579 0.98032 0.27578 0.0
H1776 H 0.59047 0.06322 0.27788 0.0
H1777 H 0.53324 0.07097 0.22864 0.0
H1778 H 0.57985 0.99805 0.28967 0.0
H1779 H 0.60517 0.00423 0.2711 0.0
H1780 H 0.59997 0.0245 0.29448 0.0
H1781 H 0.50919 0.03598 0.21657 0.0
H1782 H 0.53366 0.0154 0.20743 0.0
H1783 H 0.51331 0.00575 0.22937 0.0
H1784 H 0.59936 0.95034 0.22072 0.0
H1785 H 0.54287 0.93344 0.26884 0.0
H1786 H 0.60511 0.01107 0.22879 0.0
H1787 H 0.57981 0.01325 0.20947 0.0
H1788 H 0.60404 0.99037 0.20527 0.0
H1789 H 0.53481 0.98813 0.29083 0.0
H1790 H 0.51382 0.96441 0.2809 0.0
H1791 H 0.51384 0.99515 0.26856 0.0
C1792 C 0.80924 0.79512 0.99268 0.0
C1793 C 0.81766 0.8165 0.98157 0.0
C1794 C 0.78356 0.78995 0.99444 0.0
C1795 C 0.76607 0.8063 0.98445 0.0
C1796 C 0.77476 0.82661 0.9715 0.0
C1797 C 0.80043 0.8317 0.97055 0.0
C1798 C 0.77518 0.76832 0.00862 0.0
C1799 C 0.75687 0.84415 0.96004 0.0
C1800 C 0.69632 0.79404 0.97926 0.0
C1801 C 0.68691 0.81066 0.99517 0.0
C1802 C 0.72223 0.79113 0.9763 0.0
C1803 C 0.73895 0.8047 0.98996 0.0
C1804 C 0.72936 0.8196 0.00743 0.0
C1805 C 0.70348 0.82271 0.00957 0.0
C1806 C 0.73156 0.77531 0.95734 0.0
C1807 C 0.74644 0.83384 0.02283 0.0
H1808 H 0.82256 0.7836 0.00156 0.0
H1809 H 0.80697 0.84829 0.96205 0.0
H1810 H 0.76837 0.77552 0.02479 0.0
H1811 H 0.7595 0.75817 0.00068 0.0
H1812 H 0.79063 0.75498 0.01187 0.0
H1813 H 0.76655 0.85671 0.94817 0.0
H1814 H 0.74236 0.83349 0.95093 0.0
H1815 H 0.74724 0.85582 0.97261 0.0
H1816 H 0.68355 0.78487 0.96796 0.0
H1817 H 0.6962 0.83555 0.02188 0.0
H1818 H 0.7479 0.76399 0.96248 0.0
H1819 H 0.73769 0.78765 0.9436 0.0
H1820 H 0.71682 0.76264 0.9509 0.0
H1821 H 0.7616 0.82157 0.02902 0.0
H1822 H 0.73625 0.84169 0.03728 0.0
H1823 H 0.75529 0.84946 0.01366 0.0
C1824 C 0.596 0.47541 0.75308 0.0
C1825 C 0.58133 0.45776 0.74196 0.0
C1826 C 0.58977 0.50084 0.75283 0.0
C1827 C 0.56856 0.50897 0.74076 0.0
C1828 C 0.55263 0.491 0.73088 0.0
C1829 C 0.55914 0.46552 0.73169 0.0
C1830 C 0.60707 0.51919 0.76403 0.0
C1831 C 0.52983 0.49878 0.71794 0.0
C1832 C 0.55527 0.57821 0.74873 0.0
C1833 C 0.57061 0.58851 0.73226 0.0
C1834 C 0.55272 0.55214 0.75083 0.0
C1835 C 0.56561 0.53618 0.73594 0.0
C1836 C 0.57914 0.54676 0.71804 0.0
C1837 C 0.58174 0.57276 0.71663 0.0
C1838 C 0.5382 0.54179 0.77018 0.0
C1839 C 0.59282 0.5306 0.70151 0.0
H1840 H 0.61309 0.46945 0.76113 0.0
H1841 H 0.54785 0.45196 0.72288 0.0
H1842 H 0.61739 0.52994 0.75125 0.0
H1843 H 0.59627 0.53272 0.77412 0.0
H1844 H 0.62087 0.50977 0.77495 0.0
H1845 H 0.51708 0.48281 0.71484 0.0
H1846 H 0.51943 0.51363 0.72683 0.0
H1847 H 0.53571 0.50653 0.70169 0.0
H1848 H 0.54707 0.59038 0.76112 0.0
H1849 H 0.59376 0.58076 0.70402 0.0
H1850 H 0.5514 0.53608 0.78343 0.0
H1851 H 0.52739 0.52503 0.76523 0.0
H1852 H 0.5252 0.55586 0.77723 0.0
H1853 H 0.60918 0.52184 0.70969 0.0
H1854 H 0.59955 0.54149 0.68702 0.0
H1855 H 0.58056 0.51537 0.69546 0.0
C1856 C 0.7926 0.32292 0.98471 0.0
C1857 C 0.80098 0.34404 -0.0037 0.0
C1858 C 0.76692 0.3175 0.98313 0.0
C1859 C 0.74936 0.33347 0.99352 0.0
C1860 C 0.75803 0.35346 0.00687 0.0
C1861 C 0.78367 0.35859 0.00794 0.0
C1862 C 0.75858 0.29592 0.96887 0.0
C1863 C 0.74011 0.37077 0.01859 0.0
C1864 C 0.68697 0.35164 0.96931 0.0
C1865 C 0.67038 0.34087 0.98447 0.0
C1866 C 0.71272 0.34723 0.97072 0.0
C1867 C 0.72219 0.33205 0.98804 0.0
C1868 C 0.70528 0.31926 0.00213 0.0
C1869 C 0.67946 0.32375 0.00011 0.0
C1870 C 0.72991 0.36088 0.95501 0.0
C1871 C 0.71448 0.3028 0.02069 0.0
H1872 H 0.8059 0.31173 0.9755 0.0
H1873 H 0.79011 0.37485 0.017 0.0
H1874 H 0.74261 0.28598 0.97657 0.0
H1875 H 0.75226 0.30311 0.95255 0.0
H1876 H 0.77396 0.28241 0.96597 0.0
H1877 H 0.74982 0.38352 0.0303 0.0
H1878 H 0.73004 0.38225 0.00616 0.0
H1879 H 0.72597 0.35992 0.02795 0.0
H1880 H 0.67993 0.36494 0.95727 0.0
H1881 H 0.66669 0.31569 0.01209 0.0
H1882 H 0.74457 0.34816 0.9486 0.0
H1883 H 0.7394 0.37626 0.96402 0.0
H1884 H 0.71967 0.369 0.9407 0.0
H1885 H 0.7306 0.29134 0.01524 0.0
H1886 H 0.69953 0.29023 0.0269 0.0
H1887 H 0.72084 0.31465 0.03469 0.0
C1888 C 0.96385 0.54686 0.26012 0.0
C1889 C 0.9764 0.56373 0.24639 0.0
C1890 C 0.96799 0.52113 0.25825 0.0
C1891 C 0.98454 0.51212 0.24175 0.0
C1892 C 0.99934 0.52925 0.22961 0.0
C1893 C 0.99524 0.55502 0.23225 0.0
C1894 C 0.95246 0.50359 0.27219 0.0
C1895 C 0.01745 0.52051 0.21211 0.0
C1896 C 0.98809 0.44145 0.24219 0.0
C1897 C 0.96688 0.43564 0.22955 0.0
C1898 C 0.99572 0.46638 0.24498 0.0
C1899 C 0.98209 0.48568 0.23443 0.0
C1900 C 0.96264 0.47944 0.21947 0.0
C1901 C 0.95509 0.45452 0.21744 0.0
C1902 C 0.01661 0.47204 0.26097 0.0
C1903 C 0.94801 0.49931 0.20734 0.0
H1904 H 0.94934 0.55367 0.27111 0.0
H1905 H 0.00498 0.56805 0.2216 0.0
H1906 H 0.93756 0.49525 0.26176 0.0
H1907 H 0.96409 0.48812 0.27871 0.0
H1908 H 0.94352 0.51332 0.28638 0.0
H1909 H 0.03138 0.53517 0.20804 0.0
H1910 H 0.02739 0.50341 0.21754 0.0
H1911 H 0.007 0.51591 0.19674 0.0
H1912 H 0.99738 0.42688 0.25151 0.0
H1913 H 0.93881 0.45 0.20751 0.0
H1914 H 0.0086 0.47569 0.27764 0.0
H1915 H 0.02726 0.48883 0.25585 0.0
H1916 H 0.02965 0.45601 0.26245 0.0
H1917 H 0.93588 0.50937 0.21928 0.0
H1918 H 0.93599 0.49128 0.19411 0.0
H1919 H 0.96077 0.51317 0.19973 0.0
C1920 C 0.70896 0.68767 0.47457 0.0
C1921 C 0.69792 0.66982 0.48846 0.0
C1922 C 0.73508 0.69076 0.47416 0.0
C1923 C 0.75026 0.67587 0.48817 0.0
C1924 C 0.7388 0.65992 0.50392 0.0
C1925 C 0.71282 0.65691 0.50369 0.0
C1926 C 0.74642 0.70813 0.45726 0.0
C1927 C 0.75411 0.64408 0.51955 0.0
C1928 C 0.81118 0.64679 0.47017 0.0
C1929 C 0.8284 0.65918 0.48372 0.0
C1930 C 0.78596 0.65372 0.46994 0.0
C1931 C 0.7776 0.67323 0.48398 0.0
C1932 C 0.7953 0.68715 0.49635 0.0
C1933 C 0.82062 0.68001 0.49599 0.0
C1934 C 0.76791 0.63864 0.4561 0.0
C1935 C 0.7873 0.7081 0.51146 0.0
H1936 H 0.69751 0.69759 0.46266 0.0
H1937 H 0.70426 0.64317 0.5145 0.0
H1938 H 0.76284 0.71802 0.46423 0.0
H1939 H 0.75291 0.69711 0.44279 0.0
H1940 H 0.73268 0.72213 0.45128 0.0
H1941 H 0.74247 0.63545 0.53273 0.0
H1942 H 0.76336 0.62893 0.51007 0.0
H1943 H 0.76895 0.65538 0.52753 0.0
H1944 H 0.81723 0.63073 0.46064 0.0
H1945 H 0.83386 0.68947 0.50669 0.0
H1946 H 0.75512 0.65112 0.44682 0.0
H1947 H 0.75634 0.62678 0.46714 0.0
H1948 H 0.77768 0.62635 0.44407 0.0
H1949 H 0.77245 0.71955 0.50364 0.0
H1950 H 0.80323 0.7204 0.51591 0.0
H1951 H 0.77956 0.70013 0.52699 0.0
C1952 C 0.46663 0.56888 0.25539 0.0
C1953 C 0.4481 0.57353 0.23947 0.0
C1954 C 0.47413 0.54425 0.26028 0.0
C1955 C 0.46266 0.52398 0.24907 0.0
C1956 C 0.44605 0.52895 0.23129 0.0
C1957 C 0.43902 0.55363 0.22674 0.0
C1958 C 0.49263 0.53992 0.27874 0.0
C1959 C 0.43358 0.50808 0.21857 0.0
C1960 C 0.47505 0.45424 0.25249 0.0
C1961 C 0.45525 0.44672 0.26622 0.0
C1962 C 0.47962 0.47974 0.2484 0.0
C1963 C 0.46391 0.49801 0.25814 0.0
C1964 C 0.44577 0.49047 0.2739 0.0
C1965 C 0.44176 0.46497 0.27777 0.0
C1966 C 0.49975 0.4868 0.23209 0.0
C1967 C 0.42863 0.50915 0.2849 0.0
H1968 H 0.47364 0.58416 0.2654 0.0
H1969 H 0.42475 0.5572 0.21437 0.0
H1970 H 0.48246 0.53596 0.29438 0.0
H1971 H 0.50477 0.52366 0.27506 0.0
H1972 H 0.50452 0.55662 0.28154 0.0
H1973 H 0.42261 0.51508 0.20422 0.0
H1974 H 0.4477 0.49468 0.21235 0.0
H1975 H 0.42082 0.49769 0.22975 0.0
H1976 H 0.4856 0.44029 0.24345 0.0
H1977 H 0.42657 0.45926 0.28853 0.0
H1978 H 0.50765 0.50548 0.23582 0.0
H1979 H 0.49175 0.48727 0.21511 0.0
H1980 H 0.51507 0.47283 0.23214 0.0
H1981 H 0.43952 0.5247 0.29222 0.0
H1982 H 0.41714 0.50054 0.29818 0.0
H1983 H 0.4159 0.51728 0.27229 0.0
C1984 C 0.30283 0.66668 0.00631 0.0
C1985 C 0.31918 0.67392 0.98942 0.0
C1986 C 0.27714 0.67156 0.00473 0.0
C1987 C 0.26746 0.68292 0.98528 0.0
C1988 C 0.28412 0.69112 0.96853 0.0
C1989 C 0.30987 0.68681 0.97097 0.0
C1990 C 0.26019 0.66329 0.02334 0.0
C1991 C 0.27466 0.70258 0.94726 0.0
C1992 C 0.20063 0.66277 0.97394 0.0
C1993 C 0.18703 0.68329 0.98185 0.0
C1994 C 0.22688 0.66309 0.9736 0.0
C1995 C 0.23988 0.68417 0.9819 0.0
C1996 C 0.22626 0.7055 0.98858 0.0
C1997 C 0.20005 0.70501 0.98789 0.0
C1998 C 0.24068 0.64031 0.96544 0.0
C1999 C 0.23924 0.72822 -0.00214 0.0
H2000 H 0.31006 0.65636 0.0204 0.0
H2001 H 0.32249 0.6918 0.95762 0.0
H2002 H 0.24706 0.67848 0.02786 0.0
H2003 H 0.24887 0.64711 0.01781 0.0
H2004 H 0.27083 0.65774 0.03837 0.0
H2005 H 0.29001 0.71069 0.93717 0.0
H2006 H 0.26519 0.688 0.93724 0.0
H2007 H 0.26072 0.71735 0.95073 0.0
H2008 H 0.19085 0.64602 0.96883 0.0
H2009 H 0.18976 0.72137 0.99306 0.0
H2010 H 0.2495 0.63062 0.9797 0.0
H2011 H 0.25581 0.6458 0.95386 0.0
H2012 H 0.22811 0.62693 0.95687 0.0
H2013 H 0.24819 0.72333 0.01389 0.0
H2014 H 0.22613 0.74395 0.00075 0.0
H2015 H 0.25423 0.73456 0.9865 0.0
C2016 C 0.05676 0.45835 0.73843 0.0
C2017 C 0.04474 0.43761 0.74773 0.0
C2018 C 0.04842 0.48265 0.74273 0.0
C2019 C 0.02752 0.48636 0.75674 0.0
C2020 C 0.01379 0.46545 0.76433 0.0
C2021 C 0.02252 0.44122 0.75965 0.0
C2022 C 0.06339 0.50438 0.73388 0.0
C2023 C 0.99073 0.4687 0.77837 0.0
C2024 C 0.03877 0.54443 0.79053 0.0
C2025 C 0.02691 0.56256 0.77759 0.0
C2026 C 0.03689 0.51905 0.78518 0.0
C2027 C 0.02311 0.5117 0.76618 0.0
C2028 C 0.00896 0.52972 0.75446 0.0
C2029 C 0.01092 0.55504 0.76041 0.0
C2030 C 0.05178 0.50043 0.79854 0.0
C2031 C 0.99381 0.52278 0.73429 0.0
H2032 H 0.07369 0.45567 0.72887 0.0
H2033 H 0.01289 0.42526 0.76662 0.0
H2034 H 0.05093 0.51844 0.72617 0.0
H2035 H 0.07333 0.51365 0.74779 0.0
H2036 H 0.07742 0.49844 0.72139 0.0
H2037 H 0.99471 0.48113 0.79265 0.0
H2038 H 0.97593 0.47781 0.76837 0.0
H2039 H 0.98348 0.45064 0.78471 0.0
H2040 H 0.05108 0.55025 0.80385 0.0
H2041 H 1.00181 0.56903 0.75025 0.0
H2042 H 0.06783 0.49372 0.78855 0.0
H2043 H 0.04013 0.484 0.80272 0.0
H2044 H 0.05908 0.50862 0.81419 0.0
H2045 H 0.00627 0.52187 0.71961 0.0
H2046 H 0.9791 0.53687 0.73084 0.0
H2047 H 0.98494 0.50422 0.73632 0.0
C2048 C 0.29474 0.29612 0.46693 0.0
C2049 C 0.30898 0.28539 0.48389 0.0
C2050 C 0.26864 0.29717 0.46841 0.0
C2051 C 0.25659 0.28778 0.48761 0.0
C2052 C 0.27071 0.2744 0.50356 0.0
C2053 C 0.29684 0.27323 0.50143 0.0
C2054 C 0.25435 0.31104 0.45069 0.0
C2055 C 0.2587 0.26391 0.52417 0.0
C2056 C 0.20491 0.33192 0.50428 0.0
C2057 C 0.18378 0.32022 0.49544 0.0
C2058 C 0.22841 0.32052 0.50338 0.0
C2059 C 0.23098 0.29692 0.49301 0.0
C2060 C 0.20939 0.28418 0.48548 0.0
C2061 C 0.18592 0.29598 0.48686 0.0
C2062 C 0.25078 0.33467 0.51208 0.0
C2063 C 0.21121 0.25896 0.47452 0.0
H2064 H 0.30417 0.3056 0.45341 0.0
H2065 H 0.30784 0.26518 0.51473 0.0
H2066 H 0.23685 0.30107 0.44646 0.0
H2067 H 0.24918 0.32981 0.45699 0.0
H2068 H 0.26556 0.31346 0.43533 0.0
H2069 H 0.27044 0.24912 0.5318 0.0
H2070 H 0.25633 0.27909 0.53652 0.0
H2071 H 0.23997 0.25612 0.52048 0.0
H2072 H 0.20323 0.35059 0.51108 0.0
H2073 H 0.16961 0.28694 0.47987 0.0
H2074 H 0.2627 0.34061 0.49798 0.0
H2075 H 0.26224 0.32253 0.52296 0.0
H2076 H 0.2453 0.35154 0.52162 0.0
H2077 H 0.21739 0.26142 0.45708 0.0
H2078 H 0.19292 0.2492 0.4744 0.0
H2079 H 0.22517 0.247 0.48298 0.0
C2080 C 0.0228 0.306 0.28113 0.0
C2081 C 0.00577 0.31647 0.26608 0.0
C2082 C 0.03352 0.28247 0.27728 0.0
C2083 C 0.02686 0.26885 0.25801 0.0
C2084 C 0.00971 0.27927 0.24274 0.0
C2085 C 0.99971 0.30309 0.24679 0.0
C2086 C 0.05217 0.2723 0.29375 0.0
C2087 C 1.00201 0.26534 0.22207 0.0
C2088 C 0.07564 0.22229 0.23928 0.0
C2089 C 0.06736 0.20011 0.24924 0.0
C2090 C 0.06205 0.2445 0.24119 0.0
C2091 C 0.03937 0.24459 0.25317 0.0
C2092 C 0.02996 0.22188 0.26196 0.0
C2093 C 0.04413 0.19983 0.25993 0.0
C2094 C 0.07288 0.26821 0.23161 0.0
C2095 C 0.00561 0.22115 0.2745 0.0
H2096 H 0.02772 0.31612 0.29608 0.0
H2097 H 0.9871 0.31118 0.23478 0.0
H2098 H 0.0458 0.25394 0.30008 0.0
H2099 H 0.07041 0.26929 0.28545 0.0
H2100 H 0.05505 0.28501 0.30808 0.0
H2101 H 0.9869 0.27507 0.21287 0.0
H2102 H 0.01829 0.2632 0.21087 0.0
H2103 H 0.9955 0.24631 0.22645 0.0
H2104 H 0.09346 0.22258 0.23076 0.0
H2105 H 0.03767 0.18278 0.26771 0.0
H2106 H 0.07811 0.28104 0.2453 0.0
H2107 H 0.05884 0.27795 0.22125 0.0
H2108 H 0.08972 0.26463 0.22134 0.0
H2109 H 0.00778 0.23106 0.29055 0.0
H2110 H 0.99943 0.20174 0.27794 0.0
H2111 H 0.99079 0.2309 0.265 0.0
C2112 C 0.06799 0.74623 0.51499 0.0
C2113 C 0.06828 0.76735 0.50126 0.0
C2114 C 0.04748 0.72968 0.51482 0.0
C2115 C 0.02693 0.7343 0.50049 0.0
C2116 C 0.02751 0.75529 0.48628 0.0
C2117 C 0.04807 0.77147 0.48687 0.0
C2118 C 0.0476 0.70746 0.53018 0.0
C2119 C 0.00628 0.76082 0.47052 0.0
C2120 C 0.98528 0.68034 0.48296 0.0
C2121 C 0.96409 0.68358 0.49638 0.0
C2122 C 0.00577 0.69656 0.48428 0.0
C2123 C 0.00527 0.71668 0.49945 0.0
C2124 C 0.98373 0.72044 0.51279 0.0
C2125 C 0.96332 0.70387 0.51105 0.0
C2126 C 0.02808 0.69199 0.46949 0.0
C2127 C 0.98243 0.74173 0.52912 0.0
H2128 H 0.08335 0.7431 0.52636 0.0
H2129 H 0.04816 0.78772 0.47614 0.0
H2130 H 0.03111 0.70819 0.5413 0.0
H2131 H 0.04618 0.68998 0.52041 0.0
H2132 H 0.06475 0.70663 0.54052 0.0
H2133 H 0.00952 0.77804 0.46067 0.0
H2134 H 0.00368 0.74497 0.4589 0.0
H2135 H 0.98863 0.76301 0.47993 0.0
H2136 H 0.98602 0.66476 0.4715 0.0
H2137 H 0.94717 0.70633 0.52166 0.0
H2138 H 0.04504 0.6892 0.47976 0.0
H2139 H 0.03146 0.70852 0.45883 0.0
H2140 H 0.02558 0.67541 0.45865 0.0
H2141 H 0.99802 0.74027 0.54118 0.0
H2142 H 0.96452 0.74203 0.5384 0.0
H2143 H 0.98462 0.75976 0.52029 0.0
C2144 C 0.46276 0.81597 0.76445 0.0
C2145 C 0.47369 0.83482 0.75145 0.0
C2146 C 0.47197 0.79138 0.76428 0.0
C2147 C 0.49301 0.78539 0.7511 0.0
C2148 C 0.50471 0.8045 0.73856 0.0
C2149 C 0.49489 0.82891 0.73882 0.0
C2150 C 0.45883 0.77171 0.7779 0.0
C2151 C 0.52738 0.79904 0.72451 0.0
C2152 C 0.53064 0.72657 0.76381 0.0
C2153 C 0.52297 0.7102 0.7469 0.0
C2154 C 0.52088 0.75087 0.76555 0.0
C2155 C 0.50262 0.75911 0.75022 0.0
C2156 C 0.49398 0.74236 0.73368 0.0
C2157 C 0.50432 0.71823 0.73216 0.0
C2158 C 0.53079 0.76804 0.78336 0.0
C2159 C 0.47425 0.75018 0.7172 0.0
H2160 H 0.44669 0.82031 0.77463 0.0
H2161 H 0.50354 0.84325 0.72874 0.0
H2162 H 0.45206 0.75654 0.76691 0.0
H2163 H 0.47204 0.76321 0.78988 0.0
H2164 H 0.44268 0.77937 0.78723 0.0
H2165 H 0.53495 0.81609 0.71646 0.0
H2166 H 0.54226 0.79053 0.73484 0.0
H2167 H 0.5225 0.78535 0.7114 0.0
H2168 H 0.54499 0.72077 0.77532 0.0
H2169 H 0.49817 0.70586 0.71902 0.0
H2170 H 0.51521 0.77525 0.79365 0.0
H2171 H 0.54 0.78439 0.77558 0.0
H2172 H 0.54447 0.75862 0.7944 0.0
H2173 H 0.45752 0.75724 0.72606 0.0
H2174 H 0.46852 0.73461 0.70615 0.0
H2175 H 0.48142 0.76568 0.70679 0.0
C2176 C 0.43314 0.24981 0.01736 0.0
C2177 C 0.42415 0.24092 -0.00306 0.0
C2178 C 0.45548 0.26368 0.01868 0.0
C2179 C 0.46937 0.26868 -0.00086 0.0
C2180 C 0.46064 0.25928 0.97857 0.0
C2181 C 0.43817 0.24571 0.97771 0.0
C2182 C 0.46383 0.27357 0.04091 0.0
C2183 C 0.47477 0.26405 0.95732 0.0
C2184 C 0.50772 0.32818 0.99523 0.0
C2185 C 0.5324 0.31971 -0.00202 0.0
C2186 C 0.48729 0.31188 -0.00386 0.0
C2187 C 0.4913 0.28611 -0.00033 0.0
C2188 C 0.51609 0.27729 0.00274 0.0
C2189 C 0.53637 0.29423 0.00202 0.0
C2190 C 0.46131 0.32232 0.99303 0.0
C2191 C 0.52118 0.24993 0.00641 0.0
H2192 H 0.42254 0.24622 0.03233 0.0
H2193 H 0.43169 0.23867 0.96187 0.0
H2194 H 0.48357 0.2684 0.04406 0.0
H2195 H 0.46281 0.29425 0.04089 0.0
H2196 H 0.45216 0.26641 0.05476 0.0
H2197 H 0.46678 0.25365 0.94304 0.0
H2198 H 0.47437 0.28427 0.95339 0.0
H2199 H 0.49463 0.25861 0.95929 0.0
H2200 H 0.50417 0.34782 0.99238 0.0
H2201 H 0.55528 0.28748 0.00425 0.0
H2202 H 0.4493 0.31706 0.00727 0.0
H2203 H 0.45274 0.31427 0.97787 0.0
H2204 H 0.46126 0.34297 0.99146 0.0
H2205 H 0.51027 0.24302 0.02079 0.0
H2206 H 0.54128 0.24611 0.0094 0.0
H2207 H 0.51504 0.23914 0.99167 0.0
C2208 C 0.0092 0.70013 0.2378 0.0
C2209 C 0.01715 0.68771 0.21854 0.0
C2210 C 0.01872 0.72372 0.24354 0.0
C2211 C 0.03712 0.73497 0.22998 0.0
C2212 C 0.04563 0.72232 0.21078 0.0
C2213 C 0.03549 0.69895 0.20525 0.0
C2214 C 0.00904 0.73659 0.26409 0.0
C2215 C 0.06558 0.73343 0.19608 0.0
C2216 C 0.05237 0.80449 0.23243 0.0
C2217 C 0.07434 0.80437 0.24508 0.0
C2218 C 0.03938 0.78214 0.22807 0.0
C2219 C 0.04868 0.75923 0.2365 0.0
C2220 C 0.07014 0.75926 0.25016 0.0
C2221 C 0.08257 0.78178 0.25435 0.0
C2222 C 0.01634 0.7829 0.21369 0.0
C2223 C 0.08076 0.73533 0.25946 0.0
H2224 H 0.99531 0.69157 0.24837 0.0
H2225 H 0.04187 0.68957 0.19036 0.0
H2226 H 0.0244 0.73897 0.27625 0.0
H2227 H 1.00212 0.75551 0.25983 0.0
H2228 H 0.9937 0.726 0.27215 0.0
H2229 H 0.06994 0.72138 0.18159 0.0
H2230 H 0.05953 0.75197 0.18993 0.0
H2231 H 0.08295 0.7363 0.20579 0.0
H2232 H 0.04587 0.82184 0.2252 0.0
H2233 H 0.09938 0.7815 0.26436 0.0
H2234 H 1.00084 0.77263 0.22179 0.0
H2235 H 0.02021 0.7735 0.19766 0.0
H2236 H 0.01015 0.8023 0.21024 0.0
H2237 H 0.06617 0.72486 0.2686 0.0
H2238 H 0.09672 0.73872 0.27084 0.0
H2239 H 0.08724 0.72324 0.24567 0.0
C2240 C 0.56076 0.7147 0.42832 0.0
C2241 C 0.57758 0.7124 0.44604 0.0
C2242 C 0.53602 0.72242 0.43185 0.0
C2243 C 0.5281 0.72887 0.45352 0.0
C2244 C 0.54523 0.72714 0.47141 0.0
C2245 C 0.56961 0.71842 0.46752 0.0
C2246 C 0.51817 0.72306 0.41245 0.0
C2247 C 0.53783 0.73457 0.49466 0.0
C2248 C 0.47203 0.77204 0.45826 0.0
C2249 C 0.45328 0.75589 0.46595 0.0
C2250 C 0.4964 0.76354 0.45439 0.0
C2251 C 0.5021 0.73798 0.45737 0.0
C2252 C 0.48301 0.72131 0.4642 0.0
C2253 C 0.45894 0.73056 0.46884 0.0
C2254 C 0.51626 0.78215 0.4478 0.0
C2255 C 0.48805 0.69375 0.46671 0.0
H2256 H 0.56666 0.70945 0.41176 0.0
H2257 H 0.58251 0.71638 0.48126 0.0
H2258 H 0.50171 0.71115 0.41604 0.0
H2259 H 0.51122 0.74233 0.40984 0.0
H2260 H 0.52697 0.71648 0.39683 0.0
H2261 H 0.55366 0.73322 0.50651 0.0
H2262 H 0.53073 0.75403 0.49471 0.0
H2263 H 0.52251 0.72241 0.50065 0.0
H2264 H 0.46798 0.79169 0.45616 0.0
H2265 H 0.44454 0.71797 0.47472 0.0
H2266 H 0.52446 0.77695 0.43156 0.0
H2267 H 0.53161 0.78191 0.46018 0.0
H2268 H 0.50887 0.80147 0.44658 0.0
H2269 H 0.49642 0.68624 0.45125 0.0
H2270 H 0.47083 0.68302 0.47051 0.0
H2271 H 0.5017 0.69061 0.48025 0.0
C2272 C 0.50528 0.21062 0.72006 0.0
C2273 C 0.4803 0.2078 0.72654 0.0
C2274 C 0.51704 0.23416 0.7206 0.0
C2275 C 0.50373 0.25534 0.72837 0.0
C2276 C 0.47841 0.25266 0.73456 0.0
C2277 C 0.46697 0.2291 0.73326 0.0
C2278 C 0.54389 0.23628 0.71327 0.0
C2279 C 0.46362 0.2745 0.74337 0.0
C2280 C 0.54492 0.30589 0.75331 0.0
C2281 C 0.54631 0.3234 0.73608 0.0
C2282 C 0.53015 0.28435 0.75142 0.0
C2283 C 0.51684 0.27978 0.73152 0.0
C2284 C 0.51711 0.29805 0.71447 0.0
C2285 C 0.53161 0.31983 0.71708 0.0
C2286 C 0.52985 0.26585 0.77032 0.0
C2287 C 0.50349 0.29386 0.69287 0.0
H2288 H 0.5157 0.19443 0.71457 0.0
H2289 H 0.44764 0.22735 0.73811 0.0
H2290 H 0.54592 0.25157 0.70097 0.0
H2291 H 0.55583 0.24103 0.7277 0.0
H2292 H 0.55092 0.2187 0.70577 0.0
H2293 H 0.44377 0.26963 0.74647 0.0
H2294 H 0.47202 0.28107 0.75916 0.0
H2295 H 0.46432 0.29031 0.73152 0.0
H2296 H 0.55633 0.30854 0.768 0.0
H2297 H 0.53281 0.33309 0.70358 0.0
H2298 H 0.53963 0.24853 0.76524 0.0
H2299 H 0.51037 0.26069 0.77456 0.0
H2300 H 0.5391 0.27331 0.78543 0.0
H2301 H 0.51255 0.27838 0.68367 0.0
H2302 H 0.50357 0.31076 0.68218 0.0
H2303 H 0.48388 0.28826 0.69598 0.0
C2304 C 0.04676 0.26563 0.97021 0.0
C2305 C 0.04947 0.23999 0.97422 0.0
C2306 C 0.02309 0.2771 0.9708 0.0
C2307 C 1.0016 0.26274 0.97598 0.0
C2308 C 0.00417 0.23677 0.97953 0.0
C2309 C 0.02794 0.22572 0.97838 0.0
C2310 C 0.02116 0.30476 0.96642 0.0
C2311 C 0.98195 0.22077 0.98546 0.0
C2312 C 0.94989 0.30071 0.00287 0.0
C2313 C 0.93354 0.30487 0.98509 0.0
C2314 C 0.97125 0.2858 0.00044 0.0
C2315 C 0.97692 0.2753 0.97946 0.0
C2316 C 0.9597 0.27824 0.96174 0.0
C2317 C 0.938 0.29275 0.96486 0.0
C2318 C 0.98853 0.28254 0.02002 0.0
C2319 C 0.96507 0.26766 0.93904 0.0
H2320 H 0.06316 0.2768 0.96676 0.0
H2321 H 0.02966 0.20589 0.98142 0.0
H2322 H 0.00661 0.30848 0.95374 0.0
H2323 H 0.01547 0.31455 0.98183 0.0
H2324 H 0.03911 0.31284 0.96063 0.0
H2325 H 0.98672 0.2006 0.98611 0.0
H2326 H 0.97464 0.22648 0.00192 0.0
H2327 H 0.9667 0.22348 0.97325 0.0
H2328 H 0.94656 0.3102 0.01849 0.0
H2329 H 0.92561 0.29613 0.95097 0.0
H2330 H 0.00612 0.29293 0.01702 0.0
H2331 H 0.99347 0.26258 0.02217 0.0
H2332 H 0.98011 0.28948 0.0357 0.0
H2333 H 0.98069 0.2782 0.93139 0.0
H2334 H 0.94861 0.26887 0.92787 0.0
H2335 H 0.971 0.24788 0.94024 0.0
C2336 C 0.97184 0.80477 0.76225 0.0
C2337 C 0.95517 0.81347 0.74609 0.0
C2338 C 0.97759 0.77918 0.76395 0.0
C2339 C 0.96577 0.76181 0.7496 0.0
C2340 C 0.94885 0.77052 0.73334 0.0
C2341 C 0.94405 0.79617 0.73161 0.0
C2342 C 0.9963 0.77071 0.78109 0.0
C2343 C 0.93533 0.7527 0.71806 0.0
C2344 C 0.9962 0.69874 0.73977 0.0
C2345 C 0.98414 0.68342 0.75537 0.0
C2346 C 0.99048 0.72417 0.73781 0.0
C2347 C 0.9715 0.7346 0.7512 0.0
C2348 C 0.95818 0.71903 0.7661 0.0
C2349 C 0.96489 0.69372 0.76823 0.0
C2350 C 0.0055 0.74009 0.72199 0.0
C2351 C 0.93723 0.72926 0.78014 0.0
H2352 H 0.98038 0.81798 0.77357 0.0
H2353 H 0.93072 0.80251 0.71939 0.0
H2354 H 0.9872 0.75793 0.79309 0.0
H2355 H 0.01157 0.76012 0.77296 0.0
H2356 H 0.00456 0.78659 0.79039 0.0
H2357 H 0.92229 0.76246 0.70664 0.0
H2358 H 0.94897 0.74204 0.70798 0.0
H2359 H 0.92458 0.73898 0.72799 0.0
H2360 H 0.01109 0.69126 0.72976 0.0
H2361 H 0.9554 0.68213 0.78032 0.0
H2362 H 0.01499 0.75523 0.7313 0.0
H2363 H 0.99301 0.74908 0.70969 0.0
H2364 H 0.01986 0.72915 0.71291 0.0
H2365 H 0.94472 0.74312 0.79208 0.0
H2366 H 0.92746 0.71439 0.7896 0.0
H2367 H 0.92343 0.73907 0.76953 0.0
C2368 C 0.96171 0.22414 0.51701 0.0
C2369 C 0.94187 0.22561 0.50186 0.0
C2370 C 0.98152 0.24124 0.51648 0.0
C2371 C 0.98171 0.26032 0.50026 0.0
C2372 C 0.96122 0.26255 0.48543 0.0
C2373 C 0.94143 0.2452 0.48647 0.0
C2374 C 1.00268 0.23834 0.53286 0.0
C2375 C 0.96068 0.28267 0.46793 0.0
C2376 C 0.02431 0.3159 0.5108 0.0
C2377 C 0.04528 0.31023 0.49773 0.0
C2378 C 0.0035 0.3 0.51157 0.0
C2379 C 0.00346 0.27777 0.49893 0.0
C2380 C 0.02467 0.27175 0.48585 0.0
C2381 C 0.04537 0.28801 0.48546 0.0
C2382 C 0.98152 0.30704 0.52596 0.0
C2383 C 0.0254 0.24817 0.47217 0.0
H2384 H 0.96211 0.20901 0.52896 0.0
H2385 H 0.92635 0.2462 0.47452 0.0
H2386 H 0.02022 0.23406 0.52385 0.0
H2387 H 0.00568 0.25604 0.54202 0.0
H2388 H 0.99914 0.22322 0.54507 0.0
H2389 H 0.94303 0.28253 0.45825 0.0
H2390 H 0.96295 0.30128 0.47573 0.0
H2391 H 0.97654 0.28005 0.45632 0.0
H2392 H 0.02405 0.33296 0.52045 0.0
H2393 H 0.06137 0.28359 0.47518 0.0
H2394 H 0.97827 0.29237 0.53863 0.0
H2395 H 0.96436 0.3083 0.51572 0.0
H2396 H 0.98433 0.32515 0.53458 0.0
H2397 H 0.02358 0.23166 0.48315 0.0
H2398 H 0.04297 0.24642 0.46251 0.0
H2399 H 0.00939 0.24782 0.46049 0.0
C2400 C 0.50865 0.31425 0.24905 0.0
C2401 C 0.48936 0.3251 0.23659 0.0
C2402 C 0.51421 0.28863 0.24731 0.0
C2403 C 0.49976 0.27319 0.23316 0.0
C2404 C 0.48077 0.28416 0.22001 0.0
C2405 C 0.47604 0.30997 0.22165 0.0
C2406 C 0.5351 0.27794 0.26118 0.0
C2407 C 0.46461 0.26846 0.20497 0.0
C2408 C 0.52654 0.20932 0.2183 0.0
C2409 C 0.51622 0.19385 0.23476 0.0
C2410 C 0.521 0.23497 0.21726 0.0
C2411 C 0.50412 0.24552 0.2327 0.0
C2412 C 0.49246 0.22977 0.24853 0.0
C2413 C 0.49885 0.20425 0.24954 0.0
C2414 C 0.53431 0.25098 0.20037 0.0
C2415 C 0.47386 0.24006 0.26497 0.0
H2416 H 0.51908 0.32572 0.26062 0.0
H2417 H 0.46095 0.31799 0.21205 0.0
H2418 H 0.52733 0.26492 0.2737 0.0
H2419 H 0.54809 0.26709 0.25057 0.0
H2420 H 0.54586 0.29266 0.26995 0.0
H2421 H 0.45141 0.27992 0.19505 0.0
H2422 H 0.47636 0.25739 0.19346 0.0
H2423 H 0.45369 0.25503 0.21508 0.0
H2424 H 0.54004 0.20177 0.20683 0.0
H2425 H 0.49071 0.19258 0.26232 0.0
H2426 H 0.5466 0.26451 0.20904 0.0
H2427 H 0.52065 0.26193 0.19056 0.0
H2428 H 0.54591 0.23976 0.18879 0.0
H2429 H 0.48347 0.25284 0.27666 0.0
H2430 H 0.46461 0.22508 0.27471 0.0
H2431 H 0.45933 0.25108 0.25624 0.0
C2432 C 0.5598 0.75248 0.9812 0.0
C2433 C 0.56702 0.76122 0.96026 0.0
C2434 C 0.53549 0.74338 0.98487 0.0
C2435 C 0.51771 0.74407 0.96743 0.0
C2436 C 0.52489 0.75332 0.94636 0.0
C2437 C 0.54953 0.76137 0.94294 0.0
C2438 C 0.52887 0.73296 0.00737 0.0
C2439 C 0.50637 0.75523 0.92754 0.0
C2440 C 0.46183 0.70043 0.96767 0.0
C2441 C 0.44286 0.7155 0.97653 0.0
C2442 C 0.48626 0.70933 0.96511 0.0
C2443 C 0.49188 0.73429 0.97088 0.0
C2444 C 0.47272 0.74984 0.97948 0.0
C2445 C 0.44851 0.74009 0.98262 0.0
C2446 C 0.50614 0.69183 0.95649 0.0
C2447 C 0.47774 0.77683 0.98506 0.0
H2448 H 0.57321 0.75275 0.99468 0.0
H2449 H 0.55484 0.76884 0.9269 0.0
H2450 H 0.51364 0.74411 0.01491 0.0
H2451 H 0.5219 0.71355 0.00561 0.0
H2452 H 0.54504 0.73293 0.01891 0.0
H2453 H 0.51459 0.76401 0.91252 0.0
H2454 H 0.49945 0.73641 0.92301 0.0
H2455 H 0.48998 0.76641 0.93283 0.0
H2456 H 0.45779 0.68127 0.96328 0.0
H2457 H 0.43393 0.75179 0.98948 0.0
H2458 H 0.52183 0.69082 0.96847 0.0
H2459 H 0.5138 0.69899 0.94063 0.0
H2460 H 0.4989 0.67266 0.95363 0.0
H2461 H 0.49232 0.77813 -0.00193 0.0
H2462 H 0.46073 0.78662 0.99101 0.0
H2463 H 0.48494 0.78671 0.9702 0.0
C2464 C 0.00708 0.19789 0.7704 0.0
C2465 C 0.98375 0.18907 0.77744 0.0
C2466 C 0.01467 0.22256 0.77492 0.0
C2467 C 0.99818 0.23902 0.7861 0.0
C2468 C 0.97492 0.22999 0.79376 0.0
C2469 C 0.96818 0.20512 0.78962 0.0
C2470 C 0.04004 0.23121 0.7672 0.0
C2471 C 0.95653 0.24693 0.80534 0.0
C2472 C 0.02192 0.30037 0.81027 0.0
C2473 C 0.01698 0.31712 0.79294 0.0
C2474 C 0.01618 0.27486 0.80823 0.0
C2475 C 0.00454 0.26603 0.78863 0.0
C2476 C 0.9988 0.2831 0.77137 0.0
C2477 C 0.00553 0.30834 0.77357 0.0
C2478 C 0.02347 0.25723 0.82667 0.0
C2479 C 0.98591 0.27462 0.75041 0.0
H2480 H 0.01925 0.18562 0.76104 0.0
H2481 H 0.94999 0.1987 0.79494 0.0
H2482 H 0.03786 0.24541 0.75396 0.0
H2483 H 0.05029 0.24017 0.78108 0.0
H2484 H 0.05151 0.21561 0.76062 0.0
H2485 H 0.93959 0.2368 0.81101 0.0
H2486 H 0.96541 0.25593 0.81991 0.0
H2487 H 0.95068 0.26205 0.79387 0.0
H2488 H 0.03151 0.30698 0.82499 0.0
H2489 H 1.00212 0.32121 0.76003 0.0
H2490 H 0.03716 0.24341 0.82034 0.0
H2491 H 0.00694 0.24665 0.83251 0.0
H2492 H 0.0319 0.26713 0.84103 0.0
H2493 H 0.99798 0.26125 0.74136 0.0
H2494 H 0.98147 0.29043 0.73916 0.0
H2495 H 0.96832 0.26473 0.75458 0.0
C2496 C 0.4347 0.21937 0.4992 0.0
C2497 C 0.42529 0.23771 0.51359 0.0
C2498 C 0.45984 0.21179 0.50018 0.0
C2499 C 0.47616 0.22288 0.51585 0.0
C2500 C 0.46649 0.2404 0.53121 0.0
C2501 C 0.4412 0.24745 0.53001 0.0
C2502 C 0.4692 0.19273 0.48372 0.0
C2503 C 0.48314 0.25274 0.54818 0.0
C2504 C 0.53897 0.1912 0.52596 0.0
C2505 C 0.55486 0.20435 0.51151 0.0
C2506 C 0.5135 0.19723 0.52786 0.0
C2507 C 0.50355 0.21718 0.51523 0.0
C2508 C 0.51967 0.23117 0.50128 0.0
C2509 C 0.54506 0.22457 0.49956 0.0
C2510 C 0.49712 0.1818 0.54294 0.0
C2511 C 0.50992 0.25275 0.4877 0.0
H2512 H 0.42267 0.2116 0.4865 0.0
H2513 H 0.43429 0.26164 0.54123 0.0
H2514 H 0.48261 0.20168 0.47217 0.0
H2515 H 0.4793 0.17756 0.49244 0.0
H2516 H 0.45382 0.18438 0.47383 0.0
H2517 H 0.47243 0.26438 0.5601 0.0
H2518 H 0.49379 0.2385 0.5576 0.0
H2519 H 0.49692 0.26482 0.53961 0.0
H2520 H 0.54634 0.17585 0.53562 0.0
H2521 H 0.55708 0.23491 0.48841 0.0
H2522 H 0.48244 0.17235 0.53304 0.0
H2523 H 0.48751 0.194 0.55511 0.0
H2524 H 0.50785 0.16738 0.55215 0.0
H2525 H 0.49607 0.24587 0.47546 0.0
H2526 H 0.52503 0.26261 0.47863 0.0
H2527 H 0.50021 0.26634 0.49858 0.0
C2528 C 0.50718 0.81188 0.254 0.0
C2529 C 0.52989 0.81748 0.26443 0.0
C2530 C 0.49551 0.78857 0.25701 0.0
C2531 C 0.50703 0.77011 0.27044 0.0
C2532 C 0.5301 0.77557 0.28083 0.0
C2533 C 0.5411 0.79919 0.27787 0.0
C2534 C 0.47068 0.78377 0.24596 0.0
C2535 C 0.54327 0.75641 0.29499 0.0
C2536 C 0.46227 0.72241 0.29465 0.0
C2537 C 0.46335 0.70298 0.27903 0.0
C2538 C 0.47723 0.74376 0.29263 0.0
C2539 C 0.49406 0.74579 0.27464 0.0
C2540 C 0.49676 0.72534 0.25981 0.0
C2541 C 0.48127 0.70414 0.26213 0.0
C2542 C 0.47361 0.76494 0.30887 0.0
C2543 C 0.51485 0.7265 0.24068 0.0
H2544 H 0.49845 0.82579 0.2435 0.0
H2545 H 0.55888 0.80304 0.28567 0.0
H2546 H 0.472 0.76716 0.23504 0.0
H2547 H 0.45632 0.77969 0.25873 0.0
H2548 H 0.46428 0.7999 0.23588 0.0
H2549 H 0.56172 0.76309 0.30097 0.0
H2550 H 0.53159 0.75168 0.30959 0.0
H2551 H 0.54604 0.73895 0.2854 0.0
H2552 H 0.44848 0.72159 0.30781 0.0
H2553 H 0.48203 0.68936 0.24987 0.0
H2554 H 0.46511 0.7811 0.30017 0.0
H2555 H 0.49182 0.77119 0.31561 0.0
H2556 H 0.46131 0.75965 0.32294 0.0
H2557 H 0.50782 0.73981 0.22805 0.0
H2558 H 0.51737 0.708 0.23266 0.0
H2559 H 0.5333 0.73341 0.24637 0.0
C2560 C 0.05844 0.7377 0.97571 0.0
C2561 C 0.0701 0.75251 0.99184 0.0
C2562 C 0.03348 0.74215 0.96946 0.0
C2563 C 0.02012 0.76211 0.97934 0.0
C2564 C 0.03284 0.77872 0.99373 0.0
C2565 C 0.05752 0.77347 7e-05 0.0
C2566 C 0.02088 0.72393 0.95405 0.0
C2567 C 0.01978 0.80091 0.0039 0.0
C2568 C 0.95557 0.78195 0.95935 0.0
C2569 C 0.94032 0.77321 0.97664 0.0
C2570 C 0.98152 0.77793 0.95957 0.0
C2571 C 0.99237 0.76401 0.97705 0.0
C2572 C 0.97673 0.7536 0.99365 0.0
C2573 C 0.951 0.75881 0.99353 0.0
C2574 C 0.99744 0.79003 0.94194 0.0
C2575 C 0.98734 0.73784 0.01215 0.0
H2576 H 0.0679 0.72123 0.96956 0.0
H2577 H 0.06641 0.78481 0.01271 0.0
H2578 H 0.01129 0.70947 0.96408 0.0
H2579 H 0.00665 0.73311 0.94349 0.0
H2580 H 0.0347 0.71459 0.94314 0.0
H2581 H 0.03317 0.81415 0.01162 0.0
H2582 H 0.00871 0.81103 0.99119 0.0
H2583 H 0.00664 0.79443 0.01691 0.0
H2584 H 0.9475 0.79348 0.94643 0.0
H2585 H 0.9393 0.75216 0.00697 0.0
H2586 H 0.01058 0.7763 0.93466 0.0
H2587 H 0.00881 0.80507 0.94957 0.0
H2588 H 0.98604 0.79828 0.92839 0.0
H2589 H 0.99991 0.72329 0.00528 0.0
H2590 H 0.97249 0.7286 0.02205 0.0
H2591 H 0.9986 0.74971 0.02343 0.0
C2592 C 0.1238 0.27833 0.39297 0.0
C2593 C 0.13363 0.28235 0.41413 0.0
C2594 C 0.12935 0.25659 0.38114 0.0
C2595 C 0.14576 0.23869 0.3905 0.0
C2596 C 0.15614 0.24286 0.4118 0.0
C2597 C 0.14957 0.26454 0.42357 0.0
C2598 C 0.11739 0.25273 0.35866 0.0
C2599 C 0.17391 0.22454 0.42236 0.0
C2600 C 0.13258 0.17766 0.36276 0.0
C2601 C 0.14738 0.18013 0.34374 0.0
C2602 C 0.13402 0.19519 0.37992 0.0
C2603 C 0.15081 0.21541 0.37791 0.0
C2604 C 0.16843 0.21567 0.36038 0.0
C2605 C 0.16635 0.19804 0.34323 0.0
C2606 C 0.11528 0.1939 0.39857 0.0
C2607 C 0.18751 0.23623 0.35841 0.0
H2608 H 0.11141 0.29217 0.38585 0.0
H2609 H 0.15737 0.26791 0.43989 0.0
H2610 H 0.13201 0.25127 0.3457 0.0
H2611 H 0.10666 0.23501 0.35854 0.0
H2612 H 0.10456 0.26819 0.35411 0.0
H2613 H 0.18699 0.23415 0.4338 0.0
H2614 H 0.16309 0.21084 0.43224 0.0
H2615 H 0.18496 0.21417 0.40981 0.0
H2616 H 0.11803 0.16358 0.3631 0.0
H2617 H 0.17785 0.19983 0.32852 0.0
H2618 H 0.10065 0.20826 0.39591 0.0
H2619 H 0.12439 0.19789 0.41471 0.0
H2620 H 0.1061 0.17534 0.39952 0.0
H2621 H 0.17837 0.25331 0.35189 0.0
H2622 H 0.20288 0.23102 0.34694 0.0
H2623 H 0.1955 0.24081 0.37491 0.0
C2624 C 0.07981 0.88006 0.60298 0.0
C2625 C 0.07004 0.8695 0.58355 0.0
C2626 C 0.06387 0.89029 0.61909 0.0
C2627 C 0.03774 0.88957 0.61565 0.0
C2628 C 0.02806 0.88089 0.59521 0.0
C2629 C 0.04438 0.87114 0.57935 0.0
C2630 C 0.07487 0.90006 0.64044 0.0
C2631 C 1.00032 0.87981 0.59081 0.0
C2632 C 0.99315 0.8756 0.6623 0.0
C2633 C 0.97976 0.89798 0.66377 0.0
C2634 C 0.01323 0.87318 0.64766 0.0
C2635 C 0.02027 0.89377 0.63433 0.0
C2636 C 0.00803 0.91698 0.63693 0.0
C2637 C 0.98767 0.91875 0.6515 0.0
C2638 C 0.02564 0.84799 0.64526 0.0
C2639 C 0.01548 0.93952 0.62347 0.0
H2640 H 0.09968 0.87895 0.60622 0.0
H2641 H 0.0369 0.86353 0.56405 0.0
H2642 H 0.06494 0.91712 0.646 0.0
H2643 H 0.07275 0.88578 0.65363 0.0
H2644 H 0.09505 0.90438 0.63865 0.0
H2645 H 0.99603 0.87476 0.57334 0.0
H2646 H 0.99164 0.86569 0.60185 0.0
H2647 H 0.99148 0.89804 0.59454 0.0
H2648 H 0.98695 0.85945 0.67159 0.0
H2649 H 0.97754 0.93617 0.65293 0.0
H2650 H 0.0462 0.84987 0.6465 0.0
H2651 H 0.02135 0.84013 0.62865 0.0
H2652 H 0.01926 0.8345 0.65806 0.0
H2653 H 0.03609 0.94106 0.62236 0.0
H2654 H 0.0079 0.95704 0.63064 0.0
H2655 H 0.00818 0.93757 0.60633 0.0
C2656 C 0.3448 0.80105 0.82625 0.0
C2657 C 0.36836 0.80301 0.81631 0.0
C2658 C 0.33997 0.7825 0.84219 0.0
C2659 C 0.35932 0.76595 0.84853 0.0
C2660 C 0.38313 0.76796 0.83853 0.0
C2661 C 0.38731 0.78638 0.8225 0.0
C2662 C 0.31426 0.78065 0.85229 0.0
C2663 C 0.4044 0.75095 0.84505 0.0
C2664 C 0.36026 0.73339 0.90428 0.0
C2665 C 0.35531 0.70857 0.89825 0.0
C2666 C 0.36048 0.75252 0.88841 0.0
C2667 C 0.35518 0.7468 0.86598 0.0
C2668 C 0.34856 0.72214 0.85999 0.0
C2669 C 0.34885 0.70329 0.87616 0.0
C2670 C 0.36774 0.77857 0.89546 0.0
C2671 C 0.34247 0.71539 0.83628 0.0
H2672 H 0.33013 0.81389 0.82141 0.0
H2673 H 0.40568 0.78817 0.81514 0.0
H2674 H 0.30665 0.7616 0.84978 0.0
H2675 H 0.31534 0.78384 0.87044 0.0
H2676 H 0.30105 0.79438 0.84502 0.0
H2677 H 0.42172 0.75488 0.83553 0.0
H2678 H 0.4085 0.75312 0.86299 0.0
H2679 H 0.39908 0.73119 0.84227 0.0
H2680 H 0.36456 0.73787 0.92136 0.0
H2681 H 0.34504 0.68425 0.87123 0.0
H2682 H 0.35395 0.79235 0.8893 0.0
H2683 H 0.38607 0.78347 0.88807 0.0
H2684 H 0.3692 0.7804 0.91378 0.0
H2685 H 0.32897 0.72889 0.82917 0.0
H2686 H 0.33456 0.69629 0.83485 0.0
H2687 H 0.35969 0.71632 0.82609 0.0
C2688 C 0.50391 0.08914 0.16482 0.0
C2689 C 0.52778 0.09716 0.15868 0.0
C2690 C 0.48391 0.09073 0.14988 0.0
C2691 C 0.48793 0.10148 0.12873 0.0
C2692 C 0.51245 0.10769 0.1219 0.0
C2693 C 0.53217 0.10515 0.13694 0.0
C2694 C 0.45824 0.08284 0.15737 0.0
C2695 C 0.51752 0.11955 0.09961 0.0
C2696 C 0.44027 0.10834 0.08267 0.0
C2697 C 0.43214 0.13293 0.08622 0.0
C2698 C 0.45714 0.09694 0.09735 0.0
C2699 C 0.46651 0.11075 0.11554 0.0
C2700 C 0.45724 0.13499 0.11989 0.0
C2701 C 0.43986 0.14557 0.10539 0.0
C2702 C 0.46588 0.07069 0.0927 0.0
C2703 C 0.46681 0.15046 0.13908 0.0
H2704 H 0.50074 0.08272 0.18165 0.0
H2705 H 0.55067 0.11151 0.13235 0.0
H2706 H 0.44748 0.09951 0.1626 0.0
H2707 H 0.44786 0.07377 0.14362 0.0
H2708 H 0.45919 0.06977 0.17165 0.0
H2709 H 0.53781 0.12087 0.096 0.0
H2710 H 0.50842 0.10878 0.08616 0.0
H2711 H 0.50953 0.13866 0.09935 0.0
H2712 H 0.43435 0.09836 0.06794 0.0
H2713 H 0.43296 0.16422 0.10868 0.0
H2714 H 0.46781 0.05989 0.10831 0.0
H2715 H 0.48447 0.0713 0.08463 0.0
H2716 H 0.45285 0.06068 0.08146 0.0
H2717 H 0.46422 0.14029 0.15492 0.0
H2718 H 0.45723 0.16879 0.14037 0.0
H2719 H 0.48712 0.15387 0.13703 0.0
C2720 C 0.14392 0.79473 0.07165 0.0
C2721 C 0.16421 0.78736 0.05856 0.0
C2722 C 0.14713 0.81154 0.08916 0.0
C2723 C 0.17122 0.82132 0.09353 0.0
C2724 C 0.19107 0.81629 0.07876 0.0
C2725 C 0.18736 0.79916 0.06147 0.0
C2726 C 0.12529 0.81666 0.10438 0.0
C2727 C 0.21674 0.82715 0.08228 0.0
C2728 C 0.16624 0.8654 0.14178 0.0
C2729 C 0.16822 0.84833 0.15931 0.0
C2730 C 0.17029 0.85768 0.11983 0.0
C2731 C 0.17612 0.83238 0.11563 0.0
C2732 C 0.1814 0.8161 0.13354 0.0
C2733 C 0.17742 0.82435 0.15525 0.0
C2734 C 0.16555 0.87585 0.1012 0.0
C2735 C 0.18811 0.78904 0.12982 0.0
H2736 H 0.12598 0.78574 0.06952 0.0
H2737 H 0.20293 0.79393 0.05099 0.0
H2738 H 0.1285 0.80743 0.12062 0.0
H2739 H 0.12341 0.83696 0.10749 0.0
H2740 H 0.1074 0.80965 0.09744 0.0
H2741 H 0.22744 0.82779 0.0665 0.0
H2742 H 0.21571 0.84625 0.08934 0.0
H2743 H 0.22721 0.81527 0.09413 0.0
H2744 H 0.15921 0.88404 0.14496 0.0
H2745 H 0.17927 0.81134 0.16893 0.0
H2746 H 0.14592 0.87401 0.09555 0.0
H2747 H 0.17786 0.87202 0.0868 0.0
H2748 H 0.16846 0.89541 0.10673 0.0
H2749 H 0.1715 0.77884 0.12357 0.0
H2750 H 0.19455 0.77983 0.14531 0.0
H2751 H 0.20301 0.78734 0.11715 0.0
C2752 C 0.4987 0.88469 0.43735 0.0
C2753 C 0.47322 0.88937 0.43459 0.0
C2754 C 0.51597 0.89291 0.4215 0.0
C2755 C 0.5073 0.90583 0.4025 0.0
C2756 C 0.48201 0.91338 0.40127 0.0
C2757 C 0.46513 0.90487 0.41737 0.0
C2758 C 0.5428 0.88468 0.4236 0.0
C2759 C 0.47207 0.92748 0.38149 0.0
C2760 C 0.55449 0.92367 0.35802 0.0
C2761 C 0.55322 0.90281 0.34397 0.0
C2762 C 0.5393 0.92536 0.37699 0.0
C2763 C 0.52271 0.90561 0.38202 0.0
C2764 C 0.52117 0.88469 0.36771 0.0
C2765 C 0.53641 0.88358 0.34892 0.0
C2766 C 0.54131 0.94797 0.3918 0.0
C2767 C 0.50379 0.8631 0.37248 0.0
H2768 H 0.50477 0.87243 0.45062 0.0
H2769 H 0.44531 0.90818 0.41522 0.0
H2770 H 0.54588 0.86801 0.41302 0.0
H2771 H 0.55572 0.8995 0.41788 0.0
H2772 H 0.54757 0.87966 0.44098 0.0
H2773 H 0.45401 0.93672 0.3853 0.0
H2774 H 0.4856 0.94179 0.37581 0.0
H2775 H 0.46901 0.91425 0.36759 0.0
H2776 H 0.56733 0.93865 0.35415 0.0
H2777 H 0.53567 0.86721 0.33842 0.0
H2778 H 0.54947 0.94247 0.40799 0.0
H2779 H 0.52254 0.95582 0.39519 0.0
H2780 H 0.55319 0.96278 0.38439 0.0
H2781 H 0.50876 0.85439 0.38859 0.0
H2782 H 0.50453 0.8485 0.35941 0.0
H2783 H 0.48428 0.86987 0.37381 0.0
C2784 C 0.30538 0.27732 0.59884 0.0
C2785 C 0.32795 0.27324 0.58757 0.0
C2786 C 0.30184 0.26853 0.62058 0.0
C2787 C 0.32146 0.25559 0.63125 0.0
C2788 C 0.34383 0.25045 0.61956 0.0
C2789 C 0.34676 0.25933 0.59792 0.0
C2790 C 0.27761 0.27415 0.6323 0.0
C2791 C 0.36528 0.23653 0.63023 0.0
C2792 C 0.34052 0.25451 0.69064 0.0
C2793 C 0.3386 0.22886 0.69475 0.0
C2794 C 0.3313 0.26469 0.67087 0.0
C2795 C 0.32006 0.2487 0.65506 0.0
C2796 C 0.31421 0.22384 0.66098 0.0
C2797 C 0.32364 0.21411 0.68088 0.0
C2798 C 0.33707 0.29158 0.66553 0.0
C2799 C 0.30136 0.20649 0.64492 0.0
H2800 H 0.29063 0.28778 0.59081 0.0
H2801 H 0.36438 0.25637 0.58955 0.0
H2802 H 0.27221 0.25885 0.64373 0.0
H2803 H 0.27986 0.29139 0.64229 0.0
H2804 H 0.26221 0.27731 0.62028 0.0
H2805 H 0.38095 0.23325 0.61851 0.0
H2806 H 0.37251 0.24732 0.64457 0.0
H2807 H 0.35883 0.2182 0.63655 0.0
H2808 H 0.35169 0.266 0.70164 0.0
H2809 H 0.32189 0.19428 0.68412 0.0
H2810 H 0.32127 0.30043 0.65662 0.0
H2811 H 0.35368 0.2924 0.65455 0.0
H2812 H 0.34116 0.30254 0.68076 0.0
H2813 H 0.28671 0.21643 0.63537 0.0
H2814 H 0.29278 0.19036 0.65364 0.0
H2815 H 0.31528 0.19919 0.63293 0.0
C2816 C 0.97498 0.10898 0.85246 0.0
C2817 C 0.95848 0.09063 0.84479 0.0
C2818 C 0.98773 0.10614 0.87254 0.0
C2819 C 0.98393 0.08433 0.88541 0.0
C2820 C 0.9681 0.06521 0.8774 0.0
C2821 C 0.95542 0.06866 0.85719 0.0
C2822 C 0.00449 0.12709 0.88037 0.0
C2823 C 0.96372 0.0416 0.89045 0.0
C2824 C 0.03457 0.08497 0.9281 0.0
C2825 C 0.02343 0.10066 0.94382 0.0
C2826 C 0.02071 0.076 0.91002 0.0
C2827 C 0.99537 0.08309 0.90783 0.0
C2828 C 0.98326 0.09538 0.92562 0.0
C2829 C 0.99754 0.10414 0.94346 0.0
C2830 C 0.03406 0.06214 0.89177 0.0
C2831 C 0.9561 0.10266 0.92429 0.0
H2832 H 0.97719 0.12617 0.84324 0.0
H2833 H 0.9429 0.05428 0.85122 0.0
H2834 H 0.99701 0.13516 0.89597 0.0
H2835 H 0.02346 0.11987 0.88397 0.0
H2836 H 0.00615 0.14231 0.86794 0.0
H2837 H 0.95687 0.02626 0.87965 0.0
H2838 H 0.98097 0.03536 0.89899 0.0
H2839 H 0.94937 0.04516 0.90333 0.0
H2840 H 0.05462 0.08221 0.92845 0.0
H2841 H 0.98895 0.11611 0.95581 0.0
H2842 H 0.03953 0.07553 0.87859 0.0
H2843 H 0.02174 0.04787 0.88415 0.0
H2844 H 0.05124 0.05291 0.89803 0.0
H2845 H 0.95414 0.11916 0.91328 0.0
H2846 H 0.94845 0.10757 0.94085 0.0
H2847 H 0.94479 0.08733 0.91712 0.0
C2848 C 0.8713 0.77228 0.66085 0.0
C2849 C 0.86515 0.79729 0.65705 0.0
C2850 C 0.86881 0.75445 0.64404 0.0
C2851 C 0.86007 0.76191 0.62288 0.0
C2852 C 0.85216 0.78685 0.61944 0.0
C2853 C 0.85486 0.80436 0.63665 0.0
C2854 C 0.87725 0.72802 0.6485 0.0
C2855 C 0.84255 0.79543 0.59718 0.0
C2856 C 0.8866 0.72178 0.57682 0.0
C2857 C 0.86752 0.70424 0.57394 0.0
C2858 C 0.88385 0.74161 0.59184 0.0
C2859 C 0.8614 0.74396 0.60412 0.0
C2860 C 0.84147 0.72726 0.60015 0.0
C2861 C 0.8448 0.70756 0.58514 0.0
C2862 C 0.90554 0.75911 0.59556 0.0
C2863 C 0.81715 0.72934 0.61266 0.0
H2864 H 0.87949 0.76701 0.67664 0.0
H2865 H 0.85051 0.82384 0.6337 0.0
H2866 H 0.86259 0.71457 0.64341 0.0
H2867 H 0.89417 0.7239 0.63853 0.0
H2868 H 0.88171 0.72487 0.66628 0.0
H2869 H 0.8336 0.8141 0.59819 0.0
H2870 H 0.8583 0.79654 0.58528 0.0
H2871 H 0.82886 0.7819 0.59039 0.0
H2872 H 0.90417 0.71924 0.56821 0.0
H2873 H 0.82977 0.69436 0.58253 0.0
H2874 H 0.9133 0.75609 0.61242 0.0
H2875 H 0.89922 0.77879 0.59463 0.0
H2876 H 0.9207 0.75624 0.58325 0.0
H2877 H 0.82012 0.7239 0.63022 0.0
H2878 H 0.80243 0.71713 0.60553 0.0
H2879 H 0.81035 0.74889 0.6126 0.0
C2880 C 0.93418 0.12504 0.39317 0.0
C2881 C 0.94565 0.13171 0.4132 0.0
C2882 C 0.9486 0.11919 0.37441 0.0
C2883 C 0.97497 0.11982 0.37596 0.0
C2884 C 0.98652 0.12531 0.39652 0.0
C2885 C 0.97169 0.13136 0.41486 0.0
C2886 C 0.93566 0.11362 0.35272 0.0
C2887 C 0.01458 0.12579 0.39896 0.0
C2888 C 0.0185 0.08955 0.33456 0.0
C2889 C 0.02817 0.11047 0.32349 0.0
C2890 C 1.00001 0.09208 0.35085 0.0
C2891 C 0.99078 0.1161 0.356 0.0
C2892 C 0.99906 0.13706 0.34372 0.0
C2893 C 0.01774 0.13401 0.32765 0.0
C2894 C 0.99159 0.06928 0.36351 0.0
C2895 C 0.98938 0.16296 0.34853 0.0
H2896 H 0.914 0.12565 0.39189 0.0
H2897 H 0.98045 0.13652 0.43042 0.0
H2898 H 0.93896 0.12918 0.34094 0.0
H2899 H 0.94343 0.09647 0.34507 0.0
H2900 H 0.9152 0.11123 0.35483 0.0
H2901 H 0.02052 0.12879 0.41642 0.0
H2902 H 0.02273 0.10798 0.39299 0.0
H2903 H 0.02247 0.14099 0.38862 0.0
H2904 H 0.02598 0.07121 0.33099 0.0
H2905 H 0.02508 0.15027 0.31923 0.0
H2906 H 0.97095 0.06875 0.36474 0.0
H2907 H 0.99907 0.07009 0.38067 0.0
H2908 H 0.99814 0.0517 0.35566 0.0
H2909 H 0.96871 0.16289 0.34954 0.0
H2910 H 0.99521 0.17665 0.33568 0.0
H2911 H 0.9966 0.16933 0.36483 0.0
C2912 C 0.60481 0.28973 0.08526 0.0
C2913 C 0.62617 0.30295 0.07892 0.0
C2914 C 0.60594 0.27166 0.10209 0.0
C2915 C 0.62906 0.26658 0.11262 0.0
C2916 C 0.65084 0.27926 0.10573 0.0
C2917 C 0.64912 0.29734 0.08899 0.0
C2918 C 0.58227 0.2585 0.10901 0.0
C2919 C 0.67585 0.27409 0.11634 0.0
C2920 C 0.62246 0.23885 0.17015 0.0
C2921 C 0.62387 0.21335 0.16544 0.0
C2922 C 0.62555 0.25659 0.15325 0.0
C2923 C 0.63013 0.24844 0.13124 0.0
C2924 C 0.63338 0.22271 0.12682 0.0
C2925 C 0.63001 0.20541 0.14401 0.0
C2926 C 0.62197 0.28386 0.15862 0.0
C2927 C 0.63853 0.2133 0.10366 0.0
H2928 H 0.58707 0.29417 0.0776 0.0
H2929 H 0.66577 0.30722 0.08382 0.0
H2930 H 0.58468 0.238 0.10761 0.0
H2931 H 0.57813 0.26271 0.12666 0.0
H2932 H 0.56596 0.26414 0.09879 0.0
H2933 H 0.69122 0.28467 0.10829 0.0
H2934 H 0.67523 0.27922 0.13416 0.0
H2935 H 0.6802 0.25388 0.11542 0.0
H2936 H 0.61713 0.24482 0.18668 0.0
H2937 H 0.63059 0.18558 0.14043 0.0
H2938 H 0.60428 0.29053 0.15108 0.0
H2939 H 0.63733 0.29516 0.15147 0.0
H2940 H 0.62116 0.28729 0.17679 0.0
H2941 H 0.62154 0.21555 0.09333 0.0
H2942 H 0.64392 0.19328 0.10357 0.0
H2943 H 0.65363 0.22432 0.09576 0.0
C2944 C 0.52987 0.89886 0.92244 0.0
C2945 C 0.52589 0.87692 0.93447 0.0
C2946 C 0.51308 0.90612 0.90577 0.0
C2947 C 0.49197 0.891 0.90127 0.0
C2948 C 0.48662 0.87028 0.91503 0.0
C2949 C 0.50378 0.86342 0.93145 0.0
C2950 C 0.51931 0.92844 0.89155 0.0
C2951 C 0.46419 0.85385 0.91098 0.0
C2952 C 0.44348 0.91284 0.85966 0.0
C2953 C 0.45127 0.90054 0.84029 0.0
C2954 C 0.45649 0.90999 0.8797 0.0
C2955 C 0.47779 0.89447 0.88034 0.0
C2956 C 0.48564 0.88183 0.86089 0.0
C2957 C 0.47224 0.88499 0.84112 0.0
C2958 C 0.44745 0.92351 0.90015 0.0
C2959 C 0.50832 0.86508 0.86093 0.0
H2960 H 0.54718 0.90905 0.92466 0.0
H2961 H 0.50092 0.84632 0.94075 0.0
H2962 H 0.52633 0.92195 0.87522 0.0
H2963 H 0.50244 0.93993 0.88845 0.0
H2964 H 0.53386 0.94038 0.8993 0.0
H2965 H 0.46048 0.84123 0.92523 0.0
H2966 H 0.44729 0.86527 0.90782 0.0
H2967 H 0.46751 0.84222 0.89604 0.0
H2968 H 0.42703 0.92457 0.85921 0.0
H2969 H 0.4785 0.87569 0.82617 0.0
H2970 H 0.46241 0.93581 0.90665 0.0
H2971 H 0.44296 0.90985 0.91339 0.0
H2972 H 0.43062 0.93502 0.89682 0.0
H2973 H 0.52504 0.87585 0.86608 0.0
H2974 H 0.51199 0.85671 0.84438 0.0
H2975 H 0.50578 0.84977 0.87311 0.0
C2976 C 0.84972 0.19819 0.84249 0.0
C2977 C 0.85825 0.20443 0.82126 0.0
C2978 C 0.84331 0.21683 0.85774 0.0
C2979 C 0.84596 0.24218 0.85158 0.0
C2980 C 0.85229 0.24844 0.82945 0.0
C2981 C 0.85833 0.22936 0.81445 0.0
C2982 C 0.83625 0.20938 0.88106 0.0
C2983 C 0.8553 0.27524 0.82224 0.0
C2984 C 0.82501 0.2935 0.89079 0.0
C2985 C 0.8474 0.29923 0.90173 0.0
C2986 C 0.82409 0.2748 0.87451 0.0
C2987 C 0.84615 0.26175 0.86899 0.0
C2988 C 0.86878 0.26734 0.88012 0.0
C2989 C 0.86908 0.28595 0.89644 0.0
C2990 C 0.79961 0.26908 0.86319 0.0
C2991 C 0.89278 0.25389 0.8746 0.0
H2992 H 0.84995 0.17882 0.84769 0.0
H2993 H 0.86534 0.23406 0.7981 0.0
H2994 H 0.85244 0.21237 0.89223 0.0
H2995 H 0.82065 0.22104 0.88731 0.0
H2996 H 0.83072 0.18943 0.88206 0.0
H2997 H 0.85626 0.27701 0.80389 0.0
H2998 H 0.83965 0.28685 0.82844 0.0
H2999 H 0.8728 0.28288 0.82938 0.0
H3000 H 0.80815 0.30354 0.89508 0.0
H3001 H 0.88644 0.29057 0.90469 0.0
H3002 H 0.79479 0.24912 0.86549 0.0
H3003 H 0.80131 0.27237 0.84509 0.0
H3004 H 0.78405 0.28067 0.86969 0.0
H3005 H 0.89048 0.23354 0.87732 0.0
H3006 H 0.90874 0.26051 0.8848 0.0
H3007 H 0.89743 0.25665 0.85683 0.0
C3008 C 0.54647 0.1109 0.59749 0.0
C3009 C 0.54201 0.09941 0.577 0.0
C3010 C 0.52771 0.11234 0.61357 0.0
C3011 C 0.50412 0.10154 0.60917 0.0
C3012 C 0.50031 0.08782 0.58938 0.0
C3013 C 0.51923 0.08726 0.57329 0.0
C3014 C 0.53246 0.12731 0.63438 0.0
C3015 C 0.47576 0.0751 0.58464 0.0
C3016 C 0.46071 0.10265 0.65877 0.0
C3017 C 0.44682 0.12421 0.65439 0.0
C3018 C 0.47831 0.09387 0.64343 0.0
C3019 C 0.48274 0.1077 0.6238 0.0
C3020 C 0.46822 0.12919 0.61913 0.0
C3021 C 0.45009 0.13692 0.63438 0.0
C3022 C 0.49275 0.07045 0.64875 0.0
C3023 C 0.47277 0.14483 0.59865 0.0
H3024 H 0.56399 0.12056 0.60025 0.0
H3025 H 0.51587 0.07827 0.55745 0.0
H3026 H 0.52058 0.14428 0.63428 0.0
H3027 H 0.52738 0.11629 0.64928 0.0
H3028 H 0.55228 0.13317 0.6359 0.0
H3029 H 0.47723 0.06181 0.57055 0.0
H3030 H 0.46913 0.06487 0.59953 0.0
H3031 H 0.46147 0.0893 0.58046 0.0
H3032 H 0.45785 0.09281 0.67428 0.0
H3033 H 0.43932 0.15368 0.63127 0.0
H3034 H 0.51051 0.07556 0.65705 0.0
H3035 H 0.49734 0.05977 0.63352 0.0
H3036 H 0.48212 0.05815 0.66018 0.0
H3037 H 0.492 0.15253 0.59908 0.0
H3038 H 0.45941 0.16061 0.59725 0.0
H3039 H 0.47121 0.13318 0.58352 0.0
C3040 C 0.67623 0.79076 0.32133 0.0
C3041 C 0.65256 0.78746 0.31187 0.0
C3042 C 0.68643 0.7724 0.33535 0.0
C3043 C 0.67242 0.7506 0.34004 0.0
C3044 C 0.64966 0.74627 0.32873 0.0
C3045 C 0.6401 0.76471 0.31471 0.0
C3046 C 0.71113 0.77735 0.34651 0.0
C3047 C 0.6341 0.72325 0.33306 0.0
C3048 C 0.69002 0.6936 0.3736 0.0
C3049 C 0.67711 0.69837 0.39346 0.0
C3050 C 0.69098 0.71151 0.35656 0.0
C3051 C 0.6786 0.73459 0.35943 0.0
C3052 C 0.66791 0.74049 0.38023 0.0
C3053 C 0.66747 0.72244 0.39699 0.0
C3054 C 0.70352 0.70492 0.33494 0.0
C3055 C 0.65461 0.76499 0.38414 0.0
H3056 H 0.68596 0.80831 0.31901 0.0
H3057 H 0.62201 0.762 0.30699 0.0
H3058 H 0.70778 0.7853 0.36324 0.0
H3059 H 0.72196 0.75986 0.34861 0.0
H3060 H 0.7225 0.79092 0.33693 0.0
H3061 H 0.61813 0.72165 0.32139 0.0
H3062 H 0.64569 0.70619 0.33163 0.0
H3063 H 0.62663 0.72393 0.35023 0.0
H3064 H 0.69842 0.67548 0.37089 0.0
H3065 H 0.65784 0.72687 0.41222 0.0
H3066 H 0.71294 0.72142 0.32762 0.0
H3067 H 0.68925 0.6984 0.32293 0.0
H3068 H 0.71744 0.68976 0.33716 0.0
H3069 H 0.66642 0.78086 0.37877 0.0
H3070 H 0.64959 0.76773 0.40186 0.0
H3071 H 0.63721 0.7655 0.37415 0.0
C3072 C 0.02238 0.90337 0.16057 0.0
C3073 C 0.04211 0.88734 0.16604 0.0
C3074 C 0.0065 0.8981 0.14268 0.0
C3075 C 0.0108 0.87653 0.12967 0.0
C3076 C 0.03086 0.86037 0.13503 0.0
C3077 C 0.04611 0.86584 0.15334 0.0
C3078 C 0.98498 0.91547 0.13784 0.0
C3079 C 0.0363 0.83742 0.12132 0.0
C3080 C 0.95762 0.8487 0.09632 0.0
C3081 C 0.96241 0.8581 0.07506 0.0
C3082 C 0.97298 0.85492 0.11431 0.0
C3083 C 0.99391 0.87054 0.11083 0.0
C3084 C 0.99873 0.88025 0.08937 0.0
C3085 C 0.9827 0.8741 0.07172 0.0
C3086 C 0.9669 0.84462 0.13701 0.0
C3087 C 0.0211 0.89663 0.08496 0.0
H3088 H 0.01922 0.91988 0.17056 0.0
H3089 H 0.06158 0.85365 0.15744 0.0
H3090 H 0.98662 0.92297 0.12075 0.0
H3091 H 0.96711 0.90505 0.13874 0.0
H3092 H 0.98415 0.93137 0.14964 0.0
H3093 H 0.05323 0.82738 0.12713 0.0
H3094 H 0.02021 0.82442 0.12202 0.0
H3095 H 0.03897 0.8427 0.10368 0.0
H3096 H 0.94179 0.83641 0.09884 0.0
H3097 H 0.98644 0.88115 0.05519 0.0
H3098 H 0.96501 0.8601 0.14912 0.0
H3099 H 0.98234 0.8325 0.14285 0.0
H3100 H 0.94936 0.83356 0.13705 0.0
H3101 H 0.0204 0.91345 0.09567 0.0
H3102 H 0.02218 0.90269 0.06736 0.0
H3103 H 0.03846 0.8864 0.0892 0.0
C3104 C 0.63674 0.76107 0.8055 0.0
C3105 C 0.64752 0.73812 0.79993 0.0
C3106 C 0.64545 0.77479 0.82365 0.0
C3107 C 0.66577 0.76549 0.83621 0.0
C3108 C 0.67903 0.74431 0.82856 0.0
C3109 C 0.66955 0.7306 0.81053 0.0
C3110 C 0.63085 0.79747 0.83096 0.0
C3111 C 0.70166 0.73467 0.84072 0.0
C3112 C 0.67836 0.80879 0.88443 0.0
C3113 C 0.6623 0.79866 0.90046 0.0
C3114 C 0.68212 0.79673 0.86399 0.0
C3115 C 0.66889 0.77447 0.85937 0.0
C3116 C 0.65455 0.76303 0.8763 0.0
C3117 C 0.65174 0.77513 0.89672 0.0
C3118 C 0.69869 0.80886 0.84689 0.0
C3119 C 0.64002 0.73929 0.87219 0.0
H3120 H 0.61998 0.76709 0.79694 0.0
H3121 H 0.6781 0.71296 0.80608 0.0
H3122 H 0.62058 0.79311 0.84648 0.0
H3123 H 0.64361 0.81325 0.83454 0.0
H3124 H 0.61713 0.80356 0.81825 0.0
H3125 H 0.71369 0.7233 0.82963 0.0
H3126 H 0.71285 0.75024 0.84769 0.0
H3127 H 0.69559 0.72265 0.8547 0.0
H3128 H 0.68712 0.8267 0.88747 0.0
H3129 H 0.63947 0.76706 0.90901 0.0
H3130 H 0.68739 0.82169 0.83652 0.0
H3131 H 0.70741 0.79481 0.83581 0.0
H3132 H 0.71363 0.82003 0.85494 0.0
H3133 H 0.62521 0.74283 0.8597 0.0
H3134 H 0.63107 0.73204 0.88752 0.0
H3135 H 0.65243 0.72459 0.86544 0.0
C3136 C 0.48297 0.45728 0.16156 0.0
C3137 C 0.48109 0.43318 0.17052 0.0
C3138 C 0.49706 0.46172 0.1423 0.0
C3139 C 0.50918 0.4415 0.13175 0.0
C3140 C 0.50833 0.41741 0.1414 0.0
C3141 C 0.49434 0.4136 0.16064 0.0
C3142 C 0.49788 0.48775 0.13279 0.0
C3143 C 0.52102 0.39523 0.13073 0.0
C3144 C 0.51857 0.43056 0.0712 0.0
C3145 C 0.54465 0.42929 0.07039 0.0
C3146 C 0.50638 0.43802 0.09062 0.0
C3147 C 0.52074 0.44422 0.10954 0.0
C3148 C 0.54697 0.4465 0.1077 0.0
C3149 C 0.55872 0.43886 0.08804 0.0
C3150 C 0.47831 0.43594 0.09171 0.0
C3151 C 0.56282 0.45391 0.1273 0.0
H3152 H 0.47304 0.47254 0.16937 0.0
H3153 H 0.49275 0.39489 0.16725 0.0
H3154 H 0.51625 0.49179 0.1251 0.0
H3155 H 0.48342 0.48952 0.11971 0.0
H3156 H 0.49401 0.50203 0.14571 0.0
H3157 H 0.51949 0.37806 0.14098 0.0
H3158 H 0.5125 0.39143 0.11429 0.0
H3159 H 0.5411 0.39924 0.12801 0.0
H3160 H 0.50772 0.42363 0.0573 0.0
H3161 H 0.57893 0.43809 0.08737 0.0
H3162 H 0.47022 0.4519 0.10094 0.0
H3163 H 0.47319 0.41859 0.1007 0.0
H3164 H 0.46978 0.43522 0.07492 0.0
H3165 H 0.55358 0.46872 0.1372 0.0
H3166 H 0.5815 0.46061 0.12198 0.0
H3167 H 0.5655 0.43748 0.13825 0.0
C3168 C 0.88139 0.24436 0.40668 0.0
C3169 C 0.85791 0.23719 0.41463 0.0
C3170 C 0.88361 0.25967 0.38793 0.0
C3171 C 0.86178 0.26803 0.37692 0.0
C3172 C 0.83801 0.26155 0.38528 0.0
C3173 C 0.83637 0.2462 0.40406 0.0
C3174 C 0.90934 0.2663 0.37954 0.0
C3175 C 0.81438 0.27035 0.3741 0.0
C3176 C 0.87465 0.32265 0.33911 0.0
C3177 C 0.87928 0.3104 0.31903 0.0
C3178 C 0.86696 0.30929 0.35787 0.0
C3179 C 0.86414 0.28309 0.35638 0.0
C3180 C 0.86682 0.271 0.3356 0.0
C3181 C 0.87444 0.28488 0.31707 0.0
C3182 C 0.86411 0.3229 0.37965 0.0
C3183 C 0.86382 0.2431 0.33335 0.0
H3184 H 0.89808 0.23724 0.41461 0.0
H3185 H 0.81817 0.24101 0.41037 0.0
H3186 H 0.91198 0.25866 0.36259 0.0
H3187 H 0.91138 0.28686 0.37843 0.0
H3188 H 0.92437 0.2589 0.3904 0.0
H3189 H 0.79736 0.26471 0.38336 0.0
H3190 H 0.81452 0.29097 0.37248 0.0
H3191 H 0.81331 0.26252 0.35709 0.0
H3192 H 0.87879 0.3424 0.34052 0.0
H3193 H 0.87848 0.27549 0.30154 0.0
H3194 H 0.88041 0.31874 0.3904 0.0
H3195 H 0.84715 0.31653 0.38855 0.0
H3196 H 0.863 0.34343 0.37731 0.0
H3197 H 0.87977 0.23363 0.34155 0.0
H3198 H 0.86322 0.23712 0.31571 0.0
H3199 H 0.84652 0.23674 0.34173 0.0
C3200 C 0.99682 0.60219 0.67189 0.0
C3201 C 0.01079 0.58358 0.68243 0.0
C3202 C 0.98505 0.59765 0.65158 0.0
C3203 C 0.98708 0.57376 0.64166 0.0
C3204 C 0.99997 0.55443 0.65281 0.0
C3205 C 0.01191 0.55966 0.67304 0.0
C3206 C 0.97155 0.61887 0.64022 0.0
C3207 C 1.0021 0.52861 0.64302 0.0
C3208 C 0.94138 0.57062 0.59436 0.0
C3209 C 0.95606 0.58049 0.57722 0.0
C3210 C 0.95193 0.56533 0.61515 0.0
C3211 C 0.97755 0.5703 0.61874 0.0
C3212 C 0.99292 0.57727 0.60068 0.0
C3213 C 0.98196 0.58219 0.58006 0.0
C3214 C 0.93512 0.55711 0.63385 0.0
C3215 C 0.02041 0.58247 0.6037 0.0
H3216 H 0.99615 0.62075 0.67897 0.0
H3217 H 0.02245 0.54516 0.68136 0.0
H3218 H 0.9811 0.62353 0.62441 0.0
H3219 H 0.95216 0.61329 0.63611 0.0
H3220 H 0.97084 0.63597 0.65063 0.0
H3221 H 0.00744 0.5146 0.65576 0.0
H3222 H 0.98428 0.52277 0.63522 0.0
H3223 H 0.01664 0.52863 0.62993 0.0
H3224 H 0.92135 0.56917 0.59221 0.0
H3225 H 0.99337 0.58936 0.56664 0.0
H3226 H 0.93021 0.57351 0.6442 0.0
H3227 H 0.94468 0.54337 0.64468 0.0
H3228 H 0.91754 0.54872 0.62752 0.0
H3229 H 0.02278 0.60032 0.6128 0.0
H3230 H 0.03032 0.58398 0.58757 0.0
H3231 H 0.02935 0.56758 0.6137 0.0
C3232 C 0.64716 0.31526 0.63596 0.0
C3233 C 0.64426 0.3093 0.65841 0.0
C3234 C 0.65031 0.29635 0.62009 0.0
C3235 C 0.65058 0.27108 0.62702 0.0
C3236 C 0.64986 0.26527 0.64993 0.0
C3237 C 0.64652 0.2845 0.66537 0.0
C3238 C 0.65109 0.30328 0.59583 0.0
C3239 C 0.65037 0.23861 0.65803 0.0
C3240 C 0.62184 0.22151 0.59019 0.0
C3241 C 0.643 0.20914 0.58215 0.0
C3242 C 0.62412 0.24217 0.6043 0.0
C3243 C 0.64819 0.25068 0.6105 0.0
C3244 C 0.66964 0.23875 0.60192 0.0
C3245 C 0.66679 0.2181 0.58783 0.0
C3246 C 0.60075 0.25446 0.61308 0.0
C3247 C 0.69556 0.2474 0.60802 0.0
H3248 H 0.64497 0.33448 0.63066 0.0
H3249 H 0.64398 0.28003 0.68277 0.0
H3250 H 0.66556 0.29235 0.58697 0.0
H3251 H 0.63284 0.29883 0.58808 0.0
H3252 H 0.65489 0.32348 0.59341 0.0
H3253 H 0.65295 0.23746 0.67629 0.0
H3254 H 0.63251 0.22933 0.6537 0.0
H3255 H 0.6656 0.22805 0.64984 0.0
H3256 H 0.60346 0.21458 0.5859 0.0
H3257 H 0.68322 0.209 0.58124 0.0
H3258 H 0.60111 0.27476 0.60947 0.0
H3259 H 0.59988 0.2523 0.63138 0.0
H3260 H 0.58352 0.24637 0.60578 0.0
H3261 H 0.69751 0.26772 0.60496 0.0
H3262 H 0.71026 0.2374 0.59852 0.0
H3263 H 0.69882 0.24426 0.62598 0.0
C3264 C 0.94954 0.39568 0.88958 0.0
C3265 C 0.94448 0.40827 0.90945 0.0
C3266 C 0.96877 0.40346 0.87559 0.0
C3267 C 0.98291 0.42483 0.8813 0.0
C3268 C 0.9762 0.43918 0.9001 0.0
C3269 C 0.95712 0.43055 0.91419 0.0
C3270 C 0.97485 0.38788 0.85537 0.0
C3271 C 0.98984 0.46294 0.90581 0.0
C3272 C 0.04771 0.41495 0.85967 0.0
C3273 C 0.04484 0.42345 0.83789 0.0
C3274 C 0.02841 0.41779 0.87514 0.0
C3275 C 0.00611 0.43003 0.86868 0.0
C3276 C 0.00469 0.44167 0.84764 0.0
C3277 C 0.02389 0.4377 0.83225 0.0
C3278 C 0.03068 0.4048 0.89728 0.0
C3279 C 0.982 0.45617 0.84038 0.0
H3280 H 0.93914 0.37893 0.8855 0.0
H3281 H 0.95298 0.44053 0.9294 0.0
H3282 H 0.97361 0.3995 0.84019 0.0
H3283 H 0.99424 0.38071 0.85654 0.0
H3284 H 0.96204 0.37171 0.85344 0.0
H3285 H 0.97946 0.47424 0.9182 0.0
H3286 H 0.00843 0.45838 0.91281 0.0
H3287 H 0.99289 0.47436 0.89069 0.0
H3288 H 0.06391 0.40383 0.86391 0.0
H3289 H 0.02187 0.4444 0.81539 0.0
H3290 H 0.01891 0.38775 0.89718 0.0
H3291 H 0.02392 0.41697 0.91087 0.0
H3292 H 0.05023 0.39922 0.90093 0.0
H3293 H 0.97098 0.44474 0.82854 0.0
H3294 H 0.98786 0.47337 0.83155 0.0
H3295 H 0.96984 0.46158 0.85447 0.0
C3296 C 0.88011 0.74786 0.07396 0.0
C3297 C 0.85895 0.76285 0.07094 0.0
C3298 C 0.882 0.7318 0.09219 0.0
C3299 C 0.86227 0.73074 0.10779 0.0
C3300 C 0.84002 0.74418 0.10385 0.0
C3301 C 0.83862 0.76012 0.08543 0.0
C3302 C 0.90602 0.71753 0.09567 0.0
C3303 C 0.81842 0.7432 0.11989 0.0
C3304 C 0.87333 0.68048 0.15064 0.0
C3305 C 0.88756 0.69379 0.16613 0.0
C3306 C 0.86283 0.69266 0.13225 0.0
C3307 C 0.86679 0.7186 0.12953 0.0
C3308 C 0.87897 0.7324 0.1464 0.0
C3309 C 0.88932 0.71976 0.16448 0.0
C3310 C 0.84965 0.67739 0.11478 0.0
C3311 C 0.88326 0.76016 0.14432 0.0
H3312 H 0.89594 0.74986 0.06296 0.0
H3313 H 0.82197 0.77121 0.08286 0.0
H3314 H 0.91629 0.72557 0.10997 0.0
H3315 H 0.90203 0.69771 0.0996 0.0
H3316 H 0.91835 0.71824 0.08087 0.0
H3317 H 0.80094 0.75037 0.1123 0.0
H3318 H 0.81519 0.72386 0.1258 0.0
H3319 H 0.82281 0.75483 0.13461 0.0
H3320 H 0.87211 0.66033 0.15194 0.0
H3321 H 0.90027 0.72995 0.17662 0.0
H3322 H 0.86268 0.67375 0.10084 0.0
H3323 H 0.83334 0.68758 0.10798 0.0
H3324 H 0.84328 0.65915 0.12146 0.0
H3325 H 0.89727 0.76374 0.13113 0.0
H3326 H 0.89019 0.7685 0.16003 0.0
H3327 H 0.86577 0.76979 0.13946 0.0
C3328 C 0.53264 0.5874 0.41732 0.0
C3329 C 0.55711 0.58902 0.40937 0.0
C3330 C 0.5128 0.58258 0.40271 0.0
C3331 C 0.51781 0.57942 0.3798 0.0
C3332 C 0.54281 0.57777 0.37237 0.0
C3333 C 0.56223 0.58275 0.38729 0.0
C3334 C 0.48643 0.58412 0.41136 0.0
C3335 C 0.54904 0.57409 0.34817 0.0
C3336 C 0.46562 0.56928 0.33783 0.0
C3337 C 0.46151 0.59378 0.3305 0.0
C3338 C 0.48365 0.56413 0.35416 0.0
C3339 C 0.49771 0.58399 0.36331 0.0
C3340 C 0.49329 0.60879 0.35613 0.0
C3341 C 0.4753 0.61332 0.33983 0.0
C3342 C 0.48798 0.53749 0.36128 0.0
C3343 C 0.50775 0.63061 0.36552 0.0
H3344 H 0.52876 0.59241 0.43441 0.0
H3345 H 0.58125 0.58406 0.38124 0.0
H3346 H 0.47875 0.60292 0.40774 0.0
H3347 H 0.47425 0.5702 0.40309 0.0
H3348 H 0.48567 0.5811 0.42958 0.0
H3349 H 0.56872 0.56812 0.34584 0.0
H3350 H 0.53657 0.56003 0.34047 0.0
H3351 H 0.5463 0.59198 0.3392 0.0
H3352 H 0.4551 0.55413 0.33048 0.0
H3353 H 0.47181 0.6323 0.33447 0.0
H3354 H 0.4876 0.536 0.37964 0.0
H3355 H 0.50673 0.53133 0.35573 0.0
H3356 H 0.47384 0.52455 0.35424 0.0
H3357 H 0.50544 0.63139 0.3838 0.0
H3358 H 0.50163 0.64874 0.35843 0.0
H3359 H 0.52795 0.62824 0.36205 0.0
C3360 C 0.35927 0.30691 0.17664 0.0
C3361 C 0.36863 0.33041 0.17093 0.0
C3362 C 0.3502 0.29074 0.16021 0.0
C3363 C 0.35038 0.29855 0.13775 0.0
C3364 C 0.3575 0.32324 0.13233 0.0
C3365 C 0.36681 0.33884 0.14902 0.0
C3366 C 0.34286 0.26453 0.16663 0.0
C3367 C 0.35756 0.33241 0.10864 0.0
C3368 C 0.36662 0.25042 0.09426 0.0
C3369 C 0.34329 0.24525 0.08489 0.0
C3370 C 0.36901 0.26749 0.11168 0.0
C3371 C 0.34752 0.27989 0.11978 0.0
C3372 C 0.32386 0.27477 0.11041 0.0
C3373 C 0.322 0.25733 0.0931 0.0
C3374 C 0.39459 0.27222 0.1214 0.0
C3375 C 0.30066 0.28791 0.11847 0.0
H3376 H 0.36093 0.30044 0.19362 0.0
H3377 H 0.37408 0.35711 0.14475 0.0
H3378 H 0.32569 0.25866 0.15778 0.0
H3379 H 0.35799 0.25147 0.1618 0.0
H3380 H 0.33971 0.26274 0.18478 0.0
H3381 H 0.35937 0.35303 0.1077 0.0
H3382 H 0.37352 0.32395 0.09964 0.0
H3383 H 0.34022 0.32671 0.09995 0.0
H3384 H 0.383 0.24072 0.08821 0.0
H3385 H 0.30398 0.2534 0.08572 0.0
H3386 H 0.39443 0.26839 0.13949 0.0
H3387 H 0.39976 0.29211 0.11917 0.0
H3388 H 0.40924 0.26048 0.11358 0.0
H3389 H 0.29827 0.28491 0.13655 0.0
H3390 H 0.28359 0.28134 0.10979 0.0
H3391 H 0.30256 0.30831 0.11582 0.0
C3392 C 0.55144 0.59349 0.83557 0.0
C3393 C 0.5481 0.61655 0.82495 0.0
C3394 C 0.53572 0.58606 0.85301 0.0
C3395 C 0.51653 0.6023 0.86016 0.0
C3396 C 0.51267 0.62529 0.84904 0.0
C3397 C 0.52841 0.63204 0.83149 0.0
C3398 C 0.54011 0.56124 0.86417 0.0
C3399 C 0.4925 0.64328 0.85621 0.0
C3400 C 0.46007 0.58867 0.89538 0.0
C3401 C 0.46683 0.60101 0.91493 0.0
C3402 C 0.47726 0.58617 0.87792 0.0
C3403 C 0.50143 0.59658 0.88021 0.0
C3404 C 0.5091 0.60627 0.90098 0.0
C3405 C 0.49162 0.60836 0.91814 0.0
C3406 C 0.46856 0.57514 0.85623 0.0
C3407 C 0.53469 0.61749 0.90422 0.0
H3408 H 0.56644 0.58131 0.83027 0.0
H3409 H 0.52594 0.64993 0.82343 0.0
H3410 H 0.54806 0.56434 0.88094 0.0
H3411 H 0.52224 0.55105 0.86633 0.0
H3412 H 0.55322 0.5493 0.85462 0.0
H3413 H 0.49151 0.66002 0.84537 0.0
H3414 H 0.47405 0.63389 0.856 0.0
H3415 H 0.49604 0.64952 0.87349 0.0
H3416 H 0.44077 0.58328 0.89288 0.0
H3417 H 0.49663 0.61817 0.93325 0.0
H3418 H 0.48361 0.56405 0.84831 0.0
H3419 H 0.46347 0.59044 0.84469 0.0
H3420 H 0.45192 0.56305 0.85855 0.0
H3421 H 0.54928 0.60547 0.89675 0.0
H3422 H 0.5391 0.62031 0.92206 0.0
H3423 H 0.53549 0.63589 0.8958 0.0
C3424 C 0.09521 0.72265 0.68979 0.0
C3425 C 0.10467 0.69955 0.69669 0.0
C3426 C 0.10496 0.73478 0.67113 0.0
C3427 C 0.12448 0.72336 0.659 0.0
C3428 C 0.13519 0.70081 0.66677 0.0
C3429 C 0.12516 0.68917 0.68565 0.0
C3430 C 0.09328 0.759 0.66361 0.0
C3431 C 0.15605 0.68813 0.65429 0.0
C3432 C 0.12592 0.73867 0.5975 0.0
C3433 C 0.14496 0.75654 0.59653 0.0
C3434 C 0.11948 0.72728 0.61768 0.0
C3435 C 0.13227 0.7341 0.63736 0.0
C3436 C 0.15165 0.75196 0.63646 0.0
C3437 C 0.15777 0.76294 0.61606 0.0
C3438 C 0.09875 0.70819 0.61799 0.0
C3439 C 0.1655 0.75992 0.65711 0.0
H3440 H 0.07926 0.73056 0.69836 0.0
H3441 H 0.1322 0.67112 0.69085 0.0
H3442 H 0.1079 0.77316 0.66028 0.0
H3443 H 0.08297 0.75591 0.64788 0.0
H3444 H 0.08007 0.76663 0.67609 0.0
H3445 H 0.16406 0.67222 0.66373 0.0
H3446 H 0.14886 0.68101 0.63822 0.0
H3447 H 0.17119 0.70159 0.65051 0.0
H3448 H 0.11616 0.73353 0.58244 0.0
H3449 H 0.17218 0.77708 0.61555 0.0
H3450 H 0.08319 0.71495 0.62854 0.0
H3451 H 0.10557 0.69048 0.62535 0.0
H3452 H 0.09134 0.70425 0.60113 0.0
H3453 H 0.15239 0.76911 0.66878 0.0
H3454 H 0.18096 0.77308 0.6534 0.0
H3455 H 0.17331 0.74339 0.66574 0.0
C3456 C 0.02261 0.41255 0.42044 0.0
C3457 C 0.04827 0.41646 0.42335 0.0
C3458 C 0.01071 0.41967 0.40077 0.0
C3459 C 0.02469 0.43171 0.38395 0.0
C3460 C 0.04954 0.43917 0.38828 0.0
C3461 C 0.06125 0.43111 0.40788 0.0
C3462 C 0.98402 0.4116 0.39703 0.0
C3463 C 0.06452 0.45346 0.37134 0.0
C3464 C 0.00645 0.4059 0.3282 0.0
C3465 C 0.98728 0.42219 0.32203 0.0
C3466 C 0.02018 0.40987 0.34762 0.0
C3467 C 0.01506 0.43114 0.36084 0.0
C3468 C 0.99773 0.44918 0.3533 0.0
C3469 C 0.98365 0.44425 0.33412 0.0
C3470 C 0.03835 0.38997 0.35504 0.0
C3471 C 0.99267 0.47278 0.36616 0.0
H3472 H 0.01233 0.40195 0.43274 0.0
H3473 H 0.08103 0.43454 0.41008 0.0
H3474 H 0.97269 0.42743 0.39084 0.0
H3475 H 0.9835 0.39671 0.38422 0.0
H3476 H 0.97522 0.40429 0.4124 0.0
H3477 H 0.08027 0.46362 0.37924 0.0
H3478 H 0.07242 0.44029 0.35901 0.0
H3479 H 0.05261 0.46702 0.3623 0.0
H3480 H 0.00923 0.38883 0.31893 0.0
H3481 H 0.96907 0.45707 0.3291 0.0
H3482 H 0.0314 0.38104 0.37047 0.0
H3483 H 0.05678 0.39833 0.35881 0.0
H3484 H 0.041 0.37521 0.3423 0.0
H3485 H 0.97744 0.46936 0.37824 0.0
H3486 H 0.98652 0.48802 0.35493 0.0
H3487 H 0.0094 0.47906 0.37547 0.0
C3488 C 0.33107 0.69737 0.3313 0.0
C3489 C 0.34215 0.70314 0.31088 0.0
C3490 C 0.32804 0.71577 0.34761 0.0
C3491 C 0.33649 0.74033 0.3433 0.0
C3492 C 0.34417 0.74689 0.32158 0.0
C3493 C 0.34686 0.72812 0.30552 0.0
C3494 C 0.3192 0.70806 0.37037 0.0
C3495 C 0.35294 0.77294 0.31614 0.0
C3496 C 0.33308 0.78934 0.38901 0.0
C3497 C 0.35665 0.78667 0.39892 0.0
C3498 C 0.3261 0.77455 0.37075 0.0
C3499 C 0.34316 0.75681 0.36225 0.0
C3500 C 0.36706 0.75427 0.3721 0.0
C3501 C 0.37344 0.76918 0.3903 0.0
C3502 C 0.30043 0.77764 0.36082 0.0
C3503 C 0.38599 0.73574 0.36345 0.0
H3504 H 0.32734 0.67801 0.33538 0.0
H3505 H 0.35551 0.73257 0.28974 0.0
H3506 H 0.33562 0.70515 0.3813 0.0
H3507 H 0.30745 0.72278 0.37798 0.0
H3508 H 0.30839 0.69038 0.36977 0.0
H3509 H 0.35287 0.77639 0.29796 0.0
H3510 H 0.3411 0.78716 0.32437 0.0
H3511 H 0.37232 0.77538 0.32228 0.0
H3512 H 0.31996 0.80269 0.39579 0.0
H3513 H 0.3918 0.76738 0.39765 0.0
H3514 H 0.28917 0.76068 0.36416 0.0
H3515 H 0.30166 0.77975 0.34254 0.0
H3516 H 0.29043 0.79403 0.36777 0.0
H3517 H 0.37833 0.71653 0.36451 0.0
H3518 H 0.40381 0.73635 0.37285 0.0
H3519 H 0.39007 0.73957 0.34573 0.0
C3520 C 0.01173 0.59039 0.13499 0.0
C3521 C 0.01311 0.59018 0.15826 0.0
C3522 C 0.03328 0.59312 0.12204 0.0
C3523 C 0.05668 0.59599 0.13262 0.0
C3524 C 0.05861 0.59185 0.15572 0.0
C3525 C 0.03677 0.5888 0.16829 0.0
C3526 C 0.03051 0.59634 0.09728 0.0
C3527 C 0.08333 0.59379 0.16756 0.0
C3528 C 0.11089 0.61197 0.09417 0.0
C3529 C 0.10862 0.63809 0.09301 0.0
C3530 C 0.09502 0.59774 0.10789 0.0
C3531 C 0.07666 0.60996 0.12083 0.0
C3532 C 0.07542 0.63632 0.12084 0.0
C3533 C 0.09103 0.6499 0.10678 0.0
C3534 C 0.09709 0.56968 0.10745 0.0
C3535 C 0.05642 0.65033 0.13465 0.0
H3536 H 0.99378 0.59076 0.1268 0.0
H3537 H 0.03826 0.58723 0.18614 0.0
H3538 H 0.03131 0.61651 0.09314 0.0
H3539 H 0.04595 0.58691 0.08834 0.0
H3540 H 0.01246 0.58879 0.09118 0.0
H3541 H 0.08286 0.58412 0.18386 0.0
H3542 H 0.09862 0.58581 0.15738 0.0
H3543 H 0.08769 0.61376 0.17054 0.0
H3544 H 0.12453 0.60251 0.08393 0.0
H3545 H 0.0882 0.66986 0.10579 0.0
H3546 H 0.08393 0.56219 0.09489 0.0
H3547 H 0.0922 0.56132 0.12372 0.0
H3548 H 0.11621 0.56364 0.10277 0.0
H3549 H 0.03735 0.64636 0.12838 0.0
H3550 H 0.05939 0.67084 0.13422 0.0
H3551 H 0.05724 0.64414 0.1522 0.0
C3552 C 0.14941 0.28858 0.82427 0.0
C3553 C 0.13339 0.28533 0.80618 0.0
C3554 C 0.15222 0.26969 0.84015 0.0
C3555 C 0.13841 0.2473 0.8378 0.0
C3556 C 0.12479 0.24283 0.81805 0.0
C3557 C 0.12247 0.26202 0.80237 0.0
C3558 C 0.16719 0.27511 0.86081 0.0
C3559 C 0.10992 0.2192 0.81479 0.0
C3560 C 0.14473 0.19668 0.88162 0.0
C3561 C 0.12493 0.20263 0.89594 0.0
C3562 C 0.1494 0.2109 0.8625 0.0
C3563 C 0.13384 0.23148 0.85761 0.0
C3564 C 0.11373 0.23747 0.87194 0.0
C3565 C 0.10959 0.22301 0.89093 0.0
C3566 C 0.17098 0.20403 0.84762 0.0
C3567 C 0.09651 0.25918 0.86721 0.0
H3568 H 0.15753 0.30682 0.82727 0.0
H3569 H 0.10975 0.25976 0.78851 0.0
H3570 H 0.15431 0.28049 0.87441 0.0
H3571 H 0.17764 0.25836 0.86631 0.0
H3572 H 0.18059 0.29065 0.85816 0.0
H3573 H 0.10507 0.21625 0.79705 0.0
H3574 H 0.12032 0.20269 0.82092 0.0
H3575 H 0.09228 0.22051 0.82437 0.0
H3576 H 0.15682 0.1811 0.88556 0.0
H3577 H 0.09405 0.22741 0.90173 0.0
H3578 H 0.18448 0.2197 0.84685 0.0
H3579 H 0.16422 0.20072 0.83047 0.0
H3580 H 0.18093 0.18706 0.85346 0.0
H3581 H 0.10737 0.27679 0.86647 0.0
H3582 H 0.08173 0.26126 0.88 0.0
H3583 H 0.08739 0.25664 0.85083 0.0
C3584 C 0.43348 0.3698 0.59139 0.0
C3585 C 0.44103 0.3643 0.56972 0.0
C3586 C 0.4503 0.38004 0.60665 0.0
C3587 C 0.47529 0.38425 0.60006 0.0
C3588 C 0.48249 0.38028 0.57772 0.0
C3589 C 0.46511 0.37045 0.5627 0.0
C3590 C 0.44181 0.3845 0.6302 0.0
C3591 C 0.50904 0.38434 0.57016 0.0
C3592 C 0.52013 0.41817 0.63829 0.0
C3593 C 0.53162 0.39809 0.64915 0.0
C3594 C 0.50145 0.41406 0.6224 0.0
C3595 C 0.49453 0.3893 0.61711 0.0
C3596 C 0.50607 0.36898 0.62809 0.0
C3597 C 0.52438 0.37366 0.64409 0.0
C3598 C 0.48912 0.43612 0.61133 0.0
C3599 C 0.49934 0.34226 0.62274 0.0
H3600 H 0.41473 0.36498 0.59666 0.0
H3601 H 0.47084 0.36592 0.54592 0.0
H3602 H 0.44959 0.36978 0.64114 0.0
H3603 H 0.44877 0.40272 0.63637 0.0
H3604 H 0.42115 0.38415 0.63169 0.0
H3605 H 0.51083 0.38343 0.55181 0.0
H3606 H 0.51608 0.40269 0.57593 0.0
H3607 H 0.5212 0.36977 0.57753 0.0
H3608 H 0.52561 0.43706 0.64243 0.0
H3609 H 0.53353 0.35816 0.65228 0.0
H3610 H 0.46865 0.43541 0.61405 0.0
H3611 H 0.49227 0.43536 0.59316 0.0
H3612 H 0.4963 0.4542 0.6177 0.0
H3613 H 0.47922 0.33903 0.62597 0.0
H3614 H 0.51029 0.32865 0.63267 0.0
H3615 H 0.50267 0.33851 0.60488 0.0
loop_
_geom_bond_atom_site_label_1
_geom_bond_atom_site_label_2
_geom_bond_distance
_geom_bond_site_symmetry_2
_ccdc_geom_bond_type
C0 C1 1.351 . S
C0 N3 1.368 . S
C0 H5 0.931 . S
C1 C0 1.351 . S
C1 N2 1.373 . S
C1 H29 0.930 . S
N2 C1 1.373 . S
N2 C4 1.340 . S
N3 C0 1.368 . S
N3 C4 1.321 . S
N3 Co6 2.135 . S
C4 N2 1.340 . S
C4 N3 1.321 . S
C4 H28 0.930 . S
H5 C0 0.931 . S
Co6 N3 2.135 . S
Co6 N9 2.121 . S
Co6 O14 2.055 . S
Co6 O17 2.039 . S
Co6 N20 2.140 . S
C7 O8 1.227 . S
C7 O17 1.265 . S
O8 C7 1.227 . S
N9 Co6 2.121 . S
N9 C11 1.375 . S
N9 C12 1.313 . S
C10 C11 1.338 . S
C10 N13 1.377 . S
C10 H30 0.930 . S
C11 N9 1.375 . S
C11 C10 1.338 . S
C11 H15 0.931 . S
C12 N9 1.313 . S
C12 N13 1.344 . S
C12 H16 0.930 . S
N13 C10 1.377 . S
N13 C12 1.344 . S
O14 Co6 2.055 . S
O14 C18 1.253 . S
H15 C11 0.931 . S
H16 C12 0.930 . S
O17 Co6 2.039 . S
O17 C7 1.265 . S
C18 O14 1.253 . S
C18 O19 1.227 . S
O19 C18 1.227 . S
N20 Co6 2.140 . S
N20 C23 1.346 . S
N20 C24 1.345 . S
C21 C22 1.387 . S
C21 C25 1.391 . S
C22 C21 1.387 . S
C22 C23 1.369 . S
C22 H31 0.929 . S
C23 N20 1.346 . S
C23 C22 1.369 . S
C23 H26 0.928 . S
C24 N20 1.345 . S
C24 C25 1.371 . S
C24 H27 0.931 . S
C25 C21 1.391 . S
C25 C24 1.371 . S
C25 H32 0.930 . S
H26 C23 0.928 . S
H27 C24 0.931 . S
H28 C4 0.930 . S
H29 C1 0.930 . S
H30 C10 0.930 . S
H31 C22 0.929 . S
H32 C25 0.930 . S
C33 C34 1.351 . S
C33 N36 1.368 . S
C33 H38 0.931 . S
C34 C33 1.351 . S
C34 N35 1.373 . S
C34 H62 0.930 . S
N35 C34 1.373 . S
N35 C37 1.340 . S
N36 C33 1.368 . S
N36 C37 1.321 . S
N36 Co39 2.135 . S
C37 N35 1.340 . S
C37 N36 1.321 . S
C37 H61 0.930 . S
H38 C33 0.931 . S
Co39 N36 2.135 . S
Co39 N42 2.121 . S
Co39 O47 2.055 . S
Co39 O50 2.039 . S
Co39 N53 2.140 . S
C40 O41 1.227 . S
C40 O50 1.265 . S
O41 C40 1.227 . S
N42 Co39 2.121 . S
N42 C44 1.375 . S
N42 C45 1.313 . S
C43 C44 1.338 . S
C43 N46 1.377 . S
C43 H63 0.930 . S
C44 N42 1.375 . S
C44 C43 1.338 . S
C44 H48 0.931 . S
C45 N42 1.313 . S
C45 N46 1.344 . S
C45 H49 0.930 . S
N46 C43 1.377 . S
N46 C45 1.344 . S
O47 Co39 2.055 . S
O47 C51 1.253 . S
H48 C44 0.931 . S
H49 C45 0.930 . S
O50 Co39 2.039 . S
O50 C40 1.265 . S
C51 O47 1.253 . S
C51 O52 1.227 . S
O52 C51 1.227 . S
N53 Co39 2.140 . S
N53 C56 1.346 . S
N53 C57 1.345 . S
C54 C55 1.387 . S
C54 C58 1.391 . S
C55 C54 1.387 . S
C55 C56 1.369 . S
C55 H64 0.929 . S
C56 N53 1.346 . S
C56 C55 1.369 . S
C56 H59 0.928 . S
C57 N53 1.345 . S
C57 C58 1.371 . S
C57 H60 0.931 . S
C58 C54 1.391 . S
C58 C57 1.371 . S
C58 H65 0.930 . S
H59 C56 0.928 . S
H60 C57 0.931 . S
H61 C37 0.930 . S
H62 C34 0.930 . S
H63 C43 0.930 . S
H64 C55 0.929 . S
H65 C58 0.930 . S
C66 C67 1.351 . S
C66 N69 1.368 . S
C66 H71 0.931 . S
C67 C66 1.351 . S
C67 N68 1.373 . S
C67 H95 0.930 . S
N68 C67 1.373 . S
N68 C70 1.340 . S
N69 C66 1.368 . S
N69 C70 1.321 . S
N69 Co72 2.135 . S
C70 N68 1.340 . S
C70 N69 1.321 . S
C70 H94 0.930 . S
H71 C66 0.931 . S
Co72 N69 2.135 . S
Co72 N75 2.121 . S
Co72 O80 2.055 . S
Co72 O83 2.039 . S
Co72 N86 2.140 . S
C73 O74 1.227 . S
C73 O83 1.265 . S
O74 C73 1.227 . S
N75 Co72 2.121 . S
N75 C77 1.375 . S
N75 C78 1.313 . S
C76 C77 1.338 . S
C76 N79 1.377 . S
C76 H96 0.930 . S
C77 N75 1.375 . S
C77 C76 1.338 . S
C77 H81 0.931 . S
C78 N75 1.313 . S
C78 N79 1.344 . S
C78 H82 0.930 . S
N79 C76 1.377 . S
N79 C78 1.344 . S
O80 Co72 2.055 . S
O80 C84 1.253 . S
H81 C77 0.931 . S
H82 C78 0.930 . S
O83 Co72 2.039 . S
O83 C73 1.265 . S
C84 O80 1.253 . S
C84 O85 1.227 . S
O85 C84 1.227 . S
N86 Co72 2.140 . S
N86 C89 1.346 . S
N86 C90 1.345 . S
C87 C88 1.387 . S
C87 C91 1.391 . S
C88 C87 1.387 . S
C88 C89 1.369 . S
C88 H97 0.929 . S
C89 N86 1.346 . S
C89 C88 1.369 . S
C89 H92 0.928 . S
C90 N86 1.345 . S
C90 C91 1.371 . S
C90 H93 0.931 . S
C91 C87 1.391 . S
C91 C90 1.371 . S
C91 H98 0.930 . S
H92 C89 0.928 . S
H93 C90 0.931 . S
H94 C70 0.930 . S
H95 C67 0.930 . S
H96 C76 0.930 . S
H97 C88 0.929 . S
H98 C91 0.930 . S
C99 C100 1.351 . S
C99 N102 1.368 . S
C99 H104 0.931 . S
C100 C99 1.351 . S
C100 N101 1.373 . S
C100 H128 0.930 . S
N101 C100 1.373 . S
N101 C103 1.340 . S
N102 C99 1.368 . S
N102 C103 1.321 . S
N102 Co105 2.135 . S
C103 N101 1.340 . S
C103 N102 1.321 . S
C103 H127 0.930 . S
H104 C99 0.931 . S
Co105 N102 2.135 . S
Co105 N108 2.121 1_554 S
Co105 O113 2.055 . S
Co105 O116 2.039 . S
Co105 N119 2.140 . S
C106 O107 1.227 . S
C106 O116 1.265 . S
O107 C106 1.227 . S
N108 Co105 2.121 1_556 S
N108 C110 1.375 . S
N108 C111 1.313 . S
C109 C110 1.338 . S
C109 N112 1.377 . S
C109 H129 0.930 . S
C110 N108 1.375 . S
C110 C109 1.338 . S
C110 H114 0.931 . S
C111 N108 1.313 . S
C111 N112 1.344 . S
C111 H115 0.930 . S
N112 C109 1.377 . S
N112 C111 1.344 . S
O113 Co105 2.055 . S
O113 C117 1.253 . S
H114 C110 0.931 . S
H115 C111 0.930 . S
O116 Co105 2.039 . S
O116 C106 1.265 . S
C117 O113 1.253 . S
C117 O118 1.227 . S
O118 C117 1.227 . S
N119 Co105 2.140 . S
N119 C122 1.346 . S
N119 C123 1.345 . S
C120 C121 1.387 . S
C120 C124 1.391 . S
C121 C120 1.387 . S
C121 C122 1.369 . S
C121 H130 0.929 . S
C122 N119 1.346 . S
C122 C121 1.369 . S
C122 H125 0.928 . S
C123 N119 1.345 . S
C123 C124 1.371 . S
C123 H126 0.931 . S
C124 C120 1.391 . S
C124 C123 1.371 . S
C124 H131 0.930 . S
H125 C122 0.928 . S
H126 C123 0.931 . S
H127 C103 0.930 . S
H128 C100 0.930 . S
H129 C109 0.930 . S
H130 C121 0.929 . S
H131 C124 0.930 . S
C132 C133 1.351 . S
C132 N135 1.368 . S
C132 H137 0.931 . S
C133 C132 1.351 . S
C133 N134 1.373 . S
C133 H161 0.930 . S
N134 C133 1.373 . S
N134 C136 1.340 . S
N135 C132 1.368 . S
N135 C136 1.321 . S
N135 Co138 2.135 . S
C136 N134 1.340 . S
C136 N135 1.321 . S
C136 H160 0.930 . S
H137 C132 0.931 . S
Co138 N135 2.135 . S
Co138 N141 2.121 . S
Co138 O146 2.055 . S
Co138 O149 2.039 . S
Co138 N152 2.140 . S
C139 O140 1.227 . S
C139 O149 1.265 . S
O140 C139 1.227 . S
N141 Co138 2.121 . S
N141 C143 1.375 . S
N141 C144 1.313 . S
C142 C143 1.338 . S
C142 N145 1.377 . S
C142 H162 0.930 . S
C143 N141 1.375 . S
C143 C142 1.338 . S
C143 H147 0.931 . S
C144 N141 1.313 . S
C144 N145 1.344 . S
C144 H148 0.930 . S
N145 C142 1.377 . S
N145 C144 1.344 . S
O146 Co138 2.055 . S
O146 C150 1.253 . S
H147 C143 0.931 . S
H148 C144 0.930 . S
O149 Co138 2.039 . S
O149 C139 1.265 . S
C150 O146 1.253 . S
C150 O151 1.227 . S
O151 C150 1.227 . S
N152 Co138 2.140 . S
N152 C155 1.346 . S
N152 C156 1.345 . S
C153 C154 1.387 . S
C153 C157 1.391 . S
C154 C153 1.387 . S
C154 C155 1.369 . S
C154 H163 0.929 . S
C155 N152 1.346 . S
C155 C154 1.369 . S
C155 H158 0.928 . S
C156 N152 1.345 . S
C156 C157 1.371 . S
C156 H159 0.931 . S
C157 C153 1.391 . S
C157 C156 1.371 . S
C157 H164 0.930 . S
H158 C155 0.928 . S
H159 C156 0.931 . S
H160 C136 0.930 . S
H161 C133 0.930 . S
H162 C142 0.930 . S
H163 C154 0.929 . S
H164 C157 0.930 . S
C165 C166 1.351 . S
C165 N168 1.368 . S
C165 H170 0.931 . S
C166 C165 1.351 . S
C166 N167 1.373 . S
C166 H194 0.930 . S
N167 C166 1.373 . S
N167 C169 1.340 . S
N168 C165 1.368 . S
N168 C169 1.321 . S
N168 Co171 2.135 . S
C169 N167 1.340 . S
C169 N168 1.321 . S
C169 H193 0.930 . S
H170 C165 0.931 . S
Co171 N168 2.135 . S
Co171 N174 2.121 . S
Co171 O179 2.055 . S
Co171 O182 2.039 . S
Co171 N185 2.140 . S
C172 O173 1.227 . S
C172 O182 1.265 . S
O173 C172 1.227 . S
N174 Co171 2.121 . S
N174 C176 1.375 . S
N174 C177 1.313 . S
C175 C176 1.338 . S
C175 N178 1.377 . S
C175 H195 0.930 . S
C176 N174 1.375 . S
C176 C175 1.338 . S
C176 H180 0.931 . S
C177 N174 1.313 . S
C177 N178 1.344 . S
C177 H181 0.930 . S
N178 C175 1.377 . S
N178 C177 1.344 . S
O179 Co171 2.055 . S
O179 C183 1.253 . S
H180 C176 0.931 . S
H181 C177 0.930 . S
O182 Co171 2.039 . S
O182 C172 1.265 . S
C183 O179 1.253 . S
C183 O184 1.227 . S
O184 C183 1.227 . S
N185 Co171 2.140 . S
N185 C188 1.346 . S
N185 C189 1.345 . S
C186 C187 1.387 . S
C186 C190 1.391 . S
C187 C186 1.387 . S
C187 C188 1.369 . S
C187 H196 0.929 . S
C188 N185 1.346 . S
C188 C187 1.369 . S
C188 H191 0.928 . S
C189 N185 1.345 . S
C189 C190 1.371 . S
C189 H192 0.931 . S
C190 C186 1.391 . S
C190 C189 1.371 . S
C190 H197 0.930 . S
H191 C188 0.928 . S
H192 C189 0.931 . S
H193 C169 0.930 . S
H194 C166 0.930 . S
H195 C175 0.930 . S
H196 C187 0.929 . S
H197 C190 0.930 . S
C198 C199 1.351 . S
C198 N201 1.368 . S
C198 H203 0.931 . S
C199 C198 1.351 . S
C199 N200 1.373 . S
C199 H227 0.930 . S
N200 C199 1.373 . S
N200 C202 1.340 . S
N201 C198 1.368 . S
N201 C202 1.321 . S
N201 Co204 2.135 . S
C202 N200 1.340 . S
C202 N201 1.321 . S
C202 H226 0.930 . S
H203 C198 0.931 . S
Co204 N201 2.135 . S
Co204 N207 2.121 . S
Co204 O212 2.055 . S
Co204 O215 2.039 . S
Co204 N218 2.140 . S
C205 O206 1.227 . S
C205 O215 1.265 . S
O206 C205 1.227 . S
N207 Co204 2.121 . S
N207 C209 1.375 . S
N207 C210 1.313 . S
C208 C209 1.338 . S
C208 N211 1.377 . S
C208 H228 0.930 . S
C209 N207 1.375 . S
C209 C208 1.338 . S
C209 H213 0.931 . S
C210 N207 1.313 . S
C210 N211 1.344 . S
C210 H214 0.930 . S
N211 C208 1.377 . S
N211 C210 1.344 . S
O212 Co204 2.055 . S
O212 C216 1.253 . S
H213 C209 0.931 . S
H214 C210 0.930 . S
O215 Co204 2.039 . S
O215 C205 1.265 . S
C216 O212 1.253 . S
C216 O217 1.227 . S
O217 C216 1.227 . S
N218 Co204 2.140 . S
N218 C221 1.346 . S
N218 C222 1.345 . S
C219 C220 1.387 . S
C219 C223 1.391 . S
C220 C219 1.387 . S
C220 C221 1.369 . S
C220 H229 0.929 . S
C221 N218 1.346 . S
C221 C220 1.369 . S
C221 H224 0.928 . S
C222 N218 1.345 . S
C222 C223 1.371 . S
C222 H225 0.931 . S
C223 C219 1.391 . S
C223 C222 1.371 . S
C223 H230 0.930 . S
H224 C221 0.928 . S
H225 C222 0.931 . S
H226 C202 0.930 . S
H227 C199 0.930 . S
H228 C208 0.930 . S
H229 C220 0.929 . S
H230 C223 0.930 . S
C231 C232 1.351 . S
C231 N234 1.368 . S
C231 H236 0.931 . S
C232 C231 1.351 . S
C232 N233 1.373 . S
C232 H260 0.930 . S
N233 C232 1.373 . S
N233 C235 1.340 . S
N234 C231 1.368 . S
N234 C235 1.321 . S
N234 Co237 2.135 . S
C235 N233 1.340 . S
C235 N234 1.321 . S
C235 H259 0.930 . S
H236 C231 0.931 . S
Co237 N234 2.135 . S
Co237 N240 2.121 1_556 S
Co237 O245 2.055 . S
Co237 O248 2.039 . S
Co237 N251 2.140 . S
C238 O239 1.227 . S
C238 O248 1.265 . S
O239 C238 1.227 . S
N240 Co237 2.121 1_554 S
N240 C242 1.375 . S
N240 C243 1.313 . S
C241 C242 1.338 . S
C241 N244 1.377 . S
C241 H261 0.930 . S
C242 N240 1.375 . S
C242 C241 1.338 . S
C242 H246 0.931 . S
C243 N240 1.313 . S
C243 N244 1.344 . S
C243 H247 0.930 . S
N244 C241 1.377 . S
N244 C243 1.344 . S
O245 Co237 2.055 . S
O245 C249 1.253 . S
H246 C242 0.931 . S
H247 C243 0.930 . S
O248 Co237 2.039 . S
O248 C238 1.265 . S
C249 O245 1.253 . S
C249 O250 1.227 . S
O250 C249 1.227 . S
N251 Co237 2.140 . S
N251 C254 1.346 . S
N251 C255 1.345 . S
C252 C253 1.387 . S
C252 C256 1.391 . S
C253 C252 1.387 . S
C253 C254 1.369 . S
C253 H262 0.929 . S
C254 N251 1.346 . S
C254 C253 1.369 . S
C254 H257 0.928 . S
C255 N251 1.345 . S
C255 C256 1.371 . S
C255 H258 0.931 . S
C256 C252 1.391 . S
C256 C255 1.371 . S
C256 H263 0.930 . S
H257 C254 0.928 . S
H258 C255 0.931 . S
H259 C235 0.930 . S
H260 C232 0.930 . S
H261 C241 0.930 . S
H262 C253 0.929 . S
H263 C256 0.930 . S
C264 C265 1.351 . S
C264 N267 1.368 . S
C264 H269 0.931 . S
C265 C264 1.351 . S
C265 N266 1.373 . S
C265 H293 0.930 . S
N266 C265 1.373 . S
N266 C268 1.340 . S
N267 C264 1.368 . S
N267 C268 1.321 . S
N267 Co270 2.135 . S
C268 N266 1.340 . S
C268 N267 1.321 . S
C268 H292 0.930 . S
H269 C264 0.931 . S
Co270 N267 2.135 . S
Co270 N273 2.121 . S
Co270 O278 2.055 . S
Co270 O281 2.039 . S
Co270 N284 2.140 . S
C271 O272 1.227 . S
C271 O281 1.265 . S
O272 C271 1.227 . S
N273 Co270 2.121 . S
N273 C275 1.375 . S
N273 C276 1.313 . S
C274 C275 1.338 . S
C274 N277 1.377 . S
C274 H294 0.930 . S
C275 N273 1.375 . S
C275 C274 1.338 . S
C275 H279 0.931 . S
C276 N273 1.313 . S
C276 N277 1.344 . S
C276 H280 0.930 . S
N277 C274 1.377 . S
N277 C276 1.344 . S
O278 Co270 2.055 . S
O278 C282 1.253 . S
H279 C275 0.931 . S
H280 C276 0.930 . S
O281 Co270 2.039 . S
O281 C271 1.265 . S
C282 O278 1.253 . S
C282 O283 1.227 . S
O283 C282 1.227 . S
N284 Co270 2.140 . S
N284 C287 1.346 . S
N284 C288 1.345 . S
C285 C286 1.387 . S
C285 C289 1.391 . S
C286 C285 1.387 . S
C286 C287 1.369 . S
C286 H295 0.929 . S
C287 N284 1.346 . S
C287 C286 1.369 . S
C287 H290 0.928 . S
C288 N284 1.345 . S
C288 C289 1.371 . S
C288 H291 0.931 . S
C289 C285 1.391 . S
C289 C288 1.371 . S
C289 H296 0.930 . S
H290 C287 0.928 . S
H291 C288 0.931 . S
H292 C268 0.930 . S
H293 C265 0.930 . S
H294 C274 0.930 . S
H295 C286 0.929 . S
H296 C289 0.930 . S
C297 C298 1.351 . S
C297 N300 1.368 . S
C297 H302 0.931 . S
C298 C297 1.351 . S
C298 N299 1.373 . S
C298 H326 0.930 . S
N299 C298 1.373 . S
N299 C301 1.340 . S
N300 C297 1.368 . S
N300 C301 1.321 . S
N300 Co303 2.135 . S
C301 N299 1.340 . S
C301 N300 1.321 . S
C301 H325 0.930 . S
H302 C297 0.931 . S
Co303 N300 2.135 . S
Co303 N306 2.121 . S
Co303 O311 2.055 . S
Co303 O314 2.039 . S
Co303 N317 2.140 . S
C304 O305 1.227 . S
C304 O314 1.265 . S
O305 C304 1.227 . S
N306 Co303 2.121 . S
N306 C308 1.375 . S
N306 C309 1.313 . S
C307 C308 1.338 . S
C307 N310 1.377 . S
C307 H327 0.930 . S
C308 N306 1.375 . S
C308 C307 1.338 . S
C308 H312 0.931 . S
C309 N306 1.313 . S
C309 N310 1.344 . S
C309 H313 0.930 . S
N310 C307 1.377 . S
N310 C309 1.344 . S
O311 Co303 2.055 . S
O311 C315 1.253 . S
H312 C308 0.931 . S
H313 C309 0.930 . S
O314 Co303 2.039 . S
O314 C304 1.265 . S
C315 O311 1.253 . S
C315 O316 1.227 . S
O316 C315 1.227 . S
N317 Co303 2.140 . S
N317 C320 1.346 . S
N317 C321 1.345 . S
C318 C319 1.387 . S
C318 C322 1.391 . S
C319 C318 1.387 . S
C319 C320 1.369 . S
C319 H328 0.929 . S
C320 N317 1.346 . S
C320 C319 1.369 . S
C320 H323 0.928 . S
C321 N317 1.345 . S
C321 C322 1.371 . S
C321 H324 0.931 . S
C322 C318 1.391 . S
C322 C321 1.371 . S
C322 H329 0.930 . S
H323 C320 0.928 . S
H324 C321 0.931 . S
H325 C301 0.930 . S
H326 C298 0.930 . S
H327 C307 0.930 . S
H328 C319 0.929 . S
H329 C322 0.930 . S
C330 C331 1.351 . S
C330 N333 1.368 . S
C330 H335 0.931 . S
C331 C330 1.351 . S
C331 N332 1.373 . S
C331 H359 0.930 . S
N332 C331 1.373 . S
N332 C334 1.340 . S
N333 C330 1.368 . S
N333 C334 1.321 . S
N333 Co336 2.135 . S
C334 N332 1.340 . S
C334 N333 1.321 . S
C334 H358 0.930 . S
H335 C330 0.931 . S
Co336 N333 2.135 . S
Co336 N339 2.121 . S
Co336 O344 2.055 . S
Co336 O347 2.039 . S
Co336 N350 2.140 . S
C337 O338 1.227 . S
C337 O347 1.265 . S
O338 C337 1.227 . S
N339 Co336 2.121 . S
N339 C341 1.375 . S
N339 C342 1.313 . S
C340 C341 1.338 . S
C340 N343 1.377 . S
C340 H360 0.930 . S
C341 N339 1.375 . S
C341 C340 1.338 . S
C341 H345 0.931 . S
C342 N339 1.313 . S
C342 N343 1.344 . S
C342 H346 0.930 . S
N343 C340 1.377 . S
N343 C342 1.344 . S
O344 Co336 2.055 . S
O344 C348 1.253 . S
H345 C341 0.931 . S
H346 C342 0.930 . S
O347 Co336 2.039 . S
O347 C337 1.265 . S
C348 O344 1.253 . S
C348 O349 1.227 . S
O349 C348 1.227 . S
N350 Co336 2.140 . S
N350 C353 1.346 . S
N350 C354 1.345 . S
C351 C352 1.387 . S
C351 C355 1.391 . S
C352 C351 1.387 . S
C352 C353 1.369 . S
C352 H361 0.929 . S
C353 N350 1.346 . S
C353 C352 1.369 . S
C353 H356 0.928 . S
C354 N350 1.345 . S
C354 C355 1.371 . S
C354 H357 0.931 . S
C355 C351 1.391 . S
C355 C354 1.371 . S
C355 H362 0.930 . S
H356 C353 0.928 . S
H357 C354 0.931 . S
H358 C334 0.930 . S
H359 C331 0.930 . S
H360 C340 0.930 . S
H361 C352 0.929 . S
H362 C355 0.930 . S
C363 C364 1.351 . S
C363 N366 1.368 . S
C363 H368 0.931 . S
C364 C363 1.351 . S
C364 N365 1.373 . S
C364 H392 0.930 . S
N365 C364 1.373 . S
N365 C367 1.340 . S
N366 C363 1.368 . S
N366 C367 1.321 . S
N366 Co369 2.135 . S
C367 N365 1.340 . S
C367 N366 1.321 . S
C367 H391 0.930 . S
H368 C363 0.931 . S
Co369 N366 2.135 . S
Co369 N372 2.121 1_556 S
Co369 O377 2.055 . S
Co369 O380 2.039 . S
Co369 N383 2.140 . S
C370 O371 1.227 . S
C370 O380 1.265 . S
O371 C370 1.227 . S
N372 Co369 2.121 1_554 S
N372 C374 1.375 . S
N372 C375 1.313 . S
C373 C374 1.338 . S
C373 N376 1.377 . S
C373 H393 0.930 . S
C374 N372 1.375 . S
C374 C373 1.338 . S
C374 H378 0.931 . S
C375 N372 1.313 . S
C375 N376 1.344 . S
C375 H379 0.930 . S
N376 C373 1.377 . S
N376 C375 1.344 . S
O377 Co369 2.055 . S
O377 C381 1.253 . S
H378 C374 0.931 . S
H379 C375 0.930 . S
O380 Co369 2.039 . S
O380 C370 1.265 . S
C381 O377 1.253 . S
C381 O382 1.227 . S
O382 C381 1.227 . S
N383 Co369 2.140 . S
N383 C386 1.346 . S
N383 C387 1.345 . S
C384 C385 1.387 . S
C384 C388 1.391 . S
C385 C384 1.387 . S
C385 C386 1.369 . S
C385 H394 0.929 . S
C386 N383 1.346 . S
C386 C385 1.369 . S
C386 H389 0.928 . S
C387 N383 1.345 . S
C387 C388 1.371 . S
C387 H390 0.931 . S
C388 C384 1.391 . S
C388 C387 1.371 . S
C388 H395 0.930 . S
H389 C386 0.928 . S
H390 C387 0.931 . S
H391 C367 0.930 . S
H392 C364 0.930 . S
H393 C373 0.930 . S
H394 C385 0.929 . S
H395 C388 0.930 . S
C396 C397 1.351 . S
C396 N399 1.368 . S
C396 H401 0.931 . S
C397 C396 1.351 . S
C397 N398 1.373 . S
C397 H425 0.930 . S
N398 C397 1.373 . S
N398 C400 1.340 . S
N399 C396 1.368 . S
N399 C400 1.321 . S
N399 Co402 2.135 . S
C400 N398 1.340 . S
C400 N399 1.321 . S
C400 H424 0.930 . S
H401 C396 0.931 . S
Co402 N399 2.135 . S
Co402 N405 2.121 . S
Co402 O410 2.055 . S
Co402 O413 2.039 . S
Co402 N416 2.140 . S
C403 O404 1.227 . S
C403 O413 1.265 . S
O404 C403 1.227 . S
N405 Co402 2.121 . S
N405 C407 1.375 . S
N405 C408 1.313 . S
C406 C407 1.338 . S
C406 N409 1.377 . S
C406 H426 0.930 . S
C407 N405 1.375 . S
C407 C406 1.338 . S
C407 H411 0.931 . S
C408 N405 1.313 . S
C408 N409 1.344 . S
C408 H412 0.930 . S
N409 C406 1.377 . S
N409 C408 1.344 . S
O410 Co402 2.055 . S
O410 C414 1.253 . S
H411 C407 0.931 . S
H412 C408 0.930 . S
O413 Co402 2.039 . S
O413 C403 1.265 . S
C414 O410 1.253 . S
C414 O415 1.227 . S
O415 C414 1.227 . S
N416 Co402 2.140 . S
N416 C419 1.346 . S
N416 C420 1.345 . S
C417 C418 1.387 . S
C417 C421 1.391 . S
C418 C417 1.387 . S
C418 C419 1.369 . S
C418 H427 0.929 . S
C419 N416 1.346 . S
C419 C418 1.369 . S
C419 H422 0.928 . S
C420 N416 1.345 . S
C420 C421 1.371 . S
C420 H423 0.931 . S
C421 C417 1.391 . S
C421 C420 1.371 . S
C421 H428 0.930 . S
H422 C419 0.928 . S
H423 C420 0.931 . S
H424 C400 0.930 . S
H425 C397 0.930 . S
H426 C406 0.930 . S
H427 C418 0.929 . S
H428 C421 0.930 . S
C429 C430 1.351 . S
C429 N432 1.368 . S
C429 H434 0.931 . S
C430 C429 1.351 . S
C430 N431 1.373 . S
C430 H458 0.930 . S
N431 C430 1.373 . S
N431 C433 1.340 . S
N432 C429 1.368 . S
N432 C433 1.321 . S
N432 Co435 2.135 . S
C433 N431 1.340 . S
C433 N432 1.321 . S
C433 H457 0.930 . S
H434 C429 0.931 . S
Co435 N432 2.135 . S
Co435 N438 2.121 . S
Co435 O443 2.055 . S
Co435 O446 2.039 . S
Co435 N449 2.140 . S
C436 O437 1.227 . S
C436 O446 1.265 . S
O437 C436 1.227 . S
N438 Co435 2.121 . S
N438 C440 1.375 . S
N438 C441 1.313 . S
C439 C440 1.338 . S
C439 N442 1.377 . S
C439 H459 0.930 . S
C440 N438 1.375 . S
C440 C439 1.338 . S
C440 H444 0.931 . S
C441 N438 1.313 . S
C441 N442 1.344 . S
C441 H445 0.930 . S
N442 C439 1.377 . S
N442 C441 1.344 . S
O443 Co435 2.055 . S
O443 C447 1.253 . S
H444 C440 0.931 . S
H445 C441 0.930 . S
O446 Co435 2.039 . S
O446 C436 1.265 . S
C447 O443 1.253 . S
C447 O448 1.227 . S
O448 C447 1.227 . S
N449 Co435 2.140 . S
N449 C452 1.346 . S
N449 C453 1.345 . S
C450 C451 1.387 . S
C450 C454 1.391 . S
C451 C450 1.387 . S
C451 C452 1.369 . S
C451 H460 0.929 . S
C452 N449 1.346 . S
C452 C451 1.369 . S
C452 H455 0.928 . S
C453 N449 1.345 . S
C453 C454 1.371 . S
C453 H456 0.931 . S
C454 C450 1.391 . S
C454 C453 1.371 . S
C454 H461 0.930 . S
H455 C452 0.928 . S
H456 C453 0.931 . S
H457 C433 0.930 . S
H458 C430 0.930 . S
H459 C439 0.930 . S
H460 C451 0.929 . S
H461 C454 0.930 . S
C462 C463 1.351 . S
C462 N465 1.368 . S
C462 H467 0.931 . S
C463 C462 1.351 . S
C463 N464 1.373 . S
C463 H491 0.930 . S
N464 C463 1.373 . S
N464 C466 1.340 . S
N465 C462 1.368 . S
N465 C466 1.321 . S
N465 Co468 2.135 . S
C466 N464 1.340 . S
C466 N465 1.321 . S
C466 H490 0.930 . S
H467 C462 0.931 . S
Co468 N465 2.135 . S
Co468 N471 2.121 . S
Co468 O476 2.055 . S
Co468 O479 2.039 . S
Co468 N482 2.140 . S
C469 O470 1.227 . S
C469 O479 1.265 . S
O470 C469 1.227 . S
N471 Co468 2.121 . S
N471 C473 1.375 . S
N471 C474 1.313 . S
C472 C473 1.338 . S
C472 N475 1.377 . S
C472 H492 0.930 . S
C473 N471 1.375 . S
C473 C472 1.338 . S
C473 H477 0.931 . S
C474 N471 1.313 . S
C474 N475 1.344 . S
C474 H478 0.930 . S
N475 C472 1.377 . S
N475 C474 1.344 . S
O476 Co468 2.055 . S
O476 C480 1.253 . S
H477 C473 0.931 . S
H478 C474 0.930 . S
O479 Co468 2.039 . S
O479 C469 1.265 . S
C480 O476 1.253 . S
C480 O481 1.227 . S
O481 C480 1.227 . S
N482 Co468 2.140 . S
N482 C485 1.346 . S
N482 C486 1.345 . S
C483 C484 1.387 . S
C483 C487 1.391 . S
C484 C483 1.387 . S
C484 C485 1.369 . S
C484 H493 0.929 . S
C485 N482 1.346 . S
C485 C484 1.369 . S
C485 H488 0.928 . S
C486 N482 1.345 . S
C486 C487 1.371 . S
C486 H489 0.931 . S
C487 C483 1.391 . S
C487 C486 1.371 . S
C487 H494 0.930 . S
H488 C485 0.928 . S
H489 C486 0.931 . S
H490 C466 0.930 . S
H491 C463 0.930 . S
H492 C472 0.930 . S
H493 C484 0.929 . S
H494 C487 0.930 . S
C495 C496 1.351 . S
C495 N498 1.368 . S
C495 H500 0.931 . S
C496 C495 1.351 . S
C496 N497 1.373 . S
C496 H524 0.930 . S
N497 C496 1.373 . S
N497 C499 1.340 . S
N498 C495 1.368 . S
N498 C499 1.321 . S
N498 Co501 2.135 . S
C499 N497 1.340 . S
C499 N498 1.321 . S
C499 H523 0.930 . S
H500 C495 0.931 . S
Co501 N498 2.135 . S
Co501 N504 2.121 1_554 S
Co501 O509 2.055 . S
Co501 O512 2.039 . S
Co501 N515 2.140 . S
C502 O503 1.227 . S
C502 O512 1.265 . S
O503 C502 1.227 . S
N504 Co501 2.121 1_556 S
N504 C506 1.375 . S
N504 C507 1.313 . S
C505 C506 1.338 . S
C505 N508 1.377 . S
C505 H525 0.930 . S
C506 N504 1.375 . S
C506 C505 1.338 . S
C506 H510 0.931 . S
C507 N504 1.313 . S
C507 N508 1.344 . S
C507 H511 0.930 . S
N508 C505 1.377 . S
N508 C507 1.344 . S
O509 Co501 2.055 . S
O509 C513 1.253 . S
H510 C506 0.931 . S
H511 C507 0.930 . S
O512 Co501 2.039 . S
O512 C502 1.265 . S
C513 O509 1.253 . S
C513 O514 1.227 . S
O514 C513 1.227 . S
N515 Co501 2.140 . S
N515 C518 1.346 . S
N515 C519 1.345 . S
C516 C517 1.387 . S
C516 C520 1.391 . S
C517 C516 1.387 . S
C517 C518 1.369 . S
C517 H526 0.929 . S
C518 N515 1.346 . S
C518 C517 1.369 . S
C518 H521 0.928 . S
C519 N515 1.345 . S
C519 C520 1.371 . S
C519 H522 0.931 . S
C520 C516 1.391 . S
C520 C519 1.371 . S
C520 H527 0.930 . S
H521 C518 0.928 . S
H522 C519 0.931 . S
H523 C499 0.930 . S
H524 C496 0.930 . S
H525 C505 0.930 . S
H526 C517 0.929 . S
H527 C520 0.930 . S
C528 C529 1.351 . S
C528 N531 1.368 . S
C528 H533 0.931 . S
C529 C528 1.351 . S
C529 N530 1.373 . S
C529 H557 0.930 . S
N530 C529 1.373 . S
N530 C532 1.340 . S
N531 C528 1.368 . S
N531 C532 1.321 . S
N531 Co534 2.135 . S
C532 N530 1.340 . S
C532 N531 1.321 . S
C532 H556 0.930 . S
H533 C528 0.931 . S
Co534 N531 2.135 . S
Co534 N537 2.121 . S
Co534 O542 2.055 . S
Co534 O545 2.039 . S
Co534 N548 2.140 . S
C535 O536 1.227 . S
C535 O545 1.265 . S
O536 C535 1.227 . S
N537 Co534 2.121 . S
N537 C539 1.375 . S
N537 C540 1.313 . S
C538 C539 1.338 . S
C538 N541 1.377 . S
C538 H558 0.930 . S
C539 N537 1.375 . S
C539 C538 1.338 . S
C539 H543 0.931 . S
C540 N537 1.313 . S
C540 N541 1.344 . S
C540 H544 0.930 . S
N541 C538 1.377 . S
N541 C540 1.344 . S
O542 Co534 2.055 . S
O542 C546 1.253 . S
H543 C539 0.931 . S
H544 C540 0.930 . S
O545 Co534 2.039 . S
O545 C535 1.265 . S
C546 O542 1.253 . S
C546 O547 1.227 . S
O547 C546 1.227 . S
N548 Co534 2.140 . S
N548 C551 1.346 . S
N548 C552 1.345 . S
C549 C550 1.387 . S
C549 C553 1.391 . S
C550 C549 1.387 . S
C550 C551 1.369 . S
C550 H559 0.929 . S
C551 N548 1.346 . S
C551 C550 1.369 . S
C551 H554 0.928 . S
C552 N548 1.345 . S
C552 C553 1.371 . S
C552 H555 0.931 . S
C553 C549 1.391 . S
C553 C552 1.371 . S
C553 H560 0.930 . S
H554 C551 0.928 . S
H555 C552 0.931 . S
H556 C532 0.930 . S
H557 C529 0.930 . S
H558 C538 0.930 . S
H559 C550 0.929 . S
H560 C553 0.930 . S
C561 C562 1.351 . S
C561 N564 1.368 . S
C561 H566 0.931 . S
C562 C561 1.351 . S
C562 N563 1.373 . S
C562 H590 0.930 . S
N563 C562 1.373 . S
N563 C565 1.340 . S
N564 C561 1.368 . S
N564 C565 1.321 . S
N564 Co567 2.135 . S
C565 N563 1.340 . S
C565 N564 1.321 . S
C565 H589 0.930 . S
H566 C561 0.931 . S
Co567 N564 2.135 . S
Co567 N570 2.121 1_554 S
Co567 O575 2.055 . S
Co567 O578 2.039 . S
Co567 N581 2.140 . S
C568 O569 1.227 . S
C568 O578 1.265 . S
O569 C568 1.227 . S
N570 Co567 2.121 1_556 S
N570 C572 1.375 . S
N570 C573 1.313 . S
C571 C572 1.338 . S
C571 N574 1.377 . S
C571 H591 0.930 . S
C572 N570 1.375 . S
C572 C571 1.338 . S
C572 H576 0.931 . S
C573 N570 1.313 . S
C573 N574 1.344 . S
C573 H577 0.930 . S
N574 C571 1.377 . S
N574 C573 1.344 . S
O575 Co567 2.055 . S
O575 C579 1.253 . S
H576 C572 0.931 . S
H577 C573 0.930 . S
O578 Co567 2.039 . S
O578 C568 1.265 . S
C579 O575 1.253 . S
C579 O580 1.227 . S
O580 C579 1.227 . S
N581 Co567 2.140 . S
N581 C584 1.346 . S
N581 C585 1.345 . S
C582 C583 1.387 . S
C582 C586 1.391 . S
C583 C582 1.387 . S
C583 C584 1.369 . S
C583 H592 0.929 . S
C584 N581 1.346 . S
C584 C583 1.369 . S
C584 H587 0.928 . S
C585 N581 1.345 . S
C585 C586 1.371 . S
C585 H588 0.931 . S
C586 C582 1.391 . S
C586 C585 1.371 . S
C586 H593 0.930 . S
H587 C584 0.928 . S
H588 C585 0.931 . S
H589 C565 0.930 . S
H590 C562 0.930 . S
H591 C571 0.930 . S
H592 C583 0.929 . S
H593 C586 0.930 . S
C594 C595 1.351 . S
C594 N597 1.368 . S
C594 H599 0.931 . S
C595 C594 1.351 . S
C595 N596 1.373 . S
C595 H623 0.930 . S
N596 C595 1.373 . S
N596 C598 1.340 . S
N597 C594 1.368 . S
N597 C598 1.321 . S
N597 Co600 2.135 . S
C598 N596 1.340 . S
C598 N597 1.321 . S
C598 H622 0.930 . S
H599 C594 0.931 . S
Co600 N597 2.135 . S
Co600 N603 2.121 . S
Co600 O608 2.055 . S
Co600 O611 2.039 . S
Co600 N614 2.140 . S
C601 O602 1.227 . S
C601 O611 1.265 . S
O602 C601 1.227 . S
N603 Co600 2.121 . S
N603 C605 1.375 . S
N603 C606 1.313 . S
C604 C605 1.338 . S
C604 N607 1.377 . S
C604 H624 0.930 . S
C605 N603 1.375 . S
C605 C604 1.338 . S
C605 H609 0.931 . S
C606 N603 1.313 . S
C606 N607 1.344 . S
C606 H610 0.930 . S
N607 C604 1.377 . S
N607 C606 1.344 . S
O608 Co600 2.055 . S
O608 C612 1.253 . S
H609 C605 0.931 . S
H610 C606 0.930 . S
O611 Co600 2.039 . S
O611 C601 1.265 . S
C612 O608 1.253 . S
C612 O613 1.227 . S
O613 C612 1.227 . S
N614 Co600 2.140 . S
N614 C617 1.346 . S
N614 C618 1.345 . S
C615 C616 1.387 . S
C615 C619 1.391 . S
C616 C615 1.387 . S
C616 C617 1.369 . S
C616 H625 0.929 . S
C617 N614 1.346 . S
C617 C616 1.369 . S
C617 H620 0.928 . S
C618 N614 1.345 . S
C618 C619 1.371 . S
C618 H621 0.931 . S
C619 C615 1.391 . S
C619 C618 1.371 . S
C619 H626 0.930 . S
H620 C617 0.928 . S
H621 C618 0.931 . S
H622 C598 0.930 . S
H623 C595 0.930 . S
H624 C604 0.930 . S
H625 C616 0.929 . S
H626 C619 0.930 . S
C627 C628 1.351 . S
C627 N630 1.368 . S
C627 H632 0.931 . S
C628 C627 1.351 . S
C628 N629 1.373 . S
C628 H656 0.930 . S
N629 C628 1.373 . S
N629 C631 1.340 . S
N630 C627 1.368 . S
N630 C631 1.321 . S
N630 Co633 2.135 . S
C631 N629 1.340 . S
C631 N630 1.321 . S
C631 H655 0.930 . S
H632 C627 0.931 . S
Co633 N630 2.135 . S
Co633 N636 2.121 . S
Co633 O641 2.055 . S
Co633 O644 2.039 . S
Co633 N647 2.140 . S
C634 O635 1.227 . S
C634 O644 1.265 . S
O635 C634 1.227 . S
N636 Co633 2.121 . S
N636 C638 1.375 . S
N636 C639 1.313 . S
C637 C638 1.338 . S
C637 N640 1.377 . S
C637 H657 0.930 . S
C638 N636 1.375 . S
C638 C637 1.338 . S
C638 H642 0.931 . S
C639 N636 1.313 . S
C639 N640 1.344 . S
C639 H643 0.930 . S
N640 C637 1.377 . S
N640 C639 1.344 . S
O641 Co633 2.055 . S
O641 C645 1.253 . S
H642 C638 0.931 . S
H643 C639 0.930 . S
O644 Co633 2.039 . S
O644 C634 1.265 . S
C645 O641 1.253 . S
C645 O646 1.227 . S
O646 C645 1.227 . S
N647 Co633 2.140 . S
N647 C650 1.346 . S
N647 C651 1.345 . S
C648 C649 1.387 . S
C648 C652 1.391 . S
C649 C648 1.387 . S
C649 C650 1.369 . S
C649 H658 0.929 . S
C650 N647 1.346 . S
C650 C649 1.369 . S
C650 H653 0.928 . S
C651 N647 1.345 . S
C651 C652 1.371 . S
C651 H654 0.931 . S
C652 C648 1.391 . S
C652 C651 1.371 . S
C652 H659 0.930 . S
H653 C650 0.928 . S
H654 C651 0.931 . S
H655 C631 0.930 . S
H656 C628 0.930 . S
H657 C637 0.930 . S
H658 C649 0.929 . S
H659 C652 0.930 . S
C660 C661 1.351 . S
C660 N663 1.368 . S
C660 H665 0.931 . S
C661 C660 1.351 . S
C661 N662 1.373 . S
C661 H689 0.930 . S
N662 C661 1.373 . S
N662 C664 1.340 . S
N663 C660 1.368 . S
N663 C664 1.321 . S
N663 Co666 2.135 . S
C664 N662 1.340 . S
C664 N663 1.321 . S
C664 H688 0.930 . S
H665 C660 0.931 . S
Co666 N663 2.135 . S
Co666 N669 2.121 . S
Co666 O674 2.055 . S
Co666 O677 2.039 . S
Co666 N680 2.140 . S
C667 O668 1.227 . S
C667 O677 1.265 . S
O668 C667 1.227 . S
N669 Co666 2.121 . S
N669 C671 1.375 . S
N669 C672 1.313 . S
C670 C671 1.338 . S
C670 N673 1.377 . S
C670 H690 0.930 . S
C671 N669 1.375 . S
C671 C670 1.338 . S
C671 H675 0.931 . S
C672 N669 1.313 . S
C672 N673 1.344 . S
C672 H676 0.930 . S
N673 C670 1.377 . S
N673 C672 1.344 . S
O674 Co666 2.055 . S
O674 C678 1.253 . S
H675 C671 0.931 . S
H676 C672 0.930 . S
O677 Co666 2.039 . S
O677 C667 1.265 . S
C678 O674 1.253 . S
C678 O679 1.227 . S
O679 C678 1.227 . S
N680 Co666 2.140 . S
N680 C683 1.346 . S
N680 C684 1.345 . S
C681 C682 1.387 . S
C681 C685 1.391 . S
C682 C681 1.387 . S
C682 C683 1.369 . S
C682 H691 0.929 . S
C683 N680 1.346 . S
C683 C682 1.369 . S
C683 H686 0.928 . S
C684 N680 1.345 . S
C684 C685 1.371 . S
C684 H687 0.931 . S
C685 C681 1.391 . S
C685 C684 1.371 . S
C685 H692 0.930 . S
H686 C683 0.928 . S
H687 C684 0.931 . S
H688 C664 0.930 . S
H689 C661 0.930 . S
H690 C670 0.930 . S
H691 C682 0.929 . S
H692 C685 0.930 . S
C693 C694 1.351 . S
C693 N696 1.368 . S
C693 H698 0.931 . S
C694 C693 1.351 . S
C694 N695 1.373 . S
C694 H722 0.930 . S
N695 C694 1.373 . S
N695 C697 1.340 . S
N696 C693 1.368 . S
N696 C697 1.321 . S
N696 Co699 2.135 . S
C697 N695 1.340 . S
C697 N696 1.321 . S
C697 H721 0.930 . S
H698 C693 0.931 . S
Co699 N696 2.135 . S
Co699 N702 2.121 1_556 S
Co699 O707 2.055 . S
Co699 O710 2.039 . S
Co699 N713 2.140 . S
C700 O701 1.227 . S
C700 O710 1.265 . S
O701 C700 1.227 . S
N702 Co699 2.121 1_554 S
N702 C704 1.375 . S
N702 C705 1.313 . S
C703 C704 1.338 . S
C703 N706 1.377 . S
C703 H723 0.930 . S
C704 N702 1.375 . S
C704 C703 1.338 . S
C704 H708 0.931 . S
C705 N702 1.313 . S
C705 N706 1.344 . S
C705 H709 0.930 . S
N706 C703 1.377 . S
N706 C705 1.344 . S
O707 Co699 2.055 . S
O707 C711 1.253 . S
H708 C704 0.931 . S
H709 C705 0.930 . S
O710 Co699 2.039 . S
O710 C700 1.265 . S
C711 O707 1.253 . S
C711 O712 1.227 . S
O712 C711 1.227 . S
N713 Co699 2.140 . S
N713 C716 1.346 . S
N713 C717 1.345 . S
C714 C715 1.387 . S
C714 C718 1.391 . S
C715 C714 1.387 . S
C715 C716 1.369 . S
C715 H724 0.929 . S
C716 N713 1.346 . S
C716 C715 1.369 . S
C716 H719 0.928 . S
C717 N713 1.345 . S
C717 C718 1.371 . S
C717 H720 0.931 . S
C718 C714 1.391 . S
C718 C717 1.371 . S
C718 H725 0.930 . S
H719 C716 0.928 . S
H720 C717 0.931 . S
H721 C697 0.930 . S
H722 C694 0.930 . S
H723 C703 0.930 . S
H724 C715 0.929 . S
H725 C718 0.930 . S
C726 C727 1.351 . S
C726 N729 1.368 . S
C726 H731 0.931 . S
C727 C726 1.351 . S
C727 N728 1.373 . S
C727 H755 0.930 . S
N728 C727 1.373 . S
N728 C730 1.340 . S
N729 C726 1.368 . S
N729 C730 1.321 . S
N729 Co732 2.135 . S
C730 N728 1.340 . S
C730 N729 1.321 . S
C730 H754 0.930 . S
H731 C726 0.931 . S
Co732 N729 2.135 . S
Co732 N735 2.121 . S
Co732 O740 2.055 . S
Co732 O743 2.039 . S
Co732 N746 2.140 . S
C733 O734 1.227 . S
C733 O743 1.265 . S
O734 C733 1.227 . S
N735 Co732 2.121 . S
N735 C737 1.375 . S
N735 C738 1.313 . S
C736 C737 1.338 . S
C736 N739 1.377 . S
C736 H756 0.930 . S
C737 N735 1.375 . S
C737 C736 1.338 . S
C737 H741 0.931 . S
C738 N735 1.313 . S
C738 N739 1.344 . S
C738 H742 0.930 . S
N739 C736 1.377 . S
N739 C738 1.344 . S
O740 Co732 2.055 . S
O740 C744 1.253 . S
H741 C737 0.931 . S
H742 C738 0.930 . S
O743 Co732 2.039 . S
O743 C733 1.265 . S
C744 O740 1.253 . S
C744 O745 1.227 . S
O745 C744 1.227 . S
N746 Co732 2.140 . S
N746 C749 1.346 . S
N746 C750 1.345 . S
C747 C748 1.387 . S
C747 C751 1.391 . S
C748 C747 1.387 . S
C748 C749 1.369 . S
C748 H757 0.929 . S
C749 N746 1.346 . S
C749 C748 1.369 . S
C749 H752 0.928 . S
C750 N746 1.345 . S
C750 C751 1.371 . S
C750 H753 0.931 . S
C751 C747 1.391 . S
C751 C750 1.371 . S
C751 H758 0.930 . S
H752 C749 0.928 . S
H753 C750 0.931 . S
H754 C730 0.930 . S
H755 C727 0.930 . S
H756 C736 0.930 . S
H757 C748 0.929 . S
H758 C751 0.930 . S
C759 C760 1.351 . S
C759 N762 1.368 . S
C759 H764 0.931 . S
C760 C759 1.351 . S
C760 N761 1.373 . S
C760 H788 0.930 . S
N761 C760 1.373 . S
N761 C763 1.340 . S
N762 C759 1.368 . S
N762 C763 1.321 . S
N762 Co765 2.135 . S
C763 N761 1.340 . S
C763 N762 1.321 . S
C763 H787 0.930 . S
H764 C759 0.931 . S
Co765 N762 2.135 . S
Co765 N768 2.121 . S
Co765 O773 2.055 . S
Co765 O776 2.039 . S
Co765 N779 2.140 . S
C766 O767 1.227 . S
C766 O776 1.265 . S
O767 C766 1.227 . S
N768 Co765 2.121 . S
N768 C770 1.375 . S
N768 C771 1.313 . S
C769 C770 1.338 . S
C769 N772 1.377 . S
C769 H789 0.930 . S
C770 N768 1.375 . S
C770 C769 1.338 . S
C770 H774 0.931 . S
C771 N768 1.313 . S
C771 N772 1.344 . S
C771 H775 0.930 . S
N772 C769 1.377 . S
N772 C771 1.344 . S
O773 Co765 2.055 . S
O773 C777 1.253 . S
H774 C770 0.931 . S
H775 C771 0.930 . S
O776 Co765 2.039 . S
O776 C766 1.265 . S
C777 O773 1.253 . S
C777 O778 1.227 . S
O778 C777 1.227 . S
N779 Co765 2.140 . S
N779 C782 1.346 . S
N779 C783 1.345 . S
C780 C781 1.387 . S
C780 C784 1.391 . S
C781 C780 1.387 . S
C781 C782 1.369 . S
C781 H790 0.929 . S
C782 N779 1.346 . S
C782 C781 1.369 . S
C782 H785 0.928 . S
C783 N779 1.345 . S
C783 C784 1.371 . S
C783 H786 0.931 . S
C784 C780 1.391 . S
C784 C783 1.371 . S
C784 H791 0.930 . S
H785 C782 0.928 . S
H786 C783 0.931 . S
H787 C763 0.930 . S
H788 C760 0.930 . S
H789 C769 0.930 . S
H790 C781 0.929 . S
H791 C784 0.930 . S
C792 C793 1.351 . S
C792 N795 1.368 . S
C792 H797 0.931 . S
C793 C792 1.351 . S
C793 N794 1.373 . S
C793 H821 0.930 . S
N794 C793 1.373 . S
N794 C796 1.340 . S
N795 C792 1.368 . S
N795 C796 1.321 . S
N795 Co798 2.135 . S
C796 N794 1.340 . S
C796 N795 1.321 . S
C796 H820 0.930 . S
H797 C792 0.931 . S
Co798 N795 2.135 . S
Co798 N801 2.121 . S
Co798 O806 2.055 . S
Co798 O809 2.039 . S
Co798 N812 2.140 . S
C799 O800 1.227 . S
C799 O809 1.265 . S
O800 C799 1.227 . S
N801 Co798 2.121 . S
N801 C803 1.375 . S
N801 C804 1.313 . S
C802 C803 1.338 . S
C802 N805 1.377 . S
C802 H822 0.930 . S
C803 N801 1.375 . S
C803 C802 1.338 . S
C803 H807 0.931 . S
C804 N801 1.313 . S
C804 N805 1.344 . S
C804 H808 0.930 . S
N805 C802 1.377 . S
N805 C804 1.344 . S
O806 Co798 2.055 . S
O806 C810 1.253 . S
H807 C803 0.931 . S
H808 C804 0.930 . S
O809 Co798 2.039 . S
O809 C799 1.265 . S
C810 O806 1.253 . S
C810 O811 1.227 . S
O811 C810 1.227 . S
N812 Co798 2.140 . S
N812 C815 1.346 . S
N812 C816 1.345 . S
C813 C814 1.387 . S
C813 C817 1.391 . S
C814 C813 1.387 . S
C814 C815 1.369 . S
C814 H823 0.929 . S
C815 N812 1.346 . S
C815 C814 1.369 . S
C815 H818 0.928 . S
C816 N812 1.345 . S
C816 C817 1.371 . S
C816 H819 0.931 . S
C817 C813 1.391 . S
C817 C816 1.371 . S
C817 H824 0.930 . S
H818 C815 0.928 . S
H819 C816 0.931 . S
H820 C796 0.930 . S
H821 C793 0.930 . S
H822 C802 0.930 . S
H823 C814 0.929 . S
H824 C817 0.930 . S
C825 C826 1.351 . S
C825 N828 1.368 . S
C825 H830 0.931 . S
C826 C825 1.351 . S
C826 N827 1.373 . S
C826 H854 0.930 . S
N827 C826 1.373 . S
N827 C829 1.340 . S
N828 C825 1.368 . S
N828 C829 1.321 . S
N828 Co831 2.135 . S
C829 N827 1.340 . S
C829 N828 1.321 . S
C829 H853 0.930 . S
H830 C825 0.931 . S
Co831 N828 2.135 . S
Co831 N834 2.121 1_556 S
Co831 O839 2.055 . S
Co831 O842 2.039 . S
Co831 N845 2.140 . S
C832 O833 1.227 . S
C832 O842 1.265 . S
O833 C832 1.227 . S
N834 Co831 2.121 1_554 S
N834 C836 1.375 . S
N834 C837 1.313 . S
C835 C836 1.338 . S
C835 N838 1.377 . S
C835 H855 0.930 . S
C836 N834 1.375 . S
C836 C835 1.338 . S
C836 H840 0.931 . S
C837 N834 1.313 . S
C837 N838 1.344 . S
C837 H841 0.930 . S
N838 C835 1.377 . S
N838 C837 1.344 . S
O839 Co831 2.055 . S
O839 C843 1.253 . S
H840 C836 0.931 . S
H841 C837 0.930 . S
O842 Co831 2.039 . S
O842 C832 1.265 . S
C843 O839 1.253 . S
C843 O844 1.227 . S
O844 C843 1.227 . S
N845 Co831 2.140 . S
N845 C848 1.346 . S
N845 C849 1.345 . S
C846 C847 1.387 . S
C846 C850 1.391 . S
C847 C846 1.387 . S
C847 C848 1.369 . S
C847 H856 0.929 . S
C848 N845 1.346 . S
C848 C847 1.369 . S
C848 H851 0.928 . S
C849 N845 1.345 . S
C849 C850 1.371 . S
C849 H852 0.931 . S
C850 C846 1.391 . S
C850 C849 1.371 . S
C850 H857 0.930 . S
H851 C848 0.928 . S
H852 C849 0.931 . S
H853 C829 0.930 . S
H854 C826 0.930 . S
H855 C835 0.930 . S
H856 C847 0.929 . S
H857 C850 0.930 . S
C858 C859 1.351 . S
C858 N861 1.368 . S
C858 H863 0.931 . S
C859 C858 1.351 . S
C859 N860 1.373 . S
C859 H887 0.930 . S
N860 C859 1.373 . S
N860 C862 1.340 . S
N861 C858 1.368 . S
N861 C862 1.321 . S
N861 Co864 2.135 . S
C862 N860 1.340 . S
C862 N861 1.321 . S
C862 H886 0.930 . S
H863 C858 0.931 . S
Co864 N861 2.135 . S
Co864 N867 2.121 . S
Co864 O872 2.055 . S
Co864 O875 2.039 . S
Co864 N878 2.140 . S
C865 O866 1.227 . S
C865 O875 1.265 . S
O866 C865 1.227 . S
N867 Co864 2.121 . S
N867 C869 1.375 . S
N867 C870 1.313 . S
C868 C869 1.338 . S
C868 N871 1.377 . S
C868 H888 0.930 . S
C869 N867 1.375 . S
C869 C868 1.338 . S
C869 H873 0.931 . S
C870 N867 1.313 . S
C870 N871 1.344 . S
C870 H874 0.930 . S
N871 C868 1.377 . S
N871 C870 1.344 . S
O872 Co864 2.055 . S
O872 C876 1.253 . S
H873 C869 0.931 . S
H874 C870 0.930 . S
O875 Co864 2.039 . S
O875 C865 1.265 . S
C876 O872 1.253 . S
C876 O877 1.227 . S
O877 C876 1.227 . S
N878 Co864 2.140 . S
N878 C881 1.346 . S
N878 C882 1.345 . S
C879 C880 1.387 . S
C879 C883 1.391 . S
C880 C879 1.387 . S
C880 C881 1.369 . S
C880 H889 0.929 . S
C881 N878 1.346 . S
C881 C880 1.369 . S
C881 H884 0.928 . S
C882 N878 1.345 . S
C882 C883 1.371 . S
C882 H885 0.931 . S
C883 C879 1.391 . S
C883 C882 1.371 . S
C883 H890 0.930 . S
H884 C881 0.928 . S
H885 C882 0.931 . S
H886 C862 0.930 . S
H887 C859 0.930 . S
H888 C868 0.930 . S
H889 C880 0.929 . S
H890 C883 0.930 . S
C891 C892 1.351 . S
C891 N894 1.368 . S
C891 H896 0.931 . S
C892 C891 1.351 . S
C892 N893 1.373 . S
C892 H920 0.930 . S
N893 C892 1.373 . S
N893 C895 1.340 . S
N894 C891 1.368 . S
N894 C895 1.321 . S
N894 Co897 2.135 . S
C895 N893 1.340 . S
C895 N894 1.321 . S
C895 H919 0.930 . S
H896 C891 0.931 . S
Co897 N894 2.135 . S
Co897 N900 2.121 . S
Co897 O905 2.055 . S
Co897 O908 2.039 . S
Co897 N911 2.140 . S
C898 O899 1.227 . S
C898 O908 1.265 . S
O899 C898 1.227 . S
N900 Co897 2.121 . S
N900 C902 1.375 . S
N900 C903 1.313 . S
C901 C902 1.338 . S
C901 N904 1.377 . S
C901 H921 0.930 . S
C902 N900 1.375 . S
C902 C901 1.338 . S
C902 H906 0.931 . S
C903 N900 1.313 . S
C903 N904 1.344 . S
C903 H907 0.930 . S
N904 C901 1.377 . S
N904 C903 1.344 . S
O905 Co897 2.055 . S
O905 C909 1.253 . S
H906 C902 0.931 . S
H907 C903 0.930 . S
O908 Co897 2.039 . S
O908 C898 1.265 . S
C909 O905 1.253 . S
C909 O910 1.227 . S
O910 C909 1.227 . S
N911 Co897 2.140 . S
N911 C914 1.346 . S
N911 C915 1.345 . S
C912 C913 1.387 . S
C912 C916 1.391 . S
C913 C912 1.387 . S
C913 C914 1.369 . S
C913 H922 0.929 . S
C914 N911 1.346 . S
C914 C913 1.369 . S
C914 H917 0.928 . S
C915 N911 1.345 . S
C915 C916 1.371 . S
C915 H918 0.931 . S
C916 C912 1.391 . S
C916 C915 1.371 . S
C916 H923 0.930 . S
H917 C914 0.928 . S
H918 C915 0.931 . S
H919 C895 0.930 . S
H920 C892 0.930 . S
H921 C901 0.930 . S
H922 C913 0.929 . S
H923 C916 0.930 . S
C924 C925 1.351 . S
C924 N927 1.368 . S
C924 H929 0.931 . S
C925 C924 1.351 . S
C925 N926 1.373 . S
C925 H953 0.930 . S
N926 C925 1.373 . S
N926 C928 1.340 . S
N927 C924 1.368 . S
N927 C928 1.321 . S
N927 Co930 2.135 . S
C928 N926 1.340 . S
C928 N927 1.321 . S
C928 H952 0.930 . S
H929 C924 0.931 . S
Co930 N927 2.135 . S
Co930 N933 2.121 . S
Co930 O938 2.055 . S
Co930 O941 2.039 . S
Co930 N944 2.140 . S
C931 O932 1.227 . S
C931 O941 1.265 . S
O932 C931 1.227 . S
N933 Co930 2.121 . S
N933 C935 1.375 . S
N933 C936 1.313 . S
C934 C935 1.338 . S
C934 N937 1.377 . S
C934 H954 0.930 . S
C935 N933 1.375 . S
C935 C934 1.338 . S
C935 H939 0.931 . S
C936 N933 1.313 . S
C936 N937 1.344 . S
C936 H940 0.930 . S
N937 C934 1.377 . S
N937 C936 1.344 . S
O938 Co930 2.055 . S
O938 C942 1.253 . S
H939 C935 0.931 . S
H940 C936 0.930 . S
O941 Co930 2.039 . S
O941 C931 1.265 . S
C942 O938 1.253 . S
C942 O943 1.227 . S
O943 C942 1.227 . S
N944 Co930 2.140 . S
N944 C947 1.346 . S
N944 C948 1.345 . S
C945 C946 1.387 . S
C945 C949 1.391 . S
C946 C945 1.387 . S
C946 C947 1.369 . S
C946 H955 0.929 . S
C947 N944 1.346 . S
C947 C946 1.369 . S
C947 H950 0.928 . S
C948 N944 1.345 . S
C948 C949 1.371 . S
C948 H951 0.931 . S
C949 C945 1.391 . S
C949 C948 1.371 . S
C949 H956 0.930 . S
H950 C947 0.928 . S
H951 C948 0.931 . S
H952 C928 0.930 . S
H953 C925 0.930 . S
H954 C934 0.930 . S
H955 C946 0.929 . S
H956 C949 0.930 . S
C957 C958 1.351 . S
C957 N960 1.368 . S
C957 H962 0.931 . S
C958 C957 1.351 . S
C958 N959 1.373 . S
C958 H986 0.930 . S
N959 C958 1.373 . S
N959 C961 1.340 . S
N960 C957 1.368 . S
N960 C961 1.321 . S
N960 Co963 2.135 . S
C961 N959 1.340 . S
C961 N960 1.321 . S
C961 H985 0.930 . S
H962 C957 0.931 . S
Co963 N960 2.135 . S
Co963 N966 2.121 1_554 S
Co963 O971 2.055 . S
Co963 O974 2.039 . S
Co963 N977 2.140 . S
C964 O965 1.227 . S
C964 O974 1.265 . S
O965 C964 1.227 . S
N966 Co963 2.121 1_556 S
N966 C968 1.375 . S
N966 C969 1.313 . S
C967 C968 1.338 . S
C967 N970 1.377 . S
C967 H987 0.930 . S
C968 N966 1.375 . S
C968 C967 1.338 . S
C968 H972 0.931 . S
C969 N966 1.313 . S
C969 N970 1.344 . S
C969 H973 0.930 . S
N970 C967 1.377 . S
N970 C969 1.344 . S
O971 Co963 2.055 . S
O971 C975 1.253 . S
H972 C968 0.931 . S
H973 C969 0.930 . S
O974 Co963 2.039 . S
O974 C964 1.265 . S
C975 O971 1.253 . S
C975 O976 1.227 . S
O976 C975 1.227 . S
N977 Co963 2.140 . S
N977 C980 1.346 . S
N977 C981 1.345 . S
C978 C979 1.387 . S
C978 C982 1.391 . S
C979 C978 1.387 . S
C979 C980 1.369 . S
C979 H988 0.929 . S
C980 N977 1.346 . S
C980 C979 1.369 . S
C980 H983 0.928 . S
C981 N977 1.345 . S
C981 C982 1.371 . S
C981 H984 0.931 . S
C982 C978 1.391 . S
C982 C981 1.371 . S
C982 H989 0.930 . S
H983 C980 0.928 . S
H984 C981 0.931 . S
H985 C961 0.930 . S
H986 C958 0.930 . S
H987 C967 0.930 . S
H988 C979 0.929 . S
H989 C982 0.930 . S
C990 C991 1.351 . S
C990 N993 1.368 . S
C990 H995 0.931 . S
C991 C990 1.351 . S
C991 N992 1.373 . S
C991 H1019 0.930 . S
N992 C991 1.373 . S
N992 C994 1.340 . S
N993 C990 1.368 . S
N993 C994 1.321 . S
N993 Co996 2.135 . S
C994 N992 1.340 . S
C994 N993 1.321 . S
C994 H1018 0.930 . S
H995 C990 0.931 . S
Co996 N993 2.135 . S
Co996 N999 2.121 . S
Co996 O1004 2.055 . S
Co996 O1007 2.039 . S
Co996 N1010 2.140 . S
C997 O998 1.227 . S
C997 O1007 1.265 . S
O998 C997 1.227 . S
N999 Co996 2.121 . S
N999 C1001 1.375 . S
N999 C1002 1.313 . S
C1000 C1001 1.338 . S
C1000 N1003 1.377 . S
C1000 H1020 0.930 . S
C1001 N999 1.375 . S
C1001 C1000 1.338 . S
C1001 H1005 0.931 . S
C1002 N999 1.313 . S
C1002 N1003 1.344 . S
C1002 H1006 0.930 . S
N1003 C1000 1.377 . S
N1003 C1002 1.344 . S
O1004 Co996 2.055 . S
O1004 C1008 1.253 . S
H1005 C1001 0.931 . S
H1006 C1002 0.930 . S
O1007 Co996 2.039 . S
O1007 C997 1.265 . S
C1008 O1004 1.253 . S
C1008 O1009 1.227 . S
O1009 C1008 1.227 . S
N1010 Co996 2.140 . S
N1010 C1013 1.346 . S
N1010 C1014 1.345 . S
C1011 C1012 1.387 . S
C1011 C1015 1.391 . S
C1012 C1011 1.387 . S
C1012 C1013 1.369 . S
C1012 H1021 0.929 . S
C1013 N1010 1.346 . S
C1013 C1012 1.369 . S
C1013 H1016 0.928 . S
C1014 N1010 1.345 . S
C1014 C1015 1.371 . S
C1014 H1017 0.931 . S
C1015 C1011 1.391 . S
C1015 C1014 1.371 . S
C1015 H1022 0.930 . S
H1016 C1013 0.928 . S
H1017 C1014 0.931 . S
H1018 C994 0.930 . S
H1019 C991 0.930 . S
H1020 C1000 0.930 . S
H1021 C1012 0.929 . S
H1022 C1015 0.930 . S
C1023 C1024 1.351 . S
C1023 N1026 1.368 . S
C1023 H1028 0.931 . S
C1024 C1023 1.351 . S
C1024 N1025 1.373 . S
C1024 H1052 0.930 . S
N1025 C1024 1.373 . S
N1025 C1027 1.340 . S
N1026 C1023 1.368 . S
N1026 C1027 1.321 . S
N1026 Co1029 2.135 . S
C1027 N1025 1.340 . S
C1027 N1026 1.321 . S
C1027 H1051 0.930 . S
H1028 C1023 0.931 . S
Co1029 N1026 2.135 . S
Co1029 N1032 2.121 . S
Co1029 O1037 2.055 . S
Co1029 O1040 2.039 . S
Co1029 N1043 2.140 . S
C1030 O1031 1.227 . S
C1030 O1040 1.265 . S
O1031 C1030 1.227 . S
N1032 Co1029 2.121 . S
N1032 C1034 1.375 . S
N1032 C1035 1.313 . S
C1033 C1034 1.338 . S
C1033 N1036 1.377 . S
C1033 H1053 0.930 . S
C1034 N1032 1.375 . S
C1034 C1033 1.338 . S
C1034 H1038 0.931 . S
C1035 N1032 1.313 . S
C1035 N1036 1.344 . S
C1035 H1039 0.930 . S
N1036 C1033 1.377 . S
N1036 C1035 1.344 . S
O1037 Co1029 2.055 . S
O1037 C1041 1.253 . S
H1038 C1034 0.931 . S
H1039 C1035 0.930 . S
O1040 Co1029 2.039 . S
O1040 C1030 1.265 . S
C1041 O1037 1.253 . S
C1041 O1042 1.227 . S
O1042 C1041 1.227 . S
N1043 Co1029 2.140 . S
N1043 C1046 1.346 . S
N1043 C1047 1.345 . S
C1044 C1045 1.387 . S
C1044 C1048 1.391 . S
C1045 C1044 1.387 . S
C1045 C1046 1.369 . S
C1045 H1054 0.929 . S
C1046 N1043 1.346 . S
C1046 C1045 1.369 . S
C1046 H1049 0.928 . S
C1047 N1043 1.345 . S
C1047 C1048 1.371 . S
C1047 H1050 0.931 . S
C1048 C1044 1.391 . S
C1048 C1047 1.371 . S
C1048 H1055 0.930 . S
H1049 C1046 0.928 . S
H1050 C1047 0.931 . S
H1051 C1027 0.930 . S
H1052 C1024 0.930 . S
H1053 C1033 0.930 . S
H1054 C1045 0.929 . S
H1055 C1048 0.930 . S
C1056 C1057 1.391 . S
C1056 C1058 1.394 . S
C1056 H1072 0.931 . S
C1057 C1056 1.391 . S
C1057 C1061 1.376 . S
C1058 C1056 1.394 . S
C1058 C1059 1.369 . S
C1058 C1062 1.531 . S
C1059 C1058 1.369 . S
C1059 C1060 1.410 . S
C1059 C1067 1.503 . S
C1060 C1059 1.410 . S
C1060 C1061 1.392 . S
C1060 C1063 1.511 . S
C1061 C1057 1.376 . S
C1061 C1060 1.392 . S
C1061 H1073 0.929 . S
C1062 C1058 1.531 . S
C1062 H1074 0.960 . S
C1062 H1075 0.962 . S
C1062 H1076 0.960 . S
C1063 C1060 1.511 . S
C1063 H1077 0.961 . S
C1063 H1078 0.961 . S
C1063 H1079 0.961 . S
C1064 C1065 1.370 . S
C1064 C1066 1.363 . S
C1064 H1080 0.931 . S
C1065 C1064 1.370 . S
C1065 C1069 1.408 . S
C1066 C1064 1.363 . S
C1066 C1067 1.370 . S
C1066 C1070 1.524 . S
C1067 C1059 1.503 . S
C1067 C1066 1.370 . S
C1067 C1068 1.403 . S
C1068 C1067 1.403 . S
C1068 C1069 1.404 . S
C1068 C1071 1.539 . S
C1069 C1065 1.408 . S
C1069 C1068 1.404 . S
C1069 H1081 0.930 . S
C1070 C1066 1.524 . S
C1070 H1082 0.956 . S
C1070 H1083 0.961 . S
C1070 H1084 0.961 . S
C1071 C1068 1.539 . S
C1071 H1085 0.958 . S
C1071 H1086 0.961 . S
C1071 H1087 0.960 . S
H1072 C1056 0.931 . S
H1073 C1061 0.929 . S
H1074 C1062 0.960 . S
H1075 C1062 0.962 . S
H1076 C1062 0.960 . S
H1077 C1063 0.961 . S
H1078 C1063 0.961 . S
H1079 C1063 0.961 . S
H1080 C1064 0.931 . S
H1081 C1069 0.930 . S
H1082 C1070 0.956 . S
H1083 C1070 0.961 . S
H1084 C1070 0.961 . S
H1085 C1071 0.958 . S
H1086 C1071 0.961 . S
H1087 C1071 0.960 . S
C1088 C1089 1.391 . S
C1088 C1090 1.394 . S
C1088 H1104 0.931 . S
C1089 C1088 1.391 . S
C1089 C1093 1.376 . S
C1090 C1088 1.394 . S
C1090 C1091 1.369 . S
C1090 C1094 1.531 . S
C1091 C1090 1.369 . S
C1091 C1092 1.410 . S
C1091 C1099 1.503 . S
C1092 C1091 1.410 . S
C1092 C1093 1.392 . S
C1092 C1095 1.511 . S
C1093 C1089 1.376 . S
C1093 C1092 1.392 . S
C1093 H1105 0.929 . S
C1094 C1090 1.531 . S
C1094 H1106 0.960 . S
C1094 H1107 0.962 . S
C1094 H1108 0.960 . S
C1095 C1092 1.511 . S
C1095 H1109 0.961 . S
C1095 H1110 0.961 . S
C1095 H1111 0.961 . S
C1096 C1097 1.370 . S
C1096 C1098 1.363 . S
C1096 H1112 0.931 . S
C1097 C1096 1.370 . S
C1097 C1101 1.408 . S
C1098 C1096 1.363 . S
C1098 C1099 1.370 . S
C1098 C1102 1.524 . S
C1099 C1091 1.503 . S
C1099 C1098 1.370 . S
C1099 C1100 1.403 . S
C1100 C1099 1.403 . S
C1100 C1101 1.404 . S
C1100 C1103 1.539 . S
C1101 C1097 1.408 . S
C1101 C1100 1.404 . S
C1101 H1113 0.930 . S
C1102 C1098 1.524 . S
C1102 H1114 0.956 . S
C1102 H1115 0.961 . S
C1102 H1116 0.961 . S
C1103 C1100 1.539 . S
C1103 H1117 0.958 . S
C1103 H1118 0.961 . S
C1103 H1119 0.960 . S
H1104 C1088 0.931 . S
H1105 C1093 0.929 . S
H1106 C1094 0.960 . S
H1107 C1094 0.962 . S
H1108 C1094 0.960 . S
H1109 C1095 0.961 . S
H1110 C1095 0.961 . S
H1111 C1095 0.961 . S
H1112 C1096 0.931 . S
H1113 C1101 0.930 . S
H1114 C1102 0.956 . S
H1115 C1102 0.961 . S
H1116 C1102 0.961 . S
H1117 C1103 0.958 . S
H1118 C1103 0.961 . S
H1119 C1103 0.960 . S
C1120 C1121 1.391 . S
C1120 C1122 1.394 . S
C1120 H1136 0.931 . S
C1121 C1120 1.391 . S
C1121 C1125 1.376 . S
C1122 C1120 1.394 . S
C1122 C1123 1.369 . S
C1122 C1126 1.531 . S
C1123 C1122 1.369 . S
C1123 C1124 1.410 . S
C1123 C1131 1.503 . S
C1124 C1123 1.410 . S
C1124 C1125 1.392 . S
C1124 C1127 1.511 . S
C1125 C1121 1.376 . S
C1125 C1124 1.392 . S
C1125 H1137 0.929 . S
C1126 C1122 1.531 . S
C1126 H1138 0.960 . S
C1126 H1139 0.962 . S
C1126 H1140 0.960 . S
C1127 C1124 1.511 . S
C1127 H1141 0.961 . S
C1127 H1142 0.961 . S
C1127 H1143 0.961 . S
C1128 C1129 1.370 . S
C1128 C1130 1.363 . S
C1128 H1144 0.931 . S
C1129 C1128 1.370 . S
C1129 C1133 1.408 . S
C1130 C1128 1.363 . S
C1130 C1131 1.370 . S
C1130 C1134 1.524 . S
C1131 C1123 1.503 . S
C1131 C1130 1.370 . S
C1131 C1132 1.403 . S
C1132 C1131 1.403 . S
C1132 C1133 1.404 . S
C1132 C1135 1.539 . S
C1133 C1129 1.408 . S
C1133 C1132 1.404 . S
C1133 H1145 0.930 . S
C1134 C1130 1.524 . S
C1134 H1146 0.956 . S
C1134 H1147 0.961 . S
C1134 H1148 0.961 . S
C1135 C1132 1.539 . S
C1135 H1149 0.958 . S
C1135 H1150 0.961 . S
C1135 H1151 0.960 . S
H1136 C1120 0.931 . S
H1137 C1125 0.929 . S
H1138 C1126 0.960 . S
H1139 C1126 0.962 . S
H1140 C1126 0.960 . S
H1141 C1127 0.961 . S
H1142 C1127 0.961 . S
H1143 C1127 0.961 . S
H1144 C1128 0.931 . S
H1145 C1133 0.930 . S
H1146 C1134 0.956 . S
H1147 C1134 0.961 . S
H1148 C1134 0.961 . S
H1149 C1135 0.958 . S
H1150 C1135 0.961 . S
H1151 C1135 0.960 . S
C1152 C1153 1.391 . S
C1152 C1154 1.394 . S
C1152 H1168 0.931 . S
C1153 C1152 1.391 . S
C1153 C1157 1.376 . S
C1154 C1152 1.394 . S
C1154 C1155 1.369 . S
C1154 C1158 1.531 . S
C1155 C1154 1.369 . S
C1155 C1156 1.410 . S
C1155 C1163 1.503 . S
C1156 C1155 1.410 . S
C1156 C1157 1.392 . S
C1156 C1159 1.511 . S
C1157 C1153 1.376 . S
C1157 C1156 1.392 . S
C1157 H1169 0.929 . S
C1158 C1154 1.531 . S
C1158 H1170 0.960 . S
C1158 H1171 0.962 . S
C1158 H1172 0.960 . S
C1159 C1156 1.511 . S
C1159 H1173 0.961 . S
C1159 H1174 0.961 . S
C1159 H1175 0.961 . S
C1160 C1161 1.370 . S
C1160 C1162 1.363 . S
C1160 H1176 0.931 . S
C1161 C1160 1.370 . S
C1161 C1165 1.408 . S
C1162 C1160 1.363 . S
C1162 C1163 1.370 . S
C1162 C1166 1.524 . S
C1163 C1155 1.503 . S
C1163 C1162 1.370 . S
C1163 C1164 1.403 . S
C1164 C1163 1.403 . S
C1164 C1165 1.404 . S
C1164 C1167 1.539 . S
C1165 C1161 1.408 . S
C1165 C1164 1.404 . S
C1165 H1177 0.930 . S
C1166 C1162 1.524 . S
C1166 H1178 0.956 . S
C1166 H1179 0.961 . S
C1166 H1180 0.961 . S
C1167 C1164 1.539 . S
C1167 H1181 0.958 . S
C1167 H1182 0.961 . S
C1167 H1183 0.960 . S
H1168 C1152 0.931 . S
H1169 C1157 0.929 . S
H1170 C1158 0.960 . S
H1171 C1158 0.962 . S
H1172 C1158 0.960 . S
H1173 C1159 0.961 . S
H1174 C1159 0.961 . S
H1175 C1159 0.961 . S
H1176 C1160 0.931 . S
H1177 C1165 0.930 . S
H1178 C1166 0.956 . S
H1179 C1166 0.961 . S
H1180 C1166 0.961 . S
H1181 C1167 0.958 . S
H1182 C1167 0.961 . S
H1183 C1167 0.960 . S
C1184 C1185 1.391 . S
C1184 C1186 1.394 . S
C1184 H1200 0.931 . S
C1185 C1184 1.391 . S
C1185 C1189 1.376 . S
C1186 C1184 1.394 . S
C1186 C1187 1.369 . S
C1186 C1190 1.531 . S
C1187 C1186 1.369 . S
C1187 C1188 1.410 . S
C1187 C1195 1.503 . S
C1188 C1187 1.410 . S
C1188 C1189 1.392 . S
C1188 C1191 1.511 . S
C1189 C1185 1.376 . S
C1189 C1188 1.392 . S
C1189 H1201 0.929 . S
C1190 C1186 1.531 . S
C1190 H1202 0.960 . S
C1190 H1203 0.962 . S
C1190 H1204 0.960 . S
C1191 C1188 1.511 . S
C1191 H1205 0.961 . S
C1191 H1206 0.961 . S
C1191 H1207 0.961 . S
C1192 C1193 1.370 . S
C1192 C1194 1.363 . S
C1192 H1208 0.931 . S
C1193 C1192 1.370 . S
C1193 C1197 1.408 . S
C1194 C1192 1.363 . S
C1194 C1195 1.370 . S
C1194 C1198 1.524 . S
C1195 C1187 1.503 . S
C1195 C1194 1.370 . S
C1195 C1196 1.403 . S
C1196 C1195 1.403 . S
C1196 C1197 1.404 . S
C1196 C1199 1.539 . S
C1197 C1193 1.408 . S
C1197 C1196 1.404 . S
C1197 H1209 0.930 . S
C1198 C1194 1.524 . S
C1198 H1210 0.956 . S
C1198 H1211 0.961 . S
C1198 H1212 0.961 . S
C1199 C1196 1.539 . S
C1199 H1213 0.958 . S
C1199 H1214 0.961 . S
C1199 H1215 0.960 . S
H1200 C1184 0.931 . S
H1201 C1189 0.929 . S
H1202 C1190 0.960 . S
H1203 C1190 0.962 . S
H1204 C1190 0.960 . S
H1205 C1191 0.961 . S
H1206 C1191 0.961 . S
H1207 C1191 0.961 . S
H1208 C1192 0.931 . S
H1209 C1197 0.930 . S
H1210 C1198 0.956 . S
H1211 C1198 0.961 . S
H1212 C1198 0.961 . S
H1213 C1199 0.958 . S
H1214 C1199 0.961 . S
H1215 C1199 0.960 . S
C1216 C1217 1.391 . S
C1216 C1218 1.394 . S
C1216 H1232 0.931 . S
C1217 C1216 1.391 . S
C1217 C1221 1.376 . S
C1218 C1216 1.394 . S
C1218 C1219 1.369 . S
C1218 C1222 1.531 . S
C1219 C1218 1.369 . S
C1219 C1220 1.410 . S
C1219 C1227 1.503 . S
C1220 C1219 1.410 . S
C1220 C1221 1.392 . S
C1220 C1223 1.511 . S
C1221 C1217 1.376 . S
C1221 C1220 1.392 . S
C1221 H1233 0.929 . S
C1222 C1218 1.531 . S
C1222 H1234 0.960 . S
C1222 H1235 0.962 . S
C1222 H1236 0.960 . S
C1223 C1220 1.511 . S
C1223 H1237 0.961 . S
C1223 H1238 0.961 . S
C1223 H1239 0.961 . S
C1224 C1225 1.370 . S
C1224 C1226 1.363 . S
C1224 H1240 0.931 . S
C1225 C1224 1.370 . S
C1225 C1229 1.408 . S
C1226 C1224 1.363 . S
C1226 C1227 1.370 . S
C1226 C1230 1.524 . S
C1227 C1219 1.503 . S
C1227 C1226 1.370 . S
C1227 C1228 1.403 . S
C1228 C1227 1.403 . S
C1228 C1229 1.404 . S
C1228 C1231 1.539 . S
C1229 C1225 1.408 . S
C1229 C1228 1.404 . S
C1229 H1241 0.930 . S
C1230 C1226 1.524 . S
C1230 H1242 0.956 . S
C1230 H1243 0.961 . S
C1230 H1244 0.961 . S
C1231 C1228 1.539 . S
C1231 H1245 0.958 . S
C1231 H1246 0.961 . S
C1231 H1247 0.960 . S
H1232 C1216 0.931 . S
H1233 C1221 0.929 . S
H1234 C1222 0.960 . S
H1235 C1222 0.962 . S
H1236 C1222 0.960 . S
H1237 C1223 0.961 . S
H1238 C1223 0.961 . S
H1239 C1223 0.961 . S
H1240 C1224 0.931 . S
H1241 C1229 0.930 . S
H1242 C1230 0.956 . S
H1243 C1230 0.961 . S
H1244 C1230 0.961 . S
H1245 C1231 0.958 . S
H1246 C1231 0.961 . S
H1247 C1231 0.960 . S
C1248 C1249 1.391 . S
C1248 C1250 1.394 . S
C1248 H1264 0.931 . S
C1249 C1248 1.391 . S
C1249 C1253 1.376 . S
C1250 C1248 1.394 . S
C1250 C1251 1.369 . S
C1250 C1254 1.531 . S
C1251 C1250 1.369 . S
C1251 C1252 1.410 . S
C1251 C1259 1.503 . S
C1252 C1251 1.410 . S
C1252 C1253 1.392 . S
C1252 C1255 1.511 . S
C1253 C1249 1.376 . S
C1253 C1252 1.392 . S
C1253 H1265 0.929 . S
C1254 C1250 1.531 . S
C1254 H1266 0.960 . S
C1254 H1267 0.962 . S
C1254 H1268 0.960 . S
C1255 C1252 1.511 . S
C1255 H1269 0.961 . S
C1255 H1270 0.961 . S
C1255 H1271 0.961 . S
C1256 C1257 1.370 . S
C1256 C1258 1.363 . S
C1256 H1272 0.931 . S
C1257 C1256 1.370 . S
C1257 C1261 1.408 . S
C1258 C1256 1.363 . S
C1258 C1259 1.370 . S
C1258 C1262 1.524 . S
C1259 C1251 1.503 . S
C1259 C1258 1.370 . S
C1259 C1260 1.403 . S
C1260 C1259 1.403 . S
C1260 C1261 1.404 . S
C1260 C1263 1.539 . S
C1261 C1257 1.408 . S
C1261 C1260 1.404 . S
C1261 H1273 0.930 . S
C1262 C1258 1.524 . S
C1262 H1274 0.956 . S
C1262 H1275 0.961 . S
C1262 H1276 0.961 . S
C1263 C1260 1.539 . S
C1263 H1277 0.958 . S
C1263 H1278 0.961 . S
C1263 H1279 0.960 . S
H1264 C1248 0.931 . S
H1265 C1253 0.929 . S
H1266 C1254 0.960 . S
H1267 C1254 0.962 . S
H1268 C1254 0.960 . S
H1269 C1255 0.961 . S
H1270 C1255 0.961 . S
H1271 C1255 0.961 . S
H1272 C1256 0.931 . S
H1273 C1261 0.930 . S
H1274 C1262 0.956 . S
H1275 C1262 0.961 . S
H1276 C1262 0.961 . S
H1277 C1263 0.958 . S
H1278 C1263 0.961 . S
H1279 C1263 0.960 . S
C1280 C1281 1.391 . S
C1280 C1282 1.394 . S
C1280 H1296 0.931 . S
C1281 C1280 1.391 . S
C1281 C1285 1.376 . S
C1282 C1280 1.394 . S
C1282 C1283 1.369 . S
C1282 C1286 1.531 . S
C1283 C1282 1.369 . S
C1283 C1284 1.410 . S
C1283 C1291 1.503 . S
C1284 C1283 1.410 . S
C1284 C1285 1.392 . S
C1284 C1287 1.511 . S
C1285 C1281 1.376 . S
C1285 C1284 1.392 . S
C1285 H1297 0.929 . S
C1286 C1282 1.531 . S
C1286 H1298 0.960 . S
C1286 H1299 0.962 . S
C1286 H1300 0.960 . S
C1287 C1284 1.511 . S
C1287 H1301 0.961 . S
C1287 H1302 0.961 . S
C1287 H1303 0.961 . S
C1288 C1289 1.370 . S
C1288 C1290 1.363 . S
C1288 H1304 0.931 . S
C1289 C1288 1.370 . S
C1289 C1293 1.408 . S
C1290 C1288 1.363 . S
C1290 C1291 1.370 . S
C1290 C1294 1.524 . S
C1291 C1283 1.503 . S
C1291 C1290 1.370 . S
C1291 C1292 1.403 . S
C1292 C1291 1.403 . S
C1292 C1293 1.404 . S
C1292 C1295 1.539 . S
C1293 C1289 1.408 . S
C1293 C1292 1.404 . S
C1293 H1305 0.930 . S
C1294 C1290 1.524 . S
C1294 H1306 0.956 . S
C1294 H1307 0.961 . S
C1294 H1308 0.961 . S
C1295 C1292 1.539 . S
C1295 H1309 0.958 . S
C1295 H1310 0.961 . S
C1295 H1311 0.960 . S
H1296 C1280 0.931 . S
H1297 C1285 0.929 . S
H1298 C1286 0.960 . S
H1299 C1286 0.962 . S
H1300 C1286 0.960 . S
H1301 C1287 0.961 . S
H1302 C1287 0.961 . S
H1303 C1287 0.961 . S
H1304 C1288 0.931 . S
H1305 C1293 0.930 . S
H1306 C1294 0.956 . S
H1307 C1294 0.961 . S
H1308 C1294 0.961 . S
H1309 C1295 0.958 . S
H1310 C1295 0.961 . S
H1311 C1295 0.960 . S
C1312 C1313 1.391 . S
C1312 C1314 1.394 . S
C1312 H1328 0.931 . S
C1313 C1312 1.391 . S
C1313 C1317 1.376 . S
C1314 C1312 1.394 . S
C1314 C1315 1.369 . S
C1314 C1318 1.531 . S
C1315 C1314 1.369 . S
C1315 C1316 1.410 . S
C1315 C1323 1.503 . S
C1316 C1315 1.410 . S
C1316 C1317 1.392 . S
C1316 C1319 1.511 . S
C1317 C1313 1.376 . S
C1317 C1316 1.392 . S
C1317 H1329 0.929 . S
C1318 C1314 1.531 . S
C1318 H1330 0.960 . S
C1318 H1331 0.962 . S
C1318 H1332 0.960 . S
C1319 C1316 1.511 . S
C1319 H1333 0.961 . S
C1319 H1334 0.961 . S
C1319 H1335 0.961 . S
C1320 C1321 1.370 . S
C1320 C1322 1.363 . S
C1320 H1336 0.931 . S
C1321 C1320 1.370 . S
C1321 C1325 1.408 . S
C1322 C1320 1.363 . S
C1322 C1323 1.370 . S
C1322 C1326 1.524 . S
C1323 C1315 1.503 . S
C1323 C1322 1.370 . S
C1323 C1324 1.403 . S
C1324 C1323 1.403 . S
C1324 C1325 1.404 . S
C1324 C1327 1.539 . S
C1325 C1321 1.408 . S
C1325 C1324 1.404 . S
C1325 H1337 0.930 . S
C1326 C1322 1.524 . S
C1326 H1338 0.956 . S
C1326 H1339 0.961 . S
C1326 H1340 0.961 . S
C1327 C1324 1.539 . S
C1327 H1341 0.958 . S
C1327 H1342 0.961 . S
C1327 H1343 0.960 . S
H1328 C1312 0.931 . S
H1329 C1317 0.929 . S
H1330 C1318 0.960 . S
H1331 C1318 0.962 . S
H1332 C1318 0.960 . S
H1333 C1319 0.961 . S
H1334 C1319 0.961 . S
H1335 C1319 0.961 . S
H1336 C1320 0.931 . S
H1337 C1325 0.930 . S
H1338 C1326 0.956 . S
H1339 C1326 0.961 . S
H1340 C1326 0.961 . S
H1341 C1327 0.958 . S
H1342 C1327 0.961 . S
H1343 C1327 0.960 . S
C1344 C1345 1.391 . S
C1344 C1346 1.394 . S
C1344 H1360 0.931 . S
C1345 C1344 1.391 . S
C1345 C1349 1.376 . S
C1346 C1344 1.394 . S
C1346 C1347 1.369 . S
C1346 C1350 1.531 . S
C1347 C1346 1.369 . S
C1347 C1348 1.410 . S
C1347 C1355 1.503 . S
C1348 C1347 1.410 . S
C1348 C1349 1.392 . S
C1348 C1351 1.511 . S
C1349 C1345 1.376 . S
C1349 C1348 1.392 . S
C1349 H1361 0.929 . S
C1350 C1346 1.531 . S
C1350 H1362 0.960 . S
C1350 H1363 0.962 . S
C1350 H1364 0.960 . S
C1351 C1348 1.511 . S
C1351 H1365 0.961 . S
C1351 H1366 0.961 . S
C1351 H1367 0.961 . S
C1352 C1353 1.370 . S
C1352 C1354 1.363 . S
C1352 H1368 0.931 . S
C1353 C1352 1.370 . S
C1353 C1357 1.408 . S
C1354 C1352 1.363 . S
C1354 C1355 1.370 . S
C1354 C1358 1.524 . S
C1355 C1347 1.503 . S
C1355 C1354 1.370 . S
C1355 C1356 1.403 . S
C1356 C1355 1.403 . S
C1356 C1357 1.404 . S
C1356 C1359 1.539 . S
C1357 C1353 1.408 . S
C1357 C1356 1.404 . S
C1357 H1369 0.930 . S
C1358 C1354 1.524 . S
C1358 H1370 0.956 . S
C1358 H1371 0.961 . S
C1358 H1372 0.961 . S
C1359 C1356 1.539 . S
C1359 H1373 0.958 . S
C1359 H1374 0.961 . S
C1359 H1375 0.960 . S
H1360 C1344 0.931 . S
H1361 C1349 0.929 . S
H1362 C1350 0.960 . S
H1363 C1350 0.962 . S
H1364 C1350 0.960 . S
H1365 C1351 0.961 . S
H1366 C1351 0.961 . S
H1367 C1351 0.961 . S
H1368 C1352 0.931 . S
H1369 C1357 0.930 . S
H1370 C1358 0.956 . S
H1371 C1358 0.961 . S
H1372 C1358 0.961 . S
H1373 C1359 0.958 . S
H1374 C1359 0.961 . S
H1375 C1359 0.960 . S
C1376 C1377 1.391 . S
C1376 C1378 1.394 . S
C1376 H1392 0.931 . S
C1377 C1376 1.391 . S
C1377 C1381 1.376 . S
C1378 C1376 1.394 . S
C1378 C1379 1.369 . S
C1378 C1382 1.531 . S
C1379 C1378 1.369 . S
C1379 C1380 1.410 . S
C1379 C1387 1.503 . S
C1380 C1379 1.410 . S
C1380 C1381 1.392 . S
C1380 C1383 1.511 . S
C1381 C1377 1.376 . S
C1381 C1380 1.392 . S
C1381 H1393 0.929 . S
C1382 C1378 1.531 . S
C1382 H1394 0.960 . S
C1382 H1395 0.962 . S
C1382 H1396 0.960 . S
C1383 C1380 1.511 . S
C1383 H1397 0.961 . S
C1383 H1398 0.961 . S
C1383 H1399 0.961 . S
C1384 C1385 1.370 . S
C1384 C1386 1.363 . S
C1384 H1400 0.931 . S
C1385 C1384 1.370 . S
C1385 C1389 1.408 . S
C1386 C1384 1.363 . S
C1386 C1387 1.370 . S
C1386 C1390 1.524 . S
C1387 C1379 1.503 . S
C1387 C1386 1.370 . S
C1387 C1388 1.403 . S
C1388 C1387 1.403 . S
C1388 C1389 1.404 . S
C1388 C1391 1.539 . S
C1389 C1385 1.408 . S
C1389 C1388 1.404 . S
C1389 H1401 0.930 . S
C1390 C1386 1.524 . S
C1390 H1402 0.956 . S
C1390 H1403 0.961 . S
C1390 H1404 0.961 . S
C1391 C1388 1.539 . S
C1391 H1405 0.958 . S
C1391 H1406 0.961 . S
C1391 H1407 0.960 . S
H1392 C1376 0.931 . S
H1393 C1381 0.929 . S
H1394 C1382 0.960 . S
H1395 C1382 0.962 . S
H1396 C1382 0.960 . S
H1397 C1383 0.961 . S
H1398 C1383 0.961 . S
H1399 C1383 0.961 . S
H1400 C1384 0.931 . S
H1401 C1389 0.930 . S
H1402 C1390 0.956 . S
H1403 C1390 0.961 . S
H1404 C1390 0.961 . S
H1405 C1391 0.958 . S
H1406 C1391 0.961 . S
H1407 C1391 0.960 . S
C1408 C1409 1.391 . S
C1408 C1410 1.394 . S
C1408 H1424 0.931 . S
C1409 C1408 1.391 . S
C1409 C1413 1.376 . S
C1410 C1408 1.394 . S
C1410 C1411 1.369 . S
C1410 C1414 1.531 . S
C1411 C1410 1.369 . S
C1411 C1412 1.410 . S
C1411 C1419 1.503 . S
C1412 C1411 1.410 . S
C1412 C1413 1.392 . S
C1412 C1415 1.511 . S
C1413 C1409 1.376 . S
C1413 C1412 1.392 . S
C1413 H1425 0.929 . S
C1414 C1410 1.531 . S
C1414 H1426 0.960 . S
C1414 H1427 0.962 . S
C1414 H1428 0.960 . S
C1415 C1412 1.511 . S
C1415 H1429 0.961 . S
C1415 H1430 0.961 . S
C1415 H1431 0.961 . S
C1416 C1417 1.370 . S
C1416 C1418 1.363 . S
C1416 H1432 0.931 . S
C1417 C1416 1.370 . S
C1417 C1421 1.408 . S
C1418 C1416 1.363 . S
C1418 C1419 1.370 . S
C1418 C1422 1.524 . S
C1419 C1411 1.503 . S
C1419 C1418 1.370 . S
C1419 C1420 1.403 . S
C1420 C1419 1.403 . S
C1420 C1421 1.404 . S
C1420 C1423 1.539 . S
C1421 C1417 1.408 . S
C1421 C1420 1.404 . S
C1421 H1433 0.930 . S
C1422 C1418 1.524 . S
C1422 H1434 0.956 . S
C1422 H1435 0.961 . S
C1422 H1436 0.961 . S
C1423 C1420 1.539 . S
C1423 H1437 0.958 . S
C1423 H1438 0.961 . S
C1423 H1439 0.960 . S
H1424 C1408 0.931 . S
H1425 C1413 0.929 . S
H1426 C1414 0.960 . S
H1427 C1414 0.962 . S
H1428 C1414 0.960 . S
H1429 C1415 0.961 . S
H1430 C1415 0.961 . S
H1431 C1415 0.961 . S
H1432 C1416 0.931 . S
H1433 C1421 0.930 . S
H1434 C1422 0.956 . S
H1435 C1422 0.961 . S
H1436 C1422 0.961 . S
H1437 C1423 0.958 . S
H1438 C1423 0.961 . S
H1439 C1423 0.960 . S
C1440 C1441 1.391 . S
C1440 C1442 1.394 . S
C1440 H1456 0.931 . S
C1441 C1440 1.391 . S
C1441 C1445 1.376 . S
C1442 C1440 1.394 . S
C1442 C1443 1.369 . S
C1442 C1446 1.531 . S
C1443 C1442 1.369 . S
C1443 C1444 1.410 . S
C1443 C1451 1.503 . S
C1444 C1443 1.410 . S
C1444 C1445 1.392 . S
C1444 C1447 1.511 . S
C1445 C1441 1.376 . S
C1445 C1444 1.392 . S
C1445 H1457 0.929 . S
C1446 C1442 1.531 . S
C1446 H1458 0.960 . S
C1446 H1459 0.962 . S
C1446 H1460 0.960 . S
C1447 C1444 1.511 . S
C1447 H1461 0.961 . S
C1447 H1462 0.961 . S
C1447 H1463 0.961 . S
C1448 C1449 1.370 . S
C1448 C1450 1.363 . S
C1448 H1464 0.931 . S
C1449 C1448 1.370 . S
C1449 C1453 1.408 . S
C1450 C1448 1.363 . S
C1450 C1451 1.370 . S
C1450 C1454 1.524 . S
C1451 C1443 1.503 . S
C1451 C1450 1.370 . S
C1451 C1452 1.403 . S
C1452 C1451 1.403 . S
C1452 C1453 1.404 . S
C1452 C1455 1.539 . S
C1453 C1449 1.408 . S
C1453 C1452 1.404 . S
C1453 H1465 0.930 . S
C1454 C1450 1.524 . S
C1454 H1466 0.956 . S
C1454 H1467 0.961 . S
C1454 H1468 0.961 . S
C1455 C1452 1.539 . S
C1455 H1469 0.958 . S
C1455 H1470 0.961 . S
C1455 H1471 0.960 . S
H1456 C1440 0.931 . S
H1457 C1445 0.929 . S
H1458 C1446 0.960 . S
H1459 C1446 0.962 . S
H1460 C1446 0.960 . S
H1461 C1447 0.961 . S
H1462 C1447 0.961 . S
H1463 C1447 0.961 . S
H1464 C1448 0.931 . S
H1465 C1453 0.930 . S
H1466 C1454 0.956 . S
H1467 C1454 0.961 . S
H1468 C1454 0.961 . S
H1469 C1455 0.958 . S
H1470 C1455 0.961 . S
H1471 C1455 0.960 . S
C1472 C1473 1.391 . S
C1472 C1474 1.394 . S
C1472 H1488 0.931 . S
C1473 C1472 1.391 . S
C1473 C1477 1.376 . S
C1474 C1472 1.394 . S
C1474 C1475 1.369 . S
C1474 C1478 1.531 . S
C1475 C1474 1.369 . S
C1475 C1476 1.410 . S
C1475 C1483 1.503 . S
C1476 C1475 1.410 . S
C1476 C1477 1.392 . S
C1476 C1479 1.511 . S
C1477 C1473 1.376 . S
C1477 C1476 1.392 . S
C1477 H1489 0.929 . S
C1478 C1474 1.531 . S
C1478 H1490 0.960 . S
C1478 H1491 0.962 . S
C1478 H1492 0.960 . S
C1479 C1476 1.511 . S
C1479 H1493 0.961 . S
C1479 H1494 0.961 . S
C1479 H1495 0.961 . S
C1480 C1481 1.370 . S
C1480 C1482 1.363 . S
C1480 H1496 0.931 . S
C1481 C1480 1.370 . S
C1481 C1485 1.408 . S
C1482 C1480 1.363 . S
C1482 C1483 1.370 . S
C1482 C1486 1.524 . S
C1483 C1475 1.503 . S
C1483 C1482 1.370 . S
C1483 C1484 1.403 . S
C1484 C1483 1.403 . S
C1484 C1485 1.404 . S
C1484 C1487 1.539 . S
C1485 C1481 1.408 . S
C1485 C1484 1.404 . S
C1485 H1497 0.930 . S
C1486 C1482 1.524 . S
C1486 H1498 0.956 . S
C1486 H1499 0.961 . S
C1486 H1500 0.961 . S
C1487 C1484 1.539 . S
C1487 H1501 0.958 . S
C1487 H1502 0.961 . S
C1487 H1503 0.960 . S
H1488 C1472 0.931 . S
H1489 C1477 0.929 . S
H1490 C1478 0.960 . S
H1491 C1478 0.962 . S
H1492 C1478 0.960 . S
H1493 C1479 0.961 . S
H1494 C1479 0.961 . S
H1495 C1479 0.961 . S
H1496 C1480 0.931 . S
H1497 C1485 0.930 . S
H1498 C1486 0.956 . S
H1499 C1486 0.961 . S
H1500 C1486 0.961 . S
H1501 C1487 0.958 . S
H1502 C1487 0.961 . S
H1503 C1487 0.960 . S
C1504 C1505 1.391 . S
C1504 C1506 1.394 . S
C1504 H1520 0.931 . S
C1505 C1504 1.391 . S
C1505 C1509 1.376 . S
C1506 C1504 1.394 . S
C1506 C1507 1.369 . S
C1506 C1510 1.531 . S
C1507 C1506 1.369 . S
C1507 C1508 1.410 . S
C1507 C1515 1.503 . S
C1508 C1507 1.410 . S
C1508 C1509 1.392 . S
C1508 C1511 1.511 . S
C1509 C1505 1.376 . S
C1509 C1508 1.392 . S
C1509 H1521 0.929 . S
C1510 C1506 1.531 . S
C1510 H1522 0.960 . S
C1510 H1523 0.962 . S
C1510 H1524 0.960 . S
C1511 C1508 1.511 . S
C1511 H1525 0.961 . S
C1511 H1526 0.961 . S
C1511 H1527 0.961 . S
C1512 C1513 1.370 . S
C1512 C1514 1.363 . S
C1512 H1528 0.931 . S
C1513 C1512 1.370 . S
C1513 C1517 1.408 . S
C1514 C1512 1.363 . S
C1514 C1515 1.370 . S
C1514 C1518 1.524 . S
C1515 C1507 1.503 . S
C1515 C1514 1.370 . S
C1515 C1516 1.403 . S
C1516 C1515 1.403 . S
C1516 C1517 1.404 . S
C1516 C1519 1.539 . S
C1517 C1513 1.408 . S
C1517 C1516 1.404 . S
C1517 H1529 0.930 . S
C1518 C1514 1.524 . S
C1518 H1530 0.956 . S
C1518 H1531 0.961 . S
C1518 H1532 0.961 . S
C1519 C1516 1.539 . S
C1519 H1533 0.958 . S
C1519 H1534 0.961 . S
C1519 H1535 0.960 . S
H1520 C1504 0.931 . S
H1521 C1509 0.929 . S
H1522 C1510 0.960 . S
H1523 C1510 0.962 . S
H1524 C1510 0.960 . S
H1525 C1511 0.961 . S
H1526 C1511 0.961 . S
H1527 C1511 0.961 . S
H1528 C1512 0.931 . S
H1529 C1517 0.930 . S
H1530 C1518 0.956 . S
H1531 C1518 0.961 . S
H1532 C1518 0.961 . S
H1533 C1519 0.958 . S
H1534 C1519 0.961 . S
H1535 C1519 0.960 . S
C1536 C1537 1.391 . S
C1536 C1538 1.394 . S
C1536 H1552 0.931 . S
C1537 C1536 1.391 . S
C1537 C1541 1.376 . S
C1538 C1536 1.394 . S
C1538 C1539 1.369 . S
C1538 C1542 1.531 . S
C1539 C1538 1.369 . S
C1539 C1540 1.410 . S
C1539 C1547 1.503 . S
C1540 C1539 1.410 . S
C1540 C1541 1.392 . S
C1540 C1543 1.511 . S
C1541 C1537 1.376 . S
C1541 C1540 1.392 . S
C1541 H1553 0.929 . S
C1542 C1538 1.531 . S
C1542 H1554 0.960 . S
C1542 H1555 0.962 . S
C1542 H1556 0.960 . S
C1543 C1540 1.511 . S
C1543 H1557 0.961 . S
C1543 H1558 0.961 . S
C1543 H1559 0.961 . S
C1544 C1545 1.370 . S
C1544 C1546 1.363 . S
C1544 H1560 0.931 . S
C1545 C1544 1.370 . S
C1545 C1549 1.408 . S
C1546 C1544 1.363 . S
C1546 C1547 1.370 . S
C1546 C1550 1.524 . S
C1547 C1539 1.503 . S
C1547 C1546 1.370 . S
C1547 C1548 1.403 . S
C1548 C1547 1.403 . S
C1548 C1549 1.404 . S
C1548 C1551 1.539 . S
C1549 C1545 1.408 . S
C1549 C1548 1.404 . S
C1549 H1561 0.930 . S
C1550 C1546 1.524 . S
C1550 H1562 0.956 . S
C1550 H1563 0.961 . S
C1550 H1564 0.961 . S
C1551 C1548 1.539 . S
C1551 H1565 0.958 . S
C1551 H1566 0.961 . S
C1551 H1567 0.960 . S
H1552 C1536 0.931 . S
H1553 C1541 0.929 . S
H1554 C1542 0.960 . S
H1555 C1542 0.962 . S
H1556 C1542 0.960 . S
H1557 C1543 0.961 . S
H1558 C1543 0.961 . S
H1559 C1543 0.961 . S
H1560 C1544 0.931 . S
H1561 C1549 0.930 . S
H1562 C1550 0.956 . S
H1563 C1550 0.961 . S
H1564 C1550 0.961 . S
H1565 C1551 0.958 . S
H1566 C1551 0.961 . S
H1567 C1551 0.960 . S
C1568 C1569 1.391 . S
C1568 C1570 1.394 . S
C1568 H1584 0.931 . S
C1569 C1568 1.391 . S
C1569 C1573 1.376 . S
C1570 C1568 1.394 . S
C1570 C1571 1.369 . S
C1570 C1574 1.531 . S
C1571 C1570 1.369 . S
C1571 C1572 1.410 . S
C1571 C1579 1.503 1_565 S
C1572 C1571 1.410 . S
C1572 C1573 1.392 . S
C1572 C1575 1.511 . S
C1573 C1569 1.376 . S
C1573 C1572 1.392 . S
C1573 H1585 0.929 . S
C1574 C1570 1.531 . S
C1574 H1586 0.960 . S
C1574 H1587 0.962 . S
C1574 H1588 0.960 . S
C1575 C1572 1.511 . S
C1575 H1589 0.961 . S
C1575 H1590 0.961 1_565 S
C1575 H1591 0.961 . S
C1576 C1577 1.370 . S
C1576 C1578 1.363 . S
C1576 H1592 0.931 . S
C1577 C1576 1.370 . S
C1577 C1581 1.408 . S
C1578 C1576 1.363 . S
C1578 C1579 1.370 . S
C1578 C1582 1.524 . S
C1579 C1571 1.503 1_545 S
C1579 C1578 1.370 . S
C1579 C1580 1.403 . S
C1580 C1579 1.403 . S
C1580 C1581 1.404 . S
C1580 C1583 1.539 . S
C1581 C1577 1.408 . S
C1581 C1580 1.404 . S
C1581 H1593 0.930 . S
C1582 C1578 1.524 . S
C1582 H1594 0.956 . S
C1582 H1595 0.961 . S
C1582 H1596 0.961 . S
C1583 C1580 1.539 . S
C1583 H1597 0.958 . S
C1583 H1598 0.961 . S
C1583 H1599 0.960 1_545 S
H1584 C1568 0.931 . S
H1585 C1573 0.929 . S
H1586 C1574 0.960 . S
H1587 C1574 0.962 . S
H1588 C1574 0.960 . S
H1589 C1575 0.961 . S
H1590 C1575 0.961 1_545 S
H1591 C1575 0.961 . S
H1592 C1576 0.931 . S
H1593 C1581 0.930 . S
H1594 C1582 0.956 . S
H1595 C1582 0.961 . S
H1596 C1582 0.961 . S
H1597 C1583 0.958 . S
H1598 C1583 0.961 . S
H1599 C1583 0.960 1_565 S
C1600 C1601 1.391 . S
C1600 C1602 1.394 . S
C1600 H1616 0.931 . S
C1601 C1600 1.391 . S
C1601 C1605 1.376 . S
C1602 C1600 1.394 . S
C1602 C1603 1.369 . S
C1602 C1606 1.531 . S
C1603 C1602 1.369 . S
C1603 C1604 1.410 . S
C1603 C1611 1.503 . S
C1604 C1603 1.410 . S
C1604 C1605 1.392 . S
C1604 C1607 1.511 . S
C1605 C1601 1.376 . S
C1605 C1604 1.392 . S
C1605 H1617 0.929 . S
C1606 C1602 1.531 . S
C1606 H1618 0.960 . S
C1606 H1619 0.962 . S
C1606 H1620 0.960 . S
C1607 C1604 1.511 . S
C1607 H1621 0.961 . S
C1607 H1622 0.961 . S
C1607 H1623 0.961 . S
C1608 C1609 1.370 . S
C1608 C1610 1.363 . S
C1608 H1624 0.931 . S
C1609 C1608 1.370 . S
C1609 C1613 1.408 . S
C1610 C1608 1.363 . S
C1610 C1611 1.370 . S
C1610 C1614 1.524 . S
C1611 C1603 1.503 . S
C1611 C1610 1.370 . S
C1611 C1612 1.403 . S
C1612 C1611 1.403 . S
C1612 C1613 1.404 . S
C1612 C1615 1.539 . S
C1613 C1609 1.408 . S
C1613 C1612 1.404 . S
C1613 H1625 0.930 . S
C1614 C1610 1.524 . S
C1614 H1626 0.956 . S
C1614 H1627 0.961 . S
C1614 H1628 0.961 . S
C1615 C1612 1.539 . S
C1615 H1629 0.958 . S
C1615 H1630 0.961 . S
C1615 H1631 0.960 . S
H1616 C1600 0.931 . S
H1617 C1605 0.929 . S
H1618 C1606 0.960 . S
H1619 C1606 0.962 . S
H1620 C1606 0.960 . S
H1621 C1607 0.961 . S
H1622 C1607 0.961 . S
H1623 C1607 0.961 . S
H1624 C1608 0.931 . S
H1625 C1613 0.930 . S
H1626 C1614 0.956 . S
H1627 C1614 0.961 . S
H1628 C1614 0.961 . S
H1629 C1615 0.958 . S
H1630 C1615 0.961 . S
H1631 C1615 0.960 . S
C1632 C1633 1.391 . S
C1632 C1634 1.394 . S
C1632 H1648 0.931 . S
C1633 C1632 1.391 . S
C1633 C1637 1.376 . S
C1634 C1632 1.394 . S
C1634 C1635 1.369 . S
C1634 C1638 1.531 . S
C1635 C1634 1.369 . S
C1635 C1636 1.410 . S
C1635 C1643 1.503 1_545 S
C1636 C1635 1.410 . S
C1636 C1637 1.392 . S
C1636 C1639 1.511 . S
C1637 C1633 1.376 . S
C1637 C1636 1.392 . S
C1637 H1649 0.929 . S
C1638 C1634 1.531 . S
C1638 H1650 0.963 . S
C1638 H1651 0.962 . S
C1638 H1652 0.960 . S
C1639 C1636 1.511 . S
C1639 H1653 0.961 . S
C1639 H1654 0.961 1_545 S
C1639 H1655 0.961 . S
C1640 C1641 1.370 . S
C1640 C1642 1.363 . S
C1640 H1656 0.931 . S
C1641 C1640 1.370 . S
C1641 C1645 1.408 . S
C1642 C1640 1.363 . S
C1642 C1643 1.370 . S
C1642 C1646 1.524 . S
C1643 C1635 1.503 1_565 S
C1643 C1642 1.370 . S
C1643 C1644 1.403 . S
C1644 C1643 1.403 . S
C1644 C1645 1.404 . S
C1644 C1647 1.539 . S
C1645 C1641 1.408 . S
C1645 C1644 1.404 . S
C1645 H1657 0.930 . S
C1646 C1642 1.524 . S
C1646 H1658 0.956 1_565 S
C1646 H1659 0.961 1_565 S
C1646 H1660 0.961 . S
C1647 C1644 1.539 . S
C1647 H1661 0.958 . S
C1647 H1662 0.961 . S
C1647 H1663 0.960 . S
H1648 C1632 0.931 . S
H1649 C1637 0.929 . S
H1650 C1638 0.963 . S
H1651 C1638 0.962 . S
H1652 C1638 0.960 . S
H1653 C1639 0.961 . S
H1654 C1639 0.961 1_565 S
H1655 C1639 0.961 . S
H1656 C1640 0.931 . S
H1657 C1645 0.930 . S
H1658 C1646 0.956 1_545 S
H1659 C1646 0.961 1_545 S
H1660 C1646 0.961 . S
H1661 C1647 0.958 . S
H1662 C1647 0.961 . S
H1663 C1647 0.960 . S
C1664 C1665 1.391 . S
C1664 C1666 1.394 . S
C1664 H1680 0.931 . S
C1665 C1664 1.391 . S
C1665 C1669 1.376 1_554 S
C1666 C1664 1.394 . S
C1666 C1667 1.355 1_554 S
C1666 C1670 1.531 . S
C1667 C1666 1.355 1_556 S
C1667 C1668 1.421 . S
C1667 C1675 1.505 . S
C1668 C1667 1.421 . S
C1668 C1669 1.392 . S
C1668 C1671 1.511 . S
C1669 C1665 1.376 1_556 S
C1669 C1668 1.392 . S
C1669 H1681 0.929 . S
C1670 C1666 1.531 . S
C1670 H1682 0.960 . S
C1670 H1683 0.962 . S
C1670 H1684 0.960 . S
C1671 C1668 1.511 . S
C1671 H1685 0.961 . S
C1671 H1686 0.961 . S
C1671 H1687 0.961 . S
C1672 C1673 1.370 1_554 S
C1672 C1674 1.363 . S
C1672 H1688 0.931 . S
C1673 C1672 1.370 1_556 S
C1673 C1677 1.408 . S
C1674 C1672 1.363 . S
C1674 C1675 1.370 1_554 S
C1674 C1678 1.524 . S
C1675 C1667 1.505 . S
C1675 C1674 1.370 1_556 S
C1675 C1676 1.403 . S
C1676 C1675 1.403 . S
C1676 C1677 1.404 . S
C1676 C1679 1.539 . S
C1677 C1673 1.408 . S
C1677 C1676 1.404 . S
C1677 H1689 0.930 . S
C1678 C1674 1.524 . S
C1678 H1690 0.956 . S
C1678 H1691 0.961 . S
C1678 H1692 0.961 . S
C1679 C1676 1.539 . S
C1679 H1693 0.958 . S
C1679 H1694 0.961 . S
C1679 H1695 0.960 . S
H1680 C1664 0.931 . S
H1681 C1669 0.929 . S
H1682 C1670 0.960 . S
H1683 C1670 0.962 . S
H1684 C1670 0.960 . S
H1685 C1671 0.961 . S
H1686 C1671 0.961 . S
H1687 C1671 0.961 . S
H1688 C1672 0.931 . S
H1689 C1677 0.930 . S
H1690 C1678 0.956 . S
H1691 C1678 0.961 . S
H1692 C1678 0.961 . S
H1693 C1679 0.958 . S
H1694 C1679 0.961 . S
H1695 C1679 0.960 . S
C1696 C1697 1.391 . S
C1696 C1698 1.394 . S
C1696 H1712 0.931 . S
C1697 C1696 1.391 . S
C1697 C1701 1.376 . S
C1698 C1696 1.394 . S
C1698 C1699 1.369 . S
C1698 C1702 1.531 . S
C1699 C1698 1.369 . S
C1699 C1700 1.410 . S
C1699 C1707 1.503 1_545 S
C1700 C1699 1.410 . S
C1700 C1701 1.392 . S
C1700 C1703 1.511 . S
C1701 C1697 1.376 . S
C1701 C1700 1.392 . S
C1701 H1713 0.929 . S
C1702 C1698 1.531 . S
C1702 H1714 0.960 1_545 S
C1702 H1715 0.962 . S
C1702 H1716 0.960 . S
C1703 C1700 1.511 . S
C1703 H1717 0.961 . S
C1703 H1718 0.961 . S
C1703 H1719 0.961 . S
C1704 C1705 1.370 . S
C1704 C1706 1.363 . S
C1704 H1720 0.931 . S
C1705 C1704 1.370 . S
C1705 C1709 1.408 . S
C1706 C1704 1.363 . S
C1706 C1707 1.370 . S
C1706 C1710 1.524 . S
C1707 C1699 1.503 1_565 S
C1707 C1706 1.370 . S
C1707 C1708 1.403 . S
C1708 C1707 1.403 . S
C1708 C1709 1.404 . S
C1708 C1711 1.539 . S
C1709 C1705 1.408 . S
C1709 C1708 1.404 . S
C1709 H1721 0.930 . S
C1710 C1706 1.524 . S
C1710 H1722 0.956 . S
C1710 H1723 0.984 . S
C1710 H1724 0.961 . S
C1711 C1708 1.539 . S
C1711 H1725 0.958 . S
C1711 H1726 0.961 . S
C1711 H1727 0.960 1_565 S
H1712 C1696 0.931 . S
H1713 C1701 0.929 . S
H1714 C1702 0.960 1_565 S
H1715 C1702 0.962 . S
H1716 C1702 0.960 . S
H1717 C1703 0.961 . S
H1718 C1703 0.961 . S
H1719 C1703 0.961 . S
H1720 C1704 0.931 . S
H1721 C1709 0.930 . S
H1722 C1710 0.956 . S
H1723 C1710 0.984 . S
H1724 C1710 0.961 . S
H1725 C1711 0.958 . S
H1726 C1711 0.961 . S
H1727 C1711 0.960 1_545 S
C1728 C1729 1.391 . S
C1728 C1730 1.394 . S
C1728 H1744 0.931 . S
C1729 C1728 1.391 . S
C1729 C1733 1.376 . S
C1730 C1728 1.394 . S
C1730 C1731 1.369 . S
C1730 C1734 1.531 . S
C1731 C1730 1.369 . S
C1731 C1732 1.410 . S
C1731 C1739 1.503 . S
C1732 C1731 1.410 . S
C1732 C1733 1.392 . S
C1732 C1735 1.511 . S
C1733 C1729 1.376 . S
C1733 C1732 1.392 . S
C1733 H1745 0.929 . S
C1734 C1730 1.531 . S
C1734 H1746 0.960 . S
C1734 H1747 0.962 . S
C1734 H1748 0.960 . S
C1735 C1732 1.511 . S
C1735 H1749 0.961 . S
C1735 H1750 0.961 . S
C1735 H1751 0.961 . S
C1736 C1737 1.370 . S
C1736 C1738 1.363 . S
C1736 H1752 0.931 . S
C1737 C1736 1.370 . S
C1737 C1741 1.408 . S
C1738 C1736 1.363 . S
C1738 C1739 1.370 . S
C1738 C1742 1.524 . S
C1739 C1731 1.503 . S
C1739 C1738 1.370 . S
C1739 C1740 1.403 . S
C1740 C1739 1.403 . S
C1740 C1741 1.404 . S
C1740 C1743 1.539 . S
C1741 C1737 1.408 . S
C1741 C1740 1.404 . S
C1741 H1753 0.930 . S
C1742 C1738 1.524 . S
C1742 H1754 0.956 . S
C1742 H1755 0.961 . S
C1742 H1756 0.961 . S
C1743 C1740 1.539 . S
C1743 H1757 0.958 . S
C1743 H1758 0.961 . S
C1743 H1759 0.960 . S
H1744 C1728 0.931 . S
H1745 C1733 0.929 . S
H1746 C1734 0.960 . S
H1747 C1734 0.962 . S
H1748 C1734 0.960 . S
H1749 C1735 0.961 . S
H1750 C1735 0.961 . S
H1751 C1735 0.961 . S
H1752 C1736 0.931 . S
H1753 C1741 0.930 . S
H1754 C1742 0.956 . S
H1755 C1742 0.961 . S
H1756 C1742 0.961 . S
H1757 C1743 0.958 . S
H1758 C1743 0.961 . S
H1759 C1743 0.960 . S
C1760 C1761 1.391 . S
C1760 C1762 1.394 . S
C1760 H1776 0.931 . S
C1761 C1760 1.391 . S
C1761 C1765 1.376 . S
C1762 C1760 1.394 . S
C1762 C1763 1.369 . S
C1762 C1766 1.531 . S
C1763 C1762 1.369 . S
C1763 C1764 1.410 . S
C1763 C1771 1.503 1_545 S
C1764 C1763 1.410 . S
C1764 C1765 1.392 . S
C1764 C1767 1.511 . S
C1765 C1761 1.376 . S
C1765 C1764 1.392 . S
C1765 H1777 0.929 . S
C1766 C1762 1.531 . S
C1766 H1778 0.960 . S
C1766 H1779 0.962 . S
C1766 H1780 0.960 . S
C1767 C1764 1.511 . S
C1767 H1781 0.961 . S
C1767 H1782 0.961 1_545 S
C1767 H1783 0.961 . S
C1768 C1769 1.370 . S
C1768 C1770 1.363 . S
C1768 H1784 0.931 . S
C1769 C1768 1.370 . S
C1769 C1773 1.408 . S
C1770 C1768 1.363 . S
C1770 C1771 1.370 . S
C1770 C1774 1.524 . S
C1771 C1763 1.503 1_565 S
C1771 C1770 1.370 . S
C1771 C1772 1.403 . S
C1772 C1771 1.403 . S
C1772 C1773 1.404 . S
C1772 C1775 1.539 . S
C1773 C1769 1.408 . S
C1773 C1772 1.404 . S
C1773 H1785 0.930 . S
C1774 C1770 1.524 . S
C1774 H1786 0.956 1_565 S
C1774 H1787 0.961 1_565 S
C1774 H1788 0.961 . S
C1775 C1772 1.539 . S
C1775 H1789 0.958 . S
C1775 H1790 0.961 . S
C1775 H1791 0.960 . S
H1776 C1760 0.931 . S
H1777 C1765 0.929 . S
H1778 C1766 0.960 . S
H1779 C1766 0.962 . S
H1780 C1766 0.960 . S
H1781 C1767 0.961 . S
H1782 C1767 0.961 1_565 S
H1783 C1767 0.961 . S
H1784 C1768 0.931 . S
H1785 C1773 0.930 . S
H1786 C1774 0.956 1_545 S
H1787 C1774 0.961 1_545 S
H1788 C1774 0.961 . S
H1789 C1775 0.958 . S
H1790 C1775 0.961 . S
H1791 C1775 0.960 . S
C1792 C1793 1.391 . S
C1792 C1794 1.394 . S
C1792 H1808 0.931 . S
C1793 C1792 1.391 . S
C1793 C1797 1.376 . S
C1794 C1792 1.394 . S
C1794 C1795 1.369 . S
C1794 C1798 1.531 . S
C1795 C1794 1.369 . S
C1795 C1796 1.410 . S
C1795 C1803 1.503 . S
C1796 C1795 1.410 . S
C1796 C1797 1.392 . S
C1796 C1799 1.511 1_554 S
C1797 C1793 1.376 . S
C1797 C1796 1.392 . S
C1797 H1809 0.933 . S
C1798 C1794 1.531 . S
C1798 H1810 0.960 . S
C1798 H1811 0.962 . S
C1798 H1812 0.960 . S
C1799 C1796 1.511 1_556 S
C1799 H1813 0.961 . S
C1799 H1814 0.961 . S
C1799 H1815 0.961 1_556 S
C1800 C1801 1.370 . S
C1800 C1802 1.363 . S
C1800 H1816 0.931 . S
C1801 C1800 1.370 . S
C1801 C1805 1.408 1_556 S
C1802 C1800 1.363 . S
C1802 C1803 1.370 1_556 S
C1802 C1806 1.524 . S
C1803 C1795 1.503 . S
C1803 C1802 1.370 1_554 S
C1803 C1804 1.403 . S
C1804 C1803 1.403 . S
C1804 C1805 1.404 . S
C1804 C1807 1.539 . S
C1805 C1801 1.408 1_554 S
C1805 C1804 1.404 . S
C1805 H1817 0.930 . S
C1806 C1802 1.524 . S
C1806 H1818 0.956 . S
C1806 H1819 0.961 . S
C1806 H1820 0.961 . S
C1807 C1804 1.539 . S
C1807 H1821 0.958 . S
C1807 H1822 0.961 . S
C1807 H1823 0.960 . S
H1808 C1792 0.931 . S
H1809 C1797 0.933 . S
H1810 C1798 0.960 . S
H1811 C1798 0.962 . S
H1812 C1798 0.960 . S
H1813 C1799 0.961 . S
H1814 C1799 0.961 . S
H1815 C1799 0.961 1_554 S
H1816 C1800 0.931 . S
H1817 C1805 0.930 . S
H1818 C1806 0.956 . S
H1819 C1806 0.961 . S
H1820 C1806 0.961 . S
H1821 C1807 0.958 . S
H1822 C1807 0.961 . S
H1823 C1807 0.960 . S
C1824 C1825 1.391 . S
C1824 C1826 1.394 . S
C1824 H1840 0.931 . S
C1825 C1824 1.391 . S
C1825 C1829 1.376 . S
C1826 C1824 1.394 . S
C1826 C1827 1.369 . S
C1826 C1830 1.531 . S
C1827 C1826 1.369 . S
C1827 C1828 1.410 . S
C1827 C1835 1.503 . S
C1828 C1827 1.410 . S
C1828 C1829 1.392 . S
C1828 C1831 1.511 . S
C1829 C1825 1.376 . S
C1829 C1828 1.392 . S
C1829 H1841 0.929 . S
C1830 C1826 1.531 . S
C1830 H1842 0.960 . S
C1830 H1843 0.962 . S
C1830 H1844 0.960 . S
C1831 C1828 1.511 . S
C1831 H1845 0.961 . S
C1831 H1846 0.961 . S
C1831 H1847 0.961 . S
C1832 C1833 1.370 . S
C1832 C1834 1.363 . S
C1832 H1848 0.931 . S
C1833 C1832 1.370 . S
C1833 C1837 1.408 . S
C1834 C1832 1.363 . S
C1834 C1835 1.370 . S
C1834 C1838 1.524 . S
C1835 C1827 1.503 . S
C1835 C1834 1.370 . S
C1835 C1836 1.403 . S
C1836 C1835 1.403 . S
C1836 C1837 1.404 . S
C1836 C1839 1.539 . S
C1837 C1833 1.408 . S
C1837 C1836 1.404 . S
C1837 H1849 0.930 . S
C1838 C1834 1.524 . S
C1838 H1850 0.956 . S
C1838 H1851 0.961 . S
C1838 H1852 0.961 . S
C1839 C1836 1.539 . S
C1839 H1853 0.958 . S
C1839 H1854 0.961 . S
C1839 H1855 0.960 . S
H1840 C1824 0.931 . S
H1841 C1829 0.929 . S
H1842 C1830 0.960 . S
H1843 C1830 0.962 . S
H1844 C1830 0.960 . S
H1845 C1831 0.961 . S
H1846 C1831 0.961 . S
H1847 C1831 0.961 . S
H1848 C1832 0.931 . S
H1849 C1837 0.930 . S
H1850 C1838 0.956 . S
H1851 C1838 0.961 . S
H1852 C1838 0.961 . S
H1853 C1839 0.958 . S
H1854 C1839 0.961 . S
H1855 C1839 0.960 . S
C1856 C1857 1.391 . S
C1856 C1858 1.394 . S
C1856 H1872 0.931 . S
C1857 C1856 1.391 . S
C1857 C1861 1.376 1_556 S
C1858 C1856 1.394 . S
C1858 C1859 1.369 . S
C1858 C1862 1.531 . S
C1859 C1858 1.369 . S
C1859 C1860 1.410 1_556 S
C1859 C1867 1.503 1_556 S
C1860 C1859 1.410 1_554 S
C1860 C1861 1.392 . S
C1860 C1863 1.511 . S
C1861 C1857 1.376 1_554 S
C1861 C1860 1.392 . S
C1861 H1873 0.929 . S
C1862 C1858 1.531 . S
C1862 H1874 0.960 . S
C1862 H1875 0.962 . S
C1862 H1876 0.960 . S
C1863 C1860 1.511 . S
C1863 H1877 0.961 . S
C1863 H1878 0.961 . S
C1863 H1879 0.961 . S
C1864 C1865 1.370 . S
C1864 C1866 1.363 . S
C1864 H1880 0.931 . S
C1865 C1864 1.370 . S
C1865 C1869 1.408 . S
C1866 C1864 1.363 . S
C1866 C1867 1.370 . S
C1866 C1870 1.524 . S
C1867 C1859 1.503 1_554 S
C1867 C1866 1.370 . S
C1867 C1868 1.403 . S
C1868 C1867 1.403 . S
C1868 C1869 1.404 . S
C1868 C1871 1.539 . S
C1869 C1865 1.408 . S
C1869 C1868 1.404 . S
C1869 H1881 0.930 . S
C1870 C1866 1.524 . S
C1870 H1882 0.956 1_554 S
C1870 H1883 0.961 . S
C1870 H1884 0.961 . S
C1871 C1868 1.539 . S
C1871 H1885 0.958 1_554 S
C1871 H1886 0.961 . S
C1871 H1887 0.960 . S
H1872 C1856 0.931 . S
H1873 C1861 0.929 . S
H1874 C1862 0.960 . S
H1875 C1862 0.962 . S
H1876 C1862 0.960 . S
H1877 C1863 0.961 . S
H1878 C1863 0.961 . S
H1879 C1863 0.961 . S
H1880 C1864 0.931 . S
H1881 C1869 0.930 . S
H1882 C1870 0.956 1_556 S
H1883 C1870 0.961 . S
H1884 C1870 0.961 . S
H1885 C1871 0.958 1_556 S
H1886 C1871 0.961 . S
H1887 C1871 0.960 . S
C1888 C1889 1.391 . S
C1888 C1890 1.394 . S
C1888 H1904 0.931 . S
C1889 C1888 1.391 . S
C1889 C1893 1.376 . S
C1890 C1888 1.394 . S
C1890 C1891 1.369 . S
C1890 C1894 1.531 . S
C1891 C1890 1.369 . S
C1891 C1892 1.410 . S
C1891 C1899 1.503 . S
C1892 C1891 1.410 . S
C1892 C1893 1.392 . S
C1892 C1895 1.511 . S
C1893 C1889 1.376 . S
C1893 C1892 1.392 . S
C1893 H1905 0.929 . S
C1894 C1890 1.531 . S
C1894 H1906 0.960 . S
C1894 H1907 0.962 . S
C1894 H1908 0.960 . S
C1895 C1892 1.511 . S
C1895 H1909 0.961 . S
C1895 H1910 0.961 . S
C1895 H1911 0.961 . S
C1896 C1897 1.370 . S
C1896 C1898 1.363 . S
C1896 H1912 0.931 . S
C1897 C1896 1.370 . S
C1897 C1901 1.408 . S
C1898 C1896 1.363 . S
C1898 C1899 1.370 . S
C1898 C1902 1.524 . S
C1899 C1891 1.503 . S
C1899 C1898 1.370 . S
C1899 C1900 1.403 . S
C1900 C1899 1.403 . S
C1900 C1901 1.404 . S
C1900 C1903 1.539 . S
C1901 C1897 1.408 . S
C1901 C1900 1.404 . S
C1901 H1913 0.930 . S
C1902 C1898 1.524 . S
C1902 H1914 0.956 . S
C1902 H1915 0.961 . S
C1902 H1916 0.961 . S
C1903 C1900 1.539 . S
C1903 H1917 0.958 . S
C1903 H1918 0.961 . S
C1903 H1919 0.960 . S
H1904 C1888 0.931 . S
H1905 C1893 0.929 . S
H1906 C1894 0.960 . S
H1907 C1894 0.962 . S
H1908 C1894 0.960 . S
H1909 C1895 0.961 . S
H1910 C1895 0.961 . S
H1911 C1895 0.961 . S
H1912 C1896 0.931 . S
H1913 C1901 0.930 . S
H1914 C1902 0.956 . S
H1915 C1902 0.961 . S
H1916 C1902 0.961 . S
H1917 C1903 0.958 . S
H1918 C1903 0.961 . S
H1919 C1903 0.960 . S
C1920 C1921 1.391 . S
C1920 C1922 1.394 . S
C1920 H1936 0.931 . S
C1921 C1920 1.391 . S
C1921 C1925 1.376 . S
C1922 C1920 1.394 . S
C1922 C1923 1.369 . S
C1922 C1926 1.531 . S
C1923 C1922 1.369 . S
C1923 C1924 1.410 . S
C1923 C1931 1.503 . S
C1924 C1923 1.410 . S
C1924 C1925 1.392 . S
C1924 C1927 1.511 . S
C1925 C1921 1.376 . S
C1925 C1924 1.392 . S
C1925 H1937 0.929 . S
C1926 C1922 1.531 . S
C1926 H1938 0.960 . S
C1926 H1939 0.962 . S
C1926 H1940 0.960 . S
C1927 C1924 1.511 . S
C1927 H1941 0.961 . S
C1927 H1942 0.961 . S
C1927 H1943 0.961 . S
C1928 C1929 1.370 . S
C1928 C1930 1.363 . S
C1928 H1944 0.931 . S
C1929 C1928 1.370 . S
C1929 C1933 1.408 . S
C1930 C1928 1.363 . S
C1930 C1931 1.370 . S
C1930 C1934 1.524 . S
C1931 C1923 1.503 . S
C1931 C1930 1.370 . S
C1931 C1932 1.403 . S
C1932 C1931 1.403 . S
C1932 C1933 1.404 . S
C1932 C1935 1.539 . S
C1933 C1929 1.408 . S
C1933 C1932 1.404 . S
C1933 H1945 0.930 . S
C1934 C1930 1.524 . S
C1934 H1946 0.956 . S
C1934 H1947 0.961 . S
C1934 H1948 0.961 . S
C1935 C1932 1.539 . S
C1935 H1949 0.958 . S
C1935 H1950 0.961 . S
C1935 H1951 0.960 . S
H1936 C1920 0.931 . S
H1937 C1925 0.929 . S
H1938 C1926 0.960 . S
H1939 C1926 0.962 . S
H1940 C1926 0.960 . S
H1941 C1927 0.961 . S
H1942 C1927 0.961 . S
H1943 C1927 0.961 . S
H1944 C1928 0.931 . S
H1945 C1933 0.930 . S
H1946 C1934 0.956 . S
H1947 C1934 0.961 . S
H1948 C1934 0.961 . S
H1949 C1935 0.958 . S
H1950 C1935 0.961 . S
H1951 C1935 0.960 . S
C1952 C1953 1.391 . S
C1952 C1954 1.394 . S
C1952 H1968 0.931 . S
C1953 C1952 1.391 . S
C1953 C1957 1.376 . S
C1954 C1952 1.394 . S
C1954 C1955 1.369 . S
C1954 C1958 1.531 . S
C1955 C1954 1.369 . S
C1955 C1956 1.410 . S
C1955 C1963 1.503 . S
C1956 C1955 1.410 . S
C1956 C1957 1.392 . S
C1956 C1959 1.511 . S
C1957 C1953 1.376 . S
C1957 C1956 1.392 . S
C1957 H1969 0.929 . S
C1958 C1954 1.531 . S
C1958 H1970 0.960 . S
C1958 H1971 0.962 . S
C1958 H1972 0.960 . S
C1959 C1956 1.511 . S
C1959 H1973 0.961 . S
C1959 H1974 0.961 . S
C1959 H1975 0.961 . S
C1960 C1961 1.370 . S
C1960 C1962 1.363 . S
C1960 H1976 0.931 . S
C1961 C1960 1.370 . S
C1961 C1965 1.408 . S
C1962 C1960 1.363 . S
C1962 C1963 1.370 . S
C1962 C1966 1.524 . S
C1963 C1955 1.503 . S
C1963 C1962 1.370 . S
C1963 C1964 1.403 . S
C1964 C1963 1.403 . S
C1964 C1965 1.404 . S
C1964 C1967 1.539 . S
C1965 C1961 1.408 . S
C1965 C1964 1.404 . S
C1965 H1977 0.930 . S
C1966 C1962 1.524 . S
C1966 H1978 0.956 . S
C1966 H1979 0.961 . S
C1966 H1980 0.961 . S
C1967 C1964 1.539 . S
C1967 H1981 0.958 . S
C1967 H1982 0.961 . S
C1967 H1983 0.960 . S
H1968 C1952 0.931 . S
H1969 C1957 0.929 . S
H1970 C1958 0.960 . S
H1971 C1958 0.962 . S
H1972 C1958 0.960 . S
H1973 C1959 0.961 . S
H1974 C1959 0.961 . S
H1975 C1959 0.961 . S
H1976 C1960 0.931 . S
H1977 C1965 0.930 . S
H1978 C1966 0.956 . S
H1979 C1966 0.961 . S
H1980 C1966 0.961 . S
H1981 C1967 0.958 . S
H1982 C1967 0.961 . S
H1983 C1967 0.960 . S
C1984 C1985 1.391 . S
C1984 C1986 1.397 . S
C1984 H2000 0.931 1_556 S
C1985 C1984 1.391 . S
C1985 C1989 1.376 . S
C1986 C1984 1.397 . S
C1986 C1987 1.379 . S
C1986 C1990 1.518 1_556 S
C1987 C1986 1.379 . S
C1987 C1988 1.410 . S
C1987 C1995 1.503 . S
C1988 C1987 1.410 . S
C1988 C1989 1.392 . S
C1988 C1991 1.511 . S
C1989 C1985 1.376 . S
C1989 C1988 1.392 . S
C1989 H2001 0.929 . S
C1990 C1986 1.518 1_554 S
C1990 H2002 0.960 . S
C1990 H2003 0.962 . S
C1990 H2004 0.960 . S
C1991 C1988 1.511 . S
C1991 H2005 0.961 . S
C1991 H2006 0.961 . S
C1991 H2007 0.961 . S
C1992 C1993 1.370 . S
C1992 C1994 1.363 . S
C1992 H2008 0.931 . S
C1993 C1992 1.370 . S
C1993 C1997 1.408 1_554 S
C1994 C1992 1.363 . S
C1994 C1995 1.370 1_554 S
C1994 C1998 1.524 . S
C1995 C1987 1.503 . S
C1995 C1994 1.370 1_556 S
C1995 C1996 1.403 . S
C1996 C1995 1.403 . S
C1996 C1997 1.404 . S
C1996 C1999 1.539 . S
C1997 C1993 1.408 1_556 S
C1997 C1996 1.404 . S
C1997 H2009 0.930 . S
C1998 C1994 1.524 . S
C1998 H2010 0.956 . S
C1998 H2011 0.961 . S
C1998 H2012 0.961 . S
C1999 C1996 1.539 . S
C1999 H2013 0.958 . S
C1999 H2014 0.961 . S
C1999 H2015 0.960 . S
H2000 C1984 0.931 1_554 S
H2001 C1989 0.929 . S
H2002 C1990 0.960 . S
H2003 C1990 0.962 . S
H2004 C1990 0.960 . S
H2005 C1991 0.961 . S
H2006 C1991 0.961 . S
H2007 C1991 0.961 . S
H2008 C1992 0.931 . S
H2009 C1997 0.930 . S
H2010 C1998 0.956 . S
H2011 C1998 0.961 . S
H2012 C1998 0.961 . S
H2013 C1999 0.958 . S
H2014 C1999 0.961 . S
H2015 C1999 0.960 . S
C2016 C2017 1.391 . S
C2016 C2018 1.394 . S
C2016 H2032 0.931 . S
C2017 C2016 1.391 . S
C2017 C2021 1.376 . S
C2018 C2016 1.394 . S
C2018 C2019 1.369 . S
C2018 C2022 1.531 . S
C2019 C2018 1.369 . S
C2019 C2020 1.410 . S
C2019 C2027 1.503 . S
C2020 C2019 1.410 . S
C2020 C2021 1.392 . S
C2020 C2023 1.511 . S
C2021 C2017 1.376 . S
C2021 C2020 1.392 . S
C2021 H2033 0.929 . S
C2022 C2018 1.531 . S
C2022 H2034 0.960 . S
C2022 H2035 0.962 . S
C2022 H2036 0.960 . S
C2023 C2020 1.511 . S
C2023 H2037 0.961 . S
C2023 H2038 0.961 . S
C2023 H2039 0.961 . S
C2024 C2025 1.370 . S
C2024 C2026 1.363 . S
C2024 H2040 0.931 . S
C2025 C2024 1.370 . S
C2025 C2029 1.408 . S
C2026 C2024 1.363 . S
C2026 C2027 1.370 . S
C2026 C2030 1.524 . S
C2027 C2019 1.503 . S
C2027 C2026 1.370 . S
C2027 C2028 1.403 . S
C2028 C2027 1.403 . S
C2028 C2029 1.404 . S
C2028 C2031 1.539 . S
C2029 C2025 1.408 . S
C2029 C2028 1.404 . S
C2029 H2041 0.930 . S
C2030 C2026 1.524 . S
C2030 H2042 0.956 . S
C2030 H2043 0.961 . S
C2030 H2044 0.961 . S
C2031 C2028 1.539 . S
C2031 H2045 0.958 . S
C2031 H2046 0.961 . S
C2031 H2047 0.960 . S
H2032 C2016 0.931 . S
H2033 C2021 0.929 . S
H2034 C2022 0.960 . S
H2035 C2022 0.962 . S
H2036 C2022 0.960 . S
H2037 C2023 0.961 . S
H2038 C2023 0.961 . S
H2039 C2023 0.961 . S
H2040 C2024 0.931 . S
H2041 C2029 0.930 . S
H2042 C2030 0.956 . S
H2043 C2030 0.961 . S
H2044 C2030 0.961 . S
H2045 C2031 0.958 . S
H2046 C2031 0.961 . S
H2047 C2031 0.960 . S
C2048 C2049 1.391 . S
C2048 C2050 1.394 . S
C2048 H2064 0.931 . S
C2049 C2048 1.391 . S
C2049 C2053 1.376 . S
C2050 C2048 1.394 . S
C2050 C2051 1.369 . S
C2050 C2054 1.531 . S
C2051 C2050 1.369 . S
C2051 C2052 1.410 . S
C2051 C2059 1.503 . S
C2052 C2051 1.410 . S
C2052 C2053 1.392 . S
C2052 C2055 1.511 . S
C2053 C2049 1.376 . S
C2053 C2052 1.392 . S
C2053 H2065 0.929 . S
C2054 C2050 1.531 . S
C2054 H2066 0.960 . S
C2054 H2067 0.962 . S
C2054 H2068 0.960 . S
C2055 C2052 1.511 . S
C2055 H2069 0.961 . S
C2055 H2070 0.961 . S
C2055 H2071 0.961 . S
C2056 C2057 1.370 . S
C2056 C2058 1.363 . S
C2056 H2072 0.931 . S
C2057 C2056 1.370 . S
C2057 C2061 1.408 . S
C2058 C2056 1.363 . S
C2058 C2059 1.370 . S
C2058 C2062 1.524 . S
C2059 C2051 1.503 . S
C2059 C2058 1.370 . S
C2059 C2060 1.403 . S
C2060 C2059 1.403 . S
C2060 C2061 1.404 . S
C2060 C2063 1.539 . S
C2061 C2057 1.408 . S
C2061 C2060 1.404 . S
C2061 H2073 0.930 . S
C2062 C2058 1.524 . S
C2062 H2074 0.956 . S
C2062 H2075 0.961 . S
C2062 H2076 0.961 . S
C2063 C2060 1.539 . S
C2063 H2077 0.958 . S
C2063 H2078 0.961 . S
C2063 H2079 0.960 . S
H2064 C2048 0.931 . S
H2065 C2053 0.929 . S
H2066 C2054 0.960 . S
H2067 C2054 0.962 . S
H2068 C2054 0.960 . S
H2069 C2055 0.961 . S
H2070 C2055 0.961 . S
H2071 C2055 0.961 . S
H2072 C2056 0.931 . S
H2073 C2061 0.930 . S
H2074 C2062 0.956 . S
H2075 C2062 0.961 . S
H2076 C2062 0.961 . S
H2077 C2063 0.958 . S
H2078 C2063 0.961 . S
H2079 C2063 0.960 . S
C2080 C2081 1.391 1_455 S
C2080 C2082 1.394 . S
C2080 H2096 0.931 . S
C2081 C2080 1.391 1_655 S
C2081 C2085 1.376 . S
C2082 C2080 1.394 . S
C2082 C2083 1.369 1_455 S
C2082 C2086 1.531 . S
C2083 C2082 1.369 1_655 S
C2083 C2084 1.410 . S
C2083 C2091 1.503 1_655 S
C2084 C2083 1.410 . S
C2084 C2085 1.392 . S
C2084 C2087 1.511 . S
C2085 C2081 1.376 . S
C2085 C2084 1.392 . S
C2085 H2097 0.929 . S
C2086 C2082 1.531 . S
C2086 H2098 0.960 . S
C2086 H2099 0.962 . S
C2086 H2100 0.960 . S
C2087 C2084 1.511 . S
C2087 H2101 0.961 . S
C2087 H2102 0.961 . S
C2087 H2103 0.961 . S
C2088 C2089 1.370 . S
C2088 C2090 1.363 . S
C2088 H2104 0.931 . S
C2089 C2088 1.370 . S
C2089 C2093 1.408 . S
C2090 C2088 1.363 . S
C2090 C2091 1.370 . S
C2090 C2094 1.524 . S
C2091 C2083 1.503 1_455 S
C2091 C2090 1.370 . S
C2091 C2092 1.403 1_455 S
C2092 C2091 1.403 1_655 S
C2092 C2093 1.404 1_655 S
C2092 C2095 1.539 . S
C2093 C2089 1.408 . S
C2093 C2092 1.404 1_455 S
C2093 H2105 0.928 1_455 S
C2094 C2090 1.524 . S
C2094 H2106 0.956 . S
C2094 H2107 0.961 . S
C2094 H2108 0.961 . S
C2095 C2092 1.539 . S
C2095 H2109 0.958 . S
C2095 H2110 0.961 . S
C2095 H2111 0.960 . S
H2096 C2080 0.931 . S
H2097 C2085 0.929 . S
H2098 C2086 0.960 . S
H2099 C2086 0.962 . S
H2100 C2086 0.960 . S
H2101 C2087 0.961 . S
H2102 C2087 0.961 . S
H2103 C2087 0.961 . S
H2104 C2088 0.931 . S
H2105 C2093 0.928 1_655 S
H2106 C2094 0.956 . S
H2107 C2094 0.961 . S
H2108 C2094 0.961 . S
H2109 C2095 0.958 . S
H2110 C2095 0.961 . S
H2111 C2095 0.960 . S
C2112 C2113 1.391 . S
C2112 C2114 1.394 . S
C2112 H2128 0.931 . S
C2113 C2112 1.391 . S
C2113 C2117 1.376 . S
C2114 C2112 1.394 . S
C2114 C2115 1.369 . S
C2114 C2118 1.531 . S
C2115 C2114 1.369 . S
C2115 C2116 1.410 . S
C2115 C2123 1.503 1_455 S
C2116 C2115 1.410 . S
C2116 C2117 1.392 . S
C2116 C2119 1.511 . S
C2117 C2113 1.376 . S
C2117 C2116 1.392 . S
C2117 H2129 0.929 . S
C2118 C2114 1.531 . S
C2118 H2130 0.960 . S
C2118 H2131 0.962 . S
C2118 H2132 0.960 . S
C2119 C2116 1.511 . S
C2119 H2133 0.961 . S
C2119 H2134 0.961 1_455 S
C2119 H2135 0.961 1_455 S
C2120 C2121 1.370 . S
C2120 C2122 1.363 . S
C2120 H2136 0.931 . S
C2121 C2120 1.370 . S
C2121 C2125 1.408 . S
C2122 C2120 1.363 . S
C2122 C2123 1.370 . S
C2122 C2126 1.541 . S
C2123 C2115 1.503 1_655 S
C2123 C2122 1.370 . S
C2123 C2124 1.403 . S
C2124 C2123 1.403 . S
C2124 C2125 1.404 . S
C2124 C2127 1.539 . S
C2125 C2121 1.408 . S
C2125 C2124 1.404 . S
C2125 H2137 0.930 . S
C2126 C2122 1.541 . S
C2126 H2138 0.941 1_655 S
C2126 H2139 0.949 1_655 S
C2126 H2140 0.971 . S
C2127 C2124 1.539 . S
C2127 H2141 0.958 . S
C2127 H2142 0.961 . S
C2127 H2143 0.960 . S
H2128 C2112 0.931 . S
H2129 C2117 0.929 . S
H2130 C2118 0.960 . S
H2131 C2118 0.962 . S
H2132 C2118 0.960 . S
H2133 C2119 0.961 . S
H2134 C2119 0.961 1_655 S
H2135 C2119 0.961 1_655 S
H2136 C2120 0.931 . S
H2137 C2125 0.930 . S
H2138 C2126 0.941 1_455 S
H2139 C2126 0.949 1_455 S
H2140 C2126 0.971 . S
H2141 C2127 0.958 . S
H2142 C2127 0.961 . S
H2143 C2127 0.960 . S
C2144 C2145 1.391 . S
C2144 C2146 1.394 . S
C2144 H2160 0.931 . S
C2145 C2144 1.391 . S
C2145 C2149 1.376 . S
C2146 C2144 1.394 . S
C2146 C2147 1.369 . S
C2146 C2150 1.531 . S
C2147 C2146 1.369 . S
C2147 C2148 1.410 . S
C2147 C2155 1.503 . S
C2148 C2147 1.410 . S
C2148 C2149 1.392 . S
C2148 C2151 1.511 . S
C2149 C2145 1.376 . S
C2149 C2148 1.392 . S
C2149 H2161 0.929 . S
C2150 C2146 1.531 . S
C2150 H2162 0.960 . S
C2150 H2163 0.962 . S
C2150 H2164 0.960 . S
C2151 C2148 1.511 . S
C2151 H2165 0.961 . S
C2151 H2166 0.961 . S
C2151 H2167 0.961 . S
C2152 C2153 1.370 . S
C2152 C2154 1.363 . S
C2152 H2168 0.931 . S
C2153 C2152 1.370 . S
C2153 C2157 1.408 . S
C2154 C2152 1.363 . S
C2154 C2155 1.370 . S
C2154 C2158 1.524 . S
C2155 C2147 1.503 . S
C2155 C2154 1.370 . S
C2155 C2156 1.403 . S
C2156 C2155 1.403 . S
C2156 C2157 1.404 . S
C2156 C2159 1.539 . S
C2157 C2153 1.408 . S
C2157 C2156 1.404 . S
C2157 H2169 0.930 . S
C2158 C2154 1.524 . S
C2158 H2170 0.956 . S
C2158 H2171 0.961 . S
C2158 H2172 0.961 . S
C2159 C2156 1.539 . S
C2159 H2173 0.958 . S
C2159 H2174 0.961 . S
C2159 H2175 0.960 . S
H2160 C2144 0.931 . S
H2161 C2149 0.929 . S
H2162 C2150 0.960 . S
H2163 C2150 0.962 . S
H2164 C2150 0.960 . S
H2165 C2151 0.961 . S
H2166 C2151 0.961 . S
H2167 C2151 0.961 . S
H2168 C2152 0.931 . S
H2169 C2157 0.930 . S
H2170 C2158 0.956 . S
H2171 C2158 0.961 . S
H2172 C2158 0.961 . S
H2173 C2159 0.958 . S
H2174 C2159 0.961 . S
H2175 C2159 0.960 . S
C2176 C2177 1.391 . S
C2176 C2178 1.394 . S
C2176 H2192 0.931 . S
C2177 C2176 1.391 . S
C2177 C2181 1.376 . S
C2178 C2176 1.394 . S
C2178 C2179 1.369 . S
C2178 C2182 1.531 . S
C2179 C2178 1.369 . S
C2179 C2180 1.410 . S
C2179 C2187 1.503 . S
C2180 C2179 1.410 . S
C2180 C2181 1.392 . S
C2180 C2183 1.511 . S
C2181 C2177 1.376 . S
C2181 C2180 1.392 . S
C2181 H2193 0.929 . S
C2182 C2178 1.531 . S
C2182 H2194 0.960 1_554 S
C2182 H2195 0.962 . S
C2182 H2196 0.960 1_554 S
C2183 C2180 1.511 . S
C2183 H2197 0.961 . S
C2183 H2198 0.961 . S
C2183 H2199 0.961 1_554 S
C2184 C2185 1.370 . S
C2184 C2186 1.363 . S
C2184 H2200 0.931 . S
C2185 C2184 1.370 . S
C2185 C2189 1.408 1_554 S
C2186 C2184 1.363 . S
C2186 C2187 1.370 . S
C2186 C2190 1.524 . S
C2187 C2179 1.503 . S
C2187 C2186 1.370 . S
C2187 C2188 1.403 1_554 S
C2188 C2187 1.403 1_556 S
C2188 C2189 1.404 . S
C2188 C2191 1.539 . S
C2189 C2185 1.408 1_556 S
C2189 C2188 1.404 . S
C2189 H2201 0.930 . S
C2190 C2186 1.524 . S
C2190 H2202 0.956 . S
C2190 H2203 0.961 . S
C2190 H2204 0.961 . S
C2191 C2188 1.539 . S
C2191 H2205 0.958 . S
C2191 H2206 0.961 . S
C2191 H2207 0.960 . S
H2192 C2176 0.931 . S
H2193 C2181 0.929 . S
H2194 C2182 0.960 1_556 S
H2195 C2182 0.962 . S
H2196 C2182 0.960 1_556 S
H2197 C2183 0.961 . S
H2198 C2183 0.961 . S
H2199 C2183 0.961 1_556 S
H2200 C2184 0.931 . S
H2201 C2189 0.930 . S
H2202 C2190 0.956 . S
H2203 C2190 0.961 . S
H2204 C2190 0.961 . S
H2205 C2191 0.958 . S
H2206 C2191 0.961 . S
H2207 C2191 0.960 . S
C2208 C2209 1.391 . S
C2208 C2210 1.394 . S
C2208 H2224 0.931 . S
C2209 C2208 1.391 . S
C2209 C2213 1.376 1_655 S
C2210 C2208 1.394 . S
C2210 C2211 1.369 . S
C2210 C2214 1.531 . S
C2211 C2210 1.369 . S
C2211 C2212 1.410 1_655 S
C2211 C2219 1.503 1_655 S
C2212 C2211 1.410 1_455 S
C2212 C2213 1.392 . S
C2212 C2215 1.511 . S
C2213 C2209 1.376 1_455 S
C2213 C2212 1.392 . S
C2213 H2225 0.929 . S
C2214 C2210 1.531 . S
C2214 H2226 0.960 . S
C2214 H2227 0.962 . S
C2214 H2228 0.960 . S
C2215 C2212 1.511 . S
C2215 H2229 0.961 . S
C2215 H2230 0.961 . S
C2215 H2231 0.961 . S
C2216 C2217 1.370 . S
C2216 C2218 1.363 . S
C2216 H2232 0.931 . S
C2217 C2216 1.370 . S
C2217 C2221 1.408 . S
C2218 C2216 1.363 . S
C2218 C2219 1.370 . S
C2218 C2222 1.524 1_455 S
C2219 C2211 1.503 1_455 S
C2219 C2218 1.370 . S
C2219 C2220 1.403 . S
C2220 C2219 1.403 . S
C2220 C2221 1.404 . S
C2220 C2223 1.539 . S
C2221 C2217 1.408 . S
C2221 C2220 1.404 . S
C2221 H2233 0.930 . S
C2222 C2218 1.524 1_655 S
C2222 H2234 0.956 . S
C2222 H2235 0.961 1_655 S
C2222 H2236 0.961 . S
C2223 C2220 1.539 . S
C2223 H2237 0.958 . S
C2223 H2238 0.961 . S
C2223 H2239 0.960 . S
H2224 C2208 0.931 . S
H2225 C2213 0.929 . S
H2226 C2214 0.960 . S
H2227 C2214 0.962 . S
H2228 C2214 0.960 . S
H2229 C2215 0.961 . S
H2230 C2215 0.961 . S
H2231 C2215 0.961 . S
H2232 C2216 0.931 . S
H2233 C2221 0.930 . S
H2234 C2222 0.956 . S
H2235 C2222 0.961 1_455 S
H2236 C2222 0.961 . S
H2237 C2223 0.958 . S
H2238 C2223 0.961 . S
H2239 C2223 0.960 . S
C2240 C2241 1.391 . S
C2240 C2242 1.394 . S
C2240 H2256 0.931 . S
C2241 C2240 1.391 . S
C2241 C2245 1.376 . S
C2242 C2240 1.394 . S
C2242 C2243 1.369 . S
C2242 C2246 1.531 . S
C2243 C2242 1.369 . S
C2243 C2244 1.410 . S
C2243 C2251 1.503 . S
C2244 C2243 1.410 . S
C2244 C2245 1.392 . S
C2244 C2247 1.511 . S
C2245 C2241 1.376 . S
C2245 C2244 1.392 . S
C2245 H2257 0.929 . S
C2246 C2242 1.531 . S
C2246 H2258 0.960 . S
C2246 H2259 0.962 . S
C2246 H2260 0.960 . S
C2247 C2244 1.511 . S
C2247 H2261 0.961 . S
C2247 H2262 0.961 . S
C2247 H2263 0.961 . S
C2248 C2249 1.370 . S
C2248 C2250 1.363 . S
C2248 H2264 0.931 . S
C2249 C2248 1.370 . S
C2249 C2253 1.408 . S
C2250 C2248 1.363 . S
C2250 C2251 1.370 . S
C2250 C2254 1.524 . S
C2251 C2243 1.503 . S
C2251 C2250 1.370 . S
C2251 C2252 1.403 . S
C2252 C2251 1.403 . S
C2252 C2253 1.404 . S
C2252 C2255 1.539 . S
C2253 C2249 1.408 . S
C2253 C2252 1.404 . S
C2253 H2265 0.930 . S
C2254 C2250 1.524 . S
C2254 H2266 0.956 . S
C2254 H2267 0.961 . S
C2254 H2268 0.961 . S
C2255 C2252 1.539 . S
C2255 H2269 0.958 . S
C2255 H2270 0.961 . S
C2255 H2271 0.960 . S
H2256 C2240 0.931 . S
H2257 C2245 0.929 . S
H2258 C2246 0.960 . S
H2259 C2246 0.962 . S
H2260 C2246 0.960 . S
H2261 C2247 0.961 . S
H2262 C2247 0.961 . S
H2263 C2247 0.961 . S
H2264 C2248 0.931 . S
H2265 C2253 0.930 . S
H2266 C2254 0.956 . S
H2267 C2254 0.961 . S
H2268 C2254 0.961 . S
H2269 C2255 0.958 . S
H2270 C2255 0.961 . S
H2271 C2255 0.960 . S
C2272 C2273 1.391 . S
C2272 C2274 1.394 . S
C2272 H2288 0.931 . S
C2273 C2272 1.391 . S
C2273 C2277 1.376 . S
C2274 C2272 1.394 . S
C2274 C2275 1.369 . S
C2274 C2278 1.531 . S
C2275 C2274 1.369 . S
C2275 C2276 1.410 . S
C2275 C2283 1.503 . S
C2276 C2275 1.410 . S
C2276 C2277 1.392 . S
C2276 C2279 1.511 . S
C2277 C2273 1.376 . S
C2277 C2276 1.392 . S
C2277 H2289 0.929 . S
C2278 C2274 1.531 . S
C2278 H2290 0.960 . S
C2278 H2291 0.962 . S
C2278 H2292 0.960 . S
C2279 C2276 1.511 . S
C2279 H2293 0.961 . S
C2279 H2294 0.961 . S
C2279 H2295 0.961 . S
C2280 C2281 1.370 . S
C2280 C2282 1.363 . S
C2280 H2296 0.931 . S
C2281 C2280 1.370 . S
C2281 C2285 1.408 . S
C2282 C2280 1.363 . S
C2282 C2283 1.370 . S
C2282 C2286 1.524 . S
C2283 C2275 1.503 . S
C2283 C2282 1.370 . S
C2283 C2284 1.403 . S
C2284 C2283 1.403 . S
C2284 C2285 1.404 . S
C2284 C2287 1.539 . S
C2285 C2281 1.408 . S
C2285 C2284 1.404 . S
C2285 H2297 0.930 . S
C2286 C2282 1.524 . S
C2286 H2298 0.956 . S
C2286 H2299 0.961 . S
C2286 H2300 0.961 . S
C2287 C2284 1.539 . S
C2287 H2301 0.958 . S
C2287 H2302 0.961 . S
C2287 H2303 0.960 . S
H2288 C2272 0.931 . S
H2289 C2277 0.929 . S
H2290 C2278 0.960 . S
H2291 C2278 0.962 . S
H2292 C2278 0.960 . S
H2293 C2279 0.961 . S
H2294 C2279 0.961 . S
H2295 C2279 0.961 . S
H2296 C2280 0.931 . S
H2297 C2285 0.930 . S
H2298 C2286 0.956 . S
H2299 C2286 0.961 . S
H2300 C2286 0.961 . S
H2301 C2287 0.958 . S
H2302 C2287 0.961 . S
H2303 C2287 0.960 . S
C2304 C2305 1.391 . S
C2304 C2306 1.394 . S
C2304 H2320 0.931 . S
C2305 C2304 1.391 . S
C2305 C2309 1.376 . S
C2306 C2304 1.394 . S
C2306 C2307 1.369 . S
C2306 C2310 1.531 . S
C2307 C2306 1.369 . S
C2307 C2308 1.410 . S
C2307 C2315 1.503 1_455 S
C2308 C2307 1.410 . S
C2308 C2309 1.392 . S
C2308 C2311 1.506 1_455 S
C2309 C2305 1.376 . S
C2309 C2308 1.392 . S
C2309 H2321 0.929 . S
C2310 C2306 1.531 . S
C2310 H2322 0.960 . S
C2310 H2323 0.962 . S
C2310 H2324 0.960 . S
C2311 C2308 1.506 1_655 S
C2311 H2325 0.958 1_655 S
C2311 H2326 0.967 . S
C2311 H2327 0.962 . S
C2312 C2313 1.370 1_554 S
C2312 C2314 1.363 . S
C2312 H2328 0.931 . S
C2313 C2312 1.370 1_556 S
C2313 C2317 1.408 . S
C2314 C2312 1.363 . S
C2314 C2315 1.370 1_554 S
C2314 C2318 1.524 . S
C2315 C2307 1.503 1_655 S
C2315 C2314 1.370 1_556 S
C2315 C2316 1.403 . S
C2316 C2315 1.403 . S
C2316 C2317 1.404 . S
C2316 C2319 1.539 . S
C2317 C2313 1.408 . S
C2317 C2316 1.404 . S
C2317 H2329 0.930 . S
C2318 C2314 1.524 . S
C2318 H2330 0.956 1_655 S
C2318 H2331 0.961 . S
C2318 H2332 0.961 . S
C2319 C2316 1.539 . S
C2319 H2333 0.958 . S
C2319 H2334 0.961 . S
C2319 H2335 0.960 . S
H2320 C2304 0.931 . S
H2321 C2309 0.929 . S
H2322 C2310 0.960 . S
H2323 C2310 0.962 . S
H2324 C2310 0.960 . S
H2325 C2311 0.958 1_455 S
H2326 C2311 0.967 . S
H2327 C2311 0.962 . S
H2328 C2312 0.931 . S
H2329 C2317 0.930 . S
H2330 C2318 0.956 1_455 S
H2331 C2318 0.961 . S
H2332 C2318 0.961 . S
H2333 C2319 0.958 . S
H2334 C2319 0.961 . S
H2335 C2319 0.960 . S
C2336 C2337 1.391 1_455 S
C2336 C2338 1.394 . S
C2336 H2352 0.931 . S
C2337 C2336 1.391 1_655 S
C2337 C2341 1.376 . S
C2338 C2336 1.394 . S
C2338 C2339 1.369 1_455 S
C2338 C2342 1.531 . S
C2339 C2338 1.369 1_655 S
C2339 C2340 1.410 . S
C2339 C2347 1.503 1_655 S
C2340 C2339 1.410 . S
C2340 C2341 1.392 . S
C2340 C2343 1.511 . S
C2341 C2337 1.376 . S
C2341 C2340 1.392 . S
C2341 H2353 0.929 . S
C2342 C2338 1.531 . S
C2342 H2354 0.960 . S
C2342 H2355 0.962 . S
C2342 H2356 0.960 . S
C2343 C2340 1.511 . S
C2343 H2357 0.961 . S
C2343 H2358 0.961 . S
C2343 H2359 0.961 . S
C2344 C2345 1.370 . S
C2344 C2346 1.363 . S
C2344 H2360 0.931 . S
C2345 C2344 1.370 . S
C2345 C2349 1.408 . S
C2346 C2344 1.363 . S
C2346 C2347 1.370 . S
C2346 C2350 1.524 . S
C2347 C2339 1.503 1_455 S
C2347 C2346 1.370 . S
C2347 C2348 1.403 . S
C2348 C2347 1.403 . S
C2348 C2349 1.404 . S
C2348 C2351 1.539 1_455 S
C2349 C2345 1.408 . S
C2349 C2348 1.404 . S
C2349 H2361 0.930 . S
C2350 C2346 1.524 . S
C2350 H2362 0.956 . S
C2350 H2363 0.961 1_455 S
C2350 H2364 0.961 . S
C2351 C2348 1.539 1_655 S
C2351 H2365 0.958 1_655 S
C2351 H2366 0.961 . S
C2351 H2367 0.960 . S
H2352 C2336 0.931 . S
H2353 C2341 0.929 . S
H2354 C2342 0.960 . S
H2355 C2342 0.962 . S
H2356 C2342 0.960 . S
H2357 C2343 0.961 . S
H2358 C2343 0.961 . S
H2359 C2343 0.961 . S
H2360 C2344 0.931 . S
H2361 C2349 0.930 . S
H2362 C2350 0.956 . S
H2363 C2350 0.961 1_655 S
H2364 C2350 0.961 . S
H2365 C2351 0.958 1_455 S
H2366 C2351 0.961 . S
H2367 C2351 0.960 . S
C2368 C2369 1.391 . S
C2368 C2370 1.394 . S
C2368 H2384 0.931 . S
C2369 C2368 1.391 . S
C2369 C2373 1.376 . S
C2370 C2368 1.394 . S
C2370 C2371 1.369 . S
C2370 C2374 1.531 . S
C2371 C2370 1.369 . S
C2371 C2372 1.410 . S
C2371 C2379 1.503 1_655 S
C2372 C2371 1.410 . S
C2372 C2373 1.392 . S
C2372 C2375 1.511 . S
C2373 C2369 1.376 . S
C2373 C2372 1.392 . S
C2373 H2385 0.929 . S
C2374 C2370 1.531 . S
C2374 H2386 0.960 1_655 S
C2374 H2387 0.962 . S
C2374 H2388 0.960 . S
C2375 C2372 1.511 . S
C2375 H2389 0.961 . S
C2375 H2390 0.961 . S
C2375 H2391 0.961 . S
C2376 C2377 1.370 . S
C2376 C2378 1.363 . S
C2376 H2392 0.931 . S
C2377 C2376 1.370 . S
C2377 C2381 1.408 . S
C2378 C2376 1.363 . S
C2378 C2379 1.370 . S
C2378 C2382 1.506 1_455 S
C2379 C2371 1.503 1_455 S
C2379 C2378 1.370 . S
C2379 C2380 1.403 . S
C2380 C2379 1.403 . S
C2380 C2381 1.404 . S
C2380 C2383 1.539 . S
C2381 C2377 1.408 . S
C2381 C2380 1.404 . S
C2381 H2393 0.930 . S
C2382 C2378 1.506 1_655 S
C2382 H2394 0.966 . S
C2382 H2395 0.978 . S
C2382 H2396 0.951 1_655 S
C2383 C2380 1.539 . S
C2383 H2397 0.958 . S
C2383 H2398 0.961 . S
C2383 H2399 0.960 . S
H2384 C2368 0.931 . S
H2385 C2373 0.929 . S
H2386 C2374 0.960 1_455 S
H2387 C2374 0.962 . S
H2388 C2374 0.960 . S
H2389 C2375 0.961 . S
H2390 C2375 0.961 . S
H2391 C2375 0.961 . S
H2392 C2376 0.931 . S
H2393 C2381 0.930 . S
H2394 C2382 0.966 . S
H2395 C2382 0.978 . S
H2396 C2382 0.951 1_455 S
H2397 C2383 0.958 . S
H2398 C2383 0.961 . S
H2399 C2383 0.960 . S
C2400 C2401 1.391 . S
C2400 C2402 1.394 . S
C2400 H2416 0.931 . S
C2401 C2400 1.391 . S
C2401 C2405 1.376 . S
C2402 C2400 1.394 . S
C2402 C2403 1.369 . S
C2402 C2406 1.531 . S
C2403 C2402 1.369 . S
C2403 C2404 1.410 . S
C2403 C2411 1.503 . S
C2404 C2403 1.410 . S
C2404 C2405 1.392 . S
C2404 C2407 1.511 . S
C2405 C2401 1.376 . S
C2405 C2404 1.392 . S
C2405 H2417 0.929 . S
C2406 C2402 1.531 . S
C2406 H2418 0.960 . S
C2406 H2419 0.962 . S
C2406 H2420 0.960 . S
C2407 C2404 1.511 . S
C2407 H2421 0.961 . S
C2407 H2422 0.961 . S
C2407 H2423 0.961 . S
C2408 C2409 1.370 . S
C2408 C2410 1.363 . S
C2408 H2424 0.931 . S
C2409 C2408 1.370 . S
C2409 C2413 1.408 . S
C2410 C2408 1.363 . S
C2410 C2411 1.370 . S
C2410 C2414 1.524 . S
C2411 C2403 1.503 . S
C2411 C2410 1.370 . S
C2411 C2412 1.403 . S
C2412 C2411 1.403 . S
C2412 C2413 1.404 . S
C2412 C2415 1.539 . S
C2413 C2409 1.408 . S
C2413 C2412 1.404 . S
C2413 H2425 0.930 . S
C2414 C2410 1.524 . S
C2414 H2426 0.956 . S
C2414 H2427 0.961 . S
C2414 H2428 0.961 . S
C2415 C2412 1.539 . S
C2415 H2429 0.958 . S
C2415 H2430 0.961 . S
C2415 H2431 0.960 . S
H2416 C2400 0.931 . S
H2417 C2405 0.929 . S
H2418 C2406 0.960 . S
H2419 C2406 0.962 . S
H2420 C2406 0.960 . S
H2421 C2407 0.961 . S
H2422 C2407 0.961 . S
H2423 C2407 0.961 . S
H2424 C2408 0.931 . S
H2425 C2413 0.930 . S
H2426 C2414 0.956 . S
H2427 C2414 0.961 . S
H2428 C2414 0.961 . S
H2429 C2415 0.958 . S
H2430 C2415 0.961 . S
H2431 C2415 0.960 . S
C2432 C2433 1.391 1_554 S
C2432 C2434 1.394 . S
C2432 H2448 0.931 . S
C2433 C2432 1.391 1_556 S
C2433 C2437 1.376 . S
C2434 C2432 1.394 . S
C2434 C2435 1.369 1_554 S
C2434 C2438 1.531 . S
C2435 C2434 1.369 1_556 S
C2435 C2436 1.410 . S
C2435 C2443 1.503 . S
C2436 C2435 1.410 . S
C2436 C2437 1.392 . S
C2436 C2439 1.511 . S
C2437 C2433 1.376 . S
C2437 C2436 1.392 . S
C2437 H2449 0.929 . S
C2438 C2434 1.531 . S
C2438 H2450 0.960 . S
C2438 H2451 0.962 . S
C2438 H2452 0.960 . S
C2439 C2436 1.511 . S
C2439 H2453 0.961 . S
C2439 H2454 0.961 . S
C2439 H2455 0.961 . S
C2440 C2441 1.370 . S
C2440 C2442 1.363 . S
C2440 H2456 0.931 . S
C2441 C2440 1.370 . S
C2441 C2445 1.408 1_556 S
C2442 C2440 1.363 . S
C2442 C2443 1.370 . S
C2442 C2446 1.524 . S
C2443 C2435 1.503 . S
C2443 C2442 1.370 . S
C2443 C2444 1.403 1_556 S
C2444 C2443 1.403 1_554 S
C2444 C2445 1.404 . S
C2444 C2447 1.539 . S
C2445 C2441 1.408 1_554 S
C2445 C2444 1.404 . S
C2445 H2457 0.930 . S
C2446 C2442 1.524 . S
C2446 H2458 0.956 . S
C2446 H2459 0.961 . S
C2446 H2460 0.961 . S
C2447 C2444 1.539 . S
C2447 H2461 0.958 . S
C2447 H2462 0.961 . S
C2447 H2463 0.960 . S
H2448 C2432 0.931 . S
H2449 C2437 0.929 . S
H2450 C2438 0.960 . S
H2451 C2438 0.962 . S
H2452 C2438 0.960 . S
H2453 C2439 0.961 . S
H2454 C2439 0.961 . S
H2455 C2439 0.961 . S
H2456 C2440 0.931 . S
H2457 C2445 0.930 . S
H2458 C2446 0.956 . S
H2459 C2446 0.961 . S
H2460 C2446 0.961 . S
H2461 C2447 0.958 . S
H2462 C2447 0.961 . S
H2463 C2447 0.960 . S
C2464 C2465 1.391 . S
C2464 C2466 1.394 1_655 S
C2464 H2480 0.931 1_655 S
C2465 C2464 1.391 . S
C2465 C2469 1.376 . S
C2466 C2464 1.394 1_455 S
C2466 C2467 1.369 1_455 S
C2466 C2470 1.531 . S
C2467 C2466 1.369 1_655 S
C2467 C2468 1.410 . S
C2467 C2475 1.503 1_655 S
C2468 C2467 1.410 . S
C2468 C2469 1.392 . S
C2468 C2471 1.511 . S
C2469 C2465 1.376 . S
C2469 C2468 1.392 . S
C2469 H2481 0.929 . S
C2470 C2466 1.531 . S
C2470 H2482 0.960 . S
C2470 H2483 0.962 . S
C2470 H2484 0.960 . S
C2471 C2468 1.511 . S
C2471 H2485 0.961 . S
C2471 H2486 0.961 . S
C2471 H2487 0.961 . S
C2472 C2473 1.370 . S
C2472 C2474 1.363 . S
C2472 H2488 0.931 . S
C2473 C2472 1.370 . S
C2473 C2477 1.408 1_455 S
C2474 C2472 1.363 . S
C2474 C2475 1.370 . S
C2474 C2478 1.524 . S
C2475 C2467 1.503 1_455 S
C2475 C2474 1.370 . S
C2475 C2476 1.403 1_455 S
C2476 C2475 1.403 1_655 S
C2476 C2477 1.404 . S
C2476 C2479 1.539 . S
C2477 C2473 1.408 1_655 S
C2477 C2476 1.404 . S
C2477 H2489 0.930 . S
C2478 C2474 1.524 . S
C2478 H2490 0.956 . S
C2478 H2491 0.961 . S
C2478 H2492 0.961 . S
C2479 C2476 1.539 . S
C2479 H2493 0.958 . S
C2479 H2494 0.961 . S
C2479 H2495 0.960 . S
H2480 C2464 0.931 1_455 S
H2481 C2469 0.929 . S
H2482 C2470 0.960 . S
H2483 C2470 0.962 . S
H2484 C2470 0.960 . S
H2485 C2471 0.961 . S
H2486 C2471 0.961 . S
H2487 C2471 0.961 . S
H2488 C2472 0.931 . S
H2489 C2477 0.930 . S
H2490 C2478 0.956 . S
H2491 C2478 0.961 . S
H2492 C2478 0.961 . S
H2493 C2479 0.958 . S
H2494 C2479 0.961 . S
H2495 C2479 0.960 . S
C2496 C2497 1.391 . S
C2496 C2498 1.394 . S
C2496 H2512 0.931 . S
C2497 C2496 1.391 . S
C2497 C2501 1.376 . S
C2498 C2496 1.394 . S
C2498 C2499 1.369 . S
C2498 C2502 1.531 . S
C2499 C2498 1.369 . S
C2499 C2500 1.410 . S
C2499 C2507 1.503 . S
C2500 C2499 1.410 . S
C2500 C2501 1.392 . S
C2500 C2503 1.511 . S
C2501 C2497 1.376 . S
C2501 C2500 1.392 . S
C2501 H2513 0.929 . S
C2502 C2498 1.531 . S
C2502 H2514 0.960 . S
C2502 H2515 0.962 . S
C2502 H2516 0.960 . S
C2503 C2500 1.511 . S
C2503 H2517 0.961 . S
C2503 H2518 0.961 . S
C2503 H2519 0.961 . S
C2504 C2505 1.370 . S
C2504 C2506 1.363 . S
C2504 H2520 0.931 . S
C2505 C2504 1.370 . S
C2505 C2509 1.408 . S
C2506 C2504 1.363 . S
C2506 C2507 1.370 . S
C2506 C2510 1.524 . S
C2507 C2499 1.503 . S
C2507 C2506 1.370 . S
C2507 C2508 1.403 . S
C2508 C2507 1.403 . S
C2508 C2509 1.404 . S
C2508 C2511 1.539 . S
C2509 C2505 1.408 . S
C2509 C2508 1.404 . S
C2509 H2521 0.930 . S
C2510 C2506 1.524 . S
C2510 H2522 0.956 . S
C2510 H2523 0.961 . S
C2510 H2524 0.961 . S
C2511 C2508 1.539 . S
C2511 H2525 0.958 . S
C2511 H2526 0.961 . S
C2511 H2527 0.960 . S
H2512 C2496 0.931 . S
H2513 C2501 0.929 . S
H2514 C2502 0.960 . S
H2515 C2502 0.962 . S
H2516 C2502 0.960 . S
H2517 C2503 0.961 . S
H2518 C2503 0.961 . S
H2519 C2503 0.961 . S
H2520 C2504 0.931 . S
H2521 C2509 0.930 . S
H2522 C2510 0.956 . S
H2523 C2510 0.961 . S
H2524 C2510 0.961 . S
H2525 C2511 0.958 . S
H2526 C2511 0.961 . S
H2527 C2511 0.960 . S
C2528 C2529 1.391 . S
C2528 C2530 1.394 . S
C2528 H2544 0.931 . S
C2529 C2528 1.391 . S
C2529 C2533 1.376 . S
C2530 C2528 1.394 . S
C2530 C2531 1.369 . S
C2530 C2534 1.531 . S
C2531 C2530 1.369 . S
C2531 C2532 1.410 . S
C2531 C2539 1.503 . S
C2532 C2531 1.410 . S
C2532 C2533 1.392 . S
C2532 C2535 1.511 . S
C2533 C2529 1.376 . S
C2533 C2532 1.392 . S
C2533 H2545 0.929 . S
C2534 C2530 1.531 . S
C2534 H2546 0.960 . S
C2534 H2547 0.962 . S
C2534 H2548 0.960 . S
C2535 C2532 1.511 . S
C2535 H2549 0.961 . S
C2535 H2550 0.961 . S
C2535 H2551 0.961 . S
C2536 C2537 1.370 . S
C2536 C2538 1.363 . S
C2536 H2552 0.931 . S
C2537 C2536 1.370 . S
C2537 C2541 1.408 . S
C2538 C2536 1.363 . S
C2538 C2539 1.370 . S
C2538 C2542 1.524 . S
C2539 C2531 1.503 . S
C2539 C2538 1.370 . S
C2539 C2540 1.403 . S
C2540 C2539 1.403 . S
C2540 C2541 1.404 . S
C2540 C2543 1.539 . S
C2541 C2537 1.408 . S
C2541 C2540 1.404 . S
C2541 H2553 0.930 . S
C2542 C2538 1.524 . S
C2542 H2554 0.956 . S
C2542 H2555 0.961 . S
C2542 H2556 0.961 . S
C2543 C2540 1.539 . S
C2543 H2557 0.958 . S
C2543 H2558 0.961 . S
C2543 H2559 0.960 . S
H2544 C2528 0.931 . S
H2545 C2533 0.929 . S
H2546 C2534 0.960 . S
H2547 C2534 0.962 . S
H2548 C2534 0.960 . S
H2549 C2535 0.961 . S
H2550 C2535 0.961 . S
H2551 C2535 0.961 . S
H2552 C2536 0.931 . S
H2553 C2541 0.930 . S
H2554 C2542 0.956 . S
H2555 C2542 0.961 . S
H2556 C2542 0.961 . S
H2557 C2543 0.958 . S
H2558 C2543 0.961 . S
H2559 C2543 0.960 . S
C2560 C2561 1.391 . S
C2560 C2562 1.394 . S
C2560 H2576 0.931 . S
C2561 C2560 1.391 . S
C2561 C2565 1.397 . S
C2562 C2560 1.394 . S
C2562 C2563 1.369 . S
C2562 C2566 1.531 . S
C2563 C2562 1.369 . S
C2563 C2564 1.410 . S
C2563 C2571 1.503 1_455 S
C2564 C2563 1.410 . S
C2564 C2565 1.395 . S
C2564 C2567 1.511 1_554 S
C2565 C2561 1.397 . S
C2565 C2564 1.395 . S
C2565 H2577 0.907 1_554 S
C2566 C2562 1.531 . S
C2566 H2578 0.960 1_455 S
C2566 H2579 0.962 1_455 S
C2566 H2580 0.960 . S
C2567 C2564 1.511 1_556 S
C2567 H2581 0.961 . S
C2567 H2582 0.961 . S
C2567 H2583 0.961 . S
C2568 C2569 1.370 1_556 S
C2568 C2570 1.365 . S
C2568 H2584 0.931 . S
C2569 C2568 1.370 1_554 S
C2569 C2573 1.408 . S
C2570 C2568 1.365 . S
C2570 C2571 1.348 1_556 S
C2570 C2574 1.546 . S
C2571 C2563 1.503 1_655 S
C2571 C2570 1.348 1_554 S
C2571 C2572 1.403 . S
C2572 C2571 1.403 . S
C2572 C2573 1.404 . S
C2572 C2575 1.539 . S
C2573 C2569 1.408 . S
C2573 C2572 1.404 . S
C2573 H2585 0.930 . S
C2574 C2570 1.546 . S
C2574 H2586 0.956 . S
C2574 H2587 0.961 . S
C2574 H2588 0.961 . S
C2575 C2572 1.539 . S
C2575 H2589 0.958 . S
C2575 H2590 0.961 . S
C2575 H2591 0.960 1_655 S
H2576 C2560 0.931 . S
H2577 C2565 0.907 1_556 S
H2578 C2566 0.960 1_655 S
H2579 C2566 0.962 1_655 S
H2580 C2566 0.960 . S
H2581 C2567 0.961 . S
H2582 C2567 0.961 . S
H2583 C2567 0.961 . S
H2584 C2568 0.931 . S
H2585 C2573 0.930 . S
H2586 C2574 0.956 . S
H2587 C2574 0.961 . S
H2588 C2574 0.961 . S
H2589 C2575 0.958 . S
H2590 C2575 0.961 . S
H2591 C2575 0.960 1_455 S
C2592 C2593 1.391 . S
C2592 C2594 1.394 . S
C2592 H2608 0.931 . S
C2593 C2592 1.391 . S
C2593 C2597 1.376 . S
C2594 C2592 1.394 . S
C2594 C2595 1.369 . S
C2594 C2598 1.531 . S
C2595 C2594 1.369 . S
C2595 C2596 1.410 . S
C2595 C2603 1.503 . S
C2596 C2595 1.410 . S
C2596 C2597 1.392 . S
C2596 C2599 1.511 . S
C2597 C2593 1.376 . S
C2597 C2596 1.392 . S
C2597 H2609 0.929 . S
C2598 C2594 1.531 . S
C2598 H2610 0.960 . S
C2598 H2611 0.962 . S
C2598 H2612 0.960 . S
C2599 C2596 1.511 . S
C2599 H2613 0.961 . S
C2599 H2614 0.961 . S
C2599 H2615 0.961 . S
C2600 C2601 1.370 . S
C2600 C2602 1.363 . S
C2600 H2616 0.931 . S
C2601 C2600 1.370 . S
C2601 C2605 1.408 . S
C2602 C2600 1.363 . S
C2602 C2603 1.370 . S
C2602 C2606 1.524 . S
C2603 C2595 1.503 . S
C2603 C2602 1.370 . S
C2603 C2604 1.403 . S
C2604 C2603 1.403 . S
C2604 C2605 1.404 . S
C2604 C2607 1.539 . S
C2605 C2601 1.408 . S
C2605 C2604 1.404 . S
C2605 H2617 0.930 . S
C2606 C2602 1.524 . S
C2606 H2618 0.956 . S
C2606 H2619 0.961 . S
C2606 H2620 0.961 . S
C2607 C2604 1.539 . S
C2607 H2621 0.958 . S
C2607 H2622 0.961 . S
C2607 H2623 0.960 . S
H2608 C2592 0.931 . S
H2609 C2597 0.929 . S
H2610 C2598 0.960 . S
H2611 C2598 0.962 . S
H2612 C2598 0.960 . S
H2613 C2599 0.961 . S
H2614 C2599 0.961 . S
H2615 C2599 0.961 . S
H2616 C2600 0.931 . S
H2617 C2605 0.930 . S
H2618 C2606 0.956 . S
H2619 C2606 0.961 . S
H2620 C2606 0.961 . S
H2621 C2607 0.958 . S
H2622 C2607 0.961 . S
H2623 C2607 0.960 . S
C2624 C2625 1.391 . S
C2624 C2626 1.394 . S
C2624 H2640 0.931 . S
C2625 C2624 1.391 . S
C2625 C2629 1.376 . S
C2626 C2624 1.394 . S
C2626 C2627 1.369 . S
C2626 C2630 1.531 . S
C2627 C2626 1.369 . S
C2627 C2628 1.410 . S
C2627 C2635 1.503 . S
C2628 C2627 1.410 . S
C2628 C2629 1.392 . S
C2628 C2631 1.511 . S
C2629 C2625 1.376 . S
C2629 C2628 1.392 . S
C2629 H2641 0.929 . S
C2630 C2626 1.531 . S
C2630 H2642 0.960 . S
C2630 H2643 0.962 . S
C2630 H2644 0.960 . S
C2631 C2628 1.511 . S
C2631 H2645 0.961 . S
C2631 H2646 0.961 . S
C2631 H2647 0.961 . S
C2632 C2633 1.370 1_455 S
C2632 C2634 1.363 . S
C2632 H2648 0.931 . S
C2633 C2632 1.370 1_655 S
C2633 C2637 1.408 . S
C2634 C2632 1.363 . S
C2634 C2635 1.370 . S
C2634 C2638 1.524 . S
C2635 C2627 1.503 . S
C2635 C2634 1.370 . S
C2635 C2636 1.403 . S
C2636 C2635 1.403 . S
C2636 C2637 1.404 1_455 S
C2636 C2639 1.539 . S
C2637 C2633 1.408 . S
C2637 C2636 1.404 1_655 S
C2637 H2649 0.930 . S
C2638 C2634 1.524 . S
C2638 H2650 0.956 . S
C2638 H2651 0.961 . S
C2638 H2652 0.961 . S
C2639 C2636 1.539 . S
C2639 H2653 0.958 . S
C2639 H2654 0.961 1_455 S
C2639 H2655 0.960 . S
H2640 C2624 0.931 . S
H2641 C2629 0.929 . S
H2642 C2630 0.960 . S
H2643 C2630 0.962 . S
H2644 C2630 0.960 . S
H2645 C2631 0.961 . S
H2646 C2631 0.961 . S
H2647 C2631 0.961 . S
H2648 C2632 0.931 . S
H2649 C2637 0.930 . S
H2650 C2638 0.956 . S
H2651 C2638 0.961 . S
H2652 C2638 0.961 . S
H2653 C2639 0.958 . S
H2654 C2639 0.961 1_655 S
H2655 C2639 0.960 . S
C2656 C2657 1.391 . S
C2656 C2658 1.394 . S
C2656 H2672 0.931 . S
C2657 C2656 1.391 . S
C2657 C2661 1.376 . S
C2658 C2656 1.394 . S
C2658 C2659 1.369 . S
C2658 C2662 1.531 . S
C2659 C2658 1.369 . S
C2659 C2660 1.410 . S
C2659 C2667 1.503 . S
C2660 C2659 1.410 . S
C2660 C2661 1.392 . S
C2660 C2663 1.511 . S
C2661 C2657 1.376 . S
C2661 C2660 1.392 . S
C2661 H2673 0.929 . S
C2662 C2658 1.531 . S
C2662 H2674 0.960 . S
C2662 H2675 0.962 . S
C2662 H2676 0.960 . S
C2663 C2660 1.511 . S
C2663 H2677 0.961 . S
C2663 H2678 0.961 . S
C2663 H2679 0.961 . S
C2664 C2665 1.370 . S
C2664 C2666 1.363 . S
C2664 H2680 0.931 . S
C2665 C2664 1.370 . S
C2665 C2669 1.408 . S
C2666 C2664 1.363 . S
C2666 C2667 1.370 . S
C2666 C2670 1.524 . S
C2667 C2659 1.503 . S
C2667 C2666 1.370 . S
C2667 C2668 1.403 . S
C2668 C2667 1.403 . S
C2668 C2669 1.404 . S
C2668 C2671 1.539 . S
C2669 C2665 1.408 . S
C2669 C2668 1.404 . S
C2669 H2681 0.930 . S
C2670 C2666 1.524 . S
C2670 H2682 0.956 . S
C2670 H2683 0.961 . S
C2670 H2684 0.961 . S
C2671 C2668 1.539 . S
C2671 H2685 0.958 . S
C2671 H2686 0.961 . S
C2671 H2687 0.960 . S
H2672 C2656 0.931 . S
H2673 C2661 0.929 . S
H2674 C2662 0.960 . S
H2675 C2662 0.962 . S
H2676 C2662 0.960 . S
H2677 C2663 0.961 . S
H2678 C2663 0.961 . S
H2679 C2663 0.961 . S
H2680 C2664 0.931 . S
H2681 C2669 0.930 . S
H2682 C2670 0.956 . S
H2683 C2670 0.961 . S
H2684 C2670 0.961 . S
H2685 C2671 0.958 . S
H2686 C2671 0.961 . S
H2687 C2671 0.960 . S
C2688 C2689 1.391 . S
C2688 C2690 1.394 . S
C2688 H2704 0.931 . S
C2689 C2688 1.391 . S
C2689 C2693 1.376 . S
C2690 C2688 1.394 . S
C2690 C2691 1.369 . S
C2690 C2694 1.531 . S
C2691 C2690 1.369 . S
C2691 C2692 1.410 . S
C2691 C2699 1.503 . S
C2692 C2691 1.410 . S
C2692 C2693 1.392 . S
C2692 C2695 1.511 . S
C2693 C2689 1.376 . S
C2693 C2692 1.392 . S
C2693 H2705 0.929 . S
C2694 C2690 1.531 . S
C2694 H2706 0.960 . S
C2694 H2707 0.962 . S
C2694 H2708 0.960 . S
C2695 C2692 1.511 . S
C2695 H2709 0.961 . S
C2695 H2710 0.961 . S
C2695 H2711 0.961 . S
C2696 C2697 1.370 . S
C2696 C2698 1.363 . S
C2696 H2712 0.931 . S
C2697 C2696 1.370 . S
C2697 C2701 1.408 . S
C2698 C2696 1.363 . S
C2698 C2699 1.370 . S
C2698 C2702 1.524 . S
C2699 C2691 1.503 . S
C2699 C2698 1.370 . S
C2699 C2700 1.403 . S
C2700 C2699 1.403 . S
C2700 C2701 1.404 . S
C2700 C2703 1.539 . S
C2701 C2697 1.408 . S
C2701 C2700 1.404 . S
C2701 H2713 0.930 . S
C2702 C2698 1.524 . S
C2702 H2714 0.956 . S
C2702 H2715 0.961 . S
C2702 H2716 0.961 . S
C2703 C2700 1.539 . S
C2703 H2717 0.958 . S
C2703 H2718 0.961 . S
C2703 H2719 0.960 . S
H2704 C2688 0.931 . S
H2705 C2693 0.929 . S
H2706 C2694 0.960 . S
H2707 C2694 0.962 . S
H2708 C2694 0.960 . S
H2709 C2695 0.961 . S
H2710 C2695 0.961 . S
H2711 C2695 0.961 . S
H2712 C2696 0.931 . S
H2713 C2701 0.930 . S
H2714 C2702 0.956 . S
H2715 C2702 0.961 . S
H2716 C2702 0.961 . S
H2717 C2703 0.958 . S
H2718 C2703 0.961 . S
H2719 C2703 0.960 . S
C2720 C2721 1.391 . S
C2720 C2722 1.394 . S
C2720 H2736 0.931 . S
C2721 C2720 1.391 . S
C2721 C2725 1.376 . S
C2722 C2720 1.394 . S
C2722 C2723 1.369 . S
C2722 C2726 1.531 . S
C2723 C2722 1.369 . S
C2723 C2724 1.410 . S
C2723 C2731 1.503 . S
C2724 C2723 1.410 . S
C2724 C2725 1.392 . S
C2724 C2727 1.511 . S
C2725 C2721 1.376 . S
C2725 C2724 1.392 . S
C2725 H2737 0.929 . S
C2726 C2722 1.531 . S
C2726 H2738 0.960 . S
C2726 H2739 0.962 . S
C2726 H2740 0.960 . S
C2727 C2724 1.511 . S
C2727 H2741 0.961 . S
C2727 H2742 0.961 . S
C2727 H2743 0.961 . S
C2728 C2729 1.370 . S
C2728 C2730 1.363 . S
C2728 H2744 0.931 . S
C2729 C2728 1.370 . S
C2729 C2733 1.408 . S
C2730 C2728 1.363 . S
C2730 C2731 1.370 . S
C2730 C2734 1.524 . S
C2731 C2723 1.503 . S
C2731 C2730 1.370 . S
C2731 C2732 1.403 . S
C2732 C2731 1.403 . S
C2732 C2733 1.404 . S
C2732 C2735 1.539 . S
C2733 C2729 1.408 . S
C2733 C2732 1.404 . S
C2733 H2745 0.930 . S
C2734 C2730 1.524 . S
C2734 H2746 0.956 . S
C2734 H2747 0.961 . S
C2734 H2748 0.961 . S
C2735 C2732 1.539 . S
C2735 H2749 0.958 . S
C2735 H2750 0.961 . S
C2735 H2751 0.960 . S
H2736 C2720 0.931 . S
H2737 C2725 0.929 . S
H2738 C2726 0.960 . S
H2739 C2726 0.962 . S
H2740 C2726 0.960 . S
H2741 C2727 0.961 . S
H2742 C2727 0.961 . S
H2743 C2727 0.961 . S
H2744 C2728 0.931 . S
H2745 C2733 0.930 . S
H2746 C2734 0.956 . S
H2747 C2734 0.961 . S
H2748 C2734 0.961 . S
H2749 C2735 0.958 . S
H2750 C2735 0.961 . S
H2751 C2735 0.960 . S
C2752 C2753 1.391 . S
C2752 C2754 1.394 . S
C2752 H2768 0.931 . S
C2753 C2752 1.391 . S
C2753 C2757 1.376 . S
C2754 C2752 1.394 . S
C2754 C2755 1.369 . S
C2754 C2758 1.531 . S
C2755 C2754 1.369 . S
C2755 C2756 1.410 . S
C2755 C2763 1.503 . S
C2756 C2755 1.410 . S
C2756 C2757 1.392 . S
C2756 C2759 1.511 . S
C2757 C2753 1.376 . S
C2757 C2756 1.392 . S
C2757 H2769 0.929 . S
C2758 C2754 1.531 . S
C2758 H2770 0.960 . S
C2758 H2771 0.962 . S
C2758 H2772 0.960 . S
C2759 C2756 1.511 . S
C2759 H2773 0.961 . S
C2759 H2774 0.961 . S
C2759 H2775 0.961 . S
C2760 C2761 1.370 . S
C2760 C2762 1.363 . S
C2760 H2776 0.931 . S
C2761 C2760 1.370 . S
C2761 C2765 1.408 . S
C2762 C2760 1.363 . S
C2762 C2763 1.370 . S
C2762 C2766 1.524 . S
C2763 C2755 1.503 . S
C2763 C2762 1.370 . S
C2763 C2764 1.403 . S
C2764 C2763 1.403 . S
C2764 C2765 1.404 . S
C2764 C2767 1.539 . S
C2765 C2761 1.408 . S
C2765 C2764 1.404 . S
C2765 H2777 0.930 . S
C2766 C2762 1.524 . S
C2766 H2778 0.956 . S
C2766 H2779 0.961 . S
C2766 H2780 0.961 . S
C2767 C2764 1.539 . S
C2767 H2781 0.958 . S
C2767 H2782 0.961 . S
C2767 H2783 0.960 . S
H2768 C2752 0.931 . S
H2769 C2757 0.929 . S
H2770 C2758 0.960 . S
H2771 C2758 0.962 . S
H2772 C2758 0.960 . S
H2773 C2759 0.961 . S
H2774 C2759 0.961 . S
H2775 C2759 0.961 . S
H2776 C2760 0.931 . S
H2777 C2765 0.930 . S
H2778 C2766 0.956 . S
H2779 C2766 0.961 . S
H2780 C2766 0.961 . S
H2781 C2767 0.958 . S
H2782 C2767 0.961 . S
H2783 C2767 0.960 . S
C2784 C2785 1.391 . S
C2784 C2786 1.394 . S
C2784 H2800 0.931 . S
C2785 C2784 1.391 . S
C2785 C2789 1.376 . S
C2786 C2784 1.394 . S
C2786 C2787 1.369 . S
C2786 C2790 1.531 . S
C2787 C2786 1.369 . S
C2787 C2788 1.410 . S
C2787 C2795 1.503 . S
C2788 C2787 1.410 . S
C2788 C2789 1.392 . S
C2788 C2791 1.511 . S
C2789 C2785 1.376 . S
C2789 C2788 1.392 . S
C2789 H2801 0.929 . S
C2790 C2786 1.531 . S
C2790 H2802 0.960 . S
C2790 H2803 0.962 . S
C2790 H2804 0.960 . S
C2791 C2788 1.511 . S
C2791 H2805 0.961 . S
C2791 H2806 0.961 . S
C2791 H2807 0.961 . S
C2792 C2793 1.370 . S
C2792 C2794 1.363 . S
C2792 H2808 0.931 . S
C2793 C2792 1.370 . S
C2793 C2797 1.408 . S
C2794 C2792 1.363 . S
C2794 C2795 1.370 . S
C2794 C2798 1.524 . S
C2795 C2787 1.503 . S
C2795 C2794 1.370 . S
C2795 C2796 1.403 . S
C2796 C2795 1.403 . S
C2796 C2797 1.404 . S
C2796 C2799 1.539 . S
C2797 C2793 1.408 . S
C2797 C2796 1.404 . S
C2797 H2809 0.930 . S
C2798 C2794 1.524 . S
C2798 H2810 0.956 . S
C2798 H2811 0.961 . S
C2798 H2812 0.961 . S
C2799 C2796 1.539 . S
C2799 H2813 0.958 . S
C2799 H2814 0.961 . S
C2799 H2815 0.960 . S
H2800 C2784 0.931 . S
H2801 C2789 0.929 . S
H2802 C2790 0.960 . S
H2803 C2790 0.962 . S
H2804 C2790 0.960 . S
H2805 C2791 0.961 . S
H2806 C2791 0.961 . S
H2807 C2791 0.961 . S
H2808 C2792 0.931 . S
H2809 C2797 0.930 . S
H2810 C2798 0.956 . S
H2811 C2798 0.961 . S
H2812 C2798 0.961 . S
H2813 C2799 0.958 . S
H2814 C2799 0.961 . S
H2815 C2799 0.960 . S
C2816 C2817 1.391 . S
C2816 C2818 1.394 1_655 S
C2816 H2832 0.931 . S
C2817 C2816 1.391 . S
C2817 C2821 1.376 1_655 S
C2818 C2816 1.394 1_455 S
C2818 C2819 1.369 . S
C2818 C2822 1.531 1_455 S
C2819 C2818 1.369 . S
C2819 C2820 1.410 . S
C2819 C2827 1.503 . S
C2820 C2819 1.410 . S
C2820 C2821 1.392 . S
C2820 C2823 1.511 . S
C2821 C2817 1.376 1_455 S
C2821 C2820 1.392 . S
C2821 H2833 0.929 . S
C2822 C2818 1.531 1_655 S
C2822 H2834 0.960 1_655 S
C2822 H2835 0.962 . S
C2822 H2836 0.960 . S
C2823 C2820 1.511 . S
C2823 H2837 0.961 . S
C2823 H2838 0.961 . S
C2823 H2839 0.961 . S
C2824 C2825 1.370 . S
C2824 C2826 1.363 . S
C2824 H2840 0.931 . S
C2825 C2824 1.370 . S
C2825 C2829 1.408 . S
C2826 C2824 1.363 . S
C2826 C2827 1.370 . S
C2826 C2830 1.524 . S
C2827 C2819 1.503 . S
C2827 C2826 1.370 . S
C2827 C2828 1.403 . S
C2828 C2827 1.403 . S
C2828 C2829 1.404 . S
C2828 C2831 1.539 . S
C2829 C2825 1.408 . S
C2829 C2828 1.404 . S
C2829 H2841 0.930 . S
C2830 C2826 1.524 . S
C2830 H2842 0.956 . S
C2830 H2843 0.961 . S
C2830 H2844 0.961 . S
C2831 C2828 1.539 . S
C2831 H2845 0.958 . S
C2831 H2846 0.961 . S
C2831 H2847 0.960 . S
H2832 C2816 0.931 . S
H2833 C2821 0.929 . S
H2834 C2822 0.960 1_455 S
H2835 C2822 0.962 . S
H2836 C2822 0.960 . S
H2837 C2823 0.961 . S
H2838 C2823 0.961 . S
H2839 C2823 0.961 . S
H2840 C2824 0.931 . S
H2841 C2829 0.930 . S
H2842 C2830 0.956 . S
H2843 C2830 0.961 . S
H2844 C2830 0.961 . S
H2845 C2831 0.958 . S
H2846 C2831 0.961 . S
H2847 C2831 0.960 . S
C2848 C2849 1.391 . S
C2848 C2850 1.394 . S
C2848 H2864 0.931 . S
C2849 C2848 1.391 . S
C2849 C2853 1.376 . S
C2850 C2848 1.394 . S
C2850 C2851 1.369 . S
C2850 C2854 1.531 . S
C2851 C2850 1.369 . S
C2851 C2852 1.410 . S
C2851 C2859 1.503 . S
C2852 C2851 1.410 . S
C2852 C2853 1.392 . S
C2852 C2855 1.511 . S
C2853 C2849 1.376 . S
C2853 C2852 1.392 . S
C2853 H2865 0.929 . S
C2854 C2850 1.531 . S
C2854 H2866 0.960 . S
C2854 H2867 0.962 . S
C2854 H2868 0.960 . S
C2855 C2852 1.511 . S
C2855 H2869 0.961 . S
C2855 H2870 0.961 . S
C2855 H2871 0.961 . S
C2856 C2857 1.370 . S
C2856 C2858 1.363 . S
C2856 H2872 0.931 . S
C2857 C2856 1.370 . S
C2857 C2861 1.408 . S
C2858 C2856 1.363 . S
C2858 C2859 1.370 . S
C2858 C2862 1.524 . S
C2859 C2851 1.503 . S
C2859 C2858 1.370 . S
C2859 C2860 1.403 . S
C2860 C2859 1.403 . S
C2860 C2861 1.404 . S
C2860 C2863 1.539 . S
C2861 C2857 1.408 . S
C2861 C2860 1.404 . S
C2861 H2873 0.930 . S
C2862 C2858 1.524 . S
C2862 H2874 0.956 . S
C2862 H2875 0.961 . S
C2862 H2876 0.961 . S
C2863 C2860 1.539 . S
C2863 H2877 0.958 . S
C2863 H2878 0.961 . S
C2863 H2879 0.960 . S
H2864 C2848 0.931 . S
H2865 C2853 0.929 . S
H2866 C2854 0.960 . S
H2867 C2854 0.962 . S
H2868 C2854 0.960 . S
H2869 C2855 0.961 . S
H2870 C2855 0.961 . S
H2871 C2855 0.961 . S
H2872 C2856 0.931 . S
H2873 C2861 0.930 . S
H2874 C2862 0.956 . S
H2875 C2862 0.961 . S
H2876 C2862 0.961 . S
H2877 C2863 0.958 . S
H2878 C2863 0.961 . S
H2879 C2863 0.960 . S
C2880 C2881 1.391 . S
C2880 C2882 1.394 . S
C2880 H2896 0.931 . S
C2881 C2880 1.391 . S
C2881 C2885 1.376 . S
C2882 C2880 1.394 . S
C2882 C2883 1.369 . S
C2882 C2886 1.531 . S
C2883 C2882 1.369 . S
C2883 C2884 1.410 . S
C2883 C2891 1.503 . S
C2884 C2883 1.410 . S
C2884 C2885 1.392 . S
C2884 C2887 1.511 . S
C2885 C2881 1.376 . S
C2885 C2884 1.392 . S
C2885 H2897 0.929 . S
C2886 C2882 1.531 . S
C2886 H2898 0.960 . S
C2886 H2899 0.962 . S
C2886 H2900 0.960 . S
C2887 C2884 1.511 . S
C2887 H2901 0.961 . S
C2887 H2902 0.961 . S
C2887 H2903 0.961 . S
C2888 C2889 1.370 . S
C2888 C2890 1.363 1_455 S
C2888 H2904 0.931 . S
C2889 C2888 1.370 . S
C2889 C2893 1.408 1_455 S
C2890 C2888 1.363 1_655 S
C2890 C2891 1.370 . S
C2890 C2894 1.524 . S
C2891 C2883 1.503 . S
C2891 C2890 1.370 . S
C2891 C2892 1.403 . S
C2892 C2891 1.403 . S
C2892 C2893 1.404 . S
C2892 C2895 1.539 . S
C2893 C2889 1.408 1_655 S
C2893 C2892 1.404 . S
C2893 H2905 0.930 . S
C2894 C2890 1.524 . S
C2894 H2906 0.956 . S
C2894 H2907 0.961 . S
C2894 H2908 0.961 1_655 S
C2895 C2892 1.539 . S
C2895 H2909 0.958 . S
C2895 H2910 0.961 . S
C2895 H2911 0.960 . S
H2896 C2880 0.931 . S
H2897 C2885 0.929 . S
H2898 C2886 0.960 . S
H2899 C2886 0.962 . S
H2900 C2886 0.960 . S
H2901 C2887 0.961 . S
H2902 C2887 0.961 . S
H2903 C2887 0.961 . S
H2904 C2888 0.931 . S
H2905 C2893 0.930 . S
H2906 C2894 0.956 . S
H2907 C2894 0.961 . S
H2908 C2894 0.961 1_455 S
H2909 C2895 0.958 . S
H2910 C2895 0.961 . S
H2911 C2895 0.960 . S
C2912 C2913 1.391 . S
C2912 C2914 1.394 . S
C2912 H2928 0.931 . S
C2913 C2912 1.391 . S
C2913 C2917 1.376 . S
C2914 C2912 1.394 . S
C2914 C2915 1.369 . S
C2914 C2918 1.531 . S
C2915 C2914 1.369 . S
C2915 C2916 1.410 . S
C2915 C2923 1.503 . S
C2916 C2915 1.410 . S
C2916 C2917 1.392 . S
C2916 C2919 1.511 . S
C2917 C2913 1.376 . S
C2917 C2916 1.392 . S
C2917 H2929 0.929 . S
C2918 C2914 1.531 . S
C2918 H2930 0.960 . S
C2918 H2931 0.962 . S
C2918 H2932 0.960 . S
C2919 C2916 1.511 . S
C2919 H2933 0.961 . S
C2919 H2934 0.961 . S
C2919 H2935 0.961 . S
C2920 C2921 1.370 . S
C2920 C2922 1.363 . S
C2920 H2936 0.931 . S
C2921 C2920 1.370 . S
C2921 C2925 1.408 . S
C2922 C2920 1.363 . S
C2922 C2923 1.370 . S
C2922 C2926 1.524 . S
C2923 C2915 1.503 . S
C2923 C2922 1.370 . S
C2923 C2924 1.403 . S
C2924 C2923 1.403 . S
C2924 C2925 1.404 . S
C2924 C2927 1.539 . S
C2925 C2921 1.408 . S
C2925 C2924 1.404 . S
C2925 H2937 0.930 . S
C2926 C2922 1.524 . S
C2926 H2938 0.956 . S
C2926 H2939 0.961 . S
C2926 H2940 0.961 . S
C2927 C2924 1.539 . S
C2927 H2941 0.958 . S
C2927 H2942 0.961 . S
C2927 H2943 0.960 . S
H2928 C2912 0.931 . S
H2929 C2917 0.929 . S
H2930 C2918 0.960 . S
H2931 C2918 0.962 . S
H2932 C2918 0.960 . S
H2933 C2919 0.961 . S
H2934 C2919 0.961 . S
H2935 C2919 0.961 . S
H2936 C2920 0.931 . S
H2937 C2925 0.930 . S
H2938 C2926 0.956 . S
H2939 C2926 0.961 . S
H2940 C2926 0.961 . S
H2941 C2927 0.958 . S
H2942 C2927 0.961 . S
H2943 C2927 0.960 . S
C2944 C2945 1.391 . S
C2944 C2946 1.394 . S
C2944 H2960 0.931 . S
C2945 C2944 1.391 . S
C2945 C2949 1.376 . S
C2946 C2944 1.394 . S
C2946 C2947 1.369 . S
C2946 C2950 1.531 . S
C2947 C2946 1.369 . S
C2947 C2948 1.410 . S
C2947 C2955 1.503 . S
C2948 C2947 1.410 . S
C2948 C2949 1.392 . S
C2948 C2951 1.511 . S
C2949 C2945 1.376 . S
C2949 C2948 1.392 . S
C2949 H2961 0.929 . S
C2950 C2946 1.531 . S
C2950 H2962 0.960 . S
C2950 H2963 0.962 . S
C2950 H2964 0.960 . S
C2951 C2948 1.511 . S
C2951 H2965 0.961 . S
C2951 H2966 0.961 . S
C2951 H2967 0.961 . S
C2952 C2953 1.370 . S
C2952 C2954 1.363 . S
C2952 H2968 0.931 . S
C2953 C2952 1.370 . S
C2953 C2957 1.408 . S
C2954 C2952 1.363 . S
C2954 C2955 1.370 . S
C2954 C2958 1.524 . S
C2955 C2947 1.503 . S
C2955 C2954 1.370 . S
C2955 C2956 1.403 . S
C2956 C2955 1.403 . S
C2956 C2957 1.404 . S
C2956 C2959 1.539 . S
C2957 C2953 1.408 . S
C2957 C2956 1.404 . S
C2957 H2969 0.930 . S
C2958 C2954 1.524 . S
C2958 H2970 0.956 . S
C2958 H2971 0.961 . S
C2958 H2972 0.961 . S
C2959 C2956 1.539 . S
C2959 H2973 0.958 . S
C2959 H2974 0.961 . S
C2959 H2975 0.960 . S
H2960 C2944 0.931 . S
H2961 C2949 0.929 . S
H2962 C2950 0.960 . S
H2963 C2950 0.962 . S
H2964 C2950 0.960 . S
H2965 C2951 0.961 . S
H2966 C2951 0.961 . S
H2967 C2951 0.961 . S
H2968 C2952 0.931 . S
H2969 C2957 0.930 . S
H2970 C2958 0.956 . S
H2971 C2958 0.961 . S
H2972 C2958 0.961 . S
H2973 C2959 0.958 . S
H2974 C2959 0.961 . S
H2975 C2959 0.960 . S
C2976 C2977 1.391 . S
C2976 C2978 1.394 . S
C2976 H2992 0.931 . S
C2977 C2976 1.391 . S
C2977 C2981 1.376 . S
C2978 C2976 1.394 . S
C2978 C2979 1.369 . S
C2978 C2982 1.531 . S
C2979 C2978 1.369 . S
C2979 C2980 1.410 . S
C2979 C2987 1.503 . S
C2980 C2979 1.410 . S
C2980 C2981 1.392 . S
C2980 C2983 1.511 . S
C2981 C2977 1.376 . S
C2981 C2980 1.392 . S
C2981 H2993 0.929 . S
C2982 C2978 1.531 . S
C2982 H2994 0.960 . S
C2982 H2995 0.962 . S
C2982 H2996 0.960 . S
C2983 C2980 1.511 . S
C2983 H2997 0.961 . S
C2983 H2998 0.961 . S
C2983 H2999 0.961 . S
C2984 C2985 1.370 . S
C2984 C2986 1.363 . S
C2984 H3000 0.931 . S
C2985 C2984 1.370 . S
C2985 C2989 1.408 . S
C2986 C2984 1.363 . S
C2986 C2987 1.370 . S
C2986 C2990 1.524 . S
C2987 C2979 1.503 . S
C2987 C2986 1.370 . S
C2987 C2988 1.403 . S
C2988 C2987 1.403 . S
C2988 C2989 1.404 . S
C2988 C2991 1.539 . S
C2989 C2985 1.408 . S
C2989 C2988 1.404 . S
C2989 H3001 0.930 . S
C2990 C2986 1.524 . S
C2990 H3002 0.956 . S
C2990 H3003 0.961 . S
C2990 H3004 0.961 . S
C2991 C2988 1.539 . S
C2991 H3005 0.958 . S
C2991 H3006 0.961 . S
C2991 H3007 0.960 . S
H2992 C2976 0.931 . S
H2993 C2981 0.929 . S
H2994 C2982 0.960 . S
H2995 C2982 0.962 . S
H2996 C2982 0.960 . S
H2997 C2983 0.961 . S
H2998 C2983 0.961 . S
H2999 C2983 0.961 . S
H3000 C2984 0.931 . S
H3001 C2989 0.930 . S
H3002 C2990 0.956 . S
H3003 C2990 0.961 . S
H3004 C2990 0.961 . S
H3005 C2991 0.958 . S
H3006 C2991 0.961 . S
H3007 C2991 0.960 . S
C3008 C3009 1.391 . S
C3008 C3010 1.394 . S
C3008 H3024 0.931 . S
C3009 C3008 1.391 . S
C3009 C3013 1.376 . S
C3010 C3008 1.394 . S
C3010 C3011 1.369 . S
C3010 C3014 1.531 . S
C3011 C3010 1.369 . S
C3011 C3012 1.410 . S
C3011 C3019 1.503 . S
C3012 C3011 1.410 . S
C3012 C3013 1.392 . S
C3012 C3015 1.511 . S
C3013 C3009 1.376 . S
C3013 C3012 1.392 . S
C3013 H3025 0.929 . S
C3014 C3010 1.531 . S
C3014 H3026 0.960 . S
C3014 H3027 0.962 . S
C3014 H3028 0.960 . S
C3015 C3012 1.511 . S
C3015 H3029 0.961 . S
C3015 H3030 0.961 . S
C3015 H3031 0.961 . S
C3016 C3017 1.370 . S
C3016 C3018 1.363 . S
C3016 H3032 0.931 . S
C3017 C3016 1.370 . S
C3017 C3021 1.408 . S
C3018 C3016 1.363 . S
C3018 C3019 1.370 . S
C3018 C3022 1.524 . S
C3019 C3011 1.503 . S
C3019 C3018 1.370 . S
C3019 C3020 1.403 . S
C3020 C3019 1.403 . S
C3020 C3021 1.404 . S
C3020 C3023 1.539 . S
C3021 C3017 1.408 . S
C3021 C3020 1.404 . S
C3021 H3033 0.930 . S
C3022 C3018 1.524 . S
C3022 H3034 0.956 . S
C3022 H3035 0.961 . S
C3022 H3036 0.961 . S
C3023 C3020 1.539 . S
C3023 H3037 0.958 . S
C3023 H3038 0.961 . S
C3023 H3039 0.960 . S
H3024 C3008 0.931 . S
H3025 C3013 0.929 . S
H3026 C3014 0.960 . S
H3027 C3014 0.962 . S
H3028 C3014 0.960 . S
H3029 C3015 0.961 . S
H3030 C3015 0.961 . S
H3031 C3015 0.961 . S
H3032 C3016 0.931 . S
H3033 C3021 0.930 . S
H3034 C3022 0.956 . S
H3035 C3022 0.961 . S
H3036 C3022 0.961 . S
H3037 C3023 0.958 . S
H3038 C3023 0.961 . S
H3039 C3023 0.960 . S
C3040 C3041 1.391 . S
C3040 C3042 1.394 . S
C3040 H3056 0.931 . S
C3041 C3040 1.391 . S
C3041 C3045 1.376 . S
C3042 C3040 1.394 . S
C3042 C3043 1.369 . S
C3042 C3046 1.531 . S
C3043 C3042 1.369 . S
C3043 C3044 1.410 . S
C3043 C3051 1.503 . S
C3044 C3043 1.410 . S
C3044 C3045 1.392 . S
C3044 C3047 1.511 . S
C3045 C3041 1.376 . S
C3045 C3044 1.392 . S
C3045 H3057 0.929 . S
C3046 C3042 1.531 . S
C3046 H3058 0.960 . S
C3046 H3059 0.962 . S
C3046 H3060 0.960 . S
C3047 C3044 1.511 . S
C3047 H3061 0.961 . S
C3047 H3062 0.961 . S
C3047 H3063 0.961 . S
C3048 C3049 1.370 . S
C3048 C3050 1.363 . S
C3048 H3064 0.931 . S
C3049 C3048 1.370 . S
C3049 C3053 1.408 . S
C3050 C3048 1.363 . S
C3050 C3051 1.370 . S
C3050 C3054 1.524 . S
C3051 C3043 1.503 . S
C3051 C3050 1.370 . S
C3051 C3052 1.403 . S
C3052 C3051 1.403 . S
C3052 C3053 1.404 . S
C3052 C3055 1.539 . S
C3053 C3049 1.408 . S
C3053 C3052 1.404 . S
C3053 H3065 0.930 . S
C3054 C3050 1.524 . S
C3054 H3066 0.956 . S
C3054 H3067 0.961 . S
C3054 H3068 0.961 . S
C3055 C3052 1.539 . S
C3055 H3069 0.958 . S
C3055 H3070 0.961 . S
C3055 H3071 0.960 . S
H3056 C3040 0.931 . S
H3057 C3045 0.929 . S
H3058 C3046 0.960 . S
H3059 C3046 0.962 . S
H3060 C3046 0.960 . S
H3061 C3047 0.961 . S
H3062 C3047 0.961 . S
H3063 C3047 0.961 . S
H3064 C3048 0.931 . S
H3065 C3053 0.930 . S
H3066 C3054 0.956 . S
H3067 C3054 0.961 . S
H3068 C3054 0.961 . S
H3069 C3055 0.958 . S
H3070 C3055 0.961 . S
H3071 C3055 0.960 . S
C3072 C3073 1.391 1_655 S
C3072 C3074 1.394 . S
C3072 H3088 0.931 . S
C3073 C3072 1.391 1_455 S
C3073 C3077 1.376 . S
C3074 C3072 1.394 . S
C3074 C3075 1.369 . S
C3074 C3078 1.531 . S
C3075 C3074 1.369 . S
C3075 C3076 1.410 . S
C3075 C3083 1.503 . S
C3076 C3075 1.410 . S
C3076 C3077 1.392 1_655 S
C3076 C3079 1.511 1_655 S
C3077 C3073 1.376 . S
C3077 C3076 1.392 1_455 S
C3077 H3089 0.929 . S
C3078 C3074 1.531 . S
C3078 H3090 0.960 . S
C3078 H3091 0.962 . S
C3078 H3092 0.960 . S
C3079 C3076 1.511 1_455 S
C3079 H3093 0.961 . S
C3079 H3094 0.961 1_455 S
C3079 H3095 0.961 . S
C3080 C3081 1.370 . S
C3080 C3082 1.363 . S
C3080 H3096 0.931 . S
C3081 C3080 1.370 . S
C3081 C3085 1.408 . S
C3082 C3080 1.363 . S
C3082 C3083 1.370 . S
C3082 C3086 1.524 . S
C3083 C3075 1.503 . S
C3083 C3082 1.370 . S
C3083 C3084 1.403 . S
C3084 C3083 1.403 . S
C3084 C3085 1.404 . S
C3084 C3087 1.539 . S
C3085 C3081 1.408 . S
C3085 C3084 1.404 . S
C3085 H3097 0.930 . S
C3086 C3082 1.524 . S
C3086 H3098 0.956 . S
C3086 H3099 0.961 . S
C3086 H3100 0.961 . S
C3087 C3084 1.539 . S
C3087 H3101 0.958 . S
C3087 H3102 0.961 . S
C3087 H3103 0.960 . S
H3088 C3072 0.931 . S
H3089 C3077 0.929 . S
H3090 C3078 0.960 . S
H3091 C3078 0.962 . S
H3092 C3078 0.960 . S
H3093 C3079 0.961 . S
H3094 C3079 0.961 1_655 S
H3095 C3079 0.961 . S
H3096 C3080 0.931 . S
H3097 C3085 0.930 . S
H3098 C3086 0.956 . S
H3099 C3086 0.961 . S
H3100 C3086 0.961 . S
H3101 C3087 0.958 . S
H3102 C3087 0.961 . S
H3103 C3087 0.960 . S
C3104 C3105 1.391 . S
C3104 C3106 1.394 . S
C3104 H3120 0.931 . S
C3105 C3104 1.391 . S
C3105 C3109 1.376 . S
C3106 C3104 1.394 . S
C3106 C3107 1.369 . S
C3106 C3110 1.531 . S
C3107 C3106 1.369 . S
C3107 C3108 1.410 . S
C3107 C3115 1.503 . S
C3108 C3107 1.410 . S
C3108 C3109 1.392 . S
C3108 C3111 1.511 . S
C3109 C3105 1.376 . S
C3109 C3108 1.392 . S
C3109 H3121 0.929 . S
C3110 C3106 1.531 . S
C3110 H3122 0.960 . S
C3110 H3123 0.962 . S
C3110 H3124 0.960 . S
C3111 C3108 1.511 . S
C3111 H3125 0.961 . S
C3111 H3126 0.961 . S
C3111 H3127 0.961 . S
C3112 C3113 1.370 . S
C3112 C3114 1.363 . S
C3112 H3128 0.931 . S
C3113 C3112 1.370 . S
C3113 C3117 1.408 . S
C3114 C3112 1.363 . S
C3114 C3115 1.370 . S
C3114 C3118 1.524 . S
C3115 C3107 1.503 . S
C3115 C3114 1.370 . S
C3115 C3116 1.403 . S
C3116 C3115 1.403 . S
C3116 C3117 1.404 . S
C3116 C3119 1.539 . S
C3117 C3113 1.408 . S
C3117 C3116 1.404 . S
C3117 H3129 0.930 . S
C3118 C3114 1.524 . S
C3118 H3130 0.956 . S
C3118 H3131 0.961 . S
C3118 H3132 0.961 . S
C3119 C3116 1.539 . S
C3119 H3133 0.958 . S
C3119 H3134 0.961 . S
C3119 H3135 0.960 . S
H3120 C3104 0.931 . S
H3121 C3109 0.929 . S
H3122 C3110 0.960 . S
H3123 C3110 0.962 . S
H3124 C3110 0.960 . S
H3125 C3111 0.961 . S
H3126 C3111 0.961 . S
H3127 C3111 0.961 . S
H3128 C3112 0.931 . S
H3129 C3117 0.930 . S
H3130 C3118 0.956 . S
H3131 C3118 0.961 . S
H3132 C3118 0.961 . S
H3133 C3119 0.958 . S
H3134 C3119 0.961 . S
H3135 C3119 0.960 . S
C3136 C3137 1.391 . S
C3136 C3138 1.394 . S
C3136 H3152 0.931 . S
C3137 C3136 1.391 . S
C3137 C3141 1.376 . S
C3138 C3136 1.394 . S
C3138 C3139 1.369 . S
C3138 C3142 1.531 . S
C3139 C3138 1.369 . S
C3139 C3140 1.410 . S
C3139 C3147 1.503 . S
C3140 C3139 1.410 . S
C3140 C3141 1.392 . S
C3140 C3143 1.511 . S
C3141 C3137 1.376 . S
C3141 C3140 1.392 . S
C3141 H3153 0.929 . S
C3142 C3138 1.531 . S
C3142 H3154 0.960 . S
C3142 H3155 0.962 . S
C3142 H3156 0.960 . S
C3143 C3140 1.511 . S
C3143 H3157 0.961 . S
C3143 H3158 0.961 . S
C3143 H3159 0.961 . S
C3144 C3145 1.370 . S
C3144 C3146 1.363 . S
C3144 H3160 0.931 . S
C3145 C3144 1.370 . S
C3145 C3149 1.408 . S
C3146 C3144 1.363 . S
C3146 C3147 1.370 . S
C3146 C3150 1.524 . S
C3147 C3139 1.503 . S
C3147 C3146 1.370 . S
C3147 C3148 1.403 . S
C3148 C3147 1.403 . S
C3148 C3149 1.404 . S
C3148 C3151 1.539 . S
C3149 C3145 1.408 . S
C3149 C3148 1.404 . S
C3149 H3161 0.930 . S
C3150 C3146 1.524 . S
C3150 H3162 0.956 . S
C3150 H3163 0.961 . S
C3150 H3164 0.961 . S
C3151 C3148 1.539 . S
C3151 H3165 0.958 . S
C3151 H3166 0.961 . S
C3151 H3167 0.960 . S
H3152 C3136 0.931 . S
H3153 C3141 0.929 . S
H3154 C3142 0.960 . S
H3155 C3142 0.962 . S
H3156 C3142 0.960 . S
H3157 C3143 0.961 . S
H3158 C3143 0.961 . S
H3159 C3143 0.961 . S
H3160 C3144 0.931 . S
H3161 C3149 0.930 . S
H3162 C3150 0.956 . S
H3163 C3150 0.961 . S
H3164 C3150 0.961 . S
H3165 C3151 0.958 . S
H3166 C3151 0.961 . S
H3167 C3151 0.960 . S
C3168 C3169 1.391 . S
C3168 C3170 1.394 . S
C3168 H3184 0.931 . S
C3169 C3168 1.391 . S
C3169 C3173 1.376 . S
C3170 C3168 1.394 . S
C3170 C3171 1.369 . S
C3170 C3174 1.531 . S
C3171 C3170 1.369 . S
C3171 C3172 1.410 . S
C3171 C3179 1.503 . S
C3172 C3171 1.410 . S
C3172 C3173 1.392 . S
C3172 C3175 1.511 . S
C3173 C3169 1.376 . S
C3173 C3172 1.392 . S
C3173 H3185 0.929 . S
C3174 C3170 1.531 . S
C3174 H3186 0.960 . S
C3174 H3187 0.962 . S
C3174 H3188 0.960 . S
C3175 C3172 1.511 . S
C3175 H3189 0.961 . S
C3175 H3190 0.961 . S
C3175 H3191 0.961 . S
C3176 C3177 1.370 . S
C3176 C3178 1.363 . S
C3176 H3192 0.931 . S
C3177 C3176 1.370 . S
C3177 C3181 1.408 . S
C3178 C3176 1.363 . S
C3178 C3179 1.370 . S
C3178 C3182 1.524 . S
C3179 C3171 1.503 . S
C3179 C3178 1.370 . S
C3179 C3180 1.403 . S
C3180 C3179 1.403 . S
C3180 C3181 1.404 . S
C3180 C3183 1.539 . S
C3181 C3177 1.408 . S
C3181 C3180 1.404 . S
C3181 H3193 0.930 . S
C3182 C3178 1.524 . S
C3182 H3194 0.956 . S
C3182 H3195 0.961 . S
C3182 H3196 0.961 . S
C3183 C3180 1.539 . S
C3183 H3197 0.958 . S
C3183 H3198 0.961 . S
C3183 H3199 0.960 . S
H3184 C3168 0.931 . S
H3185 C3173 0.929 . S
H3186 C3174 0.960 . S
H3187 C3174 0.962 . S
H3188 C3174 0.960 . S
H3189 C3175 0.961 . S
H3190 C3175 0.961 . S
H3191 C3175 0.961 . S
H3192 C3176 0.931 . S
H3193 C3181 0.930 . S
H3194 C3182 0.956 . S
H3195 C3182 0.961 . S
H3196 C3182 0.961 . S
H3197 C3183 0.958 . S
H3198 C3183 0.961 . S
H3199 C3183 0.960 . S
C3200 C3201 1.391 1_655 S
C3200 C3202 1.394 . S
C3200 H3216 0.931 . S
C3201 C3200 1.391 1_455 S
C3201 C3205 1.376 . S
C3202 C3200 1.394 . S
C3202 C3203 1.369 . S
C3202 C3206 1.531 . S
C3203 C3202 1.369 . S
C3203 C3204 1.410 . S
C3203 C3211 1.503 . S
C3204 C3203 1.410 . S
C3204 C3205 1.392 1_655 S
C3204 C3207 1.511 1_655 S
C3205 C3201 1.376 . S
C3205 C3204 1.392 1_455 S
C3205 H3217 0.929 . S
C3206 C3202 1.531 . S
C3206 H3218 0.960 . S
C3206 H3219 0.962 . S
C3206 H3220 0.960 . S
C3207 C3204 1.511 1_455 S
C3207 H3221 0.961 . S
C3207 H3222 0.961 1_455 S
C3207 H3223 0.961 . S
C3208 C3209 1.370 . S
C3208 C3210 1.363 . S
C3208 H3224 0.931 . S
C3209 C3208 1.370 . S
C3209 C3213 1.408 . S
C3210 C3208 1.363 . S
C3210 C3211 1.370 . S
C3210 C3214 1.524 . S
C3211 C3203 1.503 . S
C3211 C3210 1.370 . S
C3211 C3212 1.403 . S
C3212 C3211 1.403 . S
C3212 C3213 1.404 . S
C3212 C3215 1.539 . S
C3213 C3209 1.408 . S
C3213 C3212 1.404 . S
C3213 H3225 0.930 . S
C3214 C3210 1.524 . S
C3214 H3226 0.956 . S
C3214 H3227 0.961 . S
C3214 H3228 0.961 . S
C3215 C3212 1.539 . S
C3215 H3229 0.958 . S
C3215 H3230 0.961 . S
C3215 H3231 0.960 . S
H3216 C3200 0.931 . S
H3217 C3205 0.929 . S
H3218 C3206 0.960 . S
H3219 C3206 0.962 . S
H3220 C3206 0.960 . S
H3221 C3207 0.961 . S
H3222 C3207 0.961 1_655 S
H3223 C3207 0.961 . S
H3224 C3208 0.931 . S
H3225 C3213 0.930 . S
H3226 C3214 0.956 . S
H3227 C3214 0.961 . S
H3228 C3214 0.961 . S
H3229 C3215 0.958 . S
H3230 C3215 0.961 . S
H3231 C3215 0.960 . S
C3232 C3233 1.391 . S
C3232 C3234 1.394 . S
C3232 H3248 0.931 . S
C3233 C3232 1.391 . S
C3233 C3237 1.376 . S
C3234 C3232 1.394 . S
C3234 C3235 1.369 . S
C3234 C3238 1.531 . S
C3235 C3234 1.369 . S
C3235 C3236 1.410 . S
C3235 C3243 1.503 . S
C3236 C3235 1.410 . S
C3236 C3237 1.392 . S
C3236 C3239 1.511 . S
C3237 C3233 1.376 . S
C3237 C3236 1.392 . S
C3237 H3249 0.929 . S
C3238 C3234 1.531 . S
C3238 H3250 0.960 . S
C3238 H3251 0.962 . S
C3238 H3252 0.960 . S
C3239 C3236 1.511 . S
C3239 H3253 0.961 . S
C3239 H3254 0.961 . S
C3239 H3255 0.961 . S
C3240 C3241 1.370 . S
C3240 C3242 1.363 . S
C3240 H3256 0.931 . S
C3241 C3240 1.370 . S
C3241 C3245 1.408 . S
C3242 C3240 1.363 . S
C3242 C3243 1.370 . S
C3242 C3246 1.524 . S
C3243 C3235 1.503 . S
C3243 C3242 1.370 . S
C3243 C3244 1.403 . S
C3244 C3243 1.403 . S
C3244 C3245 1.404 . S
C3244 C3247 1.539 . S
C3245 C3241 1.408 . S
C3245 C3244 1.404 . S
C3245 H3257 0.930 . S
C3246 C3242 1.524 . S
C3246 H3258 0.956 . S
C3246 H3259 0.961 . S
C3246 H3260 0.961 . S
C3247 C3244 1.539 . S
C3247 H3261 0.958 . S
C3247 H3262 0.961 . S
C3247 H3263 0.960 . S
H3248 C3232 0.931 . S
H3249 C3237 0.929 . S
H3250 C3238 0.960 . S
H3251 C3238 0.962 . S
H3252 C3238 0.960 . S
H3253 C3239 0.961 . S
H3254 C3239 0.961 . S
H3255 C3239 0.961 . S
H3256 C3240 0.931 . S
H3257 C3245 0.930 . S
H3258 C3246 0.956 . S
H3259 C3246 0.961 . S
H3260 C3246 0.961 . S
H3261 C3247 0.958 . S
H3262 C3247 0.961 . S
H3263 C3247 0.960 . S
C3264 C3265 1.391 . S
C3264 C3266 1.394 . S
C3264 H3280 0.931 . S
C3265 C3264 1.391 . S
C3265 C3269 1.376 . S
C3266 C3264 1.394 . S
C3266 C3267 1.369 . S
C3266 C3270 1.531 . S
C3267 C3266 1.369 . S
C3267 C3268 1.410 . S
C3267 C3275 1.503 . S
C3268 C3267 1.410 . S
C3268 C3269 1.392 . S
C3268 C3271 1.511 . S
C3269 C3265 1.376 . S
C3269 C3268 1.392 . S
C3269 H3281 0.929 . S
C3270 C3266 1.531 . S
C3270 H3282 0.960 . S
C3270 H3283 0.962 . S
C3270 H3284 0.960 . S
C3271 C3268 1.511 . S
C3271 H3285 0.961 . S
C3271 H3286 0.961 . S
C3271 H3287 0.961 . S
C3272 C3273 1.370 . S
C3272 C3274 1.363 1_455 S
C3272 H3288 0.931 . S
C3273 C3272 1.370 . S
C3273 C3277 1.408 1_455 S
C3274 C3272 1.363 1_655 S
C3274 C3275 1.370 . S
C3274 C3278 1.524 . S
C3275 C3267 1.503 . S
C3275 C3274 1.370 . S
C3275 C3276 1.403 . S
C3276 C3275 1.403 . S
C3276 C3277 1.404 . S
C3276 C3279 1.539 . S
C3277 C3273 1.408 1_655 S
C3277 C3276 1.404 . S
C3277 H3289 0.930 . S
C3278 C3274 1.524 . S
C3278 H3290 0.956 . S
C3278 H3291 0.961 . S
C3278 H3292 0.961 . S
C3279 C3276 1.539 . S
C3279 H3293 0.958 . S
C3279 H3294 0.961 . S
C3279 H3295 0.960 . S
H3280 C3264 0.931 . S
H3281 C3269 0.929 . S
H3282 C3270 0.960 . S
H3283 C3270 0.962 . S
H3284 C3270 0.960 . S
H3285 C3271 0.961 . S
H3286 C3271 0.961 . S
H3287 C3271 0.961 . S
H3288 C3272 0.931 . S
H3289 C3277 0.930 . S
H3290 C3278 0.956 . S
H3291 C3278 0.961 . S
H3292 C3278 0.961 . S
H3293 C3279 0.958 . S
H3294 C3279 0.961 . S
H3295 C3279 0.960 . S
C3296 C3297 1.391 . S
C3296 C3298 1.394 . S
C3296 H3312 0.931 . S
C3297 C3296 1.391 . S
C3297 C3301 1.376 . S
C3298 C3296 1.394 . S
C3298 C3299 1.369 . S
C3298 C3302 1.531 . S
C3299 C3298 1.369 . S
C3299 C3300 1.410 . S
C3299 C3307 1.503 . S
C3300 C3299 1.410 . S
C3300 C3301 1.392 . S
C3300 C3303 1.511 . S
C3301 C3297 1.376 . S
C3301 C3300 1.392 . S
C3301 H3313 0.929 . S
C3302 C3298 1.531 . S
C3302 H3314 0.960 . S
C3302 H3315 0.962 . S
C3302 H3316 0.960 . S
C3303 C3300 1.511 . S
C3303 H3317 0.961 . S
C3303 H3318 0.961 . S
C3303 H3319 0.961 . S
C3304 C3305 1.370 . S
C3304 C3306 1.363 . S
C3304 H3320 0.931 . S
C3305 C3304 1.370 . S
C3305 C3309 1.408 . S
C3306 C3304 1.363 . S
C3306 C3307 1.370 . S
C3306 C3310 1.524 . S
C3307 C3299 1.503 . S
C3307 C3306 1.370 . S
C3307 C3308 1.403 . S
C3308 C3307 1.403 . S
C3308 C3309 1.404 . S
C3308 C3311 1.539 . S
C3309 C3305 1.408 . S
C3309 C3308 1.404 . S
C3309 H3321 0.930 . S
C3310 C3306 1.524 . S
C3310 H3322 0.956 . S
C3310 H3323 0.961 . S
C3310 H3324 0.961 . S
C3311 C3308 1.539 . S
C3311 H3325 0.958 . S
C3311 H3326 0.961 . S
C3311 H3327 0.960 . S
H3312 C3296 0.931 . S
H3313 C3301 0.929 . S
H3314 C3302 0.960 . S
H3315 C3302 0.962 . S
H3316 C3302 0.960 . S
H3317 C3303 0.961 . S
H3318 C3303 0.961 . S
H3319 C3303 0.961 . S
H3320 C3304 0.931 . S
H3321 C3309 0.930 . S
H3322 C3310 0.956 . S
H3323 C3310 0.961 . S
H3324 C3310 0.961 . S
H3325 C3311 0.958 . S
H3326 C3311 0.961 . S
H3327 C3311 0.960 . S
C3328 C3329 1.391 . S
C3328 C3330 1.394 . S
C3328 H3344 0.931 . S
C3329 C3328 1.391 . S
C3329 C3333 1.376 . S
C3330 C3328 1.394 . S
C3330 C3331 1.369 . S
C3330 C3334 1.531 . S
C3331 C3330 1.369 . S
C3331 C3332 1.410 . S
C3331 C3339 1.503 . S
C3332 C3331 1.410 . S
C3332 C3333 1.392 . S
C3332 C3335 1.511 . S
C3333 C3329 1.376 . S
C3333 C3332 1.392 . S
C3333 H3345 0.929 . S
C3334 C3330 1.531 . S
C3334 H3346 0.960 . S
C3334 H3347 0.962 . S
C3334 H3348 0.960 . S
C3335 C3332 1.511 . S
C3335 H3349 0.961 . S
C3335 H3350 0.961 . S
C3335 H3351 0.961 . S
C3336 C3337 1.370 . S
C3336 C3338 1.363 . S
C3336 H3352 0.931 . S
C3337 C3336 1.370 . S
C3337 C3341 1.408 . S
C3338 C3336 1.363 . S
C3338 C3339 1.370 . S
C3338 C3342 1.524 . S
C3339 C3331 1.503 . S
C3339 C3338 1.370 . S
C3339 C3340 1.403 . S
C3340 C3339 1.403 . S
C3340 C3341 1.404 . S
C3340 C3343 1.539 . S
C3341 C3337 1.408 . S
C3341 C3340 1.404 . S
C3341 H3353 0.930 . S
C3342 C3338 1.524 . S
C3342 H3354 0.956 . S
C3342 H3355 0.961 . S
C3342 H3356 0.961 . S
C3343 C3340 1.539 . S
C3343 H3357 0.958 . S
C3343 H3358 0.961 . S
C3343 H3359 0.960 . S
H3344 C3328 0.931 . S
H3345 C3333 0.929 . S
H3346 C3334 0.960 . S
H3347 C3334 0.962 . S
H3348 C3334 0.960 . S
H3349 C3335 0.961 . S
H3350 C3335 0.961 . S
H3351 C3335 0.961 . S
H3352 C3336 0.931 . S
H3353 C3341 0.930 . S
H3354 C3342 0.956 . S
H3355 C3342 0.961 . S
H3356 C3342 0.961 . S
H3357 C3343 0.958 . S
H3358 C3343 0.961 . S
H3359 C3343 0.960 . S
C3360 C3361 1.391 . S
C3360 C3362 1.394 . S
C3360 H3376 0.931 . S
C3361 C3360 1.391 . S
C3361 C3365 1.376 . S
C3362 C3360 1.394 . S
C3362 C3363 1.369 . S
C3362 C3366 1.531 . S
C3363 C3362 1.369 . S
C3363 C3364 1.410 . S
C3363 C3371 1.503 . S
C3364 C3363 1.410 . S
C3364 C3365 1.392 . S
C3364 C3367 1.511 . S
C3365 C3361 1.376 . S
C3365 C3364 1.392 . S
C3365 H3377 0.929 . S
C3366 C3362 1.531 . S
C3366 H3378 0.960 . S
C3366 H3379 0.962 . S
C3366 H3380 0.960 . S
C3367 C3364 1.511 . S
C3367 H3381 0.961 . S
C3367 H3382 0.961 . S
C3367 H3383 0.961 . S
C3368 C3369 1.370 . S
C3368 C3370 1.363 . S
C3368 H3384 0.931 . S
C3369 C3368 1.370 . S
C3369 C3373 1.408 . S
C3370 C3368 1.363 . S
C3370 C3371 1.370 . S
C3370 C3374 1.524 . S
C3371 C3363 1.503 . S
C3371 C3370 1.370 . S
C3371 C3372 1.403 . S
C3372 C3371 1.403 . S
C3372 C3373 1.404 . S
C3372 C3375 1.539 . S
C3373 C3369 1.408 . S
C3373 C3372 1.404 . S
C3373 H3385 0.930 . S
C3374 C3370 1.524 . S
C3374 H3386 0.956 . S
C3374 H3387 0.961 . S
C3374 H3388 0.961 . S
C3375 C3372 1.539 . S
C3375 H3389 0.958 . S
C3375 H3390 0.961 . S
C3375 H3391 0.960 . S
H3376 C3360 0.931 . S
H3377 C3365 0.929 . S
H3378 C3366 0.960 . S
H3379 C3366 0.962 . S
H3380 C3366 0.960 . S
H3381 C3367 0.961 . S
H3382 C3367 0.961 . S
H3383 C3367 0.961 . S
H3384 C3368 0.931 . S
H3385 C3373 0.930 . S
H3386 C3374 0.956 . S
H3387 C3374 0.961 . S
H3388 C3374 0.961 . S
H3389 C3375 0.958 . S
H3390 C3375 0.961 . S
H3391 C3375 0.960 . S
C3392 C3393 1.391 . S
C3392 C3394 1.394 . S
C3392 H3408 0.931 . S
C3393 C3392 1.391 . S
C3393 C3397 1.376 . S
C3394 C3392 1.394 . S
C3394 C3395 1.369 . S
C3394 C3398 1.531 . S
C3395 C3394 1.369 . S
C3395 C3396 1.410 . S
C3395 C3403 1.503 . S
C3396 C3395 1.410 . S
C3396 C3397 1.392 . S
C3396 C3399 1.511 . S
C3397 C3393 1.376 . S
C3397 C3396 1.392 . S
C3397 H3409 0.929 . S
C3398 C3394 1.531 . S
C3398 H3410 0.960 . S
C3398 H3411 0.962 . S
C3398 H3412 0.960 . S
C3399 C3396 1.511 . S
C3399 H3413 0.961 . S
C3399 H3414 0.961 . S
C3399 H3415 0.961 . S
C3400 C3401 1.370 . S
C3400 C3402 1.363 . S
C3400 H3416 0.931 . S
C3401 C3400 1.370 . S
C3401 C3405 1.408 . S
C3402 C3400 1.363 . S
C3402 C3403 1.370 . S
C3402 C3406 1.524 . S
C3403 C3395 1.503 . S
C3403 C3402 1.370 . S
C3403 C3404 1.403 . S
C3404 C3403 1.403 . S
C3404 C3405 1.404 . S
C3404 C3407 1.539 . S
C3405 C3401 1.408 . S
C3405 C3404 1.404 . S
C3405 H3417 0.930 . S
C3406 C3402 1.524 . S
C3406 H3418 0.956 . S
C3406 H3419 0.961 . S
C3406 H3420 0.961 . S
C3407 C3404 1.539 . S
C3407 H3421 0.958 . S
C3407 H3422 0.961 . S
C3407 H3423 0.960 . S
H3408 C3392 0.931 . S
H3409 C3397 0.929 . S
H3410 C3398 0.960 . S
H3411 C3398 0.962 . S
H3412 C3398 0.960 . S
H3413 C3399 0.961 . S
H3414 C3399 0.961 . S
H3415 C3399 0.961 . S
H3416 C3400 0.931 . S
H3417 C3405 0.930 . S
H3418 C3406 0.956 . S
H3419 C3406 0.961 . S
H3420 C3406 0.961 . S
H3421 C3407 0.958 . S
H3422 C3407 0.961 . S
H3423 C3407 0.960 . S
C3424 C3425 1.391 . S
C3424 C3426 1.394 . S
C3424 H3440 0.931 . S
C3425 C3424 1.391 . S
C3425 C3429 1.376 . S
C3426 C3424 1.394 . S
C3426 C3427 1.369 . S
C3426 C3430 1.531 . S
C3427 C3426 1.369 . S
C3427 C3428 1.410 . S
C3427 C3435 1.503 . S
C3428 C3427 1.410 . S
C3428 C3429 1.392 . S
C3428 C3431 1.511 . S
C3429 C3425 1.376 . S
C3429 C3428 1.392 . S
C3429 H3441 0.929 . S
C3430 C3426 1.531 . S
C3430 H3442 0.960 . S
C3430 H3443 0.962 . S
C3430 H3444 0.960 . S
C3431 C3428 1.511 . S
C3431 H3445 0.961 . S
C3431 H3446 0.961 . S
C3431 H3447 0.961 . S
C3432 C3433 1.370 . S
C3432 C3434 1.363 . S
C3432 H3448 0.931 . S
C3433 C3432 1.370 . S
C3433 C3437 1.408 . S
C3434 C3432 1.363 . S
C3434 C3435 1.370 . S
C3434 C3438 1.524 . S
C3435 C3427 1.503 . S
C3435 C3434 1.370 . S
C3435 C3436 1.403 . S
C3436 C3435 1.403 . S
C3436 C3437 1.404 . S
C3436 C3439 1.539 . S
C3437 C3433 1.408 . S
C3437 C3436 1.404 . S
C3437 H3449 0.930 . S
C3438 C3434 1.524 . S
C3438 H3450 0.956 . S
C3438 H3451 0.961 . S
C3438 H3452 0.961 . S
C3439 C3436 1.539 . S
C3439 H3453 0.958 . S
C3439 H3454 0.961 . S
C3439 H3455 0.960 . S
H3440 C3424 0.931 . S
H3441 C3429 0.929 . S
H3442 C3430 0.960 . S
H3443 C3430 0.962 . S
H3444 C3430 0.960 . S
H3445 C3431 0.961 . S
H3446 C3431 0.961 . S
H3447 C3431 0.961 . S
H3448 C3432 0.931 . S
H3449 C3437 0.930 . S
H3450 C3438 0.956 . S
H3451 C3438 0.961 . S
H3452 C3438 0.961 . S
H3453 C3439 0.958 . S
H3454 C3439 0.961 . S
H3455 C3439 0.960 . S
C3456 C3457 1.391 . S
C3456 C3458 1.394 . S
C3456 H3472 0.931 . S
C3457 C3456 1.391 . S
C3457 C3461 1.376 . S
C3458 C3456 1.394 . S
C3458 C3459 1.369 . S
C3458 C3462 1.531 . S
C3459 C3458 1.369 . S
C3459 C3460 1.410 . S
C3459 C3467 1.503 . S
C3460 C3459 1.410 . S
C3460 C3461 1.392 . S
C3460 C3463 1.511 . S
C3461 C3457 1.376 . S
C3461 C3460 1.392 . S
C3461 H3473 0.929 . S
C3462 C3458 1.531 . S
C3462 H3474 0.960 . S
C3462 H3475 0.962 . S
C3462 H3476 0.960 . S
C3463 C3460 1.511 . S
C3463 H3477 0.961 . S
C3463 H3478 0.961 . S
C3463 H3479 0.961 . S
C3464 C3465 1.370 1_455 S
C3464 C3466 1.363 . S
C3464 H3480 0.931 . S
C3465 C3464 1.370 1_655 S
C3465 C3469 1.408 . S
C3466 C3464 1.363 . S
C3466 C3467 1.370 . S
C3466 C3470 1.524 . S
C3467 C3459 1.503 . S
C3467 C3466 1.370 . S
C3467 C3468 1.403 1_455 S
C3468 C3467 1.403 1_655 S
C3468 C3469 1.404 . S
C3468 C3471 1.539 . S
C3469 C3465 1.408 . S
C3469 C3468 1.404 . S
C3469 H3481 0.930 . S
C3470 C3466 1.524 . S
C3470 H3482 0.956 . S
C3470 H3483 0.961 . S
C3470 H3484 0.961 . S
C3471 C3468 1.539 . S
C3471 H3485 0.958 . S
C3471 H3486 0.961 . S
C3471 H3487 0.934 1_655 S
H3472 C3456 0.931 . S
H3473 C3461 0.929 . S
H3474 C3462 0.960 . S
H3475 C3462 0.962 . S
H3476 C3462 0.960 . S
H3477 C3463 0.961 . S
H3478 C3463 0.961 . S
H3479 C3463 0.961 . S
H3480 C3464 0.931 . S
H3481 C3469 0.930 . S
H3482 C3470 0.956 . S
H3483 C3470 0.961 . S
H3484 C3470 0.961 . S
H3485 C3471 0.958 . S
H3486 C3471 0.961 . S
H3487 C3471 0.934 1_455 S
C3488 C3489 1.391 . S
C3488 C3490 1.394 . S
C3488 H3504 0.931 . S
C3489 C3488 1.391 . S
C3489 C3493 1.376 . S
C3490 C3488 1.394 . S
C3490 C3491 1.369 . S
C3490 C3494 1.531 . S
C3491 C3490 1.369 . S
C3491 C3492 1.410 . S
C3491 C3499 1.503 . S
C3492 C3491 1.410 . S
C3492 C3493 1.392 . S
C3492 C3495 1.511 . S
C3493 C3489 1.376 . S
C3493 C3492 1.392 . S
C3493 H3505 0.929 . S
C3494 C3490 1.531 . S
C3494 H3506 0.960 . S
C3494 H3507 0.962 . S
C3494 H3508 0.960 . S
C3495 C3492 1.511 . S
C3495 H3509 0.961 . S
C3495 H3510 0.961 . S
C3495 H3511 0.961 . S
C3496 C3497 1.370 . S
C3496 C3498 1.363 . S
C3496 H3512 0.931 . S
C3497 C3496 1.370 . S
C3497 C3501 1.408 . S
C3498 C3496 1.363 . S
C3498 C3499 1.370 . S
C3498 C3502 1.524 . S
C3499 C3491 1.503 . S
C3499 C3498 1.370 . S
C3499 C3500 1.403 . S
C3500 C3499 1.403 . S
C3500 C3501 1.404 . S
C3500 C3503 1.539 . S
C3501 C3497 1.408 . S
C3501 C3500 1.404 . S
C3501 H3513 0.930 . S
C3502 C3498 1.524 . S
C3502 H3514 0.956 . S
C3502 H3515 0.961 . S
C3502 H3516 0.961 . S
C3503 C3500 1.539 . S
C3503 H3517 0.958 . S
C3503 H3518 0.961 . S
C3503 H3519 0.960 . S
H3504 C3488 0.931 . S
H3505 C3493 0.929 . S
H3506 C3494 0.960 . S
H3507 C3494 0.962 . S
H3508 C3494 0.960 . S
H3509 C3495 0.961 . S
H3510 C3495 0.961 . S
H3511 C3495 0.961 . S
H3512 C3496 0.931 . S
H3513 C3501 0.930 . S
H3514 C3502 0.956 . S
H3515 C3502 0.961 . S
H3516 C3502 0.961 . S
H3517 C3503 0.958 . S
H3518 C3503 0.961 . S
H3519 C3503 0.960 . S
C3520 C3521 1.391 . S
C3520 C3522 1.394 1_655 S
C3520 H3536 0.931 . S
C3521 C3520 1.391 . S
C3521 C3525 1.376 1_655 S
C3522 C3520 1.394 1_455 S
C3522 C3523 1.369 . S
C3522 C3526 1.531 1_455 S
C3523 C3522 1.369 . S
C3523 C3524 1.410 . S
C3523 C3531 1.503 . S
C3524 C3523 1.410 . S
C3524 C3525 1.392 . S
C3524 C3527 1.511 . S
C3525 C3521 1.376 1_455 S
C3525 C3524 1.392 . S
C3525 H3537 0.929 . S
C3526 C3522 1.531 1_655 S
C3526 H3538 0.960 1_655 S
C3526 H3539 0.962 . S
C3526 H3540 0.960 . S
C3527 C3524 1.511 . S
C3527 H3541 0.961 . S
C3527 H3542 0.961 . S
C3527 H3543 0.961 . S
C3528 C3529 1.370 . S
C3528 C3530 1.363 . S
C3528 H3544 0.931 . S
C3529 C3528 1.370 . S
C3529 C3533 1.408 . S
C3530 C3528 1.363 . S
C3530 C3531 1.370 . S
C3530 C3534 1.524 . S
C3531 C3523 1.503 . S
C3531 C3530 1.370 . S
C3531 C3532 1.403 . S
C3532 C3531 1.403 . S
C3532 C3533 1.404 . S
C3532 C3535 1.539 . S
C3533 C3529 1.408 . S
C3533 C3532 1.404 . S
C3533 H3545 0.930 . S
C3534 C3530 1.524 . S
C3534 H3546 0.956 . S
C3534 H3547 0.961 . S
C3534 H3548 0.961 . S
C3535 C3532 1.539 . S
C3535 H3549 0.958 . S
C3535 H3550 0.961 . S
C3535 H3551 0.960 . S
H3536 C3520 0.931 . S
H3537 C3525 0.929 . S
H3538 C3526 0.960 1_455 S
H3539 C3526 0.962 . S
H3540 C3526 0.960 . S
H3541 C3527 0.961 . S
H3542 C3527 0.961 . S
H3543 C3527 0.961 . S
H3544 C3528 0.931 . S
H3545 C3533 0.930 . S
H3546 C3534 0.956 . S
H3547 C3534 0.961 . S
H3548 C3534 0.961 . S
H3549 C3535 0.958 . S
H3550 C3535 0.961 . S
H3551 C3535 0.960 . S
C3552 C3553 1.391 . S
C3552 C3554 1.394 . S
C3552 H3568 0.931 . S
C3553 C3552 1.391 . S
C3553 C3557 1.376 . S
C3554 C3552 1.394 . S
C3554 C3555 1.369 . S
C3554 C3558 1.531 . S
C3555 C3554 1.369 . S
C3555 C3556 1.410 . S
C3555 C3563 1.503 . S
C3556 C3555 1.410 . S
C3556 C3557 1.392 . S
C3556 C3559 1.511 . S
C3557 C3553 1.376 . S
C3557 C3556 1.392 . S
C3557 H3569 0.929 . S
C3558 C3554 1.531 . S
C3558 H3570 0.960 . S
C3558 H3571 0.962 . S
C3558 H3572 0.960 . S
C3559 C3556 1.511 . S
C3559 H3573 0.961 . S
C3559 H3574 0.961 . S
C3559 H3575 0.961 . S
C3560 C3561 1.370 . S
C3560 C3562 1.363 . S
C3560 H3576 0.931 . S
C3561 C3560 1.370 . S
C3561 C3565 1.408 . S
C3562 C3560 1.363 . S
C3562 C3563 1.370 . S
C3562 C3566 1.524 . S
C3563 C3555 1.503 . S
C3563 C3562 1.370 . S
C3563 C3564 1.403 . S
C3564 C3563 1.403 . S
C3564 C3565 1.404 . S
C3564 C3567 1.539 . S
C3565 C3561 1.408 . S
C3565 C3564 1.404 . S
C3565 H3577 0.930 . S
C3566 C3562 1.524 . S
C3566 H3578 0.956 . S
C3566 H3579 0.961 . S
C3566 H3580 0.961 . S
C3567 C3564 1.539 . S
C3567 H3581 0.958 . S
C3567 H3582 0.961 . S
C3567 H3583 0.960 . S
H3568 C3552 0.931 . S
H3569 C3557 0.929 . S
H3570 C3558 0.960 . S
H3571 C3558 0.962 . S
H3572 C3558 0.960 . S
H3573 C3559 0.961 . S
H3574 C3559 0.961 . S
H3575 C3559 0.961 . S
H3576 C3560 0.931 . S
H3577 C3565 0.930 . S
H3578 C3566 0.956 . S
H3579 C3566 0.961 . S
H3580 C3566 0.961 . S
H3581 C3567 0.958 . S
H3582 C3567 0.961 . S
H3583 C3567 0.960 . S
C3584 C3585 1.391 . S
C3584 C3586 1.394 . S
C3584 H3600 0.931 . S
C3585 C3584 1.391 . S
C3585 C3589 1.376 . S
C3586 C3584 1.394 . S
C3586 C3587 1.369 . S
C3586 C3590 1.531 . S
C3587 C3586 1.369 . S
C3587 C3588 1.410 . S
C3587 C3595 1.503 . S
C3588 C3587 1.410 . S
C3588 C3589 1.392 . S
C3588 C3591 1.511 . S
C3589 C3585 1.376 . S
C3589 C3588 1.392 . S
C3589 H3601 0.929 . S
C3590 C3586 1.531 . S
C3590 H3602 0.960 . S
C3590 H3603 0.962 . S
C3590 H3604 0.960 . S
C3591 C3588 1.511 . S
C3591 H3605 0.961 . S
C3591 H3606 0.961 . S
C3591 H3607 0.961 . S
C3592 C3593 1.370 . S
C3592 C3594 1.363 . S
C3592 H3608 0.931 . S
C3593 C3592 1.370 . S
C3593 C3597 1.408 . S
C3594 C3592 1.363 . S
C3594 C3595 1.370 . S
C3594 C3598 1.524 . S
C3595 C3587 1.503 . S
C3595 C3594 1.370 . S
C3595 C3596 1.403 . S
C3596 C3595 1.403 . S
C3596 C3597 1.404 . S
C3596 C3599 1.539 . S
C3597 C3593 1.408 . S
C3597 C3596 1.404 . S
C3597 H3609 0.930 . S
C3598 C3594 1.524 . S
C3598 H3610 0.956 . S
C3598 H3611 0.961 . S
C3598 H3612 0.961 . S
C3599 C3596 1.539 . S
C3599 H3613 0.958 . S
C3599 H3614 0.961 . S
C3599 H3615 0.960 . S
H3600 C3584 0.931 . S
H3601 C3589 0.929 . S
H3602 C3590 0.960 . S
H3603 C3590 0.962 . S
H3604 C3590 0.960 . S
H3605 C3591 0.961 . S
H3606 C3591 0.961 . S
H3607 C3591 0.961 . S
H3608 C3592 0.931 . S
H3609 C3597 0.930 . S
H3610 C3598 0.956 . S
H3611 C3598 0.961 . S
H3612 C3598 0.961 . S
H3613 C3599 0.958 . S
H3614 C3599 0.961 . S
H3615 C3599 0.960 . S
C1057 N244 1.792 . S
C1065 N13 1.783 . S
C1089 N46 1.799 . S
C1097 N145 1.782 . S
C1121 N79 1.755 . S
C1129 N178 1.769 . S
C1153 N211 1.768 . S
C1161 N112 1.775 . S
C1185 N508 1.786 . S
C1193 N277 1.770 . S
C1217 N409 1.739 . S
C1225 N310 1.755 . S
C1249 N343 1.795 . S
C1257 N442 1.783 . S
C1281 N376 1.745 . S
C1289 N475 1.769 . S
C1313 N772 1.777 . S
C1321 N541 1.770 . S
C1345 N574 1.732 . S
C1353 N673 1.755 . S
C1377 N607 1.767 . S
C1385 N706 1.774 . S
C1409 N739 1.762 . S
C1417 N640 1.764 . S
C1441 N1036 1.793 . S
C1449 N805 1.774 . S
C1473 N838 1.743 . S
C1481 N937 1.769 . S
C1505 N970 1.750 . S
C1513 N871 1.772 . S
C1537 N1003 1.737 . S
C1545 N904 1.755 . S
C1569 C150 0.975 . S
C1577 C18 0.963 . S
C1601 C51 0.954 . S
C1609 C183 0.972 . S
C1633 C216 0.955 . S
C1641 C84 0.971 . S
C1665 C117 0.976 . S
C1673 C249 0.967 . S
C1697 C414 0.970 . S
C1705 C282 0.963 . S
C1729 C315 0.961 . S
C1737 C447 0.966 . S
C1761 C348 0.963 . S
C1769 C480 0.973 . S
C1793 C513 0.954 . S
C1801 C381 0.971 . S
C1825 C678 0.958 . S
C1833 C546 0.973 . S
C1857 C711 0.971 . S
C1865 C579 0.969 . S
C1889 C744 0.954 . S
C1897 C612 0.973 . S
C1921 C777 0.978 . S
C1929 C645 0.965 . S
C1953 C942 0.955 . S
C1961 C810 0.972 . S
C1985 C843 0.957 . S
C1993 C975 0.973 . S
C2017 C1008 0.971 . S
C2025 C876 0.971 . S
C2049 C1041 0.979 . S
C2057 C909 0.965 . S
C2081 C601 0.992 . S
C2089 C7 1.044 . S
C2113 C40 0.989 . S
C2121 C634 1.053 . S
C2145 C73 1.016 . S
C2153 C535 1.066 . S
C2177 C106 1.081 . S
C2185 C568 1.056 . S
C2209 C733 1.087 . S
C2217 C139 1.052 . S
C2241 C766 1.038 . S
C2249 C172 1.067 . S
C2273 C205 0.991 . S
C2281 C667 1.045 . S
C2305 C238 1.003 . S
C2313 C700 1.035 . S
C2337 C271 1.068 . S
C2345 C865 1.065 . S
C2369 C304 0.991 . S
C2377 C898 1.049 . S
C2401 C799 1.075 . S
C2409 C337 1.064 . S
C2433 C370 1.037 . S
C2441 C832 1.067 . S
C2465 C403 1.040 . S
C2473 C997 1.067 . S
C2497 C1030 1.071 . S
C2505 C436 1.065 . S
C2529 C469 1.085 . S
C2537 C931 1.060 . S
C2561 C964 1.044 . S
C2569 C502 1.023 . S
C2593 N893 0.711 . S
C2601 C21 0.786 . S
C2625 C54 0.838 . S
C2633 N266 0.734 . S
C2657 C87 0.731 . S
C2665 N827 0.761 . S
C2689 N332 0.797 . S
C2697 C120 0.712 . S
C2721 N959 0.708 . S
C2729 C153 0.788 . S
C2753 C186 0.668 . S
C2761 N464 0.768 . S
C2785 N1025 0.790 . S
C2793 C219 0.717 . S
C2817 N398 0.701 . S
C2825 C252 0.791 . S
C2849 C285 0.819 . S
C2857 N629 0.735 . S
C2881 C318 0.678 . S
C2889 N2 0.770 . S
C2913 N563 0.742 . S
C2921 C351 0.765 . S
C2945 C384 0.757 . S
C2953 N68 0.754 . S
C2977 C417 0.654 . S
C2985 N695 0.773 . S
C3009 C450 0.653 . S
C3017 N200 0.773 . S
C3041 C483 0.720 . S
C3049 N761 0.762 . S
C3073 N134 0.702 . S
C3081 C516 0.787 . S
C3105 C549 0.668 . S
C3113 N365 0.772 . S
C3137 N794 0.726 . S
C3145 C582 0.765 . S
C3169 N299 0.718 . S
C3177 C615 0.783 . S
C3201 N860 0.802 . S
C3209 C648 0.711 . S
C3233 C681 0.808 . S
C3241 N431 0.736 . S
C3265 C714 0.840 . S
C3273 N992 0.730 . S
C3297 N497 0.738 . S
C3305 C747 0.770 . S
C3329 C780 0.671 . S
C3337 N926 0.767 . S
C3361 C813 0.826 . S
C3369 N101 0.737 . S
C3393 N530 0.703 . S
C3401 C846 0.786 . S
C3425 C879 0.744 . S
C3433 N35 0.751 . S
C3457 C912 0.761 . S
C3465 N596 0.748 . S
C3489 C945 0.700 . S
C3497 N167 0.766 . S
C3521 N728 0.801 . S
C3529 C978 0.713 . S
C3553 C1011 0.690 . S
C3561 N233 0.768 . S
C3585 C1044 0.656 . S
C3593 N662 0.772 . S
