# Generated by pormake.
# Topology crs, (6)-cn, num edge types: 1
# Building blocks:
#     Node 0, Type 0, BuildingBlock: MIFKUJ_clean_sbu_0, # of connection points: 6
#     Node 1, Type 0, BuildingBlock: MIFKUJ_clean_sbu_0, # of connection points: 6
#     Node 2, Type 0, BuildingBlock: MIFKUJ_clean_sbu_0, # of connection points: 6
#     Node 3, Type 0, BuildingBlock: MIFKUJ_clean_sbu_0, # of connection points: 6
#     Node 4, Type 0, BuildingBlock: MIFKUJ_clean_sbu_0, # of connection points: 6
#     Node 5, Type 0, BuildingBlock: MIFKUJ_clean_sbu_0, # of connection points: 6
#     Node 6, Type 0, BuildingBlock: MIFKUJ_clean_sbu_0, # of connection points: 6
#     Node 7, Type 0, BuildingBlock: MIFKUJ_clean_sbu_0, # of connection points: 6
#     Node 8, Type 0, BuildingBlock: MIFKUJ_clean_sbu_0, # of connection points: 6
#     Node 9, Type 0, BuildingBlock: MIFKUJ_clean_sbu_0, # of connection points: 6
#     Node 10, Type 0, BuildingBlock: MIFKUJ_clean_sbu_0, # of connection points: 6
#     Node 11, Type 0, BuildingBlock: MIFKUJ_clean_sbu_0, # of connection points: 6
#     Node 12, Type 0, BuildingBlock: MIFKUJ_clean_sbu_0, # of connection points: 6
#     Node 13, Type 0, BuildingBlock: MIFKUJ_clean_sbu_0, # of connection points: 6
#     Node 14, Type 0, BuildingBlock: MIFKUJ_clean_sbu_0, # of connection points: 6
#     Node 15, Type 0, BuildingBlock: MIFKUJ_clean_sbu_0, # of connection points: 6
#     Edge 16, Type (0, 0), BuildingBlock: AJUNOK_clean_linker_0, # of connection points: 2
#     Edge 17, Type (0, 0), BuildingBlock: AJUNOK_clean_linker_0, # of connection points: 2
#     Edge 18, Type (0, 0), BuildingBlock: AJUNOK_clean_linker_0, # of connection points: 2
#     Edge 19, Type (0, 0), BuildingBlock: AJUNOK_clean_linker_0, # of connection points: 2
#     Edge 20, Type (0, 0), BuildingBlock: AJUNOK_clean_linker_0, # of connection points: 2
#     Edge 21, Type (0, 0), BuildingBlock: AJUNOK_clean_linker_0, # of connection points: 2
#     Edge 22, Type (0, 0), BuildingBlock: AJUNOK_clean_linker_0, # of connection points: 2
#     Edge 23, Type (0, 0), BuildingBlock: AJUNOK_clean_linker_0, # of connection points: 2
#     Edge 24, Type (0, 0), BuildingBlock: AJUNOK_clean_linker_0, # of connection points: 2
#     Edge 25, Type (0, 0), BuildingBlock: AJUNOK_clean_linker_0, # of connection points: 2
#     Edge 26, Type (0, 0), BuildingBlock: AJUNOK_clean_linker_0, # of connection points: 2
#     Edge 27, Type (0, 0), BuildingBlock: AJUNOK_clean_linker_0, # of connection points: 2
#     Edge 28, Type (0, 0), BuildingBlock: AJUNOK_clean_linker_0, # of connection points: 2
#     Edge 29, Type (0, 0), BuildingBlock: AJUNOK_clean_linker_0, # of connection points: 2
#     Edge 30, Type (0, 0), BuildingBlock: AJUNOK_clean_linker_0, # of connection points: 2
#     Edge 31, Type (0, 0), BuildingBlock: AJUNOK_clean_linker_0, # of connection points: 2
#     Edge 32, Type (0, 0), BuildingBlock: AJUNOK_clean_linker_0, # of connection points: 2
#     Edge 33, Type (0, 0), BuildingBlock: AJUNOK_clean_linker_0, # of connection points: 2
#     Edge 34, Type (0, 0), BuildingBlock: AJUNOK_clean_linker_0, # of connection points: 2
#     Edge 35, Type (0, 0), BuildingBlock: AJUNOK_clean_linker_0, # of connection points: 2
#     Edge 36, Type (0, 0), BuildingBlock: AJUNOK_clean_linker_0, # of connection points: 2
#     Edge 37, Type (0, 0), BuildingBlock: AJUNOK_clean_linker_0, # of connection points: 2
#     Edge 38, Type (0, 0), BuildingBlock: AJUNOK_clean_linker_0, # of connection points: 2
#     Edge 39, Type (0, 0), BuildingBlock: AJUNOK_clean_linker_0, # of connection points: 2
#     Edge 40, Type (0, 0), BuildingBlock: AJUNOK_clean_linker_0, # of connection points: 2
#     Edge 41, Type (0, 0), BuildingBlock: AJUNOK_clean_linker_0, # of connection points: 2
#     Edge 42, Type (0, 0), BuildingBlock: AJUNOK_clean_linker_0, # of connection points: 2
#     Edge 43, Type (0, 0), BuildingBlock: AJUNOK_clean_linker_0, # of connection points: 2
#     Edge 44, Type (0, 0), BuildingBlock: AJUNOK_clean_linker_0, # of connection points: 2
#     Edge 45, Type (0, 0), BuildingBlock: AJUNOK_clean_linker_0, # of connection points: 2
#     Edge 46, Type (0, 0), BuildingBlock: AJUNOK_clean_linker_0, # of connection points: 2
#     Edge 47, Type (0, 0), BuildingBlock: AJUNOK_clean_linker_0, # of connection points: 2
#     Edge 48, Type (0, 0), BuildingBlock: AJUNOK_clean_linker_0, # of connection points: 2
#     Edge 49, Type (0, 0), BuildingBlock: AJUNOK_clean_linker_0, # of connection points: 2
#     Edge 50, Type (0, 0), BuildingBlock: AJUNOK_clean_linker_0, # of connection points: 2
#     Edge 51, Type (0, 0), BuildingBlock: AJUNOK_clean_linker_0, # of connection points: 2
#     Edge 52, Type (0, 0), BuildingBlock: AJUNOK_clean_linker_0, # of connection points: 2
#     Edge 53, Type (0, 0), BuildingBlock: AJUNOK_clean_linker_0, # of connection points: 2
#     Edge 54, Type (0, 0), BuildingBlock: AJUNOK_clean_linker_0, # of connection points: 2
#     Edge 55, Type (0, 0), BuildingBlock: AJUNOK_clean_linker_0, # of connection points: 2
#     Edge 56, Type (0, 0), BuildingBlock: AJUNOK_clean_linker_0, # of connection points: 2
#     Edge 57, Type (0, 0), BuildingBlock: AJUNOK_clean_linker_0, # of connection points: 2
#     Edge 58, Type (0, 0), BuildingBlock: AJUNOK_clean_linker_0, # of connection points: 2
#     Edge 59, Type (0, 0), BuildingBlock: AJUNOK_clean_linker_0, # of connection points: 2
#     Edge 60, Type (0, 0), BuildingBlock: AJUNOK_clean_linker_0, # of connection points: 2
#     Edge 61, Type (0, 0), BuildingBlock: AJUNOK_clean_linker_0, # of connection points: 2
#     Edge 62, Type (0, 0), BuildingBlock: AJUNOK_clean_linker_0, # of connection points: 2
#     Edge 63, Type (0, 0), BuildingBlock: AJUNOK_clean_linker_0, # of connection points: 2
# Relax obj value: 0.339
# Max RMSD: 0.301
# Mean RMSD: 0.251
data_MOF--net-crs--node1-MIFKUJ_clean_sbu_0--edge1-AJUNOK_clean_linker_0
_symmetry_space_group_name_H-M    P1
_symmetry_Int_Tables_number       1
_symmetry_cell_setting            triclinic
loop_
_symmetry_equiv_pos_as_xyz
'x, y, z'
_cell_length_a     34.010251
_cell_length_b     34.145425
_cell_length_c     34.228197
_cell_angle_alpha  90.185822
_cell_angle_beta   89.764618
_cell_angle_gamma 74.842523
loop_
_atom_site_label
_atom_site_type_symbol
_atom_site_fract_x
_atom_site_fract_y
_atom_site_fract_z
_atom_type_partial_charge
Zn0 Zn 0.97698 0.06564 0.0228 0.0
Zn1 Zn -0.00944 0.94193 0.0032 0.0
C2 C 0.93507 0.13454 0.0641 0.0
O3 O 0.9261 0.14634 0.02797 0.0
C4 C 0.03268 0.87432 0.96116 0.0
O5 O 0.03989 0.86141 0.99721 0.0
O6 O 0.01476 0.09329 0.99708 0.0
O7 O 0.00788 0.00893 0.03633 0.0
O8 O 0.03437 0.94467 0.0427 0.0
C9 C 0.04287 0.07538 0.9738 0.0
O10 O 0.04679 0.03708 0.96493 0.0
O11 O 0.95475 0.09802 0.07001 0.0
C12 C 0.92016 0.92325 0.04023 0.0
O13 O 0.90581 0.96271 0.04419 0.0
O14 O 0.9551 0.90921 0.0251 0.0
O15 O 0.95629 -0.0022 0.98719 0.0
O16 O 0.93304 0.06348 0.98463 0.0
O17 O 0.01484 0.91144 0.95576 0.0
C18 C 0.03444 0.98054 0.0523 0.0
C19 C 0.93163 0.02874 0.97244 0.0
Zn20 Zn 0.97141 0.25416 0.29638 0.0
Zn21 Zn 0.01007 0.28041 0.22752 0.0
C22 C 0.01487 0.28241 0.35689 0.0
O23 O 0.02529 0.24338 0.36455 0.0
C24 C 0.95923 0.25359 0.1738 0.0
O25 O 0.95167 0.29185 0.16346 0.0
O26 O 0.94137 0.23254 0.3373 0.0
O27 O 0.92928 0.28383 0.2592 0.0
O28 O 0.96419 0.32795 0.2461 0.0
C29 C 0.91576 0.26004 0.35587 0.0
O30 O 0.9098 0.29787 0.34455 0.0
O31 O -0.00586 0.29457 0.32636 0.0
C32 C 0.06615 0.26571 0.16578 0.0
O33 O 0.06458 0.22898 0.17557 0.0
O34 O 0.04363 0.29586 0.18425 0.0
O35 O 0.05217 0.24923 0.26507 0.0
O36 O 0.01464 0.20748 0.27625 0.0
O37 O -0.01663 0.24119 0.202 0.0
C38 C 0.92998 0.31967 0.25039 0.0
C39 C 0.04951 0.21338 0.27121 0.0
Zn40 Zn 0.7664 0.25796 0.53791 0.0
Zn41 Zn 0.71277 0.22676 0.49112 0.0
C42 C 0.83962 0.21952 0.49557 0.0
O43 O 0.85762 0.21864 0.52951 0.0
C44 C 0.64501 0.28316 0.52804 0.0
O45 O 0.63207 0.29049 0.49202 0.0
O46 O 0.8043 0.28232 0.56883 0.0
O47 O 0.72732 0.30528 0.5104 0.0
O48 O 0.73128 0.26791 0.45755 0.0
C49 C 0.79563 0.31969 0.57792 0.0
O50 O 0.75841 0.34208 0.57203 0.0
O51 O 0.8011 0.22943 0.4941 0.0
C52 C 0.67802 0.16732 0.45188 0.0
O53 O 0.71401 0.14229 0.45779 0.0
O54 O 0.67224 0.20442 0.46135 0.0
O55 O 0.75178 0.17908 0.5183 0.0
O56 O 0.74893 0.2164 0.57096 0.0
O57 O 0.67896 0.25783 0.53416 0.0
C58 C 0.72721 0.30264 0.47323 0.0
C59 C 0.75328 0.18163 0.55541 0.0
Zn60 Zn 0.76618 0.02604 0.78563 0.0
Zn61 Zn 0.72019 0.00664 0.71913 0.0
C62 C 0.71931 -0.0018 0.84432 0.0
O63 O 0.70822 0.03682 0.85394 0.0
C64 C 0.75356 0.04252 0.65489 0.0
O65 O 0.75457 0.00704 0.63935 0.0
O66 O 0.80188 0.04107 0.82669 0.0
O67 O 0.80492 0.99296 0.74523 0.0
O68 O 0.76188 0.95684 0.73352 0.0
C69 C 0.82718 0.01114 0.84242 0.0
O70 O 0.82934 0.9744 0.82937 0.0
O71 O 0.74178 0.98702 0.81447 0.0
C72 C 0.65858 0.01953 0.66593 0.0
O73 O 0.65517 0.05584 0.68068 0.0
O74 O 0.68558 0.98987 0.67949 0.0
O75 O 0.68206 0.03352 0.7613 0.0
O76 O 0.72017 0.07518 0.77078 0.0
O77 O 0.74302 0.04863 0.69063 0.0
C78 C 0.79826 0.95901 0.7367 0.0
C79 C 0.6849 0.06895 0.76909 0.0
Zn80 Zn 0.46762 0.76333 0.31997 0.0
Zn81 Zn 0.5216 0.77032 0.24503 0.0
C82 C 0.49323 0.80882 0.3819 0.0
O83 O 0.48982 0.77702 0.40177 0.0
C84 C 0.4768 0.74205 0.18557 0.0
O85 O 0.47104 0.7798 0.17405 0.0
O86 O 0.4266 0.7508 0.35651 0.0
O87 O 0.43597 0.78335 0.27216 0.0
O88 O 0.4763 0.82146 0.25699 0.0
C89 C 0.39616 0.77912 0.36721 0.0
O90 O 0.39302 0.81618 0.35477 0.0
O91 O 0.48746 0.80911 0.34515 0.0
C92 C 0.58153 0.75343 0.18557 0.0
O93 O 0.58021 0.71678 0.19593 0.0
O94 O 0.55935 0.78366 0.20409 0.0
O95 O 0.55771 0.73756 0.28723 0.0
O96 O 0.51059 0.71163 0.3126 0.0
O97 O 0.49605 0.73113 0.21711 0.0
C98 C 0.44051 0.81657 0.25927 0.0
C99 C 0.54738 0.70801 0.30303 0.0
Zn100 Zn 0.22429 0.71539 0.52136 0.0
Zn101 Zn 0.22901 0.83704 0.51096 0.0
C102 C 0.26782 0.64542 0.56093 0.0
O103 O 0.27309 0.63287 0.52448 0.0
C104 C 0.1889 0.9078 0.46469 0.0
O105 O 0.1696 0.92126 0.49735 0.0
O106 O 0.18128 0.68889 0.50391 0.0
O107 O 0.19732 0.77337 0.5378 0.0
O108 O 0.18034 0.8389 0.54703 0.0
C109 C 0.15892 0.68535 0.53281 0.0
O110 O 0.16558 0.70083 0.56655 0.0
O111 O 0.25022 0.68252 0.56753 0.0
C112 C 0.26885 0.88774 0.55516 0.0
O113 O 0.23175 0.9115 0.55838 0.0
O114 O 0.27418 0.85379 0.53789 0.0
O115 O 0.25068 0.77949 0.49265 0.0
O116 O 0.26713 0.71534 0.47935 0.0
O117 O 0.21344 0.87266 0.464 0.0
C118 C 0.17323 0.80457 0.55275 0.0
C119 C 0.27278 0.75019 0.47338 0.0
Zn120 Zn 0.26101 0.52134 0.79665 0.0
Zn121 Zn 0.2069 0.49717 0.73393 0.0
C122 C 0.21302 0.50443 0.85901 0.0
O123 O 0.21064 0.5425 0.86765 0.0
C124 C 0.25848 0.52408 0.67548 0.0
O125 O 0.27533 0.4853 0.66957 0.0
O126 O 0.30071 0.53634 0.83497 0.0
O127 O 0.29489 0.482 0.75725 0.0
O128 O 0.24874 0.44788 0.75015 0.0
C129 C 0.32319 0.50553 0.85222 0.0
O130 O 0.31977 0.46944 0.84206 0.0
O131 O 0.23306 0.48861 0.82899 0.0
C132 C 0.17566 0.45781 0.66998 0.0
O133 O 0.21435 0.44255 0.66155 0.0
O134 O 0.16589 0.48043 0.69991 0.0
O135 O 0.17481 0.52963 0.77672 0.0
O136 O 0.21556 0.56994 0.7798 0.0
O137 O 0.23081 0.53473 0.70139 0.0
C138 C 0.28576 0.44854 0.75162 0.0
C139 C 0.17967 0.56494 0.78114 0.0
Zn140 Zn 0.00565 0.52692 0.51496 0.0
Zn141 Zn 0.9621 0.45596 0.53947 0.0
C142 C 0.95426 0.59194 0.55653 0.0
O143 O 0.94782 0.6043 0.52024 0.0
C144 C 0.01159 0.39115 0.48846 0.0
O145 O 0.03465 0.38022 0.5193 0.0
O146 O 0.0393 0.56474 0.49901 0.0
O147 O 0.04601 0.47501 0.53063 0.0
O148 O 0.00852 0.45672 0.57605 0.0
C149 C 0.05844 0.57255 0.52864 0.0
O150 O 0.05688 0.55299 0.56135 0.0
O151 O 0.97559 0.55591 0.56253 0.0
C152 C 0.92968 0.3941 0.576 0.0
O153 O 0.96704 0.37111 0.57203 0.0
O154 O 0.92188 0.43103 0.56584 0.0
O155 O 0.92889 0.51007 0.52158 0.0
O156 O 0.96653 0.52111 0.47316 0.0
O157 O -0.01869 0.42216 0.4908 0.0
C158 C 0.04297 0.45984 0.56396 0.0
C159 C 0.93253 0.51744 0.48564 0.0
Zn160 Zn 0.223 0.19484 1.002 0.0
Zn161 Zn 0.23788 0.31202 1.00105 0.0
C162 C 0.27556 0.12318 0.036 0.0
O163 O 0.2893 0.11511 1.00016 0.0
C164 C 0.19385 0.38729 0.9707 0.0
O165 O 0.18631 0.39529 0.00796 0.0
O166 O 0.17483 0.17855 0.98202 0.0
O167 O 0.20367 0.25029 0.02681 0.0
O168 O 0.1954 0.31339 0.04261 0.0
C169 C 0.17786 0.14674 0.96173 0.0
O170 O 0.21418 0.12469 0.9514 0.0
O171 O 0.24841 0.15581 0.04307 0.0
C172 C 0.31762 0.30322 0.03486 0.0
O173 O 0.32073 0.2641 0.03303 0.0
O174 O 0.28502 0.32806 0.02366 0.0
O175 O 0.25567 0.25672 0.9764 0.0
O176 O 0.26448 0.19417 0.95897 0.0
O177 O 0.21433 0.35206 0.96058 0.0
C178 C 0.18539 0.28051 0.04755 0.0
C179 C 0.27403 0.2274 0.95474 0.0
Zn180 Zn 0.26007 0.02759 0.27481 0.0
Zn181 Zn 0.21725 0.9948 0.21733 0.0
C182 C 0.21008 0.01196 0.3376 0.0
O183 O 0.20537 0.0509 0.34385 0.0
C184 C 0.26871 0.00877 0.15499 0.0
O185 O 0.27401 0.96979 0.14848 0.0
O186 O 0.28699 0.05333 0.31495 0.0
O187 O 0.30255 0.98787 0.24415 0.0
O188 O 0.2612 0.94819 0.23957 0.0
C189 C 0.31946 0.06479 0.31294 0.0
O190 O 0.34083 0.05945 0.28038 0.0
O191 O 0.23063 -0.00452 0.30801 0.0
C192 C 0.15685 0.00604 0.1617 0.0
O193 O 0.16126 0.04253 0.1684 0.0
O194 O 0.17962 0.97629 0.18011 0.0
O195 O 0.17884 0.03598 0.25211 0.0
O196 O 0.22167 0.07345 0.24803 0.0
O197 O 0.24658 0.02534 0.18355 0.0
C198 C 0.29734 0.95245 0.24119 0.0
C199 C 0.1854 0.07094 0.25159 0.0
Zn200 Zn 0.45238 0.23559 0.77913 0.0
Zn201 Zn 0.49199 0.25687 0.70273 0.0
C202 C 0.50169 0.26246 0.83452 0.0
O203 O 0.51096 0.22357 0.84279 0.0
C204 C 0.4565 0.22337 0.63915 0.0
O205 O 0.45359 0.25996 0.62561 0.0
O206 O 0.41737 0.21912 0.82067 0.0
O207 O 0.41159 0.26609 0.73994 0.0
O208 O 0.45072 0.30467 0.72317 0.0
C209 C 0.39327 0.24845 0.83886 0.0
O210 O 0.39385 0.28571 0.82999 0.0
O211 O 0.47746 0.27537 0.80647 0.0
C212 C 0.54721 0.29807 0.66524 0.0
O213 O 0.55924 0.30461 0.70052 0.0
O214 O 0.52043 0.2787 0.6609 0.0
O215 O 0.53472 0.22879 0.74017 0.0
O216 O 0.49946 0.18803 0.76272 0.0
O217 O 0.46882 0.21541 0.67408 0.0
C218 C 0.41563 0.30093 0.73131 0.0
C219 C 0.53367 0.19529 0.75547 0.0
Zn220 Zn 0.95176 0.74026 0.78914 0.0
Zn221 Zn 0.00531 0.7569 0.71779 0.0
C222 C -0.00038 0.76243 0.8483 0.0
O223 O 0.0041 0.72419 0.85748 0.0
C224 C 0.95364 0.71991 0.6676 0.0
O225 O 0.93165 0.75731 0.66246 0.0
O226 O 0.91433 0.72375 0.829 0.0
O227 O 0.91645 0.77572 0.74842 0.0
O228 O 0.9624 0.80693 0.73015 0.0
C229 C 0.88022 0.74869 0.83693 0.0
O230 O 0.86975 0.78323 0.818 0.0
O231 O 0.97777 0.7769 0.81911 0.0
C232 C 0.04029 0.77687 0.64524 0.0
O233 O 0.00706 0.77101 0.62969 0.0
O234 O 0.04541 0.77294 0.6819 0.0
O235 O 0.03776 0.73226 0.76349 0.0
O236 O -0.00163 0.69166 0.77386 0.0
O237 O -0.01567 0.71356 0.69009 0.0
C238 C 0.92568 0.80781 0.73749 0.0
C239 C 0.03375 0.69786 0.7735 0.0
Zn240 Zn 0.74863 0.49856 0.3238 0.0
Zn241 Zn 0.69776 0.48821 0.24414 0.0
C242 C 0.72391 0.45021 0.38516 0.0
O243 O 0.72113 0.48339 0.40573 0.0
C244 C 0.74538 0.51121 0.18445 0.0
O245 O 0.7513 0.47252 0.17608 0.0
O246 O 0.78868 0.51333 0.36018 0.0
O247 O 0.78093 0.4798 0.2755 0.0
O248 O 0.74324 0.43924 0.25966 0.0
C249 C 0.81526 0.48504 0.37651 0.0
O250 O 0.81552 0.44708 0.36977 0.0
O251 O 0.73225 0.45051 0.34884 0.0
C252 C 0.63887 0.4987 0.18358 0.0
O253 O 0.63885 0.53656 0.19063 0.0
O254 O 0.6618 0.47084 0.204 0.0
O255 O 0.65968 0.52236 0.28432 0.0
O256 O 0.70276 0.54855 0.31683 0.0
O257 O 0.72383 0.52558 0.21419 0.0
C258 C 0.77829 0.4456 0.26313 0.0
C259 C 0.66725 0.5513 0.30385 0.0
Zn260 Zn 0.73228 0.69188 0.01858 0.0
Zn261 Zn 0.73134 0.81408 0.00638 0.0
C262 C 0.77211 0.62003 0.06372 0.0
O263 O 0.78998 0.60626 0.0305 0.0
C264 C 0.69701 0.88607 0.96333 0.0
O265 O 0.68867 0.90203 0.99834 0.0
O266 O 0.68684 0.6755 0.99199 0.0
O267 O 0.70771 0.74917 0.03676 0.0
O268 O 0.68793 0.8136 0.04801 0.0
C269 C 0.68967 0.64159 0.97544 0.0
O270 O 0.72547 0.61531 0.97265 0.0
O271 O 0.74918 0.6559 0.06514 0.0
C272 C 0.80919 0.82103 0.03645 0.0
O273 O 0.8212 0.78165 0.03073 0.0
O274 O 0.77244 0.83963 0.02954 0.0
O275 O 0.75868 0.75681 0.98747 0.0
O276 O 0.77756 0.69128 0.97891 0.0
O277 O 0.71094 0.84795 0.95978 0.0
C278 C 0.68537 0.77812 0.05641 0.0
C279 C 0.78029 0.72635 0.96902 0.0
Zn280 Zn 0.4443 0.01057 0.51703 0.0
Zn281 Zn 0.50502 0.03875 0.47641 0.0
C282 C 0.38708 0.06446 0.46501 0.0
O283 O 0.36646 0.07825 0.49694 0.0
C284 C 0.57208 -0.0008 0.52573 0.0
O285 O 0.59313 0.98894 0.49335 0.0
O286 O 0.39995 0.99002 0.54152 0.0
O287 O 0.48828 0.96125 0.50047 0.0
O288 O 0.49379 0.99141 0.44515 0.0
C289 C 0.4072 0.95554 0.55787 0.0
O290 O 0.44515 0.93438 0.56217 0.0
O291 O 0.42023 0.03703 0.46759 0.0
C292 C 0.53981 0.09849 0.43933 0.0
O293 O 0.50223 0.12127 0.44139 0.0
O294 O 0.5469 0.06133 0.44879 0.0
O295 O 0.46238 0.08751 0.49976 0.0
O296 O 0.45707 0.05253 0.55221 0.0
O297 O 0.53425 0.01583 0.5242 0.0
C298 C 0.49521 0.95887 0.46389 0.0
C299 C 0.45607 0.08644 0.53651 0.0
Zn300 Zn 0.49046 0.55474 0.02139 0.0
Zn301 Zn 0.48657 0.43424 0.00858 0.0
C302 C 0.455 0.62761 0.06728 0.0
O303 O 0.43813 0.64209 0.03407 0.0
C304 C 0.53196 0.36899 0.95563 0.0
O305 O 0.55485 0.35387 0.98562 0.0
O306 O 0.53735 0.56827 0.9947 0.0
O307 O 0.51315 0.49715 0.03883 0.0
O308 O 0.53115 0.43264 0.04917 0.0
C309 C 0.53655 0.60034 0.97582 0.0
O310 O 0.50175 0.62779 0.97134 0.0
O311 O 0.47601 0.59098 0.06854 0.0
C312 C 0.4532 0.37433 0.04338 0.0
O313 O 0.4915 0.3533 0.04264 0.0
O314 O 0.44417 0.41107 0.03243 0.0
O315 O 0.46045 0.49219 0.99188 0.0
O316 O 0.44329 0.55719 0.98292 0.0
O317 O 0.50486 0.40222 0.95965 0.0
C318 C 0.53478 0.4677 0.05798 0.0
C319 C 0.43787 0.5226 0.97454 0.0
C320 C 0.95394 0.15329 0.13051 0.0
C321 C 0.93235 0.16489 0.09562 0.0
C322 C 0.9603 0.18229 0.15691 0.0
C323 C 0.94518 0.22403 0.14955 0.0
H324 H 0.96832 0.12166 0.13648 0.0
H325 H -0.02086 0.17176 0.18218 0.0
S326 S 0.8789 0.26999 0.06686 0.0
N327 N 0.8902 0.2207 0.05826 0.0
N328 N 0.90198 0.27535 0.1081 0.0
C329 C 0.92014 0.23596 0.11676 0.0
C330 C 0.91373 0.20634 0.08975 0.0
C331 C 0.8836 0.19894 0.43672 0.0
C332 C 0.86028 0.22936 0.46101 0.0
C333 C 0.90118 0.20916 0.40239 0.0
C334 C 0.89573 0.25005 0.39145 0.0
H335 H 0.88791 0.16727 0.44409 0.0
H336 H 0.91907 0.18481 0.38432 0.0
S337 S 0.83744 0.34057 0.44698 0.0
N338 N 0.83283 0.30144 0.47308 0.0
N339 N 0.86548 0.321 0.40869 0.0
C340 C 0.87235 0.28064 0.41597 0.0
C341 C 0.85473 0.27016 0.45079 0.0
C342 C 0.75072 0.11624 0.64511 0.0
C343 C 0.7581 0.07669 0.62963 0.0
C344 C 0.75033 0.14965 0.6211 0.0
C345 C 0.75713 0.14511 0.58046 0.0
H346 H 0.74408 0.12174 0.67593 0.0
H347 H 0.74354 0.17946 0.6345 0.0
S348 S 0.78108 0.04767 0.52554 0.0
N349 N 0.77484 0.03474 0.57111 0.0
N350 N 0.77392 0.09736 0.52624 0.0
C351 C 0.76592 0.10558 0.56478 0.0
C352 C 0.76648 0.07149 0.58925 0.0
C353 C 0.9053 0.98673 0.92395 0.0
C354 C 0.90343 0.02494 0.94047 0.0
C355 C 0.88061 0.98273 0.89229 0.0
C356 C 0.85295 0.01674 0.87581 0.0
H357 H 0.92634 0.95966 0.93521 0.0
H358 H 0.88346 0.95259 0.88059 0.0
S359 S 0.83504 0.12354 0.90923 0.0
N360 N 0.87068 0.0975 0.93859 0.0
N361 N 0.82445 0.08984 0.8792 0.0
C362 C 0.85034 0.05508 0.89239 0.0
C363 C 0.87548 0.05919 0.92466 0.0
C364 C 0.09249 0.95521 0.09847 0.0
C365 C 0.06514 0.98816 0.08012 0.0
C366 C 0.12198 0.96116 0.12474 0.0
C367 C 0.12551 0.00033 0.13368 0.0
H368 H 0.09116 0.92439 0.0926 0.0
H369 H 0.14219 0.93478 0.13806 0.0
S370 S 0.06146 0.09707 0.0934 0.0
N371 N 0.04367 0.06145 0.07293 0.0
N372 N 0.09894 0.07281 0.12183 0.0
C373 C 0.0984 0.03361 0.11546 0.0
C374 C 0.06829 0.02749 0.08886 0.0
C375 C -0.00882 0.37689 0.42061 0.0
C376 C 0.01732 0.36512 0.45278 0.0
C377 C -0.00769 0.35091 0.38855 0.0
C378 C 0.01941 0.31192 0.38741 0.0
H379 H 0.9686 0.40591 0.42065 0.0
H380 H 0.97031 0.36078 0.36543 0.0
S381 S 0.09777 0.26818 0.46155 0.0
N382 N 0.07393 0.3131 0.47945 0.0
N383 N 0.07566 0.26429 0.41939 0.0
C384 C 0.04724 0.30061 0.41825 0.0
C385 C 0.04632 0.32718 0.45083 0.0
C386 C 0.63539 0.29846 0.59896 0.0
C387 C 0.61812 0.29791 0.56171 0.0
C388 C 0.61143 0.30249 0.63279 0.0
C389 C 0.56956 0.30555 0.63035 0.0
H390 H 0.66805 0.29332 0.60211 0.0
H391 H 0.62637 0.29992 0.66091 0.0
S392 S 0.50858 0.31241 0.53976 0.0
N393 N 0.55586 0.30613 0.52426 0.0
N394 N 0.51078 0.31352 0.58791 0.0
C395 C 0.55134 0.30884 0.59324 0.0
C396 C 0.57567 0.30511 0.55881 0.0
C397 C 0.67762 0.97755 0.89687 0.0
C398 C 0.71141 0.96757 0.87142 0.0
C399 C 0.67218 0.95038 0.92579 0.0
C400 C 0.70033 0.91239 0.93011 0.0
H401 H 0.65567 0.00686 0.89491 0.0
H402 H 0.64624 0.95943 0.94536 0.0
S403 S 0.79628 0.87375 0.87378 0.0
N404 N 0.77445 0.91792 0.85379 0.0
N405 N 0.76476 0.86748 0.90857 0.0
C406 C 0.73424 0.90208 0.90487 0.0
C407 C 0.73962 0.92952 0.87534 0.0
C408 C 0.14771 0.2399 0.08661 0.0
C409 C 0.15383 0.27782 0.0768 0.0
C410 C 0.11903 0.23652 0.11506 0.0
C411 C 0.09505 0.27093 0.13477 0.0
H412 H 0.16558 0.21245 0.0726 0.0
H413 H 0.11597 0.20648 0.12179 0.0
S414 S 0.09774 0.37761 0.11845 0.0
N415 N 0.13242 0.35083 0.08814 0.0
N416 N 0.07854 0.34437 0.14142 0.0
C417 C 0.10028 0.30914 0.1247 0.0
C418 C 0.12963 0.3126 0.09581 0.0
C419 C 0.7079 0.41369 0.44423 0.0
C420 C 0.7222 0.41197 0.40539 0.0
C421 C 0.70902 0.37832 0.46551 0.0
C422 C 0.72432 0.3395 0.44894 0.0
H423 H 0.69618 0.44269 0.45868 0.0
H424 H 0.69802 0.38152 0.49541 0.0
S425 S 0.76747 0.31772 0.34891 0.0
N426 N 0.75331 0.36774 0.35157 0.0
N427 N 0.75516 0.30142 0.39144 0.0
C428 C 0.73841 0.33718 0.40999 0.0
C429 C 0.73742 0.3733 0.3883 0.0
C430 C 0.62403 0.9718 0.57666 0.0
C431 C 0.59298 0.00375 0.56208 0.0
C432 C 0.64435 0.97675 0.6111 0.0
C433 C 0.63468 0.01407 0.63146 0.0
H434 H 0.6325 0.9429 0.56148 0.0
H435 H 0.66833 0.95138 0.62134 0.0
S436 S 0.55728 0.10793 0.6029 0.0
N437 N 0.55445 0.07428 0.56905 0.0
N438 N 0.59254 0.08376 0.63356 0.0
C439 C 0.60373 0.04631 0.61676 0.0
C440 C 0.58292 0.04111 0.58204 0.0
C441 C 0.01379 0.8587 0.89374 0.0
C442 C 0.03367 0.84497 0.92904 0.0
C443 C 0.00496 0.8315 0.86671 0.0
C444 C 0.01578 0.7895 0.87384 0.0
H445 H 0.00258 0.89085 0.88788 0.0
H446 H -0.01236 0.84382 0.84102 0.0
S447 S 0.07626 0.73749 0.95766 0.0
N448 N 0.06975 0.78629 0.96669 0.0
N449 N 0.05327 0.73503 0.9157 0.0
C450 C 0.03917 0.77509 0.90714 0.0
C451 C 0.04815 0.80288 0.93476 0.0
C452 C 0.11361 0.07218 0.95135 0.0
C453 C 0.07479 0.09554 0.96286 0.0
C454 C 0.14649 0.0896 0.94834 0.0
C455 C 0.14163 0.13097 0.95674 0.0
H456 H 0.11932 0.03975 0.94687 0.0
H457 H 0.17632 0.06994 0.94166 0.0
S458 S 0.04438 0.20676 0.98062 0.0
N459 N 0.03205 0.16325 0.97715 0.0
N460 N 0.09374 0.19598 0.97146 0.0
C461 C 0.1022 0.15531 0.96494 0.0
C462 C 0.0688 0.13759 0.96802 0.0
C463 C 0.64767 0.62694 0.31101 0.0
C464 C 0.63577 0.59051 0.30735 0.0
C465 C 0.61896 0.66485 0.31006 0.0
C466 C 0.57717 0.6678 0.30632 0.0
H467 H 0.67959 0.62629 0.31323 0.0
H468 H 0.62962 0.69205 0.312 0.0
S469 S 0.52992 0.58158 0.2972 0.0
N470 N 0.57919 0.55988 0.30064 0.0
N471 N 0.52517 0.63088 0.29968 0.0
C472 C 0.56473 0.63157 0.30376 0.0
C473 C 0.59402 0.59304 0.30405 0.0
C474 C 0.2994 0.94562 0.56728 0.0
C475 C 0.30451 0.90351 0.56393 0.0
C476 C 0.33303 0.96209 0.56762 0.0
C477 C 0.37305 0.93707 0.56518 0.0
H478 H 0.26923 0.96632 0.56731 0.0
H479 H 0.32752 0.99481 0.56817 0.0
S480 S 0.40305 0.82446 0.56156 0.0
N481 N 0.35277 0.83684 0.5623 0.0
N482 N 0.41597 0.86778 0.5633 0.0
C483 C 0.37869 0.89475 0.56491 0.0
C484 C 0.3444 0.87798 0.56417 0.0
C485 C 0.06879 0.6242 0.77811 0.0
C486 C 0.07074 0.66465 0.78038 0.0
C487 C 0.10415 0.5923 0.77973 0.0
C488 C 0.14294 0.59954 0.78371 0.0
H489 H 0.03993 0.61703 0.77358 0.0
H490 H 0.10094 0.56171 0.77663 0.0
S491 S 0.16394 0.70005 0.79638 0.0
N492 N 0.11409 0.71035 0.79093 0.0
N493 N 0.18067 0.65018 0.79364 0.0
C494 C 0.14513 0.6398 0.78813 0.0
C495 C 0.10902 0.67238 0.78656 0.0
C496 C 0.86991 0.31525 0.5843 0.0
C497 C 0.82921 0.33891 0.58604 0.0
C498 C 0.90246 0.33327 0.5837 0.0
C499 C 0.89567 0.37569 0.58478 0.0
H500 H 0.8768 0.28257 0.58126 0.0
H501 H 0.93299 0.31376 0.58018 0.0
S502 S 0.79542 0.451 0.59668 0.0
N503 N 0.78433 0.4068 0.59424 0.0
N504 N 0.84549 0.44067 0.59311 0.0
C505 C 0.85538 0.39955 0.58984 0.0
C506 C 0.82218 0.38117 0.5905 0.0
C507 C 0.37286 0.92261 0.24233 0.0
C508 C 0.33331 0.91678 0.2424 0.0
C509 C 0.40745 0.88997 0.24651 0.0
C510 C 0.40392 0.85015 0.25111 0.0
H511 H 0.37727 0.95279 0.23975 0.0
H512 H 0.43706 0.89623 0.24721 0.0
S513 S 0.30756 0.81794 0.25052 0.0
N514 N 0.29289 0.86766 0.2454 0.0
N515 N 0.3577 0.80634 0.25314 0.0
C516 C 0.36463 0.84366 0.24987 0.0
C517 C 0.32942 0.87692 0.24553 0.0
C518 C 0.35691 0.41176 0.73347 0.0
C519 C 0.31793 0.41046 0.74597 0.0
C520 C 0.38787 0.37608 0.72795 0.0
C521 C 0.3812 0.33767 0.73506 0.0
H522 H 0.36357 0.44054 0.72768 0.0
H523 H 0.41745 0.37881 0.71843 0.0
S524 S 0.28459 0.31796 0.7697 0.0
N525 N 0.2743 0.3678 0.76616 0.0
N526 N 0.33256 0.30068 0.75584 0.0
C527 C 0.34226 0.33596 0.7476 0.0
C528 C 0.31064 0.37235 0.75306 0.0
C529 C 0.13524 0.80841 0.61543 0.0
C530 C 0.1375 0.80091 0.5751 0.0
C531 C 0.10333 0.80103 0.63781 0.0
C532 C 0.07233 0.78647 0.62044 0.0
H533 H 0.15894 0.81883 0.62992 0.0
H534 H 0.10321 0.80644 0.66901 0.0
S535 S 0.06387 0.76461 0.51487 0.0
N536 N 0.10597 0.77993 0.51811 0.0
N537 N 0.04553 0.76645 0.55978 0.0
C538 C 0.07376 0.78022 0.57971 0.0
C539 C 0.10651 0.78734 0.55712 0.0
C540 C 0.21152 0.94374 0.3646 0.0
C541 C 0.19784 0.98625 0.36774 0.0
C542 C 0.20651 0.91861 0.39539 0.0
C543 C 0.18737 0.93487 0.43058 0.0
H544 H 0.22797 0.92962 0.33886 0.0
H545 H 0.21917 0.88619 0.39202 0.0
S546 S 0.14095 0.04401 0.45161 0.0
N547 N 0.1605 0.04338 0.40732 0.0
N548 N 0.15095 -0.00391 0.46521 0.0
C549 C 0.17098 0.97717 0.43311 0.0
C550 C 0.17626 0.00286 0.40172 0.0
C551 C 0.97047 0.64613 0.64942 0.0
C552 C 0.94704 0.68617 0.64301 0.0
C553 C 0.97011 0.61481 0.62289 0.0
C554 C 0.94654 0.62236 0.58868 0.0
H555 H -0.00919 0.63917 0.67419 0.0
H556 H -0.00947 0.58515 0.62803 0.0
S557 S 0.87421 0.72 0.56165 0.0
N558 N 0.89529 0.73019 0.60248 0.0
N559 N 0.89493 0.67146 0.55262 0.0
C560 C 0.92045 0.6614 0.58358 0.0
C561 C 0.9206 0.69326 0.61072 0.0
C562 C 0.30788 0.79595 0.43875 0.0
C563 C 0.30414 0.75646 0.44566 0.0
C564 C 0.33747 0.80295 0.41312 0.0
C565 C 0.36488 0.77069 0.39371 0.0
H566 H 0.28791 0.82182 0.45333 0.0
H567 H 0.33911 0.83391 0.40893 0.0
S568 S 0.36787 0.66145 0.40126 0.0
N569 N 0.33024 0.68458 0.43057 0.0
N570 N 0.38612 0.69769 0.38269 0.0
C571 C 0.36154 0.731 0.40028 0.0
C572 C 0.33114 0.72389 0.42616 0.0
C573 C 0.27555 0.07644 0.13497 0.0
C574 C 0.28137 0.03507 0.12602 0.0
C575 C 0.27724 0.10444 0.10588 0.0
C576 C 0.2851 0.09213 0.06679 0.0
H577 H 0.26705 0.08784 0.16423 0.0
H578 H 0.26991 0.13631 0.11375 0.0
S579 S 0.31059 0.98637 0.02933 0.0
N580 N 0.30146 0.98229 0.07635 0.0
N581 N 0.30477 0.03524 0.02146 0.0
C582 C 0.29536 0.05041 0.05807 0.0
C583 C 0.29346 0.02174 0.08781 0.0
C584 C 0.84716 0.71169 0.93351 0.0
C585 C 0.80541 0.73156 0.93515 0.0
C586 C 0.87115 0.71651 0.90118 0.0
C587 C 0.854 0.74095 0.86927 0.0
H588 H 0.86148 0.69295 0.95765 0.0
H589 H 0.90347 0.70171 0.90161 0.0
S590 S 0.74439 0.79292 0.85669 0.0
N591 N 0.74702 0.77272 0.90069 0.0
N592 N 0.79154 0.78098 0.83958 0.0
C593 C 0.8118 0.75932 0.86997 0.0
C594 C 0.78764 0.75484 0.90302 0.0
C595 C 0.24752 0.59644 0.6552 0.0
C596 C 0.26737 0.55517 0.64908 0.0
C597 C 0.2502 0.62597 0.62776 0.0
C598 C 0.27269 0.61543 0.59295 0.0
H599 H 0.22828 0.60597 0.68064 0.0
H600 H 0.23259 0.65691 0.63298 0.0
S601 S 0.33572 0.51285 0.56569 0.0
N602 N 0.31441 0.50616 0.6077 0.0
N603 N 0.31918 0.56173 0.55605 0.0
C604 C 0.29507 0.57483 0.58775 0.0
C605 C 0.29251 0.5447 0.61583 0.0
C606 C 0.37871 0.06519 0.35522 0.0
C607 C 0.33639 0.07575 0.34971 0.0
C608 C 0.39506 0.06475 0.39271 0.0
C609 C 0.36965 0.07514 0.42583 0.0
H610 H 0.39926 0.05413 0.331 0.0
H611 H 0.42779 0.05383 0.39594 0.0
S612 S 0.25701 0.11318 0.42556 0.0
N613 N 0.26959 0.10306 0.37929 0.0
N614 N 0.30036 0.10224 0.44982 0.0
C615 C 0.3275 0.08995 0.42013 0.0
C616 C 0.31085 0.0902 0.38198 0.0
C617 C 0.82461 0.88718 0.05082 0.0
C618 C 0.83883 0.84501 0.04458 0.0
C619 C 0.85142 0.91203 0.05187 0.0
C620 C 0.89353 0.89574 0.04658 0.0
H621 H 0.79228 0.90152 0.05328 0.0
H622 H 0.83869 0.94448 0.05486 0.0
S623 S 0.94707 0.78649 0.03507 0.0
N624 N 0.89833 0.7875 0.0374 0.0
N625 N 0.94879 0.83415 0.03948 0.0
C626 C 0.9085 0.85326 0.04322 0.0
C627 C 0.88115 0.82791 0.04221 0.0
C628 C 0.64815 0.109 0.43815 0.0
C629 C 0.64282 0.15119 0.44128 0.0
C630 C 0.61472 0.09235 0.43499 0.0
C631 C 0.57449 0.11716 0.4347 0.0
H632 H 0.67827 0.08836 0.44 0.0
H633 H 0.62053 0.05961 0.43456 0.0
S634 S 0.54407 0.22992 0.43689 0.0
N635 N 0.59421 0.2177 0.43988 0.0
N636 N 0.53153 0.18648 0.43382 0.0
C637 C 0.56884 0.15955 0.43498 0.0
C638 C 0.60293 0.17653 0.43832 0.0
C639 C 0.85415 0.4226 0.25809 0.0
C640 C 0.81621 0.4132 0.25603 0.0
C641 C 0.89085 0.39245 0.25452 0.0
C642 C 0.89111 0.35164 0.249 0.0
H643 H 0.8557 0.45347 0.26332 0.0
H644 H 0.91916 0.40107 0.25754 0.0
S645 S 0.80031 0.31128 0.23774 0.0
N646 N 0.78131 0.36037 0.2453 0.0
N647 N 0.85026 0.30363 0.23859 0.0
C648 C 0.85345 0.34196 0.24525 0.0
C649 C 0.81603 0.37273 0.24874 0.0
C650 C 0.10248 0.61057 0.49498 0.0
C651 C 0.08011 0.60464 0.52799 0.0
C652 C 0.12686 0.63799 0.49612 0.0
C653 C 0.1292 0.6606 0.53017 0.0
H654 H 0.10252 0.5927 0.46877 0.0
H655 H 0.14499 0.64044 0.4706 0.0
S656 S 0.07066 0.66061 0.62213 0.0
N657 N 0.05805 0.62656 0.59397 0.0
N658 N 0.10304 0.67838 0.5961 0.0
C659 C 0.10472 0.6567 0.56244 0.0
C660 C 0.08039 0.6286 0.56136 0.0
C661 C 0.60908 0.09347 0.77267 0.0
C662 C 0.64714 0.10257 0.77045 0.0
C663 C 0.57253 0.12377 0.76918 0.0
C664 C 0.57251 0.16443 0.76307 0.0
H665 H 0.6074 0.06242 0.77616 0.0
H666 H 0.54416 0.11496 0.76999 0.0
S667 S 0.6638 0.20501 0.7586 0.0
N668 N 0.68245 0.15568 0.7644 0.0
N669 N 0.61383 0.21277 0.75792 0.0
C670 C 0.6103 0.17429 0.76251 0.0
C671 C 0.64757 0.14337 0.76625 0.0
C672 C 0.74144 0.58085 0.15954 0.0
C673 C 0.75827 0.53869 0.15658 0.0
C674 C 0.74811 0.60712 0.13042 0.0
C675 C 0.77191 0.59235 0.09708 0.0
H676 H 0.72139 0.59367 0.18363 0.0
H677 H 0.73297 0.6391 0.13342 0.0
S678 S 0.82821 0.48509 0.07848 0.0
N679 N 0.80377 0.48382 0.12003 0.0
N680 N 0.81624 0.53318 0.06521 0.0
C681 C 0.79129 0.55057 0.09513 0.0
C682 C 0.78445 0.52376 0.12485 0.0
C683 C 0.8837 0.47882 0.46418 0.0
C684 C 0.90195 0.51081 0.45789 0.0
C685 C 0.85598 0.47045 0.43737 0.0
C686 C 0.84467 0.49454 0.40401 0.0
H687 H 0.89157 0.45951 0.48955 0.0
H688 H 0.84296 0.44525 0.44307 0.0
S689 S 0.88336 0.58208 0.37455 0.0
N690 N 0.9072 0.56636 0.41585 0.0
N691 N 0.85363 0.55172 0.36609 0.0
C692 C 0.86221 0.52697 0.39766 0.0
C693 C 0.8913 0.53479 0.42444 0.0
C694 C 0.10333 0.45821 0.65688 0.0
C695 C 0.14347 0.45249 0.64303 0.0
C696 C 0.07128 0.45799 0.63134 0.0
C697 C 0.07806 0.45278 0.59086 0.0
H698 H 0.09639 0.46388 0.68764 0.0
H699 H 0.04071 0.46399 0.64323 0.0
S700 S 0.17788 0.43375 0.53998 0.0
N701 N 0.18858 0.43885 0.58642 0.0
N702 N 0.12824 0.43911 0.53837 0.0
C703 C 0.11827 0.44537 0.5768 0.0
C704 C 0.15101 0.44501 0.60289 0.0
C705 C 0.61559 0.79703 0.14575 0.0
C706 C 0.60753 0.75918 0.15214 0.0
C707 C 0.64032 0.80293 0.11451 0.0
C708 C 0.65795 0.77125 0.08826 0.0
H709 H 0.60308 0.8223 0.16528 0.0
H710 H 0.64604 0.8325 0.11127 0.0
S711 S 0.64344 0.66713 0.09001 0.0
N712 N 0.61745 0.69002 0.12818 0.0
N713 N 0.66341 0.70128 0.06966 0.0
C714 C 0.64935 0.73352 0.09385 0.0
C715 C 0.62432 0.72743 0.12569 0.0
C716 C 0.59142 0.52078 0.12735 0.0
C717 C 0.6132 0.48928 0.15156 0.0
C718 C 0.56682 0.51334 0.09694 0.0
C719 C 0.56269 0.47408 0.08936 0.0
H720 H 0.59329 0.55166 0.1318 0.0
H721 H 0.5508 0.53875 0.07934 0.0
S722 S 0.61362 0.38066 0.1437 0.0
N723 N 0.6294 0.41699 0.16541 0.0
N724 N 0.58303 0.40303 0.10842 0.0
C725 C 0.58458 0.44214 0.11306 0.0
C726 C 0.60979 0.44972 0.14407 0.0
C727 C 0.37975 0.37822 0.05243 0.0
C728 C 0.42009 0.3542 0.04932 0.0
C729 C 0.3469 0.36096 0.05017 0.0
C730 C 0.35298 0.31894 0.04464 0.0
H731 H 0.37331 0.41094 0.05484 0.0
H732 H 0.31644 0.38108 0.05106 0.0
S733 S 0.45271 0.24194 0.03993 0.0
N734 N 0.46449 0.28565 0.04455 0.0
N735 N 0.40246 0.25314 0.04018 0.0
C736 C 0.39314 0.29412 0.04448 0.0
C737 C 0.42678 0.31178 0.04685 0.0
C738 C 0.08186 0.1393 0.27755 0.0
C739 C 0.08562 0.17825 0.26804 0.0
C740 C 0.11425 0.10483 0.27207 0.0
C741 C 0.15177 0.10792 0.25698 0.0
H742 H 0.05347 0.1352 0.28901 0.0
H743 H 0.10979 0.07555 0.27984 0.0
S744 S 0.17745 0.20268 0.22666 0.0
N745 N 0.13001 0.21784 0.24258 0.0
N746 N 0.19091 0.15294 0.23206 0.0
C747 C 0.1562 0.14667 0.24758 0.0
C748 C 0.12316 0.18186 0.25322 0.0
C749 C 0.19464 0.40967 0.902 0.0
C750 C 0.18739 0.42009 0.94163 0.0
C751 C 0.19982 0.4382 0.8748 0.0
C752 C 0.19788 0.47825 0.88619 0.0
H753 H 0.19897 0.3786 0.89224 0.0
H754 H 0.20776 0.42803 0.84508 0.0
S755 S 0.1705 0.52311 0.98469 0.0
N756 N 0.17167 0.47475 0.98974 0.0
N757 N 0.18137 0.52868 0.93832 0.0
C758 C 0.18612 0.49025 0.92477 0.0
C759 C 0.18082 0.46105 0.95262 0.0
C760 C 0.31187 0.26987 0.91838 0.0
C761 C 0.30518 0.2316 0.92558 0.0
C762 C 0.34056 0.27479 0.89056 0.0
C763 C 0.36407 0.2416 0.8689 0.0
H764 H 0.29458 0.29644 0.93411 0.0
H765 H 0.34418 0.30503 0.88601 0.0
S766 S 0.35934 0.13456 0.87754 0.0
N767 N 0.3252 0.15958 0.90929 0.0
N768 N 0.37917 0.16886 0.85724 0.0
C769 C 0.35814 0.20302 0.8762 0.0
C770 C 0.32873 0.19802 0.90442 0.0
C771 C 0.38729 0.55129 0.92155 0.0
C772 C 0.40781 0.51789 0.94433 0.0
C773 C 0.35993 0.54725 0.89199 0.0
C774 C 0.35198 0.50959 0.88386 0.0
H775 H 0.39265 0.58084 0.92628 0.0
H776 H 0.34518 0.57382 0.87519 0.0
S777 S 0.39594 0.41296 0.93652 0.0
N778 N 0.41673 0.44618 0.95748 0.0
N779 N 0.36592 0.43842 0.90232 0.0
C780 C 0.37187 0.47605 0.90681 0.0
C781 C 0.39957 0.48024 0.93688 0.0
C782 C 0.61464 0.66025 0.96472 0.0
C783 C 0.65173 0.62993 0.96648 0.0
C784 C 0.57724 0.65033 0.96454 0.0
C785 C 0.57557 0.60972 0.96652 0.0
H786 H 0.61436 0.69205 0.96547 0.0
H787 H 0.54956 0.67479 0.96549 0.0
S788 S 0.66382 0.51873 0.96521 0.0
N789 N 0.68443 0.55745 0.96529 0.0
N790 N 0.61408 0.53879 0.96515 0.0
C791 C 0.61239 0.57902 0.96503 0.0
C792 C 0.65052 0.58912 0.96491 0.0
C793 C 0.85281 0.84703 0.73309 0.0
C794 C 0.89408 0.84678 0.73511 0.0
C795 C 0.82229 0.88353 0.73259 0.0
C796 C 0.83175 0.92132 0.73454 0.0
H797 H 0.84392 0.8188 0.73207 0.0
H798 H 0.79093 0.88193 0.73143 0.0
S799 S 0.93533 0.93733 0.74043 0.0
N800 N 0.94303 0.88758 0.73897 0.0
N801 N 0.8855 0.95617 0.73829 0.0
C802 C 0.87295 0.92155 0.73624 0.0
C803 C 0.90412 0.88432 0.73644 0.0
C804 C 0.45066 0.15241 0.62746 0.0
C805 C 0.45151 0.19046 0.61239 0.0
C806 C 0.45046 0.11961 0.60266 0.0
C807 C 0.45153 0.1232 0.56163 0.0
H808 H 0.45115 0.14754 0.65873 0.0
H809 H 0.45087 0.09078 0.61598 0.0
S810 S 0.45133 0.21709 0.50708 0.0
N811 N 0.45126 0.23038 0.55347 0.0
N812 N 0.45105 0.16884 0.50715 0.0
C813 C 0.45085 0.1615 0.54614 0.0
C814 C 0.45079 0.19504 0.57139 0.0
C815 C 0.54071 0.27588 0.89254 0.0
C816 C 0.51479 0.2911 0.86101 0.0
C817 C 0.54857 0.30167 0.9217 0.0
C818 C 0.53072 0.34373 0.92054 0.0
H819 H 0.55373 0.24354 0.89576 0.0
H820 H 0.56695 0.28815 0.94637 0.0
S821 S 0.46568 0.39974 0.84108 0.0
N822 N 0.47506 0.35159 0.82806 0.0
N823 N 0.49001 0.40005 0.88266 0.0
C824 C 0.50727 0.35972 0.88762 0.0
C825 C 0.49926 0.33343 0.85791 0.0
C826 C 0.49464 0.88232 0.38242 0.0
C827 C 0.49852 0.84565 0.40271 0.0
C828 C 0.49518 0.91842 0.40214 0.0
C829 C 0.49952 0.91946 0.44304 0.0
H830 H 0.4899 0.88356 0.35112 0.0
H831 H 0.49077 0.94599 0.38525 0.0
S832 S 0.51483 0.83102 0.5096 0.0
N833 N 0.50986 0.81227 0.46597 0.0
N834 N 0.51087 0.8797 0.50275 0.0
C835 C 0.50517 0.88265 0.46346 0.0
C836 C 0.50468 0.84593 0.44342 0.0
C837 C 0.43819 0.69725 0.09669 0.0
C838 C 0.45548 0.65528 0.1008 0.0
C839 C 0.4436 0.72487 0.12521 0.0
C840 C 0.46638 0.71173 0.15915 0.0
H841 H 0.42167 0.70919 0.07048 0.0
H842 H 0.43091 0.75694 0.11986 0.0
S843 S 0.51432 0.60464 0.18629 0.0
N844 N 0.49347 0.60161 0.14331 0.0
N845 N 0.50359 0.6535 0.19683 0.0
C846 C 0.48179 0.66966 0.16485 0.0
C847 C 0.47636 0.64148 0.13571 0.0
loop_
_geom_bond_atom_site_label_1
_geom_bond_atom_site_label_2
_geom_bond_distance
_geom_bond_site_symmetry_2
_ccdc_geom_bond_type
Zn0 O6 1.969 1_554 S
Zn0 O7 1.965 . S
Zn0 O11 2.024 1_455 S
Zn0 O16 1.969 1_454 S
Zn1 O8 1.969 1_656 S
Zn1 O14 1.969 1_556 S
Zn1 O15 1.965 1_565 S
Zn1 O17 2.024 1_655 S
C2 O3 1.229 . S
C2 O11 1.058 . S
O3 C2 1.229 . S
C4 O5 1.229 . S
C4 O17 1.058 . S
O5 C4 1.229 . S
O6 Zn0 1.969 1_556 S
O6 C9 1.267 . S
O7 Zn0 1.965 . S
O7 C18 1.260 1_545 S
O8 Zn1 1.969 1_454 S
O8 C18 1.258 . S
C9 O6 1.267 . S
C9 O10 1.228 1_556 S
O10 C9 1.228 1_554 S
O11 Zn0 2.024 1_655 S
O11 C2 1.058 . S
C12 O13 1.228 1_554 S
C12 O14 1.267 . S
O13 C12 1.228 1_556 S
O14 Zn1 1.969 1_554 S
O14 C12 1.267 . S
O15 Zn1 1.965 1_545 S
O15 C19 1.260 . S
O16 Zn0 1.969 1_656 S
O16 C19 1.258 . S
O17 Zn1 2.024 1_455 S
O17 C4 1.058 . S
C18 O7 1.260 1_565 S
C18 O8 1.258 . S
C19 O15 1.260 . S
C19 O16 1.258 . S
Zn20 O26 1.969 1_455 S
Zn20 O27 1.965 1_455 S
Zn20 O31 2.024 . S
Zn20 O36 1.969 . S
Zn21 O28 1.969 1_455 S
Zn21 O34 1.969 . S
Zn21 O35 1.965 . S
Zn21 O37 2.024 . S
C22 O23 1.229 . S
C22 O31 1.058 . S
O23 C22 1.229 . S
C24 O25 1.229 . S
C24 O37 1.058 . S
O25 C24 1.229 . S
O26 Zn20 1.969 1_655 S
O26 C29 1.267 . S
O27 Zn20 1.965 1_655 S
O27 C38 1.260 . S
O28 Zn21 1.969 1_655 S
O28 C38 1.258 . S
C29 O26 1.267 . S
C29 O30 1.228 . S
O30 C29 1.228 . S
O31 Zn20 2.024 . S
O31 C22 1.058 . S
C32 O33 1.228 . S
C32 O34 1.267 . S
O33 C32 1.228 . S
O34 Zn21 1.969 . S
O34 C32 1.267 . S
O35 Zn21 1.965 . S
O35 C39 1.260 . S
O36 Zn20 1.969 . S
O36 C39 1.258 . S
O37 Zn21 2.024 . S
O37 C24 1.058 . S
C38 O27 1.260 . S
C38 O28 1.258 . S
C39 O35 1.260 . S
C39 O36 1.258 . S
Zn40 O46 1.969 . S
Zn40 O47 1.965 . S
Zn40 O51 2.024 . S
Zn40 O56 1.969 . S
Zn41 O48 1.969 . S
Zn41 O54 1.969 . S
Zn41 O55 1.965 . S
Zn41 O57 2.024 . S
C42 O43 1.229 . S
C42 O51 1.058 . S
O43 C42 1.229 . S
C44 O45 1.229 . S
C44 O57 1.058 . S
O45 C44 1.229 . S
O46 Zn40 1.969 . S
O46 C49 1.267 . S
O47 Zn40 1.965 . S
O47 C58 1.260 . S
O48 Zn41 1.969 . S
O48 C58 1.258 . S
C49 O46 1.267 . S
C49 O50 1.228 . S
O50 C49 1.228 . S
O51 Zn40 2.024 . S
O51 C42 1.058 . S
C52 O53 1.228 . S
C52 O54 1.267 . S
O53 C52 1.228 . S
O54 Zn41 1.969 . S
O54 C52 1.267 . S
O55 Zn41 1.965 . S
O55 C59 1.260 . S
O56 Zn40 1.969 . S
O56 C59 1.258 . S
O57 Zn41 2.024 . S
O57 C44 1.058 . S
C58 O47 1.260 . S
C58 O48 1.258 . S
C59 O55 1.260 . S
C59 O56 1.258 . S
Zn60 O66 1.969 . S
Zn60 O67 1.965 . S
Zn60 O71 2.024 1_545 S
Zn60 O76 1.969 . S
Zn61 O68 1.969 . S
Zn61 O74 1.969 . S
Zn61 O75 1.965 . S
Zn61 O77 2.024 . S
C62 O63 1.229 1_565 S
C62 O71 1.058 . S
O63 C62 1.229 1_545 S
C64 O65 1.229 . S
C64 O77 1.058 . S
O65 C64 1.229 . S
O66 Zn60 1.969 . S
O66 C69 1.267 . S
O67 Zn60 1.965 . S
O67 C78 1.260 1_545 S
O68 Zn61 1.969 . S
O68 C78 1.258 1_545 S
C69 O66 1.267 . S
C69 O70 1.228 1_545 S
O70 C69 1.228 1_565 S
O71 Zn60 2.024 1_565 S
O71 C62 1.058 . S
C72 O73 1.228 . S
C72 O74 1.267 . S
O73 C72 1.228 . S
O74 Zn61 1.969 . S
O74 C72 1.267 . S
O75 Zn61 1.965 . S
O75 C79 1.260 . S
O76 Zn60 1.969 . S
O76 C79 1.258 . S
O77 Zn61 2.024 . S
O77 C64 1.058 . S
C78 O67 1.260 1_565 S
C78 O68 1.258 1_565 S
C79 O75 1.260 . S
C79 O76 1.258 . S
Zn80 O86 1.969 . S
Zn80 O87 1.965 . S
Zn80 O91 2.024 . S
Zn80 O96 1.969 . S
Zn81 O88 1.969 . S
Zn81 O94 1.969 . S
Zn81 O95 1.965 . S
Zn81 O97 2.024 . S
C82 O83 1.229 . S
C82 O91 1.058 . S
O83 C82 1.229 . S
C84 O85 1.229 . S
C84 O97 1.058 . S
O85 C84 1.229 . S
O86 Zn80 1.969 . S
O86 C89 1.267 . S
O87 Zn80 1.965 . S
O87 C98 1.260 . S
O88 Zn81 1.969 . S
O88 C98 1.258 . S
C89 O86 1.267 . S
C89 O90 1.228 . S
O90 C89 1.228 . S
O91 Zn80 2.024 . S
O91 C82 1.058 . S
C92 O93 1.228 . S
C92 O94 1.267 . S
O93 C92 1.228 . S
O94 Zn81 1.969 . S
O94 C92 1.267 . S
O95 Zn81 1.965 . S
O95 C99 1.260 . S
O96 Zn80 1.969 . S
O96 C99 1.258 . S
O97 Zn81 2.024 . S
O97 C84 1.058 . S
C98 O87 1.260 . S
C98 O88 1.258 . S
C99 O95 1.260 . S
C99 O96 1.258 . S
Zn100 O106 1.969 . S
Zn100 O107 1.965 . S
Zn100 O111 2.024 . S
Zn100 O116 1.969 . S
Zn101 O108 1.969 . S
Zn101 O114 1.969 . S
Zn101 O115 1.965 . S
Zn101 O117 2.024 . S
C102 O103 1.229 . S
C102 O111 1.058 . S
O103 C102 1.229 . S
C104 O105 1.229 . S
C104 O117 1.058 . S
O105 C104 1.229 . S
O106 Zn100 1.969 . S
O106 C109 1.267 . S
O107 Zn100 1.965 . S
O107 C118 1.260 . S
O108 Zn101 1.969 . S
O108 C118 1.258 . S
C109 O106 1.267 . S
C109 O110 1.228 . S
O110 C109 1.228 . S
O111 Zn100 2.024 . S
O111 C102 1.058 . S
C112 O113 1.228 . S
C112 O114 1.267 . S
O113 C112 1.228 . S
O114 Zn101 1.969 . S
O114 C112 1.267 . S
O115 Zn101 1.965 . S
O115 C119 1.260 . S
O116 Zn100 1.969 . S
O116 C119 1.258 . S
O117 Zn101 2.024 . S
O117 C104 1.058 . S
C118 O107 1.260 . S
C118 O108 1.258 . S
C119 O115 1.260 . S
C119 O116 1.258 . S
Zn120 O126 1.969 . S
Zn120 O127 1.965 . S
Zn120 O131 2.024 . S
Zn120 O136 1.969 . S
Zn121 O128 1.969 . S
Zn121 O134 1.969 . S
Zn121 O135 1.965 . S
Zn121 O137 2.024 . S
C122 O123 1.229 . S
C122 O131 1.058 . S
O123 C122 1.229 . S
C124 O125 1.229 . S
C124 O137 1.058 . S
O125 C124 1.229 . S
O126 Zn120 1.969 . S
O126 C129 1.267 . S
O127 Zn120 1.965 . S
O127 C138 1.260 . S
O128 Zn121 1.969 . S
O128 C138 1.258 . S
C129 O126 1.267 . S
C129 O130 1.228 . S
O130 C129 1.228 . S
O131 Zn120 2.024 . S
O131 C122 1.058 . S
C132 O133 1.228 . S
C132 O134 1.267 . S
O133 C132 1.228 . S
O134 Zn121 1.969 . S
O134 C132 1.267 . S
O135 Zn121 1.965 . S
O135 C139 1.260 . S
O136 Zn120 1.969 . S
O136 C139 1.258 . S
O137 Zn121 2.024 . S
O137 C124 1.058 . S
C138 O127 1.260 . S
C138 O128 1.258 . S
C139 O135 1.260 . S
C139 O136 1.258 . S
Zn140 O146 1.969 . S
Zn140 O147 1.965 . S
Zn140 O151 2.024 . S
Zn140 O156 1.969 1_455 S
Zn141 O148 1.969 . S
Zn141 O154 1.969 1_455 S
Zn141 O155 1.965 1_455 S
Zn141 O157 2.024 . S
C142 O143 1.229 . S
C142 O151 1.058 1_655 S
O143 C142 1.229 . S
C144 O145 1.229 . S
C144 O157 1.058 . S
O145 C144 1.229 . S
O146 Zn140 1.969 . S
O146 C149 1.267 . S
O147 Zn140 1.965 . S
O147 C158 1.260 . S
O148 Zn141 1.969 . S
O148 C158 1.258 . S
C149 O146 1.267 . S
C149 O150 1.228 . S
O150 C149 1.228 . S
O151 Zn140 2.024 . S
O151 C142 1.058 1_455 S
C152 O153 1.228 . S
C152 O154 1.267 . S
O153 C152 1.228 . S
O154 Zn141 1.969 1_655 S
O154 C152 1.267 . S
O155 Zn141 1.965 1_655 S
O155 C159 1.260 . S
O156 Zn140 1.969 1_655 S
O156 C159 1.258 . S
O157 Zn141 2.024 . S
O157 C144 1.058 . S
C158 O147 1.260 . S
C158 O148 1.258 . S
C159 O155 1.260 . S
C159 O156 1.258 . S
Zn160 O166 1.969 1_554 S
Zn160 O167 1.965 . S
Zn160 O171 2.024 . S
Zn160 O176 1.969 1_554 S
Zn161 O168 1.969 1_556 S
Zn161 O174 1.969 1_556 S
Zn161 O175 1.965 . S
Zn161 O177 2.024 . S
C162 O163 1.229 . S
C162 O171 1.058 . S
O163 C162 1.229 . S
C164 O165 1.229 . S
C164 O177 1.058 . S
O165 C164 1.229 . S
O166 Zn160 1.969 1_556 S
O166 C169 1.267 . S
O167 Zn160 1.965 . S
O167 C178 1.260 . S
O168 Zn161 1.969 1_554 S
O168 C178 1.258 . S
C169 O166 1.267 . S
C169 O170 1.228 1_556 S
O170 C169 1.228 1_554 S
O171 Zn160 2.024 . S
O171 C162 1.058 . S
C172 O173 1.228 1_554 S
C172 O174 1.267 . S
O173 C172 1.228 1_556 S
O174 Zn161 1.969 1_554 S
O174 C172 1.267 . S
O175 Zn161 1.965 . S
O175 C179 1.260 . S
O176 Zn160 1.969 1_556 S
O176 C179 1.258 . S
O177 Zn161 2.024 . S
O177 C164 1.058 . S
C178 O167 1.260 . S
C178 O168 1.258 . S
C179 O175 1.260 . S
C179 O176 1.258 . S
Zn180 O186 1.969 1_565 S
Zn180 O187 1.965 . S
Zn180 O191 2.024 . S
Zn180 O196 1.969 1_565 S
Zn181 O188 1.969 1_545 S
Zn181 O194 1.969 1_545 S
Zn181 O195 1.965 . S
Zn181 O197 2.024 . S
C182 O183 1.229 . S
C182 O191 1.058 . S
O183 C182 1.229 . S
C184 O185 1.229 . S
C184 O197 1.058 . S
O185 C184 1.229 . S
O186 Zn180 1.969 1_545 S
O186 C189 1.272 . S
O187 Zn180 1.965 . S
O187 C198 1.260 . S
O188 Zn181 1.969 1_565 S
O188 C198 1.258 . S
C189 O186 1.272 . S
C189 O190 1.218 1_545 S
O190 C189 1.218 1_565 S
O191 Zn180 2.024 . S
O191 C182 1.058 . S
C192 O193 1.246 . S
C192 O194 1.260 1_545 S
O193 C192 1.246 . S
O194 Zn181 1.969 1_565 S
O194 C192 1.260 1_565 S
O195 Zn181 1.965 . S
O195 C199 1.260 . S
O196 Zn180 1.969 1_545 S
O196 C199 1.258 . S
O197 Zn181 2.024 . S
O197 C184 1.058 . S
C198 O187 1.260 . S
C198 O188 1.258 . S
C199 O195 1.260 . S
C199 O196 1.258 . S
Zn200 O206 1.969 . S
Zn200 O207 1.965 . S
Zn200 O211 2.024 . S
Zn200 O216 1.969 . S
Zn201 O208 1.969 . S
Zn201 O214 1.969 . S
Zn201 O215 1.965 . S
Zn201 O217 2.024 . S
C202 O203 1.229 . S
C202 O211 1.058 . S
O203 C202 1.229 . S
C204 O205 1.229 . S
C204 O217 1.058 . S
O205 C204 1.229 . S
O206 Zn200 1.969 . S
O206 C209 1.267 . S
O207 Zn200 1.965 . S
O207 C218 1.260 . S
O208 Zn201 1.969 . S
O208 C218 1.258 . S
C209 O206 1.267 . S
C209 O210 1.228 . S
O210 C209 1.228 . S
O211 Zn200 2.024 . S
O211 C202 1.058 . S
C212 O213 1.228 . S
C212 O214 1.267 . S
O213 C212 1.228 . S
O214 Zn201 1.969 . S
O214 C212 1.267 . S
O215 Zn201 1.965 . S
O215 C219 1.260 . S
O216 Zn200 1.969 . S
O216 C219 1.258 . S
O217 Zn201 2.024 . S
O217 C204 1.058 . S
C218 O207 1.260 . S
C218 O208 1.258 . S
C219 O215 1.260 . S
C219 O216 1.258 . S
Zn220 O226 1.969 . S
Zn220 O227 1.965 . S
Zn220 O231 2.024 1_655 S
Zn220 O236 1.969 1_655 S
Zn221 O228 1.969 1_455 S
Zn221 O234 1.969 . S
Zn221 O235 1.965 . S
Zn221 O237 2.024 1_455 S
C222 O223 1.229 . S
C222 O231 1.058 . S
O223 C222 1.229 . S
C224 O225 1.229 . S
C224 O237 1.058 . S
O225 C224 1.229 . S
O226 Zn220 1.969 . S
O226 C229 1.267 . S
O227 Zn220 1.965 . S
O227 C238 1.260 . S
O228 Zn221 1.969 1_655 S
O228 C238 1.258 . S
C229 O226 1.267 . S
C229 O230 1.228 . S
O230 C229 1.228 . S
O231 Zn220 2.024 1_455 S
O231 C222 1.058 . S
C232 O233 1.228 . S
C232 O234 1.267 . S
O233 C232 1.228 . S
O234 Zn221 1.969 . S
O234 C232 1.267 . S
O235 Zn221 1.965 . S
O235 C239 1.260 . S
O236 Zn220 1.969 1_455 S
O236 C239 1.258 . S
O237 Zn221 2.024 1_655 S
O237 C224 1.058 . S
C238 O227 1.260 . S
C238 O228 1.258 . S
C239 O235 1.260 . S
C239 O236 1.258 . S
Zn240 O246 1.969 . S
Zn240 O247 1.965 . S
Zn240 O251 2.024 . S
Zn240 O256 1.969 . S
Zn241 O248 1.969 . S
Zn241 O254 1.969 . S
Zn241 O255 1.965 . S
Zn241 O257 2.024 . S
C242 O243 1.229 . S
C242 O251 1.058 . S
O243 C242 1.229 . S
C244 O245 1.229 . S
C244 O257 1.058 . S
O245 C244 1.229 . S
O246 Zn240 1.969 . S
O246 C249 1.267 . S
O247 Zn240 1.965 . S
O247 C258 1.260 . S
O248 Zn241 1.969 . S
O248 C258 1.258 . S
C249 O246 1.267 . S
C249 O250 1.228 . S
O250 C249 1.228 . S
O251 Zn240 2.024 . S
O251 C242 1.058 . S
C252 O253 1.228 . S
C252 O254 1.267 . S
O253 C252 1.228 . S
O254 Zn241 1.969 . S
O254 C252 1.267 . S
O255 Zn241 1.965 . S
O255 C259 1.260 . S
O256 Zn240 1.969 . S
O256 C259 1.258 . S
O257 Zn241 2.024 . S
O257 C244 1.058 . S
C258 O247 1.260 . S
C258 O248 1.258 . S
C259 O255 1.260 . S
C259 O256 1.258 . S
Zn260 O266 1.969 1_554 S
Zn260 O267 1.965 . S
Zn260 O271 2.024 . S
Zn260 O276 1.969 1_554 S
Zn261 O268 1.969 . S
Zn261 O274 1.969 . S
Zn261 O275 1.965 1_554 S
Zn261 O277 2.024 1_554 S
C262 O263 1.229 . S
C262 O271 1.058 . S
O263 C262 1.229 . S
C264 O265 1.229 . S
C264 O277 1.058 . S
O265 C264 1.229 . S
O266 Zn260 1.969 1_556 S
O266 C269 1.267 1_556 S
O267 Zn260 1.965 . S
O267 C278 1.260 . S
O268 Zn261 1.969 . S
O268 C278 1.258 . S
C269 O266 1.267 1_554 S
C269 O270 1.228 . S
O270 C269 1.228 . S
O271 Zn260 2.024 . S
O271 C262 1.058 . S
C272 O273 1.228 1_554 S
C272 O274 1.267 . S
O273 C272 1.228 1_556 S
O274 Zn261 1.969 . S
O274 C272 1.267 . S
O275 Zn261 1.965 1_556 S
O275 C279 1.260 . S
O276 Zn260 1.969 1_556 S
O276 C279 1.258 . S
O277 Zn261 2.024 1_556 S
O277 C264 1.058 . S
C278 O267 1.260 . S
C278 O268 1.258 . S
C279 O275 1.260 . S
C279 O276 1.258 . S
Zn280 O286 1.969 1_545 S
Zn280 O287 1.965 1_545 S
Zn280 O291 2.024 . S
Zn280 O296 1.969 . S
Zn281 O288 1.969 1_545 S
Zn281 O294 1.969 . S
Zn281 O295 1.965 . S
Zn281 O297 2.024 . S
C282 O283 1.229 . S
C282 O291 1.058 . S
O283 C282 1.229 . S
C284 O285 1.229 . S
C284 O297 1.058 . S
O285 C284 1.229 . S
O286 Zn280 1.969 1_565 S
O286 C289 1.267 . S
O287 Zn280 1.965 1_565 S
O287 C298 1.260 . S
O288 Zn281 1.969 1_565 S
O288 C298 1.258 . S
C289 O286 1.267 . S
C289 O290 1.228 . S
O290 C289 1.228 . S
O291 Zn280 2.024 . S
O291 C282 1.058 . S
C292 O293 1.228 . S
C292 O294 1.267 . S
O293 C292 1.228 . S
O294 Zn281 1.969 . S
O294 C292 1.267 . S
O295 Zn281 1.965 . S
O295 C299 1.260 . S
O296 Zn280 1.969 . S
O296 C299 1.258 . S
O297 Zn281 2.024 . S
O297 C284 1.058 . S
C298 O287 1.260 . S
C298 O288 1.258 . S
C299 O295 1.260 . S
C299 O296 1.258 . S
Zn300 O306 1.969 1_554 S
Zn300 O307 1.965 . S
Zn300 O311 2.024 . S
Zn300 O316 1.969 1_554 S
Zn301 O308 1.969 . S
Zn301 O314 1.969 . S
Zn301 O315 1.965 1_554 S
Zn301 O317 2.024 1_554 S
C302 O303 1.229 . S
C302 O311 1.058 . S
O303 C302 1.229 . S
C304 O305 1.229 . S
C304 O317 1.058 . S
O305 C304 1.229 . S
O306 Zn300 1.969 1_556 S
O306 C309 1.267 1_556 S
O307 Zn300 1.965 . S
O307 C318 1.260 . S
O308 Zn301 1.969 . S
O308 C318 1.258 . S
C309 O306 1.267 1_554 S
C309 O310 1.228 . S
O310 C309 1.228 . S
O311 Zn300 2.024 . S
O311 C302 1.058 . S
C312 O313 1.228 1_554 S
C312 O314 1.267 . S
O313 C312 1.228 1_556 S
O314 Zn301 1.969 . S
O314 C312 1.267 . S
O315 Zn301 1.965 1_556 S
O315 C319 1.260 . S
O316 Zn300 1.969 1_556 S
O316 C319 1.258 . S
O317 Zn301 2.024 1_556 S
O317 C304 1.058 . S
C318 O307 1.260 . S
C318 O308 1.258 . S
C319 O315 1.260 . S
C319 O316 1.258 . S
C320 C321 1.369 1_455 S
C320 C322 1.419 . S
C320 H324 0.930 . S
C321 C320 1.369 1_655 S
C321 C330 1.429 . S
C322 C320 1.419 . S
C322 C323 1.363 1_455 S
C322 H325 0.929 . S
C323 C322 1.363 1_655 S
C323 C329 1.428 . S
H324 C320 0.930 . S
H325 C322 0.929 . S
S326 N327 1.613 . S
S326 N328 1.610 . S
N327 S326 1.613 . S
N327 C330 1.350 . S
N328 S326 1.610 . S
N328 C329 1.351 . S
C329 C323 1.428 . S
C329 N328 1.351 . S
C329 C330 1.434 . S
C330 C321 1.429 . S
C330 N327 1.350 . S
C330 C329 1.434 . S
C331 C332 1.369 . S
C331 C333 1.419 . S
C331 H335 0.930 . S
C332 C331 1.369 . S
C332 C341 1.429 . S
C333 C331 1.419 . S
C333 C334 1.363 . S
C333 H336 0.929 . S
C334 C333 1.363 . S
C334 C340 1.428 . S
H335 C331 0.930 . S
H336 C333 0.929 . S
S337 N338 1.613 . S
S337 N339 1.610 . S
N338 S337 1.613 . S
N338 C341 1.350 . S
N339 S337 1.610 . S
N339 C340 1.351 . S
C340 C334 1.428 . S
C340 N339 1.351 . S
C340 C341 1.434 . S
C341 C332 1.429 . S
C341 N338 1.350 . S
C341 C340 1.434 . S
C342 C343 1.369 . S
C342 C344 1.419 . S
C342 H346 0.930 . S
C343 C342 1.369 . S
C343 C352 1.429 . S
C344 C342 1.419 . S
C344 C345 1.363 . S
C344 H347 0.929 . S
C345 C344 1.363 . S
C345 C351 1.428 . S
H346 C342 0.930 . S
H347 C344 0.929 . S
S348 N349 1.613 . S
S348 N350 1.610 . S
N349 S348 1.613 . S
N349 C352 1.350 . S
N350 S348 1.610 . S
N350 C351 1.351 . S
C351 C345 1.428 . S
C351 N350 1.351 . S
C351 C352 1.434 . S
C352 C343 1.429 . S
C352 N349 1.350 . S
C352 C351 1.434 . S
C353 C354 1.369 . S
C353 C355 1.419 . S
C353 H357 0.930 . S
C354 C353 1.369 . S
C354 C363 1.429 . S
C355 C353 1.419 . S
C355 C356 1.363 . S
C355 H358 0.929 . S
C356 C355 1.363 . S
C356 C362 1.428 . S
H357 C353 0.930 . S
H358 C355 0.929 . S
S359 N360 1.613 . S
S359 N361 1.610 . S
N360 S359 1.613 . S
N360 C363 1.350 . S
N361 S359 1.610 . S
N361 C362 1.351 . S
C362 C356 1.428 . S
C362 N361 1.351 . S
C362 C363 1.434 . S
C363 C354 1.429 . S
C363 N360 1.350 . S
C363 C362 1.434 . S
C364 C365 1.369 . S
C364 C366 1.419 . S
C364 H368 0.930 . S
C365 C364 1.369 . S
C365 C374 1.429 1_565 S
C366 C364 1.419 . S
C366 C367 1.363 . S
C366 H369 0.929 . S
C367 C366 1.363 . S
C367 C373 1.428 1_565 S
H368 C364 0.930 . S
H369 C366 0.929 . S
S370 N371 1.613 . S
S370 N372 1.610 . S
N371 S370 1.613 . S
N371 C374 1.350 . S
N372 S370 1.610 . S
N372 C373 1.351 . S
C373 C367 1.428 1_545 S
C373 N372 1.351 . S
C373 C374 1.434 . S
C374 C365 1.429 1_545 S
C374 N371 1.350 . S
C374 C373 1.434 . S
C375 C376 1.369 . S
C375 C377 1.419 . S
C375 H379 0.930 . S
C376 C375 1.369 . S
C376 C385 1.429 . S
C377 C375 1.419 . S
C377 C378 1.363 . S
C377 H380 0.929 . S
C378 C377 1.363 . S
C378 C384 1.428 . S
H379 C375 0.930 . S
H380 C377 0.929 . S
S381 N382 1.613 . S
S381 N383 1.610 . S
N382 S381 1.613 . S
N382 C385 1.350 . S
N383 S381 1.610 . S
N383 C384 1.351 . S
C384 C378 1.428 . S
C384 N383 1.351 . S
C384 C385 1.434 . S
C385 C376 1.429 . S
C385 N382 1.350 . S
C385 C384 1.434 . S
C386 C387 1.369 . S
C386 C388 1.419 . S
C386 H390 0.930 . S
C387 C386 1.369 . S
C387 C396 1.429 . S
C388 C386 1.419 . S
C388 C389 1.363 . S
C388 H391 0.929 . S
C389 C388 1.363 . S
C389 C395 1.428 . S
H390 C386 0.930 . S
H391 C388 0.929 . S
S392 N393 1.613 . S
S392 N394 1.610 . S
N393 S392 1.613 . S
N393 C396 1.350 . S
N394 S392 1.610 . S
N394 C395 1.351 . S
C395 C389 1.428 . S
C395 N394 1.351 . S
C395 C396 1.434 . S
C396 C387 1.429 . S
C396 N393 1.350 . S
C396 C395 1.434 . S
C397 C398 1.369 . S
C397 C399 1.419 . S
C397 H401 0.930 . S
C398 C397 1.369 . S
C398 C407 1.429 . S
C399 C397 1.419 . S
C399 C400 1.363 . S
C399 H402 0.929 . S
C400 C399 1.363 . S
C400 C406 1.428 . S
H401 C397 0.930 . S
H402 C399 0.929 . S
S403 N404 1.613 . S
S403 N405 1.610 . S
N404 S403 1.613 . S
N404 C407 1.350 . S
N405 S403 1.610 . S
N405 C406 1.351 . S
C406 C400 1.428 . S
C406 N405 1.351 . S
C406 C407 1.434 . S
C407 C398 1.429 . S
C407 N404 1.350 . S
C407 C406 1.434 . S
C408 C409 1.369 . S
C408 C410 1.419 . S
C408 H412 0.930 . S
C409 C408 1.369 . S
C409 C418 1.429 . S
C410 C408 1.419 . S
C410 C411 1.363 . S
C410 H413 0.929 . S
C411 C410 1.363 . S
C411 C417 1.428 . S
H412 C408 0.930 . S
H413 C410 0.929 . S
S414 N415 1.613 . S
S414 N416 1.610 . S
N415 S414 1.613 . S
N415 C418 1.350 . S
N416 S414 1.610 . S
N416 C417 1.351 . S
C417 C411 1.428 . S
C417 N416 1.351 . S
C417 C418 1.434 . S
C418 C409 1.429 . S
C418 N415 1.350 . S
C418 C417 1.434 . S
C419 C420 1.369 . S
C419 C421 1.419 . S
C419 H423 0.930 . S
C420 C419 1.369 . S
C420 C429 1.429 . S
C421 C419 1.419 . S
C421 C422 1.363 . S
C421 H424 0.929 . S
C422 C421 1.363 . S
C422 C428 1.428 . S
H423 C419 0.930 . S
H424 C421 0.929 . S
S425 N426 1.613 . S
S425 N427 1.610 . S
N426 S425 1.613 . S
N426 C429 1.350 . S
N427 S425 1.610 . S
N427 C428 1.351 . S
C428 C422 1.428 . S
C428 N427 1.351 . S
C428 C429 1.434 . S
C429 C420 1.429 . S
C429 N426 1.350 . S
C429 C428 1.434 . S
C430 C431 1.369 . S
C430 C432 1.419 . S
C430 H434 0.930 . S
C431 C430 1.369 . S
C431 C440 1.429 1_565 S
C432 C430 1.419 . S
C432 C433 1.363 1_565 S
C432 H435 0.929 . S
C433 C432 1.363 1_545 S
C433 C439 1.428 . S
H434 C430 0.930 . S
H435 C432 0.929 . S
S436 N437 1.613 . S
S436 N438 1.610 . S
N437 S436 1.613 . S
N437 C440 1.350 . S
N438 S436 1.610 . S
N438 C439 1.351 . S
C439 C433 1.428 . S
C439 N438 1.351 . S
C439 C440 1.434 . S
C440 C431 1.429 1_545 S
C440 N437 1.350 . S
C440 C439 1.434 . S
C441 C442 1.369 . S
C441 C443 1.419 1_455 S
C441 H445 0.930 1_455 S
C442 C441 1.369 . S
C442 C451 1.429 . S
C443 C441 1.419 1_655 S
C443 C444 1.363 1_655 S
C443 H446 0.929 . S
C444 C443 1.363 1_455 S
C444 C450 1.428 . S
H445 C441 0.930 1_655 S
H446 C443 0.929 . S
S447 N448 1.613 . S
S447 N449 1.610 . S
N448 S447 1.613 . S
N448 C451 1.350 . S
N449 S447 1.610 . S
N449 C450 1.351 . S
C450 C444 1.428 . S
C450 N449 1.351 . S
C450 C451 1.434 . S
C451 C442 1.429 . S
C451 N448 1.350 . S
C451 C450 1.434 . S
C452 C453 1.369 1_554 S
C452 C454 1.419 . S
C452 H456 0.930 . S
C453 C452 1.369 1_556 S
C453 C462 1.429 . S
C454 C452 1.419 . S
C454 C455 1.363 1_554 S
C454 H457 0.929 . S
C455 C454 1.363 1_556 S
C455 C461 1.428 . S
H456 C452 0.930 . S
H457 C454 0.929 . S
S458 N459 1.613 . S
S458 N460 1.610 . S
N459 S458 1.613 . S
N459 C462 1.350 . S
N460 S458 1.610 . S
N460 C461 1.351 . S
C461 C455 1.428 . S
C461 N460 1.351 . S
C461 C462 1.434 . S
C462 C453 1.429 . S
C462 N459 1.350 . S
C462 C461 1.434 . S
C463 C464 1.369 . S
C463 C465 1.419 . S
C463 H467 0.930 . S
C464 C463 1.369 . S
C464 C473 1.429 . S
C465 C463 1.419 . S
C465 C466 1.363 . S
C465 H468 0.929 . S
C466 C465 1.363 . S
C466 C472 1.428 . S
H467 C463 0.930 . S
H468 C465 0.929 . S
S469 N470 1.613 . S
S469 N471 1.610 . S
N470 S469 1.613 . S
N470 C473 1.350 . S
N471 S469 1.610 . S
N471 C472 1.351 . S
C472 C466 1.428 . S
C472 N471 1.351 . S
C472 C473 1.434 . S
C473 C464 1.429 . S
C473 N470 1.350 . S
C473 C472 1.434 . S
C474 C475 1.369 . S
C474 C476 1.419 . S
C474 H478 0.930 . S
C475 C474 1.369 . S
C475 C484 1.429 . S
C476 C474 1.419 . S
C476 C477 1.363 . S
C476 H479 0.929 . S
C477 C476 1.363 . S
C477 C483 1.428 . S
H478 C474 0.930 . S
H479 C476 0.929 . S
S480 N481 1.613 . S
S480 N482 1.610 . S
N481 S480 1.613 . S
N481 C484 1.350 . S
N482 S480 1.610 . S
N482 C483 1.351 . S
C483 C477 1.428 . S
C483 N482 1.351 . S
C483 C484 1.434 . S
C484 C475 1.429 . S
C484 N481 1.350 . S
C484 C483 1.434 . S
C485 C486 1.369 . S
C485 C487 1.419 . S
C485 H489 0.930 . S
C486 C485 1.369 . S
C486 C495 1.429 . S
C487 C485 1.419 . S
C487 C488 1.363 . S
C487 H490 0.929 . S
C488 C487 1.363 . S
C488 C494 1.428 . S
H489 C485 0.930 . S
H490 C487 0.929 . S
S491 N492 1.613 . S
S491 N493 1.610 . S
N492 S491 1.613 . S
N492 C495 1.350 . S
N493 S491 1.610 . S
N493 C494 1.351 . S
C494 C488 1.428 . S
C494 N493 1.351 . S
C494 C495 1.434 . S
C495 C486 1.429 . S
C495 N492 1.350 . S
C495 C494 1.434 . S
C496 C497 1.369 . S
C496 C498 1.419 . S
C496 H500 0.930 . S
C497 C496 1.369 . S
C497 C506 1.429 . S
C498 C496 1.419 . S
C498 C499 1.363 . S
C498 H501 0.929 . S
C499 C498 1.363 . S
C499 C505 1.428 . S
H500 C496 0.930 . S
H501 C498 0.929 . S
S502 N503 1.613 . S
S502 N504 1.610 . S
N503 S502 1.613 . S
N503 C506 1.350 . S
N504 S502 1.610 . S
N504 C505 1.351 . S
C505 C499 1.428 . S
C505 N504 1.351 . S
C505 C506 1.434 . S
C506 C497 1.429 . S
C506 N503 1.350 . S
C506 C505 1.434 . S
C507 C508 1.369 . S
C507 C509 1.419 . S
C507 H511 0.930 . S
C508 C507 1.369 . S
C508 C517 1.429 . S
C509 C507 1.419 . S
C509 C510 1.363 . S
C509 H512 0.929 . S
C510 C509 1.363 . S
C510 C516 1.428 . S
H511 C507 0.930 . S
H512 C509 0.929 . S
S513 N514 1.613 . S
S513 N515 1.610 . S
N514 S513 1.613 . S
N514 C517 1.350 . S
N515 S513 1.610 . S
N515 C516 1.351 . S
C516 C510 1.428 . S
C516 N515 1.351 . S
C516 C517 1.434 . S
C517 C508 1.429 . S
C517 N514 1.350 . S
C517 C516 1.434 . S
C518 C519 1.369 . S
C518 C520 1.419 . S
C518 H522 0.930 . S
C519 C518 1.369 . S
C519 C528 1.429 . S
C520 C518 1.419 . S
C520 C521 1.363 . S
C520 H523 0.929 . S
C521 C520 1.363 . S
C521 C527 1.428 . S
H522 C518 0.930 . S
H523 C520 0.929 . S
S524 N525 1.613 . S
S524 N526 1.610 . S
N525 S524 1.613 . S
N525 C528 1.350 . S
N526 S524 1.610 . S
N526 C527 1.351 . S
C527 C521 1.428 . S
C527 N526 1.351 . S
C527 C528 1.434 . S
C528 C519 1.429 . S
C528 N525 1.350 . S
C528 C527 1.434 . S
C529 C530 1.369 . S
C529 C531 1.419 . S
C529 H533 0.930 . S
C530 C529 1.369 . S
C530 C539 1.429 . S
C531 C529 1.419 . S
C531 C532 1.363 . S
C531 H534 0.929 . S
C532 C531 1.363 . S
C532 C538 1.428 . S
H533 C529 0.930 . S
H534 C531 0.929 . S
S535 N536 1.613 . S
S535 N537 1.610 . S
N536 S535 1.613 . S
N536 C539 1.350 . S
N537 S535 1.610 . S
N537 C538 1.351 . S
C538 C532 1.428 . S
C538 N537 1.351 . S
C538 C539 1.434 . S
C539 C530 1.429 . S
C539 N536 1.350 . S
C539 C538 1.434 . S
C540 C541 1.369 . S
C540 C542 1.419 . S
C540 H544 0.930 . S
C541 C540 1.369 . S
C541 C550 1.429 . S
C542 C540 1.419 . S
C542 C543 1.363 . S
C542 H545 0.929 . S
C543 C542 1.363 . S
C543 C549 1.428 . S
H544 C540 0.930 . S
H545 C542 0.929 . S
S546 N547 1.613 . S
S546 N548 1.610 . S
N547 S546 1.613 . S
N547 C550 1.350 . S
N548 S546 1.610 . S
N548 C549 1.351 . S
C549 C543 1.428 . S
C549 N548 1.351 . S
C549 C550 1.434 . S
C550 C541 1.429 . S
C550 N547 1.350 . S
C550 C549 1.434 . S
C551 C552 1.369 1_455 S
C551 C553 1.419 . S
C551 H555 0.930 . S
C552 C551 1.369 1_655 S
C552 C561 1.429 . S
C553 C551 1.419 . S
C553 C554 1.363 1_455 S
C553 H556 0.929 . S
C554 C553 1.363 1_655 S
C554 C560 1.428 . S
H555 C551 0.930 . S
H556 C553 0.929 . S
S557 N558 1.613 . S
S557 N559 1.610 . S
N558 S557 1.613 . S
N558 C561 1.350 . S
N559 S557 1.610 . S
N559 C560 1.351 . S
C560 C554 1.428 . S
C560 N559 1.351 . S
C560 C561 1.434 . S
C561 C552 1.429 . S
C561 N558 1.350 . S
C561 C560 1.434 . S
C562 C563 1.369 . S
C562 C564 1.419 . S
C562 H566 0.930 . S
C563 C562 1.369 . S
C563 C572 1.429 . S
C564 C562 1.419 . S
C564 C565 1.363 . S
C564 H567 0.929 . S
C565 C564 1.363 . S
C565 C571 1.428 . S
H566 C562 0.930 . S
H567 C564 0.929 . S
S568 N569 1.613 . S
S568 N570 1.610 . S
N569 S568 1.613 . S
N569 C572 1.350 . S
N570 S568 1.610 . S
N570 C571 1.351 . S
C571 C565 1.428 . S
C571 N570 1.351 . S
C571 C572 1.434 . S
C572 C563 1.429 . S
C572 N569 1.350 . S
C572 C571 1.434 . S
C573 C574 1.369 . S
C573 C575 1.419 . S
C573 H577 0.930 . S
C574 C573 1.369 . S
C574 C583 1.429 . S
C575 C573 1.419 . S
C575 C576 1.363 . S
C575 H578 0.929 . S
C576 C575 1.363 . S
C576 C582 1.428 . S
H577 C573 0.930 . S
H578 C575 0.929 . S
S579 N580 1.613 . S
S579 N581 1.610 . S
N580 S579 1.613 . S
N580 C583 1.350 . S
N581 S579 1.610 . S
N581 C582 1.351 . S
C582 C576 1.428 . S
C582 N581 1.351 . S
C582 C583 1.434 . S
C583 C574 1.429 . S
C583 N580 1.350 . S
C583 C582 1.434 . S
C584 C585 1.369 . S
C584 C586 1.419 . S
C584 H588 0.930 . S
C585 C584 1.369 . S
C585 C594 1.429 . S
C586 C584 1.419 . S
C586 C587 1.363 . S
C586 H589 0.929 . S
C587 C586 1.363 . S
C587 C593 1.428 . S
H588 C584 0.930 . S
H589 C586 0.929 . S
S590 N591 1.613 . S
S590 N592 1.610 . S
N591 S590 1.613 . S
N591 C594 1.350 . S
N592 S590 1.610 . S
N592 C593 1.351 . S
C593 C587 1.428 . S
C593 N592 1.351 . S
C593 C594 1.434 . S
C594 C585 1.429 . S
C594 N591 1.350 . S
C594 C593 1.434 . S
C595 C596 1.369 . S
C595 C597 1.419 . S
C595 H599 0.930 . S
C596 C595 1.369 . S
C596 C605 1.429 . S
C597 C595 1.419 . S
C597 C598 1.363 . S
C597 H600 0.929 . S
C598 C597 1.363 . S
C598 C604 1.428 . S
H599 C595 0.930 . S
H600 C597 0.929 . S
S601 N602 1.613 . S
S601 N603 1.610 . S
N602 S601 1.613 . S
N602 C605 1.350 . S
N603 S601 1.610 . S
N603 C604 1.351 . S
C604 C598 1.428 . S
C604 N603 1.351 . S
C604 C605 1.434 . S
C605 C596 1.429 . S
C605 N602 1.350 . S
C605 C604 1.434 . S
C606 C607 1.369 . S
C606 C608 1.419 . S
C606 H610 0.930 1_545 S
C607 C606 1.369 . S
C607 C616 1.429 . S
C608 C606 1.419 . S
C608 C609 1.363 . S
C608 H611 0.929 . S
C609 C608 1.363 . S
C609 C615 1.428 . S
H610 C606 0.930 1_565 S
H611 C608 0.929 . S
S612 N613 1.613 . S
S612 N614 1.610 . S
N613 S612 1.613 . S
N613 C616 1.350 . S
N614 S612 1.610 . S
N614 C615 1.351 . S
C615 C609 1.428 . S
C615 N614 1.351 . S
C615 C616 1.434 . S
C616 C607 1.429 . S
C616 N613 1.350 . S
C616 C615 1.434 . S
C617 C618 1.369 . S
C617 C619 1.419 . S
C617 H621 0.930 . S
C618 C617 1.369 . S
C618 C627 1.429 . S
C619 C617 1.419 . S
C619 C620 1.363 . S
C619 H622 0.929 . S
C620 C619 1.363 . S
C620 C626 1.428 . S
H621 C617 0.930 . S
H622 C619 0.929 . S
S623 N624 1.613 . S
S623 N625 1.610 . S
N624 S623 1.613 . S
N624 C627 1.350 . S
N625 S623 1.610 . S
N625 C626 1.351 . S
C626 C620 1.428 . S
C626 N625 1.351 . S
C626 C627 1.434 . S
C627 C618 1.429 . S
C627 N624 1.350 . S
C627 C626 1.434 . S
C628 C629 1.369 . S
C628 C630 1.419 . S
C628 H632 0.930 . S
C629 C628 1.369 . S
C629 C638 1.429 . S
C630 C628 1.419 . S
C630 C631 1.363 . S
C630 H633 0.929 . S
C631 C630 1.363 . S
C631 C637 1.428 . S
H632 C628 0.930 . S
H633 C630 0.929 . S
S634 N635 1.613 . S
S634 N636 1.610 . S
N635 S634 1.613 . S
N635 C638 1.350 . S
N636 S634 1.610 . S
N636 C637 1.351 . S
C637 C631 1.428 . S
C637 N636 1.351 . S
C637 C638 1.434 . S
C638 C629 1.429 . S
C638 N635 1.350 . S
C638 C637 1.434 . S
C639 C640 1.369 . S
C639 C641 1.419 . S
C639 H643 0.930 . S
C640 C639 1.369 . S
C640 C649 1.429 . S
C641 C639 1.419 . S
C641 C642 1.363 . S
C641 H644 0.929 . S
C642 C641 1.363 . S
C642 C648 1.428 . S
H643 C639 0.930 . S
H644 C641 0.929 . S
S645 N646 1.613 . S
S645 N647 1.610 . S
N646 S645 1.613 . S
N646 C649 1.350 . S
N647 S645 1.610 . S
N647 C648 1.351 . S
C648 C642 1.428 . S
C648 N647 1.351 . S
C648 C649 1.434 . S
C649 C640 1.429 . S
C649 N646 1.350 . S
C649 C648 1.434 . S
C650 C651 1.369 . S
C650 C652 1.419 . S
C650 H654 0.930 . S
C651 C650 1.369 . S
C651 C660 1.429 . S
C652 C650 1.419 . S
C652 C653 1.363 . S
C652 H655 0.929 . S
C653 C652 1.363 . S
C653 C659 1.428 . S
H654 C650 0.930 . S
H655 C652 0.929 . S
S656 N657 1.613 . S
S656 N658 1.610 . S
N657 S656 1.613 . S
N657 C660 1.350 . S
N658 S656 1.610 . S
N658 C659 1.351 . S
C659 C653 1.428 . S
C659 N658 1.351 . S
C659 C660 1.434 . S
C660 C651 1.429 . S
C660 N657 1.350 . S
C660 C659 1.434 . S
C661 C662 1.369 . S
C661 C663 1.419 . S
C661 H665 0.930 . S
C662 C661 1.369 . S
C662 C671 1.429 . S
C663 C661 1.419 . S
C663 C664 1.363 . S
C663 H666 0.929 . S
C664 C663 1.363 . S
C664 C670 1.428 . S
H665 C661 0.930 . S
H666 C663 0.929 . S
S667 N668 1.613 . S
S667 N669 1.610 . S
N668 S667 1.613 . S
N668 C671 1.350 . S
N669 S667 1.610 . S
N669 C670 1.351 . S
C670 C664 1.428 . S
C670 N669 1.351 . S
C670 C671 1.434 . S
C671 C662 1.429 . S
C671 N668 1.350 . S
C671 C670 1.434 . S
C672 C673 1.369 . S
C672 C674 1.419 . S
C672 H676 0.930 . S
C673 C672 1.369 . S
C673 C682 1.429 . S
C674 C672 1.419 . S
C674 C675 1.363 . S
C674 H677 0.929 . S
C675 C674 1.363 . S
C675 C681 1.428 . S
H676 C672 0.930 . S
H677 C674 0.929 . S
S678 N679 1.613 . S
S678 N680 1.610 . S
N679 S678 1.613 . S
N679 C682 1.350 . S
N680 S678 1.610 . S
N680 C681 1.351 . S
C681 C675 1.428 . S
C681 N680 1.351 . S
C681 C682 1.434 . S
C682 C673 1.429 . S
C682 N679 1.350 . S
C682 C681 1.434 . S
C683 C684 1.369 . S
C683 C685 1.419 . S
C683 H687 0.930 . S
C684 C683 1.369 . S
C684 C693 1.429 . S
C685 C683 1.419 . S
C685 C686 1.363 . S
C685 H688 0.929 . S
C686 C685 1.363 . S
C686 C692 1.428 . S
H687 C683 0.930 . S
H688 C685 0.929 . S
S689 N690 1.613 . S
S689 N691 1.610 . S
N690 S689 1.613 . S
N690 C693 1.350 . S
N691 S689 1.610 . S
N691 C692 1.351 . S
C692 C686 1.428 . S
C692 N691 1.351 . S
C692 C693 1.434 . S
C693 C684 1.429 . S
C693 N690 1.350 . S
C693 C692 1.434 . S
C694 C695 1.369 . S
C694 C696 1.419 . S
C694 H698 0.930 . S
C695 C694 1.369 . S
C695 C704 1.429 . S
C696 C694 1.419 . S
C696 C697 1.363 . S
C696 H699 0.929 . S
C697 C696 1.363 . S
C697 C703 1.428 . S
H698 C694 0.930 . S
H699 C696 0.929 . S
S700 N701 1.613 . S
S700 N702 1.610 . S
N701 S700 1.613 . S
N701 C704 1.350 . S
N702 S700 1.610 . S
N702 C703 1.351 . S
C703 C697 1.428 . S
C703 N702 1.351 . S
C703 C704 1.434 . S
C704 C695 1.429 . S
C704 N701 1.350 . S
C704 C703 1.434 . S
C705 C706 1.369 . S
C705 C707 1.419 . S
C705 H709 0.930 . S
C706 C705 1.369 . S
C706 C715 1.429 . S
C707 C705 1.419 . S
C707 C708 1.363 . S
C707 H710 0.929 . S
C708 C707 1.363 . S
C708 C714 1.428 . S
H709 C705 0.930 . S
H710 C707 0.929 . S
S711 N712 1.613 . S
S711 N713 1.610 . S
N712 S711 1.613 . S
N712 C715 1.350 . S
N713 S711 1.610 . S
N713 C714 1.351 . S
C714 C708 1.428 . S
C714 N713 1.351 . S
C714 C715 1.434 . S
C715 C706 1.429 . S
C715 N712 1.350 . S
C715 C714 1.434 . S
C716 C717 1.369 . S
C716 C718 1.419 . S
C716 H720 0.930 . S
C717 C716 1.369 . S
C717 C726 1.429 . S
C718 C716 1.419 . S
C718 C719 1.363 . S
C718 H721 0.929 . S
C719 C718 1.363 . S
C719 C725 1.428 . S
H720 C716 0.930 . S
H721 C718 0.929 . S
S722 N723 1.613 . S
S722 N724 1.610 . S
N723 S722 1.613 . S
N723 C726 1.350 . S
N724 S722 1.610 . S
N724 C725 1.351 . S
C725 C719 1.428 . S
C725 N724 1.351 . S
C725 C726 1.434 . S
C726 C717 1.429 . S
C726 N723 1.350 . S
C726 C725 1.434 . S
C727 C728 1.369 . S
C727 C729 1.419 . S
C727 H731 0.930 . S
C728 C727 1.369 . S
C728 C737 1.429 . S
C729 C727 1.419 . S
C729 C730 1.363 . S
C729 H732 0.929 . S
C730 C729 1.363 . S
C730 C736 1.428 . S
H731 C727 0.930 . S
H732 C729 0.929 . S
S733 N734 1.613 . S
S733 N735 1.610 . S
N734 S733 1.613 . S
N734 C737 1.350 . S
N735 S733 1.610 . S
N735 C736 1.351 . S
C736 C730 1.428 . S
C736 N735 1.351 . S
C736 C737 1.434 . S
C737 C728 1.429 . S
C737 N734 1.350 . S
C737 C736 1.434 . S
C738 C739 1.369 . S
C738 C740 1.419 . S
C738 H742 0.930 . S
C739 C738 1.369 . S
C739 C748 1.429 . S
C740 C738 1.419 . S
C740 C741 1.363 . S
C740 H743 0.929 . S
C741 C740 1.363 . S
C741 C747 1.428 . S
H742 C738 0.930 . S
H743 C740 0.929 . S
S744 N745 1.613 . S
S744 N746 1.610 . S
N745 S744 1.613 . S
N745 C748 1.350 . S
N746 S744 1.610 . S
N746 C747 1.351 . S
C747 C741 1.428 . S
C747 N746 1.351 . S
C747 C748 1.434 . S
C748 C739 1.429 . S
C748 N745 1.350 . S
C748 C747 1.434 . S
C749 C750 1.369 . S
C749 C751 1.419 . S
C749 H753 0.930 . S
C750 C749 1.369 . S
C750 C759 1.429 . S
C751 C749 1.419 . S
C751 C752 1.363 . S
C751 H754 0.929 . S
C752 C751 1.363 . S
C752 C758 1.428 . S
H753 C749 0.930 . S
H754 C751 0.929 . S
S755 N756 1.613 . S
S755 N757 1.610 . S
N756 S755 1.613 . S
N756 C759 1.350 . S
N757 S755 1.610 . S
N757 C758 1.351 . S
C758 C752 1.428 . S
C758 N757 1.351 . S
C758 C759 1.434 . S
C759 C750 1.429 . S
C759 N756 1.350 . S
C759 C758 1.434 . S
C760 C761 1.369 . S
C760 C762 1.419 . S
C760 H764 0.930 . S
C761 C760 1.369 . S
C761 C770 1.429 . S
C762 C760 1.419 . S
C762 C763 1.363 . S
C762 H765 0.929 . S
C763 C762 1.363 . S
C763 C769 1.428 . S
H764 C760 0.930 . S
H765 C762 0.929 . S
S766 N767 1.613 . S
S766 N768 1.610 . S
N767 S766 1.613 . S
N767 C770 1.350 . S
N768 S766 1.610 . S
N768 C769 1.351 . S
C769 C763 1.428 . S
C769 N768 1.351 . S
C769 C770 1.434 . S
C770 C761 1.429 . S
C770 N767 1.350 . S
C770 C769 1.434 . S
C771 C772 1.369 . S
C771 C773 1.419 . S
C771 H775 0.930 . S
C772 C771 1.369 . S
C772 C781 1.429 . S
C773 C771 1.419 . S
C773 C774 1.363 . S
C773 H776 0.929 . S
C774 C773 1.363 . S
C774 C780 1.428 . S
H775 C771 0.930 . S
H776 C773 0.929 . S
S777 N778 1.613 . S
S777 N779 1.610 . S
N778 S777 1.613 . S
N778 C781 1.350 . S
N779 S777 1.610 . S
N779 C780 1.351 . S
C780 C774 1.428 . S
C780 N779 1.351 . S
C780 C781 1.434 . S
C781 C772 1.429 . S
C781 N778 1.350 . S
C781 C780 1.434 . S
C782 C783 1.369 . S
C782 C784 1.419 . S
C782 H786 0.930 . S
C783 C782 1.369 . S
C783 C792 1.427 1_556 S
C784 C782 1.419 . S
C784 C785 1.363 . S
C784 H787 0.929 . S
C785 C784 1.363 . S
C785 C791 1.426 1_556 S
H786 C782 0.930 . S
H787 C784 0.929 . S
S788 N789 1.613 . S
S788 N790 1.610 . S
N789 S788 1.613 . S
N789 C792 1.351 . S
N790 S788 1.610 . S
N790 C791 1.353 . S
C791 C785 1.426 1_554 S
C791 N790 1.353 . S
C791 C792 1.434 . S
C792 C783 1.427 1_554 S
C792 N789 1.351 . S
C792 C791 1.434 . S
C793 C794 1.369 . S
C793 C795 1.419 . S
C793 H797 0.930 . S
C794 C793 1.369 . S
C794 C803 1.429 . S
C795 C793 1.419 . S
C795 C796 1.363 . S
C795 H798 0.929 . S
C796 C795 1.363 . S
C796 C802 1.428 . S
H797 C793 0.930 . S
H798 C795 0.929 . S
S799 N800 1.613 . S
S799 N801 1.610 . S
N800 S799 1.613 . S
N800 C803 1.350 . S
N801 S799 1.610 . S
N801 C802 1.351 . S
C802 C796 1.428 . S
C802 N801 1.351 . S
C802 C803 1.434 . S
C803 C794 1.429 . S
C803 N800 1.350 . S
C803 C802 1.434 . S
C804 C805 1.369 . S
C804 C806 1.419 . S
C804 H808 0.930 . S
C805 C804 1.369 . S
C805 C814 1.429 . S
C806 C804 1.419 . S
C806 C807 1.363 . S
C806 H809 0.929 . S
C807 C806 1.363 . S
C807 C813 1.428 . S
H808 C804 0.930 . S
H809 C806 0.929 . S
S810 N811 1.613 . S
S810 N812 1.610 . S
N811 S810 1.613 . S
N811 C814 1.350 . S
N812 S810 1.610 . S
N812 C813 1.351 . S
C813 C807 1.428 . S
C813 N812 1.351 . S
C813 C814 1.434 . S
C814 C805 1.429 . S
C814 N811 1.350 . S
C814 C813 1.434 . S
C815 C816 1.369 . S
C815 C817 1.419 . S
C815 H819 0.930 . S
C816 C815 1.369 . S
C816 C825 1.429 . S
C817 C815 1.419 . S
C817 C818 1.363 . S
C817 H820 0.929 . S
C818 C817 1.363 . S
C818 C824 1.428 . S
H819 C815 0.930 . S
H820 C817 0.929 . S
S821 N822 1.613 . S
S821 N823 1.610 . S
N822 S821 1.613 . S
N822 C825 1.350 . S
N823 S821 1.610 . S
N823 C824 1.351 . S
C824 C818 1.428 . S
C824 N823 1.351 . S
C824 C825 1.434 . S
C825 C816 1.429 . S
C825 N822 1.350 . S
C825 C824 1.434 . S
C826 C827 1.369 . S
C826 C828 1.419 . S
C826 H830 0.930 . S
C827 C826 1.369 . S
C827 C836 1.429 . S
C828 C826 1.419 . S
C828 C829 1.363 . S
C828 H831 0.929 . S
C829 C828 1.363 . S
C829 C835 1.428 . S
H830 C826 0.930 . S
H831 C828 0.929 . S
S832 N833 1.613 . S
S832 N834 1.610 . S
N833 S832 1.613 . S
N833 C836 1.350 . S
N834 S832 1.610 . S
N834 C835 1.351 . S
C835 C829 1.428 . S
C835 N834 1.351 . S
C835 C836 1.434 . S
C836 C827 1.429 . S
C836 N833 1.350 . S
C836 C835 1.434 . S
C837 C838 1.369 . S
C837 C839 1.419 . S
C837 H841 0.930 . S
C838 C837 1.369 . S
C838 C847 1.429 . S
C839 C837 1.419 . S
C839 C840 1.363 . S
C839 H842 0.929 . S
C840 C839 1.363 . S
C840 C846 1.428 . S
H841 C837 0.930 . S
H842 C839 0.929 . S
S843 N844 1.613 . S
S843 N845 1.610 . S
N844 S843 1.613 . S
N844 C847 1.350 . S
N845 S843 1.610 . S
N845 C846 1.351 . S
C846 C840 1.428 . S
C846 N845 1.351 . S
C846 C847 1.434 . S
C847 C838 1.429 . S
C847 N844 1.350 . S
C847 C846 1.434 . S
C321 C2 0.899 . S
C323 C24 0.993 1_655 S
C332 C42 0.911 . S
C334 C29 1.042 . S
C343 C64 1.245 . S
C345 C59 1.324 . S
C354 C19 0.989 . S
C356 C69 0.969 . S
C365 C18 0.961 . S
C367 C192 0.944 1_565 S
C376 C144 0.855 . S
C378 C22 0.850 . S
C387 C44 0.955 . S
C389 C212 1.078 . S
C398 C62 1.332 . S
C400 C264 1.170 . S
C409 C178 0.964 . S
C411 C32 0.958 . S
C420 C242 1.459 . S
C422 C58 1.518 . S
C431 C284 0.939 1_565 S
C433 C72 1.077 . S
C442 C4 0.888 . S
C444 C222 0.920 . S
C453 C9 0.702 . S
C455 C169 0.702 . S
C464 C259 2.068 . S
C466 C99 2.066 . S
C475 C112 0.768 . S
C477 C289 0.771 . S
C486 C239 1.734 . S
C488 C139 1.735 . S
C497 C49 0.771 . S
C499 C152 0.768 . S
C508 C198 1.788 . S
C510 C98 1.784 . S
C519 C138 1.876 . S
C521 C218 1.874 . S
C530 C118 1.376 . S
C532 C232 1.399 . S
C541 C182 0.845 . S
C543 C104 0.849 . S
C552 C224 0.952 . S
C554 C142 0.920 . S
C563 C119 1.542 . S
C565 C89 1.561 . S
C574 C184 0.990 . S
C576 C162 0.892 . S
C585 C279 1.352 . S
C587 C229 1.352 . S
C596 C124 0.943 . S
C598 C102 0.910 . S
C607 C189 1.045 . S
C609 C282 0.924 . S
C618 C272 0.734 . S
C620 C12 0.724 . S
C629 C52 0.751 . S
C631 C292 0.759 . S
C640 C258 1.786 . S
C642 C38 1.785 . S
C651 C149 0.721 . S
C653 C109 0.723 . S
C662 C79 1.834 . S
C664 C219 1.831 . S
C673 C244 1.261 . S
C675 C262 1.173 . S
C684 C159 1.543 . S
C686 C249 1.560 . S
C695 C132 1.400 . S
C697 C158 1.376 . S
C706 C92 1.358 . S
C708 C278 1.381 . S
C717 C252 1.365 . S
C719 C318 1.384 . S
C728 C312 0.719 . S
C730 C172 0.722 . S
C739 C39 1.706 . S
C741 C199 1.704 . S
C750 C164 0.888 . S
C752 C122 0.922 . S
C761 C179 0.991 . S
C763 C209 0.972 . S
C772 C319 1.350 . S
C774 C129 1.349 . S
C783 C269 0.760 1_556 S
C785 C309 0.763 1_556 S
C794 C238 1.876 . S
C796 C78 1.875 . S
C805 C204 1.239 . S
C807 C299 1.323 . S
C816 C202 1.334 . S
C818 C304 1.173 . S
C827 C82 1.457 . S
C829 C298 1.516 . S
C838 C302 1.171 . S
C840 C84 1.263 . S
