# Generated by pormake.
# Topology acs-a, (4)-cn, num edge types: 1
# Building blocks:
#     Node 0, Type 0, BuildingBlock: NAHDIM_clean_sbu_0, # of connection points: 4
#     Node 1, Type 0, BuildingBlock: NAHDIM_clean_sbu_0, # of connection points: 4
#     Node 2, Type 0, BuildingBlock: NAHDIM_clean_sbu_0, # of connection points: 4
#     Node 3, Type 0, BuildingBlock: NAHDIM_clean_sbu_0, # of connection points: 4
#     Node 4, Type 0, BuildingBlock: NAHDIM_clean_sbu_0, # of connection points: 4
#     Node 5, Type 0, BuildingBlock: NAHDIM_clean_sbu_0, # of connection points: 4
#     Node 6, Type 0, BuildingBlock: NAHDIM_clean_sbu_0, # of connection points: 4
#     Node 7, Type 0, BuildingBlock: NAHDIM_clean_sbu_0, # of connection points: 4
#     Node 8, Type 0, BuildingBlock: NAHDIM_clean_sbu_0, # of connection points: 4
#     Node 9, Type 0, BuildingBlock: NAHDIM_clean_sbu_0, # of connection points: 4
#     Node 10, Type 0, BuildingBlock: NAHDIM_clean_sbu_0, # of connection points: 4
#     Node 11, Type 0, BuildingBlock: NAHDIM_clean_sbu_0, # of connection points: 4
#     Edge 12, Type (0, 0), BuildingBlock: UVAHIK_clean_linker_0, # of connection points: 2
#     Edge 13, Type (0, 0), BuildingBlock: UVAHIK_clean_linker_0, # of connection points: 2
#     Edge 14, Type (0, 0), BuildingBlock: UVAHIK_clean_linker_0, # of connection points: 2
#     Edge 15, Type (0, 0), BuildingBlock: UVAHIK_clean_linker_0, # of connection points: 2
#     Edge 16, Type (0, 0), BuildingBlock: UVAHIK_clean_linker_0, # of connection points: 2
#     Edge 17, Type (0, 0), BuildingBlock: UVAHIK_clean_linker_0, # of connection points: 2
#     Edge 18, Type (0, 0), BuildingBlock: UVAHIK_clean_linker_0, # of connection points: 2
#     Edge 19, Type (0, 0), BuildingBlock: UVAHIK_clean_linker_0, # of connection points: 2
#     Edge 20, Type (0, 0), BuildingBlock: UVAHIK_clean_linker_0, # of connection points: 2
#     Edge 21, Type (0, 0), BuildingBlock: UVAHIK_clean_linker_0, # of connection points: 2
#     Edge 22, Type (0, 0), BuildingBlock: UVAHIK_clean_linker_0, # of connection points: 2
#     Edge 23, Type (0, 0), BuildingBlock: UVAHIK_clean_linker_0, # of connection points: 2
#     Edge 24, Type (0, 0), BuildingBlock: UVAHIK_clean_linker_0, # of connection points: 2
#     Edge 25, Type (0, 0), BuildingBlock: UVAHIK_clean_linker_0, # of connection points: 2
#     Edge 26, Type (0, 0), BuildingBlock: UVAHIK_clean_linker_0, # of connection points: 2
#     Edge 27, Type (0, 0), BuildingBlock: UVAHIK_clean_linker_0, # of connection points: 2
#     Edge 28, Type (0, 0), BuildingBlock: UVAHIK_clean_linker_0, # of connection points: 2
#     Edge 29, Type (0, 0), BuildingBlock: UVAHIK_clean_linker_0, # of connection points: 2
#     Edge 30, Type (0, 0), BuildingBlock: UVAHIK_clean_linker_0, # of connection points: 2
#     Edge 31, Type (0, 0), BuildingBlock: UVAHIK_clean_linker_0, # of connection points: 2
#     Edge 32, Type (0, 0), BuildingBlock: UVAHIK_clean_linker_0, # of connection points: 2
#     Edge 33, Type (0, 0), BuildingBlock: UVAHIK_clean_linker_0, # of connection points: 2
#     Edge 34, Type (0, 0), BuildingBlock: UVAHIK_clean_linker_0, # of connection points: 2
#     Edge 35, Type (0, 0), BuildingBlock: UVAHIK_clean_linker_0, # of connection points: 2
# Relax obj value: 0.414
# Max RMSD: 0.206
# Mean RMSD: 0.200
data_MOF--net-acs-a--node1-NAHDIM_clean_sbu_0--edge1-UVAHIK_clean_linker_0
_symmetry_space_group_name_H-M    P1
_symmetry_Int_Tables_number       1
_symmetry_cell_setting            triclinic
loop_
_symmetry_equiv_pos_as_xyz
'x, y, z'
_cell_length_a     61.248156
_cell_length_b     61.187533
_cell_length_c     55.121815
_cell_angle_alpha  90.150635
_cell_angle_beta   89.918436
_cell_angle_gamma 114.52835
loop_
_atom_site_label
_atom_site_type_symbol
_atom_site_fract_x
_atom_site_fract_y
_atom_site_fract_z
_atom_type_partial_charge
C0 C 0.57412 0.11921 0.02995 0.0
O1 O 0.5807 0.14035 0.0197 0.0
O2 O 0.5978 0.17498 0.06227 0.0
Zn3 Zn 0.60571 0.14672 0.06798 0.0
O4 O 0.60344 0.14113 0.10388 0.0
C5 C 0.64716 0.16703 0.03762 0.0
O6 O 0.63255 0.17313 0.02474 0.0
O7 O 0.58258 0.11771 0.05059 0.0
C8 C 0.61775 0.15811 0.11701 0.0
O9 O 0.63364 0.17738 0.10641 0.0
C10 C 0.57677 0.1735 0.06607 0.0
O11 O 0.55978 0.15281 0.07268 0.0
O12 O 0.6394 0.15488 0.05687 0.0
C13 C 0.38786 0.49899 0.46975 0.0
O14 O 0.38413 0.48711 0.44919 0.0
O15 O 0.34048 0.52542 0.51118 0.0
Zn16 Zn 0.37293 0.52471 0.50766 0.0
O17 O 0.38146 0.51369 0.53941 0.0
C18 C 0.39006 0.57115 0.48614 0.0
O19 O 0.37082 0.56013 0.47276 0.0
O20 O 0.37128 0.50393 0.4786 0.0
C21 C 0.40154 0.52562 0.54967 0.0
O22 O 0.41778 0.54404 0.53828 0.0
C23 C 0.32987 0.52367 0.53139 0.0
O24 O 0.33972 0.52006 0.55125 0.0
O25 O 0.3957 0.55905 0.50164 0.0
C26 C 0.91391 0.41865 0.09029 0.0
O27 O 0.91428 0.40345 0.10691 0.0
O28 O 0.84798 0.36839 0.07901 0.0
Zn29 Zn 0.86276 0.39812 0.09944 0.0
O30 O 0.86656 0.38883 0.13355 0.0
C31 C 0.82868 0.41583 0.08189 0.0
O32 O 0.83016 0.40496 0.06177 0.0
O33 O 0.89416 0.41954 0.08486 0.0
C34 C 0.84832 0.37235 0.14322 0.0
O35 O 0.82849 0.36231 0.13047 0.0
C36 C 0.85545 0.35189 0.07998 0.0
O37 O 0.87335 0.35447 0.0945 0.0
O38 O 0.84109 0.41534 0.10016 0.0
C39 C 0.42785 0.8685 0.53545 0.0
O40 O 0.43069 0.85096 0.52408 0.0
O41 O 0.40012 0.80543 0.54887 0.0
Zn42 Zn 0.39262 0.83092 0.56524 0.0
O43 O 0.39645 0.82991 0.60126 0.0
C44 C 0.34946 0.82047 0.53752 0.0
O45 O 0.36214 0.81758 0.51956 0.0
O46 O 0.4134 0.86375 0.5532 0.0
C47 C 0.38351 0.8112 0.61309 0.0
O48 O 0.36827 0.79236 0.6013 0.0
C49 C 0.41798 0.80137 0.55539 0.0
O50 O 0.43191 0.81432 0.57292 0.0
O51 O 0.35871 0.82567 0.55852 0.0
C52 C 0.53885 0.46013 0.09425 0.0
O53 O 0.53111 0.45745 0.11676 0.0
O54 O 0.60916 0.45624 0.10275 0.0
Zn55 Zn 0.57428 0.44352 0.11208 0.0
O56 O 0.57128 0.45189 0.14708 0.0
C57 C 0.55787 0.39771 0.08775 0.0
O58 O 0.56007 0.41089 0.06835 0.0
O59 O 0.55678 0.45572 0.08884 0.0
C60 C 0.55878 0.43563 0.16193 0.0
O61 O 0.54622 0.41377 0.15382 0.0
C62 C 0.62627 0.46787 0.11715 0.0
O63 O 0.62135 0.47373 0.13876 0.0
O64 O 0.56213 0.40775 0.10847 0.0
C65 C 0.06232 0.59556 0.56009 0.0
O66 O 0.0614 0.60511 0.58122 0.0
O67 O 0.12371 0.65953 0.54466 0.0
Zn68 Zn 0.1129 0.62783 0.56151 0.0
O69 O 0.11046 0.63179 0.59753 0.0
C70 C 0.13391 0.59454 0.54831 0.0
O71 O 0.11169 0.58004 0.54294 0.0
O72 O 0.08186 0.60361 0.54822 0.0
C73 C 0.10858 0.61426 0.61098 0.0
O74 O 0.10768 0.59447 0.6008 0.0
C75 C 0.12015 0.67723 0.55276 0.0
O76 O 0.10705 0.67445 0.57237 0.0
O77 O 0.13847 0.61554 0.55621 0.0
C78 C 0.88615 0.36599 0.48697 0.0
O79 O 0.86525 0.3576 0.49798 0.0
O80 O 0.83436 0.3564 0.45527 0.0
Zn81 Zn 0.85634 0.34016 0.4483 0.0
O82 O 0.86145 0.34114 0.41229 0.0
C83 C 0.82571 0.29971 0.47654 0.0
O84 O 0.82265 0.31663 0.48885 0.0
O85 O 0.88731 0.35944 0.4653 0.0
C86 C 0.84355 0.32865 0.39916 0.0
O87 O 0.82308 0.31533 0.40973 0.0
C88 C 0.83954 0.37726 0.44679 0.0
O89 O 0.85872 0.38735 0.43312 0.0
O90 O 0.84053 0.30566 0.45903 0.0
C91 C 0.43874 0.89244 0.91804 0.0
O92 O 0.42792 0.88886 0.8969 0.0
O93 O 0.3878 0.82717 0.937 0.0
Zn94 Zn 0.41915 0.84074 0.91915 0.0
O95 O 0.41263 0.83994 0.88345 0.0
C96 C 0.42933 0.8011 0.93595 0.0
O97 O 0.40789 0.79382 0.94571 0.0
O98 O 0.43778 0.87453 0.93035 0.0
C99 C 0.39831 0.8205 0.87356 0.0
O100 O 0.3876 0.80134 0.8871 0.0
C101 C 0.3734 0.83722 0.93542 0.0
O102 O 0.37941 0.85665 0.92213 0.0
O103 O 0.43797 0.82094 0.92461 0.0
C104 C 0.60307 0.48991 0.502 0.0
O105 O 0.60371 0.47165 0.51399 0.0
O106 O 0.60499 0.43882 0.47378 0.0
Zn107 Zn 0.62484 0.47311 0.46396 0.0
O108 O 0.62015 0.47549 0.42802 0.0
C109 C 0.66445 0.46949 0.48787 0.0
O110 O 0.6473 0.45691 0.50306 0.0
O111 O 0.61268 0.49483 0.48112 0.0
C112 C 0.61819 0.45808 0.41424 0.0
O113 O 0.62043 0.43938 0.42357 0.0
C114 C 0.58347 0.42701 0.46685 0.0
O115 O 0.57301 0.43776 0.45365 0.0
O116 O 0.65948 0.48009 0.47032 0.0
C117 C 0.11653 0.5745 0.95156 0.0
O118 O 0.13857 0.57666 0.95481 0.0
O119 O 0.16618 0.60077 0.91377 0.0
Zn120 Zn 0.13933 0.61145 0.91632 0.0
O121 O 0.12806 0.61397 0.88272 0.0
C122 C 0.16368 0.64723 0.95191 0.0
O123 O 0.16605 0.62897 0.96213 0.0
O124 O 0.11251 0.58765 0.93597 0.0
C125 C 0.14372 0.62719 0.86772 0.0
O126 O 0.16602 0.63874 0.87505 0.0
C127 C 0.16434 0.58317 0.90036 0.0
O128 O 0.14453 0.57185 0.88788 0.0
O129 O 0.15207 0.64389 0.93216 0.0
C130 C 0.53883 0.11278 0.45397 0.0
O131 O 0.55599 0.1287 0.4671 0.0
O132 O 0.58995 0.15824 0.43329 0.0
Zn133 Zn 0.55712 0.15058 0.41984 0.0
O134 O 0.5593 0.14906 0.38361 0.0
C135 C 0.55395 0.18792 0.44921 0.0
O136 O 0.56776 0.182 0.46351 0.0
O137 O 0.53495 0.11843 0.43276 0.0
C138 C 0.57644 0.16606 0.3731 0.0
O139 O 0.59118 0.18413 0.3862 0.0
C140 C 0.60125 0.14569 0.42736 0.0
O141 O 0.59148 0.12792 0.41186 0.0
O142 O 0.54655 0.17647 0.42945 0.0
C143 C 0.42707 0.53594 0.90257 0.0
O144 O 0.41545 0.5492 0.90785 0.0
O145 O 0.44419 0.58825 0.85944 0.0
Zn146 Zn 0.42369 0.55288 0.85529 0.0
O147 O 0.42658 0.5427 0.82111 0.0
C148 C 0.37175 0.53237 0.86858 0.0
O149 O 0.37372 0.51284 0.87587 0.0
O150 O 0.43236 0.53414 0.88056 0.0
C151 C 0.41912 0.55282 0.80504 0.0
O152 O 0.41121 0.56881 0.81197 0.0
C153 C 0.46132 0.59776 0.87444 0.0
O154 O 0.46835 0.58396 0.88753 0.0
O155 O 0.38994 0.54972 0.85995 0.0
C156 C 0.59998 0.1835 0.33543 0.0
C157 C 0.58053 0.16499 0.34677 0.0
C158 C 0.60435 0.18222 0.31072 0.0
C159 C 0.59204 0.13936 0.25995 0.0
H160 H 0.61035 0.19654 0.22036 0.0
C161 C 0.59649 0.13797 0.15506 0.0
C162 C 0.61522 0.15724 0.14371 0.0
C163 C 0.59299 0.1382 0.1801 0.0
C164 C 0.60557 0.18049 0.23122 0.0
H165 H 0.55029 0.13067 0.34101 0.0
H166 H 0.5578 0.12859 0.29777 0.0
H167 H 0.60232 0.19852 0.2634 0.0
H168 H 0.64555 0.1914 0.14989 0.0
H169 H 0.63962 0.19163 0.19356 0.0
H170 H 0.59522 0.12133 0.22767 0.0
C171 C 0.56984 0.14394 0.30809 0.0
C172 C 0.60094 0.18162 0.25588 0.0
C173 C 0.56545 0.14522 0.33282 0.0
C174 C 0.63084 0.17635 0.15803 0.0
C175 C 0.62736 0.17657 0.18305 0.0
C176 C 0.59668 0.13823 0.23525 0.0
C177 C 0.58937 0.16241 0.29678 0.0
C178 C 0.59414 0.16108 0.27053 0.0
C179 C 0.60817 0.15769 0.19431 0.0
C180 C 0.60353 0.1588 0.22062 0.0
H181 H 0.61201 0.19892 0.34567 0.0
H182 H 0.61972 0.1966 0.30261 0.0
H183 H 0.58716 0.12331 0.27083 0.0
H184 H 0.58413 0.12298 0.14453 0.0
H185 H 0.57794 0.12347 0.18821 0.0
C186 C 0.38672 0.5035 0.58872 0.0
C187 C 0.40532 0.52092 0.5753 0.0
C188 C 0.3889 0.50174 0.6138 0.0
C189 C 0.39044 0.51772 0.66594 0.0
H190 H 0.44972 0.52983 0.70005 0.0
C191 C 0.40773 0.55606 0.7622 0.0
C192 C 0.4183 0.54625 0.7791 0.0
C193 C 0.40616 0.54958 0.73779 0.0
C194 C 0.43296 0.52614 0.6908 0.0
H195 H 0.4415 0.54892 0.57738 0.0
H196 H 0.44518 0.54608 0.62109 0.0
H197 H 0.44733 0.52273 0.65621 0.0
H198 H 0.43585 0.52216 0.78352 0.0
H199 H 0.43321 0.51091 0.74056 0.0
H200 H 0.37617 0.52148 0.70033 0.0
C201 C 0.42894 0.53367 0.61229 0.0
C202 C 0.43165 0.52226 0.6657 0.0
C203 C 0.42676 0.53542 0.58722 0.0
C204 C 0.42758 0.53001 0.77094 0.0
C205 C 0.42614 0.52362 0.74637 0.0
C206 C 0.39179 0.52167 0.69093 0.0
C207 C 0.40973 0.51736 0.62598 0.0
C208 C 0.41049 0.51845 0.65292 0.0
C209 C 0.4152 0.5332 0.7296 0.0
C210 C 0.41321 0.52646 0.70355 0.0
H211 H 0.37004 0.49188 0.58006 0.0
H212 H 0.37395 0.48868 0.62378 0.0
H213 H 0.37396 0.51512 0.65668 0.0
H214 H 0.40047 0.56868 0.76782 0.0
H215 H 0.39803 0.55761 0.72525 0.0
C216 C 0.86956 0.37696 0.18303 0.0
C217 C 0.84896 0.36525 0.16873 0.0
C218 C 0.86959 0.37103 0.2075 0.0
C219 C 0.82809 0.34471 0.25837 0.0
H220 H 0.88341 0.3413 0.28932 0.0
C221 C 0.8253 0.31635 0.35804 0.0
C222 C 0.8452 0.33021 0.37241 0.0
C223 C 0.82626 0.31887 0.33284 0.0
C224 C 0.86789 0.34236 0.28095 0.0
H225 H 0.81252 0.33759 0.1687 0.0
H226 H 0.81268 0.32712 0.21125 0.0
H227 H 0.88422 0.3489 0.24576 0.0
H228 H 0.88197 0.35714 0.37155 0.0
H229 H 0.88355 0.36173 0.32757 0.0
H230 H 0.81184 0.33849 0.29348 0.0
C231 C 0.82867 0.34116 0.20368 0.0
C232 C 0.86836 0.34672 0.25602 0.0
C233 C 0.82862 0.34709 0.17925 0.0
C234 C 0.86632 0.34619 0.36099 0.0
C235 C 0.86727 0.34873 0.33577 0.0
C236 C 0.82763 0.34037 0.28324 0.0
C237 C 0.84903 0.35327 0.21816 0.0
C238 C 0.84847 0.348 0.24448 0.0
C239 C 0.84714 0.33534 0.32145 0.0
C240 C 0.84753 0.33921 0.29484 0.0
H241 H 0.88553 0.39103 0.17546 0.0
H242 H 0.88549 0.38084 0.21823 0.0
H243 H 0.81265 0.34603 0.25012 0.0
H244 H 0.8088 0.30375 0.36624 0.0
H245 H 0.81057 0.308 0.32228 0.0
C246 C 0.37922 0.79766 0.83583 0.0
C247 C 0.39466 0.81923 0.84699 0.0
C248 C 0.37659 0.79625 0.81062 0.0
C249 C 0.38643 0.8338 0.75565 0.0
H250 H 0.38626 0.77773 0.72251 0.0
C251 C 0.39971 0.83198 0.65249 0.0
C252 C 0.38468 0.81117 0.63989 0.0
C253 C 0.40007 0.83237 0.6778 0.0
C254 C 0.38601 0.79338 0.73153 0.0
H255 H 0.4192 0.85632 0.84046 0.0
H256 H 0.41483 0.85377 0.79655 0.0
H257 H 0.38787 0.77959 0.76673 0.0
H258 H 0.35851 0.7743 0.64401 0.0
H259 H 0.35916 0.77502 0.68829 0.0
H260 H 0.38486 0.8477 0.72044 0.0
C261 C 0.40451 0.83802 0.80727 0.0
C262 C 0.38689 0.79443 0.75685 0.0
C263 C 0.40712 0.83944 0.83245 0.0
C264 C 0.3703 0.79062 0.65317 0.0
C265 C 0.37073 0.79099 0.67853 0.0
C266 C 0.38561 0.83277 0.73035 0.0
C267 C 0.38934 0.81638 0.79604 0.0
C268 C 0.3873 0.81475 0.76919 0.0
C269 C 0.38548 0.81194 0.6911 0.0
C270 C 0.38559 0.81263 0.718 0.0
H271 H 0.36929 0.78179 0.84654 0.0
H272 H 0.36451 0.77941 0.80255 0.0
H273 H 0.38628 0.84951 0.76461 0.0
H274 H 0.41107 0.8481 0.64281 0.0
H275 H 0.4119 0.84866 0.68698 0.0
C276 C 0.60178 0.43622 0.3755 0.0
C277 C 0.61157 0.45796 0.38846 0.0
C278 C 0.59443 0.43576 0.35148 0.0
C279 C 0.605 0.47154 0.29686 0.0
H280 H 0.54187 0.4249 0.27774 0.0
C281 C 0.57334 0.46384 0.19738 0.0
C282 C 0.56091 0.4404 0.18835 0.0
C283 C 0.57744 0.46787 0.2223 0.0
C284 C 0.55965 0.43788 0.28267 0.0
H285 H 0.62176 0.49635 0.3863 0.0
H286 H 0.60945 0.49557 0.3439 0.0
H287 H 0.55393 0.42807 0.3202 0.0
H288 H 0.54246 0.40289 0.19846 0.0
H289 H 0.55017 0.40975 0.24154 0.0
H290 H 0.61131 0.48064 0.25931 0.0
C291 C 0.60727 0.47891 0.35254 0.0
C292 C 0.56648 0.43974 0.30702 0.0
C293 C 0.61425 0.47932 0.37676 0.0
C294 C 0.552 0.4212 0.2048 0.0
C295 C 0.55633 0.42518 0.22962 0.0
C296 C 0.59833 0.46944 0.27242 0.0
C297 C 0.59708 0.45707 0.33979 0.0
C298 C 0.58932 0.45636 0.31427 0.0
C299 C 0.5694 0.44852 0.2387 0.0
C300 C 0.57568 0.45233 0.26495 0.0
H301 H 0.59938 0.41945 0.38404 0.0
H302 H 0.58685 0.41873 0.34194 0.0
H303 H 0.62279 0.48439 0.302 0.0
H304 H 0.58031 0.47904 0.18517 0.0
H305 H 0.58717 0.48614 0.22864 0.0
C306 C 0.10863 0.63713 0.64884 0.0
C307 C 0.10827 0.6163 0.6377 0.0
C308 C 0.10942 0.63933 0.67412 0.0
C309 C 0.09985 0.60382 0.73084 0.0
H310 H 0.14396 0.6644 0.7585 0.0
C311 C 0.1552 0.64092 0.82504 0.0
C312 C 0.13729 0.6285 0.84209 0.0
C313 C 0.14945 0.641 0.80055 0.0
C314 C 0.1316 0.64735 0.75106 0.0
H315 H 0.10808 0.58128 0.64435 0.0
H316 H 0.1099 0.58527 0.68825 0.0
H317 H 0.13779 0.66084 0.71477 0.0
H318 H 0.09913 0.60712 0.84696 0.0
H319 H 0.08903 0.60759 0.80423 0.0
H320 H 0.09453 0.58998 0.76697 0.0
C321 C 0.10915 0.59977 0.67756 0.0
C322 C 0.12783 0.64539 0.72601 0.0
C323 C 0.10828 0.59755 0.65235 0.0
C324 C 0.11338 0.61672 0.83423 0.0
C325 C 0.10761 0.61689 0.80973 0.0
C326 C 0.10369 0.60575 0.75587 0.0
C327 C 0.10991 0.62074 0.68877 0.0
C328 C 0.11222 0.62347 0.71556 0.0
C329 C 0.12563 0.62877 0.79255 0.0
C330 C 0.11992 0.62742 0.76624 0.0
H331 H 0.10851 0.65186 0.63805 0.0
H332 H 0.10969 0.65559 0.68219 0.0
H333 H 0.08742 0.58679 0.72342 0.0
H334 H 0.17381 0.65015 0.83048 0.0
H335 H 0.16385 0.65003 0.78779 0.0
C336 C 0.54868 0.0984 0.99422 0.0
C337 C 0.5573 0.09728 0.01759 0.0
C338 C 0.53327 0.07743 0.9824 0.0
C339 C 0.49239 0.01404 0.9938 0.0
H340 H 0.50669 0.00379 0.92727 0.0
C341 C 0.45993 0.92031 0.95187 0.0
C342 C 0.45089 0.91692 0.9281 0.0
C343 C 0.4708 0.9433 0.96178 0.0
C344 C 0.50225 0.00655 0.94571 0.0
H345 H 0.55628 0.07337 0.04702 0.0
H346 H 0.5297 0.03693 0.02638 0.0
H347 H 0.52926 0.04264 0.94664 0.0
H348 H 0.44631 0.93501 0.89596 0.0
H349 H 0.46554 0.97537 0.91335 0.0
H350 H 0.46586 0.97777 0.9931 0.0
C351 C 0.53456 0.05398 0.01727 0.0
C352 C 0.51513 0.02878 0.95679 0.0
C353 C 0.54996 0.07487 0.02903 0.0
C354 C 0.45313 0.93706 0.91434 0.0
C355 C 0.46416 0.96014 0.92424 0.0
C356 C 0.47959 0.99185 0.98276 0.0
C357 C 0.52613 0.05501 0.99381 0.0
C358 C 0.51069 0.03254 0.98113 0.0
C359 C 0.47295 0.96342 0.94811 0.0
C360 C 0.48477 0.98773 0.95881 0.0
H361 H 0.55398 0.11543 0.98495 0.0
H362 H 0.5269 0.07875 0.96438 0.0
H363 H 0.48825 0.0166 0.01242 0.0
H364 H 0.45852 0.90518 0.96295 0.0
H365 H 0.47778 0.94535 0.98009 0.0
C366 C 0.43227 0.5206 0.4698 0.0
C367 C 0.41106 0.50632 0.482 0.0
C368 C 0.45454 0.52499 0.48006 0.0
C369 C 0.48113 0.49535 0.51995 0.0
H370 H 0.53899 0.55326 0.50934 0.0
C371 C 0.57227 0.49234 0.53056 0.0
C372 C 0.58679 0.50091 0.5099 0.0
C373 C 0.55313 0.49866 0.53488 0.0
C374 C 0.52299 0.53699 0.51256 0.0
H375 H 0.3961 0.48513 0.51408 0.0
H376 H 0.43508 0.49315 0.53246 0.0
H377 H 0.49978 0.55367 0.50226 0.0
H378 H 0.59415 0.52483 0.479 0.0
H379 H 0.56068 0.53543 0.4862 0.0
H380 H 0.5041 0.47823 0.52891 0.0
C381 C 0.4346 0.50115 0.51507 0.0
C382 C 0.50055 0.53723 0.50849 0.0
C383 C 0.41233 0.49679 0.50476 0.0
C384 C 0.58317 0.5177 0.49496 0.0
C385 C 0.56401 0.52394 0.49921 0.0
C386 C 0.50351 0.49509 0.52395 0.0
C387 C 0.45597 0.51486 0.50258 0.0
C388 C 0.47941 0.51616 0.51132 0.0
C389 C 0.54811 0.51364 0.51859 0.0
C390 C 0.52474 0.51566 0.51945 0.0
H391 H 0.43158 0.52777 0.452 0.0
H392 H 0.4706 0.53523 0.46973 0.0
H393 H 0.46526 0.47872 0.52205 0.0
H394 H 0.57477 0.47962 0.54263 0.0
H395 H 0.54152 0.49083 0.55027 0.0
C396 C 0.10097 0.54282 0.98361 0.0
C397 C 0.09659 0.55698 0.96587 0.0
C398 C 0.08206 0.52633 0.99718 0.0
C399 C 0.01639 0.49219 0.99635 0.0
H400 H 0.02269 0.4891 0.06614 0.0
C401 C 0.93479 0.44882 0.05824 0.0
C402 C 0.93593 0.43383 0.077 0.0
C403 C 0.9552 0.46253 0.04489 0.0
C404 C 0.0208 0.48953 0.04663 0.0
H405 H 0.06899 0.56497 0.94847 0.0
H406 H 0.0361 0.53638 0.97226 0.0
H407 H 0.05706 0.51546 0.04209 0.0
H408 H 0.95949 0.42173 0.09672 0.0
H409 H -0.00465 0.44587 0.07326 0.0
H410 H 0.98008 0.46662 0.00089 0.0
C411 C 0.05409 0.53779 0.97547 0.0
C412 C 0.04045 0.50459 0.03287 0.0
C413 C 0.07296 0.55429 0.96195 0.0
C414 C 0.95805 0.43312 0.08237 0.0
C415 C 0.97857 0.44696 0.06901 0.0
C416 C -0.0032 0.4772 0.01008 0.0
C417 C 0.05843 0.52363 0.99321 0.0
C418 C 0.03828 0.50637 0.00765 0.0
C419 C 0.97725 0.46161 0.04999 0.0
C420 C -0.00132 0.47604 0.03539 0.0
H421 H 0.119 0.54446 0.98704 0.0
H422 H 0.0859 0.51551 0.01061 0.0
H423 H 0.01435 0.49282 0.97688 0.0
H424 H 0.91806 0.44988 0.05368 0.0
H425 H 0.95375 0.47399 0.03062 0.0
C426 C 0.50652 0.07119 0.44974 0.0
C427 C 0.52607 0.08791 0.46274 0.0
C428 C 0.49559 0.04725 0.45719 0.0
C429 C 0.46821 0.00166 0.48665 0.0
H430 H 0.50911 0.96947 0.50291 0.0
C431 C 0.43341 0.91124 0.53637 0.0
C432 C 0.44003 0.89351 0.52686 0.0
C433 C 0.444 0.93471 0.52772 0.0
C434 C 0.49751 0.97821 0.49826 0.0
H435 H 0.54928 0.09276 0.4939 0.0
H436 H 0.53021 0.05094 0.50679 0.0
H437 H 0.52717 0.01131 0.48941 0.0
H438 H 0.46324 0.88659 0.50111 0.0
H439 H 0.48204 0.92794 0.48615 0.0
H440 H 0.43857 0.96865 0.49568 0.0
C441 C 0.52347 0.05636 0.4908 0.0
C442 C 0.50781 0.00215 0.49077 0.0
C443 C 0.53423 0.08032 0.48352 0.0
C444 C 0.45777 0.89986 0.50877 0.0
C445 C 0.46856 0.92348 0.50027 0.0
C446 C 0.45793 0.97782 0.49438 0.0
C447 C 0.50419 0.03958 0.47759 0.0
C448 C 0.49325 0.0141 0.48502 0.0
C449 C 0.46157 0.94103 0.50953 0.0
C450 C 0.4725 0.96594 0.50037 0.0
H451 H 0.49984 0.07651 0.43365 0.0
H452 H 0.48079 0.03462 0.44666 0.0
H453 H 0.45661 0.01052 0.48241 0.0
H454 H 0.41981 0.90696 0.55033 0.0
H455 H 0.43854 0.94798 0.53539 0.0
C456 C 0.42974 0.52704 0.94649 0.0
C457 C 0.43595 0.52534 0.92222 0.0
C458 C 0.4396 0.51873 0.96526 0.0
C459 C 0.45456 0.48866 0.00021 0.0
H460 H 0.52316 0.50688 0.99707 0.0
C461 C 0.50827 0.47496 0.0807 0.0
C462 C 0.52647 0.46746 0.075 0.0
C463 C 0.49662 0.48172 0.0623 0.0
C464 C 0.50394 0.50135 -0.00189 0.0
H465 H 0.45681 0.51292 0.89855 0.0
H466 H 0.47399 0.49841 0.93133 0.0
H467 H 0.50334 0.51808 0.96425 0.0
H468 H 0.54644 0.4608 0.0455 0.0
H469 H 0.5259 0.47208 0.01355 0.0
H470 H 0.45514 0.47175 0.03401 0.0
C471 C 0.46167 0.50639 0.93583 0.0
C472 C 0.49259 0.50779 0.97928 0.0
C473 C 0.45171 0.51457 0.91706 0.0
C474 C 0.53266 0.46671 0.05055 0.0
C475 C 0.52095 0.4733 0.03221 0.0
C476 C 0.4659 0.48207 0.01901 0.0
C477 C 0.45597 0.50868 0.96014 0.0
C478 C 0.46779 0.50148 0.98009 0.0
C479 C 0.50287 0.481 0.03783 0.0
C480 C 0.49073 0.4883 0.01814 0.0
H481 H 0.41761 0.53521 0.95108 0.0
H482 H 0.43499 0.52087 0.98383 0.0
H483 H 0.43538 0.4834 0.00122 0.0
H484 H 0.50313 0.47577 0.09938 0.0
H485 H 0.48297 0.48782 0.06728 0.0
C486 C 0.90455 0.39503 0.52081 0.0
C487 C 0.90672 0.38625 0.49777 0.0
C488 C 0.92217 0.41664 0.52934 0.0
C489 C 0.98413 0.46196 0.51898 0.0
H490 H 0.95935 0.50621 0.54489 0.0
C491 C 0.04415 0.56234 0.52999 0.0
C492 C 0.04244 0.57306 0.55207 0.0
C493 C 0.02719 0.53947 0.52387 0.0
C494 C 0.96655 0.49399 0.53794 0.0
H495 H 0.92982 0.39239 0.46629 0.0
H496 H 0.9605 0.43015 0.48113 0.0
H497 H 0.93168 0.46522 0.53476 0.0
H498 H 0.02096 0.56864 0.58454 0.0
H499 H 0.99131 0.5286 0.57384 0.0
H500 H 0.01899 0.49082 0.52193 0.0
C501 C 0.94522 0.42032 0.49264 0.0
C502 C 0.95073 0.47048 0.53222 0.0
C503 C 0.9276 0.3987 0.48411 0.0
C504 C 0.02276 0.56089 0.56738 0.0
C505 C 0.00577 0.53796 0.56125 0.0
C506 C -5e-05 0.48547 0.52469 0.0
C507 C 0.94232 0.42986 0.51502 0.0
C508 C 0.95934 0.45427 0.52253 0.0
C509 C 0.00814 0.52681 0.53969 0.0
C510 C 0.9913 0.50178 0.53403 0.0
H511 H 0.88877 0.38575 0.53189 0.0
H512 H 0.9197 0.42332 0.54688 0.0
H513 H 0.99131 0.4498 0.51181 0.0
H514 H 0.05901 0.57131 0.51769 0.0
H515 H 0.02918 0.53154 0.50688 0.0
C516 C 0.54882 0.19393 0.06867 0.0
C517 C 0.57212 0.19534 0.06521 0.0
C518 C 0.54486 0.21484 0.06983 0.0
C519 C 0.57597 0.27804 0.08641 0.0
H520 H 0.52431 0.28648 0.05297 0.0
C521 C 0.55491 0.35918 0.10594 0.0
C522 C 0.55371 0.3722 0.08539 0.0
C523 C 0.55416 0.33618 0.10347 0.0
C524 C 0.53879 0.28431 0.0624 0.0
H525 H 0.60939 0.21974 0.05942 0.0
H526 H 0.60246 0.25611 0.0616 0.0
H527 H 0.5296 0.24916 0.04744 0.0
H528 H 0.54932 0.37069 0.04628 0.0
H529 H 0.54795 0.33038 0.04202 0.0
H530 H 0.58533 0.31308 0.10126 0.0
C531 C 0.58731 0.23886 0.06358 0.0
C532 C 0.54173 0.26297 0.05935 0.0
C533 C 0.59124 0.21801 0.06221 0.0
C534 C 0.5504 0.36117 0.06245 0.0
C535 C 0.5495 0.33806 0.06001 0.0
C536 C 0.57288 0.29918 0.08966 0.0
C537 C 0.56416 0.23751 0.06778 0.0
C538 C 0.5605 0.25977 0.07117 0.0
C539 C 0.55204 0.32563 0.08043 0.0
C540 C 0.55435 0.3026 0.07761 0.0
H541 H 0.5337 0.17672 0.07097 0.0
H542 H 0.52685 0.21332 0.07318 0.0
H543 H 0.59042 0.27593 0.09596 0.0
H544 H 0.55729 0.36706 0.1239 0.0
H545 H 0.5558 0.32684 0.11956 0.0
C546 C 0.29535 0.52503 0.55479 0.0
C547 C 0.30766 0.52765 0.53271 0.0
C548 C 0.27534 0.53041 0.55638 0.0
C549 C 0.22981 0.54043 0.51935 0.0
H550 H 0.22553 0.57653 0.5757 0.0
C551 C 0.17694 0.60126 0.55284 0.0
C552 C 0.15333 0.58624 0.54596 0.0
C553 C 0.19516 0.59322 0.55116 0.0
C554 C 0.22655 0.56659 0.55978 0.0
H555 H 0.30831 0.53751 0.49483 0.0
H556 H 0.27367 0.54722 0.4977 0.0
H557 H 0.2581 0.56367 0.57276 0.0
H558 H 0.13039 0.55104 0.53174 0.0
H559 H 0.16218 0.53698 0.52896 0.0
H560 H 0.1986 0.54396 0.50608 0.0
C561 C 0.27924 0.54068 0.51373 0.0
C562 C 0.24504 0.55893 0.55824 0.0
C563 C 0.29919 0.53522 0.51212 0.0
C564 C 0.1484 0.56308 0.53716 0.0
C565 C 0.16663 0.55505 0.53545 0.0
C566 C 0.2113 0.5481 0.5209 0.0
C567 C 0.26725 0.53862 0.53594 0.0
C568 C 0.24697 0.54586 0.53795 0.0
C569 C 0.1902 0.56999 0.54254 0.0
C570 C 0.20955 0.56139 0.54106 0.0
H571 H 0.30133 0.5191 0.57096 0.0
H572 H 0.26627 0.52826 0.57367 0.0
H573 H 0.23065 0.5302 0.50359 0.0
H574 H 0.18137 0.61923 0.55963 0.0
H575 H 0.2132 0.60531 0.55642 0.0
C576 C 0.84535 0.30825 0.07339 0.0
C577 C 0.8423 0.32903 0.06698 0.0
C578 C 0.83027 0.28593 0.06367 0.0
C579 C 0.78336 0.25559 0.01728 0.0
H580 H 0.75031 0.21335 0.07035 0.0
C581 C 0.68301 0.19735 0.0166 0.0
C582 C 0.67312 0.17755 0.03222 0.0
C583 C 0.70783 0.21035 0.01513 0.0
C584 C 0.75961 0.22436 0.05506 0.0
H585 H 0.82252 0.34309 0.04388 0.0
H586 H 0.79627 0.30426 0.027 0.0
H587 H 0.78809 0.2473 0.07787 0.0
H588 H 0.68141 0.15415 0.05641 0.0
H589 H 0.72481 0.17638 0.05324 0.0
H590 H 0.75431 0.23311 0.99465 0.0
C591 C 0.81026 0.30513 0.03948 0.0
C592 C 0.78135 0.24396 0.05944 0.0
C593 C 0.82514 0.32736 0.04936 0.0
C594 C 0.68854 0.16963 0.04456 0.0
C595 C 0.71341 0.18244 0.0428 0.0
C596 C 0.76169 0.23579 0.01281 0.0
C597 C 0.81211 0.28409 0.04717 0.0
C598 C 0.79284 0.2604 0.04087 0.0
C599 C 0.72333 0.20363 0.029 0.0
C600 C 0.74895 0.22064 0.03193 0.0
H601 H 0.85853 0.30899 0.08682 0.0
H602 H 0.83214 0.26999 0.0698 0.0
H603 H 0.79207 0.26783 0.00257 0.0
H604 H 0.6716 0.20383 0.00675 0.0
H605 H 0.71467 0.22665 0.00445 0.0
C606 C 0.40792 0.76833 0.52475 0.0
C607 C 0.42225 0.78149 0.54418 0.0
C608 C 0.4108 0.74852 0.51522 0.0
C609 C 0.43038 0.70226 0.53357 0.0
H610 H 0.42276 0.68557 0.46523 0.0
C611 C 0.42154 0.60967 0.50224 0.0
C612 C 0.40206 0.59771 0.48661 0.0
C613 C 0.43002 0.63444 0.506 0.0
C614 C 0.42491 0.68997 0.48438 0.0
H615 H 0.45145 0.78469 0.56822 0.0
H616 H 0.45639 0.75 0.55157 0.0
H617 H 0.42619 0.72506 0.47828 0.0
H618 H 0.3774 0.60266 0.46129 0.0
H619 H 0.39182 0.6456 0.46817 0.0
H620 H 0.42803 0.66696 0.53992 0.0
C621 C 0.44283 0.75495 0.54387 0.0
C622 C 0.42688 0.71257 0.49183 0.0
C623 C 0.44003 0.77486 0.55334 0.0
C624 C 0.39238 0.61129 0.47353 0.0
C625 C 0.40077 0.63601 0.47738 0.0
C626 C 0.4283 0.67966 0.52615 0.0
C627 C 0.428 0.74136 0.52494 0.0
C628 C 0.42907 0.71874 0.51657 0.0
C629 C 0.41914 0.64775 0.49429 0.0
C630 C 0.42497 0.673 0.50152 0.0
H631 H 0.39411 0.77301 0.51721 0.0
H632 H 0.39889 0.73826 0.50084 0.0
H633 H 0.43175 0.70634 0.55279 0.0
H634 H 0.42958 0.59976 0.51239 0.0
H635 H 0.44455 0.64301 0.51875 0.0
C636 C 0.65584 0.46272 0.08886 0.0
C637 C 0.65102 0.47126 0.11103 0.0
C638 C 0.67823 0.46251 0.08456 0.0
C639 C 0.72735 0.45822 0.1187 0.0
H640 H 0.75838 0.46755 0.05583 0.0
C641 C 0.81158 0.44056 0.10466 0.0
C642 C 0.81184 0.42746 0.08377 0.0
C643 C 0.79469 0.45025 0.10719 0.0
C644 C 0.74985 0.46477 0.07347 0.0
H645 H 0.6665 0.48785 0.14537 0.0
H646 H 0.70565 0.48765 0.13775 0.0
H647 H 0.72411 0.47773 0.06149 0.0
H648 H 0.79504 0.41489 0.04881 0.0
H649 H 0.76524 0.43136 0.05344 0.0
H650 H 0.75243 0.44455 0.13054 0.0
C651 C 0.69194 0.48072 0.12388 0.0
C652 C 0.73028 0.47066 0.07672 0.0
C653 C 0.66955 0.48095 0.12819 0.0
C654 C 0.79531 0.42488 0.06514 0.0
C655 C 0.77832 0.43448 0.06773 0.0
C656 C 0.74684 0.45229 0.11544 0.0
C657 C 0.69629 0.47084 0.10232 0.0
C658 C 0.71861 0.46713 0.0993 0.0
C659 C 0.77757 0.44696 0.08895 0.0
C660 C 0.75812 0.45517 0.09271 0.0
H661 H 0.64199 0.4552 0.0752 0.0
H662 H 0.68092 0.45463 0.06784 0.0
H663 H 0.71851 0.45484 0.13619 0.0
H664 H 0.82423 0.44309 0.11927 0.0
H665 H 0.79488 0.46013 0.12359 0.0
C666 C 0.13879 0.72197 0.55748 0.0
C667 C 0.13528 0.70152 0.54355 0.0
C668 C 0.15793 0.74395 0.55235 0.0
C669 C 0.20957 0.77472 0.51011 0.0
H670 H 0.24582 0.7908 0.57008 0.0
C671 C 0.31102 0.80289 0.51415 0.0
C672 C 0.32424 0.81655 0.53385 0.0
C673 C 0.28642 0.79683 0.51238 0.0
C674 C 0.23598 0.78723 0.55316 0.0
H675 H 0.14685 0.68879 0.51134 0.0
H676 H 0.18025 0.7268 0.50264 0.0
H677 H 0.20315 0.76653 0.57133 0.0
H678 H 0.32266 0.83641 0.56595 0.0
H679 H 0.27995 0.82646 0.56249 0.0
H680 H 0.24289 0.79454 0.4919 0.0
C681 C 0.16843 0.72607 0.51755 0.0
C682 C 0.21133 0.77325 0.5539 0.0
C683 C 0.14936 0.70414 0.52269 0.0
C684 C 0.3128 0.82544 0.55081 0.0
C685 C 0.28832 0.81971 0.54884 0.0
C686 C 0.23431 0.78887 0.50937 0.0
C687 C 0.17378 0.74581 0.53318 0.0
C688 C 0.19802 0.76591 0.53234 0.0
C689 C 0.27463 0.80459 0.53011 0.0
C690 C 0.24796 0.79437 0.53084 0.0
H691 H 0.12802 0.72062 0.57349 0.0
H692 H 0.16135 0.75901 0.56443 0.0
H693 H 0.19972 0.76962 0.49321 0.0
H694 H 0.3194 0.79587 0.50076 0.0
H695 H 0.27648 0.78492 0.49786 0.0
C696 C 0.8282 0.41177 0.4407 0.0
C697 C 0.82447 0.39021 0.4526 0.0
C698 C 0.8139 0.42397 0.44612 0.0
C699 C 0.7741 0.4306 0.49296 0.0
H700 H 0.7455 0.45034 0.43941 0.0
C701 C 0.6908 0.45075 0.50394 0.0
C702 C 0.6876 0.46724 0.48824 0.0
C703 C 0.71071 0.44533 0.5015 0.0
C704 C 0.75372 0.44547 0.45463 0.0
H705 H 0.80303 0.36473 0.47979 0.0
H706 H 0.77812 0.38608 0.48927 0.0
H707 H 0.77397 0.43292 0.43117 0.0
H708 H 0.70376 0.49238 0.4589 0.0
H709 H 0.73887 0.4834 0.45509 0.0
H710 H 0.75376 0.44299 0.51645 0.0
C711 C 0.79217 0.39358 0.47582 0.0
C712 C 0.76997 0.43537 0.44987 0.0
C713 C 0.80632 0.38126 0.47024 0.0
C714 C 0.70558 0.47941 0.47114 0.0
C715 C 0.72561 0.47411 0.46882 0.0
C716 C 0.75799 0.4409 0.49775 0.0
C717 C 0.79574 0.41499 0.46373 0.0
C718 C 0.77999 0.42744 0.46895 0.0
C719 C 0.72802 0.45642 0.48345 0.0
C720 C 0.74724 0.44806 0.47863 0.0
H721 H 0.84207 0.41917 0.42705 0.0
H722 H 0.81714 0.44051 0.43663 0.0
H723 H 0.78185 0.42498 0.50804 0.0
H724 H 0.67731 0.44105 0.51733 0.0
H725 H 0.71179 0.43147 0.51296 0.0
C726 C 0.33133 0.83347 0.94029 0.0
C727 C 0.34928 0.82578 0.94643 0.0
C728 C 0.30771 0.82055 0.9481 0.0
C729 C 0.26876 0.77139 0.98876 0.0
H730 H 0.22718 0.75101 0.93253 0.0
C731 C 0.19669 0.67653 0.97718 0.0
C732 C 0.17777 0.67192 0.96077 0.0
C733 C 0.21314 0.70006 0.98178 0.0
C734 C 0.23809 0.75687 0.94872 0.0
H735 H 0.35699 0.79971 0.96714 0.0
H736 H 0.31586 0.77715 0.98062 0.0
H737 H 0.26559 0.78514 0.92934 0.0
H738 H 0.15956 0.68836 0.93851 0.0
H739 H 0.18788 0.72952 0.9471 0.0
H740 H 0.24158 0.74239 0.00787 0.0
C741 C 0.31997 0.79317 0.96986 0.0
C742 C 0.26025 0.77651 0.94683 0.0
C743 C 0.34351 0.80595 0.96191 0.0
C744 C 0.17426 0.69136 0.95089 0.0
C745 C 0.19054 0.71494 0.95576 0.0
C746 C 0.24644 0.75183 0.99075 0.0
C747 C 0.30168 0.79986 0.96238 0.0
C748 C 0.27626 0.78326 0.96648 0.0
C749 C 0.21085 0.71952 0.97029 0.0
C750 C 0.23135 0.74361 0.97038 0.0
H751 H 0.33525 0.8488 0.92854 0.0
H752 H 0.29398 0.82618 0.94221 0.0
H753 H 0.28065 0.77648 0.00431 0.0
H754 H 0.19981 0.66194 0.9852 0.0
H755 H 0.2286 0.70276 0.99292 0.0
C756 C 0.53352 0.21504 0.44028 0.0
C757 C 0.54901 0.20908 0.45491 0.0
C758 C 0.53068 0.23626 0.44438 0.0
C759 C 0.54403 0.28653 0.48867 0.0
H760 H 0.54712 0.32347 0.43071 0.0
C761 C 0.58239 0.38964 0.4861 0.0
C762 C 0.57199 0.40071 0.47039 0.0
C763 C 0.57375 0.36465 0.48692 0.0
C764 C 0.54574 0.31323 0.44709 0.0
H765 H 0.57293 0.22026 0.48593 0.0
H766 H 0.5685 0.25744 0.49268 0.0
H767 H 0.54271 0.28228 0.4269 0.0
H768 H 0.54352 0.39421 0.44424 0.0
H769 H 0.52853 0.35046 0.44559 0.0
H770 H 0.54833 0.31811 0.50874 0.0
C771 C 0.55816 0.24559 0.4783 0.0
C772 C 0.54318 0.28955 0.44492 0.0
C773 C 0.56086 0.2243 0.47431 0.0
C774 C 0.55195 0.38623 0.45649 0.0
C775 C 0.54344 0.3612 0.45715 0.0
C776 C 0.54678 0.3103 0.49082 0.0
C777 C 0.54339 0.25208 0.46311 0.0
C778 C 0.54286 0.27607 0.46566 0.0
C779 C 0.55463 0.35019 0.47194 0.0
C780 C 0.5482 0.32406 0.47003 0.0
H781 H 0.52395 0.20355 0.42532 0.0
H782 H 0.51883 0.24048 0.4326 0.0
H783 H 0.54336 0.27652 0.50503 0.0
H784 H 0.59779 0.40031 0.49713 0.0
H785 H 0.58289 0.35672 0.49835 0.0
C786 C 0.20475 0.58665 0.91347 0.0
C787 C 0.18443 0.5758 0.8986 0.0
C788 C 0.22408 0.58029 0.91137 0.0
C789 C 0.24211 0.53371 0.88679 0.0
H790 H 0.30576 0.58568 0.88883 0.0
C791 C 0.32983 0.5186 0.88501 0.0
C792 C 0.34895 0.53505 0.87134 0.0
C793 C 0.30898 0.52231 0.88868 0.0
C794 C 0.28811 0.57096 0.88804 0.0
H795 H 0.16831 0.54945 0.87014 0.0
H796 H 0.20227 0.53867 0.86615 0.0
H797 H 0.27087 0.5944 0.89465 0.0
H798 H 0.3608 0.56773 0.84998 0.0
H799 H 0.3245 0.57388 0.85601 0.0
H800 H 0.25951 0.51039 0.87944 0.0
C801 C 0.2031 0.55184 0.8797 0.0
C802 C 0.2681 0.57592 0.89171 0.0
C803 C 0.1837 0.55814 0.88187 0.0
C804 C 0.34653 0.55484 0.86086 0.0
C805 C 0.32575 0.55847 0.86443 0.0
C806 C 0.2622 0.52874 0.88307 0.0
C807 C 0.22362 0.56302 0.89426 0.0
C808 C 0.24484 0.5574 0.89103 0.0
C809 C 0.30687 0.54249 0.8787 0.0
C810 C 0.28542 0.54736 0.88345 0.0
H811 H 0.2058 0.60017 0.92671 0.0
H812 H 0.23942 0.58895 0.92316 0.0
H813 H 0.22444 0.519 0.8864 0.0
H814 H 0.33117 0.5032 0.89334 0.0
H815 H 0.2948 0.50973 0.89987 0.0
C816 C 0.64067 0.14237 0.42655 0.0
C817 C 0.62543 0.15161 0.43728 0.0
C818 C 0.66427 0.14975 0.43473 0.0
C819 C 0.7061 0.18146 0.48464 0.0
H820 H 0.7518 0.21031 0.43281 0.0
C821 C 0.78916 0.26849 0.49564 0.0
C822 C 0.8085 0.27437 0.47948 0.0
C823 C 0.76983 0.24601 0.49453 0.0
C824 C 0.73958 0.20179 0.44759 0.0
H825 H 0.62242 0.17464 0.46588 0.0
H826 H 0.66349 0.18747 0.48008 0.0
H827 H 0.71074 0.18365 0.42296 0.0
H828 H 0.82414 0.26031 0.4515 0.0
H829 H 0.79054 0.22084 0.44989 0.0
H830 H 0.73474 0.20048 0.50928 0.0
C831 C 0.65726 0.1745 0.46543 0.0
C832 C 0.71593 0.18651 0.44188 0.0
C833 C 0.63381 0.16736 0.4571 0.0
C834 C 0.80929 0.25646 0.46394 0.0
C835 C 0.78999 0.23387 0.46293 0.0
C836 C 0.72984 0.19659 0.49038 0.0
C837 C 0.6729 0.16621 0.45399 0.0
C838 C 0.69872 0.17715 0.46031 0.0
C839 C 0.76949 0.22884 0.47734 0.0
C840 C 0.74655 0.20791 0.47188 0.0
H841 H 0.63466 0.13011 0.4113 0.0
H842 H 0.67596 0.14306 0.42563 0.0
H843 H 0.69324 0.17412 0.4992 0.0
H844 H 0.78809 0.28179 0.50803 0.0
H845 H 0.75436 0.24293 0.50584 0.0
C846 C 0.48311 0.63333 0.90133 0.0
C847 C 0.47001 0.62367 0.88003 0.0
C848 C 0.48741 0.65664 0.90881 0.0
C849 C 0.4832 0.71305 0.88921 0.0
H850 H 0.46325 0.71493 0.95569 0.0
C851 C 0.46407 0.79205 0.92342 0.0
C852 C 0.44184 0.78498 0.93528 0.0
C853 C 0.47428 0.77566 0.91988 0.0
C854 C 0.46899 0.71476 0.93712 0.0
H855 H 0.45282 0.63149 0.84892 0.0
H856 H 0.46012 0.67184 0.86196 0.0
H857 H 0.46981 0.68041 0.9415 0.0
H858 H 0.41366 0.75562 0.95403 0.0
H859 H 0.43118 0.72701 0.94752 0.0
H860 H 0.48077 0.74658 0.88433 0.0
C861 C 0.46719 0.6616 0.87291 0.0
C862 C 0.47306 0.6951 0.92906 0.0
C863 C 0.46284 0.63834 0.8655 0.0
C864 C 0.43075 0.76163 0.94474 0.0
C865 C 0.44092 0.74525 0.94116 0.0
C866 C 0.47907 0.73266 0.89725 0.0
C867 C 0.47883 0.67074 0.89504 0.0
C868 C 0.47937 0.69363 0.90476 0.0
C869 C 0.46248 0.75187 0.92812 0.0
C870 C 0.4711 0.73334 0.92106 0.0
H871 H 0.48898 0.62252 0.91288 0.0
H872 H 0.4967 0.66331 0.92579 0.0
H873 H 0.48839 0.7126 0.87048 0.0
H874 H 0.4732 0.80999 0.9161 0.0
H875 H 0.49109 0.78143 0.9101 0.0
loop_
_geom_bond_atom_site_label_1
_geom_bond_atom_site_label_2
_geom_bond_distance
_geom_bond_site_symmetry_2
_ccdc_geom_bond_type
C0 O1 1.160 . S
C0 O7 1.185 . S
O1 C0 1.160 . S
O2 Zn3 1.899 . S
O2 C10 1.284 . S
Zn3 O2 1.899 . S
Zn3 O4 2.032 . S
Zn3 O7 2.086 . S
Zn3 O12 1.977 . S
O4 Zn3 2.032 . S
O4 C8 1.278 . S
C5 O6 1.203 . S
C5 O12 1.267 . S
O6 C5 1.203 . S
O7 C0 1.185 . S
O7 Zn3 2.086 . S
C8 O4 1.278 . S
C8 O9 1.211 . S
O9 C8 1.211 . S
C10 O2 1.284 . S
C10 O11 1.273 . S
O11 C10 1.273 . S
O12 Zn3 1.977 . S
O12 C5 1.267 . S
C13 O14 1.160 . S
C13 O20 1.185 . S
O14 C13 1.160 . S
O15 Zn16 1.899 . S
O15 C23 1.284 . S
Zn16 O15 1.899 . S
Zn16 O17 2.032 . S
Zn16 O20 2.086 . S
Zn16 O25 1.977 . S
O17 Zn16 2.032 . S
O17 C21 1.278 . S
C18 O19 1.203 . S
C18 O25 1.267 . S
O19 C18 1.203 . S
O20 C13 1.185 . S
O20 Zn16 2.086 . S
C21 O17 1.278 . S
C21 O22 1.211 . S
O22 C21 1.211 . S
C23 O15 1.284 . S
C23 O24 1.273 . S
O24 C23 1.273 . S
O25 Zn16 1.977 . S
O25 C18 1.267 . S
C26 O27 1.160 . S
C26 O33 1.185 . S
O27 C26 1.160 . S
O28 Zn29 1.899 . S
O28 C36 1.284 . S
Zn29 O28 1.899 . S
Zn29 O30 2.032 . S
Zn29 O33 2.086 . S
Zn29 O38 1.977 . S
O30 Zn29 2.032 . S
O30 C34 1.278 . S
C31 O32 1.203 . S
C31 O38 1.267 . S
O32 C31 1.203 . S
O33 C26 1.185 . S
O33 Zn29 2.086 . S
C34 O30 1.278 . S
C34 O35 1.211 . S
O35 C34 1.211 . S
C36 O28 1.284 . S
C36 O37 1.273 . S
O37 C36 1.273 . S
O38 Zn29 1.977 . S
O38 C31 1.267 . S
C39 O40 1.160 . S
C39 O46 1.185 . S
O40 C39 1.160 . S
O41 Zn42 1.899 . S
O41 C49 1.284 . S
Zn42 O41 1.899 . S
Zn42 O43 2.032 . S
Zn42 O46 2.086 . S
Zn42 O51 1.977 . S
O43 Zn42 2.032 . S
O43 C47 1.278 . S
C44 O45 1.203 . S
C44 O51 1.267 . S
O45 C44 1.203 . S
O46 C39 1.185 . S
O46 Zn42 2.086 . S
C47 O43 1.278 . S
C47 O48 1.211 . S
O48 C47 1.211 . S
C49 O41 1.284 . S
C49 O50 1.273 . S
O50 C49 1.273 . S
O51 Zn42 1.977 . S
O51 C44 1.267 . S
C52 O53 1.160 . S
C52 O59 1.185 . S
O53 C52 1.160 . S
O54 Zn55 1.899 . S
O54 C62 1.284 . S
Zn55 O54 1.899 . S
Zn55 O56 2.032 . S
Zn55 O59 2.086 . S
Zn55 O64 1.977 . S
O56 Zn55 2.032 . S
O56 C60 1.278 . S
C57 O58 1.203 . S
C57 O64 1.267 . S
O58 C57 1.203 . S
O59 C52 1.185 . S
O59 Zn55 2.086 . S
C60 O56 1.278 . S
C60 O61 1.211 . S
O61 C60 1.211 . S
C62 O54 1.284 . S
C62 O63 1.273 . S
O63 C62 1.273 . S
O64 Zn55 1.977 . S
O64 C57 1.267 . S
C65 O66 1.160 . S
C65 O72 1.185 . S
O66 C65 1.160 . S
O67 Zn68 1.899 . S
O67 C75 1.284 . S
Zn68 O67 1.899 . S
Zn68 O69 2.032 . S
Zn68 O72 2.086 . S
Zn68 O77 1.977 . S
O69 Zn68 2.032 . S
O69 C73 1.278 . S
C70 O71 1.203 . S
C70 O77 1.267 . S
O71 C70 1.203 . S
O72 C65 1.185 . S
O72 Zn68 2.086 . S
C73 O69 1.278 . S
C73 O74 1.211 . S
O74 C73 1.211 . S
C75 O67 1.284 . S
C75 O76 1.273 . S
O76 C75 1.273 . S
O77 Zn68 1.977 . S
O77 C70 1.267 . S
C78 O79 1.160 . S
C78 O85 1.185 . S
O79 C78 1.160 . S
O80 Zn81 1.899 . S
O80 C88 1.284 . S
Zn81 O80 1.899 . S
Zn81 O82 2.032 . S
Zn81 O85 2.086 . S
Zn81 O90 1.977 . S
O82 Zn81 2.032 . S
O82 C86 1.278 . S
C83 O84 1.203 . S
C83 O90 1.267 . S
O84 C83 1.203 . S
O85 C78 1.185 . S
O85 Zn81 2.086 . S
C86 O82 1.278 . S
C86 O87 1.211 . S
O87 C86 1.211 . S
C88 O80 1.284 . S
C88 O89 1.273 . S
O89 C88 1.273 . S
O90 Zn81 1.977 . S
O90 C83 1.267 . S
C91 O92 1.160 . S
C91 O98 1.185 . S
O92 C91 1.160 . S
O93 Zn94 1.899 . S
O93 C101 1.284 . S
Zn94 O93 1.899 . S
Zn94 O95 2.032 . S
Zn94 O98 2.086 . S
Zn94 O103 1.977 . S
O95 Zn94 2.032 . S
O95 C99 1.278 . S
C96 O97 1.203 . S
C96 O103 1.267 . S
O97 C96 1.203 . S
O98 C91 1.185 . S
O98 Zn94 2.086 . S
C99 O95 1.278 . S
C99 O100 1.211 . S
O100 C99 1.211 . S
C101 O93 1.284 . S
C101 O102 1.273 . S
O102 C101 1.273 . S
O103 Zn94 1.977 . S
O103 C96 1.267 . S
C104 O105 1.160 . S
C104 O111 1.185 . S
O105 C104 1.160 . S
O106 Zn107 1.899 . S
O106 C114 1.284 . S
Zn107 O106 1.899 . S
Zn107 O108 2.032 . S
Zn107 O111 2.086 . S
Zn107 O116 1.977 . S
O108 Zn107 2.032 . S
O108 C112 1.278 . S
C109 O110 1.203 . S
C109 O116 1.267 . S
O110 C109 1.203 . S
O111 C104 1.185 . S
O111 Zn107 2.086 . S
C112 O108 1.278 . S
C112 O113 1.211 . S
O113 C112 1.211 . S
C114 O106 1.284 . S
C114 O115 1.273 . S
O115 C114 1.273 . S
O116 Zn107 1.977 . S
O116 C109 1.267 . S
C117 O118 1.160 . S
C117 O124 1.185 . S
O118 C117 1.160 . S
O119 Zn120 1.899 . S
O119 C127 1.284 . S
Zn120 O119 1.899 . S
Zn120 O121 2.032 . S
Zn120 O124 2.086 . S
Zn120 O129 1.977 . S
O121 Zn120 2.032 . S
O121 C125 1.278 . S
C122 O123 1.203 . S
C122 O129 1.267 . S
O123 C122 1.203 . S
O124 C117 1.185 . S
O124 Zn120 2.086 . S
C125 O121 1.278 . S
C125 O126 1.211 . S
O126 C125 1.211 . S
C127 O119 1.284 . S
C127 O128 1.273 . S
O128 C127 1.273 . S
O129 Zn120 1.977 . S
O129 C122 1.267 . S
C130 O131 1.160 . S
C130 O137 1.185 . S
O131 C130 1.160 . S
O132 Zn133 1.899 . S
O132 C140 1.284 . S
Zn133 O132 1.899 . S
Zn133 O134 2.032 . S
Zn133 O137 2.086 . S
Zn133 O142 1.977 . S
O134 Zn133 2.032 . S
O134 C138 1.278 . S
C135 O136 1.203 . S
C135 O142 1.267 . S
O136 C135 1.203 . S
O137 C130 1.185 . S
O137 Zn133 2.086 . S
C138 O134 1.278 . S
C138 O139 1.211 . S
O139 C138 1.211 . S
C140 O132 1.284 . S
C140 O141 1.273 . S
O141 C140 1.273 . S
O142 Zn133 1.977 . S
O142 C135 1.267 . S
C143 O144 1.160 . S
C143 O150 1.185 . S
O144 C143 1.160 . S
O145 Zn146 1.899 . S
O145 C153 1.284 . S
Zn146 O145 1.899 . S
Zn146 O147 2.032 . S
Zn146 O150 2.086 . S
Zn146 O155 1.977 . S
O147 Zn146 2.032 . S
O147 C151 1.278 . S
C148 O149 1.203 . S
C148 O155 1.267 . S
O149 C148 1.203 . S
O150 C143 1.185 . S
O150 Zn146 2.086 . S
C151 O147 1.278 . S
C151 O152 1.211 . S
O152 C151 1.211 . S
C153 O145 1.284 . S
C153 O154 1.273 . S
O154 C153 1.273 . S
O155 Zn146 1.977 . S
O155 C148 1.267 . S
C156 C157 1.349 . S
C156 C158 1.327 . S
C156 H181 0.950 . S
C157 C156 1.349 . S
C157 C173 1.349 . S
C158 C156 1.327 . S
C158 C177 1.429 . S
C158 H182 0.950 . S
C159 C176 1.574 . S
C159 C178 1.368 . S
C159 H183 0.949 . S
H160 C164 0.949 . S
C161 C162 1.349 . S
C161 C163 1.327 . S
C161 H184 0.950 . S
C162 C161 1.349 . S
C162 C174 1.349 . S
C163 C161 1.327 . S
C163 C179 1.429 . S
C163 H185 0.950 . S
C164 H160 0.949 . S
C164 C172 1.574 . S
C164 C180 1.368 . S
H165 C173 0.950 . S
H166 C171 0.950 . S
H167 C172 0.949 . S
H168 C174 0.950 . S
H169 C175 0.950 . S
H170 C176 0.949 . S
C171 H166 0.950 . S
C171 C173 1.327 . S
C171 C177 1.429 . S
C172 C164 1.574 . S
C172 H167 0.949 . S
C172 C178 1.368 . S
C173 C157 1.349 . S
C173 H165 0.950 . S
C173 C171 1.327 . S
C174 C162 1.349 . S
C174 H168 0.950 . S
C174 C175 1.327 . S
C175 H169 0.950 . S
C175 C174 1.327 . S
C175 C179 1.429 . S
C176 C159 1.574 . S
C176 H170 0.949 . S
C176 C180 1.368 . S
C177 C158 1.429 . S
C177 C171 1.429 . S
C177 C178 1.523 . S
C178 C159 1.368 . S
C178 C172 1.368 . S
C178 C177 1.523 . S
C179 C163 1.429 . S
C179 C175 1.429 . S
C179 C180 1.523 . S
C180 C164 1.368 . S
C180 C176 1.368 . S
C180 C179 1.523 . S
H181 C156 0.950 . S
H182 C158 0.950 . S
H183 C159 0.949 . S
H184 C161 0.950 . S
H185 C163 0.950 . S
C186 C187 1.349 . S
C186 C188 1.327 . S
C186 H211 0.950 . S
C187 C186 1.349 . S
C187 C203 1.349 . S
C188 C186 1.327 . S
C188 C207 1.429 . S
C188 H212 0.950 . S
C189 C206 1.574 . S
C189 C208 1.368 . S
C189 H213 0.949 . S
H190 C194 0.949 . S
C191 C192 1.349 . S
C191 C193 1.327 . S
C191 H214 0.950 . S
C192 C191 1.349 . S
C192 C204 1.349 . S
C193 C191 1.327 . S
C193 C209 1.429 . S
C193 H215 0.950 . S
C194 H190 0.949 . S
C194 C202 1.574 . S
C194 C210 1.368 . S
H195 C203 0.950 . S
H196 C201 0.950 . S
H197 C202 0.949 . S
H198 C204 0.950 . S
H199 C205 0.950 . S
H200 C206 0.949 . S
C201 H196 0.950 . S
C201 C203 1.327 . S
C201 C207 1.429 . S
C202 C194 1.574 . S
C202 H197 0.949 . S
C202 C208 1.368 . S
C203 C187 1.349 . S
C203 H195 0.950 . S
C203 C201 1.327 . S
C204 C192 1.349 . S
C204 H198 0.950 . S
C204 C205 1.327 . S
C205 H199 0.950 . S
C205 C204 1.327 . S
C205 C209 1.429 . S
C206 C189 1.574 . S
C206 H200 0.949 . S
C206 C210 1.368 . S
C207 C188 1.429 . S
C207 C201 1.429 . S
C207 C208 1.523 . S
C208 C189 1.368 . S
C208 C202 1.368 . S
C208 C207 1.523 . S
C209 C193 1.429 . S
C209 C205 1.429 . S
C209 C210 1.523 . S
C210 C194 1.368 . S
C210 C206 1.368 . S
C210 C209 1.523 . S
H211 C186 0.950 . S
H212 C188 0.950 . S
H213 C189 0.949 . S
H214 C191 0.950 . S
H215 C193 0.950 . S
C216 C217 1.349 . S
C216 C218 1.327 . S
C216 H241 0.950 . S
C217 C216 1.349 . S
C217 C233 1.349 . S
C218 C216 1.327 . S
C218 C237 1.429 . S
C218 H242 0.950 . S
C219 C236 1.574 . S
C219 C238 1.368 . S
C219 H243 0.949 . S
H220 C224 0.949 . S
C221 C222 1.349 . S
C221 C223 1.327 . S
C221 H244 0.950 . S
C222 C221 1.349 . S
C222 C234 1.349 . S
C223 C221 1.327 . S
C223 C239 1.429 . S
C223 H245 0.950 . S
C224 H220 0.949 . S
C224 C232 1.574 . S
C224 C240 1.368 . S
H225 C233 0.950 . S
H226 C231 0.950 . S
H227 C232 0.949 . S
H228 C234 0.950 . S
H229 C235 0.950 . S
H230 C236 0.949 . S
C231 H226 0.950 . S
C231 C233 1.327 . S
C231 C237 1.429 . S
C232 C224 1.574 . S
C232 H227 0.949 . S
C232 C238 1.368 . S
C233 C217 1.349 . S
C233 H225 0.950 . S
C233 C231 1.327 . S
C234 C222 1.349 . S
C234 H228 0.950 . S
C234 C235 1.327 . S
C235 H229 0.950 . S
C235 C234 1.327 . S
C235 C239 1.429 . S
C236 C219 1.574 . S
C236 H230 0.949 . S
C236 C240 1.368 . S
C237 C218 1.429 . S
C237 C231 1.429 . S
C237 C238 1.523 . S
C238 C219 1.368 . S
C238 C232 1.368 . S
C238 C237 1.523 . S
C239 C223 1.429 . S
C239 C235 1.429 . S
C239 C240 1.523 . S
C240 C224 1.368 . S
C240 C236 1.368 . S
C240 C239 1.523 . S
H241 C216 0.950 . S
H242 C218 0.950 . S
H243 C219 0.949 . S
H244 C221 0.950 . S
H245 C223 0.950 . S
C246 C247 1.349 . S
C246 C248 1.327 . S
C246 H271 0.950 . S
C247 C246 1.349 . S
C247 C263 1.349 . S
C248 C246 1.327 . S
C248 C267 1.429 . S
C248 H272 0.950 . S
C249 C266 1.574 . S
C249 C268 1.368 . S
C249 H273 0.949 . S
H250 C254 0.949 . S
C251 C252 1.349 . S
C251 C253 1.327 . S
C251 H274 0.950 . S
C252 C251 1.349 . S
C252 C264 1.349 . S
C253 C251 1.327 . S
C253 C269 1.429 . S
C253 H275 0.950 . S
C254 H250 0.949 . S
C254 C262 1.574 . S
C254 C270 1.368 . S
H255 C263 0.950 . S
H256 C261 0.950 . S
H257 C262 0.949 . S
H258 C264 0.950 . S
H259 C265 0.950 . S
H260 C266 0.949 . S
C261 H256 0.950 . S
C261 C263 1.327 . S
C261 C267 1.429 . S
C262 C254 1.574 . S
C262 H257 0.949 . S
C262 C268 1.368 . S
C263 C247 1.349 . S
C263 H255 0.950 . S
C263 C261 1.327 . S
C264 C252 1.349 . S
C264 H258 0.950 . S
C264 C265 1.327 . S
C265 H259 0.950 . S
C265 C264 1.327 . S
C265 C269 1.429 . S
C266 C249 1.574 . S
C266 H260 0.949 . S
C266 C270 1.368 . S
C267 C248 1.429 . S
C267 C261 1.429 . S
C267 C268 1.523 . S
C268 C249 1.368 . S
C268 C262 1.368 . S
C268 C267 1.523 . S
C269 C253 1.429 . S
C269 C265 1.429 . S
C269 C270 1.523 . S
C270 C254 1.368 . S
C270 C266 1.368 . S
C270 C269 1.523 . S
H271 C246 0.950 . S
H272 C248 0.950 . S
H273 C249 0.949 . S
H274 C251 0.950 . S
H275 C253 0.950 . S
C276 C277 1.349 . S
C276 C278 1.327 . S
C276 H301 0.950 . S
C277 C276 1.349 . S
C277 C293 1.349 . S
C278 C276 1.327 . S
C278 C297 1.429 . S
C278 H302 0.950 . S
C279 C296 1.574 . S
C279 C298 1.368 . S
C279 H303 0.949 . S
H280 C284 0.949 . S
C281 C282 1.349 . S
C281 C283 1.327 . S
C281 H304 0.950 . S
C282 C281 1.349 . S
C282 C294 1.349 . S
C283 C281 1.327 . S
C283 C299 1.429 . S
C283 H305 0.950 . S
C284 H280 0.949 . S
C284 C292 1.574 . S
C284 C300 1.368 . S
H285 C293 0.950 . S
H286 C291 0.950 . S
H287 C292 0.949 . S
H288 C294 0.950 . S
H289 C295 0.950 . S
H290 C296 0.949 . S
C291 H286 0.950 . S
C291 C293 1.327 . S
C291 C297 1.429 . S
C292 C284 1.574 . S
C292 H287 0.949 . S
C292 C298 1.368 . S
C293 C277 1.349 . S
C293 H285 0.950 . S
C293 C291 1.327 . S
C294 C282 1.349 . S
C294 H288 0.950 . S
C294 C295 1.327 . S
C295 H289 0.950 . S
C295 C294 1.327 . S
C295 C299 1.429 . S
C296 C279 1.574 . S
C296 H290 0.949 . S
C296 C300 1.368 . S
C297 C278 1.429 . S
C297 C291 1.429 . S
C297 C298 1.523 . S
C298 C279 1.368 . S
C298 C292 1.368 . S
C298 C297 1.523 . S
C299 C283 1.429 . S
C299 C295 1.429 . S
C299 C300 1.523 . S
C300 C284 1.368 . S
C300 C296 1.368 . S
C300 C299 1.523 . S
H301 C276 0.950 . S
H302 C278 0.950 . S
H303 C279 0.949 . S
H304 C281 0.950 . S
H305 C283 0.950 . S
C306 C307 1.349 . S
C306 C308 1.327 . S
C306 H331 0.950 . S
C307 C306 1.349 . S
C307 C323 1.349 . S
C308 C306 1.327 . S
C308 C327 1.429 . S
C308 H332 0.950 . S
C309 C326 1.574 . S
C309 C328 1.368 . S
C309 H333 0.949 . S
H310 C314 0.949 . S
C311 C312 1.349 . S
C311 C313 1.327 . S
C311 H334 0.950 . S
C312 C311 1.349 . S
C312 C324 1.349 . S
C313 C311 1.327 . S
C313 C329 1.429 . S
C313 H335 0.950 . S
C314 H310 0.949 . S
C314 C322 1.574 . S
C314 C330 1.368 . S
H315 C323 0.950 . S
H316 C321 0.950 . S
H317 C322 0.949 . S
H318 C324 0.950 . S
H319 C325 0.950 . S
H320 C326 0.949 . S
C321 H316 0.950 . S
C321 C323 1.327 . S
C321 C327 1.429 . S
C322 C314 1.574 . S
C322 H317 0.949 . S
C322 C328 1.368 . S
C323 C307 1.349 . S
C323 H315 0.950 . S
C323 C321 1.327 . S
C324 C312 1.349 . S
C324 H318 0.950 . S
C324 C325 1.327 . S
C325 H319 0.950 . S
C325 C324 1.327 . S
C325 C329 1.429 . S
C326 C309 1.574 . S
C326 H320 0.949 . S
C326 C330 1.368 . S
C327 C308 1.429 . S
C327 C321 1.429 . S
C327 C328 1.523 . S
C328 C309 1.368 . S
C328 C322 1.368 . S
C328 C327 1.523 . S
C329 C313 1.429 . S
C329 C325 1.429 . S
C329 C330 1.523 . S
C330 C314 1.368 . S
C330 C326 1.368 . S
C330 C329 1.523 . S
H331 C306 0.950 . S
H332 C308 0.950 . S
H333 C309 0.949 . S
H334 C311 0.950 . S
H335 C313 0.950 . S
C336 C337 1.349 . S
C336 C338 1.327 . S
C336 H361 0.950 . S
C337 C336 1.349 . S
C337 C353 1.349 . S
C338 C336 1.327 . S
C338 C357 1.429 . S
C338 H362 0.950 1_554 S
C339 C356 1.574 1_545 S
C339 C358 1.368 . S
C339 H363 0.949 . S
H340 C344 0.949 . S
C341 C342 1.349 . S
C341 C343 1.327 . S
C341 H364 0.950 . S
C342 C341 1.349 . S
C342 C354 1.349 . S
C343 C341 1.327 . S
C343 C359 1.429 . S
C343 H365 0.950 1_556 S
C344 H340 0.949 . S
C344 C352 1.574 1_565 S
C344 C360 1.368 . S
H345 C353 0.950 . S
H346 C351 0.950 . S
H347 C352 0.949 . S
H348 C354 0.950 . S
H349 C355 0.950 . S
H350 C356 0.949 . S
C351 H346 0.950 . S
C351 C353 1.327 . S
C351 C357 1.429 . S
C352 C344 1.574 1_545 S
C352 H347 0.949 . S
C352 C358 1.368 1_556 S
C353 C337 1.349 . S
C353 H345 0.950 . S
C353 C351 1.327 . S
C354 C342 1.349 . S
C354 H348 0.950 . S
C354 C355 1.327 . S
C355 H349 0.950 . S
C355 C354 1.327 . S
C355 C359 1.429 . S
C356 C339 1.574 1_565 S
C356 H350 0.949 . S
C356 C360 1.368 1_554 S
C357 C338 1.429 . S
C357 C351 1.429 . S
C357 C358 1.523 . S
C358 C339 1.368 . S
C358 C352 1.368 1_554 S
C358 C357 1.523 . S
C359 C343 1.429 . S
C359 C355 1.429 . S
C359 C360 1.523 . S
C360 C344 1.368 . S
C360 C356 1.368 1_556 S
C360 C359 1.523 . S
H361 C336 0.950 . S
H362 C338 0.950 1_556 S
H363 C339 0.949 . S
H364 C341 0.950 . S
H365 C343 0.950 1_554 S
C366 C367 1.349 . S
C366 C368 1.327 . S
C366 H391 0.950 . S
C367 C366 1.349 . S
C367 C383 1.349 . S
C368 C366 1.327 . S
C368 C387 1.429 . S
C368 H392 0.950 . S
C369 C386 1.574 . S
C369 C388 1.368 . S
C369 H393 0.949 . S
H370 C374 0.949 . S
C371 C372 1.349 . S
C371 C373 1.327 . S
C371 H394 0.950 . S
C372 C371 1.349 . S
C372 C384 1.349 . S
C373 C371 1.327 . S
C373 C389 1.429 . S
C373 H395 0.950 . S
C374 H370 0.949 . S
C374 C382 1.574 . S
C374 C390 1.368 . S
H375 C383 0.950 . S
H376 C381 0.950 . S
H377 C382 0.949 . S
H378 C384 0.950 . S
H379 C385 0.950 . S
H380 C386 0.949 . S
C381 H376 0.950 . S
C381 C383 1.327 . S
C381 C387 1.429 . S
C382 C374 1.574 . S
C382 H377 0.949 . S
C382 C388 1.368 . S
C383 C367 1.349 . S
C383 H375 0.950 . S
C383 C381 1.327 . S
C384 C372 1.349 . S
C384 H378 0.950 . S
C384 C385 1.327 . S
C385 H379 0.950 . S
C385 C384 1.327 . S
C385 C389 1.429 . S
C386 C369 1.574 . S
C386 H380 0.949 . S
C386 C390 1.368 . S
C387 C368 1.429 . S
C387 C381 1.429 . S
C387 C388 1.523 . S
C388 C369 1.368 . S
C388 C382 1.368 . S
C388 C387 1.523 . S
C389 C373 1.429 . S
C389 C385 1.429 . S
C389 C390 1.523 . S
C390 C374 1.368 . S
C390 C386 1.368 . S
C390 C389 1.523 . S
H391 C366 0.950 . S
H392 C368 0.950 . S
H393 C369 0.949 . S
H394 C371 0.950 . S
H395 C373 0.950 . S
C396 C397 1.349 . S
C396 C398 1.327 . S
C396 H421 0.950 . S
C397 C396 1.349 . S
C397 C413 1.349 . S
C398 C396 1.327 . S
C398 C417 1.429 . S
C398 H422 0.950 1_556 S
C399 C416 1.574 1_455 S
C399 C418 1.368 . S
C399 H423 0.949 . S
H400 C404 0.949 . S
C401 C402 1.349 . S
C401 C403 1.327 . S
C401 H424 0.950 . S
C402 C401 1.349 . S
C402 C414 1.349 . S
C403 C401 1.327 . S
C403 C419 1.429 . S
C403 H425 0.950 1_554 S
C404 H400 0.949 . S
C404 C412 1.574 1_655 S
C404 C420 1.368 . S
H405 C413 0.950 . S
H406 C411 0.950 . S
H407 C412 0.949 . S
H408 C414 0.950 . S
H409 C415 0.950 . S
H410 C416 0.949 . S
C411 H406 0.950 . S
C411 C413 1.327 . S
C411 C417 1.429 . S
C412 C404 1.574 1_455 S
C412 H407 0.949 . S
C412 C418 1.368 1_554 S
C413 C397 1.349 . S
C413 H405 0.950 . S
C413 C411 1.327 . S
C414 C402 1.349 . S
C414 H408 0.950 . S
C414 C415 1.327 . S
C415 H409 0.950 . S
C415 C414 1.327 . S
C415 C419 1.429 . S
C416 C399 1.574 1_655 S
C416 H410 0.949 . S
C416 C420 1.368 1_556 S
C417 C398 1.429 . S
C417 C411 1.429 . S
C417 C418 1.523 . S
C418 C399 1.368 . S
C418 C412 1.368 1_556 S
C418 C417 1.523 . S
C419 C403 1.429 . S
C419 C415 1.429 . S
C419 C420 1.523 . S
C420 C404 1.368 . S
C420 C416 1.368 1_554 S
C420 C419 1.523 . S
H421 C396 0.950 . S
H422 C398 0.950 1_554 S
H423 C399 0.949 . S
H424 C401 0.950 . S
H425 C403 0.950 1_556 S
C426 C427 1.349 . S
C426 C428 1.327 . S
C426 H451 0.950 . S
C427 C426 1.349 . S
C427 C443 1.349 . S
C428 C426 1.327 . S
C428 C447 1.429 . S
C428 H452 0.950 . S
C429 C446 1.574 1_545 S
C429 C448 1.368 . S
C429 H453 0.949 . S
H430 C434 0.949 . S
C431 C432 1.349 . S
C431 C433 1.327 . S
C431 H454 0.950 . S
C432 C431 1.349 . S
C432 C444 1.349 . S
C433 C431 1.327 . S
C433 C449 1.429 . S
C433 H455 0.950 . S
C434 H430 0.949 . S
C434 C442 1.574 1_565 S
C434 C450 1.368 . S
H435 C443 0.950 . S
H436 C441 0.950 . S
H437 C442 0.949 . S
H438 C444 0.950 . S
H439 C445 0.950 . S
H440 C446 0.949 . S
C441 H436 0.950 . S
C441 C443 1.327 . S
C441 C447 1.429 . S
C442 C434 1.574 1_545 S
C442 H437 0.949 . S
C442 C448 1.368 . S
C443 C427 1.349 . S
C443 H435 0.950 . S
C443 C441 1.327 . S
C444 C432 1.349 . S
C444 H438 0.950 . S
C444 C445 1.327 . S
C445 H439 0.950 . S
C445 C444 1.327 . S
C445 C449 1.429 . S
C446 C429 1.574 1_565 S
C446 H440 0.949 . S
C446 C450 1.368 . S
C447 C428 1.429 . S
C447 C441 1.429 . S
C447 C448 1.523 . S
C448 C429 1.368 . S
C448 C442 1.368 . S
C448 C447 1.523 . S
C449 C433 1.429 . S
C449 C445 1.429 . S
C449 C450 1.523 . S
C450 C434 1.368 . S
C450 C446 1.368 . S
C450 C449 1.523 . S
H451 C426 0.950 . S
H452 C428 0.950 . S
H453 C429 0.949 . S
H454 C431 0.950 . S
H455 C433 0.950 . S
C456 C457 1.349 . S
C456 C458 1.327 . S
C456 H481 0.950 . S
C457 C456 1.349 . S
C457 C473 1.349 . S
C458 C456 1.327 . S
C458 C477 1.429 . S
C458 H482 0.950 . S
C459 C476 1.574 . S
C459 C478 1.368 1_554 S
C459 H483 0.949 . S
H460 C464 0.949 . S
C461 C462 1.349 . S
C461 C463 1.327 . S
C461 H484 0.950 . S
C462 C461 1.349 . S
C462 C474 1.349 . S
C463 C461 1.327 . S
C463 C479 1.429 . S
C463 H485 0.950 . S
C464 H460 0.949 . S
C464 C472 1.574 . S
C464 C480 1.368 1_556 S
H465 C473 0.950 . S
H466 C471 0.950 1_554 S
H467 C472 0.949 . S
H468 C474 0.950 . S
H469 C475 0.950 1_556 S
H470 C476 0.949 . S
C471 H466 0.950 1_556 S
C471 C473 1.327 . S
C471 C477 1.429 . S
C472 C464 1.574 . S
C472 H467 0.949 . S
C472 C478 1.368 . S
C473 C457 1.349 . S
C473 H465 0.950 . S
C473 C471 1.327 . S
C474 C462 1.349 . S
C474 H468 0.950 . S
C474 C475 1.327 . S
C475 H469 0.950 1_554 S
C475 C474 1.327 . S
C475 C479 1.429 . S
C476 C459 1.574 . S
C476 H470 0.949 . S
C476 C480 1.368 . S
C477 C458 1.429 . S
C477 C471 1.429 . S
C477 C478 1.523 . S
C478 C459 1.368 1_556 S
C478 C472 1.368 . S
C478 C477 1.523 . S
C479 C463 1.429 . S
C479 C475 1.429 . S
C479 C480 1.523 . S
C480 C464 1.368 1_554 S
C480 C476 1.368 . S
C480 C479 1.523 . S
H481 C456 0.950 . S
H482 C458 0.950 . S
H483 C459 0.949 . S
H484 C461 0.950 . S
H485 C463 0.950 . S
C486 C487 1.349 . S
C486 C488 1.327 . S
C486 H511 0.950 . S
C487 C486 1.349 . S
C487 C503 1.349 . S
C488 C486 1.327 . S
C488 C507 1.429 . S
C488 H512 0.950 . S
C489 C506 1.574 1_655 S
C489 C508 1.368 . S
C489 H513 0.949 . S
H490 C494 0.949 . S
C491 C492 1.349 . S
C491 C493 1.327 . S
C491 H514 0.950 . S
C492 C491 1.349 . S
C492 C504 1.349 . S
C493 C491 1.327 . S
C493 C509 1.429 . S
C493 H515 0.950 . S
C494 H490 0.949 . S
C494 C502 1.574 1_455 S
C494 C510 1.368 . S
H495 C503 0.950 . S
H496 C501 0.950 . S
H497 C502 0.949 . S
H498 C504 0.950 . S
H499 C505 0.950 . S
H500 C506 0.949 . S
C501 H496 0.950 . S
C501 C503 1.327 . S
C501 C507 1.429 . S
C502 C494 1.574 1_655 S
C502 H497 0.949 . S
C502 C508 1.368 . S
C503 C487 1.349 . S
C503 H495 0.950 . S
C503 C501 1.327 . S
C504 C492 1.349 . S
C504 H498 0.950 . S
C504 C505 1.327 . S
C505 H499 0.950 . S
C505 C504 1.327 . S
C505 C509 1.429 . S
C506 C489 1.574 1_455 S
C506 H500 0.949 . S
C506 C510 1.368 . S
C507 C488 1.429 . S
C507 C501 1.429 . S
C507 C508 1.523 . S
C508 C489 1.368 . S
C508 C502 1.368 . S
C508 C507 1.523 . S
C509 C493 1.429 . S
C509 C505 1.429 . S
C509 C510 1.523 . S
C510 C494 1.368 . S
C510 C506 1.368 . S
C510 C509 1.523 . S
H511 C486 0.950 . S
H512 C488 0.950 . S
H513 C489 0.949 . S
H514 C491 0.950 . S
H515 C493 0.950 . S
C516 C517 1.349 . S
C516 C518 1.327 . S
C516 H541 0.950 . S
C517 C516 1.349 . S
C517 C533 1.349 . S
C518 C516 1.327 . S
C518 C537 1.429 . S
C518 H542 0.950 . S
C519 C536 1.574 . S
C519 C538 1.368 . S
C519 H543 0.949 . S
H520 C524 0.949 . S
C521 C522 1.349 . S
C521 C523 1.327 . S
C521 H544 0.950 . S
C522 C521 1.349 . S
C522 C534 1.349 . S
C523 C521 1.327 . S
C523 C539 1.429 . S
C523 H545 0.950 . S
C524 H520 0.949 . S
C524 C532 1.574 . S
C524 C540 1.368 . S
H525 C533 0.950 . S
H526 C531 0.950 . S
H527 C532 0.949 . S
H528 C534 0.950 . S
H529 C535 0.950 . S
H530 C536 0.949 . S
C531 H526 0.950 . S
C531 C533 1.327 . S
C531 C537 1.429 . S
C532 C524 1.574 . S
C532 H527 0.949 . S
C532 C538 1.368 . S
C533 C517 1.349 . S
C533 H525 0.950 . S
C533 C531 1.327 . S
C534 C522 1.349 . S
C534 H528 0.950 . S
C534 C535 1.327 . S
C535 H529 0.950 . S
C535 C534 1.327 . S
C535 C539 1.429 . S
C536 C519 1.574 . S
C536 H530 0.949 . S
C536 C540 1.368 . S
C537 C518 1.429 . S
C537 C531 1.429 . S
C537 C538 1.523 . S
C538 C519 1.368 . S
C538 C532 1.368 . S
C538 C537 1.523 . S
C539 C523 1.429 . S
C539 C535 1.429 . S
C539 C540 1.523 . S
C540 C524 1.368 . S
C540 C536 1.368 . S
C540 C539 1.523 . S
H541 C516 0.950 . S
H542 C518 0.950 . S
H543 C519 0.949 . S
H544 C521 0.950 . S
H545 C523 0.950 . S
C546 C547 1.349 . S
C546 C548 1.327 . S
C546 H571 0.950 . S
C547 C546 1.349 . S
C547 C563 1.349 . S
C548 C546 1.327 . S
C548 C567 1.429 . S
C548 H572 0.950 . S
C549 C566 1.574 . S
C549 C568 1.368 . S
C549 H573 0.949 . S
H550 C554 0.949 . S
C551 C552 1.349 . S
C551 C553 1.327 . S
C551 H574 0.950 . S
C552 C551 1.349 . S
C552 C564 1.349 . S
C553 C551 1.327 . S
C553 C569 1.429 . S
C553 H575 0.950 . S
C554 H550 0.949 . S
C554 C562 1.574 . S
C554 C570 1.368 . S
H555 C563 0.950 . S
H556 C561 0.950 . S
H557 C562 0.949 . S
H558 C564 0.950 . S
H559 C565 0.950 . S
H560 C566 0.949 . S
C561 H556 0.950 . S
C561 C563 1.327 . S
C561 C567 1.429 . S
C562 C554 1.574 . S
C562 H557 0.949 . S
C562 C568 1.368 . S
C563 C547 1.349 . S
C563 H555 0.950 . S
C563 C561 1.327 . S
C564 C552 1.349 . S
C564 H558 0.950 . S
C564 C565 1.327 . S
C565 H559 0.950 . S
C565 C564 1.327 . S
C565 C569 1.429 . S
C566 C549 1.574 . S
C566 H560 0.949 . S
C566 C570 1.368 . S
C567 C548 1.429 . S
C567 C561 1.429 . S
C567 C568 1.523 . S
C568 C549 1.368 . S
C568 C562 1.368 . S
C568 C567 1.523 . S
C569 C553 1.429 . S
C569 C565 1.429 . S
C569 C570 1.523 . S
C570 C554 1.368 . S
C570 C566 1.368 . S
C570 C569 1.523 . S
H571 C546 0.950 . S
H572 C548 0.950 . S
H573 C549 0.949 . S
H574 C551 0.950 . S
H575 C553 0.950 . S
C576 C577 1.349 . S
C576 C578 1.327 . S
C576 H601 0.950 . S
C577 C576 1.349 . S
C577 C593 1.349 . S
C578 C576 1.327 . S
C578 C597 1.429 . S
C578 H602 0.950 . S
C579 C596 1.574 . S
C579 C598 1.368 . S
C579 H603 0.949 . S
H580 C584 0.949 . S
C581 C582 1.349 . S
C581 C583 1.327 . S
C581 H604 0.950 . S
C582 C581 1.349 . S
C582 C594 1.349 . S
C583 C581 1.327 . S
C583 C599 1.429 . S
C583 H605 0.950 . S
C584 H580 0.949 . S
C584 C592 1.574 . S
C584 C600 1.368 . S
H585 C593 0.950 . S
H586 C591 0.950 . S
H587 C592 0.949 . S
H588 C594 0.950 . S
H589 C595 0.950 . S
H590 C596 0.949 . S
C591 H586 0.950 . S
C591 C593 1.327 . S
C591 C597 1.429 . S
C592 C584 1.574 . S
C592 H587 0.949 . S
C592 C598 1.368 . S
C593 C577 1.349 . S
C593 H585 0.950 . S
C593 C591 1.327 . S
C594 C582 1.349 . S
C594 H588 0.950 . S
C594 C595 1.327 . S
C595 H589 0.950 . S
C595 C594 1.327 . S
C595 C599 1.429 . S
C596 C579 1.574 . S
C596 H590 0.949 . S
C596 C600 1.368 . S
C597 C578 1.429 . S
C597 C591 1.429 . S
C597 C598 1.523 . S
C598 C579 1.368 . S
C598 C592 1.368 . S
C598 C597 1.523 . S
C599 C583 1.429 . S
C599 C595 1.429 . S
C599 C600 1.523 . S
C600 C584 1.368 . S
C600 C596 1.368 . S
C600 C599 1.523 . S
H601 C576 0.950 . S
H602 C578 0.950 . S
H603 C579 0.949 . S
H604 C581 0.950 . S
H605 C583 0.950 . S
C606 C607 1.349 . S
C606 C608 1.327 . S
C606 H631 0.950 . S
C607 C606 1.349 . S
C607 C623 1.349 . S
C608 C606 1.327 . S
C608 C627 1.429 . S
C608 H632 0.950 . S
C609 C626 1.574 . S
C609 C628 1.368 . S
C609 H633 0.949 . S
H610 C614 0.949 . S
C611 C612 1.349 . S
C611 C613 1.327 . S
C611 H634 0.950 . S
C612 C611 1.349 . S
C612 C624 1.349 . S
C613 C611 1.327 . S
C613 C629 1.429 . S
C613 H635 0.950 . S
C614 H610 0.949 . S
C614 C622 1.574 . S
C614 C630 1.368 . S
H615 C623 0.950 . S
H616 C621 0.950 . S
H617 C622 0.949 . S
H618 C624 0.950 . S
H619 C625 0.950 . S
H620 C626 0.949 . S
C621 H616 0.950 . S
C621 C623 1.327 . S
C621 C627 1.429 . S
C622 C614 1.574 . S
C622 H617 0.949 . S
C622 C628 1.368 . S
C623 C607 1.349 . S
C623 H615 0.950 . S
C623 C621 1.327 . S
C624 C612 1.349 . S
C624 H618 0.950 . S
C624 C625 1.327 . S
C625 H619 0.950 . S
C625 C624 1.327 . S
C625 C629 1.429 . S
C626 C609 1.574 . S
C626 H620 0.949 . S
C626 C630 1.368 . S
C627 C608 1.429 . S
C627 C621 1.429 . S
C627 C628 1.523 . S
C628 C609 1.368 . S
C628 C622 1.368 . S
C628 C627 1.523 . S
C629 C613 1.429 . S
C629 C625 1.429 . S
C629 C630 1.523 . S
C630 C614 1.368 . S
C630 C626 1.368 . S
C630 C629 1.523 . S
H631 C606 0.950 . S
H632 C608 0.950 . S
H633 C609 0.949 . S
H634 C611 0.950 . S
H635 C613 0.950 . S
C636 C637 1.349 . S
C636 C638 1.327 . S
C636 H661 0.950 . S
C637 C636 1.349 . S
C637 C653 1.349 . S
C638 C636 1.327 . S
C638 C657 1.429 . S
C638 H662 0.950 . S
C639 C656 1.574 . S
C639 C658 1.368 . S
C639 H663 0.949 . S
H640 C644 0.949 . S
C641 C642 1.349 . S
C641 C643 1.327 . S
C641 H664 0.950 . S
C642 C641 1.349 . S
C642 C654 1.349 . S
C643 C641 1.327 . S
C643 C659 1.429 . S
C643 H665 0.950 . S
C644 H640 0.949 . S
C644 C652 1.574 . S
C644 C660 1.368 . S
H645 C653 0.950 . S
H646 C651 0.950 . S
H647 C652 0.949 . S
H648 C654 0.950 . S
H649 C655 0.950 . S
H650 C656 0.949 . S
C651 H646 0.950 . S
C651 C653 1.327 . S
C651 C657 1.429 . S
C652 C644 1.574 . S
C652 H647 0.949 . S
C652 C658 1.368 . S
C653 C637 1.349 . S
C653 H645 0.950 . S
C653 C651 1.327 . S
C654 C642 1.349 . S
C654 H648 0.950 . S
C654 C655 1.327 . S
C655 H649 0.950 . S
C655 C654 1.327 . S
C655 C659 1.429 . S
C656 C639 1.574 . S
C656 H650 0.949 . S
C656 C660 1.368 . S
C657 C638 1.429 . S
C657 C651 1.429 . S
C657 C658 1.523 . S
C658 C639 1.368 . S
C658 C652 1.368 . S
C658 C657 1.523 . S
C659 C643 1.429 . S
C659 C655 1.429 . S
C659 C660 1.523 . S
C660 C644 1.368 . S
C660 C656 1.368 . S
C660 C659 1.523 . S
H661 C636 0.950 . S
H662 C638 0.950 . S
H663 C639 0.949 . S
H664 C641 0.950 . S
H665 C643 0.950 . S
C666 C667 1.349 . S
C666 C668 1.327 . S
C666 H691 0.950 . S
C667 C666 1.349 . S
C667 C683 1.349 . S
C668 C666 1.327 . S
C668 C687 1.429 . S
C668 H692 0.950 . S
C669 C686 1.574 . S
C669 C688 1.368 . S
C669 H693 0.949 . S
H670 C674 0.949 . S
C671 C672 1.349 . S
C671 C673 1.327 . S
C671 H694 0.950 . S
C672 C671 1.349 . S
C672 C684 1.349 . S
C673 C671 1.327 . S
C673 C689 1.429 . S
C673 H695 0.950 . S
C674 H670 0.949 . S
C674 C682 1.574 . S
C674 C690 1.368 . S
H675 C683 0.950 . S
H676 C681 0.950 . S
H677 C682 0.949 . S
H678 C684 0.950 . S
H679 C685 0.950 . S
H680 C686 0.949 . S
C681 H676 0.950 . S
C681 C683 1.327 . S
C681 C687 1.429 . S
C682 C674 1.574 . S
C682 H677 0.949 . S
C682 C688 1.368 . S
C683 C667 1.349 . S
C683 H675 0.950 . S
C683 C681 1.327 . S
C684 C672 1.349 . S
C684 H678 0.950 . S
C684 C685 1.327 . S
C685 H679 0.950 . S
C685 C684 1.327 . S
C685 C689 1.429 . S
C686 C669 1.574 . S
C686 H680 0.949 . S
C686 C690 1.368 . S
C687 C668 1.429 . S
C687 C681 1.429 . S
C687 C688 1.523 . S
C688 C669 1.368 . S
C688 C682 1.368 . S
C688 C687 1.523 . S
C689 C673 1.429 . S
C689 C685 1.429 . S
C689 C690 1.523 . S
C690 C674 1.368 . S
C690 C686 1.368 . S
C690 C689 1.523 . S
H691 C666 0.950 . S
H692 C668 0.950 . S
H693 C669 0.949 . S
H694 C671 0.950 . S
H695 C673 0.950 . S
C696 C697 1.349 . S
C696 C698 1.327 . S
C696 H721 0.950 . S
C697 C696 1.349 . S
C697 C713 1.349 . S
C698 C696 1.327 . S
C698 C717 1.429 . S
C698 H722 0.950 . S
C699 C716 1.574 . S
C699 C718 1.368 . S
C699 H723 0.949 . S
H700 C704 0.949 . S
C701 C702 1.349 . S
C701 C703 1.327 . S
C701 H724 0.950 . S
C702 C701 1.349 . S
C702 C714 1.349 . S
C703 C701 1.327 . S
C703 C719 1.429 . S
C703 H725 0.950 . S
C704 H700 0.949 . S
C704 C712 1.574 . S
C704 C720 1.368 . S
H705 C713 0.950 . S
H706 C711 0.950 . S
H707 C712 0.949 . S
H708 C714 0.950 . S
H709 C715 0.950 . S
H710 C716 0.949 . S
C711 H706 0.950 . S
C711 C713 1.327 . S
C711 C717 1.429 . S
C712 C704 1.574 . S
C712 H707 0.949 . S
C712 C718 1.368 . S
C713 C697 1.349 . S
C713 H705 0.950 . S
C713 C711 1.327 . S
C714 C702 1.349 . S
C714 H708 0.950 . S
C714 C715 1.327 . S
C715 H709 0.950 . S
C715 C714 1.327 . S
C715 C719 1.429 . S
C716 C699 1.574 . S
C716 H710 0.949 . S
C716 C720 1.368 . S
C717 C698 1.429 . S
C717 C711 1.429 . S
C717 C718 1.523 . S
C718 C699 1.368 . S
C718 C712 1.368 . S
C718 C717 1.523 . S
C719 C703 1.429 . S
C719 C715 1.429 . S
C719 C720 1.523 . S
C720 C704 1.368 . S
C720 C716 1.368 . S
C720 C719 1.523 . S
H721 C696 0.950 . S
H722 C698 0.950 . S
H723 C699 0.949 . S
H724 C701 0.950 . S
H725 C703 0.950 . S
C726 C727 1.349 . S
C726 C728 1.327 . S
C726 H751 0.950 . S
C727 C726 1.349 . S
C727 C743 1.349 . S
C728 C726 1.327 . S
C728 C747 1.429 . S
C728 H752 0.950 . S
C729 C746 1.574 . S
C729 C748 1.368 . S
C729 H753 0.949 . S
H730 C734 0.949 . S
C731 C732 1.349 . S
C731 C733 1.327 . S
C731 H754 0.950 . S
C732 C731 1.349 . S
C732 C744 1.349 . S
C733 C731 1.327 . S
C733 C749 1.429 . S
C733 H755 0.950 . S
C734 H730 0.949 . S
C734 C742 1.574 . S
C734 C750 1.368 . S
H735 C743 0.950 . S
H736 C741 0.950 . S
H737 C742 0.949 . S
H738 C744 0.950 . S
H739 C745 0.950 . S
H740 C746 0.949 . S
C741 H736 0.950 . S
C741 C743 1.327 . S
C741 C747 1.429 . S
C742 C734 1.574 . S
C742 H737 0.949 . S
C742 C748 1.368 . S
C743 C727 1.349 . S
C743 H735 0.950 . S
C743 C741 1.327 . S
C744 C732 1.349 . S
C744 H738 0.950 . S
C744 C745 1.327 . S
C745 H739 0.950 . S
C745 C744 1.327 . S
C745 C749 1.429 . S
C746 C729 1.574 . S
C746 H740 0.949 . S
C746 C750 1.368 . S
C747 C728 1.429 . S
C747 C741 1.429 . S
C747 C748 1.523 . S
C748 C729 1.368 . S
C748 C742 1.368 . S
C748 C747 1.523 . S
C749 C733 1.429 . S
C749 C745 1.429 . S
C749 C750 1.523 . S
C750 C734 1.368 . S
C750 C746 1.368 . S
C750 C749 1.523 . S
H751 C726 0.950 . S
H752 C728 0.950 . S
H753 C729 0.949 . S
H754 C731 0.950 . S
H755 C733 0.950 . S
C756 C757 1.349 . S
C756 C758 1.327 . S
C756 H781 0.950 . S
C757 C756 1.349 . S
C757 C773 1.349 . S
C758 C756 1.327 . S
C758 C777 1.429 . S
C758 H782 0.950 . S
C759 C776 1.574 . S
C759 C778 1.368 . S
C759 H783 0.949 . S
H760 C764 0.949 . S
C761 C762 1.349 . S
C761 C763 1.327 . S
C761 H784 0.950 . S
C762 C761 1.349 . S
C762 C774 1.349 . S
C763 C761 1.327 . S
C763 C779 1.429 . S
C763 H785 0.950 . S
C764 H760 0.949 . S
C764 C772 1.574 . S
C764 C780 1.368 . S
H765 C773 0.950 . S
H766 C771 0.950 . S
H767 C772 0.949 . S
H768 C774 0.950 . S
H769 C775 0.950 . S
H770 C776 0.949 . S
C771 H766 0.950 . S
C771 C773 1.327 . S
C771 C777 1.429 . S
C772 C764 1.574 . S
C772 H767 0.949 . S
C772 C778 1.368 . S
C773 C757 1.349 . S
C773 H765 0.950 . S
C773 C771 1.327 . S
C774 C762 1.349 . S
C774 H768 0.950 . S
C774 C775 1.327 . S
C775 H769 0.950 . S
C775 C774 1.327 . S
C775 C779 1.429 . S
C776 C759 1.574 . S
C776 H770 0.949 . S
C776 C780 1.368 . S
C777 C758 1.429 . S
C777 C771 1.429 . S
C777 C778 1.523 . S
C778 C759 1.368 . S
C778 C772 1.368 . S
C778 C777 1.523 . S
C779 C763 1.429 . S
C779 C775 1.429 . S
C779 C780 1.523 . S
C780 C764 1.368 . S
C780 C776 1.368 . S
C780 C779 1.523 . S
H781 C756 0.950 . S
H782 C758 0.950 . S
H783 C759 0.949 . S
H784 C761 0.950 . S
H785 C763 0.950 . S
C786 C787 1.349 . S
C786 C788 1.327 . S
C786 H811 0.950 . S
C787 C786 1.349 . S
C787 C803 1.349 . S
C788 C786 1.327 . S
C788 C807 1.429 . S
C788 H812 0.950 . S
C789 C806 1.574 . S
C789 C808 1.368 . S
C789 H813 0.949 . S
H790 C794 0.949 . S
C791 C792 1.349 . S
C791 C793 1.327 . S
C791 H814 0.950 . S
C792 C791 1.349 . S
C792 C804 1.349 . S
C793 C791 1.327 . S
C793 C809 1.429 . S
C793 H815 0.950 . S
C794 H790 0.949 . S
C794 C802 1.574 . S
C794 C810 1.368 . S
H795 C803 0.950 . S
H796 C801 0.950 . S
H797 C802 0.949 . S
H798 C804 0.950 . S
H799 C805 0.950 . S
H800 C806 0.949 . S
C801 H796 0.950 . S
C801 C803 1.327 . S
C801 C807 1.429 . S
C802 C794 1.574 . S
C802 H797 0.949 . S
C802 C808 1.368 . S
C803 C787 1.349 . S
C803 H795 0.950 . S
C803 C801 1.327 . S
C804 C792 1.349 . S
C804 H798 0.950 . S
C804 C805 1.327 . S
C805 H799 0.950 . S
C805 C804 1.327 . S
C805 C809 1.429 . S
C806 C789 1.574 . S
C806 H800 0.949 . S
C806 C810 1.368 . S
C807 C788 1.429 . S
C807 C801 1.429 . S
C807 C808 1.523 . S
C808 C789 1.368 . S
C808 C802 1.368 . S
C808 C807 1.523 . S
C809 C793 1.429 . S
C809 C805 1.429 . S
C809 C810 1.523 . S
C810 C794 1.368 . S
C810 C806 1.368 . S
C810 C809 1.523 . S
H811 C786 0.950 . S
H812 C788 0.950 . S
H813 C789 0.949 . S
H814 C791 0.950 . S
H815 C793 0.950 . S
C816 C817 1.349 . S
C816 C818 1.327 . S
C816 H841 0.950 . S
C817 C816 1.349 . S
C817 C833 1.349 . S
C818 C816 1.327 . S
C818 C837 1.429 . S
C818 H842 0.950 . S
C819 C836 1.574 . S
C819 C838 1.368 . S
C819 H843 0.949 . S
H820 C824 0.949 . S
C821 C822 1.349 . S
C821 C823 1.327 . S
C821 H844 0.950 . S
C822 C821 1.349 . S
C822 C834 1.349 . S
C823 C821 1.327 . S
C823 C839 1.429 . S
C823 H845 0.950 . S
C824 H820 0.949 . S
C824 C832 1.574 . S
C824 C840 1.368 . S
H825 C833 0.950 . S
H826 C831 0.950 . S
H827 C832 0.949 . S
H828 C834 0.950 . S
H829 C835 0.950 . S
H830 C836 0.949 . S
C831 H826 0.950 . S
C831 C833 1.327 . S
C831 C837 1.429 . S
C832 C824 1.574 . S
C832 H827 0.949 . S
C832 C838 1.368 . S
C833 C817 1.349 . S
C833 H825 0.950 . S
C833 C831 1.327 . S
C834 C822 1.349 . S
C834 H828 0.950 . S
C834 C835 1.327 . S
C835 H829 0.950 . S
C835 C834 1.327 . S
C835 C839 1.429 . S
C836 C819 1.574 . S
C836 H830 0.949 . S
C836 C840 1.368 . S
C837 C818 1.429 . S
C837 C831 1.429 . S
C837 C838 1.523 . S
C838 C819 1.368 . S
C838 C832 1.368 . S
C838 C837 1.523 . S
C839 C823 1.429 . S
C839 C835 1.429 . S
C839 C840 1.523 . S
C840 C824 1.368 . S
C840 C836 1.368 . S
C840 C839 1.523 . S
H841 C816 0.950 . S
H842 C818 0.950 . S
H843 C819 0.949 . S
H844 C821 0.950 . S
H845 C823 0.950 . S
C846 C847 1.349 . S
C846 C848 1.327 . S
C846 H871 0.950 . S
C847 C846 1.349 . S
C847 C863 1.349 . S
C848 C846 1.327 . S
C848 C867 1.429 . S
C848 H872 0.950 . S
C849 C866 1.574 . S
C849 C868 1.368 . S
C849 H873 0.949 . S
H850 C854 0.949 . S
C851 C852 1.349 . S
C851 C853 1.327 . S
C851 H874 0.950 . S
C852 C851 1.349 . S
C852 C864 1.349 . S
C853 C851 1.327 . S
C853 C869 1.429 . S
C853 H875 0.950 . S
C854 H850 0.949 . S
C854 C862 1.574 . S
C854 C870 1.368 . S
H855 C863 0.950 . S
H856 C861 0.950 . S
H857 C862 0.949 . S
H858 C864 0.950 . S
H859 C865 0.950 . S
H860 C866 0.949 . S
C861 H856 0.950 . S
C861 C863 1.327 . S
C861 C867 1.429 . S
C862 C854 1.574 . S
C862 H857 0.949 . S
C862 C868 1.368 . S
C863 C847 1.349 . S
C863 H855 0.950 . S
C863 C861 1.327 . S
C864 C852 1.349 . S
C864 H858 0.950 . S
C864 C865 1.327 . S
C865 H859 0.950 . S
C865 C864 1.327 . S
C865 C869 1.429 . S
C866 C849 1.574 . S
C866 H860 0.949 . S
C866 C870 1.368 . S
C867 C848 1.429 . S
C867 C861 1.429 . S
C867 C868 1.523 . S
C868 C849 1.368 . S
C868 C862 1.368 . S
C868 C867 1.523 . S
C869 C853 1.429 . S
C869 C865 1.429 . S
C869 C870 1.523 . S
C870 C854 1.368 . S
C870 C866 1.368 . S
C870 C869 1.523 . S
H871 C846 0.950 . S
H872 C848 0.950 . S
H873 C849 0.949 . S
H874 C851 0.950 . S
H875 C853 0.950 . S
C157 C138 1.413 . S
C162 C8 1.421 . S
C187 C21 1.289 . S
C192 C151 1.289 . S
C217 C34 1.413 . S
C222 C86 1.421 . S
C247 C99 1.413 . S
C252 C47 1.421 . S
C277 C112 1.289 . S
C282 C60 1.289 . S
C307 C73 1.413 . S
C312 C125 1.421 . S
C337 C0 0.714 . S
C342 C91 0.710 . S
C367 C13 0.603 . S
C372 C104 0.603 . S
C397 C117 0.714 . S
C402 C26 0.710 . S
C427 C130 0.710 . S
C432 C39 0.714 . S
C457 C143 0.603 . S
C462 C52 0.603 . S
C487 C78 0.714 . S
C492 C65 0.710 . S
C517 C10 0.644 . S
C522 C57 0.670 . S
C547 C23 0.658 . S
C552 C70 0.664 . S
C577 C36 0.625 . S
C582 C5 0.652 . S
C607 C49 0.644 . S
C612 C18 0.670 . S
C637 C62 0.658 . S
C642 C31 0.664 . S
C667 C75 0.625 . S
C672 C44 0.652 . S
C697 C88 0.644 . S
C702 C109 0.670 . S
C727 C101 0.625 . S
C732 C122 0.652 . S
C757 C135 0.664 . S
C762 C114 0.658 . S
C787 C127 0.644 . S
C792 C148 0.670 . S
C817 C140 0.625 . S
C822 C83 0.652 . S
C847 C153 0.658 . S
C852 C96 0.664 . S
