# Generated by pormake.
# Topology irl, (4)-cn, num edge types: 1
# Building blocks:
#     Node 0, Type 0, BuildingBlock: KUFVIS_clean_sbu_0, # of connection points: 4
#     Node 1, Type 0, BuildingBlock: KUFVIS_clean_sbu_0, # of connection points: 4
#     Node 2, Type 0, BuildingBlock: KUFVIS_clean_sbu_0, # of connection points: 4
#     Node 3, Type 0, BuildingBlock: KUFVIS_clean_sbu_0, # of connection points: 4
#     Node 4, Type 0, BuildingBlock: KUFVIS_clean_sbu_0, # of connection points: 4
#     Node 5, Type 0, BuildingBlock: KUFVIS_clean_sbu_0, # of connection points: 4
#     Node 6, Type 0, BuildingBlock: KUFVIS_clean_sbu_0, # of connection points: 4
#     Node 7, Type 0, BuildingBlock: KUFVIS_clean_sbu_0, # of connection points: 4
#     Edge 8, Type (0, 0), BuildingBlock: TEMPAE_clean_linker_10, # of connection points: 2
#     Edge 9, Type (0, 0), BuildingBlock: TEMPAE_clean_linker_10, # of connection points: 2
#     Edge 10, Type (0, 0), BuildingBlock: TEMPAE_clean_linker_10, # of connection points: 2
#     Edge 11, Type (0, 0), BuildingBlock: TEMPAE_clean_linker_10, # of connection points: 2
#     Edge 12, Type (0, 0), BuildingBlock: TEMPAE_clean_linker_10, # of connection points: 2
#     Edge 13, Type (0, 0), BuildingBlock: TEMPAE_clean_linker_10, # of connection points: 2
#     Edge 14, Type (0, 0), BuildingBlock: TEMPAE_clean_linker_10, # of connection points: 2
#     Edge 15, Type (0, 0), BuildingBlock: TEMPAE_clean_linker_10, # of connection points: 2
#     Edge 16, Type (0, 0), BuildingBlock: TEMPAE_clean_linker_10, # of connection points: 2
#     Edge 17, Type (0, 0), BuildingBlock: TEMPAE_clean_linker_10, # of connection points: 2
#     Edge 18, Type (0, 0), BuildingBlock: TEMPAE_clean_linker_10, # of connection points: 2
#     Edge 19, Type (0, 0), BuildingBlock: TEMPAE_clean_linker_10, # of connection points: 2
#     Edge 20, Type (0, 0), BuildingBlock: TEMPAE_clean_linker_10, # of connection points: 2
#     Edge 21, Type (0, 0), BuildingBlock: TEMPAE_clean_linker_10, # of connection points: 2
#     Edge 22, Type (0, 0), BuildingBlock: TEMPAE_clean_linker_10, # of connection points: 2
#     Edge 23, Type (0, 0), BuildingBlock: TEMPAE_clean_linker_10, # of connection points: 2
# Relax obj value: 0.101
# Max RMSD: 0.151
# Mean RMSD: 0.151
data_MOF--net-irl--node1-KUFVIS_clean_sbu_0--edge1-TEMPAE_clean_linker_10
_symmetry_space_group_name_H-M    P1
_symmetry_Int_Tables_number       1
_symmetry_cell_setting            triclinic
loop_
_symmetry_equiv_pos_as_xyz
'x, y, z'
_cell_length_a     34.614924
_cell_length_b     45.316364
_cell_length_c     27.776395
_cell_angle_alpha  90.021261
_cell_angle_beta   89.999814
_cell_angle_gamma 90.00327
loop_
_atom_site_label
_atom_site_type_symbol
_atom_site_fract_x
_atom_site_fract_y
_atom_site_fract_z
_atom_type_partial_charge
Mn0 Mn 0.06833 0.15205 0.02113 0.0
Mn1 Mn 0.03766 0.22231 0.01549 0.0
C2 C 0.0568 0.17771 0.09156 0.0
C3 C 0.05049 0.1024 0.01897 0.0
C4 C 0.12108 0.20399 -0.00147 0.0
O5 O 0.05261 0.15716 0.9514 0.0
O6 O 0.0251 0.2021 0.95381 0.0
C7 C 0.95369 0.21006 0.01362 0.0
N8 N 0.98466 0.22333 0.03473 0.0
C9 C 0.9448 0.24336 0.09774 0.0
C10 C 0.91242 0.23007 0.0765 0.0
C11 C 0.91691 0.21328 0.03434 0.0
C12 C 0.98075 0.23913 0.07572 0.0
H13 H 0.95707 0.19701 0.98135 0.0
C14 C 0.03393 0.17817 0.93183 0.0
O15 O 0.08533 0.11054 0.00737 0.0
O16 O 0.02656 0.12294 0.03141 0.0
N17 N 0.04753 0.2447 0.07262 0.0
C18 C 0.08147 0.25688 0.08763 0.0
C19 C 0.08182 0.27507 0.12858 0.0
C20 C 0.04725 0.28083 0.15332 0.0
C21 C 0.01256 0.26858 0.1366 0.0
C22 C 0.01393 0.25089 0.09529 0.0
H23 H 0.10809 0.25282 0.06848 0.0
O24 O 0.0774 0.15379 0.09205 0.0
O25 O 0.04283 0.18508 0.04991 0.0
O26 O 0.11708 0.17665 0.009 0.0
O27 O 0.09305 0.22246 -0.00282 0.0
C28 C 0.97664 0.27342 0.15906 0.0
C29 C 0.94282 0.26063 0.13987 0.0
H30 H 0.88399 0.23258 0.09229 0.0
H31 H 0.89209 0.20284 0.01786 0.0
H32 H 0.10868 0.28462 0.14105 0.0
H33 H 0.04766 0.29475 0.18503 0.0
H34 H 0.97471 0.28695 0.19112 0.0
H35 H 0.9154 0.26434 0.15766 0.0
Mn36 Mn 0.93918 0.84184 0.0203 0.0
Mn37 Mn 0.97116 0.77186 0.01064 0.0
C38 C 0.95384 0.81553 0.08847 0.0
C39 C 0.95596 0.89175 0.01862 0.0
C40 C 0.88659 0.78886 0.00211 0.0
O41 O 0.95151 0.83779 0.94963 0.0
O42 O 0.97807 0.79251 0.94817 0.0
C43 C 0.05399 0.78643 -0.00093 0.0
N44 N 0.02539 0.77229 0.0236 0.0
C45 C 0.07068 0.75375 0.08193 0.0
C46 C 0.10066 0.76793 0.05709 0.0
C47 C 0.09225 0.7844 0.01555 0.0
C48 C 0.03309 0.75675 0.06399 0.0
H49 H 0.04762 0.79928 0.96731 0.0
C50 C 0.96828 0.81671 0.92782 0.0
O51 O 0.92077 0.88336 0.00929 0.0
O52 O 0.98076 0.87131 0.02848 0.0
N53 N 0.96673 0.74893 0.06822 0.0
C54 C 0.9348 0.73533 0.08646 0.0
C55 C 0.9384 0.71723 0.12726 0.0
C56 C 0.97483 0.71294 0.14842 0.0
C57 C 0.00744 0.72642 0.1281 0.0
C58 C 0.00212 0.74396 0.08715 0.0
H59 H 0.90678 0.73832 0.0701 0.0
O60 O 0.93316 0.83933 0.09142 0.0
O61 O 0.96664 0.8088 0.04598 0.0
O62 O 0.89065 0.81645 0.01092 0.0
O63 O 0.91474 0.77056 -0.00092 0.0
C64 C 0.04506 0.72283 0.1465 0.0
C65 C 0.07662 0.73673 0.12372 0.0
H66 H 0.13023 0.76636 0.06963 0.0
H67 H 0.11521 0.79552 -0.00369 0.0
H68 H 0.91315 0.70666 0.14244 0.0
H69 H 0.97746 0.69912 0.18006 0.0
H70 H 0.05007 0.70937 0.17809 0.0
H71 H 0.10538 0.73396 0.13841 0.0
Mn72 Mn 0.06208 0.8389 0.48654 0.0
Mn73 Mn 0.02438 0.77054 0.49261 0.0
C74 C 0.05285 0.81212 0.41696 0.0
C75 C 0.04881 0.88942 0.48487 0.0
C76 C 0.10831 0.78429 0.5155 0.0
O77 O 0.04157 0.83647 0.5543 0.0
O78 O 0.01173 0.79244 0.55259 0.0
C79 C 0.94207 0.78809 0.48877 0.0
N80 N 0.97225 0.77251 0.4702 0.0
C81 C 0.93246 0.75308 0.40666 0.0
C82 C 0.90088 0.76876 0.42524 0.0
C83 C 0.90577 0.78645 0.46635 0.0
C84 C 0.96806 0.75593 0.43009 0.0
H85 H 0.94573 0.80171 0.52035 0.0
C86 C 0.02085 0.81659 0.57363 0.0
O87 O 0.08204 0.8797 0.50007 0.0
O88 O 0.02406 0.86995 0.4705 0.0
N89 N 0.03389 0.74647 0.43725 0.0
C90 C 0.06681 0.7317 0.42523 0.0
C91 C 0.06658 0.71237 0.3857 0.0
C92 C 0.03236 0.70803 0.35947 0.0
C93 C 0.99858 0.72286 0.37331 0.0
C94 C 0.00053 0.74174 0.41314 0.0
H95 H 0.09307 0.73458 0.44566 0.0
O96 O 0.07562 0.83487 0.4171 0.0
O97 O 0.03528 0.80666 0.45721 0.0
O98 O 0.10719 0.81185 0.50527 0.0
O99 O 0.07871 0.76733 0.51404 0.0
C100 C 0.96292 0.71925 0.34963 0.0
C101 C 0.92996 0.73458 0.36599 0.0
H102 H 0.87277 0.76739 0.40824 0.0
H103 H 0.88157 0.79871 0.48081 0.0
H104 H 0.09268 0.7008 0.37554 0.0
H105 H 0.03229 0.69314 0.32896 0.0
H106 H 0.96052 0.7047 0.31883 0.0
H107 H 0.90277 0.7318 0.34723 0.0
Mn108 Mn 0.93608 0.14985 0.48901 0.0
Mn109 Mn 0.9647 0.22061 0.495 0.0
C110 C 0.94717 0.17575 0.41869 0.0
C111 C 0.95556 0.10046 0.49101 0.0
C112 C 0.88182 0.20079 0.51175 0.0
O113 O 0.95123 0.15528 0.55896 0.0
O114 O 0.978 0.20049 0.55644 0.0
C115 C 0.04905 0.20998 0.49652 0.0
N116 N 0.0176 0.2227 0.47562 0.0
C117 C 0.0567 0.24385 0.41287 0.0
C118 C 0.08955 0.23114 0.4339 0.0
C119 C 0.08568 0.21405 0.47582 0.0
C120 C 0.02093 0.23877 0.43485 0.0
H121 H 0.04615 0.19672 0.52863 0.0
C122 C 0.96954 0.17652 0.57848 0.0
O123 O 0.92038 0.10794 0.50225 0.0
O124 O 0.97887 0.12153 0.47914 0.0
N125 N 0.95397 0.24293 0.43807 0.0
C126 C 0.91959 0.25444 0.42323 0.0
C127 C 0.91856 0.27279 0.3825 0.0
C128 C 0.95291 0.2794 0.35783 0.0
C129 C 0.98804 0.26782 0.3744 0.0
C130 C 0.98732 0.24992 0.41546 0.0
H131 H 0.89315 0.24975 0.44234 0.0
O132 O 0.92739 0.15144 0.41797 0.0
O133 O 0.96068 0.18335 0.46045 0.0
O134 O 0.88649 0.17359 0.50075 0.0
O135 O 0.90938 0.21966 0.51351 0.0
C136 C 0.02377 0.27355 0.35201 0.0
C137 C 0.05804 0.26138 0.37101 0.0
H138 H 0.11787 0.23432 0.41813 0.0
H139 H 0.11087 0.20406 0.49214 0.0
H140 H 0.89137 0.28181 0.37016 0.0
H141 H 0.95198 0.29344 0.3263 0.0
H142 H 0.0252 0.28728 0.32015 0.0
H143 H 0.08531 0.26577 0.35327 0.0
Mn144 Mn 0.55096 0.66514 0.01669 0.0
Mn145 Mn 0.53973 0.73801 0.03799 0.0
C146 C 0.54266 0.68085 0.09462 0.0
C147 C 0.52378 0.61955 -0.00275 0.0
C148 C 0.61672 0.70947 0.01419 0.0
O149 O 0.53938 0.68221 0.95126 0.0
O150 O 0.52547 0.72954 0.9697 0.0
C151 C 0.45517 0.74504 0.0276 0.0
N152 N 0.48784 0.74804 0.05444 0.0
C153 C 0.45343 0.77423 0.11642 0.0
C154 C 0.4194 0.77155 0.08935 0.0
C155 C 0.42025 0.75675 0.04488 0.0
C156 C 0.48733 0.76213 0.09736 0.0
H157 H 0.45586 0.73396 0.99318 0.0
C158 C 0.5286 0.70814 0.93974 0.0
O159 O 0.55992 0.62516 0.98849 0.0
O160 O 0.50331 0.64075 0.01542 0.0
N161 N 0.55227 0.74931 0.10247 0.0
C162 C 0.58658 0.74703 0.1262 0.0
C163 C 0.58984 0.75841 0.17307 0.0
C164 C 0.55802 0.77238 0.19471 0.0
C165 C 0.52306 0.77455 0.16945 0.0
C166 C 0.52141 0.76253 0.12306 0.0
H167 H 0.61115 0.73647 0.10954 0.0
O168 O 0.55801 0.65538 0.08511 0.0
O169 O 0.53166 0.69658 0.0576 0.0
O170 O 0.60557 0.68267 0.01383 0.0
O171 O 0.59431 0.7313 0.0216 0.0
C172 C 0.48956 0.78766 0.18879 0.0
C173 C 0.45483 0.78768 0.16216 0.0
H174 H 0.39238 0.78045 0.10263 0.0
H175 H 0.39408 0.75449 0.02388 0.0
H176 H 0.61687 0.75653 0.19241 0.0
H177 H 0.56065 0.78113 0.23086 0.0
H178 H 0.48999 0.79733 0.22441 0.0
H179 H 0.42909 0.7973 0.17783 0.0
Mn180 Mn 0.42969 0.35683 0.01997 0.0
Mn181 Mn 0.46628 0.28813 0.01942 0.0
C182 C 0.44486 0.33429 0.09232 0.0
C183 C 0.44162 0.40721 0.01207 0.0
C184 C 0.38146 0.30186 0.00213 0.0
O185 O 0.44514 0.35009 0.95027 0.0
O186 O 0.47744 0.30719 0.95647 0.0
C187 C 0.54939 0.30333 0.01612 0.0
N188 N 0.51931 0.28955 0.03832 0.0
C189 C 0.56105 0.27055 0.10021 0.0
C190 C 0.59254 0.28441 0.07791 0.0
C191 C 0.58663 0.30101 0.03583 0.0
C192 C 0.52452 0.2741 0.07941 0.0
H193 H 0.54496 0.31599 0.98365 0.0
C194 C 0.46624 0.32977 0.9325 0.0
O195 O 0.40775 0.39625 0.00256 0.0
O196 O 0.46815 0.38899 0.02613 0.0
N197 N 0.45795 0.26693 0.07807 0.0
C198 C 0.42471 0.2543 0.09445 0.0
C199 C 0.4257 0.23662 0.13594 0.0
C200 C 0.46095 0.23159 0.15958 0.0
C201 C 0.49492 0.24424 0.14142 0.0
C202 C 0.49213 0.26175 0.10006 0.0
H203 H 0.39762 0.25761 0.076 0.0
O204 O 0.42209 0.35704 0.09136 0.0
O205 O 0.45876 0.32621 0.05096 0.0
O206 O 0.38321 0.32943 0.01144 0.0
O207 O 0.41103 0.28489 0.00105 0.0
C208 C 0.53151 0.23976 0.16229 0.0
C209 C 0.56452 0.25314 0.14199 0.0
H210 H 0.62136 0.28245 0.09276 0.0
H211 H 0.61076 0.31184 0.01848 0.0
H212 H 0.3994 0.22675 0.14951 0.0
H213 H 0.46163 0.21787 0.1915 0.0
H214 H 0.5346 0.22604 0.19397 0.0
H215 H 0.59245 0.24975 0.15867 0.0
Mn216 Mn 0.5753 0.35553 0.49324 0.0
Mn217 Mn 0.53676 0.28744 0.49353 0.0
C218 C 0.55913 0.33344 0.42086 0.0
C219 C 0.56466 0.40605 0.50193 0.0
C220 C 0.62211 0.29966 0.50987 0.0
O221 O 0.5601 0.34886 0.563 0.0
O222 O 0.52678 0.30643 0.55688 0.0
C223 C 0.45419 0.30411 0.49831 0.0
N224 N 0.48361 0.28988 0.47548 0.0
C225 C 0.44065 0.27183 0.41412 0.0
C226 C 0.40983 0.28617 0.43706 0.0
C227 C 0.41668 0.30252 0.4792 0.0
C228 C 0.4775 0.27468 0.43433 0.0
H229 H 0.45933 0.31658 0.53083 0.0
C230 C 0.53867 0.3288 0.58087 0.0
O231 O 0.59834 0.39459 0.51091 0.0
O232 O 0.53765 0.38828 0.48778 0.0
N233 N 0.54384 0.2663 0.43453 0.0
C234 C 0.57651 0.25314 0.41749 0.0
C235 C 0.57454 0.23563 0.37583 0.0
C236 C 0.5389 0.23131 0.35272 0.0
C237 C 0.50553 0.2445 0.37157 0.0
C238 C 0.50928 0.26183 0.41304 0.0
H239 H 0.60388 0.2559 0.43555 0.0
O240 O 0.58249 0.35584 0.4218 0.0
O241 O 0.5452 0.32547 0.46225 0.0
O242 O 0.62106 0.32733 0.50112 0.0
O243 O 0.59208 0.28317 0.51096 0.0
C244 C 0.46857 0.24069 0.35131 0.0
C245 C 0.43621 0.2546 0.37226 0.0
H246 H 0.3808 0.28475 0.42268 0.0
H247 H 0.39307 0.31371 0.49705 0.0
H248 H 0.60039 0.22534 0.36173 0.0
H249 H 0.53747 0.21772 0.32068 0.0
H250 H 0.46472 0.22708 0.31962 0.0
H251 H 0.408 0.25174 0.35602 0.0
Mn252 Mn 0.44429 0.66006 0.51402 0.0
Mn253 Mn 0.44671 0.73356 0.49273 0.0
C254 C 0.45019 0.67662 0.43611 0.0
C255 C 0.47581 0.61584 0.53171 0.0
C256 C 0.37334 0.69993 0.51467 0.0
O257 O 0.45505 0.67723 0.57949 0.0
O258 O 0.45907 0.72571 0.56181 0.0
C259 C 0.52977 0.74563 0.50855 0.0
N260 N 0.49794 0.74699 0.47987 0.0
C261 C 0.53155 0.7765 0.4213 0.0
C262 C 0.56469 0.77555 0.45031 0.0
C263 C 0.56386 0.75988 0.49397 0.0
C264 C 0.4985 0.7618 0.43763 0.0
H265 H 0.52904 0.73391 0.54239 0.0
C266 C 0.46032 0.70405 0.59146 0.0
O267 O 0.43943 0.61952 0.54147 0.0
O268 O 0.49411 0.63822 0.51371 0.0
N269 N 0.43562 0.74473 0.4278 0.0
C270 C 0.4026 0.74074 0.40194 0.0
C271 C 0.39976 0.75287 0.35553 0.0
C272 C 0.43058 0.76941 0.33665 0.0
C273 C 0.46417 0.77338 0.36413 0.0
C274 C 0.46552 0.76045 0.40986 0.0
H275 H 0.37873 0.72829 0.41658 0.0
O276 O 0.43726 0.65038 0.44557 0.0
O277 O 0.45996 0.69285 0.47313 0.0
O278 O 0.3881 0.6743 0.51868 0.0
O279 O 0.39257 0.72312 0.50504 0.0
C280 C 0.49664 0.7892 0.34767 0.0
C281 C 0.53025 0.79088 0.37632 0.0
H282 H 0.59104 0.78648 0.43918 0.0
H283 H 0.58936 0.75896 0.51647 0.0
H284 H 0.3738 0.74963 0.33448 0.0
H285 H 0.42826 0.77878 0.30088 0.0
H286 H 0.49635 0.79969 0.31268 0.0
H287 H 0.55529 0.80257 0.36282 0.0
C288 C 0.94888 0.94423 0.99084 0.0
C289 C 0.96825 0.923 0.0184 0.0
C290 C 0.96243 0.97351 0.98876 0.0
C291 C 0.99547 0.98176 0.01582 0.0
C292 C 0.01459 0.96044 0.04437 0.0
C293 C 0.00102 0.93131 0.04485 0.0
C294 C 0.94168 0.99553 0.95727 0.0
C295 C 0.04923 0.96844 0.07481 0.0
C296 C 0.05344 0.05091 0.98602 0.0
C297 C 0.03773 0.0713 0.01846 0.0
C298 C 0.03923 0.02183 0.98378 0.0
C299 C 0.0095 0.01285 0.01573 0.0
C300 C 0.99416 0.03331 0.04913 0.0
C301 C 0.00808 0.06236 0.0496 0.0
C302 C 0.05577 1.0008 0.94702 0.0
C303 C 0.96337 0.02444 0.08485 0.0
H304 H 0.92375 0.9378 0.97004 0.0
H305 H 0.01597 0.91499 0.06647 0.0
H306 H 0.93024 0.01386 0.97958 0.0
H307 H 0.96221 0.00532 0.93107 0.0
H308 H 0.91731 0.9854 0.93716 0.0
H309 H 0.06041 0.94933 0.09562 0.0
H310 H 0.0728 0.97698 0.05164 0.0
H311 H 0.04143 0.98627 0.10042 0.0
H312 H 0.07606 0.05791 0.96157 0.0
H313 H 0.99603 0.07808 0.07492 0.0
H314 H 0.03223 0.99171 0.9243 0.0
H315 H 0.06974 0.9819 0.96545 0.0
H316 H 0.07743 0.01158 0.92332 0.0
H317 H 0.93733 0.01645 0.06558 0.0
H318 H 0.9548 0.04296 0.1088 0.0
H319 H 0.97398 0.00597 0.1075 0.0
C320 C 0.00949 0.93104 0.45333 0.0
C321 C 0.03816 0.92101 0.48502 0.0
C322 C 0.99644 0.96031 0.45469 0.0
C323 C 0.01177 0.97996 0.48939 0.0
C324 C 0.04091 0.97001 0.52142 0.0
C325 C 0.05412 0.94067 0.51847 0.0
C326 C 0.96614 0.97018 0.419 0.0
C327 C 0.05753 0.99019 0.55937 0.0
C328 C 0.00244 0.06205 0.46466 0.0
C329 C 0.96924 0.06951 0.49099 0.0
C330 C 0.01665 0.03308 0.46406 0.0
C331 C 0.99768 0.01103 0.49128 0.0
C332 C 0.96439 0.01847 0.51848 0.0
C333 C 0.95027 0.04761 0.51758 0.0
C334 C 0.0516 0.02598 0.4336 0.0
C335 C 0.94372 0.99565 0.54851 0.0
H336 H 0.99719 0.9159 0.42725 0.0
H337 H 0.07597 0.93287 0.54336 0.0
H338 H 0.93978 0.97745 0.43835 0.0
H339 H 0.97692 0.98936 0.39813 0.0
H340 H 0.95804 0.95239 0.39339 0.0
H341 H 0.07961 0.979 0.58193 0.0
H342 H 0.07096 0.00974 0.54216 0.0
H343 H 0.03407 0.99838 0.5831 0.0
H344 H 0.01712 0.07886 0.44378 0.0
H345 H 0.9248 0.05334 0.53826 0.0
H346 H 0.04397 0.00906 0.40632 0.0
H347 H 0.07486 0.01657 0.45637 0.0
H348 H 0.06311 0.04571 0.41469 0.0
H349 H 0.93211 0.97799 0.52493 0.0
H350 H 0.91947 0.00527 0.56949 0.0
H351 H 0.96431 0.98511 0.57385 0.0
C352 C 0.47446 0.58155 0.01788 0.0
C353 C 0.50743 0.58959 0.99161 0.0
C354 C 0.46116 0.5523 0.01824 0.0
C355 C 0.48074 0.53069 0.9907 0.0
C356 C 0.5127 0.53905 0.96186 0.0
C357 C 0.52602 0.56835 0.96319 0.0
C358 C 0.42756 0.54424 0.05035 0.0
C359 C 0.53373 0.5168 0.93103 0.0
C360 C 0.47945 0.45158 0.03535 0.0
C361 C 0.4503 0.43896 0.00707 0.0
C362 C 0.48922 0.48146 0.03067 0.0
C363 C 0.47014 0.49899 -0.00418 0.0
C364 C 0.44084 0.48629 0.9668 0.0
C365 C 0.43084 0.45645 0.97328 0.0
C366 C 0.51988 0.49428 0.06327 0.0
C367 C 0.42056 0.50409 0.92847 0.0
H368 H 0.46007 0.59784 0.04015 0.0
H369 H 0.55136 0.57452 0.94257 0.0
H370 H 0.40532 0.532 0.02969 0.0
H371 H 0.43774 0.52947 0.07957 0.0
H372 H 0.41385 0.56394 0.06694 0.0
H373 H 0.55473 0.52745 0.90628 0.0
H374 H 0.54962 0.5011 0.95439 0.0
H375 H 0.51284 0.50379 0.9094 0.0
H376 H 0.49439 0.43811 0.06169 0.0
H377 H 0.40857 0.44661 0.95103 0.0
H378 H 0.508 0.51342 0.08335 0.0
H379 H 0.54451 0.50245 0.0415 0.0
H380 H 0.53095 0.47791 0.08964 0.0
H381 H 0.40571 0.52328 0.94496 0.0
H382 H 0.39894 0.49082 0.90832 0.0
H383 H 0.44206 0.51294 0.90258 0.0
C384 C 0.52709 0.45098 0.48105 0.0
C385 C 0.55651 0.43781 0.5082 0.0
C386 C 0.51712 0.48066 0.48777 0.0
C387 C 0.53631 0.49745 0.52353 0.0
C388 C 0.56617 0.48429 0.55106 0.0
C389 C 0.5763 0.45465 0.5426 0.0
C390 C 0.48581 0.494 0.45674 0.0
C391 C 0.58666 0.50128 0.59021 0.0
C392 C 0.52766 0.5804 0.50833 0.0
C393 C 0.49455 0.58658 0.53564 0.0
C394 C 0.54265 0.55166 0.50565 0.0
C395 C 0.5246 0.52868 0.53181 0.0
C396 C 0.49267 0.5352 0.56194 0.0
C397 C 0.4777 0.56402 0.56301 0.0
C398 C 0.57621 0.54559 0.47234 0.0
C399 C 0.47321 0.51146 0.59134 0.0
H400 H 0.51189 0.43802 0.45423 0.0
H401 H 0.5988 0.44438 0.56397 0.0
H402 H 0.46106 0.50082 0.47953 0.0
H403 H 0.49682 0.51407 0.43844 0.0
H404 H 0.47511 0.47836 0.42895 0.0
H405 H 0.60962 0.48802 0.60789 0.0
H406 H 0.59985 0.52159 0.57518 0.0
H407 H 0.5655 0.50831 0.61794 0.0
H408 H 0.54073 0.59772 0.48689 0.0
H409 H 0.45226 0.56875 0.58445 0.0
H410 H 0.56617 0.53196 0.44158 0.0
H411 H 0.59898 0.53287 0.49123 0.0
H412 H 0.58917 0.5662 0.45793 0.0
H413 H 0.45753 0.49615 0.56705 0.0
H414 H 0.45225 0.52075 0.61756 0.0
H415 H 0.49504 0.49829 0.61121 0.0
C416 C 0.00367 0.17314 0.14937 0.0
C417 C 0.03834 0.18681 0.13656 0.0
C418 C 0.98899 0.1757 0.19613 0.0
C419 C 0.00796 0.19434 0.22967 0.0
C420 C 0.04156 0.20994 0.2155 0.0
C421 C 0.05758 0.20464 0.16985 0.0
C422 C 0.95495 0.15671 0.21041 0.0
C423 C 0.06033 0.23227 0.24829 0.0
C424 C 0.94536 0.20295 0.3407 0.0
C425 C 0.96529 0.18545 0.3738 0.0
C426 C 0.96122 0.20883 0.29515 0.0
C427 C 0.99545 0.1941 0.28086 0.0
C428 C 0.01515 0.1758 0.31422 0.0
C429 C 0.00052 0.17268 0.36092 0.0
C430 C 0.94157 0.23083 0.26258 0.0
C431 C 0.05 0.15772 0.29978 0.0
H432 H 0.98961 0.1586 0.12374 0.0
H433 H 0.08512 0.21432 0.16026 0.0
H434 H 0.96199 0.14381 0.24323 0.0
H435 H 0.92963 0.17072 0.2189 0.0
H436 H 0.94646 0.14107 0.18147 0.0
H437 H 0.0399 0.25081 0.25394 0.0
H438 H 0.06657 0.2227 0.28412 0.0
H439 H 0.08756 0.24122 0.23297 0.0
H440 H 0.91743 0.21193 0.35036 0.0
H441 H 0.01516 0.15839 0.3864 0.0
H442 H 0.93561 0.2212 0.2267 0.0
H443 H 0.9613 0.24981 0.25698 0.0
H444 H 0.91405 0.23915 0.27804 0.0
H445 H 0.04353 0.14476 0.26682 0.0
H446 H 0.05914 0.1422 0.32857 0.0
H447 H 0.07471 0.17239 0.29146 0.0
C448 C 0.0037 0.81771 0.35468 0.0
C449 C 0.03647 0.80286 0.37102 0.0
C450 C 0.9912 0.8145 0.30718 0.0
C451 C 0.01022 0.79404 0.27666 0.0
C452 C 0.04162 0.77728 0.29443 0.0
C453 C 0.05586 0.7832 0.34075 0.0
C454 C 0.95941 0.83453 0.28903 0.0
C455 C 0.05983 0.75309 0.26479 0.0
C456 C 0.94976 0.78734 0.16468 0.0
C457 C 0.97139 0.80407 0.13226 0.0
C458 C 0.96477 0.78033 0.21007 0.0
C459 C -2e-05 0.79333 0.22493 0.0
C460 C 0.0219 0.81034 0.1919 0.0
C461 C 0.00787 0.81452 0.1452 0.0
C462 C 0.94281 0.7595 0.24234 0.0
C463 C 0.05807 0.82661 0.207 0.0
H464 H 0.98955 0.83351 0.37816 0.0
H465 H 0.08198 0.77253 0.35324 0.0
H466 H 0.96854 0.84569 0.25533 0.0
H467 H 0.93319 0.82145 0.28077 0.0
H468 H 0.95141 0.85171 0.31577 0.0
H469 H 0.0376 0.73615 0.25668 0.0
H470 H 0.07031 0.76168 0.22984 0.0
H471 H 0.0843 0.74232 0.28376 0.0
H472 H 0.92109 0.77996 0.15462 0.0
H473 H 0.02388 0.82813 0.12002 0.0
H474 H 0.93489 0.7704 0.27663 0.0
H475 H 0.96175 0.74056 0.25133 0.0
H476 H 0.91612 0.75098 0.22503 0.0
H477 H 0.05168 0.84112 0.23821 0.0
H478 H 0.07009 0.84041 0.17754 0.0
H479 H 0.08069 0.81082 0.21844 0.0
C480 C 0.02737 0.84186 0.65301 0.0
C481 C 0.00871 0.82083 0.62409 0.0
C482 C 0.01949 0.84383 0.70232 0.0
C483 C 0.99199 0.82454 0.72295 0.0
C484 C 0.97148 0.80443 0.69354 0.0
C485 C 0.98025 0.80269 0.6444 0.0
C486 C 0.04203 0.86546 0.73272 0.0
C487 C 0.94143 0.7839 0.71432 0.0
C488 C 0.00344 0.80216 0.85323 0.0
C489 C 0.97575 0.81994 0.87585 0.0
C490 C 0.00952 0.80394 0.80352 0.0
C491 C 0.98696 0.82368 0.7758 0.0
C492 C 0.95931 0.84198 0.79843 0.0
C493 C 0.9542 0.84004 0.84836 0.0
C494 C 0.03975 0.78443 0.78057 0.0
C495 C 0.93453 0.86305 0.76978 0.0
H496 H 0.04938 0.856 0.63758 0.0
H497 H 0.96535 0.78667 0.62212 0.0
H498 H 0.02222 0.87879 0.75534 0.0
H499 H 0.06145 0.85319 0.75743 0.0
H500 H 0.05986 0.88064 0.71053 0.0
H501 H 0.92548 0.77166 0.68592 0.0
H502 H 0.9556 0.76765 0.73842 0.0
H503 H 0.92035 0.79646 0.73635 0.0
H504 H 0.02039 0.78679 0.8744 0.0
H505 H 0.93258 0.85371 0.86566 0.0
H506 H 0.06069 0.79806 0.76009 0.0
H507 H 0.02585 0.76914 0.75462 0.0
H508 H 0.05587 0.77116 0.80753 0.0
H509 H 0.95298 0.87818 0.74844 0.0
H510 H 0.91523 0.87644 0.7931 0.0
H511 H 0.91647 0.85048 0.7439 0.0
C512 C 0.04184 0.15469 0.85089 0.0
C513 C 0.02291 0.17518 0.88058 0.0
C514 C 0.03354 0.15297 0.80154 0.0
C515 C 0.00529 0.17191 0.78158 0.0
C516 C 0.9852 0.19197 0.81159 0.0
C517 C 0.99444 0.19351 0.86068 0.0
C518 C 0.05581 0.13151 0.77054 0.0
C519 C 0.95442 0.21219 0.79167 0.0
C520 C 0.00911 0.19224 0.64928 0.0
C521 C 0.98048 0.17388 0.62979 0.0
C522 C 0.01818 0.19121 0.69844 0.0
C523 C 0.99774 0.17167 0.72895 0.0
C524 C 0.9693 0.15269 0.70941 0.0
C525 C 0.9612 0.15387 0.65996 0.0
C526 C 0.04918 0.21142 0.71788 0.0
C527 C 0.94667 0.13178 0.74096 0.0
H528 H 0.06399 0.14052 0.86593 0.0
H529 H 0.97943 0.2092 0.88346 0.0
H530 H 0.03562 0.11698 0.75053 0.0
H531 H 0.07299 0.14382 0.74345 0.0
H532 H 0.07573 0.11748 0.79197 0.0
H533 H 0.93997 0.2253 0.82029 0.0
H534 H 0.96745 0.22764 0.7653 0.0
H535 H 0.9322 0.19914 0.77227 0.0
H536 H 0.02438 0.20755 0.62612 0.0
H537 H 0.9389 0.13971 0.64521 0.0
H538 H 0.07123 0.19843 0.73765 0.0
H539 H 0.03631 0.22723 0.74382 0.0
H540 H 0.06381 0.22414 0.68895 0.0
H541 H 0.9666 0.1173 0.76143 0.0
H542 H 0.92657 0.11769 0.71988 0.0
H543 H 0.92964 0.14454 0.76766 0.0
C544 C 0.55237 0.67347 0.18182 0.0
C545 C 0.53107 0.68667 0.14478 0.0
C546 C 0.53823 0.67247 0.22895 0.0
C547 C 0.50359 0.68765 0.2404 0.0
C548 C 0.48254 0.70189 0.2033 0.0
C549 C 0.49553 0.69973 0.15555 0.0
C550 C 0.55998 0.65363 0.2648 0.0
C551 C 0.44583 0.71869 0.21381 0.0
C552 C 0.44184 0.66829 0.34877 0.0
C553 C 0.46109 0.68315 0.38592 0.0
C554 C 0.45594 0.66871 0.30159 0.0
C555 C 0.48803 0.68688 0.29023 0.0
C556 C 0.50691 0.7027 0.32745 0.0
C557 C 0.49447 0.6992 0.3752 0.0
C558 C 0.43708 0.64823 0.26557 0.0
C559 C 0.54072 0.72276 0.31703 0.0
H560 H 0.57913 0.66211 0.17341 0.0
H561 H 0.47721 0.70729 0.12659 0.0
H562 H 0.58852 0.66381 0.27228 0.0
H563 H 0.54448 0.65025 0.29926 0.0
H564 H 0.56586 0.6316 0.24882 0.0
H565 H 0.43318 0.72865 0.18096 0.0
H566 H 0.42369 0.70401 0.22959 0.0
H567 H 0.45186 0.73631 0.24057 0.0
H568 H 0.41692 0.65469 0.35708 0.0
H569 H 0.51158 0.70822 0.40419 0.0
H570 H 0.45279 0.64648 0.23094 0.0
H571 H 0.40711 0.65579 0.25847 0.0
H572 H 0.43476 0.62574 0.28122 0.0
H573 H 0.56493 0.71027 0.30095 0.0
H574 H 0.55182 0.73362 0.35 0.0
H575 H 0.53191 0.73984 0.29057 0.0
C576 C 0.55882 0.30849 0.34086 0.0
C577 C 0.54017 0.32589 0.37524 0.0
C578 C 0.54246 0.30422 0.29509 0.0
C579 C 0.50877 0.3201 0.28202 0.0
C580 C 0.49042 0.33835 0.31667 0.0
C581 C 0.50568 0.34018 0.36336 0.0
C582 C 0.56081 0.28238 0.26122 0.0
C583 C 0.45614 0.35742 0.30376 0.0
C584 C 0.4982 0.34062 0.15007 0.0
C585 C 0.46362 0.32652 0.13796 0.0
C586 C 0.51338 0.33855 0.19677 0.0
C587 C 0.49485 0.32025 0.23117 0.0
C588 C 0.46103 0.3046 0.21788 0.0
C589 C 0.44475 0.30912 0.17214 0.0
C590 C 0.54783 0.35739 0.20994 0.0
C591 C 0.44249 0.28271 0.25147 0.0
H592 H 0.58616 0.29824 0.34979 0.0
H593 H 0.49202 0.35437 0.38982 0.0
H594 H 0.54047 0.26376 0.25605 0.0
H595 H 0.56613 0.29236 0.22545 0.0
H596 H 0.58847 0.27348 0.27539 0.0
H597 H 0.44767 0.3724 0.33361 0.0
H598 H 0.46291 0.37099 0.27157 0.0
H599 H 0.43093 0.34342 0.29466 0.0
H600 H 0.51203 0.35482 0.12379 0.0
H601 H 0.41732 0.29906 0.16307 0.0
H602 H 0.57292 0.34322 0.21884 0.0
H603 H 0.54117 0.37084 0.24232 0.0
H604 H 0.55641 0.37247 0.18029 0.0
H605 H 0.46271 0.264 0.25648 0.0
H606 H 0.41479 0.27396 0.23714 0.0
H607 H 0.43718 0.29258 0.28733 0.0
C608 C 0.45963 0.35209 0.85031 0.0
C609 C 0.478 0.33206 0.88132 0.0
C610 C 0.46925 0.35337 0.80125 0.0
C611 C 0.49815 0.33436 0.78289 0.0
C612 C 0.51751 0.31466 0.8142 0.0
C613 C 0.5071 0.31365 0.86295 0.0
C614 C 0.44784 0.37455 0.76886 0.0
C615 C 0.54881 0.29428 0.79603 0.0
C616 C 0.49791 0.31315 0.65079 0.0
C617 C 0.5272 0.33125 0.63215 0.0
C618 C 0.48758 0.31446 0.69956 0.0
C619 C 0.50723 0.33417 0.7306 0.0
C620 C 0.53639 0.35285 0.71197 0.0
C621 C 0.54591 0.35127 0.66291 0.0
C622 C 0.45602 0.29442 0.71802 0.0
C623 C 0.55811 0.37403 0.74407 0.0
H624 H 0.43709 0.36638 0.86411 0.0
H625 H 0.52174 0.2983 0.88666 0.0
H626 H 0.46858 0.38899 0.74958 0.0
H627 H 0.43155 0.36202 0.74118 0.0
H628 H 0.42723 0.38867 0.7891 0.0
H629 H 0.56231 0.28128 0.82546 0.0
H630 H 0.53655 0.27872 0.76922 0.0
H631 H 0.57167 0.30718 0.77757 0.0
H632 H 0.483 0.29781 0.62727 0.0
H633 H 0.5686 0.36534 0.64891 0.0
H634 H 0.43332 0.30761 0.73625 0.0
H635 H 0.46806 0.27895 0.74509 0.0
H636 H 0.44237 0.28133 0.68878 0.0
H637 H 0.53758 0.38878 0.76309 0.0
H638 H 0.57896 0.38783 0.72365 0.0
H639 H 0.57416 0.36152 0.77197 0.0
C640 C 0.49075 0.73325 0.87485 0.0
C641 C 0.51987 0.71351 0.88861 0.0
C642 C 0.4802 0.73613 0.82623 0.0
C643 C 0.4999 0.71932 0.79092 0.0
C644 C 0.53085 0.70073 0.80455 0.0
C645 C 0.54017 0.69782 0.85328 0.0
C646 C 0.44671 0.75584 0.81302 0.0
C647 C 0.55307 0.68286 0.76788 0.0
C648 C 0.45153 0.69182 0.67783 0.0
C649 C 0.46773 0.71022 0.6427 0.0
C650 C 0.45995 0.69583 0.72662 0.0
C651 C 0.48588 0.71842 0.74051 0.0
C652 C 0.50126 0.7378 0.70541 0.0
C653 C 0.49163 0.73365 0.65675 0.0
C654 C 0.44238 0.67504 0.76307 0.0
C655 C 0.52943 0.76184 0.71889 0.0
H656 H 0.4751 0.74543 0.90221 0.0
H657 H 0.56319 0.68294 0.86385 0.0
H658 H 0.45439 0.77022 0.78216 0.0
H659 H 0.42184 0.74205 0.80167 0.0
H660 H 0.43744 0.76995 0.84364 0.0
H661 H 0.57889 0.67203 0.78377 0.0
H662 H 0.53407 0.6655 0.75262 0.0
H663 H 0.56257 0.69712 0.73767 0.0
H664 H 0.43246 0.67401 0.66707 0.0
H665 H 0.5041 0.74793 0.62958 0.0
H666 H 0.4296 0.68763 0.7934 0.0
H667 H 0.46523 0.66058 0.77821 0.0
H668 H 0.41962 0.66082 0.74703 0.0
H669 H 0.51838 0.77482 0.74982 0.0
H670 H 0.53523 0.77708 0.68841 0.0
H671 H 0.55717 0.75173 0.73025 0.0
C672 C 0.33844 0.26422 0.96389 0.0
C673 C 0.34307 0.28826 -0.00484 0.0
C674 C 0.30259 0.24994 0.95935 0.0
C675 C 0.27106 0.25932 0.98802 0.0
C676 C 0.27558 0.28372 0.01943 0.0
C677 C 0.31139 0.29817 0.02206 0.0
C678 C 0.29857 0.22463 0.92435 0.0
C679 C 0.24297 0.29396 0.05148 0.0
C680 C 0.16676 0.23958 0.9601 0.0
C681 C 0.16048 0.21575 0.99131 0.0
C682 C 0.20321 0.25305 0.95682 0.0
C683 C 0.23368 0.24307 0.98667 0.0
C684 C 0.22767 0.21858 0.01748 0.0
C685 C 0.19126 0.20494 0.0189 0.0
C686 C 0.20877 0.2785 0.92244 0.0
C687 C 0.25912 0.20769 0.05071 0.0
H688 H 0.36289 0.25662 0.94287 0.0
H689 H 0.31503 0.31653 0.04669 0.0
H690 H 0.29299 0.20387 0.94428 0.0
H691 H 0.27352 0.22842 0.90021 0.0
H692 H 0.32488 0.22162 0.90197 0.0
H693 H 0.25122 0.31325 0.07394 0.0
H694 H 0.21751 0.30006 0.0294 0.0
H695 H 0.23395 0.27571 0.07564 0.0
H696 H 0.14302 0.24789 0.93855 0.0
H697 H 0.18634 0.18675 0.0435 0.0
H698 H 0.23506 0.275 0.90029 0.0
H699 H 0.21301 0.29922 0.94303 0.0
H700 H 0.18362 0.28143 0.89806 0.0
H701 H 0.28553 0.20232 0.02989 0.0
H702 H 0.25022 0.18781 0.0713 0.0
H703 H 0.26689 0.22537 0.07663 0.0
C704 C 0.66707 0.73819 0.97183 0.0
C705 C 0.65758 0.71641 0.00555 0.0
C706 C 0.70511 0.74831 0.96712 0.0
C707 C 0.73403 0.73703 -0.00195 0.0
C708 C 0.72476 0.71434 0.03126 0.0
C709 C 0.68655 0.70398 0.03418 0.0
C710 C 0.714 0.7719 0.93036 0.0
C711 C 0.75465 0.70222 0.06552 0.0
C712 C 0.83985 0.75158 0.9704 0.0
C713 C 0.8471 0.77672 -0.00153 0.0
C714 C 0.80303 0.73861 0.96932 0.0
C715 C 0.77314 0.7506 -0.00195 0.0
C716 C 0.78034 0.77597 0.02649 0.0
C717 C 0.81713 0.78896 0.02585 0.0
C718 C 0.79612 0.71211 0.93751 0.0
C719 C 0.74939 0.7891 0.05829 0.0
H720 H 0.64445 0.7477 0.94969 0.0
H721 H 0.6789 0.68739 0.06064 0.0
H722 H 0.72088 0.79292 0.94897 0.0
H723 H 0.7397 0.76565 0.90877 0.0
H724 H 0.68936 0.77584 0.90554 0.0
H725 H 0.74343 0.68339 0.08698 0.0
H726 H 0.78062 0.69484 0.04548 0.0
H727 H 0.76399 0.71989 0.09063 0.0
H728 H 0.863 0.74211 0.94912 0.0
H729 H 0.82279 0.80812 0.04814 0.0
H730 H 0.77194 0.71665 0.91235 0.0
H731 H 0.78758 0.69287 0.95977 0.0
H732 H 0.8221 0.70607 0.9162 0.0
H733 H 0.72455 0.7964 0.03606 0.0
H734 H 0.76005 0.80828 0.07938 0.0
H735 H 0.73849 0.77214 0.0837 0.0
C736 C 0.14843 0.74053 0.53898 0.0
C737 C 0.14631 0.77039 0.52548 0.0
C738 C 0.18408 0.72594 0.54237 0.0
C739 C 0.21844 0.74151 0.53185 0.0
C740 C 0.2167 0.77194 0.52036 0.0
C741 C 0.18069 0.78603 0.51746 0.0
C742 C 0.18483 0.69359 0.5553 0.0
C743 C 0.2528 0.78934 0.50906 0.0
C744 C 0.31829 0.71432 0.56612 0.0
C745 C 0.3318 0.70392 0.5218 0.0
C746 C 0.28048 0.72509 0.57079 0.0
C747 C 0.25609 0.7258 0.52987 0.0
C748 C 0.26916 0.71381 0.48561 0.0
C749 C 0.30706 0.70305 0.4821 0.0
C750 C 0.26754 0.73745 0.61862 0.0
C751 C 0.24404 0.71414 0.44118 0.0
H752 H 0.12212 0.72822 0.54563 0.0
H753 H 0.17948 0.80906 0.50707 0.0
H754 H 0.19424 0.68052 0.52362 0.0
H755 H 0.20599 0.68949 0.58455 0.0
H756 H 0.15607 0.68541 0.56701 0.0
H757 H 0.24672 0.81315 0.50334 0.0
H758 H 0.27401 0.78714 0.53878 0.0
H759 H 0.26656 0.7804 0.47605 0.0
H760 H 0.33797 0.7154 0.59647 0.0
H761 H 0.31805 0.69547 0.44768 0.0
H762 H 0.23835 0.72915 0.62803 0.0
H763 H 0.26567 0.76184 0.61619 0.0
H764 H 0.28784 0.73169 0.64815 0.0
H765 H 0.21525 0.70459 0.44922 0.0
H766 H 0.25718 0.70163 0.41092 0.0
H767 H 0.23943 0.73727 0.42938 0.0
C768 C 0.69231 0.29559 0.49052 0.0
C769 C 0.66018 0.28539 0.51631 0.0
C770 C 0.72784 0.28072 0.49277 0.0
C771 C 0.73162 0.25554 0.52264 0.0
C772 C 0.69961 0.24576 0.55008 0.0
C773 C 0.66407 0.26054 0.54598 0.0
C774 C 0.76101 0.29146 0.46208 0.0
C775 C 0.70282 0.21958 0.58342 0.0
C776 C 0.81185 0.20181 0.49027 0.0
C777 C 0.8422 0.21202 0.51919 0.0
C778 C 0.77538 0.21536 0.49178 0.0
C779 C 0.76888 0.23912 0.52398 0.0
C780 C 0.79888 0.24838 0.55519 0.0
C781 C 0.83539 0.23504 0.55184 0.0
C782 C 0.74446 0.20529 0.45712 0.0
C783 C 0.79278 0.27299 0.59104 0.0
H784 H 0.68927 0.31459 0.4671 0.0
H785 H 0.6393 0.25269 0.56614 0.0
H786 H 0.78613 0.29704 0.48512 0.0
H787 H 0.77033 0.27367 0.43719 0.0
H788 H 0.75323 0.31121 0.44048 0.0
H789 H 0.67606 0.21605 0.60473 0.0
H790 H 0.70878 0.19932 0.56227 0.0
H791 H 0.72738 0.2227 0.60859 0.0
H792 H 0.81722 0.18427 0.46458 0.0
H793 H 0.85882 0.24287 0.57438 0.0
H794 H 0.73739 0.22349 0.43188 0.0
H795 H 0.71759 0.19972 0.47686 0.0
H796 H 0.75356 0.18574 0.43581 0.0
H797 H 0.78905 0.2942 0.57169 0.0
H798 H 0.81748 0.27524 0.61631 0.0
H799 H 0.76607 0.26907 0.61218 0.0
loop_
_geom_bond_atom_site_label_1
_geom_bond_atom_site_label_2
_geom_bond_distance
_geom_bond_site_symmetry_2
_ccdc_geom_bond_type
Mn0 O5 2.095 1_554 S
Mn0 O15 2.162 . S
Mn0 O16 2.297 . S
Mn0 O24 2.385 . S
Mn0 O25 2.209 . S
Mn0 O26 2.094 . S
Mn1 O6 2.121 1_554 S
Mn1 N8 2.257 1_455 S
Mn1 N17 2.282 . S
Mn1 O25 2.215 . S
Mn1 O27 2.117 . S
C2 O24 1.234 . S
C2 O25 1.283 . S
C3 O15 1.281 . S
C3 O16 1.236 . S
C4 O26 1.240 . S
C4 O27 1.264 . S
O5 Mn0 2.095 1_556 S
O5 C14 1.250 . S
O6 Mn1 2.121 1_556 S
O6 C14 1.258 . S
C7 N8 1.326 . S
C7 C11 1.460 . S
C7 H13 0.929 1_554 S
N8 Mn1 2.257 1_655 S
N8 C7 1.326 . S
N8 C12 1.362 . S
C9 C10 1.258 . S
C9 C12 1.431 . S
C9 C29 1.449 . S
C10 C9 1.258 . S
C10 C11 1.477 . S
C10 H30 0.931 . S
C11 C7 1.460 . S
C11 C10 1.477 . S
C11 H31 0.930 . S
C12 N8 1.362 . S
C12 C9 1.431 . S
C12 C22 1.476 1_655 S
H13 C7 0.929 1_556 S
C14 O5 1.250 . S
C14 O6 1.258 . S
O15 Mn0 2.162 . S
O15 C3 1.281 . S
O16 Mn0 2.297 . S
O16 C3 1.236 . S
N17 Mn1 2.282 . S
N17 C18 1.328 . S
N17 C22 1.318 . S
C18 N17 1.328 . S
C18 C19 1.457 . S
C18 H23 0.929 . S
C19 C18 1.457 . S
C19 C20 1.291 . S
C19 H32 0.931 . S
C20 C19 1.291 . S
C20 C21 1.373 . S
C20 H33 0.929 . S
C21 C20 1.373 . S
C21 C22 1.396 . S
C21 C28 1.403 1_455 S
C22 C12 1.476 1_455 S
C22 N17 1.318 . S
C22 C21 1.396 . S
H23 C18 0.929 . S
O24 Mn0 2.385 . S
O24 C2 1.234 . S
O25 Mn0 2.209 . S
O25 Mn1 2.215 . S
O25 C2 1.283 . S
O26 Mn0 2.094 . S
O26 C4 1.240 . S
O27 Mn1 2.117 . S
O27 C4 1.264 . S
C28 C21 1.403 1_655 S
C28 C29 1.399 . S
C28 H34 0.929 . S
C29 C9 1.449 . S
C29 C28 1.399 . S
C29 H35 0.930 . S
H30 C10 0.931 . S
H31 C11 0.930 . S
H32 C19 0.931 . S
H33 C20 0.929 . S
H34 C28 0.929 . S
H35 C29 0.930 . S
Mn36 O41 2.095 1_554 S
Mn36 O51 2.162 . S
Mn36 O52 2.297 . S
Mn36 O60 2.385 . S
Mn36 O61 2.209 . S
Mn36 O62 2.094 . S
Mn37 O42 2.121 1_554 S
Mn37 N44 2.257 1_655 S
Mn37 N53 2.282 . S
Mn37 O61 2.215 . S
Mn37 O63 2.117 . S
C38 O60 1.234 . S
C38 O61 1.283 . S
C39 O51 1.281 . S
C39 O52 1.236 . S
C40 O62 1.240 . S
C40 O63 1.264 . S
O41 Mn36 2.095 1_556 S
O41 C50 1.250 . S
O42 Mn37 2.121 1_556 S
O42 C50 1.258 . S
C43 N44 1.326 . S
C43 C47 1.460 . S
C43 H49 0.929 1_554 S
N44 Mn37 2.257 1_455 S
N44 C43 1.326 . S
N44 C48 1.362 . S
C45 C46 1.258 . S
C45 C48 1.431 . S
C45 C65 1.449 . S
C46 C45 1.258 . S
C46 C47 1.477 . S
C46 H66 0.931 . S
C47 C43 1.460 . S
C47 C46 1.477 . S
C47 H67 0.930 . S
C48 N44 1.362 . S
C48 C45 1.431 . S
C48 C58 1.476 1_455 S
H49 C43 0.929 1_556 S
C50 O41 1.250 . S
C50 O42 1.258 . S
O51 Mn36 2.162 . S
O51 C39 1.281 . S
O52 Mn36 2.297 . S
O52 C39 1.236 . S
N53 Mn37 2.282 . S
N53 C54 1.328 . S
N53 C58 1.318 . S
C54 N53 1.328 . S
C54 C55 1.457 . S
C54 H59 0.929 . S
C55 C54 1.457 . S
C55 C56 1.291 . S
C55 H68 0.931 . S
C56 C55 1.291 . S
C56 C57 1.373 . S
C56 H69 0.929 . S
C57 C56 1.373 . S
C57 C58 1.396 . S
C57 C64 1.403 1_655 S
C58 C48 1.476 1_655 S
C58 N53 1.318 . S
C58 C57 1.396 . S
H59 C54 0.929 . S
O60 Mn36 2.385 . S
O60 C38 1.234 . S
O61 Mn36 2.209 . S
O61 Mn37 2.215 . S
O61 C38 1.283 . S
O62 Mn36 2.094 . S
O62 C40 1.240 . S
O63 Mn37 2.117 . S
O63 C40 1.264 . S
C64 C57 1.403 1_455 S
C64 C65 1.399 . S
C64 H70 0.929 . S
C65 C45 1.449 . S
C65 C64 1.399 . S
C65 H71 0.930 . S
H66 C46 0.931 . S
H67 C47 0.930 . S
H68 C55 0.931 . S
H69 C56 0.929 . S
H70 C64 0.929 . S
H71 C65 0.930 . S
Mn72 O77 2.095 . S
Mn72 O87 2.162 . S
Mn72 O88 2.297 . S
Mn72 O96 2.385 . S
Mn72 O97 2.209 . S
Mn72 O98 2.094 . S
Mn73 O78 2.121 . S
Mn73 N80 2.257 1_455 S
Mn73 N89 2.282 . S
Mn73 O97 2.215 . S
Mn73 O99 2.117 . S
C74 O96 1.234 . S
C74 O97 1.283 . S
C75 O87 1.281 . S
C75 O88 1.236 . S
C76 O98 1.240 . S
C76 O99 1.264 . S
O77 Mn72 2.095 . S
O77 C86 1.250 . S
O78 Mn73 2.121 . S
O78 C86 1.258 . S
C79 N80 1.326 . S
C79 C83 1.460 . S
C79 H85 0.929 . S
N80 Mn73 2.257 1_655 S
N80 C79 1.326 . S
N80 C84 1.362 . S
C81 C82 1.258 . S
C81 C84 1.431 . S
C81 C101 1.449 . S
C82 C81 1.258 . S
C82 C83 1.477 . S
C82 H102 0.931 . S
C83 C79 1.460 . S
C83 C82 1.477 . S
C83 H103 0.930 . S
C84 N80 1.362 . S
C84 C81 1.431 . S
C84 C94 1.476 1_655 S
H85 C79 0.929 . S
C86 O77 1.250 . S
C86 O78 1.258 . S
O87 Mn72 2.162 . S
O87 C75 1.281 . S
O88 Mn72 2.297 . S
O88 C75 1.236 . S
N89 Mn73 2.282 . S
N89 C90 1.328 . S
N89 C94 1.318 . S
C90 N89 1.328 . S
C90 C91 1.457 . S
C90 H95 0.929 . S
C91 C90 1.457 . S
C91 C92 1.291 . S
C91 H104 0.931 . S
C92 C91 1.291 . S
C92 C93 1.373 . S
C92 H105 0.929 . S
C93 C92 1.373 . S
C93 C94 1.396 . S
C93 C100 1.403 1_455 S
C94 C84 1.476 1_455 S
C94 N89 1.318 . S
C94 C93 1.396 . S
H95 C90 0.929 . S
O96 Mn72 2.385 . S
O96 C74 1.234 . S
O97 Mn72 2.209 . S
O97 Mn73 2.215 . S
O97 C74 1.283 . S
O98 Mn72 2.094 . S
O98 C76 1.240 . S
O99 Mn73 2.117 . S
O99 C76 1.264 . S
C100 C93 1.403 1_655 S
C100 C101 1.399 . S
C100 H106 0.929 . S
C101 C81 1.449 . S
C101 C100 1.399 . S
C101 H107 0.930 . S
H102 C82 0.931 . S
H103 C83 0.930 . S
H104 C91 0.931 . S
H105 C92 0.929 . S
H106 C100 0.929 . S
H107 C101 0.930 . S
Mn108 O113 2.095 . S
Mn108 O123 2.162 . S
Mn108 O124 2.297 . S
Mn108 O132 2.385 . S
Mn108 O133 2.209 . S
Mn108 O134 2.094 . S
Mn109 O114 2.121 . S
Mn109 N116 2.257 1_655 S
Mn109 N125 2.282 . S
Mn109 O133 2.215 . S
Mn109 O135 2.117 . S
C110 O132 1.234 . S
C110 O133 1.283 . S
C111 O123 1.281 . S
C111 O124 1.236 . S
C112 O134 1.240 . S
C112 O135 1.264 . S
O113 Mn108 2.095 . S
O113 C122 1.250 . S
O114 Mn109 2.121 . S
O114 C122 1.258 . S
C115 N116 1.326 . S
C115 C119 1.460 . S
C115 H121 0.929 . S
N116 Mn109 2.257 1_455 S
N116 C115 1.326 . S
N116 C120 1.362 . S
C117 C118 1.258 . S
C117 C120 1.431 . S
C117 C137 1.449 . S
C118 C117 1.258 . S
C118 C119 1.477 . S
C118 H138 0.931 . S
C119 C115 1.460 . S
C119 C118 1.477 . S
C119 H139 0.930 . S
C120 N116 1.362 . S
C120 C117 1.431 . S
C120 C130 1.476 1_455 S
H121 C115 0.929 . S
C122 O113 1.250 . S
C122 O114 1.258 . S
O123 Mn108 2.162 . S
O123 C111 1.281 . S
O124 Mn108 2.297 . S
O124 C111 1.236 . S
N125 Mn109 2.282 . S
N125 C126 1.328 . S
N125 C130 1.318 . S
C126 N125 1.328 . S
C126 C127 1.457 . S
C126 H131 0.929 . S
C127 C126 1.457 . S
C127 C128 1.291 . S
C127 H140 0.931 . S
C128 C127 1.291 . S
C128 C129 1.373 . S
C128 H141 0.929 . S
C129 C128 1.373 . S
C129 C130 1.396 . S
C129 C136 1.403 1_655 S
C130 C120 1.476 1_655 S
C130 N125 1.318 . S
C130 C129 1.396 . S
H131 C126 0.929 . S
O132 Mn108 2.385 . S
O132 C110 1.234 . S
O133 Mn108 2.209 . S
O133 Mn109 2.215 . S
O133 C110 1.283 . S
O134 Mn108 2.094 . S
O134 C112 1.240 . S
O135 Mn109 2.117 . S
O135 C112 1.264 . S
C136 C129 1.403 1_455 S
C136 C137 1.399 . S
C136 H142 0.929 . S
C137 C117 1.449 . S
C137 C136 1.399 . S
C137 H143 0.930 . S
H138 C118 0.931 . S
H139 C119 0.930 . S
H140 C127 0.931 . S
H141 C128 0.929 . S
H142 C136 0.929 . S
H143 C137 0.930 . S
Mn144 O149 2.095 1_554 S
Mn144 O159 2.162 . S
Mn144 O160 2.297 . S
Mn144 O168 2.385 . S
Mn144 O169 2.209 . S
Mn144 O170 2.094 . S
Mn145 O150 2.121 1_554 S
Mn145 N152 2.257 . S
Mn145 N161 2.282 . S
Mn145 O169 2.215 . S
Mn145 O171 2.117 . S
C146 O168 1.234 . S
C146 O169 1.283 . S
C147 O159 1.281 . S
C147 O160 1.236 . S
C148 O170 1.240 . S
C148 O171 1.264 . S
O149 Mn144 2.095 1_556 S
O149 C158 1.250 . S
O150 Mn145 2.121 1_556 S
O150 C158 1.258 . S
C151 N152 1.326 . S
C151 C155 1.460 . S
C151 H157 0.929 1_554 S
N152 Mn145 2.257 . S
N152 C151 1.326 . S
N152 C156 1.362 . S
C153 C154 1.258 . S
C153 C156 1.431 . S
C153 C173 1.449 . S
C154 C153 1.258 . S
C154 C155 1.477 . S
C154 H174 0.931 . S
C155 C151 1.460 . S
C155 C154 1.477 . S
C155 H175 0.930 . S
C156 N152 1.362 . S
C156 C153 1.431 . S
C156 C166 1.476 . S
H157 C151 0.929 1_556 S
C158 O149 1.250 . S
C158 O150 1.258 . S
O159 Mn144 2.162 . S
O159 C147 1.281 . S
O160 Mn144 2.297 . S
O160 C147 1.236 . S
N161 Mn145 2.282 . S
N161 C162 1.328 . S
N161 C166 1.318 . S
C162 N161 1.328 . S
C162 C163 1.457 . S
C162 H167 0.929 . S
C163 C162 1.457 . S
C163 C164 1.291 . S
C163 H176 0.931 . S
C164 C163 1.291 . S
C164 C165 1.373 . S
C164 H177 0.929 . S
C165 C164 1.373 . S
C165 C166 1.396 . S
C165 C172 1.403 . S
C166 C156 1.476 . S
C166 N161 1.318 . S
C166 C165 1.396 . S
H167 C162 0.929 . S
O168 Mn144 2.385 . S
O168 C146 1.234 . S
O169 Mn144 2.209 . S
O169 Mn145 2.215 . S
O169 C146 1.283 . S
O170 Mn144 2.094 . S
O170 C148 1.240 . S
O171 Mn145 2.117 . S
O171 C148 1.264 . S
C172 C165 1.403 . S
C172 C173 1.399 . S
C172 H178 0.929 . S
C173 C153 1.449 . S
C173 C172 1.399 . S
C173 H179 0.930 . S
H174 C154 0.931 . S
H175 C155 0.930 . S
H176 C163 0.931 . S
H177 C164 0.929 . S
H178 C172 0.929 . S
H179 C173 0.930 . S
Mn180 O185 2.095 1_554 S
Mn180 O195 2.162 . S
Mn180 O196 2.297 . S
Mn180 O204 2.385 . S
Mn180 O205 2.209 . S
Mn180 O206 2.094 . S
Mn181 O186 2.121 1_554 S
Mn181 N188 2.257 . S
Mn181 N197 2.282 . S
Mn181 O205 2.215 . S
Mn181 O207 2.117 . S
C182 O204 1.234 . S
C182 O205 1.283 . S
C183 O195 1.281 . S
C183 O196 1.236 . S
C184 O206 1.240 . S
C184 O207 1.264 . S
O185 Mn180 2.095 1_556 S
O185 C194 1.250 . S
O186 Mn181 2.121 1_556 S
O186 C194 1.258 . S
C187 N188 1.326 . S
C187 C191 1.460 . S
C187 H193 0.929 1_554 S
N188 Mn181 2.257 . S
N188 C187 1.326 . S
N188 C192 1.362 . S
C189 C190 1.258 . S
C189 C192 1.431 . S
C189 C209 1.449 . S
C190 C189 1.258 . S
C190 C191 1.477 . S
C190 H210 0.931 . S
C191 C187 1.460 . S
C191 C190 1.477 . S
C191 H211 0.930 . S
C192 N188 1.362 . S
C192 C189 1.431 . S
C192 C202 1.476 . S
H193 C187 0.929 1_556 S
C194 O185 1.250 . S
C194 O186 1.258 . S
O195 Mn180 2.162 . S
O195 C183 1.281 . S
O196 Mn180 2.297 . S
O196 C183 1.236 . S
N197 Mn181 2.282 . S
N197 C198 1.328 . S
N197 C202 1.318 . S
C198 N197 1.328 . S
C198 C199 1.457 . S
C198 H203 0.929 . S
C199 C198 1.457 . S
C199 C200 1.291 . S
C199 H212 0.931 . S
C200 C199 1.291 . S
C200 C201 1.373 . S
C200 H213 0.929 . S
C201 C200 1.373 . S
C201 C202 1.396 . S
C201 C208 1.403 . S
C202 C192 1.476 . S
C202 N197 1.318 . S
C202 C201 1.396 . S
H203 C198 0.929 . S
O204 Mn180 2.385 . S
O204 C182 1.234 . S
O205 Mn180 2.209 . S
O205 Mn181 2.215 . S
O205 C182 1.283 . S
O206 Mn180 2.094 . S
O206 C184 1.240 . S
O207 Mn181 2.117 . S
O207 C184 1.264 . S
C208 C201 1.403 . S
C208 C209 1.399 . S
C208 H214 0.929 . S
C209 C189 1.449 . S
C209 C208 1.399 . S
C209 H215 0.930 . S
H210 C190 0.931 . S
H211 C191 0.930 . S
H212 C199 0.931 . S
H213 C200 0.929 . S
H214 C208 0.929 . S
H215 C209 0.930 . S
Mn216 O221 2.095 . S
Mn216 O231 2.162 . S
Mn216 O232 2.297 . S
Mn216 O240 2.385 . S
Mn216 O241 2.209 . S
Mn216 O242 2.094 . S
Mn217 O222 2.121 . S
Mn217 N224 2.257 . S
Mn217 N233 2.282 . S
Mn217 O241 2.215 . S
Mn217 O243 2.117 . S
C218 O240 1.234 . S
C218 O241 1.283 . S
C219 O231 1.281 . S
C219 O232 1.236 . S
C220 O242 1.240 . S
C220 O243 1.264 . S
O221 Mn216 2.095 . S
O221 C230 1.250 . S
O222 Mn217 2.121 . S
O222 C230 1.258 . S
C223 N224 1.326 . S
C223 C227 1.460 . S
C223 H229 0.929 . S
N224 Mn217 2.257 . S
N224 C223 1.326 . S
N224 C228 1.362 . S
C225 C226 1.258 . S
C225 C228 1.431 . S
C225 C245 1.449 . S
C226 C225 1.258 . S
C226 C227 1.477 . S
C226 H246 0.931 . S
C227 C223 1.460 . S
C227 C226 1.477 . S
C227 H247 0.930 . S
C228 N224 1.362 . S
C228 C225 1.431 . S
C228 C238 1.476 . S
H229 C223 0.929 . S
C230 O221 1.250 . S
C230 O222 1.258 . S
O231 Mn216 2.162 . S
O231 C219 1.281 . S
O232 Mn216 2.297 . S
O232 C219 1.236 . S
N233 Mn217 2.282 . S
N233 C234 1.328 . S
N233 C238 1.318 . S
C234 N233 1.328 . S
C234 C235 1.457 . S
C234 H239 0.929 . S
C235 C234 1.457 . S
C235 C236 1.291 . S
C235 H248 0.931 . S
C236 C235 1.291 . S
C236 C237 1.373 . S
C236 H249 0.929 . S
C237 C236 1.373 . S
C237 C238 1.396 . S
C237 C244 1.403 . S
C238 C228 1.476 . S
C238 N233 1.318 . S
C238 C237 1.396 . S
H239 C234 0.929 . S
O240 Mn216 2.385 . S
O240 C218 1.234 . S
O241 Mn216 2.209 . S
O241 Mn217 2.215 . S
O241 C218 1.283 . S
O242 Mn216 2.094 . S
O242 C220 1.240 . S
O243 Mn217 2.117 . S
O243 C220 1.264 . S
C244 C237 1.403 . S
C244 C245 1.399 . S
C244 H250 0.929 . S
C245 C225 1.449 . S
C245 C244 1.399 . S
C245 H251 0.930 . S
H246 C226 0.931 . S
H247 C227 0.930 . S
H248 C235 0.931 . S
H249 C236 0.929 . S
H250 C244 0.929 . S
H251 C245 0.930 . S
Mn252 O257 2.095 . S
Mn252 O267 2.162 . S
Mn252 O268 2.297 . S
Mn252 O276 2.385 . S
Mn252 O277 2.209 . S
Mn252 O278 2.094 . S
Mn253 O258 2.121 . S
Mn253 N260 2.257 . S
Mn253 N269 2.282 . S
Mn253 O277 2.215 . S
Mn253 O279 2.117 . S
C254 O276 1.234 . S
C254 O277 1.283 . S
C255 O267 1.281 . S
C255 O268 1.236 . S
C256 O278 1.240 . S
C256 O279 1.264 . S
O257 Mn252 2.095 . S
O257 C266 1.250 . S
O258 Mn253 2.121 . S
O258 C266 1.258 . S
C259 N260 1.326 . S
C259 C263 1.460 . S
C259 H265 0.929 . S
N260 Mn253 2.257 . S
N260 C259 1.326 . S
N260 C264 1.362 . S
C261 C262 1.258 . S
C261 C264 1.431 . S
C261 C281 1.449 . S
C262 C261 1.258 . S
C262 C263 1.477 . S
C262 H282 0.931 . S
C263 C259 1.460 . S
C263 C262 1.477 . S
C263 H283 0.930 . S
C264 N260 1.362 . S
C264 C261 1.431 . S
C264 C274 1.476 . S
H265 C259 0.929 . S
C266 O257 1.250 . S
C266 O258 1.258 . S
O267 Mn252 2.162 . S
O267 C255 1.281 . S
O268 Mn252 2.297 . S
O268 C255 1.236 . S
N269 Mn253 2.282 . S
N269 C270 1.328 . S
N269 C274 1.318 . S
C270 N269 1.328 . S
C270 C271 1.457 . S
C270 H275 0.929 . S
C271 C270 1.457 . S
C271 C272 1.291 . S
C271 H284 0.931 . S
C272 C271 1.291 . S
C272 C273 1.373 . S
C272 H285 0.929 . S
C273 C272 1.373 . S
C273 C274 1.396 . S
C273 C280 1.403 . S
C274 C264 1.476 . S
C274 N269 1.318 . S
C274 C273 1.396 . S
H275 C270 0.929 . S
O276 Mn252 2.385 . S
O276 C254 1.234 . S
O277 Mn252 2.209 . S
O277 Mn253 2.215 . S
O277 C254 1.283 . S
O278 Mn252 2.094 . S
O278 C256 1.240 . S
O279 Mn253 2.117 . S
O279 C256 1.264 . S
C280 C273 1.403 . S
C280 C281 1.399 . S
C280 H286 0.929 . S
C281 C261 1.449 . S
C281 C280 1.399 . S
C281 H287 0.930 . S
H282 C262 0.931 . S
H283 C263 0.930 . S
H284 C271 0.931 . S
H285 C272 0.929 . S
H286 C280 0.929 . S
H287 C281 0.930 . S
C288 C289 1.391 . S
C288 C290 1.394 . S
C288 H304 0.931 . S
C289 C288 1.391 . S
C289 C293 1.380 1_655 S
C290 C288 1.394 . S
C290 C291 1.375 . S
C290 C294 1.531 . S
C291 C290 1.375 . S
C291 C292 1.406 1_655 S
C291 C299 1.502 1_665 S
C292 C291 1.406 1_455 S
C292 C293 1.393 . S
C292 C295 1.511 1_554 S
C293 C289 1.380 1_455 S
C293 C292 1.393 . S
C293 H305 0.924 1_554 S
C294 C290 1.531 . S
C294 H306 0.960 1_565 S
C294 H307 0.962 1_565 S
C294 H308 0.960 . S
C295 C292 1.511 1_556 S
C295 H309 0.961 . S
C295 H310 0.961 . S
C295 H311 0.961 . S
C296 C297 1.372 1_556 S
C296 C298 1.363 1_455 S
C296 H312 0.929 1_455 S
C297 C296 1.372 1_554 S
C297 C301 1.408 . S
C298 C296 1.363 1_655 S
C298 C299 1.370 1_656 S
C298 C302 1.524 . S
C299 C291 1.502 1_445 S
C299 C298 1.370 1_454 S
C299 C300 1.403 . S
C300 C299 1.403 . S
C300 C301 1.404 . S
C300 C303 1.539 . S
C301 C297 1.408 . S
C301 C300 1.404 . S
C301 H313 0.930 . S
C302 C298 1.524 . S
C302 H314 0.956 . S
C302 H315 0.961 . S
C302 H316 0.961 . S
C303 C300 1.539 . S
C303 H317 0.958 . S
C303 H318 0.961 . S
C303 H319 0.960 1_545 S
H304 C288 0.931 . S
H305 C293 0.924 1_556 S
H306 C294 0.960 1_545 S
H307 C294 0.962 1_545 S
H308 C294 0.960 . S
H309 C295 0.961 . S
H310 C295 0.961 . S
H311 C295 0.961 . S
H312 C296 0.929 1_655 S
H313 C301 0.930 . S
H314 C302 0.956 . S
H315 C302 0.961 . S
H316 C302 0.961 . S
H317 C303 0.958 . S
H318 C303 0.961 . S
H319 C303 0.960 1_565 S
C320 C321 1.391 . S
C320 C322 1.394 . S
C320 H336 0.931 . S
C321 C320 1.391 . S
C321 C325 1.376 . S
C322 C320 1.394 . S
C322 C323 1.369 1_455 S
C322 C326 1.531 . S
C323 C322 1.369 1_655 S
C323 C324 1.410 . S
C323 C331 1.503 1_565 S
C324 C323 1.410 . S
C324 C325 1.392 1_655 S
C324 C327 1.511 . S
C325 C321 1.376 . S
C325 C324 1.392 1_455 S
C325 H337 0.929 . S
C326 C322 1.531 . S
C326 H338 0.960 1_465 S
C326 H339 0.962 . S
C326 H340 0.960 . S
C327 C324 1.511 . S
C327 H341 0.961 . S
C327 H342 0.962 . S
C327 H343 0.961 . S
C328 C329 1.370 1_455 S
C328 C330 1.363 . S
C328 H344 0.931 . S
C329 C328 1.370 1_655 S
C329 C333 1.408 . S
C330 C328 1.363 . S
C330 C331 1.370 1_455 S
C330 C334 1.524 . S
C331 C323 1.503 1_545 S
C331 C330 1.370 1_655 S
C331 C332 1.403 . S
C332 C331 1.403 . S
C332 C333 1.404 . S
C332 C335 1.539 . S
C333 C329 1.408 . S
C333 C332 1.404 . S
C333 H345 0.930 . S
C334 C330 1.524 . S
C334 H346 0.956 . S
C334 H347 0.961 . S
C334 H348 0.961 . S
C335 C332 1.539 . S
C335 H349 0.964 . S
C335 H350 0.961 . S
C335 H351 0.960 1_545 S
H336 C320 0.931 . S
H337 C325 0.929 . S
H338 C326 0.960 1_645 S
H339 C326 0.962 . S
H340 C326 0.960 . S
H341 C327 0.961 . S
H342 C327 0.962 . S
H343 C327 0.961 . S
H344 C328 0.931 . S
H345 C333 0.930 . S
H346 C334 0.956 . S
H347 C334 0.961 . S
H348 C334 0.961 . S
H349 C335 0.964 . S
H350 C335 0.961 . S
H351 C335 0.960 1_565 S
C352 C353 1.391 . S
C352 C354 1.394 . S
C352 H368 0.931 . S
C353 C352 1.391 . S
C353 C357 1.376 1_554 S
C354 C352 1.394 . S
C354 C355 1.369 . S
C354 C358 1.531 . S
C355 C354 1.369 . S
C355 C356 1.410 1_554 S
C355 C363 1.503 . S
C356 C355 1.410 1_556 S
C356 C357 1.392 . S
C356 C359 1.511 . S
C357 C353 1.376 1_556 S
C357 C356 1.392 . S
C357 H369 0.929 . S
C358 C354 1.531 . S
C358 H370 0.960 . S
C358 H371 0.962 . S
C358 H372 0.960 . S
C359 C356 1.511 . S
C359 H373 0.961 . S
C359 H374 0.961 . S
C359 H375 0.961 . S
C360 C361 1.370 . S
C360 C362 1.363 . S
C360 H376 0.931 . S
C361 C360 1.370 . S
C361 C365 1.408 1_554 S
C362 C360 1.363 . S
C362 C363 1.370 . S
C362 C366 1.524 . S
C363 C355 1.503 . S
C363 C362 1.370 . S
C363 C364 1.403 1_554 S
C364 C363 1.403 1_556 S
C364 C365 1.404 . S
C364 C367 1.539 . S
C365 C361 1.408 1_556 S
C365 C364 1.404 . S
C365 H377 0.930 . S
C366 C362 1.524 . S
C366 H378 0.956 . S
C366 H379 0.961 . S
C366 H380 0.961 . S
C367 C364 1.539 . S
C367 H381 0.958 . S
C367 H382 0.961 . S
C367 H383 0.960 . S
H368 C352 0.931 . S
H369 C357 0.929 . S
H370 C358 0.960 . S
H371 C358 0.962 . S
H372 C358 0.960 . S
H373 C359 0.961 . S
H374 C359 0.961 . S
H375 C359 0.961 . S
H376 C360 0.931 . S
H377 C365 0.930 . S
H378 C366 0.956 . S
H379 C366 0.961 . S
H380 C366 0.961 . S
H381 C367 0.958 . S
H382 C367 0.961 . S
H383 C367 0.960 . S
C384 C385 1.391 . S
C384 C386 1.394 . S
C384 H400 0.931 . S
C385 C384 1.391 . S
C385 C389 1.376 . S
C386 C384 1.394 . S
C386 C387 1.369 . S
C386 C390 1.531 . S
C387 C386 1.369 . S
C387 C388 1.410 . S
C387 C395 1.503 . S
C388 C387 1.410 . S
C388 C389 1.392 . S
C388 C391 1.511 . S
C389 C385 1.376 . S
C389 C388 1.392 . S
C389 H401 0.929 . S
C390 C386 1.531 . S
C390 H402 0.960 . S
C390 H403 0.962 . S
C390 H404 0.960 . S
C391 C388 1.511 . S
C391 H405 0.961 . S
C391 H406 0.961 . S
C391 H407 0.961 . S
C392 C393 1.370 . S
C392 C394 1.363 . S
C392 H408 0.931 . S
C393 C392 1.370 . S
C393 C397 1.408 . S
C394 C392 1.363 . S
C394 C395 1.370 . S
C394 C398 1.524 . S
C395 C387 1.503 . S
C395 C394 1.370 . S
C395 C396 1.403 . S
C396 C395 1.403 . S
C396 C397 1.404 . S
C396 C399 1.539 . S
C397 C393 1.408 . S
C397 C396 1.404 . S
C397 H409 0.930 . S
C398 C394 1.524 . S
C398 H410 0.956 . S
C398 H411 0.961 . S
C398 H412 0.961 . S
C399 C396 1.539 . S
C399 H413 0.958 . S
C399 H414 0.961 . S
C399 H415 0.960 . S
H400 C384 0.931 . S
H401 C389 0.929 . S
H402 C390 0.960 . S
H403 C390 0.962 . S
H404 C390 0.960 . S
H405 C391 0.961 . S
H406 C391 0.961 . S
H407 C391 0.961 . S
H408 C392 0.931 . S
H409 C397 0.930 . S
H410 C398 0.956 . S
H411 C398 0.961 . S
H412 C398 0.961 . S
H413 C399 0.958 . S
H414 C399 0.961 . S
H415 C399 0.960 . S
C416 C417 1.391 1_655 S
C416 C418 1.394 . S
C416 H432 0.931 . S
C417 C416 1.391 1_455 S
C417 C421 1.376 . S
C418 C416 1.394 . S
C418 C419 1.369 1_655 S
C418 C422 1.531 . S
C419 C418 1.369 1_455 S
C419 C420 1.410 . S
C419 C427 1.503 . S
C420 C419 1.410 . S
C420 C421 1.392 . S
C420 C423 1.511 . S
C421 C417 1.376 . S
C421 C420 1.392 . S
C421 H433 0.929 . S
C422 C418 1.531 . S
C422 H434 0.960 . S
C422 H435 0.962 . S
C422 H436 0.960 . S
C423 C420 1.511 . S
C423 H437 0.961 . S
C423 H438 0.961 . S
C423 H439 0.961 . S
C424 C425 1.370 . S
C424 C426 1.363 . S
C424 H440 0.931 . S
C425 C424 1.370 . S
C425 C429 1.408 1_655 S
C426 C424 1.363 . S
C426 C427 1.370 1_655 S
C426 C430 1.524 . S
C427 C419 1.503 . S
C427 C426 1.370 1_455 S
C427 C428 1.403 . S
C428 C427 1.403 . S
C428 C429 1.404 . S
C428 C431 1.539 . S
C429 C425 1.408 1_455 S
C429 C428 1.404 . S
C429 H441 0.930 . S
C430 C426 1.524 . S
C430 H442 0.956 . S
C430 H443 0.961 . S
C430 H444 0.961 . S
C431 C428 1.539 . S
C431 H445 0.958 . S
C431 H446 0.961 . S
C431 H447 0.960 . S
H432 C416 0.931 . S
H433 C421 0.929 . S
H434 C422 0.960 . S
H435 C422 0.962 . S
H436 C422 0.960 . S
H437 C423 0.961 . S
H438 C423 0.961 . S
H439 C423 0.961 . S
H440 C424 0.931 . S
H441 C429 0.930 . S
H442 C430 0.956 . S
H443 C430 0.961 . S
H444 C430 0.961 . S
H445 C431 0.958 . S
H446 C431 0.961 . S
H447 C431 0.960 . S
C448 C449 1.391 . S
C448 C450 1.394 . S
C448 H464 0.931 . S
C449 C448 1.391 . S
C449 C453 1.376 . S
C450 C448 1.394 . S
C450 C451 1.369 . S
C450 C454 1.531 . S
C451 C450 1.369 . S
C451 C452 1.410 . S
C451 C459 1.503 . S
C452 C451 1.410 . S
C452 C453 1.392 . S
C452 C455 1.511 . S
C453 C449 1.376 . S
C453 C452 1.392 . S
C453 H465 0.929 . S
C454 C450 1.531 . S
C454 H466 0.960 . S
C454 H467 0.962 1_455 S
C454 H468 0.960 . S
C455 C452 1.511 . S
C455 H469 0.961 . S
C455 H470 0.961 . S
C455 H471 0.961 . S
C456 C457 1.370 . S
C456 C458 1.363 . S
C456 H472 0.931 . S
C457 C456 1.370 . S
C457 C461 1.408 1_655 S
C458 C456 1.363 . S
C458 C459 1.370 1_655 S
C458 C462 1.524 . S
C459 C451 1.503 . S
C459 C458 1.370 1_455 S
C459 C460 1.403 . S
C460 C459 1.403 . S
C460 C461 1.404 . S
C460 C463 1.539 . S
C461 C457 1.408 1_455 S
C461 C460 1.404 . S
C461 H473 0.930 . S
C462 C458 1.524 . S
C462 H474 0.956 . S
C462 H475 0.961 . S
C462 H476 0.961 . S
C463 C460 1.539 . S
C463 H477 0.958 . S
C463 H478 0.961 . S
C463 H479 0.960 . S
H464 C448 0.931 . S
H465 C453 0.929 . S
H466 C454 0.960 . S
H467 C454 0.962 1_655 S
H468 C454 0.960 . S
H469 C455 0.961 . S
H470 C455 0.961 . S
H471 C455 0.961 . S
H472 C456 0.931 . S
H473 C461 0.930 . S
H474 C462 0.956 . S
H475 C462 0.961 . S
H476 C462 0.961 . S
H477 C463 0.958 . S
H478 C463 0.961 . S
H479 C463 0.960 . S
C480 C481 1.391 . S
C480 C482 1.394 1_455 S
C480 H496 0.931 . S
C481 C480 1.391 . S
C481 C485 1.380 . S
C482 C480 1.394 1_655 S
C482 C483 1.369 . S
C482 C486 1.531 . S
C483 C482 1.369 . S
C483 C484 1.410 . S
C483 C491 1.503 . S
C484 C483 1.410 . S
C484 C485 1.388 1_655 S
C484 C487 1.511 . S
C485 C481 1.380 . S
C485 C484 1.388 1_455 S
C485 H497 0.931 . S
C486 C482 1.531 . S
C486 H498 0.960 . S
C486 H499 0.962 1_655 S
C486 H500 0.960 . S
C487 C484 1.511 . S
C487 H501 0.961 1_655 S
C487 H502 0.963 . S
C487 H503 0.961 . S
C488 C489 1.370 1_455 S
C488 C490 1.363 . S
C488 H504 0.931 . S
C489 C488 1.370 1_655 S
C489 C493 1.408 . S
C490 C488 1.363 . S
C490 C491 1.370 1_455 S
C490 C494 1.524 . S
C491 C483 1.503 . S
C491 C490 1.370 1_655 S
C491 C492 1.403 . S
C492 C491 1.403 . S
C492 C493 1.404 . S
C492 C495 1.539 . S
C493 C489 1.408 . S
C493 C492 1.404 . S
C493 H505 0.930 . S
C494 C490 1.524 . S
C494 H506 0.956 . S
C494 H507 0.961 . S
C494 H508 0.961 . S
C495 C492 1.539 . S
C495 H509 0.958 . S
C495 H510 0.961 . S
C495 H511 0.960 . S
H496 C480 0.931 . S
H497 C485 0.931 . S
H498 C486 0.960 . S
H499 C486 0.962 1_455 S
H500 C486 0.960 . S
H501 C487 0.961 1_455 S
H502 C487 0.963 . S
H503 C487 0.961 . S
H504 C488 0.931 . S
H505 C493 0.930 . S
H506 C494 0.956 . S
H507 C494 0.961 . S
H508 C494 0.961 . S
H509 C495 0.958 . S
H510 C495 0.961 . S
H511 C495 0.960 . S
C512 C513 1.391 . S
C512 C514 1.394 . S
C512 H528 0.931 . S
C513 C512 1.391 . S
C513 C517 1.376 1_455 S
C514 C512 1.394 . S
C514 C515 1.369 1_455 S
C514 C518 1.531 . S
C515 C514 1.369 1_655 S
C515 C516 1.410 . S
C515 C523 1.503 . S
C516 C515 1.410 . S
C516 C517 1.392 . S
C516 C519 1.511 . S
C517 C513 1.376 1_655 S
C517 C516 1.392 . S
C517 H529 0.929 . S
C518 C514 1.531 . S
C518 H530 0.960 . S
C518 H531 0.962 . S
C518 H532 0.960 . S
C519 C516 1.511 . S
C519 H533 0.961 . S
C519 H534 0.961 . S
C519 H535 0.961 . S
C520 C521 1.370 1_455 S
C520 C522 1.363 . S
C520 H536 0.931 . S
C521 C520 1.370 1_655 S
C521 C525 1.408 . S
C522 C520 1.363 . S
C522 C523 1.370 1_455 S
C522 C526 1.524 . S
C523 C515 1.503 . S
C523 C522 1.370 1_655 S
C523 C524 1.403 . S
C524 C523 1.403 . S
C524 C525 1.404 . S
C524 C527 1.539 . S
C525 C521 1.408 . S
C525 C524 1.404 . S
C525 H537 0.930 . S
C526 C522 1.524 . S
C526 H538 0.956 . S
C526 H539 0.961 . S
C526 H540 0.961 . S
C527 C524 1.539 . S
C527 H541 0.958 . S
C527 H542 0.961 . S
C527 H543 0.960 . S
H528 C512 0.931 . S
H529 C517 0.929 . S
H530 C518 0.960 . S
H531 C518 0.962 . S
H532 C518 0.960 . S
H533 C519 0.961 . S
H534 C519 0.961 . S
H535 C519 0.961 . S
H536 C520 0.931 . S
H537 C525 0.930 . S
H538 C526 0.956 . S
H539 C526 0.961 . S
H540 C526 0.961 . S
H541 C527 0.958 . S
H542 C527 0.961 . S
H543 C527 0.960 . S
C544 C545 1.391 . S
C544 C546 1.394 . S
C544 H560 0.931 . S
C545 C544 1.391 . S
C545 C549 1.376 . S
C546 C544 1.394 . S
C546 C547 1.369 . S
C546 C550 1.531 . S
C547 C546 1.369 . S
C547 C548 1.410 . S
C547 C555 1.503 . S
C548 C547 1.410 . S
C548 C549 1.392 . S
C548 C551 1.511 . S
C549 C545 1.376 . S
C549 C548 1.392 . S
C549 H561 0.929 . S
C550 C546 1.531 . S
C550 H562 0.960 . S
C550 H563 0.962 . S
C550 H564 0.960 . S
C551 C548 1.511 . S
C551 H565 0.961 . S
C551 H566 0.961 . S
C551 H567 0.961 . S
C552 C553 1.370 . S
C552 C554 1.363 . S
C552 H568 0.931 . S
C553 C552 1.370 . S
C553 C557 1.408 . S
C554 C552 1.363 . S
C554 C555 1.370 . S
C554 C558 1.524 . S
C555 C547 1.503 . S
C555 C554 1.370 . S
C555 C556 1.403 . S
C556 C555 1.403 . S
C556 C557 1.404 . S
C556 C559 1.539 . S
C557 C553 1.408 . S
C557 C556 1.404 . S
C557 H569 0.930 . S
C558 C554 1.524 . S
C558 H570 0.956 . S
C558 H571 0.961 . S
C558 H572 0.961 . S
C559 C556 1.539 . S
C559 H573 0.958 . S
C559 H574 0.961 . S
C559 H575 0.960 . S
H560 C544 0.931 . S
H561 C549 0.929 . S
H562 C550 0.960 . S
H563 C550 0.962 . S
H564 C550 0.960 . S
H565 C551 0.961 . S
H566 C551 0.961 . S
H567 C551 0.961 . S
H568 C552 0.931 . S
H569 C557 0.930 . S
H570 C558 0.956 . S
H571 C558 0.961 . S
H572 C558 0.961 . S
H573 C559 0.958 . S
H574 C559 0.961 . S
H575 C559 0.960 . S
C576 C577 1.391 . S
C576 C578 1.394 . S
C576 H592 0.931 . S
C577 C576 1.391 . S
C577 C581 1.376 . S
C578 C576 1.394 . S
C578 C579 1.369 . S
C578 C582 1.531 . S
C579 C578 1.369 . S
C579 C580 1.410 . S
C579 C587 1.503 . S
C580 C579 1.410 . S
C580 C581 1.392 . S
C580 C583 1.511 . S
C581 C577 1.376 . S
C581 C580 1.392 . S
C581 H593 0.929 . S
C582 C578 1.531 . S
C582 H594 0.960 . S
C582 H595 0.962 . S
C582 H596 0.960 . S
C583 C580 1.511 . S
C583 H597 0.961 . S
C583 H598 0.961 . S
C583 H599 0.961 . S
C584 C585 1.370 . S
C584 C586 1.363 . S
C584 H600 0.931 . S
C585 C584 1.370 . S
C585 C589 1.408 . S
C586 C584 1.363 . S
C586 C587 1.370 . S
C586 C590 1.524 . S
C587 C579 1.503 . S
C587 C586 1.370 . S
C587 C588 1.403 . S
C588 C587 1.403 . S
C588 C589 1.404 . S
C588 C591 1.539 . S
C589 C585 1.408 . S
C589 C588 1.404 . S
C589 H601 0.930 . S
C590 C586 1.524 . S
C590 H602 0.956 . S
C590 H603 0.961 . S
C590 H604 0.961 . S
C591 C588 1.539 . S
C591 H605 0.958 . S
C591 H606 0.961 . S
C591 H607 0.960 . S
H592 C576 0.931 . S
H593 C581 0.929 . S
H594 C582 0.960 . S
H595 C582 0.962 . S
H596 C582 0.960 . S
H597 C583 0.961 . S
H598 C583 0.961 . S
H599 C583 0.961 . S
H600 C584 0.931 . S
H601 C589 0.930 . S
H602 C590 0.956 . S
H603 C590 0.961 . S
H604 C590 0.961 . S
H605 C591 0.958 . S
H606 C591 0.961 . S
H607 C591 0.960 . S
C608 C609 1.391 . S
C608 C610 1.394 . S
C608 H624 0.931 . S
C609 C608 1.391 . S
C609 C613 1.376 . S
C610 C608 1.394 . S
C610 C611 1.369 . S
C610 C614 1.531 . S
C611 C610 1.369 . S
C611 C612 1.410 . S
C611 C619 1.503 . S
C612 C611 1.410 . S
C612 C613 1.392 . S
C612 C615 1.511 . S
C613 C609 1.376 . S
C613 C612 1.392 . S
C613 H625 0.929 . S
C614 C610 1.531 . S
C614 H626 0.960 . S
C614 H627 0.962 . S
C614 H628 0.960 . S
C615 C612 1.511 . S
C615 H629 0.961 . S
C615 H630 0.961 . S
C615 H631 0.961 . S
C616 C617 1.370 . S
C616 C618 1.363 . S
C616 H632 0.931 . S
C617 C616 1.370 . S
C617 C621 1.408 . S
C618 C616 1.363 . S
C618 C619 1.370 . S
C618 C622 1.524 . S
C619 C611 1.503 . S
C619 C618 1.370 . S
C619 C620 1.403 . S
C620 C619 1.403 . S
C620 C621 1.404 . S
C620 C623 1.539 . S
C621 C617 1.408 . S
C621 C620 1.404 . S
C621 H633 0.930 . S
C622 C618 1.524 . S
C622 H634 0.956 . S
C622 H635 0.961 . S
C622 H636 0.961 . S
C623 C620 1.539 . S
C623 H637 0.958 . S
C623 H638 0.961 . S
C623 H639 0.960 . S
H624 C608 0.931 . S
H625 C613 0.929 . S
H626 C614 0.960 . S
H627 C614 0.962 . S
H628 C614 0.960 . S
H629 C615 0.961 . S
H630 C615 0.961 . S
H631 C615 0.961 . S
H632 C616 0.931 . S
H633 C621 0.930 . S
H634 C622 0.956 . S
H635 C622 0.961 . S
H636 C622 0.961 . S
H637 C623 0.958 . S
H638 C623 0.961 . S
H639 C623 0.960 . S
C640 C641 1.391 . S
C640 C642 1.394 . S
C640 H656 0.931 . S
C641 C640 1.391 . S
C641 C645 1.376 . S
C642 C640 1.394 . S
C642 C643 1.369 . S
C642 C646 1.531 . S
C643 C642 1.369 . S
C643 C644 1.410 . S
C643 C651 1.503 . S
C644 C643 1.410 . S
C644 C645 1.392 . S
C644 C647 1.511 . S
C645 C641 1.376 . S
C645 C644 1.392 . S
C645 H657 0.929 . S
C646 C642 1.531 . S
C646 H658 0.960 . S
C646 H659 0.962 . S
C646 H660 0.960 . S
C647 C644 1.511 . S
C647 H661 0.961 . S
C647 H662 0.961 . S
C647 H663 0.961 . S
C648 C649 1.370 . S
C648 C650 1.363 . S
C648 H664 0.931 . S
C649 C648 1.370 . S
C649 C653 1.408 . S
C650 C648 1.363 . S
C650 C651 1.370 . S
C650 C654 1.524 . S
C651 C643 1.503 . S
C651 C650 1.370 . S
C651 C652 1.403 . S
C652 C651 1.403 . S
C652 C653 1.404 . S
C652 C655 1.539 . S
C653 C649 1.408 . S
C653 C652 1.404 . S
C653 H665 0.930 . S
C654 C650 1.524 . S
C654 H666 0.956 . S
C654 H667 0.961 . S
C654 H668 0.961 . S
C655 C652 1.539 . S
C655 H669 0.958 . S
C655 H670 0.961 . S
C655 H671 0.960 . S
H656 C640 0.931 . S
H657 C645 0.929 . S
H658 C646 0.960 . S
H659 C646 0.962 . S
H660 C646 0.960 . S
H661 C647 0.961 . S
H662 C647 0.961 . S
H663 C647 0.961 . S
H664 C648 0.931 . S
H665 C653 0.930 . S
H666 C654 0.956 . S
H667 C654 0.961 . S
H668 C654 0.961 . S
H669 C655 0.958 . S
H670 C655 0.961 . S
H671 C655 0.960 . S
C672 C673 1.391 1_556 S
C672 C674 1.394 . S
C672 H688 0.931 . S
C673 C672 1.391 1_554 S
C673 C677 1.376 . S
C674 C672 1.394 . S
C674 C675 1.369 1_556 S
C674 C678 1.531 . S
C675 C674 1.369 1_554 S
C675 C676 1.410 . S
C675 C683 1.503 . S
C676 C675 1.410 . S
C676 C677 1.392 . S
C676 C679 1.511 . S
C677 C673 1.376 . S
C677 C676 1.392 . S
C677 H689 0.929 . S
C678 C674 1.531 . S
C678 H690 0.960 . S
C678 H691 0.962 . S
C678 H692 0.960 . S
C679 C676 1.511 . S
C679 H693 0.961 . S
C679 H694 0.961 . S
C679 H695 0.961 . S
C680 C681 1.370 . S
C680 C682 1.363 . S
C680 H696 0.931 . S
C681 C680 1.370 . S
C681 C685 1.408 1_554 S
C682 C680 1.363 . S
C682 C683 1.370 . S
C682 C686 1.524 . S
C683 C675 1.503 . S
C683 C682 1.370 . S
C683 C684 1.403 1_554 S
C684 C683 1.403 1_556 S
C684 C685 1.404 . S
C684 C687 1.539 . S
C685 C681 1.408 1_556 S
C685 C684 1.404 . S
C685 H697 0.930 . S
C686 C682 1.524 . S
C686 H698 0.956 . S
C686 H699 0.961 . S
C686 H700 0.961 . S
C687 C684 1.539 . S
C687 H701 0.958 . S
C687 H702 0.961 . S
C687 H703 0.960 . S
H688 C672 0.931 . S
H689 C677 0.929 . S
H690 C678 0.960 . S
H691 C678 0.962 . S
H692 C678 0.960 . S
H693 C679 0.961 . S
H694 C679 0.961 . S
H695 C679 0.961 . S
H696 C680 0.931 . S
H697 C685 0.930 . S
H698 C686 0.956 . S
H699 C686 0.961 . S
H700 C686 0.961 . S
H701 C687 0.958 . S
H702 C687 0.961 . S
H703 C687 0.960 . S
C704 C705 1.391 . S
C704 C706 1.394 . S
C704 H720 0.931 . S
C705 C704 1.391 . S
C705 C709 1.376 . S
C706 C704 1.394 . S
C706 C707 1.369 . S
C706 C710 1.531 . S
C707 C706 1.369 . S
C707 C708 1.410 . S
C707 C715 1.503 . S
C708 C707 1.410 . S
C708 C709 1.392 . S
C708 C711 1.511 . S
C709 C705 1.376 . S
C709 C708 1.392 . S
C709 H721 0.929 . S
C710 C706 1.531 . S
C710 H722 0.960 . S
C710 H723 0.962 1_554 S
C710 H724 0.960 . S
C711 C708 1.511 . S
C711 H725 0.961 . S
C711 H726 0.961 . S
C711 H727 0.961 . S
C712 C713 1.370 1_556 S
C712 C714 1.363 . S
C712 H728 0.931 . S
C713 C712 1.370 1_554 S
C713 C717 1.408 . S
C714 C712 1.363 . S
C714 C715 1.370 1_556 S
C714 C718 1.524 . S
C715 C707 1.503 . S
C715 C714 1.370 1_554 S
C715 C716 1.403 . S
C716 C715 1.403 . S
C716 C717 1.404 . S
C716 C719 1.539 . S
C717 C713 1.408 . S
C717 C716 1.404 . S
C717 H729 0.930 . S
C718 C714 1.524 . S
C718 H730 0.956 . S
C718 H731 0.961 . S
C718 H732 0.961 . S
C719 C716 1.539 . S
C719 H733 0.958 . S
C719 H734 0.961 . S
C719 H735 0.960 . S
H720 C704 0.931 . S
H721 C709 0.929 . S
H722 C710 0.960 . S
H723 C710 0.962 1_556 S
H724 C710 0.960 . S
H725 C711 0.961 . S
H726 C711 0.961 . S
H727 C711 0.961 . S
H728 C712 0.931 . S
H729 C717 0.930 . S
H730 C718 0.956 . S
H731 C718 0.961 . S
H732 C718 0.961 . S
H733 C719 0.958 . S
H734 C719 0.961 . S
H735 C719 0.960 . S
C736 C737 1.391 . S
C736 C738 1.394 . S
C736 H752 0.931 . S
C737 C736 1.391 . S
C737 C741 1.376 . S
C738 C736 1.394 . S
C738 C739 1.369 . S
C738 C742 1.531 . S
C739 C738 1.369 . S
C739 C740 1.410 . S
C739 C747 1.503 . S
C740 C739 1.410 . S
C740 C741 1.392 . S
C740 C743 1.511 . S
C741 C737 1.376 . S
C741 C740 1.392 . S
C741 H753 0.929 . S
C742 C738 1.531 . S
C742 H754 0.960 . S
C742 H755 0.962 . S
C742 H756 0.960 . S
C743 C740 1.511 . S
C743 H757 0.961 . S
C743 H758 0.961 . S
C743 H759 0.961 . S
C744 C745 1.370 . S
C744 C746 1.363 . S
C744 H760 0.931 . S
C745 C744 1.370 . S
C745 C749 1.408 . S
C746 C744 1.363 . S
C746 C747 1.370 . S
C746 C750 1.524 . S
C747 C739 1.503 . S
C747 C746 1.370 . S
C747 C748 1.403 . S
C748 C747 1.403 . S
C748 C749 1.404 . S
C748 C751 1.539 . S
C749 C745 1.408 . S
C749 C748 1.404 . S
C749 H761 0.930 . S
C750 C746 1.524 . S
C750 H762 0.956 . S
C750 H763 0.961 . S
C750 H764 0.961 . S
C751 C748 1.539 . S
C751 H765 0.958 . S
C751 H766 0.961 . S
C751 H767 0.960 . S
H752 C736 0.931 . S
H753 C741 0.929 . S
H754 C742 0.960 . S
H755 C742 0.962 . S
H756 C742 0.960 . S
H757 C743 0.961 . S
H758 C743 0.961 . S
H759 C743 0.961 . S
H760 C744 0.931 . S
H761 C749 0.930 . S
H762 C750 0.956 . S
H763 C750 0.961 . S
H764 C750 0.961 . S
H765 C751 0.958 . S
H766 C751 0.961 . S
H767 C751 0.960 . S
C768 C769 1.391 . S
C768 C770 1.394 . S
C768 H784 0.931 . S
C769 C768 1.391 . S
C769 C773 1.376 . S
C770 C768 1.394 . S
C770 C771 1.369 . S
C770 C774 1.531 . S
C771 C770 1.369 . S
C771 C772 1.410 . S
C771 C779 1.503 . S
C772 C771 1.410 . S
C772 C773 1.392 . S
C772 C775 1.511 . S
C773 C769 1.376 . S
C773 C772 1.392 . S
C773 H785 0.929 . S
C774 C770 1.531 . S
C774 H786 0.960 . S
C774 H787 0.962 . S
C774 H788 0.960 . S
C775 C772 1.511 . S
C775 H789 0.961 . S
C775 H790 0.961 . S
C775 H791 0.961 . S
C776 C777 1.370 . S
C776 C778 1.363 . S
C776 H792 0.931 . S
C777 C776 1.370 . S
C777 C781 1.408 . S
C778 C776 1.363 . S
C778 C779 1.370 . S
C778 C782 1.524 . S
C779 C771 1.503 . S
C779 C778 1.370 . S
C779 C780 1.403 . S
C780 C779 1.403 . S
C780 C781 1.404 . S
C780 C783 1.539 . S
C781 C777 1.408 . S
C781 C780 1.404 . S
C781 H793 0.930 . S
C782 C778 1.524 . S
C782 H794 0.956 . S
C782 H795 0.961 . S
C782 H796 0.961 . S
C783 C780 1.539 . S
C783 H797 0.958 . S
C783 H798 0.961 . S
C783 H799 0.960 . S
H784 C768 0.931 . S
H785 C773 0.929 . S
H786 C774 0.960 . S
H787 C774 0.962 . S
H788 C774 0.960 . S
H789 C775 0.961 . S
H790 C775 0.961 . S
H791 C775 0.961 . S
H792 C776 0.931 . S
H793 C781 0.930 . S
H794 C782 0.956 . S
H795 C782 0.961 . S
H796 C782 0.961 . S
H797 C783 0.958 . S
H798 C783 0.961 . S
H799 C783 0.960 . S
C289 C39 1.506 . S
C297 C3 1.510 . S
C321 C75 1.503 . S
C329 C111 1.509 . S
C353 C147 1.498 . S
C361 C183 1.506 . S
C385 C219 1.499 . S
C393 C255 1.505 . S
C417 C2 1.115 . S
C425 C110 1.175 . S
C449 C74 1.121 . S
C457 C38 1.180 . S
C481 C86 1.276 . S
C489 C50 1.243 . S
C513 C14 1.279 . S
C521 C122 1.250 . S
C545 C146 1.177 . S
C553 C254 1.177 . S
C577 C218 1.195 . S
C585 C182 1.169 . S
C609 C194 1.275 . S
C617 C230 1.254 . S
C641 C158 1.221 . S
C649 C266 1.262 . S
C673 C184 1.506 . S
C681 C4 1.516 . S
C705 C148 1.505 . S
C713 C40 1.512 . S
C737 C76 1.504 . S
C745 C256 1.512 . S
C769 C220 1.515 . S
C777 C112 1.511 . S
