# Generated by pormake.
# Topology tfs, (6)-cn, num edge types: 1
# Building blocks:
#     Node 0, Type 0, BuildingBlock: INOVEN_clean_sbu_0, # of connection points: 6
#     Node 1, Type 0, BuildingBlock: INOVEN_clean_sbu_0, # of connection points: 6
#     Node 2, Type 0, BuildingBlock: INOVEN_clean_sbu_0, # of connection points: 6
#     Node 3, Type 0, BuildingBlock: INOVEN_clean_sbu_0, # of connection points: 6
#     Node 4, Type 0, BuildingBlock: INOVEN_clean_sbu_0, # of connection points: 6
#     Node 5, Type 0, BuildingBlock: INOVEN_clean_sbu_0, # of connection points: 6
#     Edge 6, Type (0, 0), BuildingBlock: AJUNOK_clean_linker_0, # of connection points: 2
#     Edge 7, Type (0, 0), BuildingBlock: AJUNOK_clean_linker_0, # of connection points: 2
#     Edge 8, Type (0, 0), BuildingBlock: AJUNOK_clean_linker_0, # of connection points: 2
#     Edge 9, Type (0, 0), BuildingBlock: AJUNOK_clean_linker_0, # of connection points: 2
#     Edge 10, Type (0, 0), BuildingBlock: AJUNOK_clean_linker_0, # of connection points: 2
#     Edge 11, Type (0, 0), BuildingBlock: AJUNOK_clean_linker_0, # of connection points: 2
#     Edge 12, Type (0, 0), BuildingBlock: AJUNOK_clean_linker_0, # of connection points: 2
#     Edge 13, Type (0, 0), BuildingBlock: AJUNOK_clean_linker_0, # of connection points: 2
#     Edge 14, Type (0, 0), BuildingBlock: AJUNOK_clean_linker_0, # of connection points: 2
#     Edge 15, Type (0, 0), BuildingBlock: AJUNOK_clean_linker_0, # of connection points: 2
#     Edge 16, Type (0, 0), BuildingBlock: AJUNOK_clean_linker_0, # of connection points: 2
#     Edge 17, Type (0, 0), BuildingBlock: AJUNOK_clean_linker_0, # of connection points: 2
#     Edge 18, Type (0, 0), BuildingBlock: AJUNOK_clean_linker_0, # of connection points: 2
#     Edge 19, Type (0, 0), BuildingBlock: AJUNOK_clean_linker_0, # of connection points: 2
#     Edge 20, Type (0, 0), BuildingBlock: AJUNOK_clean_linker_0, # of connection points: 2
#     Edge 21, Type (0, 0), BuildingBlock: AJUNOK_clean_linker_0, # of connection points: 2
#     Edge 22, Type (0, 0), BuildingBlock: AJUNOK_clean_linker_0, # of connection points: 2
#     Edge 23, Type (0, 0), BuildingBlock: AJUNOK_clean_linker_0, # of connection points: 2
# Relax obj value: 0.483
# Max RMSD: 0.383
# Mean RMSD: 0.356
data_MOF--net-tfs--node1-INOVEN_clean_sbu_0--edge1-AJUNOK_clean_linker_0
_symmetry_space_group_name_H-M    P1
_symmetry_Int_Tables_number       1
_symmetry_cell_setting            triclinic
loop_
_symmetry_equiv_pos_as_xyz
'x, y, z'
_cell_length_a     42.864498
_cell_length_b     42.57357
_cell_length_c     9.4757523
_cell_angle_alpha  91.430576
_cell_angle_beta   98.156219
_cell_angle_gamma 119.99014
loop_
_atom_site_label
_atom_site_type_symbol
_atom_site_fract_x
_atom_site_fract_y
_atom_site_fract_z
_atom_type_partial_charge
Gd0 Gd 0.18706 0.39587 0.33568 0.0
Gd1 Gd 0.1519 0.43968 0.20612 0.0
C2 C 0.09804 0.35881 0.26808 0.0
C3 C 0.21271 0.36525 0.50939 0.0
C4 C 0.21759 0.33507 0.55411 0.0
C5 C 0.2146 0.30879 0.45254 0.0
C6 C 0.23377 0.33791 0.69677 0.0
C7 C 0.2513 0.29431 0.62923 0.0
C8 C 0.25066 0.31775 0.73423 0.0
C9 C 0.23116 0.28832 0.49026 0.0
C10 C 0.17307 0.39062 0.04638 0.0
C11 C 0.24037 0.47719 0.27423 0.0
C12 C 0.1339 0.4798 0.05598 0.0
C13 C 0.15018 0.51943 0.05789 0.0
C14 C 0.17562 0.54271 0.17741 0.0
C15 C 0.13978 0.53422 0.94255 0.0
C16 C 0.17774 0.59501 0.07194 0.0
C17 C 0.15358 0.57189 0.94932 0.0
C18 C 0.1891 0.58019 0.18478 0.0
C19 C 0.1665 0.44427 0.49623 0.0
O20 O 0.12678 0.35959 0.34632 0.0
O21 O 0.10187 0.38412 0.18226 0.0
O22 O 0.22717 0.38052 0.39911 0.0
O23 O 0.1826 0.36521 0.52099 0.0
O24 O 0.1998 0.38803 0.11723 0.0
O25 O 0.15377 0.39185 0.13095 0.0
O26 O 0.21208 0.47602 0.19185 0.0
O27 O 0.23575 0.4521 0.36124 0.0
O28 O 0.12011 0.46615 0.1697 0.0
O29 O 0.15324 0.46657 0.01387 0.0
O30 O 0.1384 0.44474 0.42676 0.0
O31 O 0.18561 0.44386 0.40937 0.0
H32 H 0.20229 0.30633 0.34173 0.0
H33 H 0.23654 0.35834 0.77619 0.0
H34 H 0.26629 0.32336 0.84144 0.0
H35 H 0.23101 0.27017 0.40758 0.0
H36 H 0.18427 0.53176 0.26673 0.0
H37 H 0.12034 0.51658 0.84914 0.0
H38 H 0.14419 0.58274 0.8618 0.0
H39 H 0.20774 0.59756 0.28023 0.0
Gd40 Gd 0.72666 0.1692 0.75578 0.0
Gd41 Gd 0.80649 0.2 0.70706 0.0
C42 C 0.78631 0.25647 0.83468 0.0
C43 C 0.66623 0.14927 0.84695 0.0
C44 C 0.63894 0.1608 0.82778 0.0
C45 C 0.60171 0.13419 0.80627 0.0
C46 C 0.64936 0.1976 0.82044 0.0
C47 C 0.58533 0.18088 0.76997 0.0
C48 C 0.62274 0.20759 0.79272 0.0
C49 C 0.57514 0.1441 0.77748 0.0
C50 C 0.73826 0.18744 0.48987 0.0
C51 C 0.74677 0.11525 0.62066 0.0
C52 C 0.86849 0.22216 0.62918 0.0
C53 C 0.897 0.22722 0.54778 0.0
C54 C 0.93165 0.23746 0.62491 0.0
C55 C 0.89221 0.22801 0.39857 0.0
C56 C 0.95787 0.25509 0.40894 0.0
C57 C 0.92248 0.24158 0.32924 0.0
C58 C 0.96184 0.25134 0.55633 0.0
C59 C 0.79448 0.18592 0.97579 0.0
O60 O 0.75375 0.22857 0.84549 0.0
O61 O 0.81001 0.25258 0.77204 0.0
O62 O 0.66809 0.13347 0.73095 0.0
O63 O 0.69843 0.1723 0.92335 0.0
O64 O 0.70753 0.16132 0.51597 0.0
O65 O 0.75954 0.20399 0.6056 0.0
O66 O 0.77416 0.14423 0.58021 0.0
O67 O 0.72962 0.11869 0.72013 0.0
O68 O 0.8559 0.19652 0.71463 0.0
O69 O 0.84642 0.234 0.58244 0.0
O70 O 0.82454 0.21241 0.94634 0.0
O71 O 0.77386 0.16668 0.86213 0.0
H72 H 0.59317 0.10563 0.80977 0.0
H73 H 0.67799 0.21858 0.83525 0.0
H74 H 0.63143 0.23621 0.79072 0.0
H75 H 0.54654 0.12291 0.75982 0.0
H76 H 0.93585 0.23721 0.74034 0.0
H77 H 0.86555 0.21996 0.33712 0.0
H78 H 0.91844 0.24319 0.2148 0.0
H79 H 0.98867 0.2616 0.62101 0.0
Gd80 Gd 0.54964 0.72728 0.27254 0.0
Gd81 Gd 0.60886 0.8039 0.21282 0.0
C82 C 0.52138 0.77782 0.13698 0.0
C83 C 0.50695 0.66708 0.36847 0.0
C84 C 0.46745 0.6411 0.34533 0.0
C85 C 0.45505 0.60436 0.3613 0.0
C86 C 0.442 0.65237 0.30624 0.0
C87 C 0.39198 0.5903 0.30437 0.0
C88 C 0.40444 0.62709 0.28588 0.0
C89 C 0.41763 0.57916 0.34116 0.0
C90 C 0.56251 0.73443 0.00267 0.0
C91 C 0.63449 0.75098 0.33678 0.0
C92 C 0.6519 0.86474 0.12083 0.0
C93 C 0.66333 0.90285 0.16513 0.0
C94 C 0.70015 0.92999 0.17463 0.0
C95 C 0.63923 0.91155 0.21768 0.0
C96 C 0.6895 0.97327 0.30075 0.0
C97 C 0.65217 0.94658 0.28382 0.0
C98 C 0.71315 0.96496 0.2417 0.0
C99 C 0.5929 0.79929 0.4793 0.0
O100 O 0.51325 0.74966 0.2112 0.0
O101 O 0.55523 0.80031 0.11501 0.0
O102 O 0.52311 0.6684 0.25964 0.0
O103 O 0.5182 0.69929 0.43441 0.0
O104 O 0.53027 0.71352 0.0335 0.0
O105 O 0.58606 0.74823 0.11492 0.0
O106 O 0.63971 0.77407 0.23972 0.0
O107 O 0.60324 0.73446 0.38499 0.0
O108 O 0.61776 0.84312 0.05841 0.0
O109 O 0.66329 0.84962 0.21736 0.0
O110 O 0.62523 0.82118 0.45263 0.0
O111 O 0.57119 0.7835 0.36447 0.0
H112 H 0.47434 0.59521 0.39043 0.0
H113 H 0.45119 0.68071 0.29336 0.0
H114 H 0.3852 0.63641 0.2596 0.0
H115 H 0.40867 0.5509 0.35538 0.0
H116 H 0.71922 0.92365 0.13615 0.0
H117 H 0.61074 0.89093 0.2127 0.0
H118 H 0.63315 0.95252 0.32511 0.0
H119 H 0.74203 0.98499 0.25313 0.0
Gd120 Gd 0.84725 0.56189 0.82997 0.0
Gd121 Gd 0.82184 0.61465 0.71274 0.0
C122 C 0.75961 0.53751 0.77779 0.0
C123 C 0.86066 0.51949 0.98501 0.0
C124 C 0.84514 0.4801 0.98672 0.0
C125 C 0.81794 0.4556 0.87382 0.0
C126 C 0.8594 0.46697 0.09666 0.0
C127 C 0.82203 0.40543 0.97354 0.0
C128 C 0.84782 0.42983 0.09052 0.0
C129 C 0.80644 0.41849 0.86733 0.0
C130 C 0.83112 0.55705 0.542 0.0
C131 C 0.90586 0.63433 0.73326 0.0
C132 C 0.8106 0.66025 0.57169 0.0
C133 C 0.78496 0.67365 0.54573 0.0
C134 C 0.76775 0.67777 0.65437 0.0
C135 C 0.7781 0.68303 0.40894 0.0
C136 C 0.73807 0.70191 0.48998 0.0
C137 C 0.75477 0.69692 0.38103 0.0
C138 C 0.74442 0.69181 0.62656 0.0
C139 C 0.83483 0.61568 -0.00077 0.0
O140 O 0.78587 0.5308 0.83134 0.0
O141 O 0.7664 0.56724 0.71565 0.0
O142 O 0.87622 0.5329 0.87456 0.0
O143 O 0.8404 0.53259 0.01781 0.0
O144 O 0.85564 0.55047 0.60748 0.0
O145 O 0.81508 0.5626 0.6315 0.0
O146 O 0.87771 0.63482 0.6587 0.0
O147 O 0.9014 0.61275 0.83565 0.0
O148 O 0.79838 0.62665 0.51887 0.0
O149 O 0.831 0.66914 0.69937 0.0
O150 O 0.80936 0.62067 0.93139 0.0
O151 O 0.85349 0.61334 0.91308 0.0
H152 H 0.80661 0.46539 0.78826 0.0
H153 H 0.88026 0.48559 0.18498 0.0
H154 H 0.85969 0.42033 0.17524 0.0
H155 H 0.78657 0.40027 0.77594 0.0
H156 H 0.7725 0.67038 0.76051 0.0
H157 H 0.79091 0.67967 0.32356 0.0
H158 H 0.74953 0.70347 0.27376 0.0
H159 H 0.73168 0.69519 0.71207 0.0
Gd160 Gd 0.19544 0.8047 0.26428 0.0
Gd161 Gd 0.27447 0.83405 0.21004 0.0
C162 C 0.2564 0.89118 0.33572 0.0
C163 C 0.13834 0.78961 0.37378 0.0
C164 C 0.10939 0.76086 0.43988 0.0
C165 C 0.08163 0.72826 0.35841 0.0
C166 C 0.10706 0.76803 0.58241 0.0
C167 C 0.04722 0.71332 0.55365 0.0
C168 C 0.07623 0.74431 0.63924 0.0
C169 C 0.05078 0.70466 0.4151 0.0
C170 C 0.20664 0.81986 -0.0049 0.0
C171 C 0.21473 0.74584 0.1647 0.0
C172 C 0.33246 0.85176 0.10151 0.0
C173 C 0.35874 0.8396 0.08608 0.0
C174 C 0.39363 0.85815 0.17259 0.0
C175 C 0.35032 0.81095 0.98257 0.0
C176 C 0.41065 0.81857 0.05845 0.0
C177 C 0.3761 0.80056 0.96883 0.0
C178 C 0.4192 0.84766 0.15943 0.0
C179 C 0.26331 0.8182 0.4794 0.0
O180 O 0.22625 0.86303 0.36333 0.0
O181 O 0.27624 0.88711 0.25016 0.0
O182 O 0.13728 0.78403 0.23614 0.0
O183 O 0.17152 0.80645 0.4486 0.0
O184 O 0.17633 0.79371 0.02481 0.0
O185 O 0.22786 0.83829 0.10914 0.0
O186 O 0.24511 0.77316 0.13117 0.0
O187 O 0.19365 0.75164 0.23794 0.0
O188 O 0.33333 0.8638 0.2313 0.0
O189 O 0.29917 0.83233 0.02773 0.0
O190 O 0.29393 0.84426 0.45128 0.0
O191 O 0.24227 0.80074 0.36441 0.0
H192 H 0.08276 0.72184 0.24862 0.0
H193 H 0.12819 0.79297 0.64738 0.0
H194 H 0.07397 0.75147 0.74632 0.0
H195 H 0.02875 0.68063 0.34795 0.0
H196 H 0.40115 0.88076 0.25146 0.0
H197 H 0.3239 0.79656 0.91226 0.0
H198 H 0.36902 0.7785 0.8881 0.0
H199 H 0.44552 0.86191 0.23052 0.0
Gd200 Gd 0.3936 0.20457 0.74066 0.0
Gd201 Gd 0.44918 0.28277 0.67831 0.0
C202 C 0.37089 0.26513 0.72541 0.0
C203 C 0.34643 0.14348 0.81574 0.0
C204 C 0.33187 0.10604 0.74963 0.0
C205 C 0.3221 0.09782 0.59961 0.0
C206 C 0.32966 0.07878 0.83468 0.0
C207 C 0.30756 0.03547 0.62054 0.0
C208 C 0.31771 0.04374 0.77061 0.0
C209 C 0.30996 0.06289 0.5359 0.0
C210 C 0.39588 0.21554 0.464 0.0
C211 C 0.47241 0.22001 0.69581 0.0
C212 C 0.49392 0.34071 0.57462 0.0
C213 C 0.53328 0.36715 0.60552 0.0
C214 C 0.55583 0.36509 0.72327 0.0
C215 C 0.54806 0.3961 0.52201 0.0
C216 C 0.60736 0.42214 0.67842 0.0
C217 C 0.58487 0.42334 0.55778 0.0
C218 C 0.59271 0.39239 0.75927 0.0
C219 C 0.45028 0.2718 0.95621 0.0
O220 O 0.37087 0.23986 0.80417 0.0
O221 O 0.39569 0.28098 0.64252 0.0
O222 O 0.38099 0.16094 0.87686 0.0
O223 O 0.33722 0.1637 0.73906 0.0
O224 O 0.39008 0.18513 0.51131 0.0
O225 O 0.39812 0.23691 0.56218 0.0
O226 O 0.47942 0.25214 0.65403 0.0
O227 O 0.44227 0.1982 0.74558 0.0
O228 O 0.4759 0.34106 0.67466 0.0
O229 O 0.48404 0.30771 0.52114 0.0
O230 O 0.45698 0.30282 0.91233 0.0
O231 O 0.44557 0.25016 0.85402 0.0
H232 H 0.32402 0.11845 0.53091 0.0
H233 H 0.33764 0.08472 0.95027 0.0
H234 H 0.31689 0.0233 0.83824 0.0
H235 H 0.30222 0.05724 0.42019 0.0
H236 H 0.54469 0.34282 0.78889 0.0
H237 H 0.53099 0.39796 0.43057 0.0
H238 H 0.59572 0.44548 0.49151 0.0
H239 H 0.60953 0.39077 0.85226 0.0
C240 C 0.33278 0.28582 0.58241 0.0
C241 C 0.33952 0.27124 0.70691 0.0
C242 C 0.30328 0.29156 0.55672 0.0
C243 C 0.27918 0.28318 0.65453 0.0
H244 H 0.35037 0.29291 0.50283 0.0
H245 H 0.30008 0.30381 0.46095 0.0
S246 S 0.28405 0.24377 -0.00386 0.0
N247 N 0.31922 0.24783 0.92859 0.0
N248 N 0.26349 0.25897 0.88027 0.0
C249 C 0.28522 0.26825 0.77923 0.0
C250 C 0.31536 0.26209 0.80514 0.0
C251 C 0.05597 0.29886 0.34988 0.0
C252 C 0.0607 0.3294 0.28052 0.0
C253 C 0.02185 0.2733 0.38155 0.0
C254 C 0.99116 0.27739 0.34602 0.0
H255 H 0.07905 0.29521 0.38454 0.0
H256 H 0.01985 0.25097 0.43975 0.0
S257 S 0.98826 0.35124 0.15492 0.0
N258 N 0.031 0.36083 0.16809 0.0
N259 N 0.96727 0.3134 0.23126 0.0
C260 C 0.99501 0.30669 0.26969 0.0
C261 C 0.02968 0.33258 0.23622 0.0
C262 C 0.74212 0.07568 0.40976 0.0
C263 C 0.73327 0.07869 0.54514 0.0
C264 C 0.72781 0.04156 0.33129 0.0
C265 C 0.70417 0.00914 0.38523 0.0
H266 H 0.75964 0.09987 0.36226 0.0
H267 H 0.73488 0.0406 0.22658 0.0
S268 S 0.67526 0.00173 0.74004 0.0
N269 N 0.70097 0.04604 0.7332 0.0
N270 N 0.67463 0.98198 0.58666 0.0
C271 C 0.69582 0.01167 0.52192 0.0
C272 C 0.71025 0.04641 0.60162 0.0
C273 C 0.67827 0.69832 0.49628 0.0
C274 C 0.71326 0.71664 0.4593 0.0
C275 C 0.65336 0.71018 0.45914 0.0
C276 C 0.66245 0.7408 0.38333 0.0
H277 H 0.66968 0.67399 0.55066 0.0
H278 H 0.62643 0.69457 0.48722 0.0
S279 S 0.75235 0.80071 0.27633 0.0
N280 N 0.75703 0.76867 0.35407 0.0
N281 N 0.71015 0.79087 0.28267 0.0
C282 C 0.69791 0.76017 0.35042 0.0
C283 C 0.72329 0.74809 0.38867 0.0
C284 C 0.00768 0.67669 0.72764 0.0
C285 C 0.01139 0.69329 0.59995 0.0
C286 C 0.97353 0.65797 0.77153 0.0
C287 C 0.94219 0.65588 0.6904 0.0
H288 H 0.0312 0.6778 0.79274 0.0
H289 H 0.97172 0.645 0.86933 0.0
S290 S 0.93893 0.69775 0.35229 0.0
N291 N 0.98191 0.70821 0.39663 0.0
N292 N 0.91804 0.67383 0.47839 0.0
C293 C 0.94608 0.67342 0.56412 0.0
C294 C 0.98061 0.69191 0.5191 0.0
C295 C 0.29622 0.95928 0.36235 0.0
C296 C 0.26863 0.92773 0.40806 0.0
C297 C 0.30878 0.99398 0.43211 0.0
C298 C 0.29443 0.9984 0.55092 0.0
H299 H 0.30822 0.95725 0.2718 0.0
H300 H 0.33012 0.01754 0.39342 0.0
S301 S 0.22203 0.92474 0.71461 0.0
N302 N 0.22764 0.90331 0.58184 0.0
N303 N 0.251 0.96854 0.71056 0.0
C304 C 0.26696 0.96717 0.59816 0.0
C305 C 0.25407 0.93185 0.52721 0.0
C306 C 0.18763 0.68247 0.23 0.0
C307 C 0.20609 0.70783 0.13595 0.0
C308 C 0.17901 0.64625 0.20832 0.0
C309 C 0.18794 0.63375 0.09052 0.0
H310 H 0.18013 0.69071 0.32259 0.0
H311 H 0.16484 0.6277 0.28374 0.0
S312 S 0.23562 0.68877 0.81095 0.0
N313 N 0.23299 0.71792 0.92006 0.0
N314 N 0.21588 0.64918 0.87751 0.0
C315 C 0.20604 0.65856 -0.00553 0.0
C316 C 0.21544 0.69581 0.01792 0.0
C317 C 0.50049 0.18518 0.80299 0.0
C318 C 0.50094 0.20984 0.70585 0.0
C319 C 0.52785 0.17615 0.82242 0.0
C320 C 0.55674 0.19113 0.74483 0.0
H321 H 0.47923 0.17322 0.86755 0.0
H322 H 0.52663 0.15767 0.90091 0.0
S323 S 0.5692 0.25479 0.46869 0.0
N324 N 0.5319 0.24793 0.52631 0.0
N325 N 0.58319 0.23032 0.5609 0.0
C326 C 0.55729 0.21532 0.64516 0.0
C327 C 0.52942 0.22477 0.62601 0.0
C328 C 0.34112 0.5423 0.40847 0.0
C329 C 0.35253 0.56365 0.29525 0.0
C330 C 0.30463 0.51517 0.40123 0.0
C331 C 0.27793 0.50824 0.28044 0.0
H332 H 0.36069 0.54641 0.50339 0.0
H333 H 0.29748 0.4993 0.49124 0.0
S334 S 0.29361 0.55704 0.95553 0.0
N335 N 0.3344 0.57669 0.05923 0.0
N336 N 0.26527 0.52548 0.04565 0.0
C337 C 0.28868 0.53005 0.16765 0.0
C338 C 0.32612 0.55782 0.17507 0.0
C339 C 0.77672 0.33839 0.92006 0.0
C340 C 0.81334 0.36703 0.9553 0.0
C341 C 0.76809 0.30233 0.88717 0.0
C342 C 0.7958 0.29377 0.88609 0.0
H343 H 0.75461 0.34402 0.91528 0.0
H344 H 0.73954 0.2813 0.85684 0.0
S345 S 0.89593 0.35847 0.98052 0.0
N346 N 0.87745 0.38415 -0.00598 0.0
N347 N 0.86125 0.31644 0.93319 0.0
C348 C 0.83247 0.32195 0.9265 0.0
C349 C 0.84124 0.35856 0.96098 0.0
C350 C 0.47465 0.83246 0.05563 0.0
C351 C 0.43754 0.80648 0.05316 0.0
C352 C 0.50153 0.82259 0.07354 0.0
C353 C 0.49227 0.78641 0.09074 0.0
H354 H 0.48314 0.86091 0.0486 0.0
H355 H 0.5299 0.84385 0.08157 0.0
S356 S 0.39849 0.70723 0.07443 0.0
N357 N 0.39262 0.74252 0.05768 0.0
N358 N 0.44291 0.72377 0.08769 0.0
C359 C 0.45498 0.75974 0.07864 0.0
C360 C 0.42765 0.76982 0.06062 0.0
C361 C 0.71115 0.47193 0.76918 0.0
C362 C 0.72093 0.50884 0.77151 0.0
C363 C 0.6743 0.44398 0.74322 0.0
C364 C 0.64601 0.45199 0.71909 0.0
H365 H 0.73202 0.46444 0.78127 0.0
H366 H 0.66794 0.41589 0.73661 0.0
S367 S 0.65702 0.54422 0.7377 0.0
N368 N 0.69928 0.55193 0.76366 0.0
N369 N 0.63013 0.4994 0.71619 0.0
C370 C 0.65541 0.48878 0.72956 0.0
C371 C 0.69284 0.5172 0.75557 0.0
C372 C 0.13886 0.39824 0.82926 0.0
C373 C 0.172 0.40281 0.90313 0.0
C374 C 0.13737 0.41289 0.69955 0.0
C375 C 0.16902 0.43257 0.63992 0.0
H376 H 0.11391 0.38347 0.87274 0.0
H377 H 0.11119 0.40816 0.64457 0.0
S378 S 0.26288 0.45391 0.79527 0.0
N379 N 0.23731 0.4293 0.90991 0.0
N380 N 0.23469 0.45723 0.66674 0.0
C381 C 0.20241 0.43772 0.71368 0.0
C382 C 0.20386 0.42258 0.84503 0.0
C383 C 0.7355 0.15627 0.26015 0.0
C384 C 0.75103 0.18842 0.35421 0.0
C385 C 0.7503 0.15557 0.13876 0.0
C386 C 0.78093 0.187 0.10807 0.0
H387 H 0.71248 0.13123 0.28255 0.0
H388 H 0.73778 0.13025 0.06879 0.0
S389 S 0.82901 0.2789 0.31391 0.0
N390 N 0.79668 0.25295 0.40425 0.0
N391 N 0.82487 0.25174 0.17622 0.0
C392 C 0.79614 0.21957 0.19966 0.0
C393 C 0.78097 0.22026 0.32273 0.0
C394 C 0.60522 0.7696 0.84189 0.0
C395 C 0.56911 0.7504 0.86771 0.0
C396 C 0.61314 0.78704 0.71822 0.0
C397 C 0.58517 0.78579 0.61741 0.0
H398 H 0.62746 0.7709 0.91722 0.0
H399 H 0.6411 0.80053 0.69942 0.0
S400 S 0.48696 0.74285 0.64299 0.0
N401 N 0.50559 0.73339 0.78805 0.0
N402 N 0.52073 0.76683 0.55561 0.0
C403 C 0.54921 0.76798 0.64445 0.0
C404 C 0.54107 0.74992 0.76967 0.0
C405 C 0.86302 0.58539 0.34048 0.0
C406 C 0.83075 0.56891 0.39828 0.0
C407 C 0.86428 0.60131 0.2124 0.0
C408 C 0.8333 0.60107 0.13838 0.0
H409 H 0.88773 0.58704 0.39662 0.0
H410 H 0.88967 0.61391 0.17102 0.0
S411 S 0.74131 0.5581 0.23962 0.0
N412 N 0.76656 0.55097 0.36853 0.0
N413 N 0.76889 0.58108 0.12787 0.0
C414 C 0.80065 0.58392 0.19373 0.0
C415 C 0.79936 0.5676 0.32356 0.0
C416 C 0.2654 0.84975 0.70836 0.0
C417 C 0.25006 0.81759 0.6145 0.0
C418 C 0.25038 0.85049 0.82944 0.0
C419 C 0.21969 0.81907 0.86048 0.0
H420 H 0.2886 0.87472 0.68648 0.0
H421 H 0.26298 0.87576 0.89971 0.0
S422 S 0.17029 0.72774 0.64979 0.0
N423 N 0.20326 0.75342 0.56173 0.0
N424 N 0.17486 0.75475 0.78894 0.0
C425 C 0.20422 0.7867 0.76761 0.0
C426 C 0.21961 0.78593 0.64497 0.0
C427 C 0.40787 0.25879 0.28402 0.0
C428 C 0.4091 0.22838 0.33217 0.0
C429 C 0.42312 0.27426 0.16547 0.0
C430 C 0.43984 0.25956 0.09238 0.0
H431 H 0.39494 0.27067 0.33823 0.0
H432 H 0.42071 0.29695 0.12823 0.0
S433 S 0.45321 0.1824 0.18397 0.0
N434 N 0.43026 0.18559 0.30415 0.0
N435 N 0.45915 0.21478 0.07989 0.0
C436 C 0.44211 0.22977 0.14145 0.0
C437 C 0.42649 0.21396 0.26179 0.0
loop_
_geom_bond_atom_site_label_1
_geom_bond_atom_site_label_2
_geom_bond_distance
_geom_bond_site_symmetry_2
_ccdc_geom_bond_type
Gd0 C3 2.818 . S
Gd0 O20 2.377 1_554 S
Gd0 O22 2.448 1_554 S
Gd0 O23 2.506 . S
Gd0 O24 2.435 1_554 S
Gd0 O25 2.717 1_554 S
Gd0 O27 2.395 1_554 S
Gd0 O31 2.327 . S
Gd1 C12 2.818 . S
Gd1 O21 2.395 1_556 S
Gd1 O25 2.327 . S
Gd1 O26 2.377 1_556 S
Gd1 O28 2.448 1_556 S
Gd1 O29 2.506 . S
Gd1 O30 2.435 1_556 S
Gd1 O31 2.717 1_556 S
C2 O20 1.240 1_554 S
C2 O21 1.240 . S
C3 Gd0 2.818 . S
C3 C4 1.510 . S
C3 O22 1.249 1_554 S
C3 O23 1.252 . S
C4 C3 1.510 . S
C4 C5 1.404 . S
C4 C6 1.352 . S
C5 C4 1.404 . S
C5 C9 1.389 . S
C5 H32 0.930 1_554 S
C6 C4 1.352 . S
C6 C8 1.374 . S
C6 H33 0.931 . S
C7 C8 1.359 . S
C7 C9 1.364 . S
C8 C6 1.374 . S
C8 C7 1.359 . S
C8 H34 0.931 . S
C9 C5 1.389 . S
C9 C7 1.364 . S
C9 H35 0.931 . S
C10 O24 1.256 . S
C10 O25 1.257 . S
C11 O26 1.240 1_556 S
C11 O27 1.240 . S
C12 Gd1 2.818 . S
C12 C13 1.510 . S
C12 O28 1.249 1_556 S
C12 O29 1.252 . S
C13 C12 1.510 . S
C13 C14 1.404 . S
C13 C15 1.352 . S
C14 C13 1.404 . S
C14 C18 1.389 . S
C14 H36 0.930 1_556 S
C15 C13 1.352 . S
C15 C17 1.374 . S
C15 H37 0.931 . S
C16 C17 1.359 . S
C16 C18 1.364 . S
C17 C15 1.374 . S
C17 C16 1.359 . S
C17 H38 0.931 . S
C18 C14 1.389 . S
C18 C16 1.364 . S
C18 H39 0.931 . S
C19 O30 1.256 . S
C19 O31 1.257 . S
O20 Gd0 2.377 1_556 S
O20 C2 1.240 1_556 S
O21 Gd1 2.395 1_554 S
O21 C2 1.240 . S
O22 Gd0 2.448 1_556 S
O22 C3 1.249 1_556 S
O23 Gd0 2.506 . S
O23 C3 1.252 . S
O24 Gd0 2.435 1_556 S
O24 C10 1.256 . S
O25 Gd0 2.717 1_556 S
O25 Gd1 2.327 . S
O25 C10 1.257 . S
O26 Gd1 2.377 1_554 S
O26 C11 1.240 1_554 S
O27 Gd0 2.395 1_556 S
O27 C11 1.240 . S
O28 Gd1 2.448 1_554 S
O28 C12 1.249 1_554 S
O29 Gd1 2.506 . S
O29 C12 1.252 . S
O30 Gd1 2.435 1_554 S
O30 C19 1.256 . S
O31 Gd0 2.327 . S
O31 Gd1 2.717 1_554 S
O31 C19 1.257 . S
H32 C5 0.930 1_556 S
H33 C6 0.931 . S
H34 C8 0.931 . S
H35 C9 0.931 . S
H36 C14 0.930 1_554 S
H37 C15 0.931 . S
H38 C17 0.931 . S
H39 C18 0.931 . S
Gd40 C43 2.818 1_556 S
Gd40 O60 2.377 . S
Gd40 O62 2.448 . S
Gd40 O63 2.506 1_556 S
Gd40 O64 2.435 . S
Gd40 O65 2.717 . S
Gd40 O67 2.395 . S
Gd40 O71 2.327 1_556 S
Gd41 C52 2.818 1_554 S
Gd41 O61 2.395 . S
Gd41 O65 2.327 1_554 S
Gd41 O66 2.377 . S
Gd41 O68 2.448 . S
Gd41 O69 2.506 1_554 S
Gd41 O70 2.435 . S
Gd41 O71 2.717 . S
C42 O60 1.240 1_554 S
C42 O61 1.240 . S
C43 Gd40 2.818 1_554 S
C43 C44 1.510 . S
C43 O62 1.249 1_554 S
C43 O63 1.252 . S
C44 C43 1.510 . S
C44 C45 1.404 1_554 S
C44 C46 1.352 . S
C45 C44 1.404 1_556 S
C45 C49 1.389 1_556 S
C45 H72 0.930 . S
C46 C44 1.352 . S
C46 C48 1.374 . S
C46 H73 0.931 . S
C47 C48 1.359 . S
C47 C49 1.364 . S
C48 C46 1.374 . S
C48 C47 1.359 . S
C48 H74 0.931 . S
C49 C45 1.389 1_554 S
C49 C47 1.364 . S
C49 H75 0.931 1_554 S
C50 O64 1.256 . S
C50 O65 1.257 . S
C51 O66 1.240 1_556 S
C51 O67 1.240 . S
C52 Gd41 2.818 1_556 S
C52 C53 1.510 . S
C52 O68 1.249 1_556 S
C52 O69 1.252 . S
C53 C52 1.510 . S
C53 C54 1.404 1_556 S
C53 C55 1.352 . S
C54 C53 1.404 1_554 S
C54 C58 1.389 1_654 S
C54 H76 0.930 . S
C55 C53 1.352 . S
C55 C57 1.374 . S
C55 H77 0.931 . S
C56 C57 1.359 1_455 S
C56 C58 1.364 . S
C57 C55 1.374 . S
C57 C56 1.359 1_655 S
C57 H78 0.931 . S
C58 C54 1.389 1_456 S
C58 C56 1.364 . S
C58 H79 0.931 1_556 S
C59 O70 1.256 . S
C59 O71 1.257 . S
O60 Gd40 2.377 . S
O60 C42 1.240 1_556 S
O61 Gd41 2.395 . S
O61 C42 1.240 . S
O62 Gd40 2.448 . S
O62 C43 1.249 1_556 S
O63 Gd40 2.506 1_554 S
O63 C43 1.252 . S
O64 Gd40 2.435 . S
O64 C50 1.256 . S
O65 Gd40 2.717 . S
O65 Gd41 2.327 1_556 S
O65 C50 1.257 . S
O66 Gd41 2.377 . S
O66 C51 1.240 1_554 S
O67 Gd40 2.395 . S
O67 C51 1.240 . S
O68 Gd41 2.448 . S
O68 C52 1.249 1_554 S
O69 Gd41 2.506 1_556 S
O69 C52 1.252 . S
O70 Gd41 2.435 . S
O70 C59 1.256 . S
O71 Gd40 2.327 1_554 S
O71 Gd41 2.717 . S
O71 C59 1.257 . S
H72 C45 0.930 . S
H73 C46 0.931 . S
H74 C48 0.931 . S
H75 C49 0.931 1_556 S
H76 C54 0.930 . S
H77 C55 0.931 . S
H78 C57 0.931 . S
H79 C58 0.931 1_554 S
Gd80 C83 2.818 . S
Gd80 O100 2.377 . S
Gd80 O102 2.448 . S
Gd80 O103 2.506 1_556 S
Gd80 O104 2.435 . S
Gd80 O105 2.717 . S
Gd80 O107 2.395 1_556 S
Gd80 O111 2.327 1_556 S
Gd81 C92 2.818 . S
Gd81 O101 2.395 1_554 S
Gd81 O105 2.327 1_554 S
Gd81 O106 2.377 . S
Gd81 O108 2.448 . S
Gd81 O109 2.506 1_554 S
Gd81 O110 2.435 . S
Gd81 O111 2.717 . S
C82 O100 1.240 . S
C82 O101 1.240 . S
C83 Gd80 2.818 . S
C83 C84 1.510 . S
C83 O102 1.249 . S
C83 O103 1.252 1_556 S
C84 C83 1.510 . S
C84 C85 1.404 . S
C84 C86 1.352 . S
C85 C84 1.404 . S
C85 C89 1.389 . S
C85 H112 0.930 . S
C86 C84 1.352 . S
C86 C88 1.374 . S
C86 H113 0.931 1_556 S
C87 C88 1.359 . S
C87 C89 1.364 . S
C88 C86 1.374 . S
C88 C87 1.359 . S
C88 H114 0.931 1_556 S
C89 C85 1.389 . S
C89 C87 1.364 . S
C89 H115 0.931 . S
C90 O104 1.256 . S
C90 O105 1.257 . S
C91 O106 1.240 . S
C91 O107 1.240 . S
C92 Gd81 2.818 . S
C92 C93 1.510 . S
C92 O108 1.249 . S
C92 O109 1.252 1_554 S
C93 C92 1.510 . S
C93 C94 1.404 . S
C93 C95 1.352 . S
C94 C93 1.404 . S
C94 C98 1.389 . S
C94 H116 0.930 . S
C95 C93 1.352 . S
C95 C97 1.374 . S
C95 H117 0.931 1_554 S
C96 C97 1.359 . S
C96 C98 1.364 . S
C97 C95 1.374 . S
C97 C96 1.359 . S
C97 H118 0.931 1_554 S
C98 C94 1.389 . S
C98 C96 1.364 . S
C98 H119 0.931 . S
C99 O110 1.256 . S
C99 O111 1.257 . S
O100 Gd80 2.377 . S
O100 C82 1.240 . S
O101 Gd81 2.395 1_556 S
O101 C82 1.240 . S
O102 Gd80 2.448 . S
O102 C83 1.249 . S
O103 Gd80 2.506 1_554 S
O103 C83 1.252 1_554 S
O104 Gd80 2.435 . S
O104 C90 1.256 . S
O105 Gd80 2.717 . S
O105 Gd81 2.327 1_556 S
O105 C90 1.257 . S
O106 Gd81 2.377 . S
O106 C91 1.240 . S
O107 Gd80 2.395 1_554 S
O107 C91 1.240 . S
O108 Gd81 2.448 . S
O108 C92 1.249 . S
O109 Gd81 2.506 1_556 S
O109 C92 1.252 1_556 S
O110 Gd81 2.435 . S
O110 C99 1.256 . S
O111 Gd80 2.327 1_554 S
O111 Gd81 2.717 . S
O111 C99 1.257 . S
H112 C85 0.930 . S
H113 C86 0.931 1_554 S
H114 C88 0.931 1_554 S
H115 C89 0.931 . S
H116 C94 0.930 . S
H117 C95 0.931 1_556 S
H118 C97 0.931 1_556 S
H119 C98 0.931 . S
Gd120 C123 2.818 . S
Gd120 O140 2.377 1_554 S
Gd120 O142 2.448 1_554 S
Gd120 O143 2.506 . S
Gd120 O144 2.435 1_554 S
Gd120 O145 2.717 1_554 S
Gd120 O147 2.395 1_554 S
Gd120 O151 2.327 . S
Gd121 C132 2.818 . S
Gd121 O141 2.395 1_556 S
Gd121 O145 2.327 . S
Gd121 O146 2.377 1_556 S
Gd121 O148 2.448 1_556 S
Gd121 O149 2.506 . S
Gd121 O150 2.435 1_556 S
Gd121 O151 2.717 1_556 S
C122 O140 1.240 1_554 S
C122 O141 1.240 . S
C123 Gd120 2.818 . S
C123 C124 1.510 . S
C123 O142 1.249 1_554 S
C123 O143 1.252 . S
C124 C123 1.510 . S
C124 C125 1.404 . S
C124 C126 1.352 . S
C125 C124 1.404 . S
C125 C129 1.389 . S
C125 H152 0.930 1_554 S
C126 C124 1.352 . S
C126 C128 1.374 . S
C126 H153 0.931 . S
C127 C128 1.359 . S
C127 C129 1.364 . S
C128 C126 1.374 . S
C128 C127 1.359 . S
C128 H154 0.931 . S
C129 C125 1.389 . S
C129 C127 1.364 . S
C129 H155 0.931 . S
C130 O144 1.256 . S
C130 O145 1.257 . S
C131 O146 1.240 1_556 S
C131 O147 1.240 . S
C132 Gd121 2.818 . S
C132 C133 1.510 . S
C132 O148 1.249 1_556 S
C132 O149 1.252 . S
C133 C132 1.510 . S
C133 C134 1.404 . S
C133 C135 1.352 . S
C134 C133 1.404 . S
C134 C138 1.389 . S
C134 H156 0.930 1_556 S
C135 C133 1.352 . S
C135 C137 1.374 . S
C135 H157 0.931 . S
C136 C137 1.359 . S
C136 C138 1.364 . S
C137 C135 1.374 . S
C137 C136 1.359 . S
C137 H158 0.931 . S
C138 C134 1.389 . S
C138 C136 1.364 . S
C138 H159 0.931 . S
C139 O150 1.256 . S
C139 O151 1.257 . S
O140 Gd120 2.377 1_556 S
O140 C122 1.240 1_556 S
O141 Gd121 2.395 1_554 S
O141 C122 1.240 . S
O142 Gd120 2.448 1_556 S
O142 C123 1.249 1_556 S
O143 Gd120 2.506 . S
O143 C123 1.252 . S
O144 Gd120 2.435 1_556 S
O144 C130 1.256 . S
O145 Gd120 2.717 1_556 S
O145 Gd121 2.327 . S
O145 C130 1.257 . S
O146 Gd121 2.377 1_554 S
O146 C131 1.240 1_554 S
O147 Gd120 2.395 1_556 S
O147 C131 1.240 . S
O148 Gd121 2.448 1_554 S
O148 C132 1.249 1_554 S
O149 Gd121 2.506 . S
O149 C132 1.252 . S
O150 Gd121 2.435 1_554 S
O150 C139 1.256 . S
O151 Gd120 2.327 . S
O151 Gd121 2.717 1_554 S
O151 C139 1.257 . S
H152 C125 0.930 1_556 S
H153 C126 0.931 . S
H154 C128 0.931 . S
H155 C129 0.931 . S
H156 C134 0.930 1_554 S
H157 C135 0.931 . S
H158 C137 0.931 . S
H159 C138 0.931 . S
Gd160 C163 2.818 1_556 S
Gd160 O180 2.377 . S
Gd160 O182 2.448 . S
Gd160 O183 2.506 1_556 S
Gd160 O184 2.435 . S
Gd160 O185 2.717 . S
Gd160 O187 2.395 . S
Gd160 O191 2.327 1_556 S
Gd161 C172 2.818 1_554 S
Gd161 O181 2.395 . S
Gd161 O185 2.327 1_554 S
Gd161 O186 2.377 . S
Gd161 O188 2.448 . S
Gd161 O189 2.506 1_554 S
Gd161 O190 2.435 . S
Gd161 O191 2.717 . S
C162 O180 1.240 1_554 S
C162 O181 1.240 . S
C163 Gd160 2.818 1_554 S
C163 C164 1.510 . S
C163 O182 1.249 1_554 S
C163 O183 1.252 . S
C164 C163 1.510 . S
C164 C165 1.404 1_554 S
C164 C166 1.352 . S
C165 C164 1.404 1_556 S
C165 C169 1.389 1_456 S
C165 H192 0.930 . S
C166 C164 1.352 . S
C166 C168 1.374 . S
C166 H193 0.931 . S
C167 C168 1.359 1_655 S
C167 C169 1.364 . S
C168 C166 1.374 . S
C168 C167 1.359 1_455 S
C168 H194 0.931 . S
C169 C165 1.389 1_654 S
C169 C167 1.364 . S
C169 H195 0.931 1_554 S
C170 O184 1.256 . S
C170 O185 1.257 . S
C171 O186 1.240 1_556 S
C171 O187 1.240 . S
C172 Gd161 2.818 1_556 S
C172 C173 1.510 . S
C172 O188 1.249 1_556 S
C172 O189 1.252 . S
C173 C172 1.510 . S
C173 C174 1.404 1_556 S
C173 C175 1.352 . S
C174 C173 1.404 1_554 S
C174 C178 1.389 1_554 S
C174 H196 0.930 . S
C175 C173 1.352 . S
C175 C177 1.374 . S
C175 H197 0.931 . S
C176 C177 1.359 . S
C176 C178 1.364 . S
C177 C175 1.374 . S
C177 C176 1.359 . S
C177 H198 0.931 . S
C178 C174 1.389 1_556 S
C178 C176 1.364 . S
C178 H199 0.931 1_556 S
C179 O190 1.256 . S
C179 O191 1.257 . S
O180 Gd160 2.377 . S
O180 C162 1.240 1_556 S
O181 Gd161 2.395 . S
O181 C162 1.240 . S
O182 Gd160 2.448 . S
O182 C163 1.249 1_556 S
O183 Gd160 2.506 1_554 S
O183 C163 1.252 . S
O184 Gd160 2.435 . S
O184 C170 1.256 . S
O185 Gd160 2.717 . S
O185 Gd161 2.327 1_556 S
O185 C170 1.257 . S
O186 Gd161 2.377 . S
O186 C171 1.240 1_554 S
O187 Gd160 2.395 . S
O187 C171 1.240 . S
O188 Gd161 2.448 . S
O188 C172 1.249 1_554 S
O189 Gd161 2.506 1_556 S
O189 C172 1.252 . S
O190 Gd161 2.435 . S
O190 C179 1.256 . S
O191 Gd160 2.327 1_554 S
O191 Gd161 2.717 . S
O191 C179 1.257 . S
H192 C165 0.930 . S
H193 C166 0.931 . S
H194 C168 0.931 . S
H195 C169 0.931 1_556 S
H196 C174 0.930 . S
H197 C175 0.931 . S
H198 C177 0.931 . S
H199 C178 0.931 1_554 S
Gd200 C203 2.818 . S
Gd200 O220 2.377 . S
Gd200 O222 2.448 . S
Gd200 O223 2.506 1_556 S
Gd200 O224 2.435 . S
Gd200 O225 2.717 . S
Gd200 O227 2.395 1_556 S
Gd200 O231 2.327 1_556 S
Gd201 C212 2.818 . S
Gd201 O221 2.395 1_554 S
Gd201 O225 2.327 1_554 S
Gd201 O226 2.377 . S
Gd201 O228 2.448 . S
Gd201 O229 2.506 1_554 S
Gd201 O230 2.435 . S
Gd201 O231 2.717 . S
C202 O220 1.240 . S
C202 O221 1.240 . S
C203 Gd200 2.818 . S
C203 C204 1.510 . S
C203 O222 1.249 . S
C203 O223 1.252 1_556 S
C204 C203 1.510 . S
C204 C205 1.404 . S
C204 C206 1.352 . S
C205 C204 1.404 . S
C205 C209 1.389 . S
C205 H232 0.930 . S
C206 C204 1.352 . S
C206 C208 1.374 . S
C206 H233 0.931 1_556 S
C207 C208 1.359 . S
C207 C209 1.364 . S
C208 C206 1.374 . S
C208 C207 1.359 . S
C208 H234 0.931 1_556 S
C209 C205 1.389 . S
C209 C207 1.364 . S
C209 H235 0.931 . S
C210 O224 1.256 . S
C210 O225 1.257 . S
C211 O226 1.240 . S
C211 O227 1.240 . S
C212 Gd201 2.818 . S
C212 C213 1.510 . S
C212 O228 1.249 . S
C212 O229 1.252 1_554 S
C213 C212 1.510 . S
C213 C214 1.404 . S
C213 C215 1.352 . S
C214 C213 1.404 . S
C214 C218 1.389 . S
C214 H236 0.930 . S
C215 C213 1.352 . S
C215 C217 1.374 . S
C215 H237 0.931 1_554 S
C216 C217 1.359 . S
C216 C218 1.364 . S
C217 C215 1.374 . S
C217 C216 1.359 . S
C217 H238 0.931 1_554 S
C218 C214 1.389 . S
C218 C216 1.364 . S
C218 H239 0.931 . S
C219 O230 1.256 . S
C219 O231 1.257 . S
O220 Gd200 2.377 . S
O220 C202 1.240 . S
O221 Gd201 2.395 1_556 S
O221 C202 1.240 . S
O222 Gd200 2.448 . S
O222 C203 1.249 . S
O223 Gd200 2.506 1_554 S
O223 C203 1.252 1_554 S
O224 Gd200 2.435 . S
O224 C210 1.256 . S
O225 Gd200 2.717 . S
O225 Gd201 2.327 1_556 S
O225 C210 1.257 . S
O226 Gd201 2.377 . S
O226 C211 1.240 . S
O227 Gd200 2.395 1_554 S
O227 C211 1.240 . S
O228 Gd201 2.448 . S
O228 C212 1.249 . S
O229 Gd201 2.506 1_556 S
O229 C212 1.252 1_556 S
O230 Gd201 2.435 . S
O230 C219 1.256 . S
O231 Gd200 2.327 1_554 S
O231 Gd201 2.717 . S
O231 C219 1.257 . S
H232 C205 0.930 . S
H233 C206 0.931 1_554 S
H234 C208 0.931 1_554 S
H235 C209 0.931 . S
H236 C214 0.930 . S
H237 C215 0.931 1_556 S
H238 C217 0.931 1_556 S
H239 C218 0.931 . S
C240 C241 1.369 . S
C240 C242 1.419 . S
C240 H244 0.930 . S
C241 C240 1.369 . S
C241 C250 1.429 . S
C242 C240 1.419 . S
C242 C243 1.363 . S
C242 H245 0.929 . S
C243 C242 1.363 . S
C243 C249 1.428 . S
H244 C240 0.930 . S
H245 C242 0.929 . S
S246 N247 1.613 . S
S246 N248 1.610 . S
N247 S246 1.613 . S
N247 C250 1.350 . S
N248 S246 1.610 . S
N248 C249 1.351 . S
C249 C243 1.428 . S
C249 N248 1.351 . S
C249 C250 1.434 . S
C250 C241 1.429 . S
C250 N247 1.350 . S
C250 C249 1.434 . S
C251 C252 1.369 . S
C251 C253 1.419 . S
C251 H255 0.930 . S
C252 C251 1.369 . S
C252 C261 1.429 . S
C253 C251 1.419 . S
C253 C254 1.363 . S
C253 H256 0.929 . S
C254 C253 1.363 . S
C254 C260 1.428 . S
H255 C251 0.930 . S
H256 C253 0.929 . S
S257 N258 1.613 . S
S257 N259 1.610 . S
N258 S257 1.613 . S
N258 C261 1.350 . S
N259 S257 1.610 . S
N259 C260 1.351 . S
C260 C254 1.428 . S
C260 N259 1.351 . S
C260 C261 1.434 . S
C261 C252 1.429 . S
C261 N258 1.350 . S
C261 C260 1.434 . S
C262 C263 1.369 . S
C262 C264 1.419 . S
C262 H266 0.930 . S
C263 C262 1.369 . S
C263 C272 1.429 . S
C264 C262 1.419 . S
C264 C265 1.363 . S
C264 H267 0.929 . S
C265 C264 1.363 . S
C265 C271 1.428 . S
H266 C262 0.930 . S
H267 C264 0.929 . S
S268 N269 1.613 . S
S268 N270 1.610 . S
N269 S268 1.613 . S
N269 C272 1.350 . S
N270 S268 1.610 . S
N270 C271 1.351 . S
C271 C265 1.428 . S
C271 N270 1.351 . S
C271 C272 1.434 . S
C272 C263 1.429 . S
C272 N269 1.350 . S
C272 C271 1.434 . S
C273 C274 1.369 . S
C273 C275 1.419 . S
C273 H277 0.930 . S
C274 C273 1.369 . S
C274 C283 1.429 . S
C275 C273 1.419 . S
C275 C276 1.363 . S
C275 H278 0.929 . S
C276 C275 1.363 . S
C276 C282 1.428 . S
H277 C273 0.930 . S
H278 C275 0.929 . S
S279 N280 1.613 . S
S279 N281 1.610 . S
N280 S279 1.613 . S
N280 C283 1.350 . S
N281 S279 1.610 . S
N281 C282 1.351 . S
C282 C276 1.428 . S
C282 N281 1.351 . S
C282 C283 1.434 . S
C283 C274 1.429 . S
C283 N280 1.350 . S
C283 C282 1.434 . S
C284 C285 1.369 . S
C284 C286 1.419 . S
C284 H288 0.930 . S
C285 C284 1.369 . S
C285 C294 1.429 . S
C286 C284 1.419 . S
C286 C287 1.363 . S
C286 H289 0.929 . S
C287 C286 1.363 . S
C287 C293 1.428 . S
H288 C284 0.930 . S
H289 C286 0.929 . S
S290 N291 1.613 . S
S290 N292 1.610 . S
N291 S290 1.613 . S
N291 C294 1.350 . S
N292 S290 1.610 . S
N292 C293 1.351 . S
C293 C287 1.428 . S
C293 N292 1.351 . S
C293 C294 1.434 . S
C294 C285 1.429 . S
C294 N291 1.350 . S
C294 C293 1.434 . S
C295 C296 1.369 . S
C295 C297 1.419 . S
C295 H299 0.930 . S
C296 C295 1.369 . S
C296 C305 1.429 . S
C297 C295 1.419 . S
C297 C298 1.363 . S
C297 H300 0.929 . S
C298 C297 1.363 . S
C298 C304 1.428 . S
H299 C295 0.930 . S
H300 C297 0.929 . S
S301 N302 1.613 . S
S301 N303 1.610 . S
N302 S301 1.613 . S
N302 C305 1.350 . S
N303 S301 1.610 . S
N303 C304 1.351 . S
C304 C298 1.428 . S
C304 N303 1.351 . S
C304 C305 1.434 . S
C305 C296 1.429 . S
C305 N302 1.350 . S
C305 C304 1.434 . S
C306 C307 1.369 . S
C306 C308 1.419 . S
C306 H310 0.930 1_556 S
C307 C306 1.369 . S
C307 C316 1.429 . S
C308 C306 1.419 . S
C308 C309 1.363 . S
C308 H311 0.929 . S
C309 C308 1.363 . S
C309 C315 1.428 . S
H310 C306 0.930 1_554 S
H311 C308 0.929 . S
S312 N313 1.613 . S
S312 N314 1.610 . S
N313 S312 1.613 . S
N313 C316 1.350 . S
N314 S312 1.610 . S
N314 C315 1.351 . S
C315 C309 1.428 . S
C315 N314 1.351 . S
C315 C316 1.434 . S
C316 C307 1.429 . S
C316 N313 1.350 . S
C316 C315 1.434 . S
C317 C318 1.369 . S
C317 C319 1.419 . S
C317 H321 0.930 1_554 S
C318 C317 1.369 . S
C318 C327 1.429 . S
C319 C317 1.419 . S
C319 C320 1.363 . S
C319 H322 0.929 1_554 S
C320 C319 1.363 . S
C320 C326 1.428 . S
H321 C317 0.930 1_556 S
H322 C319 0.929 1_556 S
S323 N324 1.613 . S
S323 N325 1.610 . S
N324 S323 1.613 . S
N324 C327 1.350 . S
N325 S323 1.610 . S
N325 C326 1.351 . S
C326 C320 1.428 . S
C326 N325 1.351 . S
C326 C327 1.434 . S
C327 C318 1.429 . S
C327 N324 1.350 . S
C327 C326 1.434 . S
C328 C329 1.369 . S
C328 C330 1.419 . S
C328 H332 0.930 . S
C329 C328 1.369 . S
C329 C338 1.429 . S
C330 C328 1.419 . S
C330 C331 1.363 . S
C330 H333 0.929 . S
C331 C330 1.363 . S
C331 C337 1.428 . S
H332 C328 0.930 . S
H333 C330 0.929 . S
S334 N335 1.613 . S
S334 N336 1.610 . S
N335 S334 1.613 . S
N335 C338 1.350 . S
N336 S334 1.610 . S
N336 C337 1.351 . S
C337 C331 1.428 . S
C337 N336 1.351 . S
C337 C338 1.434 . S
C338 C329 1.429 . S
C338 N335 1.350 . S
C338 C337 1.434 . S
C339 C340 1.369 . S
C339 C341 1.419 . S
C339 H343 0.930 . S
C340 C339 1.369 . S
C340 C349 1.429 . S
C341 C339 1.419 . S
C341 C342 1.363 . S
C341 H344 0.929 1_554 S
C342 C341 1.363 . S
C342 C348 1.428 . S
H343 C339 0.930 . S
H344 C341 0.929 1_556 S
S345 N346 1.613 . S
S345 N347 1.610 . S
N346 S345 1.613 . S
N346 C349 1.350 . S
N347 S345 1.610 . S
N347 C348 1.351 . S
C348 C342 1.428 . S
C348 N347 1.351 . S
C348 C349 1.434 . S
C349 C340 1.429 . S
C349 N346 1.350 . S
C349 C348 1.434 . S
C350 C351 1.369 . S
C350 C352 1.419 . S
C350 H354 0.930 . S
C351 C350 1.369 . S
C351 C360 1.429 . S
C352 C350 1.419 . S
C352 C353 1.363 . S
C352 H355 0.929 . S
C353 C352 1.363 . S
C353 C359 1.428 . S
H354 C350 0.930 . S
H355 C352 0.929 . S
S356 N357 1.613 . S
S356 N358 1.610 . S
N357 S356 1.613 . S
N357 C360 1.350 . S
N358 S356 1.610 . S
N358 C359 1.351 . S
C359 C353 1.428 . S
C359 N358 1.351 . S
C359 C360 1.434 . S
C360 C351 1.429 . S
C360 N357 1.350 . S
C360 C359 1.434 . S
C361 C362 1.369 . S
C361 C363 1.419 . S
C361 H365 0.930 . S
C362 C361 1.369 . S
C362 C371 1.429 1_554 S
C363 C361 1.419 . S
C363 C364 1.363 . S
C363 H366 0.929 . S
C364 C363 1.363 . S
C364 C370 1.428 . S
H365 C361 0.930 . S
H366 C363 0.929 . S
S367 N368 1.613 . S
S367 N369 1.610 . S
N368 S367 1.613 . S
N368 C371 1.350 . S
N369 S367 1.610 . S
N369 C370 1.351 1_556 S
C370 C364 1.428 . S
C370 N369 1.351 1_554 S
C370 C371 1.434 1_554 S
C371 C362 1.429 1_556 S
C371 N368 1.350 . S
C371 C370 1.434 1_556 S
C372 C373 1.369 . S
C372 C374 1.419 . S
C372 H376 0.930 . S
C373 C372 1.369 . S
C373 C382 1.429 . S
C374 C372 1.419 . S
C374 C375 1.363 . S
C374 H377 0.929 . S
C375 C374 1.363 . S
C375 C381 1.428 . S
H376 C372 0.930 . S
H377 C374 0.929 . S
S378 N379 1.613 . S
S378 N380 1.610 . S
N379 S378 1.613 . S
N379 C382 1.350 . S
N380 S378 1.610 . S
N380 C381 1.351 . S
C381 C375 1.428 . S
C381 N380 1.351 . S
C381 C382 1.434 . S
C382 C373 1.429 . S
C382 N379 1.350 . S
C382 C381 1.434 . S
C383 C384 1.369 . S
C383 C385 1.419 . S
C383 H387 0.930 . S
C384 C383 1.369 . S
C384 C393 1.429 . S
C385 C383 1.419 . S
C385 C386 1.363 . S
C385 H388 0.929 . S
C386 C385 1.363 . S
C386 C392 1.428 . S
H387 C383 0.930 . S
H388 C385 0.929 . S
S389 N390 1.613 . S
S389 N391 1.610 . S
N390 S389 1.613 . S
N390 C393 1.350 . S
N391 S389 1.610 . S
N391 C392 1.351 . S
C392 C386 1.428 . S
C392 N391 1.351 . S
C392 C393 1.434 . S
C393 C384 1.429 . S
C393 N390 1.350 . S
C393 C392 1.434 . S
C394 C395 1.369 . S
C394 C396 1.419 . S
C394 H398 0.930 . S
C395 C394 1.369 . S
C395 C404 1.429 . S
C396 C394 1.419 . S
C396 C397 1.363 . S
C396 H399 0.929 . S
C397 C396 1.363 . S
C397 C403 1.428 . S
H398 C394 0.930 . S
H399 C396 0.929 . S
S400 N401 1.613 . S
S400 N402 1.610 . S
N401 S400 1.613 . S
N401 C404 1.350 . S
N402 S400 1.610 . S
N402 C403 1.351 . S
C403 C397 1.428 . S
C403 N402 1.351 . S
C403 C404 1.434 . S
C404 C395 1.429 . S
C404 N401 1.350 . S
C404 C403 1.434 . S
C405 C406 1.369 . S
C405 C407 1.419 . S
C405 H409 0.930 . S
C406 C405 1.369 . S
C406 C415 1.429 . S
C407 C405 1.419 . S
C407 C408 1.363 . S
C407 H410 0.929 . S
C408 C407 1.363 . S
C408 C414 1.428 . S
H409 C405 0.930 . S
H410 C407 0.929 . S
S411 N412 1.613 . S
S411 N413 1.610 . S
N412 S411 1.613 . S
N412 C415 1.350 . S
N413 S411 1.610 . S
N413 C414 1.351 . S
C414 C408 1.428 . S
C414 N413 1.351 . S
C414 C415 1.434 . S
C415 C406 1.429 . S
C415 N412 1.350 . S
C415 C414 1.434 . S
C416 C417 1.369 . S
C416 C418 1.419 . S
C416 H420 0.930 . S
C417 C416 1.369 . S
C417 C426 1.429 . S
C418 C416 1.419 . S
C418 C419 1.363 . S
C418 H421 0.929 . S
C419 C418 1.363 . S
C419 C425 1.428 . S
H420 C416 0.930 . S
H421 C418 0.929 . S
S422 N423 1.613 . S
S422 N424 1.610 . S
N423 S422 1.613 . S
N423 C426 1.350 . S
N424 S422 1.610 . S
N424 C425 1.351 . S
C425 C419 1.428 . S
C425 N424 1.351 . S
C425 C426 1.434 . S
C426 C417 1.429 . S
C426 N423 1.350 . S
C426 C425 1.434 . S
C427 C428 1.369 . S
C427 C429 1.419 . S
C427 H431 0.930 . S
C428 C427 1.369 . S
C428 C437 1.429 . S
C429 C427 1.419 . S
C429 C430 1.363 . S
C429 H432 0.929 . S
C430 C429 1.363 . S
C430 C436 1.428 . S
H431 C427 0.930 . S
H432 C429 0.929 . S
S433 N434 1.613 . S
S433 N435 1.610 . S
N434 S433 1.613 . S
N434 C437 1.350 . S
N435 S433 1.610 . S
N435 C436 1.351 . S
C436 C430 1.428 . S
C436 N435 1.351 . S
C436 C437 1.434 . S
C437 C428 1.429 . S
C437 N434 1.350 . S
C437 C436 1.434 . S
C241 C202 3.220 . S
C243 C7 2.964 . S
C252 C2 3.484 . S
C254 C56 3.124 . S
C263 C51 3.313 . S
C265 C96 3.013 1_545 S
C274 C136 2.969 . S
C276 C91 3.217 . S
C285 C167 3.131 . S
C287 C131 3.484 . S
C296 C162 3.314 . S
C298 C207 3.017 1_565 S
C307 C171 2.160 . S
C309 C16 2.121 . S
C318 C211 2.019 . S
C320 C47 1.994 . S
C329 C87 1.998 . S
C331 C11 2.046 . S
C340 C127 2.119 . S
C342 C42 2.159 . S
C351 C176 1.993 . S
C353 C82 2.020 . S
C362 C122 2.046 . S
C364 C216 1.997 . S
C373 C10 0.866 . S
C375 C19 0.880 . S
C384 C50 0.826 . S
C386 C59 0.829 . S
C395 C90 0.808 . S
C397 C99 0.815 . S
C406 C130 0.880 . S
C408 C139 0.869 . S
C417 C179 0.827 . S
C419 C170 0.828 . S
C428 C210 0.823 . S
C430 C219 0.803 . S
