# Generated by pormake.
# Topology sma, (6)-cn, num edge types: 1
# Building blocks:
#     Node 0, Type 0, BuildingBlock: PAMTOO_clean_sbu_0, # of connection points: 6
#     Node 1, Type 0, BuildingBlock: PAMTOO_clean_sbu_0, # of connection points: 6
#     Node 2, Type 0, BuildingBlock: PAMTOO_clean_sbu_0, # of connection points: 6
#     Edge 3, Type (0, 0), BuildingBlock: XUDNAN_clean_linker_2, # of connection points: 2
#     Edge 4, Type (0, 0), BuildingBlock: XUDNAN_clean_linker_2, # of connection points: 2
#     Edge 5, Type (0, 0), BuildingBlock: XUDNAN_clean_linker_2, # of connection points: 2
#     Edge 6, Type (0, 0), BuildingBlock: XUDNAN_clean_linker_2, # of connection points: 2
#     Edge 7, Type (0, 0), BuildingBlock: XUDNAN_clean_linker_2, # of connection points: 2
#     Edge 8, Type (0, 0), BuildingBlock: XUDNAN_clean_linker_2, # of connection points: 2
#     Edge 9, Type (0, 0), BuildingBlock: XUDNAN_clean_linker_2, # of connection points: 2
#     Edge 10, Type (0, 0), BuildingBlock: XUDNAN_clean_linker_2, # of connection points: 2
#     Edge 11, Type (0, 0), BuildingBlock: XUDNAN_clean_linker_2, # of connection points: 2
# Relax obj value: 0.153
# Max RMSD: 0.233
# Mean RMSD: 0.209
data_MOF--net-sma--node1-PAMTOO_clean_sbu_0--edge1-XUDNAN_clean_linker_2
_symmetry_space_group_name_H-M    P1
_symmetry_Int_Tables_number       1
_symmetry_cell_setting            triclinic
loop_
_symmetry_equiv_pos_as_xyz
'x, y, z'
_cell_length_a     30.128156
_cell_length_b     40.412235
_cell_length_c     14.311262
_cell_angle_alpha  90.515771
_cell_angle_beta   99.764983
_cell_angle_gamma 96.900238
loop_
_atom_site_label
_atom_site_type_symbol
_atom_site_fract_x
_atom_site_fract_y
_atom_site_fract_z
_atom_type_partial_charge
Dy0 Dy 0.08238 0.56948 -0.01078 0.0
Dy1 Dy 0.08696 0.48639 0.01033 0.0
C2 C 0.08644 0.52292 0.81773 0.0
O3 O 1.01375 0.54686 0.01323 0.0
O4 O 1.0149 0.49357 -0.04258 0.0
O5 O 0.08956 0.61472 0.911 0.0
O6 O 0.06711 0.61547 0.04725 0.0
O7 O 0.08329 0.51103 0.14709 0.0
O8 O 0.12317 0.56117 0.12729 0.0
O9 O 0.1604 0.50756 0.01705 0.0
O10 O 0.15333 0.56251 -0.0242 0.0
O11 O 0.10221 0.44511 0.10136 0.0
O12 O 0.07079 0.43591 -0.04592 0.0
C13 C 0.99264 0.51785 -0.02154 0.0
O14 O 1.0618 0.54383 0.8487 0.0
O15 O 0.10428 0.50021 0.87128 0.0
C16 C 0.11528 0.66312 0.0113 0.0
C17 C 0.17863 0.72024 0.07026 0.0
C18 C 0.17636 0.70473 -0.01914 0.0
C19 C 0.14504 0.67658 -0.04834 0.0
C20 C 0.11743 0.67869 0.10056 0.0
C21 C 0.14882 0.70681 0.1298 0.0
C22 C 0.08187 0.63328 -0.01959 0.0
C23 C 0.11205 0.53691 0.18117 0.0
C24 C 0.17772 0.5376 -0.00519 0.0
C25 C 1.04827 0.39663 0.06542 0.0
C26 C 0.98626 0.34435 0.11694 0.0
C27 C 1.03002 0.35183 0.17092 0.0
C28 C 1.06072 0.37759 0.14514 0.0
C29 C 1.00412 0.38971 0.01285 0.0
C30 C 0.97359 0.36384 0.03817 0.0
C31 C 0.08185 0.42282 0.03659 0.0
H32 H 0.1991 0.71417 0.93354 0.0
H33 H 0.14422 0.66537 0.88226 0.0
H34 H 0.09471 0.66924 0.14792 0.0
H35 H 0.14912 0.71841 0.19846 0.0
H36 H 1.041 0.33716 0.23156 0.0
H37 H 0.0945 0.38235 0.18686 0.0
H38 H 0.99316 0.40405 -0.04853 0.0
H39 H 0.93996 0.35909 -0.00412 0.0
Dy40 Dy 0.55861 1.01679 0.56848 0.0
Dy41 Dy 0.66351 0.05729 0.56586 0.0
C42 C 0.62706 0.04054 0.75593 0.0
O43 O 0.55866 0.06882 0.62474 0.0
O44 O 0.61719 0.09698 0.55999 0.0
O45 O 0.52161 0.97195 0.61127 0.0
O46 O 0.48523 1.01091 0.54442 0.0
O47 O 0.62619 0.05815 0.41934 0.0
O48 O 0.55137 0.03769 0.42563 0.0
O49 O 0.66688 1.00297 0.59467 0.0
O50 O 0.59952 0.98402 0.50239 0.0
O51 O 0.72491 0.0586 0.50631 0.0
O52 O 0.72044 0.09475 0.616 0.0
C53 C 0.58148 0.09677 0.60227 0.0
O54 O 0.6016 1.01487 0.71036 0.0
O55 O 0.65255 0.06182 0.71345 0.0
C56 C 0.45223 0.95519 0.51063 0.0
C57 C 0.39464 0.90642 0.38986 0.0
C58 C 0.3867 0.91275 0.48214 0.0
C59 C 0.41525 0.93695 0.54188 0.0
C60 C 0.46073 0.94875 0.41922 0.0
C61 C 0.43215 0.92464 0.35931 0.0
C62 C 0.48216 0.98044 0.57422 0.0
C63 C 0.5829 0.05263 0.38273 0.0
C64 C 0.63908 0.97833 0.54863 0.0
C65 C 0.76381 0.11269 0.49878 0.0
C66 C 0.80361 0.16305 0.39188 0.0
C67 C 0.75851 0.14832 0.36213 0.0
C68 C 0.73877 0.12344 0.41517 0.0
C69 C 0.80843 0.12761 0.52953 0.0
C70 C 0.82815 0.15256 0.47677 0.0
C71 C 0.74411 0.08579 0.55393 0.0
H72 H 0.35791 0.89945 0.50761 0.0
H73 H 0.40832 0.94151 0.61242 0.0
H74 H 0.48947 0.96239 0.39426 0.0
H75 H 0.43965 0.92008 0.28928 0.0
H76 H 0.73837 0.15607 0.29791 0.0
H77 H 0.70409 0.11242 0.39058 0.0
H78 H 0.82827 0.11969 0.59395 0.0
H79 H 0.86305 0.16303 0.50133 0.0
Dy80 Dy 0.58728 0.57609 0.81945 0.0
Dy81 Dy 0.56398 0.49265 0.85101 0.0
C82 C 0.578 0.54729 0.01928 0.0
O83 O 0.65288 0.55485 0.8633 0.0
O84 O 0.62994 0.50214 0.79893 0.0
O85 O 0.62568 0.62495 0.85683 0.0
O86 O 0.57437 0.61722 0.72716 0.0
O87 O 0.53116 0.50259 0.70519 0.0
O88 O 0.58286 0.5472 0.68624 0.0
O89 O 0.50362 0.51386 0.886 0.0
O90 O 0.51191 0.56584 0.81867 0.0
O91 O 0.52296 0.44485 0.8236 0.0
O92 O 0.58603 0.44912 0.92424 0.0
C93 C 0.66235 0.52598 0.83375 0.0
O94 O 0.57107 0.5722 -0.03684 0.0
O95 O 0.59024 0.51935 -0.00979 0.0
C96 C 0.61405 0.67369 0.75772 0.0
C97 C 0.63258 0.74156 0.71115 0.0
C98 C 0.65518 0.7292 0.79557 0.0
C99 C 0.64605 0.6957 0.8185 0.0
C100 C 0.59117 0.686 0.67376 0.0
C101 C 0.60029 0.71949 0.65078 0.0
C102 C 0.60463 0.63808 0.78127 0.0
C103 C 0.54794 0.52548 0.65279 0.0
C104 C 0.48781 0.54172 0.85713 0.0
C105 C 0.55824 0.39533 0.85305 0.0
C106 C 0.56013 0.3277 0.80319 0.0
C107 C 0.55864 0.35208 0.73339 0.0
C108 C 0.55744 0.38568 0.75806 0.0
C109 C 0.56203 0.37129 0.92295 0.0
C110 C 0.56292 0.33789 0.89842 0.0
C111 C 0.55105 0.42925 0.88144 0.0
H112 H 0.67972 0.7455 0.84466 0.0
H113 H 0.6641 0.68707 0.88393 0.0
H114 H 0.56635 0.66969 0.62523 0.0
H115 H 0.58259 0.72792 0.58472 0.0
H116 H 0.55636 0.34496 0.65942 0.0
H117 H 0.55449 0.40384 0.70284 0.0
H118 H 0.56275 0.37819 -0.0034 0.0
H119 H 0.56479 0.31982 -0.04601 0.0
H120 H 0.23851 0.4921 -0.02005 0.0
H121 H 0.22688 0.59823 -0.01479 0.0
H122 H 0.30438 0.61035 -0.04789 0.0
H123 H 0.35915 0.49971 0.0906 0.0
H124 H 0.37139 0.46663 0.01731 0.0
H125 H 0.31548 0.46604 0.04677 0.0
H126 H 0.28086 0.46185 0.86785 0.0
H127 H 0.33668 0.46283 0.83784 0.0
H128 H 0.30026 0.49304 0.78972 0.0
H129 H 0.38075 0.61148 0.90752 0.0
H130 H 0.45434 0.6014 0.86643 0.0
H131 H 0.41891 0.49494 0.8934 0.0
C132 C 0.25256 0.51788 -0.02423 0.0
C133 C 0.22629 0.54414 -0.01498 0.0
C134 C 0.24595 0.57756 -0.02209 0.0
C135 C 0.2901 0.5848 -0.04087 0.0
C136 C 0.31461 0.55843 0.948 0.0
C137 C 0.29692 0.52566 -0.04292 0.0
C138 C 0.33053 0.50211 0.93966 0.0
C139 C 0.345 0.48247 0.02892 0.0
C140 C 0.3109 0.47857 0.85366 0.0
C141 C 0.36949 0.52682 0.91876 0.0
C142 C 0.35939 0.55915 0.92358 0.0
C143 C 0.38926 0.58628 0.90419 0.0
C144 C 0.43088 0.58028 0.88025 0.0
C145 C 0.44248 0.54742 0.87657 0.0
C146 C 0.41118 0.52039 0.89606 0.0
H147 H 0.86108 0.22052 0.45259 0.0
H148 H 0.79627 0.16282 0.19818 0.0
H149 H 0.83404 0.20361 0.10068 0.0
H150 H 0.85526 0.30221 0.34951 0.0
H151 H 0.90976 0.31961 0.41452 0.0
H152 H 0.87612 0.28661 0.46418 0.0
H153 H 0.94322 0.25129 0.48259 0.0
H154 H 0.97701 0.28413 0.43284 0.0
H155 H 0.96811 0.24262 0.38038 0.0
H156 H 0.88069 0.24973 0.03082 0.0
H157 H 0.93274 0.29784 -0.00634 0.0
H158 H 0.96813 0.32555 0.29314 0.0
C159 C 0.85487 0.2164 0.37638 0.0
C160 C 0.82545 0.18841 0.3332 0.0
C161 C 0.81798 0.18426 0.23303 0.0
C162 C 0.83952 0.20722 0.17698 0.0
C163 C 0.86843 0.23436 0.22188 0.0
C164 C 0.87605 0.23913 0.31927 0.0
C165 C 0.90915 0.2702 0.34979 0.0
C166 C 0.8862 0.29619 0.39731 0.0
C167 C 0.95191 0.26153 0.41526 0.0
C168 C 0.91969 0.28177 0.25451 0.0
C169 C 0.89552 0.26088 0.18163 0.0
C170 C 0.89958 0.26636 0.0873 0.0
C171 C 0.92909 0.29387 0.06685 0.0
C172 C 0.95446 0.31562 0.14031 0.0
C173 C 0.94953 0.30931 0.23541 0.0
H174 H 0.5779 0.92142 0.52527 0.0
H175 H 0.72108 0.95635 0.61227 0.0
H176 H 0.73547 0.89906 0.65587 0.0
H177 H 0.56945 0.86705 0.71383 0.0
H178 H 0.52976 0.83539 0.64495 0.0
H179 H 0.53128 0.87825 0.61113 0.0
H180 H 0.54412 0.86172 0.44361 0.0
H181 H 0.54236 0.8187 0.47645 0.0
H182 H 0.59074 0.83885 0.43129 0.0
H183 H 0.73358 0.83858 0.69847 0.0
H184 H 0.7159 0.77957 0.73646 0.0
H185 H 0.57327 0.7844 0.62809 0.0
C186 C 0.61248 0.91692 0.55137 0.0
C187 C 0.64853 0.94338 0.56428 0.0
C188 C 0.69303 0.93649 0.60112 0.0
C189 C 0.70151 0.90401 0.62611 0.0
C190 C 0.66509 0.87865 0.61441 0.0
C191 C 0.62146 0.88471 0.57774 0.0
C192 C 0.5879 0.85353 0.57787 0.0
C193 C 0.55252 0.85889 0.6407 0.0
C194 C 0.56494 0.84256 0.47625 0.0
C195 C 0.61944 0.82901 0.62093 0.0
C196 C 0.66384 0.84398 0.64099 0.0
C197 C 0.69893 0.82661 0.68291 0.0
C198 C 0.68846 0.7931 0.70501 0.0
C199 C 0.64314 0.77714 0.68581 0.0
C200 C 0.60834 0.79555 0.6427 0.0
H201 H 0.73993 0.56874 0.90207 0.0
H202 H 0.69352 0.46765 0.79224 0.0
H203 H 0.77244 0.4548 0.81997 0.0
H204 H 0.84368 0.57871 0.80163 0.0
H205 H 0.8763 0.60251 0.90271 0.0
H206 H 0.81608 0.6041 0.87264 0.0
H207 H 0.80655 0.58609 0.0421 0.0
H208 H 0.86669 0.58417 0.07245 0.0
H209 H 0.82713 0.54816 0.08655 0.0
H210 H 0.8556 0.45203 0.86376 0.0
H211 H 0.93858 0.4604 0.91203 0.0
H212 H 0.93237 0.56351 -0.00765 0.0
C213 C 0.74635 0.54397 0.88319 0.0
C214 C 0.71031 0.51923 0.84489 0.0
C215 C 0.72035 0.48711 0.82141 0.0
C216 C 0.76514 0.47949 0.83716 0.0
C217 C 0.79969 0.50425 0.87614 0.0
C218 C 0.79098 0.53592 0.89816 0.0
C219 C 0.83455 0.55791 0.93912 0.0
C220 C 0.84316 0.58756 0.87519 0.0
C221 C 0.83366 0.56977 0.04111 0.0
C222 C 0.86899 0.53354 0.93717 0.0
C223 C 0.84802 0.50273 0.90076 0.0
C224 C 0.87245 0.47609 0.89202 0.0
C225 C 0.91969 0.48113 0.9199 0.0
C226 C 0.94226 0.51265 -0.04397 0.0
C227 C 0.91629 0.53909 -0.03462 0.0
H228 H 0.35564 0.84437 0.43269 0.0
H229 H 0.36246 0.91214 0.20048 0.0
H230 H 0.30962 0.87147 0.09311 0.0
H231 H 0.34971 0.7681 0.29365 0.0
H232 H 0.31063 0.74476 0.35824 0.0
H233 H 0.35003 0.77881 0.41634 0.0
H234 H 0.28323 0.80657 0.46205 0.0
H235 H 0.24364 0.77265 0.40401 0.0
H236 H 0.23728 0.81494 0.37054 0.0
H237 H 0.25433 0.82414 0.01181 0.0
H238 H 0.2009 0.77343 -0.03777 0.0
H239 H 0.23011 0.73619 0.24692 0.0
C240 C 0.34591 0.85073 0.35934 0.0
C241 C 0.36338 0.88149 0.32506 0.0
C242 C 0.35012 0.8886 0.22821 0.0
C243 C 0.3199 0.86572 0.16673 0.0
C244 C 0.30325 0.83574 0.20292 0.0
C245 C 0.31584 0.82814 0.29688 0.0
C246 C 0.29275 0.79424 0.31789 0.0
C247 C 0.32788 0.77005 0.34831 0.0
C248 C 0.26242 0.7973 0.39306 0.0
C249 C 0.26471 0.78419 0.22138 0.0
C250 C 0.27144 0.80842 0.15598 0.0
C251 C 0.24902 0.80491 0.06227 0.0
C252 C 0.21889 0.77589 0.03464 0.0
C253 C 0.21131 0.75067 0.10041 0.0
C254 C 0.23475 0.75506 0.19503 0.0
H255 H 0.60568 0.29561 0.68361 0.0
H256 H 0.50398 0.27796 0.86485 0.0
H257 H 0.49643 0.21765 0.82777 0.0
H258 H 0.55482 0.23161 0.50269 0.0
H259 H 0.60852 0.21954 0.48482 0.0
H260 H 0.605 0.26169 0.52231 0.0
H261 H 0.66753 0.25654 0.66805 0.0
H262 H 0.67128 0.21443 0.63085 0.0
H263 H 0.66012 0.22288 0.748 0.0
H264 H 0.50051 0.15938 0.77447 0.0
H265 H 0.5178 0.1063 0.71215 0.0
H266 H 0.61768 0.1606 0.56588 0.0
C267 C 0.58154 0.27902 0.71461 0.0
C268 C 0.55549 0.29151 0.77742 0.0
C269 C 0.52465 0.26896 0.81746 0.0
C270 C 0.51991 0.23466 0.79639 0.0
C271 C 0.54629 0.22311 0.7351 0.0
C272 C 0.57663 0.2445 0.69489 0.0
C273 C 0.60198 0.22519 0.63399 0.0
C274 C 0.59197 0.23511 0.52976 0.0
C275 C 0.65326 0.23006 0.67256 0.0
C276 C 0.5812 0.18972 0.64668 0.0
C277 C 0.54896 0.18919 0.70484 0.0
C278 C 0.52554 0.15946 0.72842 0.0
C279 C 0.53556 0.12937 0.69231 0.0
C280 C 0.56894 0.12908 0.63346 0.0
C281 C 0.59179 0.15984 0.61012 0.0
H282 H 0.09973 0.47871 0.68619 0.0
H283 H 0.11445 0.58412 0.7599 0.0
H284 H 0.14709 0.59728 0.61639 0.0
H285 H 0.20022 0.48222 0.54784 0.0
H286 H 0.16764 0.45218 0.46116 0.0
H287 H 0.16065 0.44978 0.58374 0.0
H288 H 0.07408 0.45157 0.53383 0.0
H289 H 0.08087 0.45362 0.41212 0.0
H290 H 1.05452 0.48547 0.46351 0.0
H291 H 0.16173 0.60034 0.45694 0.0
H292 H 0.14569 0.59413 0.28326 0.0
H293 H 0.11751 0.48693 0.30497 0.0
C294 C 0.1109 0.50441 0.67232 0.0
C295 C 0.10437 0.53049 0.73179 0.0
C296 C 0.11855 0.56395 0.71301 0.0
C297 C 0.13815 0.57155 0.63324 0.0
C298 C 0.14309 0.54534 0.57361 0.0
C299 C 0.1295 0.51238 0.5917 0.0
C300 C 0.12861 0.4897 0.50696 0.0
C301 C 0.16656 0.46715 0.52609 0.0
C302 C 0.08174 0.46894 0.47738 0.0
C303 C 0.13846 0.51556 0.43543 0.0
C304 C 0.14968 0.54721 0.4769 0.0
C305 C 0.15416 0.57569 0.42367 0.0
C306 C 0.14459 0.57196 0.32523 0.0
C307 C 0.1297 0.54006 0.28221 0.0
C308 C 0.1287 0.5115 0.33734 0.0
H309 H 0.53823 1.01362 0.23542 0.0
H310 H 0.6043 0.11323 0.31578 0.0
H311 H 0.60851 0.12474 0.14892 0.0
H312 H 0.60709 0.99499 0.10714 0.0
H313 H 0.57022 0.97126 0.01096 0.0
H314 H 0.55264 0.97427 0.12387 0.0
H315 H 0.47954 0.99834 0.04844 0.0
H316 H 0.49558 0.99399 0.93353 0.0
H317 H 0.48328 0.0338 -0.02663 0.0
H318 H 0.62919 0.11928 -0.00524 0.0
H319 H 0.65374 0.10049 0.85024 0.0
H320 H 0.57767 1.00301 0.86832 0.0
C321 C 0.55059 0.03846 0.21602 0.0
C322 C 0.57049 0.06275 0.28607 0.0
C323 C 0.58851 0.09465 0.26132 0.0
C324 C 0.59089 0.10137 0.16697 0.0
C325 C 0.57512 0.07579 0.09945 0.0
C326 C 0.55409 0.04516 0.12203 0.0
C327 C 0.54905 1.01981 0.04135 0.0
C328 C 0.5711 0.98828 0.07282 0.0
C329 C 0.49888 1.01098 -0.00351 0.0
C330 C 0.5749 0.03987 -0.02481 0.0
C331 C 0.58837 0.07233 0.00855 0.0
C332 C 0.61748 0.09431 -0.03413 0.0
C333 C 0.63205 0.08315 0.88507 0.0
C334 C 0.61768 0.05022 0.84856 0.0
C335 C 0.58895 0.02837 0.89454 0.0
H336 H 0.53908 0.47942 0.51144 0.0
H337 H 0.51386 0.57932 0.5778 0.0
H338 H 0.50184 0.59195 0.40836 0.0
H339 H 0.60792 0.49891 0.37361 0.0
H340 H 0.59217 0.46654 0.28239 0.0
H341 H 0.57892 0.45908 0.39829 0.0
H342 H 0.49352 0.44445 0.32953 0.0
H343 H 0.50658 0.45049 0.21195 0.0
H344 H 0.46473 0.47294 0.25182 0.0
H345 H 0.51819 0.59993 0.2506 0.0
H346 H 0.55099 0.60033 0.10457 0.0
H347 H 0.5687 0.49571 0.13825 0.0
C348 C 0.52807 0.50305 0.48863 0.0
C349 C 0.52687 0.5284 0.55519 0.0
C350 C 0.51442 0.55971 0.526 0.0
C351 C 0.50729 0.56698 0.43016 0.0
C352 C 0.51278 0.54252 0.36553 0.0
C353 C 0.52163 0.51075 0.39286 0.0
C354 C 0.53522 0.49155 0.31329 0.0
C355 C 0.58128 0.47831 0.34381 0.0
C356 C 0.49777 0.46318 0.27432 0.0
C357 C 0.53823 0.5188 0.24253 0.0
C358 C 0.52344 0.54752 0.2723 0.0
C359 C 0.52826 0.57724 0.22452 0.0
C360 C 0.54771 0.57738 0.14272 0.0
C361 C 0.5626 0.54808 0.11069 0.0
C362 C 0.55768 0.51851 0.16125 0.0
loop_
_geom_bond_atom_site_label_1
_geom_bond_atom_site_label_2
_geom_bond_distance
_geom_bond_site_symmetry_2
_ccdc_geom_bond_type
Dy0 O3 2.307 1_455 S
Dy0 O5 2.395 . S
Dy0 O6 2.379 . S
Dy0 O8 2.339 . S
Dy0 O10 2.298 . S
Dy0 O14 2.275 . S
Dy0 C22 2.738 . S
Dy1 O4 2.298 1_455 S
Dy1 O7 2.275 . S
Dy1 O9 2.307 . S
Dy1 O11 2.395 1_455 S
Dy1 O12 2.379 1_455 S
Dy1 O15 2.339 1_554 S
Dy1 C31 2.738 1_455 S
C2 O14 1.254 1_556 S
C2 O15 1.257 . S
O3 Dy0 2.307 1_655 S
O3 C13 1.266 . S
O4 Dy1 2.298 1_655 S
O4 C13 1.236 . S
O5 Dy0 2.395 . S
O5 C22 1.255 . S
O6 Dy0 2.379 . S
O6 C22 1.249 . S
O7 Dy1 2.275 . S
O7 C23 1.254 . S
O8 Dy0 2.339 . S
O8 C23 1.257 . S
O9 Dy1 2.307 . S
O9 C24 1.266 . S
O10 Dy0 2.298 . S
O10 C24 1.236 . S
O11 Dy1 2.395 1_655 S
O11 C31 1.255 . S
O12 Dy1 2.379 1_655 S
O12 C31 1.249 . S
C13 O3 1.266 . S
C13 O4 1.236 . S
O14 Dy0 2.275 . S
O14 C2 1.254 1_554 S
O15 Dy1 2.339 1_556 S
O15 C2 1.257 . S
C16 C19 1.344 . S
C16 C20 1.328 . S
C16 C22 1.516 . S
C17 C18 1.304 . S
C17 C21 1.323 . S
C18 C17 1.304 . S
C18 C19 1.371 . S
C18 H32 0.930 1_554 S
C19 C16 1.344 . S
C19 C18 1.371 . S
C19 H33 0.931 1_554 S
C20 C16 1.328 . S
C20 C21 1.433 . S
C20 H34 0.931 . S
C21 C17 1.323 . S
C21 C20 1.433 . S
C21 H35 0.933 . S
C22 Dy0 2.738 . S
C22 O5 1.255 . S
C22 O6 1.249 . S
C22 C16 1.516 . S
C23 O7 1.254 . S
C23 O8 1.257 . S
C24 O9 1.266 . S
C24 O10 1.236 . S
C25 C28 1.344 . S
C25 C29 1.328 . S
C25 C31 1.516 . S
C26 C27 1.304 . S
C26 C30 1.323 . S
C27 C26 1.304 . S
C27 C28 1.371 . S
C27 H36 0.930 . S
C28 C25 1.344 . S
C28 C27 1.371 . S
C28 H37 0.931 . S
C29 C25 1.328 . S
C29 C30 1.433 . S
C29 H38 0.931 1_554 S
C30 C26 1.323 . S
C30 C29 1.433 . S
C30 H39 0.933 . S
C31 Dy1 2.738 1_655 S
C31 O11 1.255 . S
C31 O12 1.249 . S
C31 C25 1.516 . S
H32 C18 0.930 1_556 S
H33 C19 0.931 1_556 S
H34 C20 0.931 . S
H35 C21 0.933 . S
H36 C27 0.930 . S
H37 C28 0.931 . S
H38 C29 0.931 1_556 S
H39 C30 0.933 . S
Dy40 O43 2.307 1_565 S
Dy40 O45 2.395 . S
Dy40 O46 2.379 . S
Dy40 O48 2.339 1_565 S
Dy40 O50 2.298 . S
Dy40 O54 2.275 1_565 S
Dy40 C62 2.738 . S
Dy41 O44 2.298 . S
Dy41 O47 2.275 . S
Dy41 O49 2.307 1_545 S
Dy41 O51 2.395 . S
Dy41 O52 2.379 . S
Dy41 O55 2.339 . S
Dy41 C71 2.738 . S
C42 O54 1.254 . S
C42 O55 1.257 . S
O43 Dy40 2.307 1_545 S
O43 C53 1.266 . S
O44 Dy41 2.298 . S
O44 C53 1.236 . S
O45 Dy40 2.395 . S
O45 C62 1.255 . S
O46 Dy40 2.379 . S
O46 C62 1.249 . S
O47 Dy41 2.275 . S
O47 C63 1.254 . S
O48 Dy40 2.339 1_545 S
O48 C63 1.257 . S
O49 Dy41 2.307 1_565 S
O49 C64 1.266 . S
O50 Dy40 2.298 . S
O50 C64 1.236 . S
O51 Dy41 2.395 . S
O51 C71 1.255 . S
O52 Dy41 2.379 . S
O52 C71 1.249 . S
C53 O43 1.266 . S
C53 O44 1.236 . S
O54 Dy40 2.275 1_545 S
O54 C42 1.254 . S
O55 Dy41 2.339 . S
O55 C42 1.257 . S
C56 C59 1.344 . S
C56 C60 1.328 . S
C56 C62 1.516 . S
C57 C58 1.304 . S
C57 C61 1.323 . S
C58 C57 1.304 . S
C58 C59 1.371 . S
C58 H72 0.930 . S
C59 C56 1.344 . S
C59 C58 1.371 . S
C59 H73 0.931 . S
C60 C56 1.328 . S
C60 C61 1.433 . S
C60 H74 0.931 . S
C61 C57 1.323 . S
C61 C60 1.433 . S
C61 H75 0.933 . S
C62 Dy40 2.738 . S
C62 O45 1.255 . S
C62 O46 1.249 . S
C62 C56 1.516 . S
C63 O47 1.254 . S
C63 O48 1.257 . S
C64 O49 1.266 . S
C64 O50 1.236 . S
C65 C68 1.344 . S
C65 C69 1.328 . S
C65 C71 1.516 . S
C66 C67 1.304 . S
C66 C70 1.323 . S
C67 C66 1.304 . S
C67 C68 1.371 . S
C67 H76 0.930 . S
C68 C65 1.344 . S
C68 C67 1.371 . S
C68 H77 0.931 . S
C69 C65 1.328 . S
C69 C70 1.433 . S
C69 H78 0.931 . S
C70 C66 1.323 . S
C70 C69 1.433 . S
C70 H79 0.933 . S
C71 Dy41 2.738 . S
C71 O51 1.255 . S
C71 O52 1.249 . S
C71 C65 1.516 . S
H72 C58 0.930 . S
H73 C59 0.931 . S
H74 C60 0.931 . S
H75 C61 0.933 . S
H76 C67 0.930 . S
H77 C68 0.931 . S
H78 C69 0.931 . S
H79 C70 0.933 . S
Dy80 O83 2.307 . S
Dy80 O85 2.395 . S
Dy80 O86 2.379 . S
Dy80 O88 2.339 . S
Dy80 O90 2.298 . S
Dy80 O94 2.275 . S
Dy80 C102 2.738 . S
Dy81 O84 2.298 . S
Dy81 O87 2.275 . S
Dy81 O89 2.307 . S
Dy81 O91 2.395 . S
Dy81 O92 2.379 . S
Dy81 O95 2.339 1_556 S
Dy81 C111 2.738 . S
C82 O94 1.254 1_554 S
C82 O95 1.257 . S
O83 Dy80 2.307 . S
O83 C93 1.266 . S
O84 Dy81 2.298 . S
O84 C93 1.236 . S
O85 Dy80 2.395 . S
O85 C102 1.255 . S
O86 Dy80 2.379 . S
O86 C102 1.249 . S
O87 Dy81 2.275 . S
O87 C103 1.254 . S
O88 Dy80 2.339 . S
O88 C103 1.257 . S
O89 Dy81 2.307 . S
O89 C104 1.266 . S
O90 Dy80 2.298 . S
O90 C104 1.236 . S
O91 Dy81 2.395 . S
O91 C111 1.255 . S
O92 Dy81 2.379 . S
O92 C111 1.249 . S
C93 O83 1.266 . S
C93 O84 1.236 . S
O94 Dy80 2.275 . S
O94 C82 1.254 1_556 S
O95 Dy81 2.339 1_554 S
O95 C82 1.257 . S
C96 C99 1.344 . S
C96 C100 1.328 . S
C96 C102 1.516 . S
C97 C98 1.304 . S
C97 C101 1.323 . S
C98 C97 1.304 . S
C98 C99 1.371 . S
C98 H112 0.930 1_556 S
C99 C96 1.344 . S
C99 C98 1.371 . S
C99 H113 0.931 1_556 S
C100 C96 1.328 . S
C100 C101 1.433 . S
C100 H114 0.931 . S
C101 C97 1.323 . S
C101 C100 1.433 . S
C101 H115 0.933 . S
C102 Dy80 2.738 . S
C102 O85 1.255 . S
C102 O86 1.249 . S
C102 C96 1.516 . S
C103 O87 1.254 . S
C103 O88 1.257 . S
C104 O89 1.266 . S
C104 O90 1.236 . S
C105 C108 1.344 . S
C105 C109 1.328 . S
C105 C111 1.516 . S
C106 C107 1.304 . S
C106 C110 1.323 . S
C107 C106 1.304 . S
C107 C108 1.371 . S
C107 H116 0.930 . S
C108 C105 1.344 . S
C108 C107 1.371 . S
C108 H117 0.931 . S
C109 C105 1.328 . S
C109 C110 1.433 . S
C109 H118 0.931 . S
C110 C106 1.323 . S
C110 C109 1.433 . S
C110 H119 0.933 . S
C111 Dy81 2.738 . S
C111 O91 1.255 . S
C111 O92 1.249 . S
C111 C105 1.516 . S
H112 C98 0.930 1_554 S
H113 C99 0.931 1_554 S
H114 C100 0.931 . S
H115 C101 0.933 . S
H116 C107 0.930 . S
H117 C108 0.931 . S
H118 C109 0.931 . S
H119 C110 0.933 . S
H120 C132 0.930 . S
H121 C134 0.930 . S
H122 C135 0.930 . S
H123 C139 0.959 1_554 S
H124 C139 0.959 . S
H125 C139 0.960 1_554 S
H126 C140 0.960 . S
H127 C140 0.961 . S
H128 C140 0.959 . S
H129 C143 0.929 . S
H130 C144 0.931 . S
H131 C146 0.930 . S
C132 H120 0.930 . S
C132 C133 1.399 . S
C132 C137 1.399 1_554 S
C133 C132 1.399 . S
C133 C134 1.376 . S
C134 H121 0.930 . S
C134 C133 1.376 . S
C134 C135 1.388 . S
C135 H122 0.930 . S
C135 C134 1.388 . S
C135 C136 1.390 . S
C136 C135 1.390 . S
C136 C137 1.394 1_554 S
C136 C142 1.465 1_554 S
C137 C132 1.399 1_556 S
C137 C136 1.394 1_556 S
C137 C138 1.516 . S
C138 C137 1.516 . S
C138 C139 1.502 . S
C138 C140 1.561 . S
C138 C141 1.526 . S
C139 H123 0.959 1_556 S
C139 H124 0.959 . S
C139 H125 0.960 1_556 S
C139 C138 1.502 . S
C140 H126 0.960 . S
C140 H127 0.961 . S
C140 H128 0.959 . S
C140 C138 1.561 . S
C141 C138 1.526 . S
C141 C142 1.396 . S
C141 C146 1.390 . S
C142 C136 1.465 1_556 S
C142 C141 1.396 . S
C142 C143 1.399 . S
C143 H129 0.929 . S
C143 C142 1.399 . S
C143 C144 1.385 . S
C144 H130 0.931 . S
C144 C143 1.385 . S
C144 C145 1.389 . S
C145 C144 1.389 . S
C145 C146 1.387 . S
C146 H131 0.930 . S
C146 C141 1.390 . S
C146 C145 1.387 . S
H147 C159 0.930 . S
H148 C161 0.930 . S
H149 C162 0.930 . S
H150 C166 0.959 . S
H151 C166 0.959 . S
H152 C166 0.961 . S
H153 C167 0.960 . S
H154 C167 0.961 . S
H155 C167 0.959 . S
H156 C170 0.929 . S
H157 C171 0.931 . S
H158 C173 0.930 . S
C159 H147 0.930 . S
C159 C160 1.399 . S
C159 C164 1.399 . S
C160 C159 1.399 . S
C160 C161 1.376 . S
C161 H148 0.930 . S
C161 C160 1.376 . S
C161 C162 1.388 . S
C162 H149 0.930 . S
C162 C161 1.388 . S
C162 C163 1.390 . S
C163 C162 1.390 . S
C163 C164 1.394 . S
C163 C169 1.465 . S
C164 C159 1.399 . S
C164 C163 1.394 . S
C164 C165 1.516 . S
C165 C164 1.516 . S
C165 C166 1.502 . S
C165 C167 1.561 . S
C165 C168 1.526 . S
C166 H150 0.959 . S
C166 H151 0.959 . S
C166 H152 0.961 . S
C166 C165 1.502 . S
C167 H153 0.960 . S
C167 H154 0.961 . S
C167 H155 0.959 . S
C167 C165 1.561 . S
C168 C165 1.526 . S
C168 C169 1.396 . S
C168 C173 1.390 . S
C169 C163 1.465 . S
C169 C168 1.396 . S
C169 C170 1.399 . S
C170 H156 0.929 . S
C170 C169 1.399 . S
C170 C171 1.385 . S
C171 H157 0.931 . S
C171 C170 1.385 . S
C171 C172 1.389 . S
C172 C171 1.389 . S
C172 C173 1.387 . S
C173 H158 0.930 . S
C173 C168 1.390 . S
C173 C172 1.387 . S
H174 C186 0.930 . S
H175 C188 0.930 . S
H176 C189 0.930 . S
H177 C193 0.959 . S
H178 C193 0.959 . S
H179 C193 0.961 . S
H180 C194 0.960 . S
H181 C194 0.961 . S
H182 C194 0.959 . S
H183 C197 0.929 . S
H184 C198 0.931 . S
H185 C200 0.930 . S
C186 H174 0.930 . S
C186 C187 1.399 . S
C186 C191 1.399 . S
C187 C186 1.399 . S
C187 C188 1.376 . S
C188 H175 0.930 . S
C188 C187 1.376 . S
C188 C189 1.388 . S
C189 H176 0.930 . S
C189 C188 1.388 . S
C189 C190 1.390 . S
C190 C189 1.390 . S
C190 C191 1.394 . S
C190 C196 1.465 . S
C191 C186 1.399 . S
C191 C190 1.394 . S
C191 C192 1.516 . S
C192 C191 1.516 . S
C192 C193 1.502 . S
C192 C194 1.561 . S
C192 C195 1.526 . S
C193 H177 0.959 . S
C193 H178 0.959 . S
C193 H179 0.961 . S
C193 C192 1.502 . S
C194 H180 0.960 . S
C194 H181 0.961 . S
C194 H182 0.959 . S
C194 C192 1.561 . S
C195 C192 1.526 . S
C195 C196 1.396 . S
C195 C200 1.390 . S
C196 C190 1.465 . S
C196 C195 1.396 . S
C196 C197 1.399 . S
C197 H183 0.929 . S
C197 C196 1.399 . S
C197 C198 1.385 . S
C198 H184 0.931 . S
C198 C197 1.385 . S
C198 C199 1.389 . S
C199 C198 1.389 . S
C199 C200 1.387 . S
C200 H185 0.930 . S
C200 C195 1.390 . S
C200 C199 1.387 . S
H201 C213 0.930 . S
H202 C215 0.930 . S
H203 C216 0.930 . S
H204 C220 0.959 . S
H205 C220 0.959 . S
H206 C220 0.961 . S
H207 C221 0.960 . S
H208 C221 0.961 . S
H209 C221 0.959 . S
H210 C224 0.929 . S
H211 C225 0.931 . S
H212 C227 0.930 . S
C213 H201 0.930 . S
C213 C214 1.399 . S
C213 C218 1.399 . S
C214 C213 1.399 . S
C214 C215 1.376 . S
C215 H202 0.930 . S
C215 C214 1.376 . S
C215 C216 1.388 . S
C216 H203 0.930 . S
C216 C215 1.388 . S
C216 C217 1.390 . S
C217 C216 1.390 . S
C217 C218 1.394 . S
C217 C223 1.465 1_556 S
C218 C213 1.399 . S
C218 C217 1.394 . S
C218 C219 1.516 1_556 S
C219 C218 1.516 1_554 S
C219 C220 1.502 1_554 S
C219 C221 1.561 . S
C219 C222 1.526 . S
C220 H204 0.959 . S
C220 H205 0.959 . S
C220 H206 0.961 . S
C220 C219 1.502 1_556 S
C221 H207 0.960 . S
C221 H208 0.961 . S
C221 H209 0.959 . S
C221 C219 1.561 . S
C222 C219 1.526 . S
C222 C223 1.396 . S
C222 C227 1.390 . S
C223 C217 1.465 1_554 S
C223 C222 1.396 . S
C223 C224 1.399 . S
C224 H210 0.929 . S
C224 C223 1.399 . S
C224 C225 1.385 . S
C225 H211 0.931 . S
C225 C224 1.385 . S
C225 C226 1.389 . S
C226 C225 1.389 . S
C226 C227 1.387 . S
C227 H212 0.930 . S
C227 C222 1.390 . S
C227 C226 1.387 . S
H228 C240 0.930 . S
H229 C242 0.930 . S
H230 C243 0.930 . S
H231 C247 0.959 . S
H232 C247 0.959 . S
H233 C247 0.961 . S
H234 C248 0.960 . S
H235 C248 0.961 . S
H236 C248 0.959 . S
H237 C251 0.929 . S
H238 C252 0.931 . S
H239 C254 0.930 . S
C240 H228 0.930 . S
C240 C241 1.399 . S
C240 C245 1.399 . S
C241 C240 1.399 . S
C241 C242 1.376 . S
C242 H229 0.930 . S
C242 C241 1.376 . S
C242 C243 1.388 . S
C243 H230 0.930 . S
C243 C242 1.388 . S
C243 C244 1.390 . S
C244 C243 1.390 . S
C244 C245 1.394 . S
C244 C250 1.465 . S
C245 C240 1.399 . S
C245 C244 1.394 . S
C245 C246 1.516 . S
C246 C245 1.516 . S
C246 C247 1.502 . S
C246 C248 1.561 . S
C246 C249 1.526 . S
C247 H231 0.959 . S
C247 H232 0.959 . S
C247 H233 0.961 . S
C247 C246 1.502 . S
C248 H234 0.960 . S
C248 H235 0.961 . S
C248 H236 0.959 . S
C248 C246 1.561 . S
C249 C246 1.526 . S
C249 C250 1.396 . S
C249 C254 1.390 . S
C250 C244 1.465 . S
C250 C249 1.396 . S
C250 C251 1.399 . S
C251 H237 0.929 . S
C251 C250 1.399 . S
C251 C252 1.385 . S
C252 H238 0.931 . S
C252 C251 1.385 . S
C252 C253 1.389 . S
C253 C252 1.389 . S
C253 C254 1.387 . S
C254 H239 0.930 . S
C254 C249 1.390 . S
C254 C253 1.387 . S
H255 C267 0.930 . S
H256 C269 0.930 . S
H257 C270 0.930 . S
H258 C274 0.959 . S
H259 C274 0.959 . S
H260 C274 0.961 . S
H261 C275 0.960 . S
H262 C275 0.961 . S
H263 C275 0.959 . S
H264 C278 0.929 . S
H265 C279 0.931 . S
H266 C281 0.930 . S
C267 H255 0.930 . S
C267 C268 1.399 . S
C267 C272 1.399 . S
C268 C267 1.399 . S
C268 C269 1.376 . S
C269 H256 0.930 . S
C269 C268 1.376 . S
C269 C270 1.388 . S
C270 H257 0.930 . S
C270 C269 1.388 . S
C270 C271 1.390 . S
C271 C270 1.390 . S
C271 C272 1.394 . S
C271 C277 1.465 . S
C272 C267 1.399 . S
C272 C271 1.394 . S
C272 C273 1.516 . S
C273 C272 1.516 . S
C273 C274 1.502 . S
C273 C275 1.561 . S
C273 C276 1.526 . S
C274 H258 0.959 . S
C274 H259 0.959 . S
C274 H260 0.961 . S
C274 C273 1.502 . S
C275 H261 0.960 . S
C275 H262 0.961 . S
C275 H263 0.959 . S
C275 C273 1.561 . S
C276 C273 1.526 . S
C276 C277 1.396 . S
C276 C281 1.390 . S
C277 C271 1.465 . S
C277 C276 1.396 . S
C277 C278 1.399 . S
C278 H264 0.929 . S
C278 C277 1.399 . S
C278 C279 1.385 . S
C279 H265 0.931 . S
C279 C278 1.385 . S
C279 C280 1.389 . S
C280 C279 1.389 . S
C280 C281 1.387 . S
C281 H266 0.930 . S
C281 C276 1.390 . S
C281 C280 1.387 . S
H282 C294 0.930 . S
H283 C296 0.930 . S
H284 C297 0.930 . S
H285 C301 0.959 . S
H286 C301 0.959 . S
H287 C301 0.961 . S
H288 C302 0.960 . S
H289 C302 0.961 . S
H290 C302 0.959 . S
H291 C305 0.929 . S
H292 C306 0.931 . S
H293 C308 0.930 . S
C294 H282 0.930 . S
C294 C295 1.399 . S
C294 C299 1.399 . S
C295 C294 1.399 . S
C295 C296 1.376 . S
C296 H283 0.930 . S
C296 C295 1.376 . S
C296 C297 1.388 . S
C297 H284 0.930 . S
C297 C296 1.388 . S
C297 C298 1.390 . S
C298 C297 1.390 . S
C298 C299 1.394 . S
C298 C304 1.465 . S
C299 C294 1.399 . S
C299 C298 1.394 . S
C299 C300 1.516 . S
C300 C299 1.516 . S
C300 C301 1.502 . S
C300 C302 1.561 1_455 S
C300 C303 1.526 . S
C301 H285 0.959 . S
C301 H286 0.959 . S
C301 H287 0.961 . S
C301 C300 1.502 . S
C302 H288 0.960 . S
C302 H289 0.961 . S
C302 H290 0.959 . S
C302 C300 1.561 1_655 S
C303 C300 1.526 . S
C303 C304 1.396 . S
C303 C308 1.390 . S
C304 C298 1.465 . S
C304 C303 1.396 . S
C304 C305 1.399 . S
C305 H291 0.929 . S
C305 C304 1.399 . S
C305 C306 1.385 . S
C306 H292 0.931 . S
C306 C305 1.385 . S
C306 C307 1.389 . S
C307 C306 1.389 . S
C307 C308 1.387 . S
C308 H293 0.930 . S
C308 C303 1.390 . S
C308 C307 1.387 . S
H309 C321 0.930 . S
H310 C323 0.930 . S
H311 C324 0.930 . S
H312 C328 0.959 . S
H313 C328 0.959 1_556 S
H314 C328 0.961 . S
H315 C329 0.960 . S
H316 C329 0.961 1_556 S
H317 C329 0.959 1_556 S
H318 C332 0.929 . S
H319 C333 0.931 . S
H320 C335 0.930 . S
C321 H309 0.930 . S
C321 C322 1.399 1_565 S
C321 C326 1.399 . S
C322 C321 1.399 1_545 S
C322 C323 1.376 . S
C323 H310 0.930 . S
C323 C322 1.376 . S
C323 C324 1.388 . S
C324 H311 0.930 . S
C324 C323 1.388 . S
C324 C325 1.390 . S
C325 C324 1.390 . S
C325 C326 1.395 1_545 S
C325 C331 1.465 1_554 S
C326 C321 1.399 . S
C326 C325 1.395 1_565 S
C326 C327 1.515 . S
C327 C326 1.515 . S
C327 C328 1.502 . S
C327 C329 1.561 . S
C327 C330 1.526 1_554 S
C328 H312 0.959 . S
C328 H313 0.959 1_554 S
C328 H314 0.961 . S
C328 C327 1.502 . S
C329 H315 0.960 . S
C329 H316 0.961 1_554 S
C329 H317 0.959 1_554 S
C329 C327 1.561 . S
C330 C327 1.526 1_556 S
C330 C331 1.396 1_565 S
C330 C335 1.390 . S
C331 C325 1.465 1_556 S
C331 C330 1.396 1_545 S
C331 C332 1.399 . S
C332 H318 0.929 . S
C332 C331 1.399 . S
C332 C333 1.385 . S
C333 H319 0.931 . S
C333 C332 1.385 . S
C333 C334 1.389 . S
C334 C333 1.389 . S
C334 C335 1.387 1_545 S
C335 H320 0.930 . S
C335 C330 1.390 . S
C335 C334 1.387 1_565 S
H336 C348 0.930 . S
H337 C350 0.930 . S
H338 C351 0.930 . S
H339 C355 0.959 . S
H340 C355 0.959 . S
H341 C355 0.961 . S
H342 C356 0.960 . S
H343 C356 0.961 . S
H344 C356 0.959 . S
H345 C359 0.929 . S
H346 C360 0.931 . S
H347 C362 0.930 . S
C348 H336 0.930 . S
C348 C349 1.399 . S
C348 C353 1.399 . S
C349 C348 1.399 . S
C349 C350 1.376 . S
C350 H337 0.930 . S
C350 C349 1.376 . S
C350 C351 1.388 . S
C351 H338 0.930 . S
C351 C350 1.388 . S
C351 C352 1.390 . S
C352 C351 1.390 . S
C352 C353 1.394 . S
C352 C358 1.465 . S
C353 C348 1.399 . S
C353 C352 1.394 . S
C353 C354 1.516 . S
C354 C353 1.516 . S
C354 C355 1.502 . S
C354 C356 1.561 . S
C354 C357 1.526 . S
C355 H339 0.959 . S
C355 H340 0.959 . S
C355 H341 0.961 . S
C355 C354 1.502 . S
C356 H342 0.960 . S
C356 H343 0.961 . S
C356 H344 0.959 . S
C356 C354 1.561 . S
C357 C354 1.526 . S
C357 C358 1.396 . S
C357 C362 1.390 . S
C358 C352 1.465 . S
C358 C357 1.396 . S
C358 C359 1.399 . S
C359 H345 0.929 . S
C359 C358 1.399 . S
C359 C360 1.385 . S
C360 H346 0.931 . S
C360 C359 1.385 . S
C360 C361 1.389 . S
C361 C360 1.389 . S
C361 C362 1.387 . S
C362 H347 0.930 . S
C362 C357 1.390 . S
C362 C361 1.387 . S
C133 C24 2.947 . S
C145 C104 2.943 . S
C160 C66 1.483 . S
C172 C26 1.529 . S
C187 C64 2.465 . S
C199 C97 2.388 . S
C214 C93 2.496 . S
C226 C13 2.505 . S
C241 C57 1.424 . S
C253 C17 1.448 . S
C268 C106 1.966 . S
C280 C53 1.882 . S
C295 C2 0.594 . S
C307 C23 0.485 . S
C322 C63 0.604 . S
C334 C42 0.496 . S
C349 C103 0.490 . S
C361 C82 0.676 . S
