# Generated by pormake.
# Topology umx, (4)-cn, num edge types: 1
# Building blocks:
#     Node 0, Type 0, BuildingBlock: NAWXER_clean_sbu_0, # of connection points: 4
#     Node 1, Type 0, BuildingBlock: NAWXER_clean_sbu_0, # of connection points: 4
#     Node 2, Type 0, BuildingBlock: NAWXER_clean_sbu_0, # of connection points: 4
#     Node 3, Type 0, BuildingBlock: NAWXER_clean_sbu_0, # of connection points: 4
#     Node 4, Type 0, BuildingBlock: NAWXER_clean_sbu_0, # of connection points: 4
#     Node 5, Type 0, BuildingBlock: NAWXER_clean_sbu_0, # of connection points: 4
#     Node 6, Type 0, BuildingBlock: NAWXER_clean_sbu_0, # of connection points: 4
#     Node 7, Type 0, BuildingBlock: NAWXER_clean_sbu_0, # of connection points: 4
#     Edge 8, Type (0, 0), BuildingBlock: FUNLAD_clean_linker_1, # of connection points: 2
#     Edge 9, Type (0, 0), BuildingBlock: FUNLAD_clean_linker_1, # of connection points: 2
#     Edge 10, Type (0, 0), BuildingBlock: FUNLAD_clean_linker_1, # of connection points: 2
#     Edge 11, Type (0, 0), BuildingBlock: FUNLAD_clean_linker_1, # of connection points: 2
#     Edge 12, Type (0, 0), BuildingBlock: FUNLAD_clean_linker_1, # of connection points: 2
#     Edge 13, Type (0, 0), BuildingBlock: FUNLAD_clean_linker_1, # of connection points: 2
#     Edge 14, Type (0, 0), BuildingBlock: FUNLAD_clean_linker_1, # of connection points: 2
#     Edge 15, Type (0, 0), BuildingBlock: FUNLAD_clean_linker_1, # of connection points: 2
#     Edge 16, Type (0, 0), BuildingBlock: FUNLAD_clean_linker_1, # of connection points: 2
#     Edge 17, Type (0, 0), BuildingBlock: FUNLAD_clean_linker_1, # of connection points: 2
#     Edge 18, Type (0, 0), BuildingBlock: FUNLAD_clean_linker_1, # of connection points: 2
#     Edge 19, Type (0, 0), BuildingBlock: FUNLAD_clean_linker_1, # of connection points: 2
#     Edge 20, Type (0, 0), BuildingBlock: FUNLAD_clean_linker_1, # of connection points: 2
#     Edge 21, Type (0, 0), BuildingBlock: FUNLAD_clean_linker_1, # of connection points: 2
#     Edge 22, Type (0, 0), BuildingBlock: FUNLAD_clean_linker_1, # of connection points: 2
#     Edge 23, Type (0, 0), BuildingBlock: FUNLAD_clean_linker_1, # of connection points: 2
# Relax obj value: 0.027
# Max RMSD: 0.221
# Mean RMSD: 0.220
data_MOF--net-umx--node1-NAWXER_clean_sbu_0--edge1-FUNLAD_clean_linker_1
_symmetry_space_group_name_H-M    P1
_symmetry_Int_Tables_number       1
_symmetry_cell_setting            triclinic
loop_
_symmetry_equiv_pos_as_xyz
'x, y, z'
_cell_length_a     40.142662
_cell_length_b     39.958198
_cell_length_c     30.230835
_cell_angle_alpha  95.566954
_cell_angle_beta   95.680539
_cell_angle_gamma 89.804736
loop_
_atom_site_label
_atom_site_type_symbol
_atom_site_fract_x
_atom_site_fract_y
_atom_site_fract_z
_atom_type_partial_charge
C0 C 0.22979 0.40927 0.02103 0.0
C1 C 0.12049 0.45929 0.02349 0.0
O2 O 0.20111 0.39612 0.02013 0.0
Zn3 Zn 0.17538 0.43616 0.02165 0.0
O4 O 0.23266 0.44136 0.02232 0.0
Zn5 Zn 0.19765 0.48302 0.02309 0.0
O6 O 0.21182 0.50972 0.07785 0.0
O7 O 0.188 0.4618 0.08824 0.0
O8 O 0.14291 0.48235 0.02411 0.0
O9 O 0.12889 0.42864 0.02164 0.0
O10 O 0.17771 0.45427 0.95652 0.0
O11 O 0.20397 0.50314 0.96915 0.0
C12 C 0.20169 0.49003 0.10418 0.0
C13 C 0.18959 0.48035 0.94181 0.0
C14 C 0.50836 0.20174 0.45627 0.0
C15 C 0.50882 0.20644 0.61628 0.0
O16 O 0.48468 0.20925 0.48014 0.0
Zn17 Zn 0.5092 0.20371 0.53627 0.0
O18 O 0.53702 0.19341 0.47455 0.0
Zn19 Zn 0.55914 0.18797 0.5415 0.0
O20 O 0.57078 0.14132 0.53918 0.0
O21 O 0.51621 0.14976 0.5337 0.0
O22 O 0.53728 0.19679 0.60388 0.0
O23 O 0.48535 0.21343 0.58752 0.0
O24 O 0.54611 0.24392 0.54255 0.0
O25 O 0.5955 0.21942 0.54843 0.0
C26 C 0.54121 0.12962 0.5352 0.0
C27 C 0.57818 0.24599 0.54689 0.0
C28 C 0.88038 0.55062 0.04351 0.0
C29 C 0.76637 0.58961 0.04379 0.0
O30 O 0.86011 0.52564 0.04292 0.0
Zn31 Zn 0.80577 0.5196 0.04311 0.0
O32 O 0.86923 0.58037 0.0448 0.0
Zn33 Zn 0.82346 0.56849 0.04429 0.0
O34 O 0.82289 0.55013 0.10952 0.0
O35 O 0.8013 0.49901 0.09719 0.0
O36 O 0.79362 0.60568 0.04496 0.0
O37 O 0.7669 0.55744 0.04276 0.0
O38 O 0.79439 0.4917 0.98848 0.0
O39 O 0.81344 0.54176 0.97791 0.0
C40 C 0.81348 0.52306 0.12439 0.0
C41 C 0.80259 0.51235 0.9621 0.0
C42 C 0.49473 0.80655 0.45333 0.0
C43 C 0.4836 0.81463 0.61272 0.0
O44 O 0.46516 0.81559 0.46196 0.0
Zn45 Zn 0.43867 0.82457 0.52072 0.0
O46 O 0.51637 0.80033 0.48491 0.0
Zn47 Zn 0.48881 0.81015 0.53299 0.0
O48 O 0.45294 0.7691 0.52406 0.0
O49 O 0.40324 0.7919 0.51092 0.0
O50 O 0.50923 0.80662 0.59264 0.0
O51 O 0.45619 0.82185 0.59022 0.0
O52 O 0.426 0.87083 0.51957 0.0
O53 O 0.48058 0.86379 0.53241 0.0
C54 C 0.42107 0.766 0.516 0.0
C55 C 0.45529 0.88326 0.52687 0.0
C56 C 0.1971 0.51997 0.44937 0.0
C57 C 0.20287 0.52683 0.61101 0.0
O58 O 0.18473 0.54796 0.46475 0.0
Zn59 Zn 0.17721 0.57166 0.5314 0.0
O60 O 0.20858 0.49931 0.47615 0.0
Zn61 Zn 0.2002 0.52539 0.5302 0.0
O62 O 0.14521 0.52466 0.52766 0.0
O63 O 0.13034 0.57796 0.52752 0.0
O64 O 0.21487 0.50525 0.58357 0.0
O65 O 0.1879 0.55277 0.59679 0.0
O66 O 0.20187 0.61257 0.53619 0.0
O67 O 0.23431 0.56799 0.53238 0.0
C68 C 0.1223 0.5473 0.52667 0.0
C69 C 0.23076 0.60005 0.53485 0.0
C70 C 0.4374 0.25673 0.0323 0.0
C71 C 0.48933 0.14655 0.0321 0.0
O72 O 0.46942 0.25912 0.03674 0.0
Zn73 Zn 0.51104 0.22478 0.03982 0.0
O74 O 0.42357 0.22793 0.02832 0.0
Zn75 Zn 0.46357 0.20147 0.03157 0.0
O76 O 0.48486 0.21251 0.09951 0.0
O77 O 0.53385 0.23717 0.09775 0.0
O78 O 0.45833 0.15347 0.02793 0.0
O79 O 0.51117 0.17031 0.03638 0.0
O80 O 0.5341 0.23353 0.98975 0.0
O81 O 0.48498 0.20868 0.97064 0.0
C82 C 0.51183 0.22594 0.11987 0.0
C83 C 0.51208 0.22115 0.95973 0.0
C84 C 0.81008 0.4849 0.61768 0.0
C85 C 0.80337 0.47818 0.45606 0.0
O86 O 0.79929 0.50602 0.59114 0.0
Zn87 Zn 0.80659 0.47971 0.53687 0.0
O88 O 0.82139 0.45649 0.60201 0.0
Zn89 Zn 0.82784 0.43252 0.53516 0.0
O90 O 0.87449 0.42456 0.53841 0.0
O91 O 0.86149 0.47837 0.53878 0.0
O92 O 0.81748 0.45174 0.47003 0.0
O93 O 0.79236 0.50029 0.4837 0.0
O94 O 0.77098 0.43852 0.53504 0.0
O95 O 0.8015 0.3926 0.5304 0.0
C96 C 0.88358 0.45493 0.53936 0.0
C97 C 0.77319 0.40633 0.53228 0.0
C98 C 0.60198 0.79026 0.05252 0.0
C99 C 0.53565 0.89214 0.05129 0.0
O100 O 0.61151 0.8206 0.06144 0.0
Zn101 Zn 0.56842 0.84102 0.05297 0.0
O102 O 0.57077 0.78346 0.04227 0.0
Zn103 Zn 0.52485 0.81186 0.03484 0.0
O104 O 0.50879 0.8 0.97316 0.0
O105 O 0.55515 0.83055 0.98203 0.0
O106 O 0.51726 0.86574 0.04165 0.0
O107 O 0.56702 0.88922 0.06049 0.0
O108 O 0.5434 0.82672 0.10828 0.0
O109 O 0.49914 0.79655 0.07949 0.0
C110 C 0.53178 0.8148 0.95637 0.0
C111 C 0.51721 0.80975 0.11346 0.0
H112 H 0.21602 0.52502 0.16402 0.0
C113 C 0.20437 0.50079 0.15257 0.0
H114 H 0.17855 0.45919 0.17097 0.0
H115 H 0.25223 0.53348 0.36429 0.0
H116 H 0.30505 0.52003 0.33439 0.0
H117 H 0.30641 0.49387 0.25725 0.0
H118 H 0.25503 0.4818 0.20923 0.0
C119 C 0.19159 0.48273 0.18225 0.0
C120 C 0.1912 0.49612 0.23008 0.0
C121 C 0.22149 0.50148 0.25839 0.0
C122 C 0.22066 0.51483 0.30369 0.0
C123 C 0.25134 0.52193 0.33032 0.0
C124 C 0.28186 0.51456 0.31347 0.0
C125 C 0.28263 0.49997 0.26999 0.0
C126 C 0.2529 0.49339 0.24265 0.0
H127 H 0.20837 0.48665 0.39046 0.0
C128 C 0.19841 0.51117 0.401 0.0
H129 H 0.17737 0.55608 0.37954 0.0
H130 H 0.12862 0.49068 0.18458 0.0
H131 H 0.0759 0.50323 0.21515 0.0
H132 H 0.07437 0.5231 0.29471 0.0
H133 H 0.12567 0.53136 0.34408 0.0
C134 C 0.18828 0.53186 0.36991 0.0
C135 C 0.18951 0.52103 0.3214 0.0
C136 C 0.15928 0.51587 0.29307 0.0
C137 C 0.16013 0.50361 0.24736 0.0
C138 C 0.12951 0.49936 0.21971 0.0
C139 C 0.09901 0.50648 0.2368 0.0
C140 C 0.09816 0.51778 0.28157 0.0
C141 C 0.12783 0.52244 0.30954 0.0
H142 H 0.47881 0.21841 0.67284 0.0
C143 C 0.503 0.20933 0.66367 0.0
H144 H 0.55024 0.1906 0.68684 0.0
H145 H 0.49236 0.27126 0.86704 0.0
H146 H 0.50099 0.32205 0.83175 0.0
H147 H 0.51943 0.31907 0.756 0.0
H148 H 0.52867 0.26524 0.71483 0.0
C149 C 0.52637 0.2009 0.69544 0.0
C150 C 0.51918 0.20298 0.74277 0.0
C151 C 0.51539 0.23473 0.76701 0.0
C152 C 0.50638 0.23648 0.81142 0.0
C153 C 0.50067 0.26845 0.83394 0.0
C154 C 0.50528 0.29784 0.81393 0.0
C155 C 0.51554 0.29616 0.77124 0.0
C156 C 0.52056 0.26506 0.74788 0.0
H157 H 0.54163 0.231 0.90466 0.0
C158 C 0.51809 0.22079 0.91254 0.0
H159 H 0.47242 0.1968 0.8868 0.0
H160 H 0.52437 0.1382 0.70513 0.0
H161 H 0.51747 0.08736 0.7412 0.0
H162 H 0.5044 0.0904 0.81956 0.0
H163 H 0.49778 0.14425 0.8621 0.0
C164 C 0.4956 0.20807 0.87944 0.0
C165 C 0.50292 0.20649 0.83216 0.0
C166 C 0.50703 0.17476 0.80803 0.0
C167 C 0.51509 0.173 0.76317 0.0
C168 C 0.51859 0.141 0.7395 0.0
C169 C 0.51467 0.1116 0.75979 0.0
C170 C 0.50728 0.11331 0.80387 0.0
C171 C 0.50351 0.14442 0.8279 0.0
H172 H 0.77763 0.4973 0.39606 0.0
C173 C 0.79933 0.48328 0.40822 0.0
H174 H 0.84463 0.46037 0.39301 0.0
H175 H 0.81537 0.43476 0.18464 0.0
H176 H 0.827 0.37892 0.20651 0.0
H177 H 0.8339 0.36855 0.28597 0.0
H178 H 0.82985 0.41407 0.34404 0.0
C179 C 0.82265 0.47388 0.38057 0.0
C180 C 0.81871 0.48056 0.33242 0.0
C181 C 0.82015 0.45343 0.29871 0.0
C182 C 0.81497 0.45923 0.25276 0.0
C183 C 0.81805 0.43181 0.21999 0.0
C184 C 0.82488 0.39955 0.23206 0.0
C185 C 0.82884 0.39372 0.27678 0.0
C186 C 0.82652 0.4202 0.30983 0.0
H187 H 0.8363 0.53613 0.19331 0.0
C188 C 0.81817 0.51967 0.17282 0.0
H189 H 0.78267 0.48083 0.17115 0.0
H190 H 0.82345 0.53989 0.3869 0.0
H191 H 0.80742 0.59508 0.36571 0.0
H192 H 0.78766 0.60315 0.28758 0.0
H193 H 0.78549 0.55645 0.23002 0.0
C194 C 0.80071 0.49724 0.1919 0.0
C195 C 0.80696 0.49194 0.24038 0.0
C196 C 0.80486 0.51896 0.27419 0.0
C197 C 0.81281 0.51364 0.31993 0.0
C198 C 0.81485 0.54192 0.35224 0.0
C199 C 0.80611 0.57385 0.34045 0.0
C200 C 0.79524 0.57844 0.29644 0.0
C201 C 0.79452 0.55142 0.26358 0.0
H202 H 0.55279 0.82712 0.89531 0.0
C203 C 0.53182 0.815 0.90767 0.0
H204 H 0.48585 0.78916 0.89001 0.0
H205 H 0.51081 0.87052 0.71287 0.0
H206 H 0.50326 0.92148 0.7612 0.0
H207 H 0.4961 0.91902 0.84095 0.0
H208 H 0.49699 0.86567 0.87292 0.0
C209 C 0.50668 0.80205 0.8785 0.0
C210 C 0.5075 0.80352 0.82958 0.0
C211 C 0.50542 0.83487 0.81104 0.0
C212 C 0.50797 0.83616 0.76464 0.0
C213 C 0.50768 0.86794 0.7475 0.0
C214 C 0.50357 0.89743 0.77494 0.0
C215 C 0.49966 0.89606 0.81986 0.0
C216 C 0.50049 0.86524 0.83786 0.0
H217 H 0.4619 0.82264 0.67703 0.0
C218 C 0.48454 0.81535 0.66166 0.0
H219 H 0.53428 0.79829 0.67261 0.0
H220 H 0.51206 0.7394 0.8543 0.0
H221 H 0.51754 0.68827 0.8054 0.0
H222 H 0.51976 0.69032 0.72445 0.0
H223 H 0.51675 0.74353 0.69193 0.0
C224 C 0.51182 0.80686 0.68749 0.0
C225 C 0.51101 0.80598 0.7365 0.0
C226 C 0.51263 0.77464 0.75493 0.0
C227 C 0.5109 0.77342 0.80152 0.0
C228 C 0.51292 0.74179 0.81908 0.0
C229 C 0.5161 0.71222 0.7914 0.0
C230 C 0.51738 0.71338 0.74583 0.0
C231 C 0.51567 0.74412 0.72762 0.0
H232 H 0.79811 0.51766 0.67672 0.0
C233 C 0.80872 0.49348 0.66606 0.0
H234 H 0.83117 0.44911 0.68745 0.0
H235 H 0.8754 0.5195 0.88234 0.0
H236 H 0.92903 0.51234 0.85229 0.0
H237 H 0.93229 0.49247 0.77303 0.0
H238 H 0.88186 0.47905 0.72339 0.0
C239 C 0.81949 0.47293 0.69703 0.0
C240 C 0.81742 0.48337 0.74542 0.0
C241 C 0.84708 0.49135 0.77394 0.0
C242 C 0.84515 0.50344 0.8195 0.0
C243 C 0.87528 0.51073 0.84731 0.0
C244 C 0.90629 0.5067 0.83053 0.0
C245 C 0.90812 0.49544 0.78592 0.0
C246 C 0.87897 0.48782 0.75779 0.0
H247 H 0.7918 0.47625 0.90242 0.0
C248 C 0.80101 0.50149 0.91381 0.0
H249 H 0.82256 0.54554 0.89539 0.0
H250 H 0.75608 0.46569 0.70169 0.0
H251 H 0.70223 0.4738 0.73099 0.0
H252 H 0.69852 0.49905 0.80811 0.0
H253 H 0.74861 0.51563 0.85665 0.0
C254 C 0.81191 0.52084 0.88416 0.0
C255 C 0.81351 0.50775 0.83645 0.0
C256 C 0.78381 0.49957 0.80792 0.0
C257 C 0.78584 0.48658 0.76271 0.0
C258 C 0.75592 0.47691 0.7357 0.0
C259 C 0.72484 0.48124 0.75218 0.0
C260 C 0.72276 0.49533 0.79565 0.0
C261 C 0.75178 0.50451 0.82329 0.0
H262 H 0.48481 0.792 0.16146 0.0
C263 C 0.50764 0.80584 0.15856 0.0
H264 H 0.54825 0.83394 0.19324 0.0
H265 H 0.47752 0.87513 0.36699 0.0
H266 H 0.4788 0.92833 0.33491 0.0
H267 H 0.49646 0.93126 0.25951 0.0
H268 H 0.51291 0.88096 0.21568 0.0
C269 C 0.52596 0.81914 0.1957 0.0
C270 C 0.51489 0.81689 0.2409 0.0
C271 C 0.50513 0.84651 0.26597 0.0
C272 C 0.49452 0.84476 0.30921 0.0
C273 C 0.48536 0.87487 0.33373 0.0
C274 C 0.48608 0.90564 0.31579 0.0
C275 C 0.49603 0.90729 0.27334 0.0
C276 C 0.50546 0.87819 0.24857 0.0
H277 H 0.52977 0.79773 0.40158 0.0
C278 C 0.50418 0.80453 0.40723 0.0
H279 H 0.45734 0.82003 0.37819 0.0
H280 H 0.53534 0.7558 0.20389 0.0
H281 H 0.53189 0.70225 0.23463 0.0
H282 H 0.50955 0.69862 0.30717 0.0
H283 H 0.49117 0.74864 0.34979 0.0
C284 C 0.48262 0.812 0.37271 0.0
C285 C 0.49353 0.81335 0.32725 0.0
C286 C 0.50289 0.78363 0.30195 0.0
C287 C 0.51429 0.7855 0.25915 0.0
C288 C 0.52523 0.7557 0.23573 0.0
C289 C 0.52358 0.72479 0.25312 0.0
C290 C 0.51112 0.72276 0.29403 0.0
C291 C 0.50084 0.75174 0.31829 0.0
H292 H 0.16635 0.46868 0.87278 0.0
C293 C 0.18522 0.48415 0.89344 0.0
H294 H 0.22246 0.52138 0.89548 0.0
H295 H 0.181 0.46521 0.679 0.0
H296 H 0.19497 0.40934 0.69941 0.0
H297 H 0.21356 0.40006 0.7775 0.0
H298 H 0.21671 0.4463 0.83576 0.0
C299 C 0.20375 0.50585 0.8746 0.0
C300 C 0.19782 0.51165 0.82625 0.0
C301 C 0.19917 0.48476 0.79207 0.0
C302 C 0.19176 0.49066 0.74642 0.0
C303 C 0.18916 0.46267 0.71367 0.0
C304 C 0.19671 0.43035 0.725 0.0
C305 C 0.20694 0.42509 0.76899 0.0
C306 C 0.20824 0.45187 0.80224 0.0
H307 H 0.22807 0.5072 0.67102 0.0
C308 C 0.20661 0.52156 0.65884 0.0
H309 H 0.16158 0.54506 0.67413 0.0
H310 H 0.1912 0.56878 0.88277 0.0
H311 H 0.18144 0.62515 0.86176 0.0
H312 H 0.17509 0.63624 0.78255 0.0
H313 H 0.17786 0.59091 0.72385 0.0
C314 C 0.1833 0.53113 0.68645 0.0
C315 C 0.18693 0.52402 0.73446 0.0
C316 C 0.18617 0.55097 0.76855 0.0
C317 C 0.19098 0.54471 0.81436 0.0
C318 C 0.18871 0.57204 0.8475 0.0
C319 C 0.18297 0.60461 0.83593 0.0
C320 C 0.17932 0.61084 0.79134 0.0
C321 C 0.18089 0.58448 0.75794 0.0
H322 H 0.47836 0.21135 0.39385 0.0
C323 C 0.50297 0.20397 0.40792 0.0
H324 H 0.55226 0.19043 0.3944 0.0
H325 H 0.50555 0.1489 0.18926 0.0
H326 H 0.51681 0.09413 0.21547 0.0
H327 H 0.52983 0.08815 0.29578 0.0
H328 H 0.53223 0.13705 0.35035 0.0
C329 C 0.52767 0.19853 0.38132 0.0
C330 C 0.52156 0.20244 0.33297 0.0
C331 C 0.52011 0.17359 0.30171 0.0
C332 C 0.51207 0.17699 0.25557 0.0
C333 C 0.51112 0.14778 0.22484 0.0
C334 C 0.51754 0.11615 0.23941 0.0
C335 C 0.52495 0.11279 0.28462 0.0
C336 C 0.52625 0.14108 0.31558 0.0
H337 H 0.54144 0.23778 0.18494 0.0
C338 C 0.51816 0.22667 0.16865 0.0
H339 H 0.47418 0.1999 0.17664 0.0
H340 H 0.52706 0.26323 0.38378 0.0
H341 H 0.51497 0.31801 0.35797 0.0
H342 H 0.49698 0.32357 0.27858 0.0
H343 H 0.49167 0.27448 0.22448 0.0
C344 C 0.49683 0.21236 0.19279 0.0
C345 C 0.50543 0.20925 0.241 0.0
C346 C 0.50714 0.23817 0.27228 0.0
C347 C 0.516 0.23482 0.31827 0.0
C348 C 0.51919 0.26421 0.34866 0.0
C349 C 0.51252 0.29583 0.33425 0.0
C350 C 0.50252 0.29897 0.28954 0.0
C351 C 0.49977 0.27058 0.25878 0.0
H352 H 0.9326 0.56761 0.04525 0.0
C353 C 0.91655 0.54545 0.04209 0.0
H354 H 0.9147 0.49235 0.03355 0.0
H355 H 0.0609 0.52984 0.96246 0.0
H356 H 0.02767 0.55316 0.90146 0.0
H357 H 0.96624 0.55669 0.90011 0.0
H358 H 0.93763 0.53684 0.9596 0.0
C359 C 0.93012 0.51487 0.03584 0.0
C360 C 0.9669 0.51107 0.03489 0.0
C361 C 0.9831 0.52225 0.99927 0.0
C362 C 0.01847 0.51969 0.99963 0.0
C363 C 0.03408 0.5311 0.96379 0.0
C364 C 0.01531 0.54451 0.92853 0.0
C365 C 0.98072 0.54651 0.92779 0.0
C366 C 0.96465 0.53533 0.96245 0.0
H367 H 0.06726 0.44668 0.02283 0.0
C368 C 0.08495 0.46752 0.02568 0.0
H369 H 0.0907 0.52042 0.03453 0.0
H370 H 0.94353 0.48715 0.10799 0.0
H371 H 0.9768 0.46382 0.16891 0.0
H372 H 0.03819 0.45997 0.16993 0.0
H373 H 0.06674 0.47973 0.11027 0.0
C374 C 0.07374 0.49906 0.03247 0.0
C375 C 0.03738 0.50517 0.03489 0.0
C376 C 0.02122 0.49439 0.07078 0.0
C377 C 0.98589 0.49699 0.07048 0.0
C378 C 0.97033 0.48574 0.10648 0.0
C379 C 0.98912 0.47237 0.14174 0.0
C380 C 0.02369 0.47021 0.14232 0.0
C381 C 0.03972 0.48131 0.10757 0.0
H382 H 0.43767 0.93559 0.52574 0.0
C383 C 0.45987 0.91998 0.52863 0.0
H384 H 0.51279 0.91922 0.5341 0.0
H385 H 0.5186 0.05905 0.4505 0.0
H386 H 0.52994 0.02062 0.38669 0.0
H387 H 0.52537 0.95927 0.38892 0.0
H388 H 0.5089 0.93599 0.45477 0.0
C389 C 0.49031 0.93446 0.53286 0.0
C390 C 0.49415 0.97143 0.53245 0.0
C391 C 0.50433 0.98457 0.49399 0.0
C392 C 0.50758 0.01992 0.49301 0.0
C393 C 0.51659 0.03241 0.45353 0.0
C394 C 0.52297 0.01062 0.41652 0.0
C395 C 0.52031 0.97608 0.41774 0.0
C396 C 0.51094 0.96306 0.45582 0.0
H397 H 0.55801 0.07691 0.53325 0.0
C398 C 0.53606 0.09295 0.53277 0.0
H399 H 0.48337 0.09462 0.53196 0.0
H400 H 0.47622 0.95432 0.61246 0.0
H401 H 0.46566 0.9927 0.67671 0.0
H402 H 0.47119 0.05403 0.67502 0.0
H403 H 0.48735 0.07735 0.60907 0.0
C404 C 0.5055 0.07896 0.53076 0.0
C405 C 0.5013 0.04199 0.53091 0.0
C406 C 0.4912 0.02883 0.56942 0.0
C407 C 0.48779 0.99348 0.57029 0.0
C408 C 0.47862 0.98097 0.60968 0.0
C409 C 0.47263 1.00272 0.6469 0.0
C410 C 0.47577 0.03725 0.64595 0.0
C411 C 0.485 0.05029 0.60782 0.0
H412 H 0.06873 0.55918 0.52165 0.0
C413 C 0.08655 0.53878 0.52499 0.0
H414 H 0.09232 0.48725 0.53432 0.0
H415 H 0.95288 0.49051 0.62013 0.0
H416 H 0.99209 0.48628 0.68575 0.0
H417 H 0.05301 0.48915 0.68101 0.0
H418 H 0.07508 0.49634 0.61062 0.0
C419 C 0.07511 0.50784 0.52888 0.0
C420 C 0.03862 0.50229 0.53035 0.0
C421 C 0.02619 0.49728 0.5715 0.0
C422 C 0.99109 0.4952 0.57411 0.0
C423 C 0.97931 0.49144 0.61601 0.0
C424 C 1.00155 0.48919 0.65402 0.0
C425 C 0.03584 0.49086 0.65136 0.0
C426 C 0.04817 0.49497 0.61073 0.0
H427 H 0.93677 0.44129 0.54362 0.0
C428 C 0.91959 0.46226 0.54068 0.0
H429 H 0.91532 0.51401 0.53202 0.0
H430 H 0.05429 0.50893 0.4455 0.0
H431 H 0.0151 0.51304 0.37982 0.0
H432 H 0.95418 0.51021 0.38454 0.0
H433 H 0.93208 0.50317 0.45496 0.0
C434 C 0.93192 0.49289 0.53704 0.0
C435 C 0.96852 0.49749 0.53533 0.0
C436 C 0.98096 0.50231 0.49412 0.0
C437 C 0.01606 0.50438 0.49152 0.0
C438 C 0.02785 0.50805 0.4496 0.0
C439 C 0.00563 0.51021 0.41156 0.0
C440 C 0.97134 0.50856 0.41421 0.0
C441 C 0.95899 0.50455 0.45487 0.0
H442 H 0.49292 0.92682 0.04471 0.0
C443 C 0.52006 0.92554 0.05015 0.0
H444 H 0.56544 0.95311 0.05697 0.0
H445 H 0.49511 0.07015 0.95376 0.0
H446 H 0.52007 0.03914 0.89248 0.0
H447 H 0.54631 0.98399 0.9017 0.0
H448 H 0.54767 0.9595 0.97226 0.0
C449 C 0.53826 0.95396 0.05346 0.0
C450 C 0.52199 0.98697 0.04806 0.0
C451 C 0.52198 1.00119 1.00689 0.0
C452 C 0.50724 0.03317 1.00176 0.0
C453 C 0.50668 0.04633 0.95984 0.0
C454 C 0.52074 0.02869 0.92428 0.0
C455 C 0.53549 0.99762 0.92946 0.0
C456 C 0.53614 0.98389 0.97017 0.0
H457 H 0.52763 0.10698 0.03389 0.0
C458 C 0.50086 0.11155 0.03295 0.0
H459 H 0.4532 0.08978 0.03527 0.0
H460 H 0.51768 0.96665 0.13123 0.0
H461 H 0.49188 0.99722 0.19216 0.0
H462 H 0.46628 0.0527 0.1833 0.0
H463 H 0.46647 0.07804 0.11356 0.0
C464 C 0.47988 0.08562 0.03413 0.0
C465 C 0.49306 0.05108 0.0381 0.0
C466 C 0.49232 0.03647 0.07891 0.0
C467 C 0.50693 1.00441 0.08396 0.0
C468 C 0.5066 0.99075 0.12543 0.0
C469 C 0.49196 0.00807 0.16072 0.0
C470 C 0.47756 0.03932 0.15574 0.0
C471 C 0.4778 0.05355 0.11548 0.0
H472 H 0.25408 0.35998 0.01653 0.0
C473 C 0.25898 0.38692 0.01998 0.0
H474 H 0.2967 0.42454 0.02842 0.0
H475 H 0.39462 0.31291 0.10951 0.0
H476 H 0.3887 0.35092 0.17575 0.0
H477 H 0.35093 0.39967 0.17275 0.0
H478 H 0.31871 0.41058 0.10336 0.0
C479 C 0.29078 0.39785 0.02331 0.0
C480 C 0.31843 0.37291 0.0229 0.0
C481 C 0.33799 0.36761 0.06322 0.0
C482 C 0.36015 0.33976 0.06475 0.0
C483 C 0.37802 0.33406 0.10609 0.0
C484 C 0.37472 0.35561 0.14448 0.0
C485 C 0.35342 0.38303 0.14281 0.0
C486 C 0.33508 0.389 0.1028 0.0
H487 H 0.43 0.31172 0.03547 0.0
C488 C 0.4171 0.28758 0.03195 0.0
H489 H 0.37027 0.26267 0.02247 0.0
H490 H 0.28883 0.37953 0.93881 0.0
H491 H 0.29597 0.34268 0.8717 0.0
H492 H 0.33403 0.29413 0.87425 0.0
H493 H 0.36527 0.2822 0.94383 0.0
C494 C 0.38349 0.28663 0.0275 0.0
C495 C 0.36313 0.31773 0.02559 0.0
C496 C 0.34504 0.32429 0.98469 0.0
C497 C 0.32287 0.35205 0.98327 0.0
C498 C 0.30545 0.35832 0.94186 0.0
C499 C 0.30948 0.3375 0.90307 0.0
C500 C 0.33093 0.31019 0.9045 0.0
C501 C 0.34862 0.30356 0.9447 0.0
H502 H 0.74725 0.35765 0.52661 0.0
C503 C 0.74363 0.38467 0.53229 0.0
H504 H 0.70907 0.42301 0.54876 0.0
H505 H 0.61376 0.29138 0.46773 0.0
H506 H 0.61808 0.31475 0.39741 0.0
H507 H 0.65326 0.36479 0.39393 0.0
H508 H 0.68445 0.3917 0.461 0.0
C509 C 0.71342 0.3963 0.54134 0.0
C510 C 0.68627 0.37183 0.545 0.0
C511 C 0.66745 0.35706 0.50595 0.0
C512 C 0.64679 0.32855 0.50817 0.0
C513 C 0.62939 0.31341 0.46822 0.0
C514 C 0.63173 0.32653 0.42757 0.0
C515 C 0.65157 0.35467 0.42559 0.0
C516 C 0.66939 0.3698 0.46421 0.0
H517 H 0.57894 0.30118 0.54469 0.0
C518 C 0.59456 0.27912 0.54809 0.0
H519 H 0.64396 0.26065 0.55566 0.0
H520 H 0.71522 0.39761 0.62672 0.0
H521 H 0.70911 0.37601 0.69797 0.0
H522 H 0.67326 0.32655 0.70207 0.0
H523 H 0.64327 0.2984 0.63499 0.0
C524 C 0.62802 0.28235 0.55129 0.0
C525 C 0.64479 0.31523 0.54968 0.0
C526 C 0.66171 0.3316 0.58921 0.0
C527 C 0.68234 0.36008 0.58688 0.0
C528 C 0.69937 0.37575 0.62673 0.0
C529 C 0.696 0.36367 0.66778 0.0
C530 C 0.67581 0.33582 0.67009 0.0
C531 C 0.65882 0.31985 0.63137 0.0
H532 H 0.71109 0.59341 0.04066 0.0
C533 C 0.73426 0.60779 0.0435 0.0
H534 H 0.75637 0.65604 0.0482 0.0
H535 H 0.63528 0.73464 0.96489 0.0
H536 H 0.66901 0.72782 0.90232 0.0
H537 H 0.71781 0.69008 0.9037 0.0
H538 H 0.73309 0.65886 0.96756 0.0
C539 C 0.73332 0.64158 0.04662 0.0
C540 C 0.70147 0.66074 0.04396 0.0
C541 C 0.69287 0.67877 1.00636 0.0
C542 C 0.66489 0.70067 1.00565 0.0
C543 C 0.65665 0.71811 0.96747 0.0
C544 C 0.67569 0.7143 0.93123 0.0
C545 C 0.70315 0.69304 0.932 0.0
C546 C 0.71173 0.67538 0.96897 0.0
H547 H 0.65343 0.77071 0.05856 0.0
C548 C 0.62719 0.76336 0.05254 0.0
H549 H 0.59307 0.72245 0.03931 0.0
H550 H 0.71068 0.62961 0.12125 0.0
H551 H 0.6757 0.63514 0.18244 0.0
H552 H 0.62635 0.67214 0.18017 0.0
H553 H 0.61185 0.70407 0.11667 0.0
C554 C 0.61907 0.7306 0.04436 0.0
C555 C 0.64575 0.70472 0.04273 0.0
C556 C 0.65319 0.68536 0.07926 0.0
C557 C 0.68133 0.66357 0.08017 0.0
C558 C 0.68919 0.6459 0.11821 0.0
C559 C 0.66939 0.64897 0.15372 0.0
C560 C 0.64163 0.66984 0.15247 0.0
C561 C 0.63358 0.688 0.11585 0.0
H562 H 0.42149 0.71107 0.52049 0.0
C563 C 0.4054 0.73257 0.51534 0.0
H564 H 0.35557 0.74992 0.50762 0.0
H565 H 0.30495 0.59813 0.44762 0.0
H566 H 0.32397 0.60785 0.3761 0.0
H567 H 0.35817 0.65781 0.36851 0.0
H568 H 0.37351 0.69843 0.43242 0.0
C569 C 0.37203 0.72855 0.51157 0.0
C570 C 0.35628 0.69587 0.51724 0.0
C571 C 0.34814 0.67212 0.47984 0.0
C572 C 0.32848 0.64328 0.48427 0.0
C573 C 0.31989 0.6204 0.44612 0.0
C574 C 0.33066 0.62568 0.4049 0.0
C575 C 0.34992 0.65381 0.40063 0.0
C576 C 0.35854 0.67692 0.43752 0.0
H577 H 0.25437 0.64985 0.54038 0.0
C578 C 0.25939 0.62304 0.53548 0.0
H579 H 0.29599 0.58635 0.52145 0.0
H580 H 0.37094 0.73457 0.59655 0.0
H581 H 0.3547 0.72313 0.6689 0.0
H582 H 0.32195 0.67228 0.6769 0.0
H583 H 0.30502 0.6327 0.61244 0.0
C584 C 0.2905 0.61286 0.52852 0.0
C585 C 0.31692 0.6385 0.52602 0.0
C586 C 0.32758 0.66074 0.5642 0.0
C587 C 0.34696 0.68968 0.55971 0.0
C588 C 0.35631 0.7121 0.59812 0.0
C589 C 0.34721 0.7058 0.63985 0.0
C590 C 0.32874 0.6772 0.64435 0.0
C591 C 0.319 0.65482 0.60709 0.0
loop_
_geom_bond_atom_site_label_1
_geom_bond_atom_site_label_2
_geom_bond_distance
_geom_bond_site_symmetry_2
_ccdc_geom_bond_type
C0 O2 1.247 . S
C0 O4 1.258 . S
C1 O8 1.247 . S
C1 O9 1.258 . S
O2 C0 1.247 . S
O2 Zn3 2.028 . S
Zn3 O2 2.028 . S
Zn3 O7 2.035 . S
Zn3 O9 2.035 . S
Zn3 O10 2.028 1_554 S
O4 C0 1.258 . S
O4 Zn5 2.035 . S
Zn5 O4 2.035 . S
Zn5 O6 2.028 . S
Zn5 O8 2.028 . S
Zn5 O11 2.035 1_554 S
O6 Zn5 2.028 . S
O6 C12 1.247 . S
O7 Zn3 2.035 . S
O7 C12 1.258 . S
O8 C1 1.247 . S
O8 Zn5 2.028 . S
O9 C1 1.258 . S
O9 Zn3 2.035 . S
O10 Zn3 2.028 1_556 S
O10 C13 1.247 . S
O11 Zn5 2.035 1_556 S
O11 C13 1.258 . S
C12 O6 1.247 . S
C12 O7 1.258 . S
C13 O10 1.247 . S
C13 O11 1.258 . S
C14 O16 1.247 . S
C14 O18 1.258 . S
C15 O22 1.247 . S
C15 O23 1.258 . S
O16 C14 1.247 . S
O16 Zn17 2.028 . S
Zn17 O16 2.028 . S
Zn17 O21 2.035 . S
Zn17 O23 2.035 . S
Zn17 O24 2.028 . S
O18 C14 1.258 . S
O18 Zn19 2.035 . S
Zn19 O18 2.035 . S
Zn19 O20 2.028 . S
Zn19 O22 2.028 . S
Zn19 O25 2.035 . S
O20 Zn19 2.028 . S
O20 C26 1.247 . S
O21 Zn17 2.035 . S
O21 C26 1.258 . S
O22 C15 1.247 . S
O22 Zn19 2.028 . S
O23 C15 1.258 . S
O23 Zn17 2.035 . S
O24 Zn17 2.028 . S
O24 C27 1.247 . S
O25 Zn19 2.035 . S
O25 C27 1.258 . S
C26 O20 1.247 . S
C26 O21 1.258 . S
C27 O24 1.247 . S
C27 O25 1.258 . S
C28 O30 1.247 . S
C28 O32 1.258 . S
C29 O36 1.247 . S
C29 O37 1.258 . S
O30 C28 1.247 . S
O30 Zn31 2.028 . S
Zn31 O30 2.028 . S
Zn31 O35 2.035 . S
Zn31 O37 2.035 . S
Zn31 O38 2.028 1_554 S
O32 C28 1.258 . S
O32 Zn33 2.035 . S
Zn33 O32 2.035 . S
Zn33 O34 2.028 . S
Zn33 O36 2.028 . S
Zn33 O39 2.035 1_554 S
O34 Zn33 2.028 . S
O34 C40 1.247 . S
O35 Zn31 2.035 . S
O35 C40 1.258 . S
O36 C29 1.247 . S
O36 Zn33 2.028 . S
O37 C29 1.258 . S
O37 Zn31 2.035 . S
O38 Zn31 2.028 1_556 S
O38 C41 1.247 . S
O39 Zn33 2.035 1_556 S
O39 C41 1.258 . S
C40 O34 1.247 . S
C40 O35 1.258 . S
C41 O38 1.247 . S
C41 O39 1.258 . S
C42 O44 1.247 . S
C42 O46 1.258 . S
C43 O50 1.247 . S
C43 O51 1.258 . S
O44 C42 1.247 . S
O44 Zn45 2.028 . S
Zn45 O44 2.028 . S
Zn45 O49 2.035 . S
Zn45 O51 2.035 . S
Zn45 O52 2.028 . S
O46 C42 1.258 . S
O46 Zn47 2.035 . S
Zn47 O46 2.035 . S
Zn47 O48 2.028 . S
Zn47 O50 2.028 . S
Zn47 O53 2.035 . S
O48 Zn47 2.028 . S
O48 C54 1.247 . S
O49 Zn45 2.035 . S
O49 C54 1.258 . S
O50 C43 1.247 . S
O50 Zn47 2.028 . S
O51 C43 1.258 . S
O51 Zn45 2.035 . S
O52 Zn45 2.028 . S
O52 C55 1.247 . S
O53 Zn47 2.035 . S
O53 C55 1.258 . S
C54 O48 1.247 . S
C54 O49 1.258 . S
C55 O52 1.247 . S
C55 O53 1.258 . S
C56 O58 1.247 . S
C56 O60 1.258 . S
C57 O64 1.247 . S
C57 O65 1.258 . S
O58 C56 1.247 . S
O58 Zn59 2.028 . S
Zn59 O58 2.028 . S
Zn59 O63 2.035 . S
Zn59 O65 2.035 . S
Zn59 O66 2.028 . S
O60 C56 1.258 . S
O60 Zn61 2.035 . S
Zn61 O60 2.035 . S
Zn61 O62 2.028 . S
Zn61 O64 2.028 . S
Zn61 O67 2.035 . S
O62 Zn61 2.028 . S
O62 C68 1.247 . S
O63 Zn59 2.035 . S
O63 C68 1.258 . S
O64 C57 1.247 . S
O64 Zn61 2.028 . S
O65 C57 1.258 . S
O65 Zn59 2.035 . S
O66 Zn59 2.028 . S
O66 C69 1.247 . S
O67 Zn61 2.035 . S
O67 C69 1.258 . S
C68 O62 1.247 . S
C68 O63 1.258 . S
C69 O66 1.247 . S
C69 O67 1.258 . S
C70 O72 1.247 . S
C70 O74 1.258 . S
C71 O78 1.247 . S
C71 O79 1.258 . S
O72 C70 1.247 . S
O72 Zn73 2.028 . S
Zn73 O72 2.028 . S
Zn73 O77 2.035 . S
Zn73 O79 2.035 . S
Zn73 O80 2.028 1_554 S
O74 C70 1.258 . S
O74 Zn75 2.035 . S
Zn75 O74 2.035 . S
Zn75 O76 2.028 . S
Zn75 O78 2.028 . S
Zn75 O81 2.035 1_554 S
O76 Zn75 2.028 . S
O76 C82 1.247 . S
O77 Zn73 2.035 . S
O77 C82 1.258 . S
O78 C71 1.247 . S
O78 Zn75 2.028 . S
O79 C71 1.258 . S
O79 Zn73 2.035 . S
O80 Zn73 2.028 1_556 S
O80 C83 1.247 . S
O81 Zn75 2.035 1_556 S
O81 C83 1.258 . S
C82 O76 1.247 . S
C82 O77 1.258 . S
C83 O80 1.247 . S
C83 O81 1.258 . S
C84 O86 1.247 . S
C84 O88 1.258 . S
C85 O92 1.247 . S
C85 O93 1.258 . S
O86 C84 1.247 . S
O86 Zn87 2.028 . S
Zn87 O86 2.028 . S
Zn87 O91 2.035 . S
Zn87 O93 2.035 . S
Zn87 O94 2.028 . S
O88 C84 1.258 . S
O88 Zn89 2.035 . S
Zn89 O88 2.035 . S
Zn89 O90 2.028 . S
Zn89 O92 2.028 . S
Zn89 O95 2.035 . S
O90 Zn89 2.028 . S
O90 C96 1.247 . S
O91 Zn87 2.035 . S
O91 C96 1.258 . S
O92 C85 1.247 . S
O92 Zn89 2.028 . S
O93 C85 1.258 . S
O93 Zn87 2.035 . S
O94 Zn87 2.028 . S
O94 C97 1.247 . S
O95 Zn89 2.035 . S
O95 C97 1.258 . S
C96 O90 1.247 . S
C96 O91 1.258 . S
C97 O94 1.247 . S
C97 O95 1.258 . S
C98 O100 1.247 . S
C98 O102 1.258 . S
C99 O106 1.247 . S
C99 O107 1.258 . S
O100 C98 1.247 . S
O100 Zn101 2.028 . S
Zn101 O100 2.028 . S
Zn101 O105 2.035 1_554 S
Zn101 O107 2.035 . S
Zn101 O108 2.028 . S
O102 C98 1.258 . S
O102 Zn103 2.035 . S
Zn103 O102 2.035 . S
Zn103 O104 2.028 1_554 S
Zn103 O106 2.028 . S
Zn103 O109 2.035 . S
O104 Zn103 2.028 1_556 S
O104 C110 1.247 . S
O105 Zn101 2.035 1_556 S
O105 C110 1.258 . S
O106 C99 1.247 . S
O106 Zn103 2.028 . S
O107 C99 1.258 . S
O107 Zn101 2.035 . S
O108 Zn101 2.028 . S
O108 C111 1.247 . S
O109 Zn103 2.035 . S
O109 C111 1.258 . S
C110 O104 1.247 . S
C110 O105 1.258 . S
C111 O108 1.247 . S
C111 O109 1.258 . S
H112 C113 0.951 . S
C113 H112 0.951 . S
C113 C119 1.265 . S
H114 C119 0.950 . S
H115 C123 0.949 . S
H116 C124 0.950 . S
H117 C125 0.951 . S
H118 C126 0.951 . S
C119 C113 1.265 . S
C119 H114 0.950 . S
C119 C120 1.478 . S
C120 C119 1.478 . S
C120 C121 1.397 . S
C120 C137 1.394 . S
C121 C120 1.397 . S
C121 C122 1.438 . S
C121 C126 1.429 . S
C122 C121 1.438 . S
C122 C123 1.428 . S
C122 C135 1.394 . S
C123 H115 0.949 . S
C123 C122 1.428 . S
C123 C124 1.345 . S
C124 H116 0.950 . S
C124 C123 1.345 . S
C124 C125 1.424 . S
C125 H117 0.951 . S
C125 C124 1.424 . S
C125 C126 1.347 . S
C126 H118 0.951 . S
C126 C121 1.429 . S
C126 C125 1.347 . S
H127 C128 0.951 . S
C128 H127 0.951 . S
C128 C134 1.265 . S
H129 C134 0.950 . S
H130 C138 0.949 . S
H131 C139 0.950 . S
H132 C140 0.951 . S
H133 C141 0.951 . S
C134 C128 1.265 . S
C134 H129 0.950 . S
C134 C135 1.478 . S
C135 C122 1.394 . S
C135 C134 1.478 . S
C135 C136 1.397 . S
C136 C135 1.397 . S
C136 C137 1.438 . S
C136 C141 1.429 . S
C137 C120 1.394 . S
C137 C136 1.438 . S
C137 C138 1.428 . S
C138 H130 0.949 . S
C138 C137 1.428 . S
C138 C139 1.345 . S
C139 H131 0.950 . S
C139 C138 1.345 . S
C139 C140 1.424 . S
C140 H132 0.951 . S
C140 C139 1.424 . S
C140 C141 1.347 . S
C141 H133 0.951 . S
C141 C136 1.429 . S
C141 C140 1.347 . S
H142 C143 0.951 . S
C143 H142 0.951 . S
C143 C149 1.265 . S
H144 C149 0.950 . S
H145 C153 0.949 . S
H146 C154 0.950 . S
H147 C155 0.951 . S
H148 C156 0.951 . S
C149 C143 1.265 . S
C149 H144 0.950 . S
C149 C150 1.478 . S
C150 C149 1.478 . S
C150 C151 1.397 . S
C150 C167 1.394 . S
C151 C150 1.397 . S
C151 C152 1.438 . S
C151 C156 1.429 . S
C152 C151 1.438 . S
C152 C153 1.428 . S
C152 C165 1.394 . S
C153 H145 0.949 . S
C153 C152 1.428 . S
C153 C154 1.345 . S
C154 H146 0.950 . S
C154 C153 1.345 . S
C154 C155 1.424 . S
C155 H147 0.951 . S
C155 C154 1.424 . S
C155 C156 1.347 . S
C156 H148 0.951 . S
C156 C151 1.429 . S
C156 C155 1.347 . S
H157 C158 0.951 . S
C158 H157 0.951 . S
C158 C164 1.265 . S
H159 C164 0.950 . S
H160 C168 0.949 . S
H161 C169 0.950 . S
H162 C170 0.951 . S
H163 C171 0.951 . S
C164 C158 1.265 . S
C164 H159 0.950 . S
C164 C165 1.478 . S
C165 C152 1.394 . S
C165 C164 1.478 . S
C165 C166 1.397 . S
C166 C165 1.397 . S
C166 C167 1.438 . S
C166 C171 1.429 . S
C167 C150 1.394 . S
C167 C166 1.438 . S
C167 C168 1.428 . S
C168 H160 0.949 . S
C168 C167 1.428 . S
C168 C169 1.345 . S
C169 H161 0.950 . S
C169 C168 1.345 . S
C169 C170 1.424 . S
C170 H162 0.951 . S
C170 C169 1.424 . S
C170 C171 1.347 . S
C171 H163 0.951 . S
C171 C166 1.429 . S
C171 C170 1.347 . S
H172 C173 0.951 . S
C173 H172 0.951 . S
C173 C179 1.265 . S
H174 C179 0.950 . S
H175 C183 0.949 . S
H176 C184 0.950 . S
H177 C185 0.951 . S
H178 C186 0.951 . S
C179 C173 1.265 . S
C179 H174 0.950 . S
C179 C180 1.478 . S
C180 C179 1.478 . S
C180 C181 1.397 . S
C180 C197 1.394 . S
C181 C180 1.397 . S
C181 C182 1.438 . S
C181 C186 1.429 . S
C182 C181 1.438 . S
C182 C183 1.428 . S
C182 C195 1.394 . S
C183 H175 0.949 . S
C183 C182 1.428 . S
C183 C184 1.345 . S
C184 H176 0.950 . S
C184 C183 1.345 . S
C184 C185 1.424 . S
C185 H177 0.951 . S
C185 C184 1.424 . S
C185 C186 1.347 . S
C186 H178 0.951 . S
C186 C181 1.429 . S
C186 C185 1.347 . S
H187 C188 0.951 . S
C188 H187 0.951 . S
C188 C194 1.265 . S
H189 C194 0.950 . S
H190 C198 0.949 . S
H191 C199 0.950 . S
H192 C200 0.951 . S
H193 C201 0.951 . S
C194 C188 1.265 . S
C194 H189 0.950 . S
C194 C195 1.478 . S
C195 C182 1.394 . S
C195 C194 1.478 . S
C195 C196 1.397 . S
C196 C195 1.397 . S
C196 C197 1.438 . S
C196 C201 1.429 . S
C197 C180 1.394 . S
C197 C196 1.438 . S
C197 C198 1.428 . S
C198 H190 0.949 . S
C198 C197 1.428 . S
C198 C199 1.345 . S
C199 H191 0.950 . S
C199 C198 1.345 . S
C199 C200 1.424 . S
C200 H192 0.951 . S
C200 C199 1.424 . S
C200 C201 1.347 . S
C201 H193 0.951 . S
C201 C196 1.429 . S
C201 C200 1.347 . S
H202 C203 0.951 . S
C203 H202 0.951 . S
C203 C209 1.265 . S
H204 C209 0.950 . S
H205 C213 0.949 . S
H206 C214 0.950 . S
H207 C215 0.951 . S
H208 C216 0.951 . S
C209 C203 1.265 . S
C209 H204 0.950 . S
C209 C210 1.478 . S
C210 C209 1.478 . S
C210 C211 1.397 . S
C210 C227 1.394 . S
C211 C210 1.397 . S
C211 C212 1.438 . S
C211 C216 1.429 . S
C212 C211 1.438 . S
C212 C213 1.428 . S
C212 C225 1.394 . S
C213 H205 0.949 . S
C213 C212 1.428 . S
C213 C214 1.345 . S
C214 H206 0.950 . S
C214 C213 1.345 . S
C214 C215 1.424 . S
C215 H207 0.951 . S
C215 C214 1.424 . S
C215 C216 1.347 . S
C216 H208 0.951 . S
C216 C211 1.429 . S
C216 C215 1.347 . S
H217 C218 0.951 . S
C218 H217 0.951 . S
C218 C224 1.265 . S
H219 C224 0.950 . S
H220 C228 0.949 . S
H221 C229 0.950 . S
H222 C230 0.951 . S
H223 C231 0.951 . S
C224 C218 1.265 . S
C224 H219 0.950 . S
C224 C225 1.478 . S
C225 C212 1.394 . S
C225 C224 1.478 . S
C225 C226 1.397 . S
C226 C225 1.397 . S
C226 C227 1.438 . S
C226 C231 1.429 . S
C227 C210 1.394 . S
C227 C226 1.438 . S
C227 C228 1.428 . S
C228 H220 0.949 . S
C228 C227 1.428 . S
C228 C229 1.345 . S
C229 H221 0.950 . S
C229 C228 1.345 . S
C229 C230 1.424 . S
C230 H222 0.951 . S
C230 C229 1.424 . S
C230 C231 1.347 . S
C231 H223 0.951 . S
C231 C226 1.429 . S
C231 C230 1.347 . S
H232 C233 0.951 . S
C233 H232 0.951 . S
C233 C239 1.265 . S
H234 C239 0.950 . S
H235 C243 0.949 . S
H236 C244 0.950 . S
H237 C245 0.951 . S
H238 C246 0.951 . S
C239 C233 1.265 . S
C239 H234 0.950 . S
C239 C240 1.478 . S
C240 C239 1.478 . S
C240 C241 1.397 . S
C240 C257 1.394 . S
C241 C240 1.397 . S
C241 C242 1.438 . S
C241 C246 1.429 . S
C242 C241 1.438 . S
C242 C243 1.428 . S
C242 C255 1.394 . S
C243 H235 0.949 . S
C243 C242 1.428 . S
C243 C244 1.345 . S
C244 H236 0.950 . S
C244 C243 1.345 . S
C244 C245 1.424 . S
C245 H237 0.951 . S
C245 C244 1.424 . S
C245 C246 1.347 . S
C246 H238 0.951 . S
C246 C241 1.429 . S
C246 C245 1.347 . S
H247 C248 0.951 . S
C248 H247 0.951 . S
C248 C254 1.265 . S
H249 C254 0.950 . S
H250 C258 0.949 . S
H251 C259 0.950 . S
H252 C260 0.951 . S
H253 C261 0.951 . S
C254 C248 1.265 . S
C254 H249 0.950 . S
C254 C255 1.478 . S
C255 C242 1.394 . S
C255 C254 1.478 . S
C255 C256 1.397 . S
C256 C255 1.397 . S
C256 C257 1.438 . S
C256 C261 1.429 . S
C257 C240 1.394 . S
C257 C256 1.438 . S
C257 C258 1.428 . S
C258 H250 0.949 . S
C258 C257 1.428 . S
C258 C259 1.345 . S
C259 H251 0.950 . S
C259 C258 1.345 . S
C259 C260 1.424 . S
C260 H252 0.951 . S
C260 C259 1.424 . S
C260 C261 1.347 . S
C261 H253 0.951 . S
C261 C256 1.429 . S
C261 C260 1.347 . S
H262 C263 0.951 . S
C263 H262 0.951 . S
C263 C269 1.265 . S
H264 C269 0.950 . S
H265 C273 0.949 . S
H266 C274 0.950 . S
H267 C275 0.951 . S
H268 C276 0.951 . S
C269 C263 1.265 . S
C269 H264 0.950 . S
C269 C270 1.478 . S
C270 C269 1.478 . S
C270 C271 1.397 . S
C270 C287 1.394 . S
C271 C270 1.397 . S
C271 C272 1.438 . S
C271 C276 1.429 . S
C272 C271 1.438 . S
C272 C273 1.428 . S
C272 C285 1.394 . S
C273 H265 0.949 . S
C273 C272 1.428 . S
C273 C274 1.345 . S
C274 H266 0.950 . S
C274 C273 1.345 . S
C274 C275 1.424 . S
C275 H267 0.951 . S
C275 C274 1.424 . S
C275 C276 1.347 . S
C276 H268 0.951 . S
C276 C271 1.429 . S
C276 C275 1.347 . S
H277 C278 0.951 . S
C278 H277 0.951 . S
C278 C284 1.265 . S
H279 C284 0.950 . S
H280 C288 0.949 . S
H281 C289 0.950 . S
H282 C290 0.951 . S
H283 C291 0.951 . S
C284 C278 1.265 . S
C284 H279 0.950 . S
C284 C285 1.478 . S
C285 C272 1.394 . S
C285 C284 1.478 . S
C285 C286 1.397 . S
C286 C285 1.397 . S
C286 C287 1.438 . S
C286 C291 1.429 . S
C287 C270 1.394 . S
C287 C286 1.438 . S
C287 C288 1.428 . S
C288 H280 0.949 . S
C288 C287 1.428 . S
C288 C289 1.345 . S
C289 H281 0.950 . S
C289 C288 1.345 . S
C289 C290 1.424 . S
C290 H282 0.951 . S
C290 C289 1.424 . S
C290 C291 1.347 . S
C291 H283 0.951 . S
C291 C286 1.429 . S
C291 C290 1.347 . S
H292 C293 0.951 . S
C293 H292 0.951 . S
C293 C299 1.265 . S
H294 C299 0.950 . S
H295 C303 0.949 . S
H296 C304 0.950 . S
H297 C305 0.951 . S
H298 C306 0.951 . S
C299 C293 1.265 . S
C299 H294 0.950 . S
C299 C300 1.478 . S
C300 C299 1.478 . S
C300 C301 1.397 . S
C300 C317 1.394 . S
C301 C300 1.397 . S
C301 C302 1.438 . S
C301 C306 1.429 . S
C302 C301 1.438 . S
C302 C303 1.428 . S
C302 C315 1.394 . S
C303 H295 0.949 . S
C303 C302 1.428 . S
C303 C304 1.345 . S
C304 H296 0.950 . S
C304 C303 1.345 . S
C304 C305 1.424 . S
C305 H297 0.951 . S
C305 C304 1.424 . S
C305 C306 1.347 . S
C306 H298 0.951 . S
C306 C301 1.429 . S
C306 C305 1.347 . S
H307 C308 0.951 . S
C308 H307 0.951 . S
C308 C314 1.265 . S
H309 C314 0.950 . S
H310 C318 0.949 . S
H311 C319 0.950 . S
H312 C320 0.951 . S
H313 C321 0.951 . S
C314 C308 1.265 . S
C314 H309 0.950 . S
C314 C315 1.478 . S
C315 C302 1.394 . S
C315 C314 1.478 . S
C315 C316 1.397 . S
C316 C315 1.397 . S
C316 C317 1.438 . S
C316 C321 1.429 . S
C317 C300 1.394 . S
C317 C316 1.438 . S
C317 C318 1.428 . S
C318 H310 0.949 . S
C318 C317 1.428 . S
C318 C319 1.345 . S
C319 H311 0.950 . S
C319 C318 1.345 . S
C319 C320 1.424 . S
C320 H312 0.951 . S
C320 C319 1.424 . S
C320 C321 1.347 . S
C321 H313 0.951 . S
C321 C316 1.429 . S
C321 C320 1.347 . S
H322 C323 0.951 . S
C323 H322 0.951 . S
C323 C329 1.265 . S
H324 C329 0.950 . S
H325 C333 0.949 . S
H326 C334 0.950 . S
H327 C335 0.951 . S
H328 C336 0.951 . S
C329 C323 1.265 . S
C329 H324 0.950 . S
C329 C330 1.478 . S
C330 C329 1.478 . S
C330 C331 1.397 . S
C330 C347 1.394 . S
C331 C330 1.397 . S
C331 C332 1.438 . S
C331 C336 1.429 . S
C332 C331 1.438 . S
C332 C333 1.428 . S
C332 C345 1.394 . S
C333 H325 0.949 . S
C333 C332 1.428 . S
C333 C334 1.345 . S
C334 H326 0.950 . S
C334 C333 1.345 . S
C334 C335 1.424 . S
C335 H327 0.951 . S
C335 C334 1.424 . S
C335 C336 1.347 . S
C336 H328 0.951 . S
C336 C331 1.429 . S
C336 C335 1.347 . S
H337 C338 0.951 . S
C338 H337 0.951 . S
C338 C344 1.265 . S
H339 C344 0.950 . S
H340 C348 0.949 . S
H341 C349 0.950 . S
H342 C350 0.951 . S
H343 C351 0.951 . S
C344 C338 1.265 . S
C344 H339 0.950 . S
C344 C345 1.478 . S
C345 C332 1.394 . S
C345 C344 1.478 . S
C345 C346 1.397 . S
C346 C345 1.397 . S
C346 C347 1.438 . S
C346 C351 1.429 . S
C347 C330 1.394 . S
C347 C346 1.438 . S
C347 C348 1.428 . S
C348 H340 0.949 . S
C348 C347 1.428 . S
C348 C349 1.345 . S
C349 H341 0.950 . S
C349 C348 1.345 . S
C349 C350 1.424 . S
C350 H342 0.951 . S
C350 C349 1.424 . S
C350 C351 1.347 . S
C351 H343 0.951 . S
C351 C346 1.429 . S
C351 C350 1.347 . S
H352 C353 0.951 . S
C353 H352 0.951 . S
C353 C359 1.264 . S
H354 C359 0.951 1_556 S
H355 C363 0.948 1_554 S
H356 C364 0.950 . S
H357 C365 0.951 . S
H358 C366 0.951 . S
C359 C353 1.264 . S
C359 H354 0.951 1_554 S
C359 C360 1.478 . S
C360 C359 1.478 . S
C360 C361 1.405 . S
C360 C377 1.394 . S
C361 C360 1.405 . S
C361 C362 1.440 1_655 S
C361 C366 1.419 1_554 S
C362 C361 1.440 1_455 S
C362 C363 1.424 1_554 S
C362 C375 1.394 . S
C363 H355 0.948 1_556 S
C363 C362 1.424 1_556 S
C363 C364 1.349 . S
C364 H356 0.950 . S
C364 C363 1.349 . S
C364 C365 1.424 1_455 S
C365 H357 0.951 . S
C365 C364 1.424 1_655 S
C365 C366 1.347 . S
C366 H358 0.951 . S
C366 C361 1.419 1_556 S
C366 C365 1.347 . S
H367 C368 0.951 1_556 S
C368 H367 0.951 1_554 S
C368 C374 1.265 . S
H369 C374 0.950 . S
H370 C378 0.949 . S
H371 C379 0.950 . S
H372 C380 0.951 . S
H373 C381 0.951 . S
C374 C368 1.265 . S
C374 H369 0.950 . S
C374 C375 1.478 . S
C375 C362 1.394 . S
C375 C374 1.478 . S
C375 C376 1.397 . S
C376 C375 1.397 . S
C376 C377 1.438 1_455 S
C376 C381 1.429 . S
C377 C360 1.394 . S
C377 C376 1.438 1_655 S
C377 C378 1.428 . S
C378 H370 0.949 . S
C378 C377 1.428 . S
C378 C379 1.345 . S
C379 H371 0.950 . S
C379 C378 1.345 . S
C379 C380 1.424 1_655 S
C380 H372 0.951 . S
C380 C379 1.424 1_455 S
C380 C381 1.347 . S
C381 H373 0.951 . S
C381 C376 1.429 . S
C381 C380 1.347 . S
H382 C383 0.951 . S
C383 H382 0.951 . S
C383 C389 1.265 . S
H384 C389 0.950 . S
H385 C393 0.949 . S
H386 C394 0.950 . S
H387 C395 0.951 . S
H388 C396 0.951 . S
C389 C383 1.265 . S
C389 H384 0.950 . S
C389 C390 1.478 . S
C390 C389 1.478 . S
C390 C391 1.397 . S
C390 C407 1.394 . S
C391 C390 1.397 . S
C391 C392 1.438 1_565 S
C391 C396 1.429 . S
C392 C391 1.438 1_545 S
C392 C393 1.428 . S
C392 C405 1.394 . S
C393 H385 0.949 . S
C393 C392 1.428 . S
C393 C394 1.345 . S
C394 H386 0.950 . S
C394 C393 1.345 . S
C394 C395 1.424 1_545 S
C395 H387 0.951 . S
C395 C394 1.424 1_565 S
C395 C396 1.347 . S
C396 H388 0.951 . S
C396 C391 1.429 . S
C396 C395 1.347 . S
H397 C398 0.951 . S
C398 H397 0.951 . S
C398 C404 1.265 . S
H399 C404 0.950 . S
H400 C408 0.949 . S
H401 C409 0.950 . S
H402 C410 0.951 . S
H403 C411 0.951 . S
C404 C398 1.265 . S
C404 H399 0.950 . S
C404 C405 1.478 . S
C405 C392 1.394 . S
C405 C404 1.478 . S
C405 C406 1.397 . S
C406 C405 1.397 . S
C406 C407 1.438 1_545 S
C406 C411 1.429 . S
C407 C390 1.394 . S
C407 C406 1.438 1_565 S
C407 C408 1.428 . S
C408 H400 0.949 . S
C408 C407 1.428 . S
C408 C409 1.345 . S
C409 H401 0.950 . S
C409 C408 1.345 . S
C409 C410 1.424 1_565 S
C410 H402 0.951 . S
C410 C409 1.424 1_545 S
C410 C411 1.347 . S
C411 H403 0.951 . S
C411 C406 1.429 . S
C411 C410 1.347 . S
H412 C413 0.951 . S
C413 H412 0.951 . S
C413 C419 1.265 . S
H414 C419 0.950 . S
H415 C423 0.949 . S
H416 C424 0.950 . S
H417 C425 0.951 . S
H418 C426 0.951 . S
C419 C413 1.265 . S
C419 H414 0.950 . S
C419 C420 1.478 . S
C420 C419 1.478 . S
C420 C421 1.397 . S
C420 C437 1.394 . S
C421 C420 1.397 . S
C421 C422 1.438 1_455 S
C421 C426 1.429 . S
C422 C421 1.438 1_655 S
C422 C423 1.428 . S
C422 C435 1.394 . S
C423 H415 0.949 . S
C423 C422 1.428 . S
C423 C424 1.345 . S
C424 H416 0.950 . S
C424 C423 1.345 . S
C424 C425 1.424 1_655 S
C425 H417 0.951 . S
C425 C424 1.424 1_455 S
C425 C426 1.347 . S
C426 H418 0.951 . S
C426 C421 1.429 . S
C426 C425 1.347 . S
H427 C428 0.951 . S
C428 H427 0.951 . S
C428 C434 1.265 . S
H429 C434 0.950 . S
H430 C438 0.949 . S
H431 C439 0.950 . S
H432 C440 0.951 . S
H433 C441 0.951 . S
C434 C428 1.265 . S
C434 H429 0.950 . S
C434 C435 1.478 . S
C435 C422 1.394 . S
C435 C434 1.478 . S
C435 C436 1.397 . S
C436 C435 1.397 . S
C436 C437 1.438 1_655 S
C436 C441 1.429 . S
C437 C420 1.394 . S
C437 C436 1.438 1_455 S
C437 C438 1.428 . S
C438 H430 0.949 . S
C438 C437 1.428 . S
C438 C439 1.345 . S
C439 H431 0.950 . S
C439 C438 1.345 . S
C439 C440 1.424 1_455 S
C440 H432 0.951 . S
C440 C439 1.424 1_655 S
C440 C441 1.347 . S
C441 H433 0.951 . S
C441 C436 1.429 . S
C441 C440 1.347 . S
H442 C443 0.951 . S
C443 H442 0.951 . S
C443 C449 1.265 . S
H444 C449 0.950 . S
H445 C453 0.949 . S
H446 C454 0.950 . S
H447 C455 0.951 . S
H448 C456 0.951 . S
C449 C443 1.265 . S
C449 H444 0.950 . S
C449 C450 1.478 . S
C450 C449 1.478 . S
C450 C451 1.397 1_554 S
C450 C467 1.394 . S
C451 C450 1.397 1_556 S
C451 C452 1.438 1_565 S
C451 C456 1.429 . S
C452 C451 1.438 1_545 S
C452 C453 1.428 . S
C452 C465 1.394 1_556 S
C453 H445 0.949 . S
C453 C452 1.428 . S
C453 C454 1.345 . S
C454 H446 0.950 . S
C454 C453 1.345 . S
C454 C455 1.424 1_545 S
C455 H447 0.951 . S
C455 C454 1.424 1_565 S
C455 C456 1.347 . S
C456 H448 0.951 . S
C456 C451 1.429 . S
C456 C455 1.347 . S
H457 C458 0.951 . S
C458 H457 0.951 . S
C458 C464 1.265 . S
H459 C464 0.950 . S
H460 C468 0.949 . S
H461 C469 0.950 . S
H462 C470 0.951 . S
H463 C471 0.951 . S
C464 C458 1.265 . S
C464 H459 0.950 . S
C464 C465 1.478 . S
C465 C452 1.394 1_554 S
C465 C464 1.478 . S
C465 C466 1.397 . S
C466 C465 1.397 . S
C466 C467 1.438 1_545 S
C466 C471 1.429 . S
C467 C450 1.394 . S
C467 C466 1.438 1_565 S
C467 C468 1.428 . S
C468 H460 0.949 . S
C468 C467 1.428 . S
C468 C469 1.345 . S
C469 H461 0.950 . S
C469 C468 1.345 . S
C469 C470 1.424 1_565 S
C470 H462 0.951 . S
C470 C469 1.424 1_545 S
C470 C471 1.347 . S
C471 H463 0.951 . S
C471 C466 1.429 . S
C471 C470 1.347 . S
H472 C473 0.951 1_556 S
C473 H472 0.951 1_554 S
C473 C479 1.265 . S
H474 C479 0.950 . S
H475 C483 0.949 . S
H476 C484 0.950 . S
H477 C485 0.951 . S
H478 C486 0.951 . S
C479 C473 1.265 . S
C479 H474 0.950 . S
C479 C480 1.478 . S
C480 C479 1.478 . S
C480 C481 1.397 . S
C480 C497 1.394 1_554 S
C481 C480 1.397 . S
C481 C482 1.438 . S
C481 C486 1.429 . S
C482 C481 1.438 . S
C482 C483 1.428 . S
C482 C495 1.394 . S
C483 H475 0.949 . S
C483 C482 1.428 . S
C483 C484 1.345 . S
C484 H476 0.950 . S
C484 C483 1.345 . S
C484 C485 1.424 . S
C485 H477 0.951 . S
C485 C484 1.424 . S
C485 C486 1.347 . S
C486 H478 0.951 . S
C486 C481 1.429 . S
C486 C485 1.347 . S
H487 C488 0.951 . S
C488 H487 0.951 . S
C488 C494 1.265 1_554 S
H489 C494 0.950 . S
H490 C498 0.949 . S
H491 C499 0.950 . S
H492 C500 0.951 . S
H493 C501 0.951 . S
C494 C488 1.265 1_556 S
C494 H489 0.950 . S
C494 C495 1.478 1_556 S
C495 C482 1.394 . S
C495 C494 1.478 1_554 S
C495 C496 1.397 1_554 S
C496 C495 1.397 1_556 S
C496 C497 1.438 . S
C496 C501 1.429 . S
C497 C480 1.394 1_556 S
C497 C496 1.438 . S
C497 C498 1.428 . S
C498 H490 0.949 . S
C498 C497 1.428 . S
C498 C499 1.345 . S
C499 H491 0.950 . S
C499 C498 1.345 . S
C499 C500 1.424 . S
C500 H492 0.951 . S
C500 C499 1.424 . S
C500 C501 1.347 . S
C501 H493 0.951 . S
C501 C496 1.429 . S
C501 C500 1.347 . S
H502 C503 0.951 . S
C503 H502 0.951 . S
C503 C509 1.265 . S
H504 C509 0.950 . S
H505 C513 0.949 . S
H506 C514 0.950 . S
H507 C515 0.951 . S
H508 C516 0.951 . S
C509 C503 1.265 . S
C509 H504 0.950 . S
C509 C510 1.478 . S
C510 C509 1.478 . S
C510 C511 1.397 . S
C510 C527 1.394 . S
C511 C510 1.397 . S
C511 C512 1.438 . S
C511 C516 1.429 . S
C512 C511 1.438 . S
C512 C513 1.428 . S
C512 C525 1.394 . S
C513 H505 0.949 . S
C513 C512 1.428 . S
C513 C514 1.345 . S
C514 H506 0.950 . S
C514 C513 1.345 . S
C514 C515 1.424 . S
C515 H507 0.951 . S
C515 C514 1.424 . S
C515 C516 1.347 . S
C516 H508 0.951 . S
C516 C511 1.429 . S
C516 C515 1.347 . S
H517 C518 0.951 . S
C518 H517 0.951 . S
C518 C524 1.265 . S
H519 C524 0.950 . S
H520 C528 0.949 . S
H521 C529 0.950 . S
H522 C530 0.951 . S
H523 C531 0.951 . S
C524 C518 1.265 . S
C524 H519 0.950 . S
C524 C525 1.478 . S
C525 C512 1.394 . S
C525 C524 1.478 . S
C525 C526 1.397 . S
C526 C525 1.397 . S
C526 C527 1.438 . S
C526 C531 1.429 . S
C527 C510 1.394 . S
C527 C526 1.438 . S
C527 C528 1.428 . S
C528 H520 0.949 . S
C528 C527 1.428 . S
C528 C529 1.345 . S
C529 H521 0.950 . S
C529 C528 1.345 . S
C529 C530 1.424 . S
C530 H522 0.951 . S
C530 C529 1.424 . S
C530 C531 1.347 . S
C531 H523 0.951 . S
C531 C526 1.429 . S
C531 C530 1.347 . S
H532 C533 0.951 . S
C533 H532 0.951 . S
C533 C539 1.265 . S
H534 C539 0.950 . S
H535 C543 0.949 . S
H536 C544 0.950 . S
H537 C545 0.951 . S
H538 C546 0.951 . S
C539 C533 1.265 . S
C539 H534 0.950 . S
C539 C540 1.478 . S
C540 C539 1.478 . S
C540 C541 1.397 1_554 S
C540 C557 1.394 . S
C541 C540 1.397 1_556 S
C541 C542 1.438 . S
C541 C546 1.429 . S
C542 C541 1.438 . S
C542 C543 1.428 . S
C542 C555 1.394 1_556 S
C543 H535 0.949 . S
C543 C542 1.428 . S
C543 C544 1.345 . S
C544 H536 0.950 . S
C544 C543 1.345 . S
C544 C545 1.424 . S
C545 H537 0.951 . S
C545 C544 1.424 . S
C545 C546 1.347 . S
C546 H538 0.951 . S
C546 C541 1.429 . S
C546 C545 1.347 . S
H547 C548 0.951 . S
C548 H547 0.951 . S
C548 C554 1.265 . S
H549 C554 0.950 . S
H550 C558 0.949 . S
H551 C559 0.950 . S
H552 C560 0.951 . S
H553 C561 0.951 . S
C554 C548 1.265 . S
C554 H549 0.950 . S
C554 C555 1.478 . S
C555 C542 1.394 1_554 S
C555 C554 1.478 . S
C555 C556 1.397 . S
C556 C555 1.397 . S
C556 C557 1.438 . S
C556 C561 1.429 . S
C557 C540 1.394 . S
C557 C556 1.438 . S
C557 C558 1.428 . S
C558 H550 0.949 . S
C558 C557 1.428 . S
C558 C559 1.345 . S
C559 H551 0.950 . S
C559 C558 1.345 . S
C559 C560 1.424 . S
C560 H552 0.951 . S
C560 C559 1.424 . S
C560 C561 1.347 . S
C561 H553 0.951 . S
C561 C556 1.429 . S
C561 C560 1.347 . S
H562 C563 0.951 . S
C563 H562 0.951 . S
C563 C569 1.265 . S
H564 C569 0.950 . S
H565 C573 0.949 . S
H566 C574 0.950 . S
H567 C575 0.951 . S
H568 C576 0.951 . S
C569 C563 1.265 . S
C569 H564 0.950 . S
C569 C570 1.478 . S
C570 C569 1.478 . S
C570 C571 1.397 . S
C570 C587 1.394 . S
C571 C570 1.397 . S
C571 C572 1.438 . S
C571 C576 1.429 . S
C572 C571 1.438 . S
C572 C573 1.428 . S
C572 C585 1.394 . S
C573 H565 0.949 . S
C573 C572 1.428 . S
C573 C574 1.345 . S
C574 H566 0.950 . S
C574 C573 1.345 . S
C574 C575 1.424 . S
C575 H567 0.951 . S
C575 C574 1.424 . S
C575 C576 1.347 . S
C576 H568 0.951 . S
C576 C571 1.429 . S
C576 C575 1.347 . S
H577 C578 0.951 . S
C578 H577 0.951 . S
C578 C584 1.265 . S
H579 C584 0.950 . S
H580 C588 0.949 . S
H581 C589 0.950 . S
H582 C590 0.951 . S
H583 C591 0.951 . S
C584 C578 1.265 . S
C584 H579 0.950 . S
C584 C585 1.478 . S
C585 C572 1.394 . S
C585 C584 1.478 . S
C585 C586 1.397 . S
C586 C585 1.397 . S
C586 C587 1.438 . S
C586 C591 1.429 . S
C587 C570 1.394 . S
C587 C586 1.438 . S
C587 C588 1.428 . S
C588 H580 0.949 . S
C588 C587 1.428 . S
C588 C589 1.345 . S
C589 H581 0.950 . S
C589 C588 1.345 . S
C589 C590 1.424 . S
C590 H582 0.951 . S
C590 C589 1.424 . S
C590 C591 1.347 . S
C591 H583 0.951 . S
C591 C586 1.429 . S
C591 C590 1.347 . S
C113 C12 1.543 . S
C128 C56 1.536 . S
C143 C15 1.537 . S
C158 C83 1.519 . S
C173 C85 1.541 . S
C188 C40 1.529 . S
C203 C110 1.543 . S
C218 C43 1.546 . S
C233 C84 1.530 . S
C248 C41 1.540 . S
C263 C111 1.523 . S
C278 C42 1.539 . S
C293 C13 1.533 . S
C308 C57 1.542 . S
C323 C14 1.512 . S
C338 C82 1.526 . S
C353 C28 1.960 . S
C368 C1 1.960 . S
C383 C55 1.927 . S
C398 C26 1.927 . S
C413 C68 1.931 . S
C428 C96 1.927 . S
C443 C99 1.999 . S
C458 C71 1.996 . S
C473 C0 1.883 . S
C488 C70 1.929 . S
C503 C97 1.878 . S
C518 C27 1.924 . S
C533 C29 1.930 . S
C548 C98 1.881 . S
C563 C54 1.911 . S
C578 C69 1.904 . S
