# Generated by pormake.
# Topology unh, (4)-cn, num edge types: 1
# Building blocks:
#     Node 0, Type 0, BuildingBlock: QUQFOY_clean_sbu_3, # of connection points: 4
#     Node 1, Type 0, BuildingBlock: QUQFOY_clean_sbu_3, # of connection points: 4
#     Node 2, Type 0, BuildingBlock: QUQFOY_clean_sbu_3, # of connection points: 4
#     Node 3, Type 0, BuildingBlock: QUQFOY_clean_sbu_3, # of connection points: 4
#     Node 4, Type 0, BuildingBlock: QUQFOY_clean_sbu_3, # of connection points: 4
#     Node 5, Type 0, BuildingBlock: QUQFOY_clean_sbu_3, # of connection points: 4
#     Edge 6, Type (0, 0), BuildingBlock: MIFKUJ_clean_linker_0, # of connection points: 2
#     Edge 7, Type (0, 0), BuildingBlock: MIFKUJ_clean_linker_0, # of connection points: 2
#     Edge 8, Type (0, 0), BuildingBlock: MIFKUJ_clean_linker_0, # of connection points: 2
#     Edge 9, Type (0, 0), BuildingBlock: MIFKUJ_clean_linker_0, # of connection points: 2
#     Edge 10, Type (0, 0), BuildingBlock: MIFKUJ_clean_linker_0, # of connection points: 2
#     Edge 11, Type (0, 0), BuildingBlock: MIFKUJ_clean_linker_0, # of connection points: 2
#     Edge 12, Type (0, 0), BuildingBlock: MIFKUJ_clean_linker_0, # of connection points: 2
#     Edge 13, Type (0, 0), BuildingBlock: MIFKUJ_clean_linker_0, # of connection points: 2
#     Edge 14, Type (0, 0), BuildingBlock: MIFKUJ_clean_linker_0, # of connection points: 2
#     Edge 15, Type (0, 0), BuildingBlock: MIFKUJ_clean_linker_0, # of connection points: 2
#     Edge 16, Type (0, 0), BuildingBlock: MIFKUJ_clean_linker_0, # of connection points: 2
#     Edge 17, Type (0, 0), BuildingBlock: MIFKUJ_clean_linker_0, # of connection points: 2
# Relax obj value: 0.079
# Max RMSD: 0.191
# Mean RMSD: 0.191
data_MOF--net-unh--node1-QUQFOY_clean_sbu_3--edge1-MIFKUJ_clean_linker_0
_symmetry_space_group_name_H-M    P1
_symmetry_Int_Tables_number       1
_symmetry_cell_setting            triclinic
loop_
_symmetry_equiv_pos_as_xyz
'x, y, z'
_cell_length_a     55.340509
_cell_length_b     55.457095
_cell_length_c     30.076601
_cell_angle_alpha  89.513632
_cell_angle_beta   90.277325
_cell_angle_gamma 120.03934
loop_
_atom_site_label
_atom_site_type_symbol
_atom_site_fract_x
_atom_site_fract_y
_atom_site_fract_z
_atom_type_partial_charge
C0 C 0.15629 0.51287 0.07659 0.0
O1 O 0.15224 0.50232 0.03805 0.0
Cd2 Cd 0.11746 0.50219 -0.01158 0.0
O3 O 0.14167 0.52313 0.09027 0.0
Cd4 Cd 0.10358 0.53086 0.06749 0.0
C5 C 0.1416 0.57234 0.98186 0.0
O6 O 0.07447 0.48682 0.0282 0.0
O7 O 0.06251 0.51838 0.02347 0.0
O8 O 0.08724 0.5185 0.14319 0.0
C9 C 0.05723 0.49396 0.01426 0.0
O10 O 0.13671 0.55013 0.96205 0.0
C11 C 0.08581 0.54021 0.15098 0.0
O12 O 0.13363 0.57154 0.02178 0.0
O13 O 0.09274 0.55794 0.11959 0.0
C14 C 0.64113 0.16024 0.24103 0.0
O15 O 0.64393 0.1547 0.20116 0.0
Cd16 Cd 0.60501 0.12064 0.15791 0.0
O17 O 0.61735 0.14795 0.25981 0.0
Cd18 Cd 0.56861 0.11296 0.24416 0.0
C19 C 0.56463 0.15157 0.15968 0.0
O20 O 0.57681 0.07976 0.20227 0.0
O21 O 0.53476 0.07278 0.2042 0.0
O22 O 0.56749 0.09781 0.32017 0.0
C23 C 0.55123 0.06445 0.19218 0.0
O24 O 0.57912 0.14389 0.13749 0.0
C25 C 0.54472 0.09667 0.33046 0.0
O26 O 0.55917 0.14491 0.20058 0.0
O27 O 0.53324 0.10399 0.30074 0.0
C28 C 0.47044 0.64608 0.42041 0.0
O29 O 0.48386 0.6539 0.38411 0.0
Cd30 Cd 0.47575 0.6199 0.32802 0.0
O31 O 0.45553 0.62029 0.42964 0.0
Cd32 Cd 0.44475 0.57462 0.40045 0.0
C33 C 0.40353 0.58058 0.32526 0.0
O34 O 0.48594 0.58522 0.35553 0.0
O35 O 0.4474 0.54724 0.34087 0.0
O36 O 0.46144 0.56481 0.46852 0.0
C37 C 0.47338 0.56254 0.33418 0.0
O38 O 0.42634 0.59808 0.30643 0.0
C39 C 0.4388 0.54306 0.47905 0.0
O40 O 0.40368 0.5695 0.36245 0.0
O41 O 0.4183 0.53555 0.45261 0.0
C42 C 0.81932 0.46657 0.57487 0.0
O43 O 0.82634 0.4791 0.53757 0.0
Cd44 Cd 0.85946 0.4758 0.48953 0.0
O45 O 0.83087 0.45312 0.5892 0.0
Cd46 Cd 0.86734 0.44224 0.56936 0.0
C47 C 0.82909 0.40459 0.48172 0.0
O48 O 0.90016 0.48633 0.53254 0.0
O49 O 0.90807 0.45212 0.52635 0.0
O50 O 0.88171 0.45153 0.64643 0.0
C51 C 0.91589 0.47747 0.51855 0.0
O52 O 0.83642 0.42779 0.46241 0.0
C53 C 0.88264 0.42936 0.65298 0.0
O54 O 0.8359 0.40372 0.52197 0.0
O55 O 0.87594 0.41267 0.62052 0.0
C56 C 0.33263 0.81709 0.74476 0.0
O57 O 0.33013 0.82197 0.70417 0.0
Cd58 Cd 0.36901 0.85571 0.66008 0.0
O59 O 0.35625 0.82977 0.76401 0.0
Cd60 Cd 0.40506 0.86464 0.74801 0.0
C61 C 0.41098 0.82665 0.66557 0.0
O62 O 0.39621 0.89691 0.70354 0.0
O63 O 0.4388 0.90572 0.70874 0.0
O64 O 0.40646 0.87971 0.82374 0.0
C65 C 0.42181 0.91296 0.69437 0.0
O66 O 0.39601 0.83339 0.64213 0.0
C67 C 0.42902 0.88034 0.83419 0.0
O68 O 0.41601 0.83369 0.70624 0.0
O69 O 0.4403 0.87298 0.80461 0.0
C70 C 0.51241 0.34244 0.91518 0.0
O71 O 0.50057 0.33536 0.87751 0.0
Cd72 Cd 0.50569 0.37058 0.8246 0.0
O73 O 0.52547 0.36795 0.92623 0.0
Cd74 Cd 0.53593 0.41402 0.89876 0.0
C75 C 0.57716 0.41213 0.81933 0.0
O76 O 0.49261 0.40208 0.85701 0.0
O77 O 0.52866 0.44295 0.8473 0.0
O78 O 0.52436 0.41949 0.97414 0.0
C79 C 0.50308 0.42624 0.83965 0.0
O80 O 0.55448 0.39471 0.80035 0.0
C81 C 0.54473 0.444 0.97922 0.0
O82 O 0.57689 0.42164 0.85759 0.0
O83 O 0.56152 0.45477 0.94682 0.0
H84 H 0.0142 0.50164 -0.00949 0.0
H85 H 0.97751 0.47533 0.93673 0.0
H86 H 0.00936 0.41924 0.91815 0.0
H87 H 0.04663 0.44587 0.97221 0.0
H88 H 0.00243 0.43927 0.84019 0.0
H89 H 0.94536 0.39449 0.96461 0.0
H90 H 0.92524 0.39018 0.03917 0.0
H91 H 0.88925 0.43947 -0.00324 0.0
H92 H 0.90949 0.44446 0.92212 0.0
H93 H 0.89735 0.38998 0.67179 0.0
H94 H 0.91968 0.38595 0.73991 0.0
H95 H 0.91323 0.4534 0.79787 0.0
H96 H 0.89099 0.45751 0.73032 0.0
H97 H 0.90282 0.41169 0.85905 0.0
H98 H 0.97152 0.46656 0.74432 0.0
H99 H -0.00707 0.47295 0.67023 0.0
H100 H 0.00734 0.4049 0.69608 0.0
H101 H 0.98568 0.39792 0.77017 0.0
C102 C 0.01322 0.48347 0.97553 0.0
C103 C 0.03338 0.4759 -0.01461 0.0
C104 C -0.00795 0.46827 0.94504 0.0
C105 C -0.00954 0.44509 0.92382 0.0
C106 C 0.0101 0.43695 0.93444 0.0
C107 C 0.03132 0.45213 0.9653 0.0
C108 C 0.97008 0.43166 0.88728 0.0
C109 C 0.98044 0.43234 0.84453 0.0
C110 C 0.94146 0.42291 0.89287 0.0
C111 C 0.92903 0.41988 0.93769 0.0
C112 C 0.9333 0.40455 0.97122 0.0
C113 C 0.92184 0.40197 0.01351 0.0
C114 C 0.90598 0.41455 0.0227 0.0
C115 C 0.90151 0.42971 -0.01042 0.0
C116 C 0.91292 0.43236 0.94722 0.0
C117 C 0.90026 0.40359 0.69939 0.0
C118 C 0.89272 0.42427 0.6956 0.0
C119 C 0.91302 0.40127 0.7382 0.0
C120 C 0.91828 0.41953 0.77372 0.0
C121 C 0.90929 0.43907 0.77087 0.0
C122 C 0.89675 0.44152 0.73212 0.0
C123 C 0.93552 0.42052 0.81218 0.0
C124 C 0.92456 0.41755 0.85511 0.0
C125 C 0.9636 0.42722 0.80684 0.0
C126 C 0.97667 0.43148 0.76244 0.0
C127 C 0.97906 0.45283 0.73403 0.0
C128 C -0.00873 0.45658 0.69208 0.0
C129 C 0.0014 0.43928 0.67839 0.0
C130 C -0.00058 0.41824 0.70668 0.0
C131 C 0.98718 0.41437 0.74864 0.0
H132 H 0.01085 0.44222 0.64591 0.0
H133 H 0.89715 0.41254 0.05547 0.0
H134 H 0.40593 0.88934 0.90717 0.0
H135 H 0.43023 0.91524 0.97356 0.0
H136 H 0.50719 0.92338 0.92497 0.0
H137 H 0.48281 0.89685 0.85851 0.0
H138 H 0.50209 0.91774 0.01868 0.0
H139 H 0.49629 0.97406 0.90268 0.0
H140 H 0.473 0.98679 0.84462 0.0
H141 H 0.41969 -0.00828 0.94301 0.0
H142 H 0.44238 0.97856 0.0016 0.0
H143 H 0.58218 0.04732 0.14457 0.0
H144 H 0.5645 0.01025 0.08862 0.0
H145 H 0.48014 0.98953 0.11896 0.0
H146 H 0.49743 0.02622 0.17434 0.0
H147 H 0.49493 0.00317 0.03037 0.0
H148 H 0.50148 0.94561 0.14659 0.0
H149 H 0.52622 0.93362 0.20314 0.0
H150 H 0.58101 0.93338 0.10275 0.0
H151 H 0.55682 0.94576 0.04566 0.0
C152 C 0.4279 0.89612 0.91099 0.0
C153 C 0.4426 0.89151 0.87737 0.0
C154 C 0.44173 0.91087 0.94895 0.0
C155 C 0.47057 0.92165 0.95362 0.0
C156 C 0.48493 0.91528 0.92181 0.0
C157 C 0.471 0.90023 0.88386 0.0
C158 C 0.48593 0.94224 -0.01122 0.0
C159 C 0.50089 0.93662 0.02106 0.0
C160 C 0.48442 0.9669 -0.00845 0.0
C161 C 0.47089 0.9751 0.95647 0.0
C162 C 0.47947 0.97766 0.91189 0.0
C163 C 0.46639 0.98498 0.87889 0.0
C164 C 0.44484 0.99 0.8901 0.0
C165 C 0.43637 0.98779 0.93437 0.0
C166 C 0.44935 0.98043 0.96749 0.0
C167 C 0.55986 0.03446 0.13984 0.0
C168 C 0.54119 0.03989 0.1633 0.0
C169 C 0.54982 0.0133 0.10802 0.0
C170 C 0.52105 -0.00266 0.09963 0.0
C171 C 0.50242 0.00176 0.12486 0.0
C172 C 0.51236 0.02277 0.15642 0.0
C173 C 0.51016 0.97821 0.06145 0.0
C174 C 0.49628 0.98436 0.02808 0.0
C175 C 0.51303 0.95436 0.05763 0.0
C176 C 0.52756 0.94695 0.09195 0.0
C177 C 0.51899 0.94329 0.13664 0.0
C178 C 0.53287 0.93635 0.16878 0.0
C179 C 0.55523 0.93283 0.15657 0.0
C180 C 0.56371 0.93617 0.11218 0.0
C181 C 0.54991 0.94312 0.07991 0.0
H182 H 0.56595 0.92745 0.1815 0.0
H183 H 0.43474 -0.00433 0.8645 0.0
H184 H 0.52328 0.56369 0.33526 0.0
H185 H 0.54221 0.54759 0.27615 0.0
H186 H 0.47304 0.5332 0.1913 0.0
H187 H 0.45332 0.54722 0.25128 0.0
H188 H 0.47729 0.49123 0.18767 0.0
H189 H 0.54462 0.58827 0.17584 0.0
H190 H 0.58067 0.63461 0.20185 0.0
H191 H 0.63313 0.60138 0.24018 0.0
H192 H 0.59722 0.55475 0.2149 0.0
H193 H 0.56637 0.50003 -0.01314 0.0
H194 H 0.56137 0.52442 0.05058 0.0
H195 H 0.52474 0.44796 0.12692 0.0
H196 H 0.52823 0.42329 0.06256 0.0
H197 H 0.57515 0.53642 0.13439 0.0
H198 H 0.46965 0.43932 0.18282 0.0
H199 H 0.43184 0.39713 0.14762 0.0
H200 H 0.45237 0.43853 0.02059 0.0
H201 H 0.49002 0.48105 0.05514 0.0
C202 C 0.51242 0.55729 0.30372 0.0
C203 C 0.48682 0.55634 0.29763 0.0
C204 C 0.52328 0.54829 0.26987 0.0
C205 C 0.50911 0.53919 0.22906 0.0
C206 C 0.48423 0.53974 0.22256 0.0
C207 C 0.47299 0.54782 0.25672 0.0
C208 C 0.51861 0.52693 0.19424 0.0
C209 C 0.49873 0.50127 0.17613 0.0
C210 C 0.5465 0.53997 0.17862 0.0
C211 C 0.56811 0.56796 0.19391 0.0
C212 C 0.56375 0.5908 0.19014 0.0
C213 C 0.58418 0.61713 0.20469 0.0
C214 C 0.60914 0.62092 0.22277 0.0
C215 C 0.61376 0.5984 0.22623 0.0
C216 C 0.59339 0.57203 0.21176 0.0
C217 C 0.55775 0.48862 0.01757 0.0
C218 C 0.54718 0.45974 0.01973 0.0
C219 C 0.55498 0.50257 0.05398 0.0
C220 C 0.54202 0.48785 0.09313 0.0
C221 C 0.5341 0.45957 0.09663 0.0
C222 C 0.53615 0.4455 0.05995 0.0
C223 C 0.53373 0.50104 0.12803 0.0
C224 C 0.55379 0.52659 0.14622 0.0
C225 C 0.50569 0.48862 0.14248 0.0
C226 C 0.48284 0.46323 0.12151 0.0
C227 C 0.46602 0.43942 0.14741 0.0
C228 C 0.44463 0.41546 0.12757 0.0
C229 C 0.43977 0.41512 0.08188 0.0
C230 C 0.45622 0.43879 0.05595 0.0
C231 C 0.47759 0.46281 0.07564 0.0
H232 H 0.42322 0.39654 0.06658 0.0
H233 H 0.62493 0.64132 0.23401 0.0
H234 H 0.95356 0.46375 0.48841 0.0
H235 H -0.00928 0.48896 0.43478 0.0
H236 H 0.97104 0.55504 0.42987 0.0
H237 H 0.93314 0.52946 0.4835 0.0
H238 H 0.97384 0.53805 0.34854 0.0
H239 H 0.03385 0.56762 0.47312 0.0
H240 H 0.05289 0.56345 0.5452 0.0
H241 H 0.07582 0.5071 0.48789 0.0
H242 H 0.05656 0.51057 0.41562 0.0
H243 H 0.07634 0.58226 0.17585 0.0
H244 H 0.05611 0.58599 0.24608 0.0
H245 H 0.05197 0.51031 0.29324 0.0
H246 H 0.07235 0.50664 0.22387 0.0
H247 H 0.06824 0.54878 0.35879 0.0
H248 H -0.00421 0.50969 0.24346 0.0
H249 H 0.97504 0.51174 0.17173 0.0
H250 H 0.97522 0.58573 0.2133 0.0
H251 H -0.00373 0.58425 0.28512 0.0
C252 C 0.95733 0.48384 0.47649 0.0
C253 C 0.94033 0.49456 0.48998 0.0
C254 C 0.9788 0.49838 0.44608 0.0
C255 C 0.98395 0.5241 0.42876 0.0
C256 C 0.96753 0.53532 0.4431 0.0
C257 C 0.94594 0.52071 0.47371 0.0
C258 C 0.00446 0.53733 0.39227 0.0
C259 C -0.00518 0.54128 0.35113 0.0
C260 C 0.03175 0.54133 0.39554 0.0
C261 C 0.0437 0.53936 0.43887 0.0
C262 C 0.04283 0.55423 0.47591 0.0
C263 C 0.05368 0.552 0.51682 0.0
C264 C 0.06555 0.53502 0.52112 0.0
C265 C 0.06666 0.52028 0.48449 0.0
C266 C 0.05583 0.52243 0.4435 0.0
C267 C 0.0714 0.56662 0.20145 0.0
C268 C 0.07567 0.544 0.19422 0.0
C269 C 0.05985 0.56879 0.24148 0.0
C270 C 0.05237 0.54832 0.27469 0.0
C271 C 0.05769 0.5264 0.26812 0.0
C272 C 0.06917 0.52422 0.22829 0.0
C273 C 0.037 0.54805 0.31501 0.0
C274 C 0.04765 0.54658 0.35674 0.0
C275 C 0.01062 0.54627 0.31235 0.0
C276 C -0.00209 0.54707 0.26932 0.0
C277 C -0.00842 0.5265 0.23713 0.0
C278 C 0.97974 0.52754 0.19651 0.0
C279 C 0.97391 0.54891 0.1879 0.0
C280 C 0.97982 0.56923 0.21996 0.0
C281 C -0.0083 0.5683 0.26062 0.0
H282 H 0.96474 0.54969 0.15643 0.0
H283 H 0.07391 0.53329 0.55284 0.0
H284 H 0.49064 0.07872 0.35445 0.0
H285 H 0.46671 0.05202 0.42129 0.0
H286 H 0.54436 0.06148 0.47047 0.0
H287 H 0.56818 0.08756 0.40356 0.0
H288 H 0.50475 0.00831 0.46818 0.0
H289 H 0.51182 0.09393 0.51951 0.0
H290 H 0.5049 0.13447 0.51464 0.0
H291 H 0.41615 0.07995 0.5079 0.0
H292 H 0.42257 0.03905 0.51215 0.0
H293 H 0.47521 0.95378 0.68014 0.0
H294 H 0.49238 0.9895 0.62226 0.0
H295 H 0.40786 0.96238 0.58116 0.0
H296 H 0.39031 0.9264 0.63973 0.0
H297 H 0.44575 0.02245 0.57667 0.0
H298 H 0.43825 0.93723 0.52635 0.0
H299 H 0.44455 0.8963 0.53124 0.0
H300 H 0.53352 0.94991 0.53419 0.0
H301 H 0.52774 0.99121 0.53006 0.0
C302 C 0.50269 0.07559 0.37998 0.0
C303 C 0.53121 0.08494 0.37363 0.0
C304 C 0.489 0.0604 0.4182 0.0
C305 C 0.50375 0.0547 0.45078 0.0
C306 C 0.53256 0.0655 0.44559 0.0
C307 C 0.54615 0.08042 0.40736 0.0
C308 C 0.48898 0.03514 0.48793 0.0
C309 C 0.49215 0.01166 0.49217 0.0
C310 C 0.47156 0.03885 0.5181 0.0
C311 C 0.4677 0.06343 0.51567 0.0
C312 C 0.49084 0.09058 0.5166 0.0
C313 C 0.48701 0.11363 0.51404 0.0
C314 C 0.46011 0.10979 0.51083 0.0
C315 C 0.43698 0.08289 0.51032 0.0
C316 C 0.4407 0.05977 0.51285 0.0
C317 C 0.4602 0.95565 0.65932 0.0
C318 C 0.43144 0.93703 0.66394 0.0
C319 C 0.47005 0.97612 0.62635 0.0
C320 C 0.45138 0.97823 0.59713 0.0
C321 C 0.42255 0.96098 0.60346 0.0
C322 C 0.41259 0.94043 0.63676 0.0
C323 C 0.46243 -0.00363 0.55744 0.0
C324 C 0.45833 0.01924 0.55249 0.0
C325 C 0.47895 -0.00787 0.52624 0.0
C326 C 0.48254 0.96733 0.52827 0.0
C327 C 0.45915 0.94031 0.52839 0.0
C328 C 0.46263 0.91704 0.53097 0.0
C329 C 0.48941 0.92051 0.53311 0.0
C330 C 0.51278 0.94726 0.53256 0.0
C331 C 0.50942 0.97061 0.53007 0.0
H332 H 0.49205 0.90248 0.53512 0.0
H333 H 0.45718 0.12766 0.50885 0.0
H334 H 0.4476 0.39607 0.81535 0.0
H335 H 0.42312 0.41039 0.76218 0.0
H336 H 0.49922 0.48864 0.74156 0.0
H337 H 0.52323 0.475 0.79474 0.0
H338 H 0.45706 0.49731 0.74828 0.0
H339 H 0.4755 0.43056 0.66995 0.0
H340 H 0.46951 0.38382 0.65902 0.0
H341 H 0.3807 0.34885 0.6499 0.0
H342 H 0.3862 0.39539 0.66124 0.0
H343 H 0.48023 0.55466 0.5384 0.0
H344 H 0.47788 0.52962 0.6064 0.0
H345 H 0.39082 0.47131 0.58212 0.0
H346 H 0.3931 0.49629 0.51288 0.0
H347 H 0.42051 0.4455 0.60742 0.0
H348 H 0.40786 0.5188 0.66342 0.0
H349 H 0.41787 0.56722 0.67098 0.0
H350 H 0.49991 0.5918 0.72014 0.0
H351 H 0.49062 0.54372 0.71223 0.0
C352 C 0.45893 0.41639 0.79962 0.0
C353 C 0.48735 0.43437 0.80913 0.0
C354 C 0.44497 0.4245 0.76923 0.0
C355 C 0.45937 0.45056 0.74776 0.0
C356 C 0.48757 0.46854 0.75792 0.0
C357 C 0.50135 0.46061 0.78826 0.0
C358 C 0.44614 0.45949 0.71332 0.0
C359 C 0.44888 0.48592 0.71756 0.0
C360 C 0.43444 0.44417 0.67393 0.0
C361 C 0.43122 0.41631 0.66701 0.0
C362 C 0.4547 0.41285 0.66591 0.0
C363 C 0.4514 0.38642 0.6596 0.0
C364 C 0.42474 0.36336 0.65393 0.0
C365 C 0.40133 0.36671 0.65441 0.0
C366 C 0.40452 0.3931 0.66077 0.0
C367 C 0.4605 0.53659 0.54744 0.0
C368 C 0.4368 0.52753 0.52034 0.0
C369 C 0.45915 0.52238 0.58653 0.0
C370 C 0.43402 0.49896 0.59979 0.0
C371 C 0.41033 0.48952 0.57264 0.0
C372 C 0.41167 0.50379 0.5332 0.0
C373 C 0.43342 0.48415 0.64136 0.0
C374 C 0.42777 0.45655 0.63863 0.0
C375 C 0.44297 0.49861 0.68199 0.0
C376 C 0.44848 0.52757 0.68727 0.0
C377 C 0.42807 0.53455 0.67568 0.0
C378 C 0.43363 0.56195 0.68002 0.0
C379 C 0.4595 0.58255 0.69609 0.0
C380 C 0.47986 0.57581 0.70781 0.0
C381 C 0.47443 0.54847 0.70349 0.0
H382 H 0.46381 0.60373 0.69953 0.0
H383 H 0.42222 0.34291 0.64905 0.0
H384 H 0.19798 0.50179 0.05516 0.0
H385 H 0.23783 0.5098 0.10153 0.0
H386 H 0.20549 0.53617 0.20932 0.0
H387 H 0.16601 0.52863 0.16334 0.0
H388 H 0.25852 0.5729 0.19518 0.0
H389 H 0.20387 0.47394 0.21365 0.0
H390 H 0.17679 0.42506 0.18946 0.0
H391 H 0.24899 0.43312 0.12296 0.0
H392 H 0.27642 0.4822 0.14626 0.0
H393 H 0.35118 0.53957 0.34991 0.0
H394 H 0.30712 0.52531 0.31115 0.0
H395 H 0.35102 0.58827 0.21082 0.0
H396 H 0.39509 0.60278 0.24929 0.0
H397 H 0.29031 0.50521 0.22654 0.0
H398 H 0.30988 0.61512 0.17992 0.0
H399 H 0.33497 0.66296 0.20928 0.0
H400 H 0.32867 0.63081 0.34171 0.0
H401 H 0.30322 0.58279 0.31324 0.0
C402 C 0.1992 0.50895 0.08892 0.0
C403 C 0.17893 0.51476 0.10541 0.0
C404 C 0.22193 0.51345 0.11542 0.0
C405 C 0.22461 0.52359 0.15889 0.0
C406 C 0.20392 0.52851 0.1758 0.0
C407 C 0.18133 0.52413 0.14941 0.0
C408 C 0.24974 0.53076 0.18598 0.0
C409 C 0.26542 0.55806 0.20203 0.0
C410 C 0.25856 0.51132 0.19544 0.0
C411 C 0.24212 0.48183 0.18135 0.0
C412 C 0.21391 0.46537 0.19355 0.0
C413 C 0.19851 0.43761 0.18006 0.0
C414 C 0.21114 0.42601 0.15459 0.0
C415 C 0.23923 0.44214 0.14265 0.0
C416 C 0.25472 0.46992 0.15602 0.0
C417 C 0.35147 0.55049 0.31972 0.0
C418 C 0.37667 0.5724 0.3028 0.0
C419 C 0.32629 0.54219 0.2975 0.0
C420 C 0.32583 0.55582 0.25829 0.0
C421 C 0.35091 0.57766 0.2413 0.0
C422 C 0.37608 0.58589 0.26333 0.0
C423 C 0.29913 0.54738 0.2351 0.0
C424 C 0.28328 0.51996 0.21968 0.0
C425 C 0.28984 0.56656 0.2268 0.0
C426 C 0.3049 0.59537 0.24434 0.0
C427 C 0.31377 0.61826 0.21532 0.0
C428 C 0.32806 0.64541 0.2318 0.0
C429 C 0.33349 0.64993 0.27731 0.0
C430 C 0.32456 0.62729 0.30645 0.0
C431 C 0.31023 0.6001 0.29014 0.0
H432 H 0.34457 0.67096 0.29 0.0
H433 H 0.19919 0.40452 0.14419 0.0
H434 H 0.65012 0.16377 0.33019 0.0
H435 H 0.68595 0.20343 0.37143 0.0
H436 H 0.72054 0.24744 0.24801 0.0
H437 H 0.68554 0.20709 0.20652 0.0
H438 H 0.76099 0.26031 0.30381 0.0
H439 H 0.67317 0.25732 0.31166 0.0
H440 H 0.62275 0.23628 0.32621 0.0
H441 H 0.63603 0.22494 0.46375 0.0
H442 H 0.68652 0.24558 0.44988 0.0
H443 H 0.82019 0.39812 0.39204 0.0
H444 H 0.7916 0.35478 0.35161 0.0
H445 H 0.77122 0.3085 0.47492 0.0
H446 H 0.79995 0.3517 0.5157 0.0
H447 H 0.72468 0.2968 0.42015 0.0
H448 H 0.81494 0.30389 0.409 0.0
H449 H 0.86508 0.32766 0.39073 0.0
H450 H 0.8465 0.33507 0.25422 0.0
H451 H 0.79625 0.31169 0.27181 0.0
C452 C 0.66568 0.18174 0.31188 0.0
C453 C 0.66495 0.18254 0.26525 0.0
C454 C 0.68603 0.20445 0.33545 0.0
C455 C 0.70543 0.22877 0.31289 0.0
C456 C 0.70568 0.229 0.26617 0.0
C457 C 0.6857 0.20596 0.24249 0.0
C458 C 0.72424 0.25439 0.33803 0.0
C459 C 0.75299 0.26842 0.32893 0.0
C460 C 0.71389 0.26495 0.37109 0.0
C461 C 0.68357 0.25275 0.37963 0.0
C462 C 0.66531 0.25018 0.34495 0.0
C463 C 0.63672 0.23835 0.35308 0.0
C464 C 0.62618 0.22921 0.39586 0.0
C465 C 0.64422 0.23198 0.43062 0.0
C466 C 0.67283 0.24377 0.42266 0.0
C467 C 0.80971 0.37872 0.41058 0.0
C468 C 0.8123 0.37835 0.4571 0.0
C469 C 0.79352 0.35399 0.38739 0.0
C470 C 0.7795 0.3285 0.41033 0.0
C471 C 0.78199 0.32801 0.4567 0.0
C472 C 0.79845 0.35269 0.47988 0.0
C473 C 0.76128 0.30248 0.38608 0.0
C474 C 0.73262 0.28852 0.39522 0.0
C475 C 0.77166 0.2924 0.3525 0.0
C476 C 0.80185 0.30626 0.34182 0.0
C477 C 0.82156 0.31079 0.37516 0.0
C478 C 0.85 0.32415 0.36491 0.0
C479 C 0.85898 0.33293 0.32137 0.0
C480 C 0.83952 0.32829 0.28795 0.0
C481 C 0.81106 0.31495 0.29803 0.0
H482 H 0.88101 0.34327 0.3135 0.0
H483 H 0.60405 0.22004 0.40208 0.0
H484 H 0.44813 0.81282 0.70165 0.0
H485 H 0.46787 0.78693 0.66613 0.0
H486 H 0.41967 0.77805 0.54793 0.0
H487 H 0.40043 0.80426 0.58253 0.0
H488 H 0.4447 0.7356 0.63706 0.0
H489 H 0.45294 0.77959 0.45701 0.0
H490 H 0.46429 0.82428 0.42141 0.0
H491 H 0.51148 0.86849 0.53639 0.0
H492 H 0.50066 0.82414 0.57249 0.0
H493 H 0.43001 0.63843 0.47884 0.0
H494 H 0.42872 0.67286 0.52674 0.0
H495 H 0.51095 0.73465 0.48168 0.0
H496 H 0.51148 0.70042 0.43125 0.0
H497 H 0.48193 0.75746 0.48323 0.0
H498 H 0.49634 0.70344 0.59191 0.0
H499 H 0.4887 0.66087 0.63094 0.0
H500 H 0.40558 0.64125 0.66534 0.0
H501 H 0.41253 0.68343 0.62603 0.0
C502 C 0.44183 0.80542 0.66802 0.0
C503 C 0.42278 0.8107 0.64486 0.0
C504 C 0.45313 0.79065 0.64781 0.0
C505 C 0.44562 0.78098 0.60412 0.0
C506 C 0.42632 0.7859 0.58126 0.0
C507 C 0.41518 0.80075 0.60126 0.0
C508 C 0.45689 0.76475 0.58254 0.0
C509 C 0.45313 0.74046 0.60361 0.0
C510 C 0.46881 0.77167 0.53954 0.0
C511 C 0.47584 0.79849 0.51755 0.0
C512 C 0.46588 0.79885 0.47459 0.0
C513 C 0.47217 0.82414 0.45436 0.0
C514 C 0.48852 0.84921 0.47668 0.0
C515 C 0.49871 0.84906 0.51921 0.0
C516 C 0.49247 0.82385 0.53959 0.0
C517 C 0.44794 0.65929 0.47943 0.0
C518 C 0.47088 0.66676 0.45142 0.0
C519 C 0.44731 0.67895 0.50721 0.0
C520 C 0.47002 0.70629 0.50882 0.0
C521 C 0.4932 0.71369 0.48125 0.0
C522 C 0.49352 0.69415 0.45249 0.0
C523 C 0.46849 0.72743 0.53688 0.0
C524 C 0.4741 0.75275 0.51704 0.0
C525 C 0.45908 0.72183 0.58157 0.0
C526 C 0.45495 0.69659 0.60583 0.0
C527 C 0.47639 0.68999 0.60763 0.0
C528 C 0.47218 0.66592 0.62981 0.0
C529 C 0.44665 0.64837 0.65053 0.0
C530 C 0.42533 0.65488 0.64928 0.0
C531 C 0.42942 0.67889 0.62713 0.0
H532 H 0.44336 0.62971 0.66756 0.0
H533 H 0.49332 0.86875 0.461 0.0
H534 H 0.62804 0.45721 0.83924 0.0
H535 H 0.67178 0.47439 0.7983 0.0
H536 H 0.63078 0.40598 0.70671 0.0
H537 H 0.58691 0.38927 0.74646 0.0
H538 H 0.70408 0.45456 0.78353 0.0
H539 H 0.6569 0.42325 0.60488 0.0
H540 H 0.61753 0.42049 0.56191 0.0
H541 H 0.61528 0.48087 0.6476 0.0
H542 H 0.65488 0.4843 0.69069 0.0
H543 H 0.7915 0.43278 0.64495 0.0
H544 H 0.75364 0.43135 0.68771 0.0
H545 H 0.75906 0.49951 0.60948 0.0
H546 H 0.79652 0.50035 0.56512 0.0
H547 H 0.70751 0.46267 0.61897 0.0
H548 H 0.7821 0.50827 0.72021 0.0
H549 H 0.82349 0.51704 0.76393 0.0
H550 H 0.77487 0.4398 0.83432 0.0
H551 H 0.73326 0.43034 0.7906 0.0
C552 C 0.62836 0.44585 0.81035 0.0
C553 C 0.60397 0.42196 0.79594 0.0
C554 C 0.65337 0.45571 0.78697 0.0
C555 C 0.65448 0.44179 0.74893 0.0
C556 C 0.63029 0.41754 0.73522 0.0
C557 C 0.60524 0.40788 0.7582 0.0
C558 C 0.68101 0.452 0.72414 0.0
C559 C 0.70489 0.45652 0.74758 0.0
C560 C 0.6824 0.45557 0.67736 0.0
C561 C 0.65876 0.45387 0.65122 0.0
C562 C 0.64812 0.43605 0.61441 0.0
C563 C 0.62573 0.43435 0.59006 0.0
C564 C 0.61387 0.45044 0.60208 0.0
C565 C 0.62442 0.46834 0.6384 0.0
C566 C 0.64682 0.47015 0.66284 0.0
C567 C 0.78483 0.44764 0.63695 0.0
C568 C 0.79708 0.46675 0.60168 0.0
C569 C 0.76326 0.44692 0.66169 0.0
C570 C 0.75382 0.46569 0.65247 0.0
C571 C 0.76607 0.4849 0.61735 0.0
C572 C 0.78748 0.48538 0.59207 0.0
C573 C 0.73021 0.46403 0.6782 0.0
C574 C 0.70686 0.46114 0.65496 0.0
C575 C 0.72963 0.46292 0.72528 0.0
C576 C 0.75457 0.46854 0.75191 0.0
C577 C 0.78026 0.49306 0.74482 0.0
C578 C 0.80376 0.49817 0.76963 0.0
C579 C 0.80182 0.47897 0.80184 0.0
C580 C 0.77635 0.45465 0.80937 0.0
C581 C 0.75278 0.44943 0.78463 0.0
H582 H 0.82005 0.48296 0.821 0.0
H583 H 0.59652 0.44907 0.58321 0.0
H584 H 0.28701 0.77098 0.71172 0.0
H585 H 0.25046 0.73222 0.75421 0.0
H586 H 0.28676 0.77615 0.87637 0.0
H587 H 0.32413 0.81422 0.83406 0.0
H588 H 0.27769 0.72723 0.88564 0.0
H589 H 0.22111 0.76374 0.83266 0.0
H590 H 0.20035 0.7814 0.77784 0.0
H591 H 0.1618 0.70274 0.71079 0.0
H592 H 0.18263 0.68471 0.76487 0.0
H593 H 0.16697 0.62454 0.01782 0.0
H594 H 0.19545 0.669 0.97913 0.0
H595 H 0.18 0.62584 0.85446 0.0
H596 H 0.15172 0.58129 0.89277 0.0
H597 H 0.17645 0.67608 0.85095 0.0
H598 H 0.23771 0.64249 0.90307 0.0
H599 H 0.25782 0.62574 0.9606 0.0
H600 H 0.28661 0.70168 0.03316 0.0
H601 H 0.26631 0.71871 0.97632 0.0
C602 C 0.28689 0.77252 0.74759 0.0
C603 C 0.30845 0.79549 0.76965 0.0
C604 C 0.26589 0.75042 0.7719 0.0
C605 C 0.26563 0.75129 0.81861 0.0
C606 C 0.28653 0.77488 0.84043 0.0
C607 C 0.30784 0.79665 0.81624 0.0
C608 C 0.2452 0.72668 0.84487 0.0
C609 C 0.25549 0.7165 0.87854 0.0
C610 C 0.21622 0.7122 0.83527 0.0
C611 C 0.20364 0.72295 0.80265 0.0
C612 C 0.20838 0.75027 0.80604 0.0
C613 C 0.19656 0.76034 0.77512 0.0
C614 C 0.17982 0.74323 0.7408 0.0
C615 C 0.17479 0.71598 0.73738 0.0
C616 C 0.18657 0.70582 0.76819 0.0
C617 C 0.16941 0.62452 0.98212 0.0
C618 C 0.15729 0.59938 0.95839 0.0
C619 C 0.18567 0.64991 0.96012 0.0
C620 C 0.18984 0.65059 0.91405 0.0
C621 C 0.17693 0.62568 0.89004 0.0
C622 C 0.16095 0.60027 0.91204 0.0
C623 C 0.20914 0.67701 0.89119 0.0
C624 C 0.19864 0.6873 0.85819 0.0
C625 C 0.23786 0.69189 0.90175 0.0
C626 C 0.25022 0.68172 0.93573 0.0
C627 C 0.24812 0.65551 0.93149 0.0
C628 C 0.25959 0.64599 0.96393 0.0
C629 C 0.27341 0.6626 0.00059 0.0
C630 C 0.27586 0.68881 0.0048 0.0
C631 C 0.26439 0.69841 0.97247 0.0
H632 H 0.28228 0.65519 0.02566 0.0
H633 H 0.17069 0.75106 0.7169 0.0
H634 H 0.48833 0.286 0.9028 0.0
H635 H 0.49228 0.25243 0.95128 0.0
H636 H 0.54028 0.31768 0.04517 0.0
H637 H 0.53658 0.3513 -0.00286 0.0
H638 H 0.56616 0.28943 0.02362 0.0
H639 H 0.47531 0.26812 0.07103 0.0
H640 H 0.42603 0.25541 0.06208 0.0
H641 H 0.40761 0.17785 0.00283 0.0
H642 H 0.45689 0.19028 0.01084 0.0
H643 H 0.53351 0.17273 0.19533 0.0
H644 H 0.52011 0.20408 0.15904 0.0
H645 H 0.56002 0.20113 0.03806 0.0
H646 H 0.57356 0.17009 0.07373 0.0
H647 H 0.48908 0.19979 0.08152 0.0
H648 H 0.59635 0.26684 -0.00288 0.0
H649 H 0.64566 0.28051 0.0097 0.0
H650 H 0.63113 0.26947 0.15045 0.0
H651 H 0.58186 0.25614 0.13877 0.0
C652 C 0.49943 0.29313 0.93401 0.0
C653 C 0.51233 0.32138 0.94589 0.0
C654 C 0.50156 0.2739 0.96176 0.0
C655 C 0.51655 0.2826 0.00182 0.0
C656 C 0.52867 0.31057 0.01434 0.0
C657 C 0.52651 0.32975 -0.01321 0.0
C658 C 0.52154 0.26313 0.029 0.0
C659 C 0.54927 0.26989 0.03638 0.0
C660 C 0.49951 0.2378 0.04609 0.0
C661 C 0.46986 0.23025 0.04118 0.0
C662 C 0.46081 0.24846 0.05573 0.0
C663 C 0.43286 0.24128 0.0509 0.0
C664 C 0.41371 0.21587 0.0318 0.0
C665 C 0.42247 0.19755 0.01758 0.0
C666 C 0.4504 0.20463 0.0223 0.0
C667 C 0.53927 0.17862 0.16092 0.0
C668 C 0.55487 0.16912 0.1376 0.0
C669 C 0.53148 0.1964 0.14022 0.0
C670 C 0.53935 0.20509 0.09609 0.0
C671 C 0.55403 0.19488 0.07233 0.0
C672 C 0.56176 0.17713 0.09285 0.0
C673 C 0.53362 0.22596 0.07521 0.0
C674 C 0.50586 0.21943 0.06891 0.0
C675 C 0.55561 0.25174 0.05951 0.0
C676 C 0.58536 0.26026 0.06699 0.0
C677 C 0.60372 0.26747 0.03076 0.0
C678 C 0.63166 0.27514 0.03774 0.0
C679 C 0.6415 0.27578 0.08083 0.0
C680 C 0.62346 0.26887 0.11707 0.0
C681 C 0.59552 0.26123 0.11029 0.0
H682 H 0.66312 0.28168 0.08615 0.0
H683 H 0.39208 0.21035 0.02811 0.0
loop_
_geom_bond_atom_site_label_1
_geom_bond_atom_site_label_2
_geom_bond_distance
_geom_bond_site_symmetry_2
_ccdc_geom_bond_type
C0 O1 1.306 . S
C0 O3 1.160 . S
O1 C0 1.306 . S
O1 Cd2 2.228 . S
Cd2 O1 2.228 . S
Cd2 O6 2.273 . S
Cd2 O10 2.277 . S
O3 C0 1.160 . S
O3 Cd4 2.203 . S
Cd4 O3 2.203 . S
Cd4 O6 2.411 . S
Cd4 O7 2.333 . S
Cd4 O8 2.352 . S
Cd4 O12 2.277 . S
Cd4 O13 2.356 . S
C5 O10 1.209 . S
C5 O12 1.226 . S
O6 Cd2 2.273 . S
O6 Cd4 2.411 . S
O6 C9 1.320 . S
O7 Cd4 2.333 . S
O7 C9 1.214 . S
O8 Cd4 2.352 . S
O8 C11 1.258 . S
C9 O6 1.320 . S
C9 O7 1.214 . S
O10 Cd2 2.277 . S
O10 C5 1.209 . S
C11 O8 1.258 . S
C11 O13 1.282 . S
O12 Cd4 2.277 . S
O12 C5 1.226 . S
O13 Cd4 2.356 . S
O13 C11 1.282 . S
C14 O15 1.306 . S
C14 O17 1.160 . S
O15 C14 1.306 . S
O15 Cd16 2.228 . S
Cd16 O15 2.228 . S
Cd16 O20 2.273 . S
Cd16 O24 2.277 . S
O17 C14 1.160 . S
O17 Cd18 2.203 . S
Cd18 O17 2.203 . S
Cd18 O20 2.411 . S
Cd18 O21 2.333 . S
Cd18 O22 2.352 . S
Cd18 O26 2.277 . S
Cd18 O27 2.356 . S
C19 O24 1.209 . S
C19 O26 1.226 . S
O20 Cd16 2.273 . S
O20 Cd18 2.411 . S
O20 C23 1.320 . S
O21 Cd18 2.333 . S
O21 C23 1.214 . S
O22 Cd18 2.352 . S
O22 C25 1.258 . S
C23 O20 1.320 . S
C23 O21 1.214 . S
O24 Cd16 2.277 . S
O24 C19 1.209 . S
C25 O22 1.258 . S
C25 O27 1.282 . S
O26 Cd18 2.277 . S
O26 C19 1.226 . S
O27 Cd18 2.356 . S
O27 C25 1.282 . S
C28 O29 1.306 . S
C28 O31 1.160 . S
O29 C28 1.306 . S
O29 Cd30 2.228 . S
Cd30 O29 2.228 . S
Cd30 O34 2.273 . S
Cd30 O38 2.277 . S
O31 C28 1.160 . S
O31 Cd32 2.203 . S
Cd32 O31 2.203 . S
Cd32 O34 2.411 . S
Cd32 O35 2.333 . S
Cd32 O36 2.352 . S
Cd32 O40 2.277 . S
Cd32 O41 2.356 . S
C33 O38 1.209 . S
C33 O40 1.226 . S
O34 Cd30 2.273 . S
O34 Cd32 2.411 . S
O34 C37 1.320 . S
O35 Cd32 2.333 . S
O35 C37 1.214 . S
O36 Cd32 2.352 . S
O36 C39 1.258 . S
C37 O34 1.320 . S
C37 O35 1.214 . S
O38 Cd30 2.277 . S
O38 C33 1.209 . S
C39 O36 1.258 . S
C39 O41 1.282 . S
O40 Cd32 2.277 . S
O40 C33 1.226 . S
O41 Cd32 2.356 . S
O41 C39 1.282 . S
C42 O43 1.306 . S
C42 O45 1.160 . S
O43 C42 1.306 . S
O43 Cd44 2.228 . S
Cd44 O43 2.228 . S
Cd44 O48 2.273 . S
Cd44 O52 2.277 . S
O45 C42 1.160 . S
O45 Cd46 2.203 . S
Cd46 O45 2.203 . S
Cd46 O48 2.411 . S
Cd46 O49 2.333 . S
Cd46 O50 2.352 . S
Cd46 O54 2.277 . S
Cd46 O55 2.356 . S
C47 O52 1.209 . S
C47 O54 1.226 . S
O48 Cd44 2.273 . S
O48 Cd46 2.411 . S
O48 C51 1.320 . S
O49 Cd46 2.333 . S
O49 C51 1.214 . S
O50 Cd46 2.352 . S
O50 C53 1.258 . S
C51 O48 1.320 . S
C51 O49 1.214 . S
O52 Cd44 2.277 . S
O52 C47 1.209 . S
C53 O50 1.258 . S
C53 O55 1.282 . S
O54 Cd46 2.277 . S
O54 C47 1.226 . S
O55 Cd46 2.356 . S
O55 C53 1.282 . S
C56 O57 1.306 . S
C56 O59 1.160 . S
O57 C56 1.306 . S
O57 Cd58 2.228 . S
Cd58 O57 2.228 . S
Cd58 O62 2.273 . S
Cd58 O66 2.277 . S
O59 C56 1.160 . S
O59 Cd60 2.203 . S
Cd60 O59 2.203 . S
Cd60 O62 2.411 . S
Cd60 O63 2.333 . S
Cd60 O64 2.352 . S
Cd60 O68 2.277 . S
Cd60 O69 2.356 . S
C61 O66 1.209 . S
C61 O68 1.226 . S
O62 Cd58 2.273 . S
O62 Cd60 2.411 . S
O62 C65 1.320 . S
O63 Cd60 2.333 . S
O63 C65 1.214 . S
O64 Cd60 2.352 . S
O64 C67 1.258 . S
C65 O62 1.320 . S
C65 O63 1.214 . S
O66 Cd58 2.277 . S
O66 C61 1.209 . S
C67 O64 1.258 . S
C67 O69 1.282 . S
O68 Cd60 2.277 . S
O68 C61 1.226 . S
O69 Cd60 2.356 . S
O69 C67 1.282 . S
C70 O71 1.306 . S
C70 O73 1.160 . S
O71 C70 1.306 . S
O71 Cd72 2.228 . S
Cd72 O71 2.228 . S
Cd72 O76 2.273 . S
Cd72 O80 2.277 . S
O73 C70 1.160 . S
O73 Cd74 2.203 . S
Cd74 O73 2.203 . S
Cd74 O76 2.411 . S
Cd74 O77 2.333 . S
Cd74 O78 2.352 . S
Cd74 O82 2.277 . S
Cd74 O83 2.356 . S
C75 O80 1.209 . S
C75 O82 1.226 . S
O76 Cd72 2.273 . S
O76 Cd74 2.411 . S
O76 C79 1.320 . S
O77 Cd74 2.333 . S
O77 C79 1.214 . S
O78 Cd74 2.352 . S
O78 C81 1.258 . S
C79 O76 1.320 . S
C79 O77 1.214 . S
O80 Cd72 2.277 . S
O80 C75 1.209 . S
C81 O78 1.258 . S
C81 O83 1.282 . S
O82 Cd74 2.277 . S
O82 C75 1.226 . S
O83 Cd74 2.356 . S
O83 C81 1.282 . S
H84 C102 0.951 . S
H85 C104 0.951 . S
H86 C106 0.950 . S
H87 C107 0.950 . S
H88 C109 0.950 . S
H89 C112 0.950 . S
H90 C113 0.966 . S
H91 C115 0.950 . S
H92 C116 0.950 . S
H93 C117 0.951 . S
H94 C119 0.951 . S
H95 C121 0.950 . S
H96 C122 0.950 . S
H97 C124 0.950 . S
H98 C127 0.950 . S
H99 C128 0.950 . S
H100 C130 0.950 . S
H101 C131 0.950 . S
C102 H84 0.951 . S
C102 C103 1.366 . S
C102 C104 1.388 . S
C103 C102 1.366 . S
C103 C107 1.385 . S
C104 H85 0.951 . S
C104 C102 1.388 . S
C104 C105 1.366 . S
C105 C104 1.366 . S
C105 C106 1.414 . S
C105 C108 1.499 . S
C106 H86 0.950 . S
C106 C105 1.414 . S
C106 C107 1.374 . S
C107 H87 0.950 . S
C107 C103 1.385 . S
C107 C106 1.374 . S
C108 C105 1.499 . S
C108 C109 1.373 . S
C108 C110 1.389 1_455 S
C109 H88 0.950 . S
C109 C108 1.373 . S
C109 C125 1.377 . S
C110 C108 1.389 1_655 S
C110 C111 1.524 . S
C110 C124 1.377 . S
C111 C110 1.524 . S
C111 C112 1.397 . S
C111 C116 1.363 . S
C112 H89 0.950 . S
C112 C111 1.397 . S
C112 C113 1.314 1_556 S
C113 H90 0.966 . S
C113 C112 1.314 1_554 S
C113 C114 1.292 . S
C114 C113 1.292 . S
C114 C115 1.524 1_554 S
C114 H133 0.913 . S
C115 H91 0.950 . S
C115 C114 1.524 1_556 S
C115 C116 1.415 . S
C116 H92 0.950 . S
C116 C111 1.363 . S
C116 C115 1.415 . S
C117 H93 0.951 . S
C117 C118 1.366 . S
C117 C119 1.388 . S
C118 C117 1.366 . S
C118 C122 1.385 . S
C119 H94 0.951 . S
C119 C117 1.388 . S
C119 C120 1.366 . S
C120 C119 1.366 . S
C120 C121 1.414 . S
C120 C123 1.499 . S
C121 H95 0.950 . S
C121 C120 1.414 . S
C121 C122 1.374 . S
C122 H96 0.950 . S
C122 C118 1.385 . S
C122 C121 1.374 . S
C123 C120 1.499 . S
C123 C124 1.373 . S
C123 C125 1.389 1_655 S
C124 H97 0.950 . S
C124 C110 1.377 . S
C124 C123 1.373 . S
C125 C109 1.377 . S
C125 C123 1.389 1_455 S
C125 C126 1.524 . S
C126 C125 1.524 . S
C126 C127 1.397 . S
C126 C131 1.363 . S
C127 H98 0.950 . S
C127 C126 1.397 . S
C127 C128 1.334 . S
C128 H99 0.950 . S
C128 C127 1.334 . S
C128 C129 1.287 . S
C129 C128 1.287 . S
C129 C130 1.524 . S
C129 H132 0.999 . S
C130 H100 0.950 . S
C130 C129 1.524 . S
C130 C131 1.415 . S
C131 H101 0.950 . S
C131 C126 1.363 . S
C131 C130 1.415 . S
H132 C129 0.999 . S
H133 C114 0.913 . S
H134 C152 0.951 . S
H135 C154 0.951 . S
H136 C156 0.950 . S
H137 C157 0.950 . S
H138 C159 0.950 . S
H139 C162 0.950 . S
H140 C163 0.950 . S
H141 C165 0.950 . S
H142 C166 0.954 . S
H143 C167 0.951 . S
H144 C169 0.951 . S
H145 C171 0.950 . S
H146 C172 0.950 . S
H147 C174 0.950 . S
H148 C177 0.950 . S
H149 C178 0.950 . S
H150 C180 0.938 . S
H151 C181 0.950 . S
C152 H134 0.951 . S
C152 C153 1.366 . S
C152 C154 1.388 . S
C153 C152 1.366 . S
C153 C157 1.385 . S
C154 H135 0.951 . S
C154 C152 1.388 . S
C154 C155 1.366 . S
C155 C154 1.366 . S
C155 C156 1.414 . S
C155 C158 1.499 . S
C156 H136 0.950 . S
C156 C155 1.414 . S
C156 C157 1.374 . S
C157 H137 0.950 . S
C157 C153 1.385 . S
C157 C156 1.374 . S
C158 C155 1.499 . S
C158 C159 1.373 . S
C158 C160 1.389 1_565 S
C159 H138 0.950 . S
C159 C158 1.373 . S
C159 C175 1.377 1_566 S
C160 C158 1.389 1_545 S
C160 C161 1.524 . S
C160 C174 1.377 1_556 S
C161 C160 1.524 . S
C161 C162 1.397 . S
C161 C166 1.363 . S
C162 H139 0.950 . S
C162 C161 1.397 . S
C162 C163 1.334 . S
C163 H140 0.950 . S
C163 C162 1.334 . S
C163 C164 1.287 . S
C164 C163 1.287 . S
C164 C165 1.524 . S
C164 H183 0.913 . S
C165 H141 0.950 . S
C165 C164 1.524 . S
C165 C166 1.415 . S
C166 H142 0.954 . S
C166 C161 1.363 . S
C166 C165 1.415 . S
C167 H143 0.951 . S
C167 C168 1.366 . S
C167 C169 1.388 . S
C168 C167 1.366 . S
C168 C172 1.385 . S
C169 H144 0.951 . S
C169 C167 1.388 . S
C169 C170 1.366 . S
C170 C169 1.366 . S
C170 C171 1.414 . S
C170 C173 1.499 . S
C171 H145 0.950 . S
C171 C170 1.414 . S
C171 C172 1.374 . S
C172 H146 0.950 . S
C172 C168 1.385 . S
C172 C171 1.374 . S
C173 C170 1.499 . S
C173 C174 1.373 . S
C173 C175 1.389 . S
C174 H147 0.950 . S
C174 C160 1.377 1_554 S
C174 C173 1.373 . S
C175 C159 1.377 1_544 S
C175 C173 1.389 . S
C175 C176 1.524 . S
C176 C175 1.524 . S
C176 C177 1.397 1_545 S
C176 C181 1.363 . S
C177 H148 0.950 . S
C177 C176 1.397 1_565 S
C177 C178 1.334 . S
C178 H149 0.950 . S
C178 C177 1.334 . S
C178 C179 1.287 . S
C179 C178 1.287 . S
C179 C180 1.523 1_565 S
C179 H182 0.999 . S
C180 H150 0.938 . S
C180 C179 1.523 1_545 S
C180 C181 1.430 . S
C181 H151 0.950 . S
C181 C176 1.363 . S
C181 C180 1.430 . S
H182 C179 0.999 . S
H183 C164 0.913 . S
H184 C202 0.951 . S
H185 C204 0.951 . S
H186 C206 0.950 . S
H187 C207 0.950 . S
H188 C209 0.950 . S
H189 C212 0.950 . S
H190 C213 0.950 . S
H191 C215 0.950 . S
H192 C216 0.950 . S
H193 C217 0.951 1_556 S
H194 C219 0.951 . S
H195 C221 0.950 . S
H196 C222 0.950 . S
H197 C224 0.950 . S
H198 C227 0.950 . S
H199 C228 0.950 . S
H200 C230 0.950 . S
H201 C231 0.950 . S
C202 H184 0.951 . S
C202 C203 1.366 . S
C202 C204 1.388 . S
C203 C202 1.366 . S
C203 C207 1.385 . S
C204 H185 0.951 . S
C204 C202 1.388 . S
C204 C205 1.366 . S
C205 C204 1.366 . S
C205 C206 1.414 . S
C205 C208 1.499 . S
C206 H186 0.950 . S
C206 C205 1.414 . S
C206 C207 1.374 . S
C207 H187 0.950 . S
C207 C203 1.385 . S
C207 C206 1.374 . S
C208 C205 1.499 . S
C208 C209 1.373 . S
C208 C210 1.389 . S
C209 H188 0.950 . S
C209 C208 1.373 . S
C209 C225 1.377 . S
C210 C208 1.389 . S
C210 C211 1.524 . S
C210 C224 1.377 . S
C211 C210 1.524 . S
C211 C212 1.397 . S
C211 C216 1.363 . S
C212 H189 0.950 . S
C212 C211 1.397 . S
C212 C213 1.334 . S
C213 H190 0.950 . S
C213 C212 1.334 . S
C213 C214 1.287 . S
C214 C213 1.287 . S
C214 C215 1.524 . S
C214 H233 0.913 . S
C215 H191 0.950 . S
C215 C214 1.524 . S
C215 C216 1.415 . S
C216 H192 0.950 . S
C216 C211 1.363 . S
C216 C215 1.415 . S
C217 H193 0.951 1_554 S
C217 C218 1.366 . S
C217 C219 1.388 . S
C218 C217 1.366 . S
C218 C222 1.385 . S
C219 H194 0.951 . S
C219 C217 1.388 . S
C219 C220 1.366 . S
C220 C219 1.366 . S
C220 C221 1.414 . S
C220 C223 1.499 . S
C221 H195 0.950 . S
C221 C220 1.414 . S
C221 C222 1.374 . S
C222 H196 0.950 . S
C222 C218 1.385 . S
C222 C221 1.374 . S
C223 C220 1.499 . S
C223 C224 1.373 . S
C223 C225 1.389 . S
C224 H197 0.950 . S
C224 C210 1.377 . S
C224 C223 1.373 . S
C225 C209 1.377 . S
C225 C223 1.389 . S
C225 C226 1.524 . S
C226 C225 1.524 . S
C226 C227 1.397 . S
C226 C231 1.363 . S
C227 H198 0.950 . S
C227 C226 1.397 . S
C227 C228 1.334 . S
C228 H199 0.950 . S
C228 C227 1.334 . S
C228 C229 1.287 . S
C229 C228 1.287 . S
C229 C230 1.524 . S
C229 H232 0.999 . S
C230 H200 0.950 . S
C230 C229 1.524 . S
C230 C231 1.415 . S
C231 H201 0.950 . S
C231 C226 1.363 . S
C231 C230 1.415 . S
H232 C229 0.999 . S
H233 C214 0.913 . S
H234 C252 0.951 . S
H235 C254 0.951 . S
H236 C256 0.950 . S
H237 C257 0.950 . S
H238 C259 0.950 . S
H239 C262 0.950 . S
H240 C263 0.950 . S
H241 C265 0.950 . S
H242 C266 0.950 . S
H243 C267 0.951 . S
H244 C269 0.951 . S
H245 C271 0.950 . S
H246 C272 0.950 . S
H247 C274 0.950 . S
H248 C277 0.950 . S
H249 C278 0.950 . S
H250 C280 0.960 1_455 S
H251 C281 0.951 1_455 S
C252 H234 0.951 . S
C252 C253 1.366 . S
C252 C254 1.388 . S
C253 C252 1.366 . S
C253 C257 1.385 . S
C254 H235 0.951 . S
C254 C252 1.388 . S
C254 C255 1.366 . S
C255 C254 1.366 . S
C255 C256 1.414 . S
C255 C258 1.499 . S
C256 H236 0.950 . S
C256 C255 1.414 . S
C256 C257 1.374 . S
C257 H237 0.950 . S
C257 C253 1.385 . S
C257 C256 1.374 . S
C258 C255 1.499 . S
C258 C259 1.373 . S
C258 C260 1.389 . S
C259 H238 0.950 . S
C259 C258 1.373 . S
C259 C275 1.377 . S
C260 C258 1.389 . S
C260 C261 1.524 . S
C260 C274 1.377 1_655 S
C261 C260 1.524 . S
C261 C262 1.397 1_655 S
C261 C266 1.363 . S
C262 H239 0.950 . S
C262 C261 1.397 1_455 S
C262 C263 1.334 . S
C263 H240 0.950 . S
C263 C262 1.334 . S
C263 C264 1.287 . S
C264 C263 1.287 . S
C264 C265 1.524 1_455 S
C264 H283 0.913 . S
C265 H241 0.950 . S
C265 C264 1.524 1_655 S
C265 C266 1.415 . S
C266 H242 0.950 . S
C266 C261 1.363 . S
C266 C265 1.415 . S
C267 H243 0.951 . S
C267 C268 1.366 . S
C267 C269 1.388 . S
C268 C267 1.366 . S
C268 C272 1.385 . S
C269 H244 0.951 . S
C269 C267 1.388 . S
C269 C270 1.366 . S
C270 C269 1.366 . S
C270 C271 1.414 . S
C270 C273 1.499 . S
C271 H245 0.950 . S
C271 C270 1.414 . S
C271 C272 1.374 . S
C272 H246 0.950 . S
C272 C268 1.385 . S
C272 C271 1.374 . S
C273 C270 1.499 . S
C273 C274 1.373 . S
C273 C275 1.389 1_455 S
C274 H247 0.950 . S
C274 C260 1.377 1_455 S
C274 C273 1.373 . S
C275 C259 1.377 . S
C275 C273 1.389 1_655 S
C275 C276 1.524 . S
C276 C275 1.524 . S
C276 C277 1.397 . S
C276 C281 1.365 . S
C277 H248 0.950 . S
C277 C276 1.397 . S
C277 C278 1.334 . S
C278 H249 0.950 . S
C278 C277 1.334 . S
C278 C279 1.287 . S
C279 C278 1.287 . S
C279 C280 1.524 . S
C279 H282 0.999 . S
C280 H250 0.960 1_655 S
C280 C279 1.524 . S
C280 C281 1.412 . S
C281 H251 0.951 1_655 S
C281 C276 1.365 . S
C281 C280 1.412 . S
H282 C279 0.999 . S
H283 C264 0.913 . S
H284 C302 0.951 . S
H285 C304 0.951 . S
H286 C306 0.950 . S
H287 C307 0.950 . S
H288 C309 0.950 . S
H289 C312 0.950 . S
H290 C313 0.950 . S
H291 C315 0.950 . S
H292 C316 0.950 . S
H293 C317 0.951 . S
H294 C319 0.951 . S
H295 C321 0.950 . S
H296 C322 0.950 . S
H297 C324 0.950 . S
H298 C327 0.950 . S
H299 C328 0.950 . S
H300 C330 0.950 . S
H301 C331 0.950 . S
C302 H284 0.951 . S
C302 C303 1.366 . S
C302 C304 1.388 . S
C303 C302 1.366 . S
C303 C307 1.385 . S
C304 H285 0.951 . S
C304 C302 1.388 . S
C304 C305 1.366 . S
C305 C304 1.366 . S
C305 C306 1.414 . S
C305 C308 1.499 . S
C306 H286 0.950 . S
C306 C305 1.414 . S
C306 C307 1.374 . S
C307 H287 0.950 . S
C307 C303 1.385 . S
C307 C306 1.374 . S
C308 C305 1.499 . S
C308 C309 1.373 . S
C308 C310 1.389 . S
C309 H288 0.950 . S
C309 C308 1.373 . S
C309 C325 1.377 1_545 S
C310 C308 1.389 . S
C310 C311 1.522 . S
C310 C324 1.379 1_545 S
C311 C310 1.522 . S
C311 C312 1.397 . S
C311 C316 1.363 1_545 S
C312 H289 0.950 . S
C312 C311 1.397 . S
C312 C313 1.334 . S
C313 H290 0.950 . S
C313 C312 1.334 . S
C313 C314 1.287 . S
C314 C313 1.287 . S
C314 C315 1.524 1_545 S
C314 H333 0.913 . S
C315 H291 0.950 . S
C315 C314 1.524 1_565 S
C315 C316 1.415 . S
C316 H292 0.950 . S
C316 C311 1.363 1_565 S
C316 C315 1.415 . S
C317 H293 0.951 . S
C317 C318 1.366 . S
C317 C319 1.388 . S
C318 C317 1.366 . S
C318 C322 1.385 . S
C319 H294 0.951 . S
C319 C317 1.388 . S
C319 C320 1.366 . S
C320 C319 1.366 . S
C320 C321 1.414 . S
C320 C323 1.499 . S
C321 H295 0.950 . S
C321 C320 1.414 . S
C321 C322 1.374 . S
C322 H296 0.950 . S
C322 C318 1.385 . S
C322 C321 1.374 . S
C323 C320 1.499 . S
C323 C324 1.373 . S
C323 C325 1.389 . S
C324 H297 0.950 . S
C324 C310 1.379 1_565 S
C324 C323 1.373 . S
C325 C309 1.377 1_565 S
C325 C323 1.389 . S
C325 C326 1.524 . S
C326 C325 1.524 . S
C326 C327 1.397 . S
C326 C331 1.363 1_565 S
C327 H298 0.950 . S
C327 C326 1.397 . S
C327 C328 1.334 . S
C328 H299 0.950 . S
C328 C327 1.334 . S
C328 C329 1.287 . S
C329 C328 1.287 . S
C329 C330 1.524 1_565 S
C329 H332 0.999 . S
C330 H300 0.950 . S
C330 C329 1.524 1_545 S
C330 C331 1.415 . S
C331 H301 0.950 . S
C331 C326 1.363 1_545 S
C331 C330 1.415 . S
H332 C329 0.999 . S
H333 C314 0.913 . S
H334 C352 0.951 . S
H335 C354 0.951 . S
H336 C356 0.950 . S
H337 C357 0.950 . S
H338 C359 0.950 . S
H339 C362 0.950 . S
H340 C363 0.950 . S
H341 C365 0.950 . S
H342 C366 0.950 . S
H343 C367 0.951 . S
H344 C369 0.951 . S
H345 C371 0.950 . S
H346 C372 0.950 . S
H347 C374 0.950 . S
H348 C377 0.950 . S
H349 C378 0.950 . S
H350 C380 0.950 . S
H351 C381 0.950 . S
C352 H334 0.951 . S
C352 C353 1.366 . S
C352 C354 1.388 . S
C353 C352 1.366 . S
C353 C357 1.385 . S
C354 H335 0.951 . S
C354 C352 1.388 . S
C354 C355 1.366 . S
C355 C354 1.366 . S
C355 C356 1.414 . S
C355 C358 1.499 . S
C356 H336 0.950 . S
C356 C355 1.414 . S
C356 C357 1.374 . S
C357 H337 0.950 . S
C357 C353 1.385 . S
C357 C356 1.374 . S
C358 C355 1.499 . S
C358 C359 1.373 . S
C358 C360 1.389 . S
C359 H338 0.950 . S
C359 C358 1.373 . S
C359 C375 1.377 . S
C360 C358 1.389 . S
C360 C361 1.524 . S
C360 C374 1.377 . S
C361 C360 1.524 . S
C361 C362 1.397 . S
C361 C366 1.363 . S
C362 H339 0.950 . S
C362 C361 1.397 . S
C362 C363 1.334 . S
C363 H340 0.950 . S
C363 C362 1.334 . S
C363 C364 1.287 . S
C364 C363 1.287 . S
C364 C365 1.524 . S
C364 H383 0.913 . S
C365 H341 0.950 . S
C365 C364 1.524 . S
C365 C366 1.415 . S
C366 H342 0.950 . S
C366 C361 1.363 . S
C366 C365 1.415 . S
C367 H343 0.951 . S
C367 C368 1.366 . S
C367 C369 1.388 . S
C368 C367 1.366 . S
C368 C372 1.385 . S
C369 H344 0.951 . S
C369 C367 1.388 . S
C369 C370 1.366 . S
C370 C369 1.366 . S
C370 C371 1.414 . S
C370 C373 1.499 . S
C371 H345 0.950 . S
C371 C370 1.414 . S
C371 C372 1.374 . S
C372 H346 0.950 . S
C372 C368 1.385 . S
C372 C371 1.374 . S
C373 C370 1.499 . S
C373 C374 1.373 . S
C373 C375 1.389 . S
C374 H347 0.950 . S
C374 C360 1.377 . S
C374 C373 1.373 . S
C375 C359 1.377 . S
C375 C373 1.389 . S
C375 C376 1.524 . S
C376 C375 1.524 . S
C376 C377 1.397 . S
C376 C381 1.363 . S
C377 H348 0.950 . S
C377 C376 1.397 . S
C377 C378 1.334 . S
C378 H349 0.950 . S
C378 C377 1.334 . S
C378 C379 1.287 . S
C379 C378 1.287 . S
C379 C380 1.524 . S
C379 H382 0.999 . S
C380 H350 0.950 . S
C380 C379 1.524 . S
C380 C381 1.415 . S
C381 H351 0.950 . S
C381 C376 1.363 . S
C381 C380 1.415 . S
H382 C379 0.999 . S
H383 C364 0.913 . S
H384 C402 0.951 . S
H385 C404 0.951 . S
H386 C406 0.950 . S
H387 C407 0.950 . S
H388 C409 0.950 . S
H389 C412 0.950 . S
H390 C413 0.950 . S
H391 C415 0.950 . S
H392 C416 0.950 . S
H393 C417 0.951 . S
H394 C419 0.951 . S
H395 C421 0.950 . S
H396 C422 0.950 . S
H397 C424 0.950 . S
H398 C427 0.950 . S
H399 C428 0.950 . S
H400 C430 0.950 . S
H401 C431 0.950 . S
C402 H384 0.951 . S
C402 C403 1.366 . S
C402 C404 1.388 . S
C403 C402 1.366 . S
C403 C407 1.385 . S
C404 H385 0.951 . S
C404 C402 1.388 . S
C404 C405 1.366 . S
C405 C404 1.366 . S
C405 C406 1.414 . S
C405 C408 1.499 . S
C406 H386 0.950 . S
C406 C405 1.414 . S
C406 C407 1.374 . S
C407 H387 0.950 . S
C407 C403 1.385 . S
C407 C406 1.374 . S
C408 C405 1.499 . S
C408 C409 1.373 . S
C408 C410 1.389 . S
C409 H388 0.950 . S
C409 C408 1.373 . S
C409 C425 1.377 . S
C410 C408 1.389 . S
C410 C411 1.524 . S
C410 C424 1.377 . S
C411 C410 1.524 . S
C411 C412 1.397 . S
C411 C416 1.363 . S
C412 H389 0.950 . S
C412 C411 1.397 . S
C412 C413 1.334 . S
C413 H390 0.950 . S
C413 C412 1.334 . S
C413 C414 1.287 . S
C414 C413 1.287 . S
C414 C415 1.524 . S
C414 H433 0.913 . S
C415 H391 0.950 . S
C415 C414 1.524 . S
C415 C416 1.415 . S
C416 H392 0.950 . S
C416 C411 1.363 . S
C416 C415 1.415 . S
C417 H393 0.951 . S
C417 C418 1.366 . S
C417 C419 1.388 . S
C418 C417 1.366 . S
C418 C422 1.385 . S
C419 H394 0.951 . S
C419 C417 1.388 . S
C419 C420 1.366 . S
C420 C419 1.366 . S
C420 C421 1.414 . S
C420 C423 1.499 . S
C421 H395 0.950 . S
C421 C420 1.414 . S
C421 C422 1.374 . S
C422 H396 0.950 . S
C422 C418 1.385 . S
C422 C421 1.374 . S
C423 C420 1.499 . S
C423 C424 1.373 . S
C423 C425 1.389 . S
C424 H397 0.950 . S
C424 C410 1.377 . S
C424 C423 1.373 . S
C425 C409 1.377 . S
C425 C423 1.389 . S
C425 C426 1.524 . S
C426 C425 1.524 . S
C426 C427 1.397 . S
C426 C431 1.363 . S
C427 H398 0.950 . S
C427 C426 1.397 . S
C427 C428 1.334 . S
C428 H399 0.950 . S
C428 C427 1.334 . S
C428 C429 1.287 . S
C429 C428 1.287 . S
C429 C430 1.524 . S
C429 H432 0.999 . S
C430 H400 0.950 . S
C430 C429 1.524 . S
C430 C431 1.415 . S
C431 H401 0.950 . S
C431 C426 1.363 . S
C431 C430 1.415 . S
H432 C429 0.999 . S
H433 C414 0.913 . S
H434 C452 0.951 . S
H435 C454 0.951 . S
H436 C456 0.950 . S
H437 C457 0.950 . S
H438 C459 0.950 . S
H439 C462 0.950 . S
H440 C463 0.950 . S
H441 C465 0.950 . S
H442 C466 0.950 . S
H443 C467 0.951 . S
H444 C469 0.951 . S
H445 C471 0.950 . S
H446 C472 0.950 . S
H447 C474 0.950 . S
H448 C477 0.950 . S
H449 C478 0.950 . S
H450 C480 0.950 . S
H451 C481 0.950 . S
C452 H434 0.951 . S
C452 C453 1.366 . S
C452 C454 1.388 . S
C453 C452 1.366 . S
C453 C457 1.385 . S
C454 H435 0.951 . S
C454 C452 1.388 . S
C454 C455 1.366 . S
C455 C454 1.366 . S
C455 C456 1.414 . S
C455 C458 1.499 . S
C456 H436 0.950 . S
C456 C455 1.414 . S
C456 C457 1.374 . S
C457 H437 0.950 . S
C457 C453 1.385 . S
C457 C456 1.374 . S
C458 C455 1.499 . S
C458 C459 1.373 . S
C458 C460 1.389 . S
C459 H438 0.950 . S
C459 C458 1.373 . S
C459 C475 1.377 . S
C460 C458 1.389 . S
C460 C461 1.524 . S
C460 C474 1.377 . S
C461 C460 1.524 . S
C461 C462 1.397 . S
C461 C466 1.363 . S
C462 H439 0.950 . S
C462 C461 1.397 . S
C462 C463 1.334 . S
C463 H440 0.950 . S
C463 C462 1.334 . S
C463 C464 1.287 . S
C464 C463 1.287 . S
C464 C465 1.524 . S
C464 H483 0.913 . S
C465 H441 0.950 . S
C465 C464 1.524 . S
C465 C466 1.415 . S
C466 H442 0.950 . S
C466 C461 1.363 . S
C466 C465 1.415 . S
C467 H443 0.951 . S
C467 C468 1.366 . S
C467 C469 1.388 . S
C468 C467 1.366 . S
C468 C472 1.385 . S
C469 H444 0.951 . S
C469 C467 1.388 . S
C469 C470 1.366 . S
C470 C469 1.366 . S
C470 C471 1.414 . S
C470 C473 1.499 . S
C471 H445 0.950 . S
C471 C470 1.414 . S
C471 C472 1.374 . S
C472 H446 0.950 . S
C472 C468 1.385 . S
C472 C471 1.374 . S
C473 C470 1.499 . S
C473 C474 1.373 . S
C473 C475 1.389 . S
C474 H447 0.950 . S
C474 C460 1.377 . S
C474 C473 1.373 . S
C475 C459 1.377 . S
C475 C473 1.389 . S
C475 C476 1.524 . S
C476 C475 1.524 . S
C476 C477 1.397 . S
C476 C481 1.363 . S
C477 H448 0.950 . S
C477 C476 1.397 . S
C477 C478 1.334 . S
C478 H449 0.950 . S
C478 C477 1.334 . S
C478 C479 1.287 . S
C479 C478 1.287 . S
C479 C480 1.524 . S
C479 H482 0.999 . S
C480 H450 0.950 . S
C480 C479 1.524 . S
C480 C481 1.415 . S
C481 H451 0.950 . S
C481 C476 1.363 . S
C481 C480 1.415 . S
H482 C479 0.999 . S
H483 C464 0.913 . S
H484 C502 0.951 . S
H485 C504 0.951 . S
H486 C506 0.950 . S
H487 C507 0.950 . S
H488 C509 0.950 . S
H489 C512 0.950 . S
H490 C513 0.950 . S
H491 C515 0.950 . S
H492 C516 0.950 . S
H493 C517 0.951 . S
H494 C519 0.951 . S
H495 C521 0.950 . S
H496 C522 0.950 . S
H497 C524 0.950 . S
H498 C527 0.950 . S
H499 C528 0.950 . S
H500 C530 0.950 . S
H501 C531 0.950 . S
C502 H484 0.951 . S
C502 C503 1.366 . S
C502 C504 1.388 . S
C503 C502 1.366 . S
C503 C507 1.385 . S
C504 H485 0.951 . S
C504 C502 1.388 . S
C504 C505 1.366 . S
C505 C504 1.366 . S
C505 C506 1.414 . S
C505 C508 1.499 . S
C506 H486 0.950 . S
C506 C505 1.414 . S
C506 C507 1.374 . S
C507 H487 0.950 . S
C507 C503 1.385 . S
C507 C506 1.374 . S
C508 C505 1.499 . S
C508 C509 1.373 . S
C508 C510 1.389 . S
C509 H488 0.950 . S
C509 C508 1.373 . S
C509 C525 1.377 . S
C510 C508 1.389 . S
C510 C511 1.524 . S
C510 C524 1.377 . S
C511 C510 1.524 . S
C511 C512 1.397 . S
C511 C516 1.363 . S
C512 H489 0.950 . S
C512 C511 1.397 . S
C512 C513 1.334 . S
C513 H490 0.950 . S
C513 C512 1.334 . S
C513 C514 1.287 . S
C514 C513 1.287 . S
C514 C515 1.524 . S
C514 H533 0.913 . S
C515 H491 0.950 . S
C515 C514 1.524 . S
C515 C516 1.415 . S
C516 H492 0.950 . S
C516 C511 1.363 . S
C516 C515 1.415 . S
C517 H493 0.951 . S
C517 C518 1.366 . S
C517 C519 1.388 . S
C518 C517 1.366 . S
C518 C522 1.385 . S
C519 H494 0.951 . S
C519 C517 1.388 . S
C519 C520 1.366 . S
C520 C519 1.366 . S
C520 C521 1.414 . S
C520 C523 1.499 . S
C521 H495 0.950 . S
C521 C520 1.414 . S
C521 C522 1.374 . S
C522 H496 0.950 . S
C522 C518 1.385 . S
C522 C521 1.374 . S
C523 C520 1.499 . S
C523 C524 1.373 . S
C523 C525 1.389 . S
C524 H497 0.950 . S
C524 C510 1.377 . S
C524 C523 1.373 . S
C525 C509 1.377 . S
C525 C523 1.389 . S
C525 C526 1.524 . S
C526 C525 1.524 . S
C526 C527 1.397 . S
C526 C531 1.363 . S
C527 H498 0.950 . S
C527 C526 1.397 . S
C527 C528 1.334 . S
C528 H499 0.950 . S
C528 C527 1.334 . S
C528 C529 1.287 . S
C529 C528 1.287 . S
C529 C530 1.524 . S
C529 H532 0.999 . S
C530 H500 0.950 . S
C530 C529 1.524 . S
C530 C531 1.415 . S
C531 H501 0.950 . S
C531 C526 1.363 . S
C531 C530 1.415 . S
H532 C529 0.999 . S
H533 C514 0.913 . S
H534 C552 0.951 . S
H535 C554 0.951 . S
H536 C556 0.950 . S
H537 C557 0.950 . S
H538 C559 0.950 . S
H539 C562 0.950 . S
H540 C563 0.950 . S
H541 C565 0.950 . S
H542 C566 0.950 . S
H543 C567 0.951 . S
H544 C569 0.951 . S
H545 C571 0.950 . S
H546 C572 0.950 . S
H547 C574 0.950 . S
H548 C577 0.950 . S
H549 C578 0.950 . S
H550 C580 0.950 . S
H551 C581 0.950 . S
C552 H534 0.951 . S
C552 C553 1.366 . S
C552 C554 1.388 . S
C553 C552 1.366 . S
C553 C557 1.385 . S
C554 H535 0.951 . S
C554 C552 1.388 . S
C554 C555 1.366 . S
C555 C554 1.366 . S
C555 C556 1.414 . S
C555 C558 1.499 . S
C556 H536 0.950 . S
C556 C555 1.414 . S
C556 C557 1.374 . S
C557 H537 0.950 . S
C557 C553 1.385 . S
C557 C556 1.374 . S
C558 C555 1.499 . S
C558 C559 1.373 . S
C558 C560 1.389 . S
C559 H538 0.950 . S
C559 C558 1.373 . S
C559 C575 1.377 . S
C560 C558 1.389 . S
C560 C561 1.524 . S
C560 C574 1.377 . S
C561 C560 1.524 . S
C561 C562 1.397 . S
C561 C566 1.363 . S
C562 H539 0.950 . S
C562 C561 1.397 . S
C562 C563 1.334 . S
C563 H540 0.950 . S
C563 C562 1.334 . S
C563 C564 1.287 . S
C564 C563 1.287 . S
C564 C565 1.524 . S
C564 H583 0.913 . S
C565 H541 0.950 . S
C565 C564 1.524 . S
C565 C566 1.415 . S
C566 H542 0.950 . S
C566 C561 1.363 . S
C566 C565 1.415 . S
C567 H543 0.951 . S
C567 C568 1.366 . S
C567 C569 1.388 . S
C568 C567 1.366 . S
C568 C572 1.385 . S
C569 H544 0.951 . S
C569 C567 1.388 . S
C569 C570 1.366 . S
C570 C569 1.366 . S
C570 C571 1.414 . S
C570 C573 1.499 . S
C571 H545 0.950 . S
C571 C570 1.414 . S
C571 C572 1.374 . S
C572 H546 0.950 . S
C572 C568 1.385 . S
C572 C571 1.374 . S
C573 C570 1.499 . S
C573 C574 1.373 . S
C573 C575 1.389 . S
C574 H547 0.950 . S
C574 C560 1.377 . S
C574 C573 1.373 . S
C575 C559 1.377 . S
C575 C573 1.389 . S
C575 C576 1.524 . S
C576 C575 1.524 . S
C576 C577 1.397 . S
C576 C581 1.363 . S
C577 H548 0.950 . S
C577 C576 1.397 . S
C577 C578 1.334 . S
C578 H549 0.950 . S
C578 C577 1.334 . S
C578 C579 1.287 . S
C579 C578 1.287 . S
C579 C580 1.524 . S
C579 H582 0.999 . S
C580 H550 0.950 . S
C580 C579 1.524 . S
C580 C581 1.415 . S
C581 H551 0.950 . S
C581 C576 1.363 . S
C581 C580 1.415 . S
H582 C579 0.999 . S
H583 C564 0.913 . S
H584 C602 0.951 . S
H585 C604 0.951 . S
H586 C606 0.950 . S
H587 C607 0.950 . S
H588 C609 0.950 . S
H589 C612 0.950 . S
H590 C613 0.950 . S
H591 C615 0.950 . S
H592 C616 0.950 . S
H593 C617 0.951 . S
H594 C619 0.951 . S
H595 C621 0.950 . S
H596 C622 0.950 . S
H597 C624 0.950 . S
H598 C627 0.950 1_556 S
H599 C628 0.950 . S
H600 C630 0.950 . S
H601 C631 0.950 . S
C602 H584 0.951 . S
C602 C603 1.366 . S
C602 C604 1.388 . S
C603 C602 1.366 . S
C603 C607 1.385 . S
C604 H585 0.951 . S
C604 C602 1.388 . S
C604 C605 1.366 . S
C605 C604 1.366 . S
C605 C606 1.414 . S
C605 C608 1.499 . S
C606 H586 0.950 . S
C606 C605 1.414 . S
C606 C607 1.374 . S
C607 H587 0.950 . S
C607 C603 1.385 . S
C607 C606 1.374 . S
C608 C605 1.499 . S
C608 C609 1.373 . S
C608 C610 1.389 . S
C609 H588 0.950 . S
C609 C608 1.373 . S
C609 C625 1.377 . S
C610 C608 1.389 . S
C610 C611 1.524 . S
C610 C624 1.377 . S
C611 C610 1.524 . S
C611 C612 1.397 . S
C611 C616 1.363 . S
C612 H589 0.950 . S
C612 C611 1.397 . S
C612 C613 1.334 . S
C613 H590 0.950 . S
C613 C612 1.334 . S
C613 C614 1.287 . S
C614 C613 1.287 . S
C614 C615 1.524 . S
C614 H633 0.913 . S
C615 H591 0.950 . S
C615 C614 1.524 . S
C615 C616 1.415 . S
C616 H592 0.950 . S
C616 C611 1.363 . S
C616 C615 1.415 . S
C617 H593 0.951 . S
C617 C618 1.366 . S
C617 C619 1.388 . S
C618 C617 1.366 . S
C618 C622 1.385 1_554 S
C619 H594 0.951 . S
C619 C617 1.388 . S
C619 C620 1.366 1_554 S
C620 C619 1.366 1_556 S
C620 C621 1.414 . S
C620 C623 1.499 . S
C621 H595 0.950 . S
C621 C620 1.414 . S
C621 C622 1.374 . S
C622 H596 0.950 . S
C622 C618 1.385 1_556 S
C622 C621 1.374 . S
C623 C620 1.499 . S
C623 C624 1.373 . S
C623 C625 1.389 . S
C624 H597 0.950 . S
C624 C610 1.377 . S
C624 C623 1.373 . S
C625 C609 1.377 . S
C625 C623 1.389 . S
C625 C626 1.524 1_556 S
C626 C625 1.524 1_554 S
C626 C627 1.397 . S
C626 C631 1.363 . S
C627 H598 0.950 1_554 S
C627 C626 1.397 . S
C627 C628 1.334 . S
C628 H599 0.950 . S
C628 C627 1.334 . S
C628 C629 1.287 . S
C629 C628 1.287 . S
C629 C630 1.524 . S
C629 H632 0.999 . S
C630 H600 0.950 . S
C630 C629 1.524 . S
C630 C631 1.415 . S
C631 H601 0.950 . S
C631 C626 1.363 . S
C631 C630 1.415 . S
H632 C629 0.999 . S
H633 C614 0.913 . S
H634 C652 0.951 . S
H635 C654 0.951 1_556 S
H636 C656 0.950 . S
H637 C657 0.950 . S
H638 C659 0.950 . S
H639 C662 0.950 . S
H640 C663 0.950 . S
H641 C665 0.950 . S
H642 C666 0.950 . S
H643 C667 0.951 . S
H644 C669 0.951 . S
H645 C671 0.950 . S
H646 C672 0.950 . S
H647 C674 0.950 . S
H648 C677 0.950 . S
H649 C678 0.950 . S
H650 C680 0.950 . S
H651 C681 0.950 . S
C652 H634 0.951 . S
C652 C653 1.366 . S
C652 C654 1.382 1_556 S
C653 C652 1.366 . S
C653 C657 1.382 1_556 S
C654 H635 0.951 1_554 S
C654 C652 1.382 1_554 S
C654 C655 1.371 . S
C655 C654 1.371 . S
C655 C656 1.414 . S
C655 C658 1.499 . S
C656 H636 0.950 . S
C656 C655 1.414 . S
C656 C657 1.376 . S
C657 H637 0.950 . S
C657 C653 1.382 1_554 S
C657 C656 1.376 . S
C658 C655 1.499 . S
C658 C659 1.373 . S
C658 C660 1.389 . S
C659 H638 0.950 . S
C659 C658 1.373 . S
C659 C675 1.377 . S
C660 C658 1.389 . S
C660 C661 1.524 . S
C660 C674 1.377 . S
C661 C660 1.524 . S
C661 C662 1.397 . S
C661 C666 1.363 . S
C662 H639 0.950 . S
C662 C661 1.397 . S
C662 C663 1.334 . S
C663 H640 0.950 . S
C663 C662 1.334 . S
C663 C664 1.287 . S
C664 C663 1.287 . S
C664 C665 1.524 . S
C664 H683 0.913 . S
C665 H641 0.950 . S
C665 C664 1.524 . S
C665 C666 1.415 . S
C666 H642 0.950 . S
C666 C661 1.363 . S
C666 C665 1.415 . S
C667 H643 0.951 . S
C667 C668 1.366 . S
C667 C669 1.388 . S
C668 C667 1.366 . S
C668 C672 1.385 . S
C669 H644 0.951 . S
C669 C667 1.388 . S
C669 C670 1.366 . S
C670 C669 1.366 . S
C670 C671 1.414 . S
C670 C673 1.499 . S
C671 H645 0.950 . S
C671 C670 1.414 . S
C671 C672 1.374 . S
C672 H646 0.950 . S
C672 C668 1.385 . S
C672 C671 1.374 . S
C673 C670 1.499 . S
C673 C674 1.373 . S
C673 C675 1.389 . S
C674 H647 0.950 . S
C674 C660 1.377 . S
C674 C673 1.373 . S
C675 C659 1.377 . S
C675 C673 1.389 . S
C675 C676 1.524 . S
C676 C675 1.524 . S
C676 C677 1.397 . S
C676 C681 1.363 . S
C677 H648 0.950 . S
C677 C676 1.397 . S
C677 C678 1.334 . S
C678 H649 0.950 . S
C678 C677 1.334 . S
C678 C679 1.287 . S
C679 C678 1.287 . S
C679 C680 1.524 . S
C679 H682 0.999 . S
C680 H650 0.950 . S
C680 C679 1.524 . S
C680 C681 1.415 . S
C681 H651 0.950 . S
C681 C676 1.363 . S
C681 C680 1.415 . S
H682 C679 0.999 . S
H683 C664 0.913 . S
C103 C9 1.218 1_556 S
C118 C53 1.234 . S
C153 C67 1.234 . S
C168 C23 1.218 . S
C203 C37 1.218 . S
C218 C81 1.234 1_554 S
C253 C51 1.218 . S
C268 C11 1.234 . S
C303 C25 1.234 . S
C318 C65 1.218 . S
C353 C79 1.218 . S
C368 C39 1.234 . S
C403 C0 1.167 . S
C418 C33 1.168 . S
C453 C14 1.167 . S
C468 C47 1.168 . S
C503 C61 1.168 . S
C518 C28 1.167 . S
C553 C75 1.168 . S
C568 C42 1.167 . S
C603 C56 1.167 . S
C618 C5 1.168 . S
C653 C70 1.167 . S
C668 C19 1.168 . S
