# Generated by pormake.
# Topology ukj, (4)-cn, num edge types: 1
# Building blocks:
#     Node 0, Type 0, BuildingBlock: CEKHIL_clean_sbu_0, # of connection points: 4
#     Node 1, Type 0, BuildingBlock: CEKHIL_clean_sbu_0, # of connection points: 4
#     Node 2, Type 0, BuildingBlock: CEKHIL_clean_sbu_0, # of connection points: 4
#     Node 3, Type 0, BuildingBlock: CEKHIL_clean_sbu_0, # of connection points: 4
#     Node 4, Type 0, BuildingBlock: CEKHIL_clean_sbu_0, # of connection points: 4
#     Node 5, Type 0, BuildingBlock: CEKHIL_clean_sbu_0, # of connection points: 4
#     Node 6, Type 0, BuildingBlock: CEKHIL_clean_sbu_0, # of connection points: 4
#     Node 7, Type 0, BuildingBlock: CEKHIL_clean_sbu_0, # of connection points: 4
#     Node 8, Type 0, BuildingBlock: CEKHIL_clean_sbu_0, # of connection points: 4
#     Node 9, Type 0, BuildingBlock: CEKHIL_clean_sbu_0, # of connection points: 4
#     Node 10, Type 0, BuildingBlock: CEKHIL_clean_sbu_0, # of connection points: 4
#     Node 11, Type 0, BuildingBlock: CEKHIL_clean_sbu_0, # of connection points: 4
#     Node 12, Type 0, BuildingBlock: CEKHIL_clean_sbu_0, # of connection points: 4
#     Node 13, Type 0, BuildingBlock: CEKHIL_clean_sbu_0, # of connection points: 4
#     Node 14, Type 0, BuildingBlock: CEKHIL_clean_sbu_0, # of connection points: 4
#     Node 15, Type 0, BuildingBlock: CEKHIL_clean_sbu_0, # of connection points: 4
#     Node 16, Type 0, BuildingBlock: CEKHIL_clean_sbu_0, # of connection points: 4
#     Node 17, Type 0, BuildingBlock: CEKHIL_clean_sbu_0, # of connection points: 4
#     Node 18, Type 0, BuildingBlock: CEKHIL_clean_sbu_0, # of connection points: 4
#     Node 19, Type 0, BuildingBlock: CEKHIL_clean_sbu_0, # of connection points: 4
#     Node 20, Type 0, BuildingBlock: CEKHIL_clean_sbu_0, # of connection points: 4
#     Node 21, Type 0, BuildingBlock: CEKHIL_clean_sbu_0, # of connection points: 4
#     Node 22, Type 0, BuildingBlock: CEKHIL_clean_sbu_0, # of connection points: 4
#     Node 23, Type 0, BuildingBlock: CEKHIL_clean_sbu_0, # of connection points: 4
#     Node 24, Type 0, BuildingBlock: CEKHIL_clean_sbu_0, # of connection points: 4
#     Node 25, Type 0, BuildingBlock: CEKHIL_clean_sbu_0, # of connection points: 4
#     Node 26, Type 0, BuildingBlock: CEKHIL_clean_sbu_0, # of connection points: 4
#     Node 27, Type 0, BuildingBlock: CEKHIL_clean_sbu_0, # of connection points: 4
#     Node 28, Type 0, BuildingBlock: CEKHIL_clean_sbu_0, # of connection points: 4
#     Node 29, Type 0, BuildingBlock: CEKHIL_clean_sbu_0, # of connection points: 4
#     Node 30, Type 0, BuildingBlock: CEKHIL_clean_sbu_0, # of connection points: 4
#     Node 31, Type 0, BuildingBlock: CEKHIL_clean_sbu_0, # of connection points: 4
#     Edge 32, Type (0, 0), BuildingBlock: MIFKUJ_clean_linker_0, # of connection points: 2
#     Edge 33, Type (0, 0), BuildingBlock: MIFKUJ_clean_linker_0, # of connection points: 2
#     Edge 34, Type (0, 0), BuildingBlock: MIFKUJ_clean_linker_0, # of connection points: 2
#     Edge 35, Type (0, 0), BuildingBlock: MIFKUJ_clean_linker_0, # of connection points: 2
#     Edge 36, Type (0, 0), BuildingBlock: MIFKUJ_clean_linker_0, # of connection points: 2
#     Edge 37, Type (0, 0), BuildingBlock: MIFKUJ_clean_linker_0, # of connection points: 2
#     Edge 38, Type (0, 0), BuildingBlock: MIFKUJ_clean_linker_0, # of connection points: 2
#     Edge 39, Type (0, 0), BuildingBlock: MIFKUJ_clean_linker_0, # of connection points: 2
#     Edge 40, Type (0, 0), BuildingBlock: MIFKUJ_clean_linker_0, # of connection points: 2
#     Edge 41, Type (0, 0), BuildingBlock: MIFKUJ_clean_linker_0, # of connection points: 2
#     Edge 42, Type (0, 0), BuildingBlock: MIFKUJ_clean_linker_0, # of connection points: 2
#     Edge 43, Type (0, 0), BuildingBlock: MIFKUJ_clean_linker_0, # of connection points: 2
#     Edge 44, Type (0, 0), BuildingBlock: MIFKUJ_clean_linker_0, # of connection points: 2
#     Edge 45, Type (0, 0), BuildingBlock: MIFKUJ_clean_linker_0, # of connection points: 2
#     Edge 46, Type (0, 0), BuildingBlock: MIFKUJ_clean_linker_0, # of connection points: 2
#     Edge 47, Type (0, 0), BuildingBlock: MIFKUJ_clean_linker_0, # of connection points: 2
#     Edge 48, Type (0, 0), BuildingBlock: MIFKUJ_clean_linker_0, # of connection points: 2
#     Edge 49, Type (0, 0), BuildingBlock: MIFKUJ_clean_linker_0, # of connection points: 2
#     Edge 50, Type (0, 0), BuildingBlock: MIFKUJ_clean_linker_0, # of connection points: 2
#     Edge 51, Type (0, 0), BuildingBlock: MIFKUJ_clean_linker_0, # of connection points: 2
#     Edge 52, Type (0, 0), BuildingBlock: MIFKUJ_clean_linker_0, # of connection points: 2
#     Edge 53, Type (0, 0), BuildingBlock: MIFKUJ_clean_linker_0, # of connection points: 2
#     Edge 54, Type (0, 0), BuildingBlock: MIFKUJ_clean_linker_0, # of connection points: 2
#     Edge 55, Type (0, 0), BuildingBlock: MIFKUJ_clean_linker_0, # of connection points: 2
#     Edge 56, Type (0, 0), BuildingBlock: MIFKUJ_clean_linker_0, # of connection points: 2
#     Edge 57, Type (0, 0), BuildingBlock: MIFKUJ_clean_linker_0, # of connection points: 2
#     Edge 58, Type (0, 0), BuildingBlock: MIFKUJ_clean_linker_0, # of connection points: 2
#     Edge 59, Type (0, 0), BuildingBlock: MIFKUJ_clean_linker_0, # of connection points: 2
#     Edge 60, Type (0, 0), BuildingBlock: MIFKUJ_clean_linker_0, # of connection points: 2
#     Edge 61, Type (0, 0), BuildingBlock: MIFKUJ_clean_linker_0, # of connection points: 2
#     Edge 62, Type (0, 0), BuildingBlock: MIFKUJ_clean_linker_0, # of connection points: 2
#     Edge 63, Type (0, 0), BuildingBlock: MIFKUJ_clean_linker_0, # of connection points: 2
#     Edge 64, Type (0, 0), BuildingBlock: MIFKUJ_clean_linker_0, # of connection points: 2
#     Edge 65, Type (0, 0), BuildingBlock: MIFKUJ_clean_linker_0, # of connection points: 2
#     Edge 66, Type (0, 0), BuildingBlock: MIFKUJ_clean_linker_0, # of connection points: 2
#     Edge 67, Type (0, 0), BuildingBlock: MIFKUJ_clean_linker_0, # of connection points: 2
#     Edge 68, Type (0, 0), BuildingBlock: MIFKUJ_clean_linker_0, # of connection points: 2
#     Edge 69, Type (0, 0), BuildingBlock: MIFKUJ_clean_linker_0, # of connection points: 2
#     Edge 70, Type (0, 0), BuildingBlock: MIFKUJ_clean_linker_0, # of connection points: 2
#     Edge 71, Type (0, 0), BuildingBlock: MIFKUJ_clean_linker_0, # of connection points: 2
#     Edge 72, Type (0, 0), BuildingBlock: MIFKUJ_clean_linker_0, # of connection points: 2
#     Edge 73, Type (0, 0), BuildingBlock: MIFKUJ_clean_linker_0, # of connection points: 2
#     Edge 74, Type (0, 0), BuildingBlock: MIFKUJ_clean_linker_0, # of connection points: 2
#     Edge 75, Type (0, 0), BuildingBlock: MIFKUJ_clean_linker_0, # of connection points: 2
#     Edge 76, Type (0, 0), BuildingBlock: MIFKUJ_clean_linker_0, # of connection points: 2
#     Edge 77, Type (0, 0), BuildingBlock: MIFKUJ_clean_linker_0, # of connection points: 2
#     Edge 78, Type (0, 0), BuildingBlock: MIFKUJ_clean_linker_0, # of connection points: 2
#     Edge 79, Type (0, 0), BuildingBlock: MIFKUJ_clean_linker_0, # of connection points: 2
#     Edge 80, Type (0, 0), BuildingBlock: MIFKUJ_clean_linker_0, # of connection points: 2
#     Edge 81, Type (0, 0), BuildingBlock: MIFKUJ_clean_linker_0, # of connection points: 2
#     Edge 82, Type (0, 0), BuildingBlock: MIFKUJ_clean_linker_0, # of connection points: 2
#     Edge 83, Type (0, 0), BuildingBlock: MIFKUJ_clean_linker_0, # of connection points: 2
#     Edge 84, Type (0, 0), BuildingBlock: MIFKUJ_clean_linker_0, # of connection points: 2
#     Edge 85, Type (0, 0), BuildingBlock: MIFKUJ_clean_linker_0, # of connection points: 2
#     Edge 86, Type (0, 0), BuildingBlock: MIFKUJ_clean_linker_0, # of connection points: 2
#     Edge 87, Type (0, 0), BuildingBlock: MIFKUJ_clean_linker_0, # of connection points: 2
#     Edge 88, Type (0, 0), BuildingBlock: MIFKUJ_clean_linker_0, # of connection points: 2
#     Edge 89, Type (0, 0), BuildingBlock: MIFKUJ_clean_linker_0, # of connection points: 2
#     Edge 90, Type (0, 0), BuildingBlock: MIFKUJ_clean_linker_0, # of connection points: 2
#     Edge 91, Type (0, 0), BuildingBlock: MIFKUJ_clean_linker_0, # of connection points: 2
#     Edge 92, Type (0, 0), BuildingBlock: MIFKUJ_clean_linker_0, # of connection points: 2
#     Edge 93, Type (0, 0), BuildingBlock: MIFKUJ_clean_linker_0, # of connection points: 2
#     Edge 94, Type (0, 0), BuildingBlock: MIFKUJ_clean_linker_0, # of connection points: 2
#     Edge 95, Type (0, 0), BuildingBlock: MIFKUJ_clean_linker_0, # of connection points: 2
# Relax obj value: 0.081
# Max RMSD: 0.175
# Mean RMSD: 0.174
data_MOF--net-ukj--node1-CEKHIL_clean_sbu_0--edge1-MIFKUJ_clean_linker_0
_symmetry_space_group_name_H-M    P1
_symmetry_Int_Tables_number       1
_symmetry_cell_setting            triclinic
loop_
_symmetry_equiv_pos_as_xyz
'x, y, z'
_cell_length_a     40.263799
_cell_length_b     82.186128
_cell_length_c     72.772558
_cell_angle_alpha  90.002378
_cell_angle_beta   89.992129
_cell_angle_gamma 90.019129
loop_
_atom_site_label
_atom_site_type_symbol
_atom_site_fract_x
_atom_site_fract_y
_atom_site_fract_z
_atom_type_partial_charge
Co0 Co 0.12358 0.33877 0.24237 0.0
O1 O 0.08211 0.32748 0.24213 0.0
O2 O 0.12929 0.31698 0.23209 0.0
C3 C 0.12003 0.34762 0.27135 0.0
O4 O 0.17127 0.34773 0.24147 0.0
Co5 Co 0.11947 0.37642 0.24718 0.0
O6 O 0.16785 0.37377 0.25113 0.0
C7 C 0.1051 0.36202 0.21115 0.0
C8 C 0.09761 0.31514 0.23524 0.0
C9 C 0.18483 0.36132 0.24649 0.0
O10 O 0.11393 0.34804 0.21739 0.0
O11 O 0.10296 0.37475 0.22123 0.0
O12 O 0.13047 0.33301 0.26792 0.0
O13 O 0.10818 0.35551 0.25747 0.0
Co14 Co 0.12278 0.90543 0.24287 0.0
O15 O 0.16574 0.91532 0.24307 0.0
O16 O 0.12128 0.92649 0.2305 0.0
C17 C 0.12219 0.89882 0.27265 0.0
O18 O 0.07402 0.89814 0.24118 0.0
Co19 Co 0.11996 0.86834 0.25111 0.0
O20 O 0.07236 0.87344 0.25464 0.0
C21 C 0.13942 0.87929 0.21429 0.0
C22 C 0.1527 0.92763 0.23471 0.0
C23 C 0.05789 0.88592 0.24796 0.0
O24 O 0.13373 0.89405 0.21921 0.0
O25 O 0.13714 0.86715 0.22525 0.0
O26 O 0.11412 0.91337 0.26741 0.0
O27 O 0.13414 0.8894 0.26002 0.0
Co28 Co 0.13534 0.91356 0.991 0.0
O29 O 0.09413 0.92457 -0.0052 0.0
O30 O 0.14317 0.93461 0.00258 0.0
C31 C 0.12534 0.9069 0.9617 0.0
O32 O 0.18301 0.90507 0.98838 0.0
Co33 Co 0.13256 0.8765 0.98248 0.0
O34 O 0.17952 0.8802 0.97546 0.0
C35 C 0.12541 0.88778 0.02071 0.0
C36 C 0.1111 0.93658 0.00141 0.0
C37 C 0.19644 0.8924 0.98092 0.0
O38 O 0.13097 0.90247 0.01546 0.0
O39 O 0.12275 0.87579 0.00955 0.0
O40 O 0.13685 0.92117 0.96582 0.0
O41 O 0.11698 0.89781 0.97544 0.0
Co42 Co 0.12069 0.34747 0.98556 0.0
O43 O 0.16413 0.33813 0.98609 0.0
O44 O 0.11896 0.32571 -0.00381 0.0
C45 C 0.12369 0.35598 0.95641 0.0
O46 O 0.07141 0.35394 0.98626 0.0
Co47 Co 0.11571 0.38493 0.98009 0.0
O48 O 0.06858 0.37958 0.9754 0.0
C49 C 0.13097 0.37191 0.01675 0.0
C50 C 0.15081 0.32517 0.99298 0.0
C51 C 0.05471 0.36643 0.98064 0.0
O52 O 0.12799 0.35739 0.01042 0.0
O53 O 0.12857 0.38468 0.00676 0.0
O54 O 0.11572 0.34106 0.96013 0.0
O55 O 0.13295 0.36479 0.97023 0.0
Co56 Co 0.86286 0.65861 0.74075 0.0
O57 O 0.90619 0.66818 0.7403 0.0
O58 O 0.8622 0.67983 0.75287 0.0
C59 C 0.8623 0.65162 0.71097 0.0
O60 O 0.81398 0.65157 0.74303 0.0
Co61 Co 0.85954 0.62136 0.73282 0.0
O62 O 0.81129 0.6258 0.73242 0.0
C63 C 0.88015 0.63267 0.76935 0.0
C64 C 0.89371 0.68057 0.74876 0.0
C65 C 0.79742 0.63864 0.73859 0.0
O66 O 0.87387 0.64739 0.7645 0.0
O67 O 0.87816 0.62054 0.75837 0.0
O68 O 0.85431 0.66627 0.71593 0.0
O69 O 0.87365 0.64234 0.72384 0.0
Co70 Co 0.88305 0.09281 0.74097 0.0
O71 O 0.83987 0.08326 0.74315 0.0
O72 O 0.88625 0.07135 0.7523 0.0
C73 C 0.87752 0.10042 0.71158 0.0
O74 O 0.93213 0.09961 0.73999 0.0
Co75 Co 0.88608 0.13016 0.73365 0.0
O76 O 0.93309 0.12496 0.7281 0.0
C77 C 0.87215 0.11828 0.77096 0.0
C78 C 0.85415 0.07057 0.75007 0.0
C79 C 0.94785 0.11204 0.7334 0.0
O80 O 0.87772 0.10362 0.76557 0.0
O81 O 0.87151 0.1305 0.76004 0.0
O82 O 0.88595 0.08562 0.71563 0.0
O83 O 0.86912 0.10949 0.72532 0.0
Co84 Co 0.87026 0.09501 0.99223 0.0
O85 O 0.91481 0.08713 0.98984 0.0
O86 O 0.87044 0.07447 0.97896 0.0
C87 C 0.87372 0.10049 0.02226 0.0
O88 O 0.82026 0.09987 0.99292 0.0
Co89 Co 0.85938 0.13121 0.00298 0.0
O90 O 0.81449 0.12304 0.00919 0.0
C91 C 0.87592 0.12292 0.96468 0.0
C92 C 0.90246 0.07455 0.98162 0.0
C93 C 0.80239 0.11036 0.00168 0.0
O94 O 0.87521 0.10773 0.96888 0.0
O95 O 0.8716 0.13435 0.9764 0.0
O96 O 0.86745 0.08584 0.01665 0.0
O97 O 0.88095 0.111 0.00962 0.0
Co98 Co 0.89553 0.65786 -0.00616 0.0
O99 O 0.85171 0.66682 -0.00533 0.0
O100 O 0.89519 0.67954 0.98287 0.0
C101 C 0.89658 0.64959 0.02318 0.0
O102 O 0.94472 0.65171 0.99139 0.0
Co103 Co 0.90081 0.62037 -0.00049 0.0
O104 O 0.94901 0.62495 -0.00179 0.0
C105 C 0.87934 0.63303 0.96379 0.0
C106 C 0.86364 0.67972 0.98694 0.0
C107 C 0.96187 0.63859 -0.00619 0.0
O108 O 0.88554 0.64754 0.96944 0.0
O109 O 0.8811 0.6205 0.97419 0.0
O110 O 0.90357 0.66455 0.01902 0.0
O111 O 0.88563 0.64071 0.00983 0.0
Co112 Co 0.14292 0.83937 0.7483 0.0
O113 O 0.10053 0.82894 0.74752 0.0
O114 O 0.1474 0.81718 0.73892 0.0
C115 C 0.13756 0.84909 0.77689 0.0
O116 O 0.19131 0.84736 0.74797 0.0
Co117 Co 0.14126 0.87716 0.75144 0.0
O118 O 0.18972 0.87423 0.75449 0.0
C119 C 0.12898 0.86186 0.71568 0.0
C120 C 0.11535 0.81613 0.74131 0.0
C121 C 0.20572 0.86115 0.75121 0.0
O122 O 0.13583 0.84796 0.7228 0.0
O123 O 0.12721 0.875 0.72507 0.0
O124 O 0.14747 0.83427 0.77415 0.0
O125 O 0.12762 0.85684 0.76245 0.0
Co126 Co 0.1142 0.41323 0.73898 0.0
O127 O 0.15663 0.42367 0.74001 0.0
O128 O 0.11204 0.43462 0.7273 0.0
C129 C 0.11315 0.40584 0.76861 0.0
O130 O 0.06607 0.40524 0.73625 0.0
Co131 Co 0.11432 0.37586 0.74605 0.0
O132 O 0.06561 0.3788 0.7448 0.0
C133 C 0.13514 0.38821 0.71004 0.0
C134 C 0.14329 0.43598 0.7318 0.0
C135 C 0.0508 0.39168 0.73947 0.0
O136 O 0.12672 0.40262 0.71508 0.0
O137 O 0.13468 0.37594 0.72087 0.0
O138 O 0.10414 0.42036 0.76375 0.0
O139 O 0.12597 0.39698 0.75576 0.0
Co140 Co 0.14431 0.40648 0.48653 0.0
O141 O 0.10061 0.41553 0.48519 0.0
O142 O 0.14329 0.42783 0.49831 0.0
C143 C 0.14717 0.39907 0.45695 0.0
O144 O 0.19333 0.4002 0.48959 0.0
Co145 Co 0.14981 0.36923 0.47974 0.0
O146 O 0.19795 0.37371 0.4816 0.0
C147 C 0.12792 0.38086 0.5158 0.0
C148 C 0.11202 0.42818 0.49364 0.0
C149 C 0.21059 0.38718 0.48675 0.0
O150 O 0.13287 0.39555 0.51037 0.0
O151 O 0.13113 0.36848 0.50529 0.0
O152 O 0.15406 0.41387 0.46185 0.0
O153 O 0.13513 0.38981 0.4697 0.0
Co154 Co 0.11784 0.84096 0.48874 0.0
O155 O 0.16013 0.83088 0.4853 0.0
O156 O 0.11728 0.81878 0.49847 0.0
C157 C 0.11385 0.85081 0.46018 0.0
O158 O 0.06984 0.84835 0.49346 0.0
Co159 Co 0.11642 0.87876 0.48567 0.0
O160 O 0.06788 0.87511 0.48642 0.0
C161 C 0.13965 0.86372 0.51985 0.0
C162 C 0.14795 0.81791 0.49274 0.0
C163 C 0.0538 0.86183 0.49108 0.0
O164 O 0.13229 0.84966 0.51328 0.0
O165 O 0.13733 0.8769 0.51058 0.0
O166 O 0.10552 0.83587 0.46364 0.0
O167 O 0.12782 0.85861 0.47353 0.0
Co168 Co 0.85934 0.15187 0.24109 0.0
O169 O 0.90275 0.16125 0.23917 0.0
O170 O 0.85978 0.17352 0.25208 0.0
C171 C 0.85614 0.14357 0.21182 0.0
O172 O 0.81057 0.14537 0.24474 0.0
Co173 Co 0.85419 0.11441 0.23559 0.0
O174 O 0.806 0.11887 0.23692 0.0
C175 C 0.87786 0.12718 0.27086 0.0
C176 C 0.89096 0.17402 0.24724 0.0
C177 C 0.79327 0.13233 0.24205 0.0
O178 O 0.87177 0.14168 0.2652 0.0
O179 O 0.87466 0.11455 0.26073 0.0
O180 O 0.84898 0.15846 0.21617 0.0
O181 O 0.8685 0.13477 0.22486 0.0
Co182 Co 0.88544 0.59026 0.23986 0.0
O183 O 0.84351 0.57931 0.24074 0.0
O184 O 0.89035 0.56911 0.25176 0.0
C185 C 0.88229 0.59734 0.21021 0.0
O186 O 0.93344 0.59889 0.24063 0.0
Co187 Co 0.88302 0.62759 0.2322 0.0
O188 O 0.93162 0.6247 0.23007 0.0
C189 C 0.86791 0.61548 0.26924 0.0
C190 C 0.85865 0.56736 0.24868 0.0
C191 C 0.94777 0.61231 0.23569 0.0
O192 O 0.87544 0.60101 0.26401 0.0
O193 O 0.86729 0.62773 0.25838 0.0
O194 O 0.89246 0.58294 0.21483 0.0
O195 O 0.87089 0.60623 0.22344 0.0
Co196 Co 0.87172 0.59136 0.49433 0.0
O197 O 0.91429 0.5811 0.49427 0.0
O198 O 0.86863 0.56961 0.48354 0.0
C199 C 0.87425 0.59971 0.52359 0.0
O200 O 0.8232 0.59913 0.49304 0.0
Co201 Co 0.87176 0.62892 0.49988 0.0
O202 O 0.82341 0.62524 0.5026 0.0
C203 C 0.88815 0.61552 0.46363 0.0
C204 C 0.90035 0.56849 0.487 0.0
C205 C 0.808 0.61242 0.49759 0.0
O206 O 0.88115 0.60122 0.46965 0.0
O207 O 0.88834 0.62819 0.47386 0.0
O208 O 0.86488 0.58501 0.51969 0.0
O209 O 0.88518 0.6082 0.50992 0.0
Co210 Co 0.89821 0.1607 0.49537 0.0
O211 O 0.85545 0.17074 0.49551 0.0
O212 O 0.90054 0.18228 0.48411 0.0
C213 C 0.89676 0.15295 0.52489 0.0
O214 O 0.94674 0.15309 0.49378 0.0
Co215 Co 0.89871 0.12324 0.50199 0.0
O216 O 0.94706 0.12717 0.50401 0.0
C217 C 0.88146 0.13583 0.46546 0.0
C218 C 0.86893 0.18332 0.48792 0.0
C219 C 0.96217 0.13992 0.49849 0.0
O220 O 0.88827 0.1503 0.47101 0.0
O221 O 0.88159 0.12341 0.47608 0.0
O222 O 0.90576 0.16759 0.52053 0.0
O223 O 0.88552 0.14415 0.51155 0.0
Co224 Co 0.63547 0.34251 0.74501 0.0
O225 O 0.59358 0.33165 0.74623 0.0
O226 O 0.63831 0.32113 0.73325 0.0
C227 C 0.63676 0.35005 0.77449 0.0
O228 O 0.68321 0.35107 0.7422 0.0
Co229 Co 0.63373 0.37983 0.75179 0.0
O230 O 0.68242 0.3767 0.75328 0.0
C231 C 0.6139 0.3672 0.71578 0.0
C232 C 0.60711 0.31952 0.73779 0.0
C233 C 0.69808 0.36432 0.74718 0.0
O234 O 0.62229 0.35287 0.72113 0.0
O235 O 0.61427 0.37963 0.72637 0.0
O236 O 0.64636 0.33559 0.76973 0.0
O237 O 0.623 0.35867 0.76174 0.0
Co238 Co 0.62411 0.90492 0.74831 0.0
O239 O 0.66681 0.91481 0.74538 0.0
O240 O 0.61944 0.92671 0.73797 0.0
C241 C 0.63249 0.89647 0.77715 0.0
O242 O 0.57527 0.89772 0.75031 0.0
Co243 Co 0.62269 0.86732 0.75412 0.0
O244 O 0.57606 0.87193 0.76089 0.0
C245 C 0.63101 0.8805 0.71683 0.0
C246 C 0.65169 0.92763 0.73939 0.0
C247 C 0.56044 0.88486 0.75652 0.0
O248 O 0.62752 0.89499 0.72318 0.0
O249 O 0.63178 0.86779 0.72701 0.0
O250 O 0.62333 0.91131 0.77391 0.0
O251 O 0.63987 0.88783 0.76287 0.0
Co252 Co 0.63859 0.90856 0.4916 0.0
O253 O 0.59684 0.91949 0.4932 0.0
O254 O 0.64437 0.92991 0.50293 0.0
C255 C 0.63299 0.90102 0.46229 0.0
O256 O 0.68656 0.90003 0.49125 0.0
Co257 Co 0.63593 0.87117 0.48495 0.0
O258 O 0.68398 0.87436 0.48038 0.0
C259 C 0.62174 0.88403 0.52172 0.0
C260 C 0.61247 0.93164 0.50044 0.0
C261 C 0.70055 0.88682 0.48542 0.0
O262 O 0.63044 0.89824 0.51613 0.0
O263 O 0.61969 0.87168 0.51107 0.0
O264 O 0.64359 0.91549 0.46634 0.0
O265 O 0.62273 0.89232 0.47596 0.0
Co266 Co 0.62835 0.34487 0.49122 0.0
O267 O 0.67233 0.33641 0.4939 0.0
O268 O 0.62697 0.32334 0.50253 0.0
C269 C 0.63426 0.35255 0.46192 0.0
O270 O 0.57865 0.35053 0.4896 0.0
Co271 Co 0.62209 0.38214 0.48395 0.0
O272 O 0.57628 0.37571 0.47731 0.0
C273 C 0.63311 0.3705 0.52166 0.0
C274 C 0.65919 0.32334 0.5006 0.0
C275 C 0.5623 0.36257 0.48254 0.0
O276 O 0.63149 0.35573 0.51587 0.0
O277 O 0.63183 0.38288 0.511 0.0
O278 O 0.62725 0.33757 0.46593 0.0
O279 O 0.64124 0.36188 0.4757 0.0
Co280 Co 0.36629 0.65795 0.24428 0.0
O281 O 0.40892 0.66817 0.24491 0.0
O282 O 0.36299 0.67945 0.25561 0.0
C283 C 0.36938 0.65027 0.21481 0.0
O284 O 0.31771 0.65023 0.24509 0.0
Co285 Co 0.36608 0.62047 0.23747 0.0
O286 O 0.31769 0.62411 0.23547 0.0
C287 C 0.38165 0.63299 0.27428 0.0
C288 C 0.39478 0.68063 0.25238 0.0
C289 C 0.30247 0.63693 0.24061 0.0
O290 O 0.37524 0.6475 0.26873 0.0
O291 O 0.38162 0.62057 0.26366 0.0
O292 O 0.36005 0.6649 0.21905 0.0
O293 O 0.37989 0.64144 0.2283 0.0
Co294 Co 0.37346 0.09654 0.2442 0.0
O295 O 0.33101 0.08614 0.24354 0.0
O296 O 0.37626 0.07492 0.25517 0.0
C297 C 0.37302 0.10467 0.21484 0.0
O298 O 0.42181 0.10433 0.2463 0.0
Co299 Co 0.37391 0.13407 0.23833 0.0
O300 O 0.42233 0.1303 0.23631 0.0
C301 C 0.35564 0.12095 0.27446 0.0
C302 C 0.34486 0.07359 0.25102 0.0
C303 C 0.43735 0.11749 0.2417 0.0
O304 O 0.36254 0.10657 0.26863 0.0
O305 O 0.3563 0.13356 0.26414 0.0
O306 O 0.38192 0.08998 0.21906 0.0
O307 O 0.3611 0.11328 0.22817 0.0
Co308 Co 0.37908 0.09569 0.49503 0.0
O309 O 0.42149 0.08537 0.497 0.0
O310 O 0.37811 0.07453 0.4829 0.0
C311 C 0.37476 0.10274 0.52464 0.0
O312 O 0.33118 0.10344 0.49111 0.0
Co313 Co 0.37769 0.13294 0.5025 0.0
O314 O 0.32921 0.12979 0.49987 0.0
C315 C 0.39978 0.12119 0.46648 0.0
C316 C 0.40897 0.07319 0.48815 0.0
C317 C 0.31528 0.11686 0.49401 0.0
O318 O 0.3932 0.10658 0.4716 0.0
O319 O 0.39741 0.13349 0.47718 0.0
O320 O 0.36678 0.08821 0.51929 0.0
O321 O 0.38897 0.11183 0.51243 0.0
Co322 Co 0.3899 0.65341 0.49879 0.0
O323 O 0.34822 0.66382 0.50319 0.0
O324 O 0.39029 0.67554 0.48888 0.0
C325 C 0.39561 0.64375 0.52735 0.0
O326 O 0.43723 0.64578 0.49287 0.0
Co327 Co 0.3911 0.61576 0.50213 0.0
O328 O 0.43961 0.61902 0.49968 0.0
C329 C 0.36496 0.6306 0.46852 0.0
C330 C 0.36013 0.67665 0.49534 0.0
C331 C 0.45336 0.63227 0.49464 0.0
O332 O 0.37331 0.64466 0.47473 0.0
O333 O 0.36757 0.61752 0.47794 0.0
O334 O 0.40448 0.65854 0.5235 0.0
O335 O 0.38042 0.63593 0.51444 0.0
Co336 Co 0.63983 0.84145 0.24577 0.0
O337 O 0.59586 0.83268 0.24711 0.0
O338 O 0.63844 0.81998 0.23436 0.0
C339 C 0.64253 0.8492 0.27523 0.0
O340 O 0.68903 0.84736 0.24267 0.0
Co341 Co 0.64662 0.87882 0.2522 0.0
O342 O 0.69456 0.87398 0.24999 0.0
C343 C 0.62402 0.86692 0.21633 0.0
C344 C 0.60714 0.81983 0.23898 0.0
C345 C 0.70668 0.86032 0.24508 0.0
O346 O 0.62891 0.85224 0.22178 0.0
O347 O 0.62733 0.87933 0.22679 0.0
O348 O 0.64893 0.83428 0.27065 0.0
O349 O 0.63119 0.8584 0.26225 0.0
Co350 Co 0.59896 0.41461 0.24733 0.0
O351 O 0.64082 0.42562 0.24792 0.0
O352 O 0.59479 0.43619 0.2363 0.0
C353 C 0.59991 0.40627 0.27661 0.0
O354 O 0.55127 0.40591 0.2451 0.0
Co355 Co 0.60209 0.377 0.25301 0.0
O356 O 0.55318 0.37932 0.25298 0.0
C357 C 0.62074 0.39081 0.21734 0.0
C358 C 0.62629 0.43779 0.24007 0.0
C359 C 0.53715 0.39204 0.24824 0.0
O360 O 0.61087 0.40484 0.22291 0.0
O361 O 0.62198 0.37828 0.22777 0.0
O362 O 0.58991 0.42085 0.2726 0.0
O363 O 0.61252 0.39808 0.26317 0.0
Co364 Co 0.63674 0.40643 0.99143 0.0
O365 O 0.59407 0.4165 0.98964 0.0
O366 O 0.63827 0.42828 0.00185 0.0
C367 C 0.63887 0.39745 0.9625 0.0
O368 O 0.68509 0.39914 -0.00527 0.0
Co369 Co 0.63859 0.36879 0.98702 0.0
O370 O 0.68715 0.37241 0.98759 0.0
C371 C 0.61844 0.38274 0.02235 0.0
C372 C 0.60701 0.42922 -0.00274 0.0
C373 C 0.70117 0.38573 0.99212 0.0
O374 O 0.62451 0.39701 0.01596 0.0
O375 O 0.62047 0.36978 0.01267 0.0
O376 O 0.64708 0.41233 0.96635 0.0
O377 O 0.62573 0.38916 0.97574 0.0
Co378 Co 0.60914 0.83637 0.99279 0.0
O379 O 0.65275 0.82719 0.99253 0.0
O380 O 0.60879 0.81498 0.00447 0.0
C381 C 0.60895 0.84383 0.96322 0.0
O382 O 0.56007 0.8429 -0.00536 0.0
Co383 Co 0.60519 0.87375 0.98583 0.0
O384 O 0.55687 0.86944 0.98654 0.0
C385 C 0.62592 0.86185 0.022 0.0
C386 C 0.64041 0.81455 0.00058 0.0
C387 C 0.54346 0.85604 0.99134 0.0
O388 O 0.61901 0.84728 0.01686 0.0
O389 O 0.6248 0.87412 0.01118 0.0
O390 O 0.60144 0.82904 0.96785 0.0
O391 O 0.61987 0.853 0.97633 0.0
Co392 Co 0.36568 0.15633 0.74241 0.0
O393 O 0.40919 0.16558 0.74061 0.0
O394 O 0.36605 0.17829 0.7527 0.0
C395 C 0.36329 0.14732 0.7134 0.0
O396 O 0.3167 0.14994 0.7456 0.0
Co397 Co 0.361 0.11872 0.73803 0.0
O398 O 0.31272 0.12314 0.73892 0.0
C399 C 0.38413 0.13235 0.77297 0.0
C400 C 0.39736 0.17862 0.74808 0.0
C401 C 0.29968 0.13677 0.74319 0.0
O402 O 0.37724 0.14669 0.76699 0.0
O403 O 0.382 0.11957 0.763 0.0
O404 O 0.35613 0.16233 0.71721 0.0
O405 O 0.37534 0.13886 0.72681 0.0
Co406 Co 0.37892 0.59873 0.74765 0.0
O407 O 0.3365 0.58834 0.74601 0.0
O408 O 0.38045 0.57736 0.75936 0.0
C409 C 0.38178 0.60614 0.71816 0.0
O410 O 0.427 0.60654 0.75104 0.0
Co411 Co 0.38011 0.63605 0.74054 0.0
O412 O 0.42874 0.63275 0.74177 0.0
C413 C 0.35835 0.62393 0.77648 0.0
C414 C 0.34943 0.57603 0.75442 0.0
C415 C 0.44294 0.61986 0.74755 0.0
O416 O 0.36548 0.60937 0.77135 0.0
O417 O 0.36017 0.63626 0.76579 0.0
O418 O 0.39037 0.59159 0.72313 0.0
O419 O 0.36803 0.61504 0.73069 0.0
Co420 Co 0.37889 0.59518 -0.00344 0.0
O421 O 0.42116 0.58466 -0.00436 0.0
O422 O 0.37506 0.57432 0.98392 0.0
C423 C 0.38135 0.60146 0.02642 0.0
O424 O 0.33059 0.60324 -0.00417 0.0
Co425 Co 0.37891 0.63221 0.00548 0.0
O426 O 0.33069 0.62827 0.00853 0.0
C427 C 0.39593 0.62135 0.96822 0.0
C428 C 0.40671 0.57271 0.98731 0.0
C429 C 0.31534 0.61594 0.0021 0.0
O430 O 0.38885 0.60668 0.97291 0.0
O431 O 0.39569 0.6333 0.9795 0.0
O432 O 0.37169 0.58712 0.02125 0.0
O433 O 0.39253 0.61085 0.01357 0.0
Co434 Co 0.38909 0.16174 -0.00268 0.0
O435 O 0.34462 0.16982 -0.00401 0.0
O436 O 0.3885 0.18291 0.98526 0.0
C437 C 0.38653 0.15478 0.027 0.0
O438 O 0.43896 0.15668 -0.00278 0.0
Co439 Co 0.39917 0.12501 0.00552 0.0
O440 O 0.44454 0.13259 0.01173 0.0
C441 C 0.38258 0.13537 0.96789 0.0
C442 C 0.3566 0.18277 0.98837 0.0
C443 C 0.4568 0.14559 0.00501 0.0
O444 O 0.3835 0.15027 0.9732 0.0
O445 O 0.38646 0.12331 0.97884 0.0
O446 O 0.39294 0.16965 0.02225 0.0
O447 O 0.37857 0.14498 0.01378 0.0
H448 H 0.1171 0.33919 0.18471 0.0
H449 H 0.1197 0.34348 0.15163 0.0
H450 H 0.08637 0.39293 0.15866 0.0
H451 H 0.08393 0.38889 0.19198 0.0
H452 H 0.05883 0.37439 0.12662 0.0
H453 H 0.16163 0.38971 0.15572 0.0
H454 H 0.2081 0.38497 0.17703 0.0
H455 H 0.2377 0.34304 0.14584 0.0
H456 H 0.19065 0.34726 0.12464 0.0
H457 H 0.11266 0.398 0.03771 0.0
H458 H 0.10824 0.39887 0.07126 0.0
H459 H 0.15074 0.35079 0.07466 0.0
H460 H 0.15504 0.34976 0.04119 0.0
H461 H 0.17377 0.37163 0.102 0.0
H462 H 0.07128 0.35345 0.07558 0.0
H463 H 0.02197 0.35459 0.05555 0.0
H464 H 0.99101 0.39894 0.08159 0.0
H465 H 0.04049 0.39819 0.10163 0.0
C466 C 0.10969 0.35092 0.17929 0.0
C467 C 0.10079 0.36379 0.19106 0.0
C468 C 0.11123 0.35332 0.16037 0.0
C469 C 0.10367 0.36857 0.15285 0.0
C470 C 0.0924 0.3811 0.16431 0.0
C471 C 0.09114 0.37876 0.18333 0.0
C472 C 0.1106 0.37171 0.13327 0.0
C473 C 0.08395 0.37416 0.12123 0.0
C474 C 0.1434 0.37097 0.12635 0.0
C475 C 0.17242 0.36872 0.13869 0.0
C476 C 0.17789 0.37941 0.15348 0.0
C477 C 0.20435 0.37681 0.16554 0.0
C478 C 0.22588 0.36371 0.1628 0.0
C479 C 0.221 0.35319 0.14795 0.0
C480 C 0.1944 0.35567 0.13592 0.0
C481 C 0.12178 0.38778 0.04563 0.0
C482 C 0.13397 0.37376 0.03684 0.0
C483 C 0.11904 0.38826 0.06475 0.0
C484 C 0.12878 0.37481 0.07533 0.0
C485 C 0.14302 0.36126 0.06668 0.0
C486 C 0.14537 0.36068 0.04758 0.0
C487 C 0.12197 0.37427 0.09525 0.0
C488 C 0.14867 0.37223 0.10739 0.0
C489 C 0.08917 0.37517 0.10222 0.0
C490 C 0.05981 0.37588 0.08993 0.0
C491 C 0.05419 0.36356 0.07688 0.0
C492 C 0.02616 0.3641 0.06557 0.0
C493 C 0.00338 0.37682 0.0673 0.0
C494 C 0.00869 0.38909 0.08028 0.0
C495 C 0.03673 0.38862 0.09161 0.0
H496 H 0.98154 0.37713 0.05864 0.0
H497 H 0.24635 0.3617 0.17217 0.0
H498 H 0.11302 0.85874 0.03817 0.0
H499 H 0.1186 0.85293 0.07103 0.0
H500 H 0.14312 0.90321 0.08119 0.0
H501 H 0.13758 0.9092 0.04858 0.0
H502 H 0.18803 0.88137 0.0968 0.0
H503 H 0.06903 0.88972 0.0924 0.0
H504 H 0.01289 0.88412 0.08043 0.0
H505 H 0.01978 0.83469 0.09917 0.0
H506 H 0.0762 0.83996 0.11104 0.0
H507 H 0.1604 0.90122 0.18877 0.0
H508 H 0.16315 0.89749 0.15563 0.0
H509 H 0.13596 0.84701 0.1619 0.0
H510 H 0.1329 0.85066 0.19528 0.0
H511 H 0.09645 0.8628 0.13731 0.0
H512 H 0.21201 0.85596 0.14645 0.0
H513 H 0.26771 0.86185 0.15882 0.0
H514 H 0.2679 0.90811 0.13142 0.0
H515 H 0.21197 0.90262 0.11909 0.0
C516 C 0.11923 0.86861 0.04742 0.0
C517 C 0.12497 0.88443 0.0407 0.0
C518 C 0.12244 0.86525 0.06616 0.0
C519 C 0.13149 0.87763 0.07844 0.0
C520 C 0.13638 0.89347 0.07187 0.0
C521 C 0.13298 0.89688 0.05321 0.0
C522 C 0.13665 0.8742 0.09815 0.0
C523 C 0.16803 0.87736 0.10571 0.0
C524 C 0.11084 0.86835 0.10953 0.0
C525 C 0.07699 0.86517 0.10238 0.0
C526 C 0.0587 0.87762 0.0938 0.0
C527 C 0.0268 0.87451 0.08707 0.0
C528 C 0.01282 0.85904 0.08898 0.0
C529 C 0.03068 0.84666 0.09767 0.0
C530 C 0.06261 0.8497 0.1044 0.0
C531 C 0.15555 0.88923 0.18317 0.0
C532 C 0.14622 0.87626 0.19464 0.0
C533 C 0.15733 0.8871 0.16421 0.0
C534 C 0.14991 0.87195 0.15634 0.0
C535 C 0.14186 0.85878 0.16776 0.0
C536 C 0.14029 0.86088 0.18681 0.0
C537 C 0.14759 0.87053 0.13612 0.0
C538 C 0.11674 0.86644 0.1284 0.0
C539 C 0.17393 0.87551 0.12457 0.0
C540 C 0.20767 0.87889 0.13191 0.0
C541 C 0.22381 0.86744 0.14316 0.0
C542 C 0.25545 0.8707 0.15015 0.0
C543 C 0.27132 0.88535 0.14593 0.0
C544 C 0.25558 0.89677 0.13467 0.0
C545 C 0.22392 0.89357 0.12765 0.0
H546 H 0.29582 0.88786 0.15136 0.0
H547 H 0.98811 0.85666 0.08377 0.0
H548 H 0.87628 0.60368 0.78782 0.0
H549 H 0.87872 0.59966 0.8211 0.0
H550 H 0.90103 0.65057 0.82854 0.0
H551 H 0.89881 0.65472 0.79538 0.0
H552 H 0.93672 0.63094 0.85201 0.0
H553 H 0.82311 0.63804 0.83152 0.0
H554 H 0.77373 0.63115 0.81304 0.0
H555 H 0.77154 0.5834 0.83698 0.0
H556 H 0.82127 0.58995 0.85541 0.0
H557 H 0.87926 0.65622 0.93694 0.0
H558 H 0.88019 0.65186 0.90388 0.0
H559 H 0.86796 0.60026 0.91205 0.0
H560 H 0.86728 0.6044 0.9454 0.0
H561 H 0.83004 0.61511 0.88127 0.0
H562 H 0.94036 0.61005 0.90512 0.0
H563 H 0.98817 0.61828 0.92414 0.0
H564 H 0.99578 0.66309 0.89409 0.0
H565 H 0.94759 0.65526 0.8751 0.0
C566 C 0.8824 0.61396 0.7965 0.0
C567 C 0.88697 0.62957 0.78898 0.0
C568 C 0.88363 0.61163 0.81551 0.0
C569 C 0.88959 0.62487 0.82722 0.0
C570 C 0.8963 0.64022 0.81969 0.0
C571 C 0.89487 0.64258 0.80075 0.0
C572 C 0.88634 0.62318 0.84735 0.0
C573 C 0.91345 0.62746 0.85841 0.0
C574 C 0.85609 0.61832 0.85564 0.0
C575 C 0.82614 0.6144 0.84465 0.0
C576 C 0.81227 0.62602 0.83272 0.0
C577 C 0.78419 0.62219 0.82228 0.0
C578 C 0.76957 0.60683 0.82379 0.0
C579 C 0.78294 0.59528 0.83579 0.0
C580 C 0.81107 0.59905 0.84623 0.0
C581 C 0.8762 0.64394 0.93181 0.0
C582 C 0.87371 0.63062 0.94388 0.0
C583 C 0.8768 0.64149 0.91289 0.0
C584 C 0.87472 0.62573 0.90566 0.0
C585 C 0.8698 0.6125 0.91749 0.0
C586 C 0.86945 0.61491 0.93651 0.0
C587 C 0.88021 0.6232 0.88584 0.0
C588 C 0.85355 0.61819 0.87486 0.0
C589 C 0.91082 0.62745 0.8776 0.0
C590 C 0.94019 0.63211 0.88878 0.0
C591 C 0.95206 0.62171 0.90265 0.0
C592 C 0.97925 0.6263 0.91342 0.0
C593 C 0.99497 0.64121 0.91034 0.0
C594 C 0.98357 0.65155 0.89646 0.0
C595 C 0.95633 0.64703 0.88568 0.0
H596 H 0.01601 0.64475 0.91869 0.0
H597 H 0.74782 0.60389 0.8157 0.0
H598 H 0.90516 0.10459 0.93817 0.0
H599 H 0.906 0.10974 0.90521 0.0
H600 H 0.85612 0.15558 0.91367 0.0
H601 H 0.85527 0.15052 0.94692 0.0
H602 H 0.82558 0.13593 0.8874 0.0
H603 H 0.93268 0.1571 0.89904 0.0
H604 H 0.98896 0.15826 0.9123 0.0
H605 H 0.01569 0.11473 0.88323 0.0
H606 H 0.9594 0.11315 0.87001 0.0
H607 H 0.84809 0.1455 0.78832 0.0
H608 H 0.84853 0.15115 0.82144 0.0
H609 H 0.89108 0.10386 0.8316 0.0
H610 H 0.89033 0.09798 0.79878 0.0
H611 H 0.92574 0.13116 0.84803 0.0
H612 H 0.81545 0.10792 0.84134 0.0
H613 H 0.75889 0.10654 0.82845 0.0
H614 H 0.73862 0.1547 0.84841 0.0
H615 H 0.79531 0.15644 0.8612 0.0
C616 C 0.89479 0.11589 0.93308 0.0
C617 C 0.88007 0.12713 0.94511 0.0
C618 C 0.89544 0.11885 0.91424 0.0
C619 C 0.88127 0.13307 0.90705 0.0
C620 C 0.86729 0.14456 0.91902 0.0
C621 C 0.86699 0.14169 0.93797 0.0
C622 C 0.87909 0.13507 0.88691 0.0
C623 C 0.84751 0.13535 0.87875 0.0
C624 C 0.90771 0.13411 0.87571 0.0
C625 C 0.9417 0.13497 0.8836 0.0
C626 C 0.95046 0.1477 0.89558 0.0
C627 C 0.98239 0.14845 0.90307 0.0
C628 C 0.00587 0.13657 0.89863 0.0
C629 C 0.99747 0.12393 0.88666 0.0
C630 C 0.96556 0.12311 0.87913 0.0
C631 C 0.85722 0.13625 0.79764 0.0
C632 C 0.86923 0.1213 0.79092 0.0
C633 C 0.85745 0.1395 0.8165 0.0
C634 C 0.87006 0.12795 0.82883 0.0
C635 C 0.88144 0.11294 0.82221 0.0
C636 C 0.88077 0.10958 0.80346 0.0
C637 C 0.87229 0.13145 0.84866 0.0
C638 C 0.90391 0.1322 0.85669 0.0
C639 C 0.84374 0.13342 0.85972 0.0
C640 C 0.80976 0.1324 0.85198 0.0
C641 C 0.79907 0.11829 0.84279 0.0
C642 C 0.76696 0.11742 0.83555 0.0
C643 C 0.74522 0.13055 0.83754 0.0
C644 C 0.75552 0.14456 0.84683 0.0
C645 C 0.78763 0.14549 0.85408 0.0
H646 H 0.72036 0.12986 0.83194 0.0
H647 H 0.03058 0.13717 0.90444 0.0
H648 H 0.1175 0.88884 0.6943 0.0
H649 H 0.1188 0.89039 0.66072 0.0
H650 H 0.13667 0.83869 0.65785 0.0
H651 H 0.13454 0.83691 0.69113 0.0
H652 H 0.16974 0.88361 0.6383 0.0
H653 H 0.10534 0.82278 0.61962 0.0
H654 H 0.06103 0.80497 0.63164 0.0
H655 H 0.01451 0.84601 0.65752 0.0
H656 H 0.05829 0.86409 0.64548 0.0
H657 H 0.15568 0.83888 0.54315 0.0
H658 H 0.15679 0.83982 0.57664 0.0
H659 H 0.13994 0.89165 0.57512 0.0
H660 H 0.13936 0.8909 0.54161 0.0
H661 H 0.10442 0.84798 0.59683 0.0
H662 H 0.1689 0.90887 0.61492 0.0
H663 H 0.2142 0.92634 0.60342 0.0
H664 H 0.26128 0.88482 0.57885 0.0
H665 H 0.21652 0.86708 0.5904 0.0
C666 C 0.12112 0.87776 0.68651 0.0
C667 C 0.12592 0.86276 0.69544 0.0
C668 C 0.12203 0.87869 0.66734 0.0
C669 C 0.12762 0.86465 0.65681 0.0
C670 C 0.13174 0.84964 0.66568 0.0
C671 C 0.13063 0.84867 0.68477 0.0
C672 C 0.13082 0.86567 0.6366 0.0
C673 C 0.15505 0.87605 0.62917 0.0
C674 C 0.11223 0.85547 0.6248 0.0
C675 C 0.08527 0.84477 0.63175 0.0
C676 C 0.08555 0.82802 0.62778 0.0
C677 C 0.06056 0.81787 0.63463 0.0
C678 C 0.03503 0.82435 0.64538 0.0
C679 C 0.03436 0.841 0.64924 0.0
C680 C 0.05929 0.8512 0.64243 0.0
C681 C 0.15295 0.85055 0.54991 0.0
C682 C 0.14709 0.86479 0.5397 0.0
C683 C 0.15349 0.85105 0.56905 0.0
C684 C 0.14823 0.86577 0.57835 0.0
C685 C 0.14436 0.88017 0.56821 0.0
C686 C 0.14403 0.87971 0.54904 0.0
C687 C 0.14367 0.86577 0.59852 0.0
C688 C 0.11904 0.85561 0.60593 0.0
C689 C 0.16192 0.87615 0.61028 0.0
C690 C 0.18913 0.88668 0.60336 0.0
C691 C 0.18897 0.90346 0.60711 0.0
C692 C 0.21455 0.91341 0.60058 0.0
C693 C 0.24053 0.9067 0.59036 0.0
C694 C 0.24105 0.89002 0.5867 0.0
C695 C 0.21555 0.88001 0.59321 0.0
H696 H 0.26031 0.91443 0.58531 0.0
H697 H 0.01574 0.81647 0.6507 0.0
H698 H 0.10926 0.40339 0.54126 0.0
H699 H 0.11278 0.40074 0.57454 0.0
H700 H 0.13872 0.35009 0.56888 0.0
H701 H 0.13516 0.35256 0.53539 0.0
H702 H 0.09665 0.3572 0.5997 0.0
H703 H 0.20007 0.37433 0.57362 0.0
H704 H 0.23594 0.39093 0.55352 0.0
H705 H 0.20582 0.43417 0.58214 0.0
H706 H 0.16947 0.41785 0.60227 0.0
H707 H 0.15087 0.35946 0.69277 0.0
H708 H 0.1543 0.35466 0.65965 0.0
H709 H 0.13785 0.40577 0.64964 0.0
H710 H 0.13527 0.41077 0.68251 0.0
H711 H 0.18195 0.39405 0.62613 0.0
H712 H 0.07354 0.37731 0.64937 0.0
H713 H 0.03647 0.36097 0.66908 0.0
H714 H 0.0756 0.31702 0.64562 0.0
H715 H 0.11319 0.33313 0.62593 0.0
C716 C 0.11505 0.39158 0.54704 0.0
C717 C 0.1225 0.37825 0.53566 0.0
C718 C 0.1171 0.39011 0.56607 0.0
C719 C 0.12678 0.37533 0.57405 0.0
C720 C 0.13146 0.36162 0.56289 0.0
C721 C 0.12934 0.36306 0.54377 0.0
C722 C 0.13481 0.37479 0.59383 0.0
C723 C 0.1157 0.365 0.60551 0.0
C724 C 0.15966 0.38502 0.60128 0.0
C725 C 0.18191 0.39487 0.58939 0.0
C726 C 0.20097 0.38739 0.57556 0.0
C727 C 0.22141 0.39675 0.56417 0.0
C728 C 0.22313 0.4136 0.56654 0.0
C729 C 0.20448 0.42112 0.58033 0.0
C730 C 0.184 0.41182 0.59176 0.0
C731 C 0.14857 0.36973 0.68353 0.0
C732 C 0.14234 0.38548 0.69033 0.0
C733 C 0.15036 0.36694 0.66461 0.0
C734 C 0.14564 0.37981 0.6522 0.0
C735 C 0.14142 0.39564 0.65897 0.0
C736 C 0.13985 0.39847 0.67782 0.0
C737 C 0.143 0.37689 0.63218 0.0
C738 C 0.16328 0.38601 0.62038 0.0
C739 C 0.11923 0.36604 0.62465 0.0
C740 C 0.09641 0.3564 0.63635 0.0
C741 C 0.07437 0.36416 0.64851 0.0
C742 C 0.05325 0.35494 0.65966 0.0
C743 C 0.05375 0.33797 0.65864 0.0
C744 C 0.07528 0.33017 0.64642 0.0
C745 C 0.09648 0.33933 0.63526 0.0
H746 H 0.0374 0.33085 0.66729 0.0
H747 H 0.23894 0.42082 0.5577 0.0
H748 H 0.89814 0.15044 0.29509 0.0
H749 H 0.90236 0.14798 0.32834 0.0
H750 H 0.87931 0.09682 0.32469 0.0
H751 H 0.87467 0.09917 0.29125 0.0
H752 H 0.83956 0.11257 0.34913 0.0
H753 H 0.95553 0.10814 0.33817 0.0
H754 H 0.00972 0.11526 0.3246 0.0
H755 H 0.00612 0.16208 0.35069 0.0
H756 H 0.95168 0.15533 0.36424 0.0
H757 H 0.86731 0.10728 0.4474 0.0
H758 H 0.86802 0.10268 0.41417 0.0
H759 H 0.88655 0.15374 0.40517 0.0
H760 H 0.88578 0.15854 0.43817 0.0
H761 H 0.93195 0.13344 0.38758 0.0
H762 H 0.81335 0.13897 0.3952 0.0
H763 H 0.75858 0.13223 0.40831 0.0
H764 H 0.76736 0.08328 0.38823 0.0
H765 H 0.82245 0.08969 0.37522 0.0
C766 C 0.89451 0.13858 0.30128 0.0
C767 C 0.88585 0.12502 0.29053 0.0
C768 C 0.8971 0.13719 0.3203 0.0
C769 C 0.89124 0.1222 0.32894 0.0
C770 C 0.88394 0.10847 0.31823 0.0
C771 C 0.8815 0.10984 0.29914 0.0
C772 C 0.89 0.12139 0.34922 0.0
C773 C 0.86004 0.11675 0.3576 0.0
C774 C 0.91652 0.12714 0.36017 0.0
C775 C 0.94939 0.13125 0.35214 0.0
C776 C 0.96618 0.12 0.34092 0.0
C777 C 0.99697 0.12396 0.33325 0.0
C778 C 0.01133 0.13912 0.33676 0.0
C779 C 0.99496 0.15034 0.34799 0.0
C780 C 0.96416 0.14644 0.3557 0.0
C781 C 0.871 0.11759 0.43835 0.0
C782 C 0.87677 0.13326 0.4455 0.0
C783 C 0.87142 0.11492 0.41939 0.0
C784 C 0.87764 0.12786 0.40731 0.0
C785 C 0.88201 0.14359 0.41433 0.0
C786 C 0.88137 0.14629 0.43322 0.0
C787 C 0.88127 0.12503 0.38738 0.0
C788 C 0.91172 0.12897 0.37912 0.0
C789 C 0.85523 0.11863 0.37656 0.0
C790 C 0.82221 0.11475 0.38446 0.0
C791 C 0.80376 0.12672 0.39375 0.0
C792 C 0.77262 0.12297 0.40112 0.0
C793 C 0.75955 0.10732 0.39916 0.0
C794 C 0.77756 0.09539 0.38978 0.0
C795 C 0.80873 0.09908 0.3824 0.0
H796 H 0.73542 0.10444 0.40487 0.0
H797 H 0.03516 0.14217 0.3308 0.0
H798 H 0.87278 0.64416 0.28817 0.0
H799 H 0.8741 0.64754 0.32158 0.0
H800 H 0.85386 0.59636 0.32852 0.0
H801 H 0.85245 0.59285 0.29524 0.0
H802 H 0.82092 0.61542 0.35392 0.0
H803 H 0.93037 0.60867 0.32873 0.0
H804 H 0.97674 0.61546 0.30804 0.0
H805 H 0.98486 0.6627 0.33286 0.0
H806 H 0.93775 0.65635 0.35337 0.0
H807 H 0.88784 0.59171 0.43748 0.0
H808 H 0.88444 0.59528 0.40434 0.0
H809 H 0.89471 0.64717 0.41078 0.0
H810 H 0.89788 0.64383 0.44419 0.0
H811 H 0.93062 0.63175 0.37916 0.0
H812 H 0.82215 0.63628 0.40671 0.0
H813 H 0.77715 0.62749 0.42744 0.0
H814 H 0.76944 0.58221 0.39831 0.0
H815 H 0.81482 0.59062 0.37759 0.0
C816 C 0.86785 0.6337 0.29681 0.0
C817 C 0.86289 0.61819 0.28909 0.0
C818 C 0.86876 0.63565 0.31587 0.0
C819 C 0.86453 0.62215 0.32743 0.0
C820 C 0.85727 0.60691 0.31979 0.0
C821 C 0.85663 0.60492 0.30077 0.0
C822 C 0.87043 0.62349 0.3474 0.0
C823 C 0.84486 0.61901 0.35944 0.0
C824 C 0.90164 0.62833 0.35454 0.0
C825 C 0.93022 0.63212 0.3424 0.0
C826 C 0.9418 0.62057 0.32965 0.0
C827 C 0.96826 0.62433 0.31797 0.0
C828 C 0.98376 0.63951 0.31911 0.0
C829 C 0.97279 0.65096 0.33196 0.0
C830 C 0.94616 0.6473 0.34359 0.0
C831 C 0.88996 0.6039 0.43194 0.0
C832 C 0.89255 0.61752 0.44356 0.0
C833 C 0.88801 0.60589 0.41297 0.0
C834 C 0.88879 0.62149 0.40526 0.0
C835 C 0.89392 0.63504 0.41659 0.0
C836 C 0.89567 0.63309 0.43566 0.0
C837 C 0.88119 0.62354 0.38558 0.0
C838 C 0.90646 0.62855 0.37363 0.0
C839 C 0.84982 0.61902 0.37848 0.0
C840 C 0.82206 0.61404 0.39068 0.0
C841 C 0.81102 0.62441 0.4048 0.0
C842 C 0.78542 0.61949 0.41654 0.0
C843 C 0.77048 0.60429 0.41421 0.0
C844 C 0.78104 0.59398 0.4001 0.0
C845 C 0.80668 0.59882 0.38834 0.0
H846 H 0.75068 0.6005 0.42332 0.0
H847 H 0.00429 0.64239 0.31008 0.0
H848 H 0.61968 0.3987 0.54042 0.0
H849 H 0.61121 0.40163 0.57356 0.0
H850 H 0.63782 0.35126 0.58137 0.0
H851 H 0.64598 0.34815 0.54839 0.0
H852 H 0.57883 0.35878 0.59736 0.0
H853 H 0.68983 0.38223 0.59383 0.0
H854 H 0.73118 0.40204 0.58262 0.0
H855 H 0.67212 0.44136 0.60362 0.0
H856 H 0.63021 0.42178 0.61476 0.0
H857 H 0.61633 0.34427 0.68876 0.0
H858 H 0.61269 0.34851 0.6559 0.0
H859 H 0.5912 0.39936 0.66461 0.0
H860 H 0.596 0.39536 0.69786 0.0
H861 H 0.63784 0.3962 0.63971 0.0
H862 H 0.53115 0.37274 0.64749 0.0
H863 H 0.48945 0.35321 0.65889 0.0
H864 H 0.53807 0.31453 0.62977 0.0
H865 H 0.58033 0.33376 0.6184 0.0
C866 C 0.62435 0.38833 0.54923 0.0
C867 C 0.63325 0.37314 0.54175 0.0
C868 C 0.61943 0.39003 0.56815 0.0
C869 C 0.62367 0.37663 0.57986 0.0
C870 C 0.6341 0.36171 0.57251 0.0
C871 C 0.63886 0.35997 0.55366 0.0
C872 C 0.61563 0.37769 0.59964 0.0
C873 C 0.59183 0.36689 0.60668 0.0
C874 C 0.63144 0.38884 0.61156 0.0
C875 C 0.65672 0.40056 0.60493 0.0
C876 C 0.68554 0.39511 0.59593 0.0
C877 C 0.7091 0.40629 0.58961 0.0
C878 C 0.70423 0.42295 0.59235 0.0
C879 C 0.67583 0.42846 0.60147 0.0
C880 C 0.65219 0.41733 0.6078 0.0
C881 C 0.61029 0.35635 0.68382 0.0
C882 C 0.6066 0.3695 0.69602 0.0
C883 C 0.608 0.35872 0.66494 0.0
C884 C 0.60123 0.37421 0.65776 0.0
C885 C 0.59635 0.3873 0.66987 0.0
C886 C 0.59897 0.38496 0.68886 0.0
C887 C 0.60207 0.37674 0.63761 0.0
C888 C 0.62431 0.38828 0.63042 0.0
C889 C 0.58462 0.36633 0.62549 0.0
C890 C 0.559 0.35471 0.63214 0.0
C891 C 0.53306 0.36006 0.64359 0.0
C892 C 0.5093 0.34903 0.65004 0.0
C893 C 0.51113 0.33264 0.64507 0.0
C894 C 0.53667 0.32723 0.6336 0.0
C895 C 0.56049 0.3382 0.62711 0.0
H896 H 0.49273 0.32412 0.65009 0.0
H897 H 0.72249 0.43159 0.58745 0.0
H898 H 0.61912 0.85271 0.6971 0.0
H899 H 0.61249 0.85039 0.6638 0.0
H900 H 0.63691 0.90124 0.65777 0.0
H901 H 0.6429 0.90376 0.69096 0.0
H902 H 0.58172 0.89386 0.63937 0.0
H903 H 0.69178 0.87045 0.64617 0.0
H904 H 0.73254 0.85088 0.65848 0.0
H905 H 0.67619 0.81123 0.63598 0.0
H906 H 0.63488 0.83058 0.62374 0.0
H907 H 0.62739 0.90698 0.54856 0.0
H908 H 0.62259 0.90321 0.58148 0.0
H909 H 0.59736 0.85269 0.57334 0.0
H910 H 0.60304 0.85623 0.54006 0.0
H911 H 0.64399 0.85596 0.59903 0.0
H912 H 0.53836 0.8801 0.58817 0.0
H913 H 0.49901 0.9 0.57517 0.0
H914 H 0.54704 0.93848 0.60494 0.0
H915 H 0.58695 0.91886 0.61795 0.0
C916 C 0.62359 0.86334 0.68866 0.0
C917 C 0.63141 0.87844 0.69667 0.0
C918 C 0.61975 0.86199 0.66964 0.0
C919 C 0.62415 0.87566 0.65834 0.0
C920 C 0.63312 0.89058 0.66627 0.0
C921 C 0.63668 0.89198 0.68524 0.0
C922 C 0.61829 0.87475 0.63831 0.0
C923 C 0.59547 0.88565 0.63051 0.0
C924 C 0.6352 0.86354 0.6269 0.0
C925 C 0.66006 0.85194 0.63424 0.0
C926 C 0.68795 0.85755 0.64399 0.0
C927 C 0.71118 0.8465 0.65092 0.0
C928 C 0.7069 0.82982 0.64807 0.0
C929 C 0.67944 0.82415 0.63822 0.0
C930 C 0.65613 0.83515 0.63127 0.0
C931 C 0.62047 0.89507 0.55365 0.0
C932 C 0.61569 0.88189 0.54161 0.0
C933 C 0.6175 0.89297 0.57254 0.0
C934 C 0.60912 0.87773 0.57985 0.0
C935 C 0.60369 0.86457 0.56793 0.0
C936 C 0.60688 0.86663 0.54894 0.0
C937 C 0.60838 0.87553 0.60001 0.0
C938 C 0.62976 0.86399 0.60788 0.0
C939 C 0.59016 0.88616 0.61151 0.0
C940 C 0.56576 0.89799 0.60399 0.0
C941 C 0.54063 0.89282 0.59189 0.0
C942 C 0.51821 0.90405 0.58453 0.0
C943 C 0.52055 0.9205 0.58921 0.0
C944 C 0.54524 0.92574 0.60134 0.0
C945 C 0.56772 0.91455 0.60874 0.0
H946 H 0.50322 0.92918 0.58346 0.0
H947 H 0.72491 0.82128 0.65344 0.0
H948 H 0.37678 0.60439 0.29339 0.0
H949 H 0.37433 0.60116 0.32677 0.0
H950 H 0.39283 0.65249 0.33365 0.0
H951 H 0.39542 0.65588 0.30037 0.0
H952 H 0.42591 0.63353 0.35934 0.0
H953 H 0.31582 0.63954 0.3337 0.0
H954 H 0.26957 0.63225 0.31306 0.0
H955 H 0.26473 0.58467 0.33731 0.0
H956 H 0.31135 0.59161 0.35791 0.0
H957 H 0.36033 0.65529 0.44353 0.0
H958 H 0.36127 0.65265 0.41022 0.0
H959 H 0.35255 0.60055 0.41505 0.0
H960 H 0.3519 0.60295 0.44856 0.0
H961 H 0.3162 0.61639 0.38391 0.0
H962 H 0.42467 0.61138 0.41117 0.0
H963 H 0.4695 0.61962 0.43232 0.0
H964 H 0.47654 0.6659 0.40522 0.0
H965 H 0.43139 0.65802 0.38407 0.0
C966 C 0.38105 0.61494 0.302 0.0
C967 C 0.38592 0.63044 0.29423 0.0
C968 C 0.37947 0.61307 0.32105 0.0
C969 C 0.3829 0.62664 0.33258 0.0
C970 C 0.39 0.6419 0.32493 0.0
C971 C 0.39135 0.64381 0.30591 0.0
C972 C 0.37664 0.62529 0.35251 0.0
C973 C 0.40194 0.62981 0.36471 0.0
C974 C 0.34548 0.62016 0.35946 0.0
C975 C 0.31733 0.61602 0.34717 0.0
C976 C 0.30508 0.62747 0.33452 0.0
C977 C 0.27878 0.62341 0.32284 0.0
C978 C 0.26429 0.60799 0.32383 0.0
C979 C 0.27603 0.5966 0.33653 0.0
C980 C 0.30239 0.60059 0.34821 0.0
C981 C 0.35779 0.64326 0.4376 0.0
C982 C 0.35678 0.62929 0.44876 0.0
C983 C 0.35835 0.6418 0.41855 0.0
C984 C 0.35764 0.6264 0.41033 0.0
C985 C 0.35333 0.61253 0.42126 0.0
C986 C 0.35299 0.61395 0.44039 0.0
C987 C 0.36532 0.62483 0.39062 0.0
C988 C 0.34033 0.61982 0.37851 0.0
C989 C 0.39675 0.62951 0.38372 0.0
C990 C 0.42444 0.63416 0.39614 0.0
C991 C 0.43562 0.62336 0.4098 0.0
C992 C 0.46111 0.62796 0.42178 0.0
C993 C 0.47577 0.6433 0.42016 0.0
C994 C 0.46511 0.65403 0.40648 0.0
C995 C 0.43961 0.6495 0.39448 0.0
H996 H 0.4954 0.64686 0.42949 0.0
H997 H 0.24392 0.60487 0.31479 0.0
H998 H 0.39764 0.15013 0.44777 0.0
H999 H 0.39273 0.15349 0.41451 0.0
H1000 H 0.40806 0.10197 0.40707 0.0
H1001 H 0.41355 0.0985 0.44016 0.0
H1002 H 0.4355 0.11897 0.37938 0.0
H1003 H 0.3306 0.11669 0.41132 0.0
H1004 H 0.28986 0.1255 0.43462 0.0
H1005 H 0.28623 0.173 0.41015 0.0
H1006 H 0.32732 0.16452 0.38684 0.0
H1007 H 0.35097 0.09728 0.30067 0.0
H1008 H 0.35744 0.1008 0.3337 0.0
H1009 H 0.35709 0.1529 0.327 0.0
H1010 H 0.35077 0.1496 0.29376 0.0
H1011 H 0.32399 0.13915 0.36106 0.0
H1012 H 0.42662 0.1384 0.32623 0.0
H1013 H 0.46242 0.12647 0.30227 0.0
H1014 H 0.46742 0.08172 0.33257 0.0
H1015 H 0.43077 0.09321 0.35645 0.0
C1016 C 0.40099 0.13958 0.43904 0.0
C1017 C 0.40537 0.12399 0.44665 0.0
C1018 C 0.39795 0.14152 0.42004 0.0
C1019 C 0.3992 0.12791 0.40842 0.0
C1020 C 0.40674 0.11261 0.41583 0.0
C1021 C 0.40978 0.11065 0.43478 0.0
C1022 C 0.38929 0.12916 0.3889 0.0
C1023 C 0.41119 0.12343 0.37539 0.0
C1024 C 0.35751 0.13501 0.3837 0.0
C1025 C 0.33236 0.14005 0.39749 0.0
C1026 C 0.32128 0.12905 0.41099 0.0
C1027 C 0.29813 0.13397 0.42419 0.0
C1028 C 0.28565 0.14983 0.42393 0.0
C1029 C 0.29606 0.16074 0.41038 0.0
C1030 C 0.31926 0.15589 0.39716 0.0
C1031 C 0.35143 0.10953 0.30617 0.0
C1032 C 0.35112 0.12316 0.29449 0.0
C1033 C 0.35504 0.11149 0.32508 0.0
C1034 C 0.35831 0.12709 0.33263 0.0
C1035 C 0.35471 0.14077 0.32132 0.0
C1036 C 0.3512 0.13883 0.30233 0.0
C1037 C 0.37013 0.12887 0.3517 0.0
C1038 C 0.34857 0.13508 0.36507 0.0
C1039 C 0.40202 0.12322 0.35683 0.0
C1040 C 0.42568 0.11662 0.34305 0.0
C1041 C 0.4352 0.12598 0.32774 0.0
C1042 C 0.45557 0.11929 0.31415 0.0
C1043 C 0.46705 0.10332 0.31585 0.0
C1044 C 0.45841 0.09407 0.33124 0.0
C1045 C 0.43781 0.10066 0.3448 0.0
H1046 H 0.48272 0.09814 0.30528 0.0
H1047 H 0.26782 0.15363 0.4342 0.0
H1048 H 0.6295 0.8954 0.19689 0.0
H1049 H 0.63158 0.8982 0.16344 0.0
H1050 H 0.60863 0.84721 0.15749 0.0
H1051 H 0.60662 0.84423 0.19077 0.0
H1052 H 0.66645 0.85629 0.13994 0.0
H1053 H 0.55287 0.87586 0.14588 0.0
H1054 H 0.50962 0.89438 0.15764 0.0
H1055 H 0.56058 0.93518 0.13388 0.0
H1056 H 0.60437 0.91691 0.12218 0.0
H1057 H 0.62632 0.83924 0.04941 0.0
H1058 H 0.63014 0.844 0.08221 0.0
H1059 H 0.64472 0.89532 0.07258 0.0
H1060 H 0.63991 0.89075 0.03944 0.0
H1061 H 0.59913 0.89075 0.09822 0.0
H1062 H 0.70868 0.87147 0.08886 0.0
H1063 H 0.75294 0.85359 0.07703 0.0
H1064 H 0.71263 0.8134 0.10743 0.0
H1065 H 0.66783 0.83097 0.11924 0.0
C1066 C 0.62406 0.88487 0.18847 0.0
C1067 C 0.61833 0.86953 0.19649 0.0
C1068 C 0.62533 0.8865 0.16936 0.0
C1069 C 0.62061 0.87287 0.15807 0.0
C1070 C 0.61268 0.85783 0.16603 0.0
C1071 C 0.61146 0.85617 0.18505 0.0
C1072 C 0.62671 0.87374 0.1381 0.0
C1073 C 0.6516 0.86373 0.13077 0.0
C1074 C 0.60847 0.8841 0.12635 0.0
C1075 C 0.58209 0.89504 0.13335 0.0
C1076 C 0.55501 0.88879 0.14331 0.0
C1077 C 0.53036 0.89924 0.14993 0.0
C1078 C 0.53241 0.91595 0.14656 0.0
C1079 C 0.55905 0.92224 0.13651 0.0
C1080 C 0.58378 0.91184 0.12987 0.0
C1081 C 0.6308 0.85155 0.05414 0.0
C1082 C 0.63269 0.86462 0.04173 0.0
C1083 C 0.63317 0.85423 0.07297 0.0
C1084 C 0.63811 0.86999 0.07984 0.0
C1085 C 0.64098 0.88305 0.06753 0.0
C1086 C 0.63836 0.8804 0.04861 0.0
C1087 C 0.63791 0.87271 0.09994 0.0
C1088 C 0.61439 0.88349 0.10736 0.0
C1089 C 0.65769 0.86317 0.11185 0.0
C1090 C 0.68477 0.85255 0.10488 0.0
C1091 C 0.70912 0.8588 0.09294 0.0
C1092 C 0.73433 0.84871 0.08625 0.0
C1093 C 0.73557 0.83236 0.09146 0.0
C1094 C 0.71164 0.82607 0.10341 0.0
C1095 C 0.68637 0.83609 0.11014 0.0
H1096 H 0.7551 0.82458 0.08625 0.0
H1097 H 0.5133 0.92402 0.15169 0.0
H1098 H 0.62453 0.3555 0.04377 0.0
H1099 H 0.62673 0.35456 0.07732 0.0
H1100 H 0.6028 0.40569 0.0797 0.0
H1101 H 0.60099 0.40681 0.04624 0.0
H1102 H 0.65826 0.39878 0.09876 0.0
H1103 H 0.54744 0.37648 0.09332 0.0
H1104 H 0.50535 0.357 0.08227 0.0
H1105 H 0.55892 0.31766 0.10734 0.0
H1106 H 0.60157 0.3369 0.11834 0.0
H1107 H 0.61832 0.41413 0.19068 0.0
H1108 H 0.6221 0.41023 0.15768 0.0
H1109 H 0.64352 0.3593 0.16578 0.0
H1110 H 0.63888 0.36297 0.19904 0.0
H1111 H 0.59545 0.3631 0.14135 0.0
H1112 H 0.7034 0.3856 0.14943 0.0
H1113 H 0.74534 0.405 0.16081 0.0
H1114 H 0.69828 0.44366 0.13088 0.0
H1115 H 0.65578 0.42454 0.11949 0.0
C1116 C 0.61891 0.36645 0.05144 0.0
C1117 C 0.6129 0.38127 0.04234 0.0
C1118 C 0.62025 0.36589 0.07061 0.0
C1119 C 0.61518 0.38009 0.08095 0.0
C1120 C 0.60712 0.39464 0.07193 0.0
C1121 C 0.60597 0.39523 0.05282 0.0
C1122 C 0.62069 0.38021 0.10103 0.0
C1123 C 0.6443 0.3911 0.10812 0.0
C1124 C 0.60352 0.36967 0.11308 0.0
C1125 C 0.57788 0.35811 0.10647 0.0
C1126 C 0.5504 0.36366 0.09633 0.0
C1127 C 0.5264 0.35266 0.09011 0.0
C1128 C 0.52951 0.33609 0.09405 0.0
C1129 C 0.55658 0.33049 0.10427 0.0
C1130 C 0.58065 0.34144 0.11051 0.0
C1131 C 0.62433 0.40212 0.18555 0.0
C1132 C 0.62804 0.38883 0.19755 0.0
C1133 C 0.62668 0.39993 0.16662 0.0
C1134 C 0.63333 0.3845 0.15928 0.0
C1135 C 0.63836 0.37131 0.1712 0.0
C1136 C 0.63582 0.37346 0.19019 0.0
C1137 C 0.63231 0.38204 0.13915 0.0
C1138 C 0.60972 0.37065 0.13201 0.0
C1139 C 0.65052 0.39209 0.12701 0.0
C1140 C 0.67626 0.40363 0.13369 0.0
C1141 C 0.70186 0.39826 0.14536 0.0
C1142 C 0.72576 0.4092 0.1518 0.0
C1143 C 0.72444 0.42556 0.1466 0.0
C1144 C 0.69927 0.43098 0.13489 0.0
C1145 C 0.6753 0.42009 0.12841 0.0
H1146 H 0.74295 0.43402 0.15161 0.0
H1147 H 0.51091 0.3276 0.08922 0.0
H1148 H 0.3893 0.15635 0.79877 0.0
H1149 H 0.39452 0.15316 0.83182 0.0
H1150 H 0.40196 0.1011 0.82538 0.0
H1151 H 0.39595 0.10412 0.7921 0.0
H1152 H 0.35755 0.10851 0.85095 0.0
H1153 H 0.46938 0.12349 0.83937 0.0
H1154 H 0.51552 0.13937 0.82615 0.0
H1155 H 0.48223 0.18195 0.85495 0.0
H1156 H 0.4356 0.1664 0.86815 0.0
H1157 H 0.38852 0.10621 0.94958 0.0
H1158 H 0.39225 0.10222 0.91627 0.0
H1159 H 0.37528 0.15348 0.90778 0.0
H1160 H 0.37138 0.15763 0.9408 0.0
H1161 H 0.43183 0.14187 0.89017 0.0
H1162 H 0.31586 0.12713 0.89803 0.0
H1163 H 0.26979 0.11103 0.911 0.0
H1164 H 0.31271 0.06728 0.88918 0.0
H1165 H 0.3593 0.08312 0.87629 0.0
C1166 C 0.39253 0.14421 0.80427 0.0
C1167 C 0.39202 0.13049 0.79273 0.0
C1168 C 0.39571 0.14242 0.82322 0.0
C1169 C 0.39891 0.1269 0.83106 0.0
C1170 C 0.39955 0.11319 0.81959 0.0
C1171 C 0.39624 0.11496 0.80057 0.0
C1172 C 0.39906 0.12511 0.85131 0.0
C1173 C 0.37432 0.11551 0.85955 0.0
C1174 C 0.42071 0.13436 0.86251 0.0
C1175 C 0.44886 0.14377 0.85468 0.0
C1176 C 0.47176 0.13627 0.8428 0.0
C1177 C 0.49803 0.14521 0.83532 0.0
C1178 C 0.50178 0.16166 0.83968 0.0
C1179 C 0.4793 0.1692 0.85158 0.0
C1180 C 0.45298 0.16032 0.85909 0.0
C1181 C 0.385 0.11659 0.94061 0.0
C1182 C 0.37996 0.13227 0.9479 0.0
C1183 C 0.38721 0.11428 0.9216 0.0
C1184 C 0.38434 0.12759 0.90965 0.0
C1185 C 0.37788 0.14308 0.91683 0.0
C1186 C 0.37556 0.1454 0.93574 0.0
C1187 C 0.38965 0.12576 0.88967 0.0
C1188 C 0.41553 0.13464 0.88154 0.0
C1189 C 0.36922 0.11578 0.87862 0.0
C1190 C 0.34128 0.10628 0.88641 0.0
C1191 C 0.31565 0.11406 0.89616 0.0
C1192 C 0.2894 0.10499 0.90346 0.0
C1193 C 0.28839 0.08813 0.90098 0.0
C1194 C 0.31357 0.08033 0.89114 0.0
C1195 C 0.33989 0.08935 0.88382 0.0
H1196 H 0.26804 0.08113 0.90663 0.0
H1197 H 0.52213 0.16856 0.83387 0.0
H1198 H 0.3572 0.65302 0.79493 0.0
H1199 H 0.36012 0.65678 0.8282 0.0
H1200 H 0.34997 0.60499 0.83604 0.0
H1201 H 0.34651 0.6011 0.80294 0.0
H1202 H 0.3188 0.62159 0.86288 0.0
H1203 H 0.42607 0.62179 0.83286 0.0
H1204 H 0.46751 0.63165 0.81048 0.0
H1205 H 0.46403 0.67921 0.83484 0.0
H1206 H 0.42228 0.66966 0.85724 0.0
H1207 H 0.40363 0.59915 0.94071 0.0
H1208 H 0.3974 0.60405 0.90792 0.0
H1209 H 0.39215 0.65571 0.91771 0.0
H1210 H 0.39809 0.651 0.95078 0.0
H1211 H 0.42757 0.64391 0.88301 0.0
H1212 H 0.32545 0.63982 0.91739 0.0
H1213 H 0.29036 0.62646 0.94064 0.0
H1214 H 0.28635 0.58324 0.90759 0.0
H1215 H 0.32298 0.59604 0.88457 0.0
C1216 C 0.35464 0.64246 0.80373 0.0
C1217 C 0.35224 0.62671 0.79626 0.0
C1218 C 0.3565 0.64465 0.82274 0.0
C1219 C 0.35601 0.63113 0.8345 0.0
C1220 C 0.35062 0.61558 0.82717 0.0
C1221 C 0.34877 0.61337 0.80821 0.0
C1222 C 0.36454 0.63279 0.85416 0.0
C1223 C 0.34247 0.62654 0.86729 0.0
C1224 C 0.39542 0.63936 0.85988 0.0
C1225 C 0.42074 0.64508 0.84655 0.0
C1226 C 0.43397 0.63438 0.83335 0.0
C1227 C 0.45753 0.6399 0.82068 0.0
C1228 C 0.46824 0.65607 0.82117 0.0
C1229 C 0.45561 0.66671 0.83443 0.0
C1230 C 0.43201 0.66125 0.84712 0.0
C1231 C 0.40193 0.61161 0.93594 0.0
C1232 C 0.40054 0.62467 0.94842 0.0
C1233 C 0.3985 0.61437 0.91718 0.0
C1234 C 0.39372 0.63019 0.91057 0.0
C1235 C 0.39569 0.64341 0.92268 0.0
C1236 C 0.39901 0.64067 0.94155 0.0
C1237 C 0.38203 0.63249 0.89156 0.0
C1238 C 0.40351 0.63941 0.87862 0.0
C1239 C 0.35083 0.62628 0.88596 0.0
C1240 C 0.3273 0.61886 0.89931 0.0
C1241 C 0.31739 0.62742 0.91514 0.0
C1242 C 0.29728 0.61992 0.92831 0.0
C1243 C 0.28608 0.60402 0.92559 0.0
C1244 C 0.29506 0.59556 0.90969 0.0
C1245 C 0.31564 0.60291 0.89661 0.0
H1246 H 0.27036 0.59828 0.93577 0.0
H1247 H 0.48639 0.66034 0.81132 0.0
H1248 H 0.95808 0.17465 0.24897 0.0
H1249 H 0.99446 0.19834 0.24736 0.0
H1250 H 0.90901 0.22997 0.2479 0.0
H1251 H 0.87219 0.2061 0.24963 0.0
H1252 H 0.9532 0.23611 0.21889 0.0
H1253 H 0.95837 0.22906 0.28427 0.0
H1254 H 0.96664 0.21371 0.31302 0.0
H1255 H 0.06723 0.20325 0.29739 0.0
H1256 H 0.05941 0.21834 0.2684 0.0
H1257 H 0.03145 0.31166 0.23092 0.0
H1258 H 0.99905 0.28675 0.23218 0.0
H1259 H 0.08919 0.25854 0.23553 0.0
H1260 H 0.12215 0.2838 0.2345 0.0
H1261 H 0.04482 0.24965 0.26185 0.0
H1262 H 0.04117 0.25692 0.19712 0.0
H1263 H 0.0337 0.27166 0.16791 0.0
H1264 H 0.93163 0.28085 0.18146 0.0
H1265 H 0.93859 0.26637 0.2109 0.0
C1266 C 0.94699 0.18666 0.2491 0.0
C1267 C 0.91227 0.18854 0.24942 0.0
C1268 C 0.96786 0.20019 0.2482 0.0
C1269 C 0.95448 0.21592 0.2475 0.0
C1270 C 0.91982 0.21791 0.24843 0.0
C1271 C 0.89883 0.20431 0.24957 0.0
C1272 C 0.97676 0.23009 0.24454 0.0
C1273 C 0.9729 0.23926 0.22842 0.0
C1274 C 0.00336 0.23371 0.25659 0.0
C1275 C 0.00819 0.2247 0.27407 0.0
C1276 C 0.98217 0.22337 0.28688 0.0
C1277 C 0.98679 0.21474 0.30324 0.0
C1278 C 0.01741 0.20747 0.307 0.0
C1279 C 0.04351 0.20887 0.29444 0.0
C1280 C 0.03901 0.21747 0.27805 0.0
C1281 C 0.04453 0.30015 0.23159 0.0
C1282 C 0.07938 0.29968 0.23261 0.0
C1283 C 0.0259 0.28589 0.23224 0.0
C1284 C 0.0416 0.27073 0.23385 0.0
C1285 C 0.07654 0.27011 0.23425 0.0
C1286 C 0.09536 0.28451 0.2335 0.0
C1287 C 0.02103 0.25584 0.23627 0.0
C1288 C 0.02522 0.24649 0.25226 0.0
C1289 C 0.99486 0.25195 0.22402 0.0
C1290 C 0.99049 0.26065 0.2063 0.0
C1291 C 0.01719 0.26219 0.19395 0.0
C1292 C 0.01304 0.27048 0.17733 0.0
C1293 C 0.98223 0.27721 0.17285 0.0
C1294 C 0.95549 0.27564 0.18496 0.0
C1295 C 0.95951 0.26737 0.2016 0.0
H1296 H 0.97907 0.28363 0.15998 0.0
H1297 H 0.02093 0.20079 0.31967 0.0
H1298 H 0.13118 0.95894 0.22821 0.0
H1299 H 0.16493 0.98382 0.23015 0.0
H1300 H 0.25294 0.95474 0.23808 0.0
H1301 H 0.21966 0.93006 0.23623 0.0
H1302 H 0.24771 0.97749 0.2643 0.0
H1303 H 0.24139 0.97541 0.19864 0.0
H1304 H 0.21381 0.9738 0.16845 0.0
H1305 H 0.16214 0.01843 0.17954 0.0
H1306 H 0.18908 0.02019 0.20993 0.0
H1307 H 0.36812 0.0424 0.25645 0.0
H1308 H 0.33587 0.0171 0.25362 0.0
H1309 H 0.24638 0.04512 0.24591 0.0
H1310 H 0.27813 0.07019 0.24866 0.0
H1311 H 0.25334 0.02266 0.21926 0.0
H1312 H 0.25932 0.0244 0.28521 0.0
H1313 H 0.28722 0.02591 0.31532 0.0
H1314 H 0.34003 0.98174 0.3035 0.0
H1315 H 0.31276 0.98009 0.27319 0.0
C1316 C 0.15782 0.95789 0.22991 0.0
C1317 C 0.17272 0.94256 0.23217 0.0
C1318 C 0.17708 0.97209 0.23109 0.0
C1319 C 0.21147 0.97113 0.23442 0.0
C1320 C 0.22646 0.95579 0.2357 0.0
C1321 C 0.20735 0.94169 0.23455 0.0
C1322 C 0.23172 0.98597 0.2377 0.0
C1323 C 0.24929 0.98728 0.25434 0.0
C1324 C 0.23329 0.99887 0.22489 0.0
C1325 C 0.21698 0.99784 0.20665 0.0
C1326 C 0.22391 0.9848 0.19472 0.0
C1327 C 0.20844 0.98388 0.17755 0.0
C1328 C 0.18616 0.99598 0.1721 0.0
C1329 C 0.17936 0.00905 0.18379 0.0
C1330 C 0.19475 0.01003 0.20098 0.0
C1331 C 0.34148 0.04311 0.25456 0.0
C1332 C 0.32572 0.05828 0.25269 0.0
C1333 C 0.32309 0.02868 0.25288 0.0
C1334 C 0.28871 0.02923 0.2494 0.0
C1335 C 0.27287 0.04438 0.24839 0.0
C1336 C 0.29111 0.05871 0.25006 0.0
C1337 C 0.26921 0.01419 0.24589 0.0
C1338 C 0.25179 0.01285 0.22921 0.0
C1339 C 0.26782 0.00125 0.25865 0.0
C1340 C 0.28428 0.00222 0.27685 0.0
C1341 C 0.27711 0.01509 0.28896 0.0
C1342 C 0.29276 0.01595 0.30608 0.0
C1343 C 0.31546 0.00396 0.3113 0.0
C1344 C 0.32249 0.99104 0.29943 0.0
C1345 C 0.30692 0.99013 0.28228 0.0
H1346 H 0.32754 0.00464 0.32456 0.0
H1347 H 0.17422 0.99525 0.1588 0.0
H1348 H 0.04726 0.94081 0.01168 0.0
H1349 H 0.01439 0.96555 0.00834 0.0
H1350 H 0.10274 0.99236 -0.00604 0.0
H1351 H 0.13607 0.96746 -0.00251 0.0
H1352 H 0.05557 0.01061 0.01499 0.0
H1353 H 0.05897 0.97757 0.9605 0.0
H1354 H 0.054 0.95187 0.94324 0.0
H1355 H 0.95123 0.94829 0.9585 0.0
H1356 H 0.95575 0.97384 0.97612 0.0
H1357 H 0.96844 0.07473 0.97433 0.0
H1358 H 0.00655 0.0517 0.97645 0.0
H1359 H 0.92355 0.01932 0.98491 0.0
H1360 H 0.88515 0.04237 0.98214 0.0
H1361 H 0.97091 0.00438 0.96585 0.0
H1362 H 0.96715 0.03608 0.02139 0.0
H1363 H 0.97115 0.06121 0.03978 0.0
H1364 H 0.07311 0.06687 0.02369 0.0
H1365 H 0.06956 0.04189 0.00497 0.0
C1366 C 0.05989 0.95208 0.00837 0.0
C1367 C 0.09415 0.95222 0.0047 0.0
C1368 C 0.04104 0.96618 0.00636 0.0
C1369 C 0.05601 0.98066 0.00044 0.0
C1370 C 0.09072 0.98124 -0.00158 0.0
C1371 C 0.10975 0.96707 0.00055 0.0
C1372 C 0.03486 0.99454 -0.00531 0.0
C1373 C 0.03743 0.00936 0.00406 0.0
C1374 C 0.01073 0.99276 0.98064 0.0
C1375 C 0.00778 0.97756 0.96975 0.0
C1376 C 0.03537 0.97125 0.96027 0.0
C1377 C 0.03263 0.95671 0.95041 0.0
C1378 C 1.00233 0.94843 0.9498 0.0
C1379 C 0.97469 0.95471 0.95899 0.0
C1380 C 0.97732 0.96922 0.96891 0.0
C1381 C 0.95827 0.06262 0.97612 0.0
C1382 C 0.92389 0.06031 0.97819 0.0
C1383 C 0.98009 0.04949 0.9775 0.0
C1384 C 0.96801 0.03386 0.98144 0.0
C1385 C 0.93347 0.03131 0.98204 0.0
C1386 C 0.91152 0.04446 0.98035 0.0
C1387 C 0.99135 0.02049 0.98625 0.0
C1388 C 0.98919 0.00572 0.97669 0.0
C1389 C 0.01569 0.02229 0.00022 0.0
C1390 C 0.01799 0.0372 0.01164 0.0
C1391 C 0.99036 0.04274 0.02169 0.0
C1392 C 0.99255 0.05695 0.03217 0.0
C1393 C 0.02234 0.06565 0.03287 0.0
C1394 C 0.05004 0.06013 0.02312 0.0
C1395 C 0.04796 0.04594 0.01258 0.0
H1396 H 0.02399 0.07665 0.04099 0.0
H1397 H 1.00026 0.93717 0.94217 0.0
H1398 H 0.28999 0.18417 -0.00641 0.0
H1399 H 0.25475 0.2081 -0.00602 0.0
H1400 H 0.33772 0.23786 0.97725 0.0
H1401 H 0.37384 0.21376 0.97746 0.0
H1402 H 0.30675 0.25111 0.0056 0.0
H1403 H 0.2704 0.22887 0.94794 0.0
H1404 H 0.2495 0.20751 0.92713 0.0
H1405 H 0.16132 0.20278 0.95988 0.0
H1406 H 0.18187 0.22396 0.98103 0.0
H1407 H 0.21696 0.32237 0.98707 0.0
H1408 H 0.25033 0.29785 0.98664 0.0
H1409 H 0.1653 0.26957 0.00348 0.0
H1410 H 0.13097 0.29434 0.00332 0.0
H1411 H 0.19636 0.25523 0.97569 0.0
H1412 H 0.23184 0.27745 0.03311 0.0
H1413 H 0.25236 0.29866 0.05424 0.0
H1414 H 0.34176 0.30312 0.02246 0.0
H1415 H 0.32159 0.28211 0.001 0.0
C1416 C 0.3008 0.19574 0.98969 0.0
C1417 C 0.33482 0.19706 0.98551 0.0
C1418 C 0.28044 0.20945 0.98983 0.0
C1419 C 0.29339 0.2248 0.98546 0.0
C1420 C 0.32715 0.22611 0.98064 0.0
C1421 C 0.34772 0.21234 0.98064 0.0
C1422 C 0.27212 0.23951 0.98724 0.0
C1423 C 0.28287 0.25213 -0.00121 0.0
C1424 C 0.24033 0.24058 0.97896 0.0
C1425 C 0.22781 0.22793 0.96615 0.0
C1426 C 0.24665 0.22321 0.95077 0.0
C1427 C 0.23485 0.21114 0.9389 0.0
C1428 C 0.20414 0.20377 0.9422 0.0
C1429 C 0.18511 0.20849 0.95735 0.0
C1430 C 0.19681 0.22054 0.96927 0.0
C1431 C 0.20525 0.311 0.99093 0.0
C1432 C 0.17122 0.31032 -0.00475 0.0
C1433 C 0.22455 0.29695 0.99077 0.0
C1434 C 0.21055 0.28185 -0.00473 0.0
C1435 C 0.17668 0.28112 2e-05 0.0
C1436 C 0.15714 0.29526 4e-05 0.0
C1437 C 0.23113 0.26688 -0.00607 0.0
C1438 C 0.22023 0.25419 0.9825 0.0
C1439 C 0.26275 0.26571 0.00238 0.0
C1440 C 0.27508 0.27827 0.01537 0.0
C1441 C 0.25578 0.28303 0.03056 0.0
C1442 C 0.26737 0.29501 0.04261 0.0
C1443 C 0.29832 0.30225 0.03967 0.0
C1444 C 0.31779 0.2975 0.02471 0.0
C1445 C 0.30631 0.28554 0.01262 0.0
H1446 H 0.30723 0.31153 0.04901 0.0
H1447 H 0.19506 0.19443 0.933 0.0
H1448 H 0.95952 0.68056 0.75574 0.0
H1449 H 0.99742 0.70372 0.75513 0.0
H1450 H 0.91449 0.73623 0.74748 0.0
H1451 H 0.87612 0.71288 0.74827 0.0
H1452 H 0.96526 0.74016 0.72125 0.0
H1453 H 0.95529 0.73761 0.78665 0.0
H1454 H 0.95543 0.72457 0.81714 0.0
H1455 H 0.05768 0.71116 0.81002 0.0
H1456 H 0.05803 0.72392 0.77934 0.0
H1457 H 0.05019 0.81446 0.73306 0.0
H1458 H 0.01432 0.79066 0.73382 0.0
H1459 H 0.09921 0.76004 0.74438 0.0
H1460 H 0.13562 0.78416 0.74375 0.0
H1461 H 0.0485 0.75461 0.76881 0.0
H1462 H 0.05913 0.75758 0.70373 0.0
H1463 H 0.05945 0.77091 0.67338 0.0
H1464 H 0.95656 0.7834 0.67971 0.0
H1465 H 0.95572 0.77036 0.71023 0.0
C1466 C 0.94924 0.69269 0.75437 0.0
C1467 C 0.91488 0.69495 0.75211 0.0
C1468 C 0.97096 0.70591 0.75402 0.0
C1469 C 0.95883 0.7217 0.75123 0.0
C1470 C 0.92435 0.72412 0.74965 0.0
C1471 C 0.90244 0.71083 0.75029 0.0
C1472 C 0.98259 0.73538 0.74871 0.0
C1473 C 0.98311 0.74352 0.73176 0.0
C1474 C 0.0067 0.73931 0.76216 0.0
C1475 C 0.00658 0.73159 0.7806 0.0
C1476 C 0.97772 0.73175 0.7915 0.0
C1477 C 0.97773 0.72443 0.80884 0.0
C1478 C 0.00651 0.717 0.8155 0.0
C1479 C 0.03538 0.7169 0.80484 0.0
C1480 C 0.0355 0.72419 0.78748 0.0
C1481 C 0.06141 0.80263 0.73519 0.0
C1482 C 0.09573 0.80116 0.73834 0.0
C1483 C 0.04082 0.789 0.73557 0.0
C1484 C 0.05401 0.77353 0.73909 0.0
C1485 C 0.08852 0.77188 0.7416 0.0
C1486 C 0.10933 0.78561 0.74107 0.0
C1487 C 0.0311 0.75947 0.74137 0.0
C1488 C 0.03074 0.75123 0.75827 0.0
C1489 C 0.0072 0.75541 0.72784 0.0
C1490 C 0.00744 0.76309 0.70936 0.0
C1491 C 0.03662 0.76326 0.69871 0.0
C1492 C 0.03689 0.77075 0.68147 0.0
C1493 C 0.00807 0.77803 0.67464 0.0
C1494 C 0.97888 0.77777 0.68502 0.0
C1495 C 0.97848 0.77031 0.70229 0.0
H1496 H 0.00834 0.78384 0.66129 0.0
H1497 H 0.00647 0.71134 0.82893 0.0
H1498 H 0.62906 0.95925 0.73885 0.0
H1499 H 0.66337 0.98396 0.7404 0.0
H1500 H 0.75192 0.95472 0.7357 0.0
H1501 H 0.71806 0.93019 0.7343 0.0
H1502 H 0.75622 0.9747 0.76449 0.0
H1503 H 0.72675 0.97935 0.70076 0.0
H1504 H 0.68872 0.98084 0.67426 0.0
H1505 H 0.64364 0.02379 0.69676 0.0
H1506 H 0.68113 0.02243 0.72354 0.0
H1507 H 0.87575 0.03884 0.75152 0.0
H1508 H 0.8408 0.01436 0.75014 0.0
H1509 H 0.75297 0.04428 0.7535 0.0
H1510 H 0.78753 0.0686 0.75458 0.0
H1511 H 0.74789 0.02402 0.72556 0.0
H1512 H 0.77749 0.01948 0.78923 0.0
H1513 H 0.81543 0.01798 0.81577 0.0
H1514 H 0.86007 0.97482 0.79351 0.0
H1515 H 0.82267 0.97619 0.7667 0.0
C1516 C 0.65579 0.95817 0.73768 0.0
C1517 C 0.67086 0.94279 0.73654 0.0
C1518 C 0.6754 0.97228 0.73864 0.0
C1519 C 0.71029 0.97118 0.73832 0.0
C1520 C 0.72513 0.95587 0.73618 0.0
C1521 C 0.70567 0.94186 0.73528 0.0
C1522 C 0.73162 0.98572 0.74131 0.0
C1523 C 0.75468 0.98541 0.75582 0.0
C1524 C 0.7291 0.99985 0.73032 0.0
C1525 C 0.70651 0.00068 0.71425 0.0
C1526 C 0.70853 0.98903 0.70014 0.0
C1527 C 0.68711 0.98987 0.68506 0.0
C1528 C 0.66371 0.00237 0.68386 0.0
C1529 C 0.66174 0.01409 0.69773 0.0
C1530 C 0.68309 0.0133 0.71285 0.0
C1531 C 0.84903 0.04012 0.75244 0.0
C1532 C 0.83439 0.05562 0.7531 0.0
C1533 C 0.82904 0.02614 0.75158 0.0
C1534 C 0.79417 0.02748 0.7516 0.0
C1535 C 0.77973 0.04293 0.75327 0.0
C1536 C 0.79958 0.05682 0.754 0.0
C1537 C 0.77253 0.013 0.74874 0.0
C1538 C 0.74941 0.01332 0.73425 0.0
C1539 C 0.77497 0.99888 0.75976 0.0
C1540 C 0.79751 0.99804 0.77586 0.0
C1541 C 0.79559 0.00975 0.78991 0.0
C1542 C 0.81696 0.00891 0.80502 0.0
C1543 C 0.84021 0.99634 0.8063 0.0
C1544 C 0.84208 0.98457 0.79249 0.0
C1545 C 0.82078 0.98536 0.77734 0.0
H1546 H 0.85672 0.99571 0.81801 0.0
H1547 H 0.64716 0.003 0.67216 0.0
H1548 H 0.70682 0.81454 0.00562 0.0
H1549 H 0.74446 0.79139 0.00375 0.0
H1550 H 0.66073 0.75889 -0.00093 0.0
H1551 H 0.62261 0.78222 0.00131 0.0
H1552 H 0.71145 0.74575 0.01975 0.0
H1553 H 0.70064 0.77183 0.96084 0.0
H1554 H 0.70132 0.79529 0.93968 0.0
H1555 H 0.80414 0.80371 0.9521 0.0
H1556 H 0.80396 0.78045 0.97353 0.0
H1557 H 0.79694 0.67959 0.98295 0.0
H1558 H 0.7592 0.7027 0.98487 0.0
H1559 H 0.84281 0.73539 0.9883 0.0
H1560 H 0.88103 0.71211 0.98595 0.0
H1561 H 0.79217 0.7485 0.96822 0.0
H1562 H 0.80352 0.72291 0.02704 0.0
H1563 H 0.80347 0.69991 0.04879 0.0
H1564 H 0.70052 0.69097 0.03718 0.0
H1565 H 0.70008 0.71378 0.01513 0.0
C1566 C 0.69635 0.80243 0.00457 0.0
C1567 C 0.66179 0.80017 0.00345 0.0
C1568 C 0.71792 0.78922 0.00339 0.0
C1569 C 0.70546 0.77346 0.00073 0.0
C1570 C 0.67087 0.77099 0.00093 0.0
C1571 C 0.64912 0.78428 0.00231 0.0
C1572 C 0.72869 0.75986 -0.00325 0.0
C1573 C 0.72875 0.74624 0.00833 0.0
C1574 C 0.75189 0.76069 0.98209 0.0
C1575 C 0.75221 0.77447 0.96891 0.0
C1576 C 0.72335 0.77874 0.95913 0.0
C1577 C 0.72365 0.792 0.94708 0.0
C1578 C 0.75273 0.80101 0.9446 0.0
C1579 C 0.78162 0.79673 0.95407 0.0
C1580 C 0.78145 0.7835 0.96614 0.0
C1581 C 0.80737 0.69173 0.98377 0.0
C1582 C 0.84193 0.69406 0.98447 0.0
C1583 C 0.78573 0.70492 0.98497 0.0
C1584 C 0.79813 0.72074 0.98726 0.0
C1585 C 0.8327 0.72326 0.98672 0.0
C1586 C 0.85451 0.70999 0.9853 0.0
C1587 C 0.77489 0.73436 0.99121 0.0
C1588 C 0.77484 0.748 0.97962 0.0
C1589 C 0.75177 0.73358 0.0059 0.0
C1590 C 0.75185 0.71997 0.01931 0.0
C1591 C 0.78093 0.71598 0.02903 0.0
C1592 C 0.78098 0.70298 0.04143 0.0
C1593 C 0.75203 0.69396 0.04434 0.0
C1594 C 0.72293 0.69796 0.0349 0.0
C1595 C 0.72276 0.71093 0.02246 0.0
H1596 H 0.75213 0.6839 0.05393 0.0
H1597 H 0.7529 0.81131 0.93533 0.0
H1598 H 0.37102 0.5443 0.75447 0.0
H1599 H 0.33599 0.51995 0.75087 0.0
H1600 H 0.24818 0.54983 0.75448 0.0
H1601 H 0.28281 0.57398 0.758 0.0
H1602 H 0.23992 0.52079 0.77235 0.0
H1603 H 0.27841 0.54008 0.71338 0.0
H1604 H 0.32105 0.54803 0.69075 0.0
H1605 H 0.36319 0.50009 0.69315 0.0
H1606 H 0.32106 0.49192 0.716 0.0
H1607 H 0.12167 0.46771 0.73204 0.0
H1608 H 0.1568 0.49204 0.73538 0.0
H1609 H 0.24449 0.46218 0.73069 0.0
H1610 H 0.20974 0.43805 0.72738 0.0
H1611 H 0.25304 0.49115 0.71337 0.0
H1612 H 0.21581 0.47175 0.77224 0.0
H1613 H 0.17423 0.46348 0.79531 0.0
H1614 H 0.13077 0.51116 0.79354 0.0
H1615 H 0.17188 0.51965 0.77027 0.0
C1616 C 0.34426 0.54555 0.75502 0.0
C1617 C 0.3296 0.561 0.75645 0.0
C1618 C 0.32428 0.53169 0.75279 0.0
C1619 C 0.28945 0.53312 0.75211 0.0
C1620 C 0.27492 0.54842 0.75488 0.0
C1621 C 0.29478 0.56222 0.75689 0.0
C1622 C 0.26796 0.51905 0.74723 0.0
C1623 C 0.24261 0.51441 0.75939 0.0
C1624 C 0.27167 0.51059 0.7304 0.0
C1625 C 0.29681 0.51544 0.71654 0.0
C1626 C 0.29692 0.53127 0.70918 0.0
C1627 C 0.32097 0.53581 0.6963 0.0
C1628 C 0.34487 0.52459 0.69056 0.0
C1629 C 0.3447 0.50878 0.69763 0.0
C1630 C 0.32073 0.50419 0.71054 0.0
C1631 C 0.1484 0.46646 0.73118 0.0
C1632 C 0.163 0.45102 0.72952 0.0
C1633 C 0.16846 0.48031 0.73327 0.0
C1634 C 0.20331 0.47888 0.73359 0.0
C1635 C 0.21773 0.4636 0.73056 0.0
C1636 C 0.19781 0.44981 0.72867 0.0
C1637 C 0.22493 0.49291 0.73848 0.0
C1638 C 0.25031 0.49755 0.72633 0.0
C1639 C 0.22135 0.50133 0.75535 0.0
C1640 C 0.19667 0.49628 0.76936 0.0
C1641 C 0.19721 0.48043 0.77666 0.0
C1642 C 0.17377 0.47571 0.78979 0.0
C1643 C 0.1498 0.48677 0.79584 0.0
C1644 C 0.14931 0.5026 0.78881 0.0
C1645 C 0.17269 0.50737 0.77566 0.0
H1646 H 0.13168 0.4831 0.80601 0.0
H1647 H 0.3635 0.52812 0.68061 0.0
H1648 H 0.8787 0.53692 0.48164 0.0
H1649 H 0.91325 0.51221 0.48207 0.0
H1650 H 1.00115 0.54184 0.48772 0.0
H1651 H 0.96728 0.56624 0.48685 0.0
H1652 H 0.014 0.51765 0.46573 0.0
H1653 H 0.96181 0.52362 0.52524 0.0
H1654 H 0.9143 0.526 0.54647 0.0
H1655 H 0.87782 0.47951 0.52861 0.0
H1656 H 0.92492 0.47696 0.50709 0.0
H1657 H 0.12947 0.46007 0.50037 0.0
H1658 H 0.09228 0.48381 0.49968 0.0
H1659 H 0.00821 0.45205 0.49162 0.0
H1660 H 0.04483 0.42851 0.4925 0.0
H1661 H 0.99212 0.47658 0.51421 0.0
H1662 H 0.04522 0.47041 0.45526 0.0
H1663 H 0.09309 0.468 0.43429 0.0
H1664 H 0.12811 0.51499 0.45137 0.0
H1665 H 0.08064 0.51758 0.47263 0.0
C1666 C 0.90543 0.5381 0.48258 0.0
C1667 C 0.92021 0.55351 0.48434 0.0
C1668 C 0.92514 0.524 0.48301 0.0
C1669 C 0.95983 0.52514 0.48527 0.0
C1670 C 0.97453 0.54058 0.48604 0.0
C1671 C 0.95502 0.55456 0.48559 0.0
C1672 C 0.98113 0.51048 0.48766 0.0
C1673 C 0.00931 0.50875 0.47644 0.0
C1674 C 0.97489 0.4987 0.50145 0.0
C1675 C 0.94667 0.50019 0.51442 0.0
C1676 C 0.94352 0.51397 0.52575 0.0
C1677 C 0.91669 0.51534 0.53785 0.0
C1678 C 0.893 0.50294 0.53885 0.0
C1679 C 0.89615 0.48912 0.52779 0.0
C1680 C 0.92291 0.4877 0.51565 0.0
C1681 C 0.10299 0.45818 0.49884 0.0
C1682 C 0.09012 0.44246 0.49633 0.0
C1683 C 0.08179 0.47173 0.4983 0.0
C1684 C 0.04748 0.46971 0.49527 0.0
C1685 C 0.03452 0.45394 0.49389 0.0
C1686 C 0.05559 0.44048 0.49434 0.0
C1687 C 0.02513 0.4839 0.49243 0.0
C1688 C 0.99675 0.48549 0.50351 0.0
C1689 C 0.0312 0.49559 0.47854 0.0
C1690 C 0.05958 0.49411 0.46566 0.0
C1691 C 0.06325 0.48018 0.45463 0.0
C1692 C 0.09029 0.47879 0.44268 0.0
C1693 C 0.11367 0.49131 0.44153 0.0
C1694 C 0.11 0.50528 0.45229 0.0
C1695 C 0.08303 0.50672 0.46429 0.0
H1696 H 0.13459 0.49021 0.43227 0.0
H1697 H 0.87225 0.50402 0.54823 0.0
H1698 H 0.30429 0.68266 0.51479 0.0
H1699 H 0.26922 0.70663 0.51427 0.0
H1700 H 0.33378 0.72885 0.47415 0.0
H1701 H 0.37006 0.70471 0.475 0.0
H1702 H 0.31488 0.75047 0.49997 0.0
H1703 H 0.25798 0.7119 0.46178 0.0
H1704 H 0.23328 0.6853 0.45407 0.0
H1705 H 0.16523 0.68987 0.49921 0.0
H1706 H 0.18983 0.7164 0.50736 0.0
H1707 H 0.2047 0.81222 0.47401 0.0
H1708 H 0.24004 0.78836 0.4748 0.0
H1709 H 0.17435 0.76579 0.51411 0.0
H1710 H 0.13773 0.7898 0.51291 0.0
H1711 H 0.19389 0.74434 0.48882 0.0
H1712 H 0.25047 0.78286 0.52704 0.0
H1713 H 0.27512 0.80942 0.53495 0.0
H1714 H 0.34373 0.80494 0.49006 0.0
H1715 H 0.31919 0.77845 0.48173 0.0
C1716 C 0.31116 0.69258 0.50576 0.0
C1717 C 0.33984 0.69169 0.49475 0.0
C1718 C 0.29089 0.7063 0.50545 0.0
C1719 C 0.29832 0.71941 0.49385 0.0
C1720 C 0.32739 0.7188 0.4831 0.0
C1721 C 0.34806 0.70502 0.48356 0.0
C1722 C 0.27564 0.73371 0.49327 0.0
C1723 C 0.28853 0.74917 0.49723 0.0
C1724 C 0.24101 0.73196 0.49027 0.0
C1725 C 0.22592 0.71609 0.48526 0.0
C1726 C 0.23788 0.70719 0.47013 0.0
C1727 C 0.22388 0.69213 0.46567 0.0
C1728 C 0.19775 0.68588 0.47616 0.0
C1729 C 0.18549 0.69471 0.4911 0.0
C1730 C 0.19942 0.70977 0.49563 0.0
C1731 C 0.19765 0.80224 0.48293 0.0
C1732 C 0.16851 0.80298 0.49358 0.0
C1733 C 0.21809 0.78859 0.48341 0.0
C1734 C 0.21042 0.7754 0.49486 0.0
C1735 C 0.18095 0.77589 0.50529 0.0
C1736 C 0.16007 0.78959 0.50463 0.0
C1737 C 0.23312 0.76111 0.49552 0.0
C1738 C 0.22024 0.74565 0.49157 0.0
C1739 C 0.26775 0.76286 0.49856 0.0
C1740 C 0.28281 0.77871 0.50368 0.0
C1741 C 0.27068 0.78758 0.51879 0.0
C1742 C 0.28466 0.80262 0.52336 0.0
C1743 C 0.31094 0.80888 0.51299 0.0
C1744 C 0.32337 0.80008 0.49807 0.0
C1745 C 0.30946 0.78504 0.49344 0.0
H1746 H 0.3217 0.82053 0.51654 0.0
H1747 H 0.18696 0.67422 0.4727 0.0
H1748 H 0.79976 0.56504 0.26606 0.0
H1749 H 0.76141 0.54195 0.2653 0.0
H1750 H 0.8352 0.51324 0.23712 0.0
H1751 H 0.87412 0.53635 0.23834 0.0
H1752 H 0.77244 0.51565 0.21867 0.0
H1753 H 0.81543 0.50127 0.27728 0.0
H1754 H 0.833 0.50545 0.30937 0.0
H1755 H 0.73341 0.51874 0.32419 0.0
H1756 H 0.71531 0.51488 0.29209 0.0
H1757 H 0.68547 0.43974 0.22302 0.0
H1758 H 0.72457 0.46252 0.224 0.0
H1759 H 0.65154 0.49167 0.25219 0.0
H1760 H 0.61188 0.46886 0.25079 0.0
H1761 H 0.71436 0.48882 0.27061 0.0
H1762 H 0.67176 0.50323 0.21157 0.0
H1763 H 0.6547 0.49857 0.17947 0.0
H1764 H 0.75435 0.4847 0.16549 0.0
H1765 H 0.77194 0.48907 0.19759 0.0
C1766 C 0.8082 0.55359 0.26034 0.0
C1767 C 0.83997 0.55234 0.2525 0.0
C1768 C 0.78624 0.54045 0.25981 0.0
C1769 C 0.79539 0.52591 0.25108 0.0
C1770 C 0.8277 0.52437 0.24394 0.0
C1771 C 0.85002 0.53746 0.24484 0.0
C1772 C 0.77007 0.51303 0.24809 0.0
C1773 C 0.76014 0.50956 0.23001 0.0
C1774 C 0.75333 0.50549 0.26291 0.0
C1775 C 0.76409 0.50796 0.28222 0.0
C1776 C 0.79733 0.50526 0.28733 0.0
C1777 C 0.80738 0.50753 0.30553 0.0
C1778 C 0.78436 0.51241 0.3188 0.0
C1779 C 0.75123 0.51499 0.31389 0.0
C1780 C 0.74105 0.51275 0.29569 0.0
C1781 C 0.67739 0.45122 0.22883 0.0
C1782 C 0.6456 0.45269 0.23659 0.0
C1783 C 0.69977 0.46418 0.22947 0.0
C1784 C 0.69101 0.47876 0.23822 0.0
C1785 C 0.65873 0.48052 0.24534 0.0
C1786 C 0.63599 0.4676 0.24435 0.0
C1787 C 0.71665 0.4915 0.2412 0.0
C1788 C 0.72665 0.49493 0.25928 0.0
C1789 C 0.73353 0.49896 0.22638 0.0
C1790 C 0.72309 0.49631 0.20704 0.0
C1791 C 0.68998 0.49903 0.2017 0.0
C1792 C 0.68023 0.49648 0.18349 0.0
C1793 C 0.70341 0.4913 0.17046 0.0
C1794 C 0.73642 0.4887 0.1756 0.0
C1795 C 0.7463 0.49123 0.1938 0.0
H1796 H 0.69581 0.48933 0.15637 0.0
H1797 H 0.79218 0.51414 0.33289 0.0
H1798 H 0.72639 0.32256 0.50187 0.0
H1799 H 0.76228 0.29878 0.50027 0.0
H1800 H 0.67676 0.26737 0.50384 0.0
H1801 H 0.6402 0.29135 0.50532 0.0
H1802 H 0.73435 0.25648 0.52439 0.0
H1803 H 0.70515 0.27409 0.46358 0.0
H1804 H 0.69844 0.2941 0.43863 0.0
H1805 H 0.80322 0.30383 0.43953 0.0
H1806 H 0.81047 0.28406 0.46473 0.0
H1807 H 0.80198 0.18538 0.48812 0.0
H1808 H 0.76803 0.20973 0.49062 0.0
H1809 H 0.85555 0.23966 0.48567 0.0
H1810 H 0.8902 0.21502 0.48323 0.0
H1811 H 0.79829 0.2517 0.46625 0.0
H1812 H 0.8281 0.23384 0.52644 0.0
H1813 H 0.83533 0.21399 0.5515 0.0
H1814 H 0.73031 0.20493 0.55206 0.0
H1815 H 0.7225 0.22455 0.52676 0.0
C1816 C 0.71509 0.31061 0.50264 0.0
C1817 C 0.68036 0.30884 0.50353 0.0
C1818 C 0.73572 0.29703 0.50167 0.0
C1819 C 0.72215 0.28134 0.50158 0.0
C1820 C 0.68767 0.27941 0.50379 0.0
C1821 C 0.66684 0.2931 0.5047 0.0
C1822 C 0.74402 0.26716 0.49794 0.0
C1823 C 0.74797 0.2553 0.5116 0.0
C1824 C 0.76252 0.2659 0.48143 0.0
C1825 C 0.75829 0.27771 0.46618 0.0
C1826 C 0.72672 0.2806 0.45858 0.0
C1827 C 0.72282 0.29188 0.44437 0.0
C1828 C 0.75037 0.30027 0.43753 0.0
C1829 C 0.78189 0.29735 0.44486 0.0
C1830 C 0.78591 0.28609 0.4591 0.0
C1831 C 0.81412 0.19712 0.48727 0.0
C1832 C 0.84887 0.19828 0.48567 0.0
C1833 C 0.79461 0.21104 0.48877 0.0
C1834 C 0.80932 0.22647 0.48873 0.0
C1835 C 0.84377 0.22781 0.48586 0.0
C1836 C 0.86351 0.21376 0.48439 0.0
C1837 C 0.78852 0.24097 0.49267 0.0
C1838 C 0.78475 0.25289 0.47907 0.0
C1839 C 0.77026 0.24231 0.50926 0.0
C1840 C 0.77476 0.23056 0.52457 0.0
C1841 C 0.80657 0.22752 0.53179 0.0
C1842 C 0.81077 0.21632 0.54606 0.0
C1843 C 0.78331 0.20817 0.55334 0.0
C1844 C 0.75157 0.21123 0.54639 0.0
C1845 C 0.74723 0.2224 0.53209 0.0
H1846 H 0.78662 0.19953 0.5644 0.0
H1847 H 0.74731 0.309 0.42653 0.0
H1848 H 0.37894 0.21068 0.75272 0.0
H1849 H 0.41545 0.23463 0.75073 0.0
H1850 H 0.50046 0.20316 0.74458 0.0
H1851 H 0.46452 0.17943 0.74676 0.0
H1852 H 0.51553 0.22836 0.76614 0.0
H1853 H 0.46326 0.22034 0.70725 0.0
H1854 H 0.41584 0.21725 0.68608 0.0
H1855 H 0.38031 0.26467 0.70118 0.0
H1856 H 0.42731 0.26794 0.72263 0.0
H1857 H 0.6289 0.288 0.73237 0.0
H1858 H 0.59435 0.26326 0.73285 0.0
H1859 H 0.50633 0.29287 0.73782 0.0
H1860 H 0.54026 0.3173 0.73701 0.0
H1861 H 0.49386 0.26802 0.71617 0.0
H1862 H 0.54462 0.27581 0.77569 0.0
H1863 H 0.5916 0.27904 0.79713 0.0
H1864 H 0.62949 0.2323 0.78115 0.0
H1865 H 0.58292 0.22889 0.75943 0.0
C1866 C 0.40547 0.20892 0.7513 0.0
C1867 C 0.41881 0.19319 0.74977 0.0
C1868 C 0.42629 0.22259 0.75001 0.0
C1869 C 0.46068 0.22069 0.74719 0.0
C1870 C 0.47407 0.20497 0.74667 0.0
C1871 C 0.4534 0.19139 0.74788 0.0
C1872 C 0.4828 0.23492 0.74393 0.0
C1873 C 0.51095 0.23694 0.75509 0.0
C1874 C 0.47676 0.24622 0.72963 0.0
C1875 C 0.4486 0.24431 0.71668 0.0
C1876 C 0.44519 0.23005 0.70615 0.0
C1877 C 0.41842 0.22828 0.69409 0.0
C1878 C 0.39503 0.24074 0.69232 0.0
C1879 C 0.39842 0.25502 0.70258 0.0
C1880 C 0.42513 0.25684 0.71469 0.0
C1881 C 0.60214 0.28917 0.73314 0.0
C1882 C 0.58733 0.30457 0.73482 0.0
C1883 C 0.58243 0.27505 0.73358 0.0
C1884 C 0.54771 0.27619 0.73571 0.0
C1885 C 0.53297 0.29162 0.73625 0.0
C1886 C 0.5525 0.30561 0.73585 0.0
C1887 C 0.5265 0.26154 0.73846 0.0
C1888 C 0.49851 0.25942 0.72718 0.0
C1889 C 0.53263 0.25018 0.75269 0.0
C1890 C 0.56052 0.25218 0.7658 0.0
C1891 C 0.56311 0.26628 0.77666 0.0
C1892 C 0.58964 0.26813 0.78887 0.0
C1893 C 0.61357 0.2559 0.79046 0.0
C1894 C 0.61097 0.24177 0.77988 0.0
C1895 C 0.58451 0.23987 0.76762 0.0
H1896 H 0.63409 0.25736 0.79993 0.0
H1897 H 0.37432 0.23934 0.68298 0.0
H1898 H 0.47574 0.07151 0.48538 0.0
H1899 H 0.51057 0.04732 0.48736 0.0
H1900 H 0.42309 0.01703 0.48853 0.0
H1901 H 0.38781 0.04144 0.48643 0.0
H1902 H 0.4678 0.01072 0.5173 0.0
H1903 H 0.47115 0.01587 0.45186 0.0
H1904 H 0.47875 0.03002 0.42229 0.0
H1905 H 0.58023 0.04034 0.4362 0.0
H1906 H 0.57311 0.02644 0.46599 0.0
H1907 H 0.54669 0.93469 0.50658 0.0
H1908 H 0.51371 0.95944 0.50563 0.0
H1909 H 0.60311 0.98805 0.50045 0.0
H1910 H 0.63656 0.96298 0.50112 0.0
H1911 H 0.55821 0.99569 0.4742 0.0
H1912 H 0.55558 0.99 0.53934 0.0
H1913 H 0.54841 0.9755 0.56873 0.0
H1914 H 0.44614 0.96627 0.55567 0.0
H1915 H 0.45281 0.9805 0.52605 0.0
C1916 C 0.46388 0.05968 0.48565 0.0
C1917 C 0.42907 0.05833 0.48572 0.0
C1918 C 0.48384 0.04586 0.48678 0.0
C1919 C 0.46945 0.03037 0.48811 0.0
C1920 C 0.43466 0.0289 0.48751 0.0
C1921 C 0.41456 0.04279 0.48613 0.0
C1922 C 0.49098 0.01598 0.49131 0.0
C1923 C 0.48723 0.00724 0.50775 0.0
C1924 C 0.5171 0.01187 0.47916 0.0
C1925 C 0.52149 0.02024 0.46124 0.0
C1926 C 0.49501 0.02128 0.44869 0.0
C1927 C 0.49925 0.02923 0.43188 0.0
C1928 C 0.52993 0.03612 0.42739 0.0
C1929 C 0.55646 0.03502 0.4397 0.0
C1930 C 0.55235 0.02709 0.45655 0.0
C1931 C 0.55947 0.94627 0.50565 0.0
C1932 C 0.59421 0.94692 0.50389 0.0
C1933 C 0.54053 0.96044 0.50517 0.0
C1934 C 0.55587 0.97564 0.50302 0.0
C1935 C 0.59076 0.97643 0.50212 0.0
C1936 C 0.60986 0.96215 0.50269 0.0
C1937 C 0.53503 0.99035 0.50019 0.0
C1938 C 0.53889 0.99918 0.48381 0.0
C1939 C 0.50907 0.99457 0.51244 0.0
C1940 C 0.50478 0.98622 0.53039 0.0
C1941 C 0.53161 0.98479 0.54267 0.0
C1942 C 0.52763 0.97662 0.55939 0.0
C1943 C 0.49686 0.96993 0.56405 0.0
C1944 C 0.46997 0.97145 0.55203 0.0
C1945 C 0.47383 0.97958 0.53529 0.0
H1946 H 0.49385 0.96359 0.57698 0.0
H1947 H 0.53316 0.04226 0.41436 0.0
H1948 H 0.53996 0.81981 0.23807 0.0
H1949 H 0.50284 0.79645 0.24 0.0
H1950 H 0.58705 0.76407 0.23779 0.0
H1951 H 0.62457 0.78761 0.23544 0.0
H1952 H 0.53482 0.75193 0.2187 0.0
H1953 H 0.5517 0.7743 0.27884 0.0
H1954 H 0.55306 0.79603 0.3022 0.0
H1955 H 0.44868 0.80436 0.29462 0.0
H1956 H 0.4468 0.78283 0.271 0.0
H1957 H 0.46138 0.68276 0.25607 0.0
H1958 H 0.49569 0.70709 0.25409 0.0
H1959 H 0.4077 0.73694 0.25224 0.0
H1960 H 0.37283 0.71237 0.25435 0.0
H1961 H 0.46022 0.75071 0.27304 0.0
H1962 H 0.44362 0.72759 0.21324 0.0
H1963 H 0.44289 0.70549 0.19033 0.0
H1964 H 0.54764 0.69826 0.19775 0.0
H1965 H 0.54891 0.72015 0.22094 0.0
C1966 C 0.55061 0.80771 0.23769 0.0
C1967 C 0.58521 0.80552 0.23677 0.0
C1968 C 0.52933 0.79437 0.23891 0.0
C1969 C 0.54217 0.77852 0.23956 0.0
C1970 C 0.57661 0.77621 0.23748 0.0
C1971 C 0.59802 0.78964 0.23607 0.0
C1972 C 0.51967 0.76453 0.24323 0.0
C1973 C 0.51884 0.75158 0.23069 0.0
C1974 C 0.49819 0.76422 0.25869 0.0
C1975 C 0.49918 0.77706 0.27303 0.0
C1976 C 0.52908 0.78084 0.28207 0.0
C1977 C 0.52994 0.79311 0.29536 0.0
C1978 C 0.50099 0.8016 0.29986 0.0
C1979 C 0.47109 0.79779 0.2911 0.0
C1980 C 0.47011 0.78554 0.27777 0.0
C1981 C 0.44922 0.69451 0.25559 0.0
C1982 C 0.41438 0.69566 0.25518 0.0
C1983 C 0.46892 0.70841 0.25438 0.0
C1984 C 0.45427 0.72378 0.25256 0.0
C1985 C 0.41948 0.72515 0.25349 0.0
C1986 C 0.39959 0.71114 0.25478 0.0
C1987 C 0.47552 0.73813 0.24855 0.0
C1988 C 0.47613 0.75112 0.26102 0.0
C1989 C 0.49689 0.73846 0.23307 0.0
C1990 C 0.4963 0.72542 0.21895 0.0
C1991 C 0.46646 0.72121 0.21009 0.0
C1992 C 0.46595 0.70873 0.19703 0.0
C1993 C 0.49518 0.70045 0.19261 0.0
C1994 C 0.52501 0.70467 0.2012 0.0
C1995 C 0.52564 0.71712 0.21429 0.0
H1996 H 0.49474 0.69079 0.18251 0.0
H1997 H 0.50171 0.8111 0.31015 0.0
H1998 H 0.53997 0.43117 -0.00281 0.0
H1999 H 0.50576 0.45553 -0.00471 0.0
H2000 H 0.59349 0.48549 -0.00101 0.0
H2001 H 0.62816 0.46091 0.00121 0.0
H2002 H 0.54135 0.4983 0.01843 0.0
H2003 H 0.55898 0.47764 0.95757 0.0
H2004 H 0.55945 0.45673 0.93328 0.0
H2005 H 0.45411 0.45043 0.93913 0.0
H2006 H 0.45308 0.47114 0.96367 0.0
H2007 H 0.47333 0.57002 0.98418 0.0
H2008 H 0.50635 0.54522 0.98508 0.0
H2009 H 0.41684 0.51639 0.98418 0.0
H2010 H 0.38329 0.54143 0.98315 0.0
H2011 H 0.46916 0.50289 0.96333 0.0
H2012 H 0.45159 0.52368 0.02409 0.0
H2013 H 0.45116 0.54472 0.04824 0.0
H2014 H 0.55656 0.55083 0.04246 0.0
H2015 H 0.55754 0.53 0.01805 0.0
C2016 C 0.55205 0.44294 -0.00215 0.0
C2017 C 0.58681 0.44414 -0.00084 0.0
C2018 C 0.53242 0.45686 -0.00334 0.0
C2019 C 0.54711 0.47232 -0.00349 0.0
C2020 C 0.58168 0.47365 -0.00108 0.0
C2021 C 0.60145 0.45963 0.00025 0.0
C2022 C 0.52629 0.48694 0.99312 0.0
C2023 C 0.52595 0.4994 0.00626 0.0
C2024 C 0.50551 0.4882 0.97744 0.0
C2025 C 0.50601 0.47584 0.96257 0.0
C2026 C 0.53595 0.47171 0.95377 0.0
C2027 C 0.53631 0.4599 0.93994 0.0
C2028 C 0.50684 0.45223 0.93469 0.0
C2029 C 0.47692 0.45637 0.94322 0.0
C2030 C 0.47643 0.46815 0.95708 0.0
C2031 C 0.46059 0.55841 0.98381 0.0
C2032 C 0.4257 0.55765 0.98379 0.0
C2033 C 0.47953 0.54424 0.9844 0.0
C2034 C 0.46404 0.52899 0.98516 0.0
C2035 C 0.42924 0.52808 0.98376 0.0
C2036 C 0.41013 0.54236 0.98308 0.0
C2037 C 0.48434 0.51424 0.98861 0.0
C2038 C 0.48457 0.50176 0.97549 0.0
C2039 C 0.50503 0.51296 0.00431 0.0
C2040 C 0.50458 0.52538 0.01912 0.0
C2041 C 0.47464 0.52959 0.02787 0.0
C2042 C 0.4743 0.54147 0.04162 0.0
C2043 C 0.50381 0.54913 0.04685 0.0
C2044 C 0.53372 0.54489 0.03838 0.0
C2045 C 0.53419 0.53304 0.02459 0.0
H2046 H 0.50349 0.55832 0.0575 0.0
H2047 H 0.50717 0.44309 0.92398 0.0
H2048 H 0.17639 0.41568 0.42909 0.0
H2049 H 0.175 0.40904 0.3964 0.0
H2050 H 0.12294 0.36443 0.40856 0.0
H2051 H 0.12407 0.37103 0.44138 0.0
H2052 H 0.19706 0.38346 0.37537 0.0
H2053 H 0.0607 0.36089 0.37708 0.0
H2054 H 0.00977 0.36533 0.39526 0.0
H2055 H 0.04374 0.4131 0.41005 0.0
H2056 H 0.0946 0.40904 0.39174 0.0
H2057 H 0.15309 0.33474 0.30029 0.0
H2058 H 0.16085 0.34668 0.33062 0.0
H2059 H 0.10495 0.38898 0.31404 0.0
H2060 H 0.09708 0.37707 0.28339 0.0
H2061 H 0.08527 0.37609 0.34776 0.0
H2062 H 0.18403 0.39318 0.31803 0.0
H2063 H 0.23418 0.38994 0.29894 0.0
H2064 H 0.27524 0.35691 0.33859 0.0
H2065 H 0.22501 0.35965 0.35774 0.0
C2066 C 0.16498 0.40436 0.42482 0.0
C2067 C 0.14995 0.39394 0.43769 0.0
C2068 C 0.16434 0.40058 0.40617 0.0
C2069 C 0.14846 0.3864 0.40014 0.0
C2070 C 0.13493 0.37555 0.41303 0.0
C2071 C 0.13568 0.37929 0.43172 0.0
C2072 C 0.1443 0.38344 0.38031 0.0
C2073 C 0.17268 0.38186 0.36928 0.0
C2074 C 0.11239 0.38192 0.37237 0.0
C2075 C 0.08159 0.38459 0.38317 0.0
C2076 C 0.05722 0.37237 0.38414 0.0
C2077 C 0.02837 0.37482 0.39448 0.0
C2078 C 0.02357 0.38947 0.40385 0.0
C2079 C 0.04754 0.40173 0.40284 0.0
C2080 C 0.0764 0.39936 0.3925 0.0
C2081 C 0.14246 0.3466 0.30306 0.0
C2082 C 0.12441 0.355 0.28955 0.0
C2083 C 0.14709 0.35342 0.32034 0.0
C2084 C 0.13375 0.36874 0.32441 0.0
C2085 C 0.11551 0.37716 0.31102 0.0
C2086 C 0.11107 0.37037 0.2936 0.0
C2087 C 0.13804 0.37551 0.34297 0.0
C2088 C 0.10967 0.37783 0.35378 0.0
C2089 C 0.16995 0.378 0.35058 0.0
C2090 C 0.20059 0.37654 0.33929 0.0
C2091 C 0.20364 0.38513 0.32264 0.0
C2092 C 0.23209 0.38339 0.3118 0.0
C2093 C 0.25786 0.37321 0.31754 0.0
C2094 C 0.25525 0.36478 0.33416 0.0
C2095 C 0.22679 0.36644 0.34502 0.0
H2096 H 0.27986 0.37187 0.30912 0.0
H2097 H 1.00124 0.39133 0.41186 0.0
H2098 H 0.09228 0.91595 0.29976 0.0
H2099 H 0.08685 0.90847 0.332 0.0
H2100 H 0.13478 0.86253 0.32103 0.0
H2101 H 0.14062 0.87002 0.28854 0.0
H2102 H 0.05641 0.88358 0.34978 0.0
H2103 H 0.18615 0.85487 0.35762 0.0
H2104 H 0.24152 0.85628 0.34315 0.0
H2105 H 0.22257 0.9055 0.32637 0.0
H2106 H 0.1673 0.90444 0.34095 0.0
H2107 H 0.07817 0.83815 0.432 0.0
H2108 H 0.07498 0.84833 0.40055 0.0
H2109 H 0.13586 0.88947 0.41548 0.0
H2110 H 0.13918 0.87934 0.44712 0.0
H2111 H 0.15927 0.87277 0.38531 0.0
H2112 H 0.05713 0.89569 0.40635 0.0
H2113 H 1.00215 0.8957 0.42125 0.0
H2114 H 0.9662 0.86139 0.38145 0.0
H2115 H 0.02116 0.86096 0.36647 0.0
C2116 C 0.10154 0.9042 0.30416 0.0
C2117 C 0.11723 0.89361 0.29174 0.0
C2118 C 0.09822 0.89993 0.32255 0.0
C2119 C 0.11068 0.88505 0.32884 0.0
C2120 C 0.12534 0.87416 0.31638 0.0
C2121 C 0.12863 0.87843 0.29789 0.0
C2122 C 0.1097 0.8814 0.34865 0.0
C2123 C 0.07883 0.88115 0.35758 0.0
C2124 C 0.1391 0.87863 0.35878 0.0
C2125 C 0.17249 0.8795 0.35021 0.0
C2126 C 0.19387 0.866 0.3509 0.0
C2127 C 0.22522 0.86674 0.34267 0.0
C2128 C 0.23551 0.88095 0.33379 0.0
C2129 C 0.21452 0.89448 0.33319 0.0
C2130 C 0.18317 0.89381 0.34141 0.0
C2131 C 0.09054 0.84948 0.42865 0.0
C2132 C 0.10915 0.85793 0.44189 0.0
C2133 C 0.08855 0.85529 0.41072 0.0
C2134 C 0.10514 0.86963 0.4058 0.0
C2135 C 0.12292 0.87837 0.41912 0.0
C2136 C 0.12472 0.87261 0.43713 0.0
C2137 C 0.10593 0.87474 0.38643 0.0
C2138 C 0.1368 0.87521 0.37755 0.0
C2139 C 0.07655 0.87792 0.37643 0.0
C2140 C 0.0434 0.87818 0.38538 0.0
C2141 C 0.0376 0.88803 0.40086 0.0
C2142 C 0.00642 0.88814 0.40931 0.0
C2143 C 0.98072 0.87853 0.40233 0.0
C2144 C 0.98615 0.86882 0.38685 0.0
C2145 C 0.01731 0.86865 0.37837 0.0
H2146 H 0.95659 0.87863 0.40889 0.0
H2147 H 0.25977 0.88149 0.32741 0.0
H2148 H 0.15603 0.83429 0.80847 0.0
H2149 H 0.15222 0.84493 0.83959 0.0
H2150 H 0.11385 0.8903 0.81859 0.0
H2151 H 0.11708 0.87955 0.78716 0.0
H2152 H 0.18145 0.86997 0.85587 0.0
H2153 H 0.05766 0.90486 0.85056 0.0
H2154 H 0.00597 0.90449 0.83234 0.0
H2155 H 0.01802 0.8533 0.82263 0.0
H2156 H 0.06952 0.85333 0.84098 0.0
H2157 H 0.15396 0.92126 0.93218 0.0
H2158 H 0.15386 0.91167 0.90045 0.0
H2159 H 0.09375 0.87051 0.91614 0.0
H2160 H 0.09412 0.87992 0.94819 0.0
H2161 H 0.07403 0.88857 0.88199 0.0
H2162 H 0.1656 0.86063 0.91079 0.0
H2163 H 0.2159 0.85905 0.93 0.0
H2164 H 0.26572 0.8926 0.8941 0.0
H2165 H 0.21557 0.89436 0.87466 0.0
C2166 C 0.14686 0.84656 0.81043 0.0
C2167 C 0.13667 0.85609 0.79544 0.0
C2168 C 0.1448 0.85262 0.82822 0.0
C2169 C 0.13252 0.86832 0.83136 0.0
C2170 C 0.123 0.87806 0.8164 0.0
C2171 C 0.12497 0.87195 0.79851 0.0
C2172 C 0.1295 0.87424 0.85041 0.0
C2173 C 0.15797 0.87409 0.86152 0.0
C2174 C 0.09876 0.87938 0.85784 0.0
C2175 C 0.06762 0.87915 0.84697 0.0
C2176 C 0.0492 0.89352 0.84458 0.0
C2177 C 0.01995 0.89337 0.83423 0.0
C2178 C 0.00878 0.87889 0.82628 0.0
C2179 C 0.02677 0.86452 0.82873 0.0
C2180 C 0.05601 0.8646 0.83908 0.0
C2181 C 0.14056 0.91021 0.92889 0.0
C2182 C 0.12414 0.90126 0.94259 0.0
C2183 C 0.14051 0.90479 0.91079 0.0
C2184 C 0.12379 0.89045 0.90611 0.0
C2185 C 0.10663 0.88166 0.91963 0.0
C2186 C 0.10704 0.88697 0.93785 0.0
C2187 C 0.1259 0.88427 0.88722 0.0
C2188 C 0.09742 0.88448 0.87619 0.0
C2189 C 0.15644 0.87889 0.87992 0.0
C2190 C 0.18677 0.87775 0.8914 0.0
C2191 C 0.18721 0.86775 0.90707 0.0
C2192 C 0.21571 0.86681 0.91799 0.0
C2193 C 0.24394 0.87581 0.91336 0.0
C2194 C 0.2438 0.88567 0.8977 0.0
C2195 C 0.21539 0.8866 0.8867 0.0
H2196 H 0.26595 0.8751 0.92186 0.0
H2197 H 0.98614 0.8788 0.81826 0.0
H2198 H 0.09388 0.42395 0.79785 0.0
H2199 H 0.09324 0.4159 0.83011 0.0
H2200 H 0.12617 0.36774 0.81515 0.0
H2201 H 0.12703 0.37574 0.78266 0.0
H2202 H 0.07281 0.36914 0.84171 0.0
H2203 H 0.18164 0.39247 0.83029 0.0
H2204 H 0.21912 0.41413 0.81931 0.0
H2205 H 0.17618 0.44764 0.85785 0.0
H2206 H 0.13811 0.42622 0.86888 0.0
H2207 H 0.12676 0.33807 0.92544 0.0
H2208 H 0.12291 0.34753 0.89384 0.0
H2209 H 0.1123 0.397 0.913 0.0
H2210 H 0.11783 0.38755 0.94487 0.0
H2211 H 0.15113 0.39639 0.8845 0.0
H2212 H 0.04452 0.37422 0.89744 0.0
H2213 H 0.00404 0.35389 0.90837 0.0
H2214 H 0.03785 0.32007 0.86747 0.0
H2215 H 0.07889 0.34011 0.85646 0.0
C2216 C 0.10077 0.4116 0.80138 0.0
C2217 C 0.11074 0.40047 0.78781 0.0
C2218 C 0.10044 0.40706 0.8198 0.0
C2219 C 0.10998 0.39132 0.8249 0.0
C2220 C 0.11882 0.37997 0.81136 0.0
C2221 C 0.11939 0.38455 0.79288 0.0
C2222 C 0.1117 0.38692 0.84447 0.0
C2223 C 0.09014 0.37492 0.85108 0.0
C2224 C 0.13348 0.395 0.85666 0.0
C2225 C 0.15682 0.40778 0.85028 0.0
C2226 C 0.18004 0.40448 0.83633 0.0
C2227 C 0.20141 0.41671 0.83012 0.0
C2228 C 0.19997 0.43226 0.83784 0.0
C2229 C 0.17725 0.43559 0.85186 0.0
C2230 C 0.15579 0.42341 0.85811 0.0
C2231 C 0.12364 0.35097 0.92292 0.0
C2232 C 0.1223 0.3621 0.93751 0.0
C2233 C 0.12123 0.35635 0.90487 0.0
C2234 C 0.1164 0.37291 0.90109 0.0
C2235 C 0.11576 0.38414 0.91565 0.0
C2236 C 0.11889 0.37876 0.93379 0.0
C2237 C 0.1125 0.37836 0.88186 0.0
C2238 C 0.13359 0.39062 0.87525 0.0
C2239 C 0.08982 0.3707 0.86972 0.0
C2240 C 0.06496 0.35864 0.87621 0.0
C2241 C 0.04347 0.36241 0.89085 0.0
C2242 C 0.02041 0.35094 0.89705 0.0
C2243 C 0.01841 0.33569 0.88864 0.0
C2244 C 0.03943 0.33189 0.87398 0.0
C2245 C 0.06257 0.34331 0.86773 0.0
H2246 H 1.00054 0.32682 0.89347 0.0
H2247 H 0.2165 0.44172 0.83299 0.0
H2248 H 0.86121 0.62065 0.69757 0.0
H2249 H 0.86136 0.6124 0.66525 0.0
H2250 H 0.86183 0.66289 0.64879 0.0
H2251 H 0.85989 0.67112 0.68099 0.0
H2252 H 0.82399 0.64707 0.6268 0.0
H2253 H 0.93432 0.63875 0.64987 0.0
H2254 H 0.97708 0.62808 0.67093 0.0
H2255 H 0.94875 0.57915 0.65739 0.0
H2256 H 0.90553 0.58954 0.63642 0.0
H2257 H 0.88407 0.63095 0.53544 0.0
H2258 H 0.88185 0.64074 0.56732 0.0
H2259 H 0.85997 0.59207 0.58596 0.0
H2260 H 0.86193 0.58226 0.55437 0.0
H2261 H 0.91015 0.60798 0.60613 0.0
H2262 H 0.80062 0.6177 0.58149 0.0
H2263 H 0.76239 0.62948 0.55873 0.0
H2264 H 0.79224 0.67762 0.57462 0.0
H2265 H 0.83193 0.66609 0.59693 0.0
C2266 C 0.8611 0.62994 0.68701 0.0
C2267 C 0.86079 0.64649 0.69168 0.0
C2268 C 0.86136 0.62525 0.66859 0.0
C2269 C 0.86238 0.63705 0.65461 0.0
C2270 C 0.86114 0.65358 0.65932 0.0
C2271 C 0.86012 0.65826 0.67771 0.0
C2272 C 0.86556 0.63222 0.63511 0.0
C2273 C 0.84311 0.63868 0.62226 0.0
C2274 C 0.89039 0.6212 0.62918 0.0
C2275 C 0.9165 0.61492 0.64171 0.0
C2276 C 0.93707 0.62572 0.65148 0.0
C2277 C 0.96141 0.61972 0.66338 0.0
C2278 C 0.96558 0.60295 0.66553 0.0
C2279 C 0.94547 0.59214 0.65573 0.0
C2280 C 0.92108 0.59807 0.64382 0.0
C2281 C 0.87882 0.62239 0.54637 0.0
C2282 C 0.87308 0.60589 0.5425 0.0
C2283 C 0.87755 0.62797 0.56449 0.0
C2284 C 0.87071 0.61708 0.57886 0.0
C2285 C 0.86538 0.6006 0.575 0.0
C2286 C 0.86633 0.59506 0.55696 0.0
C2287 C 0.86854 0.62274 0.59801 0.0
C2288 C 0.89119 0.61643 0.61074 0.0
C2289 C 0.84426 0.63407 0.60373 0.0
C2290 C 0.81959 0.64101 0.59074 0.0
C2291 C 0.79932 0.6308 0.58002 0.0
C2292 C 0.77736 0.63743 0.56719 0.0
C2293 C 0.77478 0.6543 0.56525 0.0
C2294 C 0.79427 0.66456 0.57613 0.0
C2295 C 0.81661 0.65797 0.58882 0.0
H2296 H 0.75767 0.6594 0.55534 0.0
H2297 H 0.98443 0.59832 0.67476 0.0
H2298 H 0.88541 0.08245 0.68072 0.0
H2299 H 0.89061 0.09219 0.64925 0.0
H2300 H 0.88059 0.14174 0.66813 0.0
H2301 H 0.87429 0.13197 0.69978 0.0
H2302 H 0.84505 0.13705 0.63814 0.0
H2303 H 0.95634 0.12619 0.65615 0.0
H2304 H 0.00266 0.11032 0.66915 0.0
H2305 H 0.99076 0.07434 0.62688 0.0
H2306 H 0.94392 0.08983 0.61382 0.0
H2307 H 0.90614 0.17142 0.55526 0.0
H2308 H 0.9047 0.1626 0.58728 0.0
H2309 H 0.88851 0.11307 0.56987 0.0
H2310 H 0.8894 0.12185 0.5376 0.0
H2311 H 0.93941 0.11898 0.59923 0.0
H2312 H 0.82494 0.13044 0.58285 0.0
H2313 H 0.78027 0.14763 0.5702 0.0
H2314 H 0.80201 0.18464 0.61007 0.0
H2315 H 0.84715 0.16774 0.6228 0.0
C2316 C 0.88428 0.09542 0.67818 0.0
C2317 C 0.87964 0.10649 0.69265 0.0
C2318 C 0.88744 0.10097 0.66021 0.0
C2319 C 0.88667 0.11769 0.65643 0.0
C2320 C 0.88143 0.12878 0.67082 0.0
C2321 C 0.87787 0.12321 0.68884 0.0
C2322 C 0.89085 0.12346 0.63737 0.0
C2323 C 0.86596 0.1333 0.62974 0.0
C2324 C 0.91799 0.11841 0.62637 0.0
C2325 C 0.94639 0.10912 0.63409 0.0
C2326 C 0.96342 0.11483 0.6497 0.0
C2327 C 0.9898 0.10591 0.65707 0.0
C2328 C 0.9996 0.09131 0.64886 0.0
C2329 C 0.98311 0.08564 0.63323 0.0
C2330 C 0.95665 0.09449 0.62583 0.0
C2331 C 0.90249 0.15862 0.55822 0.0
C2332 C 0.8977 0.14729 0.54401 0.0
C2333 C 0.90165 0.15365 0.57648 0.0
C2334 C 0.89634 0.13726 0.58078 0.0
C2335 C 0.89262 0.12579 0.56666 0.0
C2336 C 0.893 0.1308 0.54833 0.0
C2337 C 0.89345 0.13228 0.60011 0.0
C2338 C 0.91864 0.1227 0.60774 0.0
C2339 C 0.86692 0.13777 0.6112 0.0
C2340 C 0.83962 0.14789 0.60366 0.0
C2341 C 0.82038 0.1423 0.58882 0.0
C2342 C 0.79494 0.15198 0.58165 0.0
C2343 C 0.78835 0.16723 0.58931 0.0
C2344 C 0.80716 0.17283 0.60415 0.0
C2345 C 0.83265 0.16319 0.61136 0.0
H2346 H 0.76858 0.17468 0.58377 0.0
H2347 H 0.01999 0.0844 0.65457 0.0
H2348 H 0.86729 0.11285 0.19877 0.0
H2349 H 0.86635 0.10411 0.16659 0.0
H2350 H 0.83732 0.1525 0.15005 0.0
H2351 H 0.83726 0.16114 0.18206 0.0
H2352 H 0.80568 0.13073 0.13 0.0
H2353 H 0.91878 0.14025 0.14868 0.0
H2354 H 0.96863 0.13672 0.16796 0.0
H2355 H 0.97107 0.08583 0.15462 0.0
H2356 H 0.92094 0.08903 0.13544 0.0
H2357 H 0.86709 0.13069 0.03761 0.0
H2358 H 0.86104 0.137 0.07042 0.0
H2359 H 0.86996 0.08601 0.08355 0.0
H2360 H 0.87538 0.07958 0.05092 0.0
H2361 H 0.91071 0.10802 0.10511 0.0
H2362 H 0.79756 0.09927 0.08561 0.0
H2363 H 0.74934 0.10374 0.06535 0.0
H2364 H 0.74928 0.15452 0.07925 0.0
H2365 H 0.79769 0.15036 0.0995 0.0
C2366 C 0.86033 0.12153 0.18826 0.0
C2367 C 0.85275 0.1377 0.19284 0.0
C2368 C 0.85989 0.11656 0.16992 0.0
C2369 C 0.85235 0.12776 0.15595 0.0
C2370 C 0.84328 0.14369 0.16062 0.0
C2371 C 0.84341 0.14861 0.17892 0.0
C2372 C 0.85575 0.12326 0.13639 0.0
C2373 C 0.82872 0.12588 0.12455 0.0
C2374 C 0.88573 0.11679 0.12932 0.0
C2375 C 0.91591 0.11485 0.1408 0.0
C2376 C 0.9298 0.12829 0.14997 0.0
C2377 C 0.95813 0.12635 0.16086 0.0
C2378 C 0.97295 0.11105 0.16256 0.0
C2379 C 0.95952 0.09767 0.15332 0.0
C2380 C 0.93117 0.09954 0.14243 0.0
C2381 C 0.86786 0.12087 0.04752 0.0
C2382 C 0.87156 0.10467 0.04182 0.0
C2383 C 0.86431 0.12447 0.06617 0.0
C2384 C 0.86494 0.11192 0.07924 0.0
C2385 C 0.8694 0.0958 0.07358 0.0
C2386 C 0.87238 0.09218 0.05498 0.0
C2387 C 0.86077 0.11554 0.09888 0.0
C2388 C 0.88766 0.11279 0.11067 0.0
C2389 C 0.83085 0.12202 0.10585 0.0
C2390 C 0.80141 0.12453 0.09393 0.0
C2391 C 0.78739 0.11141 0.08425 0.0
C2392 C 0.76 0.11388 0.07279 0.0
C2393 C 0.74633 0.12941 0.07094 0.0
C2394 C 0.75991 0.1425 0.08065 0.0
C2395 C 0.78728 0.14008 0.09216 0.0
H2396 H 0.72515 0.13127 0.06204 0.0
H2397 H 0.99488 0.10957 0.17099 0.0
H2398 H 0.88954 0.61837 0.03548 0.0
H2399 H 0.88984 0.60916 0.06749 0.0
H2400 H 0.90795 0.65841 0.08556 0.0
H2401 H 0.9088 0.66754 0.0537 0.0
H2402 H 0.9429 0.63837 0.10549 0.0
H2403 H 0.82947 0.64177 0.08617 0.0
H2404 H 0.78096 0.63632 0.06643 0.0
H2405 H 0.78938 0.58517 0.07756 0.0
H2406 H 0.83825 0.5903 0.09719 0.0
H2407 H 0.88007 0.62863 0.19754 0.0
H2408 H 0.88465 0.63754 0.16541 0.0
H2409 H 0.89239 0.58753 0.14796 0.0
H2410 H 0.88855 0.57857 0.1799 0.0
H2411 H 0.84448 0.60805 0.12822 0.0
H2412 H 0.95893 0.60625 0.14873 0.0
H2413 H 0.00468 0.61343 0.16975 0.0
H2414 H 0.99078 0.66406 0.15745 0.0
H2415 H 0.94452 0.6572 0.13659 0.0
C2416 C 0.89386 0.62717 0.0463 0.0
C2417 C 0.89885 0.64366 0.04218 0.0
C2418 C 0.89391 0.62193 0.06455 0.0
C2419 C 0.89832 0.63318 0.07888 0.0
C2420 C 0.90444 0.64955 0.07471 0.0
C2421 C 0.9048 0.65475 0.0565 0.0
C2422 C 0.89536 0.62806 0.09828 0.0
C2423 C 0.92124 0.63188 0.11048 0.0
C2424 C 0.86714 0.61954 0.10476 0.0
C2425 C 0.83773 0.6164 0.09299 0.0
C2426 C 0.82114 0.62934 0.0843 0.0
C2427 C 0.79355 0.62632 0.07314 0.0
C2428 C 0.78216 0.6104 0.0707 0.0
C2429 C 0.79828 0.59749 0.07944 0.0
C2430 C 0.8259 0.60045 0.09059 0.0
C2431 C 0.88269 0.61958 0.18682 0.0
C2432 C 0.88405 0.60294 0.19111 0.0
C2433 C 0.88537 0.62467 0.16857 0.0
C2434 C 0.88892 0.61314 0.15449 0.0
C2435 C 0.88966 0.59654 0.15873 0.0
C2436 C 0.88758 0.59148 0.17694 0.0
C2437 C 0.89199 0.61831 0.13524 0.0
C2438 C 0.86611 0.61452 0.12313 0.0
C2439 C 0.91988 0.6271 0.12893 0.0
C2440 C 0.94802 0.63122 0.14126 0.0
C2441 C 0.96542 0.61892 0.15063 0.0
C2442 C 0.99148 0.62293 0.1625 0.0
C2443 C 1.00057 0.63919 0.16498 0.0
C2444 C 0.98368 0.65148 0.15554 0.0
C2445 C 0.95755 0.64753 0.14369 0.0
H2446 H 0.02073 0.64227 0.17418 0.0
H2447 H 0.76079 0.60808 0.06207 0.0
H2448 H 0.60485 0.37292 0.94574 0.0
H2449 H 0.60995 0.3644 0.91361 0.0
H2450 H 0.69096 0.39824 0.9061 0.0
H2451 H 0.68476 0.40729 0.93784 0.0
H2452 H 0.65113 0.40165 0.87955 0.0
H2453 H 0.70286 0.35601 0.90747 0.0
H2454 H 0.70911 0.33312 0.9291 0.0
H2455 H 0.62262 0.31017 0.90625 0.0
H2456 H 0.6156 0.33304 0.88463 0.0
H2457 H 0.68369 0.34022 0.79859 0.0
H2458 H 0.69023 0.34866 0.83053 0.0
H2459 H 0.60593 0.3808 0.82491 0.0
H2460 H 0.60058 0.373 0.79258 0.0
H2461 H 0.65333 0.34442 0.85802 0.0
H2462 H 0.60998 0.412 0.85411 0.0
H2463 H 0.61264 0.43509 0.8325 0.0
H2464 H 0.6994 0.41453 0.80724 0.0
H2465 H 0.69755 0.39145 0.82886 0.0
C2466 C 0.62395 0.37835 0.93723 0.0
C2467 C 0.64425 0.3908 0.94408 0.0
C2468 C 0.62697 0.37345 0.91893 0.0
C2469 C 0.65096 0.38065 0.90747 0.0
C2470 C 0.67211 0.39262 0.91464 0.0
C2471 C 0.66862 0.39774 0.93275 0.0
C2472 C 0.65276 0.37644 0.88775 0.0
C2473 C 0.65181 0.38913 0.87484 0.0
C2474 C 0.65439 0.36014 0.88161 0.0
C2475 C 0.65855 0.34631 0.89453 0.0
C2476 C 0.68503 0.34614 0.90714 0.0
C2477 C 0.68874 0.33316 0.91938 0.0
C2478 C 0.66623 0.32022 0.91907 0.0
C2479 C 0.64002 0.32021 0.90648 0.0
C2480 C 0.63619 0.33317 0.89421 0.0
C2481 C 0.66685 0.34924 0.80416 0.0
C2482 C 0.64165 0.356 0.79326 0.0
C2483 C 0.67051 0.354 0.82239 0.0
C2484 C 0.64868 0.36541 0.83012 0.0
C2485 C 0.62353 0.37224 0.81916 0.0
C2486 C 0.62037 0.36775 0.80074 0.0
C2487 C 0.6515 0.36963 0.84982 0.0
C2488 C 0.65304 0.35694 0.86272 0.0
C2489 C 0.65189 0.38596 0.85595 0.0
C2490 C 0.65341 0.39991 0.84301 0.0
C2491 C 0.62971 0.41244 0.844 0.0
C2492 C 0.63106 0.42552 0.83174 0.0
C2493 C 0.65612 0.42625 0.81847 0.0
C2494 C 0.67994 0.41393 0.81748 0.0
C2495 C 0.67873 0.40083 0.82972 0.0
H2496 H 0.6571 0.43638 0.80898 0.0
H2497 H 0.66912 0.31018 0.92857 0.0
H2498 H 0.59592 0.82514 0.93339 0.0
H2499 H 0.59771 0.83333 0.90117 0.0
H2500 H 0.62014 0.88262 0.91736 0.0
H2501 H 0.61864 0.87449 0.94979 0.0
H2502 H 0.5706 0.87889 0.88857 0.0
H2503 H 0.68128 0.86049 0.90522 0.0
H2504 H 0.72105 0.84052 0.9177 0.0
H2505 H 0.69128 0.80584 0.87676 0.0
H2506 H 0.65091 0.82551 0.86423 0.0
H2507 H 0.63221 0.91373 0.80868 0.0
H2508 H 0.62666 0.9034 0.83988 0.0
H2509 H 0.62443 0.85419 0.81916 0.0
H2510 H 0.63123 0.86451 0.78774 0.0
H2511 H 0.66044 0.85598 0.84963 0.0
H2512 H 0.55284 0.87348 0.83144 0.0
H2513 H 0.51115 0.8922 0.81848 0.0
H2514 H 0.53117 0.92664 0.86144 0.0
H2515 H 0.57341 0.90825 0.87449 0.0
C2516 C 0.60095 0.83776 0.93012 0.0
C2517 C 0.60742 0.84919 0.94402 0.0
C2518 C 0.602 0.84238 0.91174 0.0
C2519 C 0.60936 0.85849 0.90703 0.0
C2520 C 0.6145 0.8701 0.92086 0.0
C2521 C 0.61374 0.86546 0.9393 0.0
C2522 C 0.61308 0.86304 0.88762 0.0
C2523 C 0.59039 0.87406 0.88005 0.0
C2524 C 0.63822 0.85615 0.87651 0.0
C2525 C 0.66282 0.84442 0.88391 0.0
C2526 C 0.68301 0.84856 0.89898 0.0
C2527 C 0.70569 0.8373 0.90605 0.0
C2528 C 0.70862 0.82191 0.89805 0.0
C2529 C 0.68894 0.81776 0.88295 0.0
C2530 C 0.66617 0.82896 0.87586 0.0
C2531 C 0.63074 0.9007 0.81077 0.0
C2532 C 0.63177 0.88989 0.79586 0.0
C2533 C 0.6274 0.89483 0.82857 0.0
C2534 C 0.62426 0.87808 0.83173 0.0
C2535 C 0.62653 0.86718 0.81693 0.0
C2536 C 0.6304 0.87307 0.79905 0.0
C2537 C 0.61829 0.87212 0.85056 0.0
C2538 C 0.64047 0.86078 0.85805 0.0
C2539 C 0.5923 0.8785 0.86152 0.0
C2540 C 0.5665 0.88952 0.85387 0.0
C2541 C 0.54851 0.88508 0.83807 0.0
C2542 C 0.52476 0.89564 0.8307 0.0
C2543 C 0.51857 0.91062 0.83911 0.0
C2544 C 0.53602 0.91504 0.85494 0.0
C2545 C 0.55985 0.90455 0.86234 0.0
H2546 H 0.50024 0.91881 0.83339 0.0
H2547 H 0.72619 0.8132 0.90352 0.0
H2548 H 0.62569 0.86974 0.45013 0.0
H2549 H 0.62809 0.86035 0.41811 0.0
H2550 H 0.64262 0.90981 0.3999 0.0
H2551 H 0.6406 0.91922 0.43166 0.0
H2552 H 0.59417 0.89185 0.37983 0.0
H2553 H 0.7061 0.88724 0.40333 0.0
H2554 H 0.74691 0.87738 0.42595 0.0
H2555 H 0.7245 0.82797 0.41134 0.0
H2556 H 0.6826 0.83753 0.38907 0.0
H2557 H 0.64186 0.88042 0.28802 0.0
H2558 H 0.64294 0.88911 0.3202 0.0
H2559 H 0.64947 0.83894 0.33747 0.0
H2560 H 0.64985 0.83029 0.30544 0.0
H2561 H 0.68674 0.85665 0.35864 0.0
H2562 H 0.57446 0.85988 0.33672 0.0
H2563 H 0.52931 0.86842 0.31595 0.0
H2564 H 0.54931 0.91854 0.32847 0.0
H2565 H 0.59488 0.91029 0.34914 0.0
C2566 C 0.62924 0.87857 0.43926 0.0
C2567 C 0.63312 0.89516 0.44328 0.0
C2568 C 0.63064 0.87321 0.42107 0.0
C2569 C 0.63564 0.88444 0.40681 0.0
C2570 C 0.63871 0.90103 0.4108 0.0
C2571 C 0.63772 0.90634 0.42892 0.0
C2572 C 0.63853 0.879 0.38766 0.0
C2573 C 0.61453 0.88427 0.37509 0.0
C2574 C 0.66476 0.86884 0.3818 0.0
C2575 C 0.6909 0.8631 0.39467 0.0
C2576 C 0.70965 0.87427 0.40503 0.0
C2577 C 0.73299 0.86873 0.41781 0.0
C2578 C 0.7383 0.85206 0.4201 0.0
C2579 C 0.72032 0.84089 0.40958 0.0
C2580 C 0.69672 0.84636 0.3969 0.0
C2581 C 0.64384 0.8713 0.29871 0.0
C2582 C 0.64544 0.8547 0.29433 0.0
C2583 C 0.64435 0.87625 0.31705 0.0
C2584 C 0.64558 0.86463 0.3312 0.0
C2585 C 0.64843 0.8481 0.32677 0.0
C2586 C 0.64852 0.84318 0.30847 0.0
C2587 C 0.64239 0.86958 0.35063 0.0
C2588 C 0.66632 0.86421 0.3633 0.0
C2589 C 0.61578 0.87948 0.35668 0.0
C2590 C 0.58828 0.88447 0.34433 0.0
C2591 C 0.56937 0.87272 0.33494 0.0
C2592 C 0.54369 0.87751 0.32321 0.0
C2593 C 0.5365 0.89402 0.32086 0.0
C2594 C 0.55493 0.90576 0.33028 0.0
C2595 C 0.58067 0.90104 0.34202 0.0
H2596 H 0.51661 0.8977 0.31176 0.0
H2597 H 0.75636 0.84781 0.43001 0.0
H2598 H 0.62731 0.38396 0.45008 0.0
H2599 H 0.61863 0.393 0.41827 0.0
H2600 H 0.62699 0.34338 0.39951 0.0
H2601 H 0.63503 0.33425 0.43111 0.0
H2602 H 0.6651 0.36682 0.37936 0.0
H2603 H 0.55492 0.35734 0.40292 0.0
H2604 H 0.50913 0.36104 0.42501 0.0
H2605 H 0.50536 0.41199 0.41222 0.0
H2606 H 0.5518 0.4087 0.3904 0.0
H2607 H 0.61205 0.37526 0.28814 0.0
H2608 H 0.61408 0.36554 0.3199 0.0
H2609 H 0.5875 0.41347 0.33921 0.0
H2610 H 0.58438 0.42309 0.30754 0.0
H2611 H 0.55787 0.39086 0.35948 0.0
H2612 H 0.66867 0.40131 0.33766 0.0
H2613 H 0.71617 0.3987 0.31646 0.0
H2614 H 0.71991 0.34727 0.32663 0.0
H2615 H 0.67213 0.34954 0.34772 0.0
C2616 C 0.62748 0.37504 0.43914 0.0
C2617 C 0.63165 0.35843 0.44297 0.0
C2618 C 0.6224 0.38019 0.42107 0.0
C2619 C 0.62196 0.36878 0.40672 0.0
C2620 C 0.62718 0.35229 0.41049 0.0
C2621 C 0.6317 0.34712 0.4285 0.0
C2622 C 0.61591 0.37394 0.38769 0.0
C2623 C 0.64157 0.37193 0.37492 0.0
C2624 C 0.58537 0.38086 0.3822 0.0
C2625 C 0.55716 0.38281 0.39518 0.0
C2626 C 0.5446 0.36937 0.40495 0.0
C2627 C 0.51848 0.37139 0.41741 0.0
C2628 C 0.50439 0.38674 0.42003 0.0
C2629 C 0.51636 0.40011 0.41019 0.0
C2630 C 0.5426 0.39818 0.39779 0.0
C2631 C 0.6063 0.38365 0.29917 0.0
C2632 C 0.59849 0.39995 0.29546 0.0
C2633 C 0.60751 0.37811 0.31726 0.0
C2634 C 0.60157 0.38889 0.33187 0.0
C2635 C 0.59226 0.40498 0.32813 0.0
C2636 C 0.59064 0.41047 0.31004 0.0
C2637 C 0.60711 0.38373 0.35105 0.0
C2638 C 0.5814 0.38575 0.36388 0.0
C2639 C 0.63776 0.37695 0.3567 0.0
C2640 C 0.66664 0.37557 0.34412 0.0
C2641 C 0.67949 0.38943 0.33528 0.0
C2642 C 0.70648 0.38801 0.3233 0.0
C2643 C 0.72099 0.37282 0.32016 0.0
C2644 C 0.70861 0.35902 0.32905 0.0
C2645 C 0.6816 0.36037 0.34103 0.0
H2646 H 0.74188 0.37175 0.31088 0.0
H2647 H 0.48416 0.38828 0.42966 0.0
H2648 H 0.36898 0.61893 0.20237 0.0
H2649 H 0.36891 0.60995 0.17026 0.0
H2650 H 0.37107 0.66007 0.15242 0.0
H2651 H 0.3694 0.66902 0.18432 0.0
H2652 H 0.33073 0.64442 0.1319 0.0
H2653 H 0.44217 0.63464 0.15327 0.0
H2654 H 0.4852 0.62322 0.17365 0.0
H2655 H 0.45282 0.57482 0.16048 0.0
H2656 H 0.40932 0.58596 0.14018 0.0
H2657 H 0.3909 0.63186 0.04068 0.0
H2658 H 0.38761 0.63977 0.07314 0.0
H2659 H 0.36491 0.59017 0.08796 0.0
H2660 H 0.36798 0.5822 0.0557 0.0
H2661 H 0.4146 0.6048 0.10972 0.0
H2662 H 0.30443 0.61578 0.08672 0.0
H2663 H 0.26457 0.62817 0.06513 0.0
H2664 H 0.29813 0.67584 0.08061 0.0
H2665 H 0.33865 0.66372 0.10204 0.0
C2666 C 0.36936 0.62797 0.19154 0.0
C2667 C 0.36929 0.64463 0.19572 0.0
C2668 C 0.36947 0.62286 0.17324 0.0
C2669 C 0.37052 0.63436 0.15895 0.0
C2670 C 0.37019 0.651 0.1632 0.0
C2671 C 0.36933 0.65609 0.18143 0.0
C2672 C 0.37216 0.62919 0.13952 0.0
C2673 C 0.34932 0.63589 0.12704 0.0
C2674 C 0.39608 0.61786 0.13321 0.0
C2675 C 0.42229 0.61114 0.14536 0.0
C2676 C 0.44409 0.62156 0.15482 0.0
C2677 C 0.46858 0.61514 0.16634 0.0
C2678 C 0.47168 0.5983 0.1684 0.0
C2679 C 0.45036 0.58785 0.15889 0.0
C2680 C 0.4258 0.59422 0.14737 0.0
C2681 C 0.38522 0.62268 0.05089 0.0
C2682 C 0.3796 0.60645 0.04575 0.0
C2683 C 0.3833 0.6272 0.06934 0.0
C2684 C 0.37589 0.61552 0.0828 0.0
C2685 C 0.37067 0.5993 0.0777 0.0
C2686 C 0.3723 0.59481 0.05929 0.0
C2687 C 0.37347 0.62017 0.10226 0.0
C2688 C 0.39606 0.61332 0.11468 0.0
C2689 C 0.34968 0.63152 0.10845 0.0
C2690 C 0.3248 0.63883 0.09586 0.0
C2691 C 0.30348 0.6289 0.08543 0.0
C2692 C 0.28075 0.63587 0.07323 0.0
C2693 C 0.27887 0.65278 0.07147 0.0
C2694 C 0.29964 0.66274 0.08196 0.0
C2695 C 0.32248 0.65583 0.09415 0.0
H2696 H 0.26127 0.65815 0.06201 0.0
H2697 H 0.49066 0.59335 0.17732 0.0
H2698 H 0.37396 0.1363 0.20312 0.0
H2699 H 0.38008 0.14586 0.17139 0.0
H2700 H 0.38405 0.09608 0.1525 0.0
H2701 H 0.37957 0.08657 0.18409 0.0
H2702 H 0.42776 0.1127 0.13493 0.0
H2703 H 0.31195 0.12043 0.14969 0.0
H2704 H 0.26468 0.131 0.16764 0.0
H2705 H 0.29656 0.17998 0.15708 0.0
H2706 H 0.34427 0.16968 0.13925 0.0
H2707 H 0.38066 0.12401 0.04099 0.0
H2708 H 0.38159 0.11619 0.07353 0.0
H2709 H 0.39618 0.16638 0.0889 0.0
H2710 H 0.39541 0.17427 0.0566 0.0
H2711 H 0.34535 0.15086 0.10828 0.0
H2712 H 0.45933 0.14208 0.09106 0.0
H2713 H 0.50401 0.13059 0.07188 0.0
H2714 H 0.47285 0.08223 0.08612 0.0
H2715 H 0.42756 0.09344 0.10512 0.0
C2716 C 0.37617 0.12746 0.19215 0.0
C2717 C 0.37617 0.11073 0.19596 0.0
C2718 C 0.37957 0.1329 0.17406 0.0
C2719 C 0.38208 0.12166 0.15956 0.0
C2720 C 0.38228 0.10497 0.16346 0.0
C2721 C 0.37956 0.09955 0.1815 0.0
C2722 C 0.38401 0.12713 0.14022 0.0
C2723 C 0.40955 0.12093 0.12907 0.0
C2724 C 0.36059 0.13808 0.13266 0.0
C2725 C 0.33185 0.14428 0.14331 0.0
C2726 C 0.309 0.13345 0.1513 0.0
C2727 C 0.28211 0.13939 0.16144 0.0
C2728 C 0.27767 0.15615 0.16354 0.0
C2729 C 0.30006 0.16701 0.15547 0.0
C2730 C 0.32701 0.16112 0.14533 0.0
C2731 C 0.38418 0.13333 0.05133 0.0
C2732 C 0.38791 0.14972 0.04634 0.0
C2733 C 0.3848 0.12886 0.06984 0.0
C2734 C 0.38904 0.14075 0.08349 0.0
C2735 C 0.39285 0.15708 0.0785 0.0
C2736 C 0.39249 0.16153 0.06006 0.0
C2737 C 0.38875 0.13626 0.10307 0.0
C2738 C 0.36359 0.14268 0.11422 0.0
C2739 C 0.41222 0.12537 0.11055 0.0
C2740 C 0.43984 0.11861 0.09939 0.0
C2741 C 0.46184 0.129 0.09 0.0
C2742 C 0.4873 0.12253 0.07917 0.0
C2743 C 0.49123 0.10569 0.07775 0.0
C2744 C 0.46976 0.09528 0.08721 0.0
C2745 C 0.44419 0.10168 0.09802 0.0
H2746 H 0.51094 0.10071 0.06935 0.0
H2747 H 0.25685 0.16073 0.1714 0.0
H2748 H 0.33294 0.1621 0.68467 0.0
H2749 H 0.33024 0.15268 0.65295 0.0
H2750 H 0.38168 0.10863 0.66811 0.0
H2751 H 0.38465 0.11805 0.70006 0.0
H2752 H 0.40968 0.12373 0.63852 0.0
H2753 H 0.30178 0.10665 0.65739 0.0
H2754 H 0.24649 0.10953 0.67158 0.0
H2755 H 0.221 0.14647 0.63232 0.0
H2756 H 0.27637 0.14401 0.61807 0.0
H2757 H 0.33809 0.08704 0.55028 0.0
H2758 H 0.33197 0.09397 0.58266 0.0
H2759 H 0.39127 0.1371 0.57445 0.0
H2760 H 0.3977 0.13016 0.54183 0.0
H2761 H 0.30682 0.11996 0.60116 0.0
H2762 H 0.44279 0.14014 0.61193 0.0
H2763 H 0.49809 0.13543 0.5983 0.0
H2764 H 0.46678 0.08833 0.57949 0.0
H2765 H 0.41149 0.09268 0.59323 0.0
C2766 C 0.34339 0.15032 0.68131 0.0
C2767 C 0.35918 0.14082 0.69475 0.0
C2768 C 0.34167 0.14494 0.66321 0.0
C2769 C 0.35563 0.12995 0.65827 0.0
C2770 C 0.37076 0.12023 0.67174 0.0
C2771 C 0.37235 0.1256 0.68992 0.0
C2772 C 0.35622 0.12503 0.6388 0.0
C2773 C 0.38719 0.12283 0.63036 0.0
C2774 C 0.3268 0.12377 0.62828 0.0
C2775 C 0.29337 0.12523 0.63675 0.0
C2776 C 0.2845 0.11549 0.65187 0.0
C2777 C 0.25312 0.11703 0.65991 0.0
C2778 C 0.23027 0.1282 0.65288 0.0
C2779 C 0.23874 0.13783 0.63776 0.0
C2780 C 0.27011 0.13635 0.62968 0.0
C2781 C 0.34962 0.09808 0.55531 0.0
C2782 C 0.3687 0.10799 0.54364 0.0
C2783 C 0.34593 0.10205 0.57378 0.0
C2784 C 0.36145 0.11592 0.58091 0.0
C2785 C 0.37941 0.12624 0.56915 0.0
C2786 C 0.38299 0.1223 0.55058 0.0
C2787 C 0.36029 0.11899 0.60086 0.0
C2788 C 0.32925 0.12085 0.60936 0.0
C2789 C 0.3896 0.11967 0.61152 0.0
C2790 C 0.42292 0.11682 0.60344 0.0
C2791 C 0.44777 0.12876 0.60494 0.0
C2792 C 0.4791 0.12615 0.59719 0.0
C2793 C 0.48591 0.11161 0.58798 0.0
C2794 C 0.46144 0.09962 0.58657 0.0
C2795 C 0.43009 0.10216 0.59431 0.0
H2796 H 0.51016 0.10962 0.58198 0.0
H2797 H 0.20598 0.12937 0.65912 0.0
H2798 H 0.34708 0.62951 0.69978 0.0
H2799 H 0.35072 0.6357 0.66688 0.0
H2800 H 0.43209 0.60181 0.66151 0.0
H2801 H 0.42748 0.59508 0.69405 0.0
H2802 H 0.3941 0.64746 0.64434 0.0
H2803 H 0.42759 0.58138 0.62198 0.0
H2804 H 0.41807 0.55326 0.63263 0.0
H2805 H 0.33 0.56854 0.66107 0.0
H2806 H 0.3387 0.59669 0.65036 0.0
H2807 H 0.44197 0.65194 0.55264 0.0
H2808 H 0.44239 0.64449 0.58515 0.0
H2809 H 0.35539 0.61464 0.57676 0.0
H2810 H 0.35612 0.62136 0.54402 0.0
H2811 H 0.39191 0.60095 0.60081 0.0
H2812 H 0.3504 0.65479 0.59276 0.0
H2813 H 0.35067 0.68323 0.58193 0.0
H2814 H 0.43788 0.69293 0.61408 0.0
H2815 H 0.43839 0.66448 0.62491 0.0
C2816 C 0.36589 0.62354 0.69154 0.0
C2817 C 0.38666 0.61166 0.69924 0.0
C2818 C 0.36797 0.62707 0.67281 0.0
C2819 C 0.39113 0.6189 0.6617 0.0
C2820 C 0.41339 0.60788 0.66973 0.0
C2821 C 0.41085 0.60411 0.68831 0.0
C2822 C 0.39132 0.6214 0.64161 0.0
C2823 C 0.39363 0.63731 0.63481 0.0
C2824 C 0.38971 0.60814 0.6292 0.0
C2825 C 0.38401 0.59118 0.6355 0.0
C2826 C 0.40612 0.57872 0.63043 0.0
C2827 C 0.40087 0.56278 0.63649 0.0
C2828 C 0.37351 0.55913 0.64756 0.0
C2829 C 0.35125 0.5714 0.65255 0.0
C2830 C 0.35634 0.58735 0.64649 0.0
C2831 C 0.42337 0.64354 0.55773 0.0
C2832 C 0.3988 0.63732 0.54602 0.0
C2833 C 0.42347 0.63939 0.57628 0.0
C2834 C 0.39831 0.62942 0.58346 0.0
C2835 C 0.37491 0.62244 0.57152 0.0
C2836 C 0.37532 0.62627 0.55285 0.0
C2837 C 0.39532 0.62701 0.60352 0.0
C2838 C 0.39244 0.61111 0.61032 0.0
C2839 C 0.39493 0.64032 0.6159 0.0
C2840 C 0.3946 0.65747 0.60951 0.0
C2841 C 0.36976 0.66297 0.59743 0.0
C2842 C 0.36976 0.67909 0.5913 0.0
C2843 C 0.39432 0.68987 0.59728 0.0
C2844 C 0.41889 0.68456 0.60945 0.0
C2845 C 0.41903 0.66844 0.61559 0.0
H2846 H 0.39428 0.70235 0.59252 0.0
H2847 H 0.3695 0.54678 0.65223 0.0
H2848 H 0.21987 0.38808 0.25717 0.0
H2849 H 0.27923 0.39269 0.25575 0.0
H2850 H 0.29386 0.34425 0.23455 0.0
H2851 H 0.23352 0.33941 0.23575 0.0
H2852 H 0.33881 0.35365 0.2634 0.0
H2853 H 0.30226 0.37406 0.20477 0.0
H2854 H 0.2675 0.39013 0.18361 0.0
H2855 H 0.29465 0.434 0.21186 0.0
H2856 H 0.32986 0.4182 0.23312 0.0
H2857 H 0.50495 0.36442 0.2387 0.0
H2858 H 0.44555 0.35948 0.2374 0.0
H2859 H 0.42684 0.40965 0.2514 0.0
H2860 H 0.48712 0.41484 0.25231 0.0
H2861 H 0.38357 0.39909 0.22585 0.0
H2862 H 0.42104 0.37938 0.28396 0.0
H2863 H 0.45664 0.36387 0.30523 0.0
H2864 H 0.42677 0.3192 0.27947 0.0
H2865 H 0.39134 0.33447 0.25785 0.0
C2866 C 0.23542 0.37829 0.25214 0.0
C2867 C 0.22161 0.36335 0.2464 0.0
C2868 C 0.26952 0.38104 0.2513 0.0
C2869 C 0.29092 0.36894 0.24476 0.0
C2870 C 0.27765 0.3538 0.23952 0.0
C2871 C 0.2432 0.35105 0.24022 0.0
C2872 C 0.32712 0.37232 0.24374 0.0
C2873 C 0.34874 0.36337 0.25493 0.0
C2874 C 0.33984 0.38542 0.23322 0.0
C2875 C 0.31843 0.39494 0.22062 0.0
C2876 C 0.3006 0.38712 0.20655 0.0
C2877 C 0.28087 0.39618 0.19452 0.0
C2878 C 0.27863 0.41305 0.19647 0.0
C2879 C 0.29633 0.42093 0.21039 0.0
C2880 C 0.3163 0.41194 0.22238 0.0
C2881 C 0.4883 0.37448 0.24147 0.0
C2882 C 0.50079 0.39 0.2459 0.0
C2883 C 0.45425 0.37159 0.24078 0.0
C2884 C 0.43165 0.38405 0.24481 0.0
C2885 C 0.44386 0.3998 0.24842 0.0
C2886 C 0.47824 0.40277 0.24892 0.0
C2887 C 0.39546 0.38036 0.24545 0.0
C2888 C 0.37377 0.38931 0.23427 0.0
C2889 C 0.38264 0.36733 0.25611 0.0
C2890 C 0.40375 0.35809 0.26918 0.0
C2891 C 0.42223 0.36626 0.28274 0.0
C2892 C 0.44236 0.35751 0.29487 0.0
C2893 C 0.44402 0.34056 0.29367 0.0
C2894 C 0.42548 0.33233 0.28037 0.0
C2895 C 0.40535 0.34102 0.26818 0.0
H2896 H 0.45963 0.33381 0.30308 0.0
H2897 H 0.2633 0.42003 0.18714 0.0
H2898 H 0.74069 0.88133 0.22386 0.0
H2899 H 0.80086 0.88502 0.22237 0.0
H2900 H 0.81435 0.84354 0.2579 0.0
H2901 H 0.75366 0.83963 0.25915 0.0
H2902 H 0.84529 0.87287 0.27016 0.0
H2903 H 0.83927 0.84038 0.21544 0.0
H2904 H 0.81806 0.83264 0.18489 0.0
H2905 H 0.84887 0.87878 0.16308 0.0
H2906 H 0.86984 0.88691 0.19358 0.0
H2907 H 0.018 0.86633 0.26828 0.0
H2908 H 0.95846 0.86277 0.26607 0.0
H2909 H 0.95345 0.90064 0.22513 0.0
H2910 H 0.01416 0.90407 0.22693 0.0
H2911 H 0.91749 0.8743 0.21492 0.0
H2912 H 0.92383 0.90717 0.26845 0.0
H2913 H 0.9442 0.91605 0.29878 0.0
H2914 H 0.91134 0.87108 0.32269 0.0
H2915 H 0.89119 0.86181 0.29244 0.0
C2916 C 0.75657 0.87273 0.23095 0.0
C2917 C 0.74271 0.86014 0.24154 0.0
C2918 C 0.7909 0.87486 0.23009 0.0
C2919 C 0.81206 0.86457 0.24002 0.0
C2920 C 0.79837 0.85158 0.2501 0.0
C2921 C 0.76385 0.84926 0.2507 0.0
C2922 C 0.84804 0.86838 0.24107 0.0
C2923 C 0.86127 0.8729 0.25815 0.0
C2924 C 0.86837 0.86918 0.22523 0.0
C2925 C 0.85584 0.86432 0.20686 0.0
C2926 C 0.84125 0.84894 0.20418 0.0
C2927 C 0.82933 0.84447 0.18686 0.0
C2928 C 0.83203 0.85523 0.17207 0.0
C2929 C 0.84675 0.87047 0.17456 0.0
C2930 C 0.85869 0.87501 0.19186 0.0
C2931 C 0.00443 0.87404 0.25883 0.0
C2932 C 0.02102 0.88547 0.2477 0.0
C2933 C 0.97018 0.87203 0.25769 0.0
C2934 C 0.95132 0.88152 0.24558 0.0
C2935 C 0.96753 0.8932 0.23462 0.0
C2936 C 1.00214 0.89524 0.23575 0.0
C2937 C 0.91496 0.87857 0.24409 0.0
C2938 C 0.90157 0.87429 0.22694 0.0
C2939 C 0.89428 0.87819 0.25985 0.0
C2940 C 0.90622 0.88374 0.27812 0.0
C2941 C 0.92116 0.89911 0.28014 0.0
C2942 C 0.93264 0.90423 0.29733 0.0
C2943 C 0.92913 0.89412 0.31265 0.0
C2944 C 0.91406 0.87889 0.31081 0.0
C2945 C 0.90257 0.87371 0.29365 0.0
H2946 H 0.93804 0.8981 0.32594 0.0
H2947 H 0.82279 0.85174 0.15867 0.0
H2948 H 0.23203 0.87149 0.95966 0.0
H2949 H 0.29101 0.86526 0.96161 0.0
H2950 H 0.30343 0.90283 0.00239 0.0
H2951 H 0.24398 0.90931 0.00039 0.0
H2952 H 0.35595 0.90135 0.97745 0.0
H2953 H 0.29493 0.86425 0.01598 0.0
H2954 H 0.25111 0.84413 0.02266 0.0
H2955 H 0.29168 0.81194 0.98196 0.0
H2956 H 0.33548 0.83198 0.97486 0.0
H2957 H 0.50884 0.87704 0.01215 0.0
H2958 H 0.44926 0.88242 0.01097 0.0
H2959 H 0.43659 0.8424 0.97323 0.0
H2960 H 0.49659 0.83666 0.97491 0.0
H2961 H 0.38393 0.84489 -0.00381 0.0
H2962 H 0.44451 0.88123 0.95736 0.0
H2963 H 0.48806 0.90118 0.94959 0.0
H2964 H 0.4482 0.93459 0.98923 0.0
H2965 H 0.40468 0.91474 -0.00256 0.0
C2966 C 0.24729 0.87863 0.96887 0.0
C2967 C 0.23313 0.89079 0.98003 0.0
C2968 C 0.28104 0.87497 0.97003 0.0
C2969 C 0.30146 0.88329 0.98247 0.0
C2970 C 0.288 0.89616 0.9928 0.0
C2971 C 0.25406 0.89989 0.99161 0.0
C2972 C 0.33639 0.87799 0.98522 0.0
C2973 C 0.36208 0.88909 0.9818 0.0
C2974 C 0.34439 0.86182 0.99037 0.0
C2975 C 0.31831 0.84967 -0.00522 0.0
C2976 C 0.29437 0.85292 0.00837 0.0
C2977 C 0.26956 0.84153 0.01224 0.0
C2978 C 0.26857 0.82678 0.00271 0.0
C2979 C 0.29246 0.82337 0.98932 0.0
C2980 C 0.3173 0.83474 0.98538 0.0
C2981 C 0.49316 0.86911 0.00401 0.0
C2982 C 0.50713 0.85644 -0.00636 0.0
C2983 C 0.45919 0.87229 0.00319 0.0
C2984 C 0.43858 0.86313 0.99159 0.0
C2985 C 0.45209 0.84971 0.98216 0.0
C2986 C 0.48624 0.84636 0.9832 0.0
C2987 C 0.40358 0.86829 0.98855 0.0
C2988 C 0.37786 0.85716 0.99186 0.0
C2989 C 0.39554 0.88441 0.98314 0.0
C2990 C 0.42151 0.89644 0.97813 0.0
C2991 C 0.44517 0.89279 0.96451 0.0
C2992 C 0.46983 0.90408 0.96001 0.0
C2993 C 0.47094 0.91913 0.96894 0.0
C2994 C 0.44733 0.92292 0.98234 0.0
C2995 C 0.42264 0.91166 0.98691 0.0
H2996 H 0.49006 0.92786 0.96544 0.0
H2997 H 0.24933 0.81797 0.00572 0.0
H2998 H 0.01315 0.38901 0.96582 0.0
H2999 H 0.95356 0.39157 0.9699 0.0
H3000 H 0.95192 0.34696 0.00103 0.0
H3001 H 0.01242 0.34429 -0.00281 0.0
H3002 H 0.89909 0.3508 0.97401 0.0
H3003 H 0.95002 0.38051 0.02368 0.0
H3004 H 0.98859 0.40064 0.03699 0.0
H3005 H 0.94047 0.43885 0.00693 0.0
H3006 H 0.9022 0.41894 0.99301 0.0
H3007 H 0.73698 0.36072 0.00578 0.0
H3008 H 0.79709 0.35745 0.00581 0.0
H3009 H 0.80827 0.40563 0.9831 0.0
H3010 H 0.74755 0.40917 0.98359 0.0
H3011 H 0.85691 0.39944 0.00707 0.0
H3012 H 0.81043 0.37183 0.95553 0.0
H3013 H 0.77244 0.35315 0.93936 0.0
H3014 H 0.81237 0.31275 0.96954 0.0
H3015 H 0.85025 0.33124 0.98612 0.0
C3016 C 1.00033 0.37962 0.97349 0.0
C3017 C 0.01781 0.3665 0.98137 0.0
C3018 C 0.96616 0.38116 0.97582 0.0
C3019 C 0.94845 0.36964 0.98604 0.0
C3020 C 0.96529 0.35606 -0.0068 0.0
C3021 C 0.9998 0.35452 0.99095 0.0
C3022 C 0.91248 0.37216 0.98938 0.0
C3023 C 0.88981 0.36124 0.98155 0.0
C3024 C 0.90051 0.38617 -0.00139 0.0
C3025 C 0.92336 0.39818 0.00717 0.0
C3026 C 0.94782 0.39318 0.01977 0.0
C3027 C 0.96961 0.40455 0.02745 0.0
C3028 C 0.96695 0.42099 0.02283 0.0
C3029 C 0.94251 0.42611 0.0105 0.0
C3030 C 0.92077 0.41478 0.0027 0.0
C3031 C 0.75224 0.37072 0.00101 0.0
C3032 C 0.73762 0.38514 -0.00552 0.0
C3033 C 0.78661 0.3688 0.00096 0.0
C3034 C 0.80719 0.3811 -0.00603 0.0
C3035 C 0.79283 0.39592 0.98841 0.0
C3036 C 0.75822 0.39796 0.98872 0.0
C3037 C 0.84339 0.37804 0.99174 0.0
C3038 C 0.86611 0.3889 -0.00031 0.0
C3039 C 0.85547 0.36415 0.98228 0.0
C3040 C 0.83295 0.35295 0.97221 0.0
C3041 C 0.81095 0.35898 0.95882 0.0
C3042 C 0.78945 0.34843 0.94956 0.0
C3043 C 0.78993 0.33178 0.95345 0.0
C3044 C 0.81199 0.32565 0.96656 0.0
C3045 C 0.83349 0.33617 0.97589 0.0
H3046 H 0.77326 0.32363 0.94628 0.0
H3047 H 0.98383 0.42977 0.02881 0.0
H3048 H 0.75882 0.61154 0.73723 0.0
H3049 H 0.69938 0.60919 0.74103 0.0
H3050 H 0.6921 0.66091 0.75009 0.0
H3051 H 0.7528 0.66345 0.74657 0.0
H3052 H 0.6519 0.6432 0.77384 0.0
H3053 H 0.67037 0.64541 0.70905 0.0
H3054 H 0.69678 0.63803 0.67964 0.0
H3055 H 0.66278 0.5888 0.68569 0.0
H3056 H 0.63657 0.59582 0.71529 0.0
H3057 H 0.47901 0.64695 0.75489 0.0
H3058 H 0.53908 0.64983 0.75603 0.0
H3059 H 0.55017 0.59819 0.74746 0.0
H3060 H 0.48936 0.59519 0.74618 0.0
H3061 H 0.58831 0.61648 0.72379 0.0
H3062 H 0.56816 0.61485 0.78851 0.0
H3063 H 0.54098 0.62278 0.81752 0.0
H3064 H 0.57709 0.67162 0.8112 0.0
H3065 H 0.60398 0.66407 0.78196 0.0
C3066 C 0.74488 0.62255 0.73996 0.0
C3067 C 0.7608 0.63778 0.7413 0.0
C3068 C 0.71067 0.62112 0.74213 0.0
C3069 C 0.69112 0.63488 0.74548 0.0
C3070 C 0.70674 0.65012 0.74739 0.0
C3071 C 0.74137 0.65157 0.74531 0.0
C3072 C 0.65439 0.63305 0.7466 0.0
C3073 C 0.63787 0.63761 0.76279 0.0
C3074 C 0.63619 0.62537 0.73235 0.0
C3075 C 0.65172 0.62112 0.71447 0.0
C3076 C 0.66872 0.63298 0.70418 0.0
C3077 C 0.68363 0.62887 0.68746 0.0
C3078 C 0.68152 0.61295 0.68082 0.0
C3079 C 0.66442 0.60112 0.69086 0.0
C3080 C 0.6495 0.60517 0.7076 0.0
C3081 C 0.49412 0.63613 0.75341 0.0
C3082 C 0.47938 0.62083 0.7503 0.0
C3083 C 0.52854 0.63781 0.7542 0.0
C3084 C 0.54918 0.62424 0.75193 0.0
C3085 C 0.53465 0.60883 0.74929 0.0
C3086 C 0.49997 0.60711 0.74865 0.0
C3087 C 0.5858 0.62649 0.75108 0.0
C3088 C 0.60231 0.62204 0.73487 0.0
C3089 C 0.60381 0.63437 0.76526 0.0
C3090 C 0.5879 0.63891 0.78294 0.0
C3091 C 0.57011 0.62732 0.79322 0.0
C3092 C 0.55478 0.63174 0.80972 0.0
C3093 C 0.55733 0.64769 0.8162 0.0
C3094 C 0.57517 0.65926 0.80618 0.0
C3095 C 0.59048 0.65491 0.78964 0.0
H3096 H 0.54548 0.65108 0.82899 0.0
H3097 H 0.69308 0.60979 0.66788 0.0
H3098 H 0.98706 0.13256 0.71366 0.0
H3099 H 0.04664 0.13635 0.71594 0.0
H3100 H 0.05288 0.09625 0.75405 0.0
H3101 H 0.99235 0.09266 0.75226 0.0
H3102 H 0.08685 0.1214 0.76674 0.0
H3103 H 0.08415 0.09353 0.70952 0.0
H3104 H 0.0661 0.08723 0.67797 0.0
H3105 H 0.0979 0.1345 0.66001 0.0
H3106 H 0.11592 0.14115 0.69153 0.0
H3107 H 0.26296 0.11408 0.76062 0.0
H3108 H 0.20273 0.11078 0.75997 0.0
H3109 H 0.19352 0.1554 0.72919 0.0
H3110 H 0.25434 0.15888 0.73005 0.0
H3111 H 0.16154 0.12795 0.71301 0.0
H3112 H 0.1656 0.15489 0.77145 0.0
H3113 H 0.18546 0.15953 0.80306 0.0
H3114 H 0.15264 0.11177 0.81866 0.0
H3115 H 0.13301 0.10675 0.78705 0.0
C3116 C 1.00099 0.12438 0.72242 0.0
C3117 C 0.98476 0.11235 0.73289 0.0
C3118 C 0.03527 0.12651 0.7236 0.0
C3119 C 0.05446 0.11654 0.73506 0.0
C3120 C 0.0386 0.10412 0.7451 0.0
C3121 C 0.00404 0.10198 0.74396 0.0
C3122 C 0.09065 0.11986 0.73726 0.0
C3123 C 0.10327 0.12255 0.75499 0.0
C3124 C 0.11203 0.12179 0.72193 0.0
C3125 C 0.10111 0.11789 0.70294 0.0
C3126 C 0.08705 0.10264 0.69888 0.0
C3127 C 0.07689 0.09899 0.68099 0.0
C3128 C 0.08075 0.11048 0.66699 0.0
C3129 C 0.09489 0.12562 0.67086 0.0
C3130 C 0.10515 0.12932 0.68874 0.0
C3131 C 0.24804 0.1234 0.75408 0.0
C3132 C 0.26322 0.13677 0.74545 0.0
C3133 C 0.21363 0.12149 0.75372 0.0
C3134 C 0.19362 0.13283 0.74455 0.0
C3135 C 0.20857 0.14653 0.73639 0.0
C3136 C 0.24318 0.14859 0.73701 0.0
C3137 C 0.15752 0.12957 0.74244 0.0
C3138 C 0.14499 0.12684 0.72472 0.0
C3139 C 0.1364 0.12738 0.75779 0.0
C3140 C 0.14809 0.13039 0.77683 0.0
C3141 C 0.16287 0.14532 0.78158 0.0
C3142 C 0.17403 0.14803 0.79951 0.0
C3143 C 0.17039 0.13594 0.81285 0.0
C3144 C 0.15548 0.12113 0.8083 0.0
C3145 C 0.14429 0.11835 0.79039 0.0
H3146 H 0.17905 0.13807 0.82672 0.0
H3147 H 0.07284 0.10763 0.65315 0.0
H3148 H 0.49701 0.15295 0.97598 0.0
H3149 H 0.5571 0.14773 0.97402 0.0
H3150 H 0.55844 0.13463 0.0314 0.0
H3151 H 0.49852 0.13938 0.03326 0.0
H3152 H 0.61491 0.15429 0.01837 0.0
H3153 H 0.55093 0.10553 0.00399 0.0
H3154 H 0.50872 0.09045 0.9863 0.0
H3155 H 0.56198 0.10013 0.93635 0.0
H3156 H 0.60426 0.1155 0.95375 0.0
H3157 H 0.76141 0.11152 0.03101 0.0
H3158 H 0.70186 0.11735 0.0306 0.0
H3159 H 0.70237 0.11489 0.97134 0.0
H3160 H 0.76172 0.10809 0.97191 0.0
H3161 H 0.64519 0.10495 0.98277 0.0
H3162 H 0.71199 0.15122 -0.00394 0.0
H3163 H 0.75398 0.16768 0.01226 0.0
H3164 H 0.69606 0.16543 0.06174 0.0
H3165 H 0.65422 0.14854 0.046 0.0
C3166 C 0.51041 0.14947 0.98827 0.0
C3167 C 0.49333 0.14664 0.00479 0.0
C3168 C 0.54458 0.14635 0.98711 0.0
C3169 C 0.56206 0.14067 0.00254 0.0
C3170 C 0.5454 0.13901 0.01936 0.0
C3171 C 0.51125 0.14177 0.02041 0.0
C3172 C 0.59695 0.13509 0.00099 0.0
C3173 C 0.62163 0.14346 0.0107 0.0
C3174 C 0.60567 0.12122 0.99054 0.0
C3175 C 0.58051 0.11182 0.98013 0.0
C3176 C 0.55348 0.10456 0.98922 0.0
C3177 C 0.52957 0.09594 0.97925 0.0
C3178 C 0.53261 0.09438 0.9602 0.0
C3179 C 0.55963 0.10138 0.9511 0.0
C3180 C 0.58357 0.11004 0.96101 0.0
C3181 C 0.74842 0.11162 0.01798 0.0
C3182 C 0.76591 0.10926 0.00151 0.0
C3183 C 0.71454 0.1152 0.0177 0.0
C3184 C 0.69779 0.11717 0.0009 0.0
C3185 C 0.71474 0.1136 0.98447 0.0
C3186 C 0.74858 0.10959 0.98479 0.0
C3187 C 0.66349 0.12399 0.00048 0.0
C3188 C 0.63881 0.11587 0.99036 0.0
C3189 C 0.65488 0.13831 0.01033 0.0
C3190 C 0.6801 0.14846 0.01987 0.0
C3191 C 0.70836 0.15409 0.01044 0.0
C3192 C 0.73216 0.16349 0.01956 0.0
C3193 C 0.72775 0.16755 0.03804 0.0
C3194 C 0.69948 0.16225 0.04743 0.0
C3195 C 0.67576 0.15272 0.03844 0.0
H3196 H 0.7462 0.17483 0.04507 0.0
H3197 H 0.51408 0.0877 0.9525 0.0
H3198 H 0.27103 0.59691 0.98251 0.0
H3199 H 0.21085 0.60106 0.97954 0.0
H3200 H 0.21685 0.64239 0.01595 0.0
H3201 H 0.27603 0.63803 0.01949 0.0
H3202 H 0.16518 0.62626 0.02447 0.0
H3203 H 0.20882 0.6466 0.96722 0.0
H3204 H 0.2391 0.64601 0.93775 0.0
H3205 H 0.17948 0.60575 0.91967 0.0
H3206 H 0.1487 0.60617 0.94901 0.0
H3207 H 0.00736 0.66161 0.00478 0.0
H3208 H 0.06828 0.65867 0.00453 0.0
H3209 H 0.05865 0.61255 0.97674 0.0
H3210 H 0.99831 0.61534 0.97714 0.0
H3211 H 0.11151 0.63124 0.96338 0.0
H3212 H 0.0667 0.61239 0.02129 0.0
H3213 H 0.03453 0.61539 0.04993 0.0
H3214 H 0.09739 0.65493 0.06662 0.0
H3215 H 0.12963 0.65233 0.03792 0.0
C3216 C 0.2594 0.60674 0.99005 0.0
C3217 C 0.27851 0.61716 0.00115 0.0
C3218 C 0.22504 0.60923 0.98817 0.0
C3219 C 0.20926 0.62224 -0.00272 0.0
C3220 C 0.22827 0.63231 0.00873 0.0
C3221 C 0.26231 0.6298 0.01067 0.0
C3222 C 0.17302 0.6255 -0.00485 0.0
C3223 C 0.15365 0.62755 0.01107 0.0
C3224 C 0.15758 0.62696 0.97773 0.0
C3225 C 0.17671 0.62632 0.96036 0.0
C3226 C 0.20237 0.63754 0.95701 0.0
C3227 C 0.21949 0.63728 0.9403 0.0
C3228 C 0.21124 0.62584 0.92686 0.0
C3229 C 0.18583 0.61461 0.9301 0.0
C3230 C 0.16847 0.61489 0.94673 0.0
C3231 C 0.0184 0.65106 -0.00171 0.0
C3232 C 0.99823 0.63865 0.9911 0.0
C3233 C 0.05309 0.64933 -0.00176 0.0
C3234 C 0.06793 0.63529 0.99078 0.0
C3235 C 0.04778 0.62344 0.98258 0.0
C3236 C 0.01331 0.62504 0.98288 0.0
C3237 C 0.10411 0.63219 0.99264 0.0
C3238 C 0.12328 0.63005 0.97672 0.0
C3239 C 0.11949 0.63082 0.01004 0.0
C3240 C 0.10033 0.63229 0.02737 0.0
C3241 C 0.07349 0.62181 0.031 0.0
C3242 C 0.05527 0.62342 0.04725 0.0
C3243 C 0.06385 0.63537 0.06006 0.0
C3244 C 0.09073 0.6457 0.05667 0.0
C3245 C 0.109 0.64416 0.04041 0.0
H3246 H 0.04971 0.6366 0.07264 0.0
H3247 H 0.22452 0.62567 0.91393 0.0
H3248 H 0.51378 0.90765 0.7454 0.0
H3249 H 0.45307 0.90412 0.74457 0.0
H3250 H 0.46331 0.85644 0.76856 0.0
H3251 H 0.52306 0.85984 0.76979 0.0
H3252 H 0.4238 0.85671 0.73672 0.0
H3253 H 0.43465 0.8849 0.79462 0.0
H3254 H 0.45228 0.90739 0.8148 0.0
H3255 H 0.39507 0.9411 0.78273 0.0
H3256 H 0.37721 0.91879 0.76227 0.0
H3257 H 0.25364 0.83761 0.75733 0.0
H3258 H 0.31417 0.84171 0.75827 0.0
H3259 H 0.30068 0.89224 0.74399 0.0
H3260 H 0.24097 0.88837 0.74354 0.0
H3261 H 0.34252 0.89071 0.77056 0.0
H3262 H 0.3303 0.86294 0.71289 0.0
H3263 H 0.31276 0.84078 0.6922 0.0
H3264 H 0.37289 0.80691 0.72236 0.0
H3265 H 0.39046 0.82884 0.74339 0.0
C3266 C 0.50305 0.89652 0.75072 0.0
C3267 C 0.52352 0.88402 0.75752 0.0
C3268 C 0.46839 0.8945 0.75018 0.0
C3269 C 0.45377 0.87992 0.75634 0.0
C3270 C 0.47406 0.86769 0.76355 0.0
C3271 C 0.50837 0.86974 0.76428 0.0
C3272 C 0.41743 0.87706 0.75503 0.0
C3273 C 0.40597 0.86406 0.74422 0.0
C3274 C 0.39423 0.8868 0.76455 0.0
C3275 C 0.40491 0.90022 0.7768 0.0
C3276 C 0.42607 0.89714 0.79178 0.0
C3277 C 0.43605 0.90984 0.80328 0.0
C3278 C 0.42496 0.92568 0.8 0.0
C3279 C 0.40371 0.92883 0.78524 0.0
C3280 C 0.39359 0.91616 0.7737 0.0
C3281 C 0.26372 0.84953 0.75427 0.0
C3282 C 0.24245 0.86267 0.75053 0.0
C3283 C 0.29829 0.85188 0.75477 0.0
C3284 C 0.31211 0.86732 0.75118 0.0
C3285 C 0.29079 0.88027 0.74701 0.0
C3286 C 0.25652 0.878 0.74673 0.0
C3287 C 0.3486 0.87034 0.75213 0.0
C3288 C 0.36018 0.88337 0.76294 0.0
C3289 C 0.37189 0.86069 0.74246 0.0
C3290 C 0.36141 0.84749 0.72983 0.0
C3291 C 0.33958 0.85074 0.71519 0.0
C3292 C 0.32967 0.83823 0.70339 0.0
C3293 C 0.34163 0.82244 0.70599 0.0
C3294 C 0.3636 0.81914 0.72038 0.0
C3295 C 0.37356 0.8316 0.73224 0.0
H3296 H 0.33393 0.81277 0.69684 0.0
H3297 H 0.43274 0.93551 0.80892 0.0
H3298 H 0.74406 0.34232 0.73344 0.0
H3299 H 0.80419 0.34659 0.72978 0.0
H3300 H 0.79479 0.39461 0.75308 0.0
H3301 H 0.7356 0.39059 0.75676 0.0
H3302 H 0.83264 0.39528 0.7225 0.0
H3303 H 0.8251 0.3636 0.77829 0.0
H3304 H 0.80898 0.33981 0.79692 0.0
H3305 H 0.86629 0.3086 0.7618 0.0
H3306 H 0.88239 0.33219 0.7428 0.0
H3307 H 1.00181 0.41456 0.7455 0.0
H3308 H 0.94145 0.4099 0.74462 0.0
H3309 H 0.95815 0.36075 0.72589 0.0
H3310 H 0.01783 0.36519 0.72727 0.0
H3311 H 0.91627 0.35995 0.75259 0.0
H3312 H 0.92621 0.39164 0.69748 0.0
H3313 H 0.94235 0.41535 0.67871 0.0
H3314 H 0.88081 0.44632 0.71186 0.0
H3315 H 0.86463 0.42282 0.73098 0.0
C3316 C 0.75486 0.35375 0.73784 0.0
C3317 C 0.73477 0.36607 0.74537 0.0
C3318 C 0.78921 0.35618 0.73573 0.0
C3319 C 0.80399 0.37097 0.74112 0.0
C3320 C 0.78399 0.38317 0.74868 0.0
C3321 C 0.74998 0.38076 0.75084 0.0
C3322 C 0.84028 0.37394 0.73916 0.0
C3323 C 0.85096 0.38761 0.72916 0.0
C3324 C 0.86422 0.3638 0.74757 0.0
C3325 C 0.85462 0.34963 0.759 0.0
C3326 C 0.83403 0.35164 0.77445 0.0
C3327 C 0.82494 0.3382 0.78509 0.0
C3328 C 0.83652 0.32269 0.78051 0.0
C3329 C 0.85729 0.32061 0.76531 0.0
C3330 C 0.86641 0.33401 0.7546 0.0
C3331 C 0.99245 0.40289 0.74091 0.0
C3332 C 0.0145 0.39022 0.73659 0.0
C3333 C 0.95799 0.40021 0.74041 0.0
C3334 C 0.94512 0.38492 0.7352 0.0
C3335 C 0.9673 0.37257 0.73014 0.0
C3336 C 1.00148 0.37516 0.73088 0.0
C3337 C 0.90883 0.38134 0.73589 0.0
C3338 C 0.89809 0.36757 0.74574 0.0
C3339 C 0.88487 0.39136 0.72728 0.0
C3340 C 0.89446 0.4055 0.71577 0.0
C3341 C 0.91631 0.40353 0.70085 0.0
C3342 C 0.92543 0.41692 0.69013 0.0
C3343 C 0.91268 0.43233 0.69412 0.0
C3344 C 0.8907 0.43437 0.7088 0.0
C3345 C 0.88152 0.42102 0.71957 0.0
H3346 H 0.91977 0.44269 0.68581 0.0
H3347 H 0.82946 0.3123 0.78877 0.0
H3348 H 0.2455 0.36483 0.50566 0.0
H3349 H 0.30568 0.36111 0.5061 0.0
H3350 H 0.31783 0.40488 0.47409 0.0
H3351 H 0.2571 0.40877 0.47386 0.0
H3352 H 0.3495 0.37677 0.45923 0.0
H3353 H 0.34286 0.40517 0.51665 0.0
H3354 H 0.32055 0.41045 0.54762 0.0
H3355 H 0.35258 0.36315 0.56531 0.0
H3356 H 0.37452 0.35745 0.53432 0.0
H3357 H 0.52312 0.38201 0.46161 0.0
H3358 H 0.4635 0.38549 0.46334 0.0
H3359 H 0.45714 0.34628 0.50259 0.0
H3360 H 0.51789 0.3431 0.50148 0.0
H3361 H 0.42178 0.37147 0.51412 0.0
H3362 H 0.42811 0.34252 0.45763 0.0
H3363 H 0.44816 0.33588 0.42651 0.0
H3364 H 0.41498 0.38238 0.40693 0.0
H3365 H 0.39522 0.38944 0.438 0.0
C3366 C 0.26108 0.37388 0.4991 0.0
C3367 C 0.2468 0.38713 0.48979 0.0
C3368 C 0.29543 0.37173 0.49935 0.0
C3369 C 0.31623 0.38269 0.49012 0.0
C3370 C 0.30215 0.39629 0.48132 0.0
C3371 C 0.2676 0.3986 0.48133 0.0
C3372 C 0.35229 0.37915 0.48863 0.0
C3373 C 0.36552 0.3759 0.47118 0.0
C3374 C 0.37269 0.3773 0.50432 0.0
C3375 C 0.36009 0.38082 0.52309 0.0
C3376 C 0.34493 0.39584 0.52709 0.0
C3377 C 0.33237 0.39891 0.54466 0.0
C3378 C 0.33508 0.38713 0.55841 0.0
C3379 C 0.35047 0.37226 0.55464 0.0
C3380 C 0.36299 0.3691 0.53707 0.0
C3381 C 0.50918 0.37393 0.47049 0.0
C3382 C 0.52545 0.3623 0.4815 0.0
C3383 C 0.47487 0.37589 0.47136 0.0
C3384 C 0.45561 0.36607 0.48296 0.0
C3385 C 0.47149 0.35401 0.49351 0.0
C3386 C 0.50615 0.35208 0.49274 0.0
C3387 C 0.41927 0.36922 0.48464 0.0
C3388 C 0.40588 0.37234 0.50213 0.0
C3389 C 0.39856 0.37077 0.46897 0.0
C3390 C 0.41037 0.36656 0.45021 0.0
C3391 C 0.42529 0.35139 0.44673 0.0
C3392 C 0.43655 0.34753 0.42908 0.0
C3393 C 0.43282 0.3587 0.41475 0.0
C3394 C 0.41778 0.37373 0.41804 0.0
C3395 C 0.40654 0.37767 0.43566 0.0
H3396 H 0.44164 0.35571 0.40112 0.0
H3397 H 0.3253 0.38953 0.572 0.0
H3398 H 0.01793 0.88801 0.50179 0.0
H3399 H 0.9579 0.89112 0.50226 0.0
H3400 H 0.94632 0.84084 0.48652 0.0
H3401 H 0.00716 0.83763 0.48592 0.0
H3402 H 0.9101 0.86217 0.4647 0.0
H3403 H 0.92504 0.85282 0.52921 0.0
H3404 H 0.9503 0.85709 0.55969 0.0
H3405 H 0.91808 0.90689 0.55933 0.0
H3406 H 0.89302 0.90299 0.52873 0.0
H3407 H 0.73666 0.86075 0.47372 0.0
H3408 H 0.79595 0.85647 0.47566 0.0
H3409 H 0.80858 0.90461 0.49825 0.0
H3410 H 0.7482 0.90885 0.49703 0.0
H3411 H 0.84451 0.88385 0.51697 0.0
H3412 H 0.83255 0.89454 0.4528 0.0
H3413 H 0.80953 0.89181 0.42155 0.0
H3414 H 0.83763 0.84144 0.42046 0.0
H3415 H 0.86064 0.84383 0.45177 0.0
C3416 C 0.0027 0.87751 0.49864 0.0
C3417 C 0.01733 0.86257 0.49373 0.0
C3418 C 0.9683 0.8793 0.49902 0.0
C3419 C 0.94756 0.86621 0.49452 0.0
C3420 C 0.96193 0.8511 0.49009 0.0
C3421 C 0.99661 0.84923 0.48987 0.0
C3422 C 0.91109 0.86884 0.49328 0.0
C3423 C 0.89556 0.86659 0.47622 0.0
C3424 C 0.8925 0.87529 0.50811 0.0
C3425 C 0.90735 0.87763 0.5266 0.0
C3426 C 0.92354 0.86471 0.53557 0.0
C3427 C 0.93779 0.86707 0.55288 0.0
C3428 C 0.93585 0.88226 0.56143 0.0
C3429 C 0.91958 0.89513 0.5527 0.0
C3430 C 0.9053 0.89284 0.53537 0.0
C3431 C 0.75181 0.87056 0.47904 0.0
C3432 C 0.73738 0.88519 0.48528 0.0
C3433 C 0.78599 0.86809 0.47999 0.0
C3434 C 0.80699 0.88027 0.48683 0.0
C3435 C 0.7929 0.89502 0.49286 0.0
C3436 C 0.75839 0.89747 0.49207 0.0
C3437 C 0.84337 0.87716 0.48835 0.0
C3438 C 0.85893 0.87936 0.50544 0.0
C3439 C 0.86215 0.87087 0.47347 0.0
C3440 C 0.84811 0.86934 0.45469 0.0
C3441 C 0.83364 0.88286 0.44595 0.0
C3442 C 0.8207 0.88138 0.4282 0.0
C3443 C 0.82216 0.86647 0.41902 0.0
C3444 C 0.83658 0.85299 0.42757 0.0
C3445 C 0.84964 0.85441 0.4453 0.0
H3446 H 0.81204 0.86535 0.4053 0.0
H3447 H 0.94691 0.88406 0.57483 0.0
H3448 H 0.48207 0.09445 0.25443 0.0
H3449 H 0.54275 0.09724 0.25659 0.0
H3450 H 0.53607 0.1459 0.23468 0.0
H3451 H 0.47645 0.14316 0.23208 0.0
H3452 H 0.58385 0.13077 0.21829 0.0
H3453 H 0.55179 0.13884 0.28134 0.0
H3454 H 0.52589 0.13234 0.31117 0.0
H3455 H 0.5836 0.08853 0.3147 0.0
H3456 H 0.61001 0.09483 0.28491 0.0
H3457 H 0.74876 0.1576 0.23815 0.0
H3458 H 0.6878 0.15585 0.24025 0.0
H3459 H 0.69541 0.10521 0.25523 0.0
H3460 H 0.75568 0.10683 0.2531 0.0
H3461 H 0.64766 0.12146 0.27562 0.0
H3462 H 0.68034 0.11457 0.21213 0.0
H3463 H 0.70798 0.12281 0.18335 0.0
H3464 H 0.64817 0.16602 0.1812 0.0
H3465 H 0.62051 0.15814 0.21013 0.0
C3466 C 0.4936 0.1057 0.25002 0.0
C3467 C 0.47419 0.11852 0.24303 0.0
C3468 C 0.52826 0.10734 0.25139 0.0
C3469 C 0.54403 0.12185 0.2459 0.0
C3470 C 0.52463 0.13457 0.23894 0.0
C3471 C 0.49031 0.13295 0.23751 0.0
C3472 C 0.58074 0.12389 0.24685 0.0
C3473 C 0.59766 0.12891 0.23092 0.0
C3474 C 0.59902 0.12127 0.2632 0.0
C3475 C 0.58259 0.11722 0.28083 0.0
C3476 C 0.55873 0.12775 0.28841 0.0
C3477 C 0.54406 0.12414 0.30533 0.0
C3478 C 0.553 0.11 0.31479 0.0
C3479 C 0.57669 0.09947 0.30735 0.0
C3480 C 0.59159 0.10308 0.29048 0.0
C3481 C 0.73736 0.1462 0.24215 0.0
C3482 C 0.75695 0.13233 0.24526 0.0
C3483 C 0.70261 0.14518 0.24328 0.0
C3484 C 0.68711 0.13034 0.24774 0.0
C3485 C 0.7068 0.11676 0.25175 0.0
C3486 C 0.74126 0.11771 0.25041 0.0
C3487 C 0.65045 0.12848 0.24716 0.0
C3488 C 0.63367 0.12338 0.26307 0.0
C3489 C 0.6322 0.13118 0.23085 0.0
C3490 C 0.64863 0.13586 0.21339 0.0
C3491 C 0.67328 0.12589 0.20559 0.0
C3492 C 0.68892 0.13049 0.18924 0.0
C3493 C 0.67991 0.14495 0.18048 0.0
C3494 C 0.65517 0.15483 0.18802 0.0
C3495 C 0.63949 0.15031 0.20439 0.0
H3496 H 0.69204 0.14849 0.16782 0.0
H3497 H 0.5416 0.10723 0.32789 0.0
H3498 H 0.9963 0.5889 0.24158 0.0
H3499 H 0.05658 0.59334 0.24379 0.0
H3500 H 0.04172 0.64491 0.23634 0.0
H3501 H 0.98253 0.64062 0.2336 0.0
H3502 H 0.09053 0.63633 0.21622 0.0
H3503 H 0.06157 0.62736 0.27971 0.0
H3504 H 0.03821 0.61256 0.30621 0.0
H3505 H 0.10241 0.57204 0.29512 0.0
H3506 H 0.12628 0.58663 0.26857 0.0
H3507 H 0.25539 0.66153 0.2418 0.0
H3508 H 0.19457 0.65821 0.24264 0.0
H3509 H 0.20634 0.60607 0.24355 0.0
H3510 H 0.26618 0.60918 0.24282 0.0
H3511 H 0.15931 0.61568 0.26768 0.0
H3512 H 0.1881 0.62554 0.204 0.0
H3513 H 0.2124 0.64134 0.17851 0.0
H3514 H 0.14759 0.68136 0.19087 0.0
H3515 H 0.12321 0.66586 0.2166 0.0
C3516 C 0.00596 0.60116 0.24041 0.0
C3517 C 0.98441 0.61434 0.23729 0.0
C3518 C 0.04041 0.60372 0.24178 0.0
C3519 C 0.05382 0.61952 0.24035 0.0
C3520 C 0.03222 0.63261 0.23737 0.0
C3521 C 0.99814 0.63007 0.23582 0.0
C3522 C 0.09025 0.62267 0.24154 0.0
C3523 C 0.1054 0.63197 0.22764 0.0
C3524 C 0.10998 0.61687 0.25625 0.0
C3525 C 0.09543 0.60801 0.27205 0.0
C3526 C 0.07051 0.61524 0.28284 0.0
C3527 C 0.05722 0.60691 0.29788 0.0
C3528 C 0.06864 0.59133 0.30227 0.0
C3529 C 0.09352 0.58409 0.29168 0.0
C3530 C 0.10702 0.5924 0.27666 0.0
C3531 C 0.24493 0.64939 0.2423 0.0
C3532 C 0.26573 0.63565 0.24202 0.0
C3533 C 0.21023 0.6475 0.24272 0.0
C3534 C 0.19591 0.63186 0.24302 0.0
C3535 C 0.21672 0.61823 0.24332 0.0
C3536 C 0.25108 0.62009 0.24276 0.0
C3537 C 0.15934 0.62936 0.24244 0.0
C3538 C 0.14425 0.62012 0.25638 0.0
C3539 C 0.13959 0.63534 0.22786 0.0
C3540 C 0.15411 0.64461 0.21234 0.0
C3541 C 0.17922 0.63775 0.20137 0.0
C3542 C 0.19297 0.64665 0.18686 0.0
C3543 C 0.18162 0.66237 0.18311 0.0
C3544 C 0.15641 0.6692 0.19382 0.0
C3545 C 0.14261 0.66036 0.20835 0.0
H3546 H 0.19229 0.66923 0.17187 0.0
H3547 H 0.05829 0.5849 0.31392 0.0
H3548 H 0.77035 0.63947 0.50329 0.0
H3549 H 0.71089 0.6426 0.50067 0.0
H3550 H 0.70108 0.59183 0.48672 0.0
H3551 H 0.76176 0.58858 0.48882 0.0
H3552 H 0.66175 0.61021 0.46524 0.0
H3553 H 0.67895 0.60617 0.5302 0.0
H3554 H 0.70347 0.61238 0.56046 0.0
H3555 H 0.67275 0.6622 0.55542 0.0
H3556 H 0.64816 0.65631 0.52509 0.0
H3557 H 0.4895 0.60566 0.48521 0.0
H3558 H 0.54952 0.60317 0.483 0.0
H3559 H 0.56003 0.65454 0.49363 0.0
H3560 H 0.49931 0.65714 0.49605 0.0
H3561 H 0.59882 0.63594 0.51616 0.0
H3562 H 0.57844 0.63909 0.45152 0.0
H3563 H 0.55093 0.63184 0.42238 0.0
H3564 H 0.58587 0.58271 0.42747 0.0
H3565 H 0.61335 0.5896 0.45675 0.0
C3566 C 0.75584 0.62883 0.49973 0.0
C3567 C 0.77113 0.61368 0.49641 0.0
C3568 C 0.72157 0.63068 0.49832 0.0
C3569 C 0.70128 0.61741 0.49386 0.0
C3570 C 0.71623 0.60225 0.49031 0.0
C3571 C 0.75089 0.60038 0.49158 0.0
C3572 C 0.66461 0.6197 0.49279 0.0
C3573 C 0.6479 0.6156 0.47648 0.0
C3574 C 0.64656 0.62715 0.50725 0.0
C3575 C 0.66191 0.63081 0.52532 0.0
C3576 C 0.67764 0.61847 0.53549 0.0
C3577 C 0.69142 0.62192 0.55268 0.0
C3578 C 0.6896 0.63766 0.55987 0.0
C3579 C 0.67406 0.65 0.54986 0.0
C3580 C 0.66013 0.64661 0.53269 0.0
C3581 C 0.50445 0.61652 0.48689 0.0
C3582 C 0.48959 0.6316 0.49098 0.0
C3583 C 0.53885 0.61507 0.48547 0.0
C3584 C 0.55934 0.62866 0.48805 0.0
C3585 C 0.54464 0.64389 0.49154 0.0
C3586 C 0.50999 0.64539 0.49284 0.0
C3587 C 0.59601 0.62653 0.48862 0.0
C3588 C 0.6127 0.63063 0.50488 0.0
C3589 C 0.61387 0.61898 0.47417 0.0
C3590 C 0.59776 0.61484 0.45642 0.0
C3591 C 0.58009 0.62671 0.4465 0.0
C3592 C 0.56451 0.62267 0.42995 0.0
C3593 C 0.56653 0.60682 0.42312 0.0
C3594 C 0.58429 0.59498 0.43278 0.0
C3595 C 0.59994 0.59896 0.44934 0.0
H3596 H 0.55441 0.60371 0.41031 0.0
H3597 H 0.70026 0.6403 0.57319 0.0
H3598 H 1.00013 0.11309 0.50467 0.0
H3599 H 0.05953 0.11001 0.50166 0.0
H3600 H 0.06854 0.16034 0.48571 0.0
H3601 H 0.00788 0.16358 0.48832 0.0
H3602 H 0.10767 0.14021 0.46444 0.0
H3603 H 0.09043 0.14878 0.52857 0.0
H3604 H 0.06432 0.14461 0.55885 0.0
H3605 H 0.09623 0.09476 0.55888 0.0
H3606 H 0.12212 0.09856 0.52846 0.0
H3607 H 0.28124 0.14343 0.48275 0.0
H3608 H 0.22131 0.14697 0.48085 0.0
H3609 H 0.20716 0.09658 0.49548 0.0
H3610 H 0.26776 0.09294 0.49748 0.0
H3611 H 0.17092 0.11759 0.5171 0.0
H3612 H 0.1895 0.10963 0.45278 0.0
H3613 H 0.21641 0.11446 0.42284 0.0
H3614 H 0.18323 0.16409 0.42357 0.0
H3615 H 0.15661 0.15965 0.45369 0.0
C3616 C 0.01443 0.12365 0.50058 0.0
C3617 C 0.99896 0.13869 0.49691 0.0
C3618 C 0.04863 0.12181 0.4989 0.0
C3619 C 0.06864 0.13498 0.49377 0.0
C3620 C 0.05353 0.15002 0.48979 0.0
C3621 C 0.01892 0.15188 0.49138 0.0
C3622 C 0.10525 0.13272 0.49276 0.0
C3623 C 0.12165 0.13554 0.47603 0.0
C3624 C 0.12335 0.12624 0.50777 0.0
C3625 C 0.10801 0.12393 0.52615 0.0
C3626 C 0.09168 0.13689 0.53497 0.0
C3627 C 0.07695 0.1346 0.55217 0.0
C3628 C 0.07856 0.11942 0.56077 0.0
C3629 C 0.09498 0.10651 0.5522 0.0
C3630 C 0.10973 0.10874 0.53499 0.0
C3631 C 0.26543 0.13301 0.48535 0.0
C3632 C 0.27917 0.11792 0.49042 0.0
C3633 C 0.23114 0.13505 0.48413 0.0
C3634 C 0.20972 0.12205 0.48797 0.0
C3635 C 0.22331 0.10677 0.49243 0.0
C3636 C 0.25785 0.10467 0.49348 0.0
C3637 C 0.17331 0.1249 0.48873 0.0
C3638 C 0.15697 0.12225 0.50548 0.0
C3639 C 0.15545 0.13165 0.47379 0.0
C3640 C 0.17124 0.13433 0.45558 0.0
C3641 C 0.18814 0.12161 0.44663 0.0
C3642 C 0.20329 0.12427 0.42961 0.0
C3643 C 0.20146 0.13956 0.42129 0.0
C3644 C 0.18454 0.15224 0.43001 0.0
C3645 C 0.1694 0.14966 0.44706 0.0
H3646 H 0.21323 0.1416 0.40812 0.0
H3647 H 0.06712 0.11767 0.57409 0.0
loop_
_geom_bond_atom_site_label_1
_geom_bond_atom_site_label_2
_geom_bond_distance
_geom_bond_site_symmetry_2
_ccdc_geom_bond_type
Co0 O1 2.216 . S
Co0 O2 2.091 . S
Co0 O4 2.004 . S
Co0 O10 2.021 . S
Co0 O12 2.137 . S
Co0 O13 2.244 . S
O1 Co0 2.216 . S
O1 C8 1.247 . S
O2 Co0 2.091 . S
O2 C8 1.261 . S
C3 O12 1.247 . S
C3 O13 1.272 . S
O4 Co0 2.004 . S
O4 C9 1.259 . S
Co5 O6 2.061 . S
Co5 O11 2.052 . S
Co5 O13 2.135 . S
O6 Co5 2.061 . S
O6 C9 1.235 . S
C7 O10 1.238 . S
C7 O11 1.241 . S
C8 O1 1.247 . S
C8 O2 1.261 . S
C9 O4 1.259 . S
C9 O6 1.235 . S
O10 Co0 2.021 . S
O10 C7 1.238 . S
O11 Co5 2.052 . S
O11 C7 1.241 . S
O12 Co0 2.137 . S
O12 C3 1.247 . S
O13 Co0 2.244 . S
O13 C3 1.272 . S
O13 Co5 2.135 . S
Co14 O15 2.216 . S
Co14 O16 2.091 . S
Co14 O18 2.004 . S
Co14 O24 2.021 . S
Co14 O26 2.137 . S
Co14 O27 2.244 . S
O15 Co14 2.216 . S
O15 C22 1.247 . S
O16 Co14 2.091 . S
O16 C22 1.261 . S
C17 O26 1.247 . S
C17 O27 1.272 . S
O18 Co14 2.004 . S
O18 C23 1.259 . S
Co19 O20 2.061 . S
Co19 O25 2.052 . S
Co19 O27 2.135 . S
O20 Co19 2.061 . S
O20 C23 1.235 . S
C21 O24 1.238 . S
C21 O25 1.241 . S
C22 O15 1.247 . S
C22 O16 1.261 . S
C23 O18 1.259 . S
C23 O20 1.235 . S
O24 Co14 2.021 . S
O24 C21 1.238 . S
O25 Co19 2.052 . S
O25 C21 1.241 . S
O26 Co14 2.137 . S
O26 C17 1.247 . S
O27 Co14 2.244 . S
O27 C17 1.272 . S
O27 Co19 2.135 . S
Co28 O29 2.216 . S
Co28 O30 2.091 . S
Co28 O32 2.004 . S
Co28 O38 2.021 1_556 S
Co28 O40 2.137 . S
Co28 O41 2.244 . S
O29 Co28 2.216 . S
O29 C36 1.247 . S
O30 Co28 2.091 . S
O30 C36 1.261 . S
C31 O40 1.247 . S
C31 O41 1.272 . S
O32 Co28 2.004 . S
O32 C37 1.264 . S
Co33 O34 2.061 . S
Co33 O39 2.052 . S
Co33 O41 2.135 1_554 S
O34 Co33 2.061 . S
O34 C37 1.231 1_554 S
C35 O38 1.238 . S
C35 O39 1.241 . S
C36 O29 1.247 . S
C36 O30 1.261 . S
C37 O32 1.264 . S
C37 O34 1.231 1_556 S
O38 Co28 2.021 1_554 S
O38 C35 1.238 . S
O39 Co33 2.052 . S
O39 C35 1.241 . S
O40 Co28 2.137 . S
O40 C31 1.247 . S
O41 Co28 2.244 . S
O41 C31 1.272 . S
O41 Co33 2.135 1_556 S
Co42 O43 2.216 . S
Co42 O44 2.091 . S
Co42 O46 2.004 . S
Co42 O52 2.021 1_556 S
Co42 O54 2.137 . S
Co42 O55 2.244 . S
O43 Co42 2.216 . S
O43 C50 1.247 . S
O44 Co42 2.091 . S
O44 C50 1.261 . S
C45 O54 1.247 . S
C45 O55 1.272 . S
O46 Co42 2.004 . S
O46 C51 1.264 . S
Co47 O48 2.061 . S
Co47 O53 2.052 . S
Co47 O55 2.135 1_554 S
O48 Co47 2.061 . S
O48 C51 1.231 1_554 S
C49 O52 1.238 . S
C49 O53 1.241 . S
C50 O43 1.247 . S
C50 O44 1.261 . S
C51 O46 1.264 . S
C51 O48 1.231 1_556 S
O52 Co42 2.021 1_554 S
O52 C49 1.238 . S
O53 Co47 2.052 . S
O53 C49 1.241 . S
O54 Co42 2.137 . S
O54 C45 1.247 . S
O55 Co42 2.244 . S
O55 C45 1.272 . S
O55 Co47 2.135 1_556 S
Co56 O57 2.216 . S
Co56 O58 2.091 . S
Co56 O60 2.004 . S
Co56 O66 2.021 . S
Co56 O68 2.137 . S
Co56 O69 2.244 . S
O57 Co56 2.216 . S
O57 C64 1.247 . S
O58 Co56 2.091 . S
O58 C64 1.261 . S
C59 O68 1.247 . S
C59 O69 1.272 . S
O60 Co56 2.004 . S
O60 C65 1.259 . S
Co61 O62 2.061 . S
Co61 O67 2.052 . S
Co61 O69 2.135 . S
O62 Co61 2.061 . S
O62 C65 1.235 . S
C63 O66 1.238 . S
C63 O67 1.241 . S
C64 O57 1.247 . S
C64 O58 1.261 . S
C65 O60 1.259 . S
C65 O62 1.235 . S
O66 Co56 2.021 . S
O66 C63 1.238 . S
O67 Co61 2.052 . S
O67 C63 1.241 . S
O68 Co56 2.137 . S
O68 C59 1.247 . S
O69 Co56 2.244 . S
O69 C59 1.272 . S
O69 Co61 2.135 . S
Co70 O71 2.216 . S
Co70 O72 2.091 . S
Co70 O74 2.004 . S
Co70 O80 2.021 . S
Co70 O82 2.137 . S
Co70 O83 2.244 . S
O71 Co70 2.216 . S
O71 C78 1.247 . S
O72 Co70 2.091 . S
O72 C78 1.261 . S
C73 O82 1.247 . S
C73 O83 1.272 . S
O74 Co70 2.004 . S
O74 C79 1.259 . S
Co75 O76 2.061 . S
Co75 O81 2.052 . S
Co75 O83 2.135 . S
O76 Co75 2.061 . S
O76 C79 1.235 . S
C77 O80 1.238 . S
C77 O81 1.241 . S
C78 O71 1.247 . S
C78 O72 1.261 . S
C79 O74 1.259 . S
C79 O76 1.235 . S
O80 Co70 2.021 . S
O80 C77 1.238 . S
O81 Co75 2.052 . S
O81 C77 1.241 . S
O82 Co70 2.137 . S
O82 C73 1.247 . S
O83 Co70 2.244 . S
O83 C73 1.272 . S
O83 Co75 2.135 . S
Co84 O85 2.216 . S
Co84 O86 2.091 . S
Co84 O88 2.004 . S
Co84 O94 2.021 1_554 S
Co84 O96 2.137 . S
Co84 O97 2.244 . S
O85 Co84 2.216 . S
O85 C92 1.247 . S
O86 Co84 2.091 . S
O86 C92 1.261 . S
C87 O96 1.247 . S
C87 O97 1.272 . S
O88 Co84 2.004 . S
O88 C93 1.264 . S
Co89 O90 2.061 . S
Co89 O95 2.052 . S
Co89 O97 2.135 1_556 S
O90 Co89 2.061 . S
O90 C93 1.231 1_556 S
C91 O94 1.238 . S
C91 O95 1.241 . S
C92 O85 1.247 . S
C92 O86 1.261 . S
C93 O88 1.264 . S
C93 O90 1.231 1_554 S
O94 Co84 2.021 1_556 S
O94 C91 1.238 . S
O95 Co89 2.052 . S
O95 C91 1.241 . S
O96 Co84 2.137 . S
O96 C87 1.247 . S
O97 Co84 2.244 . S
O97 C87 1.272 . S
O97 Co89 2.135 1_554 S
Co98 O99 2.216 . S
Co98 O100 2.091 . S
Co98 O102 2.004 . S
Co98 O108 2.021 1_554 S
Co98 O110 2.137 . S
Co98 O111 2.244 . S
O99 Co98 2.216 . S
O99 C106 1.247 . S
O100 Co98 2.091 . S
O100 C106 1.261 . S
C101 O110 1.247 . S
C101 O111 1.272 . S
O102 Co98 2.004 . S
O102 C107 1.264 . S
Co103 O104 2.061 . S
Co103 O109 2.052 . S
Co103 O111 2.135 1_556 S
O104 Co103 2.061 . S
O104 C107 1.231 1_556 S
C105 O108 1.238 . S
C105 O109 1.241 . S
C106 O99 1.247 . S
C106 O100 1.261 . S
C107 O102 1.264 . S
C107 O104 1.231 1_554 S
O108 Co98 2.021 1_556 S
O108 C105 1.238 . S
O109 Co103 2.052 . S
O109 C105 1.241 . S
O110 Co98 2.137 . S
O110 C101 1.247 . S
O111 Co98 2.244 . S
O111 C101 1.272 . S
O111 Co103 2.135 1_554 S
Co112 O113 2.216 . S
Co112 O114 2.091 . S
Co112 O116 2.004 . S
Co112 O122 2.021 . S
Co112 O124 2.137 . S
Co112 O125 2.244 . S
O113 Co112 2.216 . S
O113 C120 1.247 . S
O114 Co112 2.091 . S
O114 C120 1.261 . S
C115 O124 1.247 . S
C115 O125 1.272 . S
O116 Co112 2.004 . S
O116 C121 1.259 . S
Co117 O118 2.061 . S
Co117 O123 2.052 . S
Co117 O125 2.135 . S
O118 Co117 2.061 . S
O118 C121 1.235 . S
C119 O122 1.238 . S
C119 O123 1.241 . S
C120 O113 1.247 . S
C120 O114 1.261 . S
C121 O116 1.259 . S
C121 O118 1.235 . S
O122 Co112 2.021 . S
O122 C119 1.238 . S
O123 Co117 2.052 . S
O123 C119 1.241 . S
O124 Co112 2.137 . S
O124 C115 1.247 . S
O125 Co112 2.244 . S
O125 C115 1.272 . S
O125 Co117 2.135 . S
Co126 O127 2.216 . S
Co126 O128 2.091 . S
Co126 O130 2.004 . S
Co126 O136 2.021 . S
Co126 O138 2.137 . S
Co126 O139 2.244 . S
O127 Co126 2.216 . S
O127 C134 1.247 . S
O128 Co126 2.091 . S
O128 C134 1.261 . S
C129 O138 1.247 . S
C129 O139 1.272 . S
O130 Co126 2.004 . S
O130 C135 1.259 . S
Co131 O132 2.061 . S
Co131 O137 2.052 . S
Co131 O139 2.135 . S
O132 Co131 2.061 . S
O132 C135 1.235 . S
C133 O136 1.238 . S
C133 O137 1.241 . S
C134 O127 1.247 . S
C134 O128 1.261 . S
C135 O130 1.259 . S
C135 O132 1.235 . S
O136 Co126 2.021 . S
O136 C133 1.238 . S
O137 Co131 2.052 . S
O137 C133 1.241 . S
O138 Co126 2.137 . S
O138 C129 1.247 . S
O139 Co126 2.244 . S
O139 C129 1.272 . S
O139 Co131 2.135 . S
Co140 O141 2.216 . S
Co140 O142 2.091 . S
Co140 O144 2.004 . S
Co140 O150 2.021 . S
Co140 O152 2.137 . S
Co140 O153 2.244 . S
O141 Co140 2.216 . S
O141 C148 1.247 . S
O142 Co140 2.091 . S
O142 C148 1.261 . S
C143 O152 1.247 . S
C143 O153 1.272 . S
O144 Co140 2.004 . S
O144 C149 1.259 . S
Co145 O146 2.061 . S
Co145 O151 2.052 . S
Co145 O153 2.135 . S
O146 Co145 2.061 . S
O146 C149 1.235 . S
C147 O150 1.238 . S
C147 O151 1.241 . S
C148 O141 1.247 . S
C148 O142 1.261 . S
C149 O144 1.259 . S
C149 O146 1.235 . S
O150 Co140 2.021 . S
O150 C147 1.238 . S
O151 Co145 2.052 . S
O151 C147 1.241 . S
O152 Co140 2.137 . S
O152 C143 1.247 . S
O153 Co140 2.244 . S
O153 C143 1.272 . S
O153 Co145 2.135 . S
Co154 O155 2.216 . S
Co154 O156 2.091 . S
Co154 O158 2.004 . S
Co154 O164 2.021 . S
Co154 O166 2.137 . S
Co154 O167 2.244 . S
O155 Co154 2.216 . S
O155 C162 1.247 . S
O156 Co154 2.091 . S
O156 C162 1.261 . S
C157 O166 1.247 . S
C157 O167 1.272 . S
O158 Co154 2.004 . S
O158 C163 1.259 . S
Co159 O160 2.061 . S
Co159 O165 2.052 . S
Co159 O167 2.135 . S
O160 Co159 2.061 . S
O160 C163 1.235 . S
C161 O164 1.238 . S
C161 O165 1.241 . S
C162 O155 1.247 . S
C162 O156 1.261 . S
C163 O158 1.259 . S
C163 O160 1.235 . S
O164 Co154 2.021 . S
O164 C161 1.238 . S
O165 Co159 2.052 . S
O165 C161 1.241 . S
O166 Co154 2.137 . S
O166 C157 1.247 . S
O167 Co154 2.244 . S
O167 C157 1.272 . S
O167 Co159 2.135 . S
Co168 O169 2.216 . S
Co168 O170 2.091 . S
Co168 O172 2.004 . S
Co168 O178 2.021 . S
Co168 O180 2.137 . S
Co168 O181 2.244 . S
O169 Co168 2.216 . S
O169 C176 1.247 . S
O170 Co168 2.091 . S
O170 C176 1.261 . S
C171 O180 1.247 . S
C171 O181 1.272 . S
O172 Co168 2.004 . S
O172 C177 1.259 . S
Co173 O174 2.061 . S
Co173 O179 2.052 . S
Co173 O181 2.135 . S
O174 Co173 2.061 . S
O174 C177 1.235 . S
C175 O178 1.238 . S
C175 O179 1.241 . S
C176 O169 1.247 . S
C176 O170 1.261 . S
C177 O172 1.259 . S
C177 O174 1.235 . S
O178 Co168 2.021 . S
O178 C175 1.238 . S
O179 Co173 2.052 . S
O179 C175 1.241 . S
O180 Co168 2.137 . S
O180 C171 1.247 . S
O181 Co168 2.244 . S
O181 C171 1.272 . S
O181 Co173 2.135 . S
Co182 O183 2.216 . S
Co182 O184 2.091 . S
Co182 O186 2.004 . S
Co182 O192 2.021 . S
Co182 O194 2.137 . S
Co182 O195 2.244 . S
O183 Co182 2.216 . S
O183 C190 1.247 . S
O184 Co182 2.091 . S
O184 C190 1.261 . S
C185 O194 1.247 . S
C185 O195 1.272 . S
O186 Co182 2.004 . S
O186 C191 1.259 . S
Co187 O188 2.061 . S
Co187 O193 2.052 . S
Co187 O195 2.135 . S
O188 Co187 2.061 . S
O188 C191 1.235 . S
C189 O192 1.238 . S
C189 O193 1.241 . S
C190 O183 1.247 . S
C190 O184 1.261 . S
C191 O186 1.259 . S
C191 O188 1.235 . S
O192 Co182 2.021 . S
O192 C189 1.238 . S
O193 Co187 2.052 . S
O193 C189 1.241 . S
O194 Co182 2.137 . S
O194 C185 1.247 . S
O195 Co182 2.244 . S
O195 C185 1.272 . S
O195 Co187 2.135 . S
Co196 O197 2.216 . S
Co196 O198 2.091 . S
Co196 O200 2.004 . S
Co196 O206 2.021 . S
Co196 O208 2.137 . S
Co196 O209 2.244 . S
O197 Co196 2.216 . S
O197 C204 1.247 . S
O198 Co196 2.091 . S
O198 C204 1.261 . S
C199 O208 1.247 . S
C199 O209 1.272 . S
O200 Co196 2.004 . S
O200 C205 1.259 . S
Co201 O202 2.061 . S
Co201 O207 2.052 . S
Co201 O209 2.135 . S
O202 Co201 2.061 . S
O202 C205 1.235 . S
C203 O206 1.238 . S
C203 O207 1.241 . S
C204 O197 1.247 . S
C204 O198 1.261 . S
C205 O200 1.259 . S
C205 O202 1.235 . S
O206 Co196 2.021 . S
O206 C203 1.238 . S
O207 Co201 2.052 . S
O207 C203 1.241 . S
O208 Co196 2.137 . S
O208 C199 1.247 . S
O209 Co196 2.244 . S
O209 C199 1.272 . S
O209 Co201 2.135 . S
Co210 O211 2.216 . S
Co210 O212 2.091 . S
Co210 O214 2.004 . S
Co210 O220 2.021 . S
Co210 O222 2.137 . S
Co210 O223 2.244 . S
O211 Co210 2.216 . S
O211 C218 1.247 . S
O212 Co210 2.091 . S
O212 C218 1.261 . S
C213 O222 1.247 . S
C213 O223 1.272 . S
O214 Co210 2.004 . S
O214 C219 1.259 . S
Co215 O216 2.061 . S
Co215 O221 2.052 . S
Co215 O223 2.135 . S
O216 Co215 2.061 . S
O216 C219 1.235 . S
C217 O220 1.238 . S
C217 O221 1.241 . S
C218 O211 1.247 . S
C218 O212 1.261 . S
C219 O214 1.259 . S
C219 O216 1.235 . S
O220 Co210 2.021 . S
O220 C217 1.238 . S
O221 Co215 2.052 . S
O221 C217 1.241 . S
O222 Co210 2.137 . S
O222 C213 1.247 . S
O223 Co210 2.244 . S
O223 C213 1.272 . S
O223 Co215 2.135 . S
Co224 O225 2.216 . S
Co224 O226 2.091 . S
Co224 O228 2.004 . S
Co224 O234 2.021 . S
Co224 O236 2.137 . S
Co224 O237 2.244 . S
O225 Co224 2.216 . S
O225 C232 1.247 . S
O226 Co224 2.091 . S
O226 C232 1.261 . S
C227 O236 1.247 . S
C227 O237 1.272 . S
O228 Co224 2.004 . S
O228 C233 1.259 . S
Co229 O230 2.061 . S
Co229 O235 2.052 . S
Co229 O237 2.135 . S
O230 Co229 2.061 . S
O230 C233 1.235 . S
C231 O234 1.238 . S
C231 O235 1.241 . S
C232 O225 1.247 . S
C232 O226 1.261 . S
C233 O228 1.259 . S
C233 O230 1.235 . S
O234 Co224 2.021 . S
O234 C231 1.238 . S
O235 Co229 2.052 . S
O235 C231 1.241 . S
O236 Co224 2.137 . S
O236 C227 1.247 . S
O237 Co224 2.244 . S
O237 C227 1.272 . S
O237 Co229 2.135 . S
Co238 O239 2.216 . S
Co238 O240 2.091 . S
Co238 O242 2.004 . S
Co238 O248 2.021 . S
Co238 O250 2.137 . S
Co238 O251 2.244 . S
O239 Co238 2.216 . S
O239 C246 1.247 . S
O240 Co238 2.091 . S
O240 C246 1.261 . S
C241 O250 1.247 . S
C241 O251 1.272 . S
O242 Co238 2.004 . S
O242 C247 1.259 . S
Co243 O244 2.061 . S
Co243 O249 2.052 . S
Co243 O251 2.135 . S
O244 Co243 2.061 . S
O244 C247 1.235 . S
C245 O248 1.238 . S
C245 O249 1.241 . S
C246 O239 1.247 . S
C246 O240 1.261 . S
C247 O242 1.259 . S
C247 O244 1.235 . S
O248 Co238 2.021 . S
O248 C245 1.238 . S
O249 Co243 2.052 . S
O249 C245 1.241 . S
O250 Co238 2.137 . S
O250 C241 1.247 . S
O251 Co238 2.244 . S
O251 C241 1.272 . S
O251 Co243 2.135 . S
Co252 O253 2.216 . S
Co252 O254 2.091 . S
Co252 O256 2.004 . S
Co252 O262 2.021 . S
Co252 O264 2.137 . S
Co252 O265 2.244 . S
O253 Co252 2.216 . S
O253 C260 1.247 . S
O254 Co252 2.091 . S
O254 C260 1.261 . S
C255 O264 1.247 . S
C255 O265 1.272 . S
O256 Co252 2.004 . S
O256 C261 1.259 . S
Co257 O258 2.061 . S
Co257 O263 2.052 . S
Co257 O265 2.135 . S
O258 Co257 2.061 . S
O258 C261 1.235 . S
C259 O262 1.238 . S
C259 O263 1.241 . S
C260 O253 1.247 . S
C260 O254 1.261 . S
C261 O256 1.259 . S
C261 O258 1.235 . S
O262 Co252 2.021 . S
O262 C259 1.238 . S
O263 Co257 2.052 . S
O263 C259 1.241 . S
O264 Co252 2.137 . S
O264 C255 1.247 . S
O265 Co252 2.244 . S
O265 C255 1.272 . S
O265 Co257 2.135 . S
Co266 O267 2.216 . S
Co266 O268 2.091 . S
Co266 O270 2.004 . S
Co266 O276 2.021 . S
Co266 O278 2.137 . S
Co266 O279 2.244 . S
O267 Co266 2.216 . S
O267 C274 1.247 . S
O268 Co266 2.091 . S
O268 C274 1.261 . S
C269 O278 1.247 . S
C269 O279 1.272 . S
O270 Co266 2.004 . S
O270 C275 1.259 . S
Co271 O272 2.061 . S
Co271 O277 2.052 . S
Co271 O279 2.135 . S
O272 Co271 2.061 . S
O272 C275 1.235 . S
C273 O276 1.238 . S
C273 O277 1.241 . S
C274 O267 1.247 . S
C274 O268 1.261 . S
C275 O270 1.259 . S
C275 O272 1.235 . S
O276 Co266 2.021 . S
O276 C273 1.238 . S
O277 Co271 2.052 . S
O277 C273 1.241 . S
O278 Co266 2.137 . S
O278 C269 1.247 . S
O279 Co266 2.244 . S
O279 C269 1.272 . S
O279 Co271 2.135 . S
Co280 O281 2.216 . S
Co280 O282 2.091 . S
Co280 O284 2.004 . S
Co280 O290 2.021 . S
Co280 O292 2.137 . S
Co280 O293 2.244 . S
O281 Co280 2.216 . S
O281 C288 1.247 . S
O282 Co280 2.091 . S
O282 C288 1.261 . S
C283 O292 1.247 . S
C283 O293 1.272 . S
O284 Co280 2.004 . S
O284 C289 1.259 . S
Co285 O286 2.061 . S
Co285 O291 2.052 . S
Co285 O293 2.135 . S
O286 Co285 2.061 . S
O286 C289 1.235 . S
C287 O290 1.238 . S
C287 O291 1.241 . S
C288 O281 1.247 . S
C288 O282 1.261 . S
C289 O284 1.259 . S
C289 O286 1.235 . S
O290 Co280 2.021 . S
O290 C287 1.238 . S
O291 Co285 2.052 . S
O291 C287 1.241 . S
O292 Co280 2.137 . S
O292 C283 1.247 . S
O293 Co280 2.244 . S
O293 C283 1.272 . S
O293 Co285 2.135 . S
Co294 O295 2.216 . S
Co294 O296 2.091 . S
Co294 O298 2.004 . S
Co294 O304 2.021 . S
Co294 O306 2.137 . S
Co294 O307 2.244 . S
O295 Co294 2.216 . S
O295 C302 1.247 . S
O296 Co294 2.091 . S
O296 C302 1.261 . S
C297 O306 1.247 . S
C297 O307 1.272 . S
O298 Co294 2.004 . S
O298 C303 1.259 . S
Co299 O300 2.061 . S
Co299 O305 2.052 . S
Co299 O307 2.135 . S
O300 Co299 2.061 . S
O300 C303 1.235 . S
C301 O304 1.238 . S
C301 O305 1.241 . S
C302 O295 1.247 . S
C302 O296 1.261 . S
C303 O298 1.259 . S
C303 O300 1.235 . S
O304 Co294 2.021 . S
O304 C301 1.238 . S
O305 Co299 2.052 . S
O305 C301 1.241 . S
O306 Co294 2.137 . S
O306 C297 1.247 . S
O307 Co294 2.244 . S
O307 C297 1.272 . S
O307 Co299 2.135 . S
Co308 O309 2.216 . S
Co308 O310 2.091 . S
Co308 O312 2.004 . S
Co308 O318 2.021 . S
Co308 O320 2.137 . S
Co308 O321 2.244 . S
O309 Co308 2.216 . S
O309 C316 1.247 . S
O310 Co308 2.091 . S
O310 C316 1.261 . S
C311 O320 1.247 . S
C311 O321 1.272 . S
O312 Co308 2.004 . S
O312 C317 1.259 . S
Co313 O314 2.061 . S
Co313 O319 2.052 . S
Co313 O321 2.135 . S
O314 Co313 2.061 . S
O314 C317 1.235 . S
C315 O318 1.238 . S
C315 O319 1.241 . S
C316 O309 1.247 . S
C316 O310 1.261 . S
C317 O312 1.259 . S
C317 O314 1.235 . S
O318 Co308 2.021 . S
O318 C315 1.238 . S
O319 Co313 2.052 . S
O319 C315 1.241 . S
O320 Co308 2.137 . S
O320 C311 1.247 . S
O321 Co308 2.244 . S
O321 C311 1.272 . S
O321 Co313 2.135 . S
Co322 O323 2.216 . S
Co322 O324 2.091 . S
Co322 O326 2.004 . S
Co322 O332 2.021 . S
Co322 O334 2.137 . S
Co322 O335 2.244 . S
O323 Co322 2.216 . S
O323 C330 1.247 . S
O324 Co322 2.091 . S
O324 C330 1.261 . S
C325 O334 1.247 . S
C325 O335 1.272 . S
O326 Co322 2.004 . S
O326 C331 1.259 . S
Co327 O328 2.061 . S
Co327 O333 2.052 . S
Co327 O335 2.135 . S
O328 Co327 2.061 . S
O328 C331 1.235 . S
C329 O332 1.238 . S
C329 O333 1.241 . S
C330 O323 1.247 . S
C330 O324 1.261 . S
C331 O326 1.259 . S
C331 O328 1.235 . S
O332 Co322 2.021 . S
O332 C329 1.238 . S
O333 Co327 2.052 . S
O333 C329 1.241 . S
O334 Co322 2.137 . S
O334 C325 1.247 . S
O335 Co322 2.244 . S
O335 C325 1.272 . S
O335 Co327 2.135 . S
Co336 O337 2.216 . S
Co336 O338 2.091 . S
Co336 O340 2.004 . S
Co336 O346 2.021 . S
Co336 O348 2.137 . S
Co336 O349 2.244 . S
O337 Co336 2.216 . S
O337 C344 1.247 . S
O338 Co336 2.091 . S
O338 C344 1.261 . S
C339 O348 1.247 . S
C339 O349 1.272 . S
O340 Co336 2.004 . S
O340 C345 1.259 . S
Co341 O342 2.061 . S
Co341 O347 2.052 . S
Co341 O349 2.135 . S
O342 Co341 2.061 . S
O342 C345 1.235 . S
C343 O346 1.238 . S
C343 O347 1.241 . S
C344 O337 1.247 . S
C344 O338 1.261 . S
C345 O340 1.259 . S
C345 O342 1.235 . S
O346 Co336 2.021 . S
O346 C343 1.238 . S
O347 Co341 2.052 . S
O347 C343 1.241 . S
O348 Co336 2.137 . S
O348 C339 1.247 . S
O349 Co336 2.244 . S
O349 C339 1.272 . S
O349 Co341 2.135 . S
Co350 O351 2.216 . S
Co350 O352 2.091 . S
Co350 O354 2.004 . S
Co350 O360 2.021 . S
Co350 O362 2.137 . S
Co350 O363 2.244 . S
O351 Co350 2.216 . S
O351 C358 1.247 . S
O352 Co350 2.091 . S
O352 C358 1.261 . S
C353 O362 1.247 . S
C353 O363 1.272 . S
O354 Co350 2.004 . S
O354 C359 1.259 . S
Co355 O356 2.061 . S
Co355 O361 2.052 . S
Co355 O363 2.135 . S
O356 Co355 2.061 . S
O356 C359 1.235 . S
C357 O360 1.238 . S
C357 O361 1.241 . S
C358 O351 1.247 . S
C358 O352 1.261 . S
C359 O354 1.259 . S
C359 O356 1.235 . S
O360 Co350 2.021 . S
O360 C357 1.238 . S
O361 Co355 2.052 . S
O361 C357 1.241 . S
O362 Co350 2.137 . S
O362 C353 1.247 . S
O363 Co350 2.244 . S
O363 C353 1.272 . S
O363 Co355 2.135 . S
Co364 O365 2.216 . S
Co364 O366 2.091 . S
Co364 O368 2.004 . S
Co364 O374 2.021 1_556 S
Co364 O376 2.137 . S
Co364 O377 2.244 . S
O365 Co364 2.216 . S
O365 C372 1.247 . S
O366 Co364 2.091 . S
O366 C372 1.261 . S
C367 O376 1.247 . S
C367 O377 1.272 . S
O368 Co364 2.004 . S
O368 C373 1.264 . S
Co369 O370 2.061 . S
Co369 O375 2.052 . S
Co369 O377 2.135 1_554 S
O370 Co369 2.061 . S
O370 C373 1.231 1_554 S
C371 O374 1.238 . S
C371 O375 1.241 . S
C372 O365 1.247 . S
C372 O366 1.261 . S
C373 O368 1.264 . S
C373 O370 1.231 1_556 S
O374 Co364 2.021 1_554 S
O374 C371 1.238 . S
O375 Co369 2.052 . S
O375 C371 1.241 . S
O376 Co364 2.137 . S
O376 C367 1.247 . S
O377 Co364 2.244 . S
O377 C367 1.272 . S
O377 Co369 2.135 1_556 S
Co378 O379 2.216 . S
Co378 O380 2.091 . S
Co378 O382 2.004 . S
Co378 O388 2.021 1_556 S
Co378 O390 2.137 . S
Co378 O391 2.244 . S
O379 Co378 2.216 . S
O379 C386 1.247 . S
O380 Co378 2.091 . S
O380 C386 1.261 . S
C381 O390 1.247 . S
C381 O391 1.272 . S
O382 Co378 2.004 . S
O382 C387 1.264 . S
Co383 O384 2.061 . S
Co383 O389 2.052 . S
Co383 O391 2.135 1_554 S
O384 Co383 2.061 . S
O384 C387 1.231 1_554 S
C385 O388 1.238 . S
C385 O389 1.241 . S
C386 O379 1.247 . S
C386 O380 1.261 . S
C387 O382 1.264 . S
C387 O384 1.231 1_556 S
O388 Co378 2.021 1_554 S
O388 C385 1.238 . S
O389 Co383 2.052 . S
O389 C385 1.241 . S
O390 Co378 2.137 . S
O390 C381 1.247 . S
O391 Co378 2.244 . S
O391 C381 1.272 . S
O391 Co383 2.135 1_556 S
Co392 O393 2.216 . S
Co392 O394 2.091 . S
Co392 O396 2.004 . S
Co392 O402 2.021 . S
Co392 O404 2.137 . S
Co392 O405 2.244 . S
O393 Co392 2.216 . S
O393 C400 1.247 . S
O394 Co392 2.091 . S
O394 C400 1.261 . S
C395 O404 1.247 . S
C395 O405 1.272 . S
O396 Co392 2.004 . S
O396 C401 1.259 . S
Co397 O398 2.061 . S
Co397 O403 2.052 . S
Co397 O405 2.135 . S
O398 Co397 2.061 . S
O398 C401 1.235 . S
C399 O402 1.238 . S
C399 O403 1.241 . S
C400 O393 1.247 . S
C400 O394 1.261 . S
C401 O396 1.259 . S
C401 O398 1.235 . S
O402 Co392 2.021 . S
O402 C399 1.238 . S
O403 Co397 2.052 . S
O403 C399 1.241 . S
O404 Co392 2.137 . S
O404 C395 1.247 . S
O405 Co392 2.244 . S
O405 C395 1.272 . S
O405 Co397 2.135 . S
Co406 O407 2.216 . S
Co406 O408 2.091 . S
Co406 O410 2.004 . S
Co406 O416 2.021 . S
Co406 O418 2.137 . S
Co406 O419 2.244 . S
O407 Co406 2.216 . S
O407 C414 1.247 . S
O408 Co406 2.091 . S
O408 C414 1.261 . S
C409 O418 1.247 . S
C409 O419 1.272 . S
O410 Co406 2.004 . S
O410 C415 1.259 . S
Co411 O412 2.061 . S
Co411 O417 2.052 . S
Co411 O419 2.135 . S
O412 Co411 2.061 . S
O412 C415 1.235 . S
C413 O416 1.238 . S
C413 O417 1.241 . S
C414 O407 1.247 . S
C414 O408 1.261 . S
C415 O410 1.259 . S
C415 O412 1.235 . S
O416 Co406 2.021 . S
O416 C413 1.238 . S
O417 Co411 2.052 . S
O417 C413 1.241 . S
O418 Co406 2.137 . S
O418 C409 1.247 . S
O419 Co406 2.244 . S
O419 C409 1.272 . S
O419 Co411 2.135 . S
Co420 O421 2.216 . S
Co420 O422 2.091 . S
Co420 O424 2.004 . S
Co420 O430 2.021 1_554 S
Co420 O432 2.137 . S
Co420 O433 2.244 . S
O421 Co420 2.216 . S
O421 C428 1.247 . S
O422 Co420 2.091 . S
O422 C428 1.261 . S
C423 O432 1.247 . S
C423 O433 1.272 . S
O424 Co420 2.004 . S
O424 C429 1.264 . S
Co425 O426 2.061 . S
Co425 O431 2.052 . S
Co425 O433 2.135 1_556 S
O426 Co425 2.061 . S
O426 C429 1.231 1_556 S
C427 O430 1.238 . S
C427 O431 1.241 . S
C428 O421 1.247 . S
C428 O422 1.261 . S
C429 O424 1.264 . S
C429 O426 1.231 1_554 S
O430 Co420 2.021 1_556 S
O430 C427 1.238 . S
O431 Co425 2.052 . S
O431 C427 1.241 . S
O432 Co420 2.137 . S
O432 C423 1.247 . S
O433 Co420 2.244 . S
O433 C423 1.272 . S
O433 Co425 2.135 1_554 S
Co434 O435 2.216 . S
Co434 O436 2.091 . S
Co434 O438 2.004 . S
Co434 O444 2.021 1_554 S
Co434 O446 2.137 . S
Co434 O447 2.244 . S
O435 Co434 2.216 . S
O435 C442 1.247 . S
O436 Co434 2.091 . S
O436 C442 1.261 . S
C437 O446 1.247 . S
C437 O447 1.272 . S
O438 Co434 2.004 . S
O438 C443 1.264 . S
Co439 O440 2.061 . S
Co439 O445 2.052 . S
Co439 O447 2.135 1_556 S
O440 Co439 2.061 . S
O440 C443 1.231 1_556 S
C441 O444 1.238 . S
C441 O445 1.241 . S
C442 O435 1.247 . S
C442 O436 1.261 . S
C443 O438 1.264 . S
C443 O440 1.231 1_554 S
O444 Co434 2.021 1_556 S
O444 C441 1.238 . S
O445 Co439 2.052 . S
O445 C441 1.241 . S
O446 Co434 2.137 . S
O446 C437 1.247 . S
O447 Co434 2.244 . S
O447 C437 1.272 . S
O447 Co439 2.135 1_554 S
H448 C466 0.951 . S
H449 C468 0.951 . S
H450 C470 0.950 . S
H451 C471 0.950 . S
H452 C473 0.950 . S
H453 C476 0.950 . S
H454 C477 0.950 . S
H455 C479 0.950 . S
H456 C480 0.950 . S
H457 C481 0.951 . S
H458 C483 0.951 . S
H459 C485 0.950 . S
H460 C486 0.950 . S
H461 C488 0.950 . S
H462 C491 0.950 . S
H463 C492 0.950 . S
H464 C494 0.932 1_655 S
H465 C495 0.950 . S
C466 H448 0.951 . S
C466 C467 1.366 . S
C466 C468 1.388 . S
C467 C466 1.366 . S
C467 C471 1.385 . S
C468 H449 0.951 . S
C468 C466 1.388 . S
C468 C469 1.366 . S
C469 C468 1.366 . S
C469 C470 1.414 . S
C469 C472 1.499 . S
C470 H450 0.950 . S
C470 C469 1.414 . S
C470 C471 1.374 . S
C471 H451 0.950 . S
C471 C467 1.385 . S
C471 C470 1.374 . S
C472 C469 1.499 . S
C472 C473 1.373 . S
C472 C474 1.389 . S
C473 H452 0.950 . S
C473 C472 1.373 . S
C473 C489 1.377 . S
C474 C472 1.389 . S
C474 C475 1.524 . S
C474 C488 1.377 . S
C475 C474 1.524 . S
C475 C476 1.397 . S
C475 C480 1.363 . S
C476 H453 0.950 . S
C476 C475 1.397 . S
C476 C477 1.334 . S
C477 H454 0.950 . S
C477 C476 1.334 . S
C477 C478 1.287 . S
C478 C477 1.287 . S
C478 C479 1.524 . S
C478 H497 0.913 . S
C479 H455 0.950 . S
C479 C478 1.524 . S
C479 C480 1.415 . S
C480 H456 0.950 . S
C480 C475 1.363 . S
C480 C479 1.415 . S
C481 H457 0.951 . S
C481 C482 1.366 . S
C481 C483 1.388 . S
C482 C481 1.366 . S
C482 C486 1.385 . S
C483 H458 0.951 . S
C483 C481 1.388 . S
C483 C484 1.366 . S
C484 C483 1.366 . S
C484 C485 1.414 . S
C484 C487 1.499 . S
C485 H459 0.950 . S
C485 C484 1.414 . S
C485 C486 1.374 . S
C486 H460 0.950 . S
C486 C482 1.385 . S
C486 C485 1.374 . S
C487 C484 1.499 . S
C487 C488 1.373 . S
C487 C489 1.389 . S
C488 H461 0.950 . S
C488 C474 1.377 . S
C488 C487 1.373 . S
C489 C473 1.377 . S
C489 C487 1.389 . S
C489 C490 1.524 . S
C490 C489 1.524 . S
C490 C491 1.397 . S
C490 C495 1.363 . S
C491 H462 0.950 . S
C491 C490 1.397 . S
C491 C492 1.334 . S
C492 H463 0.950 . S
C492 C491 1.334 . S
C492 C493 1.287 . S
C493 C492 1.287 . S
C493 C494 1.524 . S
C493 H496 0.999 1_455 S
C494 H464 0.932 1_455 S
C494 C493 1.524 . S
C494 C495 1.415 . S
C495 H465 0.950 . S
C495 C490 1.363 . S
C495 C494 1.415 . S
H496 C493 0.999 1_655 S
H497 C478 0.913 . S
H498 C516 0.951 . S
H499 C518 0.951 . S
H500 C520 0.950 . S
H501 C521 0.950 . S
H502 C523 0.950 . S
H503 C526 0.950 . S
H504 C527 0.950 . S
H505 C529 0.950 1_655 S
H506 C530 0.950 . S
H507 C531 0.951 . S
H508 C533 0.951 . S
H509 C535 0.950 . S
H510 C536 0.950 . S
H511 C538 0.950 . S
H512 C541 0.950 . S
H513 C542 0.950 . S
H514 C544 0.950 . S
H515 C545 0.950 . S
C516 H498 0.951 . S
C516 C517 1.366 . S
C516 C518 1.388 . S
C517 C516 1.366 . S
C517 C521 1.385 . S
C518 H499 0.951 . S
C518 C516 1.388 . S
C518 C519 1.366 . S
C519 C518 1.366 . S
C519 C520 1.414 . S
C519 C522 1.499 . S
C520 H500 0.950 . S
C520 C519 1.414 . S
C520 C521 1.374 . S
C521 H501 0.950 . S
C521 C517 1.385 . S
C521 C520 1.374 . S
C522 C519 1.499 . S
C522 C523 1.373 . S
C522 C524 1.389 . S
C523 H502 0.950 . S
C523 C522 1.373 . S
C523 C539 1.377 . S
C524 C522 1.389 . S
C524 C525 1.524 . S
C524 C538 1.377 . S
C525 C524 1.524 . S
C525 C526 1.397 . S
C525 C530 1.363 . S
C526 H503 0.950 . S
C526 C525 1.397 . S
C526 C527 1.334 . S
C527 H504 0.950 . S
C527 C526 1.334 . S
C527 C528 1.287 . S
C528 C527 1.287 . S
C528 C529 1.524 . S
C528 H547 0.913 1_455 S
C529 H505 0.950 1_455 S
C529 C528 1.524 . S
C529 C530 1.415 . S
C530 H506 0.950 . S
C530 C525 1.363 . S
C530 C529 1.415 . S
C531 H507 0.951 . S
C531 C532 1.366 . S
C531 C533 1.388 . S
C532 C531 1.366 . S
C532 C536 1.385 . S
C533 H508 0.951 . S
C533 C531 1.388 . S
C533 C534 1.366 . S
C534 C533 1.366 . S
C534 C535 1.414 . S
C534 C537 1.499 . S
C535 H509 0.950 . S
C535 C534 1.414 . S
C535 C536 1.374 . S
C536 H510 0.950 . S
C536 C532 1.385 . S
C536 C535 1.374 . S
C537 C534 1.499 . S
C537 C538 1.373 . S
C537 C539 1.389 . S
C538 H511 0.950 . S
C538 C524 1.377 . S
C538 C537 1.373 . S
C539 C523 1.377 . S
C539 C537 1.389 . S
C539 C540 1.524 . S
C540 C539 1.524 . S
C540 C541 1.397 . S
C540 C545 1.363 . S
C541 H512 0.950 . S
C541 C540 1.397 . S
C541 C542 1.334 . S
C542 H513 0.950 . S
C542 C541 1.334 . S
C542 C543 1.287 . S
C543 C542 1.287 . S
C543 C544 1.524 . S
C543 H546 0.999 . S
C544 H514 0.950 . S
C544 C543 1.524 . S
C544 C545 1.415 . S
C545 H515 0.950 . S
C545 C540 1.363 . S
C545 C544 1.415 . S
H546 C543 0.999 . S
H547 C528 0.913 1_655 S
H548 C566 0.951 . S
H549 C568 0.951 . S
H550 C570 0.950 . S
H551 C571 0.950 . S
H552 C573 0.950 . S
H553 C576 0.950 . S
H554 C577 0.950 . S
H555 C579 0.950 . S
H556 C580 0.950 . S
H557 C581 0.951 . S
H558 C583 0.951 . S
H559 C585 0.950 . S
H560 C586 0.950 . S
H561 C588 0.950 . S
H562 C591 0.950 . S
H563 C592 0.950 . S
H564 C594 0.950 1_455 S
H565 C595 0.950 . S
C566 H548 0.951 . S
C566 C567 1.366 . S
C566 C568 1.388 . S
C567 C566 1.366 . S
C567 C571 1.385 . S
C568 H549 0.951 . S
C568 C566 1.388 . S
C568 C569 1.366 . S
C569 C568 1.366 . S
C569 C570 1.414 . S
C569 C572 1.499 . S
C570 H550 0.950 . S
C570 C569 1.414 . S
C570 C571 1.374 . S
C571 H551 0.950 . S
C571 C567 1.385 . S
C571 C570 1.374 . S
C572 C569 1.499 . S
C572 C573 1.373 . S
C572 C574 1.389 . S
C573 H552 0.950 . S
C573 C572 1.373 . S
C573 C589 1.377 . S
C574 C572 1.389 . S
C574 C575 1.524 . S
C574 C588 1.377 . S
C575 C574 1.524 . S
C575 C576 1.397 . S
C575 C580 1.363 . S
C576 H553 0.950 . S
C576 C575 1.397 . S
C576 C577 1.334 . S
C577 H554 0.950 . S
C577 C576 1.334 . S
C577 C578 1.287 . S
C578 C577 1.287 . S
C578 C579 1.524 . S
C578 H597 0.913 . S
C579 H555 0.950 . S
C579 C578 1.524 . S
C579 C580 1.415 . S
C580 H556 0.950 . S
C580 C575 1.363 . S
C580 C579 1.415 . S
C581 H557 0.951 . S
C581 C582 1.366 . S
C581 C583 1.388 . S
C582 C581 1.366 . S
C582 C586 1.385 . S
C583 H558 0.951 . S
C583 C581 1.388 . S
C583 C584 1.366 . S
C584 C583 1.366 . S
C584 C585 1.414 . S
C584 C587 1.499 . S
C585 H559 0.950 . S
C585 C584 1.414 . S
C585 C586 1.374 . S
C586 H560 0.950 . S
C586 C582 1.385 . S
C586 C585 1.374 . S
C587 C584 1.499 . S
C587 C588 1.373 . S
C587 C589 1.389 . S
C588 H561 0.950 . S
C588 C574 1.377 . S
C588 C587 1.373 . S
C589 C573 1.377 . S
C589 C587 1.389 . S
C589 C590 1.524 . S
C590 C589 1.524 . S
C590 C591 1.397 . S
C590 C595 1.363 . S
C591 H562 0.950 . S
C591 C590 1.397 . S
C591 C592 1.334 . S
C592 H563 0.950 . S
C592 C591 1.334 . S
C592 C593 1.287 . S
C593 C592 1.287 . S
C593 C594 1.524 . S
C593 H596 0.999 1_655 S
C594 H564 0.950 1_655 S
C594 C593 1.524 . S
C594 C595 1.415 . S
C595 H565 0.950 . S
C595 C590 1.363 . S
C595 C594 1.415 . S
H596 C593 0.999 1_455 S
H597 C578 0.913 . S
H598 C616 0.951 . S
H599 C618 0.951 . S
H600 C620 0.950 . S
H601 C621 0.950 . S
H602 C623 0.950 . S
H603 C626 0.950 . S
H604 C627 0.950 . S
H605 C629 0.950 . S
H606 C630 0.950 . S
H607 C631 0.951 . S
H608 C633 0.951 . S
H609 C635 0.950 . S
H610 C636 0.950 . S
H611 C638 0.950 . S
H612 C641 0.950 . S
H613 C642 0.950 . S
H614 C644 0.950 . S
H615 C645 0.950 . S
C616 H598 0.951 . S
C616 C617 1.366 . S
C616 C618 1.388 . S
C617 C616 1.366 . S
C617 C621 1.385 . S
C618 H599 0.951 . S
C618 C616 1.388 . S
C618 C619 1.366 . S
C619 C618 1.366 . S
C619 C620 1.414 . S
C619 C622 1.499 . S
C620 H600 0.950 . S
C620 C619 1.414 . S
C620 C621 1.374 . S
C621 H601 0.950 . S
C621 C617 1.385 . S
C621 C620 1.374 . S
C622 C619 1.499 . S
C622 C623 1.373 . S
C622 C624 1.389 . S
C623 H602 0.950 . S
C623 C622 1.373 . S
C623 C639 1.377 . S
C624 C622 1.389 . S
C624 C625 1.524 . S
C624 C638 1.377 . S
C625 C624 1.524 . S
C625 C626 1.397 . S
C625 C630 1.363 . S
C626 H603 0.950 . S
C626 C625 1.397 . S
C626 C627 1.334 . S
C627 H604 0.950 . S
C627 C626 1.334 . S
C627 C628 1.287 . S
C628 C627 1.287 . S
C628 C629 1.524 . S
C628 H647 0.913 . S
C629 H605 0.950 . S
C629 C628 1.524 . S
C629 C630 1.415 . S
C630 H606 0.950 . S
C630 C625 1.363 . S
C630 C629 1.415 . S
C631 H607 0.951 . S
C631 C632 1.366 . S
C631 C633 1.388 . S
C632 C631 1.366 . S
C632 C636 1.385 . S
C633 H608 0.951 . S
C633 C631 1.388 . S
C633 C634 1.366 . S
C634 C633 1.366 . S
C634 C635 1.414 . S
C634 C637 1.499 . S
C635 H609 0.950 . S
C635 C634 1.414 . S
C635 C636 1.374 . S
C636 H610 0.950 . S
C636 C632 1.385 . S
C636 C635 1.374 . S
C637 C634 1.499 . S
C637 C638 1.373 . S
C637 C639 1.389 . S
C638 H611 0.950 . S
C638 C624 1.377 . S
C638 C637 1.373 . S
C639 C623 1.377 . S
C639 C637 1.389 . S
C639 C640 1.524 . S
C640 C639 1.524 . S
C640 C641 1.397 . S
C640 C645 1.363 . S
C641 H612 0.950 . S
C641 C640 1.397 . S
C641 C642 1.334 . S
C642 H613 0.950 . S
C642 C641 1.334 . S
C642 C643 1.287 . S
C643 C642 1.287 . S
C643 C644 1.524 . S
C643 H646 0.999 . S
C644 H614 0.950 . S
C644 C643 1.524 . S
C644 C645 1.415 . S
C645 H615 0.950 . S
C645 C640 1.363 . S
C645 C644 1.415 . S
H646 C643 0.999 . S
H647 C628 0.913 . S
H648 C666 0.951 . S
H649 C668 0.951 . S
H650 C670 0.950 . S
H651 C671 0.950 . S
H652 C673 0.950 . S
H653 C676 0.950 . S
H654 C677 0.950 . S
H655 C679 0.950 . S
H656 C680 0.950 . S
H657 C681 0.951 . S
H658 C683 0.951 . S
H659 C685 0.950 . S
H660 C686 0.950 . S
H661 C688 0.950 . S
H662 C691 0.950 . S
H663 C692 0.950 . S
H664 C694 0.950 . S
H665 C695 0.950 . S
C666 H648 0.951 . S
C666 C667 1.366 . S
C666 C668 1.388 . S
C667 C666 1.366 . S
C667 C671 1.385 . S
C668 H649 0.951 . S
C668 C666 1.388 . S
C668 C669 1.366 . S
C669 C668 1.366 . S
C669 C670 1.414 . S
C669 C672 1.499 . S
C670 H650 0.950 . S
C670 C669 1.414 . S
C670 C671 1.374 . S
C671 H651 0.950 . S
C671 C667 1.385 . S
C671 C670 1.374 . S
C672 C669 1.499 . S
C672 C673 1.373 . S
C672 C674 1.389 . S
C673 H652 0.950 . S
C673 C672 1.373 . S
C673 C689 1.377 . S
C674 C672 1.389 . S
C674 C675 1.524 . S
C674 C688 1.377 . S
C675 C674 1.524 . S
C675 C676 1.397 . S
C675 C680 1.363 . S
C676 H653 0.950 . S
C676 C675 1.397 . S
C676 C677 1.334 . S
C677 H654 0.950 . S
C677 C676 1.334 . S
C677 C678 1.287 . S
C678 C677 1.287 . S
C678 C679 1.524 . S
C678 H697 0.913 . S
C679 H655 0.950 . S
C679 C678 1.524 . S
C679 C680 1.415 . S
C680 H656 0.950 . S
C680 C675 1.363 . S
C680 C679 1.415 . S
C681 H657 0.951 . S
C681 C682 1.366 . S
C681 C683 1.388 . S
C682 C681 1.366 . S
C682 C686 1.385 . S
C683 H658 0.951 . S
C683 C681 1.388 . S
C683 C684 1.366 . S
C684 C683 1.366 . S
C684 C685 1.414 . S
C684 C687 1.499 . S
C685 H659 0.950 . S
C685 C684 1.414 . S
C685 C686 1.374 . S
C686 H660 0.950 . S
C686 C682 1.385 . S
C686 C685 1.374 . S
C687 C684 1.499 . S
C687 C688 1.373 . S
C687 C689 1.389 . S
C688 H661 0.950 . S
C688 C674 1.377 . S
C688 C687 1.373 . S
C689 C673 1.377 . S
C689 C687 1.389 . S
C689 C690 1.524 . S
C690 C689 1.524 . S
C690 C691 1.397 . S
C690 C695 1.363 . S
C691 H662 0.950 . S
C691 C690 1.397 . S
C691 C692 1.334 . S
C692 H663 0.950 . S
C692 C691 1.334 . S
C692 C693 1.287 . S
C693 C692 1.287 . S
C693 C694 1.524 . S
C693 H696 0.999 . S
C694 H664 0.950 . S
C694 C693 1.524 . S
C694 C695 1.415 . S
C695 H665 0.950 . S
C695 C690 1.363 . S
C695 C694 1.415 . S
H696 C693 0.999 . S
H697 C678 0.913 . S
H698 C716 0.951 . S
H699 C718 0.951 . S
H700 C720 0.950 . S
H701 C721 0.950 . S
H702 C723 0.950 . S
H703 C726 0.950 . S
H704 C727 0.950 . S
H705 C729 0.950 . S
H706 C730 0.950 . S
H707 C731 0.951 . S
H708 C733 0.951 . S
H709 C735 0.950 . S
H710 C736 0.950 . S
H711 C738 0.950 . S
H712 C741 0.950 . S
H713 C742 0.950 . S
H714 C744 0.950 . S
H715 C745 0.950 . S
C716 H698 0.951 . S
C716 C717 1.366 . S
C716 C718 1.388 . S
C717 C716 1.366 . S
C717 C721 1.385 . S
C718 H699 0.951 . S
C718 C716 1.388 . S
C718 C719 1.366 . S
C719 C718 1.366 . S
C719 C720 1.414 . S
C719 C722 1.499 . S
C720 H700 0.950 . S
C720 C719 1.414 . S
C720 C721 1.374 . S
C721 H701 0.950 . S
C721 C717 1.385 . S
C721 C720 1.374 . S
C722 C719 1.499 . S
C722 C723 1.373 . S
C722 C724 1.389 . S
C723 H702 0.950 . S
C723 C722 1.373 . S
C723 C739 1.377 . S
C724 C722 1.389 . S
C724 C725 1.524 . S
C724 C738 1.377 . S
C725 C724 1.524 . S
C725 C726 1.397 . S
C725 C730 1.363 . S
C726 H703 0.950 . S
C726 C725 1.397 . S
C726 C727 1.334 . S
C727 H704 0.950 . S
C727 C726 1.334 . S
C727 C728 1.287 . S
C728 C727 1.287 . S
C728 C729 1.524 . S
C728 H747 0.913 . S
C729 H705 0.950 . S
C729 C728 1.524 . S
C729 C730 1.415 . S
C730 H706 0.950 . S
C730 C725 1.363 . S
C730 C729 1.415 . S
C731 H707 0.951 . S
C731 C732 1.366 . S
C731 C733 1.388 . S
C732 C731 1.366 . S
C732 C736 1.385 . S
C733 H708 0.951 . S
C733 C731 1.388 . S
C733 C734 1.366 . S
C734 C733 1.366 . S
C734 C735 1.414 . S
C734 C737 1.499 . S
C735 H709 0.950 . S
C735 C734 1.414 . S
C735 C736 1.374 . S
C736 H710 0.950 . S
C736 C732 1.385 . S
C736 C735 1.374 . S
C737 C734 1.499 . S
C737 C738 1.373 . S
C737 C739 1.389 . S
C738 H711 0.950 . S
C738 C724 1.377 . S
C738 C737 1.373 . S
C739 C723 1.377 . S
C739 C737 1.389 . S
C739 C740 1.524 . S
C740 C739 1.524 . S
C740 C741 1.397 . S
C740 C745 1.363 . S
C741 H712 0.950 . S
C741 C740 1.397 . S
C741 C742 1.334 . S
C742 H713 0.950 . S
C742 C741 1.334 . S
C742 C743 1.287 . S
C743 C742 1.287 . S
C743 C744 1.524 . S
C743 H746 0.999 . S
C744 H714 0.950 . S
C744 C743 1.524 . S
C744 C745 1.415 . S
C745 H715 0.950 . S
C745 C740 1.363 . S
C745 C744 1.415 . S
H746 C743 0.999 . S
H747 C728 0.913 . S
H748 C766 0.951 . S
H749 C768 0.951 . S
H750 C770 0.950 . S
H751 C771 0.950 . S
H752 C773 0.950 . S
H753 C776 0.950 . S
H754 C777 0.950 . S
H755 C779 0.950 1_455 S
H756 C780 0.950 . S
H757 C781 0.951 . S
H758 C783 0.951 . S
H759 C785 0.950 . S
H760 C786 0.950 . S
H761 C788 0.950 . S
H762 C791 0.950 . S
H763 C792 0.950 . S
H764 C794 0.950 . S
H765 C795 0.950 . S
C766 H748 0.951 . S
C766 C767 1.366 . S
C766 C768 1.388 . S
C767 C766 1.366 . S
C767 C771 1.385 . S
C768 H749 0.951 . S
C768 C766 1.388 . S
C768 C769 1.366 . S
C769 C768 1.366 . S
C769 C770 1.414 . S
C769 C772 1.499 . S
C770 H750 0.950 . S
C770 C769 1.414 . S
C770 C771 1.374 . S
C771 H751 0.950 . S
C771 C767 1.385 . S
C771 C770 1.374 . S
C772 C769 1.499 . S
C772 C773 1.373 . S
C772 C774 1.389 . S
C773 H752 0.950 . S
C773 C772 1.373 . S
C773 C789 1.377 . S
C774 C772 1.389 . S
C774 C775 1.524 . S
C774 C788 1.377 . S
C775 C774 1.524 . S
C775 C776 1.397 . S
C775 C780 1.363 . S
C776 H753 0.950 . S
C776 C775 1.397 . S
C776 C777 1.334 . S
C777 H754 0.950 . S
C777 C776 1.334 . S
C777 C778 1.287 . S
C778 C777 1.287 . S
C778 C779 1.524 . S
C778 H797 0.913 1_655 S
C779 H755 0.950 1_655 S
C779 C778 1.524 . S
C779 C780 1.415 . S
C780 H756 0.950 . S
C780 C775 1.363 . S
C780 C779 1.415 . S
C781 H757 0.951 . S
C781 C782 1.366 . S
C781 C783 1.388 . S
C782 C781 1.366 . S
C782 C786 1.385 . S
C783 H758 0.951 . S
C783 C781 1.388 . S
C783 C784 1.366 . S
C784 C783 1.366 . S
C784 C785 1.414 . S
C784 C787 1.499 . S
C785 H759 0.950 . S
C785 C784 1.414 . S
C785 C786 1.374 . S
C786 H760 0.950 . S
C786 C782 1.385 . S
C786 C785 1.374 . S
C787 C784 1.499 . S
C787 C788 1.373 . S
C787 C789 1.389 . S
C788 H761 0.950 . S
C788 C774 1.377 . S
C788 C787 1.373 . S
C789 C773 1.377 . S
C789 C787 1.389 . S
C789 C790 1.524 . S
C790 C789 1.524 . S
C790 C791 1.397 . S
C790 C795 1.363 . S
C791 H762 0.950 . S
C791 C790 1.397 . S
C791 C792 1.334 . S
C792 H763 0.950 . S
C792 C791 1.334 . S
C792 C793 1.287 . S
C793 C792 1.287 . S
C793 C794 1.524 . S
C793 H796 0.999 . S
C794 H764 0.950 . S
C794 C793 1.524 . S
C794 C795 1.415 . S
C795 H765 0.950 . S
C795 C790 1.363 . S
C795 C794 1.415 . S
H796 C793 0.999 . S
H797 C778 0.913 1_455 S
H798 C816 0.951 . S
H799 C818 0.951 . S
H800 C820 0.950 . S
H801 C821 0.950 . S
H802 C823 0.950 . S
H803 C826 0.950 . S
H804 C827 0.950 . S
H805 C829 0.950 1_455 S
H806 C830 0.950 . S
H807 C831 0.951 . S
H808 C833 0.951 . S
H809 C835 0.950 . S
H810 C836 0.950 . S
H811 C838 0.950 . S
H812 C841 0.950 . S
H813 C842 0.950 . S
H814 C844 0.950 . S
H815 C845 0.950 . S
C816 H798 0.951 . S
C816 C817 1.366 . S
C816 C818 1.388 . S
C817 C816 1.366 . S
C817 C821 1.385 . S
C818 H799 0.951 . S
C818 C816 1.388 . S
C818 C819 1.366 . S
C819 C818 1.366 . S
C819 C820 1.414 . S
C819 C822 1.499 . S
C820 H800 0.950 . S
C820 C819 1.414 . S
C820 C821 1.374 . S
C821 H801 0.950 . S
C821 C817 1.385 . S
C821 C820 1.374 . S
C822 C819 1.499 . S
C822 C823 1.373 . S
C822 C824 1.389 . S
C823 H802 0.950 . S
C823 C822 1.373 . S
C823 C839 1.377 . S
C824 C822 1.389 . S
C824 C825 1.524 . S
C824 C838 1.377 . S
C825 C824 1.524 . S
C825 C826 1.397 . S
C825 C830 1.363 . S
C826 H803 0.950 . S
C826 C825 1.397 . S
C826 C827 1.334 . S
C827 H804 0.950 . S
C827 C826 1.334 . S
C827 C828 1.287 . S
C828 C827 1.287 . S
C828 C829 1.524 . S
C828 H847 0.913 1_655 S
C829 H805 0.950 1_655 S
C829 C828 1.524 . S
C829 C830 1.415 . S
C830 H806 0.950 . S
C830 C825 1.363 . S
C830 C829 1.415 . S
C831 H807 0.951 . S
C831 C832 1.366 . S
C831 C833 1.388 . S
C832 C831 1.366 . S
C832 C836 1.385 . S
C833 H808 0.951 . S
C833 C831 1.388 . S
C833 C834 1.366 . S
C834 C833 1.366 . S
C834 C835 1.414 . S
C834 C837 1.499 . S
C835 H809 0.950 . S
C835 C834 1.414 . S
C835 C836 1.374 . S
C836 H810 0.950 . S
C836 C832 1.385 . S
C836 C835 1.374 . S
C837 C834 1.499 . S
C837 C838 1.373 . S
C837 C839 1.389 . S
C838 H811 0.950 . S
C838 C824 1.377 . S
C838 C837 1.373 . S
C839 C823 1.377 . S
C839 C837 1.389 . S
C839 C840 1.524 . S
C840 C839 1.524 . S
C840 C841 1.397 . S
C840 C845 1.363 . S
C841 H812 0.950 . S
C841 C840 1.397 . S
C841 C842 1.334 . S
C842 H813 0.950 . S
C842 C841 1.334 . S
C842 C843 1.287 . S
C843 C842 1.287 . S
C843 C844 1.524 . S
C843 H846 0.999 . S
C844 H814 0.950 . S
C844 C843 1.524 . S
C844 C845 1.415 . S
C845 H815 0.950 . S
C845 C840 1.363 . S
C845 C844 1.415 . S
H846 C843 0.999 . S
H847 C828 0.913 1_455 S
H848 C866 0.951 . S
H849 C868 0.951 . S
H850 C870 0.950 . S
H851 C871 0.950 . S
H852 C873 0.950 . S
H853 C876 0.950 . S
H854 C877 0.950 . S
H855 C879 0.950 . S
H856 C880 0.950 . S
H857 C881 0.951 . S
H858 C883 0.951 . S
H859 C885 0.950 . S
H860 C886 0.950 . S
H861 C888 0.950 . S
H862 C891 0.950 . S
H863 C892 0.950 . S
H864 C894 0.950 . S
H865 C895 0.950 . S
C866 H848 0.951 . S
C866 C867 1.366 . S
C866 C868 1.388 . S
C867 C866 1.366 . S
C867 C871 1.385 . S
C868 H849 0.951 . S
C868 C866 1.388 . S
C868 C869 1.366 . S
C869 C868 1.366 . S
C869 C870 1.414 . S
C869 C872 1.499 . S
C870 H850 0.950 . S
C870 C869 1.414 . S
C870 C871 1.374 . S
C871 H851 0.950 . S
C871 C867 1.385 . S
C871 C870 1.374 . S
C872 C869 1.499 . S
C872 C873 1.373 . S
C872 C874 1.389 . S
C873 H852 0.950 . S
C873 C872 1.373 . S
C873 C889 1.377 . S
C874 C872 1.389 . S
C874 C875 1.524 . S
C874 C888 1.377 . S
C875 C874 1.524 . S
C875 C876 1.397 . S
C875 C880 1.363 . S
C876 H853 0.950 . S
C876 C875 1.397 . S
C876 C877 1.334 . S
C877 H854 0.950 . S
C877 C876 1.334 . S
C877 C878 1.287 . S
C878 C877 1.287 . S
C878 C879 1.524 . S
C878 H897 0.913 . S
C879 H855 0.950 . S
C879 C878 1.524 . S
C879 C880 1.415 . S
C880 H856 0.950 . S
C880 C875 1.363 . S
C880 C879 1.415 . S
C881 H857 0.951 . S
C881 C882 1.366 . S
C881 C883 1.388 . S
C882 C881 1.366 . S
C882 C886 1.385 . S
C883 H858 0.951 . S
C883 C881 1.388 . S
C883 C884 1.366 . S
C884 C883 1.366 . S
C884 C885 1.414 . S
C884 C887 1.499 . S
C885 H859 0.950 . S
C885 C884 1.414 . S
C885 C886 1.374 . S
C886 H860 0.950 . S
C886 C882 1.385 . S
C886 C885 1.374 . S
C887 C884 1.499 . S
C887 C888 1.373 . S
C887 C889 1.389 . S
C888 H861 0.950 . S
C888 C874 1.377 . S
C888 C887 1.373 . S
C889 C873 1.377 . S
C889 C887 1.389 . S
C889 C890 1.524 . S
C890 C889 1.524 . S
C890 C891 1.397 . S
C890 C895 1.363 . S
C891 H862 0.950 . S
C891 C890 1.397 . S
C891 C892 1.334 . S
C892 H863 0.950 . S
C892 C891 1.334 . S
C892 C893 1.287 . S
C893 C892 1.287 . S
C893 C894 1.524 . S
C893 H896 0.999 . S
C894 H864 0.950 . S
C894 C893 1.524 . S
C894 C895 1.415 . S
C895 H865 0.950 . S
C895 C890 1.363 . S
C895 C894 1.415 . S
H896 C893 0.999 . S
H897 C878 0.913 . S
H898 C916 0.951 . S
H899 C918 0.951 . S
H900 C920 0.950 . S
H901 C921 0.950 . S
H902 C923 0.950 . S
H903 C926 0.950 . S
H904 C927 0.950 . S
H905 C929 0.950 . S
H906 C930 0.950 . S
H907 C931 0.951 . S
H908 C933 0.951 . S
H909 C935 0.950 . S
H910 C936 0.950 . S
H911 C938 0.950 . S
H912 C941 0.950 . S
H913 C942 0.950 . S
H914 C944 0.950 . S
H915 C945 0.950 . S
C916 H898 0.951 . S
C916 C917 1.366 . S
C916 C918 1.388 . S
C917 C916 1.366 . S
C917 C921 1.385 . S
C918 H899 0.951 . S
C918 C916 1.388 . S
C918 C919 1.366 . S
C919 C918 1.366 . S
C919 C920 1.414 . S
C919 C922 1.499 . S
C920 H900 0.950 . S
C920 C919 1.414 . S
C920 C921 1.374 . S
C921 H901 0.950 . S
C921 C917 1.385 . S
C921 C920 1.374 . S
C922 C919 1.499 . S
C922 C923 1.373 . S
C922 C924 1.389 . S
C923 H902 0.950 . S
C923 C922 1.373 . S
C923 C939 1.377 . S
C924 C922 1.389 . S
C924 C925 1.524 . S
C924 C938 1.377 . S
C925 C924 1.524 . S
C925 C926 1.397 . S
C925 C930 1.363 . S
C926 H903 0.950 . S
C926 C925 1.397 . S
C926 C927 1.334 . S
C927 H904 0.950 . S
C927 C926 1.334 . S
C927 C928 1.287 . S
C928 C927 1.287 . S
C928 C929 1.524 . S
C928 H947 0.913 . S
C929 H905 0.950 . S
C929 C928 1.524 . S
C929 C930 1.415 . S
C930 H906 0.950 . S
C930 C925 1.363 . S
C930 C929 1.415 . S
C931 H907 0.951 . S
C931 C932 1.366 . S
C931 C933 1.388 . S
C932 C931 1.366 . S
C932 C936 1.385 . S
C933 H908 0.951 . S
C933 C931 1.388 . S
C933 C934 1.366 . S
C934 C933 1.366 . S
C934 C935 1.414 . S
C934 C937 1.499 . S
C935 H909 0.950 . S
C935 C934 1.414 . S
C935 C936 1.374 . S
C936 H910 0.950 . S
C936 C932 1.385 . S
C936 C935 1.374 . S
C937 C934 1.499 . S
C937 C938 1.373 . S
C937 C939 1.389 . S
C938 H911 0.950 . S
C938 C924 1.377 . S
C938 C937 1.373 . S
C939 C923 1.377 . S
C939 C937 1.389 . S
C939 C940 1.524 . S
C940 C939 1.524 . S
C940 C941 1.397 . S
C940 C945 1.363 . S
C941 H912 0.950 . S
C941 C940 1.397 . S
C941 C942 1.334 . S
C942 H913 0.950 . S
C942 C941 1.334 . S
C942 C943 1.287 . S
C943 C942 1.287 . S
C943 C944 1.524 . S
C943 H946 0.999 . S
C944 H914 0.950 . S
C944 C943 1.524 . S
C944 C945 1.415 . S
C945 H915 0.950 . S
C945 C940 1.363 . S
C945 C944 1.415 . S
H946 C943 0.999 . S
H947 C928 0.913 . S
H948 C966 0.951 . S
H949 C968 0.951 . S
H950 C970 0.950 . S
H951 C971 0.950 . S
H952 C973 0.950 . S
H953 C976 0.950 . S
H954 C977 0.950 . S
H955 C979 0.950 . S
H956 C980 0.950 . S
H957 C981 0.951 . S
H958 C983 0.951 . S
H959 C985 0.950 . S
H960 C986 0.950 . S
H961 C988 0.950 . S
H962 C991 0.950 . S
H963 C992 0.950 . S
H964 C994 0.950 . S
H965 C995 0.950 . S
C966 H948 0.951 . S
C966 C967 1.366 . S
C966 C968 1.388 . S
C967 C966 1.366 . S
C967 C971 1.385 . S
C968 H949 0.951 . S
C968 C966 1.388 . S
C968 C969 1.366 . S
C969 C968 1.366 . S
C969 C970 1.414 . S
C969 C972 1.499 . S
C970 H950 0.950 . S
C970 C969 1.414 . S
C970 C971 1.374 . S
C971 H951 0.950 . S
C971 C967 1.385 . S
C971 C970 1.374 . S
C972 C969 1.499 . S
C972 C973 1.373 . S
C972 C974 1.389 . S
C973 H952 0.950 . S
C973 C972 1.373 . S
C973 C989 1.377 . S
C974 C972 1.389 . S
C974 C975 1.524 . S
C974 C988 1.377 . S
C975 C974 1.524 . S
C975 C976 1.397 . S
C975 C980 1.363 . S
C976 H953 0.950 . S
C976 C975 1.397 . S
C976 C977 1.334 . S
C977 H954 0.950 . S
C977 C976 1.334 . S
C977 C978 1.287 . S
C978 C977 1.287 . S
C978 C979 1.524 . S
C978 H997 0.913 . S
C979 H955 0.950 . S
C979 C978 1.524 . S
C979 C980 1.415 . S
C980 H956 0.950 . S
C980 C975 1.363 . S
C980 C979 1.415 . S
C981 H957 0.951 . S
C981 C982 1.366 . S
C981 C983 1.388 . S
C982 C981 1.366 . S
C982 C986 1.385 . S
C983 H958 0.951 . S
C983 C981 1.388 . S
C983 C984 1.366 . S
C984 C983 1.366 . S
C984 C985 1.414 . S
C984 C987 1.499 . S
C985 H959 0.950 . S
C985 C984 1.414 . S
C985 C986 1.374 . S
C986 H960 0.950 . S
C986 C982 1.385 . S
C986 C985 1.374 . S
C987 C984 1.499 . S
C987 C988 1.373 . S
C987 C989 1.389 . S
C988 H961 0.950 . S
C988 C974 1.377 . S
C988 C987 1.373 . S
C989 C973 1.377 . S
C989 C987 1.389 . S
C989 C990 1.524 . S
C990 C989 1.524 . S
C990 C991 1.397 . S
C990 C995 1.363 . S
C991 H962 0.950 . S
C991 C990 1.397 . S
C991 C992 1.334 . S
C992 H963 0.950 . S
C992 C991 1.334 . S
C992 C993 1.287 . S
C993 C992 1.287 . S
C993 C994 1.524 . S
C993 H996 0.999 . S
C994 H964 0.950 . S
C994 C993 1.524 . S
C994 C995 1.415 . S
C995 H965 0.950 . S
C995 C990 1.363 . S
C995 C994 1.415 . S
H996 C993 0.999 . S
H997 C978 0.913 . S
H998 C1016 0.951 . S
H999 C1018 0.951 . S
H1000 C1020 0.950 . S
H1001 C1021 0.950 . S
H1002 C1023 0.950 . S
H1003 C1026 0.950 . S
H1004 C1027 0.950 . S
H1005 C1029 0.950 . S
H1006 C1030 0.950 . S
H1007 C1031 0.951 . S
H1008 C1033 0.951 . S
H1009 C1035 0.950 . S
H1010 C1036 0.950 . S
H1011 C1038 0.950 . S
H1012 C1041 0.950 . S
H1013 C1042 0.950 . S
H1014 C1044 0.950 . S
H1015 C1045 0.950 . S
C1016 H998 0.951 . S
C1016 C1017 1.366 . S
C1016 C1018 1.388 . S
C1017 C1016 1.366 . S
C1017 C1021 1.385 . S
C1018 H999 0.951 . S
C1018 C1016 1.388 . S
C1018 C1019 1.366 . S
C1019 C1018 1.366 . S
C1019 C1020 1.414 . S
C1019 C1022 1.499 . S
C1020 H1000 0.950 . S
C1020 C1019 1.414 . S
C1020 C1021 1.374 . S
C1021 H1001 0.950 . S
C1021 C1017 1.385 . S
C1021 C1020 1.374 . S
C1022 C1019 1.499 . S
C1022 C1023 1.373 . S
C1022 C1024 1.389 . S
C1023 H1002 0.950 . S
C1023 C1022 1.373 . S
C1023 C1039 1.377 . S
C1024 C1022 1.389 . S
C1024 C1025 1.524 . S
C1024 C1038 1.377 . S
C1025 C1024 1.524 . S
C1025 C1026 1.397 . S
C1025 C1030 1.363 . S
C1026 H1003 0.950 . S
C1026 C1025 1.397 . S
C1026 C1027 1.334 . S
C1027 H1004 0.950 . S
C1027 C1026 1.334 . S
C1027 C1028 1.287 . S
C1028 C1027 1.287 . S
C1028 C1029 1.524 . S
C1028 H1047 0.913 . S
C1029 H1005 0.950 . S
C1029 C1028 1.524 . S
C1029 C1030 1.415 . S
C1030 H1006 0.950 . S
C1030 C1025 1.363 . S
C1030 C1029 1.415 . S
C1031 H1007 0.951 . S
C1031 C1032 1.366 . S
C1031 C1033 1.388 . S
C1032 C1031 1.366 . S
C1032 C1036 1.385 . S
C1033 H1008 0.951 . S
C1033 C1031 1.388 . S
C1033 C1034 1.366 . S
C1034 C1033 1.366 . S
C1034 C1035 1.414 . S
C1034 C1037 1.499 . S
C1035 H1009 0.950 . S
C1035 C1034 1.414 . S
C1035 C1036 1.374 . S
C1036 H1010 0.950 . S
C1036 C1032 1.385 . S
C1036 C1035 1.374 . S
C1037 C1034 1.499 . S
C1037 C1038 1.373 . S
C1037 C1039 1.389 . S
C1038 H1011 0.950 . S
C1038 C1024 1.377 . S
C1038 C1037 1.373 . S
C1039 C1023 1.377 . S
C1039 C1037 1.389 . S
C1039 C1040 1.524 . S
C1040 C1039 1.524 . S
C1040 C1041 1.397 . S
C1040 C1045 1.363 . S
C1041 H1012 0.950 . S
C1041 C1040 1.397 . S
C1041 C1042 1.334 . S
C1042 H1013 0.950 . S
C1042 C1041 1.334 . S
C1042 C1043 1.287 . S
C1043 C1042 1.287 . S
C1043 C1044 1.524 . S
C1043 H1046 0.999 . S
C1044 H1014 0.950 . S
C1044 C1043 1.524 . S
C1044 C1045 1.415 . S
C1045 H1015 0.950 . S
C1045 C1040 1.363 . S
C1045 C1044 1.415 . S
H1046 C1043 0.999 . S
H1047 C1028 0.913 . S
H1048 C1066 0.951 . S
H1049 C1068 0.951 . S
H1050 C1070 0.950 . S
H1051 C1071 0.950 . S
H1052 C1073 0.950 . S
H1053 C1076 0.950 . S
H1054 C1077 0.950 . S
H1055 C1079 0.950 . S
H1056 C1080 0.950 . S
H1057 C1081 0.951 . S
H1058 C1083 0.951 . S
H1059 C1085 0.950 . S
H1060 C1086 0.950 . S
H1061 C1088 0.950 . S
H1062 C1091 0.950 . S
H1063 C1092 0.950 . S
H1064 C1094 0.950 . S
H1065 C1095 0.950 . S
C1066 H1048 0.951 . S
C1066 C1067 1.366 . S
C1066 C1068 1.388 . S
C1067 C1066 1.366 . S
C1067 C1071 1.385 . S
C1068 H1049 0.951 . S
C1068 C1066 1.388 . S
C1068 C1069 1.366 . S
C1069 C1068 1.366 . S
C1069 C1070 1.414 . S
C1069 C1072 1.499 . S
C1070 H1050 0.950 . S
C1070 C1069 1.414 . S
C1070 C1071 1.374 . S
C1071 H1051 0.950 . S
C1071 C1067 1.385 . S
C1071 C1070 1.374 . S
C1072 C1069 1.499 . S
C1072 C1073 1.373 . S
C1072 C1074 1.389 . S
C1073 H1052 0.950 . S
C1073 C1072 1.373 . S
C1073 C1089 1.377 . S
C1074 C1072 1.389 . S
C1074 C1075 1.524 . S
C1074 C1088 1.377 . S
C1075 C1074 1.524 . S
C1075 C1076 1.397 . S
C1075 C1080 1.363 . S
C1076 H1053 0.950 . S
C1076 C1075 1.397 . S
C1076 C1077 1.334 . S
C1077 H1054 0.950 . S
C1077 C1076 1.334 . S
C1077 C1078 1.287 . S
C1078 C1077 1.287 . S
C1078 C1079 1.524 . S
C1078 H1097 0.913 . S
C1079 H1055 0.950 . S
C1079 C1078 1.524 . S
C1079 C1080 1.415 . S
C1080 H1056 0.950 . S
C1080 C1075 1.363 . S
C1080 C1079 1.415 . S
C1081 H1057 0.951 . S
C1081 C1082 1.366 . S
C1081 C1083 1.388 . S
C1082 C1081 1.366 . S
C1082 C1086 1.385 . S
C1083 H1058 0.951 . S
C1083 C1081 1.388 . S
C1083 C1084 1.366 . S
C1084 C1083 1.366 . S
C1084 C1085 1.414 . S
C1084 C1087 1.499 . S
C1085 H1059 0.950 . S
C1085 C1084 1.414 . S
C1085 C1086 1.374 . S
C1086 H1060 0.950 . S
C1086 C1082 1.385 . S
C1086 C1085 1.374 . S
C1087 C1084 1.499 . S
C1087 C1088 1.373 . S
C1087 C1089 1.389 . S
C1088 H1061 0.950 . S
C1088 C1074 1.377 . S
C1088 C1087 1.373 . S
C1089 C1073 1.377 . S
C1089 C1087 1.389 . S
C1089 C1090 1.524 . S
C1090 C1089 1.524 . S
C1090 C1091 1.397 . S
C1090 C1095 1.363 . S
C1091 H1062 0.950 . S
C1091 C1090 1.397 . S
C1091 C1092 1.334 . S
C1092 H1063 0.950 . S
C1092 C1091 1.334 . S
C1092 C1093 1.287 . S
C1093 C1092 1.287 . S
C1093 C1094 1.524 . S
C1093 H1096 0.999 . S
C1094 H1064 0.950 . S
C1094 C1093 1.524 . S
C1094 C1095 1.415 . S
C1095 H1065 0.950 . S
C1095 C1090 1.363 . S
C1095 C1094 1.415 . S
H1096 C1093 0.999 . S
H1097 C1078 0.913 . S
H1098 C1116 0.951 . S
H1099 C1118 0.951 . S
H1100 C1120 0.950 . S
H1101 C1121 0.950 . S
H1102 C1123 0.950 . S
H1103 C1126 0.950 . S
H1104 C1127 0.950 . S
H1105 C1129 0.950 . S
H1106 C1130 0.950 . S
H1107 C1131 0.951 . S
H1108 C1133 0.951 . S
H1109 C1135 0.950 . S
H1110 C1136 0.950 . S
H1111 C1138 0.950 . S
H1112 C1141 0.950 . S
H1113 C1142 0.950 . S
H1114 C1144 0.950 . S
H1115 C1145 0.950 . S
C1116 H1098 0.951 . S
C1116 C1117 1.366 . S
C1116 C1118 1.388 . S
C1117 C1116 1.366 . S
C1117 C1121 1.385 . S
C1118 H1099 0.951 . S
C1118 C1116 1.388 . S
C1118 C1119 1.366 . S
C1119 C1118 1.366 . S
C1119 C1120 1.414 . S
C1119 C1122 1.499 . S
C1120 H1100 0.950 . S
C1120 C1119 1.414 . S
C1120 C1121 1.374 . S
C1121 H1101 0.950 . S
C1121 C1117 1.385 . S
C1121 C1120 1.374 . S
C1122 C1119 1.499 . S
C1122 C1123 1.373 . S
C1122 C1124 1.389 . S
C1123 H1102 0.950 . S
C1123 C1122 1.373 . S
C1123 C1139 1.377 . S
C1124 C1122 1.389 . S
C1124 C1125 1.524 . S
C1124 C1138 1.377 . S
C1125 C1124 1.524 . S
C1125 C1126 1.397 . S
C1125 C1130 1.363 . S
C1126 H1103 0.950 . S
C1126 C1125 1.397 . S
C1126 C1127 1.334 . S
C1127 H1104 0.950 . S
C1127 C1126 1.334 . S
C1127 C1128 1.287 . S
C1128 C1127 1.287 . S
C1128 C1129 1.524 . S
C1128 H1147 0.913 . S
C1129 H1105 0.950 . S
C1129 C1128 1.524 . S
C1129 C1130 1.415 . S
C1130 H1106 0.950 . S
C1130 C1125 1.363 . S
C1130 C1129 1.415 . S
C1131 H1107 0.951 . S
C1131 C1132 1.366 . S
C1131 C1133 1.388 . S
C1132 C1131 1.366 . S
C1132 C1136 1.385 . S
C1133 H1108 0.951 . S
C1133 C1131 1.388 . S
C1133 C1134 1.366 . S
C1134 C1133 1.366 . S
C1134 C1135 1.414 . S
C1134 C1137 1.499 . S
C1135 H1109 0.950 . S
C1135 C1134 1.414 . S
C1135 C1136 1.374 . S
C1136 H1110 0.950 . S
C1136 C1132 1.385 . S
C1136 C1135 1.374 . S
C1137 C1134 1.499 . S
C1137 C1138 1.373 . S
C1137 C1139 1.389 . S
C1138 H1111 0.950 . S
C1138 C1124 1.377 . S
C1138 C1137 1.373 . S
C1139 C1123 1.377 . S
C1139 C1137 1.389 . S
C1139 C1140 1.524 . S
C1140 C1139 1.524 . S
C1140 C1141 1.397 . S
C1140 C1145 1.363 . S
C1141 H1112 0.950 . S
C1141 C1140 1.397 . S
C1141 C1142 1.334 . S
C1142 H1113 0.950 . S
C1142 C1141 1.334 . S
C1142 C1143 1.287 . S
C1143 C1142 1.287 . S
C1143 C1144 1.524 . S
C1143 H1146 0.999 . S
C1144 H1114 0.950 . S
C1144 C1143 1.524 . S
C1144 C1145 1.415 . S
C1145 H1115 0.950 . S
C1145 C1140 1.363 . S
C1145 C1144 1.415 . S
H1146 C1143 0.999 . S
H1147 C1128 0.913 . S
H1148 C1166 0.951 . S
H1149 C1168 0.951 . S
H1150 C1170 0.950 . S
H1151 C1171 0.950 . S
H1152 C1173 0.950 . S
H1153 C1176 0.950 . S
H1154 C1177 0.950 . S
H1155 C1179 0.950 . S
H1156 C1180 0.950 . S
H1157 C1181 0.951 . S
H1158 C1183 0.951 . S
H1159 C1185 0.950 . S
H1160 C1186 0.950 . S
H1161 C1188 0.950 . S
H1162 C1191 0.950 . S
H1163 C1192 0.950 . S
H1164 C1194 0.950 . S
H1165 C1195 0.950 . S
C1166 H1148 0.951 . S
C1166 C1167 1.366 . S
C1166 C1168 1.388 . S
C1167 C1166 1.366 . S
C1167 C1171 1.385 . S
C1168 H1149 0.951 . S
C1168 C1166 1.388 . S
C1168 C1169 1.366 . S
C1169 C1168 1.366 . S
C1169 C1170 1.414 . S
C1169 C1172 1.499 . S
C1170 H1150 0.950 . S
C1170 C1169 1.414 . S
C1170 C1171 1.374 . S
C1171 H1151 0.950 . S
C1171 C1167 1.385 . S
C1171 C1170 1.374 . S
C1172 C1169 1.499 . S
C1172 C1173 1.373 . S
C1172 C1174 1.389 . S
C1173 H1152 0.950 . S
C1173 C1172 1.373 . S
C1173 C1189 1.377 . S
C1174 C1172 1.389 . S
C1174 C1175 1.524 . S
C1174 C1188 1.377 . S
C1175 C1174 1.524 . S
C1175 C1176 1.397 . S
C1175 C1180 1.363 . S
C1176 H1153 0.950 . S
C1176 C1175 1.397 . S
C1176 C1177 1.334 . S
C1177 H1154 0.950 . S
C1177 C1176 1.334 . S
C1177 C1178 1.287 . S
C1178 C1177 1.287 . S
C1178 C1179 1.524 . S
C1178 H1197 0.913 . S
C1179 H1155 0.950 . S
C1179 C1178 1.524 . S
C1179 C1180 1.415 . S
C1180 H1156 0.950 . S
C1180 C1175 1.363 . S
C1180 C1179 1.415 . S
C1181 H1157 0.951 . S
C1181 C1182 1.366 . S
C1181 C1183 1.388 . S
C1182 C1181 1.366 . S
C1182 C1186 1.385 . S
C1183 H1158 0.951 . S
C1183 C1181 1.388 . S
C1183 C1184 1.366 . S
C1184 C1183 1.366 . S
C1184 C1185 1.414 . S
C1184 C1187 1.499 . S
C1185 H1159 0.950 . S
C1185 C1184 1.414 . S
C1185 C1186 1.374 . S
C1186 H1160 0.950 . S
C1186 C1182 1.385 . S
C1186 C1185 1.374 . S
C1187 C1184 1.499 . S
C1187 C1188 1.373 . S
C1187 C1189 1.389 . S
C1188 H1161 0.950 . S
C1188 C1174 1.377 . S
C1188 C1187 1.373 . S
C1189 C1173 1.377 . S
C1189 C1187 1.389 . S
C1189 C1190 1.524 . S
C1190 C1189 1.524 . S
C1190 C1191 1.397 . S
C1190 C1195 1.363 . S
C1191 H1162 0.950 . S
C1191 C1190 1.397 . S
C1191 C1192 1.334 . S
C1192 H1163 0.950 . S
C1192 C1191 1.334 . S
C1192 C1193 1.287 . S
C1193 C1192 1.287 . S
C1193 C1194 1.524 . S
C1193 H1196 0.999 . S
C1194 H1164 0.950 . S
C1194 C1193 1.524 . S
C1194 C1195 1.415 . S
C1195 H1165 0.950 . S
C1195 C1190 1.363 . S
C1195 C1194 1.415 . S
H1196 C1193 0.999 . S
H1197 C1178 0.913 . S
H1198 C1216 0.951 . S
H1199 C1218 0.951 . S
H1200 C1220 0.950 . S
H1201 C1221 0.950 . S
H1202 C1223 0.950 . S
H1203 C1226 0.950 . S
H1204 C1227 0.950 . S
H1205 C1229 0.950 . S
H1206 C1230 0.950 . S
H1207 C1231 0.951 . S
H1208 C1233 0.951 . S
H1209 C1235 0.950 . S
H1210 C1236 0.950 . S
H1211 C1238 0.950 . S
H1212 C1241 0.950 . S
H1213 C1242 0.950 . S
H1214 C1244 0.950 . S
H1215 C1245 0.950 . S
C1216 H1198 0.951 . S
C1216 C1217 1.366 . S
C1216 C1218 1.388 . S
C1217 C1216 1.366 . S
C1217 C1221 1.385 . S
C1218 H1199 0.951 . S
C1218 C1216 1.388 . S
C1218 C1219 1.366 . S
C1219 C1218 1.366 . S
C1219 C1220 1.414 . S
C1219 C1222 1.499 . S
C1220 H1200 0.950 . S
C1220 C1219 1.414 . S
C1220 C1221 1.374 . S
C1221 H1201 0.950 . S
C1221 C1217 1.385 . S
C1221 C1220 1.374 . S
C1222 C1219 1.499 . S
C1222 C1223 1.373 . S
C1222 C1224 1.389 . S
C1223 H1202 0.950 . S
C1223 C1222 1.373 . S
C1223 C1239 1.377 . S
C1224 C1222 1.389 . S
C1224 C1225 1.524 . S
C1224 C1238 1.377 . S
C1225 C1224 1.524 . S
C1225 C1226 1.397 . S
C1225 C1230 1.363 . S
C1226 H1203 0.950 . S
C1226 C1225 1.397 . S
C1226 C1227 1.334 . S
C1227 H1204 0.950 . S
C1227 C1226 1.334 . S
C1227 C1228 1.287 . S
C1228 C1227 1.287 . S
C1228 C1229 1.524 . S
C1228 H1247 0.913 . S
C1229 H1205 0.950 . S
C1229 C1228 1.524 . S
C1229 C1230 1.415 . S
C1230 H1206 0.950 . S
C1230 C1225 1.363 . S
C1230 C1229 1.415 . S
C1231 H1207 0.951 . S
C1231 C1232 1.366 . S
C1231 C1233 1.388 . S
C1232 C1231 1.366 . S
C1232 C1236 1.385 . S
C1233 H1208 0.951 . S
C1233 C1231 1.388 . S
C1233 C1234 1.366 . S
C1234 C1233 1.366 . S
C1234 C1235 1.414 . S
C1234 C1237 1.499 . S
C1235 H1209 0.950 . S
C1235 C1234 1.414 . S
C1235 C1236 1.374 . S
C1236 H1210 0.950 . S
C1236 C1232 1.385 . S
C1236 C1235 1.374 . S
C1237 C1234 1.499 . S
C1237 C1238 1.373 . S
C1237 C1239 1.389 . S
C1238 H1211 0.950 . S
C1238 C1224 1.377 . S
C1238 C1237 1.373 . S
C1239 C1223 1.377 . S
C1239 C1237 1.389 . S
C1239 C1240 1.524 . S
C1240 C1239 1.524 . S
C1240 C1241 1.397 . S
C1240 C1245 1.363 . S
C1241 H1212 0.950 . S
C1241 C1240 1.397 . S
C1241 C1242 1.334 . S
C1242 H1213 0.950 . S
C1242 C1241 1.334 . S
C1242 C1243 1.287 . S
C1243 C1242 1.287 . S
C1243 C1244 1.524 . S
C1243 H1246 0.999 . S
C1244 H1214 0.950 . S
C1244 C1243 1.524 . S
C1244 C1245 1.415 . S
C1245 H1215 0.950 . S
C1245 C1240 1.363 . S
C1245 C1244 1.415 . S
H1246 C1243 0.999 . S
H1247 C1228 0.913 . S
H1248 C1266 0.951 . S
H1249 C1268 0.951 . S
H1250 C1270 0.950 . S
H1251 C1271 0.950 . S
H1252 C1273 0.950 . S
H1253 C1276 0.950 . S
H1254 C1277 0.950 . S
H1255 C1279 0.950 . S
H1256 C1280 0.950 . S
H1257 C1281 0.951 . S
H1258 C1283 0.951 . S
H1259 C1285 0.950 . S
H1260 C1286 0.950 . S
H1261 C1288 0.950 . S
H1262 C1291 0.950 . S
H1263 C1292 0.950 . S
H1264 C1294 0.950 . S
H1265 C1295 0.950 . S
C1266 H1248 0.951 . S
C1266 C1267 1.366 . S
C1266 C1268 1.388 . S
C1267 C1266 1.366 . S
C1267 C1271 1.385 . S
C1268 H1249 0.951 . S
C1268 C1266 1.388 . S
C1268 C1269 1.366 . S
C1269 C1268 1.366 . S
C1269 C1270 1.414 . S
C1269 C1272 1.499 . S
C1270 H1250 0.950 . S
C1270 C1269 1.414 . S
C1270 C1271 1.374 . S
C1271 H1251 0.950 . S
C1271 C1267 1.385 . S
C1271 C1270 1.374 . S
C1272 C1269 1.499 . S
C1272 C1273 1.373 . S
C1272 C1274 1.389 . S
C1273 H1252 0.950 . S
C1273 C1272 1.373 . S
C1273 C1289 1.377 1_655 S
C1274 C1272 1.389 . S
C1274 C1275 1.524 . S
C1274 C1288 1.377 1_655 S
C1275 C1274 1.524 . S
C1275 C1276 1.397 . S
C1275 C1280 1.363 1_655 S
C1276 H1253 0.950 . S
C1276 C1275 1.397 . S
C1276 C1277 1.334 . S
C1277 H1254 0.950 . S
C1277 C1276 1.334 . S
C1277 C1278 1.287 . S
C1278 C1277 1.287 . S
C1278 C1279 1.524 1_655 S
C1278 H1297 0.913 . S
C1279 H1255 0.950 . S
C1279 C1278 1.524 1_455 S
C1279 C1280 1.415 . S
C1280 H1256 0.950 . S
C1280 C1275 1.363 1_455 S
C1280 C1279 1.415 . S
C1281 H1257 0.951 . S
C1281 C1282 1.366 . S
C1281 C1283 1.388 . S
C1282 C1281 1.366 . S
C1282 C1286 1.385 . S
C1283 H1258 0.951 . S
C1283 C1281 1.388 . S
C1283 C1284 1.366 . S
C1284 C1283 1.366 . S
C1284 C1285 1.414 . S
C1284 C1287 1.499 . S
C1285 H1259 0.950 . S
C1285 C1284 1.414 . S
C1285 C1286 1.374 . S
C1286 H1260 0.950 . S
C1286 C1282 1.385 . S
C1286 C1285 1.374 . S
C1287 C1284 1.499 . S
C1287 C1288 1.373 . S
C1287 C1289 1.389 . S
C1288 H1261 0.950 . S
C1288 C1274 1.377 1_455 S
C1288 C1287 1.373 . S
C1289 C1273 1.377 1_455 S
C1289 C1287 1.389 . S
C1289 C1290 1.524 . S
C1290 C1289 1.524 . S
C1290 C1291 1.397 . S
C1290 C1295 1.363 1_455 S
C1291 H1262 0.950 . S
C1291 C1290 1.397 . S
C1291 C1292 1.334 . S
C1292 H1263 0.950 . S
C1292 C1291 1.334 . S
C1292 C1293 1.287 . S
C1293 C1292 1.287 . S
C1293 C1294 1.524 1_455 S
C1293 H1296 0.999 . S
C1294 H1264 0.950 . S
C1294 C1293 1.524 1_655 S
C1294 C1295 1.415 . S
C1295 H1265 0.950 . S
C1295 C1290 1.363 1_655 S
C1295 C1294 1.415 . S
H1296 C1293 0.999 . S
H1297 C1278 0.913 . S
H1298 C1316 0.951 . S
H1299 C1318 0.951 . S
H1300 C1320 0.950 . S
H1301 C1321 0.950 . S
H1302 C1323 0.950 . S
H1303 C1326 0.950 . S
H1304 C1327 0.950 . S
H1305 C1329 0.950 . S
H1306 C1330 0.950 1_545 S
H1307 C1331 0.951 . S
H1308 C1333 0.951 . S
H1309 C1335 0.950 . S
H1310 C1336 0.950 . S
H1311 C1338 0.950 . S
H1312 C1341 0.950 . S
H1313 C1342 0.950 . S
H1314 C1344 0.950 . S
H1315 C1345 0.950 1_565 S
C1316 H1298 0.951 . S
C1316 C1317 1.366 . S
C1316 C1318 1.388 . S
C1317 C1316 1.366 . S
C1317 C1321 1.385 . S
C1318 H1299 0.951 . S
C1318 C1316 1.388 . S
C1318 C1319 1.366 . S
C1319 C1318 1.366 . S
C1319 C1320 1.414 . S
C1319 C1322 1.499 . S
C1320 H1300 0.950 . S
C1320 C1319 1.414 . S
C1320 C1321 1.374 . S
C1321 H1301 0.950 . S
C1321 C1317 1.385 . S
C1321 C1320 1.374 . S
C1322 C1319 1.499 . S
C1322 C1323 1.373 . S
C1322 C1324 1.389 . S
C1323 H1302 0.950 . S
C1323 C1322 1.373 . S
C1323 C1339 1.377 1_565 S
C1324 C1322 1.389 . S
C1324 C1325 1.524 . S
C1324 C1338 1.377 1_565 S
C1325 C1324 1.524 . S
C1325 C1326 1.397 . S
C1325 C1330 1.363 . S
C1326 H1303 0.950 . S
C1326 C1325 1.397 . S
C1326 C1327 1.334 . S
C1327 H1304 0.950 . S
C1327 C1326 1.334 . S
C1327 C1328 1.287 . S
C1328 C1327 1.287 . S
C1328 C1329 1.524 . S
C1328 H1347 0.913 . S
C1329 H1305 0.950 . S
C1329 C1328 1.524 . S
C1329 C1330 1.415 . S
C1330 H1306 0.950 1_565 S
C1330 C1325 1.363 . S
C1330 C1329 1.415 . S
C1331 H1307 0.951 . S
C1331 C1332 1.366 . S
C1331 C1333 1.388 . S
C1332 C1331 1.366 . S
C1332 C1336 1.385 . S
C1333 H1308 0.951 . S
C1333 C1331 1.388 . S
C1333 C1334 1.366 . S
C1334 C1333 1.366 . S
C1334 C1335 1.414 . S
C1334 C1337 1.499 . S
C1335 H1309 0.950 . S
C1335 C1334 1.414 . S
C1335 C1336 1.374 . S
C1336 H1310 0.950 . S
C1336 C1332 1.385 . S
C1336 C1335 1.374 . S
C1337 C1334 1.499 . S
C1337 C1338 1.373 . S
C1337 C1339 1.389 . S
C1338 H1311 0.950 . S
C1338 C1324 1.377 1_545 S
C1338 C1337 1.373 . S
C1339 C1323 1.377 1_545 S
C1339 C1337 1.389 . S
C1339 C1340 1.524 . S
C1340 C1339 1.524 . S
C1340 C1341 1.397 . S
C1340 C1345 1.363 . S
C1341 H1312 0.950 . S
C1341 C1340 1.397 . S
C1341 C1342 1.334 . S
C1342 H1313 0.950 . S
C1342 C1341 1.334 . S
C1342 C1343 1.287 . S
C1343 C1342 1.287 . S
C1343 C1344 1.524 . S
C1343 H1346 0.999 . S
C1344 H1314 0.950 . S
C1344 C1343 1.524 . S
C1344 C1345 1.415 . S
C1345 H1315 0.950 1_545 S
C1345 C1340 1.363 . S
C1345 C1344 1.415 . S
H1346 C1343 0.999 . S
H1347 C1328 0.913 . S
H1348 C1366 0.951 . S
H1349 C1368 0.951 . S
H1350 C1370 0.950 . S
H1351 C1371 0.950 . S
H1352 C1373 0.950 1_545 S
H1353 C1376 0.950 . S
H1354 C1377 0.927 1_556 S
H1355 C1379 0.950 . S
H1356 C1380 0.950 . S
H1357 C1381 0.951 . S
H1358 C1383 0.951 . S
H1359 C1385 0.950 . S
H1360 C1386 0.950 . S
H1361 C1388 0.950 1_565 S
H1362 C1391 0.950 . S
H1363 C1392 0.918 1_554 S
H1364 C1394 0.950 . S
H1365 C1395 0.950 . S
C1366 H1348 0.951 . S
C1366 C1367 1.366 1_554 S
C1366 C1368 1.388 . S
C1367 C1366 1.366 1_556 S
C1367 C1371 1.385 . S
C1368 H1349 0.951 . S
C1368 C1366 1.388 . S
C1368 C1369 1.366 1_554 S
C1369 C1368 1.366 1_556 S
C1369 C1370 1.414 . S
C1369 C1372 1.499 . S
C1370 H1350 0.950 . S
C1370 C1369 1.414 . S
C1370 C1371 1.374 . S
C1371 H1351 0.950 . S
C1371 C1367 1.385 . S
C1371 C1370 1.374 . S
C1372 C1369 1.499 . S
C1372 C1373 1.373 . S
C1372 C1374 1.389 1_456 S
C1373 H1352 0.950 1_565 S
C1373 C1372 1.373 . S
C1373 C1389 1.377 1_565 S
C1374 C1372 1.389 1_654 S
C1374 C1375 1.524 . S
C1374 C1388 1.377 1_565 S
C1375 C1374 1.524 . S
C1375 C1376 1.397 1_554 S
C1375 C1380 1.363 . S
C1376 H1353 0.950 . S
C1376 C1375 1.397 1_556 S
C1376 C1377 1.329 1_556 S
C1377 H1354 0.927 1_554 S
C1377 C1376 1.329 1_554 S
C1377 C1378 1.317 . S
C1378 C1377 1.317 . S
C1378 C1379 1.524 . S
C1378 H1397 0.913 . S
C1379 H1355 0.950 . S
C1379 C1378 1.524 . S
C1379 C1380 1.415 . S
C1380 H1356 0.950 . S
C1380 C1375 1.363 . S
C1380 C1379 1.415 . S
C1381 H1357 0.951 . S
C1381 C1382 1.366 1_556 S
C1381 C1383 1.388 . S
C1382 C1381 1.366 1_554 S
C1382 C1386 1.385 . S
C1383 H1358 0.951 . S
C1383 C1381 1.388 . S
C1383 C1384 1.366 1_556 S
C1384 C1383 1.366 1_554 S
C1384 C1385 1.414 . S
C1384 C1387 1.499 . S
C1385 H1359 0.950 . S
C1385 C1384 1.414 . S
C1385 C1386 1.374 . S
C1386 H1360 0.950 . S
C1386 C1382 1.385 . S
C1386 C1385 1.374 . S
C1387 C1384 1.499 . S
C1387 C1388 1.373 . S
C1387 C1389 1.389 1_654 S
C1388 H1361 0.950 1_545 S
C1388 C1374 1.377 1_545 S
C1388 C1387 1.373 . S
C1389 C1373 1.377 1_545 S
C1389 C1387 1.389 1_456 S
C1389 C1390 1.524 . S
C1390 C1389 1.524 . S
C1390 C1391 1.397 1_556 S
C1390 C1395 1.363 . S
C1391 H1362 0.950 . S
C1391 C1390 1.397 1_554 S
C1391 C1392 1.327 1_554 S
C1392 H1363 0.918 1_556 S
C1392 C1391 1.327 1_556 S
C1392 C1393 1.330 . S
C1393 C1392 1.330 . S
C1393 C1394 1.524 . S
C1393 H1396 0.999 . S
C1394 H1364 0.950 . S
C1394 C1393 1.524 . S
C1394 C1395 1.415 . S
C1395 H1365 0.950 . S
C1395 C1390 1.363 . S
C1395 C1394 1.415 . S
H1396 C1393 0.999 . S
H1397 C1378 0.913 . S
H1398 C1416 0.951 . S
H1399 C1418 0.951 . S
H1400 C1420 0.950 . S
H1401 C1421 0.950 . S
H1402 C1423 0.950 . S
H1403 C1426 0.950 . S
H1404 C1427 0.950 . S
H1405 C1429 0.950 . S
H1406 C1430 0.950 . S
H1407 C1431 0.951 . S
H1408 C1433 0.951 . S
H1409 C1435 0.950 . S
H1410 C1436 0.950 . S
H1411 C1438 0.950 . S
H1412 C1441 0.950 . S
H1413 C1442 0.950 . S
H1414 C1444 0.950 . S
H1415 C1445 0.950 . S
C1416 H1398 0.951 . S
C1416 C1417 1.366 . S
C1416 C1418 1.388 . S
C1417 C1416 1.366 . S
C1417 C1421 1.385 1_554 S
C1418 H1399 0.951 . S
C1418 C1416 1.388 . S
C1418 C1419 1.399 . S
C1419 C1418 1.399 . S
C1419 C1420 1.382 1_554 S
C1419 C1422 1.497 1_554 S
C1420 H1400 0.950 . S
C1420 C1419 1.382 1_556 S
C1420 C1421 1.374 . S
C1421 H1401 0.950 . S
C1421 C1417 1.385 1_556 S
C1421 C1420 1.374 . S
C1422 C1419 1.497 1_556 S
C1422 C1423 1.379 . S
C1422 C1424 1.383 1_556 S
C1423 H1402 0.950 . S
C1423 C1422 1.379 . S
C1423 C1439 1.377 . S
C1424 C1422 1.383 1_554 S
C1424 C1425 1.524 . S
C1424 C1438 1.377 . S
C1425 C1424 1.524 . S
C1425 C1426 1.397 1_554 S
C1425 C1430 1.363 . S
C1426 H1403 0.950 . S
C1426 C1425 1.397 1_556 S
C1426 C1427 1.334 . S
C1427 H1404 0.950 . S
C1427 C1426 1.334 . S
C1427 C1428 1.287 1_556 S
C1428 C1427 1.287 1_554 S
C1428 C1429 1.524 . S
C1428 H1447 0.913 . S
C1429 H1405 0.950 . S
C1429 C1428 1.524 . S
C1429 C1430 1.415 . S
C1430 H1406 0.950 . S
C1430 C1425 1.363 . S
C1430 C1429 1.415 . S
C1431 H1407 0.951 . S
C1431 C1432 1.366 . S
C1431 C1433 1.388 . S
C1432 C1431 1.366 . S
C1432 C1436 1.385 1_556 S
C1433 H1408 0.951 . S
C1433 C1431 1.388 . S
C1433 C1434 1.387 . S
C1434 C1433 1.387 . S
C1434 C1435 1.393 1_556 S
C1434 C1437 1.497 1_556 S
C1435 H1409 0.950 . S
C1435 C1434 1.393 1_554 S
C1435 C1436 1.374 . S
C1436 H1410 0.950 . S
C1436 C1432 1.385 1_554 S
C1436 C1435 1.374 . S
C1437 C1434 1.497 1_554 S
C1437 C1438 1.383 . S
C1437 C1439 1.380 1_554 S
C1438 H1411 0.950 . S
C1438 C1424 1.377 . S
C1438 C1437 1.383 . S
C1439 C1423 1.377 . S
C1439 C1437 1.380 1_556 S
C1439 C1440 1.524 . S
C1440 C1439 1.524 . S
C1440 C1441 1.397 1_556 S
C1440 C1445 1.363 . S
C1441 H1412 0.950 . S
C1441 C1440 1.397 1_554 S
C1441 C1442 1.334 . S
C1442 H1413 0.950 . S
C1442 C1441 1.334 . S
C1442 C1443 1.287 1_554 S
C1443 C1442 1.287 1_556 S
C1443 C1444 1.524 . S
C1443 H1446 0.999 . S
C1444 H1414 0.950 . S
C1444 C1443 1.524 . S
C1444 C1445 1.415 . S
C1445 H1415 0.950 . S
C1445 C1440 1.363 . S
C1445 C1444 1.415 . S
H1446 C1443 0.999 . S
H1447 C1428 0.913 . S
H1448 C1466 0.951 . S
H1449 C1468 0.951 . S
H1450 C1470 0.950 . S
H1451 C1471 0.950 . S
H1452 C1473 0.950 . S
H1453 C1476 0.950 . S
H1454 C1477 0.950 . S
H1455 C1479 0.950 . S
H1456 C1480 0.950 . S
H1457 C1481 0.951 . S
H1458 C1483 0.951 . S
H1459 C1485 0.950 . S
H1460 C1486 0.950 . S
H1461 C1488 0.950 . S
H1462 C1491 0.950 . S
H1463 C1492 0.950 . S
H1464 C1494 0.950 . S
H1465 C1495 0.950 . S
C1466 H1448 0.951 . S
C1466 C1467 1.366 . S
C1466 C1468 1.388 . S
C1467 C1466 1.366 . S
C1467 C1471 1.385 . S
C1468 H1449 0.951 . S
C1468 C1466 1.388 . S
C1468 C1469 1.366 . S
C1469 C1468 1.366 . S
C1469 C1470 1.414 . S
C1469 C1472 1.499 . S
C1470 H1450 0.950 . S
C1470 C1469 1.414 . S
C1470 C1471 1.374 . S
C1471 H1451 0.950 . S
C1471 C1467 1.385 . S
C1471 C1470 1.374 . S
C1472 C1469 1.499 . S
C1472 C1473 1.380 . S
C1472 C1474 1.389 . S
C1473 H1452 0.950 . S
C1473 C1472 1.380 . S
C1473 C1489 1.369 1_655 S
C1474 C1472 1.389 . S
C1474 C1475 1.524 . S
C1474 C1488 1.367 1_655 S
C1475 C1474 1.524 . S
C1475 C1476 1.397 . S
C1475 C1480 1.363 . S
C1476 H1453 0.950 . S
C1476 C1475 1.397 . S
C1476 C1477 1.334 . S
C1477 H1454 0.950 . S
C1477 C1476 1.334 . S
C1477 C1478 1.287 . S
C1478 C1477 1.287 . S
C1478 C1479 1.524 . S
C1478 H1497 0.913 . S
C1479 H1455 0.950 . S
C1479 C1478 1.524 . S
C1479 C1480 1.415 . S
C1480 H1456 0.950 . S
C1480 C1475 1.363 . S
C1480 C1479 1.415 . S
C1481 H1457 0.951 . S
C1481 C1482 1.366 . S
C1481 C1483 1.388 . S
C1482 C1481 1.366 . S
C1482 C1486 1.385 . S
C1483 H1458 0.951 . S
C1483 C1481 1.388 . S
C1483 C1484 1.366 . S
C1484 C1483 1.366 . S
C1484 C1485 1.414 . S
C1484 C1487 1.499 . S
C1485 H1459 0.950 . S
C1485 C1484 1.414 . S
C1485 C1486 1.374 . S
C1486 H1460 0.950 . S
C1486 C1482 1.385 . S
C1486 C1485 1.374 . S
C1487 C1484 1.499 . S
C1487 C1488 1.382 . S
C1487 C1489 1.389 . S
C1488 H1461 0.950 . S
C1488 C1474 1.367 1_455 S
C1488 C1487 1.382 . S
C1489 C1473 1.369 1_455 S
C1489 C1487 1.389 . S
C1489 C1490 1.524 . S
C1490 C1489 1.524 . S
C1490 C1491 1.397 . S
C1490 C1495 1.363 . S
C1491 H1462 0.950 . S
C1491 C1490 1.397 . S
C1491 C1492 1.334 . S
C1492 H1463 0.950 . S
C1492 C1491 1.334 . S
C1492 C1493 1.287 . S
C1493 C1492 1.287 . S
C1493 C1494 1.524 . S
C1493 H1496 0.999 . S
C1494 H1464 0.950 . S
C1494 C1493 1.524 . S
C1494 C1495 1.415 . S
C1495 H1465 0.950 . S
C1495 C1490 1.363 . S
C1495 C1494 1.415 . S
H1496 C1493 0.999 . S
H1497 C1478 0.913 . S
H1498 C1516 0.951 . S
H1499 C1518 0.951 . S
H1500 C1520 0.950 . S
H1501 C1521 0.950 . S
H1502 C1523 0.950 . S
H1503 C1526 0.950 . S
H1504 C1527 0.950 . S
H1505 C1529 0.950 1_545 S
H1506 C1530 0.950 . S
H1507 C1531 0.951 . S
H1508 C1533 0.951 . S
H1509 C1535 0.950 . S
H1510 C1536 0.950 . S
H1511 C1538 0.950 . S
H1512 C1541 0.950 . S
H1513 C1542 0.950 . S
H1514 C1544 0.950 1_565 S
H1515 C1545 0.950 . S
C1516 H1498 0.951 . S
C1516 C1517 1.366 . S
C1516 C1518 1.388 . S
C1517 C1516 1.366 . S
C1517 C1521 1.385 . S
C1518 H1499 0.951 . S
C1518 C1516 1.388 . S
C1518 C1519 1.366 . S
C1519 C1518 1.366 . S
C1519 C1520 1.414 . S
C1519 C1522 1.499 . S
C1520 H1500 0.950 . S
C1520 C1519 1.414 . S
C1520 C1521 1.374 . S
C1521 H1501 0.950 . S
C1521 C1517 1.385 . S
C1521 C1520 1.374 . S
C1522 C1519 1.499 . S
C1522 C1523 1.373 . S
C1522 C1524 1.389 . S
C1523 H1502 0.950 . S
C1523 C1522 1.373 . S
C1523 C1539 1.377 1_565 S
C1524 C1522 1.389 . S
C1524 C1525 1.524 . S
C1524 C1538 1.377 1_565 S
C1525 C1524 1.524 . S
C1525 C1526 1.397 . S
C1525 C1530 1.363 1_565 S
C1526 H1503 0.950 . S
C1526 C1525 1.397 . S
C1526 C1527 1.334 . S
C1527 H1504 0.950 . S
C1527 C1526 1.334 . S
C1527 C1528 1.287 . S
C1528 C1527 1.287 . S
C1528 C1529 1.524 . S
C1528 H1547 0.913 . S
C1529 H1505 0.950 1_565 S
C1529 C1528 1.524 . S
C1529 C1530 1.415 1_565 S
C1530 H1506 0.950 . S
C1530 C1525 1.363 1_545 S
C1530 C1529 1.415 1_545 S
C1531 H1507 0.951 . S
C1531 C1532 1.366 . S
C1531 C1533 1.388 . S
C1532 C1531 1.366 . S
C1532 C1536 1.385 . S
C1533 H1508 0.951 . S
C1533 C1531 1.388 . S
C1533 C1534 1.366 . S
C1534 C1533 1.366 . S
C1534 C1535 1.414 . S
C1534 C1537 1.499 . S
C1535 H1509 0.950 . S
C1535 C1534 1.414 . S
C1535 C1536 1.374 . S
C1536 H1510 0.950 . S
C1536 C1532 1.385 . S
C1536 C1535 1.374 . S
C1537 C1534 1.499 . S
C1537 C1538 1.373 . S
C1537 C1539 1.389 . S
C1538 H1511 0.950 . S
C1538 C1524 1.377 1_545 S
C1538 C1537 1.373 . S
C1539 C1523 1.377 1_545 S
C1539 C1537 1.389 . S
C1539 C1540 1.524 . S
C1540 C1539 1.524 . S
C1540 C1541 1.397 . S
C1540 C1545 1.363 1_545 S
C1541 H1512 0.950 . S
C1541 C1540 1.397 . S
C1541 C1542 1.334 . S
C1542 H1513 0.950 . S
C1542 C1541 1.334 . S
C1542 C1543 1.287 . S
C1543 C1542 1.287 . S
C1543 C1544 1.524 . S
C1543 H1546 0.999 . S
C1544 H1514 0.950 1_545 S
C1544 C1543 1.524 . S
C1544 C1545 1.415 1_545 S
C1545 H1515 0.950 . S
C1545 C1540 1.363 1_565 S
C1545 C1544 1.415 1_565 S
H1546 C1543 0.999 . S
H1547 C1528 0.913 . S
H1548 C1566 0.951 . S
H1549 C1568 0.951 . S
H1550 C1570 0.950 . S
H1551 C1571 0.950 . S
H1552 C1573 0.953 . S
H1553 C1576 0.950 . S
H1554 C1577 0.950 . S
H1555 C1579 0.950 1_554 S
H1556 C1580 0.950 . S
H1557 C1581 0.951 . S
H1558 C1583 0.951 . S
H1559 C1585 0.950 . S
H1560 C1586 0.950 . S
H1561 C1588 0.955 . S
H1562 C1591 0.950 . S
H1563 C1592 0.950 . S
H1564 C1594 0.950 1_556 S
H1565 C1595 0.950 . S
C1566 H1548 0.951 . S
C1566 C1567 1.366 1_554 S
C1566 C1568 1.388 . S
C1567 C1566 1.366 1_556 S
C1567 C1571 1.385 . S
C1568 H1549 0.951 . S
C1568 C1566 1.388 . S
C1568 C1569 1.366 1_554 S
C1569 C1568 1.366 1_556 S
C1569 C1570 1.414 . S
C1569 C1572 1.499 . S
C1570 H1550 0.950 . S
C1570 C1569 1.414 . S
C1570 C1571 1.374 . S
C1571 H1551 0.950 . S
C1571 C1567 1.385 . S
C1571 C1570 1.374 . S
C1572 C1569 1.499 . S
C1572 C1573 1.368 1_556 S
C1572 C1574 1.389 . S
C1573 H1552 0.953 . S
C1573 C1572 1.368 1_554 S
C1573 C1589 1.382 . S
C1574 C1572 1.389 . S
C1574 C1575 1.524 . S
C1574 C1588 1.384 . S
C1575 C1574 1.524 . S
C1575 C1576 1.397 . S
C1575 C1580 1.363 1_556 S
C1576 H1553 0.950 . S
C1576 C1575 1.397 . S
C1576 C1577 1.334 . S
C1577 H1554 0.950 . S
C1577 C1576 1.334 . S
C1577 C1578 1.287 . S
C1578 C1577 1.287 . S
C1578 C1579 1.524 . S
C1578 H1597 0.913 . S
C1579 H1555 0.950 1_556 S
C1579 C1578 1.524 . S
C1579 C1580 1.415 1_556 S
C1580 H1556 0.950 . S
C1580 C1575 1.363 1_554 S
C1580 C1579 1.415 1_554 S
C1581 H1557 0.951 . S
C1581 C1582 1.366 1_556 S
C1581 C1583 1.388 . S
C1582 C1581 1.366 1_554 S
C1582 C1586 1.385 . S
C1583 H1558 0.951 . S
C1583 C1581 1.388 . S
C1583 C1584 1.366 1_556 S
C1584 C1583 1.366 1_554 S
C1584 C1585 1.414 . S
C1584 C1587 1.499 . S
C1585 H1559 0.950 . S
C1585 C1584 1.414 . S
C1585 C1586 1.374 . S
C1586 H1560 0.950 . S
C1586 C1582 1.385 . S
C1586 C1585 1.374 . S
C1587 C1584 1.499 . S
C1587 C1588 1.366 1_554 S
C1587 C1589 1.389 . S
C1588 H1561 0.955 . S
C1588 C1574 1.384 . S
C1588 C1587 1.366 1_556 S
C1589 C1573 1.382 . S
C1589 C1587 1.389 . S
C1589 C1590 1.524 . S
C1590 C1589 1.524 . S
C1590 C1591 1.397 . S
C1590 C1595 1.363 1_554 S
C1591 H1562 0.950 . S
C1591 C1590 1.397 . S
C1591 C1592 1.334 . S
C1592 H1563 0.950 . S
C1592 C1591 1.334 . S
C1592 C1593 1.287 . S
C1593 C1592 1.287 . S
C1593 C1594 1.524 . S
C1593 H1596 0.999 . S
C1594 H1564 0.950 1_554 S
C1594 C1593 1.524 . S
C1594 C1595 1.415 1_554 S
C1595 H1565 0.950 . S
C1595 C1590 1.363 1_556 S
C1595 C1594 1.415 1_556 S
H1596 C1593 0.999 . S
H1597 C1578 0.913 . S
H1598 C1616 0.951 . S
H1599 C1618 0.951 . S
H1600 C1620 0.950 . S
H1601 C1621 0.950 . S
H1602 C1623 0.950 . S
H1603 C1626 0.950 . S
H1604 C1627 0.950 . S
H1605 C1629 0.950 . S
H1606 C1630 0.950 . S
H1607 C1631 0.951 . S
H1608 C1633 0.951 . S
H1609 C1635 0.950 . S
H1610 C1636 0.950 . S
H1611 C1638 0.950 . S
H1612 C1641 0.950 . S
H1613 C1642 0.950 . S
H1614 C1644 0.950 . S
H1615 C1645 0.950 . S
C1616 H1598 0.951 . S
C1616 C1617 1.366 . S
C1616 C1618 1.388 . S
C1617 C1616 1.366 . S
C1617 C1621 1.385 . S
C1618 H1599 0.951 . S
C1618 C1616 1.388 . S
C1618 C1619 1.366 . S
C1619 C1618 1.366 . S
C1619 C1620 1.414 . S
C1619 C1622 1.499 . S
C1620 H1600 0.950 . S
C1620 C1619 1.414 . S
C1620 C1621 1.374 . S
C1621 H1601 0.950 . S
C1621 C1617 1.385 . S
C1621 C1620 1.374 . S
C1622 C1619 1.499 . S
C1622 C1623 1.373 . S
C1622 C1624 1.389 . S
C1623 H1602 0.950 . S
C1623 C1622 1.373 . S
C1623 C1639 1.377 . S
C1624 C1622 1.389 . S
C1624 C1625 1.524 . S
C1624 C1638 1.377 . S
C1625 C1624 1.524 . S
C1625 C1626 1.397 . S
C1625 C1630 1.363 . S
C1626 H1603 0.950 . S
C1626 C1625 1.397 . S
C1626 C1627 1.334 . S
C1627 H1604 0.950 . S
C1627 C1626 1.334 . S
C1627 C1628 1.287 . S
C1628 C1627 1.287 . S
C1628 C1629 1.524 . S
C1628 H1647 0.913 . S
C1629 H1605 0.950 . S
C1629 C1628 1.524 . S
C1629 C1630 1.415 . S
C1630 H1606 0.950 . S
C1630 C1625 1.363 . S
C1630 C1629 1.415 . S
C1631 H1607 0.951 . S
C1631 C1632 1.366 . S
C1631 C1633 1.388 . S
C1632 C1631 1.366 . S
C1632 C1636 1.385 . S
C1633 H1608 0.951 . S
C1633 C1631 1.388 . S
C1633 C1634 1.366 . S
C1634 C1633 1.366 . S
C1634 C1635 1.414 . S
C1634 C1637 1.499 . S
C1635 H1609 0.950 . S
C1635 C1634 1.414 . S
C1635 C1636 1.374 . S
C1636 H1610 0.950 . S
C1636 C1632 1.385 . S
C1636 C1635 1.374 . S
C1637 C1634 1.499 . S
C1637 C1638 1.373 . S
C1637 C1639 1.389 . S
C1638 H1611 0.950 . S
C1638 C1624 1.377 . S
C1638 C1637 1.373 . S
C1639 C1623 1.377 . S
C1639 C1637 1.389 . S
C1639 C1640 1.524 . S
C1640 C1639 1.524 . S
C1640 C1641 1.397 . S
C1640 C1645 1.363 . S
C1641 H1612 0.950 . S
C1641 C1640 1.397 . S
C1641 C1642 1.334 . S
C1642 H1613 0.950 . S
C1642 C1641 1.334 . S
C1642 C1643 1.287 . S
C1643 C1642 1.287 . S
C1643 C1644 1.524 . S
C1643 H1646 0.999 . S
C1644 H1614 0.950 . S
C1644 C1643 1.524 . S
C1644 C1645 1.415 . S
C1645 H1615 0.950 . S
C1645 C1640 1.363 . S
C1645 C1644 1.415 . S
H1646 C1643 0.999 . S
H1647 C1628 0.913 . S
H1648 C1666 0.951 . S
H1649 C1668 0.951 . S
H1650 C1670 0.950 . S
H1651 C1671 0.950 . S
H1652 C1673 0.950 . S
H1653 C1676 0.950 . S
H1654 C1677 0.950 . S
H1655 C1679 0.950 . S
H1656 C1680 0.950 . S
H1657 C1681 0.951 . S
H1658 C1683 0.951 . S
H1659 C1685 0.950 . S
H1660 C1686 0.950 . S
H1661 C1688 0.950 . S
H1662 C1691 0.950 . S
H1663 C1692 0.950 . S
H1664 C1694 0.950 . S
H1665 C1695 0.950 . S
C1666 H1648 0.951 . S
C1666 C1667 1.366 . S
C1666 C1668 1.388 . S
C1667 C1666 1.366 . S
C1667 C1671 1.385 . S
C1668 H1649 0.951 . S
C1668 C1666 1.388 . S
C1668 C1669 1.366 . S
C1669 C1668 1.366 . S
C1669 C1670 1.414 . S
C1669 C1672 1.499 . S
C1670 H1650 0.950 . S
C1670 C1669 1.414 . S
C1670 C1671 1.374 . S
C1671 H1651 0.950 . S
C1671 C1667 1.385 . S
C1671 C1670 1.374 . S
C1672 C1669 1.499 . S
C1672 C1673 1.373 1_655 S
C1672 C1674 1.389 . S
C1673 H1652 0.950 . S
C1673 C1672 1.373 1_455 S
C1673 C1689 1.377 . S
C1674 C1672 1.389 . S
C1674 C1675 1.524 . S
C1674 C1688 1.377 . S
C1675 C1674 1.524 . S
C1675 C1676 1.397 . S
C1675 C1680 1.363 . S
C1676 H1653 0.950 . S
C1676 C1675 1.397 . S
C1676 C1677 1.334 . S
C1677 H1654 0.950 . S
C1677 C1676 1.334 . S
C1677 C1678 1.287 . S
C1678 C1677 1.287 . S
C1678 C1679 1.524 . S
C1678 H1697 0.913 . S
C1679 H1655 0.950 . S
C1679 C1678 1.524 . S
C1679 C1680 1.415 . S
C1680 H1656 0.950 . S
C1680 C1675 1.363 . S
C1680 C1679 1.415 . S
C1681 H1657 0.951 . S
C1681 C1682 1.366 . S
C1681 C1683 1.388 . S
C1682 C1681 1.366 . S
C1682 C1686 1.385 . S
C1683 H1658 0.951 . S
C1683 C1681 1.388 . S
C1683 C1684 1.366 . S
C1684 C1683 1.366 . S
C1684 C1685 1.414 . S
C1684 C1687 1.499 . S
C1685 H1659 0.950 . S
C1685 C1684 1.414 . S
C1685 C1686 1.374 . S
C1686 H1660 0.950 . S
C1686 C1682 1.385 . S
C1686 C1685 1.374 . S
C1687 C1684 1.499 . S
C1687 C1688 1.373 1_455 S
C1687 C1689 1.389 . S
C1688 H1661 0.950 . S
C1688 C1674 1.377 . S
C1688 C1687 1.373 1_655 S
C1689 C1673 1.377 . S
C1689 C1687 1.389 . S
C1689 C1690 1.524 . S
C1690 C1689 1.524 . S
C1690 C1691 1.397 . S
C1690 C1695 1.363 . S
C1691 H1662 0.950 . S
C1691 C1690 1.397 . S
C1691 C1692 1.334 . S
C1692 H1663 0.950 . S
C1692 C1691 1.334 . S
C1692 C1693 1.287 . S
C1693 C1692 1.287 . S
C1693 C1694 1.524 . S
C1693 H1696 0.999 . S
C1694 H1664 0.950 . S
C1694 C1693 1.524 . S
C1694 C1695 1.415 . S
C1695 H1665 0.950 . S
C1695 C1690 1.363 . S
C1695 C1694 1.415 . S
H1696 C1693 0.999 . S
H1697 C1678 0.913 . S
H1698 C1716 0.951 . S
H1699 C1718 0.951 . S
H1700 C1720 0.950 . S
H1701 C1721 0.950 . S
H1702 C1723 0.950 . S
H1703 C1726 0.950 . S
H1704 C1727 0.950 . S
H1705 C1729 0.950 . S
H1706 C1730 0.950 . S
H1707 C1731 0.951 . S
H1708 C1733 0.951 . S
H1709 C1735 0.950 . S
H1710 C1736 0.950 . S
H1711 C1738 0.950 . S
H1712 C1741 0.950 . S
H1713 C1742 0.950 . S
H1714 C1744 0.950 . S
H1715 C1745 0.950 . S
C1716 H1698 0.951 . S
C1716 C1717 1.366 . S
C1716 C1718 1.388 . S
C1717 C1716 1.366 . S
C1717 C1721 1.385 . S
C1718 H1699 0.951 . S
C1718 C1716 1.388 . S
C1718 C1719 1.366 . S
C1719 C1718 1.366 . S
C1719 C1720 1.414 . S
C1719 C1722 1.499 . S
C1720 H1700 0.950 . S
C1720 C1719 1.414 . S
C1720 C1721 1.374 . S
C1721 H1701 0.950 . S
C1721 C1717 1.385 . S
C1721 C1720 1.374 . S
C1722 C1719 1.499 . S
C1722 C1723 1.373 . S
C1722 C1724 1.389 . S
C1723 H1702 0.950 . S
C1723 C1722 1.373 . S
C1723 C1739 1.377 . S
C1724 C1722 1.389 . S
C1724 C1725 1.524 . S
C1724 C1738 1.377 . S
C1725 C1724 1.524 . S
C1725 C1726 1.397 . S
C1725 C1730 1.363 . S
C1726 H1703 0.950 . S
C1726 C1725 1.397 . S
C1726 C1727 1.334 . S
C1727 H1704 0.950 . S
C1727 C1726 1.334 . S
C1727 C1728 1.287 . S
C1728 C1727 1.287 . S
C1728 C1729 1.524 . S
C1728 H1747 0.913 . S
C1729 H1705 0.950 . S
C1729 C1728 1.524 . S
C1729 C1730 1.415 . S
C1730 H1706 0.950 . S
C1730 C1725 1.363 . S
C1730 C1729 1.415 . S
C1731 H1707 0.951 . S
C1731 C1732 1.366 . S
C1731 C1733 1.388 . S
C1732 C1731 1.366 . S
C1732 C1736 1.385 . S
C1733 H1708 0.951 . S
C1733 C1731 1.388 . S
C1733 C1734 1.366 . S
C1734 C1733 1.366 . S
C1734 C1735 1.414 . S
C1734 C1737 1.499 . S
C1735 H1709 0.950 . S
C1735 C1734 1.414 . S
C1735 C1736 1.374 . S
C1736 H1710 0.950 . S
C1736 C1732 1.385 . S
C1736 C1735 1.374 . S
C1737 C1734 1.499 . S
C1737 C1738 1.373 . S
C1737 C1739 1.389 . S
C1738 H1711 0.950 . S
C1738 C1724 1.377 . S
C1738 C1737 1.373 . S
C1739 C1723 1.377 . S
C1739 C1737 1.389 . S
C1739 C1740 1.524 . S
C1740 C1739 1.524 . S
C1740 C1741 1.397 . S
C1740 C1745 1.363 . S
C1741 H1712 0.950 . S
C1741 C1740 1.397 . S
C1741 C1742 1.334 . S
C1742 H1713 0.950 . S
C1742 C1741 1.334 . S
C1742 C1743 1.287 . S
C1743 C1742 1.287 . S
C1743 C1744 1.524 . S
C1743 H1746 0.999 . S
C1744 H1714 0.950 . S
C1744 C1743 1.524 . S
C1744 C1745 1.415 . S
C1745 H1715 0.950 . S
C1745 C1740 1.363 . S
C1745 C1744 1.415 . S
H1746 C1743 0.999 . S
H1747 C1728 0.913 . S
H1748 C1766 0.951 . S
H1749 C1768 0.951 . S
H1750 C1770 0.950 . S
H1751 C1771 0.950 . S
H1752 C1773 0.950 . S
H1753 C1776 0.950 . S
H1754 C1777 0.950 . S
H1755 C1779 0.950 . S
H1756 C1780 0.950 . S
H1757 C1781 0.951 . S
H1758 C1783 0.951 . S
H1759 C1785 0.950 . S
H1760 C1786 0.950 . S
H1761 C1788 0.950 . S
H1762 C1791 0.950 . S
H1763 C1792 0.950 . S
H1764 C1794 0.950 . S
H1765 C1795 0.950 . S
C1766 H1748 0.951 . S
C1766 C1767 1.366 . S
C1766 C1768 1.388 . S
C1767 C1766 1.366 . S
C1767 C1771 1.385 . S
C1768 H1749 0.951 . S
C1768 C1766 1.388 . S
C1768 C1769 1.366 . S
C1769 C1768 1.366 . S
C1769 C1770 1.414 . S
C1769 C1772 1.499 . S
C1770 H1750 0.950 . S
C1770 C1769 1.414 . S
C1770 C1771 1.374 . S
C1771 H1751 0.950 . S
C1771 C1767 1.385 . S
C1771 C1770 1.374 . S
C1772 C1769 1.499 . S
C1772 C1773 1.373 . S
C1772 C1774 1.389 . S
C1773 H1752 0.950 . S
C1773 C1772 1.373 . S
C1773 C1789 1.377 . S
C1774 C1772 1.389 . S
C1774 C1775 1.524 . S
C1774 C1788 1.377 . S
C1775 C1774 1.524 . S
C1775 C1776 1.397 . S
C1775 C1780 1.363 . S
C1776 H1753 0.950 . S
C1776 C1775 1.397 . S
C1776 C1777 1.334 . S
C1777 H1754 0.950 . S
C1777 C1776 1.334 . S
C1777 C1778 1.287 . S
C1778 C1777 1.287 . S
C1778 C1779 1.524 . S
C1778 H1797 0.913 . S
C1779 H1755 0.950 . S
C1779 C1778 1.524 . S
C1779 C1780 1.415 . S
C1780 H1756 0.950 . S
C1780 C1775 1.363 . S
C1780 C1779 1.415 . S
C1781 H1757 0.951 . S
C1781 C1782 1.366 . S
C1781 C1783 1.388 . S
C1782 C1781 1.366 . S
C1782 C1786 1.385 . S
C1783 H1758 0.951 . S
C1783 C1781 1.388 . S
C1783 C1784 1.366 . S
C1784 C1783 1.366 . S
C1784 C1785 1.414 . S
C1784 C1787 1.499 . S
C1785 H1759 0.950 . S
C1785 C1784 1.414 . S
C1785 C1786 1.374 . S
C1786 H1760 0.950 . S
C1786 C1782 1.385 . S
C1786 C1785 1.374 . S
C1787 C1784 1.499 . S
C1787 C1788 1.373 . S
C1787 C1789 1.389 . S
C1788 H1761 0.950 . S
C1788 C1774 1.377 . S
C1788 C1787 1.373 . S
C1789 C1773 1.377 . S
C1789 C1787 1.389 . S
C1789 C1790 1.524 . S
C1790 C1789 1.524 . S
C1790 C1791 1.397 . S
C1790 C1795 1.363 . S
C1791 H1762 0.950 . S
C1791 C1790 1.397 . S
C1791 C1792 1.334 . S
C1792 H1763 0.950 . S
C1792 C1791 1.334 . S
C1792 C1793 1.287 . S
C1793 C1792 1.287 . S
C1793 C1794 1.524 . S
C1793 H1796 0.999 . S
C1794 H1764 0.950 . S
C1794 C1793 1.524 . S
C1794 C1795 1.415 . S
C1795 H1765 0.950 . S
C1795 C1790 1.363 . S
C1795 C1794 1.415 . S
H1796 C1793 0.999 . S
H1797 C1778 0.913 . S
H1798 C1816 0.951 . S
H1799 C1818 0.951 . S
H1800 C1820 0.950 . S
H1801 C1821 0.950 . S
H1802 C1823 0.950 . S
H1803 C1826 0.950 . S
H1804 C1827 0.950 . S
H1805 C1829 0.950 . S
H1806 C1830 0.950 . S
H1807 C1831 0.951 . S
H1808 C1833 0.951 . S
H1809 C1835 0.950 . S
H1810 C1836 0.950 . S
H1811 C1838 0.950 . S
H1812 C1841 0.950 . S
H1813 C1842 0.950 . S
H1814 C1844 0.950 . S
H1815 C1845 0.950 . S
C1816 H1798 0.951 . S
C1816 C1817 1.366 . S
C1816 C1818 1.388 . S
C1817 C1816 1.366 . S
C1817 C1821 1.385 . S
C1818 H1799 0.951 . S
C1818 C1816 1.388 . S
C1818 C1819 1.366 . S
C1819 C1818 1.366 . S
C1819 C1820 1.414 . S
C1819 C1822 1.499 . S
C1820 H1800 0.950 . S
C1820 C1819 1.414 . S
C1820 C1821 1.374 . S
C1821 H1801 0.950 . S
C1821 C1817 1.385 . S
C1821 C1820 1.374 . S
C1822 C1819 1.499 . S
C1822 C1823 1.373 . S
C1822 C1824 1.389 . S
C1823 H1802 0.950 . S
C1823 C1822 1.373 . S
C1823 C1839 1.377 . S
C1824 C1822 1.389 . S
C1824 C1825 1.524 . S
C1824 C1838 1.377 . S
C1825 C1824 1.524 . S
C1825 C1826 1.397 . S
C1825 C1830 1.363 . S
C1826 H1803 0.950 . S
C1826 C1825 1.397 . S
C1826 C1827 1.334 . S
C1827 H1804 0.950 . S
C1827 C1826 1.334 . S
C1827 C1828 1.287 . S
C1828 C1827 1.287 . S
C1828 C1829 1.524 . S
C1828 H1847 0.913 . S
C1829 H1805 0.950 . S
C1829 C1828 1.524 . S
C1829 C1830 1.415 . S
C1830 H1806 0.950 . S
C1830 C1825 1.363 . S
C1830 C1829 1.415 . S
C1831 H1807 0.951 . S
C1831 C1832 1.366 . S
C1831 C1833 1.388 . S
C1832 C1831 1.366 . S
C1832 C1836 1.385 . S
C1833 H1808 0.951 . S
C1833 C1831 1.388 . S
C1833 C1834 1.366 . S
C1834 C1833 1.366 . S
C1834 C1835 1.414 . S
C1834 C1837 1.499 . S
C1835 H1809 0.950 . S
C1835 C1834 1.414 . S
C1835 C1836 1.374 . S
C1836 H1810 0.950 . S
C1836 C1832 1.385 . S
C1836 C1835 1.374 . S
C1837 C1834 1.499 . S
C1837 C1838 1.373 . S
C1837 C1839 1.389 . S
C1838 H1811 0.950 . S
C1838 C1824 1.377 . S
C1838 C1837 1.373 . S
C1839 C1823 1.377 . S
C1839 C1837 1.389 . S
C1839 C1840 1.524 . S
C1840 C1839 1.524 . S
C1840 C1841 1.397 . S
C1840 C1845 1.363 . S
C1841 H1812 0.950 . S
C1841 C1840 1.397 . S
C1841 C1842 1.334 . S
C1842 H1813 0.950 . S
C1842 C1841 1.334 . S
C1842 C1843 1.287 . S
C1843 C1842 1.287 . S
C1843 C1844 1.524 . S
C1843 H1846 0.999 . S
C1844 H1814 0.950 . S
C1844 C1843 1.524 . S
C1844 C1845 1.415 . S
C1845 H1815 0.950 . S
C1845 C1840 1.363 . S
C1845 C1844 1.415 . S
H1846 C1843 0.999 . S
H1847 C1828 0.913 . S
H1848 C1866 0.951 . S
H1849 C1868 0.951 . S
H1850 C1870 0.950 . S
H1851 C1871 0.950 . S
H1852 C1873 0.950 . S
H1853 C1876 0.950 . S
H1854 C1877 0.950 . S
H1855 C1879 0.950 . S
H1856 C1880 0.950 . S
H1857 C1881 0.951 . S
H1858 C1883 0.951 . S
H1859 C1885 0.950 . S
H1860 C1886 0.950 . S
H1861 C1888 0.950 . S
H1862 C1891 0.950 . S
H1863 C1892 0.950 . S
H1864 C1894 0.950 . S
H1865 C1895 0.950 . S
C1866 H1848 0.951 . S
C1866 C1867 1.366 . S
C1866 C1868 1.388 . S
C1867 C1866 1.366 . S
C1867 C1871 1.385 . S
C1868 H1849 0.951 . S
C1868 C1866 1.388 . S
C1868 C1869 1.366 . S
C1869 C1868 1.366 . S
C1869 C1870 1.414 . S
C1869 C1872 1.499 . S
C1870 H1850 0.950 . S
C1870 C1869 1.414 . S
C1870 C1871 1.374 . S
C1871 H1851 0.950 . S
C1871 C1867 1.385 . S
C1871 C1870 1.374 . S
C1872 C1869 1.499 . S
C1872 C1873 1.373 . S
C1872 C1874 1.389 . S
C1873 H1852 0.950 . S
C1873 C1872 1.373 . S
C1873 C1889 1.377 . S
C1874 C1872 1.389 . S
C1874 C1875 1.524 . S
C1874 C1888 1.377 . S
C1875 C1874 1.524 . S
C1875 C1876 1.397 . S
C1875 C1880 1.363 . S
C1876 H1853 0.950 . S
C1876 C1875 1.397 . S
C1876 C1877 1.334 . S
C1877 H1854 0.950 . S
C1877 C1876 1.334 . S
C1877 C1878 1.287 . S
C1878 C1877 1.287 . S
C1878 C1879 1.524 . S
C1878 H1897 0.913 . S
C1879 H1855 0.950 . S
C1879 C1878 1.524 . S
C1879 C1880 1.415 . S
C1880 H1856 0.950 . S
C1880 C1875 1.363 . S
C1880 C1879 1.415 . S
C1881 H1857 0.951 . S
C1881 C1882 1.366 . S
C1881 C1883 1.388 . S
C1882 C1881 1.366 . S
C1882 C1886 1.385 . S
C1883 H1858 0.951 . S
C1883 C1881 1.388 . S
C1883 C1884 1.366 . S
C1884 C1883 1.366 . S
C1884 C1885 1.414 . S
C1884 C1887 1.499 . S
C1885 H1859 0.950 . S
C1885 C1884 1.414 . S
C1885 C1886 1.374 . S
C1886 H1860 0.950 . S
C1886 C1882 1.385 . S
C1886 C1885 1.374 . S
C1887 C1884 1.499 . S
C1887 C1888 1.373 . S
C1887 C1889 1.389 . S
C1888 H1861 0.950 . S
C1888 C1874 1.377 . S
C1888 C1887 1.373 . S
C1889 C1873 1.377 . S
C1889 C1887 1.389 . S
C1889 C1890 1.524 . S
C1890 C1889 1.524 . S
C1890 C1891 1.397 . S
C1890 C1895 1.363 . S
C1891 H1862 0.950 . S
C1891 C1890 1.397 . S
C1891 C1892 1.334 . S
C1892 H1863 0.950 . S
C1892 C1891 1.334 . S
C1892 C1893 1.287 . S
C1893 C1892 1.287 . S
C1893 C1894 1.524 . S
C1893 H1896 0.999 . S
C1894 H1864 0.950 . S
C1894 C1893 1.524 . S
C1894 C1895 1.415 . S
C1895 H1865 0.950 . S
C1895 C1890 1.363 . S
C1895 C1894 1.415 . S
H1896 C1893 0.999 . S
H1897 C1878 0.913 . S
H1898 C1916 0.951 . S
H1899 C1918 0.951 . S
H1900 C1920 0.950 . S
H1901 C1921 0.950 . S
H1902 C1923 0.950 . S
H1903 C1926 0.950 . S
H1904 C1927 0.950 . S
H1905 C1929 0.950 . S
H1906 C1930 0.950 . S
H1907 C1931 0.951 . S
H1908 C1933 0.951 . S
H1909 C1935 0.950 . S
H1910 C1936 0.950 . S
H1911 C1938 0.950 . S
H1912 C1941 0.950 . S
H1913 C1942 0.950 . S
H1914 C1944 0.950 . S
H1915 C1945 0.950 . S
C1916 H1898 0.951 . S
C1916 C1917 1.366 . S
C1916 C1918 1.388 . S
C1917 C1916 1.366 . S
C1917 C1921 1.385 . S
C1918 H1899 0.951 . S
C1918 C1916 1.388 . S
C1918 C1919 1.366 . S
C1919 C1918 1.366 . S
C1919 C1920 1.414 . S
C1919 C1922 1.499 . S
C1920 H1900 0.950 . S
C1920 C1919 1.414 . S
C1920 C1921 1.374 . S
C1921 H1901 0.950 . S
C1921 C1917 1.385 . S
C1921 C1920 1.374 . S
C1922 C1919 1.499 . S
C1922 C1923 1.373 . S
C1922 C1924 1.389 . S
C1923 H1902 0.950 . S
C1923 C1922 1.373 . S
C1923 C1939 1.377 1_545 S
C1924 C1922 1.389 . S
C1924 C1925 1.524 . S
C1924 C1938 1.377 1_545 S
C1925 C1924 1.524 . S
C1925 C1926 1.397 . S
C1925 C1930 1.363 . S
C1926 H1903 0.950 . S
C1926 C1925 1.397 . S
C1926 C1927 1.334 . S
C1927 H1904 0.950 . S
C1927 C1926 1.334 . S
C1927 C1928 1.287 . S
C1928 C1927 1.287 . S
C1928 C1929 1.524 . S
C1928 H1947 0.913 . S
C1929 H1905 0.950 . S
C1929 C1928 1.524 . S
C1929 C1930 1.415 . S
C1930 H1906 0.950 . S
C1930 C1925 1.363 . S
C1930 C1929 1.415 . S
C1931 H1907 0.951 . S
C1931 C1932 1.366 . S
C1931 C1933 1.388 . S
C1932 C1931 1.366 . S
C1932 C1936 1.385 . S
C1933 H1908 0.951 . S
C1933 C1931 1.388 . S
C1933 C1934 1.366 . S
C1934 C1933 1.366 . S
C1934 C1935 1.414 . S
C1934 C1937 1.499 . S
C1935 H1909 0.950 . S
C1935 C1934 1.414 . S
C1935 C1936 1.374 . S
C1936 H1910 0.950 . S
C1936 C1932 1.385 . S
C1936 C1935 1.374 . S
C1937 C1934 1.499 . S
C1937 C1938 1.373 . S
C1937 C1939 1.389 . S
C1938 H1911 0.950 . S
C1938 C1924 1.377 1_565 S
C1938 C1937 1.373 . S
C1939 C1923 1.377 1_565 S
C1939 C1937 1.389 . S
C1939 C1940 1.524 . S
C1940 C1939 1.524 . S
C1940 C1941 1.397 . S
C1940 C1945 1.363 . S
C1941 H1912 0.950 . S
C1941 C1940 1.397 . S
C1941 C1942 1.334 . S
C1942 H1913 0.950 . S
C1942 C1941 1.334 . S
C1942 C1943 1.287 . S
C1943 C1942 1.287 . S
C1943 C1944 1.524 . S
C1943 H1946 0.999 . S
C1944 H1914 0.950 . S
C1944 C1943 1.524 . S
C1944 C1945 1.415 . S
C1945 H1915 0.950 . S
C1945 C1940 1.363 . S
C1945 C1944 1.415 . S
H1946 C1943 0.999 . S
H1947 C1928 0.913 . S
H1948 C1966 0.951 . S
H1949 C1968 0.951 . S
H1950 C1970 0.950 . S
H1951 C1971 0.950 . S
H1952 C1973 0.950 . S
H1953 C1976 0.950 . S
H1954 C1977 0.950 . S
H1955 C1979 0.950 . S
H1956 C1980 0.950 . S
H1957 C1981 0.951 . S
H1958 C1983 0.951 . S
H1959 C1985 0.950 . S
H1960 C1986 0.950 . S
H1961 C1988 0.950 . S
H1962 C1991 0.950 . S
H1963 C1992 0.950 . S
H1964 C1994 0.950 . S
H1965 C1995 0.950 . S
C1966 H1948 0.951 . S
C1966 C1967 1.366 . S
C1966 C1968 1.388 . S
C1967 C1966 1.366 . S
C1967 C1971 1.385 . S
C1968 H1949 0.951 . S
C1968 C1966 1.388 . S
C1968 C1969 1.366 . S
C1969 C1968 1.366 . S
C1969 C1970 1.414 . S
C1969 C1972 1.499 . S
C1970 H1950 0.950 . S
C1970 C1969 1.414 . S
C1970 C1971 1.374 . S
C1971 H1951 0.950 . S
C1971 C1967 1.385 . S
C1971 C1970 1.374 . S
C1972 C1969 1.499 . S
C1972 C1973 1.373 . S
C1972 C1974 1.389 . S
C1973 H1952 0.950 . S
C1973 C1972 1.373 . S
C1973 C1989 1.377 . S
C1974 C1972 1.389 . S
C1974 C1975 1.524 . S
C1974 C1988 1.377 . S
C1975 C1974 1.524 . S
C1975 C1976 1.397 . S
C1975 C1980 1.363 . S
C1976 H1953 0.950 . S
C1976 C1975 1.397 . S
C1976 C1977 1.334 . S
C1977 H1954 0.950 . S
C1977 C1976 1.334 . S
C1977 C1978 1.287 . S
C1978 C1977 1.287 . S
C1978 C1979 1.524 . S
C1978 H1997 0.913 . S
C1979 H1955 0.950 . S
C1979 C1978 1.524 . S
C1979 C1980 1.415 . S
C1980 H1956 0.950 . S
C1980 C1975 1.363 . S
C1980 C1979 1.415 . S
C1981 H1957 0.951 . S
C1981 C1982 1.366 . S
C1981 C1983 1.388 . S
C1982 C1981 1.366 . S
C1982 C1986 1.385 . S
C1983 H1958 0.951 . S
C1983 C1981 1.388 . S
C1983 C1984 1.366 . S
C1984 C1983 1.366 . S
C1984 C1985 1.414 . S
C1984 C1987 1.499 . S
C1985 H1959 0.950 . S
C1985 C1984 1.414 . S
C1985 C1986 1.374 . S
C1986 H1960 0.950 . S
C1986 C1982 1.385 . S
C1986 C1985 1.374 . S
C1987 C1984 1.499 . S
C1987 C1988 1.373 . S
C1987 C1989 1.389 . S
C1988 H1961 0.950 . S
C1988 C1974 1.377 . S
C1988 C1987 1.373 . S
C1989 C1973 1.377 . S
C1989 C1987 1.389 . S
C1989 C1990 1.524 . S
C1990 C1989 1.524 . S
C1990 C1991 1.397 . S
C1990 C1995 1.363 . S
C1991 H1962 0.950 . S
C1991 C1990 1.397 . S
C1991 C1992 1.334 . S
C1992 H1963 0.950 . S
C1992 C1991 1.334 . S
C1992 C1993 1.287 . S
C1993 C1992 1.287 . S
C1993 C1994 1.524 . S
C1993 H1996 0.999 . S
C1994 H1964 0.950 . S
C1994 C1993 1.524 . S
C1994 C1995 1.415 . S
C1995 H1965 0.950 . S
C1995 C1990 1.363 . S
C1995 C1994 1.415 . S
H1996 C1993 0.999 . S
H1997 C1978 0.913 . S
H1998 C2016 0.951 . S
H1999 C2018 0.951 . S
H2000 C2020 0.950 . S
H2001 C2021 0.950 . S
H2002 C2023 0.950 . S
H2003 C2026 0.950 . S
H2004 C2027 0.950 . S
H2005 C2029 0.950 . S
H2006 C2030 0.950 . S
H2007 C2031 0.951 . S
H2008 C2033 0.951 . S
H2009 C2035 0.950 . S
H2010 C2036 0.950 . S
H2011 C2038 0.950 . S
H2012 C2041 0.950 . S
H2013 C2042 0.950 . S
H2014 C2044 0.950 . S
H2015 C2045 0.950 . S
C2016 H1998 0.951 . S
C2016 C2017 1.366 . S
C2016 C2018 1.388 . S
C2017 C2016 1.366 . S
C2017 C2021 1.385 1_556 S
C2018 H1999 0.951 . S
C2018 C2016 1.388 . S
C2018 C2019 1.366 . S
C2019 C2018 1.366 . S
C2019 C2020 1.414 1_556 S
C2019 C2022 1.499 . S
C2020 H2000 0.950 . S
C2020 C2019 1.414 1_554 S
C2020 C2021 1.374 . S
C2021 H2001 0.950 . S
C2021 C2017 1.385 1_554 S
C2021 C2020 1.374 . S
C2022 C2019 1.499 . S
C2022 C2023 1.373 1_556 S
C2022 C2024 1.389 . S
C2023 H2002 0.950 . S
C2023 C2022 1.373 1_554 S
C2023 C2039 1.377 . S
C2024 C2022 1.389 . S
C2024 C2025 1.524 . S
C2024 C2038 1.377 . S
C2025 C2024 1.524 . S
C2025 C2026 1.397 . S
C2025 C2030 1.363 . S
C2026 H2003 0.950 . S
C2026 C2025 1.397 . S
C2026 C2027 1.334 . S
C2027 H2004 0.950 . S
C2027 C2026 1.334 . S
C2027 C2028 1.287 . S
C2028 C2027 1.287 . S
C2028 C2029 1.524 . S
C2028 H2047 0.913 . S
C2029 H2005 0.950 . S
C2029 C2028 1.524 . S
C2029 C2030 1.415 . S
C2030 H2006 0.950 . S
C2030 C2025 1.363 . S
C2030 C2029 1.415 . S
C2031 H2007 0.951 . S
C2031 C2032 1.366 . S
C2031 C2033 1.388 . S
C2032 C2031 1.366 . S
C2032 C2036 1.385 1_554 S
C2033 H2008 0.951 . S
C2033 C2031 1.388 . S
C2033 C2034 1.366 . S
C2034 C2033 1.366 . S
C2034 C2035 1.414 1_554 S
C2034 C2037 1.499 . S
C2035 H2009 0.950 . S
C2035 C2034 1.414 1_556 S
C2035 C2036 1.374 . S
C2036 H2010 0.950 . S
C2036 C2032 1.385 1_556 S
C2036 C2035 1.374 . S
C2037 C2034 1.499 . S
C2037 C2038 1.373 1_554 S
C2037 C2039 1.389 . S
C2038 H2011 0.950 . S
C2038 C2024 1.377 . S
C2038 C2037 1.373 1_556 S
C2039 C2023 1.377 . S
C2039 C2037 1.389 . S
C2039 C2040 1.524 . S
C2040 C2039 1.524 . S
C2040 C2041 1.397 . S
C2040 C2045 1.363 . S
C2041 H2012 0.950 . S
C2041 C2040 1.397 . S
C2041 C2042 1.334 . S
C2042 H2013 0.950 . S
C2042 C2041 1.334 . S
C2042 C2043 1.287 . S
C2043 C2042 1.287 . S
C2043 C2044 1.524 . S
C2043 H2046 0.999 . S
C2044 H2014 0.950 . S
C2044 C2043 1.524 . S
C2044 C2045 1.415 . S
C2045 H2015 0.950 . S
C2045 C2040 1.363 . S
C2045 C2044 1.415 . S
H2046 C2043 0.999 . S
H2047 C2028 0.913 . S
H2048 C2066 0.951 . S
H2049 C2068 0.951 . S
H2050 C2070 0.950 . S
H2051 C2071 0.950 . S
H2052 C2073 0.950 . S
H2053 C2076 0.950 . S
H2054 C2077 0.950 . S
H2055 C2079 0.950 . S
H2056 C2080 0.950 . S
H2057 C2081 0.951 . S
H2058 C2083 0.951 . S
H2059 C2085 0.950 . S
H2060 C2086 0.950 . S
H2061 C2088 0.950 . S
H2062 C2091 0.950 . S
H2063 C2092 0.950 . S
H2064 C2094 0.950 . S
H2065 C2095 0.950 . S
C2066 H2048 0.951 . S
C2066 C2067 1.366 . S
C2066 C2068 1.388 . S
C2067 C2066 1.366 . S
C2067 C2071 1.385 . S
C2068 H2049 0.951 . S
C2068 C2066 1.388 . S
C2068 C2069 1.366 . S
C2069 C2068 1.366 . S
C2069 C2070 1.414 . S
C2069 C2072 1.499 . S
C2070 H2050 0.950 . S
C2070 C2069 1.414 . S
C2070 C2071 1.374 . S
C2071 H2051 0.950 . S
C2071 C2067 1.385 . S
C2071 C2070 1.374 . S
C2072 C2069 1.499 . S
C2072 C2073 1.373 . S
C2072 C2074 1.389 . S
C2073 H2052 0.950 . S
C2073 C2072 1.373 . S
C2073 C2089 1.377 . S
C2074 C2072 1.389 . S
C2074 C2075 1.524 . S
C2074 C2088 1.377 . S
C2075 C2074 1.524 . S
C2075 C2076 1.397 . S
C2075 C2080 1.363 . S
C2076 H2053 0.950 . S
C2076 C2075 1.397 . S
C2076 C2077 1.334 . S
C2077 H2054 0.950 . S
C2077 C2076 1.334 . S
C2077 C2078 1.287 1_455 S
C2078 C2077 1.287 1_655 S
C2078 C2079 1.524 . S
C2078 H2097 0.913 . S
C2079 H2055 0.950 . S
C2079 C2078 1.524 . S
C2079 C2080 1.415 1_655 S
C2080 H2056 0.950 . S
C2080 C2075 1.363 . S
C2080 C2079 1.415 1_455 S
C2081 H2057 0.951 . S
C2081 C2082 1.366 . S
C2081 C2083 1.388 . S
C2082 C2081 1.366 . S
C2082 C2086 1.385 . S
C2083 H2058 0.951 . S
C2083 C2081 1.388 . S
C2083 C2084 1.366 . S
C2084 C2083 1.366 . S
C2084 C2085 1.414 . S
C2084 C2087 1.499 . S
C2085 H2059 0.950 . S
C2085 C2084 1.414 . S
C2085 C2086 1.374 . S
C2086 H2060 0.950 . S
C2086 C2082 1.385 . S
C2086 C2085 1.374 . S
C2087 C2084 1.499 . S
C2087 C2088 1.373 . S
C2087 C2089 1.389 . S
C2088 H2061 0.950 . S
C2088 C2074 1.377 . S
C2088 C2087 1.373 . S
C2089 C2073 1.377 . S
C2089 C2087 1.389 . S
C2089 C2090 1.524 . S
C2090 C2089 1.524 . S
C2090 C2091 1.397 . S
C2090 C2095 1.363 . S
C2091 H2062 0.950 . S
C2091 C2090 1.397 . S
C2091 C2092 1.334 . S
C2092 H2063 0.950 . S
C2092 C2091 1.334 . S
C2092 C2093 1.287 . S
C2093 C2092 1.287 . S
C2093 C2094 1.524 . S
C2093 H2096 0.999 . S
C2094 H2064 0.950 . S
C2094 C2093 1.524 . S
C2094 C2095 1.415 . S
C2095 H2065 0.950 . S
C2095 C2090 1.363 . S
C2095 C2094 1.415 . S
H2096 C2093 0.999 . S
H2097 C2078 0.913 . S
H2098 C2116 0.951 . S
H2099 C2118 0.951 . S
H2100 C2120 0.950 . S
H2101 C2121 0.950 . S
H2102 C2123 0.950 . S
H2103 C2126 0.950 . S
H2104 C2127 0.950 . S
H2105 C2129 0.950 . S
H2106 C2130 0.950 . S
H2107 C2131 0.951 . S
H2108 C2133 0.951 . S
H2109 C2135 0.950 . S
H2110 C2136 0.950 . S
H2111 C2138 0.950 . S
H2112 C2141 0.950 . S
H2113 C2142 0.950 . S
H2114 C2144 0.950 1_655 S
H2115 C2145 0.950 . S
C2116 H2098 0.951 . S
C2116 C2117 1.366 . S
C2116 C2118 1.388 . S
C2117 C2116 1.366 . S
C2117 C2121 1.385 . S
C2118 H2099 0.951 . S
C2118 C2116 1.388 . S
C2118 C2119 1.366 . S
C2119 C2118 1.366 . S
C2119 C2120 1.414 . S
C2119 C2122 1.499 . S
C2120 H2100 0.950 . S
C2120 C2119 1.414 . S
C2120 C2121 1.374 . S
C2121 H2101 0.950 . S
C2121 C2117 1.385 . S
C2121 C2120 1.374 . S
C2122 C2119 1.499 . S
C2122 C2123 1.373 . S
C2122 C2124 1.389 . S
C2123 H2102 0.950 . S
C2123 C2122 1.373 . S
C2123 C2139 1.377 . S
C2124 C2122 1.389 . S
C2124 C2125 1.524 . S
C2124 C2138 1.377 . S
C2125 C2124 1.524 . S
C2125 C2126 1.397 . S
C2125 C2130 1.363 . S
C2126 H2103 0.950 . S
C2126 C2125 1.397 . S
C2126 C2127 1.334 . S
C2127 H2104 0.950 . S
C2127 C2126 1.334 . S
C2127 C2128 1.287 . S
C2128 C2127 1.287 . S
C2128 C2129 1.524 . S
C2128 H2147 0.913 . S
C2129 H2105 0.950 . S
C2129 C2128 1.524 . S
C2129 C2130 1.415 . S
C2130 H2106 0.950 . S
C2130 C2125 1.363 . S
C2130 C2129 1.415 . S
C2131 H2107 0.951 . S
C2131 C2132 1.366 . S
C2131 C2133 1.388 . S
C2132 C2131 1.366 . S
C2132 C2136 1.385 . S
C2133 H2108 0.951 . S
C2133 C2131 1.388 . S
C2133 C2134 1.366 . S
C2134 C2133 1.366 . S
C2134 C2135 1.414 . S
C2134 C2137 1.499 . S
C2135 H2109 0.950 . S
C2135 C2134 1.414 . S
C2135 C2136 1.374 . S
C2136 H2110 0.950 . S
C2136 C2132 1.385 . S
C2136 C2135 1.374 . S
C2137 C2134 1.499 . S
C2137 C2138 1.373 . S
C2137 C2139 1.389 . S
C2138 H2111 0.950 . S
C2138 C2124 1.377 . S
C2138 C2137 1.373 . S
C2139 C2123 1.377 . S
C2139 C2137 1.389 . S
C2139 C2140 1.524 . S
C2140 C2139 1.524 . S
C2140 C2141 1.397 . S
C2140 C2145 1.363 . S
C2141 H2112 0.950 . S
C2141 C2140 1.397 . S
C2141 C2142 1.334 . S
C2142 H2113 0.950 . S
C2142 C2141 1.334 . S
C2142 C2143 1.287 . S
C2143 C2142 1.287 . S
C2143 C2144 1.524 . S
C2143 H2146 0.999 . S
C2144 H2114 0.950 1_455 S
C2144 C2143 1.524 . S
C2144 C2145 1.415 . S
C2145 H2115 0.950 . S
C2145 C2140 1.363 . S
C2145 C2144 1.415 . S
H2146 C2143 0.999 . S
H2147 C2128 0.913 . S
H2148 C2166 0.951 . S
H2149 C2168 0.951 . S
H2150 C2170 0.950 . S
H2151 C2171 0.950 . S
H2152 C2173 0.950 . S
H2153 C2176 0.950 . S
H2154 C2177 0.950 . S
H2155 C2179 0.950 1_655 S
H2156 C2180 0.950 . S
H2157 C2181 0.951 . S
H2158 C2183 0.951 . S
H2159 C2185 0.950 . S
H2160 C2186 0.950 . S
H2161 C2188 0.950 . S
H2162 C2191 0.950 . S
H2163 C2192 0.950 . S
H2164 C2194 0.950 . S
H2165 C2195 0.950 . S
C2166 H2148 0.951 . S
C2166 C2167 1.366 . S
C2166 C2168 1.388 . S
C2167 C2166 1.366 . S
C2167 C2171 1.385 . S
C2168 H2149 0.951 . S
C2168 C2166 1.388 . S
C2168 C2169 1.366 . S
C2169 C2168 1.366 . S
C2169 C2170 1.414 . S
C2169 C2172 1.499 . S
C2170 H2150 0.950 . S
C2170 C2169 1.414 . S
C2170 C2171 1.374 . S
C2171 H2151 0.950 . S
C2171 C2167 1.385 . S
C2171 C2170 1.374 . S
C2172 C2169 1.499 . S
C2172 C2173 1.373 . S
C2172 C2174 1.389 . S
C2173 H2152 0.950 . S
C2173 C2172 1.373 . S
C2173 C2189 1.377 . S
C2174 C2172 1.389 . S
C2174 C2175 1.524 . S
C2174 C2188 1.377 . S
C2175 C2174 1.524 . S
C2175 C2176 1.397 . S
C2175 C2180 1.363 . S
C2176 H2153 0.950 . S
C2176 C2175 1.397 . S
C2176 C2177 1.334 . S
C2177 H2154 0.950 . S
C2177 C2176 1.334 . S
C2177 C2178 1.287 . S
C2178 C2177 1.287 . S
C2178 C2179 1.524 . S
C2178 H2197 0.913 . S
C2179 H2155 0.950 1_455 S
C2179 C2178 1.524 . S
C2179 C2180 1.415 . S
C2180 H2156 0.950 . S
C2180 C2175 1.363 . S
C2180 C2179 1.415 . S
C2181 H2157 0.951 . S
C2181 C2182 1.366 . S
C2181 C2183 1.388 . S
C2182 C2181 1.366 . S
C2182 C2186 1.385 . S
C2183 H2158 0.951 . S
C2183 C2181 1.388 . S
C2183 C2184 1.366 . S
C2184 C2183 1.366 . S
C2184 C2185 1.414 . S
C2184 C2187 1.499 . S
C2185 H2159 0.950 . S
C2185 C2184 1.414 . S
C2185 C2186 1.374 . S
C2186 H2160 0.950 . S
C2186 C2182 1.385 . S
C2186 C2185 1.374 . S
C2187 C2184 1.499 . S
C2187 C2188 1.373 . S
C2187 C2189 1.389 . S
C2188 H2161 0.950 . S
C2188 C2174 1.377 . S
C2188 C2187 1.373 . S
C2189 C2173 1.377 . S
C2189 C2187 1.389 . S
C2189 C2190 1.524 . S
C2190 C2189 1.524 . S
C2190 C2191 1.397 . S
C2190 C2195 1.363 . S
C2191 H2162 0.950 . S
C2191 C2190 1.397 . S
C2191 C2192 1.334 . S
C2192 H2163 0.950 . S
C2192 C2191 1.334 . S
C2192 C2193 1.287 . S
C2193 C2192 1.287 . S
C2193 C2194 1.524 . S
C2193 H2196 0.999 . S
C2194 H2164 0.950 . S
C2194 C2193 1.524 . S
C2194 C2195 1.415 . S
C2195 H2165 0.950 . S
C2195 C2190 1.363 . S
C2195 C2194 1.415 . S
H2196 C2193 0.999 . S
H2197 C2178 0.913 . S
H2198 C2216 0.951 . S
H2199 C2218 0.951 . S
H2200 C2220 0.950 . S
H2201 C2221 0.950 . S
H2202 C2223 0.950 . S
H2203 C2226 0.950 . S
H2204 C2227 0.950 . S
H2205 C2229 0.950 . S
H2206 C2230 0.950 . S
H2207 C2231 0.951 . S
H2208 C2233 0.951 . S
H2209 C2235 0.950 . S
H2210 C2236 0.950 . S
H2211 C2238 0.950 . S
H2212 C2241 0.950 . S
H2213 C2242 0.950 . S
H2214 C2244 0.950 . S
H2215 C2245 0.950 . S
C2216 H2198 0.951 . S
C2216 C2217 1.366 . S
C2216 C2218 1.388 . S
C2217 C2216 1.366 . S
C2217 C2221 1.385 . S
C2218 H2199 0.951 . S
C2218 C2216 1.388 . S
C2218 C2219 1.366 . S
C2219 C2218 1.366 . S
C2219 C2220 1.414 . S
C2219 C2222 1.499 . S
C2220 H2200 0.950 . S
C2220 C2219 1.414 . S
C2220 C2221 1.374 . S
C2221 H2201 0.950 . S
C2221 C2217 1.385 . S
C2221 C2220 1.374 . S
C2222 C2219 1.499 . S
C2222 C2223 1.373 . S
C2222 C2224 1.389 . S
C2223 H2202 0.950 . S
C2223 C2222 1.373 . S
C2223 C2239 1.377 . S
C2224 C2222 1.389 . S
C2224 C2225 1.524 . S
C2224 C2238 1.377 . S
C2225 C2224 1.524 . S
C2225 C2226 1.397 . S
C2225 C2230 1.363 . S
C2226 H2203 0.950 . S
C2226 C2225 1.397 . S
C2226 C2227 1.334 . S
C2227 H2204 0.950 . S
C2227 C2226 1.334 . S
C2227 C2228 1.287 . S
C2228 C2227 1.287 . S
C2228 C2229 1.524 . S
C2228 H2247 0.913 . S
C2229 H2205 0.950 . S
C2229 C2228 1.524 . S
C2229 C2230 1.415 . S
C2230 H2206 0.950 . S
C2230 C2225 1.363 . S
C2230 C2229 1.415 . S
C2231 H2207 0.951 . S
C2231 C2232 1.366 . S
C2231 C2233 1.388 . S
C2232 C2231 1.366 . S
C2232 C2236 1.385 . S
C2233 H2208 0.951 . S
C2233 C2231 1.388 . S
C2233 C2234 1.366 . S
C2234 C2233 1.366 . S
C2234 C2235 1.414 . S
C2234 C2237 1.499 . S
C2235 H2209 0.950 . S
C2235 C2234 1.414 . S
C2235 C2236 1.374 . S
C2236 H2210 0.950 . S
C2236 C2232 1.385 . S
C2236 C2235 1.374 . S
C2237 C2234 1.499 . S
C2237 C2238 1.373 . S
C2237 C2239 1.389 . S
C2238 H2211 0.950 . S
C2238 C2224 1.377 . S
C2238 C2237 1.373 . S
C2239 C2223 1.377 . S
C2239 C2237 1.389 . S
C2239 C2240 1.524 . S
C2240 C2239 1.524 . S
C2240 C2241 1.397 . S
C2240 C2245 1.363 . S
C2241 H2212 0.950 . S
C2241 C2240 1.397 . S
C2241 C2242 1.334 . S
C2242 H2213 0.950 . S
C2242 C2241 1.334 . S
C2242 C2243 1.287 . S
C2243 C2242 1.287 . S
C2243 C2244 1.524 . S
C2243 H2246 0.999 . S
C2244 H2214 0.950 . S
C2244 C2243 1.524 . S
C2244 C2245 1.415 . S
C2245 H2215 0.950 . S
C2245 C2240 1.363 . S
C2245 C2244 1.415 . S
H2246 C2243 0.999 . S
H2247 C2228 0.913 . S
H2248 C2266 0.951 . S
H2249 C2268 0.951 . S
H2250 C2270 0.950 . S
H2251 C2271 0.950 . S
H2252 C2273 0.950 . S
H2253 C2276 0.950 . S
H2254 C2277 0.950 . S
H2255 C2279 0.950 . S
H2256 C2280 0.950 . S
H2257 C2281 0.951 . S
H2258 C2283 0.951 . S
H2259 C2285 0.950 . S
H2260 C2286 0.950 . S
H2261 C2288 0.950 . S
H2262 C2291 0.950 . S
H2263 C2292 0.950 . S
H2264 C2294 0.950 . S
H2265 C2295 0.950 . S
C2266 H2248 0.951 . S
C2266 C2267 1.366 . S
C2266 C2268 1.388 . S
C2267 C2266 1.366 . S
C2267 C2271 1.385 . S
C2268 H2249 0.951 . S
C2268 C2266 1.388 . S
C2268 C2269 1.366 . S
C2269 C2268 1.366 . S
C2269 C2270 1.414 . S
C2269 C2272 1.499 . S
C2270 H2250 0.950 . S
C2270 C2269 1.414 . S
C2270 C2271 1.374 . S
C2271 H2251 0.950 . S
C2271 C2267 1.385 . S
C2271 C2270 1.374 . S
C2272 C2269 1.499 . S
C2272 C2273 1.373 . S
C2272 C2274 1.389 . S
C2273 H2252 0.950 . S
C2273 C2272 1.373 . S
C2273 C2289 1.377 . S
C2274 C2272 1.389 . S
C2274 C2275 1.524 . S
C2274 C2288 1.377 . S
C2275 C2274 1.524 . S
C2275 C2276 1.397 . S
C2275 C2280 1.363 . S
C2276 H2253 0.950 . S
C2276 C2275 1.397 . S
C2276 C2277 1.334 . S
C2277 H2254 0.950 . S
C2277 C2276 1.334 . S
C2277 C2278 1.287 . S
C2278 C2277 1.287 . S
C2278 C2279 1.524 . S
C2278 H2297 0.913 . S
C2279 H2255 0.950 . S
C2279 C2278 1.524 . S
C2279 C2280 1.415 . S
C2280 H2256 0.950 . S
C2280 C2275 1.363 . S
C2280 C2279 1.415 . S
C2281 H2257 0.951 . S
C2281 C2282 1.366 . S
C2281 C2283 1.388 . S
C2282 C2281 1.366 . S
C2282 C2286 1.385 . S
C2283 H2258 0.951 . S
C2283 C2281 1.388 . S
C2283 C2284 1.366 . S
C2284 C2283 1.366 . S
C2284 C2285 1.414 . S
C2284 C2287 1.499 . S
C2285 H2259 0.950 . S
C2285 C2284 1.414 . S
C2285 C2286 1.374 . S
C2286 H2260 0.950 . S
C2286 C2282 1.385 . S
C2286 C2285 1.374 . S
C2287 C2284 1.499 . S
C2287 C2288 1.373 . S
C2287 C2289 1.389 . S
C2288 H2261 0.950 . S
C2288 C2274 1.377 . S
C2288 C2287 1.373 . S
C2289 C2273 1.377 . S
C2289 C2287 1.389 . S
C2289 C2290 1.524 . S
C2290 C2289 1.524 . S
C2290 C2291 1.397 . S
C2290 C2295 1.363 . S
C2291 H2262 0.950 . S
C2291 C2290 1.397 . S
C2291 C2292 1.334 . S
C2292 H2263 0.950 . S
C2292 C2291 1.334 . S
C2292 C2293 1.287 . S
C2293 C2292 1.287 . S
C2293 C2294 1.524 . S
C2293 H2296 0.999 . S
C2294 H2264 0.950 . S
C2294 C2293 1.524 . S
C2294 C2295 1.415 . S
C2295 H2265 0.950 . S
C2295 C2290 1.363 . S
C2295 C2294 1.415 . S
H2296 C2293 0.999 . S
H2297 C2278 0.913 . S
H2298 C2316 0.951 . S
H2299 C2318 0.951 . S
H2300 C2320 0.950 . S
H2301 C2321 0.950 . S
H2302 C2323 0.950 . S
H2303 C2326 0.950 . S
H2304 C2327 0.950 . S
H2305 C2329 0.950 . S
H2306 C2330 0.950 . S
H2307 C2331 0.951 . S
H2308 C2333 0.951 . S
H2309 C2335 0.950 . S
H2310 C2336 0.950 . S
H2311 C2338 0.950 . S
H2312 C2341 0.950 . S
H2313 C2342 0.950 . S
H2314 C2344 0.950 . S
H2315 C2345 0.950 . S
C2316 H2298 0.951 . S
C2316 C2317 1.366 . S
C2316 C2318 1.388 . S
C2317 C2316 1.366 . S
C2317 C2321 1.385 . S
C2318 H2299 0.951 . S
C2318 C2316 1.388 . S
C2318 C2319 1.366 . S
C2319 C2318 1.366 . S
C2319 C2320 1.414 . S
C2319 C2322 1.499 . S
C2320 H2300 0.950 . S
C2320 C2319 1.414 . S
C2320 C2321 1.374 . S
C2321 H2301 0.950 . S
C2321 C2317 1.385 . S
C2321 C2320 1.374 . S
C2322 C2319 1.499 . S
C2322 C2323 1.373 . S
C2322 C2324 1.389 . S
C2323 H2302 0.950 . S
C2323 C2322 1.373 . S
C2323 C2339 1.377 . S
C2324 C2322 1.389 . S
C2324 C2325 1.524 . S
C2324 C2338 1.377 . S
C2325 C2324 1.524 . S
C2325 C2326 1.397 . S
C2325 C2330 1.363 . S
C2326 H2303 0.950 . S
C2326 C2325 1.397 . S
C2326 C2327 1.334 . S
C2327 H2304 0.950 . S
C2327 C2326 1.334 . S
C2327 C2328 1.287 . S
C2328 C2327 1.287 . S
C2328 C2329 1.524 . S
C2328 H2347 0.913 . S
C2329 H2305 0.950 . S
C2329 C2328 1.524 . S
C2329 C2330 1.415 . S
C2330 H2306 0.950 . S
C2330 C2325 1.363 . S
C2330 C2329 1.415 . S
C2331 H2307 0.951 . S
C2331 C2332 1.366 . S
C2331 C2333 1.388 . S
C2332 C2331 1.366 . S
C2332 C2336 1.385 . S
C2333 H2308 0.951 . S
C2333 C2331 1.388 . S
C2333 C2334 1.366 . S
C2334 C2333 1.366 . S
C2334 C2335 1.414 . S
C2334 C2337 1.499 . S
C2335 H2309 0.950 . S
C2335 C2334 1.414 . S
C2335 C2336 1.374 . S
C2336 H2310 0.950 . S
C2336 C2332 1.385 . S
C2336 C2335 1.374 . S
C2337 C2334 1.499 . S
C2337 C2338 1.373 . S
C2337 C2339 1.389 . S
C2338 H2311 0.950 . S
C2338 C2324 1.377 . S
C2338 C2337 1.373 . S
C2339 C2323 1.377 . S
C2339 C2337 1.389 . S
C2339 C2340 1.524 . S
C2340 C2339 1.524 . S
C2340 C2341 1.397 . S
C2340 C2345 1.363 . S
C2341 H2312 0.950 . S
C2341 C2340 1.397 . S
C2341 C2342 1.334 . S
C2342 H2313 0.950 . S
C2342 C2341 1.334 . S
C2342 C2343 1.287 . S
C2343 C2342 1.287 . S
C2343 C2344 1.524 . S
C2343 H2346 0.999 . S
C2344 H2314 0.950 . S
C2344 C2343 1.524 . S
C2344 C2345 1.415 . S
C2345 H2315 0.950 . S
C2345 C2340 1.363 . S
C2345 C2344 1.415 . S
H2346 C2343 0.999 . S
H2347 C2328 0.913 . S
H2348 C2366 0.951 . S
H2349 C2368 0.951 . S
H2350 C2370 0.950 . S
H2351 C2371 0.950 . S
H2352 C2373 0.950 . S
H2353 C2376 0.950 . S
H2354 C2377 0.950 . S
H2355 C2379 0.950 1_455 S
H2356 C2380 0.950 . S
H2357 C2381 0.951 . S
H2358 C2383 0.951 . S
H2359 C2385 0.950 . S
H2360 C2386 0.950 . S
H2361 C2388 0.950 . S
H2362 C2391 0.950 . S
H2363 C2392 0.950 . S
H2364 C2394 0.950 . S
H2365 C2395 0.950 . S
C2366 H2348 0.951 . S
C2366 C2367 1.366 . S
C2366 C2368 1.388 . S
C2367 C2366 1.366 . S
C2367 C2371 1.385 . S
C2368 H2349 0.951 . S
C2368 C2366 1.388 . S
C2368 C2369 1.366 . S
C2369 C2368 1.366 . S
C2369 C2370 1.414 . S
C2369 C2372 1.499 . S
C2370 H2350 0.950 . S
C2370 C2369 1.414 . S
C2370 C2371 1.374 . S
C2371 H2351 0.950 . S
C2371 C2367 1.385 . S
C2371 C2370 1.374 . S
C2372 C2369 1.499 . S
C2372 C2373 1.373 . S
C2372 C2374 1.389 . S
C2373 H2352 0.950 . S
C2373 C2372 1.373 . S
C2373 C2389 1.377 . S
C2374 C2372 1.389 . S
C2374 C2375 1.524 . S
C2374 C2388 1.377 . S
C2375 C2374 1.524 . S
C2375 C2376 1.397 . S
C2375 C2380 1.363 . S
C2376 H2353 0.950 . S
C2376 C2375 1.397 . S
C2376 C2377 1.334 . S
C2377 H2354 0.950 . S
C2377 C2376 1.334 . S
C2377 C2378 1.287 1_655 S
C2378 C2377 1.287 1_455 S
C2378 C2379 1.524 1_455 S
C2378 H2397 0.913 . S
C2379 H2355 0.950 1_655 S
C2379 C2378 1.524 1_655 S
C2379 C2380 1.415 . S
C2380 H2356 0.950 . S
C2380 C2375 1.363 . S
C2380 C2379 1.415 . S
C2381 H2357 0.951 . S
C2381 C2382 1.366 . S
C2381 C2383 1.388 . S
C2382 C2381 1.366 . S
C2382 C2386 1.385 . S
C2383 H2358 0.951 . S
C2383 C2381 1.388 . S
C2383 C2384 1.366 . S
C2384 C2383 1.366 . S
C2384 C2385 1.414 . S
C2384 C2387 1.499 . S
C2385 H2359 0.950 . S
C2385 C2384 1.414 . S
C2385 C2386 1.374 . S
C2386 H2360 0.950 . S
C2386 C2382 1.385 . S
C2386 C2385 1.374 . S
C2387 C2384 1.499 . S
C2387 C2388 1.373 . S
C2387 C2389 1.389 . S
C2388 H2361 0.950 . S
C2388 C2374 1.377 . S
C2388 C2387 1.373 . S
C2389 C2373 1.377 . S
C2389 C2387 1.389 . S
C2389 C2390 1.524 . S
C2390 C2389 1.524 . S
C2390 C2391 1.397 . S
C2390 C2395 1.363 . S
C2391 H2362 0.950 . S
C2391 C2390 1.397 . S
C2391 C2392 1.334 . S
C2392 H2363 0.950 . S
C2392 C2391 1.334 . S
C2392 C2393 1.287 . S
C2393 C2392 1.287 . S
C2393 C2394 1.524 . S
C2393 H2396 0.999 . S
C2394 H2364 0.950 . S
C2394 C2393 1.524 . S
C2394 C2395 1.415 . S
C2395 H2365 0.950 . S
C2395 C2390 1.363 . S
C2395 C2394 1.415 . S
H2396 C2393 0.999 . S
H2397 C2378 0.913 . S
H2398 C2416 0.951 . S
H2399 C2418 0.951 . S
H2400 C2420 0.950 . S
H2401 C2421 0.950 . S
H2402 C2423 0.950 . S
H2403 C2426 0.950 . S
H2404 C2427 0.950 . S
H2405 C2429 0.950 . S
H2406 C2430 0.950 . S
H2407 C2431 0.951 . S
H2408 C2433 0.951 . S
H2409 C2435 0.950 . S
H2410 C2436 0.950 . S
H2411 C2438 0.950 . S
H2412 C2441 0.950 . S
H2413 C2442 0.950 . S
H2414 C2444 0.950 . S
H2415 C2445 0.950 . S
C2416 H2398 0.951 . S
C2416 C2417 1.366 . S
C2416 C2418 1.388 . S
C2417 C2416 1.366 . S
C2417 C2421 1.385 . S
C2418 H2399 0.951 . S
C2418 C2416 1.388 . S
C2418 C2419 1.366 . S
C2419 C2418 1.366 . S
C2419 C2420 1.414 . S
C2419 C2422 1.499 . S
C2420 H2400 0.950 . S
C2420 C2419 1.414 . S
C2420 C2421 1.374 . S
C2421 H2401 0.950 . S
C2421 C2417 1.385 . S
C2421 C2420 1.374 . S
C2422 C2419 1.499 . S
C2422 C2423 1.373 . S
C2422 C2424 1.389 . S
C2423 H2402 0.950 . S
C2423 C2422 1.373 . S
C2423 C2439 1.377 . S
C2424 C2422 1.389 . S
C2424 C2425 1.524 . S
C2424 C2438 1.377 . S
C2425 C2424 1.524 . S
C2425 C2426 1.397 . S
C2425 C2430 1.363 . S
C2426 H2403 0.950 . S
C2426 C2425 1.397 . S
C2426 C2427 1.334 . S
C2427 H2404 0.950 . S
C2427 C2426 1.334 . S
C2427 C2428 1.287 . S
C2428 C2427 1.287 . S
C2428 C2429 1.524 . S
C2428 H2447 0.913 . S
C2429 H2405 0.950 . S
C2429 C2428 1.524 . S
C2429 C2430 1.415 . S
C2430 H2406 0.950 . S
C2430 C2425 1.363 . S
C2430 C2429 1.415 . S
C2431 H2407 0.951 . S
C2431 C2432 1.366 . S
C2431 C2433 1.388 . S
C2432 C2431 1.366 . S
C2432 C2436 1.385 . S
C2433 H2408 0.951 . S
C2433 C2431 1.388 . S
C2433 C2434 1.366 . S
C2434 C2433 1.366 . S
C2434 C2435 1.414 . S
C2434 C2437 1.499 . S
C2435 H2409 0.950 . S
C2435 C2434 1.414 . S
C2435 C2436 1.374 . S
C2436 H2410 0.950 . S
C2436 C2432 1.385 . S
C2436 C2435 1.374 . S
C2437 C2434 1.499 . S
C2437 C2438 1.373 . S
C2437 C2439 1.389 . S
C2438 H2411 0.950 . S
C2438 C2424 1.377 . S
C2438 C2437 1.373 . S
C2439 C2423 1.377 . S
C2439 C2437 1.389 . S
C2439 C2440 1.524 . S
C2440 C2439 1.524 . S
C2440 C2441 1.397 . S
C2440 C2445 1.363 . S
C2441 H2412 0.950 . S
C2441 C2440 1.397 . S
C2441 C2442 1.334 . S
C2442 H2413 0.950 . S
C2442 C2441 1.334 . S
C2442 C2443 1.287 . S
C2443 C2442 1.287 . S
C2443 C2444 1.524 . S
C2443 H2446 0.999 1_655 S
C2444 H2414 0.950 . S
C2444 C2443 1.524 . S
C2444 C2445 1.415 . S
C2445 H2415 0.950 . S
C2445 C2440 1.363 . S
C2445 C2444 1.415 . S
H2446 C2443 0.999 1_455 S
H2447 C2428 0.913 . S
H2448 C2466 0.951 . S
H2449 C2468 0.951 . S
H2450 C2470 0.950 . S
H2451 C2471 0.950 . S
H2452 C2473 0.950 . S
H2453 C2476 0.950 . S
H2454 C2477 0.950 . S
H2455 C2479 0.950 . S
H2456 C2480 0.950 . S
H2457 C2481 0.951 . S
H2458 C2483 0.951 . S
H2459 C2485 0.950 . S
H2460 C2486 0.950 . S
H2461 C2488 0.950 . S
H2462 C2491 0.950 . S
H2463 C2492 0.950 . S
H2464 C2494 0.950 . S
H2465 C2495 0.950 . S
C2466 H2448 0.951 . S
C2466 C2467 1.366 . S
C2466 C2468 1.388 . S
C2467 C2466 1.366 . S
C2467 C2471 1.385 . S
C2468 H2449 0.951 . S
C2468 C2466 1.388 . S
C2468 C2469 1.366 . S
C2469 C2468 1.366 . S
C2469 C2470 1.414 . S
C2469 C2472 1.499 . S
C2470 H2450 0.950 . S
C2470 C2469 1.414 . S
C2470 C2471 1.374 . S
C2471 H2451 0.950 . S
C2471 C2467 1.385 . S
C2471 C2470 1.374 . S
C2472 C2469 1.499 . S
C2472 C2473 1.373 . S
C2472 C2474 1.389 . S
C2473 H2452 0.950 . S
C2473 C2472 1.373 . S
C2473 C2489 1.377 . S
C2474 C2472 1.389 . S
C2474 C2475 1.524 . S
C2474 C2488 1.377 . S
C2475 C2474 1.524 . S
C2475 C2476 1.397 . S
C2475 C2480 1.363 . S
C2476 H2453 0.950 . S
C2476 C2475 1.397 . S
C2476 C2477 1.334 . S
C2477 H2454 0.950 . S
C2477 C2476 1.334 . S
C2477 C2478 1.287 . S
C2478 C2477 1.287 . S
C2478 C2479 1.524 . S
C2478 H2497 0.913 . S
C2479 H2455 0.950 . S
C2479 C2478 1.524 . S
C2479 C2480 1.415 . S
C2480 H2456 0.950 . S
C2480 C2475 1.363 . S
C2480 C2479 1.415 . S
C2481 H2457 0.951 . S
C2481 C2482 1.366 . S
C2481 C2483 1.388 . S
C2482 C2481 1.366 . S
C2482 C2486 1.385 . S
C2483 H2458 0.951 . S
C2483 C2481 1.388 . S
C2483 C2484 1.366 . S
C2484 C2483 1.366 . S
C2484 C2485 1.414 . S
C2484 C2487 1.499 . S
C2485 H2459 0.950 . S
C2485 C2484 1.414 . S
C2485 C2486 1.374 . S
C2486 H2460 0.950 . S
C2486 C2482 1.385 . S
C2486 C2485 1.374 . S
C2487 C2484 1.499 . S
C2487 C2488 1.373 . S
C2487 C2489 1.389 . S
C2488 H2461 0.950 . S
C2488 C2474 1.377 . S
C2488 C2487 1.373 . S
C2489 C2473 1.377 . S
C2489 C2487 1.389 . S
C2489 C2490 1.524 . S
C2490 C2489 1.524 . S
C2490 C2491 1.397 . S
C2490 C2495 1.363 . S
C2491 H2462 0.950 . S
C2491 C2490 1.397 . S
C2491 C2492 1.334 . S
C2492 H2463 0.950 . S
C2492 C2491 1.334 . S
C2492 C2493 1.287 . S
C2493 C2492 1.287 . S
C2493 C2494 1.524 . S
C2493 H2496 0.999 . S
C2494 H2464 0.950 . S
C2494 C2493 1.524 . S
C2494 C2495 1.415 . S
C2495 H2465 0.950 . S
C2495 C2490 1.363 . S
C2495 C2494 1.415 . S
H2496 C2493 0.999 . S
H2497 C2478 0.913 . S
H2498 C2516 0.951 . S
H2499 C2518 0.951 . S
H2500 C2520 0.950 . S
H2501 C2521 0.950 . S
H2502 C2523 0.950 . S
H2503 C2526 0.950 . S
H2504 C2527 0.950 . S
H2505 C2529 0.950 . S
H2506 C2530 0.950 . S
H2507 C2531 0.951 . S
H2508 C2533 0.951 . S
H2509 C2535 0.950 . S
H2510 C2536 0.950 . S
H2511 C2538 0.950 . S
H2512 C2541 0.950 . S
H2513 C2542 0.950 . S
H2514 C2544 0.950 . S
H2515 C2545 0.950 . S
C2516 H2498 0.951 . S
C2516 C2517 1.366 . S
C2516 C2518 1.388 . S
C2517 C2516 1.366 . S
C2517 C2521 1.385 . S
C2518 H2499 0.951 . S
C2518 C2516 1.388 . S
C2518 C2519 1.366 . S
C2519 C2518 1.366 . S
C2519 C2520 1.414 . S
C2519 C2522 1.499 . S
C2520 H2500 0.950 . S
C2520 C2519 1.414 . S
C2520 C2521 1.374 . S
C2521 H2501 0.950 . S
C2521 C2517 1.385 . S
C2521 C2520 1.374 . S
C2522 C2519 1.499 . S
C2522 C2523 1.373 . S
C2522 C2524 1.389 . S
C2523 H2502 0.950 . S
C2523 C2522 1.373 . S
C2523 C2539 1.377 . S
C2524 C2522 1.389 . S
C2524 C2525 1.524 . S
C2524 C2538 1.377 . S
C2525 C2524 1.524 . S
C2525 C2526 1.397 . S
C2525 C2530 1.363 . S
C2526 H2503 0.950 . S
C2526 C2525 1.397 . S
C2526 C2527 1.334 . S
C2527 H2504 0.950 . S
C2527 C2526 1.334 . S
C2527 C2528 1.287 . S
C2528 C2527 1.287 . S
C2528 C2529 1.524 . S
C2528 H2547 0.913 . S
C2529 H2505 0.950 . S
C2529 C2528 1.524 . S
C2529 C2530 1.415 . S
C2530 H2506 0.950 . S
C2530 C2525 1.363 . S
C2530 C2529 1.415 . S
C2531 H2507 0.951 . S
C2531 C2532 1.366 . S
C2531 C2533 1.388 . S
C2532 C2531 1.366 . S
C2532 C2536 1.385 . S
C2533 H2508 0.951 . S
C2533 C2531 1.388 . S
C2533 C2534 1.366 . S
C2534 C2533 1.366 . S
C2534 C2535 1.414 . S
C2534 C2537 1.499 . S
C2535 H2509 0.950 . S
C2535 C2534 1.414 . S
C2535 C2536 1.374 . S
C2536 H2510 0.950 . S
C2536 C2532 1.385 . S
C2536 C2535 1.374 . S
C2537 C2534 1.499 . S
C2537 C2538 1.373 . S
C2537 C2539 1.389 . S
C2538 H2511 0.950 . S
C2538 C2524 1.377 . S
C2538 C2537 1.373 . S
C2539 C2523 1.377 . S
C2539 C2537 1.389 . S
C2539 C2540 1.524 . S
C2540 C2539 1.524 . S
C2540 C2541 1.397 . S
C2540 C2545 1.363 . S
C2541 H2512 0.950 . S
C2541 C2540 1.397 . S
C2541 C2542 1.334 . S
C2542 H2513 0.950 . S
C2542 C2541 1.334 . S
C2542 C2543 1.287 . S
C2543 C2542 1.287 . S
C2543 C2544 1.524 . S
C2543 H2546 0.999 . S
C2544 H2514 0.950 . S
C2544 C2543 1.524 . S
C2544 C2545 1.415 . S
C2545 H2515 0.950 . S
C2545 C2540 1.363 . S
C2545 C2544 1.415 . S
H2546 C2543 0.999 . S
H2547 C2528 0.913 . S
H2548 C2566 0.951 . S
H2549 C2568 0.951 . S
H2550 C2570 0.950 . S
H2551 C2571 0.950 . S
H2552 C2573 0.950 . S
H2553 C2576 0.950 . S
H2554 C2577 0.950 . S
H2555 C2579 0.950 . S
H2556 C2580 0.950 . S
H2557 C2581 0.951 . S
H2558 C2583 0.951 . S
H2559 C2585 0.950 . S
H2560 C2586 0.950 . S
H2561 C2588 0.950 . S
H2562 C2591 0.950 . S
H2563 C2592 0.950 . S
H2564 C2594 0.950 . S
H2565 C2595 0.950 . S
C2566 H2548 0.951 . S
C2566 C2567 1.366 . S
C2566 C2568 1.388 . S
C2567 C2566 1.366 . S
C2567 C2571 1.385 . S
C2568 H2549 0.951 . S
C2568 C2566 1.388 . S
C2568 C2569 1.366 . S
C2569 C2568 1.366 . S
C2569 C2570 1.414 . S
C2569 C2572 1.499 . S
C2570 H2550 0.950 . S
C2570 C2569 1.414 . S
C2570 C2571 1.374 . S
C2571 H2551 0.950 . S
C2571 C2567 1.385 . S
C2571 C2570 1.374 . S
C2572 C2569 1.499 . S
C2572 C2573 1.373 . S
C2572 C2574 1.389 . S
C2573 H2552 0.950 . S
C2573 C2572 1.373 . S
C2573 C2589 1.377 . S
C2574 C2572 1.389 . S
C2574 C2575 1.524 . S
C2574 C2588 1.377 . S
C2575 C2574 1.524 . S
C2575 C2576 1.397 . S
C2575 C2580 1.363 . S
C2576 H2553 0.950 . S
C2576 C2575 1.397 . S
C2576 C2577 1.334 . S
C2577 H2554 0.950 . S
C2577 C2576 1.334 . S
C2577 C2578 1.287 . S
C2578 C2577 1.287 . S
C2578 C2579 1.524 . S
C2578 H2597 0.913 . S
C2579 H2555 0.950 . S
C2579 C2578 1.524 . S
C2579 C2580 1.415 . S
C2580 H2556 0.950 . S
C2580 C2575 1.363 . S
C2580 C2579 1.415 . S
C2581 H2557 0.951 . S
C2581 C2582 1.366 . S
C2581 C2583 1.388 . S
C2582 C2581 1.366 . S
C2582 C2586 1.385 . S
C2583 H2558 0.951 . S
C2583 C2581 1.388 . S
C2583 C2584 1.366 . S
C2584 C2583 1.366 . S
C2584 C2585 1.414 . S
C2584 C2587 1.499 . S
C2585 H2559 0.950 . S
C2585 C2584 1.414 . S
C2585 C2586 1.374 . S
C2586 H2560 0.950 . S
C2586 C2582 1.385 . S
C2586 C2585 1.374 . S
C2587 C2584 1.499 . S
C2587 C2588 1.373 . S
C2587 C2589 1.389 . S
C2588 H2561 0.950 . S
C2588 C2574 1.377 . S
C2588 C2587 1.373 . S
C2589 C2573 1.377 . S
C2589 C2587 1.389 . S
C2589 C2590 1.524 . S
C2590 C2589 1.524 . S
C2590 C2591 1.397 . S
C2590 C2595 1.363 . S
C2591 H2562 0.950 . S
C2591 C2590 1.397 . S
C2591 C2592 1.334 . S
C2592 H2563 0.950 . S
C2592 C2591 1.334 . S
C2592 C2593 1.287 . S
C2593 C2592 1.287 . S
C2593 C2594 1.524 . S
C2593 H2596 0.999 . S
C2594 H2564 0.950 . S
C2594 C2593 1.524 . S
C2594 C2595 1.415 . S
C2595 H2565 0.950 . S
C2595 C2590 1.363 . S
C2595 C2594 1.415 . S
H2596 C2593 0.999 . S
H2597 C2578 0.913 . S
H2598 C2616 0.951 . S
H2599 C2618 0.951 . S
H2600 C2620 0.950 . S
H2601 C2621 0.950 . S
H2602 C2623 0.950 . S
H2603 C2626 0.950 . S
H2604 C2627 0.950 . S
H2605 C2629 0.950 . S
H2606 C2630 0.950 . S
H2607 C2631 0.951 . S
H2608 C2633 0.951 . S
H2609 C2635 0.950 . S
H2610 C2636 0.950 . S
H2611 C2638 0.950 . S
H2612 C2641 0.950 . S
H2613 C2642 0.950 . S
H2614 C2644 0.950 . S
H2615 C2645 0.950 . S
C2616 H2598 0.951 . S
C2616 C2617 1.366 . S
C2616 C2618 1.388 . S
C2617 C2616 1.366 . S
C2617 C2621 1.385 . S
C2618 H2599 0.951 . S
C2618 C2616 1.388 . S
C2618 C2619 1.366 . S
C2619 C2618 1.366 . S
C2619 C2620 1.414 . S
C2619 C2622 1.499 . S
C2620 H2600 0.950 . S
C2620 C2619 1.414 . S
C2620 C2621 1.374 . S
C2621 H2601 0.950 . S
C2621 C2617 1.385 . S
C2621 C2620 1.374 . S
C2622 C2619 1.499 . S
C2622 C2623 1.373 . S
C2622 C2624 1.389 . S
C2623 H2602 0.950 . S
C2623 C2622 1.373 . S
C2623 C2639 1.377 . S
C2624 C2622 1.389 . S
C2624 C2625 1.524 . S
C2624 C2638 1.377 . S
C2625 C2624 1.524 . S
C2625 C2626 1.397 . S
C2625 C2630 1.363 . S
C2626 H2603 0.950 . S
C2626 C2625 1.397 . S
C2626 C2627 1.334 . S
C2627 H2604 0.950 . S
C2627 C2626 1.334 . S
C2627 C2628 1.287 . S
C2628 C2627 1.287 . S
C2628 C2629 1.524 . S
C2628 H2647 0.913 . S
C2629 H2605 0.950 . S
C2629 C2628 1.524 . S
C2629 C2630 1.415 . S
C2630 H2606 0.950 . S
C2630 C2625 1.363 . S
C2630 C2629 1.415 . S
C2631 H2607 0.951 . S
C2631 C2632 1.366 . S
C2631 C2633 1.388 . S
C2632 C2631 1.366 . S
C2632 C2636 1.385 . S
C2633 H2608 0.951 . S
C2633 C2631 1.388 . S
C2633 C2634 1.366 . S
C2634 C2633 1.366 . S
C2634 C2635 1.414 . S
C2634 C2637 1.499 . S
C2635 H2609 0.950 . S
C2635 C2634 1.414 . S
C2635 C2636 1.374 . S
C2636 H2610 0.950 . S
C2636 C2632 1.385 . S
C2636 C2635 1.374 . S
C2637 C2634 1.499 . S
C2637 C2638 1.373 . S
C2637 C2639 1.389 . S
C2638 H2611 0.950 . S
C2638 C2624 1.377 . S
C2638 C2637 1.373 . S
C2639 C2623 1.377 . S
C2639 C2637 1.389 . S
C2639 C2640 1.524 . S
C2640 C2639 1.524 . S
C2640 C2641 1.397 . S
C2640 C2645 1.363 . S
C2641 H2612 0.950 . S
C2641 C2640 1.397 . S
C2641 C2642 1.334 . S
C2642 H2613 0.950 . S
C2642 C2641 1.334 . S
C2642 C2643 1.287 . S
C2643 C2642 1.287 . S
C2643 C2644 1.524 . S
C2643 H2646 0.999 . S
C2644 H2614 0.950 . S
C2644 C2643 1.524 . S
C2644 C2645 1.415 . S
C2645 H2615 0.950 . S
C2645 C2640 1.363 . S
C2645 C2644 1.415 . S
H2646 C2643 0.999 . S
H2647 C2628 0.913 . S
H2648 C2666 0.951 . S
H2649 C2668 0.951 . S
H2650 C2670 0.950 . S
H2651 C2671 0.950 . S
H2652 C2673 0.950 . S
H2653 C2676 0.950 . S
H2654 C2677 0.950 . S
H2655 C2679 0.950 . S
H2656 C2680 0.950 . S
H2657 C2681 0.951 . S
H2658 C2683 0.951 . S
H2659 C2685 0.950 . S
H2660 C2686 0.950 . S
H2661 C2688 0.950 . S
H2662 C2691 0.950 . S
H2663 C2692 0.950 . S
H2664 C2694 0.950 . S
H2665 C2695 0.950 . S
C2666 H2648 0.951 . S
C2666 C2667 1.366 . S
C2666 C2668 1.388 . S
C2667 C2666 1.366 . S
C2667 C2671 1.385 . S
C2668 H2649 0.951 . S
C2668 C2666 1.388 . S
C2668 C2669 1.366 . S
C2669 C2668 1.366 . S
C2669 C2670 1.414 . S
C2669 C2672 1.499 . S
C2670 H2650 0.950 . S
C2670 C2669 1.414 . S
C2670 C2671 1.374 . S
C2671 H2651 0.950 . S
C2671 C2667 1.385 . S
C2671 C2670 1.374 . S
C2672 C2669 1.499 . S
C2672 C2673 1.373 . S
C2672 C2674 1.389 . S
C2673 H2652 0.950 . S
C2673 C2672 1.373 . S
C2673 C2689 1.377 . S
C2674 C2672 1.389 . S
C2674 C2675 1.524 . S
C2674 C2688 1.377 . S
C2675 C2674 1.524 . S
C2675 C2676 1.397 . S
C2675 C2680 1.363 . S
C2676 H2653 0.950 . S
C2676 C2675 1.397 . S
C2676 C2677 1.334 . S
C2677 H2654 0.950 . S
C2677 C2676 1.334 . S
C2677 C2678 1.287 . S
C2678 C2677 1.287 . S
C2678 C2679 1.524 . S
C2678 H2697 0.913 . S
C2679 H2655 0.950 . S
C2679 C2678 1.524 . S
C2679 C2680 1.415 . S
C2680 H2656 0.950 . S
C2680 C2675 1.363 . S
C2680 C2679 1.415 . S
C2681 H2657 0.951 . S
C2681 C2682 1.366 . S
C2681 C2683 1.388 . S
C2682 C2681 1.366 . S
C2682 C2686 1.385 . S
C2683 H2658 0.951 . S
C2683 C2681 1.388 . S
C2683 C2684 1.366 . S
C2684 C2683 1.366 . S
C2684 C2685 1.414 . S
C2684 C2687 1.499 . S
C2685 H2659 0.950 . S
C2685 C2684 1.414 . S
C2685 C2686 1.374 . S
C2686 H2660 0.950 . S
C2686 C2682 1.385 . S
C2686 C2685 1.374 . S
C2687 C2684 1.499 . S
C2687 C2688 1.373 . S
C2687 C2689 1.389 . S
C2688 H2661 0.950 . S
C2688 C2674 1.377 . S
C2688 C2687 1.373 . S
C2689 C2673 1.377 . S
C2689 C2687 1.389 . S
C2689 C2690 1.524 . S
C2690 C2689 1.524 . S
C2690 C2691 1.397 . S
C2690 C2695 1.363 . S
C2691 H2662 0.950 . S
C2691 C2690 1.397 . S
C2691 C2692 1.334 . S
C2692 H2663 0.950 . S
C2692 C2691 1.334 . S
C2692 C2693 1.287 . S
C2693 C2692 1.287 . S
C2693 C2694 1.524 . S
C2693 H2696 0.999 . S
C2694 H2664 0.950 . S
C2694 C2693 1.524 . S
C2694 C2695 1.415 . S
C2695 H2665 0.950 . S
C2695 C2690 1.363 . S
C2695 C2694 1.415 . S
H2696 C2693 0.999 . S
H2697 C2678 0.913 . S
H2698 C2716 0.951 . S
H2699 C2718 0.951 . S
H2700 C2720 0.950 . S
H2701 C2721 0.950 . S
H2702 C2723 0.950 . S
H2703 C2726 0.950 . S
H2704 C2727 0.950 . S
H2705 C2729 0.950 . S
H2706 C2730 0.950 . S
H2707 C2731 0.951 . S
H2708 C2733 0.951 . S
H2709 C2735 0.950 . S
H2710 C2736 0.950 . S
H2711 C2738 0.950 . S
H2712 C2741 0.950 . S
H2713 C2742 0.950 . S
H2714 C2744 0.950 . S
H2715 C2745 0.950 . S
C2716 H2698 0.951 . S
C2716 C2717 1.366 . S
C2716 C2718 1.388 . S
C2717 C2716 1.366 . S
C2717 C2721 1.385 . S
C2718 H2699 0.951 . S
C2718 C2716 1.388 . S
C2718 C2719 1.366 . S
C2719 C2718 1.366 . S
C2719 C2720 1.414 . S
C2719 C2722 1.499 . S
C2720 H2700 0.950 . S
C2720 C2719 1.414 . S
C2720 C2721 1.374 . S
C2721 H2701 0.950 . S
C2721 C2717 1.385 . S
C2721 C2720 1.374 . S
C2722 C2719 1.499 . S
C2722 C2723 1.373 . S
C2722 C2724 1.389 . S
C2723 H2702 0.950 . S
C2723 C2722 1.373 . S
C2723 C2739 1.377 . S
C2724 C2722 1.389 . S
C2724 C2725 1.524 . S
C2724 C2738 1.377 . S
C2725 C2724 1.524 . S
C2725 C2726 1.397 . S
C2725 C2730 1.363 . S
C2726 H2703 0.950 . S
C2726 C2725 1.397 . S
C2726 C2727 1.334 . S
C2727 H2704 0.950 . S
C2727 C2726 1.334 . S
C2727 C2728 1.287 . S
C2728 C2727 1.287 . S
C2728 C2729 1.524 . S
C2728 H2747 0.913 . S
C2729 H2705 0.950 . S
C2729 C2728 1.524 . S
C2729 C2730 1.415 . S
C2730 H2706 0.950 . S
C2730 C2725 1.363 . S
C2730 C2729 1.415 . S
C2731 H2707 0.951 . S
C2731 C2732 1.366 . S
C2731 C2733 1.388 . S
C2732 C2731 1.366 . S
C2732 C2736 1.385 . S
C2733 H2708 0.951 . S
C2733 C2731 1.388 . S
C2733 C2734 1.366 . S
C2734 C2733 1.366 . S
C2734 C2735 1.414 . S
C2734 C2737 1.499 . S
C2735 H2709 0.950 . S
C2735 C2734 1.414 . S
C2735 C2736 1.374 . S
C2736 H2710 0.950 . S
C2736 C2732 1.385 . S
C2736 C2735 1.374 . S
C2737 C2734 1.499 . S
C2737 C2738 1.373 . S
C2737 C2739 1.389 . S
C2738 H2711 0.950 . S
C2738 C2724 1.377 . S
C2738 C2737 1.373 . S
C2739 C2723 1.377 . S
C2739 C2737 1.389 . S
C2739 C2740 1.524 . S
C2740 C2739 1.524 . S
C2740 C2741 1.397 . S
C2740 C2745 1.363 . S
C2741 H2712 0.950 . S
C2741 C2740 1.397 . S
C2741 C2742 1.334 . S
C2742 H2713 0.950 . S
C2742 C2741 1.334 . S
C2742 C2743 1.287 . S
C2743 C2742 1.287 . S
C2743 C2744 1.524 . S
C2743 H2746 0.999 . S
C2744 H2714 0.950 . S
C2744 C2743 1.524 . S
C2744 C2745 1.415 . S
C2745 H2715 0.950 . S
C2745 C2740 1.363 . S
C2745 C2744 1.415 . S
H2746 C2743 0.999 . S
H2747 C2728 0.913 . S
H2748 C2766 0.951 . S
H2749 C2768 0.951 . S
H2750 C2770 0.950 . S
H2751 C2771 0.950 . S
H2752 C2773 0.950 . S
H2753 C2776 0.950 . S
H2754 C2777 0.950 . S
H2755 C2779 0.950 . S
H2756 C2780 0.950 . S
H2757 C2781 0.951 . S
H2758 C2783 0.951 . S
H2759 C2785 0.950 . S
H2760 C2786 0.950 . S
H2761 C2788 0.950 . S
H2762 C2791 0.950 . S
H2763 C2792 0.950 . S
H2764 C2794 0.950 . S
H2765 C2795 0.950 . S
C2766 H2748 0.951 . S
C2766 C2767 1.366 . S
C2766 C2768 1.388 . S
C2767 C2766 1.366 . S
C2767 C2771 1.385 . S
C2768 H2749 0.951 . S
C2768 C2766 1.388 . S
C2768 C2769 1.366 . S
C2769 C2768 1.366 . S
C2769 C2770 1.414 . S
C2769 C2772 1.499 . S
C2770 H2750 0.950 . S
C2770 C2769 1.414 . S
C2770 C2771 1.374 . S
C2771 H2751 0.950 . S
C2771 C2767 1.385 . S
C2771 C2770 1.374 . S
C2772 C2769 1.499 . S
C2772 C2773 1.373 . S
C2772 C2774 1.389 . S
C2773 H2752 0.950 . S
C2773 C2772 1.373 . S
C2773 C2789 1.377 . S
C2774 C2772 1.389 . S
C2774 C2775 1.524 . S
C2774 C2788 1.377 . S
C2775 C2774 1.524 . S
C2775 C2776 1.397 . S
C2775 C2780 1.363 . S
C2776 H2753 0.950 . S
C2776 C2775 1.397 . S
C2776 C2777 1.334 . S
C2777 H2754 0.950 . S
C2777 C2776 1.334 . S
C2777 C2778 1.287 . S
C2778 C2777 1.287 . S
C2778 C2779 1.524 . S
C2778 H2797 0.913 . S
C2779 H2755 0.950 . S
C2779 C2778 1.524 . S
C2779 C2780 1.415 . S
C2780 H2756 0.950 . S
C2780 C2775 1.363 . S
C2780 C2779 1.415 . S
C2781 H2757 0.951 . S
C2781 C2782 1.366 . S
C2781 C2783 1.388 . S
C2782 C2781 1.366 . S
C2782 C2786 1.385 . S
C2783 H2758 0.951 . S
C2783 C2781 1.388 . S
C2783 C2784 1.366 . S
C2784 C2783 1.366 . S
C2784 C2785 1.414 . S
C2784 C2787 1.499 . S
C2785 H2759 0.950 . S
C2785 C2784 1.414 . S
C2785 C2786 1.374 . S
C2786 H2760 0.950 . S
C2786 C2782 1.385 . S
C2786 C2785 1.374 . S
C2787 C2784 1.499 . S
C2787 C2788 1.373 . S
C2787 C2789 1.389 . S
C2788 H2761 0.950 . S
C2788 C2774 1.377 . S
C2788 C2787 1.373 . S
C2789 C2773 1.377 . S
C2789 C2787 1.389 . S
C2789 C2790 1.524 . S
C2790 C2789 1.524 . S
C2790 C2791 1.397 . S
C2790 C2795 1.363 . S
C2791 H2762 0.950 . S
C2791 C2790 1.397 . S
C2791 C2792 1.334 . S
C2792 H2763 0.950 . S
C2792 C2791 1.334 . S
C2792 C2793 1.287 . S
C2793 C2792 1.287 . S
C2793 C2794 1.524 . S
C2793 H2796 0.999 . S
C2794 H2764 0.950 . S
C2794 C2793 1.524 . S
C2794 C2795 1.415 . S
C2795 H2765 0.950 . S
C2795 C2790 1.363 . S
C2795 C2794 1.415 . S
H2796 C2793 0.999 . S
H2797 C2778 0.913 . S
H2798 C2816 0.951 . S
H2799 C2818 0.951 . S
H2800 C2820 0.950 . S
H2801 C2821 0.950 . S
H2802 C2823 0.950 . S
H2803 C2826 0.950 . S
H2804 C2827 0.950 . S
H2805 C2829 0.950 . S
H2806 C2830 0.950 . S
H2807 C2831 0.951 . S
H2808 C2833 0.951 . S
H2809 C2835 0.950 . S
H2810 C2836 0.950 . S
H2811 C2838 0.950 . S
H2812 C2841 0.950 . S
H2813 C2842 0.950 . S
H2814 C2844 0.950 . S
H2815 C2845 0.950 . S
C2816 H2798 0.951 . S
C2816 C2817 1.366 . S
C2816 C2818 1.388 . S
C2817 C2816 1.366 . S
C2817 C2821 1.385 . S
C2818 H2799 0.951 . S
C2818 C2816 1.388 . S
C2818 C2819 1.366 . S
C2819 C2818 1.366 . S
C2819 C2820 1.414 . S
C2819 C2822 1.499 . S
C2820 H2800 0.950 . S
C2820 C2819 1.414 . S
C2820 C2821 1.374 . S
C2821 H2801 0.950 . S
C2821 C2817 1.385 . S
C2821 C2820 1.374 . S
C2822 C2819 1.499 . S
C2822 C2823 1.373 . S
C2822 C2824 1.389 . S
C2823 H2802 0.950 . S
C2823 C2822 1.373 . S
C2823 C2839 1.377 . S
C2824 C2822 1.389 . S
C2824 C2825 1.524 . S
C2824 C2838 1.377 . S
C2825 C2824 1.524 . S
C2825 C2826 1.397 . S
C2825 C2830 1.363 . S
C2826 H2803 0.950 . S
C2826 C2825 1.397 . S
C2826 C2827 1.334 . S
C2827 H2804 0.950 . S
C2827 C2826 1.334 . S
C2827 C2828 1.287 . S
C2828 C2827 1.287 . S
C2828 C2829 1.524 . S
C2828 H2847 0.913 . S
C2829 H2805 0.950 . S
C2829 C2828 1.524 . S
C2829 C2830 1.415 . S
C2830 H2806 0.950 . S
C2830 C2825 1.363 . S
C2830 C2829 1.415 . S
C2831 H2807 0.951 . S
C2831 C2832 1.366 . S
C2831 C2833 1.388 . S
C2832 C2831 1.366 . S
C2832 C2836 1.385 . S
C2833 H2808 0.951 . S
C2833 C2831 1.388 . S
C2833 C2834 1.366 . S
C2834 C2833 1.366 . S
C2834 C2835 1.414 . S
C2834 C2837 1.499 . S
C2835 H2809 0.950 . S
C2835 C2834 1.414 . S
C2835 C2836 1.374 . S
C2836 H2810 0.950 . S
C2836 C2832 1.385 . S
C2836 C2835 1.374 . S
C2837 C2834 1.499 . S
C2837 C2838 1.373 . S
C2837 C2839 1.389 . S
C2838 H2811 0.950 . S
C2838 C2824 1.377 . S
C2838 C2837 1.373 . S
C2839 C2823 1.377 . S
C2839 C2837 1.389 . S
C2839 C2840 1.524 . S
C2840 C2839 1.524 . S
C2840 C2841 1.397 . S
C2840 C2845 1.363 . S
C2841 H2812 0.950 . S
C2841 C2840 1.397 . S
C2841 C2842 1.334 . S
C2842 H2813 0.950 . S
C2842 C2841 1.334 . S
C2842 C2843 1.287 . S
C2843 C2842 1.287 . S
C2843 C2844 1.524 . S
C2843 H2846 0.999 . S
C2844 H2814 0.950 . S
C2844 C2843 1.524 . S
C2844 C2845 1.415 . S
C2845 H2815 0.950 . S
C2845 C2840 1.363 . S
C2845 C2844 1.415 . S
H2846 C2843 0.999 . S
H2847 C2828 0.913 . S
H2848 C2866 0.951 . S
H2849 C2868 0.951 . S
H2850 C2870 0.950 . S
H2851 C2871 0.950 . S
H2852 C2873 0.950 . S
H2853 C2876 0.950 . S
H2854 C2877 0.950 . S
H2855 C2879 0.950 . S
H2856 C2880 0.950 . S
H2857 C2881 0.951 . S
H2858 C2883 0.951 . S
H2859 C2885 0.950 . S
H2860 C2886 0.950 . S
H2861 C2888 0.950 . S
H2862 C2891 0.950 . S
H2863 C2892 0.950 . S
H2864 C2894 0.950 . S
H2865 C2895 0.950 . S
C2866 H2848 0.951 . S
C2866 C2867 1.366 . S
C2866 C2868 1.388 . S
C2867 C2866 1.366 . S
C2867 C2871 1.385 . S
C2868 H2849 0.951 . S
C2868 C2866 1.388 . S
C2868 C2869 1.366 . S
C2869 C2868 1.366 . S
C2869 C2870 1.414 . S
C2869 C2872 1.499 . S
C2870 H2850 0.950 . S
C2870 C2869 1.414 . S
C2870 C2871 1.374 . S
C2871 H2851 0.950 . S
C2871 C2867 1.385 . S
C2871 C2870 1.374 . S
C2872 C2869 1.499 . S
C2872 C2873 1.373 . S
C2872 C2874 1.389 . S
C2873 H2852 0.950 . S
C2873 C2872 1.373 . S
C2873 C2889 1.377 . S
C2874 C2872 1.389 . S
C2874 C2875 1.524 . S
C2874 C2888 1.377 . S
C2875 C2874 1.524 . S
C2875 C2876 1.397 . S
C2875 C2880 1.363 . S
C2876 H2853 0.950 . S
C2876 C2875 1.397 . S
C2876 C2877 1.334 . S
C2877 H2854 0.950 . S
C2877 C2876 1.334 . S
C2877 C2878 1.287 . S
C2878 C2877 1.287 . S
C2878 C2879 1.524 . S
C2878 H2897 0.913 . S
C2879 H2855 0.950 . S
C2879 C2878 1.524 . S
C2879 C2880 1.415 . S
C2880 H2856 0.950 . S
C2880 C2875 1.363 . S
C2880 C2879 1.415 . S
C2881 H2857 0.951 . S
C2881 C2882 1.366 . S
C2881 C2883 1.388 . S
C2882 C2881 1.366 . S
C2882 C2886 1.385 . S
C2883 H2858 0.951 . S
C2883 C2881 1.388 . S
C2883 C2884 1.366 . S
C2884 C2883 1.366 . S
C2884 C2885 1.414 . S
C2884 C2887 1.499 . S
C2885 H2859 0.950 . S
C2885 C2884 1.414 . S
C2885 C2886 1.374 . S
C2886 H2860 0.950 . S
C2886 C2882 1.385 . S
C2886 C2885 1.374 . S
C2887 C2884 1.499 . S
C2887 C2888 1.373 . S
C2887 C2889 1.389 . S
C2888 H2861 0.950 . S
C2888 C2874 1.377 . S
C2888 C2887 1.373 . S
C2889 C2873 1.377 . S
C2889 C2887 1.389 . S
C2889 C2890 1.524 . S
C2890 C2889 1.524 . S
C2890 C2891 1.397 . S
C2890 C2895 1.363 . S
C2891 H2862 0.950 . S
C2891 C2890 1.397 . S
C2891 C2892 1.334 . S
C2892 H2863 0.950 . S
C2892 C2891 1.334 . S
C2892 C2893 1.287 . S
C2893 C2892 1.287 . S
C2893 C2894 1.524 . S
C2893 H2896 0.999 . S
C2894 H2864 0.950 . S
C2894 C2893 1.524 . S
C2894 C2895 1.415 . S
C2895 H2865 0.950 . S
C2895 C2890 1.363 . S
C2895 C2894 1.415 . S
H2896 C2893 0.999 . S
H2897 C2878 0.913 . S
H2898 C2916 0.951 . S
H2899 C2918 0.951 . S
H2900 C2920 0.950 . S
H2901 C2921 0.950 . S
H2902 C2923 0.950 . S
H2903 C2926 0.950 . S
H2904 C2927 0.950 . S
H2905 C2929 0.950 . S
H2906 C2930 0.950 . S
H2907 C2931 0.951 1_455 S
H2908 C2933 0.951 . S
H2909 C2935 0.950 . S
H2910 C2936 0.950 1_455 S
H2911 C2938 0.950 . S
H2912 C2941 0.950 . S
H2913 C2942 0.950 . S
H2914 C2944 0.950 . S
H2915 C2945 0.950 . S
C2916 H2898 0.951 . S
C2916 C2917 1.366 . S
C2916 C2918 1.388 . S
C2917 C2916 1.366 . S
C2917 C2921 1.385 . S
C2918 H2899 0.951 . S
C2918 C2916 1.388 . S
C2918 C2919 1.366 . S
C2919 C2918 1.366 . S
C2919 C2920 1.414 . S
C2919 C2922 1.499 . S
C2920 H2900 0.950 . S
C2920 C2919 1.414 . S
C2920 C2921 1.374 . S
C2921 H2901 0.950 . S
C2921 C2917 1.385 . S
C2921 C2920 1.374 . S
C2922 C2919 1.499 . S
C2922 C2923 1.373 . S
C2922 C2924 1.389 . S
C2923 H2902 0.950 . S
C2923 C2922 1.373 . S
C2923 C2939 1.377 . S
C2924 C2922 1.389 . S
C2924 C2925 1.524 . S
C2924 C2938 1.377 . S
C2925 C2924 1.524 . S
C2925 C2926 1.397 . S
C2925 C2930 1.363 . S
C2926 H2903 0.950 . S
C2926 C2925 1.397 . S
C2926 C2927 1.334 . S
C2927 H2904 0.950 . S
C2927 C2926 1.334 . S
C2927 C2928 1.287 . S
C2928 C2927 1.287 . S
C2928 C2929 1.524 . S
C2928 H2947 0.913 . S
C2929 H2905 0.950 . S
C2929 C2928 1.524 . S
C2929 C2930 1.415 . S
C2930 H2906 0.950 . S
C2930 C2925 1.363 . S
C2930 C2929 1.415 . S
C2931 H2907 0.951 1_655 S
C2931 C2932 1.366 1_655 S
C2931 C2933 1.388 . S
C2932 C2931 1.366 1_455 S
C2932 C2936 1.385 1_455 S
C2933 H2908 0.951 . S
C2933 C2931 1.388 . S
C2933 C2934 1.366 . S
C2934 C2933 1.366 . S
C2934 C2935 1.414 . S
C2934 C2937 1.499 . S
C2935 H2909 0.950 . S
C2935 C2934 1.414 . S
C2935 C2936 1.374 . S
C2936 H2910 0.950 1_655 S
C2936 C2932 1.385 1_655 S
C2936 C2935 1.374 . S
C2937 C2934 1.499 . S
C2937 C2938 1.373 . S
C2937 C2939 1.389 . S
C2938 H2911 0.950 . S
C2938 C2924 1.377 . S
C2938 C2937 1.373 . S
C2939 C2923 1.377 . S
C2939 C2937 1.389 . S
C2939 C2940 1.524 . S
C2940 C2939 1.524 . S
C2940 C2941 1.397 . S
C2940 C2945 1.363 . S
C2941 H2912 0.950 . S
C2941 C2940 1.397 . S
C2941 C2942 1.334 . S
C2942 H2913 0.950 . S
C2942 C2941 1.334 . S
C2942 C2943 1.287 . S
C2943 C2942 1.287 . S
C2943 C2944 1.524 . S
C2943 H2946 0.999 . S
C2944 H2914 0.950 . S
C2944 C2943 1.524 . S
C2944 C2945 1.415 . S
C2945 H2915 0.950 . S
C2945 C2940 1.363 . S
C2945 C2944 1.415 . S
H2946 C2943 0.999 . S
H2947 C2928 0.913 . S
H2948 C2966 0.951 . S
H2949 C2968 0.951 . S
H2950 C2970 0.950 . S
H2951 C2971 0.950 . S
H2952 C2973 0.950 . S
H2953 C2976 0.950 . S
H2954 C2977 0.950 . S
H2955 C2979 0.950 . S
H2956 C2980 0.950 . S
H2957 C2981 0.951 . S
H2958 C2983 0.951 . S
H2959 C2985 0.950 . S
H2960 C2986 0.950 . S
H2961 C2988 0.950 . S
H2962 C2991 0.950 . S
H2963 C2992 0.950 . S
H2964 C2994 0.950 . S
H2965 C2995 0.950 . S
C2966 H2948 0.951 . S
C2966 C2967 1.364 . S
C2966 C2968 1.388 . S
C2967 C2966 1.364 . S
C2967 C2971 1.386 1_556 S
C2968 H2949 0.951 . S
C2968 C2966 1.388 . S
C2968 C2969 1.348 1_556 S
C2969 C2968 1.348 1_554 S
C2969 C2970 1.431 . S
C2969 C2972 1.498 . S
C2970 H2950 0.950 . S
C2970 C2969 1.431 . S
C2970 C2971 1.374 . S
C2971 H2951 0.950 . S
C2971 C2967 1.386 1_554 S
C2971 C2970 1.374 . S
C2972 C2969 1.498 . S
C2972 C2973 1.387 . S
C2972 C2974 1.375 1_554 S
C2973 H2952 0.950 . S
C2973 C2972 1.387 . S
C2973 C2989 1.377 . S
C2974 C2972 1.375 1_556 S
C2974 C2975 1.524 . S
C2974 C2988 1.377 . S
C2975 C2974 1.524 . S
C2975 C2976 1.397 1_556 S
C2975 C2980 1.363 . S
C2976 H2953 0.950 . S
C2976 C2975 1.397 1_554 S
C2976 C2977 1.334 . S
C2977 H2954 0.950 . S
C2977 C2976 1.334 . S
C2977 C2978 1.287 1_554 S
C2978 C2977 1.287 1_556 S
C2978 C2979 1.524 . S
C2978 H2997 0.913 . S
C2979 H2955 0.950 . S
C2979 C2978 1.524 . S
C2979 C2980 1.415 . S
C2980 H2956 0.950 . S
C2980 C2975 1.363 . S
C2980 C2979 1.415 . S
C2981 H2957 0.951 . S
C2981 C2982 1.368 1_554 S
C2981 C2983 1.388 . S
C2982 C2981 1.368 1_556 S
C2982 C2986 1.383 . S
C2983 H2958 0.951 . S
C2983 C2981 1.388 . S
C2983 C2984 1.341 1_554 S
C2984 C2983 1.341 1_556 S
C2984 C2985 1.438 . S
C2984 C2987 1.500 . S
C2985 H2959 0.950 . S
C2985 C2984 1.438 . S
C2985 C2986 1.374 . S
C2986 H2960 0.950 . S
C2986 C2982 1.383 . S
C2986 C2985 1.374 . S
C2987 C2984 1.500 . S
C2987 C2988 1.373 . S
C2987 C2989 1.389 1_556 S
C2988 H2961 0.950 . S
C2988 C2974 1.377 . S
C2988 C2987 1.373 . S
C2989 C2973 1.377 . S
C2989 C2987 1.389 1_554 S
C2989 C2990 1.524 . S
C2990 C2989 1.524 . S
C2990 C2991 1.397 1_554 S
C2990 C2995 1.363 . S
C2991 H2962 0.950 . S
C2991 C2990 1.397 1_556 S
C2991 C2992 1.334 . S
C2992 H2963 0.950 . S
C2992 C2991 1.334 . S
C2992 C2993 1.287 1_556 S
C2993 C2992 1.287 1_554 S
C2993 C2994 1.524 . S
C2993 H2996 0.999 . S
C2994 H2964 0.950 . S
C2994 C2993 1.524 . S
C2994 C2995 1.415 . S
C2995 H2965 0.950 . S
C2995 C2990 1.363 . S
C2995 C2994 1.415 . S
H2996 C2993 0.999 . S
H2997 C2978 0.913 . S
H2998 C3016 0.951 . S
H2999 C3018 0.957 . S
H3000 C3020 0.950 . S
H3001 C3021 0.950 . S
H3002 C3023 0.950 . S
H3003 C3026 0.950 . S
H3004 C3027 0.950 . S
H3005 C3029 0.950 . S
H3006 C3030 0.950 . S
H3007 C3031 0.951 . S
H3008 C3033 0.956 . S
H3009 C3035 0.950 . S
H3010 C3036 0.950 . S
H3011 C3038 0.950 . S
H3012 C3041 0.950 . S
H3013 C3042 0.950 . S
H3014 C3044 0.950 . S
H3015 C3045 0.950 . S
C3016 H2998 0.951 . S
C3016 C3017 1.366 . S
C3016 C3018 1.391 1_455 S
C3017 C3016 1.366 . S
C3017 C3021 1.385 1_456 S
C3018 H2999 0.957 . S
C3018 C3016 1.391 1_655 S
C3018 C3019 1.359 1_556 S
C3019 C3018 1.359 1_554 S
C3019 C3020 1.418 . S
C3019 C3022 1.500 . S
C3020 H3000 0.950 . S
C3020 C3019 1.418 . S
C3020 C3021 1.374 . S
C3021 H3001 0.950 . S
C3021 C3017 1.385 1_654 S
C3021 C3020 1.374 . S
C3022 C3019 1.500 . S
C3022 C3023 1.373 1_554 S
C3022 C3024 1.389 . S
C3023 H3002 0.950 . S
C3023 C3022 1.373 1_556 S
C3023 C3039 1.377 . S
C3024 C3022 1.389 . S
C3024 C3025 1.524 . S
C3024 C3038 1.377 . S
C3025 C3024 1.524 . S
C3025 C3026 1.397 . S
C3025 C3030 1.363 . S
C3026 H3003 0.950 . S
C3026 C3025 1.397 . S
C3026 C3027 1.334 . S
C3027 H3004 0.950 . S
C3027 C3026 1.334 . S
C3027 C3028 1.287 . S
C3028 C3027 1.287 . S
C3028 C3029 1.524 . S
C3028 H3047 0.913 . S
C3029 H3005 0.950 . S
C3029 C3028 1.524 . S
C3029 C3030 1.415 . S
C3030 H3006 0.950 . S
C3030 C3025 1.363 . S
C3030 C3029 1.415 . S
C3031 H3007 0.951 . S
C3031 C3032 1.366 1_554 S
C3031 C3033 1.390 . S
C3032 C3031 1.366 1_556 S
C3032 C3036 1.384 . S
C3033 H3008 0.956 . S
C3033 C3031 1.390 . S
C3033 C3034 1.361 1_554 S
C3034 C3033 1.361 1_556 S
C3034 C3035 1.414 . S
C3034 C3037 1.499 . S
C3035 H3009 0.950 . S
C3035 C3034 1.414 . S
C3035 C3036 1.374 . S
C3036 H3010 0.950 . S
C3036 C3032 1.384 . S
C3036 C3035 1.374 . S
C3037 C3034 1.499 . S
C3037 C3038 1.373 1_556 S
C3037 C3039 1.389 . S
C3038 H3011 0.950 . S
C3038 C3024 1.377 . S
C3038 C3037 1.373 1_554 S
C3039 C3023 1.377 . S
C3039 C3037 1.389 . S
C3039 C3040 1.524 . S
C3040 C3039 1.524 . S
C3040 C3041 1.397 . S
C3040 C3045 1.363 . S
C3041 H3012 0.950 . S
C3041 C3040 1.397 . S
C3041 C3042 1.334 . S
C3042 H3013 0.950 . S
C3042 C3041 1.334 . S
C3042 C3043 1.287 . S
C3043 C3042 1.287 . S
C3043 C3044 1.524 . S
C3043 H3046 0.999 . S
C3044 H3014 0.950 . S
C3044 C3043 1.524 . S
C3044 C3045 1.415 . S
C3045 H3015 0.950 . S
C3045 C3040 1.363 . S
C3045 C3044 1.415 . S
H3046 C3043 0.999 . S
H3047 C3028 0.913 . S
H3048 C3066 0.951 . S
H3049 C3068 0.951 . S
H3050 C3070 0.950 . S
H3051 C3071 0.950 . S
H3052 C3073 0.950 . S
H3053 C3076 0.950 . S
H3054 C3077 0.950 . S
H3055 C3079 0.950 . S
H3056 C3080 0.950 . S
H3057 C3081 0.951 . S
H3058 C3083 0.951 . S
H3059 C3085 0.950 . S
H3060 C3086 0.950 . S
H3061 C3088 0.950 . S
H3062 C3091 0.950 . S
H3063 C3092 0.950 . S
H3064 C3094 0.950 . S
H3065 C3095 0.950 . S
C3066 H3048 0.951 . S
C3066 C3067 1.366 . S
C3066 C3068 1.388 . S
C3067 C3066 1.366 . S
C3067 C3071 1.385 . S
C3068 H3049 0.951 . S
C3068 C3066 1.388 . S
C3068 C3069 1.366 . S
C3069 C3068 1.366 . S
C3069 C3070 1.414 . S
C3069 C3072 1.499 . S
C3070 H3050 0.950 . S
C3070 C3069 1.414 . S
C3070 C3071 1.374 . S
C3071 H3051 0.950 . S
C3071 C3067 1.385 . S
C3071 C3070 1.374 . S
C3072 C3069 1.499 . S
C3072 C3073 1.373 . S
C3072 C3074 1.389 . S
C3073 H3052 0.950 . S
C3073 C3072 1.373 . S
C3073 C3089 1.377 . S
C3074 C3072 1.389 . S
C3074 C3075 1.524 . S
C3074 C3088 1.377 . S
C3075 C3074 1.524 . S
C3075 C3076 1.397 . S
C3075 C3080 1.363 . S
C3076 H3053 0.950 . S
C3076 C3075 1.397 . S
C3076 C3077 1.334 . S
C3077 H3054 0.950 . S
C3077 C3076 1.334 . S
C3077 C3078 1.287 . S
C3078 C3077 1.287 . S
C3078 C3079 1.524 . S
C3078 H3097 0.913 . S
C3079 H3055 0.950 . S
C3079 C3078 1.524 . S
C3079 C3080 1.415 . S
C3080 H3056 0.950 . S
C3080 C3075 1.363 . S
C3080 C3079 1.415 . S
C3081 H3057 0.951 . S
C3081 C3082 1.366 . S
C3081 C3083 1.388 . S
C3082 C3081 1.366 . S
C3082 C3086 1.385 . S
C3083 H3058 0.951 . S
C3083 C3081 1.388 . S
C3083 C3084 1.366 . S
C3084 C3083 1.366 . S
C3084 C3085 1.414 . S
C3084 C3087 1.499 . S
C3085 H3059 0.950 . S
C3085 C3084 1.414 . S
C3085 C3086 1.374 . S
C3086 H3060 0.950 . S
C3086 C3082 1.385 . S
C3086 C3085 1.374 . S
C3087 C3084 1.499 . S
C3087 C3088 1.373 . S
C3087 C3089 1.389 . S
C3088 H3061 0.950 . S
C3088 C3074 1.377 . S
C3088 C3087 1.373 . S
C3089 C3073 1.377 . S
C3089 C3087 1.389 . S
C3089 C3090 1.524 . S
C3090 C3089 1.524 . S
C3090 C3091 1.397 . S
C3090 C3095 1.363 . S
C3091 H3062 0.950 . S
C3091 C3090 1.397 . S
C3091 C3092 1.334 . S
C3092 H3063 0.950 . S
C3092 C3091 1.334 . S
C3092 C3093 1.287 . S
C3093 C3092 1.287 . S
C3093 C3094 1.524 . S
C3093 H3096 0.999 . S
C3094 H3064 0.950 . S
C3094 C3093 1.524 . S
C3094 C3095 1.415 . S
C3095 H3065 0.950 . S
C3095 C3090 1.363 . S
C3095 C3094 1.415 . S
H3096 C3093 0.999 . S
H3097 C3078 0.913 . S
H3098 C3116 0.955 . S
H3099 C3118 0.951 . S
H3100 C3120 0.950 . S
H3101 C3121 0.961 . S
H3102 C3123 0.950 . S
H3103 C3126 0.950 . S
H3104 C3127 0.950 . S
H3105 C3129 0.950 . S
H3106 C3130 0.950 . S
H3107 C3131 0.951 . S
H3108 C3133 0.951 . S
H3109 C3135 0.950 . S
H3110 C3136 0.950 . S
H3111 C3138 0.950 . S
H3112 C3141 0.950 . S
H3113 C3142 0.950 . S
H3114 C3144 0.950 . S
H3115 C3145 0.950 . S
C3116 H3098 0.955 . S
C3116 C3117 1.368 . S
C3116 C3118 1.381 1_655 S
C3117 C3116 1.368 . S
C3117 C3121 1.385 1_655 S
C3118 H3099 0.951 . S
C3118 C3116 1.381 1_455 S
C3118 C3119 1.366 . S
C3119 C3118 1.366 . S
C3119 C3120 1.414 . S
C3119 C3122 1.499 . S
C3120 H3100 0.950 . S
C3120 C3119 1.414 . S
C3120 C3121 1.374 . S
C3121 H3101 0.961 . S
C3121 C3117 1.385 1_455 S
C3121 C3120 1.374 . S
C3122 C3119 1.499 . S
C3122 C3123 1.373 . S
C3122 C3124 1.389 . S
C3123 H3102 0.950 . S
C3123 C3122 1.373 . S
C3123 C3139 1.377 . S
C3124 C3122 1.389 . S
C3124 C3125 1.524 . S
C3124 C3138 1.377 . S
C3125 C3124 1.524 . S
C3125 C3126 1.397 . S
C3125 C3130 1.363 . S
C3126 H3103 0.950 . S
C3126 C3125 1.397 . S
C3126 C3127 1.334 . S
C3127 H3104 0.950 . S
C3127 C3126 1.334 . S
C3127 C3128 1.287 . S
C3128 C3127 1.287 . S
C3128 C3129 1.524 . S
C3128 H3147 0.913 . S
C3129 H3105 0.950 . S
C3129 C3128 1.524 . S
C3129 C3130 1.415 . S
C3130 H3106 0.950 . S
C3130 C3125 1.363 . S
C3130 C3129 1.415 . S
C3131 H3107 0.951 . S
C3131 C3132 1.366 . S
C3131 C3133 1.388 . S
C3132 C3131 1.366 . S
C3132 C3136 1.385 . S
C3133 H3108 0.951 . S
C3133 C3131 1.388 . S
C3133 C3134 1.366 . S
C3134 C3133 1.366 . S
C3134 C3135 1.414 . S
C3134 C3137 1.499 . S
C3135 H3109 0.950 . S
C3135 C3134 1.414 . S
C3135 C3136 1.374 . S
C3136 H3110 0.950 . S
C3136 C3132 1.385 . S
C3136 C3135 1.374 . S
C3137 C3134 1.499 . S
C3137 C3138 1.373 . S
C3137 C3139 1.389 . S
C3138 H3111 0.950 . S
C3138 C3124 1.377 . S
C3138 C3137 1.373 . S
C3139 C3123 1.377 . S
C3139 C3137 1.389 . S
C3139 C3140 1.524 . S
C3140 C3139 1.524 . S
C3140 C3141 1.397 . S
C3140 C3145 1.363 . S
C3141 H3112 0.950 . S
C3141 C3140 1.397 . S
C3141 C3142 1.334 . S
C3142 H3113 0.950 . S
C3142 C3141 1.334 . S
C3142 C3143 1.287 . S
C3143 C3142 1.287 . S
C3143 C3144 1.524 . S
C3143 H3146 0.999 . S
C3144 H3114 0.950 . S
C3144 C3143 1.524 . S
C3144 C3145 1.415 . S
C3145 H3115 0.950 . S
C3145 C3140 1.363 . S
C3145 C3144 1.415 . S
H3146 C3143 0.999 . S
H3147 C3128 0.913 . S
H3148 C3166 0.951 . S
H3149 C3168 0.951 . S
H3150 C3170 0.950 . S
H3151 C3171 0.950 . S
H3152 C3173 0.950 . S
H3153 C3176 0.950 . S
H3154 C3177 0.950 . S
H3155 C3179 0.950 . S
H3156 C3180 0.950 . S
H3157 C3181 0.951 . S
H3158 C3183 0.951 . S
H3159 C3185 0.950 . S
H3160 C3186 0.950 . S
H3161 C3188 0.950 . S
H3162 C3191 0.950 . S
H3163 C3192 0.950 . S
H3164 C3194 0.950 . S
H3165 C3195 0.950 . S
C3166 H3148 0.951 . S
C3166 C3167 1.367 1_556 S
C3166 C3168 1.388 . S
C3167 C3166 1.367 1_554 S
C3167 C3171 1.384 . S
C3168 H3149 0.951 . S
C3168 C3166 1.388 . S
C3168 C3169 1.364 . S
C3169 C3168 1.364 . S
C3169 C3170 1.415 1_556 S
C3169 C3172 1.498 1_556 S
C3170 H3150 0.950 . S
C3170 C3169 1.415 1_554 S
C3170 C3171 1.374 . S
C3171 H3151 0.950 . S
C3171 C3167 1.384 . S
C3171 C3170 1.374 . S
C3172 C3169 1.498 1_554 S
C3172 C3173 1.391 . S
C3172 C3174 1.372 1_554 S
C3173 H3152 0.950 . S
C3173 C3172 1.391 . S
C3173 C3189 1.377 . S
C3174 C3172 1.372 1_556 S
C3174 C3175 1.524 . S
C3174 C3188 1.377 . S
C3175 C3174 1.524 . S
C3175 C3176 1.397 . S
C3175 C3180 1.363 . S
C3176 H3153 0.950 . S
C3176 C3175 1.397 . S
C3176 C3177 1.334 . S
C3177 H3154 0.950 . S
C3177 C3176 1.334 . S
C3177 C3178 1.287 . S
C3178 C3177 1.287 . S
C3178 C3179 1.524 . S
C3178 H3197 0.913 . S
C3179 H3155 0.950 . S
C3179 C3178 1.524 . S
C3179 C3180 1.415 . S
C3180 H3156 0.950 . S
C3180 C3175 1.363 . S
C3180 C3179 1.415 . S
C3181 H3157 0.951 . S
C3181 C3182 1.363 . S
C3181 C3183 1.388 . S
C3182 C3181 1.363 . S
C3182 C3186 1.387 1_554 S
C3183 H3158 0.951 . S
C3183 C3181 1.388 . S
C3183 C3184 1.373 . S
C3184 C3183 1.373 . S
C3184 C3185 1.407 1_554 S
C3184 C3187 1.498 1_554 S
C3185 H3159 0.950 . S
C3185 C3184 1.407 1_556 S
C3185 C3186 1.374 . S
C3186 H3160 0.950 . S
C3186 C3182 1.387 1_556 S
C3186 C3185 1.374 . S
C3187 C3184 1.498 1_556 S
C3187 C3188 1.384 . S
C3187 C3189 1.379 1_556 S
C3188 H3161 0.950 . S
C3188 C3174 1.377 . S
C3188 C3187 1.384 . S
C3189 C3173 1.377 . S
C3189 C3187 1.379 1_554 S
C3189 C3190 1.524 . S
C3190 C3189 1.524 . S
C3190 C3191 1.397 . S
C3190 C3195 1.363 . S
C3191 H3162 0.950 . S
C3191 C3190 1.397 . S
C3191 C3192 1.334 . S
C3192 H3163 0.950 . S
C3192 C3191 1.334 . S
C3192 C3193 1.287 . S
C3193 C3192 1.287 . S
C3193 C3194 1.524 . S
C3193 H3196 0.999 . S
C3194 H3164 0.950 . S
C3194 C3193 1.524 . S
C3194 C3195 1.415 . S
C3195 H3165 0.950 . S
C3195 C3190 1.363 . S
C3195 C3194 1.415 . S
H3196 C3193 0.999 . S
H3197 C3178 0.913 . S
H3198 C3216 0.951 . S
H3199 C3218 0.951 . S
H3200 C3220 0.950 . S
H3201 C3221 0.950 . S
H3202 C3223 0.950 . S
H3203 C3226 0.950 . S
H3204 C3227 0.950 . S
H3205 C3229 0.950 . S
H3206 C3230 0.950 . S
H3207 C3231 0.951 . S
H3208 C3233 0.951 . S
H3209 C3235 0.950 . S
H3210 C3236 0.958 . S
H3211 C3238 0.950 . S
H3212 C3241 0.950 . S
H3213 C3242 0.950 . S
H3214 C3244 0.950 . S
H3215 C3245 0.950 . S
C3216 H3198 0.951 . S
C3216 C3217 1.366 1_556 S
C3216 C3218 1.388 . S
C3217 C3216 1.366 1_554 S
C3217 C3221 1.384 . S
C3218 H3199 0.951 . S
C3218 C3216 1.388 . S
C3218 C3219 1.388 . S
C3219 C3218 1.388 . S
C3219 C3220 1.391 1_556 S
C3219 C3222 1.498 . S
C3220 H3200 0.950 . S
C3220 C3219 1.391 1_554 S
C3220 C3221 1.374 . S
C3221 H3201 0.950 . S
C3221 C3217 1.384 . S
C3221 C3220 1.374 . S
C3222 C3219 1.498 . S
C3222 C3223 1.357 1_556 S
C3222 C3224 1.405 . S
C3223 H3202 0.950 . S
C3223 C3222 1.357 1_554 S
C3223 C3239 1.377 . S
C3224 C3222 1.405 . S
C3224 C3225 1.524 . S
C3224 C3238 1.377 . S
C3225 C3224 1.524 . S
C3225 C3226 1.397 . S
C3225 C3230 1.363 . S
C3226 H3203 0.950 . S
C3226 C3225 1.397 . S
C3226 C3227 1.334 . S
C3227 H3204 0.950 . S
C3227 C3226 1.334 . S
C3227 C3228 1.287 . S
C3228 C3227 1.287 . S
C3228 C3229 1.524 . S
C3228 H3247 0.913 . S
C3229 H3205 0.950 . S
C3229 C3228 1.524 . S
C3229 C3230 1.415 . S
C3230 H3206 0.950 . S
C3230 C3225 1.363 . S
C3230 C3229 1.415 . S
C3231 H3207 0.951 . S
C3231 C3232 1.363 1_455 S
C3231 C3233 1.388 . S
C3232 C3231 1.363 1_655 S
C3232 C3236 1.391 1_554 S
C3233 H3208 0.951 . S
C3233 C3231 1.388 . S
C3233 C3234 1.393 . S
C3234 C3233 1.393 . S
C3234 C3235 1.386 1_554 S
C3234 C3237 1.498 . S
C3235 H3209 0.950 . S
C3235 C3234 1.386 1_556 S
C3235 C3236 1.362 1_455 S
C3236 H3210 0.958 . S
C3236 C3232 1.391 1_556 S
C3236 C3235 1.362 1_655 S
C3237 C3234 1.498 . S
C3237 C3238 1.348 1_554 S
C3237 C3239 1.413 . S
C3238 H3211 0.950 . S
C3238 C3224 1.377 . S
C3238 C3237 1.348 1_556 S
C3239 C3223 1.377 . S
C3239 C3237 1.413 . S
C3239 C3240 1.524 . S
C3240 C3239 1.524 . S
C3240 C3241 1.397 . S
C3240 C3245 1.363 . S
C3241 H3212 0.950 . S
C3241 C3240 1.397 . S
C3241 C3242 1.334 . S
C3242 H3213 0.950 . S
C3242 C3241 1.334 . S
C3242 C3243 1.287 . S
C3243 C3242 1.287 . S
C3243 C3244 1.524 . S
C3243 H3246 0.999 . S
C3244 H3214 0.950 . S
C3244 C3243 1.524 . S
C3244 C3245 1.415 . S
C3245 H3215 0.950 . S
C3245 C3240 1.363 . S
C3245 C3244 1.415 . S
H3246 C3243 0.999 . S
H3247 C3228 0.913 . S
H3248 C3266 0.951 . S
H3249 C3268 0.951 . S
H3250 C3270 0.950 . S
H3251 C3271 0.950 . S
H3252 C3273 0.950 . S
H3253 C3276 0.950 . S
H3254 C3277 0.950 . S
H3255 C3279 0.950 . S
H3256 C3280 0.950 . S
H3257 C3281 0.951 . S
H3258 C3283 0.951 . S
H3259 C3285 0.950 . S
H3260 C3286 0.950 . S
H3261 C3288 0.950 . S
H3262 C3291 0.950 . S
H3263 C3292 0.950 . S
H3264 C3294 0.950 . S
H3265 C3295 0.950 . S
C3266 H3248 0.951 . S
C3266 C3267 1.366 . S
C3266 C3268 1.388 . S
C3267 C3266 1.366 . S
C3267 C3271 1.385 . S
C3268 H3249 0.951 . S
C3268 C3266 1.388 . S
C3268 C3269 1.366 . S
C3269 C3268 1.366 . S
C3269 C3270 1.414 . S
C3269 C3272 1.499 . S
C3270 H3250 0.950 . S
C3270 C3269 1.414 . S
C3270 C3271 1.374 . S
C3271 H3251 0.950 . S
C3271 C3267 1.385 . S
C3271 C3270 1.374 . S
C3272 C3269 1.499 . S
C3272 C3273 1.373 . S
C3272 C3274 1.389 . S
C3273 H3252 0.950 . S
C3273 C3272 1.373 . S
C3273 C3289 1.377 . S
C3274 C3272 1.389 . S
C3274 C3275 1.524 . S
C3274 C3288 1.377 . S
C3275 C3274 1.524 . S
C3275 C3276 1.397 . S
C3275 C3280 1.363 . S
C3276 H3253 0.950 . S
C3276 C3275 1.397 . S
C3276 C3277 1.334 . S
C3277 H3254 0.950 . S
C3277 C3276 1.334 . S
C3277 C3278 1.287 . S
C3278 C3277 1.287 . S
C3278 C3279 1.524 . S
C3278 H3297 0.913 . S
C3279 H3255 0.950 . S
C3279 C3278 1.524 . S
C3279 C3280 1.415 . S
C3280 H3256 0.950 . S
C3280 C3275 1.363 . S
C3280 C3279 1.415 . S
C3281 H3257 0.951 . S
C3281 C3282 1.366 . S
C3281 C3283 1.388 . S
C3282 C3281 1.366 . S
C3282 C3286 1.385 . S
C3283 H3258 0.951 . S
C3283 C3281 1.388 . S
C3283 C3284 1.366 . S
C3284 C3283 1.366 . S
C3284 C3285 1.414 . S
C3284 C3287 1.499 . S
C3285 H3259 0.950 . S
C3285 C3284 1.414 . S
C3285 C3286 1.374 . S
C3286 H3260 0.950 . S
C3286 C3282 1.385 . S
C3286 C3285 1.374 . S
C3287 C3284 1.499 . S
C3287 C3288 1.373 . S
C3287 C3289 1.389 . S
C3288 H3261 0.950 . S
C3288 C3274 1.377 . S
C3288 C3287 1.373 . S
C3289 C3273 1.377 . S
C3289 C3287 1.389 . S
C3289 C3290 1.524 . S
C3290 C3289 1.524 . S
C3290 C3291 1.397 . S
C3290 C3295 1.363 . S
C3291 H3262 0.950 . S
C3291 C3290 1.397 . S
C3291 C3292 1.334 . S
C3292 H3263 0.950 . S
C3292 C3291 1.334 . S
C3292 C3293 1.287 . S
C3293 C3292 1.287 . S
C3293 C3294 1.524 . S
C3293 H3296 0.999 . S
C3294 H3264 0.950 . S
C3294 C3293 1.524 . S
C3294 C3295 1.415 . S
C3295 H3265 0.950 . S
C3295 C3290 1.363 . S
C3295 C3294 1.415 . S
H3296 C3293 0.999 . S
H3297 C3278 0.913 . S
H3298 C3316 0.951 . S
H3299 C3318 0.951 . S
H3300 C3320 0.950 . S
H3301 C3321 0.950 . S
H3302 C3323 0.950 . S
H3303 C3326 0.950 . S
H3304 C3327 0.950 . S
H3305 C3329 0.950 . S
H3306 C3330 0.950 . S
H3307 C3331 0.951 . S
H3308 C3333 0.951 . S
H3309 C3335 0.950 . S
H3310 C3336 0.950 . S
H3311 C3338 0.950 . S
H3312 C3341 0.950 . S
H3313 C3342 0.950 . S
H3314 C3344 0.950 . S
H3315 C3345 0.950 . S
C3316 H3298 0.951 . S
C3316 C3317 1.366 . S
C3316 C3318 1.388 . S
C3317 C3316 1.366 . S
C3317 C3321 1.385 . S
C3318 H3299 0.951 . S
C3318 C3316 1.388 . S
C3318 C3319 1.366 . S
C3319 C3318 1.366 . S
C3319 C3320 1.414 . S
C3319 C3322 1.499 . S
C3320 H3300 0.950 . S
C3320 C3319 1.414 . S
C3320 C3321 1.374 . S
C3321 H3301 0.950 . S
C3321 C3317 1.385 . S
C3321 C3320 1.374 . S
C3322 C3319 1.499 . S
C3322 C3323 1.373 . S
C3322 C3324 1.389 . S
C3323 H3302 0.950 . S
C3323 C3322 1.373 . S
C3323 C3339 1.377 . S
C3324 C3322 1.389 . S
C3324 C3325 1.524 . S
C3324 C3338 1.377 . S
C3325 C3324 1.524 . S
C3325 C3326 1.397 . S
C3325 C3330 1.363 . S
C3326 H3303 0.950 . S
C3326 C3325 1.397 . S
C3326 C3327 1.334 . S
C3327 H3304 0.950 . S
C3327 C3326 1.334 . S
C3327 C3328 1.287 . S
C3328 C3327 1.287 . S
C3328 C3329 1.524 . S
C3328 H3347 0.913 . S
C3329 H3305 0.950 . S
C3329 C3328 1.524 . S
C3329 C3330 1.415 . S
C3330 H3306 0.950 . S
C3330 C3325 1.363 . S
C3330 C3329 1.415 . S
C3331 H3307 0.951 . S
C3331 C3332 1.366 1_655 S
C3331 C3333 1.388 . S
C3332 C3331 1.366 1_455 S
C3332 C3336 1.385 . S
C3333 H3308 0.951 . S
C3333 C3331 1.388 . S
C3333 C3334 1.366 . S
C3334 C3333 1.366 . S
C3334 C3335 1.414 . S
C3334 C3337 1.499 . S
C3335 H3309 0.950 . S
C3335 C3334 1.414 . S
C3335 C3336 1.374 1_655 S
C3336 H3310 0.950 . S
C3336 C3332 1.385 . S
C3336 C3335 1.374 1_455 S
C3337 C3334 1.499 . S
C3337 C3338 1.373 . S
C3337 C3339 1.389 . S
C3338 H3311 0.950 . S
C3338 C3324 1.377 . S
C3338 C3337 1.373 . S
C3339 C3323 1.377 . S
C3339 C3337 1.389 . S
C3339 C3340 1.524 . S
C3340 C3339 1.524 . S
C3340 C3341 1.397 . S
C3340 C3345 1.363 . S
C3341 H3312 0.950 . S
C3341 C3340 1.397 . S
C3341 C3342 1.334 . S
C3342 H3313 0.950 . S
C3342 C3341 1.334 . S
C3342 C3343 1.287 . S
C3343 C3342 1.287 . S
C3343 C3344 1.524 . S
C3343 H3346 0.999 . S
C3344 H3314 0.950 . S
C3344 C3343 1.524 . S
C3344 C3345 1.415 . S
C3345 H3315 0.950 . S
C3345 C3340 1.363 . S
C3345 C3344 1.415 . S
H3346 C3343 0.999 . S
H3347 C3328 0.913 . S
H3348 C3366 0.951 . S
H3349 C3368 0.951 . S
H3350 C3370 0.950 . S
H3351 C3371 0.950 . S
H3352 C3373 0.950 . S
H3353 C3376 0.950 . S
H3354 C3377 0.950 . S
H3355 C3379 0.950 . S
H3356 C3380 0.950 . S
H3357 C3381 0.951 . S
H3358 C3383 0.951 . S
H3359 C3385 0.950 . S
H3360 C3386 0.950 . S
H3361 C3388 0.950 . S
H3362 C3391 0.950 . S
H3363 C3392 0.950 . S
H3364 C3394 0.950 . S
H3365 C3395 0.950 . S
C3366 H3348 0.951 . S
C3366 C3367 1.366 . S
C3366 C3368 1.388 . S
C3367 C3366 1.366 . S
C3367 C3371 1.385 . S
C3368 H3349 0.951 . S
C3368 C3366 1.388 . S
C3368 C3369 1.366 . S
C3369 C3368 1.366 . S
C3369 C3370 1.414 . S
C3369 C3372 1.499 . S
C3370 H3350 0.950 . S
C3370 C3369 1.414 . S
C3370 C3371 1.374 . S
C3371 H3351 0.950 . S
C3371 C3367 1.385 . S
C3371 C3370 1.374 . S
C3372 C3369 1.499 . S
C3372 C3373 1.373 . S
C3372 C3374 1.389 . S
C3373 H3352 0.950 . S
C3373 C3372 1.373 . S
C3373 C3389 1.377 . S
C3374 C3372 1.389 . S
C3374 C3375 1.524 . S
C3374 C3388 1.377 . S
C3375 C3374 1.524 . S
C3375 C3376 1.397 . S
C3375 C3380 1.363 . S
C3376 H3353 0.950 . S
C3376 C3375 1.397 . S
C3376 C3377 1.334 . S
C3377 H3354 0.950 . S
C3377 C3376 1.334 . S
C3377 C3378 1.287 . S
C3378 C3377 1.287 . S
C3378 C3379 1.524 . S
C3378 H3397 0.913 . S
C3379 H3355 0.950 . S
C3379 C3378 1.524 . S
C3379 C3380 1.415 . S
C3380 H3356 0.950 . S
C3380 C3375 1.363 . S
C3380 C3379 1.415 . S
C3381 H3357 0.951 . S
C3381 C3382 1.366 . S
C3381 C3383 1.388 . S
C3382 C3381 1.366 . S
C3382 C3386 1.385 . S
C3383 H3358 0.951 . S
C3383 C3381 1.388 . S
C3383 C3384 1.366 . S
C3384 C3383 1.366 . S
C3384 C3385 1.414 . S
C3384 C3387 1.499 . S
C3385 H3359 0.950 . S
C3385 C3384 1.414 . S
C3385 C3386 1.374 . S
C3386 H3360 0.950 . S
C3386 C3382 1.385 . S
C3386 C3385 1.374 . S
C3387 C3384 1.499 . S
C3387 C3388 1.373 . S
C3387 C3389 1.389 . S
C3388 H3361 0.950 . S
C3388 C3374 1.377 . S
C3388 C3387 1.373 . S
C3389 C3373 1.377 . S
C3389 C3387 1.389 . S
C3389 C3390 1.524 . S
C3390 C3389 1.524 . S
C3390 C3391 1.397 . S
C3390 C3395 1.363 . S
C3391 H3362 0.950 . S
C3391 C3390 1.397 . S
C3391 C3392 1.334 . S
C3392 H3363 0.950 . S
C3392 C3391 1.334 . S
C3392 C3393 1.287 . S
C3393 C3392 1.287 . S
C3393 C3394 1.524 . S
C3393 H3396 0.999 . S
C3394 H3364 0.950 . S
C3394 C3393 1.524 . S
C3394 C3395 1.415 . S
C3395 H3365 0.950 . S
C3395 C3390 1.363 . S
C3395 C3394 1.415 . S
H3396 C3393 0.999 . S
H3397 C3378 0.913 . S
H3398 C3416 0.951 . S
H3399 C3418 0.951 . S
H3400 C3420 0.950 . S
H3401 C3421 0.950 . S
H3402 C3423 0.950 . S
H3403 C3426 0.950 . S
H3404 C3427 0.950 . S
H3405 C3429 0.950 . S
H3406 C3430 0.950 . S
H3407 C3431 0.951 . S
H3408 C3433 0.951 . S
H3409 C3435 0.950 . S
H3410 C3436 0.950 . S
H3411 C3438 0.950 . S
H3412 C3441 0.950 . S
H3413 C3442 0.950 . S
H3414 C3444 0.950 . S
H3415 C3445 0.950 . S
C3416 H3398 0.951 . S
C3416 C3417 1.366 . S
C3416 C3418 1.388 1_455 S
C3417 C3416 1.366 . S
C3417 C3421 1.385 1_455 S
C3418 H3399 0.951 . S
C3418 C3416 1.388 1_655 S
C3418 C3419 1.366 . S
C3419 C3418 1.366 . S
C3419 C3420 1.414 . S
C3419 C3422 1.499 . S
C3420 H3400 0.950 . S
C3420 C3419 1.414 . S
C3420 C3421 1.374 . S
C3421 H3401 0.950 . S
C3421 C3417 1.385 1_655 S
C3421 C3420 1.374 . S
C3422 C3419 1.499 . S
C3422 C3423 1.373 . S
C3422 C3424 1.389 . S
C3423 H3402 0.950 . S
C3423 C3422 1.373 . S
C3423 C3439 1.377 . S
C3424 C3422 1.389 . S
C3424 C3425 1.524 . S
C3424 C3438 1.377 . S
C3425 C3424 1.524 . S
C3425 C3426 1.397 . S
C3425 C3430 1.363 . S
C3426 H3403 0.950 . S
C3426 C3425 1.397 . S
C3426 C3427 1.334 . S
C3427 H3404 0.950 . S
C3427 C3426 1.334 . S
C3427 C3428 1.287 . S
C3428 C3427 1.287 . S
C3428 C3429 1.524 . S
C3428 H3447 0.913 . S
C3429 H3405 0.950 . S
C3429 C3428 1.524 . S
C3429 C3430 1.415 . S
C3430 H3406 0.950 . S
C3430 C3425 1.363 . S
C3430 C3429 1.415 . S
C3431 H3407 0.951 . S
C3431 C3432 1.366 . S
C3431 C3433 1.388 . S
C3432 C3431 1.366 . S
C3432 C3436 1.385 . S
C3433 H3408 0.951 . S
C3433 C3431 1.388 . S
C3433 C3434 1.366 . S
C3434 C3433 1.366 . S
C3434 C3435 1.414 . S
C3434 C3437 1.499 . S
C3435 H3409 0.950 . S
C3435 C3434 1.414 . S
C3435 C3436 1.374 . S
C3436 H3410 0.950 . S
C3436 C3432 1.385 . S
C3436 C3435 1.374 . S
C3437 C3434 1.499 . S
C3437 C3438 1.373 . S
C3437 C3439 1.389 . S
C3438 H3411 0.950 . S
C3438 C3424 1.377 . S
C3438 C3437 1.373 . S
C3439 C3423 1.377 . S
C3439 C3437 1.389 . S
C3439 C3440 1.524 . S
C3440 C3439 1.524 . S
C3440 C3441 1.397 . S
C3440 C3445 1.363 . S
C3441 H3412 0.950 . S
C3441 C3440 1.397 . S
C3441 C3442 1.334 . S
C3442 H3413 0.950 . S
C3442 C3441 1.334 . S
C3442 C3443 1.287 . S
C3443 C3442 1.287 . S
C3443 C3444 1.524 . S
C3443 H3446 0.999 . S
C3444 H3414 0.950 . S
C3444 C3443 1.524 . S
C3444 C3445 1.415 . S
C3445 H3415 0.950 . S
C3445 C3440 1.363 . S
C3445 C3444 1.415 . S
H3446 C3443 0.999 . S
H3447 C3428 0.913 . S
H3448 C3466 0.951 . S
H3449 C3468 0.951 . S
H3450 C3470 0.950 . S
H3451 C3471 0.950 . S
H3452 C3473 0.950 . S
H3453 C3476 0.950 . S
H3454 C3477 0.950 . S
H3455 C3479 0.950 . S
H3456 C3480 0.950 . S
H3457 C3481 0.951 . S
H3458 C3483 0.951 . S
H3459 C3485 0.950 . S
H3460 C3486 0.950 . S
H3461 C3488 0.950 . S
H3462 C3491 0.950 . S
H3463 C3492 0.950 . S
H3464 C3494 0.950 . S
H3465 C3495 0.950 . S
C3466 H3448 0.951 . S
C3466 C3467 1.366 . S
C3466 C3468 1.388 . S
C3467 C3466 1.366 . S
C3467 C3471 1.385 . S
C3468 H3449 0.951 . S
C3468 C3466 1.388 . S
C3468 C3469 1.366 . S
C3469 C3468 1.366 . S
C3469 C3470 1.414 . S
C3469 C3472 1.499 . S
C3470 H3450 0.950 . S
C3470 C3469 1.414 . S
C3470 C3471 1.374 . S
C3471 H3451 0.950 . S
C3471 C3467 1.385 . S
C3471 C3470 1.374 . S
C3472 C3469 1.499 . S
C3472 C3473 1.373 . S
C3472 C3474 1.389 . S
C3473 H3452 0.950 . S
C3473 C3472 1.373 . S
C3473 C3489 1.377 . S
C3474 C3472 1.389 . S
C3474 C3475 1.524 . S
C3474 C3488 1.377 . S
C3475 C3474 1.524 . S
C3475 C3476 1.397 . S
C3475 C3480 1.363 . S
C3476 H3453 0.950 . S
C3476 C3475 1.397 . S
C3476 C3477 1.334 . S
C3477 H3454 0.950 . S
C3477 C3476 1.334 . S
C3477 C3478 1.287 . S
C3478 C3477 1.287 . S
C3478 C3479 1.524 . S
C3478 H3497 0.913 . S
C3479 H3455 0.950 . S
C3479 C3478 1.524 . S
C3479 C3480 1.415 . S
C3480 H3456 0.950 . S
C3480 C3475 1.363 . S
C3480 C3479 1.415 . S
C3481 H3457 0.951 . S
C3481 C3482 1.366 . S
C3481 C3483 1.388 . S
C3482 C3481 1.366 . S
C3482 C3486 1.385 . S
C3483 H3458 0.951 . S
C3483 C3481 1.388 . S
C3483 C3484 1.366 . S
C3484 C3483 1.366 . S
C3484 C3485 1.414 . S
C3484 C3487 1.499 . S
C3485 H3459 0.950 . S
C3485 C3484 1.414 . S
C3485 C3486 1.374 . S
C3486 H3460 0.950 . S
C3486 C3482 1.385 . S
C3486 C3485 1.374 . S
C3487 C3484 1.499 . S
C3487 C3488 1.373 . S
C3487 C3489 1.389 . S
C3488 H3461 0.950 . S
C3488 C3474 1.377 . S
C3488 C3487 1.373 . S
C3489 C3473 1.377 . S
C3489 C3487 1.389 . S
C3489 C3490 1.524 . S
C3490 C3489 1.524 . S
C3490 C3491 1.397 . S
C3490 C3495 1.363 . S
C3491 H3462 0.950 . S
C3491 C3490 1.397 . S
C3491 C3492 1.334 . S
C3492 H3463 0.950 . S
C3492 C3491 1.334 . S
C3492 C3493 1.287 . S
C3493 C3492 1.287 . S
C3493 C3494 1.524 . S
C3493 H3496 0.999 . S
C3494 H3464 0.950 . S
C3494 C3493 1.524 . S
C3494 C3495 1.415 . S
C3495 H3465 0.950 . S
C3495 C3490 1.363 . S
C3495 C3494 1.415 . S
H3496 C3493 0.999 . S
H3497 C3478 0.913 . S
H3498 C3516 0.951 . S
H3499 C3518 0.951 . S
H3500 C3520 0.950 . S
H3501 C3521 0.950 . S
H3502 C3523 0.950 . S
H3503 C3526 0.950 . S
H3504 C3527 0.950 . S
H3505 C3529 0.950 . S
H3506 C3530 0.950 . S
H3507 C3531 0.951 . S
H3508 C3533 0.951 . S
H3509 C3535 0.950 . S
H3510 C3536 0.950 . S
H3511 C3538 0.950 . S
H3512 C3541 0.950 . S
H3513 C3542 0.950 . S
H3514 C3544 0.950 . S
H3515 C3545 0.950 . S
C3516 H3498 0.951 . S
C3516 C3517 1.366 1_455 S
C3516 C3518 1.388 . S
C3517 C3516 1.366 1_655 S
C3517 C3521 1.385 . S
C3518 H3499 0.951 . S
C3518 C3516 1.388 . S
C3518 C3519 1.366 . S
C3519 C3518 1.366 . S
C3519 C3520 1.414 . S
C3519 C3522 1.499 . S
C3520 H3500 0.950 . S
C3520 C3519 1.414 . S
C3520 C3521 1.374 1_455 S
C3521 H3501 0.950 . S
C3521 C3517 1.385 . S
C3521 C3520 1.374 1_655 S
C3522 C3519 1.499 . S
C3522 C3523 1.373 . S
C3522 C3524 1.389 . S
C3523 H3502 0.950 . S
C3523 C3522 1.373 . S
C3523 C3539 1.377 . S
C3524 C3522 1.389 . S
C3524 C3525 1.524 . S
C3524 C3538 1.377 . S
C3525 C3524 1.524 . S
C3525 C3526 1.397 . S
C3525 C3530 1.363 . S
C3526 H3503 0.950 . S
C3526 C3525 1.397 . S
C3526 C3527 1.334 . S
C3527 H3504 0.950 . S
C3527 C3526 1.334 . S
C3527 C3528 1.287 . S
C3528 C3527 1.287 . S
C3528 C3529 1.524 . S
C3528 H3547 0.913 . S
C3529 H3505 0.950 . S
C3529 C3528 1.524 . S
C3529 C3530 1.415 . S
C3530 H3506 0.950 . S
C3530 C3525 1.363 . S
C3530 C3529 1.415 . S
C3531 H3507 0.951 . S
C3531 C3532 1.366 . S
C3531 C3533 1.388 . S
C3532 C3531 1.366 . S
C3532 C3536 1.385 . S
C3533 H3508 0.951 . S
C3533 C3531 1.388 . S
C3533 C3534 1.366 . S
C3534 C3533 1.366 . S
C3534 C3535 1.414 . S
C3534 C3537 1.499 . S
C3535 H3509 0.950 . S
C3535 C3534 1.414 . S
C3535 C3536 1.374 . S
C3536 H3510 0.950 . S
C3536 C3532 1.385 . S
C3536 C3535 1.374 . S
C3537 C3534 1.499 . S
C3537 C3538 1.373 . S
C3537 C3539 1.389 . S
C3538 H3511 0.950 . S
C3538 C3524 1.377 . S
C3538 C3537 1.373 . S
C3539 C3523 1.377 . S
C3539 C3537 1.389 . S
C3539 C3540 1.524 . S
C3540 C3539 1.524 . S
C3540 C3541 1.397 . S
C3540 C3545 1.363 . S
C3541 H3512 0.950 . S
C3541 C3540 1.397 . S
C3541 C3542 1.334 . S
C3542 H3513 0.950 . S
C3542 C3541 1.334 . S
C3542 C3543 1.287 . S
C3543 C3542 1.287 . S
C3543 C3544 1.524 . S
C3543 H3546 0.999 . S
C3544 H3514 0.950 . S
C3544 C3543 1.524 . S
C3544 C3545 1.415 . S
C3545 H3515 0.950 . S
C3545 C3540 1.363 . S
C3545 C3544 1.415 . S
H3546 C3543 0.999 . S
H3547 C3528 0.913 . S
H3548 C3566 0.951 . S
H3549 C3568 0.951 . S
H3550 C3570 0.950 . S
H3551 C3571 0.950 . S
H3552 C3573 0.950 . S
H3553 C3576 0.950 . S
H3554 C3577 0.950 . S
H3555 C3579 0.950 . S
H3556 C3580 0.950 . S
H3557 C3581 0.951 . S
H3558 C3583 0.951 . S
H3559 C3585 0.950 . S
H3560 C3586 0.950 . S
H3561 C3588 0.950 . S
H3562 C3591 0.950 . S
H3563 C3592 0.950 . S
H3564 C3594 0.950 . S
H3565 C3595 0.950 . S
C3566 H3548 0.951 . S
C3566 C3567 1.366 . S
C3566 C3568 1.388 . S
C3567 C3566 1.366 . S
C3567 C3571 1.385 . S
C3568 H3549 0.951 . S
C3568 C3566 1.388 . S
C3568 C3569 1.366 . S
C3569 C3568 1.366 . S
C3569 C3570 1.414 . S
C3569 C3572 1.499 . S
C3570 H3550 0.950 . S
C3570 C3569 1.414 . S
C3570 C3571 1.374 . S
C3571 H3551 0.950 . S
C3571 C3567 1.385 . S
C3571 C3570 1.374 . S
C3572 C3569 1.499 . S
C3572 C3573 1.373 . S
C3572 C3574 1.389 . S
C3573 H3552 0.950 . S
C3573 C3572 1.373 . S
C3573 C3589 1.377 . S
C3574 C3572 1.389 . S
C3574 C3575 1.524 . S
C3574 C3588 1.377 . S
C3575 C3574 1.524 . S
C3575 C3576 1.397 . S
C3575 C3580 1.363 . S
C3576 H3553 0.950 . S
C3576 C3575 1.397 . S
C3576 C3577 1.334 . S
C3577 H3554 0.950 . S
C3577 C3576 1.334 . S
C3577 C3578 1.287 . S
C3578 C3577 1.287 . S
C3578 C3579 1.524 . S
C3578 H3597 0.913 . S
C3579 H3555 0.950 . S
C3579 C3578 1.524 . S
C3579 C3580 1.415 . S
C3580 H3556 0.950 . S
C3580 C3575 1.363 . S
C3580 C3579 1.415 . S
C3581 H3557 0.951 . S
C3581 C3582 1.366 . S
C3581 C3583 1.388 . S
C3582 C3581 1.366 . S
C3582 C3586 1.385 . S
C3583 H3558 0.951 . S
C3583 C3581 1.388 . S
C3583 C3584 1.366 . S
C3584 C3583 1.366 . S
C3584 C3585 1.414 . S
C3584 C3587 1.499 . S
C3585 H3559 0.950 . S
C3585 C3584 1.414 . S
C3585 C3586 1.374 . S
C3586 H3560 0.950 . S
C3586 C3582 1.385 . S
C3586 C3585 1.374 . S
C3587 C3584 1.499 . S
C3587 C3588 1.373 . S
C3587 C3589 1.389 . S
C3588 H3561 0.950 . S
C3588 C3574 1.377 . S
C3588 C3587 1.373 . S
C3589 C3573 1.377 . S
C3589 C3587 1.389 . S
C3589 C3590 1.524 . S
C3590 C3589 1.524 . S
C3590 C3591 1.397 . S
C3590 C3595 1.363 . S
C3591 H3562 0.950 . S
C3591 C3590 1.397 . S
C3591 C3592 1.334 . S
C3592 H3563 0.950 . S
C3592 C3591 1.334 . S
C3592 C3593 1.287 . S
C3593 C3592 1.287 . S
C3593 C3594 1.524 . S
C3593 H3596 0.999 . S
C3594 H3564 0.950 . S
C3594 C3593 1.524 . S
C3594 C3595 1.415 . S
C3595 H3565 0.950 . S
C3595 C3590 1.363 . S
C3595 C3594 1.415 . S
H3596 C3593 0.999 . S
H3597 C3578 0.913 . S
H3598 C3616 0.951 . S
H3599 C3618 0.951 . S
H3600 C3620 0.950 . S
H3601 C3621 0.950 . S
H3602 C3623 0.950 . S
H3603 C3626 0.950 . S
H3604 C3627 0.950 . S
H3605 C3629 0.950 . S
H3606 C3630 0.950 . S
H3607 C3631 0.951 . S
H3608 C3633 0.951 . S
H3609 C3635 0.950 . S
H3610 C3636 0.950 . S
H3611 C3638 0.950 . S
H3612 C3641 0.950 . S
H3613 C3642 0.950 . S
H3614 C3644 0.950 . S
H3615 C3645 0.950 . S
C3616 H3598 0.951 . S
C3616 C3617 1.366 . S
C3616 C3618 1.388 1_655 S
C3617 C3616 1.366 . S
C3617 C3621 1.385 1_655 S
C3618 H3599 0.951 . S
C3618 C3616 1.388 1_455 S
C3618 C3619 1.366 . S
C3619 C3618 1.366 . S
C3619 C3620 1.414 . S
C3619 C3622 1.499 . S
C3620 H3600 0.950 . S
C3620 C3619 1.414 . S
C3620 C3621 1.374 . S
C3621 H3601 0.950 . S
C3621 C3617 1.385 1_455 S
C3621 C3620 1.374 . S
C3622 C3619 1.499 . S
C3622 C3623 1.373 . S
C3622 C3624 1.389 . S
C3623 H3602 0.950 . S
C3623 C3622 1.373 . S
C3623 C3639 1.377 . S
C3624 C3622 1.389 . S
C3624 C3625 1.524 . S
C3624 C3638 1.377 . S
C3625 C3624 1.524 . S
C3625 C3626 1.397 . S
C3625 C3630 1.363 . S
C3626 H3603 0.950 . S
C3626 C3625 1.397 . S
C3626 C3627 1.334 . S
C3627 H3604 0.950 . S
C3627 C3626 1.334 . S
C3627 C3628 1.287 . S
C3628 C3627 1.287 . S
C3628 C3629 1.524 . S
C3628 H3647 0.913 . S
C3629 H3605 0.950 . S
C3629 C3628 1.524 . S
C3629 C3630 1.415 . S
C3630 H3606 0.950 . S
C3630 C3625 1.363 . S
C3630 C3629 1.415 . S
C3631 H3607 0.951 . S
C3631 C3632 1.366 . S
C3631 C3633 1.388 . S
C3632 C3631 1.366 . S
C3632 C3636 1.385 . S
C3633 H3608 0.951 . S
C3633 C3631 1.388 . S
C3633 C3634 1.366 . S
C3634 C3633 1.366 . S
C3634 C3635 1.414 . S
C3634 C3637 1.499 . S
C3635 H3609 0.950 . S
C3635 C3634 1.414 . S
C3635 C3636 1.374 . S
C3636 H3610 0.950 . S
C3636 C3632 1.385 . S
C3636 C3635 1.374 . S
C3637 C3634 1.499 . S
C3637 C3638 1.373 . S
C3637 C3639 1.389 . S
C3638 H3611 0.950 . S
C3638 C3624 1.377 . S
C3638 C3637 1.373 . S
C3639 C3623 1.377 . S
C3639 C3637 1.389 . S
C3639 C3640 1.524 . S
C3640 C3639 1.524 . S
C3640 C3641 1.397 . S
C3640 C3645 1.363 . S
C3641 H3612 0.950 . S
C3641 C3640 1.397 . S
C3641 C3642 1.334 . S
C3642 H3613 0.950 . S
C3642 C3641 1.334 . S
C3642 C3643 1.287 . S
C3643 C3642 1.287 . S
C3643 C3644 1.524 . S
C3643 H3646 0.999 . S
C3644 H3614 0.950 . S
C3644 C3643 1.524 . S
C3644 C3645 1.415 . S
C3645 H3615 0.950 . S
C3645 C3640 1.363 . S
C3645 C3644 1.415 . S
H3646 C3643 0.999 . S
H3647 C3628 0.913 . S
C467 C7 0.980 . S
C482 C49 0.987 . S
C517 C35 0.979 . S
C532 C21 0.986 . S
C567 C63 0.980 . S
C582 C105 0.987 . S
C617 C91 0.979 . S
C632 C77 0.986 . S
C667 C119 0.956 . S
C682 C161 0.956 . S
C717 C147 0.956 . S
C732 C133 0.956 . S
C767 C175 0.956 . S
C782 C217 0.955 . S
C817 C189 0.957 . S
C832 C203 0.957 . S
C867 C273 0.956 . S
C882 C231 0.956 . S
C917 C245 0.956 . S
C932 C259 0.956 . S
C967 C287 0.957 . S
C982 C329 0.957 . S
C1017 C315 0.957 . S
C1032 C301 0.957 . S
C1067 C343 0.979 . S
C1082 C385 0.986 . S
C1117 C371 0.979 . S
C1132 C357 0.986 . S
C1167 C399 0.979 . S
C1182 C441 0.986 . S
C1217 C413 0.980 . S
C1232 C427 0.987 . S
C1267 C176 1.532 . S
C1282 C8 1.532 . S
C1317 C22 1.531 . S
C1332 C302 1.531 . S
C1367 C36 1.516 . S
C1382 C92 1.517 . S
C1417 C442 1.516 . S
C1432 C50 1.517 . S
C1467 C64 1.532 . S
C1482 C120 1.532 . S
C1517 C246 1.531 . S
C1532 C78 1.531 . S
C1567 C386 1.516 . S
C1582 C106 1.517 . S
C1617 C414 1.532 . S
C1632 C134 1.532 . S
C1667 C204 1.519 . S
C1682 C148 1.519 . S
C1717 C330 1.518 . S
C1732 C162 1.518 . S
C1767 C190 1.532 . S
C1782 C358 1.532 . S
C1817 C274 1.518 . S
C1832 C218 1.518 . S
C1867 C400 1.532 . S
C1882 C232 1.532 . S
C1917 C316 1.519 . S
C1932 C260 1.519 . S
C1967 C344 1.532 . S
C1982 C288 1.532 . S
C2017 C372 1.516 . S
C2032 C428 1.517 . S
C2067 C143 1.275 . S
C2082 C3 1.274 . S
C2117 C17 1.274 . S
C2132 C157 1.275 . S
C2167 C115 1.251 . S
C2182 C31 1.246 . S
C2217 C129 1.252 . S
C2232 C45 1.247 . S
C2267 C59 1.274 . S
C2282 C199 1.275 . S
C2317 C73 1.275 . S
C2332 C213 1.276 . S
C2367 C171 1.252 . S
C2382 C87 1.246 . S
C2417 C101 1.252 . S
C2432 C185 1.246 . S
C2467 C367 1.252 . S
C2482 C227 1.245 . S
C2517 C381 1.253 . S
C2532 C241 1.246 . S
C2567 C255 1.275 . S
C2582 C339 1.274 . S
C2617 C269 1.276 . S
C2632 C353 1.275 . S
C2667 C283 1.251 . S
C2682 C423 1.245 . S
C2717 C297 1.251 . S
C2732 C437 1.246 . S
C2767 C395 1.274 . S
C2782 C311 1.275 . S
C2817 C409 1.276 . S
C2832 C325 1.276 . S
C2867 C9 1.449 . S
C2882 C359 1.449 . S
C2917 C345 1.448 . S
C2932 C23 1.448 . S
C2967 C37 1.436 . S
C2982 C387 1.436 . S
C3017 C51 1.436 . S
C3032 C373 1.436 . S
C3067 C65 1.449 . S
C3082 C415 1.449 . S
C3117 C79 1.449 . S
C3132 C401 1.449 . S
C3167 C443 1.436 . S
C3182 C93 1.436 . S
C3217 C429 1.436 . S
C3232 C107 1.436 . S
C3267 C247 1.448 . S
C3282 C121 1.448 . S
C3317 C233 1.448 . S
C3332 C135 1.448 . S
C3367 C149 1.436 . S
C3382 C275 1.436 . S
C3417 C163 1.436 . S
C3432 C261 1.436 . S
C3467 C303 1.448 . S
C3482 C177 1.448 . S
C3517 C191 1.448 . S
C3532 C289 1.448 . S
C3567 C205 1.436 . S
C3582 C331 1.436 . S
C3617 C219 1.436 . S
C3632 C317 1.436 . S
