# Generated by pormake.
# Topology ukh, (4)-cn, num edge types: 1
# Building blocks:
#     Node 0, Type 0, BuildingBlock: ICAMEG_clean_sbu_1, # of connection points: 4
#     Node 1, Type 0, BuildingBlock: ICAMEG_clean_sbu_1, # of connection points: 4
#     Node 2, Type 0, BuildingBlock: ICAMEG_clean_sbu_1, # of connection points: 4
#     Node 3, Type 0, BuildingBlock: ICAMEG_clean_sbu_1, # of connection points: 4
#     Node 4, Type 0, BuildingBlock: ICAMEG_clean_sbu_1, # of connection points: 4
#     Node 5, Type 0, BuildingBlock: ICAMEG_clean_sbu_1, # of connection points: 4
#     Node 6, Type 0, BuildingBlock: ICAMEG_clean_sbu_1, # of connection points: 4
#     Node 7, Type 0, BuildingBlock: ICAMEG_clean_sbu_1, # of connection points: 4
#     Node 8, Type 0, BuildingBlock: ICAMEG_clean_sbu_1, # of connection points: 4
#     Node 9, Type 0, BuildingBlock: ICAMEG_clean_sbu_1, # of connection points: 4
#     Node 10, Type 0, BuildingBlock: ICAMEG_clean_sbu_1, # of connection points: 4
#     Node 11, Type 0, BuildingBlock: ICAMEG_clean_sbu_1, # of connection points: 4
#     Edge 12, Type (0, 0), BuildingBlock: ZUJKAS_clean_linker_0, # of connection points: 2
#     Edge 13, Type (0, 0), BuildingBlock: ZUJKAS_clean_linker_0, # of connection points: 2
#     Edge 14, Type (0, 0), BuildingBlock: ZUJKAS_clean_linker_0, # of connection points: 2
#     Edge 15, Type (0, 0), BuildingBlock: ZUJKAS_clean_linker_0, # of connection points: 2
#     Edge 16, Type (0, 0), BuildingBlock: ZUJKAS_clean_linker_0, # of connection points: 2
#     Edge 17, Type (0, 0), BuildingBlock: ZUJKAS_clean_linker_0, # of connection points: 2
#     Edge 18, Type (0, 0), BuildingBlock: ZUJKAS_clean_linker_0, # of connection points: 2
#     Edge 19, Type (0, 0), BuildingBlock: ZUJKAS_clean_linker_0, # of connection points: 2
#     Edge 20, Type (0, 0), BuildingBlock: ZUJKAS_clean_linker_0, # of connection points: 2
#     Edge 21, Type (0, 0), BuildingBlock: ZUJKAS_clean_linker_0, # of connection points: 2
#     Edge 22, Type (0, 0), BuildingBlock: ZUJKAS_clean_linker_0, # of connection points: 2
#     Edge 23, Type (0, 0), BuildingBlock: ZUJKAS_clean_linker_0, # of connection points: 2
#     Edge 24, Type (0, 0), BuildingBlock: ZUJKAS_clean_linker_0, # of connection points: 2
#     Edge 25, Type (0, 0), BuildingBlock: ZUJKAS_clean_linker_0, # of connection points: 2
#     Edge 26, Type (0, 0), BuildingBlock: ZUJKAS_clean_linker_0, # of connection points: 2
#     Edge 27, Type (0, 0), BuildingBlock: ZUJKAS_clean_linker_0, # of connection points: 2
#     Edge 28, Type (0, 0), BuildingBlock: ZUJKAS_clean_linker_0, # of connection points: 2
#     Edge 29, Type (0, 0), BuildingBlock: ZUJKAS_clean_linker_0, # of connection points: 2
#     Edge 30, Type (0, 0), BuildingBlock: ZUJKAS_clean_linker_0, # of connection points: 2
#     Edge 31, Type (0, 0), BuildingBlock: ZUJKAS_clean_linker_0, # of connection points: 2
#     Edge 32, Type (0, 0), BuildingBlock: ZUJKAS_clean_linker_0, # of connection points: 2
#     Edge 33, Type (0, 0), BuildingBlock: ZUJKAS_clean_linker_0, # of connection points: 2
#     Edge 34, Type (0, 0), BuildingBlock: ZUJKAS_clean_linker_0, # of connection points: 2
#     Edge 35, Type (0, 0), BuildingBlock: ZUJKAS_clean_linker_0, # of connection points: 2
# Relax obj value: 0.030
# Max RMSD: 0.042
# Mean RMSD: 0.042
data_MOF--net-ukh--node1-ICAMEG_clean_sbu_1--edge1-ZUJKAS_clean_linker_0
_symmetry_space_group_name_H-M    P1
_symmetry_Int_Tables_number       1
_symmetry_cell_setting            triclinic
loop_
_symmetry_equiv_pos_as_xyz
'x, y, z'
_cell_length_a     43.678935
_cell_length_b     43.683004
_cell_length_c     88.965991
_cell_angle_alpha  90.011728
_cell_angle_beta   89.995192
_cell_angle_gamma 119.99173
loop_
_atom_site_label
_atom_site_type_symbol
_atom_site_fract_x
_atom_site_fract_y
_atom_site_fract_z
_atom_type_partial_charge
Co0 Co 0.33474 0.24702 0.04233 0.0
Co1 Co 0.27347 0.20907 0.07049 0.0
O2 O 0.32172 0.2414 0.06364 0.0
C3 C 0.36343 0.32081 0.05303 0.0
O4 O 0.33316 0.31024 0.05988 0.0
C5 C 0.31794 0.19362 0.09145 0.0
O6 O 0.33661 0.19258 0.08009 0.0
O7 O 0.27348 0.16887 0.05978 0.0
O8 O 0.30156 0.19538 0.03842 0.0
H9 H 0.14743 0.11209 0.06424 0.0
H10 H 0.39099 0.27272 0.06546 0.0
O11 O 0.36849 0.29884 0.04556 0.0
H12 H 0.40435 0.18436 0.03608 0.0
H13 H 0.41979 0.29526 0.99889 0.0
H14 H 0.29499 0.22092 0.01377 0.0
H15 H 0.35798 0.19862 0.02965 0.0
H16 H 0.40284 0.28683 0.02566 0.0
O17 O 0.29215 0.19884 0.08919 0.0
H18 H 0.20812 0.15381 0.05582 0.0
H19 H 0.23659 0.19459 0.10013 0.0
H20 H 0.3108 0.22841 0.98688 0.0
H21 H 0.43797 0.25951 0.0722 0.0
H22 H 0.37361 0.26581 0.97929 0.0
H23 H 0.44481 0.21497 0.05748 0.0
O24 O 0.29644 0.25752 0.03739 0.0
H25 H 0.32531 0.31659 0.10365 0.0
H26 H 0.22327 0.23675 0.07223 0.0
H27 H 0.22389 0.28738 0.08475 0.0
H28 H 0.27515 0.3277 0.10064 0.0
H29 H 0.32382 0.26592 0.09075 0.0
H30 H 0.17628 0.15312 0.10905 0.0
H31 H 0.13117 0.11158 0.09103 0.0
O32 O 0.25289 0.21895 0.05232 0.0
C33 C 0.28205 0.16765 0.04615 0.0
C34 C 0.16683 0.13012 0.07219 0.0
C35 C 0.18304 0.15311 0.09734 0.0
N36 N 0.22585 0.17674 0.07745 0.0
C37 C 0.20123 0.15385 0.06748 0.0
C38 C 0.21719 0.17646 0.09223 0.0
C39 C 0.15773 0.12982 0.08723 0.0
C40 C 0.39402 0.25355 0.05892 0.0
N41 N 0.37188 0.23659 0.04714 0.0
C42 C 0.42058 0.24607 0.06283 0.0
C43 C 0.42436 0.22104 0.05458 0.0
C44 C 0.40165 0.20383 0.04258 0.0
C45 C 0.37538 0.21195 0.03901 0.0
C46 C 0.39235 0.27885 0.00205 0.0
C47 C 0.3224 0.23707 0.01056 0.0
C48 C 0.38258 0.27403 0.01719 0.0
N49 N 0.34799 0.25318 0.02127 0.0
C50 C 0.33118 0.24129 0.99531 0.0
C51 C 0.36642 0.2623 0.99106 0.0
C52 C 0.26409 0.24078 0.04141 0.0
C53 C 0.30279 0.29918 0.09679 0.0
C54 C 0.24579 0.25429 0.07901 0.0
C55 C 0.24592 0.28285 0.08614 0.0
C56 C 0.27467 0.30543 0.09507 0.0
N57 N 0.27348 0.24835 0.08073 0.0
C58 C 0.30172 0.27034 0.0895 0.0
Co59 Co 0.0933 0.33392 0.37426 0.0
Co60 Co 0.07168 0.27075 0.40138 0.0
O61 O 0.08712 0.31961 0.39546 0.0
C62 C 0.04939 0.36278 0.38641 0.0
O63 O 0.02971 0.33218 0.39302 0.0
C64 C 0.13026 0.31509 0.42303 0.0
O65 O 0.14738 0.3385 0.41248 0.0
O66 O 0.11195 0.27244 0.39014 0.0
O67 O 0.11098 0.30042 0.36916 0.0
H68 H 0.0442 0.14597 0.39236 0.0
H69 H 0.12597 0.38962 0.39754 0.0
O70 O 0.07604 0.36796 0.37861 0.0
H71 H 0.2251 0.40263 0.36634 0.0
H72 H 0.128 0.42133 0.33181 0.0
H73 H 0.0771 0.29562 0.34522 0.0
H74 H 0.16389 0.35667 0.36053 0.0
H75 H 0.12119 0.40297 0.35838 0.0
O76 O 0.10096 0.28739 0.42014 0.0
H77 H 0.06243 0.20728 0.38522 0.0
H78 H 0.04961 0.2308 0.43033 0.0
H79 H 0.0837 0.31284 0.3185 0.0
H80 H 0.18676 0.43628 0.40363 0.0
H81 H 0.10932 0.37611 0.31165 0.0
H82 H 0.23684 0.44291 0.388 0.0
O83 O 0.04396 0.2964 0.36974 0.0
H84 H 0.01527 0.31804 0.43662 0.0
H85 H 0.99394 0.21994 0.40274 0.0
H86 H 0.94369 0.21866 0.41594 0.0
H87 H 0.95421 0.26792 0.43306 0.0
H88 H 0.06472 0.31849 0.42304 0.0
H89 H 0.03147 0.1698 0.43796 0.0
H90 H 0.02854 0.12686 0.4189 0.0
O91 O 0.04098 0.25165 0.38315 0.0
C92 C 0.12034 0.28114 0.37641 0.0
C93 C 0.04529 0.1644 0.40076 0.0
C94 C 0.03819 0.17779 0.42636 0.0
N95 N 0.05691 0.22257 0.40732 0.0
C96 C 0.05553 0.19915 0.39678 0.0
C97 C 0.04856 0.21233 0.42197 0.0
C98 C 0.03654 0.15371 0.41566 0.0
C99 C 0.1476 0.39258 0.3906 0.0
N100 N 0.14138 0.37048 0.37869 0.0
C101 C 0.18197 0.41894 0.39414 0.0
C102 C 0.21007 0.42261 0.38538 0.0
C103 C 0.20351 0.39998 0.37324 0.0
C104 C 0.16879 0.37391 0.37004 0.0
C105 C 0.11687 0.39369 0.33465 0.0
C106 C 0.08846 0.32322 0.34233 0.0
C107 C 0.11288 0.38312 0.34968 0.0
N108 N 0.09901 0.34828 0.35334 0.0
C109 C 0.09205 0.3328 0.32718 0.0
C110 C 0.10639 0.3683 0.32335 0.0
C111 C 0.02903 0.26371 0.37309 0.0
C112 C 0.01036 0.29636 0.42923 0.0
C113 C 0.99874 0.24157 0.41011 0.0
C114 C 0.97018 0.24064 0.4176 0.0
C115 C 0.9761 0.26827 0.42721 0.0
N116 N 0.03229 0.26922 0.41216 0.0
C117 C 0.03829 0.29639 0.42157 0.0
Co118 Co 0.75643 0.09024 0.70839 0.0
Co119 Co 0.79756 0.06814 0.7355 0.0
O120 O 0.76413 0.08354 0.72957 0.0
C121 C 0.68352 0.04605 0.72031 0.0
O122 O 0.69436 0.02628 0.72691 0.0
C123 C 0.8121 0.12671 0.7571 0.0
O124 O 0.80749 0.14455 0.74634 0.0
O125 O 0.83626 0.10881 0.72451 0.0
O126 O 0.8077 0.1082 0.70346 0.0
H127 H 0.89552 0.04153 0.72663 0.0
H128 H 0.73303 0.12221 0.73183 0.0
O129 O 0.70505 0.07279 0.71258 0.0
H130 H 0.8193 0.22222 0.70108 0.0
H131 H 0.70442 0.12584 0.66596 0.0
H132 H 0.77925 0.0749 0.67934 0.0
H133 H 0.80423 0.1612 0.69496 0.0
H134 H 0.71543 0.11835 0.69254 0.0
O135 O 0.80952 0.09692 0.75436 0.0
H136 H 0.85236 0.05962 0.71945 0.0
H137 H 0.81495 0.0455 0.76441 0.0
H138 H 0.76918 0.0822 0.65262 0.0
H139 H 0.74698 0.1828 0.73824 0.0
H140 H 0.73153 0.10784 0.64579 0.0
H141 H 0.79051 0.23332 0.72283 0.0
O142 O 0.74486 0.04104 0.70367 0.0
H143 H 0.69318 0.01042 0.77032 0.0
H144 H 0.77096 0.99043 0.73651 0.0
H145 H 0.72185 0.93972 0.7494 0.0
H146 H 0.6826 0.94956 0.76649 0.0
H147 H 0.74233 0.06035 0.75703 0.0
H148 H 0.8579 0.0275 0.7721 0.0
H149 H 0.89848 0.0253 0.75313 0.0
O150 O 0.78653 0.03794 0.71712 0.0
C151 C 0.83621 0.11758 0.71082 0.0
C152 C 0.87792 0.0423 0.735 0.0
C153 C 0.85684 0.03447 0.76052 0.0
N154 N 0.83102 0.05345 0.74147 0.0
C155 C 0.85338 0.05247 0.73099 0.0
C156 C 0.83263 0.04478 0.7561 0.0
C157 C 0.87959 0.03323 0.74987 0.0
C158 C 0.75172 0.14403 0.72499 0.0
N159 N 0.76773 0.13816 0.71303 0.0
C160 C 0.75964 0.17829 0.72871 0.0
C161 C 0.78411 0.20663 0.72007 0.0
C162 C 0.8003 0.20042 0.70788 0.0
C163 C 0.79176 0.16582 0.70451 0.0
C164 C 0.72094 0.1147 0.6688 0.0
C165 C 0.763 0.08626 0.67645 0.0
C166 C 0.7272 0.11033 0.68382 0.0
N167 N 0.74819 0.09645 0.68748 0.0
C168 C 0.75732 0.09024 0.66131 0.0
C169 C 0.73616 0.1046 0.65748 0.0
C170 C 0.76265 0.02611 0.70701 0.0
C171 C 0.71017 0.00581 0.76294 0.0
C172 C 0.7539 0.99494 0.74385 0.0
C173 C 0.7262 0.96612 0.75117 0.0
C174 C 0.70421 0.97166 0.76077 0.0
N175 N 0.75958 0.02837 0.74604 0.0
C176 C 0.73815 0.034 0.75544 0.0
Co177 Co 0.66941 0.76042 0.04197 0.0
Co178 Co 0.73431 0.79914 0.06861 0.0
O179 O 0.68516 0.76654 0.06292 0.0
C180 C 0.64146 0.68669 0.05267 0.0
O181 O 0.67241 0.69708 0.05885 0.0
C182 C 0.69268 0.81484 0.09101 0.0
O183 O 0.67301 0.81608 0.08013 0.0
O184 O 0.73264 0.83902 0.05848 0.0
O185 O 0.70235 0.81196 0.0376 0.0
H186 H 0.85914 0.89646 0.05973 0.0
H187 H 0.61639 0.73592 0.06642 0.0
O188 O 0.63577 0.70877 0.04563 0.0
H189 H 0.5996 0.82341 0.03806 0.0
H190 H 0.57907 0.71151 1.00043 0.0
H191 H 0.70561 0.78569 0.01263 0.0
H192 H 0.6448 0.80857 0.03025 0.0
H193 H 0.5993 0.72049 0.02678 0.0
O194 O 0.71808 0.80941 0.08804 0.0
H195 H 0.79747 0.85442 0.05266 0.0
H196 H 0.77518 0.81414 0.09721 0.0
H197 H 0.68651 0.77768 0.98613 0.0
H198 H 0.57061 0.7497 0.07455 0.0
H199 H 0.62282 0.74036 0.97989 0.0
H200 H 0.56206 0.79382 0.06034 0.0
O201 O 0.70674 0.74926 0.036 0.0
H202 H 0.68826 0.69224 0.10195 0.0
H203 H 0.7847 0.77166 0.06796 0.0
H204 H 0.78629 0.72136 0.07969 0.0
H205 H 0.73788 0.68128 0.09686 0.0
H206 H 0.68744 0.74258 0.08982 0.0
H207 H 0.83656 0.85591 0.10478 0.0
H208 H 0.87906 0.89738 0.08596 0.0
O209 O 0.7524 0.78926 0.04964 0.0
C210 C 0.72267 0.8399 0.04507 0.0
C211 C 0.8409 0.87847 0.06802 0.0
C212 C 0.82821 0.85574 0.09332 0.0
N213 N 0.78277 0.83173 0.07448 0.0
C214 C 0.80595 0.85456 0.06408 0.0
C215 C 0.79345 0.83221 0.08897 0.0
C216 C 0.85204 0.87899 0.08275 0.0
C217 C 0.61261 0.75492 0.06011 0.0
N218 N 0.63317 0.77134 0.04786 0.0
C219 C 0.58674 0.76271 0.0648 0.0
C220 C 0.58199 0.7875 0.05684 0.0
C221 C 0.60307 0.80414 0.04434 0.0
C222 C 0.62871 0.79572 0.04 0.0
C223 C 0.60689 0.72789 0.00301 0.0
C224 C 0.67783 0.76957 0.01001 0.0
C225 C 0.61851 0.733 0.0179 0.0
N226 N 0.65358 0.75379 0.02124 0.0
C227 C 0.66718 0.76506 0.99498 0.0
C228 C 0.63145 0.74409 0.99149 0.0
C229 C 0.73963 0.76643 0.03912 0.0
C230 C 0.70956 0.70958 0.09453 0.0
C231 C 0.76341 0.75424 0.07535 0.0
C232 C 0.76453 0.72587 0.082 0.0
C233 C 0.73738 0.70341 0.09165 0.0
N234 N 0.73603 0.76013 0.07823 0.0
C235 C 0.70933 0.73824 0.08768 0.0
Co236 Co 0.91422 0.66744 0.3765 0.0
Co237 Co 0.93625 0.72909 0.40451 0.0
O238 O 0.92045 0.68064 0.39784 0.0
C239 C 0.95894 0.63879 0.38787 0.0
O240 O 0.97846 0.66914 0.3947 0.0
C241 C 0.8766 0.68397 0.42571 0.0
O242 O 0.85871 0.66177 0.41487 0.0
O243 O 0.89676 0.72919 0.39321 0.0
O244 O 0.89595 0.70061 0.3721 0.0
H245 H 0.96613 0.85514 0.39734 0.0
H246 H 0.88255 0.61085 0.39946 0.0
O247 O 0.93213 0.63369 0.38021 0.0
H248 H 0.78231 0.59776 0.36904 0.0
H249 H 0.87963 0.58209 0.33324 0.0
H250 H 0.9293 0.70699 0.34782 0.0
H251 H 0.84321 0.64438 0.36317 0.0
H252 H 0.8868 0.59923 0.35999 0.0
O253 O 0.90633 0.7113 0.42302 0.0
H254 H 0.94721 0.7942 0.38931 0.0
H255 H 0.95796 0.76675 0.43402 0.0
H256 H 0.92234 0.69099 0.32095 0.0
H257 H 0.82209 0.56355 0.40561 0.0
H258 H 0.89734 0.62814 0.31351 0.0
H259 H 0.77145 0.55687 0.39037 0.0
O260 O 0.96327 0.70568 0.37186 0.0
H261 H 0.98922 0.6765 0.4388 0.0
H262 H 0.01409 0.77897 0.40714 0.0
H263 H 0.06309 0.77789 0.42037 0.0
H264 H 0.05079 0.7264 0.43639 0.0
H265 H 0.94108 0.67847 0.42517 0.0
H266 H 0.9767 0.82731 0.44255 0.0
H267 H 0.98102 0.87204 0.42413 0.0
O268 O 0.96778 0.74925 0.38664 0.0
C269 C 0.88751 0.72035 0.37954 0.0
C270 C 0.96439 0.8359 0.40547 0.0
C271 C 0.97027 0.82027 0.43084 0.0
N272 N 0.95154 0.77693 0.41117 0.0
C273 C 0.95374 0.80136 0.40099 0.0
C274 C 0.95951 0.78597 0.42596 0.0
C275 C 0.97272 0.84536 0.4205 0.0
C276 C 0.86068 0.60787 0.39269 0.0
N277 N 0.86642 0.63028 0.38095 0.0
C278 C 0.82649 0.58115 0.39626 0.0
C279 C 0.79809 0.57745 0.38772 0.0
C280 C 0.80416 0.60041 0.37577 0.0
C281 C 0.83869 0.62685 0.37253 0.0
C282 C 0.8905 0.60956 0.33634 0.0
C283 C 0.91822 0.67956 0.34468 0.0
C284 C 0.89468 0.61943 0.35147 0.0
N285 N 0.90821 0.65405 0.35546 0.0
C286 C 0.91442 0.67067 0.32944 0.0
C287 C 0.90042 0.63541 0.32528 0.0
C288 C 0.97883 0.738 0.3759 0.0
C289 C 0.99491 0.69912 0.43188 0.0
C290 C 0.00854 0.75636 0.41396 0.0
C291 C 0.03638 0.75596 0.4215 0.0
C292 C 0.02946 0.72709 0.4305 0.0
N293 N 0.97472 0.72881 0.41535 0.0
C294 C 0.96773 0.70046 0.42418 0.0
Co295 Co 0.24481 0.91241 0.70905 0.0
Co296 Co 0.2031 0.93487 0.73575 0.0
O297 O 0.23695 0.91974 0.73014 0.0
C298 C 0.3178 0.95743 0.72086 0.0
O299 O 0.30692 0.97731 0.72732 0.0
C300 C 0.18956 0.87767 0.75801 0.0
O301 O 0.19445 0.85943 0.74751 0.0
O302 O 0.16463 0.89352 0.72496 0.0
O303 O 0.1935 0.89388 0.70405 0.0
H304 H 0.10419 0.95971 0.72617 0.0
H305 H 0.26855 0.88162 0.73288 0.0
O306 O 0.29625 0.93036 0.7133 0.0
H307 H 0.18299 0.78023 0.70254 0.0
H308 H 0.29748 0.87607 0.66714 0.0
H309 H 0.22177 0.92645 0.67979 0.0
H310 H 0.19754 0.84088 0.69599 0.0
H311 H 0.28627 0.88425 0.6936 0.0
O312 O 0.1915 0.90701 0.75488 0.0
H313 H 0.14781 0.94193 0.71936 0.0
H314 H 0.18541 0.95847 0.76434 0.0
H315 H 0.23205 0.91847 0.65318 0.0
H316 H 0.25512 0.82142 0.73971 0.0
H317 H 0.27016 0.89311 0.64671 0.0
H318 H 0.21196 0.77021 0.72451 0.0
O319 O 0.25599 0.96132 0.70399 0.0
H320 H 0.30744 0.99508 0.77048 0.0
H321 H 0.22891 0.01245 0.73607 0.0
H322 H 0.27765 0.06402 0.74871 0.0
H323 H 0.31728 0.0555 0.76609 0.0
H324 H 0.25865 0.94428 0.75746 0.0
H325 H 0.14201 0.97617 0.77165 0.0
H326 H 0.10109 0.977 0.75248 0.0
O327 O 0.21377 0.96417 0.71711 0.0
C328 C 0.16488 0.88444 0.71133 0.0
C329 C 0.12193 0.95953 0.73462 0.0
C330 C 0.14313 0.96873 0.76015 0.0
N331 N 0.16927 0.94931 0.74142 0.0
C332 C 0.14673 0.94954 0.73082 0.0
C333 C 0.16759 0.95858 0.75595 0.0
C334 C 0.12018 0.9692 0.74938 0.0
C335 C 0.25 0.85949 0.72613 0.0
N336 N 0.23391 0.86477 0.71404 0.0
C337 C 0.24239 0.82545 0.73009 0.0
C338 C 0.21812 0.79673 0.72157 0.0
C339 C 0.20183 0.80233 0.70925 0.0
C340 C 0.21007 0.83673 0.70563 0.0
C341 C 0.28078 0.88709 0.66981 0.0
C342 C 0.23823 0.91522 0.67706 0.0
C343 C 0.27439 0.89185 0.68478 0.0
N344 N 0.25318 0.90558 0.68823 0.0
C345 C 0.24402 0.91084 0.66198 0.0
C346 C 0.26543 0.89665 0.65836 0.0
C347 C 0.23774 0.97591 0.70704 0.0
C348 C 0.29028 0.99912 0.76297 0.0
C349 C 0.24613 0.00851 0.74355 0.0
C350 C 0.27363 0.03782 0.75072 0.0
C351 C 0.29583 0.03302 0.76048 0.0
N352 N 0.24084 0.97533 0.74606 0.0
C353 C 0.2625 0.97043 0.75562 0.0
Co354 Co 0.7574 0.66793 0.6308 0.0
Co355 Co 0.79786 0.73141 0.60379 0.0
O356 O 0.76445 0.68263 0.6097 0.0
C357 C 0.68421 0.63984 0.61936 0.0
O358 O 0.69503 0.67058 0.6129 0.0
C359 C 0.81266 0.68793 0.58206 0.0
O360 O 0.8127 0.66814 0.59315 0.0
O361 O 0.83689 0.72913 0.61439 0.0
O362 O 0.80883 0.70089 0.63547 0.0
H363 H 0.89667 0.85567 0.61234 0.0
H364 H 0.73361 0.61349 0.60695 0.0
O365 O 0.70586 0.63431 0.62684 0.0
H366 H 0.81968 0.59794 0.63705 0.0
H367 H 0.7062 0.57983 0.67308 0.0
H368 H 0.7814 0.70564 0.65989 0.0
H369 H 0.80486 0.64378 0.64375 0.0
H370 H 0.71651 0.59866 0.64654 0.0
O371 O 0.80826 0.71412 0.58469 0.0
H372 H 0.85347 0.79453 0.61964 0.0
H373 H 0.81446 0.77143 0.5749 0.0
H374 H 0.77204 0.68794 0.68658 0.0
H375 H 0.74739 0.56704 0.59993 0.0
H376 H 0.7342 0.62463 0.69331 0.0
H377 H 0.79079 0.55912 0.61501 0.0
O378 O 0.74626 0.7057 0.63587 0.0
H379 H 0.69216 0.68596 0.56975 0.0
H380 H 0.77186 0.78302 0.60343 0.0
H381 H 0.72257 0.78533 0.59106 0.0
H382 H 0.68235 0.7366 0.57404 0.0
H383 H 0.74148 0.68445 0.58253 0.0
H384 H 0.85742 0.83227 0.5671 0.0
H385 H 0.89884 0.87491 0.5859 0.0
O386 O 0.78783 0.75062 0.62243 0.0
C387 C 0.83716 0.72006 0.62802 0.0
C388 C 0.87871 0.83737 0.60405 0.0
C389 C 0.85671 0.82421 0.57866 0.0
N390 N 0.83133 0.77946 0.59773 0.0
C391 C 0.85414 0.80272 0.60813 0.0
C392 C 0.83251 0.78976 0.58314 0.0
C393 C 0.87993 0.84813 0.58921 0.0
C394 C 0.75228 0.60997 0.61364 0.0
N395 N 0.76831 0.63123 0.62576 0.0
C396 C 0.76008 0.58373 0.60958 0.0
C397 C 0.78447 0.57933 0.61803 0.0
C398 C 0.80072 0.60113 0.63039 0.0
C399 C 0.7923 0.62712 0.6341 0.0
C400 C 0.7228 0.60749 0.67029 0.0
C401 C 0.76506 0.67801 0.66274 0.0
C402 C 0.72867 0.61832 0.65528 0.0
N403 N 0.74975 0.65319 0.65168 0.0
C404 C 0.75979 0.66816 0.67786 0.0
C405 C 0.73852 0.63264 0.68163 0.0
C406 C 0.76408 0.73847 0.6326 0.0
C407 C 0.70956 0.7074 0.57711 0.0
C408 C 0.75437 0.76159 0.59612 0.0
C409 C 0.72657 0.76312 0.5891 0.0
C410 C 0.70404 0.73579 0.57954 0.0
N411 N 0.75962 0.73364 0.59369 0.0
C412 C 0.73764 0.70677 0.58432 0.0
Co413 Co 0.09154 0.75904 0.96529 0.0
Co414 Co 0.0733 0.80153 0.9373 0.0
O415 O 0.08792 0.76781 0.94388 0.0
C416 C 0.04884 0.68663 0.95267 0.0
O417 O 0.03003 0.6978 0.94547 0.0
C418 C 0.13111 0.8114 0.91565 0.0
O419 O 0.14336 0.79721 0.92517 0.0
O420 O 0.11216 0.83965 0.94931 0.0
O421 O 0.10872 0.81005 0.97043 0.0
H422 H 0.04475 0.89848 0.94511 0.0
H423 H 0.12685 0.73573 0.94337 0.0
O424 O 0.07463 0.70786 0.96092 0.0
H425 H 0.22217 0.8216 0.97619 0.0
H426 H 0.12076 0.70495 0.00901 0.0
H427 H 0.07193 0.78044 0.99368 0.0
H428 H 0.16045 0.80673 0.98035 0.0
H429 H 0.11727 0.71727 0.98221 0.0
O430 O 0.10499 0.8153 0.91917 0.0
H431 H 0.06197 0.85503 0.95292 0.0
H432 H 0.05504 0.82075 0.90772 0.0
H433 H 0.07519 0.76904 0.02062 0.0
H434 H 0.18818 0.74942 0.93897 0.0
H435 H 0.09975 0.73104 0.02843 0.0
H436 H 0.23636 0.79277 0.95541 0.0
O437 O 0.04181 0.74723 0.96862 0.0
H438 H 0.02069 0.69846 0.9016 0.0
H439 H 0.99604 0.7753 0.93393 0.0
H440 H 0.94735 0.72701 0.91979 0.0
H441 H 0.95954 0.68824 0.90343 0.0
H442 H 0.06851 0.74674 0.9161 0.0
H443 H 0.03802 0.86402 0.89942 0.0
H444 H 0.03264 0.90319 0.91818 0.0
O445 O 0.04024 0.78918 0.95478 0.0
C446 C 0.11903 0.8389 0.96321 0.0
C447 C 0.04692 0.8815 0.93683 0.0
C448 C 0.04318 0.86219 0.91118 0.0
N449 N 0.05931 0.83521 0.93081 0.0
C450 C 0.05659 0.85679 0.94119 0.0
C451 C 0.05292 0.83779 0.91595 0.0
C452 C 0.04015 0.88415 0.92172 0.0
C453 C 0.14763 0.75439 0.95065 0.0
N454 N 0.14006 0.77048 0.96206 0.0
C455 C 0.18233 0.76214 0.94807 0.0
C456 C 0.20936 0.78651 0.95728 0.0
C457 C 0.20142 0.80274 0.96893 0.0
C458 C 0.16642 0.79435 0.97117 0.0
C459 C 0.11007 0.72161 0.00575 0.0
C460 C 0.08284 0.76405 0.997 0.0
C461 C 0.10797 0.72863 0.99059 0.0
N462 N 0.09466 0.74979 0.98639 0.0
C463 C 0.08453 0.75761 0.01227 0.0
C464 C 0.09829 0.73626 0.01664 0.0
C465 C 0.02718 0.76493 0.96472 0.0
C466 C 0.01508 0.71529 0.90862 0.0
C467 C 1.0016 0.75851 0.92688 0.0
C468 C 0.9739 0.73124 0.91887 0.0
C469 C 0.98076 0.70952 0.90968 0.0
N470 N 0.03524 0.7641 0.92575 0.0
C471 C 0.04212 0.74284 0.91679 0.0
Co472 Co 0.33605 0.08828 0.29668 0.0
Co473 Co 0.27562 0.06697 0.26811 0.0
O474 O 0.3238 0.08294 0.27524 0.0
C475 C 0.36495 0.04397 0.28516 0.0
O476 O 0.33485 0.02489 0.2781 0.0
C477 C 0.32213 0.12758 0.24753 0.0
O478 O 0.34521 0.14374 0.2583 0.0
O479 O 0.27412 0.10526 0.27979 0.0
O480 O 0.30274 0.10645 0.30095 0.0
H481 H 0.14851 0.03433 0.27427 0.0
H482 H 0.39405 0.12074 0.27434 0.0
O483 O 0.36985 0.07038 0.29307 0.0
H484 H 0.40551 0.21985 0.30511 0.0
H485 H 0.41949 0.12094 0.34056 0.0
H486 H 0.29529 0.07227 0.32507 0.0
H487 H 0.3584 0.1588 0.31036 0.0
H488 H 0.40352 0.11484 0.3137 0.0
O489 O 0.294 0.09839 0.25004 0.0
H490 H 0.20919 0.05364 0.28283 0.0
H491 H 0.23988 0.04726 0.23815 0.0
H492 H 0.31011 0.07816 0.35205 0.0
H493 H 0.44189 0.18135 0.26884 0.0
H494 H 0.37261 0.10265 0.35995 0.0
H495 H 0.44775 0.23143 0.28425 0.0
O496 O 0.29762 0.03912 0.30094 0.0
H497 H 0.3318 0.01797 0.23364 0.0
H498 H 0.22685 0.98923 0.26433 0.0
H499 H 0.22962 0.94169 0.25059 0.0
H500 H 0.28238 0.95595 0.23506 0.0
H501 H 0.32811 0.06459 0.24774 0.0
H502 H 0.17962 0.0282 0.22909 0.0
H503 H 0.1334 0.02147 0.24722 0.0
O504 O 0.25482 0.03404 0.28551 0.0
C505 C 0.28277 0.11451 0.29347 0.0
C506 C 0.1684 0.0371 0.26626 0.0
C507 C 0.18588 0.03371 0.24091 0.0
N508 N 0.22804 0.05146 0.26102 0.0
C509 C 0.2028 0.04797 0.27105 0.0
C510 C 0.21999 0.04463 0.2461 0.0
C511 C 0.15995 0.02992 0.25109 0.0
C512 C 0.39666 0.14235 0.28119 0.0
N513 N 0.37349 0.13622 0.29266 0.0
C514 C 0.4237 0.17664 0.27798 0.0
C515 C 0.42693 0.20473 0.28662 0.0
C516 C 0.40321 0.19826 0.29831 0.0
C517 C 0.37649 0.16363 0.30118 0.0
C518 C 0.39217 0.1103 0.33726 0.0
C519 C 0.32257 0.08315 0.32842 0.0
C520 C 0.38296 0.10672 0.32207 0.0
N521 N 0.34853 0.09346 0.31782 0.0
C522 C 0.33079 0.08633 0.34371 0.0
C523 C 0.36585 0.10004 0.34814 0.0
C524 C 0.26563 0.02313 0.29646 0.0
C525 C 0.30864 0.01143 0.24033 0.0
C526 C 0.24999 0.99562 0.25771 0.0
C527 C 0.25135 0.96861 0.24989 0.0
C528 C 0.28093 0.97663 0.24116 0.0
N529 N 0.27727 0.0297 0.25686 0.0
C530 C 0.30632 0.03776 0.2483 0.0
Co531 Co 0.24473 0.33493 0.63049 0.0
Co532 Co 0.20329 0.27262 0.60299 0.0
O533 O 0.23694 0.32128 0.60919 0.0
C534 C 0.31766 0.36366 0.61858 0.0
O535 O 0.30666 0.33343 0.61163 0.0
C536 C 0.19256 0.31876 0.58078 0.0
O537 O 0.20242 0.3441 0.59075 0.0
O538 O 0.16472 0.27447 0.61417 0.0
O539 O 0.1934 0.30169 0.63531 0.0
H540 H 0.10509 0.14799 0.6114 0.0
H541 H 0.26913 0.39185 0.6077 0.0
O542 O 0.29618 0.36869 0.62643 0.0
H543 H 0.18261 0.40448 0.63878 0.0
H544 H 0.29713 0.42073 0.67352 0.0
H545 H 0.22164 0.29566 0.65926 0.0
H546 H 0.1969 0.3577 0.64423 0.0
H547 H 0.28603 0.40335 0.64683 0.0
O548 O 0.19105 0.28975 0.58424 0.0
H549 H 0.14844 0.20899 0.61883 0.0
H550 H 0.18561 0.23335 0.57386 0.0
H551 H 0.23181 0.31189 0.6861 0.0
H552 H 0.25604 0.43939 0.602 0.0
H553 H 0.2698 0.37484 0.69337 0.0
H554 H 0.21237 0.44583 0.61756 0.0
O555 O 0.25603 0.297 0.63482 0.0
H556 H 0.30772 0.31997 0.56815 0.0
H557 H 0.22945 0.22121 0.60141 0.0
H558 H 0.2783 0.21964 0.58825 0.0
H559 H 0.31778 0.26921 0.57143 0.0
H560 H 0.25886 0.32072 0.58169 0.0
H561 H 0.14247 0.17269 0.56593 0.0
H562 H 0.1019 0.12948 0.58477 0.0
O563 O 0.2143 0.25281 0.62117 0.0
C564 C 0.16486 0.28291 0.62793 0.0
C565 C 0.12268 0.16654 0.60309 0.0
C566 C 0.14363 0.18042 0.57757 0.0
N567 N 0.16969 0.22468 0.59682 0.0
C568 C 0.14733 0.20111 0.60723 0.0
C569 C 0.16795 0.21477 0.58212 0.0
C570 C 0.12089 0.15618 0.58815 0.0
C571 C 0.25036 0.3947 0.61461 0.0
N572 N 0.23379 0.372 0.62627 0.0
C573 C 0.24293 0.42157 0.61129 0.0
C574 C 0.21839 0.42513 0.62001 0.0
C575 C 0.20164 0.40191 0.6319 0.0
C576 C 0.20971 0.37534 0.63489 0.0
C577 C 0.28047 0.39322 0.6705 0.0
C578 C 0.23803 0.32312 0.66234 0.0
C579 C 0.27414 0.38322 0.6554 0.0
N580 N 0.25298 0.34855 0.6515 0.0
C581 C 0.24377 0.33215 0.67755 0.0
C582 C 0.26512 0.36746 0.68163 0.0
C583 C 0.23813 0.26442 0.6313 0.0
C584 C 0.29061 0.29814 0.57539 0.0
C585 C 0.2466 0.24298 0.59417 0.0
C586 C 0.27416 0.24188 0.58671 0.0
C587 C 0.29628 0.26969 0.57727 0.0
N588 N 0.24115 0.27096 0.59227 0.0
C589 C 0.26276 0.29832 0.58303 0.0
Co590 Co 0.91191 0.24673 0.96429 0.0
Co591 Co 0.93157 0.20701 0.93515 0.0
O592 O 0.91594 0.23922 0.94275 0.0
C593 C 0.95688 0.31963 0.95252 0.0
O594 O 0.975 0.30796 0.94512 0.0
C595 C 0.87189 0.19644 0.91432 0.0
O596 O 0.86144 0.21279 0.92355 0.0
O597 O 0.89533 0.16755 0.94769 0.0
O598 O 0.89292 0.19524 0.96857 0.0
H599 H 0.96749 0.11478 0.94055 0.0
H600 H 0.87961 0.27379 0.94255 0.0
O601 O 0.93075 0.29854 0.96066 0.0
H602 H 0.78085 0.18738 0.97381 0.0
H603 H 0.88296 0.29947 0.00861 0.0
H604 H 0.92812 0.22137 0.99245 0.0
H605 H 0.84163 0.19973 0.97841 0.0
H606 H 0.88761 0.28911 0.98166 0.0
O607 O 0.89752 0.19171 0.91781 0.0
H608 H 0.94844 0.15603 0.94955 0.0
H609 H 0.94724 0.18901 0.90474 0.0
H610 H 0.92365 0.23078 0.01951 0.0
H611 H 0.8193 0.2627 0.93773 0.0
H612 H 0.90093 0.27009 0.02774 0.0
H613 H 0.76938 0.21909 0.95338 0.0
O614 O 0.96093 0.25647 0.96818 0.0
H615 H 0.97571 0.31119 0.90019 0.0
H616 H 0.00849 0.23585 0.92927 0.0
H617 H 0.05402 0.28551 0.91453 0.0
H618 H 0.03772 0.32354 0.89979 0.0
H619 H 0.9312 0.26165 0.91526 0.0
H620 H 0.96597 0.14788 0.89525 0.0
H621 H 0.97637 0.1105 0.91322 0.0
O622 O 0.9668 0.22091 0.95172 0.0
C623 C 0.8857 0.16719 0.96129 0.0
C624 C 0.96313 0.13099 0.93261 0.0
C625 C 0.96222 0.14953 0.90719 0.0
N626 N 0.9469 0.17506 0.9277 0.0
C627 C 0.95241 0.15446 0.93764 0.0
C628 C 0.95151 0.1727 0.91263 0.0
C629 C 0.96807 0.12858 0.91727 0.0
C630 C 0.85808 0.25501 0.9495 0.0
N631 N 0.86415 0.23734 0.96071 0.0
C632 C 0.82396 0.24873 0.94667 0.0
C633 C 0.79595 0.22422 0.95544 0.0
C634 C 0.80236 0.20638 0.96689 0.0
C635 C 0.83683 0.21332 0.96938 0.0
C636 C 0.89285 0.28224 0.00516 0.0
C637 C 0.91802 0.23836 0.99595 0.0
C638 C 0.89561 0.27633 0.98992 0.0
N639 N 0.90791 0.25447 0.98549 0.0
C640 C 0.91564 0.24366 0.01129 0.0
C641 C 0.90292 0.26574 0.01589 0.0
C642 C 0.97752 0.24166 0.96299 0.0
C643 C 0.98311 0.2947 0.9065 0.0
C644 C 1.00117 0.25232 0.92296 0.0
C645 C 0.02707 0.28036 0.91458 0.0
C646 C 0.01791 0.30166 0.90631 0.0
N647 N 0.96703 0.24552 0.92306 0.0
C648 C 0.95791 0.26638 0.91499 0.0
Co649 Co 0.66996 0.90986 0.29743 0.0
Co650 Co 0.73401 0.93216 0.27078 0.0
O651 O 0.68497 0.91683 0.27634 0.0
C652 C 0.6413 0.9541 0.28546 0.0
O653 O 0.6721 0.97417 0.27906 0.0
C654 C 0.69059 0.87505 0.24841 0.0
O655 O 0.66778 0.85632 0.25892 0.0
O656 O 0.73116 0.89084 0.28159 0.0
O657 O 0.70334 0.89207 0.30257 0.0
H658 H 0.85776 0.95715 0.28047 0.0
H659 H 0.61534 0.87786 0.2737 0.0
O660 O 0.63596 0.92713 0.29305 0.0
H661 H 0.60105 0.77783 0.3046 0.0
H662 H 0.58124 0.8737 0.33944 0.0
H663 H 0.70739 0.92523 0.32666 0.0
H664 H 0.64667 0.83888 0.31087 0.0
H665 H 0.6004 0.88133 0.31296 0.0
O666 O 0.71786 0.90445 0.25161 0.0
H667 H 0.79633 0.9393 0.28722 0.0
H668 H 0.77548 0.95602 0.24224 0.0
H669 H 0.68936 0.91781 0.35329 0.0
H670 H 0.56906 0.81724 0.26714 0.0
H671 H 0.62587 0.89187 0.35983 0.0
H672 H 0.56178 0.76671 0.28262 0.0
O673 O 0.70731 0.95909 0.30225 0.0
H674 H 0.68975 0.99222 0.23602 0.0
H675 H 0.78569 0.00978 0.27045 0.0
H676 H 0.78843 0.06129 0.2578 0.0
H677 H 0.74027 0.05267 0.2404 0.0
H678 H 0.68781 0.94148 0.24907 0.0
H679 H 0.83663 0.97382 0.23499 0.0
H680 H 0.87829 0.97458 0.25419 0.0
O681 O 0.75253 0.96149 0.28943 0.0
C682 C 0.72235 0.88238 0.29531 0.0
C683 C 0.83989 0.95699 0.27201 0.0
C684 C 0.82801 0.9663 0.24648 0.0
N685 N 0.78234 0.94673 0.26516 0.0
C686 C 0.80507 0.94695 0.27577 0.0
C687 C 0.79337 0.95609 0.25064 0.0
C688 C 0.85137 0.96674 0.25726 0.0
C689 C 0.6121 0.85603 0.28057 0.0
N690 N 0.63362 0.86191 0.29266 0.0
C691 C 0.58595 0.82176 0.27676 0.0
C692 C 0.58192 0.79341 0.28544 0.0
C693 C 0.60397 0.79963 0.29777 0.0
C694 C 0.62985 0.83425 0.30122 0.0
C695 C 0.60898 0.88496 0.33674 0.0
C696 C 0.67969 0.91373 0.32941 0.0
C697 C 0.61999 0.88941 0.32177 0.0
N698 N 0.65496 0.90345 0.31827 0.0
C699 C 0.66965 0.90968 0.34451 0.0
C700 C 0.63403 0.89516 0.34817 0.0
C701 C 0.74017 0.97367 0.29925 0.0
C702 C 0.71095 0.9963 0.24354 0.0
C703 C 0.76452 0.0058 0.26297 0.0
C704 C 0.76628 0.03507 0.25579 0.0
C705 C 0.73927 0.03022 0.24602 0.0
N706 N 0.73665 0.97259 0.26047 0.0
C707 C 0.71008 0.96764 0.2509 0.0
H708 H 0.63562 0.63588 0.07243 0.0
H709 H 0.58837 0.57402 0.07376 0.0
H710 H 0.53675 0.5905 0.03582 0.0
H711 H 0.58292 0.65257 0.0349 0.0
H712 H 0.48963 0.55291 0.0558 0.0
H713 H 0.5752 0.49409 0.04797 0.0
H714 H 0.58744 0.52222 0.06416 0.0
H715 H 0.59149 0.54072 0.04568 0.0
C716 C 0.61422 0.62625 0.06435 0.0
C717 C 0.61312 0.6491 0.05352 0.0
C718 C 0.58732 0.59077 0.06505 0.0
C719 C 0.55925 0.57719 0.05467 0.0
C720 C 0.55808 0.60016 0.04393 0.0
H721 H 0.42015 0.35541 0.03431 0.0
H722 H 0.46642 0.41748 0.03513 0.0
C723 C 0.58457 0.6357 0.0434 0.0
C724 C 0.53071 0.53932 0.05508 0.0
H725 H 0.5154 0.45456 0.05454 0.0
C726 C 0.49531 0.53142 0.05547 0.0
C727 C 0.53792 0.51112 0.05444 0.0
C728 C 0.57504 0.5174 0.05288 0.0
C729 C 0.46708 0.49636 0.05521 0.0
C730 C 0.47433 0.46815 0.05513 0.0
C731 C 0.50972 0.47605 0.05477 0.0
C732 C 0.44574 0.4303 0.05478 0.0
C733 C 0.42986 0.49011 0.05448 0.0
C734 C 0.41868 0.41645 0.06562 0.0
C735 C 0.39172 0.38099 0.065 0.0
C736 C 0.39176 0.35841 0.05375 0.0
C737 C 0.41932 0.37207 0.04314 0.0
C738 C 0.44587 0.40761 0.04361 0.0
H739 H 0.42929 0.51357 0.05 0.0
H740 H 0.41275 0.46701 0.04728 0.0
H741 H 0.4185 0.48499 0.06597 0.0
H742 H 0.41847 0.43297 0.07465 0.0
H743 H 0.37112 0.37115 0.07346 0.0
H744 H 0.07264 0.42148 0.36878 0.0
H745 H 0.05728 0.46793 0.37056 0.0
H746 H 0.9915 0.41604 0.40905 0.0
H747 H 0.00565 0.36855 0.40692 0.0
H748 H 0.95866 0.43734 0.39127 0.0
H749 H 0.09423 0.54957 0.39851 0.0
H750 H 0.09052 0.52601 0.3815 0.0
H751 H 0.0843 0.50428 0.39939 0.0
C752 C 0.05505 0.42002 0.37769 0.0
C753 C 0.04052 0.39136 0.38776 0.0
C754 C 0.0465 0.44683 0.37878 0.0
C755 C 0.0239 0.44615 0.39018 0.0
C756 C 0.00919 0.41741 0.40021 0.0
H757 H 0.00277 0.63242 0.40813 0.0
H758 H 0.01709 0.58496 0.40976 0.0
C759 C 0.01731 0.39024 0.39899 0.0
C760 C 0.01457 0.47465 0.39126 0.0
H761 H 0.05009 0.56438 0.39168 0.0
C762 C 0.97871 0.4651 0.39151 0.0
C763 C 0.04057 0.51098 0.39188 0.0
C764 C 0.07952 0.52329 0.39298 0.0
C765 C 0.96817 0.49071 0.39191 0.0
C766 C 0.99418 0.52707 0.39152 0.0
C767 C 0.03004 0.5366 0.39174 0.0
C768 C 0.98485 0.55559 0.39072 0.0
C769 C 0.92922 0.47836 0.39302 0.0
C770 C 0.96231 0.55533 0.37938 0.0
C771 C 0.95367 0.58212 0.37858 0.0
C772 C 0.96806 0.61034 0.38888 0.0
C773 C 0.99124 0.61107 0.40003 0.0
C774 C 0.99944 0.58392 0.40096 0.0
H775 H 0.91447 0.45187 0.39837 0.0
H776 H 0.92439 0.49712 0.39961 0.0
H777 H 0.9183 0.47609 0.38155 0.0
H778 H 0.95162 0.53457 0.37101 0.0
H779 H 0.93611 0.58097 0.36973 0.0
H780 H 0.353 0.93405 0.70317 0.0
H781 H 0.41478 0.94933 0.70481 0.0
H782 H 0.42933 0.01572 0.74317 0.0
H783 H 0.36766 1.00165 0.74117 0.0
H784 H 0.48334 0.04809 0.72529 0.0
H785 H 0.45942 0.91241 0.73276 0.0
H786 H 0.43935 0.91588 0.71577 0.0
H787 H 0.42421 0.92256 0.73368 0.0
C788 C 0.36926 0.95176 0.71202 0.0
C789 C 0.35531 0.96647 0.7221 0.0
C790 C 0.40461 0.96027 0.71303 0.0
C791 C 0.42669 0.98298 0.72436 0.0
C792 C 0.41286 0.99792 0.73438 0.0
H793 H 0.63407 0.00273 0.74093 0.0
H794 H 0.57256 0.989 0.74311 0.0
C795 C 0.37758 0.98986 0.73324 0.0
C796 C 0.46446 0.99213 0.72536 0.0
H797 H 0.51826 0.95613 0.7255 0.0
C798 C 0.49091 0.02793 0.7255 0.0
C799 C 0.47461 0.96598 0.72596 0.0
C800 C 0.44786 0.9271 0.72721 0.0
C801 C 0.52701 0.03826 0.72571 0.0
C802 C 0.53715 0.01209 0.72523 0.0
C803 C 0.5107 0.9763 0.72561 0.0
C804 C 0.57489 0.02117 0.72414 0.0
C805 C 0.5538 0.07718 0.7267 0.0
C806 C 0.59676 0.04348 0.71266 0.0
C807 C 0.63205 0.05181 0.71155 0.0
C808 C 0.64612 0.0373 0.72166 0.0
C809 C 0.62406 0.01435 0.73296 0.0
C810 C 0.58886 0.00648 0.73421 0.0
H811 H 0.54238 0.09208 0.73218 0.0
H812 H 0.5776 0.08194 0.7331 0.0
H813 H 0.56203 0.08797 0.71519 0.0
H814 H 0.58647 0.05422 0.70441 0.0
H815 H 0.64816 0.06919 0.70258 0.0
H816 H 0.63421 0.6341 0.59915 0.0
H817 H 0.57229 0.58711 0.59754 0.0
H818 H 0.58709 0.53543 0.63588 0.0
H819 H 0.64922 0.58137 0.63712 0.0
H820 H 0.54979 0.48828 0.61568 0.0
H821 H 0.49201 0.57496 0.62294 0.0
H822 H 0.52062 0.58692 0.60692 0.0
H823 H 0.53848 0.59078 0.62552 0.0
C824 C 0.62421 0.61274 0.60725 0.0
C825 C 0.64661 0.61159 0.61831 0.0
C826 C 0.58869 0.58599 0.60639 0.0
C827 C 0.57462 0.55799 0.6168 0.0
C828 C 0.59714 0.55672 0.62774 0.0
H829 H 0.3529 0.42061 0.63712 0.0
H830 H 0.41505 0.46651 0.63613 0.0
C831 C 0.63272 0.58308 0.62846 0.0
C832 C 0.53668 0.52969 0.61624 0.0
H833 H 0.45219 0.5152 0.61649 0.0
C834 C 0.52846 0.49421 0.61589 0.0
C835 C 0.50869 0.53725 0.61673 0.0
C836 C 0.51533 0.57451 0.61821 0.0
C837 C 0.49328 0.4662 0.61608 0.0
C838 C 0.46529 0.47378 0.61606 0.0
C839 C 0.47352 0.50927 0.61635 0.0
C840 C 0.42734 0.44546 0.61646 0.0
C841 C 0.48664 0.42885 0.61685 0.0
C842 C 0.41316 0.41831 0.60565 0.0
C843 C 0.37761 0.39156 0.60636 0.0
C844 C 0.3553 0.3919 0.61768 0.0
C845 C 0.36932 0.41956 0.62824 0.0
C846 C 0.40492 0.44589 0.62768 0.0
H847 H 0.50998 0.42801 0.6213 0.0
H848 H 0.46353 0.41198 0.62409 0.0
H849 H 0.48127 0.41737 0.60537 0.0
H850 H 0.4295 0.41787 0.59661 0.0
H851 H 0.36752 0.37088 0.59794 0.0
H852 H 0.99983 0.36919 0.93185 0.0
H853 H 0.01541 0.43133 0.93045 0.0
H854 H 0.95271 0.41781 0.97 0.0
H855 H 0.93599 0.35554 0.97111 0.0
H856 H 0.94122 0.45475 0.94991 0.0
H857 H 0.08606 0.5119 0.95527 0.0
H858 H 0.06793 0.48284 0.93945 0.0
H859 H 0.05535 0.46557 0.95821 0.0
C860 C 0.98948 0.37952 0.94028 0.0
C861 C 0.96681 0.35742 0.95164 0.0
C862 C 0.9986 0.41515 0.93952 0.0
C863 C 0.98586 0.42961 0.9503 0.0
C864 C 0.96301 0.40744 0.96157 0.0
H865 H 0.07124 0.65135 0.97087 0.0
H866 H 0.05508 0.58924 0.96968 0.0
C867 C 0.9535 0.37177 0.96221 0.0
C868 C 0.99567 0.46759 0.94978 0.0
H869 H 0.06594 0.55192 0.94951 0.0
C870 C 0.96852 0.47599 0.94985 0.0
C871 C 0.03128 0.49544 0.9499 0.0
C872 C 0.06183 0.48857 0.95086 0.0
C873 C 0.97588 0.51123 0.95008 0.0
C874 C 0.01149 0.53908 0.94973 0.0
C875 C 0.03864 0.53068 0.94962 0.0
C876 C 0.02127 0.57705 0.95019 0.0
C877 C 0.94536 0.51811 0.95125 0.0
C878 C 0.00805 0.59128 0.93952 0.0
C879 C 0.01685 0.62681 0.94032 0.0
C880 C 0.03968 0.64907 0.9516 0.0
C881 C 0.0536 0.635 0.96202 0.0
C882 C 0.0444 0.59942 0.96134 0.0
H883 H 0.9213 0.49485 0.95582 0.0
H884 H 0.95209 0.54122 0.95857 0.0
H885 H 0.93884 0.52365 0.93989 0.0
H886 H 0.99101 0.57495 0.93053 0.0
H887 H 0.00601 0.63692 0.93201 0.0
H888 H 0.42231 0.06579 0.30352 0.0
H889 H 0.46883 0.05046 0.302 0.0
H890 H 0.41944 0.98723 0.26259 0.0
H891 H 0.37187 1.00133 0.26444 0.0
H892 H 0.43966 0.95327 0.28029 0.0
H893 H 0.55215 0.08931 0.2749 0.0
H894 H 0.52753 0.08449 0.2917 0.0
H895 H 0.5069 0.07936 0.27361 0.0
C896 C 0.4214 0.04875 0.29447 0.0
C897 C 0.39343 0.03491 0.28406 0.0
C898 C 0.44826 0.04022 0.29354 0.0
C899 C 0.44831 0.01837 0.28195 0.0
C900 C 0.42022 0.00433 0.27159 0.0
H901 H 0.63597 0.99878 0.26533 0.0
H902 H 0.58844 0.01294 0.26334 0.0
C903 C 0.39301 0.01241 0.27265 0.0
C904 C 0.4769 0.00917 0.281 0.0
H905 H 0.56664 0.04481 0.28148 0.0
C906 C 0.46742 0.97335 0.2804 0.0
C907 C 0.51324 0.03524 0.28083 0.0
C908 C 0.52555 0.07422 0.28012 0.0
C909 C 0.49309 0.96289 0.28009 0.0
C910 C 0.5294 0.9889 0.28095 0.0
C911 C 0.53889 0.02475 0.28107 0.0
C912 C 0.5579 0.97958 0.28191 0.0
C913 C 0.48088 0.92403 0.2786 0.0
C914 C 0.55697 0.95643 0.29311 0.0
C915 C 0.5838 0.94788 0.29411 0.0
C916 C 0.61271 0.96296 0.28417 0.0
C917 C 0.61407 0.9867 0.27316 0.0
C918 C 0.58689 0.99482 0.27201 0.0
H919 H 0.45474 0.90961 0.27293 0.0
H920 H 0.50008 0.91965 0.27212 0.0
H921 H 0.47789 0.91241 0.28996 0.0
H922 H 0.53567 0.94522 0.30123 0.0
H923 H 0.58215 0.92988 0.30286 0.0
H924 H 0.38515 0.17837 0.23508 0.0
H925 H 0.39688 0.19513 0.2084 0.0
H926 H 0.28734 0.1232 0.198 0.0
H927 H 0.2755 0.10631 0.22431 0.0
H928 H 0.33532 0.11549 0.17932 0.0
H929 H 0.36653 0.25546 0.18331 0.0
H930 H 0.39081 0.24193 0.19529 0.0
H931 H 0.34432 0.22404 0.19825 0.0
C932 C 0.36352 0.16652 0.22712 0.0
C933 C 0.32941 0.14092 0.23184 0.0
C934 C 0.37027 0.17609 0.21189 0.0
C935 C 0.34296 0.16038 0.20121 0.0
C936 C 0.30886 0.13549 0.20601 0.0
H937 H 0.2865 0.19926 0.11688 0.0
H938 H 0.29995 0.19343 0.14284 0.0
C939 C 0.30214 0.12592 0.22111 0.0
C940 C 0.34922 0.16882 0.18494 0.0
H941 H 0.36327 0.23244 0.15915 0.0
C942 C 0.34206 0.14123 0.17487 0.0
C943 C 0.35791 0.20239 0.17921 0.0
C944 C 0.36517 0.23273 0.18951 0.0
C945 C 0.34158 0.14578 0.15925 0.0
C946 C 0.34895 0.17898 0.15354 0.0
C947 C 0.35783 0.20707 0.16357 0.0
C948 C 0.34263 0.18368 0.13751 0.0
C949 C 0.33103 0.11445 0.14906 0.0
C950 C 0.36232 0.18029 0.12578 0.0
C951 C 0.35454 0.18347 0.11073 0.0
C952 C 0.32696 0.19009 0.10722 0.0
C953 C 0.30775 0.19389 0.11907 0.0
C954 C 0.31553 0.19078 0.13399 0.0
H955 H 0.32126 0.08942 0.15544 0.0
H956 H 0.31004 0.11143 0.14113 0.0
H957 H 0.35423 0.11879 0.14232 0.0
H958 H 0.38363 0.17519 0.12826 0.0
H959 H 0.37001 0.18067 0.10189 0.0
H960 H 0.17959 0.3774 0.43636 0.0
H961 H 0.19703 0.38682 0.46303 0.0
H962 H 0.12735 0.27599 0.47176 0.0
H963 H 0.10975 0.26637 0.44542 0.0
H964 H 0.14514 0.36562 0.48938 0.0
H965 H 0.22766 0.3018 0.48926 0.0
H966 H 0.21901 0.31948 0.47245 0.0
H967 H 0.1859 0.27749 0.47976 0.0
C968 C 0.16832 0.35502 0.44395 0.0
C969 C 0.14331 0.32113 0.43875 0.0
C970 C 0.17816 0.36048 0.45917 0.0
C971 C 0.16359 0.33205 0.46932 0.0
C972 C 0.1391 0.29822 0.46409 0.0
H973 H 0.15824 0.26843 0.55944 0.0
H974 H 0.15336 0.27678 0.53266 0.0
C975 C 0.12903 0.29282 0.44901 0.0
C976 C 0.17282 0.33717 0.48552 0.0
H977 H 0.20821 0.31014 0.51312 0.0
C978 C 0.15948 0.35411 0.49461 0.0
C979 C 0.19142 0.32201 0.49225 0.0
C980 C 0.20713 0.30439 0.48295 0.0
C981 C 0.16251 0.35448 0.51038 0.0
C982 C 0.17992 0.33801 0.51716 0.0
C983 C 0.19468 0.32257 0.50795 0.0
C984 C 0.18092 0.33391 0.53373 0.0
C985 C 0.14541 0.37076 0.51966 0.0
C986 C 0.19754 0.36327 0.54338 0.0
C987 C 0.20007 0.35854 0.55885 0.0
C988 C 0.18646 0.32437 0.56487 0.0
C989 C 0.16918 0.29512 0.55519 0.0
C990 C 0.16642 0.29985 0.53985 0.0
H991 H 0.12669 0.37541 0.51293 0.0
H992 H 0.13096 0.35359 0.52936 0.0
H993 H 0.1662 0.3966 0.52411 0.0
H994 H 0.20949 0.38984 0.53891 0.0
H995 H 0.21385 0.3816 0.56598 0.0
H996 H 0.8029 0.17918 0.76975 0.0
H997 H 0.81088 0.19734 0.79634 0.0
H998 H 0.84355 0.1214 0.80642 0.0
H999 H 0.8357 0.10318 0.78018 0.0
H1000 H 0.77654 0.14857 0.82288 0.0
H1001 H 0.92313 0.21862 0.82361 0.0
H1002 H 0.89794 0.21101 0.80652 0.0
H1003 H 0.90268 0.176 0.8147 0.0
C1004 C 0.8121 0.16664 0.77763 0.0
C1005 C 0.81871 0.13978 0.77283 0.0
C1006 C 0.81647 0.17691 0.7928 0.0
C1007 C 0.82802 0.16085 0.8033 0.0
C1008 C 0.83493 0.13436 0.79848 0.0
H1009 H 0.87904 0.15315 0.8944 0.0
H1010 H 0.86527 0.14645 0.86764 0.0
C1011 C 0.83031 0.12391 0.78345 0.0
C1012 C 0.83244 0.1708 0.81942 0.0
H1013 H 0.89416 0.20187 0.84738 0.0
C1014 C 0.80225 0.16081 0.82826 0.0
C1015 C 0.86602 0.1867 0.82635 0.0
C1016 C 0.89938 0.19902 0.81731 0.0
C1017 C 0.80465 0.1645 0.84401 0.0
C1018 C 0.83816 0.17903 0.85101 0.0
C1019 C 0.86843 0.19048 0.84204 0.0
C1020 C 0.84261 0.1806 0.86761 0.0
C1021 C 0.77121 0.15119 0.8531 0.0
C1022 C 0.8337 0.20143 0.87663 0.0
C1023 C 0.84135 0.20513 0.89207 0.0
C1024 C 0.85841 0.18839 0.89868 0.0
C1025 C 0.86606 0.16657 0.88968 0.0
C1026 C 0.85826 0.16275 0.87435 0.0
H1027 H 0.74722 0.13436 0.8463 0.0
H1028 H 0.77152 0.13572 0.86294 0.0
H1029 H 0.76932 0.17406 0.85735 0.0
H1030 H 0.82211 0.21589 0.87164 0.0
H1031 H 0.83543 0.22239 0.89865 0.0
H1032 H 0.72674 0.80966 0.11569 0.0
H1033 H 0.71484 0.81437 0.14201 0.0
H1034 H 0.62941 0.83175 0.12943 0.0
H1035 H 0.6414 0.82735 0.10273 0.0
H1036 H 0.67397 0.87914 0.15101 0.0
H1037 H 0.63419 0.74266 0.16811 0.0
H1038 H 0.67562 0.76325 0.1583 0.0
H1039 H 0.63609 0.75539 0.14866 0.0
C1040 C 0.7053 0.8144 0.11841 0.0
C1041 C 0.685 0.81811 0.10702 0.0
C1042 C 0.69832 0.81674 0.13354 0.0
C1043 C 0.67074 0.82261 0.13773 0.0
C1044 C 0.65058 0.82678 0.12644 0.0
H1045 H 0.63059 0.82052 0.23549 0.0
H1046 H 0.61981 0.806 0.20858 0.0
C1047 C 0.65751 0.82434 0.1112 0.0
C1048 C 0.66469 0.82624 0.15393 0.0
H1049 H 0.6549 0.78621 0.18801 0.0
C1050 C 0.66913 0.85858 0.15907 0.0
C1051 C 0.65774 0.79922 0.16447 0.0
C1052 C 0.65025 0.76305 0.15959 0.0
C1053 C 0.66921 0.86545 0.17451 0.0
C1054 C 0.66534 0.83951 0.18509 0.0
C1055 C 0.65843 0.8063 0.17992 0.0
C1056 C 0.67139 0.84749 0.20143 0.0
C1057 C 0.67417 0.90075 0.17934 0.0
C1058 C 0.70424 0.87485 0.20637 0.0
C1059 C 0.71046 0.8831 0.22161 0.0
C1060 C 0.68408 0.86399 0.23239 0.0
C1061 C 0.65147 0.83578 0.2275 0.0
C1062 C 0.64523 0.82754 0.21214 0.0
H1063 H 0.66504 0.91234 0.17051 0.0
H1064 H 0.65963 0.89842 0.18991 0.0
H1065 H 0.7027 0.91937 0.1813 0.0
H1066 H 0.7252 0.88994 0.19839 0.0
H1067 H 0.73605 0.90473 0.22492 0.0
H1068 H 0.81058 0.72268 0.557 0.0
H1069 H 0.8147 0.70913 0.53086 0.0
H1070 H 0.8256 0.62032 0.54445 0.0
H1071 H 0.82176 0.63395 0.57098 0.0
H1072 H 0.87462 0.66244 0.52281 0.0
H1073 H 0.74054 0.62981 0.50495 0.0
H1074 H 0.76284 0.67143 0.51458 0.0
H1075 H 0.75259 0.63147 0.52449 0.0
C1076 C 0.81376 0.70014 0.55454 0.0
C1077 C 0.8158 0.67937 0.56616 0.0
C1078 C 0.81576 0.69223 0.53951 0.0
C1079 C 0.81961 0.66323 0.53565 0.0
C1080 C 0.82218 0.6426 0.54718 0.0
H1081 H 0.82037 0.62377 0.43777 0.0
H1082 H 0.80391 0.61183 0.46449 0.0
C1083 C 0.82007 0.65047 0.56232 0.0
C1084 C 0.82296 0.65621 0.51955 0.0
H1085 H 0.78457 0.64858 0.48523 0.0
C1086 C 0.85462 0.65866 0.51463 0.0
C1087 C 0.79664 0.65063 0.50885 0.0
C1088 C 0.76109 0.64529 0.51351 0.0
C1089 C 0.8617 0.65833 0.49924 0.0
C1090 C 0.83669 0.65602 0.4885 0.0
C1091 C 0.80395 0.65088 0.49345 0.0
C1092 C 0.84563 0.66265 0.47227 0.0
C1093 C 0.89639 0.66148 0.49461 0.0
C1094 C 0.87372 0.69547 0.46777 0.0
C1095 C 0.88299 0.70238 0.45265 0.0
C1096 C 0.86428 0.6767 0.44156 0.0
C1097 C 0.83535 0.64411 0.44601 0.0
C1098 C 0.82601 0.6372 0.46126 0.0
H1099 H 0.90691 0.65146 0.50353 0.0
H1100 H 0.89357 0.64672 0.48405 0.0
H1101 H 0.91609 0.68974 0.49269 0.0
H1102 H 0.88861 0.71588 0.476 0.0
H1103 H 0.90514 0.72795 0.4497 0.0
H1104 H 0.1693 0.78699 0.90027 0.0
H1105 H 0.18553 0.79577 0.8735 0.0
H1106 H 0.13863 0.86176 0.86889 0.0
H1107 H 0.12218 0.85303 0.89541 0.0
H1108 H 0.1334 0.7792 0.84829 0.0
H1109 H 0.24065 0.9194 0.8501 0.0
H1110 H 0.22733 0.89093 0.86641 0.0
H1111 H 0.2013 0.90995 0.86027 0.0
C1112 C 0.16294 0.8038 0.8936 0.0
C1113 C 0.14451 0.81937 0.89998 0.0
C1114 C 0.17205 0.80861 0.8783 0.0
C1115 C 0.16344 0.82957 0.86926 0.0
C1116 C 0.14581 0.84576 0.8757 0.0
H1117 H 0.16704 0.90275 0.78093 0.0
H1118 H 0.16235 0.88781 0.80749 0.0
C1119 C 0.13637 0.84067 0.89087 0.0
C1120 C 0.17128 0.83364 0.85291 0.0
H1121 H 0.21582 0.8962 0.82607 0.0
C1122 C 0.15185 0.80458 0.84339 0.0
C1123 C 0.19529 0.86679 0.8466 0.0
C1124 C 0.21761 0.89855 0.85635 0.0
C1125 C 0.15437 0.80832 0.82764 0.0
C1126 C 0.17745 0.84188 0.82131 0.0
C1127 C 0.19801 0.87051 0.8309 0.0
C1128 C 0.17873 0.84884 0.80488 0.0
C1129 C 0.13094 0.77683 0.81795 0.0
C1130 C 0.18915 0.83162 0.79444 0.0
C1131 C 0.19163 0.83998 0.77907 0.0
C1132 C 0.18413 0.866 0.77395 0.0
C1133 C 0.17322 0.88271 0.78445 0.0
C1134 C 0.17055 0.87423 0.79969 0.0
H1135 H 0.10954 0.75507 0.82456 0.0
H1136 H 0.11876 0.78443 0.8088 0.0
H1137 H 0.1471 0.76659 0.81271 0.0
H1138 H 0.19619 0.81236 0.79819 0.0
H1139 H 0.2004 0.82684 0.7713 0.0
H1140 H 0.13098 0.84787 0.99358 0.0
H1141 H 0.15871 0.90295 0.00781 0.0
H1142 H 0.17895 0.96209 0.96663 0.0
H1143 H 0.15006 0.90692 0.95229 0.0
H1144 H 0.2235 0.95843 0.00819 0.0
H1145 H 0.13097 0.00365 0.99053 0.0
H1146 H 0.12283 0.9597 0.9866 0.0
H1147 H 0.15238 0.99627 0.97489 0.0
C1148 C 0.14125 0.87253 0.98748 0.0
C1149 C 0.13794 0.87277 0.97173 0.0
C1150 C 0.15718 0.90411 0.99568 0.0
C1151 C 0.17033 0.93681 0.98838 0.0
C1152 C 0.16812 0.93725 0.97262 0.0
H1153 H 0.29002 0.15511 0.01665 0.0
H1154 H 0.26311 0.09863 0.00344 0.0
C1155 C 0.15184 0.90561 0.96439 0.0
C1156 C 0.18655 0.97027 0.99731 0.0
H1157 H 0.18251 0.04542 0.00378 0.0
C1158 C 0.21431 0.97728 0.00728 0.0
C1159 C 0.1745 0.99492 0.99627 0.0
C1160 C 0.1433 0.98814 0.98662 0.0
C1161 C 0.23074 0.00844 0.01593 0.0
C1162 C 0.21921 0.03331 0.01459 0.0
C1163 C 0.19138 0.02632 0.00473 0.0
C1164 C 0.23638 0.06727 0.02299 0.0
C1165 C 0.26082 0.01506 0.02625 0.0
C1166 C 0.23033 0.0684 0.03844 0.0
C1167 C 0.24554 0.10085 0.0461 0.0
C1168 C 0.26725 0.13276 0.03844 0.0
C1169 C 0.27357 0.13124 0.02299 0.0
C1170 C 0.25815 0.09892 0.01536 0.0
H1171 H 0.2691 0.99496 0.02488 0.0
H1172 H 0.28392 0.04167 0.02408 0.0
H1173 H 0.25258 0.01454 0.03809 0.0
H1174 H 0.2134 0.04423 0.04451 0.0
H1175 H 0.23994 0.10092 0.05795 0.0
H1176 H 0.13541 0.2863 0.34628 0.0
H1177 H 0.16323 0.25871 0.33227 0.0
H1178 H 0.17811 0.21569 0.37344 0.0
H1179 H 0.14909 0.2422 0.38753 0.0
H1180 H 0.22716 0.26591 0.33276 0.0
H1181 H 0.13018 0.12793 0.34843 0.0
H1182 H 0.12303 0.16433 0.35247 0.0
H1183 H 0.15087 0.15546 0.36448 0.0
C1184 C 0.14454 0.27097 0.35241 0.0
C1185 C 0.13965 0.26632 0.36808 0.0
C1186 C 0.16053 0.25518 0.34434 0.0
C1187 C 0.17216 0.23438 0.35169 0.0
C1188 C 0.16845 0.23068 0.3674 0.0
H1189 H 0.28943 0.13264 0.32328 0.0
H1190 H 0.26286 0.16225 0.33676 0.0
C1191 C 0.15212 0.24618 0.37548 0.0
C1192 C 0.18831 0.21688 0.34287 0.0
H1193 H 0.18208 0.13692 0.33575 0.0
C1194 C 0.2171 0.23767 0.33336 0.0
C1195 C 0.17514 0.17992 0.34352 0.0
C1196 C 0.14289 0.15555 0.35265 0.0
C1197 C 0.23339 0.22268 0.32478 0.0
C1198 C 0.22066 0.18598 0.3257 0.0
C1199 C 0.19186 0.16512 0.33512 0.0
C1200 C 0.23738 0.16884 0.31721 0.0
C1201 C 0.26451 0.24615 0.31493 0.0
C1202 C 0.23185 0.16266 0.30169 0.0
C1203 C 0.24683 0.1454 0.29388 0.0
C1204 C 0.26784 0.13418 0.30145 0.0
C1205 C 0.27355 0.14089 0.317 0.0
C1206 C 0.25833 0.1578 0.32478 0.0
H1207 H 0.27354 0.27463 0.31661 0.0
H1208 H 0.28689 0.24159 0.31729 0.0
H1209 H 0.25704 0.23941 0.30296 0.0
H1210 H 0.21557 0.1708 0.29565 0.0
H1211 H 0.24172 0.14064 0.28195 0.0
H1212 H 0.84671 0.13393 0.68083 0.0
H1213 H 0.90246 0.16301 0.66709 0.0
H1214 H 0.95951 0.1768 0.70843 0.0
H1215 H 0.90365 0.14654 0.72224 0.0
H1216 H 0.95869 0.22742 0.66824 0.0
H1217 H 1.0007 0.13065 0.68301 0.0
H1218 H 0.95686 0.12282 0.68695 0.0
H1219 H 0.99312 0.15041 0.69921 0.0
C1220 C 0.87105 0.14308 0.68706 0.0
C1221 C 0.8705 0.13753 0.70268 0.0
C1222 C 0.90302 0.15979 0.67915 0.0
C1223 C 0.93531 0.1715 0.68662 0.0
C1224 C 0.93498 0.16711 0.70229 0.0
H1225 H 0.15464 0.28871 0.65796 0.0
H1226 H 0.09886 0.26246 0.67176 0.0
C1227 C 0.90295 0.15006 0.71022 0.0
C1228 C 0.96914 0.18837 0.67796 0.0
H1229 H 0.04319 0.18296 0.67053 0.0
C1230 C 0.97703 0.21753 0.6687 0.0
C1231 C 0.99314 0.17544 0.67843 0.0
C1232 C 0.98542 0.1429 0.68731 0.0
C1233 C 0.00833 0.23432 0.66017 0.0
C1234 C 0.03243 0.22171 0.66087 0.0
C1235 C 0.02468 0.19264 0.67007 0.0
C1236 C 0.06605 0.23855 0.65222 0.0
C1237 C 0.01581 0.26578 0.65058 0.0
C1238 C 0.06612 0.23381 0.63661 0.0
C1239 C 0.09808 0.24859 0.62863 0.0
C1240 C 0.13062 0.26859 0.63611 0.0
C1241 C 0.13024 0.27361 0.65176 0.0
C1242 C 0.09834 0.25857 0.65971 0.0
H1243 H 0.99671 0.27507 0.65269 0.0
H1244 H 0.04299 0.2879 0.65275 0.0
H1245 H 0.01425 0.2585 0.63854 0.0
H1246 H 0.04146 0.21821 0.63064 0.0
H1247 H 0.09727 0.24403 0.61664 0.0
H1248 H 0.70327 0.85304 0.0176 0.0
H1249 H 0.72989 0.9086 0.0037 0.0
H1250 H 0.80169 0.96111 0.04042 0.0
H1251 H 0.77522 0.90545 0.0545 0.0
H1252 H 0.73744 0.97529 0.01139 0.0
H1253 H 0.86714 0.98263 0.00337 0.0
H1254 H 0.82795 0.9426 0.00916 0.0
H1255 H 0.85196 0.97744 0.02249 0.0
C1256 C 0.72455 0.87636 0.02283 0.0
C1257 C 0.73709 0.87456 0.03722 0.0
C1258 C 0.73977 0.90818 0.01483 0.0
C1259 C 0.76812 0.93893 0.0209 0.0
C1260 C 0.7802 0.93758 0.0354 0.0
H1261 H 0.85617 0.15498 0.98941 0.0
H1262 H 0.82691 0.0995 0.00331 0.0
C1263 C 0.76483 0.90574 0.04349 0.0
C1264 C 0.78508 0.97219 0.01194 0.0
H1265 H 0.86242 0.03139 0.99476 0.0
C1266 C 0.76478 0.98759 0.00777 0.0
C1267 C 0.82059 0.98793 0.00701 0.0
C1268 C 0.84322 0.97175 0.0106 0.0
C1269 C 0.77918 0.01857 0.99904 0.0
C1270 C 0.81493 0.03477 0.99441 0.0
C1271 C 0.83507 0.01907 0.99837 0.0
C1272 C 0.83204 0.06833 0.98566 0.0
C1273 C 0.75587 0.03347 0.99465 0.0
C1274 C 0.84515 0.0695 0.97111 0.0
C1275 C 0.86191 0.10133 0.96303 0.0
C1276 C 0.86627 0.13279 0.96941 0.0
C1277 C 0.85312 0.13139 0.98402 0.0
C1278 C 0.83623 0.09958 0.99202 0.0
H1279 H 0.72737 0.0136 0.99587 0.0
H1280 H 0.76177 0.05623 0.00204 0.0
H1281 H 0.76095 0.04305 0.98285 0.0
H1282 H 0.84239 0.04573 0.96601 0.0
H1283 H 0.8719 0.10136 0.95189 0.0
H1284 H 0.71693 0.86748 0.32544 0.0
H1285 H 0.74415 0.83954 0.33958 0.0
H1286 H 0.78708 0.82384 0.29855 0.0
H1287 H 0.76097 0.85307 0.28431 0.0
H1288 H 0.73655 0.77569 0.33941 0.0
H1289 H 0.87479 0.87142 0.32352 0.0
H1290 H 0.83862 0.87883 0.31933 0.0
H1291 H 0.84716 0.85042 0.30754 0.0
C1292 C 0.73216 0.85815 0.31935 0.0
C1293 C 0.73691 0.86289 0.30368 0.0
C1294 C 0.74774 0.84208 0.32751 0.0
C1295 C 0.76841 0.83018 0.32025 0.0
C1296 C 0.7722 0.83371 0.30453 0.0
H1297 H 0.8687 0.71242 0.3498 0.0
H1298 H 0.83923 0.73876 0.33609 0.0
C1299 C 0.75691 0.85016 0.29636 0.0
C1300 C 0.7857 0.81399 0.32918 0.0
H1301 H 0.8654 0.81985 0.33658 0.0
C1302 C 0.76476 0.78555 0.33883 0.0
C1303 C 0.82262 0.8269 0.32859 0.0
C1304 C 0.84717 0.85879 0.31931 0.0
C1305 C 0.77956 0.76939 0.34761 0.0
C1306 C 0.81622 0.78186 0.34675 0.0
C1307 C 0.83723 0.81028 0.33718 0.0
C1308 C 0.83316 0.76518 0.35542 0.0
C1309 C 0.75594 0.73867 0.35762 0.0
C1310 C 0.83954 0.77127 0.37091 0.0
C1311 C 0.85673 0.75641 0.37886 0.0
C1312 C 0.86768 0.73498 0.37147 0.0
C1313 C 0.86069 0.72866 0.35595 0.0
C1314 C 0.84385 0.74375 0.34803 0.0
H1315 H 0.72751 0.72985 0.35594 0.0
H1316 H 0.76023 0.71606 0.35543 0.0
H1317 H 0.76281 0.74649 0.36956 0.0
H1318 H 0.83166 0.78793 0.3768 0.0
H1319 H 0.86171 0.762 0.39075 0.0
H1320 H 0.09725 0.85928 0.72204 0.0
H1321 H 0.04173 0.82836 0.70794 0.0
H1322 H 0.09965 0.83413 0.66779 0.0
H1323 H 0.15493 0.86403 0.68177 0.0
H1324 H 0.01969 0.8508 0.68414 0.0
H1325 H 0.02493 0.73134 0.66742 0.0
H1326 H 0.05391 0.76171 0.68152 0.0
H1327 H 0.06362 0.77152 0.66186 0.0
C1328 C 0.09818 0.85355 0.71026 0.0
C1329 C 0.13073 0.86401 0.70312 0.0
C1330 C 0.06637 0.83595 0.70219 0.0
C1331 C 0.06632 0.82831 0.68683 0.0
C1332 C 0.09876 0.83879 0.6797 0.0
H1333 H 0.90417 0.76619 0.61751 0.0
H1334 H 0.95993 0.79201 0.63159 0.0
C1335 C 0.13049 0.85618 0.68774 0.0
C1336 C 0.03262 0.81083 0.6781 0.0
H1337 H 0.98184 0.74073 0.65499 0.0
C1338 C 0.0114 0.82664 0.67784 0.0
C1339 C 0.02157 0.77917 0.66988 0.0
C1340 C 0.04201 0.75974 0.67028 0.0
C1341 C 0.97994 0.81206 0.66942 0.0
C1342 C 0.9694 0.78094 0.66101 0.0
C1343 C 0.99028 0.76486 0.66133 0.0
C1344 C 0.93602 0.76417 0.65223 0.0
C1345 C 0.95795 0.82986 0.66951 0.0
C1346 C 0.90426 0.7397 0.65914 0.0
C1347 C 0.8724 0.72485 0.65117 0.0
C1348 C 0.87157 0.73415 0.63605 0.0
C1349 C 0.9037 0.75828 0.62908 0.0
C1350 C 0.93561 0.77313 0.63711 0.0
H1351 H 0.97018 0.85447 0.67633 0.0
H1352 H 0.9543 0.83639 0.65782 0.0
H1353 H 0.93133 0.81144 0.67413 0.0
H1354 H 0.90405 0.73247 0.67081 0.0
H1355 H 0.84834 0.70644 0.65697 0.0
H1356 H 0.00554 0.27443 0.99008 0.0
H1357 H 0.05801 0.28017 0.00275 0.0
H1358 H 0.07688 0.22926 0.96522 0.0
H1359 H 0.02425 0.22215 0.95285 0.0
H1360 H 0.07838 0.19959 0.99073 0.0
H1361 H 0.16289 0.34493 0.99625 0.0
H1362 H 0.11956 0.328 0.00414 0.0
H1363 H 0.12444 0.32466 0.98423 0.0
C1364 C 0.02112 0.26485 0.98446 0.0
C1365 C 0.01061 0.24792 0.9704 0.0
C1366 C 0.05128 0.2684 0.99167 0.0
C1367 C 0.07172 0.2556 0.98484 0.0
C1368 C 0.06166 0.23947 0.97069 0.0
H1369 H 0.27356 0.27982 0.01568 0.0
H1370 H 0.22811 0.28513 0.00155 0.0
C1371 C 0.03146 0.23552 0.9636 0.0
C1372 C 0.10183 0.25607 0.99281 0.0
H1373 H 0.18113 0.30969 0.00993 0.0
C1374 C 0.10092 0.22374 0.99483 0.0
C1375 C 0.13149 0.28761 0.998 0.0
C1376 C 0.13494 0.32332 0.99543 0.0
C1377 C 0.12846 0.22195 0.00207 0.0
C1378 C 0.15736 0.25323 0.00785 0.0
C1379 C 0.15877 0.28572 0.00559 0.0
C1380 C 0.18552 0.25217 0.01674 0.0
C1381 C 0.12645 0.18651 0.00332 0.0
C1382 C 0.17672 0.23253 0.03007 0.0
C1383 C 0.20232 0.22915 0.03804 0.0
C1384 C 0.2376 0.24584 0.033 0.0
C1385 C 0.24667 0.26656 0.01987 0.0
C1386 C 0.22079 0.26971 0.01181 0.0
H1387 H 0.10871 0.16771 0.99465 0.0
H1388 H 0.153 0.1892 0.00217 0.0
H1389 H 0.11566 0.1749 0.01451 0.0
H1390 H 0.1498 0.21934 0.03423 0.0
H1391 H 0.19418 0.21306 0.0481 0.0
H1392 H 0.81192 0.00437 0.29944 0.0
H1393 H 0.85468 0.05832 0.31204 0.0
H1394 H 0.77017 0.07168 0.32976 0.0
H1395 H 0.72666 0.01672 0.31737 0.0
H1396 H 0.86758 0.12558 0.3084 0.0
H1397 H 0.82702 0.08048 0.36728 0.0
H1398 H 0.81141 0.05036 0.35157 0.0
H1399 H 0.79307 0.07839 0.3552 0.0
C1400 C 0.8022 0.01854 0.30607 0.0
C1401 C 0.76574 0.00604 0.30744 0.0
C1402 C 0.8268 0.04954 0.31323 0.0
C1403 C 0.81569 0.06896 0.32193 0.0
C1404 C 0.77933 0.05679 0.32332 0.0
H1405 H 0.98726 0.27691 0.354 0.0
H1406 H 0.93247 0.23323 0.34157 0.0
C1407 C 0.75451 0.02544 0.31621 0.0
C1408 C 0.84271 0.10179 0.32944 0.0
H1409 H 0.8759 0.13727 0.36389 0.0
C1410 C 0.86923 0.1284 0.32054 0.0
C1411 C 0.8448 0.10529 0.34527 0.0
C1412 C 0.81777 0.07707 0.35544 0.0
C1413 C 0.89867 0.15757 0.32703 0.0
C1414 C 0.9012 0.16063 0.34286 0.0
C1415 C 0.87382 0.13489 0.35175 0.0
C1416 C 0.93377 0.18778 0.35049 0.0
C1417 C 0.92774 0.18369 0.31689 0.0
C1418 C 0.95229 0.17679 0.35984 0.0
C1419 C 0.98319 0.2015 0.36704 0.0
C1420 C 0.99649 0.23796 0.36505 0.0
C1421 C 0.97792 0.24906 0.35567 0.0
C1422 C 0.94666 0.22414 0.34853 0.0
H1423 H 0.92491 0.17367 0.3052 0.0
H1424 H 0.92685 0.20863 0.31654 0.0
H1425 H 0.95407 0.18991 0.32122 0.0
H1426 H 0.94293 0.14891 0.36149 0.0
H1427 H 0.99668 0.19186 0.37414 0.0
H1428 H 0.70928 0.72492 0.65183 0.0
H1429 H 0.69739 0.76834 0.66404 0.0
H1430 H 0.79195 0.85306 0.64417 0.0
H1431 H 0.8036 0.81038 0.63179 0.0
H1432 H 0.73537 0.81965 0.6842 0.0
H1433 H 0.72044 0.88148 0.63275 0.0
H1434 H 0.72031 0.84009 0.63241 0.0
H1435 H 0.76145 0.88146 0.63248 0.0
C1436 C 0.72748 0.75281 0.65006 0.0
C1437 C 0.75723 0.7641 0.64072 0.0
C1438 C 0.72059 0.77757 0.65699 0.0
C1439 C 0.74326 0.81395 0.65468 0.0
C1440 C 0.77342 0.82516 0.64572 0.0
H1441 H 0.80153 0.99308 0.70841 0.0
H1442 H 0.7903 0.93898 0.69597 0.0
C1443 C 0.7802 0.8006 0.63874 0.0
C1444 C 0.73679 0.84061 0.66213 0.0
H1445 H 0.73638 0.91735 0.65533 0.0
C1446 C 0.73492 0.84065 0.67787 0.0
C1447 C 0.73528 0.86758 0.6539 0.0
C1448 C 0.73406 0.86743 0.63694 0.0
C1449 C 0.73417 0.86827 0.68562 0.0
C1450 C 0.73624 0.89703 0.67741 0.0
C1451 C 0.73548 0.89568 0.66165 0.0
C1452 C 0.74232 0.92994 0.68494 0.0
C1453 C 0.73179 0.86662 0.70255 0.0
C1454 C 0.71991 0.94386 0.68238 0.0
C1455 C 0.72656 0.97539 0.68936 0.0
C1456 C 0.75582 0.99353 0.69898 0.0
C1457 C 0.7785 0.97974 0.70123 0.0
C1458 C 0.77195 0.94851 0.69422 0.0
H1459 H 0.71784 0.83881 0.70656 0.0
H1460 H 0.75886 0.87977 0.70734 0.0
H1461 H 0.71777 0.8801 0.70691 0.0
H1462 H 0.69713 0.93018 0.67508 0.0
H1463 H 0.70861 0.9853 0.68735 0.0
H1464 H 0.72499 0.71222 0.01932 0.0
H1465 H 0.76782 0.70044 0.00643 0.0
H1466 H 0.85352 0.79443 0.0262 0.0
H1467 H 0.81149 0.80597 0.03923 0.0
H1468 H 0.81964 0.73899 0.98608 0.0
H1469 H 0.88031 0.72131 0.03732 0.0
H1470 H 0.83909 0.72152 0.03771 0.0
H1471 H 0.88063 0.76249 0.03789 0.0
C1472 C 0.75297 0.73034 0.0209 0.0
C1473 C 0.76475 0.75983 0.03044 0.0
C1474 C 0.77738 0.72352 0.01357 0.0
C1475 C 0.81387 0.74602 0.0157 0.0
C1476 C 0.82554 0.77604 0.02479 0.0
H1477 H 0.99364 0.80323 0.96216 0.0
H1478 H 0.93888 0.79208 0.97398 0.0
C1479 C 0.80135 0.78274 0.03214 0.0
C1480 C 0.84023 0.73931 0.00812 0.0
H1481 H 0.91631 0.7376 0.01482 0.0
C1482 C 0.84042 0.73802 0.99237 0.0
C1483 C 0.86687 0.73711 0.0163 0.0
C1484 C 0.8665 0.73527 0.03324 0.0
C1485 C 0.86794 0.73714 0.98457 0.0
C1486 C 0.89643 0.73852 0.99276 0.0
C1487 C 0.89487 0.73722 0.00851 0.0
C1488 C 0.92928 0.74419 0.98528 0.0
C1489 C 0.86639 0.73524 0.96763 0.0
C1490 C 0.94304 0.72176 0.98814 0.0
C1491 C 0.97495 0.72843 0.98156 0.0
C1492 C 0.99367 0.75771 0.97202 0.0
C1493 C 0.97987 0.78022 0.96931 0.0
C1494 C 0.94825 0.77368 0.97595 0.0
H1495 H 0.8386 0.72148 0.96359 0.0
H1496 H 0.87962 0.76245 0.96298 0.0
H1497 H 0.87981 0.72127 0.96315 0.0
H1498 H 0.92906 0.69906 0.99545 0.0
H1499 H 0.98483 0.71058 0.9839 0.0
H1500 H 0.00824 0.72942 0.3499 0.0
H1501 H 0.0599 0.77498 0.33632 0.0
H1502 H 0.074 0.85144 0.37029 0.0
H1503 H 0.02214 0.80712 0.38342 0.0
H1504 H 0.07545 0.87645 0.34333 0.0
H1505 H 0.16492 0.82052 0.34433 0.0
H1506 H 0.12226 0.79149 0.33633 0.0
H1507 H 0.12575 0.80335 0.35586 0.0
C1508 C 0.02256 0.75587 0.35453 0.0
C1509 C 0.01102 0.76443 0.36782 0.0
C1510 C 0.05227 0.78182 0.34681 0.0
C1511 C 0.0712 0.81655 0.3524 0.0
C1512 C 0.05997 0.82484 0.36577 0.0
H1513 H 0.27289 0.99484 0.32302 0.0
H1514 H 0.22663 0.94361 0.33662 0.0
C1515 C 0.03022 0.79926 0.37332 0.0
C1516 C 0.1011 0.84525 0.34395 0.0
H1517 H 0.18292 0.87178 0.32923 0.0
C1518 C 0.09897 0.87539 0.3403 0.0
C1519 C 0.13201 0.84412 0.34017 0.0
C1520 C 0.13665 0.8133 0.34449 0.0
C1521 C 0.12669 0.90434 0.33296 0.0
C1522 C 0.15705 0.90273 0.32867 0.0
C1523 C 0.15948 0.8728 0.33242 0.0
C1524 C 0.18599 0.93177 0.32 0.0
C1525 C 0.12339 0.93667 0.33015 0.0
C1526 C 0.17869 0.94146 0.30603 0.0
C1527 C 0.2047 0.97081 0.2984 0.0
C1528 C 0.239 0.99081 0.30439 0.0
C1529 C 0.24678 0.9801 0.3181 0.0
C1530 C 0.22042 0.9508 0.32586 0.0
H1531 H 0.10415 0.93787 0.33795 0.0
H1532 H 0.14927 0.96132 0.33142 0.0
H1533 H 0.11377 0.93567 0.31851 0.0
H1534 H 0.15252 0.92671 0.30115 0.0
H1535 H 0.19756 0.97804 0.28788 0.0
H1536 H 0.19616 0.00604 0.70683 0.0
H1537 H 0.2061 0.059 0.69372 0.0
H1538 H 0.30351 0.07236 0.67544 0.0
H1539 H 0.29327 0.01834 0.68832 0.0
H1540 H 0.25951 0.12635 0.6966 0.0
H1541 H 0.25411 0.07908 0.63807 0.0
H1542 H 0.24062 0.04971 0.65403 0.0
H1543 H 0.28677 0.07807 0.65 0.0
C1544 C 0.21968 0.02 0.69998 0.0
C1545 C 0.24387 0.00777 0.6986 0.0
C1546 C 0.22536 0.05043 0.69251 0.0
C1547 C 0.2554 0.06956 0.6835 0.0
C1548 C 0.27981 0.05766 0.68211 0.0
H1549 H 0.29234 0.27687 0.65068 0.0
H1550 H 0.30255 0.23278 0.66325 0.0
C1551 C 0.27397 0.02686 0.68952 0.0
C1552 C 0.26057 0.10191 0.67574 0.0
H1553 H 0.26258 0.13627 0.64105 0.0
C1554 C 0.26055 0.12874 0.68445 0.0
C1555 C 0.26175 0.10485 0.65989 0.0
C1556 C 0.26054 0.07634 0.6499 0.0
C1557 C 0.26014 0.15765 0.67776 0.0
C1558 C 0.26072 0.16029 0.66191 0.0
C1559 C 0.26226 0.13424 0.65321 0.0
C1560 C 0.25592 0.18763 0.65408 0.0
C1561 C 0.2571 0.18398 0.68773 0.0
C1562 C 0.22685 0.17696 0.64448 0.0
C1563 C 0.2212 0.20193 0.63718 0.0
C1564 C 0.24446 0.23832 0.63932 0.0
C1565 C 0.27374 0.24908 0.64889 0.0
C1566 C 0.27955 0.22392 0.65613 0.0
H1567 H 0.24927 0.17396 0.69939 0.0
H1568 H 0.28308 0.20871 0.68825 0.0
H1569 H 0.23742 0.19054 0.68317 0.0
H1570 H 0.20821 0.14913 0.64274 0.0
H1571 H 0.19837 0.19256 0.62991 0.0
loop_
_geom_bond_atom_site_label_1
_geom_bond_atom_site_label_2
_geom_bond_distance
_geom_bond_site_symmetry_2
_ccdc_geom_bond_type
Co0 O2 2.143 . S
Co0 O8 2.074 . S
Co0 O11 2.093 . S
Co0 O24 2.097 . S
Co0 N41 2.151 . S
Co0 N49 2.214 . S
Co1 O2 2.160 . S
Co1 O7 2.058 . S
Co1 O17 2.057 . S
Co1 O32 2.037 . S
Co1 N36 2.145 . S
Co1 N57 2.257 . S
O2 Co0 2.143 . S
O2 Co1 2.160 . S
C3 O4 1.278 . S
C3 O11 1.224 . S
O4 C3 1.278 . S
C5 O6 1.245 . S
C5 O17 1.232 . S
O6 C5 1.245 . S
O7 Co1 2.058 . S
O7 C33 1.269 . S
O8 Co0 2.074 . S
O8 C33 1.257 . S
H9 C34 0.930 . S
H10 C40 0.930 . S
O11 Co0 2.093 . S
O11 C3 1.224 . S
H12 C44 0.929 . S
H13 C46 0.930 . S
H14 C47 0.930 . S
H15 C45 0.929 . S
H16 C48 0.928 . S
O17 Co1 2.057 . S
O17 C5 1.232 . S
H18 C37 0.929 . S
H19 C38 0.929 . S
H20 C50 0.931 . S
H21 C42 0.929 . S
H22 C51 0.930 . S
H23 C43 0.931 . S
O24 Co0 2.097 . S
O24 C52 1.214 . S
H25 C53 0.929 . S
H26 C54 0.929 . S
H27 C55 0.930 . S
H28 C56 0.929 . S
H29 C58 0.930 . S
H30 C35 0.930 . S
H31 C39 0.930 . S
O32 Co1 2.037 . S
O32 C52 1.234 . S
C33 O7 1.269 . S
C33 O8 1.257 . S
C34 H9 0.930 . S
C34 C37 1.388 . S
C34 C39 1.418 . S
C35 H30 0.930 . S
C35 C38 1.404 . S
C35 C39 1.353 . S
N36 Co1 2.145 . S
N36 C37 1.397 . S
N36 C38 1.334 . S
C37 H18 0.929 . S
C37 C34 1.388 . S
C37 N36 1.397 . S
C38 H19 0.929 . S
C38 C35 1.404 . S
C38 N36 1.334 . S
C39 H31 0.930 . S
C39 C34 1.418 . S
C39 C35 1.353 . S
C40 H10 0.930 . S
C40 N41 1.330 . S
C40 C42 1.446 . S
N41 Co0 2.151 . S
N41 C40 1.330 . S
N41 C45 1.418 . S
C42 H21 0.929 . S
C42 C40 1.446 . S
C42 C43 1.332 . S
C43 H23 0.931 . S
C43 C42 1.332 . S
C43 C44 1.267 . S
C44 H12 0.929 . S
C44 C43 1.267 . S
C44 C45 1.251 . S
C45 H15 0.929 . S
C45 N41 1.418 . S
C45 C44 1.251 . S
C46 H13 0.930 . S
C46 C48 1.406 1_556 S
C46 C51 1.261 . S
C47 H14 0.930 . S
C47 N49 1.325 . S
C47 C50 1.357 1_554 S
C48 H16 0.928 . S
C48 C46 1.406 1_554 S
C48 N49 1.261 . S
N49 Co0 2.214 . S
N49 C47 1.325 . S
N49 C48 1.261 . S
C50 H20 0.931 . S
C50 C47 1.357 1_556 S
C50 C51 1.312 . S
C51 H22 0.930 . S
C51 C46 1.261 . S
C51 C50 1.312 . S
C52 O24 1.214 . S
C52 O32 1.234 . S
C53 H25 0.929 . S
C53 C56 1.391 . S
C53 C58 1.391 . S
C54 H26 0.929 . S
C54 C55 1.390 . S
C54 N57 1.391 . S
C55 H27 0.930 . S
C55 C54 1.390 . S
C55 C56 1.392 . S
C56 H28 0.929 . S
C56 C53 1.391 . S
C56 C55 1.392 . S
N57 Co1 2.257 . S
N57 C54 1.391 . S
N57 C58 1.388 . S
C58 H29 0.930 . S
C58 C53 1.391 . S
C58 N57 1.388 . S
Co59 O61 2.143 . S
Co59 O67 2.074 . S
Co59 O70 2.093 . S
Co59 O83 2.097 . S
Co59 N100 2.151 . S
Co59 N108 2.214 . S
Co60 O61 2.160 . S
Co60 O66 2.058 . S
Co60 O76 2.057 . S
Co60 O91 2.037 . S
Co60 N95 2.145 . S
Co60 N116 2.257 . S
O61 Co59 2.143 . S
O61 Co60 2.160 . S
C62 O63 1.278 . S
C62 O70 1.224 . S
O63 C62 1.278 . S
C64 O65 1.245 . S
C64 O76 1.232 . S
O65 C64 1.245 . S
O66 Co60 2.058 . S
O66 C92 1.269 . S
O67 Co59 2.074 . S
O67 C92 1.257 . S
H68 C93 0.930 . S
H69 C99 0.930 . S
O70 Co59 2.093 . S
O70 C62 1.224 . S
H71 C103 0.929 . S
H72 C105 0.930 . S
H73 C106 0.930 . S
H74 C104 0.929 . S
H75 C107 0.928 . S
O76 Co60 2.057 . S
O76 C64 1.232 . S
H77 C96 0.929 . S
H78 C97 0.929 . S
H79 C109 0.931 . S
H80 C101 0.929 . S
H81 C110 0.930 . S
H82 C102 0.931 . S
O83 Co59 2.097 . S
O83 C111 1.214 . S
H84 C112 0.929 1_455 S
H85 C113 0.929 . S
H86 C114 0.930 . S
H87 C115 0.929 . S
H88 C117 0.930 . S
H89 C94 0.930 . S
H90 C98 0.930 . S
O91 Co60 2.037 . S
O91 C111 1.234 . S
C92 O66 1.269 . S
C92 O67 1.257 . S
C93 H68 0.930 . S
C93 C96 1.388 . S
C93 C98 1.418 . S
C94 H89 0.930 . S
C94 C97 1.404 . S
C94 C98 1.353 . S
N95 Co60 2.145 . S
N95 C96 1.397 . S
N95 C97 1.334 . S
C96 H77 0.929 . S
C96 C93 1.388 . S
C96 N95 1.397 . S
C97 H78 0.929 . S
C97 C94 1.404 . S
C97 N95 1.334 . S
C98 H90 0.930 . S
C98 C93 1.418 . S
C98 C94 1.353 . S
C99 H69 0.930 . S
C99 N100 1.330 . S
C99 C101 1.446 . S
N100 Co59 2.151 . S
N100 C99 1.330 . S
N100 C104 1.418 . S
C101 H80 0.929 . S
C101 C99 1.446 . S
C101 C102 1.332 . S
C102 H82 0.931 . S
C102 C101 1.332 . S
C102 C103 1.267 . S
C103 H71 0.929 . S
C103 C102 1.267 . S
C103 C104 1.251 . S
C104 H74 0.929 . S
C104 N100 1.418 . S
C104 C103 1.251 . S
C105 H72 0.930 . S
C105 C107 1.406 . S
C105 C110 1.261 . S
C106 H73 0.930 . S
C106 N108 1.325 . S
C106 C109 1.357 . S
C107 H75 0.928 . S
C107 C105 1.406 . S
C107 N108 1.261 . S
N108 Co59 2.214 . S
N108 C106 1.325 . S
N108 C107 1.261 . S
C109 H79 0.931 . S
C109 C106 1.357 . S
C109 C110 1.312 . S
C110 H81 0.930 . S
C110 C105 1.261 . S
C110 C109 1.312 . S
C111 O83 1.214 . S
C111 O91 1.234 . S
C112 H84 0.929 1_655 S
C112 C115 1.391 . S
C112 C117 1.391 1_655 S
C113 H85 0.929 . S
C113 C114 1.390 . S
C113 N116 1.391 1_655 S
C114 H86 0.930 . S
C114 C113 1.390 . S
C114 C115 1.392 . S
C115 H87 0.929 . S
C115 C112 1.391 . S
C115 C114 1.392 . S
N116 Co60 2.257 . S
N116 C113 1.391 1_455 S
N116 C117 1.388 . S
C117 H88 0.930 . S
C117 C112 1.391 1_455 S
C117 N116 1.388 . S
Co118 O120 2.143 . S
Co118 O126 2.074 . S
Co118 O129 2.093 . S
Co118 O142 2.097 . S
Co118 N159 2.151 . S
Co118 N167 2.214 . S
Co119 O120 2.160 . S
Co119 O125 2.058 . S
Co119 O135 2.057 . S
Co119 O150 2.037 . S
Co119 N154 2.145 . S
Co119 N175 2.257 . S
O120 Co118 2.143 . S
O120 Co119 2.160 . S
C121 O122 1.278 . S
C121 O129 1.224 . S
O122 C121 1.278 . S
C123 O124 1.245 . S
C123 O135 1.232 . S
O124 C123 1.245 . S
O125 Co119 2.058 . S
O125 C151 1.269 . S
O126 Co118 2.074 . S
O126 C151 1.257 . S
H127 C152 0.930 . S
H128 C158 0.930 . S
O129 Co118 2.093 . S
O129 C121 1.224 . S
H130 C162 0.929 . S
H131 C164 0.930 . S
H132 C165 0.930 . S
H133 C163 0.929 . S
H134 C166 0.928 . S
O135 Co119 2.057 . S
O135 C123 1.232 . S
H136 C155 0.929 . S
H137 C156 0.929 . S
H138 C168 0.931 . S
H139 C160 0.929 . S
H140 C169 0.930 . S
H141 C161 0.931 . S
O142 Co118 2.097 . S
O142 C170 1.214 . S
H143 C171 0.929 1_545 S
H144 C172 0.929 . S
H145 C173 0.930 . S
H146 C174 0.929 . S
H147 C176 0.930 . S
H148 C153 0.930 . S
H149 C157 0.930 . S
O150 Co119 2.037 . S
O150 C170 1.234 . S
C151 O125 1.269 . S
C151 O126 1.257 . S
C152 H127 0.930 . S
C152 C155 1.388 . S
C152 C157 1.418 . S
C153 H148 0.930 . S
C153 C156 1.404 . S
C153 C157 1.353 . S
N154 Co119 2.145 . S
N154 C155 1.397 . S
N154 C156 1.334 . S
C155 H136 0.929 . S
C155 C152 1.388 . S
C155 N154 1.397 . S
C156 H137 0.929 . S
C156 C153 1.404 . S
C156 N154 1.334 . S
C157 H149 0.930 . S
C157 C152 1.418 . S
C157 C153 1.353 . S
C158 H128 0.930 . S
C158 N159 1.330 . S
C158 C160 1.446 . S
N159 Co118 2.151 . S
N159 C158 1.330 . S
N159 C163 1.418 . S
C160 H139 0.929 . S
C160 C158 1.446 . S
C160 C161 1.332 . S
C161 H141 0.931 . S
C161 C160 1.332 . S
C161 C162 1.267 . S
C162 H130 0.929 . S
C162 C161 1.267 . S
C162 C163 1.251 . S
C163 H133 0.929 . S
C163 N159 1.418 . S
C163 C162 1.251 . S
C164 H131 0.930 . S
C164 C166 1.406 . S
C164 C169 1.261 . S
C165 H132 0.930 . S
C165 N167 1.325 . S
C165 C168 1.357 . S
C166 H134 0.928 . S
C166 C164 1.406 . S
C166 N167 1.261 . S
N167 Co118 2.214 . S
N167 C165 1.325 . S
N167 C166 1.261 . S
C168 H138 0.931 . S
C168 C165 1.357 . S
C168 C169 1.312 . S
C169 H140 0.930 . S
C169 C164 1.261 . S
C169 C168 1.312 . S
C170 O142 1.214 . S
C170 O150 1.234 . S
C171 H143 0.929 1_565 S
C171 C174 1.391 . S
C171 C176 1.391 1_565 S
C172 H144 0.929 . S
C172 C173 1.390 . S
C172 N175 1.391 1_565 S
C173 H145 0.930 . S
C173 C172 1.390 . S
C173 C174 1.392 . S
C174 H146 0.929 . S
C174 C171 1.391 . S
C174 C173 1.392 . S
N175 Co119 2.257 . S
N175 C172 1.391 1_545 S
N175 C176 1.388 . S
C176 H147 0.930 . S
C176 C171 1.391 1_545 S
C176 N175 1.388 . S
Co177 O179 2.143 . S
Co177 O185 2.074 . S
Co177 O188 2.093 . S
Co177 O201 2.097 . S
Co177 N218 2.151 . S
Co177 N226 2.214 . S
Co178 O179 2.160 . S
Co178 O184 2.058 . S
Co178 O194 2.057 . S
Co178 O209 2.037 . S
Co178 N213 2.145 . S
Co178 N234 2.257 . S
O179 Co177 2.143 . S
O179 Co178 2.160 . S
C180 O181 1.278 . S
C180 O188 1.224 . S
O181 C180 1.278 . S
C182 O183 1.245 . S
C182 O194 1.232 . S
O183 C182 1.245 . S
O184 Co178 2.058 . S
O184 C210 1.269 . S
O185 Co177 2.074 . S
O185 C210 1.257 . S
H186 C211 0.930 . S
H187 C217 0.930 . S
O188 Co177 2.093 . S
O188 C180 1.224 . S
H189 C221 0.929 . S
H190 C223 0.930 . S
H191 C224 0.930 . S
H192 C222 0.929 . S
H193 C225 0.928 . S
O194 Co178 2.057 . S
O194 C182 1.232 . S
H195 C214 0.929 . S
H196 C215 0.929 . S
H197 C227 0.931 . S
H198 C219 0.929 . S
H199 C228 0.930 . S
H200 C220 0.931 . S
O201 Co177 2.097 . S
O201 C229 1.214 . S
H202 C230 0.929 . S
H203 C231 0.929 . S
H204 C232 0.930 . S
H205 C233 0.929 . S
H206 C235 0.930 . S
H207 C212 0.930 . S
H208 C216 0.930 . S
O209 Co178 2.037 . S
O209 C229 1.234 . S
C210 O184 1.269 . S
C210 O185 1.257 . S
C211 H186 0.930 . S
C211 C214 1.388 . S
C211 C216 1.418 . S
C212 H207 0.930 . S
C212 C215 1.404 . S
C212 C216 1.353 . S
N213 Co178 2.145 . S
N213 C214 1.397 . S
N213 C215 1.334 . S
C214 H195 0.929 . S
C214 C211 1.388 . S
C214 N213 1.397 . S
C215 H196 0.929 . S
C215 C212 1.404 . S
C215 N213 1.334 . S
C216 H208 0.930 . S
C216 C211 1.418 . S
C216 C212 1.353 . S
C217 H187 0.930 . S
C217 N218 1.330 . S
C217 C219 1.446 . S
N218 Co177 2.151 . S
N218 C217 1.330 . S
N218 C222 1.418 . S
C219 H198 0.929 . S
C219 C217 1.446 . S
C219 C220 1.332 . S
C220 H200 0.931 . S
C220 C219 1.332 . S
C220 C221 1.267 . S
C221 H189 0.929 . S
C221 C220 1.267 . S
C221 C222 1.251 . S
C222 H192 0.929 . S
C222 N218 1.418 . S
C222 C221 1.251 . S
C223 H190 0.930 . S
C223 C225 1.406 1_556 S
C223 C228 1.261 . S
C224 H191 0.930 . S
C224 N226 1.325 . S
C224 C227 1.357 1_554 S
C225 H193 0.928 . S
C225 C223 1.406 1_554 S
C225 N226 1.261 . S
N226 Co177 2.214 . S
N226 C224 1.325 . S
N226 C225 1.261 . S
C227 H197 0.931 . S
C227 C224 1.357 1_556 S
C227 C228 1.312 . S
C228 H199 0.930 . S
C228 C223 1.261 . S
C228 C227 1.312 . S
C229 O201 1.214 . S
C229 O209 1.234 . S
C230 H202 0.929 . S
C230 C233 1.391 . S
C230 C235 1.391 . S
C231 H203 0.929 . S
C231 C232 1.390 . S
C231 N234 1.391 . S
C232 H204 0.930 . S
C232 C231 1.390 . S
C232 C233 1.392 . S
C233 H205 0.929 . S
C233 C230 1.391 . S
C233 C232 1.392 . S
N234 Co178 2.257 . S
N234 C231 1.391 . S
N234 C235 1.388 . S
C235 H206 0.930 . S
C235 C230 1.391 . S
C235 N234 1.388 . S
Co236 O238 2.143 . S
Co236 O244 2.074 . S
Co236 O247 2.093 . S
Co236 O260 2.097 . S
Co236 N277 2.151 . S
Co236 N285 2.214 . S
Co237 O238 2.160 . S
Co237 O243 2.058 . S
Co237 O253 2.057 . S
Co237 O268 2.037 . S
Co237 N272 2.145 . S
Co237 N293 2.257 . S
O238 Co236 2.143 . S
O238 Co237 2.160 . S
C239 O240 1.278 . S
C239 O247 1.224 . S
O240 C239 1.278 . S
C241 O242 1.245 . S
C241 O253 1.232 . S
O242 C241 1.245 . S
O243 Co237 2.058 . S
O243 C269 1.269 . S
O244 Co236 2.074 . S
O244 C269 1.257 . S
H245 C270 0.930 . S
H246 C276 0.930 . S
O247 Co236 2.093 . S
O247 C239 1.224 . S
H248 C280 0.929 . S
H249 C282 0.930 . S
H250 C283 0.930 . S
H251 C281 0.929 . S
H252 C284 0.928 . S
O253 Co237 2.057 . S
O253 C241 1.232 . S
H254 C273 0.929 . S
H255 C274 0.929 . S
H256 C286 0.931 . S
H257 C278 0.929 . S
H258 C287 0.930 . S
H259 C279 0.931 . S
O260 Co236 2.097 . S
O260 C288 1.214 . S
H261 C289 0.929 1_655 S
H262 C290 0.929 . S
H263 C291 0.930 . S
H264 C292 0.929 . S
H265 C294 0.930 . S
H266 C271 0.930 . S
H267 C275 0.930 . S
O268 Co237 2.037 . S
O268 C288 1.234 . S
C269 O243 1.269 . S
C269 O244 1.257 . S
C270 H245 0.930 . S
C270 C273 1.388 . S
C270 C275 1.418 . S
C271 H266 0.930 . S
C271 C274 1.404 . S
C271 C275 1.353 . S
N272 Co237 2.145 . S
N272 C273 1.397 . S
N272 C274 1.334 . S
C273 H254 0.929 . S
C273 C270 1.388 . S
C273 N272 1.397 . S
C274 H255 0.929 . S
C274 C271 1.404 . S
C274 N272 1.334 . S
C275 H267 0.930 . S
C275 C270 1.418 . S
C275 C271 1.353 . S
C276 H246 0.930 . S
C276 N277 1.330 . S
C276 C278 1.446 . S
N277 Co236 2.151 . S
N277 C276 1.330 . S
N277 C281 1.418 . S
C278 H257 0.929 . S
C278 C276 1.446 . S
C278 C279 1.332 . S
C279 H259 0.931 . S
C279 C278 1.332 . S
C279 C280 1.267 . S
C280 H248 0.929 . S
C280 C279 1.267 . S
C280 C281 1.251 . S
C281 H251 0.929 . S
C281 N277 1.418 . S
C281 C280 1.251 . S
C282 H249 0.930 . S
C282 C284 1.406 . S
C282 C287 1.261 . S
C283 H250 0.930 . S
C283 N285 1.325 . S
C283 C286 1.357 . S
C284 H252 0.928 . S
C284 C282 1.406 . S
C284 N285 1.261 . S
N285 Co236 2.214 . S
N285 C283 1.325 . S
N285 C284 1.261 . S
C286 H256 0.931 . S
C286 C283 1.357 . S
C286 C287 1.312 . S
C287 H258 0.930 . S
C287 C282 1.261 . S
C287 C286 1.312 . S
C288 O260 1.214 . S
C288 O268 1.234 . S
C289 H261 0.929 1_455 S
C289 C292 1.391 . S
C289 C294 1.391 1_455 S
C290 H262 0.929 . S
C290 C291 1.390 . S
C290 N293 1.391 1_455 S
C291 H263 0.930 . S
C291 C290 1.390 . S
C291 C292 1.392 . S
C292 H264 0.929 . S
C292 C289 1.391 . S
C292 C291 1.392 . S
N293 Co237 2.257 . S
N293 C290 1.391 1_655 S
N293 C294 1.388 . S
C294 H265 0.930 . S
C294 C289 1.391 1_655 S
C294 N293 1.388 . S
Co295 O297 2.143 . S
Co295 O303 2.074 . S
Co295 O306 2.093 . S
Co295 O319 2.097 . S
Co295 N336 2.151 . S
Co295 N344 2.214 . S
Co296 O297 2.160 . S
Co296 O302 2.058 . S
Co296 O312 2.057 . S
Co296 O327 2.037 . S
Co296 N331 2.145 . S
Co296 N352 2.257 . S
O297 Co295 2.143 . S
O297 Co296 2.160 . S
C298 O299 1.278 . S
C298 O306 1.224 . S
O299 C298 1.278 . S
C300 O301 1.245 . S
C300 O312 1.232 . S
O301 C300 1.245 . S
O302 Co296 2.058 . S
O302 C328 1.269 . S
O303 Co295 2.074 . S
O303 C328 1.257 . S
H304 C329 0.930 . S
H305 C335 0.930 . S
O306 Co295 2.093 . S
O306 C298 1.224 . S
H307 C339 0.929 . S
H308 C341 0.930 . S
H309 C342 0.930 . S
H310 C340 0.929 . S
H311 C343 0.928 . S
O312 Co296 2.057 . S
O312 C300 1.232 . S
H313 C332 0.929 . S
H314 C333 0.929 . S
H315 C345 0.931 . S
H316 C337 0.929 . S
H317 C346 0.930 . S
H318 C338 0.931 . S
O319 Co295 2.097 . S
O319 C347 1.214 . S
H320 C348 0.929 1_565 S
H321 C349 0.929 . S
H322 C350 0.930 . S
H323 C351 0.929 . S
H324 C353 0.930 . S
H325 C330 0.930 . S
H326 C334 0.930 . S
O327 Co296 2.037 . S
O327 C347 1.234 . S
C328 O302 1.269 . S
C328 O303 1.257 . S
C329 H304 0.930 . S
C329 C332 1.388 . S
C329 C334 1.418 . S
C330 H325 0.930 . S
C330 C333 1.404 . S
C330 C334 1.353 . S
N331 Co296 2.145 . S
N331 C332 1.397 . S
N331 C333 1.334 . S
C332 H313 0.929 . S
C332 C329 1.388 . S
C332 N331 1.397 . S
C333 H314 0.929 . S
C333 C330 1.404 . S
C333 N331 1.334 . S
C334 H326 0.930 . S
C334 C329 1.418 . S
C334 C330 1.353 . S
C335 H305 0.930 . S
C335 N336 1.330 . S
C335 C337 1.446 . S
N336 Co295 2.151 . S
N336 C335 1.330 . S
N336 C340 1.418 . S
C337 H316 0.929 . S
C337 C335 1.446 . S
C337 C338 1.332 . S
C338 H318 0.931 . S
C338 C337 1.332 . S
C338 C339 1.267 . S
C339 H307 0.929 . S
C339 C338 1.267 . S
C339 C340 1.251 . S
C340 H310 0.929 . S
C340 N336 1.418 . S
C340 C339 1.251 . S
C341 H308 0.930 . S
C341 C343 1.406 . S
C341 C346 1.261 . S
C342 H309 0.930 . S
C342 N344 1.325 . S
C342 C345 1.357 . S
C343 H311 0.928 . S
C343 C341 1.406 . S
C343 N344 1.261 . S
N344 Co295 2.214 . S
N344 C342 1.325 . S
N344 C343 1.261 . S
C345 H315 0.931 . S
C345 C342 1.357 . S
C345 C346 1.312 . S
C346 H317 0.930 . S
C346 C341 1.261 . S
C346 C345 1.312 . S
C347 O319 1.214 . S
C347 O327 1.234 . S
C348 H320 0.929 1_545 S
C348 C351 1.391 . S
C348 C353 1.391 1_545 S
C349 H321 0.929 . S
C349 C350 1.390 . S
C349 N352 1.391 1_545 S
C350 H322 0.930 . S
C350 C349 1.390 . S
C350 C351 1.392 . S
C351 H323 0.929 . S
C351 C348 1.391 . S
C351 C350 1.392 . S
N352 Co296 2.257 . S
N352 C349 1.391 1_565 S
N352 C353 1.388 . S
C353 H324 0.930 . S
C353 C348 1.391 1_565 S
C353 N352 1.388 . S
Co354 O356 2.143 . S
Co354 O362 2.074 . S
Co354 O365 2.093 . S
Co354 O378 2.097 . S
Co354 N395 2.151 . S
Co354 N403 2.214 . S
Co355 O356 2.160 . S
Co355 O361 2.058 . S
Co355 O371 2.057 . S
Co355 O386 2.037 . S
Co355 N390 2.145 . S
Co355 N411 2.257 . S
O356 Co354 2.143 . S
O356 Co355 2.160 . S
C357 O358 1.278 . S
C357 O365 1.224 . S
O358 C357 1.278 . S
C359 O360 1.245 . S
C359 O371 1.232 . S
O360 C359 1.245 . S
O361 Co355 2.058 . S
O361 C387 1.269 . S
O362 Co354 2.074 . S
O362 C387 1.257 . S
H363 C388 0.930 . S
H364 C394 0.930 . S
O365 Co354 2.093 . S
O365 C357 1.224 . S
H366 C398 0.929 . S
H367 C400 0.930 . S
H368 C401 0.930 . S
H369 C399 0.929 . S
H370 C402 0.928 . S
O371 Co355 2.057 . S
O371 C359 1.232 . S
H372 C391 0.929 . S
H373 C392 0.929 . S
H374 C404 0.931 . S
H375 C396 0.929 . S
H376 C405 0.930 . S
H377 C397 0.931 . S
O378 Co354 2.097 . S
O378 C406 1.214 . S
H379 C407 0.929 . S
H380 C408 0.929 . S
H381 C409 0.930 . S
H382 C410 0.929 . S
H383 C412 0.930 . S
H384 C389 0.930 . S
H385 C393 0.930 . S
O386 Co355 2.037 . S
O386 C406 1.234 . S
C387 O361 1.269 . S
C387 O362 1.257 . S
C388 H363 0.930 . S
C388 C391 1.388 . S
C388 C393 1.418 . S
C389 H384 0.930 . S
C389 C392 1.404 . S
C389 C393 1.353 . S
N390 Co355 2.145 . S
N390 C391 1.397 . S
N390 C392 1.334 . S
C391 H372 0.929 . S
C391 C388 1.388 . S
C391 N390 1.397 . S
C392 H373 0.929 . S
C392 C389 1.404 . S
C392 N390 1.334 . S
C393 H385 0.930 . S
C393 C388 1.418 . S
C393 C389 1.353 . S
C394 H364 0.930 . S
C394 N395 1.330 . S
C394 C396 1.446 . S
N395 Co354 2.151 . S
N395 C394 1.330 . S
N395 C399 1.418 . S
C396 H375 0.929 . S
C396 C394 1.446 . S
C396 C397 1.332 . S
C397 H377 0.931 . S
C397 C396 1.332 . S
C397 C398 1.267 . S
C398 H366 0.929 . S
C398 C397 1.267 . S
C398 C399 1.251 . S
C399 H369 0.929 . S
C399 N395 1.418 . S
C399 C398 1.251 . S
C400 H367 0.930 . S
C400 C402 1.406 . S
C400 C405 1.261 . S
C401 H368 0.930 . S
C401 N403 1.325 . S
C401 C404 1.357 . S
C402 H370 0.928 . S
C402 C400 1.406 . S
C402 N403 1.261 . S
N403 Co354 2.214 . S
N403 C401 1.325 . S
N403 C402 1.261 . S
C404 H374 0.931 . S
C404 C401 1.357 . S
C404 C405 1.312 . S
C405 H376 0.930 . S
C405 C400 1.261 . S
C405 C404 1.312 . S
C406 O378 1.214 . S
C406 O386 1.234 . S
C407 H379 0.929 . S
C407 C410 1.391 . S
C407 C412 1.391 . S
C408 H380 0.929 . S
C408 C409 1.390 . S
C408 N411 1.391 . S
C409 H381 0.930 . S
C409 C408 1.390 . S
C409 C410 1.392 . S
C410 H382 0.929 . S
C410 C407 1.391 . S
C410 C409 1.392 . S
N411 Co355 2.257 . S
N411 C408 1.391 . S
N411 C412 1.388 . S
C412 H383 0.930 . S
C412 C407 1.391 . S
C412 N411 1.388 . S
Co413 O415 2.143 . S
Co413 O421 2.074 . S
Co413 O424 2.093 . S
Co413 O437 2.097 . S
Co413 N454 2.151 . S
Co413 N462 2.214 . S
Co414 O415 2.160 . S
Co414 O420 2.058 . S
Co414 O430 2.057 . S
Co414 O445 2.037 . S
Co414 N449 2.145 . S
Co414 N470 2.257 . S
O415 Co413 2.143 . S
O415 Co414 2.160 . S
C416 O417 1.278 . S
C416 O424 1.224 . S
O417 C416 1.278 . S
C418 O419 1.245 . S
C418 O430 1.232 . S
O419 C418 1.245 . S
O420 Co414 2.058 . S
O420 C446 1.269 . S
O421 Co413 2.074 . S
O421 C446 1.257 . S
H422 C447 0.930 . S
H423 C453 0.930 . S
O424 Co413 2.093 . S
O424 C416 1.224 . S
H425 C457 0.929 . S
H426 C459 0.930 . S
H427 C460 0.930 1_556 S
H428 C458 0.929 . S
H429 C461 0.945 . S
O430 Co414 2.057 . S
O430 C418 1.232 . S
H431 C450 0.929 . S
H432 C451 0.929 . S
H433 C463 0.931 . S
H434 C455 0.929 . S
H435 C464 0.930 . S
H436 C456 0.931 . S
O437 Co413 2.097 . S
O437 C465 1.214 . S
H438 C466 0.929 1_455 S
H439 C467 0.929 . S
H440 C468 0.930 . S
H441 C469 0.929 . S
H442 C471 0.930 . S
H443 C448 0.930 . S
H444 C452 0.930 . S
O445 Co414 2.037 . S
O445 C465 1.234 . S
C446 O420 1.269 . S
C446 O421 1.257 . S
C447 H422 0.930 . S
C447 C450 1.388 . S
C447 C452 1.418 . S
C448 H443 0.930 . S
C448 C451 1.404 . S
C448 C452 1.353 . S
N449 Co414 2.145 . S
N449 C450 1.397 . S
N449 C451 1.334 . S
C450 H431 0.929 . S
C450 C447 1.388 . S
C450 N449 1.397 . S
C451 H432 0.929 . S
C451 C448 1.404 . S
C451 N449 1.334 . S
C452 H444 0.930 . S
C452 C447 1.418 . S
C452 C448 1.353 . S
C453 H423 0.930 . S
C453 N454 1.330 . S
C453 C455 1.446 . S
N454 Co413 2.151 . S
N454 C453 1.330 . S
N454 C458 1.418 . S
C455 H434 0.929 . S
C455 C453 1.446 . S
C455 C456 1.332 . S
C456 H436 0.931 . S
C456 C455 1.332 . S
C456 C457 1.267 . S
C457 H425 0.929 . S
C457 C456 1.267 . S
C457 C458 1.251 . S
C458 H428 0.929 . S
C458 N454 1.418 . S
C458 C457 1.251 . S
C459 H426 0.930 . S
C459 C461 1.374 1_554 S
C459 C464 1.261 . S
C460 H427 0.930 1_554 S
C460 N462 1.325 1_554 S
C460 C463 1.357 . S
C461 H429 0.945 . S
C461 C459 1.374 1_556 S
C461 N462 1.277 . S
N462 Co413 2.214 . S
N462 C460 1.325 1_556 S
N462 C461 1.277 . S
C463 H433 0.931 . S
C463 C460 1.357 . S
C463 C464 1.312 . S
C464 H435 0.930 . S
C464 C459 1.261 . S
C464 C463 1.312 . S
C465 O437 1.214 . S
C465 O445 1.234 . S
C466 H438 0.929 1_655 S
C466 C469 1.391 . S
C466 C471 1.391 1_655 S
C467 H439 0.929 . S
C467 C468 1.390 . S
C467 N470 1.391 1_655 S
C468 H440 0.930 . S
C468 C467 1.390 . S
C468 C469 1.392 . S
C469 H441 0.929 . S
C469 C466 1.391 . S
C469 C468 1.392 . S
N470 Co414 2.257 . S
N470 C467 1.391 1_455 S
N470 C471 1.388 . S
C471 H442 0.930 . S
C471 C466 1.391 1_455 S
C471 N470 1.388 . S
Co472 O474 2.143 . S
Co472 O480 2.074 . S
Co472 O483 2.093 . S
Co472 O496 2.097 . S
Co472 N513 2.151 . S
Co472 N521 2.214 . S
Co473 O474 2.160 . S
Co473 O479 2.058 . S
Co473 O489 2.057 . S
Co473 O504 2.037 . S
Co473 N508 2.145 . S
Co473 N529 2.257 . S
O474 Co472 2.143 . S
O474 Co473 2.160 . S
C475 O476 1.278 . S
C475 O483 1.224 . S
O476 C475 1.278 . S
C477 O478 1.245 . S
C477 O489 1.232 . S
O478 C477 1.245 . S
O479 Co473 2.058 . S
O479 C505 1.269 . S
O480 Co472 2.074 . S
O480 C505 1.257 . S
H481 C506 0.930 . S
H482 C512 0.930 . S
O483 Co472 2.093 . S
O483 C475 1.224 . S
H484 C516 0.929 . S
H485 C518 0.930 . S
H486 C519 0.930 . S
H487 C517 0.929 . S
H488 C520 0.928 . S
O489 Co473 2.057 . S
O489 C477 1.232 . S
H490 C509 0.929 . S
H491 C510 0.929 . S
H492 C522 0.931 . S
H493 C514 0.929 . S
H494 C523 0.930 . S
H495 C515 0.931 . S
O496 Co472 2.097 . S
O496 C524 1.214 . S
H497 C525 0.929 1_545 S
H498 C526 0.929 . S
H499 C527 0.930 . S
H500 C528 0.929 . S
H501 C530 0.930 . S
H502 C507 0.930 . S
H503 C511 0.930 . S
O504 Co473 2.037 . S
O504 C524 1.234 . S
C505 O479 1.269 . S
C505 O480 1.257 . S
C506 H481 0.930 . S
C506 C509 1.388 . S
C506 C511 1.418 . S
C507 H502 0.930 . S
C507 C510 1.404 . S
C507 C511 1.353 . S
N508 Co473 2.145 . S
N508 C509 1.397 . S
N508 C510 1.334 . S
C509 H490 0.929 . S
C509 C506 1.388 . S
C509 N508 1.397 . S
C510 H491 0.929 . S
C510 C507 1.404 . S
C510 N508 1.334 . S
C511 H503 0.930 . S
C511 C506 1.418 . S
C511 C507 1.353 . S
C512 H482 0.930 . S
C512 N513 1.330 . S
C512 C514 1.446 . S
N513 Co472 2.151 . S
N513 C512 1.330 . S
N513 C517 1.418 . S
C514 H493 0.929 . S
C514 C512 1.446 . S
C514 C515 1.332 . S
C515 H495 0.931 . S
C515 C514 1.332 . S
C515 C516 1.267 . S
C516 H484 0.929 . S
C516 C515 1.267 . S
C516 C517 1.251 . S
C517 H487 0.929 . S
C517 N513 1.418 . S
C517 C516 1.251 . S
C518 H485 0.930 . S
C518 C520 1.406 . S
C518 C523 1.261 . S
C519 H486 0.930 . S
C519 N521 1.325 . S
C519 C522 1.357 . S
C520 H488 0.928 . S
C520 C518 1.406 . S
C520 N521 1.261 . S
N521 Co472 2.214 . S
N521 C519 1.325 . S
N521 C520 1.261 . S
C522 H492 0.931 . S
C522 C519 1.357 . S
C522 C523 1.312 . S
C523 H494 0.930 . S
C523 C518 1.261 . S
C523 C522 1.312 . S
C524 O496 1.214 . S
C524 O504 1.234 . S
C525 H497 0.929 1_565 S
C525 C528 1.391 . S
C525 C530 1.391 1_565 S
C526 H498 0.929 . S
C526 C527 1.390 . S
C526 N529 1.391 1_565 S
C527 H499 0.930 . S
C527 C526 1.390 . S
C527 C528 1.392 . S
C528 H500 0.929 . S
C528 C525 1.391 . S
C528 C527 1.392 . S
N529 Co473 2.257 . S
N529 C526 1.391 1_545 S
N529 C530 1.388 . S
C530 H501 0.930 . S
C530 C525 1.391 1_545 S
C530 N529 1.388 . S
Co531 O533 2.143 . S
Co531 O539 2.074 . S
Co531 O542 2.093 . S
Co531 O555 2.097 . S
Co531 N572 2.151 . S
Co531 N580 2.214 . S
Co532 O533 2.160 . S
Co532 O538 2.058 . S
Co532 O548 2.057 . S
Co532 O563 2.037 . S
Co532 N567 2.145 . S
Co532 N588 2.257 . S
O533 Co531 2.143 . S
O533 Co532 2.160 . S
C534 O535 1.278 . S
C534 O542 1.224 . S
O535 C534 1.278 . S
C536 O537 1.245 . S
C536 O548 1.232 . S
O537 C536 1.245 . S
O538 Co532 2.058 . S
O538 C564 1.269 . S
O539 Co531 2.074 . S
O539 C564 1.257 . S
H540 C565 0.930 . S
H541 C571 0.930 . S
O542 Co531 2.093 . S
O542 C534 1.224 . S
H543 C575 0.929 . S
H544 C577 0.930 . S
H545 C578 0.930 . S
H546 C576 0.929 . S
H547 C579 0.928 . S
O548 Co532 2.057 . S
O548 C536 1.232 . S
H549 C568 0.929 . S
H550 C569 0.929 . S
H551 C581 0.931 . S
H552 C573 0.929 . S
H553 C582 0.930 . S
H554 C574 0.931 . S
O555 Co531 2.097 . S
O555 C583 1.214 . S
H556 C584 0.929 . S
H557 C585 0.929 . S
H558 C586 0.930 . S
H559 C587 0.929 . S
H560 C589 0.930 . S
H561 C566 0.930 . S
H562 C570 0.930 . S
O563 Co532 2.037 . S
O563 C583 1.234 . S
C564 O538 1.269 . S
C564 O539 1.257 . S
C565 H540 0.930 . S
C565 C568 1.388 . S
C565 C570 1.418 . S
C566 H561 0.930 . S
C566 C569 1.404 . S
C566 C570 1.353 . S
N567 Co532 2.145 . S
N567 C568 1.397 . S
N567 C569 1.334 . S
C568 H549 0.929 . S
C568 C565 1.388 . S
C568 N567 1.397 . S
C569 H550 0.929 . S
C569 C566 1.404 . S
C569 N567 1.334 . S
C570 H562 0.930 . S
C570 C565 1.418 . S
C570 C566 1.353 . S
C571 H541 0.930 . S
C571 N572 1.330 . S
C571 C573 1.446 . S
N572 Co531 2.151 . S
N572 C571 1.330 . S
N572 C576 1.418 . S
C573 H552 0.929 . S
C573 C571 1.446 . S
C573 C574 1.332 . S
C574 H554 0.931 . S
C574 C573 1.332 . S
C574 C575 1.267 . S
C575 H543 0.929 . S
C575 C574 1.267 . S
C575 C576 1.251 . S
C576 H546 0.929 . S
C576 N572 1.418 . S
C576 C575 1.251 . S
C577 H544 0.930 . S
C577 C579 1.406 . S
C577 C582 1.261 . S
C578 H545 0.930 . S
C578 N580 1.325 . S
C578 C581 1.357 . S
C579 H547 0.928 . S
C579 C577 1.406 . S
C579 N580 1.261 . S
N580 Co531 2.214 . S
N580 C578 1.325 . S
N580 C579 1.261 . S
C581 H551 0.931 . S
C581 C578 1.357 . S
C581 C582 1.312 . S
C582 H553 0.930 . S
C582 C577 1.261 . S
C582 C581 1.312 . S
C583 O555 1.214 . S
C583 O563 1.234 . S
C584 H556 0.929 . S
C584 C587 1.391 . S
C584 C589 1.391 . S
C585 H557 0.929 . S
C585 C586 1.390 . S
C585 N588 1.391 . S
C586 H558 0.930 . S
C586 C585 1.390 . S
C586 C587 1.392 . S
C587 H559 0.929 . S
C587 C584 1.391 . S
C587 C586 1.392 . S
N588 Co532 2.257 . S
N588 C585 1.391 . S
N588 C589 1.388 . S
C589 H560 0.930 . S
C589 C584 1.391 . S
C589 N588 1.388 . S
Co590 O592 2.143 . S
Co590 O598 2.074 . S
Co590 O601 2.093 . S
Co590 O614 2.097 . S
Co590 N631 2.151 . S
Co590 N639 2.214 . S
Co591 O592 2.160 . S
Co591 O597 2.058 . S
Co591 O607 2.057 . S
Co591 O622 2.037 . S
Co591 N626 2.145 . S
Co591 N647 2.257 . S
O592 Co590 2.143 . S
O592 Co591 2.160 . S
C593 O594 1.278 . S
C593 O601 1.224 . S
O594 C593 1.278 . S
C595 O596 1.245 . S
C595 O607 1.232 . S
O596 C595 1.245 . S
O597 Co591 2.058 . S
O597 C623 1.269 . S
O598 Co590 2.074 . S
O598 C623 1.257 . S
H599 C624 0.930 . S
H600 C630 0.930 . S
O601 Co590 2.093 . S
O601 C593 1.224 . S
H602 C634 0.929 . S
H603 C636 0.930 . S
H604 C637 0.930 1_556 S
H605 C635 0.929 . S
H606 C638 0.945 . S
O607 Co591 2.057 . S
O607 C595 1.232 . S
H608 C627 0.929 . S
H609 C628 0.929 . S
H610 C640 0.931 . S
H611 C632 0.929 . S
H612 C641 0.930 . S
H613 C633 0.931 . S
O614 Co590 2.097 . S
O614 C642 1.214 . S
H615 C643 0.929 1_655 S
H616 C644 0.929 . S
H617 C645 0.930 . S
H618 C646 0.929 . S
H619 C648 0.930 . S
H620 C625 0.930 . S
H621 C629 0.930 . S
O622 Co591 2.037 . S
O622 C642 1.234 . S
C623 O597 1.269 . S
C623 O598 1.257 . S
C624 H599 0.930 . S
C624 C627 1.388 . S
C624 C629 1.418 . S
C625 H620 0.930 . S
C625 C628 1.404 . S
C625 C629 1.353 . S
N626 Co591 2.145 . S
N626 C627 1.397 . S
N626 C628 1.334 . S
C627 H608 0.929 . S
C627 C624 1.388 . S
C627 N626 1.397 . S
C628 H609 0.929 . S
C628 C625 1.404 . S
C628 N626 1.334 . S
C629 H621 0.930 . S
C629 C624 1.418 . S
C629 C625 1.353 . S
C630 H600 0.930 . S
C630 N631 1.330 . S
C630 C632 1.446 . S
N631 Co590 2.151 . S
N631 C630 1.330 . S
N631 C635 1.418 . S
C632 H611 0.929 . S
C632 C630 1.446 . S
C632 C633 1.332 . S
C633 H613 0.931 . S
C633 C632 1.332 . S
C633 C634 1.267 . S
C634 H602 0.929 . S
C634 C633 1.267 . S
C634 C635 1.251 . S
C635 H605 0.929 . S
C635 N631 1.418 . S
C635 C634 1.251 . S
C636 H603 0.930 . S
C636 C638 1.374 1_554 S
C636 C641 1.261 . S
C637 H604 0.930 1_554 S
C637 N639 1.325 1_554 S
C637 C640 1.357 . S
C638 H606 0.945 . S
C638 C636 1.374 1_556 S
C638 N639 1.277 . S
N639 Co590 2.214 . S
N639 C637 1.325 1_556 S
N639 C638 1.277 . S
C640 H610 0.931 . S
C640 C637 1.357 . S
C640 C641 1.312 . S
C641 H612 0.930 . S
C641 C636 1.261 . S
C641 C640 1.312 . S
C642 O614 1.214 . S
C642 O622 1.234 . S
C643 H615 0.929 1_455 S
C643 C646 1.391 . S
C643 C648 1.391 1_455 S
C644 H616 0.929 . S
C644 C645 1.390 . S
C644 N647 1.391 1_455 S
C645 H617 0.930 . S
C645 C644 1.390 . S
C645 C646 1.392 . S
C646 H618 0.929 . S
C646 C643 1.391 . S
C646 C645 1.392 . S
N647 Co591 2.257 . S
N647 C644 1.391 1_655 S
N647 C648 1.388 . S
C648 H619 0.930 . S
C648 C643 1.391 1_655 S
C648 N647 1.388 . S
Co649 O651 2.143 . S
Co649 O657 2.074 . S
Co649 O660 2.093 . S
Co649 O673 2.097 . S
Co649 N690 2.151 . S
Co649 N698 2.214 . S
Co650 O651 2.160 . S
Co650 O656 2.058 . S
Co650 O666 2.057 . S
Co650 O681 2.037 . S
Co650 N685 2.145 . S
Co650 N706 2.257 . S
O651 Co649 2.143 . S
O651 Co650 2.160 . S
C652 O653 1.278 . S
C652 O660 1.224 . S
O653 C652 1.278 . S
C654 O655 1.245 . S
C654 O666 1.232 . S
O655 C654 1.245 . S
O656 Co650 2.058 . S
O656 C682 1.269 . S
O657 Co649 2.074 . S
O657 C682 1.257 . S
H658 C683 0.930 . S
H659 C689 0.930 . S
O660 Co649 2.093 . S
O660 C652 1.224 . S
H661 C693 0.929 . S
H662 C695 0.930 . S
H663 C696 0.930 . S
H664 C694 0.929 . S
H665 C697 0.928 . S
O666 Co650 2.057 . S
O666 C654 1.232 . S
H667 C686 0.929 . S
H668 C687 0.929 . S
H669 C699 0.931 . S
H670 C691 0.929 . S
H671 C700 0.930 . S
H672 C692 0.931 . S
O673 Co649 2.097 . S
O673 C701 1.214 . S
H674 C702 0.929 1_565 S
H675 C703 0.929 . S
H676 C704 0.930 . S
H677 C705 0.929 . S
H678 C707 0.930 . S
H679 C684 0.930 . S
H680 C688 0.930 . S
O681 Co650 2.037 . S
O681 C701 1.234 . S
C682 O656 1.269 . S
C682 O657 1.257 . S
C683 H658 0.930 . S
C683 C686 1.388 . S
C683 C688 1.418 . S
C684 H679 0.930 . S
C684 C687 1.404 . S
C684 C688 1.353 . S
N685 Co650 2.145 . S
N685 C686 1.397 . S
N685 C687 1.334 . S
C686 H667 0.929 . S
C686 C683 1.388 . S
C686 N685 1.397 . S
C687 H668 0.929 . S
C687 C684 1.404 . S
C687 N685 1.334 . S
C688 H680 0.930 . S
C688 C683 1.418 . S
C688 C684 1.353 . S
C689 H659 0.930 . S
C689 N690 1.330 . S
C689 C691 1.446 . S
N690 Co649 2.151 . S
N690 C689 1.330 . S
N690 C694 1.418 . S
C691 H670 0.929 . S
C691 C689 1.446 . S
C691 C692 1.332 . S
C692 H672 0.931 . S
C692 C691 1.332 . S
C692 C693 1.267 . S
C693 H661 0.929 . S
C693 C692 1.267 . S
C693 C694 1.251 . S
C694 H664 0.929 . S
C694 N690 1.418 . S
C694 C693 1.251 . S
C695 H662 0.930 . S
C695 C697 1.406 . S
C695 C700 1.261 . S
C696 H663 0.930 . S
C696 N698 1.325 . S
C696 C699 1.357 . S
C697 H665 0.928 . S
C697 C695 1.406 . S
C697 N698 1.261 . S
N698 Co649 2.214 . S
N698 C696 1.325 . S
N698 C697 1.261 . S
C699 H669 0.931 . S
C699 C696 1.357 . S
C699 C700 1.312 . S
C700 H671 0.930 . S
C700 C695 1.261 . S
C700 C699 1.312 . S
C701 O673 1.214 . S
C701 O681 1.234 . S
C702 H674 0.929 1_545 S
C702 C705 1.391 . S
C702 C707 1.391 1_545 S
C703 H675 0.929 . S
C703 C704 1.390 . S
C703 N706 1.391 1_545 S
C704 H676 0.930 . S
C704 C703 1.390 . S
C704 C705 1.392 . S
C705 H677 0.929 . S
C705 C702 1.391 . S
C705 C704 1.392 . S
N706 Co650 2.257 . S
N706 C703 1.391 1_565 S
N706 C707 1.388 . S
C707 H678 0.930 . S
C707 C702 1.391 1_565 S
C707 N706 1.388 . S
H708 C716 0.929 . S
H709 C718 0.930 . S
H710 C720 0.930 . S
H711 C723 0.929 . S
H712 C726 0.930 . S
H713 C728 0.960 . S
H714 C728 0.960 . S
H715 C728 0.960 . S
C716 H708 0.929 . S
C716 C717 1.377 . S
C716 C718 1.384 . S
C717 C716 1.377 . S
C717 C723 1.390 . S
C718 H709 0.930 . S
C718 C716 1.384 . S
C718 C719 1.372 . S
C719 C718 1.372 . S
C719 C720 1.400 . S
C719 C724 1.490 . S
C720 H710 0.930 . S
C720 C719 1.400 . S
C720 C723 1.386 . S
H721 C737 0.930 . S
H722 C738 0.931 . S
C723 H711 0.929 . S
C723 C717 1.390 . S
C723 C720 1.386 . S
C724 C719 1.490 . S
C724 C726 1.395 . S
C724 C727 1.403 . S
H725 C731 0.930 . S
C726 H712 0.930 . S
C726 C724 1.395 . S
C726 C729 1.403 . S
C727 C724 1.403 . S
C727 C728 1.524 . S
C727 C731 1.400 . S
C728 H713 0.960 . S
C728 H714 0.960 . S
C728 H715 0.960 . S
C728 C727 1.524 . S
C729 C726 1.403 . S
C729 C730 1.392 . S
C729 C733 1.495 . S
C730 C729 1.392 . S
C730 C731 1.385 . S
C730 C732 1.478 . S
C731 H725 0.930 . S
C731 C727 1.400 . S
C731 C730 1.385 . S
C732 C730 1.478 . S
C732 C734 1.381 . S
C732 C738 1.383 . S
C733 C729 1.495 . S
C733 H739 0.959 . S
C733 H740 0.961 . S
C733 H741 0.960 . S
C734 C732 1.381 . S
C734 C735 1.394 . S
C734 H742 0.930 . S
C735 C734 1.394 . S
C735 C736 1.383 . S
C735 H743 0.929 . S
C736 C735 1.383 . S
C736 C737 1.377 . S
C737 H721 0.930 . S
C737 C736 1.377 . S
C737 C738 1.379 . S
C738 H722 0.931 . S
C738 C732 1.383 . S
C738 C737 1.379 . S
H739 C733 0.959 . S
H740 C733 0.961 . S
H741 C733 0.960 . S
H742 C734 0.930 . S
H743 C735 0.929 . S
H744 C752 0.929 . S
H745 C754 0.930 . S
H746 C756 0.930 . S
H747 C759 0.929 . S
H748 C762 0.930 . S
H749 C764 0.960 . S
H750 C764 0.960 . S
H751 C764 0.960 . S
C752 H744 0.929 . S
C752 C753 1.377 . S
C752 C754 1.384 . S
C753 C752 1.377 . S
C753 C759 1.390 . S
C754 H745 0.930 . S
C754 C752 1.384 . S
C754 C755 1.372 . S
C755 C754 1.372 . S
C755 C756 1.400 . S
C755 C760 1.490 . S
C756 H746 0.930 . S
C756 C755 1.400 . S
C756 C759 1.386 . S
H757 C773 0.930 . S
H758 C774 0.931 . S
C759 H747 0.929 . S
C759 C753 1.390 . S
C759 C756 1.386 . S
C760 C755 1.490 . S
C760 C762 1.395 1_455 S
C760 C763 1.403 . S
H761 C767 0.930 . S
C762 H748 0.930 . S
C762 C760 1.395 1_655 S
C762 C765 1.403 . S
C763 C760 1.403 . S
C763 C764 1.524 . S
C763 C767 1.400 . S
C764 H749 0.960 . S
C764 H750 0.960 . S
C764 H751 0.960 . S
C764 C763 1.524 . S
C765 C762 1.403 . S
C765 C766 1.392 . S
C765 C769 1.495 . S
C766 C765 1.392 . S
C766 C767 1.385 1_655 S
C766 C768 1.478 . S
C767 H761 0.930 . S
C767 C763 1.400 . S
C767 C766 1.385 1_455 S
C768 C766 1.478 . S
C768 C770 1.381 . S
C768 C774 1.383 . S
C769 C765 1.495 . S
C769 H775 0.959 . S
C769 H776 0.961 . S
C769 H777 0.960 . S
C770 C768 1.381 . S
C770 C771 1.394 . S
C770 H778 0.930 . S
C771 C770 1.394 . S
C771 C772 1.383 . S
C771 H779 0.929 . S
C772 C771 1.383 . S
C772 C773 1.377 . S
C773 H757 0.930 . S
C773 C772 1.377 . S
C773 C774 1.379 . S
C774 H758 0.931 . S
C774 C768 1.383 . S
C774 C773 1.379 . S
H775 C769 0.959 . S
H776 C769 0.961 . S
H777 C769 0.960 . S
H778 C770 0.930 . S
H779 C771 0.929 . S
H780 C788 0.929 . S
H781 C790 0.919 1_545 S
H782 C792 0.930 . S
H783 C795 0.929 . S
H784 C798 0.930 . S
H785 C800 0.960 . S
H786 C800 0.960 . S
H787 C800 0.960 . S
C788 H780 0.929 . S
C788 C789 1.377 . S
C788 C790 1.384 . S
C789 C788 1.377 . S
C789 C795 1.390 . S
C790 H781 0.919 1_565 S
C790 C788 1.384 . S
C790 C791 1.372 . S
C791 C790 1.372 . S
C791 C792 1.400 . S
C791 C796 1.490 . S
C792 H782 0.930 . S
C792 C791 1.400 . S
C792 C795 1.386 . S
H793 C809 0.930 . S
H794 C810 0.931 . S
C795 H783 0.929 . S
C795 C789 1.390 . S
C795 C792 1.386 . S
C796 C791 1.490 . S
C796 C798 1.395 1_565 S
C796 C799 1.403 . S
H797 C803 0.930 . S
C798 H784 0.930 . S
C798 C796 1.395 1_545 S
C798 C801 1.403 . S
C799 C796 1.403 . S
C799 C800 1.524 . S
C799 C803 1.400 . S
C800 H785 0.960 . S
C800 H786 0.960 . S
C800 H787 0.960 . S
C800 C799 1.524 . S
C801 C798 1.403 . S
C801 C802 1.392 . S
C801 C805 1.495 . S
C802 C801 1.392 . S
C802 C803 1.385 1_545 S
C802 C804 1.478 . S
C803 H797 0.930 . S
C803 C799 1.400 . S
C803 C802 1.385 1_565 S
C804 C802 1.478 . S
C804 C806 1.381 . S
C804 C810 1.383 . S
C805 C801 1.495 . S
C805 H811 0.959 . S
C805 H812 0.961 . S
C805 H813 0.960 . S
C806 C804 1.381 . S
C806 C807 1.394 . S
C806 H814 0.930 . S
C807 C806 1.394 . S
C807 C808 1.383 . S
C807 H815 0.929 . S
C808 C807 1.383 . S
C808 C809 1.377 . S
C809 H793 0.930 . S
C809 C808 1.377 . S
C809 C810 1.379 . S
C810 H794 0.931 . S
C810 C804 1.383 . S
C810 C809 1.379 . S
H811 C805 0.959 . S
H812 C805 0.961 . S
H813 C805 0.960 . S
H814 C806 0.930 . S
H815 C807 0.929 . S
H816 C824 0.929 . S
H817 C826 0.930 . S
H818 C828 0.930 . S
H819 C831 0.929 . S
H820 C834 0.930 . S
H821 C836 0.960 . S
H822 C836 0.960 . S
H823 C836 0.960 . S
C824 H816 0.929 . S
C824 C825 1.377 . S
C824 C826 1.384 . S
C825 C824 1.377 . S
C825 C831 1.390 . S
C826 H817 0.930 . S
C826 C824 1.384 . S
C826 C827 1.372 . S
C827 C826 1.372 . S
C827 C828 1.400 . S
C827 C832 1.490 . S
C828 H818 0.930 . S
C828 C827 1.400 . S
C828 C831 1.386 . S
H829 C845 0.930 . S
H830 C846 0.931 . S
C831 H819 0.929 . S
C831 C825 1.390 . S
C831 C828 1.386 . S
C832 C827 1.490 . S
C832 C834 1.395 . S
C832 C835 1.403 . S
H833 C839 0.930 . S
C834 H820 0.930 . S
C834 C832 1.395 . S
C834 C837 1.403 . S
C835 C832 1.403 . S
C835 C836 1.524 . S
C835 C839 1.400 . S
C836 H821 0.960 . S
C836 H822 0.960 . S
C836 H823 0.960 . S
C836 C835 1.524 . S
C837 C834 1.403 . S
C837 C838 1.392 . S
C837 C841 1.495 . S
C838 C837 1.392 . S
C838 C839 1.385 . S
C838 C840 1.478 . S
C839 H833 0.930 . S
C839 C835 1.400 . S
C839 C838 1.385 . S
C840 C838 1.478 . S
C840 C842 1.381 . S
C840 C846 1.383 . S
C841 C837 1.495 . S
C841 H847 0.959 . S
C841 H848 0.961 . S
C841 H849 0.960 . S
C842 C840 1.381 . S
C842 C843 1.394 . S
C842 H850 0.930 . S
C843 C842 1.394 . S
C843 C844 1.383 . S
C843 H851 0.929 . S
C844 C843 1.383 . S
C844 C845 1.377 . S
C845 H829 0.930 . S
C845 C844 1.377 . S
C845 C846 1.379 . S
C846 H830 0.931 . S
C846 C840 1.383 . S
C846 C845 1.379 . S
H847 C841 0.959 . S
H848 C841 0.961 . S
H849 C841 0.960 . S
H850 C842 0.930 . S
H851 C843 0.929 . S
H852 C860 0.929 . S
H853 C862 0.930 . S
H854 C864 0.930 . S
H855 C867 0.929 . S
H856 C870 0.930 . S
H857 C872 0.960 . S
H858 C872 0.960 . S
H859 C872 0.960 . S
C860 H852 0.929 . S
C860 C861 1.377 . S
C860 C862 1.384 . S
C861 C860 1.377 . S
C861 C867 1.390 . S
C862 H853 0.930 . S
C862 C860 1.384 . S
C862 C863 1.372 . S
C863 C862 1.372 . S
C863 C864 1.400 . S
C863 C868 1.490 . S
C864 H854 0.930 . S
C864 C863 1.400 . S
C864 C867 1.386 . S
H865 C881 0.930 . S
H866 C882 0.931 . S
C867 H855 0.929 . S
C867 C861 1.390 . S
C867 C864 1.386 . S
C868 C863 1.490 . S
C868 C870 1.395 . S
C868 C871 1.403 1_655 S
H869 C875 0.930 . S
C870 H856 0.930 . S
C870 C868 1.395 . S
C870 C873 1.403 . S
C871 C868 1.403 1_455 S
C871 C872 1.524 . S
C871 C875 1.400 . S
C872 H857 0.960 . S
C872 H858 0.960 . S
C872 H859 0.960 . S
C872 C871 1.524 . S
C873 C870 1.403 . S
C873 C874 1.392 1_655 S
C873 C877 1.495 . S
C874 C873 1.392 1_455 S
C874 C875 1.385 . S
C874 C876 1.478 . S
C875 H869 0.930 . S
C875 C871 1.400 . S
C875 C874 1.385 . S
C876 C874 1.478 . S
C876 C878 1.381 . S
C876 C882 1.383 . S
C877 C873 1.495 . S
C877 H883 0.959 . S
C877 H884 0.961 . S
C877 H885 0.960 . S
C878 C876 1.381 . S
C878 C879 1.394 . S
C878 H886 0.930 . S
C879 C878 1.394 . S
C879 C880 1.383 . S
C879 H887 0.929 . S
C880 C879 1.383 . S
C880 C881 1.377 . S
C881 H865 0.930 . S
C881 C880 1.377 . S
C881 C882 1.379 . S
C882 H866 0.931 . S
C882 C876 1.383 . S
C882 C881 1.379 . S
H883 C877 0.959 . S
H884 C877 0.961 . S
H885 C877 0.960 . S
H886 C878 0.930 . S
H887 C879 0.929 . S
H888 C896 0.929 . S
H889 C898 0.930 . S
H890 C900 0.930 . S
H891 C903 0.929 . S
H892 C906 0.930 . S
H893 C908 0.960 . S
H894 C908 0.960 . S
H895 C908 0.960 . S
C896 H888 0.929 . S
C896 C897 1.377 . S
C896 C898 1.384 . S
C897 C896 1.377 . S
C897 C903 1.390 . S
C898 H889 0.930 . S
C898 C896 1.384 . S
C898 C899 1.372 . S
C899 C898 1.372 . S
C899 C900 1.400 . S
C899 C904 1.490 . S
C900 H890 0.930 . S
C900 C899 1.400 . S
C900 C903 1.386 . S
H901 C917 0.930 . S
H902 C918 0.931 . S
C903 H891 0.929 . S
C903 C897 1.390 . S
C903 C900 1.386 . S
C904 C899 1.490 . S
C904 C906 1.395 1_545 S
C904 C907 1.403 . S
H905 C911 0.930 . S
C906 H892 0.930 . S
C906 C904 1.395 1_565 S
C906 C909 1.403 . S
C907 C904 1.403 . S
C907 C908 1.524 . S
C907 C911 1.400 . S
C908 H893 0.960 . S
C908 H894 0.960 . S
C908 H895 0.960 . S
C908 C907 1.524 . S
C909 C906 1.403 . S
C909 C910 1.392 . S
C909 C913 1.495 . S
C910 C909 1.392 . S
C910 C911 1.385 1_565 S
C910 C912 1.478 . S
C911 H905 0.930 . S
C911 C907 1.400 . S
C911 C910 1.385 1_545 S
C912 C910 1.478 . S
C912 C914 1.381 . S
C912 C918 1.383 . S
C913 C909 1.495 . S
C913 H919 0.959 . S
C913 H920 0.961 . S
C913 H921 0.960 . S
C914 C912 1.381 . S
C914 C915 1.394 . S
C914 H922 0.930 . S
C915 C914 1.394 . S
C915 C916 1.383 . S
C915 H923 0.929 . S
C916 C915 1.383 . S
C916 C917 1.377 . S
C917 H901 0.930 . S
C917 C916 1.377 . S
C917 C918 1.379 . S
C918 H902 0.931 . S
C918 C912 1.383 . S
C918 C917 1.379 . S
H919 C913 0.959 . S
H920 C913 0.961 . S
H921 C913 0.960 . S
H922 C914 0.930 . S
H923 C915 0.929 . S
H924 C932 0.929 . S
H925 C934 0.930 . S
H926 C936 0.930 . S
H927 C939 0.929 . S
H928 C942 0.930 . S
H929 C944 0.960 . S
H930 C944 0.960 . S
H931 C944 0.960 . S
C932 H924 0.929 . S
C932 C933 1.377 . S
C932 C934 1.384 . S
C933 C932 1.377 . S
C933 C939 1.390 . S
C934 H925 0.930 . S
C934 C932 1.384 . S
C934 C935 1.372 . S
C935 C934 1.372 . S
C935 C936 1.400 . S
C935 C940 1.490 . S
C936 H926 0.930 . S
C936 C935 1.400 . S
C936 C939 1.386 . S
H937 C953 0.930 . S
H938 C954 0.931 . S
C939 H927 0.929 . S
C939 C933 1.390 . S
C939 C936 1.386 . S
C940 C935 1.490 . S
C940 C942 1.395 . S
C940 C943 1.403 . S
H941 C947 0.930 . S
C942 H928 0.930 . S
C942 C940 1.395 . S
C942 C945 1.403 . S
C943 C940 1.403 . S
C943 C944 1.524 . S
C943 C947 1.400 . S
C944 H929 0.960 . S
C944 H930 0.960 . S
C944 H931 0.960 . S
C944 C943 1.524 . S
C945 C942 1.403 . S
C945 C946 1.392 . S
C945 C949 1.495 . S
C946 C945 1.392 . S
C946 C947 1.385 . S
C946 C948 1.478 . S
C947 H941 0.930 . S
C947 C943 1.400 . S
C947 C946 1.385 . S
C948 C946 1.478 . S
C948 C950 1.381 . S
C948 C954 1.383 . S
C949 C945 1.495 . S
C949 H955 0.959 . S
C949 H956 0.961 . S
C949 H957 0.960 . S
C950 C948 1.381 . S
C950 C951 1.394 . S
C950 H958 0.930 . S
C951 C950 1.394 . S
C951 C952 1.383 . S
C951 H959 0.929 . S
C952 C951 1.383 . S
C952 C953 1.377 . S
C953 H937 0.930 . S
C953 C952 1.377 . S
C953 C954 1.379 . S
C954 H938 0.931 . S
C954 C948 1.383 . S
C954 C953 1.379 . S
H955 C949 0.959 . S
H956 C949 0.961 . S
H957 C949 0.960 . S
H958 C950 0.930 . S
H959 C951 0.929 . S
H960 C968 0.929 . S
H961 C970 0.930 . S
H962 C972 0.930 . S
H963 C975 0.929 . S
H964 C978 0.930 . S
H965 C980 0.960 . S
H966 C980 0.960 . S
H967 C980 0.960 . S
C968 H960 0.929 . S
C968 C969 1.377 . S
C968 C970 1.384 . S
C969 C968 1.377 . S
C969 C975 1.390 . S
C970 H961 0.930 . S
C970 C968 1.384 . S
C970 C971 1.372 . S
C971 C970 1.372 . S
C971 C972 1.400 . S
C971 C976 1.490 . S
C972 H962 0.930 . S
C972 C971 1.400 . S
C972 C975 1.386 . S
H973 C989 0.930 . S
H974 C990 0.931 . S
C975 H963 0.929 . S
C975 C969 1.390 . S
C975 C972 1.386 . S
C976 C971 1.490 . S
C976 C978 1.395 . S
C976 C979 1.403 . S
H977 C983 0.930 . S
C978 H964 0.930 . S
C978 C976 1.395 . S
C978 C981 1.403 . S
C979 C976 1.403 . S
C979 C980 1.524 . S
C979 C983 1.400 . S
C980 H965 0.960 . S
C980 H966 0.960 . S
C980 H967 0.960 . S
C980 C979 1.524 . S
C981 C978 1.403 . S
C981 C982 1.392 . S
C981 C985 1.495 . S
C982 C981 1.392 . S
C982 C983 1.385 . S
C982 C984 1.478 . S
C983 H977 0.930 . S
C983 C979 1.400 . S
C983 C982 1.385 . S
C984 C982 1.478 . S
C984 C986 1.381 . S
C984 C990 1.383 . S
C985 C981 1.495 . S
C985 H991 0.959 . S
C985 H992 0.961 . S
C985 H993 0.960 . S
C986 C984 1.381 . S
C986 C987 1.394 . S
C986 H994 0.930 . S
C987 C986 1.394 . S
C987 C988 1.383 . S
C987 H995 0.929 . S
C988 C987 1.383 . S
C988 C989 1.377 . S
C989 H973 0.930 . S
C989 C988 1.377 . S
C989 C990 1.379 . S
C990 H974 0.931 . S
C990 C984 1.383 . S
C990 C989 1.379 . S
H991 C985 0.959 . S
H992 C985 0.961 . S
H993 C985 0.960 . S
H994 C986 0.930 . S
H995 C987 0.929 . S
H996 C1004 0.929 . S
H997 C1006 0.930 . S
H998 C1008 0.930 . S
H999 C1011 0.929 . S
H1000 C1014 0.930 . S
H1001 C1016 0.960 . S
H1002 C1016 0.960 . S
H1003 C1016 0.960 . S
C1004 H996 0.929 . S
C1004 C1005 1.377 . S
C1004 C1006 1.384 . S
C1005 C1004 1.377 . S
C1005 C1011 1.390 . S
C1006 H997 0.930 . S
C1006 C1004 1.384 . S
C1006 C1007 1.372 . S
C1007 C1006 1.372 . S
C1007 C1008 1.400 . S
C1007 C1012 1.490 . S
C1008 H998 0.930 . S
C1008 C1007 1.400 . S
C1008 C1011 1.386 . S
H1009 C1025 0.930 . S
H1010 C1026 0.931 . S
C1011 H999 0.929 . S
C1011 C1005 1.390 . S
C1011 C1008 1.386 . S
C1012 C1007 1.490 . S
C1012 C1014 1.395 . S
C1012 C1015 1.403 . S
H1013 C1019 0.930 . S
C1014 H1000 0.930 . S
C1014 C1012 1.395 . S
C1014 C1017 1.403 . S
C1015 C1012 1.403 . S
C1015 C1016 1.524 . S
C1015 C1019 1.400 . S
C1016 H1001 0.960 . S
C1016 H1002 0.960 . S
C1016 H1003 0.960 . S
C1016 C1015 1.524 . S
C1017 C1014 1.403 . S
C1017 C1018 1.392 . S
C1017 C1021 1.495 . S
C1018 C1017 1.392 . S
C1018 C1019 1.385 . S
C1018 C1020 1.478 . S
C1019 H1013 0.930 . S
C1019 C1015 1.400 . S
C1019 C1018 1.385 . S
C1020 C1018 1.478 . S
C1020 C1022 1.381 . S
C1020 C1026 1.383 . S
C1021 C1017 1.495 . S
C1021 H1027 0.959 . S
C1021 H1028 0.961 . S
C1021 H1029 0.960 . S
C1022 C1020 1.381 . S
C1022 C1023 1.394 . S
C1022 H1030 0.930 . S
C1023 C1022 1.394 . S
C1023 C1024 1.383 . S
C1023 H1031 0.929 . S
C1024 C1023 1.383 . S
C1024 C1025 1.377 . S
C1025 H1009 0.930 . S
C1025 C1024 1.377 . S
C1025 C1026 1.379 . S
C1026 H1010 0.931 . S
C1026 C1020 1.383 . S
C1026 C1025 1.379 . S
H1027 C1021 0.959 . S
H1028 C1021 0.961 . S
H1029 C1021 0.960 . S
H1030 C1022 0.930 . S
H1031 C1023 0.929 . S
H1032 C1040 0.929 . S
H1033 C1042 0.930 . S
H1034 C1044 0.930 . S
H1035 C1047 0.929 . S
H1036 C1050 0.930 . S
H1037 C1052 0.960 . S
H1038 C1052 0.960 . S
H1039 C1052 0.960 . S
C1040 H1032 0.929 . S
C1040 C1041 1.377 . S
C1040 C1042 1.384 . S
C1041 C1040 1.377 . S
C1041 C1047 1.390 . S
C1042 H1033 0.930 . S
C1042 C1040 1.384 . S
C1042 C1043 1.372 . S
C1043 C1042 1.372 . S
C1043 C1044 1.400 . S
C1043 C1048 1.490 . S
C1044 H1034 0.930 . S
C1044 C1043 1.400 . S
C1044 C1047 1.386 . S
H1045 C1061 0.930 . S
H1046 C1062 0.931 . S
C1047 H1035 0.929 . S
C1047 C1041 1.390 . S
C1047 C1044 1.386 . S
C1048 C1043 1.490 . S
C1048 C1050 1.395 . S
C1048 C1051 1.403 . S
H1049 C1055 0.930 . S
C1050 H1036 0.930 . S
C1050 C1048 1.395 . S
C1050 C1053 1.403 . S
C1051 C1048 1.403 . S
C1051 C1052 1.524 . S
C1051 C1055 1.400 . S
C1052 H1037 0.960 . S
C1052 H1038 0.960 . S
C1052 H1039 0.960 . S
C1052 C1051 1.524 . S
C1053 C1050 1.403 . S
C1053 C1054 1.392 . S
C1053 C1057 1.495 . S
C1054 C1053 1.392 . S
C1054 C1055 1.385 . S
C1054 C1056 1.478 . S
C1055 H1049 0.930 . S
C1055 C1051 1.400 . S
C1055 C1054 1.385 . S
C1056 C1054 1.478 . S
C1056 C1058 1.381 . S
C1056 C1062 1.383 . S
C1057 C1053 1.495 . S
C1057 H1063 0.959 . S
C1057 H1064 0.961 . S
C1057 H1065 0.960 . S
C1058 C1056 1.381 . S
C1058 C1059 1.394 . S
C1058 H1066 0.930 . S
C1059 C1058 1.394 . S
C1059 C1060 1.383 . S
C1059 H1067 0.929 . S
C1060 C1059 1.383 . S
C1060 C1061 1.377 . S
C1061 H1045 0.930 . S
C1061 C1060 1.377 . S
C1061 C1062 1.379 . S
C1062 H1046 0.931 . S
C1062 C1056 1.383 . S
C1062 C1061 1.379 . S
H1063 C1057 0.959 . S
H1064 C1057 0.961 . S
H1065 C1057 0.960 . S
H1066 C1058 0.930 . S
H1067 C1059 0.929 . S
H1068 C1076 0.929 . S
H1069 C1078 0.930 . S
H1070 C1080 0.930 . S
H1071 C1083 0.929 . S
H1072 C1086 0.930 . S
H1073 C1088 0.960 . S
H1074 C1088 0.960 . S
H1075 C1088 0.960 . S
C1076 H1068 0.929 . S
C1076 C1077 1.377 . S
C1076 C1078 1.384 . S
C1077 C1076 1.377 . S
C1077 C1083 1.390 . S
C1078 H1069 0.930 . S
C1078 C1076 1.384 . S
C1078 C1079 1.372 . S
C1079 C1078 1.372 . S
C1079 C1080 1.400 . S
C1079 C1084 1.490 . S
C1080 H1070 0.930 . S
C1080 C1079 1.400 . S
C1080 C1083 1.386 . S
H1081 C1097 0.930 . S
H1082 C1098 0.931 . S
C1083 H1071 0.929 . S
C1083 C1077 1.390 . S
C1083 C1080 1.386 . S
C1084 C1079 1.490 . S
C1084 C1086 1.395 . S
C1084 C1087 1.403 . S
H1085 C1091 0.930 . S
C1086 H1072 0.930 . S
C1086 C1084 1.395 . S
C1086 C1089 1.403 . S
C1087 C1084 1.403 . S
C1087 C1088 1.524 . S
C1087 C1091 1.400 . S
C1088 H1073 0.960 . S
C1088 H1074 0.960 . S
C1088 H1075 0.960 . S
C1088 C1087 1.524 . S
C1089 C1086 1.403 . S
C1089 C1090 1.392 . S
C1089 C1093 1.495 . S
C1090 C1089 1.392 . S
C1090 C1091 1.385 . S
C1090 C1092 1.478 . S
C1091 H1085 0.930 . S
C1091 C1087 1.400 . S
C1091 C1090 1.385 . S
C1092 C1090 1.478 . S
C1092 C1094 1.381 . S
C1092 C1098 1.383 . S
C1093 C1089 1.495 . S
C1093 H1099 0.959 . S
C1093 H1100 0.961 . S
C1093 H1101 0.960 . S
C1094 C1092 1.381 . S
C1094 C1095 1.394 . S
C1094 H1102 0.930 . S
C1095 C1094 1.394 . S
C1095 C1096 1.383 . S
C1095 H1103 0.929 . S
C1096 C1095 1.383 . S
C1096 C1097 1.377 . S
C1097 H1081 0.930 . S
C1097 C1096 1.377 . S
C1097 C1098 1.379 . S
C1098 H1082 0.931 . S
C1098 C1092 1.383 . S
C1098 C1097 1.379 . S
H1099 C1093 0.959 . S
H1100 C1093 0.961 . S
H1101 C1093 0.960 . S
H1102 C1094 0.930 . S
H1103 C1095 0.929 . S
H1104 C1112 0.929 . S
H1105 C1114 0.930 . S
H1106 C1116 0.930 . S
H1107 C1119 0.929 . S
H1108 C1122 0.930 . S
H1109 C1124 0.960 . S
H1110 C1124 0.960 . S
H1111 C1124 0.960 . S
C1112 H1104 0.929 . S
C1112 C1113 1.377 . S
C1112 C1114 1.384 . S
C1113 C1112 1.377 . S
C1113 C1119 1.390 . S
C1114 H1105 0.930 . S
C1114 C1112 1.384 . S
C1114 C1115 1.372 . S
C1115 C1114 1.372 . S
C1115 C1116 1.400 . S
C1115 C1120 1.490 . S
C1116 H1106 0.930 . S
C1116 C1115 1.400 . S
C1116 C1119 1.386 . S
H1117 C1133 0.930 . S
H1118 C1134 0.931 . S
C1119 H1107 0.929 . S
C1119 C1113 1.390 . S
C1119 C1116 1.386 . S
C1120 C1115 1.490 . S
C1120 C1122 1.395 . S
C1120 C1123 1.403 . S
H1121 C1127 0.930 . S
C1122 H1108 0.930 . S
C1122 C1120 1.395 . S
C1122 C1125 1.403 . S
C1123 C1120 1.403 . S
C1123 C1124 1.524 . S
C1123 C1127 1.400 . S
C1124 H1109 0.960 . S
C1124 H1110 0.960 . S
C1124 H1111 0.960 . S
C1124 C1123 1.524 . S
C1125 C1122 1.403 . S
C1125 C1126 1.392 . S
C1125 C1129 1.495 . S
C1126 C1125 1.392 . S
C1126 C1127 1.385 . S
C1126 C1128 1.478 . S
C1127 H1121 0.930 . S
C1127 C1123 1.400 . S
C1127 C1126 1.385 . S
C1128 C1126 1.478 . S
C1128 C1130 1.381 . S
C1128 C1134 1.383 . S
C1129 C1125 1.495 . S
C1129 H1135 0.959 . S
C1129 H1136 0.961 . S
C1129 H1137 0.960 . S
C1130 C1128 1.381 . S
C1130 C1131 1.394 . S
C1130 H1138 0.930 . S
C1131 C1130 1.394 . S
C1131 C1132 1.383 . S
C1131 H1139 0.929 . S
C1132 C1131 1.383 . S
C1132 C1133 1.377 . S
C1133 H1117 0.930 . S
C1133 C1132 1.377 . S
C1133 C1134 1.379 . S
C1134 H1118 0.931 . S
C1134 C1128 1.383 . S
C1134 C1133 1.379 . S
H1135 C1129 0.959 . S
H1136 C1129 0.961 . S
H1137 C1129 0.960 . S
H1138 C1130 0.930 . S
H1139 C1131 0.929 . S
H1140 C1148 0.929 . S
H1141 C1150 0.930 . S
H1142 C1152 0.930 . S
H1143 C1155 0.929 . S
H1144 C1158 0.930 . S
H1145 C1160 0.960 . S
H1146 C1160 0.960 1_565 S
H1147 C1160 0.960 1_565 S
C1148 H1140 0.929 . S
C1148 C1149 1.377 . S
C1148 C1150 1.384 . S
C1149 C1148 1.377 . S
C1149 C1155 1.390 . S
C1150 H1141 0.930 . S
C1150 C1148 1.384 . S
C1150 C1151 1.372 . S
C1151 C1150 1.372 . S
C1151 C1152 1.400 . S
C1151 C1156 1.490 . S
C1152 H1142 0.930 . S
C1152 C1151 1.400 . S
C1152 C1155 1.386 . S
H1153 C1169 0.930 . S
H1154 C1170 0.931 . S
C1155 H1143 0.929 . S
C1155 C1149 1.390 . S
C1155 C1152 1.386 . S
C1156 C1151 1.490 . S
C1156 C1158 1.395 1_556 S
C1156 C1159 1.403 . S
H1157 C1163 0.930 . S
C1158 H1144 0.930 . S
C1158 C1156 1.395 1_554 S
C1158 C1161 1.403 . S
C1159 C1156 1.403 . S
C1159 C1160 1.524 1_565 S
C1159 C1163 1.400 1_565 S
C1160 H1145 0.960 . S
C1160 H1146 0.960 1_545 S
C1160 H1147 0.960 1_545 S
C1160 C1159 1.524 1_545 S
C1161 C1158 1.403 . S
C1161 C1162 1.392 1_565 S
C1161 C1165 1.495 . S
C1162 C1161 1.392 1_545 S
C1162 C1163 1.385 1_554 S
C1162 C1164 1.478 . S
C1163 H1157 0.930 . S
C1163 C1159 1.400 1_545 S
C1163 C1162 1.385 1_556 S
C1164 C1162 1.478 . S
C1164 C1166 1.381 . S
C1164 C1170 1.383 . S
C1165 C1161 1.495 . S
C1165 H1171 0.959 . S
C1165 H1172 0.961 1_565 S
C1165 H1173 0.960 1_565 S
C1166 C1164 1.381 . S
C1166 C1167 1.394 . S
C1166 H1174 0.930 . S
C1167 C1166 1.394 . S
C1167 C1168 1.383 . S
C1167 H1175 0.929 . S
C1168 C1167 1.383 . S
C1168 C1169 1.377 . S
C1169 H1153 0.930 . S
C1169 C1168 1.377 . S
C1169 C1170 1.379 . S
C1170 H1154 0.931 . S
C1170 C1164 1.383 . S
C1170 C1169 1.379 . S
H1171 C1165 0.959 . S
H1172 C1165 0.961 1_545 S
H1173 C1165 0.960 1_545 S
H1174 C1166 0.930 . S
H1175 C1167 0.929 . S
H1176 C1184 0.929 . S
H1177 C1186 0.930 . S
H1178 C1188 0.930 . S
H1179 C1191 0.929 . S
H1180 C1194 0.930 . S
H1181 C1196 0.960 . S
H1182 C1196 0.960 . S
H1183 C1196 0.960 . S
C1184 H1176 0.929 . S
C1184 C1185 1.377 . S
C1184 C1186 1.384 . S
C1185 C1184 1.377 . S
C1185 C1191 1.390 . S
C1186 H1177 0.930 . S
C1186 C1184 1.384 . S
C1186 C1187 1.372 . S
C1187 C1186 1.372 . S
C1187 C1188 1.400 . S
C1187 C1192 1.490 . S
C1188 H1178 0.930 . S
C1188 C1187 1.400 . S
C1188 C1191 1.386 . S
H1189 C1205 0.930 . S
H1190 C1206 0.931 . S
C1191 H1179 0.929 . S
C1191 C1185 1.390 . S
C1191 C1188 1.386 . S
C1192 C1187 1.490 . S
C1192 C1194 1.395 . S
C1192 C1195 1.403 . S
H1193 C1199 0.930 . S
C1194 H1180 0.930 . S
C1194 C1192 1.395 . S
C1194 C1197 1.403 . S
C1195 C1192 1.403 . S
C1195 C1196 1.524 . S
C1195 C1199 1.400 . S
C1196 H1181 0.960 . S
C1196 H1182 0.960 . S
C1196 H1183 0.960 . S
C1196 C1195 1.524 . S
C1197 C1194 1.403 . S
C1197 C1198 1.392 . S
C1197 C1201 1.495 . S
C1198 C1197 1.392 . S
C1198 C1199 1.385 . S
C1198 C1200 1.478 . S
C1199 H1193 0.930 . S
C1199 C1195 1.400 . S
C1199 C1198 1.385 . S
C1200 C1198 1.478 . S
C1200 C1202 1.381 . S
C1200 C1206 1.383 . S
C1201 C1197 1.495 . S
C1201 H1207 0.959 . S
C1201 H1208 0.961 . S
C1201 H1209 0.960 . S
C1202 C1200 1.381 . S
C1202 C1203 1.394 . S
C1202 H1210 0.930 . S
C1203 C1202 1.394 . S
C1203 C1204 1.383 . S
C1203 H1211 0.929 . S
C1204 C1203 1.383 . S
C1204 C1205 1.377 . S
C1205 H1189 0.930 . S
C1205 C1204 1.377 . S
C1205 C1206 1.379 . S
C1206 H1190 0.931 . S
C1206 C1200 1.383 . S
C1206 C1205 1.379 . S
H1207 C1201 0.959 . S
H1208 C1201 0.961 . S
H1209 C1201 0.960 . S
H1210 C1202 0.930 . S
H1211 C1203 0.929 . S
H1212 C1220 0.929 . S
H1213 C1222 0.930 . S
H1214 C1224 0.930 . S
H1215 C1227 0.929 . S
H1216 C1230 0.930 . S
H1217 C1232 0.960 1_455 S
H1218 C1232 0.960 . S
H1219 C1232 0.960 . S
C1220 H1212 0.929 . S
C1220 C1221 1.377 . S
C1220 C1222 1.384 . S
C1221 C1220 1.377 . S
C1221 C1227 1.390 . S
C1222 H1213 0.930 . S
C1222 C1220 1.384 . S
C1222 C1223 1.372 . S
C1223 C1222 1.372 . S
C1223 C1224 1.400 . S
C1223 C1228 1.490 . S
C1224 H1214 0.930 . S
C1224 C1223 1.400 . S
C1224 C1227 1.386 . S
H1225 C1241 0.930 . S
H1226 C1242 0.931 . S
C1227 H1215 0.929 . S
C1227 C1221 1.390 . S
C1227 C1224 1.386 . S
C1228 C1223 1.490 . S
C1228 C1230 1.395 . S
C1228 C1231 1.403 . S
H1229 C1235 0.930 . S
C1230 H1216 0.930 . S
C1230 C1228 1.395 . S
C1230 C1233 1.403 1_655 S
C1231 C1228 1.403 . S
C1231 C1232 1.524 . S
C1231 C1235 1.400 1_655 S
C1232 H1217 0.960 1_655 S
C1232 H1218 0.960 . S
C1232 H1219 0.960 . S
C1232 C1231 1.524 . S
C1233 C1230 1.403 1_455 S
C1233 C1234 1.392 . S
C1233 C1237 1.495 . S
C1234 C1233 1.392 . S
C1234 C1235 1.385 . S
C1234 C1236 1.478 . S
C1235 H1229 0.930 . S
C1235 C1231 1.400 1_455 S
C1235 C1234 1.385 . S
C1236 C1234 1.478 . S
C1236 C1238 1.381 . S
C1236 C1242 1.383 . S
C1237 C1233 1.495 . S
C1237 H1243 0.959 1_455 S
C1237 H1244 0.961 . S
C1237 H1245 0.960 . S
C1238 C1236 1.381 . S
C1238 C1239 1.394 . S
C1238 H1246 0.930 . S
C1239 C1238 1.394 . S
C1239 C1240 1.383 . S
C1239 H1247 0.929 . S
C1240 C1239 1.383 . S
C1240 C1241 1.377 . S
C1241 H1225 0.930 . S
C1241 C1240 1.377 . S
C1241 C1242 1.379 . S
C1242 H1226 0.931 . S
C1242 C1236 1.383 . S
C1242 C1241 1.379 . S
H1243 C1237 0.959 1_655 S
H1244 C1237 0.961 . S
H1245 C1237 0.960 . S
H1246 C1238 0.930 . S
H1247 C1239 0.929 . S
H1248 C1256 0.929 . S
H1249 C1258 0.930 . S
H1250 C1260 0.930 . S
H1251 C1263 0.929 . S
H1252 C1266 0.930 . S
H1253 C1268 0.960 . S
H1254 C1268 0.960 . S
H1255 C1268 0.960 1_554 S
C1256 H1248 0.929 . S
C1256 C1257 1.377 . S
C1256 C1258 1.384 . S
C1257 C1256 1.377 . S
C1257 C1263 1.390 . S
C1258 H1249 0.930 . S
C1258 C1256 1.384 . S
C1258 C1259 1.372 . S
C1259 C1258 1.372 . S
C1259 C1260 1.400 . S
C1259 C1264 1.490 . S
C1260 H1250 0.930 . S
C1260 C1259 1.400 . S
C1260 C1263 1.386 . S
H1261 C1277 0.930 . S
H1262 C1278 0.898 1_554 S
C1263 H1251 0.929 . S
C1263 C1257 1.390 . S
C1263 C1260 1.386 . S
C1264 C1259 1.490 . S
C1264 C1266 1.395 . S
C1264 C1267 1.402 1_554 S
H1265 C1271 0.930 . S
C1266 H1252 0.930 . S
C1266 C1264 1.395 . S
C1266 C1269 1.403 1_565 S
C1267 C1264 1.402 1_556 S
C1267 C1268 1.524 . S
C1267 C1271 1.400 1_565 S
C1268 H1253 0.960 . S
C1268 H1254 0.960 . S
C1268 H1255 0.960 1_556 S
C1268 C1267 1.524 . S
C1269 C1266 1.403 1_545 S
C1269 C1270 1.392 1_554 S
C1269 C1273 1.495 . S
C1270 C1269 1.392 1_556 S
C1270 C1271 1.385 . S
C1270 C1272 1.478 . S
C1271 H1265 0.930 . S
C1271 C1267 1.400 1_545 S
C1271 C1270 1.385 . S
C1272 C1270 1.478 . S
C1272 C1274 1.381 . S
C1272 C1278 1.383 . S
C1273 C1269 1.495 . S
C1273 H1279 0.959 . S
C1273 H1280 0.961 . S
C1273 H1281 0.960 1_554 S
C1274 C1272 1.381 . S
C1274 C1275 1.394 . S
C1274 H1282 0.930 . S
C1275 C1274 1.394 . S
C1275 C1276 1.383 . S
C1275 H1283 0.929 . S
C1276 C1275 1.383 . S
C1276 C1277 1.377 . S
C1277 H1261 0.930 . S
C1277 C1276 1.377 . S
C1277 C1278 1.379 . S
C1278 H1262 0.898 1_556 S
C1278 C1272 1.383 . S
C1278 C1277 1.379 . S
H1279 C1273 0.959 . S
H1280 C1273 0.961 . S
H1281 C1273 0.960 1_556 S
H1282 C1274 0.930 . S
H1283 C1275 0.929 . S
H1284 C1292 0.929 . S
H1285 C1294 0.930 . S
H1286 C1296 0.930 . S
H1287 C1299 0.929 . S
H1288 C1302 0.930 . S
H1289 C1304 0.960 . S
H1290 C1304 0.960 . S
H1291 C1304 0.960 . S
C1292 H1284 0.929 . S
C1292 C1293 1.377 . S
C1292 C1294 1.384 . S
C1293 C1292 1.377 . S
C1293 C1299 1.390 . S
C1294 H1285 0.930 . S
C1294 C1292 1.384 . S
C1294 C1295 1.372 . S
C1295 C1294 1.372 . S
C1295 C1296 1.400 . S
C1295 C1300 1.490 . S
C1296 H1286 0.930 . S
C1296 C1295 1.400 . S
C1296 C1299 1.386 . S
H1297 C1313 0.930 . S
H1298 C1314 0.931 . S
C1299 H1287 0.929 . S
C1299 C1293 1.390 . S
C1299 C1296 1.386 . S
C1300 C1295 1.490 . S
C1300 C1302 1.395 . S
C1300 C1303 1.403 . S
H1301 C1307 0.930 . S
C1302 H1288 0.930 . S
C1302 C1300 1.395 . S
C1302 C1305 1.403 . S
C1303 C1300 1.403 . S
C1303 C1304 1.524 . S
C1303 C1307 1.400 . S
C1304 H1289 0.960 . S
C1304 H1290 0.960 . S
C1304 H1291 0.960 . S
C1304 C1303 1.524 . S
C1305 C1302 1.403 . S
C1305 C1306 1.392 . S
C1305 C1309 1.495 . S
C1306 C1305 1.392 . S
C1306 C1307 1.385 . S
C1306 C1308 1.478 . S
C1307 H1301 0.930 . S
C1307 C1303 1.400 . S
C1307 C1306 1.385 . S
C1308 C1306 1.478 . S
C1308 C1310 1.381 . S
C1308 C1314 1.383 . S
C1309 C1305 1.495 . S
C1309 H1315 0.959 . S
C1309 H1316 0.961 . S
C1309 H1317 0.960 . S
C1310 C1308 1.381 . S
C1310 C1311 1.394 . S
C1310 H1318 0.930 . S
C1311 C1310 1.394 . S
C1311 C1312 1.383 . S
C1311 H1319 0.929 . S
C1312 C1311 1.383 . S
C1312 C1313 1.377 . S
C1313 H1297 0.930 . S
C1313 C1312 1.377 . S
C1313 C1314 1.379 . S
C1314 H1298 0.931 . S
C1314 C1308 1.383 . S
C1314 C1313 1.379 . S
H1315 C1309 0.959 . S
H1316 C1309 0.961 . S
H1317 C1309 0.960 . S
H1318 C1310 0.930 . S
H1319 C1311 0.929 . S
H1320 C1328 0.929 . S
H1321 C1330 0.930 . S
H1322 C1332 0.930 . S
H1323 C1335 0.929 . S
H1324 C1338 0.930 . S
H1325 C1340 0.960 . S
H1326 C1340 0.960 . S
H1327 C1340 0.960 . S
C1328 H1320 0.929 . S
C1328 C1329 1.377 . S
C1328 C1330 1.384 . S
C1329 C1328 1.377 . S
C1329 C1335 1.390 . S
C1330 H1321 0.930 . S
C1330 C1328 1.384 . S
C1330 C1331 1.372 . S
C1331 C1330 1.372 . S
C1331 C1332 1.400 . S
C1331 C1336 1.490 . S
C1332 H1322 0.930 . S
C1332 C1331 1.400 . S
C1332 C1335 1.386 . S
H1333 C1349 0.930 . S
H1334 C1350 0.931 . S
C1335 H1323 0.929 . S
C1335 C1329 1.390 . S
C1335 C1332 1.386 . S
C1336 C1331 1.490 . S
C1336 C1338 1.395 . S
C1336 C1339 1.403 . S
H1337 C1343 0.930 . S
C1338 H1324 0.930 . S
C1338 C1336 1.395 . S
C1338 C1341 1.403 1_455 S
C1339 C1336 1.403 . S
C1339 C1340 1.524 . S
C1339 C1343 1.400 1_455 S
C1340 H1325 0.960 . S
C1340 H1326 0.960 . S
C1340 H1327 0.960 . S
C1340 C1339 1.524 . S
C1341 C1338 1.403 1_655 S
C1341 C1342 1.392 . S
C1341 C1345 1.495 . S
C1342 C1341 1.392 . S
C1342 C1343 1.385 . S
C1342 C1344 1.478 . S
C1343 H1337 0.930 . S
C1343 C1339 1.400 1_655 S
C1343 C1342 1.385 . S
C1344 C1342 1.478 . S
C1344 C1346 1.381 . S
C1344 C1350 1.383 . S
C1345 C1341 1.495 . S
C1345 H1351 0.959 . S
C1345 H1352 0.961 . S
C1345 H1353 0.960 . S
C1346 C1344 1.381 . S
C1346 C1347 1.394 . S
C1346 H1354 0.930 . S
C1347 C1346 1.394 . S
C1347 C1348 1.383 . S
C1347 H1355 0.929 . S
C1348 C1347 1.383 . S
C1348 C1349 1.377 . S
C1349 H1333 0.930 . S
C1349 C1348 1.377 . S
C1349 C1350 1.379 . S
C1350 H1334 0.931 . S
C1350 C1344 1.383 . S
C1350 C1349 1.379 . S
H1351 C1345 0.959 . S
H1352 C1345 0.961 . S
H1353 C1345 0.960 . S
H1354 C1346 0.930 . S
H1355 C1347 0.929 . S
H1356 C1364 0.929 1_655 S
H1357 C1366 0.930 1_554 S
H1358 C1368 0.930 . S
H1359 C1371 0.929 . S
H1360 C1374 0.930 . S
H1361 C1376 0.960 . S
H1362 C1376 0.960 . S
H1363 C1376 0.960 . S
C1364 H1356 0.929 1_455 S
C1364 C1365 1.377 . S
C1364 C1366 1.384 . S
C1365 C1364 1.377 . S
C1365 C1371 1.390 . S
C1366 H1357 0.930 1_556 S
C1366 C1364 1.384 . S
C1366 C1367 1.372 . S
C1367 C1366 1.372 . S
C1367 C1368 1.400 . S
C1367 C1372 1.490 . S
C1368 H1358 0.930 . S
C1368 C1367 1.400 . S
C1368 C1371 1.386 . S
H1369 C1385 0.930 . S
H1370 C1386 0.931 1_556 S
C1371 H1359 0.929 . S
C1371 C1365 1.390 . S
C1371 C1368 1.386 . S
C1372 C1367 1.490 . S
C1372 C1374 1.395 1_556 S
C1372 C1375 1.403 . S
H1373 C1379 0.930 . S
C1374 H1360 0.930 . S
C1374 C1372 1.395 1_554 S
C1374 C1377 1.403 . S
C1375 C1372 1.403 . S
C1375 C1376 1.524 . S
C1375 C1379 1.400 1_556 S
C1376 H1361 0.960 . S
C1376 H1362 0.960 . S
C1376 H1363 0.960 . S
C1376 C1375 1.524 . S
C1377 C1374 1.403 . S
C1377 C1378 1.392 . S
C1377 C1381 1.495 . S
C1378 C1377 1.392 . S
C1378 C1379 1.385 . S
C1378 C1380 1.478 . S
C1379 H1373 0.930 . S
C1379 C1375 1.400 1_554 S
C1379 C1378 1.385 . S
C1380 C1378 1.478 . S
C1380 C1382 1.381 . S
C1380 C1386 1.383 . S
C1381 C1377 1.495 . S
C1381 H1387 0.959 . S
C1381 H1388 0.961 . S
C1381 H1389 0.960 . S
C1382 C1380 1.381 . S
C1382 C1383 1.394 . S
C1382 H1390 0.930 . S
C1383 C1382 1.394 . S
C1383 C1384 1.383 . S
C1383 H1391 0.929 . S
C1384 C1383 1.383 . S
C1384 C1385 1.377 . S
C1385 H1369 0.930 . S
C1385 C1384 1.377 . S
C1385 C1386 1.379 . S
C1386 H1370 0.931 1_554 S
C1386 C1380 1.383 . S
C1386 C1385 1.379 . S
H1387 C1381 0.959 . S
H1388 C1381 0.961 . S
H1389 C1381 0.960 . S
H1390 C1382 0.930 . S
H1391 C1383 0.929 . S
H1392 C1400 0.929 . S
H1393 C1402 0.930 . S
H1394 C1404 0.930 . S
H1395 C1407 0.929 . S
H1396 C1410 0.930 . S
H1397 C1412 0.960 . S
H1398 C1412 0.960 . S
H1399 C1412 0.960 . S
C1400 H1392 0.929 . S
C1400 C1401 1.377 1_565 S
C1400 C1402 1.384 1_565 S
C1401 C1400 1.377 1_545 S
C1401 C1407 1.390 . S
C1402 H1393 0.930 . S
C1402 C1400 1.384 1_545 S
C1402 C1403 1.372 . S
C1403 C1402 1.372 . S
C1403 C1404 1.400 . S
C1403 C1408 1.490 . S
C1404 H1394 0.930 . S
C1404 C1403 1.400 . S
C1404 C1407 1.386 . S
H1405 C1421 0.930 . S
H1406 C1422 0.931 . S
C1407 H1395 0.929 . S
C1407 C1401 1.390 . S
C1407 C1404 1.386 . S
C1408 C1403 1.490 . S
C1408 C1410 1.395 . S
C1408 C1411 1.403 . S
H1409 C1415 0.930 . S
C1410 H1396 0.930 . S
C1410 C1408 1.395 . S
C1410 C1413 1.403 . S
C1411 C1408 1.403 . S
C1411 C1412 1.524 . S
C1411 C1415 1.400 . S
C1412 H1397 0.960 . S
C1412 H1398 0.960 . S
C1412 H1399 0.960 . S
C1412 C1411 1.524 . S
C1413 C1410 1.403 . S
C1413 C1414 1.392 . S
C1413 C1417 1.495 . S
C1414 C1413 1.392 . S
C1414 C1415 1.385 . S
C1414 C1416 1.478 . S
C1415 H1409 0.930 . S
C1415 C1411 1.400 . S
C1415 C1414 1.385 . S
C1416 C1414 1.478 . S
C1416 C1418 1.381 . S
C1416 C1422 1.383 . S
C1417 C1413 1.495 . S
C1417 H1423 0.959 . S
C1417 H1424 0.961 . S
C1417 H1425 0.960 . S
C1418 C1416 1.381 . S
C1418 C1419 1.394 . S
C1418 H1426 0.930 . S
C1419 C1418 1.394 . S
C1419 C1420 1.373 . S
C1419 H1427 0.929 1_655 S
C1420 C1419 1.373 . S
C1420 C1421 1.396 . S
C1421 H1405 0.930 . S
C1421 C1420 1.396 . S
C1421 C1422 1.379 . S
C1422 H1406 0.931 . S
C1422 C1416 1.383 . S
C1422 C1421 1.379 . S
H1423 C1417 0.959 . S
H1424 C1417 0.961 . S
H1425 C1417 0.960 . S
H1426 C1418 0.930 . S
H1427 C1419 0.929 1_455 S
H1428 C1436 0.929 . S
H1429 C1438 0.930 . S
H1430 C1440 0.930 . S
H1431 C1443 0.929 . S
H1432 C1446 0.930 . S
H1433 C1448 0.960 . S
H1434 C1448 0.960 . S
H1435 C1448 0.960 . S
C1436 H1428 0.929 . S
C1436 C1437 1.377 . S
C1436 C1438 1.384 . S
C1437 C1436 1.377 . S
C1437 C1443 1.390 . S
C1438 H1429 0.930 . S
C1438 C1436 1.384 . S
C1438 C1439 1.372 . S
C1439 C1438 1.372 . S
C1439 C1440 1.400 . S
C1439 C1444 1.490 . S
C1440 H1430 0.930 . S
C1440 C1439 1.400 . S
C1440 C1443 1.386 . S
H1441 C1457 0.923 1_545 S
H1442 C1458 0.931 . S
C1443 H1431 0.929 . S
C1443 C1437 1.390 . S
C1443 C1440 1.386 . S
C1444 C1439 1.490 . S
C1444 C1446 1.395 . S
C1444 C1447 1.403 . S
H1445 C1451 0.930 . S
C1446 H1432 0.930 . S
C1446 C1444 1.395 . S
C1446 C1449 1.403 . S
C1447 C1444 1.403 . S
C1447 C1448 1.524 . S
C1447 C1451 1.400 . S
C1448 H1433 0.960 . S
C1448 H1434 0.960 . S
C1448 H1435 0.960 . S
C1448 C1447 1.524 . S
C1449 C1446 1.403 . S
C1449 C1450 1.392 . S
C1449 C1453 1.495 . S
C1450 C1449 1.392 . S
C1450 C1451 1.385 . S
C1450 C1452 1.478 . S
C1451 H1445 0.930 . S
C1451 C1447 1.400 . S
C1451 C1450 1.385 . S
C1452 C1450 1.478 . S
C1452 C1454 1.381 . S
C1452 C1458 1.383 . S
C1453 C1449 1.495 . S
C1453 H1459 0.959 . S
C1453 H1460 0.961 . S
C1453 H1461 0.960 . S
C1454 C1452 1.381 . S
C1454 C1455 1.394 . S
C1454 H1462 0.930 . S
C1455 C1454 1.394 . S
C1455 C1456 1.383 . S
C1455 H1463 0.929 . S
C1456 C1455 1.383 . S
C1456 C1457 1.373 . S
C1457 H1441 0.923 1_565 S
C1457 C1456 1.373 . S
C1457 C1458 1.390 . S
C1458 H1442 0.931 . S
C1458 C1452 1.383 . S
C1458 C1457 1.390 . S
H1459 C1453 0.959 . S
H1460 C1453 0.961 . S
H1461 C1453 0.960 . S
H1462 C1454 0.930 . S
H1463 C1455 0.929 . S
H1464 C1472 0.929 . S
H1465 C1474 0.930 . S
H1466 C1476 0.930 . S
H1467 C1479 0.929 . S
H1468 C1482 0.930 . S
H1469 C1484 0.960 . S
H1470 C1484 0.960 . S
H1471 C1484 0.960 . S
C1472 H1464 0.929 . S
C1472 C1473 1.377 . S
C1472 C1474 1.384 . S
C1473 C1472 1.377 . S
C1473 C1479 1.390 . S
C1474 H1465 0.930 . S
C1474 C1472 1.384 . S
C1474 C1475 1.372 . S
C1475 C1474 1.372 . S
C1475 C1476 1.400 . S
C1475 C1480 1.490 . S
C1476 H1466 0.930 . S
C1476 C1475 1.400 . S
C1476 C1479 1.386 . S
H1477 C1493 0.930 1_455 S
H1478 C1494 0.931 . S
C1479 H1467 0.929 . S
C1479 C1473 1.390 . S
C1479 C1476 1.386 . S
C1480 C1475 1.490 . S
C1480 C1482 1.395 1_554 S
C1480 C1483 1.403 . S
H1481 C1487 0.930 . S
C1482 H1468 0.930 . S
C1482 C1480 1.395 1_556 S
C1482 C1485 1.403 . S
C1483 C1480 1.403 . S
C1483 C1484 1.524 . S
C1483 C1487 1.400 . S
C1484 H1469 0.960 . S
C1484 H1470 0.960 . S
C1484 H1471 0.960 . S
C1484 C1483 1.524 . S
C1485 C1482 1.403 . S
C1485 C1486 1.392 . S
C1485 C1489 1.495 . S
C1486 C1485 1.392 . S
C1486 C1487 1.385 1_556 S
C1486 C1488 1.478 . S
C1487 H1481 0.930 . S
C1487 C1483 1.400 . S
C1487 C1486 1.385 1_554 S
C1488 C1486 1.478 . S
C1488 C1490 1.381 . S
C1488 C1494 1.383 . S
C1489 C1485 1.495 . S
C1489 H1495 0.959 . S
C1489 H1496 0.961 . S
C1489 H1497 0.960 . S
C1490 C1488 1.381 . S
C1490 C1491 1.394 . S
C1490 H1498 0.930 . S
C1491 C1490 1.394 . S
C1491 C1492 1.383 . S
C1491 H1499 0.929 . S
C1492 C1491 1.383 . S
C1492 C1493 1.377 . S
C1493 H1477 0.930 1_655 S
C1493 C1492 1.377 . S
C1493 C1494 1.379 . S
C1494 H1478 0.931 . S
C1494 C1488 1.383 . S
C1494 C1493 1.379 . S
H1495 C1489 0.959 . S
H1496 C1489 0.961 . S
H1497 C1489 0.960 . S
H1498 C1490 0.930 . S
H1499 C1491 0.929 . S
H1500 C1508 0.929 1_655 S
H1501 C1510 0.930 . S
H1502 C1512 0.930 . S
H1503 C1515 0.929 . S
H1504 C1518 0.930 . S
H1505 C1520 0.960 . S
H1506 C1520 0.960 . S
H1507 C1520 0.960 . S
C1508 H1500 0.929 1_455 S
C1508 C1509 1.377 . S
C1508 C1510 1.384 . S
C1509 C1508 1.377 . S
C1509 C1515 1.390 . S
C1510 H1501 0.930 . S
C1510 C1508 1.384 . S
C1510 C1511 1.372 . S
C1511 C1510 1.372 . S
C1511 C1512 1.400 . S
C1511 C1516 1.490 . S
C1512 H1502 0.930 . S
C1512 C1511 1.400 . S
C1512 C1515 1.386 . S
H1513 C1529 0.912 1_545 S
H1514 C1530 0.931 . S
C1515 H1503 0.929 . S
C1515 C1509 1.390 . S
C1515 C1512 1.386 . S
C1516 C1511 1.490 . S
C1516 C1518 1.395 . S
C1516 C1519 1.403 . S
H1517 C1523 0.930 . S
C1518 H1504 0.930 . S
C1518 C1516 1.395 . S
C1518 C1521 1.403 . S
C1519 C1516 1.403 . S
C1519 C1520 1.524 . S
C1519 C1523 1.400 . S
C1520 H1505 0.960 . S
C1520 H1506 0.960 . S
C1520 H1507 0.960 . S
C1520 C1519 1.524 . S
C1521 C1518 1.403 . S
C1521 C1522 1.392 . S
C1521 C1525 1.495 . S
C1522 C1521 1.392 . S
C1522 C1523 1.385 . S
C1522 C1524 1.478 . S
C1523 H1517 0.930 . S
C1523 C1519 1.400 . S
C1523 C1522 1.385 . S
C1524 C1522 1.478 . S
C1524 C1526 1.381 . S
C1524 C1530 1.383 . S
C1525 C1521 1.495 . S
C1525 H1531 0.959 . S
C1525 H1532 0.961 . S
C1525 H1533 0.960 . S
C1526 C1524 1.381 . S
C1526 C1527 1.394 . S
C1526 H1534 0.930 . S
C1527 C1526 1.394 . S
C1527 C1528 1.383 . S
C1527 H1535 0.929 . S
C1528 C1527 1.383 . S
C1528 C1529 1.383 . S
C1529 H1513 0.912 1_565 S
C1529 C1528 1.383 . S
C1529 C1530 1.391 . S
C1530 H1514 0.931 . S
C1530 C1524 1.383 . S
C1530 C1529 1.391 . S
H1531 C1525 0.959 . S
H1532 C1525 0.961 . S
H1533 C1525 0.960 . S
H1534 C1526 0.930 . S
H1535 C1527 0.929 . S
H1536 C1544 0.929 1_565 S
H1537 C1546 0.930 . S
H1538 C1548 0.930 . S
H1539 C1551 0.929 . S
H1540 C1554 0.930 . S
H1541 C1556 0.960 . S
H1542 C1556 0.960 . S
H1543 C1556 0.960 . S
C1544 H1536 0.929 1_545 S
C1544 C1545 1.377 . S
C1544 C1546 1.384 . S
C1545 C1544 1.377 . S
C1545 C1551 1.390 . S
C1546 H1537 0.930 . S
C1546 C1544 1.384 . S
C1546 C1547 1.372 . S
C1547 C1546 1.372 . S
C1547 C1548 1.400 . S
C1547 C1552 1.490 . S
C1548 H1538 0.930 . S
C1548 C1547 1.400 . S
C1548 C1551 1.386 . S
H1549 C1565 0.930 . S
H1550 C1566 0.931 . S
C1551 H1539 0.929 . S
C1551 C1545 1.390 . S
C1551 C1548 1.386 . S
C1552 C1547 1.490 . S
C1552 C1554 1.395 . S
C1552 C1555 1.403 . S
H1553 C1559 0.930 . S
C1554 H1540 0.930 . S
C1554 C1552 1.395 . S
C1554 C1557 1.403 . S
C1555 C1552 1.403 . S
C1555 C1556 1.524 . S
C1555 C1559 1.400 . S
C1556 H1541 0.960 . S
C1556 H1542 0.960 . S
C1556 H1543 0.960 . S
C1556 C1555 1.524 . S
C1557 C1554 1.403 . S
C1557 C1558 1.392 . S
C1557 C1561 1.495 . S
C1558 C1557 1.392 . S
C1558 C1559 1.385 . S
C1558 C1560 1.478 . S
C1559 H1553 0.930 . S
C1559 C1555 1.400 . S
C1559 C1558 1.385 . S
C1560 C1558 1.478 . S
C1560 C1562 1.381 . S
C1560 C1566 1.383 . S
C1561 C1557 1.495 . S
C1561 H1567 0.959 . S
C1561 H1568 0.961 . S
C1561 H1569 0.960 . S
C1562 C1560 1.381 . S
C1562 C1563 1.394 . S
C1562 H1570 0.930 . S
C1563 C1562 1.394 . S
C1563 C1564 1.383 . S
C1563 H1571 0.929 . S
C1564 C1563 1.383 . S
C1564 C1565 1.377 . S
C1565 H1549 0.930 . S
C1565 C1564 1.377 . S
C1565 C1566 1.379 . S
C1566 H1550 0.931 . S
C1566 C1560 1.383 . S
C1566 C1565 1.379 . S
H1567 C1561 0.959 . S
H1568 C1561 0.961 . S
H1569 C1561 0.960 . S
H1570 C1562 0.930 . S
H1571 C1563 0.929 . S
C717 C180 1.297 . S
C736 C3 1.295 . S
C753 C62 1.300 . S
C772 C239 1.315 . S
C789 C298 1.300 . S
C808 C121 1.316 . S
C825 C357 1.302 . S
C844 C534 1.280 . S
C861 C593 1.299 . S
C880 C416 1.281 . S
C897 C475 1.301 . S
C916 C652 1.315 . S
C933 C477 1.676 . S
C952 C5 1.671 . S
C969 C64 1.675 . S
C988 C536 1.677 . S
C1005 C123 1.675 . S
C1024 C595 1.677 . S
C1041 C182 1.674 . S
C1060 C654 1.667 . S
C1077 C359 1.674 . S
C1096 C241 1.669 . S
C1113 C418 1.676 . S
C1132 C300 1.673 . S
C1149 C446 1.595 . S
C1168 C33 1.591 . S
C1185 C92 1.595 . S
C1204 C505 1.591 . S
C1221 C151 1.595 . S
C1240 C564 1.601 . S
C1257 C210 1.597 . S
C1276 C623 1.603 . S
C1293 C682 1.595 . S
C1312 C269 1.590 . S
C1329 C328 1.599 . S
C1348 C387 1.595 . S
C1365 C642 1.480 1_455 S
C1384 C52 1.473 . S
C1401 C701 1.480 1_545 S
C1420 C111 1.473 1_655 S
C1437 C406 1.478 . S
C1456 C170 1.467 1_565 S
C1473 C229 1.478 . S
C1492 C465 1.467 1_655 S
C1509 C288 1.480 1_455 S
C1528 C524 1.469 1_565 S
C1545 C347 1.480 1_545 S
C1564 C583 1.483 . S
