# Generated by pormake.
# Topology wip, (6)-cn, num edge types: 1
# Building blocks:
#     Node 0, Type 0, BuildingBlock: BETDAH_clean_sbu_0, # of connection points: 6
#     Node 1, Type 0, BuildingBlock: BETDAH_clean_sbu_0, # of connection points: 6
#     Node 2, Type 0, BuildingBlock: BETDAH_clean_sbu_0, # of connection points: 6
#     Node 3, Type 0, BuildingBlock: BETDAH_clean_sbu_0, # of connection points: 6
#     Node 4, Type 0, BuildingBlock: BETDAH_clean_sbu_0, # of connection points: 6
#     Node 5, Type 0, BuildingBlock: BETDAH_clean_sbu_0, # of connection points: 6
#     Node 6, Type 0, BuildingBlock: BETDAH_clean_sbu_0, # of connection points: 6
#     Node 7, Type 0, BuildingBlock: BETDAH_clean_sbu_0, # of connection points: 6
#     Node 8, Type 0, BuildingBlock: BETDAH_clean_sbu_0, # of connection points: 6
#     Node 9, Type 0, BuildingBlock: BETDAH_clean_sbu_0, # of connection points: 6
#     Node 10, Type 0, BuildingBlock: BETDAH_clean_sbu_0, # of connection points: 6
#     Node 11, Type 0, BuildingBlock: BETDAH_clean_sbu_0, # of connection points: 6
#     Node 12, Type 0, BuildingBlock: BETDAH_clean_sbu_0, # of connection points: 6
#     Node 13, Type 0, BuildingBlock: BETDAH_clean_sbu_0, # of connection points: 6
#     Node 14, Type 0, BuildingBlock: BETDAH_clean_sbu_0, # of connection points: 6
#     Node 15, Type 0, BuildingBlock: BETDAH_clean_sbu_0, # of connection points: 6
#     Node 16, Type 0, BuildingBlock: BETDAH_clean_sbu_0, # of connection points: 6
#     Node 17, Type 0, BuildingBlock: BETDAH_clean_sbu_0, # of connection points: 6
#     Node 18, Type 0, BuildingBlock: BETDAH_clean_sbu_0, # of connection points: 6
#     Node 19, Type 0, BuildingBlock: BETDAH_clean_sbu_0, # of connection points: 6
#     Node 20, Type 0, BuildingBlock: BETDAH_clean_sbu_0, # of connection points: 6
#     Node 21, Type 0, BuildingBlock: BETDAH_clean_sbu_0, # of connection points: 6
#     Node 22, Type 0, BuildingBlock: BETDAH_clean_sbu_0, # of connection points: 6
#     Node 23, Type 0, BuildingBlock: BETDAH_clean_sbu_0, # of connection points: 6
#     Node 24, Type 0, BuildingBlock: BETDAH_clean_sbu_0, # of connection points: 6
#     Node 25, Type 0, BuildingBlock: BETDAH_clean_sbu_0, # of connection points: 6
#     Node 26, Type 0, BuildingBlock: BETDAH_clean_sbu_0, # of connection points: 6
#     Node 27, Type 0, BuildingBlock: BETDAH_clean_sbu_0, # of connection points: 6
#     Node 28, Type 0, BuildingBlock: BETDAH_clean_sbu_0, # of connection points: 6
#     Node 29, Type 0, BuildingBlock: BETDAH_clean_sbu_0, # of connection points: 6
#     Node 30, Type 0, BuildingBlock: BETDAH_clean_sbu_0, # of connection points: 6
#     Node 31, Type 0, BuildingBlock: BETDAH_clean_sbu_0, # of connection points: 6
#     Edge 32, Type (0, 0), BuildingBlock: XIVTED_clean_linker_0, # of connection points: 2
#     Edge 33, Type (0, 0), BuildingBlock: XIVTED_clean_linker_0, # of connection points: 2
#     Edge 34, Type (0, 0), BuildingBlock: XIVTED_clean_linker_0, # of connection points: 2
#     Edge 35, Type (0, 0), BuildingBlock: XIVTED_clean_linker_0, # of connection points: 2
#     Edge 36, Type (0, 0), BuildingBlock: XIVTED_clean_linker_0, # of connection points: 2
#     Edge 37, Type (0, 0), BuildingBlock: XIVTED_clean_linker_0, # of connection points: 2
#     Edge 38, Type (0, 0), BuildingBlock: XIVTED_clean_linker_0, # of connection points: 2
#     Edge 39, Type (0, 0), BuildingBlock: XIVTED_clean_linker_0, # of connection points: 2
#     Edge 40, Type (0, 0), BuildingBlock: XIVTED_clean_linker_0, # of connection points: 2
#     Edge 41, Type (0, 0), BuildingBlock: XIVTED_clean_linker_0, # of connection points: 2
#     Edge 42, Type (0, 0), BuildingBlock: XIVTED_clean_linker_0, # of connection points: 2
#     Edge 43, Type (0, 0), BuildingBlock: XIVTED_clean_linker_0, # of connection points: 2
#     Edge 44, Type (0, 0), BuildingBlock: XIVTED_clean_linker_0, # of connection points: 2
#     Edge 45, Type (0, 0), BuildingBlock: XIVTED_clean_linker_0, # of connection points: 2
#     Edge 46, Type (0, 0), BuildingBlock: XIVTED_clean_linker_0, # of connection points: 2
#     Edge 47, Type (0, 0), BuildingBlock: XIVTED_clean_linker_0, # of connection points: 2
#     Edge 48, Type (0, 0), BuildingBlock: XIVTED_clean_linker_0, # of connection points: 2
#     Edge 49, Type (0, 0), BuildingBlock: XIVTED_clean_linker_0, # of connection points: 2
#     Edge 50, Type (0, 0), BuildingBlock: XIVTED_clean_linker_0, # of connection points: 2
#     Edge 51, Type (0, 0), BuildingBlock: XIVTED_clean_linker_0, # of connection points: 2
#     Edge 52, Type (0, 0), BuildingBlock: XIVTED_clean_linker_0, # of connection points: 2
#     Edge 53, Type (0, 0), BuildingBlock: XIVTED_clean_linker_0, # of connection points: 2
#     Edge 54, Type (0, 0), BuildingBlock: XIVTED_clean_linker_0, # of connection points: 2
#     Edge 55, Type (0, 0), BuildingBlock: XIVTED_clean_linker_0, # of connection points: 2
#     Edge 56, Type (0, 0), BuildingBlock: XIVTED_clean_linker_0, # of connection points: 2
#     Edge 57, Type (0, 0), BuildingBlock: XIVTED_clean_linker_0, # of connection points: 2
#     Edge 58, Type (0, 0), BuildingBlock: XIVTED_clean_linker_0, # of connection points: 2
#     Edge 59, Type (0, 0), BuildingBlock: XIVTED_clean_linker_0, # of connection points: 2
#     Edge 60, Type (0, 0), BuildingBlock: XIVTED_clean_linker_0, # of connection points: 2
#     Edge 61, Type (0, 0), BuildingBlock: XIVTED_clean_linker_0, # of connection points: 2
#     Edge 62, Type (0, 0), BuildingBlock: XIVTED_clean_linker_0, # of connection points: 2
#     Edge 63, Type (0, 0), BuildingBlock: XIVTED_clean_linker_0, # of connection points: 2
#     Edge 64, Type (0, 0), BuildingBlock: XIVTED_clean_linker_0, # of connection points: 2
#     Edge 65, Type (0, 0), BuildingBlock: XIVTED_clean_linker_0, # of connection points: 2
#     Edge 66, Type (0, 0), BuildingBlock: XIVTED_clean_linker_0, # of connection points: 2
#     Edge 67, Type (0, 0), BuildingBlock: XIVTED_clean_linker_0, # of connection points: 2
#     Edge 68, Type (0, 0), BuildingBlock: XIVTED_clean_linker_0, # of connection points: 2
#     Edge 69, Type (0, 0), BuildingBlock: XIVTED_clean_linker_0, # of connection points: 2
#     Edge 70, Type (0, 0), BuildingBlock: XIVTED_clean_linker_0, # of connection points: 2
#     Edge 71, Type (0, 0), BuildingBlock: XIVTED_clean_linker_0, # of connection points: 2
#     Edge 72, Type (0, 0), BuildingBlock: XIVTED_clean_linker_0, # of connection points: 2
#     Edge 73, Type (0, 0), BuildingBlock: XIVTED_clean_linker_0, # of connection points: 2
#     Edge 74, Type (0, 0), BuildingBlock: XIVTED_clean_linker_0, # of connection points: 2
#     Edge 75, Type (0, 0), BuildingBlock: XIVTED_clean_linker_0, # of connection points: 2
#     Edge 76, Type (0, 0), BuildingBlock: XIVTED_clean_linker_0, # of connection points: 2
#     Edge 77, Type (0, 0), BuildingBlock: XIVTED_clean_linker_0, # of connection points: 2
#     Edge 78, Type (0, 0), BuildingBlock: XIVTED_clean_linker_0, # of connection points: 2
#     Edge 79, Type (0, 0), BuildingBlock: XIVTED_clean_linker_0, # of connection points: 2
#     Edge 80, Type (0, 0), BuildingBlock: XIVTED_clean_linker_0, # of connection points: 2
#     Edge 81, Type (0, 0), BuildingBlock: XIVTED_clean_linker_0, # of connection points: 2
#     Edge 82, Type (0, 0), BuildingBlock: XIVTED_clean_linker_0, # of connection points: 2
#     Edge 83, Type (0, 0), BuildingBlock: XIVTED_clean_linker_0, # of connection points: 2
#     Edge 84, Type (0, 0), BuildingBlock: XIVTED_clean_linker_0, # of connection points: 2
#     Edge 85, Type (0, 0), BuildingBlock: XIVTED_clean_linker_0, # of connection points: 2
#     Edge 86, Type (0, 0), BuildingBlock: XIVTED_clean_linker_0, # of connection points: 2
#     Edge 87, Type (0, 0), BuildingBlock: XIVTED_clean_linker_0, # of connection points: 2
#     Edge 88, Type (0, 0), BuildingBlock: XIVTED_clean_linker_0, # of connection points: 2
#     Edge 89, Type (0, 0), BuildingBlock: XIVTED_clean_linker_0, # of connection points: 2
#     Edge 90, Type (0, 0), BuildingBlock: XIVTED_clean_linker_0, # of connection points: 2
#     Edge 91, Type (0, 0), BuildingBlock: XIVTED_clean_linker_0, # of connection points: 2
#     Edge 92, Type (0, 0), BuildingBlock: XIVTED_clean_linker_0, # of connection points: 2
#     Edge 93, Type (0, 0), BuildingBlock: XIVTED_clean_linker_0, # of connection points: 2
#     Edge 94, Type (0, 0), BuildingBlock: XIVTED_clean_linker_0, # of connection points: 2
#     Edge 95, Type (0, 0), BuildingBlock: XIVTED_clean_linker_0, # of connection points: 2
#     Edge 96, Type (0, 0), BuildingBlock: XIVTED_clean_linker_0, # of connection points: 2
#     Edge 97, Type (0, 0), BuildingBlock: XIVTED_clean_linker_0, # of connection points: 2
#     Edge 98, Type (0, 0), BuildingBlock: XIVTED_clean_linker_0, # of connection points: 2
#     Edge 99, Type (0, 0), BuildingBlock: XIVTED_clean_linker_0, # of connection points: 2
#     Edge 100, Type (0, 0), BuildingBlock: XIVTED_clean_linker_0, # of connection points: 2
#     Edge 101, Type (0, 0), BuildingBlock: XIVTED_clean_linker_0, # of connection points: 2
#     Edge 102, Type (0, 0), BuildingBlock: XIVTED_clean_linker_0, # of connection points: 2
#     Edge 103, Type (0, 0), BuildingBlock: XIVTED_clean_linker_0, # of connection points: 2
#     Edge 104, Type (0, 0), BuildingBlock: XIVTED_clean_linker_0, # of connection points: 2
#     Edge 105, Type (0, 0), BuildingBlock: XIVTED_clean_linker_0, # of connection points: 2
#     Edge 106, Type (0, 0), BuildingBlock: XIVTED_clean_linker_0, # of connection points: 2
#     Edge 107, Type (0, 0), BuildingBlock: XIVTED_clean_linker_0, # of connection points: 2
#     Edge 108, Type (0, 0), BuildingBlock: XIVTED_clean_linker_0, # of connection points: 2
#     Edge 109, Type (0, 0), BuildingBlock: XIVTED_clean_linker_0, # of connection points: 2
#     Edge 110, Type (0, 0), BuildingBlock: XIVTED_clean_linker_0, # of connection points: 2
#     Edge 111, Type (0, 0), BuildingBlock: XIVTED_clean_linker_0, # of connection points: 2
#     Edge 112, Type (0, 0), BuildingBlock: XIVTED_clean_linker_0, # of connection points: 2
#     Edge 113, Type (0, 0), BuildingBlock: XIVTED_clean_linker_0, # of connection points: 2
#     Edge 114, Type (0, 0), BuildingBlock: XIVTED_clean_linker_0, # of connection points: 2
#     Edge 115, Type (0, 0), BuildingBlock: XIVTED_clean_linker_0, # of connection points: 2
#     Edge 116, Type (0, 0), BuildingBlock: XIVTED_clean_linker_0, # of connection points: 2
#     Edge 117, Type (0, 0), BuildingBlock: XIVTED_clean_linker_0, # of connection points: 2
#     Edge 118, Type (0, 0), BuildingBlock: XIVTED_clean_linker_0, # of connection points: 2
#     Edge 119, Type (0, 0), BuildingBlock: XIVTED_clean_linker_0, # of connection points: 2
#     Edge 120, Type (0, 0), BuildingBlock: XIVTED_clean_linker_0, # of connection points: 2
#     Edge 121, Type (0, 0), BuildingBlock: XIVTED_clean_linker_0, # of connection points: 2
#     Edge 122, Type (0, 0), BuildingBlock: XIVTED_clean_linker_0, # of connection points: 2
#     Edge 123, Type (0, 0), BuildingBlock: XIVTED_clean_linker_0, # of connection points: 2
#     Edge 124, Type (0, 0), BuildingBlock: XIVTED_clean_linker_0, # of connection points: 2
#     Edge 125, Type (0, 0), BuildingBlock: XIVTED_clean_linker_0, # of connection points: 2
#     Edge 126, Type (0, 0), BuildingBlock: XIVTED_clean_linker_0, # of connection points: 2
#     Edge 127, Type (0, 0), BuildingBlock: XIVTED_clean_linker_0, # of connection points: 2
# Relax obj value: 0.337
# Max RMSD: 0.291
# Mean RMSD: 0.229
data_MOF--net-wip--node1-BETDAH_clean_sbu_0--edge1-XIVTED_clean_linker_0
_symmetry_space_group_name_H-M    P1
_symmetry_Int_Tables_number       1
_symmetry_cell_setting            triclinic
loop_
_symmetry_equiv_pos_as_xyz
'x, y, z'
_cell_length_a     65.693879
_cell_length_b     61.982142
_cell_length_c     35.477961
_cell_angle_alpha  94.343751
_cell_angle_beta   86.00498
_cell_angle_gamma 89.079438
loop_
_atom_site_label
_atom_site_type_symbol
_atom_site_fract_x
_atom_site_fract_y
_atom_site_fract_z
_atom_type_partial_charge
Ho0 Ho 0.05075 0.3986 0.12269 0.0
Ho1 Ho 0.07555 0.43433 0.07785 0.0
C2 C 0.0691 0.4419 0.16754 0.0
C3 C 0.04269 0.36783 0.16614 0.0
C4 C 0.03381 0.3694 0.20549 0.0
C5 C 0.0351 0.35193 0.22815 0.0
C6 C 0.02853 0.35446 0.26673 0.0
C7 C 0.02074 0.37458 0.28321 0.0
C8 C 0.01909 0.39185 0.26001 0.0
C9 C 0.02562 0.38931 0.22165 0.0
C10 C 0.0273 0.43471 0.11994 0.0
C11 C 0.04456 0.40069 0.03479 0.0
C12 C 0.0907 0.46019 0.02923 0.0
C13 C 0.08857 0.46851 0.99107 0.0
C14 C 0.07233 0.48231 0.98376 0.0
C15 C 0.07198 0.49166 0.94881 0.0
C16 C 0.08791 0.48759 0.92012 0.0
C17 C 0.10389 0.47338 0.92734 0.0
C18 C 0.10422 0.46407 0.96221 0.0
C19 C 0.09772 0.40407 0.11068 0.0
O20 O 0.06257 0.42169 0.16835 0.0
O21 O 0.07309 0.45151 0.13569 0.0
O22 O 0.03058 0.37339 0.14053 0.0
O23 O 0.06069 0.37633 0.16189 0.0
O24 O 0.02139 0.4176 0.1361 0.0
O25 O 0.04505 0.43079 0.10477 0.0
O26 O 0.05528 0.41862 0.0355 0.0
O27 O 0.04291 0.38812 0.06347 0.0
O28 O 0.0966 0.43991 0.02999 0.0
O29 O 0.07736 0.46651 0.05745 0.0
O30 O 0.10332 0.42365 0.10568 0.0
O31 O 0.08132 0.40085 0.09417 0.0
H32 H 0.04165 0.33654 0.21626 0.0
H33 H 0.0302 0.34091 0.2839 0.0
H34 H 0.01291 0.40746 0.27159 0.0
H35 H 0.02473 0.40309 0.20479 0.0
H36 H 0.06002 0.48622 1.00525 0.0
H37 H 0.0592 0.50219 0.94439 0.0
H38 H 0.1166 0.46997 0.90652 0.0
H39 H 0.11712 0.45377 0.967 0.0
Ho40 Ho 0.82986 0.81297 0.37933 0.0
Ho41 Ho 0.80098 0.84271 0.34039 0.0
C42 C 0.79399 0.84265 0.42997 0.0
C43 C 0.85433 0.79689 0.42504 0.0
C44 C 0.85339 0.79075 0.46489 0.0
C45 C 0.84562 0.80496 0.49555 0.0
C46 C 0.84526 0.79872 0.53288 0.0
C47 C 0.85277 0.77816 0.54054 0.0
C48 C 0.86039 0.764 0.50965 0.0
C49 C 0.8607 0.77022 0.47244 0.0
C50 C 0.79503 0.79395 0.35891 0.0
C51 C 0.83193 0.80811 0.29094 0.0
C52 C 0.77613 0.86035 0.2969 0.0
C53 C 0.76678 0.85788 0.25969 0.0
C54 C 0.74568 0.86158 0.25888 0.0
C55 C 0.73635 0.86112 0.22445 0.0
C56 C 0.74783 0.85693 0.18951 0.0
C57 C 0.76904 0.85306 0.19034 0.0
C58 C 0.77839 0.85352 0.22498 0.0
C59 C 0.83457 0.86108 0.36857 0.0
O60 O 0.81095 0.83058 0.42849 0.0
O61 O 0.78589 0.84845 0.39901 0.0
O62 O 0.84397 0.78507 0.40137 0.0
O63 O 0.8531 0.81748 0.41952 0.0
O64 O 0.81294 0.78463 0.35608 0.0
O65 O 0.79687 0.81334 0.37158 0.0
O66 O 0.81402 0.81841 0.29431 0.0
O67 O 0.84344 0.80691 0.3199 0.0
O68 O 0.79558 0.86462 0.2971 0.0
O69 O 0.77028 0.84725 0.32266 0.0
O70 O 0.81689 0.8708 0.36904 0.0
O71 O 0.83363 0.84274 0.35103 0.0
H72 H 0.83993 0.82095 0.49075 0.0
H73 H 0.83946 0.81018 0.5558 0.0
H74 H 0.86599 0.74794 0.51414 0.0
H75 H 0.86674 0.75893 0.44941 0.0
H76 H 0.73636 0.86528 0.28506 0.0
H77 H 0.72011 0.86457 0.22532 0.0
H78 H 0.77842 0.84952 0.16422 0.0
H79 H 0.79472 0.85066 0.22453 0.0
Ho80 Ho 0.43606 0.59101 0.66608 0.0
Ho81 Ho 0.40971 0.56396 0.61217 0.0
C82 C 0.40735 0.55393 0.69915 0.0
C83 C 0.45213 0.61918 0.71227 0.0
C84 C 0.45588 0.61972 0.75293 0.0
C85 C 0.44514 0.60626 0.77715 0.0
C86 C 0.44921 0.60644 0.81543 0.0
C87 C 0.46415 0.62005 0.83035 0.0
C88 C 0.47479 0.63355 0.80587 0.0
C89 C 0.4707 0.63335 0.7676 0.0
C90 C 0.44862 0.5499 0.65221 0.0
C91 C 0.44582 0.5933 0.57539 0.0
C92 C 0.39534 0.54028 0.55614 0.0
C93 C 0.39984 0.53119 0.51546 0.0
C94 C 0.39717 0.54367 0.48439 0.0
C95 C 0.39923 0.53428 0.44662 0.0
C96 C 0.40397 0.51201 0.43832 0.0
C97 C 0.40681 0.49966 0.46953 0.0
C98 C 0.40473 0.50902 0.50719 0.0
C99 C 0.38893 0.59486 0.6617 0.0
O100 O 0.41574 0.57305 0.70617 0.0
O101 O 0.40612 0.54504 0.66411 0.0
O102 O 0.46288 0.60484 0.69 0.0
O103 O 0.43302 0.61996 0.70424 0.0
O104 O 0.44964 0.56113 0.68431 0.0
O105 O 0.44192 0.56134 0.62733 0.0
O106 O 0.42967 0.58128 0.57036 0.0
O107 O 0.45126 0.59961 0.60976 0.0
O108 O 0.39155 0.56112 0.56302 0.0
O109 O 0.40554 0.53235 0.58268 0.0
O110 O 0.38154 0.57677 0.64842 0.0
O111 O 0.40633 0.59658 0.64401 0.0
H112 H 0.43364 0.59556 0.76644 0.0
H113 H 0.44051 0.59603 0.8334 0.0
H114 H 0.4866 0.644 0.81609 0.0
H115 H 0.47926 0.64374 0.74935 0.0
H116 H 0.39316 0.56071 0.4892 0.0
H117 H 0.39713 0.54462 0.42388 0.0
H118 H 0.41009 0.48246 0.4651 0.0
H119 H 0.40649 0.49867 0.53007 0.0
Ho120 Ho 0.68114 0.18525 0.85091 0.0
Ho121 Ho 0.70327 0.14681 0.88001 0.0
C122 C 0.7092 0.15243 0.79162 0.0
C123 C 0.66756 0.21689 0.81564 0.0
C124 C 0.67011 0.22517 0.77788 0.0
C125 C 0.68942 0.22694 0.75885 0.0
C126 C 0.69112 0.23462 0.72269 0.0
C127 C 0.67354 0.24035 0.7049 0.0
C128 C 0.65428 0.23833 0.72395 0.0
C129 C 0.65261 0.23088 0.76014 0.0
C130 C 0.65638 0.15367 0.87248 0.0
C131 C 0.68391 0.18668 0.94116 0.0
C132 C 0.7133 0.11376 0.91577 0.0
C133 C 0.72464 0.11085 0.94946 0.0
C134 C 0.71733 0.09657 0.97579 0.0
C135 C 0.72695 0.09473 1.00934 0.0
C136 C 0.74419 0.10707 1.01717 0.0
C137 C 0.75169 0.12108 0.99024 0.0
C138 C 0.74194 0.12306 0.95684 0.0
C139 C 0.72709 0.18116 0.86813 0.0
O140 O 0.70171 0.17223 0.80052 0.0
O141 O 0.70789 0.13756 0.81669 0.0
O142 O 0.65869 0.19822 0.81675 0.0
O143 O 0.68286 0.21868 0.83737 0.0
O144 O 0.65204 0.17413 0.87674 0.0
O145 O 0.6738 0.15025 0.8548 0.0
O146 O 0.69178 0.1666 0.93527 0.0
O147 O 0.68 0.19818 0.91228 0.0
O148 O 0.72376 0.11977 0.88582 0.0
O149 O 0.6959 0.12428 0.92233 0.0
O150 O 0.734 0.1614 0.86662 0.0
O151 O 0.70873 0.1812 0.88007 0.0
H152 H 0.70314 0.22238 0.77183 0.0
H153 H 0.70614 0.2359 0.70849 0.0
H154 H 0.64051 0.24289 0.71115 0.0
H155 H 0.63759 0.22956 0.77435 0.0
H156 H 0.70386 0.0872 0.97078 0.0
H157 H 0.72047 0.08409 0.02963 0.0
H158 H 0.76506 0.13062 0.99499 0.0
H159 H 0.74777 0.13435 0.93708 0.0
Ho160 Ho 0.05017 0.59294 0.63833 0.0
Ho161 Ho 0.0792 0.56176 0.58582 0.0
C162 C 0.08188 0.56133 0.67578 0.0
C163 C 0.02669 0.61368 0.69088 0.0
C164 C 0.02213 0.61437 0.73228 0.0
C165 C 0.01666 0.59584 0.75084 0.0
C166 C 0.01162 0.59743 0.79001 0.0
C167 C 0.01203 0.61754 0.8113 0.0
C168 C 0.01798 0.63587 0.79256 0.0
C169 C 0.02286 0.63431 0.75353 0.0
C170 C 0.0823 0.61044 0.60052 0.0
C171 C 0.03957 0.58645 0.55211 0.0
C172 C 0.10433 0.54623 0.53074 0.0
C173 C 0.1007 0.53674 0.49267 0.0
C174 C 0.11683 0.53344 0.46473 0.0
C175 C 0.11324 0.52401 0.42873 0.0
C176 C 0.09347 0.51767 0.42033 0.0
C177 C 0.07733 0.52141 0.44834 0.0
C178 C 0.0809 0.53091 0.48412 0.0
C179 C 0.04772 0.54248 0.61892 0.0
O180 O 0.06455 0.57265 0.67931 0.0
O181 O 0.09262 0.55772 0.6425 0.0
O182 O 0.04473 0.62031 0.67947 0.0
O183 O 0.02092 0.59671 0.67033 0.0
O184 O 0.06427 0.6194 0.60596 0.0
O185 O 0.0825 0.59303 0.6166 0.0
O186 O 0.05716 0.57527 0.54516 0.0
O187 O 0.03258 0.59327 0.58691 0.0
O188 O 0.09759 0.53503 0.5586 0.0
O189 O 0.09981 0.56684 0.5371 0.0
O190 O 0.06469 0.5324 0.6072 0.0
O191 O 0.04741 0.56123 0.60754 0.0
H192 H 0.01605 0.58021 0.73513 0.0
H193 H 0.00698 0.583 0.80341 0.0
H194 H 0.01893 0.65152 0.80805 0.0
H195 H 0.02713 0.64878 0.73984 0.0
H196 H 0.13218 0.53797 0.47085 0.0
H197 H 0.12599 0.52122 0.40778 0.0
H198 H 0.06189 0.51704 0.44255 0.0
H199 H 0.06822 0.53356 0.50528 0.0
Ho200 Ho 0.65517 0.80712 0.89642 0.0
Ho201 Ho 0.68402 0.83626 0.85243 0.0
C202 C 0.67986 0.845 0.94231 0.0
C203 C 0.63684 0.7835 0.94516 0.0
C204 C 0.63899 0.77772 0.98443 0.0
C205 C 0.65694 0.78178 1.00287 0.0
C206 C 0.65878 0.77546 0.03972 0.0
C207 C 0.64271 0.76491 0.05884 0.0
C208 C 0.62469 0.7612 0.04022 0.0
C209 C 0.62288 0.76752 1.00351 0.0
C210 C 0.63677 0.83371 0.85056 0.0
C211 C 0.6663 0.79187 0.81076 0.0
C212 C 0.70106 0.86082 0.80388 0.0
C213 C 0.70371 0.86111 0.7624 0.0
C214 C 0.70052 0.8424 0.73891 0.0
C215 C 0.70677 0.84144 0.70035 0.0
C216 C 0.71631 0.85917 0.6846 0.0
C217 C 0.7182 0.87839 0.70773 0.0
C218 C 0.71201 0.8793 0.74639 0.0
C219 C 0.70308 0.8069 0.8906 0.0
O220 O 0.67013 0.82655 0.9424 0.0
O221 O 0.68458 0.85427 0.91038 0.0
O222 O 0.63137 0.80353 0.9409 0.0
O223 O 0.65115 0.7761 0.91972 0.0
O224 O 0.63036 0.81482 0.85856 0.0
O225 O 0.6515 0.83856 0.87077 0.0
O226 O 0.67388 0.81142 0.80714 0.0
O227 O 0.66056 0.78505 0.84417 0.0
O228 O 0.71043 0.8448 0.81779 0.0
O229 O 0.68269 0.86458 0.81997 0.0
O230 O 0.70999 0.82596 0.8851 0.0
O231 O 0.68714 0.80378 0.87321 0.0
H232 H 0.6696 0.78961 0.98865 0.0
H233 H 0.67295 0.77846 0.0529 0.0
H234 H 0.61185 0.75352 0.05413 0.0
H235 H 0.60887 0.76432 0.98988 0.0
H236 H 0.69419 0.82817 0.75067 0.0
H237 H 0.70487 0.82651 0.68313 0.0
H238 H 0.7256 0.89226 0.69648 0.0
H239 H 0.71467 0.89384 0.76415 0.0
Ho240 Ho 0.45893 0.41251 0.11264 0.0
Ho241 Ho 0.42338 0.4356 0.07657 0.0
C242 C 0.4248 0.43985 0.16832 0.0
C243 C 0.4866 0.39627 0.1513 0.0
C244 C 0.49501 0.39989 0.18849 0.0
C245 C 0.4889 0.41778 0.21354 0.0
C246 C 0.49603 0.41989 0.24991 0.0
C247 C 0.50942 0.40414 0.26171 0.0
C248 C 0.51583 0.38655 0.23599 0.0
C249 C 0.50867 0.38446 0.19977 0.0
C250 C 0.43048 0.38751 0.0793 0.0
C251 C 0.46637 0.4198 0.02471 0.0
C252 C 0.39337 0.44237 0.03503 0.0
C253 C 0.39149 0.45354 1.00023 0.0
C254 C 0.37907 0.44508 0.97231 0.0
C255 C 0.37776 0.45523 0.93857 0.0
C256 C 0.38879 0.47406 0.93239 0.0
C257 C 0.40133 0.48233 0.96039 0.0
C258 C 0.40274 0.47213 0.99387 0.0
C259 C 0.45095 0.46304 0.10057 0.0
O260 O 0.44382 0.43242 0.16258 0.0
O261 O 0.41236 0.43961 0.13994 0.0
O262 O 0.46779 0.38963 0.15173 0.0
O263 O 0.49038 0.41087 0.1271 0.0
O264 O 0.44983 0.38298 0.07714 0.0
O265 O 0.42727 0.40467 0.10033 0.0
O266 O 0.44687 0.42667 0.02553 0.0
O267 O 0.47501 0.41545 0.05595 0.0
O268 O 0.3968 0.45455 0.06558 0.0
O269 O 0.40473 0.42479 0.0311 0.0
O270 O 0.43267 0.4691 0.09375 0.0
O271 O 0.45446 0.44363 0.08817 0.0
H272 H 0.47839 0.42989 0.20522 0.0
H273 H 0.49095 0.43374 0.26886 0.0
H274 H 0.52583 0.37395 0.24424 0.0
H275 H 0.51345 0.37049 0.18082 0.0
H276 H 0.37048 0.43058 0.97654 0.0
H277 H 0.36797 0.44849 0.91754 0.0
H278 H 0.41037 0.49652 0.95616 0.0
H279 H 0.41277 0.47869 1.01465 0.0
Ho280 Ho 0.82911 0.1753 0.49357 0.0
Ho281 Ho 0.7994 0.14406 0.45345 0.0
C282 C 0.79638 0.14602 0.54278 0.0
C283 C 0.8453 0.20194 0.54268 0.0
C284 C 0.84066 0.21185 0.5823 0.0
C285 C 0.84348 0.2341 0.59046 0.0
C286 C 0.8402 0.24373 0.62767 0.0
C287 C 0.83397 0.23141 0.65813 0.0
C288 C 0.83093 0.20909 0.64975 0.0
C289 C 0.83424 0.19946 0.61247 0.0
C290 C 0.84779 0.14352 0.44472 0.0
C291 C 0.82299 0.1817 0.40691 0.0
C292 C 0.7846 0.11656 0.40484 0.0
C293 C 0.78557 0.11461 0.36304 0.0
C294 C 0.78945 0.09443 0.34302 0.0
C295 C 0.78953 0.09238 0.30343 0.0
C296 C 0.78566 0.11053 0.28317 0.0
C297 C 0.78237 0.13083 0.30341 0.0
C298 C 0.7824 0.13286 0.34282 0.0
C299 C 0.78219 0.18253 0.48338 0.0
O300 O 0.80792 0.16324 0.54026 0.0
O301 O 0.79341 0.13297 0.5124 0.0
O302 O 0.84968 0.18111 0.53827 0.0
O303 O 0.83396 0.20826 0.5164 0.0
O304 O 0.85584 0.16174 0.45561 0.0
O305 O 0.83156 0.1416 0.46638 0.0
O306 O 0.81326 0.16302 0.40611 0.0
O307 O 0.8287 0.19156 0.43899 0.0
O308 O 0.77427 0.13325 0.42141 0.0
O309 O 0.80165 0.11302 0.42049 0.0
O310 O 0.77263 0.16431 0.48114 0.0
O311 O 0.79993 0.1788 0.46875 0.0
H312 H 0.84856 0.24409 0.568 0.0
H313 H 0.84305 0.26083 0.63258 0.0
H314 H 0.82584 0.19897 0.67199 0.0
H315 H 0.8319 0.18226 0.60735 0.0
H316 H 0.79218 0.08019 0.35804 0.0
H317 H 0.79247 0.07657 0.28873 0.0
H318 H 0.77908 0.14514 0.28899 0.0
H319 H 0.77956 0.14871 0.35748 0.0
Ho320 Ho 0.91777 0.56954 0.29513 0.0
Ho321 Ho 0.94307 0.60499 0.25077 0.0
C322 C 0.94892 0.60253 0.33891 0.0
C323 C 0.90201 0.54393 0.34353 0.0
C324 C 0.90385 0.5359 0.38197 0.0
C325 C 0.9194 0.52125 0.3894 0.0
C326 C 0.91945 0.51229 0.42473 0.0
C327 C 0.9039 0.51761 0.45367 0.0
C328 C 0.88863 0.53262 0.44631 0.0
C329 C 0.88858 0.54154 0.41106 0.0
C330 C 0.89599 0.59981 0.26144 0.0
C331 C 0.92434 0.56208 0.20549 0.0
C332 C 0.95134 0.63651 0.20908 0.0
C333 C 0.96009 0.63688 0.16969 0.0
C334 C 0.94956 0.64802 0.14382 0.0
C335 C 0.95607 0.64635 0.10533 0.0
C336 C 0.97333 0.63353 0.09188 0.0
C337 C 0.98416 0.62283 0.11811 0.0
C338 C 0.97755 0.62439 0.15656 0.0
C339 C 0.96619 0.56869 0.25329 0.0
O340 O 0.93797 0.58478 0.33802 0.0
O341 O 0.95078 0.6151 0.31027 0.0
O342 O 0.89624 0.56422 0.34232 0.0
O343 O 0.91551 0.53741 0.31568 0.0
O344 O 0.89022 0.58032 0.26679 0.0
O345 O 0.91229 0.60299 0.27838 0.0
O346 O 0.93113 0.58221 0.20475 0.0
O347 O 0.92035 0.55241 0.23729 0.0
O348 O 0.96342 0.6304 0.23435 0.0
O349 O 0.93341 0.62781 0.21238 0.0
O350 O 0.97223 0.58575 0.23703 0.0
O351 O 0.9484 0.57269 0.26834 0.0
H352 H 0.93137 0.51639 0.36775 0.0
H353 H 0.93169 0.50109 0.42925 0.0
H354 H 0.87622 0.53699 0.46735 0.0
H355 H 0.87619 0.5525 0.40621 0.0
H356 H 0.93585 0.65744 0.15323 0.0
H357 H 0.94714 0.65453 0.08598 0.0
H358 H 0.99767 0.61309 0.10891 0.0
H359 H 0.98584 0.61539 0.17579 0.0
Ho360 Ho 0.19635 0.14943 0.02082 0.0
Ho361 Ho 0.17253 0.17884 0.97345 0.0
C362 C 0.17376 0.1924 0.06308 0.0
C363 C 0.21823 0.13071 0.068 0.0
C364 C 0.22689 0.13339 0.10593 0.0
C365 C 0.24039 0.14998 0.11569 0.0
C366 C 0.2494 0.15084 0.15069 0.0
C367 C 0.2452 0.13513 0.17688 0.0
C368 C 0.23148 0.11875 0.16702 0.0
C369 C 0.22252 0.1179 0.13216 0.0
C370 C 0.15985 0.13469 0.99788 0.0
C371 C 0.19858 0.13874 0.93157 0.0
C372 C 0.149 0.20123 0.93479 0.0
C373 C 0.14913 0.20721 0.89486 0.0
C374 C 0.14759 0.19159 0.86429 0.0
C375 C 0.14764 0.19773 0.82696 0.0
C376 C 0.14923 0.21964 0.81916 0.0
C377 C 0.15085 0.23517 0.84988 0.0
C378 C 0.15074 0.22904 0.88712 0.0
C379 C 0.21337 0.18426 0.96809 0.0
O380 O 0.18547 0.17516 0.06559 0.0
O381 O 0.16633 0.1971 0.03084 0.0
O382 O 0.19842 0.12908 0.06759 0.0
O383 O 0.22605 0.14157 0.04033 0.0
O384 O 0.17611 0.12269 0.999 0.0
O385 O 0.16378 0.15361 1.01026 0.0
O386 O 0.18135 0.15023 0.93231 0.0
O387 O 0.2093 0.1384 0.96186 0.0
O388 O 0.1631 0.20982 0.95516 0.0
O389 O 0.14591 0.18094 0.94108 0.0
O390 O 0.20169 0.18331 0.94023 0.0
O391 O 0.20262 0.18154 0.99834 0.0
H392 H 0.24416 0.16217 0.09619 0.0
H393 H 0.25963 0.1639 0.15723 0.0
H394 H 0.22801 0.10612 0.1858 0.0
H395 H 0.2124 0.10475 0.12534 0.0
H396 H 0.14628 0.1746 0.86911 0.0
H397 H 0.14609 0.18529 0.80429 0.0
H398 H 0.15246 0.25213 0.84519 0.0
H399 H 0.15196 0.24145 0.91001 0.0
Ho400 Ho 0.59345 0.44187 0.74516 0.0
Ho401 Ho 0.56684 0.41168 0.69861 0.0
C402 C 0.56153 0.40923 0.78707 0.0
C403 C 0.60853 0.46657 0.79899 0.0
C404 C 0.60462 0.47457 0.84013 0.0
C405 C 0.58605 0.48467 0.85476 0.0
C406 C 0.58352 0.49361 0.8927 0.0
C407 C 0.59946 0.4928 0.91746 0.0
C408 C 0.61787 0.48229 0.90277 0.0
C409 C 0.62039 0.4734 0.86489 0.0
C410 C 0.6144 0.41195 0.69494 0.0
C411 C 0.59061 0.45182 0.65981 0.0
C412 C 0.55165 0.386 0.64722 0.0
C413 C 0.55132 0.38466 0.60573 0.0
C414 C 0.56672 0.39373 0.58284 0.0
C415 C 0.56418 0.39575 0.54435 0.0
C416 C 0.54614 0.38882 0.52836 0.0
C417 C 0.53133 0.37869 0.5511 0.0
C418 C 0.53389 0.3767 0.58939 0.0
C419 C 0.54627 0.44689 0.73328 0.0
O420 O 0.57226 0.42707 0.78859 0.0
O421 O 0.55988 0.39758 0.75464 0.0
O422 O 0.61381 0.44616 0.79105 0.0
O423 O 0.5965 0.47364 0.77438 0.0
O424 O 0.62106 0.43073 0.70651 0.0
O425 O 0.59808 0.4088 0.71535 0.0
O426 O 0.58165 0.43279 0.65538 0.0
O427 O 0.59444 0.46077 0.69368 0.0
O428 O 0.54196 0.40285 0.66445 0.0
O429 O 0.56897 0.38202 0.66169 0.0
O430 O 0.53948 0.42735 0.73118 0.0
O431 O 0.56432 0.44627 0.71847 0.0
H432 H 0.57349 0.48592 0.83676 0.0
H433 H 0.56895 0.50114 0.9026 0.0
H434 H 0.63069 0.48142 0.92022 0.0
H435 H 0.63496 0.46596 0.85464 0.0
H436 H 0.58029 0.39996 0.59503 0.0
H437 H 0.57587 0.40363 0.52762 0.0
H438 H 0.51747 0.37276 0.53948 0.0
H439 H 0.52182 0.36969 0.60665 0.0
Ho440 Ho 0.27591 0.85723 0.4767 0.0
Ho441 Ho 0.28747 0.81297 0.50705 0.0
C442 C 0.28562 0.81432 0.41709 0.0
C443 C 0.27264 0.89482 0.45073 0.0
C444 C 0.26421 0.89989 0.41501 0.0
C445 C 0.25882 0.88281 0.38966 0.0
C446 C 0.2499 0.88696 0.3564 0.0
C447 C 0.24625 0.90833 0.34758 0.0
C448 C 0.25204 0.92551 0.37261 0.0
C449 C 0.26086 0.9213 0.40631 0.0
C450 C 0.24595 0.82843 0.47661 0.0
C451 C 0.27117 0.85238 0.56832 0.0
C452 C 0.29262 0.77897 0.5436 0.0
C453 C 0.28944 0.772 0.58247 0.0
C454 C 0.28552 0.75022 0.58758 0.0
C455 C 0.28617 0.74235 0.62344 0.0
C456 C 0.29095 0.75608 0.65497 0.0
C457 C 0.29365 0.77822 0.6501 0.0
C458 C 0.29288 0.78609 0.61424 0.0
C459 C 0.31893 0.83446 0.47526 0.0
O460 O 0.28593 0.83587 0.42272 0.0
O461 O 0.28295 0.8019 0.44597 0.0
O462 O 0.25937 0.88767 0.47579 0.0
O463 O 0.28953 0.88316 0.44684 0.0
O464 O 0.24832 0.84291 0.45229 0.0
O465 O 0.25896 0.83106 0.501 0.0
O466 O 0.27897 0.83256 0.56202 0.0
O467 O 0.26901 0.86529 0.5404 0.0
O468 O 0.30641 0.79371 0.53894 0.0
O469 O 0.27655 0.78197 0.52452 0.0
O470 O 0.31761 0.81367 0.47471 0.0
O471 O 0.30396 0.84324 0.49575 0.0
H472 H 0.26143 0.86617 0.39564 0.0
H473 H 0.24604 0.87339 0.33735 0.0
H474 H 0.24942 0.94213 0.36645 0.0
H475 H 0.26491 0.93468 0.4256 0.0
H476 H 0.28279 0.73907 0.56352 0.0
H477 H 0.28348 0.72534 0.62622 0.0
H478 H 0.29743 0.78929 0.67353 0.0
H479 H 0.29594 0.80301 0.6111 0.0
Ho480 Ho 0.91334 0.44465 0.79104 0.0
Ho481 Ho 0.94681 0.42097 0.73686 0.0
C482 C 0.95336 0.42058 0.82446 0.0
C483 C 0.88626 0.4549 0.8461 0.0
C484 C 0.88902 0.4661 0.88326 0.0
C485 C 0.87358 0.46661 0.91264 0.0
C486 C 0.87675 0.47702 0.94815 0.0
C487 C 0.89539 0.48711 0.95454 0.0
C488 C 0.91084 0.48631 0.92498 0.0
C489 C 0.9077 0.47586 0.88975 0.0
C490 C 0.94406 0.46966 0.77102 0.0
C491 C 0.91158 0.44868 0.70108 0.0
C492 C 0.9753 0.40915 0.68499 0.0
C493 C 0.97835 0.40673 0.64334 0.0
C494 C 0.99744 0.4114 0.62611 0.0
C495 C 0.00108 0.40865 0.58676 0.0
C496 C 0.98568 0.40108 0.56382 0.0
C497 C 0.96645 0.39658 0.58116 0.0
C498 C 0.96277 0.39949 0.62061 0.0
C499 C 0.91498 0.39699 0.76149 0.0
O500 O 0.93432 0.42852 0.83093 0.0
O501 O 0.96249 0.41879 0.78999 0.0
O502 O 0.88964 0.46658 0.81725 0.0
O503 O 0.89509 0.43579 0.84042 0.0
O504 O 0.92576 0.47704 0.78047 0.0
O505 O 0.9457 0.44997 0.77695 0.0
O506 O 0.92999 0.43965 0.69704 0.0
O507 O 0.90047 0.45001 0.73415 0.0
O508 O 0.96294 0.39564 0.701 0.0
O509 O 0.97303 0.42895 0.70048 0.0
O510 O 0.93366 0.38979 0.75539 0.0
O511 O 0.91405 0.41604 0.75176 0.0
H512 H 0.85914 0.45898 0.90813 0.0
H513 H 0.86456 0.47745 0.97039 0.0
H514 H 0.92548 0.49355 0.92921 0.0
H515 H 0.91992 0.47531 0.86751 0.0
H516 H 0.00964 0.41699 0.64318 0.0
H517 H 0.01611 0.41204 0.57436 0.0
H518 H 0.95421 0.39098 0.56422 0.0
H519 H 0.94784 0.39596 0.63331 0.0
Ho520 Ho 0.30591 0.15548 0.51804 0.0
Ho521 Ho 0.3364 0.18379 0.47473 0.0
C522 C 0.32249 0.19836 0.56105 0.0
C523 C 0.28807 0.12563 0.55458 0.0
C524 C 0.27827 0.12387 0.59305 0.0
C525 C 0.28613 0.10896 0.61649 0.0
C526 C 0.27721 0.10712 0.65307 0.0
C527 C 0.26013 0.12005 0.66687 0.0
C528 C 0.25224 0.13493 0.64329 0.0
C529 C 0.26122 0.13686 0.60683 0.0
C530 C 0.28994 0.19226 0.4954 0.0
C531 C 0.31213 0.14687 0.426 0.0
C532 C 0.35466 0.20783 0.42705 0.0
C533 C 0.35228 0.21334 0.38741 0.0
C534 C 0.3353 0.22542 0.37787 0.0
C535 C 0.33359 0.23091 0.34058 0.0
C536 C 0.34884 0.22458 0.3118 0.0
C537 C 0.36579 0.21248 0.32145 0.0
C538 C 0.36748 0.20697 0.35873 0.0
C539 C 0.35323 0.1583 0.52434 0.0
O540 O 0.31631 0.17832 0.56491 0.0
O541 O 0.32755 0.20544 0.52736 0.0
O542 O 0.27875 0.13762 0.53201 0.0
O543 O 0.30781 0.12824 0.55244 0.0
O544 O 0.28387 0.18407 0.5269 0.0
O545 O 0.30333 0.18004 0.47739 0.0
O546 O 0.32612 0.16197 0.42637 0.0
O547 O 0.30281 0.14082 0.45787 0.0
O548 O 0.36079 0.18799 0.43165 0.0
O549 O 0.34048 0.21516 0.45298 0.0
O550 O 0.36001 0.17692 0.51565 0.0
O551 O 0.33899 0.15316 0.50312 0.0
H552 H 0.29922 0.09872 0.60649 0.0
H553 H 0.28356 0.09539 0.67038 0.0
H554 H 0.23929 0.14537 0.65325 0.0
H555 H 0.25485 0.14861 0.58959 0.0
H556 H 0.32333 0.23077 0.39919 0.0
H557 H 0.32019 0.24 0.3343 0.0
H558 H 0.37801 0.20757 0.30033 0.0
H559 H 0.38084 0.19786 0.36521 0.0
Ho560 Ho 0.5753 0.56231 0.28005 0.0
Ho561 Ho 0.5489 0.59712 0.24507 0.0
C562 C 0.53872 0.58671 0.33411 0.0
C563 C 0.6052 0.54317 0.30827 0.0
C564 C 0.60983 0.53884 0.34685 0.0
C565 C 0.5978 0.5483 0.3782 0.0
C566 C 0.60012 0.54152 0.41436 0.0
C567 C 0.61448 0.52513 0.41968 0.0
C568 C 0.62729 0.51665 0.38842 0.0
C569 C 0.62492 0.52342 0.35227 0.0
C570 C 0.53919 0.5493 0.26048 0.0
C571 C 0.57822 0.56533 0.18672 0.0
C572 C 0.52158 0.61953 0.21489 0.0
C573 C 0.51357 0.61836 0.1769 0.0
C574 C 0.51935 0.6012 0.14995 0.0
C575 C 0.51282 0.60087 0.11316 0.0
C576 C 0.50037 0.61775 0.10242 0.0
C577 C 0.49438 0.63476 0.12978 0.0
C578 C 0.50094 0.63506 0.1666 0.0
C579 C 0.58386 0.61042 0.27621 0.0
O580 O 0.55615 0.57528 0.33296 0.0
O581 O 0.53239 0.59537 0.30354 0.0
O582 O 0.58937 0.533 0.29589 0.0
O583 O 0.60561 0.56348 0.30022 0.0
O584 O 0.54837 0.54144 0.28797 0.0
O585 O 0.55062 0.56174 0.24242 0.0
O586 O 0.56257 0.57924 0.19132 0.0
O587 O 0.58683 0.5582 0.21665 0.0
O588 O 0.54067 0.62506 0.21594 0.0
O589 O 0.51714 0.6035 0.23586 0.0
O590 O 0.57622 0.6196 0.2486 0.0
O591 O 0.57139 0.597 0.28726 0.0
H592 H 0.58602 0.5602 0.37446 0.0
H593 H 0.58988 0.54824 0.4377 0.0
H594 H 0.6387 0.50425 0.39168 0.0
H595 H 0.63432 0.51598 0.32833 0.0
H596 H 0.52923 0.58822 0.1571 0.0
H597 H 0.518 0.58766 0.09287 0.0
H598 H 0.4846 0.64789 0.12279 0.0
H599 H 0.49634 0.64848 0.18692 0.0
Ho600 Ho 0.19961 0.84933 0.9192 0.0
Ho601 Ho 0.17268 0.81504 0.87677 0.0
C602 C 0.18066 0.80861 0.96333 0.0
C603 C 0.21207 0.87966 0.96555 0.0
C604 C 0.20789 0.88719 1.00576 0.0
C605 C 0.21079 0.90892 1.01764 0.0
C606 C 0.20943 0.91571 0.05628 0.0
C607 C 0.20517 0.90082 0.0837 0.0
C608 C 0.20113 0.87928 0.07143 0.0
C609 C 0.20252 0.87255 0.03285 0.0
C610 C 0.2203 0.81405 0.88398 0.0
C611 C 0.20088 0.84951 0.82919 0.0
C612 C 0.15986 0.78593 0.82724 0.0
C613 C 0.16592 0.77561 0.78821 0.0
C614 C 0.17772 0.78624 0.76085 0.0
C615 C 0.18278 0.77611 0.72422 0.0
C616 C 0.17625 0.75497 0.7137 0.0
C617 C 0.1645 0.74447 0.74144 0.0
C618 C 0.15947 0.75459 0.77791 0.0
C619 C 0.15164 0.84406 0.9284 0.0
O620 O 0.18739 0.82878 0.96555 0.0
O621 O 0.17647 0.79829 0.9305 0.0
O622 O 0.22112 0.86065 0.95892 0.0
O623 O 0.19749 0.88265 0.94299 0.0
O624 O 0.22818 0.83305 0.88962 0.0
O625 O 0.20254 0.81527 0.89937 0.0
O626 O 0.19005 0.83166 0.82966 0.0
O627 O 0.20476 0.86102 0.86077 0.0
O628 O 0.15368 0.80628 0.83038 0.0
O629 O 0.17127 0.78142 0.85457 0.0
O630 O 0.14514 0.8252 0.91646 0.0
O631 O 0.16733 0.84785 0.90666 0.0
H632 H 0.21482 0.9205 0.99711 0.0
H633 H 0.21227 0.93249 0.06471 0.0
H634 H 0.19804 0.86728 0.09162 0.0
H635 H 0.20031 0.8557 0.02425 0.0
H636 H 0.18305 0.8024 0.76773 0.0
H637 H 0.19205 0.78483 0.70429 0.0
H638 H 0.15877 0.72845 0.73488 0.0
H639 H 0.1503 0.74595 0.79816 0.0
Ho640 Ho 0.55403 0.90558 0.62225 0.0
Ho641 Ho 0.58291 0.93186 0.57325 0.0
C642 C 0.58069 0.94451 0.66191 0.0
C643 C 0.53792 0.88199 0.67321 0.0
C644 C 0.5359 0.88337 0.71488 0.0
C645 C 0.55064 0.89347 0.73663 0.0
C646 C 0.54724 0.89656 0.7761 0.0
C647 C 0.52901 0.88974 0.79434 0.0
C648 C 0.51461 0.87912 0.77239 0.0
C649 C 0.51804 0.876 0.73308 0.0
C650 C 0.5364 0.94221 0.60088 0.0
C651 C 0.54841 0.90138 0.53495 0.0
C652 C 0.60094 0.95442 0.52227 0.0
C653 C 0.59819 0.96403 0.4856 0.0
C654 C 0.59299 0.95162 0.45288 0.0
C655 C 0.59203 0.96109 0.41815 0.0
C656 C 0.5962 0.98319 0.41527 0.0
C657 C 0.60126 0.99549 0.44823 0.0
C658 C 0.60226 0.98604 0.48275 0.0
C659 C 0.60105 0.90001 0.60925 0.0
O660 O 0.56936 0.92715 0.66585 0.0
O661 O 0.58649 0.95115 0.62827 0.0
O662 O 0.52785 0.8969 0.65778 0.0
O663 O 0.55618 0.87834 0.6567 0.0
O664 O 0.5277 0.9236 0.60185 0.0
O665 O 0.5546 0.93983 0.6094 0.0
O666 O 0.55991 0.91865 0.5335 0.0
O667 O 0.54649 0.89051 0.56561 0.0
O668 O 0.60279 0.93332 0.52214 0.0
O669 O 0.59029 0.96305 0.55242 0.0
O670 O 0.60959 0.91776 0.60022 0.0
O671 O 0.58419 0.89889 0.59376 0.0
H672 H 0.56452 0.8994 0.7231 0.0
H673 H 0.55858 0.90489 0.79218 0.0
H674 H 0.50059 0.87333 0.78562 0.0
H675 H 0.50648 0.86822 0.71675 0.0
H676 H 0.58981 0.93458 0.454 0.0
H677 H 0.58786 0.95111 0.39362 0.0
H678 H 0.60491 0.01242 0.44727 0.0
H679 H 0.60658 0.99596 0.50728 0.0
Ho680 Ho 0.3191 0.30888 0.88886 0.0
Ho681 Ho 0.30282 0.34277 0.83898 0.0
C682 C 0.29704 0.35162 0.92935 0.0
C683 C 0.33592 0.27922 0.92536 0.0
C684 C 0.33747 0.27446 0.96539 0.0
C685 C 0.34053 0.29078 0.99406 0.0
C686 C 0.34189 0.28564 0.0317 0.0
C687 C 0.34012 0.26408 0.04154 0.0
C688 C 0.33682 0.24791 1.01266 0.0
C689 C 0.33556 0.25304 0.97513 0.0
C690 C 0.27835 0.30919 0.88343 0.0
C691 C 0.3219 0.29808 0.79762 0.0
C692 C 0.28378 0.36351 0.79035 0.0
C693 C 0.27377 0.36012 0.75373 0.0
C694 C 0.25273 0.36448 0.75297 0.0
C695 C 0.24317 0.36322 0.71868 0.0
C696 C 0.25435 0.35768 0.68381 0.0
C697 C 0.27543 0.35313 0.6846 0.0
C698 C 0.285 0.35433 0.71901 0.0
C699 C 0.33847 0.35324 0.87052 0.0
O700 O 0.31189 0.33716 0.9314 0.0
O701 O 0.28851 0.35428 0.8971 0.0
O702 O 0.31782 0.27767 0.91257 0.0
O703 O 0.34573 0.29578 0.91329 0.0
O704 O 0.28746 0.30897 0.91458 0.0
O705 O 0.29165 0.31106 0.85629 0.0
O706 O 0.31396 0.31739 0.79388 0.0
O707 O 0.32527 0.29124 0.83108 0.0
O708 O 0.3037 0.3614 0.78958 0.0
O709 O 0.27464 0.35594 0.82052 0.0
O710 O 0.32477 0.36724 0.86294 0.0
O711 O 0.33329 0.33461 0.85801 0.0
H712 H 0.34192 0.30749 0.98742 0.0
H713 H 0.34462 0.29854 0.05296 0.0
H714 H 0.33495 0.23122 1.01905 0.0
H715 H 0.333 0.24021 0.9536 0.0
H716 H 0.24366 0.36931 0.77901 0.0
H717 H 0.22702 0.36718 0.7195 0.0
H718 H 0.28459 0.34854 0.65859 0.0
H719 H 0.30125 0.35095 0.71829 0.0
Ho720 Ho 0.93504 0.07928 0.16722 0.0
Ho721 Ho 0.90735 0.05119 0.11936 0.0
C722 C 0.9118 0.0379 0.20289 0.0
C723 C 0.95007 0.10408 0.21988 0.0
C724 C 0.95051 0.10434 0.26119 0.0
C725 C 0.93607 0.0932 0.28297 0.0
C726 C 0.93875 0.09076 0.32124 0.0
C727 C 0.95598 0.09927 0.33802 0.0
C728 C 0.96984 0.11123 0.3164 0.0
C729 C 0.96712 0.11371 0.27833 0.0
C730 C 0.9548 0.04428 0.13001 0.0
C731 C 0.94038 0.08336 0.07926 0.0
C732 C 0.89136 0.02796 0.06489 0.0
C733 C 0.89585 0.01889 0.02445 0.0
C734 C 0.89952 0.99651 1.0164 0.0
C735 C 0.90213 0.98728 0.97883 0.0
C736 C 0.90106 3e-05 0.94767 0.0
C737 C 0.89744 0.02249 0.95573 0.0
C738 C 0.89487 0.03176 0.99344 0.0
C739 C 0.88747 0.08045 0.17224 0.0
O740 O 0.92157 0.05635 0.20879 0.0
O741 O 0.90636 0.03083 0.16892 0.0
O742 O 0.96006 0.08786 0.2012 0.0
O743 O 0.93254 0.10804 0.20618 0.0
O744 O 0.96222 0.06353 0.13409 0.0
O745 O 0.93663 0.04518 0.14434 0.0
O746 O 0.92916 0.06589 0.07674 0.0
O747 O 0.94233 0.09431 0.11224 0.0
O748 O 0.88814 0.04889 0.0717 0.0
O749 O 0.90158 0.01975 0.09106 0.0
O750 O 0.88024 0.0622 0.15941 0.0
O751 O 0.90372 0.08358 0.15165 0.0
H752 H 0.92318 0.08575 0.27012 0.0
H753 H 0.92786 0.08142 0.33718 0.0
H754 H 0.98305 0.1183 0.32875 0.0
H755 H 0.97844 0.12228 0.26188 0.0
H756 H 0.90001 0.98596 0.03931 0.0
H757 H 0.9045 0.96993 0.97433 0.0
H758 H 0.89669 0.03303 0.93286 0.0
H759 H 0.8919 0.04902 0.99823 0.0
Ho760 Ho 0.1984 0.68232 0.3563 0.0
Ho761 Ho 0.22056 0.64191 0.38436 0.0
C762 C 0.22382 0.64829 0.29371 0.0
C763 C 0.18405 0.71328 0.32013 0.0
C764 C 0.18644 0.72242 0.28276 0.0
C765 C 0.18364 0.74474 0.28064 0.0
C766 C 0.18367 0.75356 0.24545 0.0
C767 C 0.18672 0.74028 0.21135 0.0
C768 C 0.18999 0.7179 0.21372 0.0
C769 C 0.18964 0.70907 0.24898 0.0
C770 C 0.1738 0.65335 0.38806 0.0
C771 C 0.20421 0.68247 0.44538 0.0
C772 C 0.23161 0.60531 0.40738 0.0
C773 C 0.23729 0.59968 0.44499 0.0
C774 C 0.25406 0.58577 0.44812 0.0
C775 C 0.26058 0.58191 0.48384 0.0
C776 C 0.25028 0.59176 0.51694 0.0
C777 C 0.23337 0.60549 0.51365 0.0
C778 C 0.22706 0.60955 0.47809 0.0
C779 C 0.24282 0.67769 0.38306 0.0
O780 O 0.21291 0.66642 0.30166 0.0
O781 O 0.2279 0.63525 0.32049 0.0
O782 O 0.17623 0.69397 0.32044 0.0
O783 O 0.19887 0.71602 0.3429 0.0
O784 O 0.17012 0.67391 0.39005 0.0
O785 O 0.18983 0.64861 0.36691 0.0
O786 O 0.20837 0.66119 0.4397 0.0
O787 O 0.20262 0.69479 0.41656 0.0
O788 O 0.24428 0.61793 0.38995 0.0
O789 O 0.21248 0.61097 0.40483 0.0
O790 O 0.24477 0.66312 0.40707 0.0
O791 O 0.23011 0.6715 0.35972 0.0
H792 H 0.18082 0.75532 0.30628 0.0
H793 H 0.18067 0.77076 0.24514 0.0
H794 H 0.1927 0.70711 0.18836 0.0
H795 H 0.19142 0.69173 0.24979 0.0
H796 H 0.26233 0.57822 0.42292 0.0
H797 H 0.27365 0.57125 0.4856 0.0
H798 H 0.22537 0.61362 0.53862 0.0
H799 H 0.21444 0.6208 0.4766 0.0
Ho800 Ho 0.54821 0.08226 0.13238 0.0
Ho801 Ho 0.57779 0.05121 0.07977 0.0
C802 C 0.58209 0.0528 0.16962 0.0
C803 C 0.52378 0.1021 0.18461 0.0
C804 C 0.51714 0.10021 0.22467 0.0
C805 C 0.52303 0.0824 0.2439 0.0
C806 C 0.51658 0.08113 0.28215 0.0
C807 C 0.50404 0.09759 0.3017 0.0
C808 C 0.49815 0.1153 0.28205 0.0
C809 C 0.50466 0.11658 0.24395 0.0
C810 C 0.57725 0.10082 0.08819 0.0
C811 C 0.5371 0.07364 0.04686 0.0
C812 C 0.60398 0.03462 0.0273 0.0
C813 C 0.60639 0.03419 0.98587 0.0
C814 C 0.59316 0.04634 0.96596 0.0
C815 C 0.59249 0.04222 0.9268 0.0
C816 C 0.60518 0.02603 0.90707 0.0
C817 C 0.61958 0.01519 0.92674 0.0
C818 C 0.62008 0.01917 0.96594 0.0
C819 C 0.54862 0.03167 0.11943 0.0
O820 O 0.56473 0.06408 0.17375 0.0
O821 O 0.59188 0.04793 0.13583 0.0
O822 O 0.54275 0.1076 0.17753 0.0
O823 O 0.51803 0.08678 0.16045 0.0
O824 O 0.55916 0.10909 0.0973 0.0
O825 O 0.57938 0.08405 0.10557 0.0
O826 O 0.55561 0.06447 0.0392 0.0
O827 O 0.52985 0.0795 0.08192 0.0
O828 O 0.58809 0.0244 0.04049 0.0
O829 O 0.60644 0.05322 0.04624 0.0
O830 O 0.56635 0.02274 0.10933 0.0
O831 O 0.54668 0.04949 0.10505 0.0
H832 H 0.53257 0.06952 0.22936 0.0
H833 H 0.52124 0.06718 0.29631 0.0
H834 H 0.48879 0.12842 0.2963 0.0
H835 H 0.50001 0.13046 0.22955 0.0
H836 H 0.58261 0.05815 0.9809 0.0
H837 H 0.58139 0.05095 0.91223 0.0
H838 H 0.62942 0.00251 0.91233 0.0
H839 H 0.63034 0.0096 0.98096 0.0
Ho840 Ho 0.16242 0.30649 0.38677 0.0
Ho841 Ho 0.19235 0.33493 0.34195 0.0
C842 C 0.1877 0.3433 0.43418 0.0
C843 C 0.14449 0.28246 0.43504 0.0
C844 C 0.14642 0.27686 0.47481 0.0
C845 C 0.16354 0.26541 0.48538 0.0
C846 C 0.16456 0.25946 0.52262 0.0
C847 C 0.14845 0.26468 0.55032 0.0
C848 C 0.13139 0.27624 0.53965 0.0
C849 C 0.1304 0.2822 0.50245 0.0
C850 C 0.14492 0.33248 0.33882 0.0
C851 C 0.17486 0.29238 0.29944 0.0
C852 C 0.20938 0.36536 0.30556 0.0
C853 C 0.217 0.36798 0.2662 0.0
C854 C 0.21057 0.35439 0.23603 0.0
C855 C 0.21837 0.35677 0.19887 0.0
C856 C 0.23282 0.37269 0.19126 0.0
C857 C 0.23897 0.38642 0.22163 0.0
C858 C 0.23112 0.38408 0.25872 0.0
C859 C 0.20857 0.29807 0.36395 0.0
O860 O 0.17358 0.3283 0.43452 0.0
O861 O 0.19666 0.34922 0.40191 0.0
O862 O 0.13826 0.30224 0.43027 0.0
O863 O 0.15889 0.27525 0.40942 0.0
O864 O 0.13825 0.31374 0.34706 0.0
O865 O 0.15954 0.33733 0.35923 0.0
O866 O 0.18087 0.31247 0.29551 0.0
O867 O 0.17043 0.28513 0.33329 0.0
O868 O 0.21958 0.35166 0.32369 0.0
O869 O 0.18962 0.36359 0.31149 0.0
O870 O 0.21431 0.30622 0.33224 0.0
O871 O 0.19543 0.31041 0.38235 0.0
H872 H 0.17614 0.26085 0.46487 0.0
H873 H 0.17806 0.25083 0.5297 0.0
H874 H 0.11852 0.28029 0.55982 0.0
H875 H 0.1169 0.29077 0.49514 0.0
H876 H 0.19971 0.3418 0.24127 0.0
H877 H 0.2135 0.34574 0.17625 0.0
H878 H 0.24989 0.399 0.21672 0.0
H879 H 0.23619 0.39476 0.28165 0.0
Ho880 Ho 0.95548 0.90191 0.6198 0.0
Ho881 Ho 0.92294 0.93065 0.58618 0.0
C882 C 0.92209 0.93035 0.67729 0.0
C883 C 0.98214 0.88369 0.65808 0.0
C884 C 0.98971 0.88672 0.69611 0.0
C885 C 0.9849 0.90555 0.71978 0.0
C886 C 0.9919 0.90783 0.75624 0.0
C887 C 0.00392 0.89136 0.76947 0.0
C888 C 0.00886 0.87267 0.74531 0.0
C889 C 0.00178 0.87039 0.70902 0.0
C890 C 0.92581 0.88127 0.58255 0.0
C891 C 0.96392 0.91115 0.53305 0.0
C892 C 0.89426 0.94459 0.54723 0.0
C893 C 0.89115 0.94497 0.50677 0.0
C894 C 0.90456 0.93357 0.47951 0.0
C895 C 0.90447 0.93786 0.44143 0.0
C896 C 0.89082 0.95343 0.43012 0.0
C897 C 0.87626 0.96339 0.45707 0.0
C898 C 0.87652 0.95928 0.49521 0.0
C899 C 0.95207 0.95246 0.61957 0.0
O900 O 0.93996 0.91995 0.67192 0.0
O901 O 0.91087 0.93402 0.64838 0.0
O902 O 0.96332 0.87721 0.65655 0.0
O903 O 0.98654 0.89888 0.63532 0.0
O904 O 0.94461 0.87443 0.58132 0.0
O905 O 0.92369 0.89802 0.60497 0.0
O906 O 0.94485 0.91922 0.53437 0.0
O907 O 0.97222 0.90551 0.56388 0.0
O908 O 0.90918 0.95653 0.55873 0.0
O909 O 0.89407 0.92568 0.56121 0.0
O910 O 0.93372 0.96026 0.61784 0.0
O911 O 0.95443 0.93455 0.60037 0.0
H912 H 0.9757 0.91843 0.71015 0.0
H913 H 0.98798 0.9225 0.77399 0.0
H914 H 0.01782 0.85956 0.75477 0.0
H915 H 0.00561 0.85574 0.69111 0.0
H916 H 0.91581 0.92229 0.48791 0.0
H917 H 0.91573 0.92982 0.42112 0.0
H918 H 0.86569 0.97558 0.44919 0.0
H919 H 0.86611 0.96824 0.51596 0.0
Ho920 Ho 0.3257 0.68594 0.98436 0.0
Ho921 Ho 0.30001 0.6488 0.94577 0.0
C922 C 0.2991 0.65171 0.03521 0.0
C923 C 0.3378 0.7154 0.0339 0.0
C924 C 0.33101 0.72521 0.07303 0.0
C925 C 0.32236 0.71286 0.10156 0.0
C926 C 0.31651 0.72243 0.13826 0.0
C927 C 0.31938 0.7447 0.14805 0.0
C928 C 0.3282 0.7569 0.11922 0.0
C929 C 0.33379 0.74736 0.0825 0.0
C930 C 0.34748 0.65714 0.93377 0.0
C931 C 0.31517 0.6902 0.8989 0.0
C932 C 0.2882 0.61694 0.90179 0.0
C933 C 0.29135 0.60902 0.8617 0.0
C934 C 0.30045 0.62199 0.83477 0.0
C935 C 0.30017 0.61581 0.79606 0.0
C936 C 0.29066 0.59659 0.78375 0.0
C937 C 0.28284 0.58298 0.81103 0.0
C938 C 0.28314 0.58919 0.84966 0.0
C939 C 0.27802 0.68364 0.97966 0.0
O940 O 0.30808 0.67051 0.03197 0.0
O941 O 0.29694 0.63805 1.0053 0.0
O942 O 0.34452 0.69523 0.03064 0.0
O943 O 0.32665 0.71975 1.00604 0.0
O944 O 0.35304 0.67667 0.94386 0.0
O945 O 0.33241 0.65279 0.95657 0.0
O946 O 0.3103 0.66938 0.89786 0.0
O947 O 0.31907 0.70155 0.93094 0.0
O948 O 0.27822 0.63542 0.90836 0.0
O949 O 0.30375 0.61544 0.92268 0.0
O950 O 0.27081 0.66425 0.97504 0.0
O951 O 0.29559 0.68284 0.96365 0.0
H952 H 0.32019 0.69571 0.0956 0.0
H953 H 0.30958 0.71225 0.15881 0.0
H954 H 0.33123 0.77389 0.12501 0.0
H955 H 0.34059 0.75736 0.06145 0.0
H956 H 0.30692 0.63733 0.84361 0.0
H957 H 0.30628 0.62671 0.77587 0.0
H958 H 0.27578 0.56788 0.8025 0.0
H959 H 0.27612 0.57894 0.87009 0.0
Ho960 Ho 0.4085 0.05882 0.79844 0.0
Ho961 Ho 0.43748 0.08694 0.75235 0.0
C962 C 0.44213 0.08932 0.83984 0.0
C963 C 0.39094 0.0351 0.84827 0.0
C964 C 0.3934 0.02719 0.88649 0.0
C965 C 0.4118 0.0179 0.89627 0.0
C966 C 0.41317 0.00949 0.9318 0.0
C967 C 0.39619 0.01011 0.95867 0.0
C968 C 0.37789 0.01968 0.94879 0.0
C969 C 0.37654 0.02804 0.91329 0.0
C970 C 0.39011 0.09121 0.76442 0.0
C971 C 0.41102 0.04903 0.70906 0.0
C972 C 0.45402 0.11146 0.70317 0.0
C973 C 0.45712 0.11065 0.6615 0.0
C974 C 0.44245 0.1021 0.63783 0.0
C975 C 0.44669 0.0998 0.59843 0.0
C976 C 0.4657 0.10589 0.58209 0.0
C977 C 0.48007 0.1149 0.60598 0.0
C978 C 0.47582 0.11723 0.64521 0.0
C979 C 0.45496 0.0495 0.77104 0.0
O980 O 0.43075 0.07192 0.83967 0.0
O981 O 0.44423 0.10095 0.81013 0.0
O982 O 0.38685 0.05577 0.84683 0.0
O983 O 0.40346 0.02734 0.81988 0.0
O984 O 0.38174 0.07318 0.77248 0.0
O985 O 0.40695 0.09238 0.78018 0.0
O986 O 0.42215 0.06667 0.70725 0.0
O987 O 0.40528 0.04103 0.74171 0.0
O988 O 0.46408 0.09672 0.71904 0.0
O989 O 0.43539 0.11443 0.71836 0.0
O990 O 0.46369 0.06813 0.77175 0.0
O991 O 0.43693 0.05228 0.76209 0.0
H992 H 0.42509 0.01691 0.8763 0.0
H993 H 0.42749 0.00206 0.93782 0.0
H994 H 0.36455 0.02091 0.9686 0.0
H995 H 0.36214 0.03507 0.9066 0.0
H996 H 0.42792 0.09681 0.64979 0.0
H997 H 0.43533 0.09269 0.58088 0.0
H998 H 0.49469 0.12014 0.59434 0.0
H999 H 0.48733 0.12384 0.66297 0.0
Ho1000 Ho 0.69859 0.65767 0.53044 0.0
Ho1001 Ho 0.67041 0.68733 0.49 0.0
C1002 C 0.66611 0.69134 0.57856 0.0
C1003 C 0.72287 0.63995 0.57474 0.0
C1004 C 0.73032 0.64171 0.61362 0.0
C1005 C 0.74171 0.65942 0.62681 0.0
C1006 C 0.75068 0.65941 0.66163 0.0
C1007 C 0.74856 0.6417 0.68423 0.0
C1008 C 0.73664 0.62431 0.67145 0.0
C1009 C 0.72773 0.6243 0.6366 0.0
C1010 C 0.6664 0.63873 0.49828 0.0
C1011 C 0.70655 0.65753 0.44134 0.0
C1012 C 0.64717 0.70474 0.44366 0.0
C1013 C 0.64831 0.70983 0.40327 0.0
C1014 C 0.65159 0.6937 0.37321 0.0
C1015 C 0.65215 0.69912 0.33541 0.0
C1016 C 0.64954 0.72078 0.32675 0.0
C1017 C 0.6463 0.73681 0.35698 0.0
C1018 C 0.64565 0.73139 0.39464 0.0
C1019 C 0.70473 0.70627 0.51373 0.0
O1020 O 0.68396 0.68096 0.5766 0.0
O1021 O 0.65548 0.69291 0.54852 0.0
O1022 O 0.70401 0.63406 0.57114 0.0
O1023 O 0.72856 0.65455 0.55154 0.0
O1024 O 0.68409 0.62938 0.49987 0.0
O1025 O 0.66637 0.65701 0.51654 0.0
O1026 O 0.68906 0.66859 0.44167 0.0
O1027 O 0.71495 0.65322 0.47284 0.0
O1028 O 0.65891 0.71583 0.4658 0.0
O1029 O 0.64642 0.68442 0.45104 0.0
O1030 O 0.68673 0.71536 0.51636 0.0
O1031 O 0.70313 0.68711 0.49986 0.0
H1032 H 0.74408 0.67311 0.60991 0.0
H1033 H 0.75943 0.67327 0.6707 0.0
H1034 H 0.73478 0.61028 0.68769 0.0
H1035 H 0.71927 0.6103 0.62705 0.0
H1036 H 0.65371 0.6769 0.37883 0.0
H1037 H 0.65486 0.68635 0.31296 0.0
H1038 H 0.64387 0.75359 0.35159 0.0
H1039 H 0.64292 0.74412 0.41717 0.0
Ho1040 Ho 0.09213 0.93532 0.25421 0.0
Ho1041 Ho 0.06416 0.90604 0.20818 0.0
C1042 C 0.05973 0.90307 0.29633 0.0
C1043 C 0.10766 0.95962 0.30805 0.0
C1044 C 0.10329 0.9687 0.34869 0.0
C1045 C 0.09644 0.99033 0.35689 0.0
C1046 C 0.09402 -0.00029 0.39445 0.0
C1047 C 0.09846 0.98793 0.42558 0.0
C1048 C 0.10527 0.96622 0.41736 0.0
C1049 C 0.10766 0.95681 0.37968 0.0
C1050 C 0.11205 0.90551 0.20239 0.0
C1051 C 0.08765 0.94627 0.16933 0.0
C1052 C 0.04825 0.88113 0.15659 0.0
C1053 C 0.04689 0.88069 0.11532 0.0
C1054 C 0.06182 0.89001 0.09168 0.0
C1055 C 0.05863 0.89198 0.0534 0.0
C1056 C 0.04039 0.88485 0.03842 0.0
C1057 C 0.0259 0.87486 0.06201 0.0
C1058 C 0.02913 0.87282 0.10004 0.0
C1059 C 0.04484 0.94182 0.24403 0.0
O1060 O 0.07075 0.92073 0.29778 0.0
O1061 O 0.05768 0.89159 0.26389 0.0
O1062 O 0.1117 0.93883 0.30132 0.0
O1063 O 0.09687 0.96718 0.28201 0.0
O1064 O 0.11934 0.92381 0.21495 0.0
O1065 O 0.09576 0.90249 0.22308 0.0
O1066 O 0.07798 0.92767 0.16517 0.0
O1067 O 0.09302 0.95443 0.2028 0.0
O1068 O 0.03852 0.89733 0.17583 0.0
O1069 O 0.06607 0.87723 0.16921 0.0
O1070 O 0.03728 0.9226 0.24133 0.0
O1071 O 0.06282 0.94044 0.22898 0.0
H1072 H 0.0933 0.00026 0.33404 0.0
H1073 H 0.08912 0.01652 0.3989 0.0
H1074 H 0.10868 0.95635 0.44011 0.0
H1075 H 0.1132 0.94021 0.37485 0.0
H1076 H 0.0756 0.89634 0.10302 0.0
H1077 H 0.07004 0.89981 0.03596 0.0
H1078 H 0.01188 0.86886 0.05117 0.0
H1079 H 0.01742 0.86567 0.11787 0.0
Ho1080 Ho 0.79568 0.34437 0.98614 0.0
Ho1081 Ho 0.8219 0.30759 1.01628 0.0
C1082 C 0.81552 0.30434 0.92626 0.0
C1083 C 0.78322 0.37676 0.95113 0.0
C1084 C 0.77564 0.37919 0.91373 0.0
C1085 C 0.76891 0.39952 0.90433 0.0
C1086 C 0.76099 0.40182 0.86924 0.0
C1087 C 0.75971 0.38378 0.84294 0.0
C1088 C 0.76667 0.36345 0.85254 0.0
C1089 C 0.77447 0.36117 0.88768 0.0
C1090 C 0.77499 0.30902 1.0052 0.0
C1091 C 0.79286 0.34013 0.07508 0.0
C1092 C 0.83807 0.27766 0.05207 0.0
C1093 C 0.8352 0.26822 0.08882 0.0
C1094 C 0.81584 0.26289 0.10432 0.0
C1095 C 0.8138 0.25422 0.13967 0.0
C1096 C 0.83104 0.25105 0.16018 0.0
C1097 C 0.85032 0.25658 0.14463 0.0
C1098 C 0.85237 0.265 0.10923 0.0
C1099 C 0.84329 0.33966 0.9858 0.0
O1100 O 0.8063 0.32382 0.93165 0.0
O1101 O 0.82154 0.29385 0.95515 0.0
O1102 O 0.77139 0.36613 0.97398 0.0
O1103 O 0.80242 0.37095 0.95143 0.0
O1104 O 0.76671 0.32821 1.00577 0.0
O1105 O 0.79289 0.30974 0.9907 0.0
O1106 O 0.80155 0.32072 0.0671 0.0
O1107 O 0.7926 0.35449 0.04912 0.0
O1108 O 0.84418 0.29767 0.05368 0.0
O1109 O 0.82428 0.27384 0.02753 0.0
O1110 O 0.85028 0.32036 0.98934 0.0
O1111 O 0.82635 0.34192 1.00539 0.0
H1112 H 0.76958 0.41357 0.9243 0.0
H1113 H 0.75554 0.41765 0.86301 0.0
H1114 H 0.76625 0.34928 0.8328 0.0
H1115 H 0.77945 0.34532 0.89462 0.0
H1116 H 0.80232 0.26548 0.08926 0.0
H1117 H 0.79874 0.25023 0.15117 0.0
H1118 H 0.86389 0.25407 0.15957 0.0
H1119 H 0.86743 0.26906 0.09776 0.0
Ho1120 Ho 0.4123 0.93372 0.29275 0.0
Ho1121 Ho 0.4452 0.90795 0.24046 0.0
C1122 C 0.45196 0.90987 0.32853 0.0
C1123 C 0.38331 0.94389 0.34442 0.0
C1124 C 0.38257 0.9557 0.38218 0.0
C1125 C 0.37601 0.94514 0.41436 0.0
C1126 C 0.37743 0.95523 0.45067 0.0
C1127 C 0.38539 0.97611 0.45535 0.0
C1128 C 0.39102 0.98701 0.42298 0.0
C1129 C 0.38974 0.97689 0.38681 0.0
C1130 C 0.44378 0.95755 0.27213 0.0
C1131 C 0.41456 0.94053 0.20431 0.0
C1132 C 0.47205 0.89169 0.18878 0.0
C1133 C 0.48029 0.89583 0.15051 0.0
C1134 C 0.4733 0.91343 0.13199 0.0
C1135 C 0.48035 0.91607 0.09449 0.0
C1136 C 0.49452 0.90116 0.075 0.0
C1137 C 0.5018 0.88388 0.0942 0.0
C1138 C 0.49472 0.88125 0.13158 0.0
C1139 C 0.41275 0.88578 0.26811 0.0
O1140 O 0.43367 0.91984 0.33466 0.0
O1141 O 0.46029 0.90494 0.29392 0.0
O1142 O 0.38737 0.95516 0.31519 0.0
O1143 O 0.39326 0.92536 0.34146 0.0
O1144 O 0.42579 0.96577 0.28228 0.0
O1145 O 0.44469 0.93784 0.2783 0.0
O1146 O 0.43314 0.93205 0.20334 0.0
O1147 O 0.40144 0.93924 0.23438 0.0
O1148 O 0.45304 0.88568 0.19166 0.0
O1149 O 0.47642 0.90568 0.21639 0.0
O1150 O 0.43135 0.87826 0.26407 0.0
O1151 O 0.41235 0.90424 0.25574 0.0
H1152 H 0.37042 0.92878 0.41142 0.0
H1153 H 0.37307 0.94635 0.47499 0.0
H1154 H 0.39678 0.00329 0.42558 0.0
H1155 H 0.39488 0.98551 0.36258 0.0
H1156 H 0.4622 0.9249 0.14625 0.0
H1157 H 0.4746 0.92969 0.08068 0.0
H1158 H 0.51246 0.87192 0.07995 0.0
H1159 H 0.50021 0.86752 0.14545 0.0
Ho1160 Ho 0.81313 0.66346 1.01546 0.0
Ho1161 Ho 0.84268 0.69249 0.973 0.0
C1162 C 0.82993 0.70793 0.05825 0.0
C1163 C 0.7946 0.63887 0.06218 0.0
C1164 C 0.78785 0.63872 0.1028 0.0
C1165 C 0.80152 0.63566 0.13084 0.0
C1166 C 0.79423 0.63487 0.16884 0.0
C1167 C 0.77317 0.63709 0.17939 0.0
C1168 C 0.75969 0.64037 0.15116 0.0
C1169 C 0.76692 0.64098 0.11344 0.0
C1170 C 0.79484 0.69271 0.97582 0.0
C1171 C 0.81959 0.65376 0.92646 0.0
C1172 C 0.86143 0.71571 0.92406 0.0
C1173 C 0.85981 0.72066 0.88406 0.0
C1174 C 0.84125 0.71919 0.86661 0.0
C1175 C 0.84007 0.72469 0.82907 0.0
C1176 C 0.85744 0.73167 0.80806 0.0
C1177 C 0.876 0.73288 0.82573 0.0
C1178 C 0.87714 0.72746 0.86319 0.0
C1179 C 0.86001 0.66584 0.02016 0.0
O1180 O 0.82184 0.68857 0.06153 0.0
O1181 O 0.83667 0.71455 0.02517 0.0
O1182 O 0.78535 0.65304 0.04359 0.0
O1183 O 0.81411 0.63687 0.05192 0.0
O1184 O 0.78798 0.67359 0.98072 0.0
O1185 O 0.81041 0.69596 0.99425 0.0
O1186 O 0.82855 0.67265 0.92654 0.0
O1187 O 0.81483 0.64454 0.95833 0.0
O1188 O 0.86726 0.696 0.92984 0.0
O1189 O 0.84668 0.72319 0.94853 0.0
O1190 O 0.8666 0.6848 1.01286 0.0
O1191 O 0.8458 0.66106 0.9987 0.0
H1192 H 0.81776 0.63373 0.12347 0.0
H1193 H 0.80503 0.63219 0.18978 0.0
H1194 H 0.74346 0.64268 0.15817 0.0
H1195 H 0.75601 0.64323 0.09244 0.0
H1196 H 0.82766 0.71388 0.88205 0.0
H1197 H 0.82558 0.72328 0.8164 0.0
H1198 H 0.88964 0.73844 0.81084 0.0
H1199 H 0.8916 0.7288 0.87604 0.0
Ho1200 Ho 0.07809 0.06132 0.78781 0.0
Ho1201 Ho 0.04147 0.08275 0.75397 0.0
C1202 C 0.03624 0.07752 0.84284 0.0
C1203 C 0.10859 0.05423 0.82797 0.0
C1204 C 0.11082 0.04285 0.86257 0.0
C1205 C 0.11555 0.05458 0.89617 0.0
C1206 C 0.11526 0.0446 0.93026 0.0
C1207 C 0.11028 0.02267 0.93125 0.0
C1208 C 0.10664 0.01071 0.89718 0.0
C1209 C 0.10681 0.02069 0.86325 0.0
C1210 C 0.05007 0.0334 0.76689 0.0
C1211 C 0.07622 0.05746 0.69669 0.0
C1212 C 0.01127 0.09537 0.7175 0.0
C1213 C 0.00348 0.09161 0.67987 0.0
C1214 C 0.01051 0.07403 0.65489 0.0
C1215 C 0.00367 0.07155 0.61836 0.0
C1216 C 0.98963 0.08657 0.60642 0.0
C1217 C 0.98235 0.10387 0.63201 0.0
C1218 C 0.98925 0.10636 0.66837 0.0
C1219 C 0.06973 0.1095 0.78381 0.0
O1220 O 0.05574 0.07054 0.84059 0.0
O1221 O 0.02692 0.0815 0.81221 0.0
O1222 O 0.10497 0.04238 0.79719 0.0
O1223 O 0.09722 0.0718 0.83257 0.0
O1224 O 0.06906 0.02789 0.76866 0.0
O1225 O 0.04659 0.05247 0.78078 0.0
O1226 O 0.05693 0.06386 0.70314 0.0
O1227 O 0.08888 0.0583 0.72462 0.0
O1228 O 0.02855 0.10554 0.71864 0.0
O1229 O 0.01031 0.07914 0.73907 0.0
O1230 O 0.05028 0.11364 0.78569 0.0
O1231 O 0.07316 0.09198 0.76371 0.0
H1232 H 0.11872 0.07168 0.8963 0.0
H1233 H 0.11807 0.05428 0.95602 0.0
H1234 H 0.10321 0.99366 0.89684 0.0
H1235 H 0.10322 0.01113 0.83784 0.0
H1236 H 0.02142 0.0624 0.66346 0.0
H1237 H 0.00943 0.05795 0.59943 0.0
H1238 H 0.97179 0.1159 0.62355 0.0
H1239 H 0.98373 0.12006 0.68734 0.0
Ho1240 Ho 0.70284 0.3489 0.4119 0.0
Ho1241 Ho 0.6731 0.31702 0.37318 0.0
C1242 C 0.68067 0.31102 0.45946 0.0
C1243 C 0.71837 0.37779 0.45728 0.0
C1244 C 0.71689 0.38326 0.49835 0.0
C1245 C 0.70172 0.37441 0.52196 0.0
C1246 C 0.70218 0.37734 0.56135 0.0
C1247 C 0.718 0.38895 0.57776 0.0
C1248 C 0.73273 0.39845 0.55382 0.0
C1249 C 0.73214 0.39562 0.51449 0.0
C1250 C 0.72048 0.31093 0.38066 0.0
C1251 C 0.70497 0.34646 0.32248 0.0
C1252 C 0.65674 0.29008 0.32476 0.0
C1253 C 0.66103 0.28028 0.28487 0.0
C1254 C 0.67911 0.26833 0.27314 0.0
C1255 C 0.68216 0.25829 0.23608 0.0
C1256 C 0.6673 0.25991 0.20945 0.0
C1257 C 0.64936 0.27213 0.22126 0.0
C1258 C 0.64629 0.28207 0.25829 0.0
C1259 C 0.65453 0.34859 0.4228 0.0
O1260 O 0.68964 0.33013 0.45987 0.0
O1261 O 0.67484 0.30087 0.42768 0.0
O1262 O 0.72715 0.35907 0.44657 0.0
O1263 O 0.70209 0.3814 0.43922 0.0
O1264 O 0.72971 0.32935 0.38285 0.0
O1265 O 0.70284 0.31415 0.39613 0.0
O1266 O 0.6934 0.3293 0.3254 0.0
O1267 O 0.70837 0.35946 0.35263 0.0
O1268 O 0.65195 0.3108 0.32925 0.0
O1269 O 0.66844 0.28406 0.35077 0.0
O1270 O 0.64669 0.33012 0.41264 0.0
O1271 O 0.67041 0.35071 0.40037 0.0
H1272 H 0.68992 0.36464 0.50999 0.0
H1273 H 0.69043 0.37006 0.57888 0.0
H1274 H 0.74532 0.40719 0.56532 0.0
H1275 H 0.74411 0.40236 0.49664 0.0
H1276 H 0.69089 0.26659 0.29266 0.0
H1277 H 0.69631 0.24935 0.22824 0.0
H1278 H 0.63736 0.27364 0.20214 0.0
H1279 H 0.63213 0.29097 0.26636 0.0
H1280 H 0.08684 0.48145 0.18011 0.0
H1281 H 0.07019 0.48226 0.4059 0.0
H1282 H 0.05856 0.42987 0.2388 0.0
H1283 H 0.10808 0.52801 0.3496 0.0
H1284 H 0.06368 0.46447 0.34434 0.0
H1285 H 0.09267 0.50034 0.24142 0.0
C1286 C 0.0818 0.47411 0.20581 0.0
C1287 C 0.07226 0.45398 0.20421 0.0
C1288 C 0.07343 0.47839 0.34537 0.0
C1289 C 0.07887 0.47555 0.27441 0.0
C1290 C 0.07706 0.48864 0.38053 0.0
C1291 C 0.08966 0.5067 0.38289 0.0
C1292 C 0.08237 0.48628 0.31216 0.0
C1293 C 0.09841 0.51403 0.34907 0.0
C1294 C 0.08519 0.48489 0.24079 0.0
C1295 C 0.06607 0.44529 0.23851 0.0
N1296 N 0.09455 0.50384 0.31506 0.0
N1297 N 0.06947 0.45612 0.27211 0.0
H1298 H 0.74014 0.82543 0.65261 0.0
H1299 H 0.76129 0.87075 0.44949 0.0
H1300 H 0.71586 0.88758 0.62837 0.0
H1301 H 0.80047 0.82432 0.49566 0.0
H1302 H 0.74144 0.87534 0.51108 0.0
H1303 H 0.7587 0.82229 0.59048 0.0
C1304 C 0.73849 0.8383 0.63397 0.0
C1305 C 0.72635 0.85675 0.64564 0.0
C1306 C 0.75449 0.86429 0.5076 0.0
C1307 C 0.74785 0.85338 0.57445 0.0
C1308 C 0.76581 0.86166 0.47254 0.0
C1309 C 0.78263 0.84718 0.46736 0.0
C1310 C 0.75983 0.85205 0.53731 0.0
C1311 C 0.78775 0.83578 0.49823 0.0
C1312 C 0.74927 0.83661 0.59864 0.0
C1313 C 0.72513 0.87313 0.6205 0.0
N1314 N 0.77633 0.83834 0.53165 0.0
N1315 N 0.73571 0.87104 0.58594 0.0
H1316 H 0.39961 0.57058 0.77197 0.0
H1317 H 0.38926 0.45592 0.85904 0.0
H1318 H 0.39939 0.51049 0.70203 0.0
H1319 H 0.38545 0.51748 0.92491 0.0
H1320 H 0.3902 0.47507 0.8009 0.0
H1321 H 0.39163 0.55105 0.82766 0.0
C1322 C 0.39775 0.55324 0.76825 0.0
C1323 C 0.40037 0.54213 0.73222 0.0
C1324 C 0.38898 0.48435 0.82811 0.0
C1325 C 0.39142 0.51947 0.79642 0.0
C1326 C 0.38836 0.47344 0.86128 0.0
C1327 C 0.38754 0.48513 0.89689 0.0
C1328 C 0.38876 0.50709 0.83063 0.0
C1329 C 0.38653 0.5078 0.89811 0.0
C1330 C 0.39317 0.54206 0.8002 0.0
C1331 C 0.39756 0.51967 0.72928 0.0
N1332 N 0.3873 0.518 0.86554 0.0
N1333 N 0.39347 0.50901 0.76107 0.0
H1334 H 0.798 0.13868 0.23008 0.0
H1335 H 0.74941 0.07161 0.05814 0.0
H1336 H 0.76874 0.07733 0.24094 0.0
H1337 H 0.76055 0.14019 0.06059 0.0
H1338 H 0.76245 0.07104 0.12092 0.0
H1339 H 0.79058 0.13681 0.1634 0.0
C1340 C 0.7901 0.12476 0.21849 0.0
C1341 C 0.78374 0.10828 0.24148 0.0
C1342 C 0.76215 0.08616 0.10752 0.0
C1343 C 0.77549 0.10593 0.16489 0.0
C1344 C 0.7546 0.08655 0.07175 0.0
C1345 C 0.75366 0.10603 0.05399 0.0
C1346 C 0.76899 0.10533 0.12566 0.0
C1347 C 0.76113 0.12473 0.0728 0.0
C1348 C 0.78594 0.12369 0.18036 0.0
C1349 C 0.77406 0.09037 0.22445 0.0
N1350 N 0.76839 0.12393 0.10762 0.0
N1351 N 0.77012 0.08975 0.18728 0.0
H1352 H 0.90934 0.52118 0.19308 0.0
H1353 H 0.91301 0.5263 0.96793 0.0
H1354 H 0.93013 0.57621 0.13437 0.0
H1355 H 0.8859 0.47388 0.02574 0.0
H1356 H 0.92031 0.54419 0.02895 0.0
H1357 H 0.90176 0.50286 0.13231 0.0
C1358 C 0.91238 0.5294 0.16748 0.0
C1359 C 0.9204 0.5503 0.16894 0.0
C1360 C 0.91272 0.5288 0.0284 0.0
C1361 C 0.91169 0.52942 0.09932 0.0
C1362 C 0.90862 0.51853 0.99353 0.0
C1363 C 0.89891 0.49851 0.99174 0.0
C1364 C 0.90716 0.51898 0.06189 0.0
C1365 C 0.89327 0.48937 0.02586 0.0
C1366 C 0.90799 0.51894 0.1328 0.0
C1367 C 0.92399 0.56012 0.13477 0.0
N1368 N 0.89757 0.49963 0.05957 0.0
N1369 N 0.91961 0.5496 0.10145 0.0
H1370 H 0.23824 0.12572 0.91088 0.0
H1371 H 0.21945 0.12006 0.69 0.0
H1372 H 0.17895 0.13116 0.86668 0.0
H1373 H 0.27923 0.11611 0.73261 0.0
H1374 H 0.20417 0.11982 0.75468 0.0
H1375 H 0.25324 0.11716 0.84622 0.0
C1376 C 0.22831 0.12466 0.88772 0.0
C1377 C 0.20733 0.12937 0.8942 0.0
C1378 C 0.22064 0.11886 0.74994 0.0
C1379 C 0.22443 0.11993 0.82011 0.0
C1380 C 0.22937 0.11913 0.71299 0.0
C1381 C 0.25067 0.11836 0.70586 0.0
C1382 C 0.23325 0.11793 0.78021 0.0
C1383 C 0.26274 0.11667 0.73673 0.0
C1384 C 0.23691 0.11993 0.85075 0.0
C1385 C 0.19523 0.12788 0.86302 0.0
N1386 N 0.25388 0.11672 0.77257 0.0
N1387 N 0.20398 0.12351 0.82738 0.0
H1388 H 0.61061 0.54539 0.49186 0.0
H1389 H 0.59633 0.43381 0.58759 0.0
H1390 H 0.61776 0.48228 0.43151 0.0
H1391 H 0.59836 0.49501 0.65368 0.0
H1392 H 0.6047 0.45187 0.5304 0.0
H1393 H 0.60682 0.52795 0.55169 0.0
C1394 C 0.61156 0.5279 0.4912 0.0
C1395 C 0.61449 0.51529 0.45657 0.0
C1396 C 0.6034 0.46143 0.55733 0.0
C1397 C 0.61012 0.49529 0.52474 0.0
C1398 C 0.59846 0.45112 0.59007 0.0
C1399 C 0.5964 0.46296 0.62545 0.0
C1400 C 0.60614 0.48389 0.5597 0.0
C1401 C 0.59977 0.4853 0.62692 0.0
C1402 C 0.60947 0.51798 0.52534 0.0
C1403 C 0.61579 0.49271 0.45744 0.0
N1404 N 0.6043 0.49512 0.59439 0.0
N1405 N 0.61343 0.48348 0.49087 0.0
H1406 H 0.25794 0.93673 0.29481 0.0
H1407 H 0.1815 0.88837 0.14517 0.0
H1408 H 0.21309 0.88866 0.31895 0.0
H1409 H 0.23348 0.92706 0.11579 0.0
H1410 H 0.18857 0.8941 0.21195 0.0
H1411 H 0.24469 0.93926 0.23234 0.0
C1412 C 0.24509 0.92699 0.2872 0.0
C1413 C 0.23678 0.91225 0.31186 0.0
C1414 C 0.19827 0.90154 0.19089 0.0
C1415 C 0.22165 0.91493 0.24048 0.0
C1416 C 0.19428 0.89822 0.15274 0.0
C1417 C 0.20708 0.90698 0.12466 0.0
C1418 C 0.21517 0.91372 0.20112 0.0
C1419 C 0.22313 0.92005 0.13633 0.0
C1420 C 0.23761 0.92833 0.25149 0.0
C1421 C 0.22019 0.89994 0.3005 0.0
N1422 N 0.22684 0.92281 0.17357 0.0
N1423 N 0.21329 0.90143 0.26556 0.0
H1424 H 0.56865 0.01656 0.87904 0.0
H1425 H 0.6119 0.97285 0.67157 0.0
H1426 H 0.63315 0.01671 0.84636 0.0
H1427 H 0.55918 0.94686 0.73046 0.0
H1428 H 0.61804 0.99549 0.72956 0.0
H1429 H 0.56275 -0.00165 0.81741 0.0
C1430 C 0.58153 0.01319 0.85855 0.0
C1431 C 0.60143 0.01813 0.86777 0.0
C1432 C 0.60516 0.9848 0.72957 0.0
C1433 C 0.59479 0.99707 0.79747 0.0
C1434 C 0.60163 0.97195 0.69663 0.0
C1435 C 0.58507 0.95793 0.69636 0.0
C1436 C 0.59173 0.98392 0.76193 0.0
C1437 C 0.57223 0.95731 0.72952 0.0
C1438 C 0.57817 0.00259 0.8236 0.0
C1439 C 0.6176 0.01304 0.84035 0.0
N1440 N 0.57575 0.97024 0.76087 0.0
N1441 N 0.61394 0.00272 0.80632 0.0
H1442 H 0.25722 0.3649 0.94683 0.0
H1443 H 0.27291 0.37912 0.16919 0.0
H1444 H 0.31554 0.36039 0.99489 0.0
H1445 H 0.21409 0.36979 0.12403 0.0
H1446 H 0.28845 0.37944 0.10474 0.0
H1447 H 0.24107 0.37418 1.01063 0.0
C1448 C 0.26669 0.36643 0.97065 0.0
C1449 C 0.28772 0.36176 0.96565 0.0
C1450 C 0.27211 0.37748 0.10889 0.0
C1451 C 0.26938 0.37205 0.03853 0.0
C1452 C 0.26319 0.37743 0.14575 0.0
C1453 C 0.24215 0.3743 0.15212 0.0
C1454 C 0.25995 0.37443 0.07798 0.0
C1455 C 0.23041 0.37191 0.12046 0.0
C1456 C 0.25744 0.37149 1.00708 0.0
C1457 C 0.29924 0.3637 0.99755 0.0
N1458 N 0.23948 0.37193 0.08477 0.0
N1459 N 0.28991 0.36854 0.0326 0.0
H1460 H 0.93329 0.03785 0.26567 0.0
H1461 H 0.86195 0.96099 0.37984 0.0
H1462 H 0.88314 0.0067 0.21266 0.0
H1463 H 0.92633 0.96584 0.39521 0.0
H1464 H 0.86706 0.98012 0.3217 0.0
H1465 H 0.92843 0.0147 0.31805 0.0
C1466 C 0.92119 0.02617 0.26512 0.0
C1467 C 0.90859 0.02414 0.2348 0.0
C1468 C 0.88006 0.97664 0.33759 0.0
C1469 C 0.90292 0.99771 0.29476 0.0
C1470 C 0.87717 0.96579 0.37063 0.0
C1471 C 0.89376 0.96179 0.39218 0.0
C1472 C 0.89956 0.98397 0.32679 0.0
C1473 C 0.91317 0.96838 0.37919 0.0
C1474 C 0.91854 0.01286 0.29487 0.0
C1475 C 0.89323 0.00865 0.23547 0.0
N1476 N 0.91548 0.97942 0.34765 0.0
N1477 N 0.89067 0.99611 0.26525 0.0
H1478 H 0.22713 0.58248 0.58024 0.0
H1479 H 0.31633 0.60183 0.72018 0.0
H1480 H 0.28925 0.59375 0.54019 0.0
H1481 H 0.25574 0.58156 0.75477 0.0
H1482 H 0.30763 0.59766 0.65388 0.0
H1483 H 0.23812 0.58062 0.64419 0.0
C1484 C 0.24313 0.58444 0.58495 0.0
C1485 C 0.25728 0.58842 0.55497 0.0
C1486 C 0.29635 0.59388 0.67602 0.0
C1487 C 0.27004 0.58643 0.62827 0.0
C1488 C 0.30128 0.59634 0.71385 0.0
C1489 C 0.28675 0.59204 0.74315 0.0
C1490 C 0.2767 0.5873 0.66752 0.0
C1491 C 0.26756 0.58479 0.73323 0.0
C1492 C 0.24944 0.58332 0.62145 0.0
C1493 C 0.27788 0.59058 0.56254 0.0
N1494 N 0.26307 0.58282 0.6964 0.0
N1495 N 0.28363 0.5898 0.59856 0.0
H1496 H 0.38284 0.01726 0.69641 0.0
H1497 H 0.41827 -0.0007 0.47616 0.0
H1498 H 0.42896 0.05431 0.63915 0.0
H1499 H 0.3611 0.97531 0.52192 0.0
H1500 H 0.42407 0.01636 0.53826 0.0
H1501 H 0.37614 -0.00143 0.63495 0.0
C1502 C 0.39154 0.02144 0.67102 0.0
C1503 C 0.40643 0.03741 0.67289 0.0
C1504 C 0.41019 0.00745 0.53478 0.0
C1505 C 0.39898 0.01614 0.60305 0.0
C1506 C 0.4068 0.99779 0.4992 0.0
C1507 C 0.38899 0.98613 0.49359 0.0
C1508 C 0.39578 0.00537 0.56532 0.0
C1509 C 0.37505 0.98413 0.52498 0.0
C1510 C 0.38767 0.01085 0.63605 0.0
C1511 C 0.41722 0.04227 0.63916 0.0
N1512 N 0.37871 0.99371 0.55958 0.0
N1513 N 0.41333 0.03164 0.60577 0.0
H1514 H 0.73775 0.61877 0.20571 0.0
H1515 H 0.7478 0.65252 0.42484 0.0
H1516 H 0.78985 0.65328 0.24479 0.0
H1517 H 0.69014 0.64866 0.37367 0.0
H1518 H 0.76553 0.6448 0.36177 0.0
H1519 H 0.72235 0.62138 0.27045 0.0
C1520 C 0.746 0.62691 0.22784 0.0
C1521 C 0.76497 0.63627 0.21947 0.0
C1522 C 0.749 0.64549 0.36455 0.0
C1523 C 0.74754 0.63875 0.29398 0.0
C1524 C 0.73889 0.64974 0.40042 0.0
C1525 C 0.7175 0.65123 0.40434 0.0
C1526 C 0.73757 0.64225 0.3327 0.0
C1527 C 0.70666 0.64774 0.37183 0.0
C1528 C 0.73721 0.62827 0.26483 0.0
C1529 C 0.77521 0.64585 0.24977 0.0
N1530 N 0.71682 0.64334 0.33738 0.0
N1531 N 0.76631 0.64696 0.28572 0.0
H1532 H 0.07046 0.93917 0.10225 0.0
H1533 H 0.13347 0.02727 0.99327 0.0
H1534 H 0.11284 0.98087 0.15863 0.0
H1535 H 0.0804 0.99526 0.9528 0.0
H1536 H 0.12815 0.00964 0.05284 0.0
H1537 H 0.07628 0.95828 0.04565 0.0
C1538 C 0.08107 0.95236 0.10276 0.0
C1539 C 0.09122 0.95839 0.13531 0.0
C1540 C 0.11771 0.00655 0.03083 0.0
C1541 C 0.09792 0.98057 0.07006 0.0
C1542 C 0.1207 0.01661 0.99692 0.0
C1543 C 0.10753 0.0125 0.96776 0.0
C1544 C 0.10148 0.9923 0.03543 0.0
C1545 C 0.09127 -0.0015 0.97398 0.0
C1546 C 0.08431 0.96337 0.07033 0.0
C1547 C 0.10465 0.97576 0.13417 0.0
N1548 N 0.08878 0.98889 1.00697 0.0
N1549 N 0.1077 0.98625 0.1019 0.0
H1550 H 0.7108 0.35662 0.62542 0.0
H1551 H 0.76488 0.41709 0.79647 0.0
H1552 H 0.73082 0.42264 0.62479 0.0
H1553 H 0.73511 0.35582 0.80421 0.0
H1554 H 0.75175 0.41989 0.73429 0.0
H1555 H 0.71838 0.35658 0.69168 0.0
C1556 C 0.71645 0.37126 0.63932 0.0
C1557 C 0.7203 0.38963 0.61926 0.0
C1558 C 0.74798 0.40589 0.7497 0.0
C1559 C 0.72951 0.38946 0.69512 0.0
C1560 C 0.75542 0.40432 0.78532 0.0
C1561 C 0.75123 0.38611 0.80562 0.0
C1562 C 0.73636 0.3891 0.73405 0.0
C1563 C 0.73911 0.36994 0.78935 0.0
C1564 C 0.72094 0.37115 0.67716 0.0
C1565 C 0.72799 0.40796 0.63882 0.0
N1566 N 0.73221 0.37175 0.75448 0.0
N1567 N 0.73251 0.40734 0.67552 0.0
H1568 H 0.15003 0.37506 0.32155 0.0
H1569 H 0.09711 0.36009 0.12228 0.0
H1570 H 0.12559 0.31471 0.27863 0.0
H1571 H 0.11554 0.42151 0.17263 0.0
H1572 H 0.109 0.34257 0.17725 0.0
H1573 H 0.13931 0.39187 0.26526 0.0
C1574 C 0.1426 0.36529 0.30017 0.0
C1575 C 0.13886 0.3434 0.30488 0.0
C1576 C 0.11044 0.3599 0.17623 0.0
C1577 C 0.12626 0.36258 0.2402 0.0
C1578 C 0.10362 0.36988 0.14482 0.0
C1579 C 0.10502 0.39237 0.1429 0.0
C1580 C 0.11902 0.37242 0.2058 0.0
C1581 C 0.11398 0.40416 0.17277 0.0
C1582 C 0.13633 0.37492 0.26806 0.0
C1583 C 0.12876 0.33167 0.2764 0.0
N1584 N 0.12052 0.39413 0.20277 0.0
N1585 N 0.12289 0.34133 0.24545 0.0
H1586 H 0.8843 0.88439 0.58609 0.0
H1587 H 0.87504 0.84985 0.36588 0.0
H1588 H 0.9366 0.86697 0.509 0.0
H1589 H 0.82691 0.88277 0.438 0.0
H1590 H 0.89767 0.85393 0.41815 0.0
H1591 H 0.86238 0.88054 0.53288 0.0
C1592 C 0.8911 0.87953 0.55796 0.0
C1593 C 0.91223 0.87619 0.55177 0.0
C1594 C 0.88222 0.86043 0.42241 0.0
C1595 C 0.8874 0.87181 0.4908 0.0
C1596 C 0.86938 0.85821 0.39257 0.0
C1597 C 0.84914 0.86599 0.39773 0.0
C1598 C 0.87464 0.87026 0.45773 0.0
C1599 C 0.84245 0.87662 0.43283 0.0
C1600 C 0.87864 0.87748 0.52758 0.0
C1601 C 0.92033 0.86971 0.51492 0.0
N1602 N 0.85509 0.87823 0.46161 0.0
N1603 N 0.90791 0.86784 0.48575 0.0
H1604 H 0.34092 0.61516 0.90114 0.0
H1605 H 0.39717 0.6356 0.6962 0.0
H1606 H 0.36779 0.67555 0.87464 0.0
H1607 H 0.36389 0.57795 0.71716 0.0
H1608 H 0.38732 0.65001 0.76175 0.0
H1609 H 0.34963 0.60076 0.83507 0.0
C1610 C 0.34836 0.62553 0.88155 0.0
C1611 C 0.35315 0.64685 0.89397 0.0
C1612 C 0.38218 0.63416 0.75211 0.0
C1613 C 0.36392 0.63013 0.81764 0.0
C1614 C 0.38798 0.62584 0.71455 0.0
C1615 C 0.38194 0.60519 0.70089 0.0
C1616 C 0.37004 0.6219 0.77672 0.0
C1617 C 0.36922 0.59383 0.72609 0.0
C1618 C 0.35357 0.6172 0.84368 0.0
C1619 C 0.36364 0.65906 0.86695 0.0
N1620 N 0.36391 0.60216 0.76244 0.0
N1621 N 0.36859 0.65063 0.83059 0.0
H1622 H 0.61616 0.15911 0.88916 0.0
H1623 H 0.61804 0.09353 0.06785 0.0
H1624 H 0.66484 0.11273 0.89696 0.0
H1625 H 0.56219 0.11661 0.02628 0.0
H1626 H 0.63603 0.09949 1.00632 0.0
H1627 H 0.59573 0.14169 0.93704 0.0
C1628 C 0.62255 0.14503 0.90082 0.0
C1629 C 0.6428 0.13821 0.89094 0.0
C1630 C 0.61979 0.10293 1.01059 0.0
C1631 C 0.61957 0.1185 0.94698 0.0
C1632 C 0.60959 0.0997 0.04568 0.0
C1633 C 0.58867 0.10465 0.05208 0.0
C1634 C 0.60898 0.11156 0.9822 0.0
C1635 C 0.57839 0.11281 0.02272 0.0
C1636 C 0.61085 0.13513 0.92837 0.0
C1637 C 0.64994 0.11949 0.90601 0.0
N1638 N 0.58867 0.11614 0.98924 0.0
N1639 N 0.6386 0.11065 0.93446 0.0
H1640 H 0.12303 0.60012 0.59001 0.0
H1641 H 0.13346 0.64754 0.38587 0.0
H1642 H 0.07376 0.63014 0.53744 0.0
H1643 H 0.18513 0.6296 0.44554 0.0
H1644 H 0.11079 0.63432 0.43625 0.0
H1645 H 0.14578 0.60543 0.53358 0.0
C1646 C 0.1171 0.60797 0.56668 0.0
C1647 C 0.09661 0.61487 0.56835 0.0
C1648 C 0.12714 0.63272 0.43789 0.0
C1649 C 0.12223 0.62059 0.50376 0.0
C1650 C 0.14006 0.63997 0.40886 0.0
C1651 C 0.16127 0.63906 0.41097 0.0
C1652 C 0.1355 0.62488 0.46971 0.0
C1653 C 0.16904 0.62979 0.44193 0.0
C1654 C 0.13 0.61086 0.53446 0.0
C1655 C 0.08953 0.6248 0.53741 0.0
N1656 N 0.15617 0.62327 0.47037 0.0
N1657 N 0.1023 0.62729 0.50636 0.0
H1658 H 0.62179 0.91803 0.66725 0.0
H1659 H 0.61703 0.815 0.79179 0.0
H1660 H 0.59245 0.85888 0.63227 0.0
H1661 H 0.64365 0.87537 0.82872 0.0
H1662 H 0.60818 0.83053 0.73362 0.0
H1663 H 0.63022 0.90252 0.72553 0.0
C1664 C 0.61709 0.9017 0.67173 0.0
C1665 C 0.60613 0.88986 0.64465 0.0
C1666 C 0.61598 0.84044 0.7543 0.0
C1667 C 0.616 0.87177 0.71219 0.0
C1668 C 0.62104 0.83159 0.78775 0.0
C1669 C 0.63134 0.8438 0.81534 0.0
C1670 C 0.62113 0.86183 0.74796 0.0
C1671 C 0.63609 0.86518 0.80812 0.0
C1672 C 0.6219 0.89286 0.70529 0.0
C1673 C 0.60059 0.86877 0.65243 0.0
N1674 N 0.63099 0.87347 0.77525 0.0
N1675 N 0.60556 0.86043 0.68537 0.0
H1676 H 0.38939 0.3817 0.08373 0.0
H1677 H 0.36431 0.38774 0.87467 0.0
H1678 H 0.44217 0.37989 1.00404 0.0
H1679 H 0.34731 0.33139 0.93154 0.0
H1680 H 0.38803 0.39681 0.92465 0.0
H1681 H 0.36773 0.37437 0.03036 0.0
C1682 C 0.39637 0.37963 0.05508 0.0
C1683 C 0.41753 0.38112 0.04818 0.0
C1684 C 0.37917 0.38224 0.9255 0.0
C1685 C 0.39296 0.37399 0.98755 0.0
C1686 C 0.36573 0.37704 0.89715 0.0
C1687 C 0.35414 0.35818 0.89814 0.0
C1688 C 0.38028 0.36887 0.95556 0.0
C1689 C 0.35634 0.34524 0.92833 0.0
C1690 C 0.38407 0.3757 0.02482 0.0
C1691 C 0.42591 0.3786 1.01048 0.0
N1692 N 0.36883 0.35091 0.95605 0.0
N1693 N 0.41355 0.37537 0.9814 0.0
H1694 H 0.8684 0.16207 0.38646 0.0
H1695 H 0.86609 0.06122 0.22934 0.0
H1696 H 0.83974 0.10207 0.41008 0.0
H1697 H 0.89458 0.12155 0.2076 0.0
H1698 H 0.85609 0.07564 0.2943 0.0
H1699 H 0.87771 0.14743 0.32175 0.0
C1700 C 0.86392 0.14574 0.3782 0.0
C1701 C 0.85284 0.13355 0.40447 0.0
C1702 C 0.86459 0.08577 0.27554 0.0
C1703 C 0.8639 0.1163 0.32856 0.0
C1704 C 0.87035 0.07755 0.23809 0.0
C1705 C 0.88157 0.08997 0.2124 0.0
C1706 C 0.86986 0.10686 0.28822 0.0
C1707 C 0.88643 0.11105 0.22614 0.0
C1708 C 0.8693 0.13738 0.3408 0.0
C1709 C 0.84771 0.11246 0.39113 0.0
N1710 N 0.8806 0.11872 0.26277 0.0
N1711 N 0.85326 0.10458 0.35441 0.0
H1712 H 0.89617 0.64353 0.24775 0.0
H1713 H 0.8538 0.62371 0.03937 0.0
H1714 H 0.88068 0.58092 0.19781 0.0
H1715 H 0.87651 0.68485 0.08266 0.0
H1716 H 0.8614 0.60828 0.09894 0.0
H1717 H 0.88693 0.65964 0.18954 0.0
C1718 C 0.89083 0.63318 0.22465 0.0
C1719 C 0.88967 0.61075 0.22757 0.0
C1720 C 0.86471 0.62509 0.09544 0.0
C1721 C 0.87864 0.6291 0.16092 0.0
C1722 C 0.86026 0.63392 0.06142 0.0
C1723 C 0.86441 0.65564 0.05585 0.0
C1724 C 0.87335 0.63806 0.12439 0.0
C1725 C 0.8731 0.66799 0.08544 0.0
C1726 C 0.88555 0.64236 0.19137 0.0
C1727 C 0.88214 0.59825 0.19689 0.0
N1728 N 0.8772 0.6591 0.11822 0.0
N1729 N 0.87707 0.6075 0.16506 0.0
H1730 H 0.05659 0.12685 0.85423 0.0
H1731 H 0.1228 0.15473 0.99554 0.0
H1732 H 0.11151 0.10849 0.78475 0.0
H1733 H 0.16211 0.10502 0.93636 0.0
H1734 H 0.10008 0.15158 0.94366 0.0
H1735 H 0.07678 0.13325 0.90881 0.0
C1736 C 0.07302 0.12472 0.85024 0.0
C1737 C 0.0824 0.11702 0.81491 0.0
C1738 C 0.11341 0.14099 0.94232 0.0
C1739 C 0.10576 0.12446 0.87754 0.0
C1740 C 0.12636 0.14279 0.97199 0.0
C1741 C 0.14429 0.13011 0.97027 0.0
C1742 C 0.11847 0.12639 0.91061 0.0
C1743 C 0.14836 0.11504 0.93893 0.0
C1744 C 0.08458 0.12838 0.88154 0.0
C1745 C 0.10372 0.11438 0.81153 0.0
N1746 N 0.13571 0.11383 0.91008 0.0
N1747 N 0.11467 0.11778 0.84263 0.0
H1748 H 0.66305 0.39026 0.45537 0.0
H1749 H 0.60693 0.37064 0.66137 0.0
H1750 H 0.63386 0.33105 0.48214 0.0
H1751 H 0.63681 0.42987 0.6373 0.0
H1752 H 0.61653 0.35611 0.59578 0.0
H1753 H 0.65387 0.40528 0.52112 0.0
C1754 C 0.65493 0.38031 0.4749 0.0
C1755 C 0.64956 0.35914 0.46265 0.0
C1756 C 0.62097 0.37234 0.60476 0.0
C1757 C 0.63854 0.37646 0.5386 0.0
C1758 C 0.61529 0.38072 0.64236 0.0
C1759 C 0.62061 0.40176 0.65529 0.0
C1760 C 0.63227 0.38492 0.57937 0.0
C1761 C 0.63219 0.41361 0.62908 0.0
C1762 C 0.64951 0.38896 0.51258 0.0
C1763 C 0.63848 0.3474 0.48968 0.0
N1764 N 0.63748 0.40516 0.5928 0.0
N1765 N 0.63348 0.35608 0.52582 0.0
H1766 H 0.32529 0.87798 0.4637 0.0
H1767 H 0.37342 0.90095 0.28498 0.0
H1768 H 0.34481 0.81313 0.4226 0.0
H1769 H 0.41676 0.8531 0.3144 0.0
H1770 H 0.34993 0.89123 0.33799 0.0
H1771 H 0.3462 0.89187 0.41039 0.0
C1772 C 0.33359 0.86671 0.44322 0.0
C1773 C 0.3326 0.84436 0.4467 0.0
C1774 C 0.36463 0.883 0.33276 0.0
C1775 C 0.35706 0.85995 0.38739 0.0
C1776 C 0.3779 0.88829 0.30237 0.0
C1777 C 0.39722 0.87812 0.2959 0.0
C1778 C 0.37054 0.86689 0.35575 0.0
C1779 C 0.40215 0.86157 0.31872 0.0
C1780 C 0.34557 0.8746 0.41308 0.0
C1781 C 0.34476 0.83049 0.42079 0.0
N1782 N 0.38886 0.8564 0.34753 0.0
N1783 N 0.35652 0.8385 0.39249 0.0
H1784 H 0.87631 0.41213 0.78629 0.0
H1785 H 0.85705 0.31766 0.92046 0.0
H1786 H 0.91996 0.36089 0.79882 0.0
H1787 H 0.84245 0.38282 0.96764 0.0
H1788 H 0.87018 0.33163 0.86222 0.0
H1789 H 0.85493 0.39965 0.84023 0.0
C1790 C 0.88125 0.39813 0.80007 0.0
C1791 C 0.90016 0.38783 0.78883 0.0
C1792 C 0.86386 0.3429 0.88506 0.0
C1793 C 0.87572 0.3733 0.84898 0.0
C1794 C 0.85628 0.335 0.91853 0.0
C1795 C 0.84858 0.34911 0.94931 0.0
C1796 C 0.86412 0.36518 0.88192 0.0
C1797 C 0.84815 0.3714 0.94459 0.0
C1798 C 0.86915 0.3912 0.83081 0.0
C1799 C 0.90568 0.36953 0.80689 0.0
N1800 N 0.85606 0.37887 0.91142 0.0
N1801 N 0.89354 0.36288 0.83604 0.0
H1802 H 0.37291 0.17702 0.5831 0.0
H1803 H 0.36905 0.0736 0.70661 0.0
H1804 H 0.34655 0.11654 0.54608 0.0
H1805 H 0.39874 0.13254 0.74169 0.0
H1806 H 0.36037 0.08932 0.64879 0.0
H1807 H 0.38215 0.16139 0.64099 0.0
C1808 C 0.36901 0.1604 0.58709 0.0
C1809 C 0.35867 0.14819 0.55956 0.0
C1810 C 0.36882 0.0989 0.66893 0.0
C1811 C 0.36934 0.13004 0.62658 0.0
C1812 C 0.37379 0.08994 0.70226 0.0
C1813 C 0.38493 0.10162 0.72927 0.0
C1814 C 0.37471 0.11999 0.66214 0.0
C1815 C 0.39048 0.12274 0.72159 0.0
C1816 C 0.3743 0.15149 0.62036 0.0
C1817 C 0.35409 0.12675 0.56666 0.0
N1818 N 0.38533 0.13121 0.68886 0.0
N1819 N 0.35942 0.11841 0.59936 0.0
H1820 H 0.62496 0.6041 0.27561 0.0
H1821 H 0.62638 0.6501 0.49314 0.0
H1822 H 0.57375 0.63696 0.33876 0.0
H1823 H 0.67761 0.61701 0.43001 0.0
H1824 H 0.60709 0.64644 0.43627 0.0
H1825 H 0.64556 0.61134 0.33017 0.0
C1826 C 0.61834 0.61358 0.3005 0.0
C1827 C 0.59787 0.62042 0.30257 0.0
C1828 C 0.62253 0.6399 0.43487 0.0
C1829 C 0.62083 0.62786 0.36561 0.0
C1830 C 0.63343 0.64182 0.46741 0.0
C1831 C 0.65359 0.63396 0.46616 0.0
C1832 C 0.63187 0.62998 0.40089 0.0
C1833 C 0.66208 0.62333 0.43219 0.0
C1834 C 0.62995 0.6174 0.33186 0.0
C1835 C 0.58967 0.6319 0.33589 0.0
N1836 N 0.65124 0.62179 0.40085 0.0
N1837 N 0.60111 0.63511 0.36622 0.0
H1838 H 0.12961 0.82533 0.98519 0.0
H1839 H 0.13485 0.92401 0.1462 0.0
H1840 H 0.15995 0.88481 0.96478 0.0
H1841 H 0.10378 0.86484 0.16592 0.0
H1842 H 0.1446 0.90984 0.08109 0.0
H1843 H 0.12033 0.83937 0.05052 0.0
C1844 C 0.13441 0.84142 0.99426 0.0
C1845 C 0.14592 0.85367 0.96871 0.0
C1846 C 0.13553 0.89992 0.09939 0.0
C1847 C 0.13508 0.87015 0.04525 0.0
C1848 C 0.12993 0.908 0.13698 0.0
C1849 C 0.118 0.8959 0.16218 0.0
C1850 C 0.12938 0.87928 0.08595 0.0
C1851 C 0.1124 0.87517 0.14777 0.0
C1852 C 0.12908 0.84942 0.03198 0.0
C1853 C 0.15156 0.87441 0.98307 0.0
N1854 N 0.11806 0.86763 0.11095 0.0
N1855 N 0.14612 0.8819 0.02001 0.0
H1856 H 0.94973 0.52789 0.25423 0.0
H1857 H 0.04348 0.47561 0.11858 0.0
H1858 H 0.00493 0.56156 0.2254 0.0
H1859 H 0.98864 0.4416 0.14854 0.0
H1860 H 0.02907 0.50795 0.15568 0.0
H1861 H 0.96412 0.49551 0.21721 0.0
C1862 C 0.96498 0.52834 0.24073 0.0
C1863 C 0.976 0.54748 0.24211 0.0
C1864 C 0.02013 0.49343 0.15384 0.0
C1865 C 0.99243 0.51086 0.19951 0.0
C1866 C 0.02831 0.47507 0.13236 0.0
C1867 C 0.0174 0.45586 0.13125 0.0
C1868 C 0.00093 0.49244 0.17393 0.0
C1869 C 0.99764 0.4561 0.14913 0.0
C1870 C 0.97314 0.50996 0.21929 0.0
C1871 C 0.99584 0.54713 0.22458 0.0
N1872 N 0.99012 0.47399 0.1701 0.0
N1873 N 0.00334 0.52922 0.20363 0.0
H1874 H 0.76077 0.80895 0.40159 0.0
H1875 H 0.74001 0.69195 0.47379 0.0
H1876 H 0.79094 0.75023 0.35139 0.0
H1877 H 0.70799 0.75014 0.52158 0.0
H1878 H 0.76067 0.71358 0.43183 0.0
H1879 H 0.74041 0.78761 0.44456 0.0
C1880 C 0.76268 0.79149 0.39883 0.0
C1881 C 0.77788 0.78134 0.37351 0.0
C1882 C 0.7493 0.72166 0.45183 0.0
C1883 C 0.75512 0.75698 0.4232 0.0
C1884 C 0.73774 0.70937 0.47627 0.0
C1885 C 0.72192 0.71925 0.50046 0.0
C1886 C 0.74505 0.74394 0.45191 0.0
C1887 C 0.71981 0.74187 0.50281 0.0
C1888 C 0.7513 0.77936 0.42382 0.0
C1889 C 0.77958 0.75869 0.37094 0.0
N1890 N 0.73098 0.75346 0.47823 0.0
N1891 N 0.76859 0.74727 0.39602 0.0
H1892 H 0.50547 0.44957 0.75222 0.0
H1893 H 0.48669 0.5447 0.61803 0.0
H1894 H 0.55417 0.48256 0.69387 0.0
H1895 H 0.43861 0.51141 0.67675 0.0
H1896 H 0.51163 0.51902 0.63851 0.0
H1897 H 0.48067 0.47145 0.72291 0.0
C1898 C 0.51092 0.4618 0.73394 0.0
C1899 C 0.53188 0.46417 0.72533 0.0
C1900 C 0.49556 0.51691 0.64598 0.0
C1901 C 0.50363 0.48878 0.69066 0.0
C1902 C 0.48131 0.5312 0.63341 0.0
C1903 C 0.46064 0.52988 0.64543 0.0
C1904 C 0.48894 0.50144 0.67088 0.0
C1905 C 0.45443 0.51268 0.66653 0.0
C1906 C 0.49677 0.47403 0.71669 0.0
C1907 C 0.53814 0.48019 0.70133 0.0
N1908 N 0.46856 0.49934 0.67923 0.0
N1909 N 0.52406 0.49175 0.6845 0.0
H1910 H 0.76006 0.18094 0.91032 0.0
H1911 H 0.73817 0.3055 0.97505 0.0
H1912 H 0.72012 0.22278 0.85595 0.0
H1913 H 0.78664 0.26826 1.01661 0.0
H1914 H 0.72782 0.27316 0.93837 0.0
H1915 H 0.76967 0.21196 0.9515 0.0
C1916 C 0.75398 0.19685 0.90603 0.0
C1917 C 0.73922 0.1995 0.88004 0.0
C1918 C 0.74055 0.27197 0.95598 0.0
C1919 C 0.7492 0.23451 0.92791 0.0
C1920 C 0.74613 0.29028 0.97759 0.0
C1921 C 0.76352 0.28943 0.99808 0.0
C1922 C 0.75248 0.25291 0.9552 0.0
C1923 C 0.7734 0.26946 1.0004 0.0
C1924 C 0.75907 0.21442 0.93009 0.0
C1925 C 0.73144 0.22024 0.87598 0.0
N1926 N 0.768 0.25195 0.97848 0.0
N1927 N 0.73627 0.23698 0.90018 0.0
H1928 H 0.941 0.51117 0.75338 0.0
H1929 H 0.05515 0.5103 0.66337 0.0
H1930 H 0.9844 0.45859 0.75818 0.0
H1931 H 0.00905 0.55718 0.64123 0.0
H1932 H 0.03141 0.49552 0.70991 0.0
H1933 H 0.96787 0.53245 0.72434 0.0
C1934 C 0.95628 0.50421 0.74857 0.0
C1935 C 0.96057 0.48302 0.75726 0.0
C1936 C 0.0265 0.50913 0.69511 0.0
C1937 C 0.99113 0.50709 0.7242 0.0
C1938 C 0.03996 0.51747 0.66842 0.0
C1939 C 0.03373 0.53464 0.64815 0.0
C1940 C 0.00666 0.51791 0.70113 0.0
C1941 C 0.01421 0.54379 0.65627 0.0
C1942 C 0.97155 0.51634 0.73205 0.0
C1943 C 0.98051 0.47475 0.75104 0.0
N1944 N 0.00116 0.53509 0.68197 0.0
N1945 N 0.99511 0.48678 0.73441 0.0
H1946 H 0.80199 0.7362 0.97698 0.0
H1947 H 0.69582 0.76344 0.88988 0.0
H1948 H 0.75943 0.68775 0.94143 0.0
H1949 H 0.73875 0.8118 0.92408 0.0
H1950 H 0.71866 0.73538 0.90964 0.0
H1951 H 0.7792 0.76424 0.95705 0.0
C1952 C 0.78792 0.73149 0.96473 0.0
C1953 C 0.78247 0.70973 0.96104 0.0
C1954 C 0.72306 0.75215 0.91289 0.0
C1955 C 0.75629 0.74154 0.93856 0.0
C1956 C 0.70998 0.76812 0.90179 0.0
C1957 C 0.71553 0.78986 0.90516 0.0
C1958 C 0.74174 0.75804 0.92747 0.0
C1959 C 0.73401 0.79516 0.92078 0.0
C1960 C 0.77487 0.74746 0.95352 0.0
C1961 C 0.76411 0.70441 0.94498 0.0
N1962 N 0.74649 0.77935 0.93122 0.0
N1963 N 0.75163 0.72021 0.93448 0.0
H1964 H 0.48196 0.44972 0.14088 0.0
H1965 H 0.51737 0.56397 0.20556 0.0
H1966 H 0.44736 0.50605 0.11658 0.0
H1967 H 0.52194 0.5115 0.27805 0.0
H1968 H 0.49286 0.54343 0.16969 0.0
H1969 H 0.4997 0.47205 0.18754 0.0
C1970 C 0.47832 0.46678 0.14516 0.0
C1971 C 0.46342 0.47617 0.12507 0.0
C1972 C 0.4989 0.53666 0.19399 0.0
C1973 C 0.4832 0.50156 0.17775 0.0
C1974 C 0.51278 0.54836 0.21442 0.0
C1975 C 0.52166 0.53923 0.24433 0.0
C1976 C 0.49448 0.51558 0.20316 0.0
C1977 C 0.51544 0.51892 0.25483 0.0
C1978 C 0.48813 0.47941 0.17203 0.0
C1979 C 0.4589 0.49833 0.13164 0.0
N1980 N 0.50247 0.50743 0.23357 0.0
N1981 N 0.46894 0.51043 0.15733 0.0
H1982 H 0.79936 0.22187 0.47877 0.0
H1983 H 0.70424 0.27106 0.38235 0.0
H1984 H 0.74211 0.18947 0.46936 0.0
H1985 H 0.76062 0.30468 0.39509 0.0
H1986 H 0.71861 0.24018 0.411 0.0
H1987 H 0.78533 0.25263 0.44921 0.0
C1988 C 0.78364 0.22148 0.47137 0.0
C1989 C 0.77191 0.20306 0.47643 0.0
C1990 C 0.72796 0.25418 0.40711 0.0
C1991 C 0.75593 0.23795 0.44156 0.0
C1992 C 0.71987 0.27169 0.39024 0.0
C1993 C 0.73122 0.29049 0.38646 0.0
C1994 C 0.74758 0.25545 0.42036 0.0
C1995 C 0.75134 0.29049 0.39735 0.0
C1996 C 0.77573 0.23893 0.45402 0.0
C1997 C 0.75168 0.20336 0.46612 0.0
N1998 N 0.75881 0.27334 0.41424 0.0
N1999 N 0.7444 0.22043 0.44877 0.0
H2000 H 0.24259 0.31137 0.92558 0.0
H2001 H 0.24617 0.18258 0.91831 0.0
H2002 H 0.27817 0.27127 0.83991 0.0
H2003 H 0.21407 0.22338 1.00757 0.0
H2004 H 0.25881 0.21477 0.88948 0.0
H2005 H 0.22851 0.27893 0.95129 0.0
C2006 C 0.24653 0.29572 0.91087 0.0
C2007 C 0.26179 0.29388 0.88114 0.0
C2008 C 0.24939 0.21672 0.91585 0.0
C2009 C 0.24678 0.25684 0.91144 0.0
C2010 C 0.24272 0.19835 0.93291 0.0
C2011 C 0.22912 0.20044 0.96524 0.0
C2012 C 0.24232 0.2372 0.93139 0.0
C2013 C 0.22468 0.22115 0.98274 0.0
C2014 C 0.23902 0.27719 0.92629 0.0
C2015 C 0.26652 0.27332 0.86314 0.0
N2016 N 0.23088 0.23882 0.96506 0.0
N2017 N 0.25952 0.25547 0.87933 0.0
H2018 H 0.23923 0.71154 0.33948 0.0
H2019 H 0.23853 0.79533 0.52136 0.0
H2020 H 0.25376 0.69515 0.45073 0.0
H2021 H 0.2336 0.81443 0.40788 0.0
H2022 H 0.23718 0.7574 0.49711 0.0
H2023 H 0.23416 0.74936 0.3641 0.0
C2024 C 0.24168 0.71606 0.36889 0.0
C2025 C 0.24628 0.7004 0.39347 0.0
C2026 C 0.23617 0.76994 0.4776 0.0
C2027 C 0.2402 0.7429 0.42182 0.0
C2028 C 0.23673 0.79145 0.4915 0.0
C2029 C 0.23723 0.80762 0.46617 0.0
C2030 C 0.23609 0.765 0.43831 0.0
C2031 C 0.23392 0.8022 0.42808 0.0
C2032 C 0.23856 0.73746 0.38302 0.0
C2033 C 0.2499 0.70683 0.43104 0.0
N2034 N 0.23406 0.78116 0.41496 0.0
N2035 N 0.24643 0.72765 0.44431 0.0
H2036 H 0.25694 0.21681 0.52568 0.0
H2037 H 0.24185 0.27388 0.3335 0.0
H2038 H 0.2969 0.20525 0.42419 0.0
H2039 H 0.20183 0.28498 0.435 0.0
H2040 H 0.26225 0.24853 0.366 0.0
H2041 H 0.23678 0.2423 0.49315 0.0
C2042 C 0.26155 0.21981 0.49667 0.0
C2043 C 0.27859 0.209 0.47758 0.0
C2044 C 0.24893 0.25642 0.3811 0.0
C2045 C 0.2556 0.23791 0.44006 0.0
C2046 C 0.23727 0.2708 0.36249 0.0
C2047 C 0.22013 0.28142 0.38159 0.0
C2048 C 0.24338 0.2527 0.41905 0.0
C2049 C 0.21488 0.27699 0.4192 0.0
C2050 C 0.25003 0.23428 0.47804 0.0
C2051 C 0.28391 0.21337 0.43996 0.0
N2052 N 0.22648 0.26301 0.43672 0.0
N2053 N 0.27242 0.22744 0.42239 0.0
H2054 H 0.28722 0.72478 1.00128 0.0
H2055 H 0.20932 0.77305 0.86463 0.0
H2056 H 0.24193 0.68669 0.9464 0.0
H2057 H 0.25707 0.80982 0.91457 0.0
H2058 H 0.2215 0.7409 0.89271 0.0
H2059 H 0.27489 0.75673 0.97279 0.0
C2060 C 0.27419 0.72336 0.98427 0.0
C2061 C 0.26558 0.70316 0.97616 0.0
C2062 C 0.22955 0.75589 0.89702 0.0
C2063 C 0.25185 0.73932 0.94227 0.0
C2064 C 0.22279 0.77414 0.88048 0.0
C2065 C 0.23214 0.79408 0.8874 0.0
C2066 C 0.24574 0.75767 0.92081 0.0
C2067 C 0.24949 0.79472 0.90831 0.0
C2068 C 0.26739 0.74148 0.96744 0.0
C2069 C 0.24885 0.70204 0.9537 0.0
N2070 N 0.25555 0.77683 0.9248 0.0
N2071 N 0.24269 0.71984 0.93705 0.0
H2072 H 0.44088 0.01223 0.73675 0.0
H2073 H 0.55047 0.97982 0.63412 0.0
H2074 H 0.49647 0.04419 0.76401 0.0
H2075 H 0.49492 0.94767 0.60715 0.0
H2076 H 0.53068 0.00477 0.67956 0.0
H2077 H 0.46061 0.9875 0.69082 0.0
C2078 C 0.45731 0.01369 0.73381 0.0
C2079 C 0.46701 0.03054 0.75378 0.0
C2080 C 0.52278 0.99243 0.66338 0.0
C2081 C 0.48962 0.00265 0.70055 0.0
C2082 C 0.53404 0.97837 0.63697 0.0
C2083 C 0.52437 0.96137 0.61731 0.0
C2084 C 0.5017 0.98953 0.66998 0.0
C2085 C 0.50302 0.96038 0.62204 0.0
C2086 C 0.46854 -0.00024 0.70714 0.0
C2087 C 0.48835 0.03158 0.74892 0.0
N2088 N 0.49243 0.97405 0.64834 0.0
N2089 N 0.49891 0.01803 0.72237 0.0
H2090 H 0.05608 0.98039 0.21706 0.0
H2091 H 0.94373 0.0054 0.15601 0.0
H2092 H 0.00314 0.94424 0.2509 0.0
H2093 H 0.99649 0.04207 0.12316 0.0
H2094 H 0.96557 0.98169 0.1883 0.0
H2095 H 0.03429 0.00408 0.18456 0.0
C2096 C 0.03979 0.97777 0.21852 0.0
C2097 C 0.03146 0.96007 0.23617 0.0
C2098 C 0.97243 0.99476 0.17365 0.0
C2099 C 0.00652 0.98677 0.19819 0.0
C2100 C 0.96 0.00812 0.15469 0.0
C2101 C 0.96825 0.02599 0.13743 0.0
C2102 C 0.99326 -0.00077 0.17516 0.0
C2103 C 0.98946 0.02863 0.13648 0.0
C2104 C 0.02739 0.99112 0.19946 0.0
C2105 C 0.01024 0.95755 0.23729 0.0
N2106 N 0.0012 0.0156 0.15562 0.0
N2107 N -0.00147 0.97055 0.21803 0.0
H2108 H 0.48336 0.94432 0.25622 0.0
H2109 H 0.5096 0.04592 0.13872 0.0
H2110 H 0.44152 0.99801 0.24913 0.0
H2111 H 0.55405 0.99705 0.15977 0.0
H2112 H 0.48469 0.02947 0.18161 0.0
H2113 H 0.51004 0.96407 0.22281 0.0
C2114 C 0.47989 0.96031 0.24771 0.0
C2115 C 0.46034 0.96958 0.2549 0.0
C2116 C 0.49994 0.02245 0.17707 0.0
C2117 C 0.49046 0.99216 0.21708 0.0
C2118 C 0.5141 0.03185 0.15272 0.0
C2119 C 0.53369 0.02266 0.14579 0.0
C2120 C 0.50552 0.00369 0.19409 0.0
C2121 C 0.53891 0.00439 0.16418 0.0
C2122 C 0.49507 0.97161 0.22886 0.0
C2123 C 0.45649 0.99038 0.24389 0.0
N2124 N 0.52482 0.99536 0.18739 0.0
N2125 N 0.47143 0.00096 0.22518 0.0
H2126 H 0.99184 0.94067 0.62471 0.0
H2127 H 0.00897 0.03997 0.77271 0.0
H2128 H 0.94369 0.98381 0.67569 0.0
H2129 H 0.05652 0.99386 0.72996 0.0
H2130 H 0.98389 0.01677 0.74348 0.0
H2131 H 0.0151 0.95694 0.66917 0.0
C2132 C 0.9862 0.95343 0.64553 0.0
C2133 C 0.96609 0.96124 0.64643 0.0
C2134 C -0.00022 0.01158 0.74081 0.0
C2135 C 0.99229 0.97993 0.69667 0.0
C2136 C 0.01404 0.02487 0.75729 0.0
C2137 C 0.0347 0.01886 0.75291 0.0
C2138 C 0.00641 0.99239 0.71958 0.0
C2139 C 0.04064 -0.00096 0.73346 0.0
C2140 C -0.00061 0.96269 0.67084 0.0
C2141 C 0.9593 0.97772 0.67372 0.0
N2142 N 0.02653 0.98656 0.71698 0.0
N2143 N 0.97247 0.9867 0.69762 0.0
H2144 H 0.05538 0.40545 0.96058 0.0
H2145 H 0.94127 0.41775 0.90072 0.0
H2146 H 0.00417 0.38972 0.03534 0.0
H2147 H 0.99402 0.41029 0.82081 0.0
H2148 H 0.96317 0.4089 0.95146 0.0
H2149 H 0.03257 0.40802 0.90953 0.0
C2150 C 0.03937 0.40197 0.96594 0.0
C2151 C 0.03175 0.39699 1.0021 0.0
C2152 C 0.96982 0.40907 0.92269 0.0
C2153 C 0.00519 0.40087 0.944 0.0
C2154 C 0.95735 0.41422 0.89375 0.0
C2155 C 0.96572 0.41488 0.85627 0.0
C2156 C 0.99084 0.40484 0.91416 0.0
C2157 C 0.98672 0.41007 0.84908 0.0
C2158 C 0.02628 0.40361 0.93685 0.0
C2159 C 0.01074 0.39313 1.00764 0.0
N2160 N 0.99846 0.40546 0.8776 0.0
N2161 N 0.99812 0.39548 0.9791 0.0
H2162 H 0.83117 0.69746 0.13188 0.0
H2163 H 0.8252 0.8187 0.22 0.0
H2164 H 0.83371 0.7518 0.06261 0.0
H2165 H 0.84898 0.76732 0.2808 0.0
H2166 H 0.82681 0.79427 0.1624 0.0
H2167 H 0.83548 0.72235 0.18788 0.0
C2168 C 0.83252 0.71461 0.12849 0.0
C2169 C 0.83193 0.72261 0.09259 0.0
C2170 C 0.83203 0.78841 0.18813 0.0
C2171 C 0.83691 0.75104 0.1563 0.0
C2172 C 0.8312 0.80237 0.22094 0.0
C2173 C 0.83713 0.79502 0.25502 0.0
C2174 C 0.83831 0.76676 0.18964 0.0
C2175 C 0.84455 0.77366 0.2549 0.0
C2176 C 0.83519 0.72875 0.16035 0.0
C2177 C 0.83405 0.74494 0.08973 0.0
N2178 N 0.8446 0.76011 0.2228 0.0
N2179 N 0.83625 0.75838 0.12118 0.0
H2180 H 0.5491 0.58046 0.40689 0.0
H2181 H 0.43527 0.59493 0.50215 0.0
H2182 H 0.49838 0.59999 0.34547 0.0
H2183 H 0.48764 0.59865 0.5689 0.0
H2184 H 0.45801 0.59503 0.44447 0.0
H2185 H 0.52703 0.58482 0.46599 0.0
C2186 C 0.53336 0.5857 0.40571 0.0
C2187 C 0.5257 0.58986 0.3708 0.0
C2188 C 0.46457 0.5961 0.4717 0.0
C2189 C 0.50016 0.59468 0.43881 0.0
C2190 C 0.45155 0.59613 0.5048 0.0
C2191 C 0.45942 0.59703 0.54076 0.0
C2192 C 0.48585 0.59644 0.47407 0.0
C2193 C 0.48077 0.59828 0.54201 0.0
C2194 C 0.52077 0.58827 0.4396 0.0
C2195 C 0.5051 0.59665 0.37147 0.0
N2196 N 0.49319 0.59767 0.50928 0.0
N2197 N 0.4931 0.59864 0.40464 0.0
H2198 H 0.65136 0.22951 0.64386 0.0
H2199 H 0.69543 0.32511 0.52671 0.0
H2200 H 0.69917 0.27142 0.68037 0.0
H2201 H 0.66219 0.27263 0.47447 0.0
H2202 H 0.69407 0.30715 0.58517 0.0
H2203 H 0.65275 0.24621 0.58324 0.0
C2204 C 0.66218 0.24218 0.63903 0.0
C2205 C 0.67515 0.24915 0.66715 0.0
C2206 C 0.68709 0.2995 0.56096 0.0
C2207 C 0.67671 0.26834 0.59823 0.0
C2208 C 0.68773 0.30983 0.52747 0.0
C2209 C 0.67891 0.30036 0.49543 0.0
C2210 C 0.67742 0.27958 0.5628 0.0
C2211 C 0.66922 0.28049 0.49842 0.0
C2212 C 0.66301 0.25162 0.60445 0.0
C2213 C 0.68902 0.26546 0.65937 0.0
N2214 N 0.66868 0.27074 0.53161 0.0
N2215 N 0.68932 0.27461 0.62577 0.0
H2216 H 0.98831 0.59684 0.04984 0.0
H2217 H 0.99031 0.6507 0.85211 0.0
H2218 H 0.97252 0.66393 0.03939 0.0
H2219 H 0.0197 0.58914 0.86512 0.0
H2220 H 0.9814 0.6546 0.92011 0.0
H2221 H 0.99789 0.59264 0.98186 0.0
C2222 C 0.98702 0.61077 0.03341 0.0
C2223 C 0.97961 0.63082 0.05059 0.0
C2224 C 0.98984 0.64025 0.90813 0.0
C2225 C 0.99018 0.62592 0.97241 0.0
C2226 C 0.99505 0.63804 0.86924 0.0
C2227 C 0.00598 0.61964 0.8527 0.0
C2228 C 0.99542 0.62388 0.93088 0.0
C2229 C 0.01114 0.60353 0.87644 0.0
C2230 C 0.99238 0.60829 0.9945 0.0
C2231 C 0.97786 0.64809 0.02747 0.0
N2232 N 0.00582 0.60603 0.91431 0.0
N2233 N 0.98306 0.64523 0.98965 0.0
H2234 H 0.6665 0.75644 0.296 0.0
H2235 H 0.62873 0.72754 0.08814 0.0
H2236 H 0.6334 0.69889 0.26545 0.0
H2237 H 0.66121 0.78551 0.11885 0.0
H2238 H 0.63104 0.71643 0.15231 0.0
H2239 H 0.66554 0.76682 0.23103 0.0
C2240 C 0.65896 0.74598 0.27572 0.0
C2241 C 0.64991 0.72677 0.28655 0.0
C2242 C 0.6377 0.73157 0.14505 0.0
C2243 C 0.64891 0.73858 0.21153 0.0
C2244 C 0.63627 0.73804 0.10836 0.0
C2245 C 0.64465 0.75764 0.09783 0.0
C2246 C 0.64759 0.74474 0.17179 0.0
C2247 C 0.65465 0.77021 0.12533 0.0
C2248 C 0.65852 0.7519 0.23847 0.0
C2249 C 0.64075 0.71373 0.25855 0.0
N2250 N 0.65576 0.7636 0.16094 0.0
N2251 N 0.64041 0.71991 0.22252 0.0
H2252 H 0.57244 0.38439 0.46409 0.0
H2253 H 0.48626 0.41609 0.32751 0.0
H2254 H 0.51056 0.40342 0.50279 0.0
H2255 H 0.54707 0.39433 0.28623 0.0
H2256 H 0.49608 0.41466 0.39232 0.0
H2257 H 0.56456 0.39069 0.39918 0.0
C2258 C 0.55725 0.39 0.45898 0.0
C2259 C 0.54207 0.3931 0.48886 0.0
C2260 C 0.50734 0.41031 0.36912 0.0
C2261 C 0.53293 0.40033 0.41478 0.0
C2262 C 0.50177 0.4113 0.33202 0.0
C2263 C 0.51581 0.40521 0.30125 0.0
C2264 C 0.5271 0.40314 0.37568 0.0
C2265 C 0.53563 0.39883 0.30904 0.0
C2266 C 0.55273 0.39352 0.42193 0.0
C2267 C 0.52262 0.40034 0.48056 0.0
N2268 N 0.54065 0.39785 0.34544 0.0
N2269 N 0.51862 0.40363 0.44439 0.0
H2270 H 0.80775 0.32142 0.85898 0.0
H2271 H 0.84193 0.21411 0.72564 0.0
H2272 H 0.82985 0.26294 0.90237 0.0
H2273 H 0.81914 0.27258 0.68313 0.0
H2274 H 0.83741 0.23142 0.79013 0.0
H2275 H 0.81191 0.30381 0.79475 0.0
C2276 C 0.81344 0.30485 0.85517 0.0
C2277 C 0.81835 0.29373 0.88661 0.0
C2278 C 0.83339 0.24048 0.7667 0.0
C2279 C 0.82326 0.27327 0.81222 0.0
C2280 C 0.83583 0.23051 0.72966 0.0
C2281 C 0.83096 0.24175 0.69826 0.0
C2282 C 0.82596 0.26197 0.77295 0.0
C2283 C 0.82346 0.2632 0.70593 0.0
C2284 C 0.81585 0.29477 0.81826 0.0
C2285 C 0.82583 0.27227 0.8793 0.0
N2286 N 0.82121 0.27251 0.74219 0.0
N2287 N 0.82802 0.26281 0.8431 0.0
H2288 H -0.00125 0.59604 0.55739 0.0
H2289 H 0.98878 0.61534 0.33879 0.0
H2290 H 0.05023 0.58657 0.47503 0.0
H2291 H 0.9388 0.59577 0.41287 0.0
H2292 H 0.01166 0.61264 0.39055 0.0
H2293 H 0.97695 0.60317 0.50669 0.0
C2294 C 0.00555 0.59553 0.52863 0.0
C2295 C 0.02644 0.5906 0.52061 0.0
C2296 C 0.99561 0.60928 0.39555 0.0
C2297 C 0.00132 0.59911 0.46206 0.0
C2298 C 0.98249 0.61115 0.36625 0.0
C2299 C 0.96177 0.60603 0.37165 0.0
C2300 C 0.98788 0.60262 0.43068 0.0
C2301 C 0.95459 0.60005 0.40753 0.0
C2302 C 0.99301 0.59959 0.49963 0.0
C2303 C 0.03421 0.59015 0.48257 0.0
N2304 N 0.96757 0.59856 0.43556 0.0
N2305 N 0.02168 0.59445 0.45471 0.0
H2306 H 0.1703 0.24837 0.29459 0.0
H2307 H 0.16424 0.23612 0.06872 0.0
H2308 H 0.1748 0.3027 0.22541 0.0
H2309 H 0.17587 0.18291 0.13649 0.0
H2310 H 0.16294 0.26088 0.12646 0.0
H2311 H 0.16752 0.22432 0.23744 0.0
C2312 C 0.17065 0.25528 0.26742 0.0
C2313 C 0.17294 0.27761 0.26489 0.0
C2314 C 0.16561 0.24375 0.12862 0.0
C2315 C 0.16959 0.25006 0.1991 0.0
C2316 C 0.16618 0.22959 0.09574 0.0
C2317 C 0.17022 0.2074 0.09771 0.0
C2318 C 0.16885 0.23559 0.16373 0.0
C2319 C 0.17284 0.1999 0.1335 0.0
C2320 C 0.16908 0.24151 0.23473 0.0
C2321 C 0.17326 0.28557 0.22875 0.0
N2322 N 0.17213 0.21391 0.16495 0.0
N2323 N 0.17159 0.27183 0.19731 0.0
H2324 H 0.50787 0.42009 1.01739 0.0
H2325 H 0.5222 0.39378 0.79178 0.0
H2326 H 0.456 0.41413 0.94945 0.0
H2327 H 0.56932 0.41827 0.86102 0.0
H2328 H 0.49815 0.3958 0.84867 0.0
H2329 H 0.53056 0.41479 0.96032 0.0
C2330 C 0.50115 0.41768 0.99041 0.0
C2331 C 0.47982 0.41764 0.98857 0.0
C2332 C 0.51383 0.40044 0.85142 0.0
C2333 C 0.50623 0.41127 0.92205 0.0
C2334 C 0.52767 0.39897 0.81904 0.0
C2335 C 0.54797 0.40558 0.82157 0.0
C2336 C 0.52037 0.40835 0.88672 0.0
C2337 C 0.55394 0.41279 0.85759 0.0
C2338 C 0.51424 0.41465 0.95762 0.0
C2339 C 0.47229 0.41448 0.95238 0.0
N2340 N 0.54031 0.41395 0.88846 0.0
N2341 N 0.48545 0.41132 0.92059 0.0
H2342 H 0.28131 0.77435 0.72778 0.0
H2343 H 0.32263 0.67213 0.82693 0.0
H2344 H 0.30933 0.71734 0.66668 0.0
H2345 H 0.30508 0.73265 0.88976 0.0
H2346 H 0.31715 0.68856 0.76808 0.0
H2347 H 0.28889 0.75949 0.78746 0.0
C2348 C 0.28907 0.75875 0.72679 0.0
C2349 C 0.29455 0.74707 0.6919 0.0
C2350 C 0.31462 0.69836 0.79463 0.0
C2351 C 0.30318 0.72992 0.7603 0.0
C2352 C 0.31775 0.68897 0.82829 0.0
C2353 C 0.31429 0.70104 0.86328 0.0
C2354 C 0.30772 0.71999 0.7958 0.0
C2355 C 0.30811 0.72283 0.86333 0.0
C2356 C 0.29336 0.75027 0.76094 0.0
C2357 C 0.30438 0.72681 0.69267 0.0
N2358 N 0.30483 0.73158 0.83009 0.0
N2359 N 0.30832 0.71892 0.72618 0.0
H2360 H 0.00025 0.34722 0.32967 0.0
H2361 H 0.00619 0.42753 0.51652 0.0
H2362 H 0.02849 0.40965 0.3313 0.0
H2363 H 0.97484 0.36688 0.51595 0.0
H2364 H 0.01447 0.42097 0.44845 0.0
H2365 H 0.99106 0.35363 0.39781 0.0
C2366 C 0.00457 0.36223 0.34434 0.0
C2367 C 0.01506 0.37796 0.32462 0.0
C2368 C 0.00574 0.40909 0.46312 0.0
C2369 C 0.00448 0.38547 0.40252 0.0
C2370 C 0.00108 0.4128 0.50206 0.0
C2371 C 0.98988 0.39769 0.52204 0.0
C2372 C -0.00074 0.39006 0.44383 0.0
C2373 C 0.98336 0.37905 0.50164 0.0
C2374 C -0.00079 0.36594 0.38318 0.0
C2375 C 0.0201 0.3972 0.34509 0.0
N2376 N 0.98823 0.3757 0.4637 0.0
N2377 N 0.01479 0.40038 0.38281 0.0
H2378 H 0.35801 0.22782 0.06661 0.0
H2379 H 0.33405 0.26277 0.28782 0.0
H2380 H 0.32605 0.28722 0.10824 0.0
H2381 H 0.35993 0.20056 0.2447 0.0
H2382 H 0.33178 0.27251 0.22269 0.0
H2383 H 0.35975 0.21822 0.13173 0.0
C2384 C 0.35123 0.23884 0.08934 0.0
C2385 C 0.34175 0.25836 0.08155 0.0
C2386 C 0.33794 0.25672 0.22748 0.0
C2387 C 0.34401 0.24749 0.15685 0.0
C2388 C 0.33913 0.25106 0.26475 0.0
C2389 C 0.34721 0.23075 0.27207 0.0
C2390 C 0.3449 0.24202 0.19702 0.0
C2391 C 0.35388 0.2165 0.24072 0.0
C2392 C 0.35235 0.23336 0.12668 0.0
C2393 C 0.3337 0.27211 0.11261 0.0
N2394 N 0.35258 0.2224 0.20475 0.0
N2395 N 0.335 0.26641 0.14876 0.0
H2396 H 0.48912 0.58333 0.05504 0.0
H2397 H 0.47291 0.65468 0.87944 0.0
H2398 H 0.4974 0.65238 0.05872 0.0
H2399 H 0.46599 0.58541 0.87447 0.0
H2400 H 0.48124 0.65419 0.94542 0.0
H2401 H 0.47996 0.58382 0.98946 0.0
C2402 C 0.48909 0.5986 0.04211 0.0
C2403 C 0.4941 0.61785 0.06268 0.0
C2404 C 0.47787 0.63908 0.92994 0.0
C2405 C 0.4834 0.61853 0.98732 0.0
C2406 C 0.47322 0.63933 0.89209 0.0
C2407 C 0.46877 0.62005 0.87106 0.0
C2408 C 0.47815 0.61941 0.94718 0.0
C2409 C 0.46906 0.60073 0.88949 0.0
C2410 C 0.48374 0.59888 1.00463 0.0
C2411 C 0.49342 0.63717 0.04436 0.0
N2412 N 0.47371 0.60091 0.92634 0.0
N2413 N 0.48824 0.637 1.00784 0.0
H2414 H 0.1837 0.71129 0.69196 0.0
H2415 H 0.19963 0.72596 0.46794 0.0
H2416 H 0.18079 0.77314 0.64416 0.0
H2417 H 0.2016 0.66371 0.51442 0.0
H2418 H 0.19374 0.7433 0.53208 0.0
H2419 H 0.19083 0.69378 0.62811 0.0
C2420 C 0.18442 0.72131 0.66823 0.0
C2421 C 0.18142 0.74396 0.67424 0.0
C2422 C 0.19544 0.72585 0.52842 0.0
C2423 C 0.19001 0.72361 0.59989 0.0
C2424 C 0.19882 0.71583 0.49154 0.0
C2425 C 0.20109 0.69315 0.48519 0.0
C2426 C 0.19415 0.71328 0.55989 0.0
C2427 C 0.19997 0.68118 0.5175 0.0
C2428 C 0.18866 0.71119 0.63154 0.0
C2429 C 0.18313 0.75576 0.64168 0.0
N2430 N 0.19654 0.69132 0.55316 0.0
N2431 N 0.1872 0.74552 0.60629 0.0
H2432 H 0.44157 0.91259 0.40639 0.0
H2433 H 0.55701 0.90524 0.45963 0.0
H2434 H 0.49231 0.89829 0.32373 0.0
H2435 H 0.50805 0.89 0.53987 0.0
H2436 H 0.53283 0.90535 0.41027 0.0
H2437 H 0.46472 0.90724 0.45708 0.0
C2438 C 0.45745 0.90826 0.39882 0.0
C2439 C 0.46489 0.90595 0.36054 0.0
C2440 C 0.52736 0.90164 0.43851 0.0
C2441 C 0.49143 0.90005 0.41829 0.0
C2442 C 0.54121 0.90145 0.46666 0.0
C2443 C 0.53464 0.89723 0.50378 0.0
C2444 C 0.50654 0.8982 0.44758 0.0
C2445 C 0.51385 0.89287 0.51142 0.0
C2446 C 0.47062 0.90513 0.42774 0.0
C2447 C 0.48568 0.90027 0.35261 0.0
N2448 N 0.50047 0.89378 0.48371 0.0
N2449 N 0.49813 0.89776 0.38104 0.0
H2450 H 0.32797 0.24223 0.5657 0.0
H2451 H 0.32807 0.25391 0.79244 0.0
H2452 H 0.32061 0.18825 0.63517 0.0
H2453 H 0.32303 0.30807 0.72371 0.0
H2454 H 0.32972 0.22938 0.73471 0.0
H2455 H 0.33017 0.26633 0.62301 0.0
C2456 C 0.32684 0.23542 0.59297 0.0
C2457 C 0.32394 0.21318 0.59556 0.0
C2458 C 0.3284 0.24665 0.73231 0.0
C2459 C 0.3266 0.24073 0.66142 0.0
C2460 C 0.3276 0.26068 0.76524 0.0
C2461 C 0.32534 0.2831 0.76301 0.0
C2462 C 0.32709 0.25511 0.69687 0.0
C2463 C 0.32466 0.29091 0.72692 0.0
C2464 C 0.32809 0.24921 0.62572 0.0
C2465 C 0.32264 0.20531 0.63177 0.0
N2466 N 0.32548 0.27695 0.69538 0.0
N2467 N 0.32398 0.21906 0.66324 0.0
H2468 H 0.9319 0.07693 1.00528 0.0
H2469 H 0.04772 0.08064 0.91769 0.0
H2470 H 0.98027 0.09724 0.07506 0.0
H2471 H 0.99478 0.07921 0.85212 0.0
H2472 H 0.02466 0.08489 0.97619 0.0
H2473 H 0.95573 0.07648 0.94932 0.0
C2474 C 0.94748 0.08177 1.00876 0.0
C2475 C 0.95392 0.08749 0.04501 0.0
C2476 C 0.0182 0.08371 0.94887 0.0
C2477 C 0.98184 0.08622 0.98056 0.0
C2478 C 0.03137 0.08114 0.91547 0.0
C2479 C 0.02332 0.07955 0.87963 0.0
C2480 C 0.99685 0.08439 0.94639 0.0
C2481 C 0.00191 0.08046 0.87877 0.0
C2482 C 0.96119 0.08135 0.97672 0.0
C2483 C 0.97449 0.09317 0.04763 0.0
N2484 N 0.98961 0.08268 0.9113 0.0
N2485 N 0.98777 0.09215 1.01596 0.0
H2486 H 0.17892 0.76469 0.97247 0.0
H2487 H 0.19918 0.78042 0.19156 0.0
H2488 H 0.17882 0.82695 0.03576 0.0
H2489 H 0.17269 0.72184 0.14461 0.0
H2490 H 0.19615 0.7963 0.13148 0.0
H2491 H 0.18008 0.7472 0.03244 0.0
C2492 C 0.17901 0.77468 0.99886 0.0
C2493 C 0.17917 0.79736 0.99893 0.0
C2494 C 0.19097 0.77997 0.13436 0.0
C2495 C 0.18087 0.77751 0.06725 0.0
C2496 C 0.1926 0.77086 0.16885 0.0
C2497 C 0.18599 0.74973 0.17376 0.0
C2498 C 0.18297 0.76786 0.10397 0.0
C2499 C 0.17823 0.73807 0.14238 0.0
C2500 C 0.17975 0.7647 0.033 0.0
C2501 C 0.1793 0.80946 0.03404 0.0
N2502 N 0.17697 0.74725 0.10886 0.0
N2503 N 0.18035 0.79942 0.06657 0.0
H2504 H 0.46645 0.10835 0.33766 0.0
H2505 H 0.5018 0.09109 0.54502 0.0
H2506 H 0.52641 0.08479 0.35905 0.0
H2507 H 0.44127 0.11312 0.5241 0.0
H2508 H 0.51061 0.08744 0.47683 0.0
H2509 H 0.4565 0.10892 0.40541 0.0
C2510 C 0.47755 0.1033 0.35659 0.0
C2511 C 0.49737 0.09665 0.34255 0.0
C2512 C 0.49537 0.09302 0.48708 0.0
C2513 C 0.48599 0.09714 0.42035 0.0
C2514 C 0.49036 0.09524 0.52608 0.0
C2515 C 0.4708 0.10264 0.54043 0.0
C2516 C 0.48077 0.09829 0.46199 0.0
C2517 C 0.45649 0.10728 0.51438 0.0
C2518 C 0.4718 0.10353 0.39529 0.0
C2519 C 0.51094 0.08989 0.36844 0.0
N2520 N 0.4618 0.10516 0.47647 0.0
N2521 N 0.50503 0.09044 0.40604 0.0
H2522 H 0.16415 0.22672 0.57384 0.0
H2523 H 0.1317 0.25623 0.79432 0.0
H2524 H 0.13446 0.28697 0.6177 0.0
H2525 H 0.16629 0.19847 0.75265 0.0
H2526 H 0.13206 0.26726 0.72971 0.0
H2527 H 0.1647 0.21579 0.6386 0.0
C2528 C 0.15788 0.23777 0.597 0.0
C2529 C 0.14922 0.25787 0.58993 0.0
C2530 C 0.1396 0.25217 0.73465 0.0
C2531 C 0.14955 0.24519 0.6646 0.0
C2532 C 0.13951 0.24588 0.77172 0.0
C2533 C 0.14907 0.22636 0.77938 0.0
C2534 C 0.14924 0.23889 0.70455 0.0
C2535 C 0.1585 0.21351 0.74838 0.0
C2536 C 0.15808 0.23142 0.63406 0.0
C2537 C 0.14102 0.27121 0.62139 0.0
N2538 N 0.15836 0.21999 0.7125 0.0
N2539 N 0.14138 0.26464 0.65714 0.0
H2540 H 0.00474 0.89957 1.01332 0.0
H2541 H 0.04126 0.88013 0.79343 0.0
H2542 H 0.06587 0.8784 0.9734 0.0
H2543 H 0.98204 0.90652 0.83505 0.0
H2544 H 0.05113 0.88056 0.85872 0.0
H2545 H 0.99672 0.90339 0.94804 0.0
C2546 C 0.01649 0.89568 0.99075 0.0
C2547 C 0.03594 0.88838 0.99881 0.0
C2548 C 0.03603 0.8864 0.85356 0.0
C2549 C 0.02687 0.89286 0.92374 0.0
C2550 C 0.03034 0.88606 0.81629 0.0
C2551 C 0.01072 0.89316 0.80871 0.0
C2552 C 0.02196 0.89375 0.88358 0.0
C2553 C 0.99735 0.90103 0.83946 0.0
C2554 C 0.01193 0.89799 0.95345 0.0
C2555 C 0.05068 0.88407 0.96846 0.0
N2556 N 0.00316 0.90095 0.87549 0.0
N2557 N 0.04579 0.88619 0.93223 0.0
H2558 H 0.28831 0.77068 0.39346 0.0
H2559 H 0.30724 0.78737 0.17073 0.0
H2560 H 0.29152 0.83352 0.34915 0.0
H2561 H 0.31767 0.72623 0.21774 0.0
H2562 H 0.29887 0.80393 0.23471 0.0
H2563 H 0.29591 0.75383 0.32906 0.0
C2564 C 0.29055 0.78102 0.37031 0.0
C2565 C 0.28931 0.80372 0.37731 0.0
C2566 C 0.30298 0.78688 0.23105 0.0
C2567 C 0.29804 0.78423 0.30255 0.0
C2568 C 0.30797 0.77729 0.19421 0.0
C2569 C 0.31346 0.75511 0.18781 0.0
C2570 C 0.30315 0.77437 0.2625 0.0
C2571 C 0.31336 0.74321 0.22032 0.0
C2572 C 0.29495 0.7713 0.33336 0.0
C2573 C 0.29232 0.81602 0.3456 0.0
N2574 N 0.30833 0.75291 0.25583 0.0
N2575 N 0.29649 0.80619 0.30993 0.0
H2576 H 0.48195 0.10267 0.83749 0.0
H2577 H 0.49579 0.07918 0.05337 0.0
H2578 H 0.43365 0.0816 0.91379 0.0
H2579 H 0.54697 0.07666 0.96992 0.0
H2580 H 0.47301 0.08611 1.00426 0.0
H2581 H 0.5059 0.09986 0.88749 0.0
C2582 C 0.47625 0.0981 0.86507 0.0
C2583 C 0.45568 0.09261 0.8716 0.0
C2584 C 0.48921 0.08406 0.99654 0.0
C2585 C 0.48304 0.08901 0.9286 0.0
C2586 C 0.50231 0.08011 0.02466 0.0
C2587 C 0.52343 0.07721 1.01591 0.0
C2588 C 0.49711 0.08545 0.95905 0.0
C2589 C 0.53081 0.07857 0.97798 0.0
C2590 C 0.48999 0.09617 0.89337 0.0
C2591 C 0.4493 0.08617 0.90757 0.0
N2592 N 0.51768 0.08268 0.95095 0.0
N2593 N 0.46286 0.08457 0.93456 0.0
H2594 H 0.67131 0.68072 0.65017 0.0
H2595 H 0.66415 0.80227 0.73718 0.0
H2596 H 0.64886 0.73206 0.58769 0.0
H2597 H 0.66263 0.74798 0.8066 0.0
H2598 H 0.65998 0.77725 0.68134 0.0
H2599 H 0.66881 0.70522 0.70769 0.0
C2600 C 0.66538 0.69705 0.64882 0.0
C2601 C 0.66014 0.70436 0.61427 0.0
C2602 C 0.66044 0.77088 0.70887 0.0
C2603 C 0.65796 0.73274 0.67964 0.0
C2604 C 0.66304 0.7851 0.74066 0.0
C2605 C 0.66394 0.77717 0.77655 0.0
C2606 C 0.65906 0.74856 0.71297 0.0
C2607 C 0.66206 0.75482 0.77949 0.0
C2608 C 0.66406 0.71105 0.68159 0.0
C2609 C 0.65279 0.72573 0.61392 0.0
N2610 N 0.65991 0.7413 0.74811 0.0
N2611 N 0.65225 0.73932 0.64602 0.0
H2612 H 0.06859 0.91034 0.37012 0.0
H2613 H 0.95299 0.90967 0.45824 0.0
H2614 H 0.01989 0.88931 0.30172 0.0
H2615 H 0.00544 0.90724 0.52464 0.0
H2616 H 0.97614 0.90492 0.40007 0.0
H2617 H 0.04493 0.91135 0.42658 0.0
C2618 C 0.05299 0.90547 0.36706 0.0
C2619 C 0.04639 0.89934 0.33105 0.0
C2620 C 0.98249 0.90536 0.42746 0.0
C2621 C 0.01872 0.90133 0.39594 0.0
C2622 C 0.96929 0.90823 0.4607 0.0
C2623 C 0.97716 0.90887 0.49666 0.0
C2624 C 0.00376 0.9035 0.43016 0.0
C2625 C 0.99849 0.90676 0.49782 0.0
C2626 C 0.03939 0.9062 0.39936 0.0
C2627 C 0.02579 0.89366 0.32894 0.0
N2628 N 0.0109 0.90434 0.46535 0.0
N2629 N 0.01265 0.89505 0.36078 0.0
H2630 H 0.80957 0.21557 0.17896 0.0
H2631 H 0.83684 0.22261 0.39553 0.0
H2632 H 0.84838 0.26478 0.22557 0.0
H2633 H 0.8154 0.16488 0.33615 0.0
H2634 H 0.83867 0.24018 0.3357 0.0
H2635 H 0.80811 0.19891 0.23938 0.0
C2636 C 0.81763 0.22296 0.20206 0.0
C2637 C 0.82915 0.24152 0.19729 0.0
C2638 C 0.83362 0.22365 0.33592 0.0
C2639 C 0.82768 0.22253 0.26637 0.0
C2640 C 0.83262 0.2136 0.36999 0.0
C2641 C 0.82575 0.19231 0.37099 0.0
C2642 C 0.82755 0.21236 0.30284 0.0
C2643 C 0.82048 0.18141 0.33698 0.0
C2644 C 0.81694 0.21337 0.23641 0.0
C2645 C 0.83949 0.25033 0.22803 0.0
N2646 N 0.82135 0.1916 0.30443 0.0
N2647 N 0.83848 0.24078 0.26134 0.0
H2648 H 0.49305 0.90395 0.83226 0.0
H2649 H 0.53265 0.89398 0.03866 0.0
H2650 H 0.55495 0.8856 0.85114 0.0
H2651 H 0.4708 0.91171 1.01823 0.0
H2652 H 0.54186 0.89329 0.97058 0.0
H2653 H 0.48537 0.90923 0.90061 0.0
C2654 C 0.50503 0.90097 0.85082 0.0
C2655 C 0.52462 0.89406 0.83592 0.0
C2656 C 0.52631 0.89749 0.98102 0.0
C2657 C 0.51596 0.90028 0.91447 0.0
C2658 C 0.52101 0.89781 0.01989 0.0
C2659 C 0.50087 0.90277 0.03424 0.0
C2660 C 0.51135 0.90209 0.95621 0.0
C2661 C 0.48654 0.90797 1.00859 0.0
C2662 C 0.50067 0.90412 0.88989 0.0
C2663 C 0.53966 0.89097 0.86137 0.0
N2664 N 0.49202 0.90734 0.97087 0.0
N2665 N 0.53497 0.89395 0.89941 0.0
H2666 H 0.82375 0.78662 0.60046 0.0
H2667 H 0.88573 0.72343 0.74744 0.0
H2668 H 0.88216 0.75446 0.57205 0.0
H2669 H 0.82671 0.75398 0.77699 0.0
H2670 H 0.88444 0.73475 0.6832 0.0
H2671 H 0.82444 0.77521 0.66504 0.0
C2672 C 0.83678 0.77727 0.60772 0.0
C2673 C 0.8529 0.7715 0.58039 0.0
C2674 C 0.87173 0.73898 0.70366 0.0
C2675 C 0.85368 0.75816 0.65464 0.0
C2676 C 0.8725 0.7326 0.74056 0.0
C2677 C 0.85636 0.73781 0.76807 0.0
C2678 C 0.85471 0.75079 0.69377 0.0
C2679 C 0.83946 0.74938 0.75686 0.0
C2680 C 0.83709 0.77063 0.64465 0.0
C2681 C 0.8692 0.75907 0.5917 0.0
N2682 N 0.83912 0.75554 0.72076 0.0
N2683 N 0.86917 0.75289 0.62775 0.0
H2684 H 0.95152 0.09342 0.58168 0.0
H2685 H 0.99229 0.08695 0.36343 0.0
H2686 H 0.01361 0.07652 0.541 0.0
H2687 H 0.9294 0.10122 0.40171 0.0
H2688 H -0.00023 0.0812 0.42827 0.0
H2689 H 0.94248 0.09435 0.51608 0.0
C2690 C 0.96324 0.08981 0.55894 0.0
C2691 C 0.9834 0.08504 0.56687 0.0
C2692 C 0.98431 0.08552 0.4226 0.0
C2693 C 0.97314 0.08602 0.49175 0.0
C2694 C 0.98005 0.08895 0.38559 0.0
C2695 C 0.96025 0.09487 0.37726 0.0
C2696 C 0.96867 0.08811 0.45173 0.0
C2697 C 0.94488 0.09669 0.40693 0.0
C2698 C 0.95804 0.09026 0.52151 0.0
C2699 C 0.99786 0.08013 0.53628 0.0
N2700 N 0.94945 0.0935 0.44295 0.0
N2701 N 0.99247 0.08092 0.50013 0.0
H2702 H 0.66779 0.2272 0.96475 0.0
H2703 H 0.68565 0.22004 0.18598 0.0
H2704 H 0.69362 0.17067 1.00879 0.0
H2705 H 0.65573 0.27418 0.14172 0.0
H2706 H 0.68972 0.2022 0.12172 0.0
H2707 H 0.66404 0.24472 0.02905 0.0
C2708 C 0.67265 0.21836 0.98786 0.0
C2709 C 0.68101 0.19726 0.98088 0.0
C2710 C 0.68226 0.21798 0.12605 0.0
C2711 C 0.6768 0.21757 0.0555 0.0
C2712 C 0.68004 0.22832 0.16287 0.0
C2713 C 0.67027 0.2488 0.16986 0.0
C2714 C 0.67479 0.22811 0.09543 0.0
C2715 C 0.6631 0.25834 0.1383 0.0
C2716 C 0.67049 0.22847 0.02478 0.0
C2717 C 0.68702 0.18687 1.01246 0.0
N2718 N 0.66552 0.24801 0.1028 0.0
N2719 N 0.68484 0.19709 0.04814 0.0
H2720 H 0.102 0.52213 0.68311 0.0
H2721 H 0.07501 0.52909 0.90905 0.0
H2722 H 0.07354 0.57727 0.74876 0.0
H2723 H 0.10196 0.47181 0.84726 0.0
H2724 H 0.07599 0.54709 0.85024 0.0
H2725 H 0.10467 0.50398 0.74228 0.0
C2726 C 0.0968 0.53064 0.70992 0.0
C2727 C 0.08765 0.55136 0.71079 0.0
C2728 C 0.08173 0.53058 0.8494 0.0
C2729 C 0.09022 0.53051 0.77861 0.0
C2730 C 0.08099 0.52014 0.88315 0.0
C2731 C 0.08827 0.4987 0.8836 0.0
C2732 C 0.08982 0.51968 0.81524 0.0
C2733 C 0.09631 0.48837 0.84875 0.0
C2734 C 0.09809 0.52017 0.74369 0.0
C2735 C 0.08073 0.56133 0.74647 0.0
N2736 N 0.09681 0.49888 0.81615 0.0
N2737 N 0.08207 0.55086 0.77859 0.0
H2738 H 0.71559 0.86695 0.95456 0.0
H2739 H 0.70987 0.84172 0.1742 0.0
H2740 H 0.6642 0.83881 1.0136 0.0
H2741 H 0.76211 0.87136 0.12037 0.0
H2742 H 0.69275 0.84233 0.11562 0.0
H2743 H 0.73228 0.87129 1.01477 0.0
C2744 C 0.70755 0.86227 0.98027 0.0
C2745 C 0.68835 0.85263 0.97889 0.0
C2746 C 0.70794 0.84879 0.11648 0.0
C2747 C 0.70761 0.85699 0.04777 0.0
C2748 C 0.71777 0.84854 0.15021 0.0
C2749 C 0.73755 0.85663 0.15277 0.0
C2750 C 0.71782 0.85714 0.08443 0.0
C2751 C 0.74698 0.86474 0.11994 0.0
C2752 C 0.71721 0.86448 1.01458 0.0
C2753 C 0.67896 0.84637 1.01311 0.0
N2754 N 0.73707 0.8648 0.08728 0.0
N2755 N 0.68867 0.84852 0.04579 0.0
H2756 H 0.38302 0.52203 0.37556 0.0
H2757 H 0.44094 0.42949 0.23345 0.0
H2758 H 0.42926 0.47793 0.40701 0.0
H2759 H 0.39532 0.47197 0.19549 0.0
H2760 H 0.43539 0.44682 0.29715 0.0
H2761 H 0.3863 0.50451 0.31078 0.0
C2762 C 0.39396 0.50879 0.36912 0.0
C2763 C 0.40582 0.50163 0.39773 0.0
C2764 C 0.42641 0.45241 0.2752 0.0
C2765 C 0.40945 0.48109 0.32256 0.0
C2766 C 0.42955 0.44241 0.23842 0.0
C2767 C 0.41862 0.4491 0.20835 0.0
C2768 C 0.41218 0.46961 0.28303 0.0
C2769 C 0.40402 0.46598 0.21746 0.0
C2770 C 0.39569 0.49865 0.3319 0.0
C2771 C 0.41943 0.48405 0.38685 0.0
N2772 N 0.40133 0.47569 0.25375 0.0
N2773 N 0.42083 0.47457 0.35062 0.0
H2774 H 0.79364 0.17524 0.60447 0.0
H2775 H 0.7244 0.11354 0.75295 0.0
H2776 H 0.77149 0.11251 0.56752 0.0
H2777 H 0.7219 0.18252 0.74343 0.0
H2778 H 0.74565 0.10949 0.69208 0.0
H2779 H 0.77265 0.17454 0.66322 0.0
C2780 C 0.7846 0.16107 0.60867 0.0
C2781 C 0.78456 0.14387 0.58033 0.0
C2782 C 0.74025 0.12543 0.70342 0.0
C2783 C 0.75995 0.14312 0.64911 0.0
C2784 C 0.72815 0.12778 0.73821 0.0
C2785 C 0.72116 0.14842 0.75377 0.0
C2786 C 0.74586 0.1439 0.68459 0.0
C2787 C 0.72668 0.16623 0.73307 0.0
C2788 C 0.7724 0.16081 0.64248 0.0
C2789 C 0.77211 0.12616 0.58827 0.0
N2790 N 0.73874 0.16356 0.70022 0.0
N2791 N 0.76034 0.12621 0.6219 0.0
H2792 H 0.89138 0.48764 0.69299 0.0
H2793 H 0.9145 0.47562 0.46613 0.0
H2794 H 0.91711 0.43055 0.62918 0.0
H2795 H 0.89135 0.53509 0.52625 0.0
H2796 H 0.91315 0.45852 0.52585 0.0
H2797 H 0.88781 0.50454 0.63282 0.0
C2798 C 0.89568 0.47843 0.66639 0.0
C2799 C 0.90441 0.45756 0.66622 0.0
C2800 C 0.90831 0.47532 0.52612 0.0
C2801 C 0.90091 0.47696 0.59731 0.0
C2802 C 0.90927 0.48522 0.49184 0.0
C2803 C 0.90319 0.50702 0.49068 0.0
C2804 C 0.90123 0.48713 0.56009 0.0
C2805 C 0.89606 0.51824 0.52534 0.0
C2806 C 0.89392 0.48818 0.63204 0.0
C2807 C 0.91024 0.44663 0.6308 0.0
N2808 N 0.89535 0.50824 0.55847 0.0
N2809 N 0.9085 0.45643 0.59811 0.0
H2810 H 0.22912 0.124 0.2469 0.0
H2811 H 0.32984 0.15239 0.35513 0.0
H2812 H 0.28448 0.14689 0.19202 0.0
H2813 H 0.2756 0.12747 0.41056 0.0
H2814 H 0.31403 0.14845 0.29484 0.0
H2815 H 0.24607 0.12375 0.30613 0.0
C2816 C 0.24487 0.12887 0.24705 0.0
C2817 C 0.25527 0.13547 0.21389 0.0
C2818 C 0.30563 0.14358 0.32003 0.0
C2819 C 0.27487 0.13536 0.28251 0.0
C2820 C 0.31473 0.14568 0.35464 0.0
C2821 C 0.30415 0.1402 0.38836 0.0
C2822 C 0.2856 0.13605 0.31867 0.0
C2823 C 0.2845 0.13174 0.38549 0.0
C2824 C 0.25453 0.12879 0.28113 0.0
C2825 C 0.2756 0.14195 0.21663 0.0
N2826 N 0.27584 0.13012 0.35145 0.0
N2827 N 0.28465 0.14173 0.2501 0.0
H2828 H 0.61596 0.47977 0.98269 0.0
H2829 H 0.56567 0.5789 0.12006 0.0
H2830 H 0.57765 0.53005 0.94559 0.0
H2831 H 0.60288 0.52908 0.16135 0.0
H2832 H 0.57114 0.56152 0.05618 0.0
H2833 H 0.61244 0.49748 0.04714 0.0
C2834 C 0.60687 0.49456 0.98777 0.0
C2835 C 0.59711 0.50323 0.95785 0.0
C2836 C 0.57826 0.55435 0.07901 0.0
C2837 C 0.5929 0.52374 0.03278 0.0
C2838 C 0.57519 0.56437 0.11584 0.0
C2839 C 0.58382 0.55562 0.14681 0.0
C2840 C 0.59009 0.53517 0.07221 0.0
C2841 C 0.59598 0.53664 0.13872 0.0
C2842 C 0.6048 0.50464 0.0249 0.0
C2843 C 0.58529 0.52235 0.96721 0.0
N2844 N 0.59867 0.52707 0.10245 0.0
N2845 N 0.58359 0.53183 1.00343 0.0
H2846 H 0.23922 0.86544 0.81397 0.0
H2847 H 0.23336 0.87068 0.59011 0.0
H2848 H 0.18566 0.84509 0.7586 0.0
H2849 H 0.2872 0.84593 0.63619 0.0
H2850 H 0.21574 0.8727 0.65406 0.0
H2851 H 0.25693 0.86943 0.75136 0.0
C2852 C 0.231 0.8623 0.78877 0.0
C2853 C 0.21081 0.85504 0.79178 0.0
C2854 C 0.23155 0.86725 0.65022 0.0
C2855 C 0.23102 0.85986 0.71982 0.0
C2856 C 0.24172 0.86637 0.61381 0.0
C2857 C 0.26195 0.85844 0.60767 0.0
C2858 C 0.24179 0.8607 0.68113 0.0
C2859 C 0.27172 0.85241 0.63953 0.0
C2860 C 0.2412 0.86441 0.75301 0.0
C2861 C 0.20116 0.85079 0.75782 0.0
N2862 N 0.26165 0.85378 0.67472 0.0
N2863 N 0.21125 0.8534 0.72345 0.0
H2864 H 0.58177 0.02389 0.40375 0.0
H2865 H 0.60348 0.0145 0.17686 0.0
H2866 H 0.60841 0.96639 0.34225 0.0
H2867 H 0.57469 0.06949 0.24247 0.0
H2868 H 0.60808 0.99728 0.23626 0.0
H2869 H 0.58115 0.04118 0.34446 0.0
C2870 C 0.58764 0.01488 0.37783 0.0
C2871 C 0.59526 0.99358 0.37841 0.0
C2872 C 0.60099 0.01323 0.23759 0.0
C2873 C 0.59441 0.01347 0.30943 0.0
C2874 C 0.59858 0.02318 0.20369 0.0
C2875 C 0.58877 0.04355 0.20454 0.0
C2876 C 0.59358 0.02378 0.27258 0.0
C2877 C 0.58233 0.05379 0.24023 0.0
C2878 C 0.5872 0.02479 0.34375 0.0
C2879 C 0.60222 0.98273 0.34339 0.0
N2880 N 0.58477 0.04381 0.27251 0.0
N2881 N 0.60166 0.99277 0.31044 0.0
H2882 H 0.22374 0.36426 0.44775 0.0
H2883 H 0.2158 0.34347 0.66957 0.0
H2884 H 0.1716 0.3368 0.50584 0.0
H2885 H 0.26912 0.36992 0.61353 0.0
H2886 H 0.19898 0.34282 0.61029 0.0
H2887 H 0.2398 0.36894 0.5083 0.0
C2888 C 0.21545 0.35962 0.47323 0.0
C2889 C 0.19617 0.35014 0.47135 0.0
C2890 C 0.21434 0.34883 0.61087 0.0
C2891 C 0.21476 0.35508 0.54102 0.0
C2892 C 0.22399 0.34931 0.64495 0.0
C2893 C 0.24402 0.35682 0.64704 0.0
C2894 C 0.22464 0.35594 0.57811 0.0
C2895 C 0.25381 0.36374 0.61352 0.0
C2896 C 0.22474 0.36211 0.50783 0.0
C2897 C 0.18642 0.34419 0.50554 0.0
N2898 N 0.24406 0.36314 0.58065 0.0
N2899 N 0.19582 0.34663 0.53863 0.0
H2900 H 0.92637 0.96578 0.91857 0.0
H2901 H 0.89355 0.96308 0.70304 0.0
H2902 H 0.88184 0.01071 0.88366 0.0
H2903 H 0.93783 0.91973 0.74305 0.0
H2904 H 0.88784 0.98026 0.76814 0.0
H2905 H 0.9298 0.94867 0.85422 0.0
C2906 C 0.91715 0.97205 0.89757 0.0
C2907 C 0.90366 0.98981 0.90731 0.0
C2908 C 0.89871 0.96689 0.76262 0.0
C2909 C 0.90776 0.97006 0.83208 0.0
C2910 C 0.90186 0.95693 0.72541 0.0
C2911 C 0.91618 0.93977 0.7171 0.0
C2912 C 0.90991 0.95967 0.79197 0.0
C2913 C 0.92666 0.93286 0.74756 0.0
C2914 C 0.91922 0.96226 0.86047 0.0
C2915 C 0.89258 0.99726 0.8779 0.0
N2916 N 0.92336 0.94277 0.78316 0.0
N2917 N 0.89483 0.98738 0.8419 0.0
H2918 H 0.24684 0.61285 0.2577 0.0
H2919 H 0.28565 0.68296 0.08888 0.0
H2920 H 0.22456 0.67674 0.23894 0.0
H2921 H 0.28735 0.61344 0.06829 0.0
H2922 H 0.2679 0.67963 0.14999 0.0
H2923 H 0.26523 0.61108 0.19393 0.0
C2924 C 0.24551 0.62633 0.24027 0.0
C2925 C 0.23381 0.64491 0.25411 0.0
C2926 C 0.27213 0.66498 0.1324 0.0
C2927 C 0.25512 0.64313 0.18159 0.0
C2928 C 0.2826 0.66684 0.09735 0.0
C2929 C 0.28844 0.64845 0.07315 0.0
C2930 C 0.26721 0.64451 0.14432 0.0
C2931 C 0.28325 0.62809 0.08591 0.0
C2932 C 0.25601 0.62529 0.20387 0.0
C2933 C 0.23293 0.66189 0.23001 0.0
N2934 N 0.27302 0.62663 0.12076 0.0
N2935 N 0.24346 0.66063 0.1956 0.0
H2936 H 0.44153 0.96223 0.16112 0.0
H2937 H 0.36654 0.98916 1.0013 0.0
H2938 H 0.37758 0.94736 0.17147 0.0
H2939 H 0.42893 0.00975 1.00358 0.0
H2940 H 0.36946 0.97404 0.06268 0.0
H2941 H 0.43637 0.97968 0.10351 0.0
C2942 C 0.42628 0.96265 0.15131 0.0
C2943 C 0.41 0.95304 0.17128 0.0
C2944 C 0.38247 0.98192 0.04976 0.0
C2945 C 0.40393 0.97329 0.10412 0.0
C2946 C 0.38083 0.99071 1.01463 0.0
C2947 C 0.39755 0.00083 0.99661 0.0
C2948 C 0.40099 0.98312 0.0673 0.0
C2949 C 0.41569 0.00185 1.01552 0.0
C2950 C 0.42335 0.97274 0.11822 0.0
C2951 C 0.39058 0.95455 0.15716 0.0
N2952 N 0.41689 0.99312 0.04947 0.0
N2953 N 0.38811 0.96428 0.12425 0.0
H2954 H 0.83593 0.65948 0.85551 0.0
H2955 H 0.73499 0.62586 0.75232 0.0
H2956 H 0.78442 0.63113 0.91381 0.0
H2957 H 0.78706 0.65565 0.69826 0.0
H2958 H 0.75332 0.62477 0.81013 0.0
H2959 H 0.81924 0.65452 0.79636 0.0
C2960 C 0.82127 0.6517 0.85572 0.0
C2961 C 0.81166 0.6456 0.88981 0.0
C2962 C 0.76074 0.63149 0.78557 0.0
C2963 C 0.792 0.6404 0.82173 0.0
C2964 C 0.75029 0.63208 0.75242 0.0
C2965 C 0.75936 0.64101 0.72012 0.0
C2966 C 0.78051 0.63978 0.7866 0.0
C2967 C 0.77919 0.64899 0.72241 0.0
C2968 C 0.81163 0.64905 0.82186 0.0
C2969 C 0.79255 0.6358 0.8882 0.0
N2970 N 0.789 0.6482 0.75488 0.0
N2971 N 0.78324 0.63374 0.85485 0.0
H2972 H 0.06976 0.01857 0.45709 0.0
H2973 H 0.10855 0.02901 0.6691 0.0
H2974 H 0.12128 0.98126 0.48759 0.0
H2975 H 0.05778 0.06481 0.63211 0.0
H2976 H 0.1148 0.01202 0.60376 0.0
H2977 H 0.06625 0.03584 0.52128 0.0
C2978 C 0.08052 0.01403 0.47702 0.0
C2979 C 0.09597 -0.00168 0.46601 0.0
C2980 C 0.10237 0.0237 0.61001 0.0
C2981 C 0.09177 0.01829 0.54133 0.0
C2982 C 0.09889 0.03356 0.64736 0.0
C2983 C 0.08255 0.04846 0.65666 0.0
C2984 C 0.08947 0.02877 0.58151 0.0
C2985 C 0.07046 0.05337 0.62693 0.0
C2986 C 0.07839 0.02391 0.51411 0.0
C2987 C 0.10898 0.99304 0.49428 0.0
N2988 N 0.07411 0.04362 0.59127 0.0
N2989 N 0.10662 0.00295 0.53031 0.0
H2990 H 0.70668 0.31772 0.25999 0.0
H2991 H 0.77698 0.37882 0.11289 0.0
H2992 H 0.73027 0.37958 0.2983 0.0
H2993 H 0.78057 0.30998 0.12346 0.0
H2994 H 0.75535 0.38278 0.17326 0.0
H2995 H 0.72805 0.31826 0.20141 0.0
C2996 C 0.71613 0.33165 0.25611 0.0
C2997 C 0.71655 0.34862 0.28478 0.0
C2998 C 0.76107 0.3669 0.16228 0.0
C2999 C 0.74136 0.34926 0.21634 0.0
C3000 C 0.7734 0.3646 0.1278 0.0
C3001 C 0.78082 0.34403 0.11277 0.0
C3002 C 0.75563 0.34844 0.18123 0.0
C3003 C 0.77548 0.32622 0.13358 0.0
C3004 C 0.72848 0.33183 0.22245 0.0
C3005 C 0.72936 0.3661 0.27728 0.0
N3006 N 0.76314 0.32882 0.16611 0.0
N3007 N 0.74122 0.366 0.24379 0.0
loop_
_geom_bond_atom_site_label_1
_geom_bond_atom_site_label_2
_geom_bond_distance
_geom_bond_site_symmetry_2
_ccdc_geom_bond_type
Ho0 C3 2.811 . S
Ho0 O20 2.322 . S
Ho0 O22 2.378 . S
Ho0 O23 2.524 . S
Ho0 O24 2.381 . S
Ho0 O25 2.669 . S
Ho0 O27 2.346 . S
Ho0 O31 2.305 . S
Ho1 C12 2.811 . S
Ho1 O21 2.346 . S
Ho1 O25 2.305 . S
Ho1 O26 2.322 . S
Ho1 O28 2.378 . S
Ho1 O29 2.524 . S
Ho1 O30 2.381 . S
Ho1 O31 2.669 . S
C2 O20 1.259 . S
C2 O21 1.268 . S
C3 Ho0 2.811 . S
C3 C4 1.488 . S
C3 O22 1.215 . S
C3 O23 1.289 . S
C4 C3 1.488 . S
C4 C5 1.348 . S
C4 C9 1.413 . S
C5 C4 1.348 . S
C5 C6 1.442 . S
C5 H32 0.930 . S
C6 C5 1.442 . S
C6 C7 1.381 . S
C6 H33 0.931 . S
C7 C6 1.381 . S
C7 C8 1.321 . S
C8 C7 1.321 . S
C8 C9 1.403 . S
C8 H34 0.934 1_455 S
C9 C4 1.413 . S
C9 C8 1.403 . S
C9 H35 0.933 1_455 S
C10 O24 1.275 . S
C10 O25 1.256 . S
C11 O26 1.259 . S
C11 O27 1.268 . S
C12 Ho1 2.811 . S
C12 C13 1.488 1_554 S
C12 O28 1.215 . S
C12 O29 1.289 . S
C13 C12 1.488 1_556 S
C13 C14 1.348 . S
C13 C18 1.413 . S
C14 C13 1.348 . S
C14 C15 1.442 . S
C14 H36 0.930 . S
C15 C14 1.442 . S
C15 C16 1.381 . S
C15 H37 0.931 . S
C16 C15 1.381 . S
C16 C17 1.321 . S
C17 C16 1.321 . S
C17 C18 1.403 . S
C17 H38 0.934 . S
C18 C13 1.413 . S
C18 C17 1.403 . S
C18 H39 0.930 . S
C19 O30 1.275 . S
C19 O31 1.256 . S
O20 Ho0 2.322 . S
O20 C2 1.259 . S
O21 Ho1 2.346 . S
O21 C2 1.268 . S
O22 Ho0 2.378 . S
O22 C3 1.215 . S
O23 Ho0 2.524 . S
O23 C3 1.289 . S
O24 Ho0 2.381 . S
O24 C10 1.275 . S
O25 Ho0 2.669 . S
O25 Ho1 2.305 . S
O25 C10 1.256 . S
O26 Ho1 2.322 . S
O26 C11 1.259 . S
O27 Ho0 2.346 . S
O27 C11 1.268 . S
O28 Ho1 2.378 . S
O28 C12 1.215 . S
O29 Ho1 2.524 . S
O29 C12 1.289 . S
O30 Ho1 2.381 . S
O30 C19 1.275 . S
O31 Ho0 2.305 . S
O31 Ho1 2.669 . S
O31 C19 1.256 . S
H32 C5 0.930 . S
H33 C6 0.931 . S
H34 C8 0.934 1_655 S
H35 C9 0.933 1_655 S
H36 C14 0.930 . S
H37 C15 0.931 . S
H38 C17 0.934 . S
H39 C18 0.930 . S
Ho40 C43 2.811 . S
Ho40 O60 2.322 . S
Ho40 O62 2.378 . S
Ho40 O63 2.524 . S
Ho40 O64 2.381 . S
Ho40 O65 2.669 . S
Ho40 O67 2.346 . S
Ho40 O71 2.305 . S
Ho41 C52 2.811 . S
Ho41 O61 2.346 . S
Ho41 O65 2.305 . S
Ho41 O66 2.322 . S
Ho41 O68 2.378 . S
Ho41 O69 2.524 . S
Ho41 O70 2.381 . S
Ho41 O71 2.669 . S
C42 O60 1.259 . S
C42 O61 1.268 . S
C43 Ho40 2.811 . S
C43 C44 1.488 . S
C43 O62 1.215 . S
C43 O63 1.289 . S
C44 C43 1.488 . S
C44 C45 1.348 . S
C44 C49 1.413 . S
C45 C44 1.348 . S
C45 C46 1.442 . S
C45 H72 0.930 . S
C46 C45 1.442 . S
C46 C47 1.381 . S
C46 H73 0.931 . S
C47 C46 1.381 . S
C47 C48 1.321 . S
C48 C47 1.321 . S
C48 C49 1.403 . S
C48 H74 0.934 . S
C49 C44 1.413 . S
C49 C48 1.403 . S
C49 H75 0.930 . S
C50 O64 1.275 . S
C50 O65 1.256 . S
C51 O66 1.259 . S
C51 O67 1.268 . S
C52 Ho41 2.811 . S
C52 C53 1.488 . S
C52 O68 1.215 . S
C52 O69 1.289 . S
C53 C52 1.488 . S
C53 C54 1.348 . S
C53 C58 1.413 . S
C54 C53 1.348 . S
C54 C55 1.442 . S
C54 H76 0.930 . S
C55 C54 1.442 . S
C55 C56 1.381 . S
C55 H77 0.931 . S
C56 C55 1.381 . S
C56 C57 1.321 . S
C57 C56 1.321 . S
C57 C58 1.403 . S
C57 H78 0.934 . S
C58 C53 1.413 . S
C58 C57 1.403 . S
C58 H79 0.930 . S
C59 O70 1.275 . S
C59 O71 1.256 . S
O60 Ho40 2.322 . S
O60 C42 1.259 . S
O61 Ho41 2.346 . S
O61 C42 1.268 . S
O62 Ho40 2.378 . S
O62 C43 1.215 . S
O63 Ho40 2.524 . S
O63 C43 1.289 . S
O64 Ho40 2.381 . S
O64 C50 1.275 . S
O65 Ho40 2.669 . S
O65 Ho41 2.305 . S
O65 C50 1.256 . S
O66 Ho41 2.322 . S
O66 C51 1.259 . S
O67 Ho40 2.346 . S
O67 C51 1.268 . S
O68 Ho41 2.378 . S
O68 C52 1.215 . S
O69 Ho41 2.524 . S
O69 C52 1.289 . S
O70 Ho41 2.381 . S
O70 C59 1.275 . S
O71 Ho40 2.305 . S
O71 Ho41 2.669 . S
O71 C59 1.256 . S
H72 C45 0.930 . S
H73 C46 0.931 . S
H74 C48 0.934 . S
H75 C49 0.930 . S
H76 C54 0.930 . S
H77 C55 0.931 . S
H78 C57 0.934 . S
H79 C58 0.930 . S
Ho80 C83 2.811 . S
Ho80 O100 2.322 . S
Ho80 O102 2.378 . S
Ho80 O103 2.524 . S
Ho80 O104 2.381 . S
Ho80 O105 2.669 . S
Ho80 O107 2.346 . S
Ho80 O111 2.305 . S
Ho81 C92 2.811 . S
Ho81 O101 2.346 . S
Ho81 O105 2.305 . S
Ho81 O106 2.322 . S
Ho81 O108 2.378 . S
Ho81 O109 2.524 . S
Ho81 O110 2.381 . S
Ho81 O111 2.669 . S
C82 O100 1.259 . S
C82 O101 1.268 . S
C83 Ho80 2.811 . S
C83 C84 1.488 . S
C83 O102 1.215 . S
C83 O103 1.289 . S
C84 C83 1.488 . S
C84 C85 1.348 . S
C84 C89 1.413 . S
C85 C84 1.348 . S
C85 C86 1.442 . S
C85 H112 0.930 . S
C86 C85 1.442 . S
C86 C87 1.381 . S
C86 H113 0.931 . S
C87 C86 1.381 . S
C87 C88 1.321 . S
C88 C87 1.321 . S
C88 C89 1.403 . S
C88 H114 0.934 . S
C89 C84 1.413 . S
C89 C88 1.403 . S
C89 H115 0.930 . S
C90 O104 1.275 . S
C90 O105 1.256 . S
C91 O106 1.259 . S
C91 O107 1.268 . S
C92 Ho81 2.811 . S
C92 C93 1.488 . S
C92 O108 1.215 . S
C92 O109 1.289 . S
C93 C92 1.488 . S
C93 C94 1.348 . S
C93 C98 1.413 . S
C94 C93 1.348 . S
C94 C95 1.442 . S
C94 H116 0.930 . S
C95 C94 1.442 . S
C95 C96 1.381 . S
C95 H117 0.931 . S
C96 C95 1.381 . S
C96 C97 1.321 . S
C97 C96 1.321 . S
C97 C98 1.403 . S
C97 H118 0.934 . S
C98 C93 1.413 . S
C98 C97 1.403 . S
C98 H119 0.930 . S
C99 O110 1.275 . S
C99 O111 1.256 . S
O100 Ho80 2.322 . S
O100 C82 1.259 . S
O101 Ho81 2.346 . S
O101 C82 1.268 . S
O102 Ho80 2.378 . S
O102 C83 1.215 . S
O103 Ho80 2.524 . S
O103 C83 1.289 . S
O104 Ho80 2.381 . S
O104 C90 1.275 . S
O105 Ho80 2.669 . S
O105 Ho81 2.305 . S
O105 C90 1.256 . S
O106 Ho81 2.322 . S
O106 C91 1.259 . S
O107 Ho80 2.346 . S
O107 C91 1.268 . S
O108 Ho81 2.378 . S
O108 C92 1.215 . S
O109 Ho81 2.524 . S
O109 C92 1.289 . S
O110 Ho81 2.381 . S
O110 C99 1.275 . S
O111 Ho80 2.305 . S
O111 Ho81 2.669 . S
O111 C99 1.256 . S
H112 C85 0.930 . S
H113 C86 0.931 . S
H114 C88 0.934 . S
H115 C89 0.930 . S
H116 C94 0.930 . S
H117 C95 0.931 . S
H118 C97 0.934 . S
H119 C98 0.930 . S
Ho120 C123 2.811 . S
Ho120 O140 2.322 . S
Ho120 O142 2.378 . S
Ho120 O143 2.524 . S
Ho120 O144 2.381 . S
Ho120 O145 2.669 . S
Ho120 O147 2.346 . S
Ho120 O151 2.305 . S
Ho121 C132 2.811 . S
Ho121 O141 2.346 . S
Ho121 O145 2.305 . S
Ho121 O146 2.322 . S
Ho121 O148 2.378 . S
Ho121 O149 2.524 . S
Ho121 O150 2.381 . S
Ho121 O151 2.669 . S
C122 O140 1.259 . S
C122 O141 1.268 . S
C123 Ho120 2.811 . S
C123 C124 1.488 . S
C123 O142 1.215 . S
C123 O143 1.289 . S
C124 C123 1.488 . S
C124 C125 1.348 . S
C124 C129 1.413 . S
C125 C124 1.348 . S
C125 C126 1.442 . S
C125 H152 0.930 . S
C126 C125 1.442 . S
C126 C127 1.381 . S
C126 H153 0.931 . S
C127 C126 1.381 . S
C127 C128 1.321 . S
C128 C127 1.321 . S
C128 C129 1.403 . S
C128 H154 0.934 . S
C129 C124 1.413 . S
C129 C128 1.403 . S
C129 H155 0.930 . S
C130 O144 1.275 . S
C130 O145 1.256 . S
C131 O146 1.259 . S
C131 O147 1.268 . S
C132 Ho121 2.811 . S
C132 C133 1.488 1_556 S
C132 O148 1.215 . S
C132 O149 1.289 . S
C133 C132 1.488 1_554 S
C133 C134 1.348 . S
C133 C138 1.413 . S
C134 C133 1.348 . S
C134 C135 1.442 . S
C134 H156 0.930 . S
C135 C134 1.442 . S
C135 C136 1.381 . S
C135 H157 0.931 . S
C136 C135 1.381 . S
C136 C137 1.321 . S
C137 C136 1.321 . S
C137 C138 1.403 . S
C137 H158 0.934 . S
C138 C133 1.413 . S
C138 C137 1.403 . S
C138 H159 0.930 . S
C139 O150 1.275 . S
C139 O151 1.256 . S
O140 Ho120 2.322 . S
O140 C122 1.259 . S
O141 Ho121 2.346 . S
O141 C122 1.268 . S
O142 Ho120 2.378 . S
O142 C123 1.215 . S
O143 Ho120 2.524 . S
O143 C123 1.289 . S
O144 Ho120 2.381 . S
O144 C130 1.275 . S
O145 Ho120 2.669 . S
O145 Ho121 2.305 . S
O145 C130 1.256 . S
O146 Ho121 2.322 . S
O146 C131 1.259 . S
O147 Ho120 2.346 . S
O147 C131 1.268 . S
O148 Ho121 2.378 . S
O148 C132 1.215 . S
O149 Ho121 2.524 . S
O149 C132 1.289 . S
O150 Ho121 2.381 . S
O150 C139 1.275 . S
O151 Ho120 2.305 . S
O151 Ho121 2.669 . S
O151 C139 1.256 . S
H152 C125 0.930 . S
H153 C126 0.931 . S
H154 C128 0.934 . S
H155 C129 0.930 . S
H156 C134 0.930 . S
H157 C135 0.931 . S
H158 C137 0.934 . S
H159 C138 0.930 . S
Ho160 C163 2.811 . S
Ho160 O180 2.322 . S
Ho160 O182 2.378 . S
Ho160 O183 2.524 . S
Ho160 O184 2.381 . S
Ho160 O185 2.669 . S
Ho160 O187 2.346 . S
Ho160 O191 2.305 . S
Ho161 C172 2.811 . S
Ho161 O181 2.346 . S
Ho161 O185 2.305 . S
Ho161 O186 2.322 . S
Ho161 O188 2.378 . S
Ho161 O189 2.524 . S
Ho161 O190 2.381 . S
Ho161 O191 2.669 . S
C162 O180 1.259 . S
C162 O181 1.268 . S
C163 Ho160 2.811 . S
C163 C164 1.488 . S
C163 O182 1.215 . S
C163 O183 1.289 . S
C164 C163 1.488 . S
C164 C165 1.348 . S
C164 C169 1.413 . S
C165 C164 1.348 . S
C165 C166 1.442 . S
C165 H192 0.930 . S
C166 C165 1.442 . S
C166 C167 1.381 . S
C166 H193 0.931 . S
C167 C166 1.381 . S
C167 C168 1.321 . S
C168 C167 1.321 . S
C168 C169 1.403 . S
C168 H194 0.934 . S
C169 C164 1.413 . S
C169 C168 1.403 . S
C169 H195 0.930 . S
C170 O184 1.275 . S
C170 O185 1.256 . S
C171 O186 1.259 . S
C171 O187 1.268 . S
C172 Ho161 2.811 . S
C172 C173 1.488 . S
C172 O188 1.215 . S
C172 O189 1.289 . S
C173 C172 1.488 . S
C173 C174 1.348 . S
C173 C178 1.413 . S
C174 C173 1.348 . S
C174 C175 1.442 . S
C174 H196 0.930 . S
C175 C174 1.442 . S
C175 C176 1.381 . S
C175 H197 0.931 . S
C176 C175 1.381 . S
C176 C177 1.321 . S
C177 C176 1.321 . S
C177 C178 1.403 . S
C177 H198 0.934 . S
C178 C173 1.413 . S
C178 C177 1.403 . S
C178 H199 0.930 . S
C179 O190 1.275 . S
C179 O191 1.256 . S
O180 Ho160 2.322 . S
O180 C162 1.259 . S
O181 Ho161 2.346 . S
O181 C162 1.268 . S
O182 Ho160 2.378 . S
O182 C163 1.215 . S
O183 Ho160 2.524 . S
O183 C163 1.289 . S
O184 Ho160 2.381 . S
O184 C170 1.275 . S
O185 Ho160 2.669 . S
O185 Ho161 2.305 . S
O185 C170 1.256 . S
O186 Ho161 2.322 . S
O186 C171 1.259 . S
O187 Ho160 2.346 . S
O187 C171 1.268 . S
O188 Ho161 2.378 . S
O188 C172 1.215 . S
O189 Ho161 2.524 . S
O189 C172 1.289 . S
O190 Ho161 2.381 . S
O190 C179 1.275 . S
O191 Ho160 2.305 . S
O191 Ho161 2.669 . S
O191 C179 1.256 . S
H192 C165 0.930 . S
H193 C166 0.931 . S
H194 C168 0.934 . S
H195 C169 0.930 . S
H196 C174 0.930 . S
H197 C175 0.931 . S
H198 C177 0.934 . S
H199 C178 0.930 . S
Ho200 C203 2.811 . S
Ho200 O220 2.322 . S
Ho200 O222 2.378 . S
Ho200 O223 2.524 . S
Ho200 O224 2.381 . S
Ho200 O225 2.669 . S
Ho200 O227 2.346 . S
Ho200 O231 2.305 . S
Ho201 C212 2.811 . S
Ho201 O221 2.346 . S
Ho201 O225 2.305 . S
Ho201 O226 2.322 . S
Ho201 O228 2.378 . S
Ho201 O229 2.524 . S
Ho201 O230 2.381 . S
Ho201 O231 2.669 . S
C202 O220 1.259 . S
C202 O221 1.268 . S
C203 Ho200 2.811 . S
C203 C204 1.488 . S
C203 O222 1.215 . S
C203 O223 1.289 . S
C204 C203 1.488 . S
C204 C205 1.348 . S
C204 C209 1.413 . S
C205 C204 1.348 . S
C205 C206 1.442 1_556 S
C205 H232 0.930 . S
C206 C205 1.442 1_554 S
C206 C207 1.381 . S
C206 H233 0.931 . S
C207 C206 1.381 . S
C207 C208 1.321 . S
C208 C207 1.321 . S
C208 C209 1.403 1_554 S
C208 H234 0.934 . S
C209 C204 1.413 . S
C209 C208 1.403 1_556 S
C209 H235 0.930 . S
C210 O224 1.275 . S
C210 O225 1.256 . S
C211 O226 1.259 . S
C211 O227 1.268 . S
C212 Ho201 2.811 . S
C212 C213 1.488 . S
C212 O228 1.215 . S
C212 O229 1.289 . S
C213 C212 1.488 . S
C213 C214 1.348 . S
C213 C218 1.413 . S
C214 C213 1.348 . S
C214 C215 1.442 . S
C214 H236 0.930 . S
C215 C214 1.442 . S
C215 C216 1.381 . S
C215 H237 0.931 . S
C216 C215 1.381 . S
C216 C217 1.321 . S
C217 C216 1.321 . S
C217 C218 1.403 . S
C217 H238 0.934 . S
C218 C213 1.413 . S
C218 C217 1.403 . S
C218 H239 0.930 . S
C219 O230 1.275 . S
C219 O231 1.256 . S
O220 Ho200 2.322 . S
O220 C202 1.259 . S
O221 Ho201 2.346 . S
O221 C202 1.268 . S
O222 Ho200 2.378 . S
O222 C203 1.215 . S
O223 Ho200 2.524 . S
O223 C203 1.289 . S
O224 Ho200 2.381 . S
O224 C210 1.275 . S
O225 Ho200 2.669 . S
O225 Ho201 2.305 . S
O225 C210 1.256 . S
O226 Ho201 2.322 . S
O226 C211 1.259 . S
O227 Ho200 2.346 . S
O227 C211 1.268 . S
O228 Ho201 2.378 . S
O228 C212 1.215 . S
O229 Ho201 2.524 . S
O229 C212 1.289 . S
O230 Ho201 2.381 . S
O230 C219 1.275 . S
O231 Ho200 2.305 . S
O231 Ho201 2.669 . S
O231 C219 1.256 . S
H232 C205 0.930 . S
H233 C206 0.931 . S
H234 C208 0.934 . S
H235 C209 0.930 . S
H236 C214 0.930 . S
H237 C215 0.931 . S
H238 C217 0.934 . S
H239 C218 0.930 . S
Ho240 C243 2.811 . S
Ho240 O260 2.322 . S
Ho240 O262 2.378 . S
Ho240 O263 2.524 . S
Ho240 O264 2.381 . S
Ho240 O265 2.669 . S
Ho240 O267 2.346 . S
Ho240 O271 2.305 . S
Ho241 C252 2.811 1_554 S
Ho241 O261 2.346 . S
Ho241 O265 2.305 . S
Ho241 O266 2.322 . S
Ho241 O268 2.378 . S
Ho241 O269 2.524 1_554 S
Ho241 O270 2.381 . S
Ho241 O271 2.669 . S
C242 O260 1.259 . S
C242 O261 1.268 . S
C243 Ho240 2.811 . S
C243 C244 1.488 . S
C243 O262 1.215 . S
C243 O263 1.289 . S
C244 C243 1.488 . S
C244 C245 1.348 . S
C244 C249 1.413 . S
C245 C244 1.348 . S
C245 C246 1.442 . S
C245 H272 0.930 . S
C246 C245 1.442 . S
C246 C247 1.381 . S
C246 H273 0.931 . S
C247 C246 1.381 . S
C247 C248 1.321 . S
C248 C247 1.321 . S
C248 C249 1.403 . S
C248 H274 0.934 . S
C249 C244 1.413 . S
C249 C248 1.403 . S
C249 H275 0.930 . S
C250 O264 1.275 . S
C250 O265 1.256 . S
C251 O266 1.259 . S
C251 O267 1.268 . S
C252 Ho241 2.811 1_556 S
C252 C253 1.488 . S
C252 O268 1.215 1_556 S
C252 O269 1.289 . S
C253 C252 1.488 . S
C253 C254 1.348 . S
C253 C258 1.413 . S
C254 C253 1.348 . S
C254 C255 1.442 . S
C254 H276 0.930 . S
C255 C254 1.442 . S
C255 C256 1.381 . S
C255 H277 0.931 . S
C256 C255 1.381 . S
C256 C257 1.321 . S
C257 C256 1.321 . S
C257 C258 1.403 . S
C257 H278 0.934 . S
C258 C253 1.413 . S
C258 C257 1.403 . S
C258 H279 0.930 . S
C259 O270 1.275 . S
C259 O271 1.256 . S
O260 Ho240 2.322 . S
O260 C242 1.259 . S
O261 Ho241 2.346 . S
O261 C242 1.268 . S
O262 Ho240 2.378 . S
O262 C243 1.215 . S
O263 Ho240 2.524 . S
O263 C243 1.289 . S
O264 Ho240 2.381 . S
O264 C250 1.275 . S
O265 Ho240 2.669 . S
O265 Ho241 2.305 . S
O265 C250 1.256 . S
O266 Ho241 2.322 . S
O266 C251 1.259 . S
O267 Ho240 2.346 . S
O267 C251 1.268 . S
O268 Ho241 2.378 . S
O268 C252 1.215 1_554 S
O269 Ho241 2.524 1_556 S
O269 C252 1.289 . S
O270 Ho241 2.381 . S
O270 C259 1.275 . S
O271 Ho240 2.305 . S
O271 Ho241 2.669 . S
O271 C259 1.256 . S
H272 C245 0.930 . S
H273 C246 0.931 . S
H274 C248 0.934 . S
H275 C249 0.930 . S
H276 C254 0.930 . S
H277 C255 0.931 . S
H278 C257 0.934 . S
H279 C258 0.930 . S
Ho280 C283 2.811 . S
Ho280 O300 2.322 . S
Ho280 O302 2.378 . S
Ho280 O303 2.524 . S
Ho280 O304 2.381 . S
Ho280 O305 2.669 . S
Ho280 O307 2.346 . S
Ho280 O311 2.305 . S
Ho281 C292 2.811 . S
Ho281 O301 2.346 . S
Ho281 O305 2.305 . S
Ho281 O306 2.322 . S
Ho281 O308 2.378 . S
Ho281 O309 2.524 . S
Ho281 O310 2.381 . S
Ho281 O311 2.669 . S
C282 O300 1.259 . S
C282 O301 1.268 . S
C283 Ho280 2.811 . S
C283 C284 1.488 . S
C283 O302 1.215 . S
C283 O303 1.289 . S
C284 C283 1.488 . S
C284 C285 1.348 . S
C284 C289 1.413 . S
C285 C284 1.348 . S
C285 C286 1.442 . S
C285 H312 0.930 . S
C286 C285 1.442 . S
C286 C287 1.381 . S
C286 H313 0.931 . S
C287 C286 1.381 . S
C287 C288 1.321 . S
C288 C287 1.321 . S
C288 C289 1.403 . S
C288 H314 0.934 . S
C289 C284 1.413 . S
C289 C288 1.403 . S
C289 H315 0.930 . S
C290 O304 1.275 . S
C290 O305 1.256 . S
C291 O306 1.259 . S
C291 O307 1.268 . S
C292 Ho281 2.811 . S
C292 C293 1.488 . S
C292 O308 1.215 . S
C292 O309 1.289 . S
C293 C292 1.488 . S
C293 C294 1.348 . S
C293 C298 1.413 . S
C294 C293 1.348 . S
C294 C295 1.442 . S
C294 H316 0.930 . S
C295 C294 1.442 . S
C295 C296 1.381 . S
C295 H317 0.931 . S
C296 C295 1.381 . S
C296 C297 1.321 . S
C297 C296 1.321 . S
C297 C298 1.403 . S
C297 H318 0.934 . S
C298 C293 1.413 . S
C298 C297 1.403 . S
C298 H319 0.930 . S
C299 O310 1.275 . S
C299 O311 1.256 . S
O300 Ho280 2.322 . S
O300 C282 1.259 . S
O301 Ho281 2.346 . S
O301 C282 1.268 . S
O302 Ho280 2.378 . S
O302 C283 1.215 . S
O303 Ho280 2.524 . S
O303 C283 1.289 . S
O304 Ho280 2.381 . S
O304 C290 1.275 . S
O305 Ho280 2.669 . S
O305 Ho281 2.305 . S
O305 C290 1.256 . S
O306 Ho281 2.322 . S
O306 C291 1.259 . S
O307 Ho280 2.346 . S
O307 C291 1.268 . S
O308 Ho281 2.378 . S
O308 C292 1.215 . S
O309 Ho281 2.524 . S
O309 C292 1.289 . S
O310 Ho281 2.381 . S
O310 C299 1.275 . S
O311 Ho280 2.305 . S
O311 Ho281 2.669 . S
O311 C299 1.256 . S
H312 C285 0.930 . S
H313 C286 0.931 . S
H314 C288 0.934 . S
H315 C289 0.930 . S
H316 C294 0.930 . S
H317 C295 0.931 . S
H318 C297 0.934 . S
H319 C298 0.930 . S
Ho320 C323 2.811 . S
Ho320 O340 2.322 . S
Ho320 O342 2.378 . S
Ho320 O343 2.524 . S
Ho320 O344 2.381 . S
Ho320 O345 2.669 . S
Ho320 O347 2.346 . S
Ho320 O351 2.305 . S
Ho321 C332 2.811 . S
Ho321 O341 2.346 . S
Ho321 O345 2.305 . S
Ho321 O346 2.322 . S
Ho321 O348 2.378 . S
Ho321 O349 2.524 . S
Ho321 O350 2.381 . S
Ho321 O351 2.669 . S
C322 O340 1.259 . S
C322 O341 1.268 . S
C323 Ho320 2.811 . S
C323 C324 1.488 . S
C323 O342 1.215 . S
C323 O343 1.289 . S
C324 C323 1.488 . S
C324 C325 1.348 . S
C324 C329 1.413 . S
C325 C324 1.348 . S
C325 C326 1.442 . S
C325 H352 0.930 . S
C326 C325 1.442 . S
C326 C327 1.381 . S
C326 H353 0.931 . S
C327 C326 1.381 . S
C327 C328 1.321 . S
C328 C327 1.321 . S
C328 C329 1.403 . S
C328 H354 0.934 . S
C329 C324 1.413 . S
C329 C328 1.403 . S
C329 H355 0.930 . S
C330 O344 1.275 . S
C330 O345 1.256 . S
C331 O346 1.259 . S
C331 O347 1.268 . S
C332 Ho321 2.811 . S
C332 C333 1.488 . S
C332 O348 1.215 . S
C332 O349 1.289 . S
C333 C332 1.488 . S
C333 C334 1.348 . S
C333 C338 1.413 . S
C334 C333 1.348 . S
C334 C335 1.442 . S
C334 H356 0.930 . S
C335 C334 1.442 . S
C335 C336 1.385 . S
C335 H357 0.931 . S
C336 C335 1.385 . S
C336 C337 1.329 . S
C337 C336 1.329 . S
C337 C338 1.403 . S
C337 H358 0.934 1_655 S
C338 C333 1.413 . S
C338 C337 1.403 . S
C338 H359 0.933 1_655 S
C339 O350 1.275 . S
C339 O351 1.256 . S
O340 Ho320 2.322 . S
O340 C322 1.259 . S
O341 Ho321 2.346 . S
O341 C322 1.268 . S
O342 Ho320 2.378 . S
O342 C323 1.215 . S
O343 Ho320 2.524 . S
O343 C323 1.289 . S
O344 Ho320 2.381 . S
O344 C330 1.275 . S
O345 Ho320 2.669 . S
O345 Ho321 2.305 . S
O345 C330 1.256 . S
O346 Ho321 2.322 . S
O346 C331 1.259 . S
O347 Ho320 2.346 . S
O347 C331 1.268 . S
O348 Ho321 2.378 . S
O348 C332 1.215 . S
O349 Ho321 2.524 . S
O349 C332 1.289 . S
O350 Ho321 2.381 . S
O350 C339 1.275 . S
O351 Ho320 2.305 . S
O351 Ho321 2.669 . S
O351 C339 1.256 . S
H352 C325 0.930 . S
H353 C326 0.931 . S
H354 C328 0.934 . S
H355 C329 0.930 . S
H356 C334 0.930 . S
H357 C335 0.931 . S
H358 C337 0.934 1_455 S
H359 C338 0.933 1_455 S
Ho360 C363 2.811 1_556 S
Ho360 O380 2.322 1_556 S
Ho360 O382 2.378 1_556 S
Ho360 O383 2.524 1_556 S
Ho360 O384 2.381 . S
Ho360 O385 2.669 . S
Ho360 O387 2.346 . S
Ho360 O391 2.305 . S
Ho361 C372 2.811 . S
Ho361 O381 2.346 . S
Ho361 O385 2.305 . S
Ho361 O386 2.322 . S
Ho361 O388 2.378 . S
Ho361 O389 2.524 . S
Ho361 O390 2.381 . S
Ho361 O391 2.669 . S
C362 O380 1.259 . S
C362 O381 1.268 1_554 S
C363 Ho360 2.811 1_554 S
C363 C364 1.488 . S
C363 O382 1.215 . S
C363 O383 1.289 . S
C364 C363 1.488 . S
C364 C365 1.348 . S
C364 C369 1.413 . S
C365 C364 1.348 . S
C365 C366 1.442 . S
C365 H392 0.930 . S
C366 C365 1.442 . S
C366 C367 1.381 . S
C366 H393 0.931 . S
C367 C366 1.381 . S
C367 C368 1.321 . S
C368 C367 1.321 . S
C368 C369 1.403 . S
C368 H394 0.934 . S
C369 C364 1.413 . S
C369 C368 1.403 . S
C369 H395 0.930 . S
C370 O384 1.275 . S
C370 O385 1.256 . S
C371 O386 1.259 . S
C371 O387 1.268 . S
C372 Ho361 2.811 . S
C372 C373 1.488 . S
C372 O388 1.215 . S
C372 O389 1.289 . S
C373 C372 1.488 . S
C373 C374 1.348 . S
C373 C378 1.413 . S
C374 C373 1.348 . S
C374 C375 1.442 . S
C374 H396 0.930 . S
C375 C374 1.442 . S
C375 C376 1.381 . S
C375 H397 0.931 . S
C376 C375 1.381 . S
C376 C377 1.321 . S
C377 C376 1.321 . S
C377 C378 1.403 . S
C377 H398 0.934 . S
C378 C373 1.413 . S
C378 C377 1.403 . S
C378 H399 0.930 . S
C379 O390 1.275 . S
C379 O391 1.256 . S
O380 Ho360 2.322 1_554 S
O380 C362 1.259 . S
O381 Ho361 2.346 . S
O381 C362 1.268 1_556 S
O382 Ho360 2.378 1_554 S
O382 C363 1.215 . S
O383 Ho360 2.524 1_554 S
O383 C363 1.289 . S
O384 Ho360 2.381 . S
O384 C370 1.275 . S
O385 Ho360 2.669 . S
O385 Ho361 2.305 . S
O385 C370 1.256 . S
O386 Ho361 2.322 . S
O386 C371 1.259 . S
O387 Ho360 2.346 . S
O387 C371 1.268 . S
O388 Ho361 2.378 . S
O388 C372 1.215 . S
O389 Ho361 2.524 . S
O389 C372 1.289 . S
O390 Ho361 2.381 . S
O390 C379 1.275 . S
O391 Ho360 2.305 . S
O391 Ho361 2.669 . S
O391 C379 1.256 . S
H392 C365 0.930 . S
H393 C366 0.931 . S
H394 C368 0.934 . S
H395 C369 0.930 . S
H396 C374 0.930 . S
H397 C375 0.931 . S
H398 C377 0.934 . S
H399 C378 0.930 . S
Ho400 C403 2.811 . S
Ho400 O420 2.322 . S
Ho400 O422 2.378 . S
Ho400 O423 2.524 . S
Ho400 O424 2.381 . S
Ho400 O425 2.669 . S
Ho400 O427 2.346 . S
Ho400 O431 2.305 . S
Ho401 C412 2.811 . S
Ho401 O421 2.346 . S
Ho401 O425 2.305 . S
Ho401 O426 2.322 . S
Ho401 O428 2.378 . S
Ho401 O429 2.524 . S
Ho401 O430 2.381 . S
Ho401 O431 2.669 . S
C402 O420 1.259 . S
C402 O421 1.268 . S
C403 Ho400 2.811 . S
C403 C404 1.488 . S
C403 O422 1.215 . S
C403 O423 1.289 . S
C404 C403 1.488 . S
C404 C405 1.348 . S
C404 C409 1.413 . S
C405 C404 1.348 . S
C405 C406 1.442 . S
C405 H432 0.930 . S
C406 C405 1.442 . S
C406 C407 1.381 . S
C406 H433 0.931 . S
C407 C406 1.381 . S
C407 C408 1.321 . S
C408 C407 1.321 . S
C408 C409 1.403 . S
C408 H434 0.934 . S
C409 C404 1.413 . S
C409 C408 1.403 . S
C409 H435 0.930 . S
C410 O424 1.275 . S
C410 O425 1.256 . S
C411 O426 1.259 . S
C411 O427 1.268 . S
C412 Ho401 2.811 . S
C412 C413 1.488 . S
C412 O428 1.215 . S
C412 O429 1.289 . S
C413 C412 1.488 . S
C413 C414 1.348 . S
C413 C418 1.413 . S
C414 C413 1.348 . S
C414 C415 1.442 . S
C414 H436 0.930 . S
C415 C414 1.442 . S
C415 C416 1.381 . S
C415 H437 0.931 . S
C416 C415 1.381 . S
C416 C417 1.321 . S
C417 C416 1.321 . S
C417 C418 1.403 . S
C417 H438 0.934 . S
C418 C413 1.413 . S
C418 C417 1.403 . S
C418 H439 0.930 . S
C419 O430 1.275 . S
C419 O431 1.256 . S
O420 Ho400 2.322 . S
O420 C402 1.259 . S
O421 Ho401 2.346 . S
O421 C402 1.268 . S
O422 Ho400 2.378 . S
O422 C403 1.215 . S
O423 Ho400 2.524 . S
O423 C403 1.289 . S
O424 Ho400 2.381 . S
O424 C410 1.275 . S
O425 Ho400 2.669 . S
O425 Ho401 2.305 . S
O425 C410 1.256 . S
O426 Ho401 2.322 . S
O426 C411 1.259 . S
O427 Ho400 2.346 . S
O427 C411 1.268 . S
O428 Ho401 2.378 . S
O428 C412 1.215 . S
O429 Ho401 2.524 . S
O429 C412 1.289 . S
O430 Ho401 2.381 . S
O430 C419 1.275 . S
O431 Ho400 2.305 . S
O431 Ho401 2.669 . S
O431 C419 1.256 . S
H432 C405 0.930 . S
H433 C406 0.931 . S
H434 C408 0.934 . S
H435 C409 0.930 . S
H436 C414 0.930 . S
H437 C415 0.931 . S
H438 C417 0.934 . S
H439 C418 0.930 . S
Ho440 C443 2.811 . S
Ho440 O460 2.322 . S
Ho440 O462 2.378 . S
Ho440 O463 2.524 . S
Ho440 O464 2.381 . S
Ho440 O465 2.669 . S
Ho440 O467 2.346 . S
Ho440 O471 2.305 . S
Ho441 C452 2.811 . S
Ho441 O461 2.346 . S
Ho441 O465 2.305 . S
Ho441 O466 2.322 . S
Ho441 O468 2.378 . S
Ho441 O469 2.524 . S
Ho441 O470 2.381 . S
Ho441 O471 2.669 . S
C442 O460 1.259 . S
C442 O461 1.268 . S
C443 Ho440 2.811 . S
C443 C444 1.488 . S
C443 O462 1.215 . S
C443 O463 1.289 . S
C444 C443 1.488 . S
C444 C445 1.348 . S
C444 C449 1.413 . S
C445 C444 1.348 . S
C445 C446 1.442 . S
C445 H472 0.930 . S
C446 C445 1.442 . S
C446 C447 1.381 . S
C446 H473 0.931 . S
C447 C446 1.381 . S
C447 C448 1.321 . S
C448 C447 1.321 . S
C448 C449 1.403 . S
C448 H474 0.934 . S
C449 C444 1.413 . S
C449 C448 1.403 . S
C449 H475 0.930 . S
C450 O464 1.275 . S
C450 O465 1.256 . S
C451 O466 1.259 . S
C451 O467 1.268 . S
C452 Ho441 2.811 . S
C452 C453 1.488 . S
C452 O468 1.215 . S
C452 O469 1.289 . S
C453 C452 1.488 . S
C453 C454 1.348 . S
C453 C458 1.413 . S
C454 C453 1.348 . S
C454 C455 1.442 . S
C454 H476 0.930 . S
C455 C454 1.442 . S
C455 C456 1.381 . S
C455 H477 0.931 . S
C456 C455 1.381 . S
C456 C457 1.321 . S
C457 C456 1.321 . S
C457 C458 1.403 . S
C457 H478 0.934 . S
C458 C453 1.413 . S
C458 C457 1.403 . S
C458 H479 0.930 . S
C459 O470 1.275 . S
C459 O471 1.256 . S
O460 Ho440 2.322 . S
O460 C442 1.259 . S
O461 Ho441 2.346 . S
O461 C442 1.268 . S
O462 Ho440 2.378 . S
O462 C443 1.215 . S
O463 Ho440 2.524 . S
O463 C443 1.289 . S
O464 Ho440 2.381 . S
O464 C450 1.275 . S
O465 Ho440 2.669 . S
O465 Ho441 2.305 . S
O465 C450 1.256 . S
O466 Ho441 2.322 . S
O466 C451 1.259 . S
O467 Ho440 2.346 . S
O467 C451 1.268 . S
O468 Ho441 2.378 . S
O468 C452 1.215 . S
O469 Ho441 2.524 . S
O469 C452 1.289 . S
O470 Ho441 2.381 . S
O470 C459 1.275 . S
O471 Ho440 2.305 . S
O471 Ho441 2.669 . S
O471 C459 1.256 . S
H472 C445 0.930 . S
H473 C446 0.931 . S
H474 C448 0.934 . S
H475 C449 0.930 . S
H476 C454 0.930 . S
H477 C455 0.931 . S
H478 C457 0.934 . S
H479 C458 0.930 . S
Ho480 C483 2.811 . S
Ho480 O500 2.322 . S
Ho480 O502 2.378 . S
Ho480 O503 2.524 . S
Ho480 O504 2.381 . S
Ho480 O505 2.669 . S
Ho480 O507 2.346 . S
Ho480 O511 2.305 . S
Ho481 C492 2.811 . S
Ho481 O501 2.346 . S
Ho481 O505 2.305 . S
Ho481 O506 2.322 . S
Ho481 O508 2.378 . S
Ho481 O509 2.524 . S
Ho481 O510 2.381 . S
Ho481 O511 2.669 . S
C482 O500 1.259 . S
C482 O501 1.268 . S
C483 Ho480 2.811 . S
C483 C484 1.488 . S
C483 O502 1.215 . S
C483 O503 1.289 . S
C484 C483 1.488 . S
C484 C485 1.348 . S
C484 C489 1.413 . S
C485 C484 1.348 . S
C485 C486 1.442 . S
C485 H512 0.930 . S
C486 C485 1.442 . S
C486 C487 1.381 . S
C486 H513 0.931 . S
C487 C486 1.381 . S
C487 C488 1.321 . S
C488 C487 1.321 . S
C488 C489 1.403 . S
C488 H514 0.934 . S
C489 C484 1.413 . S
C489 C488 1.403 . S
C489 H515 0.930 . S
C490 O504 1.275 . S
C490 O505 1.256 . S
C491 O506 1.259 . S
C491 O507 1.268 . S
C492 Ho481 2.811 . S
C492 C493 1.488 . S
C492 O508 1.215 . S
C492 O509 1.289 . S
C493 C492 1.488 . S
C493 C494 1.348 . S
C493 C498 1.413 . S
C494 C493 1.348 . S
C494 C495 1.442 . S
C494 H516 0.930 . S
C495 C494 1.442 . S
C495 C496 1.381 . S
C495 H517 0.931 . S
C496 C495 1.381 . S
C496 C497 1.321 . S
C497 C496 1.321 . S
C497 C498 1.403 . S
C497 H518 0.934 . S
C498 C493 1.413 . S
C498 C497 1.403 . S
C498 H519 0.930 . S
C499 O510 1.275 . S
C499 O511 1.256 . S
O500 Ho480 2.322 . S
O500 C482 1.259 . S
O501 Ho481 2.346 . S
O501 C482 1.268 . S
O502 Ho480 2.378 . S
O502 C483 1.215 . S
O503 Ho480 2.524 . S
O503 C483 1.289 . S
O504 Ho480 2.381 . S
O504 C490 1.275 . S
O505 Ho480 2.669 . S
O505 Ho481 2.305 . S
O505 C490 1.256 . S
O506 Ho481 2.322 . S
O506 C491 1.259 . S
O507 Ho480 2.346 . S
O507 C491 1.268 . S
O508 Ho481 2.378 . S
O508 C492 1.215 . S
O509 Ho481 2.524 . S
O509 C492 1.289 . S
O510 Ho481 2.381 . S
O510 C499 1.275 . S
O511 Ho480 2.305 . S
O511 Ho481 2.669 . S
O511 C499 1.256 . S
H512 C485 0.930 . S
H513 C486 0.931 . S
H514 C488 0.934 . S
H515 C489 0.930 . S
H516 C494 0.930 . S
H517 C495 0.931 . S
H518 C497 0.934 . S
H519 C498 0.930 . S
Ho520 C523 2.811 . S
Ho520 O540 2.322 . S
Ho520 O542 2.378 . S
Ho520 O543 2.524 . S
Ho520 O544 2.381 . S
Ho520 O545 2.669 . S
Ho520 O547 2.346 . S
Ho520 O551 2.305 . S
Ho521 C532 2.811 . S
Ho521 O541 2.346 . S
Ho521 O545 2.305 . S
Ho521 O546 2.322 . S
Ho521 O548 2.378 . S
Ho521 O549 2.524 . S
Ho521 O550 2.381 . S
Ho521 O551 2.669 . S
C522 O540 1.259 . S
C522 O541 1.268 . S
C523 Ho520 2.811 . S
C523 C524 1.488 . S
C523 O542 1.215 . S
C523 O543 1.289 . S
C524 C523 1.488 . S
C524 C525 1.348 . S
C524 C529 1.413 . S
C525 C524 1.348 . S
C525 C526 1.442 . S
C525 H552 0.930 . S
C526 C525 1.442 . S
C526 C527 1.381 . S
C526 H553 0.931 . S
C527 C526 1.381 . S
C527 C528 1.321 . S
C528 C527 1.321 . S
C528 C529 1.403 . S
C528 H554 0.934 . S
C529 C524 1.413 . S
C529 C528 1.403 . S
C529 H555 0.930 . S
C530 O544 1.275 . S
C530 O545 1.256 . S
C531 O546 1.259 . S
C531 O547 1.268 . S
C532 Ho521 2.811 . S
C532 C533 1.488 . S
C532 O548 1.215 . S
C532 O549 1.289 . S
C533 C532 1.488 . S
C533 C534 1.348 . S
C533 C538 1.413 . S
C534 C533 1.348 . S
C534 C535 1.442 . S
C534 H556 0.930 . S
C535 C534 1.442 . S
C535 C536 1.381 . S
C535 H557 0.931 . S
C536 C535 1.381 . S
C536 C537 1.321 . S
C537 C536 1.321 . S
C537 C538 1.403 . S
C537 H558 0.934 . S
C538 C533 1.413 . S
C538 C537 1.403 . S
C538 H559 0.930 . S
C539 O550 1.275 . S
C539 O551 1.256 . S
O540 Ho520 2.322 . S
O540 C522 1.259 . S
O541 Ho521 2.346 . S
O541 C522 1.268 . S
O542 Ho520 2.378 . S
O542 C523 1.215 . S
O543 Ho520 2.524 . S
O543 C523 1.289 . S
O544 Ho520 2.381 . S
O544 C530 1.275 . S
O545 Ho520 2.669 . S
O545 Ho521 2.305 . S
O545 C530 1.256 . S
O546 Ho521 2.322 . S
O546 C531 1.259 . S
O547 Ho520 2.346 . S
O547 C531 1.268 . S
O548 Ho521 2.378 . S
O548 C532 1.215 . S
O549 Ho521 2.524 . S
O549 C532 1.289 . S
O550 Ho521 2.381 . S
O550 C539 1.275 . S
O551 Ho520 2.305 . S
O551 Ho521 2.669 . S
O551 C539 1.256 . S
H552 C525 0.930 . S
H553 C526 0.931 . S
H554 C528 0.934 . S
H555 C529 0.930 . S
H556 C534 0.930 . S
H557 C535 0.931 . S
H558 C537 0.934 . S
H559 C538 0.930 . S
Ho560 C563 2.811 . S
Ho560 O580 2.322 . S
Ho560 O582 2.378 . S
Ho560 O583 2.524 . S
Ho560 O584 2.381 . S
Ho560 O585 2.669 . S
Ho560 O587 2.346 . S
Ho560 O591 2.305 . S
Ho561 C572 2.811 . S
Ho561 O581 2.346 . S
Ho561 O585 2.305 . S
Ho561 O586 2.322 . S
Ho561 O588 2.378 . S
Ho561 O589 2.524 . S
Ho561 O590 2.381 . S
Ho561 O591 2.669 . S
C562 O580 1.259 . S
C562 O581 1.268 . S
C563 Ho560 2.811 . S
C563 C564 1.488 . S
C563 O582 1.215 . S
C563 O583 1.289 . S
C564 C563 1.488 . S
C564 C565 1.348 . S
C564 C569 1.413 . S
C565 C564 1.348 . S
C565 C566 1.442 . S
C565 H592 0.930 . S
C566 C565 1.442 . S
C566 C567 1.381 . S
C566 H593 0.931 . S
C567 C566 1.381 . S
C567 C568 1.321 . S
C568 C567 1.321 . S
C568 C569 1.403 . S
C568 H594 0.934 . S
C569 C564 1.413 . S
C569 C568 1.403 . S
C569 H595 0.930 . S
C570 O584 1.275 . S
C570 O585 1.256 . S
C571 O586 1.259 . S
C571 O587 1.268 . S
C572 Ho561 2.811 . S
C572 C573 1.488 . S
C572 O588 1.215 . S
C572 O589 1.289 . S
C573 C572 1.488 . S
C573 C574 1.348 . S
C573 C578 1.413 . S
C574 C573 1.348 . S
C574 C575 1.442 . S
C574 H596 0.930 . S
C575 C574 1.442 . S
C575 C576 1.381 . S
C575 H597 0.931 . S
C576 C575 1.381 . S
C576 C577 1.321 . S
C577 C576 1.321 . S
C577 C578 1.403 . S
C577 H598 0.934 . S
C578 C573 1.413 . S
C578 C577 1.403 . S
C578 H599 0.930 . S
C579 O590 1.275 . S
C579 O591 1.256 . S
O580 Ho560 2.322 . S
O580 C562 1.259 . S
O581 Ho561 2.346 . S
O581 C562 1.268 . S
O582 Ho560 2.378 . S
O582 C563 1.215 . S
O583 Ho560 2.524 . S
O583 C563 1.289 . S
O584 Ho560 2.381 . S
O584 C570 1.275 . S
O585 Ho560 2.669 . S
O585 Ho561 2.305 . S
O585 C570 1.256 . S
O586 Ho561 2.322 . S
O586 C571 1.259 . S
O587 Ho560 2.346 . S
O587 C571 1.268 . S
O588 Ho561 2.378 . S
O588 C572 1.215 . S
O589 Ho561 2.524 . S
O589 C572 1.289 . S
O590 Ho561 2.381 . S
O590 C579 1.275 . S
O591 Ho560 2.305 . S
O591 Ho561 2.669 . S
O591 C579 1.256 . S
H592 C565 0.930 . S
H593 C566 0.931 . S
H594 C568 0.934 . S
H595 C569 0.930 . S
H596 C574 0.930 . S
H597 C575 0.931 . S
H598 C577 0.934 . S
H599 C578 0.930 . S
Ho600 C603 2.811 . S
Ho600 O620 2.322 . S
Ho600 O622 2.378 . S
Ho600 O623 2.524 . S
Ho600 O624 2.381 . S
Ho600 O625 2.669 . S
Ho600 O627 2.346 . S
Ho600 O631 2.305 . S
Ho601 C612 2.811 . S
Ho601 O621 2.346 . S
Ho601 O625 2.305 . S
Ho601 O626 2.322 . S
Ho601 O628 2.378 . S
Ho601 O629 2.524 . S
Ho601 O630 2.381 . S
Ho601 O631 2.669 . S
C602 O620 1.259 . S
C602 O621 1.268 . S
C603 Ho600 2.811 . S
C603 C604 1.488 1_556 S
C603 O622 1.215 . S
C603 O623 1.289 . S
C604 C603 1.488 1_554 S
C604 C605 1.348 . S
C604 C609 1.413 . S
C605 C604 1.348 . S
C605 C606 1.442 . S
C605 H632 0.930 . S
C606 C605 1.442 . S
C606 C607 1.381 . S
C606 H633 0.931 . S
C607 C606 1.381 . S
C607 C608 1.321 . S
C608 C607 1.321 . S
C608 C609 1.403 . S
C608 H634 0.934 . S
C609 C604 1.413 . S
C609 C608 1.403 . S
C609 H635 0.930 . S
C610 O624 1.275 . S
C610 O625 1.256 . S
C611 O626 1.259 . S
C611 O627 1.268 . S
C612 Ho601 2.811 . S
C612 C613 1.488 . S
C612 O628 1.215 . S
C612 O629 1.289 . S
C613 C612 1.488 . S
C613 C614 1.348 . S
C613 C618 1.413 . S
C614 C613 1.348 . S
C614 C615 1.442 . S
C614 H636 0.930 . S
C615 C614 1.442 . S
C615 C616 1.381 . S
C615 H637 0.931 . S
C616 C615 1.381 . S
C616 C617 1.321 . S
C617 C616 1.321 . S
C617 C618 1.403 . S
C617 H638 0.934 . S
C618 C613 1.413 . S
C618 C617 1.403 . S
C618 H639 0.930 . S
C619 O630 1.275 . S
C619 O631 1.256 . S
O620 Ho600 2.322 . S
O620 C602 1.259 . S
O621 Ho601 2.346 . S
O621 C602 1.268 . S
O622 Ho600 2.378 . S
O622 C603 1.215 . S
O623 Ho600 2.524 . S
O623 C603 1.289 . S
O624 Ho600 2.381 . S
O624 C610 1.275 . S
O625 Ho600 2.669 . S
O625 Ho601 2.305 . S
O625 C610 1.256 . S
O626 Ho601 2.322 . S
O626 C611 1.259 . S
O627 Ho600 2.346 . S
O627 C611 1.268 . S
O628 Ho601 2.378 . S
O628 C612 1.215 . S
O629 Ho601 2.524 . S
O629 C612 1.289 . S
O630 Ho601 2.381 . S
O630 C619 1.275 . S
O631 Ho600 2.305 . S
O631 Ho601 2.669 . S
O631 C619 1.256 . S
H632 C605 0.930 . S
H633 C606 0.931 . S
H634 C608 0.934 . S
H635 C609 0.930 . S
H636 C614 0.930 . S
H637 C615 0.931 . S
H638 C617 0.934 . S
H639 C618 0.930 . S
Ho640 C643 2.811 . S
Ho640 O660 2.322 . S
Ho640 O662 2.378 . S
Ho640 O663 2.524 . S
Ho640 O664 2.381 . S
Ho640 O665 2.669 . S
Ho640 O667 2.346 . S
Ho640 O671 2.305 . S
Ho641 C652 2.811 . S
Ho641 O661 2.346 . S
Ho641 O665 2.305 . S
Ho641 O666 2.322 . S
Ho641 O668 2.378 . S
Ho641 O669 2.524 . S
Ho641 O670 2.381 . S
Ho641 O671 2.669 . S
C642 O660 1.259 . S
C642 O661 1.268 . S
C643 Ho640 2.811 . S
C643 C644 1.488 . S
C643 O662 1.215 . S
C643 O663 1.289 . S
C644 C643 1.488 . S
C644 C645 1.348 . S
C644 C649 1.413 . S
C645 C644 1.348 . S
C645 C646 1.442 . S
C645 H672 0.930 . S
C646 C645 1.442 . S
C646 C647 1.381 . S
C646 H673 0.931 . S
C647 C646 1.381 . S
C647 C648 1.321 . S
C648 C647 1.321 . S
C648 C649 1.403 . S
C648 H674 0.934 . S
C649 C644 1.413 . S
C649 C648 1.403 . S
C649 H675 0.930 . S
C650 O664 1.275 . S
C650 O665 1.256 . S
C651 O666 1.259 . S
C651 O667 1.268 . S
C652 Ho641 2.811 . S
C652 C653 1.488 . S
C652 O668 1.215 . S
C652 O669 1.289 . S
C653 C652 1.488 . S
C653 C654 1.348 . S
C653 C658 1.413 . S
C654 C653 1.348 . S
C654 C655 1.442 . S
C654 H676 0.930 . S
C655 C654 1.442 . S
C655 C656 1.381 . S
C655 H677 0.931 . S
C656 C655 1.381 . S
C656 C657 1.321 . S
C657 C656 1.321 . S
C657 C658 1.403 . S
C657 H678 0.934 . S
C658 C653 1.413 . S
C658 C657 1.403 . S
C658 H679 0.930 . S
C659 O670 1.275 . S
C659 O671 1.256 . S
O660 Ho640 2.322 . S
O660 C642 1.259 . S
O661 Ho641 2.346 . S
O661 C642 1.268 . S
O662 Ho640 2.378 . S
O662 C643 1.215 . S
O663 Ho640 2.524 . S
O663 C643 1.289 . S
O664 Ho640 2.381 . S
O664 C650 1.275 . S
O665 Ho640 2.669 . S
O665 Ho641 2.305 . S
O665 C650 1.256 . S
O666 Ho641 2.322 . S
O666 C651 1.259 . S
O667 Ho640 2.346 . S
O667 C651 1.268 . S
O668 Ho641 2.378 . S
O668 C652 1.215 . S
O669 Ho641 2.524 . S
O669 C652 1.289 . S
O670 Ho641 2.381 . S
O670 C659 1.275 . S
O671 Ho640 2.305 . S
O671 Ho641 2.669 . S
O671 C659 1.256 . S
H672 C645 0.930 . S
H673 C646 0.931 . S
H674 C648 0.934 . S
H675 C649 0.930 . S
H676 C654 0.930 . S
H677 C655 0.931 . S
H678 C657 0.934 . S
H679 C658 0.930 . S
Ho680 C683 2.811 . S
Ho680 O700 2.322 . S
Ho680 O702 2.378 . S
Ho680 O703 2.524 . S
Ho680 O704 2.381 . S
Ho680 O705 2.669 . S
Ho680 O707 2.346 . S
Ho680 O711 2.305 . S
Ho681 C692 2.811 . S
Ho681 O701 2.346 . S
Ho681 O705 2.305 . S
Ho681 O706 2.322 . S
Ho681 O708 2.378 . S
Ho681 O709 2.524 . S
Ho681 O710 2.381 . S
Ho681 O711 2.669 . S
C682 O700 1.259 . S
C682 O701 1.268 . S
C683 Ho680 2.811 . S
C683 C684 1.488 1_556 S
C683 O702 1.215 . S
C683 O703 1.289 . S
C684 C683 1.488 1_554 S
C684 C685 1.348 . S
C684 C689 1.413 . S
C685 C684 1.348 . S
C685 C686 1.442 . S
C685 H712 0.930 . S
C686 C685 1.442 . S
C686 C687 1.381 . S
C686 H713 0.931 . S
C687 C686 1.381 . S
C687 C688 1.321 . S
C688 C687 1.321 . S
C688 C689 1.403 . S
C688 H714 0.934 . S
C689 C684 1.413 . S
C689 C688 1.403 . S
C689 H715 0.930 . S
C690 O704 1.275 . S
C690 O705 1.256 . S
C691 O706 1.259 . S
C691 O707 1.268 . S
C692 Ho681 2.811 . S
C692 C693 1.488 . S
C692 O708 1.215 . S
C692 O709 1.289 . S
C693 C692 1.488 . S
C693 C694 1.348 . S
C693 C698 1.413 . S
C694 C693 1.348 . S
C694 C695 1.442 . S
C694 H716 0.930 . S
C695 C694 1.442 . S
C695 C696 1.381 . S
C695 H717 0.931 . S
C696 C695 1.381 . S
C696 C697 1.321 . S
C697 C696 1.321 . S
C697 C698 1.403 . S
C697 H718 0.934 . S
C698 C693 1.413 . S
C698 C697 1.403 . S
C698 H719 0.930 . S
C699 O710 1.275 . S
C699 O711 1.256 . S
O700 Ho680 2.322 . S
O700 C682 1.259 . S
O701 Ho681 2.346 . S
O701 C682 1.268 . S
O702 Ho680 2.378 . S
O702 C683 1.215 . S
O703 Ho680 2.524 . S
O703 C683 1.289 . S
O704 Ho680 2.381 . S
O704 C690 1.275 . S
O705 Ho680 2.669 . S
O705 Ho681 2.305 . S
O705 C690 1.256 . S
O706 Ho681 2.322 . S
O706 C691 1.259 . S
O707 Ho680 2.346 . S
O707 C691 1.268 . S
O708 Ho681 2.378 . S
O708 C692 1.215 . S
O709 Ho681 2.524 . S
O709 C692 1.289 . S
O710 Ho681 2.381 . S
O710 C699 1.275 . S
O711 Ho680 2.305 . S
O711 Ho681 2.669 . S
O711 C699 1.256 . S
H712 C685 0.930 . S
H713 C686 0.931 . S
H714 C688 0.934 . S
H715 C689 0.930 . S
H716 C694 0.930 . S
H717 C695 0.931 . S
H718 C697 0.934 . S
H719 C698 0.930 . S
Ho720 C723 2.811 . S
Ho720 O740 2.322 . S
Ho720 O742 2.378 . S
Ho720 O743 2.524 . S
Ho720 O744 2.381 . S
Ho720 O745 2.669 . S
Ho720 O747 2.346 . S
Ho720 O751 2.305 . S
Ho721 C732 2.811 . S
Ho721 O741 2.346 . S
Ho721 O745 2.305 . S
Ho721 O746 2.322 . S
Ho721 O748 2.378 . S
Ho721 O749 2.524 . S
Ho721 O750 2.381 . S
Ho721 O751 2.669 . S
C722 O740 1.259 . S
C722 O741 1.268 . S
C723 Ho720 2.811 . S
C723 C724 1.488 . S
C723 O742 1.215 . S
C723 O743 1.289 . S
C724 C723 1.488 . S
C724 C725 1.348 . S
C724 C729 1.423 . S
C725 C724 1.348 . S
C725 C726 1.442 . S
C725 H752 0.930 . S
C726 C725 1.442 . S
C726 C727 1.381 . S
C726 H753 0.931 . S
C727 C726 1.381 . S
C727 C728 1.321 1_655 S
C728 C727 1.321 1_455 S
C728 C729 1.399 1_455 S
C728 H754 0.934 . S
C729 C724 1.423 . S
C729 C728 1.399 1_655 S
C729 H755 0.923 1_655 S
C730 O744 1.275 . S
C730 O745 1.256 . S
C731 O746 1.259 . S
C731 O747 1.268 . S
C732 Ho721 2.811 . S
C732 C733 1.488 . S
C732 O748 1.215 . S
C732 O749 1.289 . S
C733 C732 1.488 . S
C733 C734 1.348 1_554 S
C733 C738 1.413 1_554 S
C734 C733 1.348 1_556 S
C734 C735 1.442 . S
C734 H756 0.930 . S
C735 C734 1.442 . S
C735 C736 1.381 . S
C735 H757 0.931 . S
C736 C735 1.381 . S
C736 C737 1.321 . S
C737 C736 1.321 . S
C737 C738 1.403 . S
C737 H758 0.934 . S
C738 C733 1.413 1_556 S
C738 C737 1.403 . S
C738 H759 0.930 1_556 S
C739 O750 1.275 . S
C739 O751 1.256 . S
O740 Ho720 2.322 . S
O740 C722 1.259 . S
O741 Ho721 2.346 . S
O741 C722 1.268 . S
O742 Ho720 2.378 . S
O742 C723 1.215 . S
O743 Ho720 2.524 . S
O743 C723 1.289 . S
O744 Ho720 2.381 . S
O744 C730 1.275 . S
O745 Ho720 2.669 . S
O745 Ho721 2.305 . S
O745 C730 1.256 . S
O746 Ho721 2.322 . S
O746 C731 1.259 . S
O747 Ho720 2.346 . S
O747 C731 1.268 . S
O748 Ho721 2.378 . S
O748 C732 1.215 . S
O749 Ho721 2.524 . S
O749 C732 1.289 . S
O750 Ho721 2.381 . S
O750 C739 1.275 . S
O751 Ho720 2.305 . S
O751 Ho721 2.669 . S
O751 C739 1.256 . S
H752 C725 0.930 . S
H753 C726 0.931 . S
H754 C728 0.934 . S
H755 C729 0.923 1_455 S
H756 C734 0.930 . S
H757 C735 0.931 . S
H758 C737 0.934 . S
H759 C738 0.930 1_554 S
Ho760 C763 2.811 . S
Ho760 O780 2.322 . S
Ho760 O782 2.378 . S
Ho760 O783 2.524 . S
Ho760 O784 2.381 . S
Ho760 O785 2.669 . S
Ho760 O787 2.346 . S
Ho760 O791 2.305 . S
Ho761 C772 2.811 . S
Ho761 O781 2.346 . S
Ho761 O785 2.305 . S
Ho761 O786 2.322 . S
Ho761 O788 2.378 . S
Ho761 O789 2.524 . S
Ho761 O790 2.381 . S
Ho761 O791 2.669 . S
C762 O780 1.259 . S
C762 O781 1.268 . S
C763 Ho760 2.811 . S
C763 C764 1.488 . S
C763 O782 1.215 . S
C763 O783 1.289 . S
C764 C763 1.488 . S
C764 C765 1.348 . S
C764 C769 1.413 . S
C765 C764 1.348 . S
C765 C766 1.442 . S
C765 H792 0.930 . S
C766 C765 1.442 . S
C766 C767 1.381 . S
C766 H793 0.931 . S
C767 C766 1.381 . S
C767 C768 1.321 . S
C768 C767 1.321 . S
C768 C769 1.403 . S
C768 H794 0.934 . S
C769 C764 1.413 . S
C769 C768 1.403 . S
C769 H795 0.930 . S
C770 O784 1.275 . S
C770 O785 1.256 . S
C771 O786 1.259 . S
C771 O787 1.268 . S
C772 Ho761 2.811 . S
C772 C773 1.488 . S
C772 O788 1.215 . S
C772 O789 1.289 . S
C773 C772 1.488 . S
C773 C774 1.348 . S
C773 C778 1.413 . S
C774 C773 1.348 . S
C774 C775 1.442 . S
C774 H796 0.930 . S
C775 C774 1.442 . S
C775 C776 1.381 . S
C775 H797 0.931 . S
C776 C775 1.381 . S
C776 C777 1.321 . S
C777 C776 1.321 . S
C777 C778 1.403 . S
C777 H798 0.934 . S
C778 C773 1.413 . S
C778 C777 1.403 . S
C778 H799 0.930 . S
C779 O790 1.275 . S
C779 O791 1.256 . S
O780 Ho760 2.322 . S
O780 C762 1.259 . S
O781 Ho761 2.346 . S
O781 C762 1.268 . S
O782 Ho760 2.378 . S
O782 C763 1.215 . S
O783 Ho760 2.524 . S
O783 C763 1.289 . S
O784 Ho760 2.381 . S
O784 C770 1.275 . S
O785 Ho760 2.669 . S
O785 Ho761 2.305 . S
O785 C770 1.256 . S
O786 Ho761 2.322 . S
O786 C771 1.259 . S
O787 Ho760 2.346 . S
O787 C771 1.268 . S
O788 Ho761 2.378 . S
O788 C772 1.215 . S
O789 Ho761 2.524 . S
O789 C772 1.289 . S
O790 Ho761 2.381 . S
O790 C779 1.275 . S
O791 Ho760 2.305 . S
O791 Ho761 2.669 . S
O791 C779 1.256 . S
H792 C765 0.930 . S
H793 C766 0.931 . S
H794 C768 0.934 . S
H795 C769 0.930 . S
H796 C774 0.930 . S
H797 C775 0.931 . S
H798 C777 0.934 . S
H799 C778 0.930 . S
Ho800 C803 2.811 . S
Ho800 O820 2.322 . S
Ho800 O822 2.378 . S
Ho800 O823 2.524 . S
Ho800 O824 2.381 . S
Ho800 O825 2.669 . S
Ho800 O827 2.346 . S
Ho800 O831 2.305 . S
Ho801 C812 2.811 1_554 S
Ho801 O821 2.346 . S
Ho801 O825 2.305 . S
Ho801 O826 2.322 . S
Ho801 O828 2.378 1_544 S
Ho801 O829 2.524 1_554 S
Ho801 O830 2.381 . S
Ho801 O831 2.669 . S
C802 O820 1.259 . S
C802 O821 1.268 . S
C803 Ho800 2.811 . S
C803 C804 1.488 . S
C803 O822 1.215 . S
C803 O823 1.289 . S
C804 C803 1.488 . S
C804 C805 1.348 . S
C804 C809 1.413 . S
C805 C804 1.348 . S
C805 C806 1.442 . S
C805 H832 0.930 . S
C806 C805 1.442 . S
C806 C807 1.381 . S
C806 H833 0.931 . S
C807 C806 1.381 . S
C807 C808 1.321 . S
C808 C807 1.321 . S
C808 C809 1.403 . S
C808 H834 0.934 . S
C809 C804 1.413 . S
C809 C808 1.403 . S
C809 H835 0.930 . S
C810 O824 1.275 . S
C810 O825 1.256 . S
C811 O826 1.259 . S
C811 O827 1.268 . S
C812 Ho801 2.811 1_556 S
C812 C813 1.488 . S
C812 O828 1.215 1_545 S
C812 O829 1.289 . S
C813 C812 1.488 . S
C813 C814 1.348 . S
C813 C818 1.413 1_545 S
C814 C813 1.348 . S
C814 C815 1.442 . S
C814 H836 0.930 . S
C815 C814 1.442 . S
C815 C816 1.381 1_545 S
C815 H837 0.931 . S
C816 C815 1.381 1_565 S
C816 C817 1.321 . S
C817 C816 1.321 . S
C817 C818 1.403 . S
C817 H838 0.934 . S
C818 C813 1.413 1_565 S
C818 C817 1.403 . S
C818 H839 0.930 . S
C819 O830 1.275 . S
C819 O831 1.256 . S
O820 Ho800 2.322 . S
O820 C802 1.259 . S
O821 Ho801 2.346 . S
O821 C802 1.268 . S
O822 Ho800 2.378 . S
O822 C803 1.215 . S
O823 Ho800 2.524 . S
O823 C803 1.289 . S
O824 Ho800 2.381 . S
O824 C810 1.275 . S
O825 Ho800 2.669 . S
O825 Ho801 2.305 . S
O825 C810 1.256 . S
O826 Ho801 2.322 . S
O826 C811 1.259 . S
O827 Ho800 2.346 . S
O827 C811 1.268 . S
O828 Ho801 2.378 1_566 S
O828 C812 1.215 1_565 S
O829 Ho801 2.524 1_556 S
O829 C812 1.289 . S
O830 Ho801 2.381 . S
O830 C819 1.275 . S
O831 Ho800 2.305 . S
O831 Ho801 2.669 . S
O831 C819 1.256 . S
H832 C805 0.930 . S
H833 C806 0.931 . S
H834 C808 0.934 . S
H835 C809 0.930 . S
H836 C814 0.930 . S
H837 C815 0.931 . S
H838 C817 0.934 . S
H839 C818 0.930 . S
Ho840 C843 2.811 . S
Ho840 O860 2.322 . S
Ho840 O862 2.378 . S
Ho840 O863 2.524 . S
Ho840 O864 2.381 . S
Ho840 O865 2.669 . S
Ho840 O867 2.346 . S
Ho840 O871 2.305 . S
Ho841 C852 2.811 . S
Ho841 O861 2.346 . S
Ho841 O865 2.305 . S
Ho841 O866 2.322 . S
Ho841 O868 2.378 . S
Ho841 O869 2.524 . S
Ho841 O870 2.381 . S
Ho841 O871 2.669 . S
C842 O860 1.259 . S
C842 O861 1.268 . S
C843 Ho840 2.811 . S
C843 C844 1.488 . S
C843 O862 1.215 . S
C843 O863 1.289 . S
C844 C843 1.488 . S
C844 C845 1.348 . S
C844 C849 1.413 . S
C845 C844 1.348 . S
C845 C846 1.442 . S
C845 H872 0.930 . S
C846 C845 1.442 . S
C846 C847 1.381 . S
C846 H873 0.931 . S
C847 C846 1.381 . S
C847 C848 1.321 . S
C848 C847 1.321 . S
C848 C849 1.403 . S
C848 H874 0.934 . S
C849 C844 1.413 . S
C849 C848 1.403 . S
C849 H875 0.930 . S
C850 O864 1.275 . S
C850 O865 1.256 . S
C851 O866 1.259 . S
C851 O867 1.268 . S
C852 Ho841 2.811 . S
C852 C853 1.488 . S
C852 O868 1.215 . S
C852 O869 1.289 . S
C853 C852 1.488 . S
C853 C854 1.348 . S
C853 C858 1.413 . S
C854 C853 1.348 . S
C854 C855 1.442 . S
C854 H876 0.930 . S
C855 C854 1.442 . S
C855 C856 1.381 . S
C855 H877 0.931 . S
C856 C855 1.381 . S
C856 C857 1.321 . S
C857 C856 1.321 . S
C857 C858 1.403 . S
C857 H878 0.934 . S
C858 C853 1.413 . S
C858 C857 1.403 . S
C858 H879 0.930 . S
C859 O870 1.275 . S
C859 O871 1.256 . S
O860 Ho840 2.322 . S
O860 C842 1.259 . S
O861 Ho841 2.346 . S
O861 C842 1.268 . S
O862 Ho840 2.378 . S
O862 C843 1.215 . S
O863 Ho840 2.524 . S
O863 C843 1.289 . S
O864 Ho840 2.381 . S
O864 C850 1.275 . S
O865 Ho840 2.669 . S
O865 Ho841 2.305 . S
O865 C850 1.256 . S
O866 Ho841 2.322 . S
O866 C851 1.259 . S
O867 Ho840 2.346 . S
O867 C851 1.268 . S
O868 Ho841 2.378 . S
O868 C852 1.215 . S
O869 Ho841 2.524 . S
O869 C852 1.289 . S
O870 Ho841 2.381 . S
O870 C859 1.275 . S
O871 Ho840 2.305 . S
O871 Ho841 2.669 . S
O871 C859 1.256 . S
H872 C845 0.930 . S
H873 C846 0.931 . S
H874 C848 0.934 . S
H875 C849 0.930 . S
H876 C854 0.930 . S
H877 C855 0.931 . S
H878 C857 0.934 . S
H879 C858 0.930 . S
Ho880 C883 2.811 . S
Ho880 O900 2.322 . S
Ho880 O902 2.378 . S
Ho880 O903 2.524 . S
Ho880 O904 2.381 . S
Ho880 O905 2.669 . S
Ho880 O907 2.346 . S
Ho880 O911 2.305 . S
Ho881 C892 2.811 . S
Ho881 O901 2.346 . S
Ho881 O905 2.305 . S
Ho881 O906 2.322 . S
Ho881 O908 2.378 1_565 S
Ho881 O909 2.524 . S
Ho881 O910 2.381 1_565 S
Ho881 O911 2.669 . S
C882 O900 1.259 . S
C882 O901 1.268 . S
C883 Ho880 2.811 . S
C883 C884 1.488 . S
C883 O902 1.215 . S
C883 O903 1.289 . S
C884 C883 1.488 . S
C884 C885 1.348 . S
C884 C889 1.413 . S
C885 C884 1.348 . S
C885 C886 1.442 . S
C885 H912 0.930 . S
C886 C885 1.442 . S
C886 C887 1.381 . S
C886 H913 0.931 . S
C887 C886 1.381 . S
C887 C888 1.321 . S
C888 C887 1.321 . S
C888 C889 1.403 . S
C888 H914 0.934 . S
C889 C884 1.413 . S
C889 C888 1.403 . S
C889 H915 0.930 . S
C890 O904 1.275 . S
C890 O905 1.256 . S
C891 O906 1.259 . S
C891 O907 1.268 . S
C892 Ho881 2.811 . S
C892 C893 1.488 1_565 S
C892 O908 1.215 1_565 S
C892 O909 1.289 . S
C893 C892 1.488 1_545 S
C893 C894 1.348 1_545 S
C893 C898 1.413 . S
C894 C893 1.348 1_565 S
C894 C895 1.442 . S
C894 H916 0.930 . S
C895 C894 1.442 . S
C895 C896 1.381 1_565 S
C895 H917 0.931 . S
C896 C895 1.381 1_545 S
C896 C897 1.321 . S
C897 C896 1.321 . S
C897 C898 1.403 . S
C897 H918 0.934 . S
C898 C893 1.413 . S
C898 C897 1.403 . S
C898 H919 0.930 . S
C899 O910 1.275 1_565 S
C899 O911 1.256 . S
O900 Ho880 2.322 . S
O900 C882 1.259 . S
O901 Ho881 2.346 . S
O901 C882 1.268 . S
O902 Ho880 2.378 . S
O902 C883 1.215 . S
O903 Ho880 2.524 . S
O903 C883 1.289 . S
O904 Ho880 2.381 . S
O904 C890 1.275 . S
O905 Ho880 2.669 . S
O905 Ho881 2.305 . S
O905 C890 1.256 . S
O906 Ho881 2.322 . S
O906 C891 1.259 . S
O907 Ho880 2.346 . S
O907 C891 1.268 . S
O908 Ho881 2.378 1_545 S
O908 C892 1.215 1_545 S
O909 Ho881 2.524 . S
O909 C892 1.289 . S
O910 Ho881 2.381 1_545 S
O910 C899 1.275 1_545 S
O911 Ho880 2.305 . S
O911 Ho881 2.669 . S
O911 C899 1.256 . S
H912 C885 0.930 . S
H913 C886 0.931 . S
H914 C888 0.934 . S
H915 C889 0.930 . S
H916 C894 0.930 . S
H917 C895 0.931 . S
H918 C897 0.934 . S
H919 C898 0.930 . S
Ho920 C923 2.811 1_556 S
Ho920 O940 2.322 . S
Ho920 O942 2.378 1_556 S
Ho920 O943 2.524 1_556 S
Ho920 O944 2.381 . S
Ho920 O945 2.669 . S
Ho920 O947 2.346 . S
Ho920 O951 2.305 . S
Ho921 C932 2.811 . S
Ho921 O941 2.346 . S
Ho921 O945 2.305 . S
Ho921 O946 2.322 . S
Ho921 O948 2.378 . S
Ho921 O949 2.524 . S
Ho921 O950 2.381 . S
Ho921 O951 2.669 . S
C922 O940 1.259 . S
C922 O941 1.268 . S
C923 Ho920 2.811 1_554 S
C923 C924 1.488 . S
C923 O942 1.215 . S
C923 O943 1.289 . S
C924 C923 1.488 . S
C924 C925 1.348 . S
C924 C929 1.413 . S
C925 C924 1.348 . S
C925 C926 1.442 . S
C925 H952 0.930 . S
C926 C925 1.442 . S
C926 C927 1.381 . S
C926 H953 0.931 . S
C927 C926 1.381 . S
C927 C928 1.321 . S
C928 C927 1.321 . S
C928 C929 1.403 . S
C928 H954 0.934 . S
C929 C924 1.413 . S
C929 C928 1.403 . S
C929 H955 0.930 . S
C930 O944 1.275 . S
C930 O945 1.256 . S
C931 O946 1.259 . S
C931 O947 1.268 . S
C932 Ho921 2.811 . S
C932 C933 1.488 . S
C932 O948 1.215 . S
C932 O949 1.289 . S
C933 C932 1.488 . S
C933 C934 1.348 . S
C933 C938 1.413 . S
C934 C933 1.348 . S
C934 C935 1.442 . S
C934 H956 0.930 . S
C935 C934 1.442 . S
C935 C936 1.381 . S
C935 H957 0.931 . S
C936 C935 1.381 . S
C936 C937 1.321 . S
C937 C936 1.321 . S
C937 C938 1.403 . S
C937 H958 0.934 . S
C938 C933 1.413 . S
C938 C937 1.403 . S
C938 H959 0.930 . S
C939 O950 1.275 . S
C939 O951 1.256 . S
O940 Ho920 2.322 . S
O940 C922 1.259 . S
O941 Ho921 2.346 . S
O941 C922 1.268 . S
O942 Ho920 2.378 1_554 S
O942 C923 1.215 . S
O943 Ho920 2.524 1_554 S
O943 C923 1.289 . S
O944 Ho920 2.381 . S
O944 C930 1.275 . S
O945 Ho920 2.669 . S
O945 Ho921 2.305 . S
O945 C930 1.256 . S
O946 Ho921 2.322 . S
O946 C931 1.259 . S
O947 Ho920 2.346 . S
O947 C931 1.268 . S
O948 Ho921 2.378 . S
O948 C932 1.215 . S
O949 Ho921 2.524 . S
O949 C932 1.289 . S
O950 Ho921 2.381 . S
O950 C939 1.275 . S
O951 Ho920 2.305 . S
O951 Ho921 2.669 . S
O951 C939 1.256 . S
H952 C925 0.930 . S
H953 C926 0.931 . S
H954 C928 0.934 . S
H955 C929 0.930 . S
H956 C934 0.930 . S
H957 C935 0.931 . S
H958 C937 0.934 . S
H959 C938 0.930 . S
Ho960 C963 2.811 . S
Ho960 O980 2.322 . S
Ho960 O982 2.378 . S
Ho960 O983 2.524 . S
Ho960 O984 2.381 . S
Ho960 O985 2.669 . S
Ho960 O987 2.346 . S
Ho960 O991 2.305 . S
Ho961 C972 2.811 . S
Ho961 O981 2.346 . S
Ho961 O985 2.305 . S
Ho961 O986 2.322 . S
Ho961 O988 2.378 . S
Ho961 O989 2.524 . S
Ho961 O990 2.381 . S
Ho961 O991 2.669 . S
C962 O980 1.259 . S
C962 O981 1.268 . S
C963 Ho960 2.811 . S
C963 C964 1.488 . S
C963 O982 1.215 . S
C963 O983 1.289 . S
C964 C963 1.488 . S
C964 C965 1.348 . S
C964 C969 1.413 . S
C965 C964 1.348 . S
C965 C966 1.442 . S
C965 H992 0.930 . S
C966 C965 1.442 . S
C966 C967 1.381 . S
C966 H993 0.931 . S
C967 C966 1.381 . S
C967 C968 1.321 . S
C968 C967 1.321 . S
C968 C969 1.403 . S
C968 H994 0.934 . S
C969 C964 1.413 . S
C969 C968 1.403 . S
C969 H995 0.930 . S
C970 O984 1.275 . S
C970 O985 1.256 . S
C971 O986 1.259 . S
C971 O987 1.268 . S
C972 Ho961 2.811 . S
C972 C973 1.488 . S
C972 O988 1.215 . S
C972 O989 1.289 . S
C973 C972 1.488 . S
C973 C974 1.348 . S
C973 C978 1.413 . S
C974 C973 1.348 . S
C974 C975 1.442 . S
C974 H996 0.930 . S
C975 C974 1.442 . S
C975 C976 1.381 . S
C975 H997 0.931 . S
C976 C975 1.381 . S
C976 C977 1.321 . S
C977 C976 1.321 . S
C977 C978 1.403 . S
C977 H998 0.934 . S
C978 C973 1.413 . S
C978 C977 1.403 . S
C978 H999 0.930 . S
C979 O990 1.275 . S
C979 O991 1.256 . S
O980 Ho960 2.322 . S
O980 C962 1.259 . S
O981 Ho961 2.346 . S
O981 C962 1.268 . S
O982 Ho960 2.378 . S
O982 C963 1.215 . S
O983 Ho960 2.524 . S
O983 C963 1.289 . S
O984 Ho960 2.381 . S
O984 C970 1.275 . S
O985 Ho960 2.669 . S
O985 Ho961 2.305 . S
O985 C970 1.256 . S
O986 Ho961 2.322 . S
O986 C971 1.259 . S
O987 Ho960 2.346 . S
O987 C971 1.268 . S
O988 Ho961 2.378 . S
O988 C972 1.215 . S
O989 Ho961 2.524 . S
O989 C972 1.289 . S
O990 Ho961 2.381 . S
O990 C979 1.275 . S
O991 Ho960 2.305 . S
O991 Ho961 2.669 . S
O991 C979 1.256 . S
H992 C965 0.930 . S
H993 C966 0.931 . S
H994 C968 0.934 . S
H995 C969 0.930 . S
H996 C974 0.930 . S
H997 C975 0.931 . S
H998 C977 0.934 . S
H999 C978 0.930 . S
Ho1000 C1003 2.811 . S
Ho1000 O1020 2.322 . S
Ho1000 O1022 2.378 . S
Ho1000 O1023 2.524 . S
Ho1000 O1024 2.381 . S
Ho1000 O1025 2.669 . S
Ho1000 O1027 2.346 . S
Ho1000 O1031 2.305 . S
Ho1001 C1012 2.811 . S
Ho1001 O1021 2.346 . S
Ho1001 O1025 2.305 . S
Ho1001 O1026 2.322 . S
Ho1001 O1028 2.378 . S
Ho1001 O1029 2.524 . S
Ho1001 O1030 2.381 . S
Ho1001 O1031 2.669 . S
C1002 O1020 1.259 . S
C1002 O1021 1.268 . S
C1003 Ho1000 2.811 . S
C1003 C1004 1.488 . S
C1003 O1022 1.215 . S
C1003 O1023 1.289 . S
C1004 C1003 1.488 . S
C1004 C1005 1.348 . S
C1004 C1009 1.413 . S
C1005 C1004 1.348 . S
C1005 C1006 1.442 . S
C1005 H1032 0.930 . S
C1006 C1005 1.442 . S
C1006 C1007 1.381 . S
C1006 H1033 0.931 . S
C1007 C1006 1.381 . S
C1007 C1008 1.321 . S
C1008 C1007 1.321 . S
C1008 C1009 1.403 . S
C1008 H1034 0.934 . S
C1009 C1004 1.413 . S
C1009 C1008 1.403 . S
C1009 H1035 0.930 . S
C1010 O1024 1.275 . S
C1010 O1025 1.256 . S
C1011 O1026 1.259 . S
C1011 O1027 1.268 . S
C1012 Ho1001 2.811 . S
C1012 C1013 1.488 . S
C1012 O1028 1.215 . S
C1012 O1029 1.289 . S
C1013 C1012 1.488 . S
C1013 C1014 1.348 . S
C1013 C1018 1.413 . S
C1014 C1013 1.348 . S
C1014 C1015 1.442 . S
C1014 H1036 0.930 . S
C1015 C1014 1.442 . S
C1015 C1016 1.381 . S
C1015 H1037 0.931 . S
C1016 C1015 1.381 . S
C1016 C1017 1.321 . S
C1017 C1016 1.321 . S
C1017 C1018 1.403 . S
C1017 H1038 0.934 . S
C1018 C1013 1.413 . S
C1018 C1017 1.403 . S
C1018 H1039 0.930 . S
C1019 O1030 1.275 . S
C1019 O1031 1.256 . S
O1020 Ho1000 2.322 . S
O1020 C1002 1.259 . S
O1021 Ho1001 2.346 . S
O1021 C1002 1.268 . S
O1022 Ho1000 2.378 . S
O1022 C1003 1.215 . S
O1023 Ho1000 2.524 . S
O1023 C1003 1.289 . S
O1024 Ho1000 2.381 . S
O1024 C1010 1.275 . S
O1025 Ho1000 2.669 . S
O1025 Ho1001 2.305 . S
O1025 C1010 1.256 . S
O1026 Ho1001 2.322 . S
O1026 C1011 1.259 . S
O1027 Ho1000 2.346 . S
O1027 C1011 1.268 . S
O1028 Ho1001 2.378 . S
O1028 C1012 1.215 . S
O1029 Ho1001 2.524 . S
O1029 C1012 1.289 . S
O1030 Ho1001 2.381 . S
O1030 C1019 1.275 . S
O1031 Ho1000 2.305 . S
O1031 Ho1001 2.669 . S
O1031 C1019 1.256 . S
H1032 C1005 0.930 . S
H1033 C1006 0.931 . S
H1034 C1008 0.934 . S
H1035 C1009 0.930 . S
H1036 C1014 0.930 . S
H1037 C1015 0.931 . S
H1038 C1017 0.934 . S
H1039 C1018 0.930 . S
Ho1040 C1043 2.811 . S
Ho1040 O1060 2.322 . S
Ho1040 O1062 2.378 . S
Ho1040 O1063 2.524 . S
Ho1040 O1064 2.381 . S
Ho1040 O1065 2.669 . S
Ho1040 O1067 2.346 . S
Ho1040 O1071 2.305 . S
Ho1041 C1052 2.811 . S
Ho1041 O1061 2.346 . S
Ho1041 O1065 2.305 . S
Ho1041 O1066 2.322 . S
Ho1041 O1068 2.378 . S
Ho1041 O1069 2.524 . S
Ho1041 O1070 2.381 . S
Ho1041 O1071 2.669 . S
C1042 O1060 1.259 . S
C1042 O1061 1.268 . S
C1043 Ho1040 2.811 . S
C1043 C1044 1.488 . S
C1043 O1062 1.215 . S
C1043 O1063 1.289 . S
C1044 C1043 1.488 . S
C1044 C1045 1.348 . S
C1044 C1049 1.413 . S
C1045 C1044 1.348 . S
C1045 C1046 1.442 . S
C1045 H1072 0.930 . S
C1046 C1045 1.442 . S
C1046 C1047 1.381 . S
C1046 H1073 0.931 . S
C1047 C1046 1.381 . S
C1047 C1048 1.321 . S
C1048 C1047 1.321 . S
C1048 C1049 1.403 . S
C1048 H1074 0.934 . S
C1049 C1044 1.413 . S
C1049 C1048 1.403 . S
C1049 H1075 0.930 . S
C1050 O1064 1.275 . S
C1050 O1065 1.256 . S
C1051 O1066 1.259 . S
C1051 O1067 1.268 . S
C1052 Ho1041 2.811 . S
C1052 C1053 1.488 . S
C1052 O1068 1.215 . S
C1052 O1069 1.289 . S
C1053 C1052 1.488 . S
C1053 C1054 1.348 . S
C1053 C1058 1.422 . S
C1054 C1053 1.348 . S
C1054 C1055 1.442 1_554 S
C1054 H1076 0.930 . S
C1055 C1054 1.442 1_556 S
C1055 C1056 1.381 . S
C1055 H1077 0.931 . S
C1056 C1055 1.381 . S
C1056 C1057 1.321 1_455 S
C1057 C1056 1.321 1_655 S
C1057 C1058 1.400 1_656 S
C1057 H1078 0.934 . S
C1058 C1053 1.422 . S
C1058 C1057 1.400 1_454 S
C1058 H1079 0.924 1_455 S
C1059 O1070 1.275 . S
C1059 O1071 1.256 . S
O1060 Ho1040 2.322 . S
O1060 C1042 1.259 . S
O1061 Ho1041 2.346 . S
O1061 C1042 1.268 . S
O1062 Ho1040 2.378 . S
O1062 C1043 1.215 . S
O1063 Ho1040 2.524 . S
O1063 C1043 1.289 . S
O1064 Ho1040 2.381 . S
O1064 C1050 1.275 . S
O1065 Ho1040 2.669 . S
O1065 Ho1041 2.305 . S
O1065 C1050 1.256 . S
O1066 Ho1041 2.322 . S
O1066 C1051 1.259 . S
O1067 Ho1040 2.346 . S
O1067 C1051 1.268 . S
O1068 Ho1041 2.378 . S
O1068 C1052 1.215 . S
O1069 Ho1041 2.524 . S
O1069 C1052 1.289 . S
O1070 Ho1041 2.381 . S
O1070 C1059 1.275 . S
O1071 Ho1040 2.305 . S
O1071 Ho1041 2.669 . S
O1071 C1059 1.256 . S
H1072 C1045 0.930 . S
H1073 C1046 0.931 . S
H1074 C1048 0.934 . S
H1075 C1049 0.930 . S
H1076 C1054 0.930 . S
H1077 C1055 0.931 . S
H1078 C1057 0.934 . S
H1079 C1058 0.924 1_655 S
Ho1080 C1083 2.811 . S
Ho1080 O1100 2.322 . S
Ho1080 O1102 2.378 . S
Ho1080 O1103 2.524 . S
Ho1080 O1104 2.381 . S
Ho1080 O1105 2.669 . S
Ho1080 O1107 2.346 . S
Ho1080 O1111 2.305 . S
Ho1081 C1092 2.811 1_556 S
Ho1081 O1101 2.346 . S
Ho1081 O1105 2.305 . S
Ho1081 O1106 2.322 1_556 S
Ho1081 O1108 2.378 1_556 S
Ho1081 O1109 2.524 1_556 S
Ho1081 O1110 2.381 . S
Ho1081 O1111 2.669 . S
C1082 O1100 1.259 . S
C1082 O1101 1.268 . S
C1083 Ho1080 2.811 . S
C1083 C1084 1.488 . S
C1083 O1102 1.215 . S
C1083 O1103 1.289 . S
C1084 C1083 1.488 . S
C1084 C1085 1.348 . S
C1084 C1089 1.413 . S
C1085 C1084 1.348 . S
C1085 C1086 1.442 . S
C1085 H1112 0.930 . S
C1086 C1085 1.442 . S
C1086 C1087 1.381 . S
C1086 H1113 0.931 . S
C1087 C1086 1.381 . S
C1087 C1088 1.321 . S
C1088 C1087 1.321 . S
C1088 C1089 1.403 . S
C1088 H1114 0.934 . S
C1089 C1084 1.413 . S
C1089 C1088 1.403 . S
C1089 H1115 0.930 . S
C1090 O1104 1.275 . S
C1090 O1105 1.256 . S
C1091 O1106 1.259 . S
C1091 O1107 1.268 1_554 S
C1092 Ho1081 2.811 1_554 S
C1092 C1093 1.488 . S
C1092 O1108 1.215 . S
C1092 O1109 1.289 . S
C1093 C1092 1.488 . S
C1093 C1094 1.348 . S
C1093 C1098 1.413 . S
C1094 C1093 1.348 . S
C1094 C1095 1.442 . S
C1094 H1116 0.930 . S
C1095 C1094 1.442 . S
C1095 C1096 1.381 . S
C1095 H1117 0.931 . S
C1096 C1095 1.381 . S
C1096 C1097 1.321 . S
C1097 C1096 1.321 . S
C1097 C1098 1.403 . S
C1097 H1118 0.934 . S
C1098 C1093 1.413 . S
C1098 C1097 1.403 . S
C1098 H1119 0.930 . S
C1099 O1110 1.275 . S
C1099 O1111 1.256 . S
O1100 Ho1080 2.322 . S
O1100 C1082 1.259 . S
O1101 Ho1081 2.346 . S
O1101 C1082 1.268 . S
O1102 Ho1080 2.378 . S
O1102 C1083 1.215 . S
O1103 Ho1080 2.524 . S
O1103 C1083 1.289 . S
O1104 Ho1080 2.381 . S
O1104 C1090 1.275 . S
O1105 Ho1080 2.669 . S
O1105 Ho1081 2.305 . S
O1105 C1090 1.256 . S
O1106 Ho1081 2.322 1_554 S
O1106 C1091 1.259 . S
O1107 Ho1080 2.346 . S
O1107 C1091 1.268 1_556 S
O1108 Ho1081 2.378 1_554 S
O1108 C1092 1.215 . S
O1109 Ho1081 2.524 1_554 S
O1109 C1092 1.289 . S
O1110 Ho1081 2.381 . S
O1110 C1099 1.275 . S
O1111 Ho1080 2.305 . S
O1111 Ho1081 2.669 . S
O1111 C1099 1.256 . S
H1112 C1085 0.930 . S
H1113 C1086 0.931 . S
H1114 C1088 0.934 . S
H1115 C1089 0.930 . S
H1116 C1094 0.930 . S
H1117 C1095 0.931 . S
H1118 C1097 0.934 . S
H1119 C1098 0.930 . S
Ho1120 C1123 2.811 . S
Ho1120 O1140 2.322 . S
Ho1120 O1142 2.378 1_565 S
Ho1120 O1143 2.524 . S
Ho1120 O1144 2.381 . S
Ho1120 O1145 2.669 . S
Ho1120 O1147 2.346 . S
Ho1120 O1151 2.305 . S
Ho1121 C1132 2.811 . S
Ho1121 O1141 2.346 . S
Ho1121 O1145 2.305 . S
Ho1121 O1146 2.322 . S
Ho1121 O1148 2.378 . S
Ho1121 O1149 2.524 . S
Ho1121 O1150 2.381 . S
Ho1121 O1151 2.669 . S
C1122 O1140 1.259 . S
C1122 O1141 1.268 . S
C1123 Ho1120 2.811 . S
C1123 C1124 1.488 . S
C1123 O1142 1.215 1_565 S
C1123 O1143 1.289 . S
C1124 C1123 1.488 . S
C1124 C1125 1.348 . S
C1124 C1129 1.413 1_565 S
C1125 C1124 1.348 . S
C1125 C1126 1.442 . S
C1125 H1152 0.930 . S
C1126 C1125 1.442 . S
C1126 C1127 1.381 1_565 S
C1126 H1153 0.931 . S
C1127 C1126 1.381 1_545 S
C1127 C1128 1.321 . S
C1128 C1127 1.321 . S
C1128 C1129 1.403 . S
C1128 H1154 0.934 . S
C1129 C1124 1.413 1_545 S
C1129 C1128 1.403 . S
C1129 H1155 0.930 . S
C1130 O1144 1.275 . S
C1130 O1145 1.256 . S
C1131 O1146 1.259 . S
C1131 O1147 1.268 . S
C1132 Ho1121 2.811 . S
C1132 C1133 1.488 . S
C1132 O1148 1.215 . S
C1132 O1149 1.289 . S
C1133 C1132 1.488 . S
C1133 C1134 1.348 . S
C1133 C1138 1.413 . S
C1134 C1133 1.348 . S
C1134 C1135 1.442 . S
C1134 H1156 0.930 . S
C1135 C1134 1.442 . S
C1135 C1136 1.381 . S
C1135 H1157 0.931 . S
C1136 C1135 1.381 . S
C1136 C1137 1.321 . S
C1137 C1136 1.321 . S
C1137 C1138 1.403 . S
C1137 H1158 0.934 . S
C1138 C1133 1.413 . S
C1138 C1137 1.403 . S
C1138 H1159 0.930 . S
C1139 O1150 1.275 . S
C1139 O1151 1.256 . S
O1140 Ho1120 2.322 . S
O1140 C1122 1.259 . S
O1141 Ho1121 2.346 . S
O1141 C1122 1.268 . S
O1142 Ho1120 2.378 1_545 S
O1142 C1123 1.215 1_545 S
O1143 Ho1120 2.524 . S
O1143 C1123 1.289 . S
O1144 Ho1120 2.381 . S
O1144 C1130 1.275 . S
O1145 Ho1120 2.669 . S
O1145 Ho1121 2.305 . S
O1145 C1130 1.256 . S
O1146 Ho1121 2.322 . S
O1146 C1131 1.259 . S
O1147 Ho1120 2.346 . S
O1147 C1131 1.268 . S
O1148 Ho1121 2.378 . S
O1148 C1132 1.215 . S
O1149 Ho1121 2.524 . S
O1149 C1132 1.289 . S
O1150 Ho1121 2.381 . S
O1150 C1139 1.275 . S
O1151 Ho1120 2.305 . S
O1151 Ho1121 2.669 . S
O1151 C1139 1.256 . S
H1152 C1125 0.930 . S
H1153 C1126 0.931 . S
H1154 C1128 0.934 . S
H1155 C1129 0.930 . S
H1156 C1134 0.930 . S
H1157 C1135 0.931 . S
H1158 C1137 0.934 . S
H1159 C1138 0.930 . S
Ho1160 C1163 2.811 . S
Ho1160 O1180 2.322 . S
Ho1160 O1182 2.378 . S
Ho1160 O1183 2.524 . S
Ho1160 O1184 2.381 . S
Ho1160 O1185 2.669 1_554 S
Ho1160 O1187 2.346 1_554 S
Ho1160 O1191 2.305 . S
Ho1161 C1172 2.811 . S
Ho1161 O1181 2.346 1_556 S
Ho1161 O1185 2.305 . S
Ho1161 O1186 2.322 . S
Ho1161 O1188 2.378 . S
Ho1161 O1189 2.524 . S
Ho1161 O1190 2.381 . S
Ho1161 O1191 2.669 1_556 S
C1162 O1180 1.259 . S
C1162 O1181 1.268 . S
C1163 Ho1160 2.811 . S
C1163 C1164 1.488 . S
C1163 O1182 1.215 . S
C1163 O1183 1.289 . S
C1164 C1163 1.488 . S
C1164 C1165 1.348 . S
C1164 C1169 1.413 . S
C1165 C1164 1.348 . S
C1165 C1166 1.442 . S
C1165 H1192 0.930 . S
C1166 C1165 1.442 . S
C1166 C1167 1.381 . S
C1166 H1193 0.931 . S
C1167 C1166 1.381 . S
C1167 C1168 1.321 . S
C1168 C1167 1.321 . S
C1168 C1169 1.403 . S
C1168 H1194 0.934 . S
C1169 C1164 1.413 . S
C1169 C1168 1.403 . S
C1169 H1195 0.930 . S
C1170 O1184 1.275 1_556 S
C1170 O1185 1.256 . S
C1171 O1186 1.259 . S
C1171 O1187 1.268 . S
C1172 Ho1161 2.811 . S
C1172 C1173 1.488 . S
C1172 O1188 1.215 . S
C1172 O1189 1.289 . S
C1173 C1172 1.488 . S
C1173 C1174 1.348 . S
C1173 C1178 1.413 . S
C1174 C1173 1.348 . S
C1174 C1175 1.442 . S
C1174 H1196 0.930 . S
C1175 C1174 1.442 . S
C1175 C1176 1.381 . S
C1175 H1197 0.931 . S
C1176 C1175 1.381 . S
C1176 C1177 1.321 . S
C1177 C1176 1.321 . S
C1177 C1178 1.403 . S
C1177 H1198 0.934 . S
C1178 C1173 1.413 . S
C1178 C1177 1.403 . S
C1178 H1199 0.930 . S
C1179 O1190 1.275 1_554 S
C1179 O1191 1.256 . S
O1180 Ho1160 2.322 . S
O1180 C1162 1.259 . S
O1181 Ho1161 2.346 1_554 S
O1181 C1162 1.268 . S
O1182 Ho1160 2.378 . S
O1182 C1163 1.215 . S
O1183 Ho1160 2.524 . S
O1183 C1163 1.289 . S
O1184 Ho1160 2.381 . S
O1184 C1170 1.275 1_554 S
O1185 Ho1160 2.669 1_556 S
O1185 Ho1161 2.305 . S
O1185 C1170 1.256 . S
O1186 Ho1161 2.322 . S
O1186 C1171 1.259 . S
O1187 Ho1160 2.346 1_556 S
O1187 C1171 1.268 . S
O1188 Ho1161 2.378 . S
O1188 C1172 1.215 . S
O1189 Ho1161 2.524 . S
O1189 C1172 1.289 . S
O1190 Ho1161 2.381 . S
O1190 C1179 1.275 1_556 S
O1191 Ho1160 2.305 . S
O1191 Ho1161 2.669 1_554 S
O1191 C1179 1.256 . S
H1192 C1165 0.930 . S
H1193 C1166 0.931 . S
H1194 C1168 0.934 . S
H1195 C1169 0.930 . S
H1196 C1174 0.930 . S
H1197 C1175 0.931 . S
H1198 C1177 0.934 . S
H1199 C1178 0.930 . S
Ho1200 C1203 2.811 . S
Ho1200 O1220 2.322 . S
Ho1200 O1222 2.378 1_545 S
Ho1200 O1223 2.524 . S
Ho1200 O1224 2.381 1_545 S
Ho1200 O1225 2.669 . S
Ho1200 O1227 2.346 . S
Ho1200 O1231 2.305 . S
Ho1201 C1212 2.811 . S
Ho1201 O1221 2.346 . S
Ho1201 O1225 2.305 . S
Ho1201 O1226 2.322 . S
Ho1201 O1228 2.378 . S
Ho1201 O1229 2.524 . S
Ho1201 O1230 2.381 . S
Ho1201 O1231 2.669 . S
C1202 O1220 1.259 . S
C1202 O1221 1.268 . S
C1203 Ho1200 2.811 . S
C1203 C1204 1.488 1_545 S
C1203 O1222 1.215 1_545 S
C1203 O1223 1.289 . S
C1204 C1203 1.488 1_565 S
C1204 C1205 1.348 1_565 S
C1204 C1209 1.413 . S
C1205 C1204 1.348 1_545 S
C1205 C1206 1.442 . S
C1205 H1232 0.930 . S
C1206 C1205 1.442 . S
C1206 C1207 1.381 1_545 S
C1206 H1233 0.931 . S
C1207 C1206 1.381 1_565 S
C1207 C1208 1.321 . S
C1208 C1207 1.321 . S
C1208 C1209 1.403 . S
C1208 H1234 0.934 . S
C1209 C1204 1.413 . S
C1209 C1208 1.403 . S
C1209 H1235 0.930 . S
C1210 O1224 1.275 1_545 S
C1210 O1225 1.256 . S
C1211 O1226 1.259 . S
C1211 O1227 1.268 . S
C1212 Ho1201 2.811 . S
C1212 C1213 1.488 . S
C1212 O1228 1.215 . S
C1212 O1229 1.289 . S
C1213 C1212 1.488 . S
C1213 C1214 1.348 . S
C1213 C1218 1.413 . S
C1214 C1213 1.348 . S
C1214 C1215 1.442 . S
C1214 H1236 0.930 . S
C1215 C1214 1.442 . S
C1215 C1216 1.381 . S
C1215 H1237 0.931 . S
C1216 C1215 1.381 . S
C1216 C1217 1.321 . S
C1217 C1216 1.321 . S
C1217 C1218 1.403 . S
C1217 H1238 0.934 . S
C1218 C1213 1.413 . S
C1218 C1217 1.403 . S
C1218 H1239 0.930 . S
C1219 O1230 1.275 . S
C1219 O1231 1.256 . S
O1220 Ho1200 2.322 . S
O1220 C1202 1.259 . S
O1221 Ho1201 2.346 . S
O1221 C1202 1.268 . S
O1222 Ho1200 2.378 1_565 S
O1222 C1203 1.215 1_565 S
O1223 Ho1200 2.524 . S
O1223 C1203 1.289 . S
O1224 Ho1200 2.381 1_565 S
O1224 C1210 1.275 1_565 S
O1225 Ho1200 2.669 . S
O1225 Ho1201 2.305 . S
O1225 C1210 1.256 . S
O1226 Ho1201 2.322 . S
O1226 C1211 1.259 . S
O1227 Ho1200 2.346 . S
O1227 C1211 1.268 . S
O1228 Ho1201 2.378 . S
O1228 C1212 1.215 . S
O1229 Ho1201 2.524 . S
O1229 C1212 1.289 . S
O1230 Ho1201 2.381 . S
O1230 C1219 1.275 . S
O1231 Ho1200 2.305 . S
O1231 Ho1201 2.669 . S
O1231 C1219 1.256 . S
H1232 C1205 0.930 . S
H1233 C1206 0.931 . S
H1234 C1208 0.934 . S
H1235 C1209 0.930 . S
H1236 C1214 0.930 . S
H1237 C1215 0.931 . S
H1238 C1217 0.934 . S
H1239 C1218 0.930 . S
Ho1240 C1243 2.811 . S
Ho1240 O1260 2.322 . S
Ho1240 O1262 2.378 . S
Ho1240 O1263 2.524 . S
Ho1240 O1264 2.381 . S
Ho1240 O1265 2.669 . S
Ho1240 O1267 2.346 . S
Ho1240 O1271 2.305 . S
Ho1241 C1252 2.811 . S
Ho1241 O1261 2.346 . S
Ho1241 O1265 2.305 . S
Ho1241 O1266 2.322 . S
Ho1241 O1268 2.378 . S
Ho1241 O1269 2.524 . S
Ho1241 O1270 2.381 . S
Ho1241 O1271 2.669 . S
C1242 O1260 1.259 . S
C1242 O1261 1.268 . S
C1243 Ho1240 2.811 . S
C1243 C1244 1.488 . S
C1243 O1262 1.215 . S
C1243 O1263 1.289 . S
C1244 C1243 1.488 . S
C1244 C1245 1.348 . S
C1244 C1249 1.413 . S
C1245 C1244 1.348 . S
C1245 C1246 1.442 . S
C1245 H1272 0.930 . S
C1246 C1245 1.442 . S
C1246 C1247 1.381 . S
C1246 H1273 0.931 . S
C1247 C1246 1.381 . S
C1247 C1248 1.321 . S
C1248 C1247 1.321 . S
C1248 C1249 1.403 . S
C1248 H1274 0.934 . S
C1249 C1244 1.413 . S
C1249 C1248 1.403 . S
C1249 H1275 0.930 . S
C1250 O1264 1.275 . S
C1250 O1265 1.256 . S
C1251 O1266 1.259 . S
C1251 O1267 1.268 . S
C1252 Ho1241 2.811 . S
C1252 C1253 1.488 . S
C1252 O1268 1.215 . S
C1252 O1269 1.289 . S
C1253 C1252 1.488 . S
C1253 C1254 1.348 . S
C1253 C1258 1.413 . S
C1254 C1253 1.348 . S
C1254 C1255 1.442 . S
C1254 H1276 0.930 . S
C1255 C1254 1.442 . S
C1255 C1256 1.381 . S
C1255 H1277 0.931 . S
C1256 C1255 1.381 . S
C1256 C1257 1.321 . S
C1257 C1256 1.321 . S
C1257 C1258 1.403 . S
C1257 H1278 0.934 . S
C1258 C1253 1.413 . S
C1258 C1257 1.403 . S
C1258 H1279 0.930 . S
C1259 O1270 1.275 . S
C1259 O1271 1.256 . S
O1260 Ho1240 2.322 . S
O1260 C1242 1.259 . S
O1261 Ho1241 2.346 . S
O1261 C1242 1.268 . S
O1262 Ho1240 2.378 . S
O1262 C1243 1.215 . S
O1263 Ho1240 2.524 . S
O1263 C1243 1.289 . S
O1264 Ho1240 2.381 . S
O1264 C1250 1.275 . S
O1265 Ho1240 2.669 . S
O1265 Ho1241 2.305 . S
O1265 C1250 1.256 . S
O1266 Ho1241 2.322 . S
O1266 C1251 1.259 . S
O1267 Ho1240 2.346 . S
O1267 C1251 1.268 . S
O1268 Ho1241 2.378 . S
O1268 C1252 1.215 . S
O1269 Ho1241 2.524 . S
O1269 C1252 1.289 . S
O1270 Ho1241 2.381 . S
O1270 C1259 1.275 . S
O1271 Ho1240 2.305 . S
O1271 Ho1241 2.669 . S
O1271 C1259 1.256 . S
H1272 C1245 0.930 . S
H1273 C1246 0.931 . S
H1274 C1248 0.934 . S
H1275 C1249 0.930 . S
H1276 C1254 0.930 . S
H1277 C1255 0.931 . S
H1278 C1257 0.934 . S
H1279 C1258 0.930 . S
H1280 C1286 0.930 . S
H1281 C1290 0.930 . S
H1282 C1295 0.929 . S
H1283 C1293 0.929 . S
H1284 C1288 0.929 . S
H1285 C1294 0.929 . S
C1286 H1280 0.930 . S
C1286 C1287 1.367 . S
C1286 C1294 1.378 . S
C1287 C1286 1.367 . S
C1287 C1295 1.433 . S
C1288 H1284 0.929 . S
C1288 C1290 1.378 . S
C1288 C1292 1.350 . S
C1289 C1292 1.463 . S
C1289 C1294 1.350 . S
C1289 N1297 1.427 . S
C1290 H1281 0.930 . S
C1290 C1288 1.378 . S
C1290 C1291 1.367 . S
C1291 C1290 1.367 . S
C1291 C1293 1.433 . S
C1292 C1288 1.350 . S
C1292 C1289 1.463 . S
C1292 N1296 1.427 . S
C1293 H1283 0.929 . S
C1293 C1291 1.433 . S
C1293 N1296 1.384 . S
C1294 H1285 0.929 . S
C1294 C1286 1.378 . S
C1294 C1289 1.350 . S
C1295 H1282 0.929 . S
C1295 C1287 1.433 . S
C1295 N1297 1.384 . S
N1296 C1292 1.427 . S
N1296 C1293 1.384 . S
N1297 C1289 1.427 . S
N1297 C1295 1.384 . S
H1298 C1304 0.930 . S
H1299 C1308 0.930 . S
H1300 C1313 0.929 . S
H1301 C1311 0.929 . S
H1302 C1306 0.929 . S
H1303 C1312 0.929 . S
C1304 H1298 0.930 . S
C1304 C1305 1.367 . S
C1304 C1312 1.378 . S
C1305 C1304 1.367 . S
C1305 C1313 1.433 . S
C1306 H1302 0.929 . S
C1306 C1308 1.378 . S
C1306 C1310 1.350 . S
C1307 C1310 1.463 . S
C1307 C1312 1.350 . S
C1307 N1315 1.427 . S
C1308 H1299 0.930 . S
C1308 C1306 1.378 . S
C1308 C1309 1.367 . S
C1309 C1308 1.367 . S
C1309 C1311 1.433 . S
C1310 C1306 1.350 . S
C1310 C1307 1.463 . S
C1310 N1314 1.427 . S
C1311 H1301 0.929 . S
C1311 C1309 1.433 . S
C1311 N1314 1.384 . S
C1312 H1303 0.929 . S
C1312 C1304 1.378 . S
C1312 C1307 1.350 . S
C1313 H1300 0.929 . S
C1313 C1305 1.433 . S
C1313 N1315 1.384 . S
N1314 C1310 1.427 . S
N1314 C1311 1.384 . S
N1315 C1307 1.427 . S
N1315 C1313 1.384 . S
H1316 C1322 0.930 . S
H1317 C1326 0.930 . S
H1318 C1331 0.929 . S
H1319 C1329 0.929 . S
H1320 C1324 0.929 . S
H1321 C1330 0.929 . S
C1322 H1316 0.930 . S
C1322 C1323 1.367 . S
C1322 C1330 1.378 . S
C1323 C1322 1.367 . S
C1323 C1331 1.433 . S
C1324 H1320 0.929 . S
C1324 C1326 1.378 . S
C1324 C1328 1.350 . S
C1325 C1328 1.463 . S
C1325 C1330 1.350 . S
C1325 N1333 1.427 . S
C1326 H1317 0.930 . S
C1326 C1324 1.378 . S
C1326 C1327 1.367 . S
C1327 C1326 1.367 . S
C1327 C1329 1.433 . S
C1328 C1324 1.350 . S
C1328 C1325 1.463 . S
C1328 N1332 1.427 . S
C1329 H1319 0.929 . S
C1329 C1327 1.433 . S
C1329 N1332 1.384 . S
C1330 H1321 0.929 . S
C1330 C1322 1.378 . S
C1330 C1325 1.350 . S
C1331 H1318 0.929 . S
C1331 C1323 1.433 . S
C1331 N1333 1.384 . S
N1332 C1328 1.427 . S
N1332 C1329 1.384 . S
N1333 C1325 1.427 . S
N1333 C1331 1.384 . S
H1334 C1340 0.930 . S
H1335 C1344 0.930 . S
H1336 C1349 0.929 . S
H1337 C1347 0.929 . S
H1338 C1342 0.929 . S
H1339 C1348 0.929 . S
C1340 H1334 0.930 . S
C1340 C1341 1.367 . S
C1340 C1348 1.378 . S
C1341 C1340 1.367 . S
C1341 C1349 1.433 . S
C1342 H1338 0.929 . S
C1342 C1344 1.378 . S
C1342 C1346 1.350 . S
C1343 C1346 1.463 . S
C1343 C1348 1.350 . S
C1343 N1351 1.427 . S
C1344 H1335 0.930 . S
C1344 C1342 1.378 . S
C1344 C1345 1.367 . S
C1345 C1344 1.367 . S
C1345 C1347 1.433 . S
C1346 C1342 1.350 . S
C1346 C1343 1.463 . S
C1346 N1350 1.427 . S
C1347 H1337 0.929 . S
C1347 C1345 1.433 . S
C1347 N1350 1.384 . S
C1348 H1339 0.929 . S
C1348 C1340 1.378 . S
C1348 C1343 1.350 . S
C1349 H1336 0.929 . S
C1349 C1341 1.433 . S
C1349 N1351 1.384 . S
N1350 C1346 1.427 . S
N1350 C1347 1.384 . S
N1351 C1343 1.427 . S
N1351 C1349 1.384 . S
H1352 C1358 0.930 . S
H1353 C1362 0.930 . S
H1354 C1367 0.929 . S
H1355 C1365 0.929 1_556 S
H1356 C1360 0.929 . S
H1357 C1366 0.929 . S
C1358 H1352 0.930 . S
C1358 C1359 1.367 . S
C1358 C1366 1.378 . S
C1359 C1358 1.367 . S
C1359 C1367 1.433 . S
C1360 H1356 0.929 . S
C1360 C1362 1.378 1_554 S
C1360 C1364 1.350 . S
C1361 C1364 1.463 . S
C1361 C1366 1.350 . S
C1361 N1369 1.427 . S
C1362 H1353 0.930 . S
C1362 C1360 1.378 1_556 S
C1362 C1363 1.367 . S
C1363 C1362 1.367 . S
C1363 C1365 1.433 1_556 S
C1364 C1360 1.350 . S
C1364 C1361 1.463 . S
C1364 N1368 1.427 . S
C1365 H1355 0.929 1_554 S
C1365 C1363 1.433 1_554 S
C1365 N1368 1.384 . S
C1366 H1357 0.929 . S
C1366 C1358 1.378 . S
C1366 C1361 1.350 . S
C1367 H1354 0.929 . S
C1367 C1359 1.433 . S
C1367 N1369 1.384 . S
N1368 C1364 1.427 . S
N1368 C1365 1.384 . S
N1369 C1361 1.427 . S
N1369 C1367 1.384 . S
H1370 C1376 0.930 . S
H1371 C1380 0.930 . S
H1372 C1385 0.929 . S
H1373 C1383 0.929 . S
H1374 C1378 0.929 . S
H1375 C1384 0.929 . S
C1376 H1370 0.930 . S
C1376 C1377 1.367 . S
C1376 C1384 1.378 . S
C1377 C1376 1.367 . S
C1377 C1385 1.433 . S
C1378 H1374 0.929 . S
C1378 C1380 1.378 . S
C1378 C1382 1.350 . S
C1379 C1382 1.463 . S
C1379 C1384 1.350 . S
C1379 N1387 1.427 . S
C1380 H1371 0.930 . S
C1380 C1378 1.378 . S
C1380 C1381 1.367 . S
C1381 C1380 1.367 . S
C1381 C1383 1.433 . S
C1382 C1378 1.350 . S
C1382 C1379 1.463 . S
C1382 N1386 1.427 . S
C1383 H1373 0.929 . S
C1383 C1381 1.433 . S
C1383 N1386 1.384 . S
C1384 H1375 0.929 . S
C1384 C1376 1.378 . S
C1384 C1379 1.350 . S
C1385 H1372 0.929 . S
C1385 C1377 1.433 . S
C1385 N1387 1.384 . S
N1386 C1382 1.427 . S
N1386 C1383 1.384 . S
N1387 C1379 1.427 . S
N1387 C1385 1.384 . S
H1388 C1394 0.930 . S
H1389 C1398 0.930 . S
H1390 C1403 0.929 . S
H1391 C1401 0.929 . S
H1392 C1396 0.929 . S
H1393 C1402 0.929 . S
C1394 H1388 0.930 . S
C1394 C1395 1.367 . S
C1394 C1402 1.378 . S
C1395 C1394 1.367 . S
C1395 C1403 1.433 . S
C1396 H1392 0.929 . S
C1396 C1398 1.378 . S
C1396 C1400 1.350 . S
C1397 C1400 1.463 . S
C1397 C1402 1.350 . S
C1397 N1405 1.427 . S
C1398 H1389 0.930 . S
C1398 C1396 1.378 . S
C1398 C1399 1.367 . S
C1399 C1398 1.367 . S
C1399 C1401 1.433 . S
C1400 C1396 1.350 . S
C1400 C1397 1.463 . S
C1400 N1404 1.427 . S
C1401 H1391 0.929 . S
C1401 C1399 1.433 . S
C1401 N1404 1.384 . S
C1402 H1393 0.929 . S
C1402 C1394 1.378 . S
C1402 C1397 1.350 . S
C1403 H1390 0.929 . S
C1403 C1395 1.433 . S
C1403 N1405 1.384 . S
N1404 C1400 1.427 . S
N1404 C1401 1.384 . S
N1405 C1397 1.427 . S
N1405 C1403 1.384 . S
H1406 C1412 0.930 . S
H1407 C1416 0.930 . S
H1408 C1421 0.929 . S
H1409 C1419 0.929 . S
H1410 C1414 0.929 . S
H1411 C1420 0.929 . S
C1412 H1406 0.930 . S
C1412 C1413 1.367 . S
C1412 C1420 1.378 . S
C1413 C1412 1.367 . S
C1413 C1421 1.433 . S
C1414 H1410 0.929 . S
C1414 C1416 1.378 . S
C1414 C1418 1.350 . S
C1415 C1418 1.463 . S
C1415 C1420 1.350 . S
C1415 N1423 1.427 . S
C1416 H1407 0.930 . S
C1416 C1414 1.378 . S
C1416 C1417 1.367 . S
C1417 C1416 1.367 . S
C1417 C1419 1.433 . S
C1418 C1414 1.350 . S
C1418 C1415 1.463 . S
C1418 N1422 1.427 . S
C1419 H1409 0.929 . S
C1419 C1417 1.433 . S
C1419 N1422 1.384 . S
C1420 H1411 0.929 . S
C1420 C1412 1.378 . S
C1420 C1415 1.350 . S
C1421 H1408 0.929 . S
C1421 C1413 1.433 . S
C1421 N1423 1.384 . S
N1422 C1418 1.427 . S
N1422 C1419 1.384 . S
N1423 C1415 1.427 . S
N1423 C1421 1.384 . S
H1424 C1430 0.930 1_545 S
H1425 C1434 0.930 . S
H1426 C1439 0.929 . S
H1427 C1437 0.929 . S
H1428 C1432 0.929 . S
H1429 C1438 0.929 . S
C1430 H1424 0.930 1_565 S
C1430 C1431 1.367 . S
C1430 C1438 1.378 . S
C1431 C1430 1.367 . S
C1431 C1439 1.433 . S
C1432 H1428 0.929 . S
C1432 C1434 1.378 . S
C1432 C1436 1.350 . S
C1433 C1436 1.463 . S
C1433 C1438 1.350 . S
C1433 N1441 1.427 . S
C1434 H1425 0.930 . S
C1434 C1432 1.378 . S
C1434 C1435 1.367 . S
C1435 C1434 1.367 . S
C1435 C1437 1.433 . S
C1436 C1432 1.350 . S
C1436 C1433 1.463 . S
C1436 N1440 1.427 . S
C1437 H1427 0.929 . S
C1437 C1435 1.433 . S
C1437 N1440 1.384 . S
C1438 H1429 0.929 . S
C1438 C1430 1.378 . S
C1438 C1433 1.350 . S
C1439 H1426 0.929 . S
C1439 C1431 1.433 . S
C1439 N1441 1.384 . S
N1440 C1436 1.427 . S
N1440 C1437 1.384 . S
N1441 C1433 1.427 . S
N1441 C1439 1.384 . S
H1442 C1448 0.930 . S
H1443 C1452 0.930 . S
H1444 C1457 0.929 . S
H1445 C1455 0.929 . S
H1446 C1450 0.929 . S
H1447 C1456 0.929 . S
C1448 H1442 0.930 . S
C1448 C1449 1.367 . S
C1448 C1456 1.378 . S
C1449 C1448 1.367 . S
C1449 C1457 1.433 . S
C1450 H1446 0.929 . S
C1450 C1452 1.378 . S
C1450 C1454 1.350 . S
C1451 C1454 1.463 . S
C1451 C1456 1.350 1_554 S
C1451 N1459 1.427 . S
C1452 H1443 0.930 . S
C1452 C1450 1.378 . S
C1452 C1453 1.367 . S
C1453 C1452 1.367 . S
C1453 C1455 1.433 . S
C1454 C1450 1.350 . S
C1454 C1451 1.463 . S
C1454 N1458 1.427 . S
C1455 H1445 0.929 . S
C1455 C1453 1.433 . S
C1455 N1458 1.384 . S
C1456 H1447 0.929 . S
C1456 C1448 1.378 . S
C1456 C1451 1.350 1_556 S
C1457 H1444 0.929 . S
C1457 C1449 1.433 . S
C1457 N1459 1.384 1_556 S
N1458 C1454 1.427 . S
N1458 C1455 1.384 . S
N1459 C1451 1.427 . S
N1459 C1457 1.384 1_554 S
H1460 C1466 0.930 . S
H1461 C1470 0.930 . S
H1462 C1475 0.929 . S
H1463 C1473 0.929 . S
H1464 C1468 0.929 . S
H1465 C1474 0.929 . S
C1466 H1460 0.930 . S
C1466 C1467 1.367 . S
C1466 C1474 1.378 . S
C1467 C1466 1.367 . S
C1467 C1475 1.433 . S
C1468 H1464 0.929 . S
C1468 C1470 1.378 . S
C1468 C1472 1.350 . S
C1469 C1472 1.463 . S
C1469 C1474 1.350 . S
C1469 N1477 1.427 . S
C1470 H1461 0.930 . S
C1470 C1468 1.378 . S
C1470 C1471 1.367 . S
C1471 C1470 1.367 . S
C1471 C1473 1.433 . S
C1472 C1468 1.350 . S
C1472 C1469 1.463 . S
C1472 N1476 1.427 . S
C1473 H1463 0.929 . S
C1473 C1471 1.433 . S
C1473 N1476 1.384 . S
C1474 H1465 0.929 . S
C1474 C1466 1.378 . S
C1474 C1469 1.350 . S
C1475 H1462 0.929 . S
C1475 C1467 1.433 . S
C1475 N1477 1.384 . S
N1476 C1472 1.427 . S
N1476 C1473 1.384 . S
N1477 C1469 1.427 . S
N1477 C1475 1.384 . S
H1478 C1484 0.930 . S
H1479 C1488 0.930 . S
H1480 C1493 0.929 . S
H1481 C1491 0.929 . S
H1482 C1486 0.929 . S
H1483 C1492 0.929 . S
C1484 H1478 0.930 . S
C1484 C1485 1.367 . S
C1484 C1492 1.378 . S
C1485 C1484 1.367 . S
C1485 C1493 1.433 . S
C1486 H1482 0.929 . S
C1486 C1488 1.378 . S
C1486 C1490 1.350 . S
C1487 C1490 1.463 . S
C1487 C1492 1.350 . S
C1487 N1495 1.427 . S
C1488 H1479 0.930 . S
C1488 C1486 1.378 . S
C1488 C1489 1.367 . S
C1489 C1488 1.367 . S
C1489 C1491 1.433 . S
C1490 C1486 1.350 . S
C1490 C1487 1.463 . S
C1490 N1494 1.427 . S
C1491 H1481 0.929 . S
C1491 C1489 1.433 . S
C1491 N1494 1.384 . S
C1492 H1483 0.929 . S
C1492 C1484 1.378 . S
C1492 C1487 1.350 . S
C1493 H1480 0.929 . S
C1493 C1485 1.433 . S
C1493 N1495 1.384 . S
N1494 C1490 1.427 . S
N1494 C1491 1.384 . S
N1495 C1487 1.427 . S
N1495 C1493 1.384 . S
H1496 C1502 0.930 . S
H1497 C1506 0.930 . S
H1498 C1511 0.929 . S
H1499 C1509 0.929 . S
H1500 C1504 0.929 . S
H1501 C1510 0.929 . S
C1502 H1496 0.930 . S
C1502 C1503 1.367 . S
C1502 C1510 1.378 . S
C1503 C1502 1.367 . S
C1503 C1511 1.433 . S
C1504 H1500 0.929 . S
C1504 C1506 1.378 . S
C1504 C1508 1.350 . S
C1505 C1508 1.463 . S
C1505 C1510 1.350 . S
C1505 N1513 1.427 . S
C1506 H1497 0.930 . S
C1506 C1504 1.378 . S
C1506 C1507 1.367 . S
C1507 C1506 1.367 . S
C1507 C1509 1.433 . S
C1508 C1504 1.350 . S
C1508 C1505 1.463 . S
C1508 N1512 1.427 . S
C1509 H1499 0.929 . S
C1509 C1507 1.433 . S
C1509 N1512 1.384 . S
C1510 H1501 0.929 . S
C1510 C1502 1.378 . S
C1510 C1505 1.350 . S
C1511 H1498 0.929 . S
C1511 C1503 1.433 . S
C1511 N1513 1.384 . S
N1512 C1508 1.427 . S
N1512 C1509 1.384 . S
N1513 C1505 1.427 . S
N1513 C1511 1.384 . S
H1514 C1520 0.930 . S
H1515 C1524 0.930 . S
H1516 C1529 0.929 . S
H1517 C1527 0.929 . S
H1518 C1522 0.929 . S
H1519 C1528 0.929 . S
C1520 H1514 0.930 . S
C1520 C1521 1.367 . S
C1520 C1528 1.378 . S
C1521 C1520 1.367 . S
C1521 C1529 1.433 . S
C1522 H1518 0.929 . S
C1522 C1524 1.378 . S
C1522 C1526 1.350 . S
C1523 C1526 1.463 . S
C1523 C1528 1.350 . S
C1523 N1531 1.427 . S
C1524 H1515 0.930 . S
C1524 C1522 1.378 . S
C1524 C1525 1.367 . S
C1525 C1524 1.367 . S
C1525 C1527 1.433 . S
C1526 C1522 1.350 . S
C1526 C1523 1.463 . S
C1526 N1530 1.427 . S
C1527 H1517 0.929 . S
C1527 C1525 1.433 . S
C1527 N1530 1.384 . S
C1528 H1519 0.929 . S
C1528 C1520 1.378 . S
C1528 C1523 1.350 . S
C1529 H1516 0.929 . S
C1529 C1521 1.433 . S
C1529 N1531 1.384 . S
N1530 C1526 1.427 . S
N1530 C1527 1.384 . S
N1531 C1523 1.427 . S
N1531 C1529 1.384 . S
H1532 C1538 0.930 . S
H1533 C1542 0.930 . S
H1534 C1547 0.929 . S
H1535 C1545 0.929 . S
H1536 C1540 0.929 . S
H1537 C1546 0.929 . S
C1538 H1532 0.930 . S
C1538 C1539 1.367 . S
C1538 C1546 1.378 . S
C1539 C1538 1.367 . S
C1539 C1547 1.433 . S
C1540 H1536 0.929 . S
C1540 C1542 1.378 1_554 S
C1540 C1544 1.350 . S
C1541 C1544 1.463 . S
C1541 C1546 1.350 . S
C1541 N1549 1.427 . S
C1542 H1533 0.930 . S
C1542 C1540 1.378 1_556 S
C1542 C1543 1.367 . S
C1543 C1542 1.367 . S
C1543 C1545 1.433 . S
C1544 C1540 1.350 . S
C1544 C1541 1.463 . S
C1544 N1548 1.427 1_554 S
C1545 H1535 0.929 . S
C1545 C1543 1.433 . S
C1545 N1548 1.384 . S
C1546 H1537 0.929 . S
C1546 C1538 1.378 . S
C1546 C1541 1.350 . S
C1547 H1534 0.929 . S
C1547 C1539 1.433 . S
C1547 N1549 1.384 . S
N1548 C1544 1.427 1_556 S
N1548 C1545 1.384 . S
N1549 C1541 1.427 . S
N1549 C1547 1.384 . S
H1550 C1556 0.930 . S
H1551 C1560 0.930 . S
H1552 C1565 0.929 . S
H1553 C1563 0.929 . S
H1554 C1558 0.929 . S
H1555 C1564 0.929 . S
C1556 H1550 0.930 . S
C1556 C1557 1.367 . S
C1556 C1564 1.378 . S
C1557 C1556 1.367 . S
C1557 C1565 1.433 . S
C1558 H1554 0.929 . S
C1558 C1560 1.378 . S
C1558 C1562 1.350 . S
C1559 C1562 1.463 . S
C1559 C1564 1.350 . S
C1559 N1567 1.427 . S
C1560 H1551 0.930 . S
C1560 C1558 1.378 . S
C1560 C1561 1.367 . S
C1561 C1560 1.367 . S
C1561 C1563 1.433 . S
C1562 C1558 1.350 . S
C1562 C1559 1.463 . S
C1562 N1566 1.427 . S
C1563 H1553 0.929 . S
C1563 C1561 1.433 . S
C1563 N1566 1.384 . S
C1564 H1555 0.929 . S
C1564 C1556 1.378 . S
C1564 C1559 1.350 . S
C1565 H1552 0.929 . S
C1565 C1557 1.433 . S
C1565 N1567 1.384 . S
N1566 C1562 1.427 . S
N1566 C1563 1.384 . S
N1567 C1559 1.427 . S
N1567 C1565 1.384 . S
H1568 C1574 0.930 . S
H1569 C1578 0.930 . S
H1570 C1583 0.929 . S
H1571 C1581 0.929 . S
H1572 C1576 0.929 . S
H1573 C1582 0.929 . S
C1574 H1568 0.930 . S
C1574 C1575 1.367 . S
C1574 C1582 1.378 . S
C1575 C1574 1.367 . S
C1575 C1583 1.433 . S
C1576 H1572 0.929 . S
C1576 C1578 1.378 . S
C1576 C1580 1.350 . S
C1577 C1580 1.463 . S
C1577 C1582 1.350 . S
C1577 N1585 1.427 . S
C1578 H1569 0.930 . S
C1578 C1576 1.378 . S
C1578 C1579 1.367 . S
C1579 C1578 1.367 . S
C1579 C1581 1.433 . S
C1580 C1576 1.350 . S
C1580 C1577 1.463 . S
C1580 N1584 1.427 . S
C1581 H1571 0.929 . S
C1581 C1579 1.433 . S
C1581 N1584 1.384 . S
C1582 H1573 0.929 . S
C1582 C1574 1.378 . S
C1582 C1577 1.350 . S
C1583 H1570 0.929 . S
C1583 C1575 1.433 . S
C1583 N1585 1.384 . S
N1584 C1580 1.427 . S
N1584 C1581 1.384 . S
N1585 C1577 1.427 . S
N1585 C1583 1.384 . S
H1586 C1592 0.930 . S
H1587 C1596 0.930 . S
H1588 C1601 0.929 . S
H1589 C1599 0.929 . S
H1590 C1594 0.929 . S
H1591 C1600 0.929 . S
C1592 H1586 0.930 . S
C1592 C1593 1.367 . S
C1592 C1600 1.378 . S
C1593 C1592 1.367 . S
C1593 C1601 1.433 . S
C1594 H1590 0.929 . S
C1594 C1596 1.378 . S
C1594 C1598 1.350 . S
C1595 C1598 1.463 . S
C1595 C1600 1.350 . S
C1595 N1603 1.427 . S
C1596 H1587 0.930 . S
C1596 C1594 1.378 . S
C1596 C1597 1.367 . S
C1597 C1596 1.367 . S
C1597 C1599 1.433 . S
C1598 C1594 1.350 . S
C1598 C1595 1.463 . S
C1598 N1602 1.427 . S
C1599 H1589 0.929 . S
C1599 C1597 1.433 . S
C1599 N1602 1.384 . S
C1600 H1591 0.929 . S
C1600 C1592 1.378 . S
C1600 C1595 1.350 . S
C1601 H1588 0.929 . S
C1601 C1593 1.433 . S
C1601 N1603 1.384 . S
N1602 C1598 1.427 . S
N1602 C1599 1.384 . S
N1603 C1595 1.427 . S
N1603 C1601 1.384 . S
H1604 C1610 0.930 . S
H1605 C1614 0.930 . S
H1606 C1619 0.929 . S
H1607 C1617 0.929 . S
H1608 C1612 0.929 . S
H1609 C1618 0.929 . S
C1610 H1604 0.930 . S
C1610 C1611 1.367 . S
C1610 C1618 1.378 . S
C1611 C1610 1.367 . S
C1611 C1619 1.433 . S
C1612 H1608 0.929 . S
C1612 C1614 1.378 . S
C1612 C1616 1.350 . S
C1613 C1616 1.463 . S
C1613 C1618 1.350 . S
C1613 N1621 1.427 . S
C1614 H1605 0.930 . S
C1614 C1612 1.378 . S
C1614 C1615 1.367 . S
C1615 C1614 1.367 . S
C1615 C1617 1.433 . S
C1616 C1612 1.350 . S
C1616 C1613 1.463 . S
C1616 N1620 1.427 . S
C1617 H1607 0.929 . S
C1617 C1615 1.433 . S
C1617 N1620 1.384 . S
C1618 H1609 0.929 . S
C1618 C1610 1.378 . S
C1618 C1613 1.350 . S
C1619 H1606 0.929 . S
C1619 C1611 1.433 . S
C1619 N1621 1.384 . S
N1620 C1616 1.427 . S
N1620 C1617 1.384 . S
N1621 C1613 1.427 . S
N1621 C1619 1.384 . S
H1622 C1628 0.930 . S
H1623 C1632 0.930 . S
H1624 C1637 0.929 . S
H1625 C1635 0.929 . S
H1626 C1630 0.929 . S
H1627 C1636 0.929 . S
C1628 H1622 0.930 . S
C1628 C1629 1.367 . S
C1628 C1636 1.378 . S
C1629 C1628 1.367 . S
C1629 C1637 1.433 . S
C1630 H1626 0.929 . S
C1630 C1632 1.378 1_556 S
C1630 C1634 1.350 . S
C1631 C1634 1.463 . S
C1631 C1636 1.350 . S
C1631 N1639 1.427 . S
C1632 H1623 0.930 . S
C1632 C1630 1.378 1_554 S
C1632 C1633 1.367 . S
C1633 C1632 1.367 . S
C1633 C1635 1.433 . S
C1634 C1630 1.350 . S
C1634 C1631 1.463 . S
C1634 N1638 1.427 1_556 S
C1635 H1625 0.929 . S
C1635 C1633 1.433 . S
C1635 N1638 1.384 . S
C1636 H1627 0.929 . S
C1636 C1628 1.378 . S
C1636 C1631 1.350 . S
C1637 H1624 0.929 . S
C1637 C1629 1.433 . S
C1637 N1639 1.384 . S
N1638 C1634 1.427 1_554 S
N1638 C1635 1.384 . S
N1639 C1631 1.427 . S
N1639 C1637 1.384 . S
H1640 C1646 0.930 . S
H1641 C1650 0.930 . S
H1642 C1655 0.929 . S
H1643 C1653 0.929 . S
H1644 C1648 0.929 . S
H1645 C1654 0.929 . S
C1646 H1640 0.930 . S
C1646 C1647 1.367 . S
C1646 C1654 1.378 . S
C1647 C1646 1.367 . S
C1647 C1655 1.433 . S
C1648 H1644 0.929 . S
C1648 C1650 1.378 . S
C1648 C1652 1.350 . S
C1649 C1652 1.463 . S
C1649 C1654 1.350 . S
C1649 N1657 1.427 . S
C1650 H1641 0.930 . S
C1650 C1648 1.378 . S
C1650 C1651 1.367 . S
C1651 C1650 1.367 . S
C1651 C1653 1.433 . S
C1652 C1648 1.350 . S
C1652 C1649 1.463 . S
C1652 N1656 1.427 . S
C1653 H1643 0.929 . S
C1653 C1651 1.433 . S
C1653 N1656 1.384 . S
C1654 H1645 0.929 . S
C1654 C1646 1.378 . S
C1654 C1649 1.350 . S
C1655 H1642 0.929 . S
C1655 C1647 1.433 . S
C1655 N1657 1.384 . S
N1656 C1652 1.427 . S
N1656 C1653 1.384 . S
N1657 C1649 1.427 . S
N1657 C1655 1.384 . S
H1658 C1664 0.930 . S
H1659 C1668 0.930 . S
H1660 C1673 0.929 . S
H1661 C1671 0.929 . S
H1662 C1666 0.929 . S
H1663 C1672 0.929 . S
C1664 H1658 0.930 . S
C1664 C1665 1.367 . S
C1664 C1672 1.378 . S
C1665 C1664 1.367 . S
C1665 C1673 1.433 . S
C1666 H1662 0.929 . S
C1666 C1668 1.378 . S
C1666 C1670 1.350 . S
C1667 C1670 1.463 . S
C1667 C1672 1.350 . S
C1667 N1675 1.427 . S
C1668 H1659 0.930 . S
C1668 C1666 1.378 . S
C1668 C1669 1.367 . S
C1669 C1668 1.367 . S
C1669 C1671 1.433 . S
C1670 C1666 1.350 . S
C1670 C1667 1.463 . S
C1670 N1674 1.427 . S
C1671 H1661 0.929 . S
C1671 C1669 1.433 . S
C1671 N1674 1.384 . S
C1672 H1663 0.929 . S
C1672 C1664 1.378 . S
C1672 C1667 1.350 . S
C1673 H1660 0.929 . S
C1673 C1665 1.433 . S
C1673 N1675 1.384 . S
N1674 C1670 1.427 . S
N1674 C1671 1.384 . S
N1675 C1667 1.427 . S
N1675 C1673 1.384 . S
H1676 C1682 0.930 . S
H1677 C1686 0.930 . S
H1678 C1691 0.929 1_556 S
H1679 C1689 0.929 . S
H1680 C1684 0.929 . S
H1681 C1690 0.929 . S
C1682 H1676 0.930 . S
C1682 C1683 1.367 . S
C1682 C1690 1.378 . S
C1683 C1682 1.367 . S
C1683 C1691 1.433 . S
C1684 H1680 0.929 . S
C1684 C1686 1.378 . S
C1684 C1688 1.350 . S
C1685 C1688 1.463 . S
C1685 C1690 1.350 1_556 S
C1685 N1693 1.427 . S
C1686 H1677 0.930 . S
C1686 C1684 1.378 . S
C1686 C1687 1.367 . S
C1687 C1686 1.367 . S
C1687 C1689 1.433 . S
C1688 C1684 1.350 . S
C1688 C1685 1.463 . S
C1688 N1692 1.427 . S
C1689 H1679 0.929 . S
C1689 C1687 1.433 . S
C1689 N1692 1.384 . S
C1690 H1681 0.929 . S
C1690 C1682 1.378 . S
C1690 C1685 1.350 1_554 S
C1691 H1678 0.929 1_554 S
C1691 C1683 1.433 . S
C1691 N1693 1.384 1_554 S
N1692 C1688 1.427 . S
N1692 C1689 1.384 . S
N1693 C1685 1.427 . S
N1693 C1691 1.384 1_556 S
H1694 C1700 0.930 . S
H1695 C1704 0.930 . S
H1696 C1709 0.929 . S
H1697 C1707 0.929 . S
H1698 C1702 0.929 . S
H1699 C1708 0.929 . S
C1700 H1694 0.930 . S
C1700 C1701 1.367 . S
C1700 C1708 1.378 . S
C1701 C1700 1.367 . S
C1701 C1709 1.433 . S
C1702 H1698 0.929 . S
C1702 C1704 1.378 . S
C1702 C1706 1.350 . S
C1703 C1706 1.463 . S
C1703 C1708 1.350 . S
C1703 N1711 1.427 . S
C1704 H1695 0.930 . S
C1704 C1702 1.378 . S
C1704 C1705 1.367 . S
C1705 C1704 1.367 . S
C1705 C1707 1.433 . S
C1706 C1702 1.350 . S
C1706 C1703 1.463 . S
C1706 N1710 1.427 . S
C1707 H1697 0.929 . S
C1707 C1705 1.433 . S
C1707 N1710 1.384 . S
C1708 H1699 0.929 . S
C1708 C1700 1.378 . S
C1708 C1703 1.350 . S
C1709 H1696 0.929 . S
C1709 C1701 1.433 . S
C1709 N1711 1.384 . S
N1710 C1706 1.427 . S
N1710 C1707 1.384 . S
N1711 C1703 1.427 . S
N1711 C1709 1.384 . S
H1712 C1718 0.930 . S
H1713 C1722 0.930 . S
H1714 C1727 0.929 . S
H1715 C1725 0.929 . S
H1716 C1720 0.929 . S
H1717 C1726 0.929 . S
C1718 H1712 0.930 . S
C1718 C1719 1.367 . S
C1718 C1726 1.378 . S
C1719 C1718 1.367 . S
C1719 C1727 1.433 . S
C1720 H1716 0.929 . S
C1720 C1722 1.378 . S
C1720 C1724 1.350 . S
C1721 C1724 1.463 . S
C1721 C1726 1.350 . S
C1721 N1729 1.427 . S
C1722 H1713 0.930 . S
C1722 C1720 1.378 . S
C1722 C1723 1.367 . S
C1723 C1722 1.367 . S
C1723 C1725 1.433 . S
C1724 C1720 1.350 . S
C1724 C1721 1.463 . S
C1724 N1728 1.427 . S
C1725 H1715 0.929 . S
C1725 C1723 1.433 . S
C1725 N1728 1.384 . S
C1726 H1717 0.929 . S
C1726 C1718 1.378 . S
C1726 C1721 1.350 . S
C1727 H1714 0.929 . S
C1727 C1719 1.433 . S
C1727 N1729 1.384 . S
N1728 C1724 1.427 . S
N1728 C1725 1.384 . S
N1729 C1721 1.427 . S
N1729 C1727 1.384 . S
H1730 C1736 0.930 . S
H1731 C1740 0.930 . S
H1732 C1745 0.929 . S
H1733 C1743 0.929 . S
H1734 C1738 0.929 . S
H1735 C1744 0.929 . S
C1736 H1730 0.930 . S
C1736 C1737 1.367 . S
C1736 C1744 1.378 . S
C1737 C1736 1.367 . S
C1737 C1745 1.433 . S
C1738 H1734 0.929 . S
C1738 C1740 1.378 . S
C1738 C1742 1.350 . S
C1739 C1742 1.463 . S
C1739 C1744 1.350 . S
C1739 N1747 1.427 . S
C1740 H1731 0.930 . S
C1740 C1738 1.378 . S
C1740 C1741 1.367 . S
C1741 C1740 1.367 . S
C1741 C1743 1.433 . S
C1742 C1738 1.350 . S
C1742 C1739 1.463 . S
C1742 N1746 1.427 . S
C1743 H1733 0.929 . S
C1743 C1741 1.433 . S
C1743 N1746 1.384 . S
C1744 H1735 0.929 . S
C1744 C1736 1.378 . S
C1744 C1739 1.350 . S
C1745 H1732 0.929 . S
C1745 C1737 1.433 . S
C1745 N1747 1.384 . S
N1746 C1742 1.427 . S
N1746 C1743 1.384 . S
N1747 C1739 1.427 . S
N1747 C1745 1.384 . S
H1748 C1754 0.930 . S
H1749 C1758 0.930 . S
H1750 C1763 0.929 . S
H1751 C1761 0.929 . S
H1752 C1756 0.929 . S
H1753 C1762 0.929 . S
C1754 H1748 0.930 . S
C1754 C1755 1.367 . S
C1754 C1762 1.378 . S
C1755 C1754 1.367 . S
C1755 C1763 1.433 . S
C1756 H1752 0.929 . S
C1756 C1758 1.378 . S
C1756 C1760 1.350 . S
C1757 C1760 1.463 . S
C1757 C1762 1.350 . S
C1757 N1765 1.427 . S
C1758 H1749 0.930 . S
C1758 C1756 1.378 . S
C1758 C1759 1.367 . S
C1759 C1758 1.367 . S
C1759 C1761 1.433 . S
C1760 C1756 1.350 . S
C1760 C1757 1.463 . S
C1760 N1764 1.427 . S
C1761 H1751 0.929 . S
C1761 C1759 1.433 . S
C1761 N1764 1.384 . S
C1762 H1753 0.929 . S
C1762 C1754 1.378 . S
C1762 C1757 1.350 . S
C1763 H1750 0.929 . S
C1763 C1755 1.433 . S
C1763 N1765 1.384 . S
N1764 C1760 1.427 . S
N1764 C1761 1.384 . S
N1765 C1757 1.427 . S
N1765 C1763 1.384 . S
H1766 C1772 0.930 . S
H1767 C1776 0.930 . S
H1768 C1781 0.929 . S
H1769 C1779 0.929 . S
H1770 C1774 0.929 . S
H1771 C1780 0.929 . S
C1772 H1766 0.930 . S
C1772 C1773 1.367 . S
C1772 C1780 1.378 . S
C1773 C1772 1.367 . S
C1773 C1781 1.433 . S
C1774 H1770 0.929 . S
C1774 C1776 1.378 . S
C1774 C1778 1.350 . S
C1775 C1778 1.463 . S
C1775 C1780 1.350 . S
C1775 N1783 1.427 . S
C1776 H1767 0.930 . S
C1776 C1774 1.378 . S
C1776 C1777 1.367 . S
C1777 C1776 1.367 . S
C1777 C1779 1.433 . S
C1778 C1774 1.350 . S
C1778 C1775 1.463 . S
C1778 N1782 1.427 . S
C1779 H1769 0.929 . S
C1779 C1777 1.433 . S
C1779 N1782 1.384 . S
C1780 H1771 0.929 . S
C1780 C1772 1.378 . S
C1780 C1775 1.350 . S
C1781 H1768 0.929 . S
C1781 C1773 1.433 . S
C1781 N1783 1.384 . S
N1782 C1778 1.427 . S
N1782 C1779 1.384 . S
N1783 C1775 1.427 . S
N1783 C1781 1.384 . S
H1784 C1790 0.930 . S
H1785 C1794 0.930 . S
H1786 C1799 0.929 . S
H1787 C1797 0.929 . S
H1788 C1792 0.929 . S
H1789 C1798 0.929 . S
C1790 H1784 0.930 . S
C1790 C1791 1.367 . S
C1790 C1798 1.378 . S
C1791 C1790 1.367 . S
C1791 C1799 1.433 . S
C1792 H1788 0.929 . S
C1792 C1794 1.378 . S
C1792 C1796 1.350 . S
C1793 C1796 1.463 . S
C1793 C1798 1.350 . S
C1793 N1801 1.427 . S
C1794 H1785 0.930 . S
C1794 C1792 1.378 . S
C1794 C1795 1.367 . S
C1795 C1794 1.367 . S
C1795 C1797 1.433 . S
C1796 C1792 1.350 . S
C1796 C1793 1.463 . S
C1796 N1800 1.427 . S
C1797 H1787 0.929 . S
C1797 C1795 1.433 . S
C1797 N1800 1.384 . S
C1798 H1789 0.929 . S
C1798 C1790 1.378 . S
C1798 C1793 1.350 . S
C1799 H1786 0.929 . S
C1799 C1791 1.433 . S
C1799 N1801 1.384 . S
N1800 C1796 1.427 . S
N1800 C1797 1.384 . S
N1801 C1793 1.427 . S
N1801 C1799 1.384 . S
H1802 C1808 0.930 . S
H1803 C1812 0.930 . S
H1804 C1817 0.929 . S
H1805 C1815 0.929 . S
H1806 C1810 0.929 . S
H1807 C1816 0.929 . S
C1808 H1802 0.930 . S
C1808 C1809 1.367 . S
C1808 C1816 1.378 . S
C1809 C1808 1.367 . S
C1809 C1817 1.433 . S
C1810 H1806 0.929 . S
C1810 C1812 1.378 . S
C1810 C1814 1.350 . S
C1811 C1814 1.463 . S
C1811 C1816 1.350 . S
C1811 N1819 1.427 . S
C1812 H1803 0.930 . S
C1812 C1810 1.378 . S
C1812 C1813 1.367 . S
C1813 C1812 1.367 . S
C1813 C1815 1.433 . S
C1814 C1810 1.350 . S
C1814 C1811 1.463 . S
C1814 N1818 1.427 . S
C1815 H1805 0.929 . S
C1815 C1813 1.433 . S
C1815 N1818 1.384 . S
C1816 H1807 0.929 . S
C1816 C1808 1.378 . S
C1816 C1811 1.350 . S
C1817 H1804 0.929 . S
C1817 C1809 1.433 . S
C1817 N1819 1.384 . S
N1818 C1814 1.427 . S
N1818 C1815 1.384 . S
N1819 C1811 1.427 . S
N1819 C1817 1.384 . S
H1820 C1826 0.930 . S
H1821 C1830 0.930 . S
H1822 C1835 0.929 . S
H1823 C1833 0.929 . S
H1824 C1828 0.929 . S
H1825 C1834 0.929 . S
C1826 H1820 0.930 . S
C1826 C1827 1.367 . S
C1826 C1834 1.378 . S
C1827 C1826 1.367 . S
C1827 C1835 1.433 . S
C1828 H1824 0.929 . S
C1828 C1830 1.378 . S
C1828 C1832 1.350 . S
C1829 C1832 1.463 . S
C1829 C1834 1.350 . S
C1829 N1837 1.427 . S
C1830 H1821 0.930 . S
C1830 C1828 1.378 . S
C1830 C1831 1.367 . S
C1831 C1830 1.367 . S
C1831 C1833 1.433 . S
C1832 C1828 1.350 . S
C1832 C1829 1.463 . S
C1832 N1836 1.427 . S
C1833 H1823 0.929 . S
C1833 C1831 1.433 . S
C1833 N1836 1.384 . S
C1834 H1825 0.929 . S
C1834 C1826 1.378 . S
C1834 C1829 1.350 . S
C1835 H1822 0.929 . S
C1835 C1827 1.433 . S
C1835 N1837 1.384 . S
N1836 C1832 1.427 . S
N1836 C1833 1.384 . S
N1837 C1829 1.427 . S
N1837 C1835 1.384 . S
H1838 C1844 0.930 . S
H1839 C1848 0.930 . S
H1840 C1853 0.929 . S
H1841 C1851 0.929 . S
H1842 C1846 0.929 . S
H1843 C1852 0.929 . S
C1844 H1838 0.930 . S
C1844 C1845 1.367 . S
C1844 C1852 1.378 . S
C1845 C1844 1.367 . S
C1845 C1853 1.433 . S
C1846 H1842 0.929 . S
C1846 C1848 1.378 . S
C1846 C1850 1.350 . S
C1847 C1850 1.463 . S
C1847 C1852 1.350 1_554 S
C1847 N1855 1.427 . S
C1848 H1839 0.930 . S
C1848 C1846 1.378 . S
C1848 C1849 1.367 . S
C1849 C1848 1.367 . S
C1849 C1851 1.433 . S
C1850 C1846 1.350 . S
C1850 C1847 1.463 . S
C1850 N1854 1.427 . S
C1851 H1841 0.929 . S
C1851 C1849 1.433 . S
C1851 N1854 1.384 . S
C1852 H1843 0.929 . S
C1852 C1844 1.378 . S
C1852 C1847 1.350 1_556 S
C1853 H1840 0.929 . S
C1853 C1845 1.433 . S
C1853 N1855 1.384 1_556 S
N1854 C1850 1.427 . S
N1854 C1851 1.384 . S
N1855 C1847 1.427 . S
N1855 C1853 1.384 1_554 S
H1856 C1862 0.930 . S
H1857 C1866 0.930 . S
H1858 C1871 0.929 . S
H1859 C1869 0.929 . S
H1860 C1864 0.929 . S
H1861 C1870 0.929 . S
C1862 H1856 0.930 . S
C1862 C1863 1.367 . S
C1862 C1870 1.378 . S
C1863 C1862 1.367 . S
C1863 C1871 1.433 . S
C1864 H1860 0.929 . S
C1864 C1866 1.378 . S
C1864 C1868 1.350 . S
C1865 C1868 1.463 1_655 S
C1865 C1870 1.350 . S
C1865 N1873 1.427 1_655 S
C1866 H1857 0.930 . S
C1866 C1864 1.378 . S
C1866 C1867 1.367 . S
C1867 C1866 1.367 . S
C1867 C1869 1.433 . S
C1868 C1864 1.350 . S
C1868 C1865 1.463 1_455 S
C1868 N1872 1.427 1_455 S
C1869 H1859 0.929 . S
C1869 C1867 1.433 . S
C1869 N1872 1.384 1_455 S
C1870 H1861 0.929 . S
C1870 C1862 1.378 . S
C1870 C1865 1.350 . S
C1871 H1858 0.929 . S
C1871 C1863 1.433 . S
C1871 N1873 1.384 1_655 S
N1872 C1868 1.427 1_655 S
N1872 C1869 1.384 1_655 S
N1873 C1865 1.427 1_455 S
N1873 C1871 1.384 1_455 S
H1874 C1880 0.930 . S
H1875 C1884 0.930 . S
H1876 C1889 0.929 . S
H1877 C1887 0.929 . S
H1878 C1882 0.929 . S
H1879 C1888 0.929 . S
C1880 H1874 0.930 . S
C1880 C1881 1.367 . S
C1880 C1888 1.378 . S
C1881 C1880 1.367 . S
C1881 C1889 1.433 . S
C1882 H1878 0.929 . S
C1882 C1884 1.378 . S
C1882 C1886 1.350 . S
C1883 C1886 1.463 . S
C1883 C1888 1.350 . S
C1883 N1891 1.427 . S
C1884 H1875 0.930 . S
C1884 C1882 1.378 . S
C1884 C1885 1.367 . S
C1885 C1884 1.367 . S
C1885 C1887 1.433 . S
C1886 C1882 1.350 . S
C1886 C1883 1.463 . S
C1886 N1890 1.427 . S
C1887 H1877 0.929 . S
C1887 C1885 1.433 . S
C1887 N1890 1.384 . S
C1888 H1879 0.929 . S
C1888 C1880 1.378 . S
C1888 C1883 1.350 . S
C1889 H1876 0.929 . S
C1889 C1881 1.433 . S
C1889 N1891 1.384 . S
N1890 C1886 1.427 . S
N1890 C1887 1.384 . S
N1891 C1883 1.427 . S
N1891 C1889 1.384 . S
H1892 C1898 0.930 . S
H1893 C1902 0.930 . S
H1894 C1907 0.929 . S
H1895 C1905 0.929 . S
H1896 C1900 0.929 . S
H1897 C1906 0.929 . S
C1898 H1892 0.930 . S
C1898 C1899 1.367 . S
C1898 C1906 1.378 . S
C1899 C1898 1.367 . S
C1899 C1907 1.433 . S
C1900 H1896 0.929 . S
C1900 C1902 1.378 . S
C1900 C1904 1.350 . S
C1901 C1904 1.463 . S
C1901 C1906 1.350 . S
C1901 N1909 1.427 . S
C1902 H1893 0.930 . S
C1902 C1900 1.378 . S
C1902 C1903 1.367 . S
C1903 C1902 1.367 . S
C1903 C1905 1.433 . S
C1904 C1900 1.350 . S
C1904 C1901 1.463 . S
C1904 N1908 1.427 . S
C1905 H1895 0.929 . S
C1905 C1903 1.433 . S
C1905 N1908 1.384 . S
C1906 H1897 0.929 . S
C1906 C1898 1.378 . S
C1906 C1901 1.350 . S
C1907 H1894 0.929 . S
C1907 C1899 1.433 . S
C1907 N1909 1.384 . S
N1908 C1904 1.427 . S
N1908 C1905 1.384 . S
N1909 C1901 1.427 . S
N1909 C1907 1.384 . S
H1910 C1916 0.930 . S
H1911 C1920 0.930 . S
H1912 C1925 0.929 . S
H1913 C1923 0.929 . S
H1914 C1918 0.929 . S
H1915 C1924 0.929 . S
C1916 H1910 0.930 . S
C1916 C1917 1.367 . S
C1916 C1924 1.378 . S
C1917 C1916 1.367 . S
C1917 C1925 1.433 . S
C1918 H1914 0.929 . S
C1918 C1920 1.378 . S
C1918 C1922 1.350 . S
C1919 C1922 1.463 . S
C1919 C1924 1.350 . S
C1919 N1927 1.427 . S
C1920 H1911 0.930 . S
C1920 C1918 1.378 . S
C1920 C1921 1.367 . S
C1921 C1920 1.367 . S
C1921 C1923 1.433 . S
C1922 C1918 1.350 . S
C1922 C1919 1.463 . S
C1922 N1926 1.427 . S
C1923 H1913 0.929 . S
C1923 C1921 1.433 . S
C1923 N1926 1.384 . S
C1924 H1915 0.929 . S
C1924 C1916 1.378 . S
C1924 C1919 1.350 . S
C1925 H1912 0.929 . S
C1925 C1917 1.433 . S
C1925 N1927 1.384 . S
N1926 C1922 1.427 . S
N1926 C1923 1.384 . S
N1927 C1919 1.427 . S
N1927 C1925 1.384 . S
H1928 C1934 0.930 . S
H1929 C1938 0.930 . S
H1930 C1943 0.929 . S
H1931 C1941 0.929 . S
H1932 C1936 0.929 . S
H1933 C1942 0.929 . S
C1934 H1928 0.930 . S
C1934 C1935 1.367 . S
C1934 C1942 1.378 . S
C1935 C1934 1.367 . S
C1935 C1943 1.433 . S
C1936 H1932 0.929 . S
C1936 C1938 1.378 . S
C1936 C1940 1.350 . S
C1937 C1940 1.463 1_655 S
C1937 C1942 1.350 . S
C1937 N1945 1.427 . S
C1938 H1929 0.930 . S
C1938 C1936 1.378 . S
C1938 C1939 1.367 . S
C1939 C1938 1.367 . S
C1939 C1941 1.433 . S
C1940 C1936 1.350 . S
C1940 C1937 1.463 1_455 S
C1940 N1944 1.427 . S
C1941 H1931 0.929 . S
C1941 C1939 1.433 . S
C1941 N1944 1.384 . S
C1942 H1933 0.929 . S
C1942 C1934 1.378 . S
C1942 C1937 1.350 . S
C1943 H1930 0.929 . S
C1943 C1935 1.433 . S
C1943 N1945 1.384 . S
N1944 C1940 1.427 . S
N1944 C1941 1.384 . S
N1945 C1937 1.427 . S
N1945 C1943 1.384 . S
H1946 C1952 0.945 . S
H1947 C1956 0.930 . S
H1948 C1961 0.929 . S
H1949 C1959 0.929 . S
H1950 C1954 0.929 . S
H1951 C1960 0.929 . S
C1952 H1946 0.945 . S
C1952 C1953 1.367 . S
C1952 C1960 1.378 . S
C1953 C1952 1.367 . S
C1953 C1961 1.433 . S
C1954 H1950 0.929 . S
C1954 C1956 1.378 . S
C1954 C1958 1.350 . S
C1955 C1958 1.463 . S
C1955 C1960 1.350 . S
C1955 N1963 1.427 . S
C1956 H1947 0.930 . S
C1956 C1954 1.378 . S
C1956 C1957 1.367 . S
C1957 C1956 1.367 . S
C1957 C1959 1.433 . S
C1958 C1954 1.350 . S
C1958 C1955 1.463 . S
C1958 N1962 1.427 . S
C1959 H1949 0.929 . S
C1959 C1957 1.433 . S
C1959 N1962 1.384 . S
C1960 H1951 0.929 . S
C1960 C1952 1.378 . S
C1960 C1955 1.350 . S
C1961 H1948 0.929 . S
C1961 C1953 1.433 . S
C1961 N1963 1.384 . S
N1962 C1958 1.427 . S
N1962 C1959 1.384 . S
N1963 C1955 1.427 . S
N1963 C1961 1.384 . S
H1964 C1970 0.930 . S
H1965 C1974 0.930 . S
H1966 C1979 0.929 . S
H1967 C1977 0.929 . S
H1968 C1972 0.929 . S
H1969 C1978 0.929 . S
C1970 H1964 0.930 . S
C1970 C1971 1.367 . S
C1970 C1978 1.378 . S
C1971 C1970 1.367 . S
C1971 C1979 1.433 . S
C1972 H1968 0.929 . S
C1972 C1974 1.378 . S
C1972 C1976 1.350 . S
C1973 C1976 1.463 . S
C1973 C1978 1.350 . S
C1973 N1981 1.427 . S
C1974 H1965 0.930 . S
C1974 C1972 1.378 . S
C1974 C1975 1.367 . S
C1975 C1974 1.367 . S
C1975 C1977 1.433 . S
C1976 C1972 1.350 . S
C1976 C1973 1.463 . S
C1976 N1980 1.427 . S
C1977 H1967 0.929 . S
C1977 C1975 1.433 . S
C1977 N1980 1.384 . S
C1978 H1969 0.929 . S
C1978 C1970 1.378 . S
C1978 C1973 1.350 . S
C1979 H1966 0.929 . S
C1979 C1971 1.433 . S
C1979 N1981 1.384 . S
N1980 C1976 1.427 . S
N1980 C1977 1.384 . S
N1981 C1973 1.427 . S
N1981 C1979 1.384 . S
H1982 C1988 0.930 . S
H1983 C1992 0.930 . S
H1984 C1997 0.929 . S
H1985 C1995 0.929 . S
H1986 C1990 0.929 . S
H1987 C1996 0.929 . S
C1988 H1982 0.930 . S
C1988 C1989 1.367 . S
C1988 C1996 1.378 . S
C1989 C1988 1.367 . S
C1989 C1997 1.433 . S
C1990 H1986 0.929 . S
C1990 C1992 1.378 . S
C1990 C1994 1.350 . S
C1991 C1994 1.463 . S
C1991 C1996 1.350 . S
C1991 N1999 1.427 . S
C1992 H1983 0.930 . S
C1992 C1990 1.378 . S
C1992 C1993 1.367 . S
C1993 C1992 1.367 . S
C1993 C1995 1.433 . S
C1994 C1990 1.350 . S
C1994 C1991 1.463 . S
C1994 N1998 1.427 . S
C1995 H1985 0.929 . S
C1995 C1993 1.433 . S
C1995 N1998 1.384 . S
C1996 H1987 0.929 . S
C1996 C1988 1.378 . S
C1996 C1991 1.350 . S
C1997 H1984 0.929 . S
C1997 C1989 1.433 . S
C1997 N1999 1.384 . S
N1998 C1994 1.427 . S
N1998 C1995 1.384 . S
N1999 C1991 1.427 . S
N1999 C1997 1.384 . S
H2000 C2006 0.930 . S
H2001 C2010 0.930 . S
H2002 C2015 0.929 . S
H2003 C2013 0.929 . S
H2004 C2008 0.929 . S
H2005 C2014 0.929 . S
C2006 H2000 0.930 . S
C2006 C2007 1.367 . S
C2006 C2014 1.378 . S
C2007 C2006 1.367 . S
C2007 C2015 1.433 . S
C2008 H2004 0.929 . S
C2008 C2010 1.378 . S
C2008 C2012 1.350 . S
C2009 C2012 1.463 . S
C2009 C2014 1.350 . S
C2009 N2017 1.427 . S
C2010 H2001 0.930 . S
C2010 C2008 1.378 . S
C2010 C2011 1.367 . S
C2011 C2010 1.367 . S
C2011 C2013 1.433 . S
C2012 C2008 1.350 . S
C2012 C2009 1.463 . S
C2012 N2016 1.427 . S
C2013 H2003 0.929 . S
C2013 C2011 1.433 . S
C2013 N2016 1.384 . S
C2014 H2005 0.929 . S
C2014 C2006 1.378 . S
C2014 C2009 1.350 . S
C2015 H2002 0.929 . S
C2015 C2007 1.433 . S
C2015 N2017 1.384 . S
N2016 C2012 1.427 . S
N2016 C2013 1.384 . S
N2017 C2009 1.427 . S
N2017 C2015 1.384 . S
H2018 C2024 0.930 . S
H2019 C2028 0.930 . S
H2020 C2033 0.929 . S
H2021 C2031 0.929 . S
H2022 C2026 0.929 . S
H2023 C2032 0.929 . S
C2024 H2018 0.930 . S
C2024 C2025 1.367 . S
C2024 C2032 1.378 . S
C2025 C2024 1.367 . S
C2025 C2033 1.433 . S
C2026 H2022 0.929 . S
C2026 C2028 1.378 . S
C2026 C2030 1.350 . S
C2027 C2030 1.463 . S
C2027 C2032 1.350 . S
C2027 N2035 1.427 . S
C2028 H2019 0.930 . S
C2028 C2026 1.378 . S
C2028 C2029 1.367 . S
C2029 C2028 1.367 . S
C2029 C2031 1.433 . S
C2030 C2026 1.350 . S
C2030 C2027 1.463 . S
C2030 N2034 1.427 . S
C2031 H2021 0.929 . S
C2031 C2029 1.433 . S
C2031 N2034 1.384 . S
C2032 H2023 0.929 . S
C2032 C2024 1.378 . S
C2032 C2027 1.350 . S
C2033 H2020 0.929 . S
C2033 C2025 1.433 . S
C2033 N2035 1.384 . S
N2034 C2030 1.427 . S
N2034 C2031 1.384 . S
N2035 C2027 1.427 . S
N2035 C2033 1.384 . S
H2036 C2042 0.930 . S
H2037 C2046 0.930 . S
H2038 C2051 0.929 . S
H2039 C2049 0.929 . S
H2040 C2044 0.929 . S
H2041 C2050 0.929 . S
C2042 H2036 0.930 . S
C2042 C2043 1.367 . S
C2042 C2050 1.378 . S
C2043 C2042 1.367 . S
C2043 C2051 1.433 . S
C2044 H2040 0.929 . S
C2044 C2046 1.378 . S
C2044 C2048 1.350 . S
C2045 C2048 1.463 . S
C2045 C2050 1.350 . S
C2045 N2053 1.427 . S
C2046 H2037 0.930 . S
C2046 C2044 1.378 . S
C2046 C2047 1.367 . S
C2047 C2046 1.367 . S
C2047 C2049 1.433 . S
C2048 C2044 1.350 . S
C2048 C2045 1.463 . S
C2048 N2052 1.427 . S
C2049 H2039 0.929 . S
C2049 C2047 1.433 . S
C2049 N2052 1.384 . S
C2050 H2041 0.929 . S
C2050 C2042 1.378 . S
C2050 C2045 1.350 . S
C2051 H2038 0.929 . S
C2051 C2043 1.433 . S
C2051 N2053 1.384 . S
N2052 C2048 1.427 . S
N2052 C2049 1.384 . S
N2053 C2045 1.427 . S
N2053 C2051 1.384 . S
H2054 C2060 0.930 . S
H2055 C2064 0.930 . S
H2056 C2069 0.929 . S
H2057 C2067 0.929 . S
H2058 C2062 0.929 . S
H2059 C2068 0.929 . S
C2060 H2054 0.930 . S
C2060 C2061 1.367 . S
C2060 C2068 1.378 . S
C2061 C2060 1.367 . S
C2061 C2069 1.433 . S
C2062 H2058 0.929 . S
C2062 C2064 1.378 . S
C2062 C2066 1.350 . S
C2063 C2066 1.463 . S
C2063 C2068 1.350 . S
C2063 N2071 1.427 . S
C2064 H2055 0.930 . S
C2064 C2062 1.378 . S
C2064 C2065 1.367 . S
C2065 C2064 1.367 . S
C2065 C2067 1.433 . S
C2066 C2062 1.350 . S
C2066 C2063 1.463 . S
C2066 N2070 1.427 . S
C2067 H2057 0.929 . S
C2067 C2065 1.433 . S
C2067 N2070 1.384 . S
C2068 H2059 0.929 . S
C2068 C2060 1.378 . S
C2068 C2063 1.350 . S
C2069 H2056 0.929 . S
C2069 C2061 1.433 . S
C2069 N2071 1.384 . S
N2070 C2066 1.427 . S
N2070 C2067 1.384 . S
N2071 C2063 1.427 . S
N2071 C2069 1.384 . S
H2072 C2078 0.930 . S
H2073 C2082 0.930 . S
H2074 C2087 0.929 . S
H2075 C2085 0.929 . S
H2076 C2080 0.929 1_545 S
H2077 C2086 0.929 1_565 S
C2078 H2072 0.930 . S
C2078 C2079 1.367 . S
C2078 C2086 1.378 . S
C2079 C2078 1.367 . S
C2079 C2087 1.433 . S
C2080 H2076 0.929 1_565 S
C2080 C2082 1.378 . S
C2080 C2084 1.350 . S
C2081 C2084 1.463 1_545 S
C2081 C2086 1.350 . S
C2081 N2089 1.427 . S
C2082 H2073 0.930 . S
C2082 C2080 1.378 . S
C2082 C2083 1.367 . S
C2083 C2082 1.367 . S
C2083 C2085 1.433 . S
C2084 C2080 1.350 . S
C2084 C2081 1.463 1_565 S
C2084 N2088 1.427 . S
C2085 H2075 0.929 . S
C2085 C2083 1.433 . S
C2085 N2088 1.384 . S
C2086 H2077 0.929 1_545 S
C2086 C2078 1.378 . S
C2086 C2081 1.350 . S
C2087 H2074 0.929 . S
C2087 C2079 1.433 . S
C2087 N2089 1.384 . S
N2088 C2084 1.427 . S
N2088 C2085 1.384 . S
N2089 C2081 1.427 . S
N2089 C2087 1.384 . S
H2090 C2096 0.930 . S
H2091 C2100 0.930 . S
H2092 C2105 0.943 . S
H2093 C2103 0.944 . S
H2094 C2098 0.929 . S
H2095 C2104 0.929 . S
C2096 H2090 0.930 . S
C2096 C2097 1.367 . S
C2096 C2104 1.378 . S
C2097 C2096 1.367 . S
C2097 C2105 1.433 . S
C2098 H2094 0.929 . S
C2098 C2100 1.378 . S
C2098 C2102 1.350 . S
C2099 C2102 1.463 1_465 S
C2099 C2104 1.350 . S
C2099 N2107 1.427 1_455 S
C2100 H2091 0.930 . S
C2100 C2098 1.378 . S
C2100 C2101 1.367 . S
C2101 C2100 1.367 . S
C2101 C2103 1.433 . S
C2102 C2098 1.350 . S
C2102 C2099 1.463 1_645 S
C2102 N2106 1.427 1_655 S
C2103 H2093 0.944 . S
C2103 C2101 1.433 . S
C2103 N2106 1.384 1_655 S
C2104 H2095 0.929 . S
C2104 C2096 1.378 . S
C2104 C2099 1.350 . S
C2105 H2092 0.943 . S
C2105 C2097 1.433 . S
C2105 N2107 1.384 1_455 S
N2106 C2102 1.427 1_455 S
N2106 C2103 1.384 1_455 S
N2107 C2099 1.427 1_655 S
N2107 C2105 1.384 1_655 S
H2108 C2114 0.930 . S
H2109 C2118 0.930 . S
H2110 C2123 0.929 . S
H2111 C2121 0.929 . S
H2112 C2116 0.929 . S
H2113 C2122 0.929 . S
C2114 H2108 0.930 . S
C2114 C2115 1.367 . S
C2114 C2122 1.378 . S
C2115 C2114 1.367 . S
C2115 C2123 1.433 1_565 S
C2116 H2112 0.929 . S
C2116 C2118 1.378 . S
C2116 C2120 1.350 . S
C2117 C2120 1.463 1_565 S
C2117 C2122 1.350 . S
C2117 N2125 1.427 1_565 S
C2118 H2109 0.930 . S
C2118 C2116 1.378 . S
C2118 C2119 1.367 . S
C2119 C2118 1.367 . S
C2119 C2121 1.433 1_545 S
C2120 C2116 1.350 . S
C2120 C2117 1.463 1_545 S
C2120 N2124 1.427 1_545 S
C2121 H2111 0.929 . S
C2121 C2119 1.433 1_565 S
C2121 N2124 1.384 . S
C2122 H2113 0.929 . S
C2122 C2114 1.378 . S
C2122 C2117 1.350 . S
C2123 H2110 0.929 . S
C2123 C2115 1.433 1_545 S
C2123 N2125 1.384 . S
N2124 C2120 1.427 1_565 S
N2124 C2121 1.384 . S
N2125 C2117 1.427 1_545 S
N2125 C2123 1.384 . S
H2126 C2132 0.930 . S
H2127 C2136 0.930 . S
H2128 C2141 0.929 . S
H2129 C2139 0.929 . S
H2130 C2134 0.896 1_655 S
H2131 C2140 0.894 1_455 S
C2132 H2126 0.930 . S
C2132 C2133 1.367 . S
C2132 C2140 1.404 . S
C2133 C2132 1.367 . S
C2133 C2141 1.433 1_565 S
C2134 H2130 0.896 1_455 S
C2134 C2136 1.403 . S
C2134 C2138 1.359 . S
C2135 C2138 1.463 1_665 S
C2135 C2140 1.359 . S
C2135 N2143 1.427 1_565 S
C2136 H2127 0.930 . S
C2136 C2134 1.403 . S
C2136 C2137 1.367 . S
C2137 C2136 1.367 . S
C2137 C2139 1.433 1_545 S
C2138 C2134 1.359 . S
C2138 C2135 1.463 1_445 S
C2138 N2142 1.427 1_545 S
C2139 H2129 0.929 . S
C2139 C2137 1.433 1_565 S
C2139 N2142 1.384 . S
C2140 H2131 0.894 1_655 S
C2140 C2132 1.404 . S
C2140 C2135 1.359 . S
C2141 H2128 0.929 . S
C2141 C2133 1.433 1_545 S
C2141 N2143 1.384 . S
N2142 C2138 1.427 1_565 S
N2142 C2139 1.384 . S
N2143 C2135 1.427 1_545 S
N2143 C2141 1.384 . S
H2144 C2150 0.930 . S
H2145 C2154 0.930 . S
H2146 C2159 0.929 . S
H2147 C2157 0.929 . S
H2148 C2152 0.929 . S
H2149 C2158 0.929 . S
C2150 H2144 0.930 . S
C2150 C2151 1.367 1_556 S
C2150 C2158 1.378 . S
C2151 C2150 1.367 1_554 S
C2151 C2159 1.433 . S
C2152 H2148 0.929 . S
C2152 C2154 1.378 . S
C2152 C2156 1.350 . S
C2153 C2156 1.463 1_455 S
C2153 C2158 1.350 . S
C2153 N2161 1.427 . S
C2154 H2145 0.930 . S
C2154 C2152 1.378 . S
C2154 C2155 1.367 . S
C2155 C2154 1.367 . S
C2155 C2157 1.433 . S
C2156 C2152 1.350 . S
C2156 C2153 1.463 1_655 S
C2156 N2160 1.427 1_655 S
C2157 H2147 0.929 . S
C2157 C2155 1.433 . S
C2157 N2160 1.384 1_655 S
C2158 H2149 0.929 . S
C2158 C2150 1.378 . S
C2158 C2153 1.350 . S
C2159 H2146 0.929 . S
C2159 C2151 1.433 . S
C2159 N2161 1.384 1_554 S
N2160 C2156 1.427 1_455 S
N2160 C2157 1.384 1_455 S
N2161 C2153 1.427 . S
N2161 C2159 1.384 1_556 S
H2162 C2168 0.930 . S
H2163 C2172 0.930 . S
H2164 C2177 0.929 . S
H2165 C2175 0.929 . S
H2166 C2170 0.929 . S
H2167 C2176 0.929 . S
C2168 H2162 0.930 . S
C2168 C2169 1.367 . S
C2168 C2176 1.378 . S
C2169 C2168 1.367 . S
C2169 C2177 1.433 . S
C2170 H2166 0.929 . S
C2170 C2172 1.378 . S
C2170 C2174 1.350 . S
C2171 C2174 1.463 . S
C2171 C2176 1.350 . S
C2171 N2179 1.427 . S
C2172 H2163 0.930 . S
C2172 C2170 1.378 . S
C2172 C2173 1.367 . S
C2173 C2172 1.367 . S
C2173 C2175 1.433 . S
C2174 C2170 1.350 . S
C2174 C2171 1.463 . S
C2174 N2178 1.427 . S
C2175 H2165 0.929 . S
C2175 C2173 1.433 . S
C2175 N2178 1.384 . S
C2176 H2167 0.929 . S
C2176 C2168 1.378 . S
C2176 C2171 1.350 . S
C2177 H2164 0.929 . S
C2177 C2169 1.433 . S
C2177 N2179 1.384 . S
N2178 C2174 1.427 . S
N2178 C2175 1.384 . S
N2179 C2171 1.427 . S
N2179 C2177 1.384 . S
H2180 C2186 0.930 . S
H2181 C2190 0.930 . S
H2182 C2195 0.929 . S
H2183 C2193 0.929 . S
H2184 C2188 0.929 . S
H2185 C2194 0.929 . S
C2186 H2180 0.930 . S
C2186 C2187 1.367 . S
C2186 C2194 1.378 . S
C2187 C2186 1.367 . S
C2187 C2195 1.433 . S
C2188 H2184 0.929 . S
C2188 C2190 1.378 . S
C2188 C2192 1.350 . S
C2189 C2192 1.463 . S
C2189 C2194 1.350 . S
C2189 N2197 1.427 . S
C2190 H2181 0.930 . S
C2190 C2188 1.378 . S
C2190 C2191 1.367 . S
C2191 C2190 1.367 . S
C2191 C2193 1.433 . S
C2192 C2188 1.350 . S
C2192 C2189 1.463 . S
C2192 N2196 1.427 . S
C2193 H2183 0.929 . S
C2193 C2191 1.433 . S
C2193 N2196 1.384 . S
C2194 H2185 0.929 . S
C2194 C2186 1.378 . S
C2194 C2189 1.350 . S
C2195 H2182 0.929 . S
C2195 C2187 1.433 . S
C2195 N2197 1.384 . S
N2196 C2192 1.427 . S
N2196 C2193 1.384 . S
N2197 C2189 1.427 . S
N2197 C2195 1.384 . S
H2198 C2204 0.930 . S
H2199 C2208 0.930 . S
H2200 C2213 0.929 . S
H2201 C2211 0.929 . S
H2202 C2206 0.929 . S
H2203 C2212 0.929 . S
C2204 H2198 0.930 . S
C2204 C2205 1.367 . S
C2204 C2212 1.378 . S
C2205 C2204 1.367 . S
C2205 C2213 1.433 . S
C2206 H2202 0.929 . S
C2206 C2208 1.378 . S
C2206 C2210 1.350 . S
C2207 C2210 1.463 . S
C2207 C2212 1.350 . S
C2207 N2215 1.427 . S
C2208 H2199 0.930 . S
C2208 C2206 1.378 . S
C2208 C2209 1.367 . S
C2209 C2208 1.367 . S
C2209 C2211 1.433 . S
C2210 C2206 1.350 . S
C2210 C2207 1.463 . S
C2210 N2214 1.427 . S
C2211 H2201 0.929 . S
C2211 C2209 1.433 . S
C2211 N2214 1.384 . S
C2212 H2203 0.929 . S
C2212 C2204 1.378 . S
C2212 C2207 1.350 . S
C2213 H2200 0.929 . S
C2213 C2205 1.433 . S
C2213 N2215 1.384 . S
N2214 C2210 1.427 . S
N2214 C2211 1.384 . S
N2215 C2207 1.427 . S
N2215 C2213 1.384 . S
H2216 C2222 0.930 . S
H2217 C2226 0.930 . S
H2218 C2231 0.929 . S
H2219 C2229 0.929 . S
H2220 C2224 0.929 . S
H2221 C2230 0.929 . S
C2222 H2216 0.930 . S
C2222 C2223 1.367 . S
C2222 C2230 1.378 1_655 S
C2223 C2222 1.367 . S
C2223 C2231 1.433 . S
C2224 H2220 0.929 . S
C2224 C2226 1.378 . S
C2224 C2228 1.350 . S
C2225 C2228 1.463 . S
C2225 C2230 1.350 . S
C2225 N2233 1.427 1_455 S
C2226 H2217 0.930 . S
C2226 C2224 1.378 . S
C2226 C2227 1.367 . S
C2227 C2226 1.367 . S
C2227 C2229 1.433 . S
C2228 C2224 1.350 . S
C2228 C2225 1.463 . S
C2228 N2232 1.427 . S
C2229 H2219 0.929 . S
C2229 C2227 1.433 . S
C2229 N2232 1.384 . S
C2230 H2221 0.929 . S
C2230 C2222 1.378 1_455 S
C2230 C2225 1.350 . S
C2231 H2218 0.929 . S
C2231 C2223 1.433 . S
C2231 N2233 1.384 . S
N2232 C2228 1.427 . S
N2232 C2229 1.384 . S
N2233 C2225 1.427 1_655 S
N2233 C2231 1.384 . S
H2234 C2240 0.930 . S
H2235 C2244 0.930 . S
H2236 C2249 0.929 . S
H2237 C2247 0.929 . S
H2238 C2242 0.929 . S
H2239 C2248 0.929 . S
C2240 H2234 0.930 . S
C2240 C2241 1.367 . S
C2240 C2248 1.378 . S
C2241 C2240 1.367 . S
C2241 C2249 1.433 . S
C2242 H2238 0.929 . S
C2242 C2244 1.378 . S
C2242 C2246 1.350 . S
C2243 C2246 1.463 . S
C2243 C2248 1.350 . S
C2243 N2251 1.427 . S
C2244 H2235 0.930 . S
C2244 C2242 1.378 . S
C2244 C2245 1.367 . S
C2245 C2244 1.367 . S
C2245 C2247 1.433 . S
C2246 C2242 1.350 . S
C2246 C2243 1.463 . S
C2246 N2250 1.427 . S
C2247 H2237 0.929 . S
C2247 C2245 1.433 . S
C2247 N2250 1.384 . S
C2248 H2239 0.929 . S
C2248 C2240 1.378 . S
C2248 C2243 1.350 . S
C2249 H2236 0.929 . S
C2249 C2241 1.433 . S
C2249 N2251 1.384 . S
N2250 C2246 1.427 . S
N2250 C2247 1.384 . S
N2251 C2243 1.427 . S
N2251 C2249 1.384 . S
H2252 C2258 0.930 . S
H2253 C2262 0.930 . S
H2254 C2267 0.929 . S
H2255 C2265 0.929 . S
H2256 C2260 0.929 . S
H2257 C2266 0.929 . S
C2258 H2252 0.930 . S
C2258 C2259 1.367 . S
C2258 C2266 1.378 . S
C2259 C2258 1.367 . S
C2259 C2267 1.433 . S
C2260 H2256 0.929 . S
C2260 C2262 1.378 . S
C2260 C2264 1.350 . S
C2261 C2264 1.463 . S
C2261 C2266 1.350 . S
C2261 N2269 1.427 . S
C2262 H2253 0.930 . S
C2262 C2260 1.378 . S
C2262 C2263 1.367 . S
C2263 C2262 1.367 . S
C2263 C2265 1.433 . S
C2264 C2260 1.350 . S
C2264 C2261 1.463 . S
C2264 N2268 1.427 . S
C2265 H2255 0.929 . S
C2265 C2263 1.433 . S
C2265 N2268 1.384 . S
C2266 H2257 0.929 . S
C2266 C2258 1.378 . S
C2266 C2261 1.350 . S
C2267 H2254 0.929 . S
C2267 C2259 1.433 . S
C2267 N2269 1.384 . S
N2268 C2264 1.427 . S
N2268 C2265 1.384 . S
N2269 C2261 1.427 . S
N2269 C2267 1.384 . S
H2270 C2276 0.930 . S
H2271 C2280 0.930 . S
H2272 C2285 0.929 . S
H2273 C2283 0.929 . S
H2274 C2278 0.929 . S
H2275 C2284 0.929 . S
C2276 H2270 0.930 . S
C2276 C2277 1.367 . S
C2276 C2284 1.378 . S
C2277 C2276 1.367 . S
C2277 C2285 1.433 . S
C2278 H2274 0.929 . S
C2278 C2280 1.378 . S
C2278 C2282 1.350 . S
C2279 C2282 1.463 . S
C2279 C2284 1.350 . S
C2279 N2287 1.427 . S
C2280 H2271 0.930 . S
C2280 C2278 1.378 . S
C2280 C2281 1.367 . S
C2281 C2280 1.367 . S
C2281 C2283 1.433 . S
C2282 C2278 1.350 . S
C2282 C2279 1.463 . S
C2282 N2286 1.427 . S
C2283 H2273 0.929 . S
C2283 C2281 1.433 . S
C2283 N2286 1.384 . S
C2284 H2275 0.929 . S
C2284 C2276 1.378 . S
C2284 C2279 1.350 . S
C2285 H2272 0.929 . S
C2285 C2277 1.433 . S
C2285 N2287 1.384 . S
N2286 C2282 1.427 . S
N2286 C2283 1.384 . S
N2287 C2279 1.427 . S
N2287 C2285 1.384 . S
H2288 C2294 0.930 . S
H2289 C2298 0.930 . S
H2290 C2303 0.929 . S
H2291 C2301 0.929 . S
H2292 C2296 0.929 . S
H2293 C2302 0.929 . S
C2294 H2288 0.930 . S
C2294 C2295 1.367 . S
C2294 C2302 1.378 . S
C2295 C2294 1.367 . S
C2295 C2303 1.433 . S
C2296 H2292 0.929 . S
C2296 C2298 1.378 . S
C2296 C2300 1.350 . S
C2297 C2300 1.463 1_455 S
C2297 C2302 1.350 . S
C2297 N2305 1.427 . S
C2298 H2289 0.930 . S
C2298 C2296 1.378 . S
C2298 C2299 1.367 . S
C2299 C2298 1.367 . S
C2299 C2301 1.433 . S
C2300 C2296 1.350 . S
C2300 C2297 1.463 1_655 S
C2300 N2304 1.427 . S
C2301 H2291 0.929 . S
C2301 C2299 1.433 . S
C2301 N2304 1.384 . S
C2302 H2293 0.929 . S
C2302 C2294 1.378 . S
C2302 C2297 1.350 . S
C2303 H2290 0.929 . S
C2303 C2295 1.433 . S
C2303 N2305 1.384 . S
N2304 C2300 1.427 . S
N2304 C2301 1.384 . S
N2305 C2297 1.427 . S
N2305 C2303 1.384 . S
H2306 C2312 0.930 . S
H2307 C2316 0.930 . S
H2308 C2321 0.929 . S
H2309 C2319 0.929 . S
H2310 C2314 0.929 . S
H2311 C2320 0.929 . S
C2312 H2306 0.930 . S
C2312 C2313 1.367 . S
C2312 C2320 1.378 . S
C2313 C2312 1.367 . S
C2313 C2321 1.433 . S
C2314 H2310 0.929 . S
C2314 C2316 1.378 . S
C2314 C2318 1.350 . S
C2315 C2318 1.463 . S
C2315 C2320 1.350 . S
C2315 N2323 1.427 . S
C2316 H2307 0.930 . S
C2316 C2314 1.378 . S
C2316 C2317 1.367 . S
C2317 C2316 1.367 . S
C2317 C2319 1.433 . S
C2318 C2314 1.350 . S
C2318 C2315 1.463 . S
C2318 N2322 1.427 . S
C2319 H2309 0.929 . S
C2319 C2317 1.433 . S
C2319 N2322 1.384 . S
C2320 H2311 0.929 . S
C2320 C2312 1.378 . S
C2320 C2315 1.350 . S
C2321 H2308 0.929 . S
C2321 C2313 1.433 . S
C2321 N2323 1.384 . S
N2322 C2318 1.427 . S
N2322 C2319 1.384 . S
N2323 C2315 1.427 . S
N2323 C2321 1.384 . S
H2324 C2330 0.930 . S
H2325 C2334 0.930 . S
H2326 C2339 0.929 . S
H2327 C2337 0.929 . S
H2328 C2332 0.929 . S
H2329 C2338 0.929 . S
C2330 H2324 0.930 . S
C2330 C2331 1.367 . S
C2330 C2338 1.378 . S
C2331 C2330 1.367 . S
C2331 C2339 1.433 . S
C2332 H2328 0.929 . S
C2332 C2334 1.378 . S
C2332 C2336 1.350 . S
C2333 C2336 1.463 . S
C2333 C2338 1.350 . S
C2333 N2341 1.427 . S
C2334 H2325 0.930 . S
C2334 C2332 1.378 . S
C2334 C2335 1.367 . S
C2335 C2334 1.367 . S
C2335 C2337 1.433 . S
C2336 C2332 1.350 . S
C2336 C2333 1.463 . S
C2336 N2340 1.427 . S
C2337 H2327 0.929 . S
C2337 C2335 1.433 . S
C2337 N2340 1.384 . S
C2338 H2329 0.929 . S
C2338 C2330 1.378 . S
C2338 C2333 1.350 . S
C2339 H2326 0.929 . S
C2339 C2331 1.433 . S
C2339 N2341 1.384 . S
N2340 C2336 1.427 . S
N2340 C2337 1.384 . S
N2341 C2333 1.427 . S
N2341 C2339 1.384 . S
H2342 C2348 0.930 . S
H2343 C2352 0.930 . S
H2344 C2357 0.929 . S
H2345 C2355 0.929 . S
H2346 C2350 0.929 . S
H2347 C2356 0.929 . S
C2348 H2342 0.930 . S
C2348 C2349 1.367 . S
C2348 C2356 1.378 . S
C2349 C2348 1.367 . S
C2349 C2357 1.433 . S
C2350 H2346 0.929 . S
C2350 C2352 1.378 . S
C2350 C2354 1.350 . S
C2351 C2354 1.463 . S
C2351 C2356 1.350 . S
C2351 N2359 1.427 . S
C2352 H2343 0.930 . S
C2352 C2350 1.378 . S
C2352 C2353 1.367 . S
C2353 C2352 1.367 . S
C2353 C2355 1.433 . S
C2354 C2350 1.350 . S
C2354 C2351 1.463 . S
C2354 N2358 1.427 . S
C2355 H2345 0.929 . S
C2355 C2353 1.433 . S
C2355 N2358 1.384 . S
C2356 H2347 0.929 . S
C2356 C2348 1.378 . S
C2356 C2351 1.350 . S
C2357 H2344 0.929 . S
C2357 C2349 1.433 . S
C2357 N2359 1.384 . S
N2358 C2354 1.427 . S
N2358 C2355 1.384 . S
N2359 C2351 1.427 . S
N2359 C2357 1.384 . S
H2360 C2366 0.930 . S
H2361 C2370 0.930 . S
H2362 C2375 0.929 . S
H2363 C2373 0.929 . S
H2364 C2368 0.929 . S
H2365 C2374 0.929 . S
C2366 H2360 0.930 . S
C2366 C2367 1.367 . S
C2366 C2374 1.378 . S
C2367 C2366 1.367 . S
C2367 C2375 1.433 . S
C2368 H2364 0.929 . S
C2368 C2370 1.378 . S
C2368 C2372 1.350 . S
C2369 C2372 1.463 . S
C2369 C2374 1.350 1_655 S
C2369 N2377 1.427 . S
C2370 H2361 0.930 . S
C2370 C2368 1.378 . S
C2370 C2371 1.367 . S
C2371 C2370 1.367 . S
C2371 C2373 1.433 . S
C2372 C2368 1.350 . S
C2372 C2369 1.463 . S
C2372 N2376 1.427 . S
C2373 H2363 0.929 . S
C2373 C2371 1.433 . S
C2373 N2376 1.384 . S
C2374 H2365 0.929 . S
C2374 C2366 1.378 . S
C2374 C2369 1.350 1_455 S
C2375 H2362 0.929 . S
C2375 C2367 1.433 . S
C2375 N2377 1.384 1_455 S
N2376 C2372 1.427 . S
N2376 C2373 1.384 . S
N2377 C2369 1.427 . S
N2377 C2375 1.384 1_655 S
H2378 C2384 0.930 . S
H2379 C2388 0.930 . S
H2380 C2393 0.929 . S
H2381 C2391 0.929 . S
H2382 C2386 0.929 . S
H2383 C2392 0.929 . S
C2384 H2378 0.930 . S
C2384 C2385 1.367 . S
C2384 C2392 1.378 . S
C2385 C2384 1.367 . S
C2385 C2393 1.433 . S
C2386 H2382 0.929 . S
C2386 C2388 1.378 . S
C2386 C2390 1.350 . S
C2387 C2390 1.463 . S
C2387 C2392 1.350 . S
C2387 N2395 1.427 . S
C2388 H2379 0.930 . S
C2388 C2386 1.378 . S
C2388 C2389 1.367 . S
C2389 C2388 1.367 . S
C2389 C2391 1.433 . S
C2390 C2386 1.350 . S
C2390 C2387 1.463 . S
C2390 N2394 1.427 . S
C2391 H2381 0.929 . S
C2391 C2389 1.433 . S
C2391 N2394 1.384 . S
C2392 H2383 0.929 . S
C2392 C2384 1.378 . S
C2392 C2387 1.350 . S
C2393 H2380 0.929 . S
C2393 C2385 1.433 . S
C2393 N2395 1.384 . S
N2394 C2390 1.427 . S
N2394 C2391 1.384 . S
N2395 C2387 1.427 . S
N2395 C2393 1.384 . S
H2396 C2402 0.930 . S
H2397 C2406 0.930 . S
H2398 C2411 0.929 . S
H2399 C2409 0.929 . S
H2400 C2404 0.929 . S
H2401 C2410 0.929 . S
C2402 H2396 0.930 . S
C2402 C2403 1.367 . S
C2402 C2410 1.378 1_554 S
C2403 C2402 1.367 . S
C2403 C2411 1.433 . S
C2404 H2400 0.929 . S
C2404 C2406 1.378 . S
C2404 C2408 1.350 . S
C2405 C2408 1.463 . S
C2405 C2410 1.350 . S
C2405 N2413 1.427 . S
C2406 H2397 0.930 . S
C2406 C2404 1.378 . S
C2406 C2407 1.367 . S
C2407 C2406 1.367 . S
C2407 C2409 1.433 . S
C2408 C2404 1.350 . S
C2408 C2405 1.463 . S
C2408 N2412 1.427 . S
C2409 H2399 0.929 . S
C2409 C2407 1.433 . S
C2409 N2412 1.384 . S
C2410 H2401 0.929 . S
C2410 C2402 1.378 1_556 S
C2410 C2405 1.350 . S
C2411 H2398 0.929 . S
C2411 C2403 1.433 . S
C2411 N2413 1.384 1_554 S
N2412 C2408 1.427 . S
N2412 C2409 1.384 . S
N2413 C2405 1.427 . S
N2413 C2411 1.384 1_556 S
H2414 C2420 0.930 . S
H2415 C2424 0.930 . S
H2416 C2429 0.929 . S
H2417 C2427 0.929 . S
H2418 C2422 0.929 . S
H2419 C2428 0.929 . S
C2420 H2414 0.930 . S
C2420 C2421 1.367 . S
C2420 C2428 1.378 . S
C2421 C2420 1.367 . S
C2421 C2429 1.433 . S
C2422 H2418 0.929 . S
C2422 C2424 1.378 . S
C2422 C2426 1.350 . S
C2423 C2426 1.463 . S
C2423 C2428 1.350 . S
C2423 N2431 1.427 . S
C2424 H2415 0.930 . S
C2424 C2422 1.378 . S
C2424 C2425 1.367 . S
C2425 C2424 1.367 . S
C2425 C2427 1.433 . S
C2426 C2422 1.350 . S
C2426 C2423 1.463 . S
C2426 N2430 1.427 . S
C2427 H2417 0.929 . S
C2427 C2425 1.433 . S
C2427 N2430 1.384 . S
C2428 H2419 0.929 . S
C2428 C2420 1.378 . S
C2428 C2423 1.350 . S
C2429 H2416 0.929 . S
C2429 C2421 1.433 . S
C2429 N2431 1.384 . S
N2430 C2426 1.427 . S
N2430 C2427 1.384 . S
N2431 C2423 1.427 . S
N2431 C2429 1.384 . S
H2432 C2438 0.930 . S
H2433 C2442 0.930 . S
H2434 C2447 0.929 . S
H2435 C2445 0.929 . S
H2436 C2440 0.929 . S
H2437 C2446 0.929 . S
C2438 H2432 0.930 . S
C2438 C2439 1.367 . S
C2438 C2446 1.378 . S
C2439 C2438 1.367 . S
C2439 C2447 1.433 . S
C2440 H2436 0.929 . S
C2440 C2442 1.378 . S
C2440 C2444 1.350 . S
C2441 C2444 1.463 . S
C2441 C2446 1.350 . S
C2441 N2449 1.427 . S
C2442 H2433 0.930 . S
C2442 C2440 1.378 . S
C2442 C2443 1.367 . S
C2443 C2442 1.367 . S
C2443 C2445 1.433 . S
C2444 C2440 1.350 . S
C2444 C2441 1.463 . S
C2444 N2448 1.427 . S
C2445 H2435 0.929 . S
C2445 C2443 1.433 . S
C2445 N2448 1.384 . S
C2446 H2437 0.929 . S
C2446 C2438 1.378 . S
C2446 C2441 1.350 . S
C2447 H2434 0.929 . S
C2447 C2439 1.433 . S
C2447 N2449 1.384 . S
N2448 C2444 1.427 . S
N2448 C2445 1.384 . S
N2449 C2441 1.427 . S
N2449 C2447 1.384 . S
H2450 C2456 0.930 . S
H2451 C2460 0.930 . S
H2452 C2465 0.929 . S
H2453 C2463 0.929 . S
H2454 C2458 0.929 . S
H2455 C2464 0.929 . S
C2456 H2450 0.930 . S
C2456 C2457 1.367 . S
C2456 C2464 1.378 . S
C2457 C2456 1.367 . S
C2457 C2465 1.433 . S
C2458 H2454 0.929 . S
C2458 C2460 1.378 . S
C2458 C2462 1.350 . S
C2459 C2462 1.463 . S
C2459 C2464 1.350 . S
C2459 N2467 1.427 . S
C2460 H2451 0.930 . S
C2460 C2458 1.378 . S
C2460 C2461 1.367 . S
C2461 C2460 1.367 . S
C2461 C2463 1.433 . S
C2462 C2458 1.350 . S
C2462 C2459 1.463 . S
C2462 N2466 1.427 . S
C2463 H2453 0.929 . S
C2463 C2461 1.433 . S
C2463 N2466 1.384 . S
C2464 H2455 0.929 . S
C2464 C2456 1.378 . S
C2464 C2459 1.350 . S
C2465 H2452 0.929 . S
C2465 C2457 1.433 . S
C2465 N2467 1.384 . S
N2466 C2462 1.427 . S
N2466 C2463 1.384 . S
N2467 C2459 1.427 . S
N2467 C2465 1.384 . S
H2468 C2474 0.931 . S
H2469 C2478 0.930 . S
H2470 C2483 0.929 1_455 S
H2471 C2481 0.929 . S
H2472 C2476 0.929 . S
H2473 C2482 0.929 . S
C2474 H2468 0.931 . S
C2474 C2475 1.389 . S
C2474 C2482 1.356 1_554 S
C2475 C2474 1.389 . S
C2475 C2483 1.433 . S
C2476 H2472 0.929 . S
C2476 C2478 1.378 . S
C2476 C2480 1.350 . S
C2477 C2480 1.463 1_655 S
C2477 C2482 1.350 . S
C2477 N2485 1.427 1_655 S
C2478 H2469 0.930 . S
C2478 C2476 1.378 . S
C2478 C2479 1.367 . S
C2479 C2478 1.367 . S
C2479 C2481 1.433 . S
C2480 C2476 1.350 . S
C2480 C2477 1.463 1_455 S
C2480 N2484 1.422 1_455 S
C2481 H2471 0.929 . S
C2481 C2479 1.433 . S
C2481 N2484 1.379 1_455 S
C2482 H2473 0.929 . S
C2482 C2474 1.356 1_556 S
C2482 C2477 1.350 . S
C2483 H2470 0.929 1_655 S
C2483 C2475 1.433 . S
C2483 N2485 1.384 1_654 S
N2484 C2480 1.422 1_655 S
N2484 C2481 1.379 1_655 S
N2485 C2477 1.427 1_455 S
N2485 C2483 1.384 1_456 S
H2486 C2492 0.930 1_556 S
H2487 C2496 0.930 . S
H2488 C2501 0.929 1_556 S
H2489 C2499 0.929 . S
H2490 C2494 0.929 . S
H2491 C2500 0.929 . S
C2492 H2486 0.930 1_554 S
C2492 C2493 1.367 1_554 S
C2492 C2500 1.378 . S
C2493 C2492 1.367 1_556 S
C2493 C2501 1.433 1_556 S
C2494 H2490 0.929 . S
C2494 C2496 1.378 . S
C2494 C2498 1.350 . S
C2495 C2498 1.463 . S
C2495 C2500 1.350 . S
C2495 N2503 1.427 . S
C2496 H2487 0.930 . S
C2496 C2494 1.378 . S
C2496 C2497 1.367 . S
C2497 C2496 1.367 . S
C2497 C2499 1.433 . S
C2498 C2494 1.350 . S
C2498 C2495 1.463 . S
C2498 N2502 1.427 . S
C2499 H2489 0.929 . S
C2499 C2497 1.433 . S
C2499 N2502 1.384 . S
C2500 H2491 0.929 . S
C2500 C2492 1.378 . S
C2500 C2495 1.350 . S
C2501 H2488 0.929 1_554 S
C2501 C2493 1.433 1_554 S
C2501 N2503 1.384 . S
N2502 C2498 1.427 . S
N2502 C2499 1.384 . S
N2503 C2495 1.427 . S
N2503 C2501 1.384 . S
H2504 C2510 0.930 . S
H2505 C2514 0.930 . S
H2506 C2519 0.929 . S
H2507 C2517 0.929 . S
H2508 C2512 0.929 . S
H2509 C2518 0.929 . S
C2510 H2504 0.930 . S
C2510 C2511 1.367 . S
C2510 C2518 1.378 . S
C2511 C2510 1.367 . S
C2511 C2519 1.433 . S
C2512 H2508 0.929 . S
C2512 C2514 1.378 . S
C2512 C2516 1.350 . S
C2513 C2516 1.463 . S
C2513 C2518 1.350 . S
C2513 N2521 1.427 . S
C2514 H2505 0.930 . S
C2514 C2512 1.378 . S
C2514 C2515 1.367 . S
C2515 C2514 1.367 . S
C2515 C2517 1.433 . S
C2516 C2512 1.350 . S
C2516 C2513 1.463 . S
C2516 N2520 1.427 . S
C2517 H2507 0.929 . S
C2517 C2515 1.433 . S
C2517 N2520 1.384 . S
C2518 H2509 0.929 . S
C2518 C2510 1.378 . S
C2518 C2513 1.350 . S
C2519 H2506 0.929 . S
C2519 C2511 1.433 . S
C2519 N2521 1.384 . S
N2520 C2516 1.427 . S
N2520 C2517 1.384 . S
N2521 C2513 1.427 . S
N2521 C2519 1.384 . S
H2522 C2528 0.930 . S
H2523 C2532 0.930 . S
H2524 C2537 0.929 . S
H2525 C2535 0.929 . S
H2526 C2530 0.929 . S
H2527 C2536 0.929 . S
C2528 H2522 0.930 . S
C2528 C2529 1.367 . S
C2528 C2536 1.378 . S
C2529 C2528 1.367 . S
C2529 C2537 1.433 . S
C2530 H2526 0.929 . S
C2530 C2532 1.378 . S
C2530 C2534 1.350 . S
C2531 C2534 1.463 . S
C2531 C2536 1.350 . S
C2531 N2539 1.427 . S
C2532 H2523 0.930 . S
C2532 C2530 1.378 . S
C2532 C2533 1.367 . S
C2533 C2532 1.367 . S
C2533 C2535 1.433 . S
C2534 C2530 1.350 . S
C2534 C2531 1.463 . S
C2534 N2538 1.427 . S
C2535 H2525 0.929 . S
C2535 C2533 1.433 . S
C2535 N2538 1.384 . S
C2536 H2527 0.929 . S
C2536 C2528 1.378 . S
C2536 C2531 1.350 . S
C2537 H2524 0.929 . S
C2537 C2529 1.433 . S
C2537 N2539 1.384 . S
N2538 C2534 1.427 . S
N2538 C2535 1.384 . S
N2539 C2531 1.427 . S
N2539 C2537 1.384 . S
H2540 C2546 0.930 . S
H2541 C2550 0.930 . S
H2542 C2555 0.929 . S
H2543 C2553 0.929 . S
H2544 C2548 0.929 . S
H2545 C2554 0.929 . S
C2546 H2540 0.930 . S
C2546 C2547 1.367 . S
C2546 C2554 1.378 1_455 S
C2547 C2546 1.367 . S
C2547 C2555 1.433 1_455 S
C2548 H2544 0.929 . S
C2548 C2550 1.378 . S
C2548 C2552 1.350 . S
C2549 C2552 1.463 . S
C2549 C2554 1.350 . S
C2549 N2557 1.427 . S
C2550 H2541 0.930 . S
C2550 C2548 1.378 . S
C2550 C2551 1.367 . S
C2551 C2550 1.367 . S
C2551 C2553 1.433 . S
C2552 C2548 1.350 . S
C2552 C2549 1.463 . S
C2552 N2556 1.427 . S
C2553 H2543 0.929 . S
C2553 C2551 1.433 . S
C2553 N2556 1.384 . S
C2554 H2545 0.929 . S
C2554 C2546 1.378 1_655 S
C2554 C2549 1.350 . S
C2555 H2542 0.929 . S
C2555 C2547 1.433 1_655 S
C2555 N2557 1.384 . S
N2556 C2552 1.427 . S
N2556 C2553 1.384 . S
N2557 C2549 1.427 . S
N2557 C2555 1.384 . S
H2558 C2564 0.930 . S
H2559 C2568 0.930 . S
H2560 C2573 0.929 . S
H2561 C2571 0.929 . S
H2562 C2566 0.929 . S
H2563 C2572 0.929 . S
C2564 H2558 0.930 . S
C2564 C2565 1.367 . S
C2564 C2572 1.378 . S
C2565 C2564 1.367 . S
C2565 C2573 1.433 . S
C2566 H2562 0.929 . S
C2566 C2568 1.378 . S
C2566 C2570 1.350 . S
C2567 C2570 1.463 . S
C2567 C2572 1.350 . S
C2567 N2575 1.427 . S
C2568 H2559 0.930 . S
C2568 C2566 1.378 . S
C2568 C2569 1.367 . S
C2569 C2568 1.367 . S
C2569 C2571 1.433 . S
C2570 C2566 1.350 . S
C2570 C2567 1.463 . S
C2570 N2574 1.427 . S
C2571 H2561 0.929 . S
C2571 C2569 1.433 . S
C2571 N2574 1.384 . S
C2572 H2563 0.929 . S
C2572 C2564 1.378 . S
C2572 C2567 1.350 . S
C2573 H2560 0.929 . S
C2573 C2565 1.433 . S
C2573 N2575 1.384 . S
N2574 C2570 1.427 . S
N2574 C2571 1.384 . S
N2575 C2567 1.427 . S
N2575 C2573 1.384 . S
H2576 C2582 0.930 . S
H2577 C2586 0.930 . S
H2578 C2591 0.929 . S
H2579 C2589 0.929 . S
H2580 C2584 0.929 . S
H2581 C2590 0.929 . S
C2582 H2576 0.930 . S
C2582 C2583 1.367 . S
C2582 C2590 1.378 . S
C2583 C2582 1.367 . S
C2583 C2591 1.433 . S
C2584 H2580 0.929 . S
C2584 C2586 1.378 . S
C2584 C2588 1.350 . S
C2585 C2588 1.463 . S
C2585 C2590 1.350 . S
C2585 N2593 1.427 . S
C2586 H2577 0.930 . S
C2586 C2584 1.378 . S
C2586 C2587 1.367 . S
C2587 C2586 1.367 . S
C2587 C2589 1.433 . S
C2588 C2584 1.350 . S
C2588 C2585 1.463 . S
C2588 N2592 1.427 . S
C2589 H2579 0.929 . S
C2589 C2587 1.433 . S
C2589 N2592 1.384 . S
C2590 H2581 0.929 . S
C2590 C2582 1.378 . S
C2590 C2585 1.350 . S
C2591 H2578 0.929 . S
C2591 C2583 1.433 . S
C2591 N2593 1.384 . S
N2592 C2588 1.427 . S
N2592 C2589 1.384 . S
N2593 C2585 1.427 . S
N2593 C2591 1.384 . S
H2594 C2600 0.930 . S
H2595 C2604 0.930 . S
H2596 C2609 0.929 . S
H2597 C2607 0.929 . S
H2598 C2602 0.929 . S
H2599 C2608 0.929 . S
C2600 H2594 0.930 . S
C2600 C2601 1.367 . S
C2600 C2608 1.378 . S
C2601 C2600 1.367 . S
C2601 C2609 1.433 . S
C2602 H2598 0.929 . S
C2602 C2604 1.378 . S
C2602 C2606 1.350 . S
C2603 C2606 1.463 . S
C2603 C2608 1.350 . S
C2603 N2611 1.427 . S
C2604 H2595 0.930 . S
C2604 C2602 1.378 . S
C2604 C2605 1.367 . S
C2605 C2604 1.367 . S
C2605 C2607 1.433 . S
C2606 C2602 1.350 . S
C2606 C2603 1.463 . S
C2606 N2610 1.427 . S
C2607 H2597 0.929 . S
C2607 C2605 1.433 . S
C2607 N2610 1.384 . S
C2608 H2599 0.929 . S
C2608 C2600 1.378 . S
C2608 C2603 1.350 . S
C2609 H2596 0.929 . S
C2609 C2601 1.433 . S
C2609 N2611 1.384 . S
N2610 C2606 1.427 . S
N2610 C2607 1.384 . S
N2611 C2603 1.427 . S
N2611 C2609 1.384 . S
H2612 C2618 0.930 . S
H2613 C2622 0.930 . S
H2614 C2627 0.929 . S
H2615 C2625 0.929 . S
H2616 C2620 0.929 . S
H2617 C2626 0.929 . S
C2618 H2612 0.930 . S
C2618 C2619 1.367 . S
C2618 C2626 1.378 . S
C2619 C2618 1.367 . S
C2619 C2627 1.433 . S
C2620 H2616 0.929 . S
C2620 C2622 1.378 . S
C2620 C2624 1.350 . S
C2621 C2624 1.463 1_455 S
C2621 C2626 1.350 . S
C2621 N2629 1.427 . S
C2622 H2613 0.930 . S
C2622 C2620 1.378 . S
C2622 C2623 1.367 . S
C2623 C2622 1.367 . S
C2623 C2625 1.433 . S
C2624 C2620 1.350 . S
C2624 C2621 1.463 1_655 S
C2624 N2628 1.427 . S
C2625 H2615 0.929 . S
C2625 C2623 1.433 . S
C2625 N2628 1.384 . S
C2626 H2617 0.929 . S
C2626 C2618 1.378 . S
C2626 C2621 1.350 . S
C2627 H2614 0.929 . S
C2627 C2619 1.433 . S
C2627 N2629 1.384 . S
N2628 C2624 1.427 . S
N2628 C2625 1.384 . S
N2629 C2621 1.427 . S
N2629 C2627 1.384 . S
H2630 C2636 0.930 . S
H2631 C2640 0.930 . S
H2632 C2645 0.929 . S
H2633 C2643 0.929 . S
H2634 C2638 0.929 . S
H2635 C2644 0.929 . S
C2636 H2630 0.930 . S
C2636 C2637 1.367 . S
C2636 C2644 1.378 . S
C2637 C2636 1.367 . S
C2637 C2645 1.433 . S
C2638 H2634 0.929 . S
C2638 C2640 1.378 . S
C2638 C2642 1.350 . S
C2639 C2642 1.463 . S
C2639 C2644 1.350 . S
C2639 N2647 1.427 . S
C2640 H2631 0.930 . S
C2640 C2638 1.378 . S
C2640 C2641 1.367 . S
C2641 C2640 1.367 . S
C2641 C2643 1.433 . S
C2642 C2638 1.350 . S
C2642 C2639 1.463 . S
C2642 N2646 1.427 . S
C2643 H2633 0.929 . S
C2643 C2641 1.433 . S
C2643 N2646 1.384 . S
C2644 H2635 0.929 . S
C2644 C2636 1.378 . S
C2644 C2639 1.350 . S
C2645 H2632 0.929 . S
C2645 C2637 1.433 . S
C2645 N2647 1.384 . S
N2646 C2642 1.427 . S
N2646 C2643 1.384 . S
N2647 C2639 1.427 . S
N2647 C2645 1.384 . S
H2648 C2654 0.930 . S
H2649 C2658 0.930 . S
H2650 C2663 0.929 . S
H2651 C2661 0.926 1_554 S
H2652 C2656 0.929 . S
H2653 C2662 0.929 . S
C2654 H2648 0.930 . S
C2654 C2655 1.367 . S
C2654 C2662 1.378 . S
C2655 C2654 1.367 . S
C2655 C2663 1.433 . S
C2656 H2652 0.929 . S
C2656 C2658 1.378 1_556 S
C2656 C2660 1.350 . S
C2657 C2660 1.463 . S
C2657 C2662 1.350 . S
C2657 N2665 1.427 . S
C2658 H2649 0.930 . S
C2658 C2656 1.378 1_554 S
C2658 C2659 1.367 . S
C2659 C2658 1.367 . S
C2659 C2661 1.433 1_554 S
C2660 C2656 1.350 . S
C2660 C2657 1.463 . S
C2660 N2664 1.427 . S
C2661 H2651 0.926 1_556 S
C2661 C2659 1.433 1_556 S
C2661 N2664 1.384 . S
C2662 H2653 0.929 . S
C2662 C2654 1.378 . S
C2662 C2657 1.350 . S
C2663 H2650 0.929 . S
C2663 C2655 1.433 . S
C2663 N2665 1.384 . S
N2664 C2660 1.427 . S
N2664 C2661 1.384 . S
N2665 C2657 1.427 . S
N2665 C2663 1.384 . S
H2666 C2672 0.930 . S
H2667 C2676 0.930 . S
H2668 C2681 0.929 . S
H2669 C2679 0.929 . S
H2670 C2674 0.929 . S
H2671 C2680 0.929 . S
C2672 H2666 0.930 . S
C2672 C2673 1.367 . S
C2672 C2680 1.378 . S
C2673 C2672 1.367 . S
C2673 C2681 1.433 . S
C2674 H2670 0.929 . S
C2674 C2676 1.378 . S
C2674 C2678 1.350 . S
C2675 C2678 1.463 . S
C2675 C2680 1.350 . S
C2675 N2683 1.427 . S
C2676 H2667 0.930 . S
C2676 C2674 1.378 . S
C2676 C2677 1.367 . S
C2677 C2676 1.367 . S
C2677 C2679 1.433 . S
C2678 C2674 1.350 . S
C2678 C2675 1.463 . S
C2678 N2682 1.427 . S
C2679 H2669 0.929 . S
C2679 C2677 1.433 . S
C2679 N2682 1.384 . S
C2680 H2671 0.929 . S
C2680 C2672 1.378 . S
C2680 C2675 1.350 . S
C2681 H2668 0.929 . S
C2681 C2673 1.433 . S
C2681 N2683 1.384 . S
N2682 C2678 1.427 . S
N2682 C2679 1.384 . S
N2683 C2675 1.427 . S
N2683 C2681 1.384 . S
H2684 C2690 0.930 . S
H2685 C2694 0.930 . S
H2686 C2699 0.929 . S
H2687 C2697 0.929 . S
H2688 C2692 0.929 . S
H2689 C2698 0.929 . S
C2690 H2684 0.930 . S
C2690 C2691 1.367 . S
C2690 C2698 1.378 . S
C2691 C2690 1.367 . S
C2691 C2699 1.433 . S
C2692 H2688 0.929 . S
C2692 C2694 1.378 1_455 S
C2692 C2696 1.350 . S
C2693 C2696 1.463 . S
C2693 C2698 1.350 . S
C2693 N2701 1.427 . S
C2694 H2685 0.930 . S
C2694 C2692 1.378 1_655 S
C2694 C2695 1.367 . S
C2695 C2694 1.367 . S
C2695 C2697 1.433 1_655 S
C2696 C2692 1.350 . S
C2696 C2693 1.463 . S
C2696 N2700 1.427 . S
C2697 H2687 0.929 . S
C2697 C2695 1.433 1_455 S
C2697 N2700 1.384 . S
C2698 H2689 0.929 . S
C2698 C2690 1.378 . S
C2698 C2693 1.350 . S
C2699 H2686 0.929 . S
C2699 C2691 1.433 . S
C2699 N2701 1.384 . S
N2700 C2696 1.427 . S
N2700 C2697 1.384 . S
N2701 C2693 1.427 . S
N2701 C2699 1.384 . S
H2702 C2708 0.930 . S
H2703 C2712 0.930 . S
H2704 C2717 0.929 . S
H2705 C2715 0.929 . S
H2706 C2710 0.929 . S
H2707 C2716 0.929 . S
C2708 H2702 0.930 . S
C2708 C2709 1.367 . S
C2708 C2716 1.378 1_556 S
C2709 C2708 1.367 . S
C2709 C2717 1.433 1_556 S
C2710 H2706 0.929 . S
C2710 C2712 1.378 . S
C2710 C2714 1.350 . S
C2711 C2714 1.463 . S
C2711 C2716 1.350 . S
C2711 N2719 1.427 . S
C2712 H2703 0.930 . S
C2712 C2710 1.378 . S
C2712 C2713 1.367 . S
C2713 C2712 1.367 . S
C2713 C2715 1.433 . S
C2714 C2710 1.350 . S
C2714 C2711 1.463 . S
C2714 N2718 1.427 . S
C2715 H2705 0.929 . S
C2715 C2713 1.433 . S
C2715 N2718 1.384 . S
C2716 H2707 0.929 . S
C2716 C2708 1.378 1_554 S
C2716 C2711 1.350 . S
C2717 H2704 0.929 . S
C2717 C2709 1.433 1_554 S
C2717 N2719 1.384 . S
N2718 C2714 1.427 . S
N2718 C2715 1.384 . S
N2719 C2711 1.427 . S
N2719 C2717 1.384 . S
H2720 C2726 0.930 . S
H2721 C2730 0.930 . S
H2722 C2735 0.929 . S
H2723 C2733 0.929 . S
H2724 C2728 0.929 . S
H2725 C2734 0.929 . S
C2726 H2720 0.930 . S
C2726 C2727 1.367 . S
C2726 C2734 1.378 . S
C2727 C2726 1.367 . S
C2727 C2735 1.433 . S
C2728 H2724 0.929 . S
C2728 C2730 1.378 . S
C2728 C2732 1.350 . S
C2729 C2732 1.463 . S
C2729 C2734 1.350 . S
C2729 N2737 1.427 . S
C2730 H2721 0.930 . S
C2730 C2728 1.378 . S
C2730 C2731 1.367 . S
C2731 C2730 1.367 . S
C2731 C2733 1.433 . S
C2732 C2728 1.350 . S
C2732 C2729 1.463 . S
C2732 N2736 1.427 . S
C2733 H2723 0.929 . S
C2733 C2731 1.433 . S
C2733 N2736 1.384 . S
C2734 H2725 0.929 . S
C2734 C2726 1.378 . S
C2734 C2729 1.350 . S
C2735 H2722 0.929 . S
C2735 C2727 1.433 . S
C2735 N2737 1.384 . S
N2736 C2732 1.427 . S
N2736 C2733 1.384 . S
N2737 C2729 1.427 . S
N2737 C2735 1.384 . S
H2738 C2744 0.930 . S
H2739 C2748 0.930 . S
H2740 C2753 0.929 . S
H2741 C2751 0.929 . S
H2742 C2746 0.929 . S
H2743 C2752 0.929 . S
C2744 H2738 0.930 . S
C2744 C2745 1.367 . S
C2744 C2752 1.378 1_556 S
C2745 C2744 1.367 . S
C2745 C2753 1.433 . S
C2746 H2742 0.929 . S
C2746 C2748 1.378 . S
C2746 C2750 1.350 . S
C2747 C2750 1.463 . S
C2747 C2752 1.350 . S
C2747 N2755 1.427 1_554 S
C2748 H2739 0.930 . S
C2748 C2746 1.378 . S
C2748 C2749 1.367 . S
C2749 C2748 1.367 . S
C2749 C2751 1.433 . S
C2750 C2746 1.350 . S
C2750 C2747 1.463 . S
C2750 N2754 1.427 . S
C2751 H2741 0.929 . S
C2751 C2749 1.433 . S
C2751 N2754 1.384 . S
C2752 H2743 0.929 . S
C2752 C2744 1.378 1_554 S
C2752 C2747 1.350 . S
C2753 H2740 0.929 . S
C2753 C2745 1.433 . S
C2753 N2755 1.384 . S
N2754 C2750 1.427 . S
N2754 C2751 1.384 . S
N2755 C2747 1.427 1_556 S
N2755 C2753 1.384 . S
H2756 C2762 0.930 . S
H2757 C2766 0.930 . S
H2758 C2771 0.929 . S
H2759 C2769 0.929 . S
H2760 C2764 0.929 . S
H2761 C2770 0.929 . S
C2762 H2756 0.930 . S
C2762 C2763 1.367 . S
C2762 C2770 1.378 . S
C2763 C2762 1.367 . S
C2763 C2771 1.433 . S
C2764 H2760 0.929 . S
C2764 C2766 1.378 . S
C2764 C2768 1.350 . S
C2765 C2768 1.463 . S
C2765 C2770 1.350 . S
C2765 N2773 1.427 . S
C2766 H2757 0.930 . S
C2766 C2764 1.378 . S
C2766 C2767 1.367 . S
C2767 C2766 1.367 . S
C2767 C2769 1.433 . S
C2768 C2764 1.350 . S
C2768 C2765 1.463 . S
C2768 N2772 1.427 . S
C2769 H2759 0.929 . S
C2769 C2767 1.433 . S
C2769 N2772 1.384 . S
C2770 H2761 0.929 . S
C2770 C2762 1.378 . S
C2770 C2765 1.350 . S
C2771 H2758 0.929 . S
C2771 C2763 1.433 . S
C2771 N2773 1.384 . S
N2772 C2768 1.427 . S
N2772 C2769 1.384 . S
N2773 C2765 1.427 . S
N2773 C2771 1.384 . S
H2774 C2780 0.930 . S
H2775 C2784 0.930 . S
H2776 C2789 0.929 . S
H2777 C2787 0.929 . S
H2778 C2782 0.929 . S
H2779 C2788 0.929 . S
C2780 H2774 0.930 . S
C2780 C2781 1.367 . S
C2780 C2788 1.378 . S
C2781 C2780 1.367 . S
C2781 C2789 1.433 . S
C2782 H2778 0.929 . S
C2782 C2784 1.378 . S
C2782 C2786 1.350 . S
C2783 C2786 1.463 . S
C2783 C2788 1.350 . S
C2783 N2791 1.427 . S
C2784 H2775 0.930 . S
C2784 C2782 1.378 . S
C2784 C2785 1.367 . S
C2785 C2784 1.367 . S
C2785 C2787 1.433 . S
C2786 C2782 1.350 . S
C2786 C2783 1.463 . S
C2786 N2790 1.427 . S
C2787 H2777 0.929 . S
C2787 C2785 1.433 . S
C2787 N2790 1.384 . S
C2788 H2779 0.929 . S
C2788 C2780 1.378 . S
C2788 C2783 1.350 . S
C2789 H2776 0.929 . S
C2789 C2781 1.433 . S
C2789 N2791 1.384 . S
N2790 C2786 1.427 . S
N2790 C2787 1.384 . S
N2791 C2783 1.427 . S
N2791 C2789 1.384 . S
H2792 C2798 0.930 . S
H2793 C2802 0.930 . S
H2794 C2807 0.929 . S
H2795 C2805 0.929 . S
H2796 C2800 0.929 . S
H2797 C2806 0.929 . S
C2798 H2792 0.930 . S
C2798 C2799 1.367 . S
C2798 C2806 1.378 . S
C2799 C2798 1.367 . S
C2799 C2807 1.433 . S
C2800 H2796 0.929 . S
C2800 C2802 1.378 . S
C2800 C2804 1.350 . S
C2801 C2804 1.463 . S
C2801 C2806 1.350 . S
C2801 N2809 1.427 . S
C2802 H2793 0.930 . S
C2802 C2800 1.378 . S
C2802 C2803 1.367 . S
C2803 C2802 1.367 . S
C2803 C2805 1.433 . S
C2804 C2800 1.350 . S
C2804 C2801 1.463 . S
C2804 N2808 1.427 . S
C2805 H2795 0.929 . S
C2805 C2803 1.433 . S
C2805 N2808 1.384 . S
C2806 H2797 0.929 . S
C2806 C2798 1.378 . S
C2806 C2801 1.350 . S
C2807 H2794 0.929 . S
C2807 C2799 1.433 . S
C2807 N2809 1.384 . S
N2808 C2804 1.427 . S
N2808 C2805 1.384 . S
N2809 C2801 1.427 . S
N2809 C2807 1.384 . S
H2810 C2816 0.930 . S
H2811 C2820 0.930 . S
H2812 C2825 0.929 . S
H2813 C2823 0.929 . S
H2814 C2818 0.929 . S
H2815 C2824 0.929 . S
C2816 H2810 0.930 . S
C2816 C2817 1.367 . S
C2816 C2824 1.378 . S
C2817 C2816 1.367 . S
C2817 C2825 1.433 . S
C2818 H2814 0.929 . S
C2818 C2820 1.378 . S
C2818 C2822 1.350 . S
C2819 C2822 1.463 . S
C2819 C2824 1.350 . S
C2819 N2827 1.427 . S
C2820 H2811 0.930 . S
C2820 C2818 1.378 . S
C2820 C2821 1.367 . S
C2821 C2820 1.367 . S
C2821 C2823 1.433 . S
C2822 C2818 1.350 . S
C2822 C2819 1.463 . S
C2822 N2826 1.427 . S
C2823 H2813 0.929 . S
C2823 C2821 1.433 . S
C2823 N2826 1.384 . S
C2824 H2815 0.929 . S
C2824 C2816 1.378 . S
C2824 C2819 1.350 . S
C2825 H2812 0.929 . S
C2825 C2817 1.433 . S
C2825 N2827 1.384 . S
N2826 C2822 1.427 . S
N2826 C2823 1.384 . S
N2827 C2819 1.427 . S
N2827 C2825 1.384 . S
H2828 C2834 0.930 . S
H2829 C2838 0.930 . S
H2830 C2843 0.929 . S
H2831 C2841 0.929 . S
H2832 C2836 0.929 . S
H2833 C2842 0.929 . S
C2834 H2828 0.930 . S
C2834 C2835 1.367 . S
C2834 C2842 1.378 1_556 S
C2835 C2834 1.367 . S
C2835 C2843 1.433 . S
C2836 H2832 0.929 . S
C2836 C2838 1.378 . S
C2836 C2840 1.350 . S
C2837 C2840 1.463 . S
C2837 C2842 1.350 . S
C2837 N2845 1.427 1_554 S
C2838 H2829 0.930 . S
C2838 C2836 1.378 . S
C2838 C2839 1.367 . S
C2839 C2838 1.367 . S
C2839 C2841 1.433 . S
C2840 C2836 1.350 . S
C2840 C2837 1.463 . S
C2840 N2844 1.427 . S
C2841 H2831 0.929 . S
C2841 C2839 1.433 . S
C2841 N2844 1.384 . S
C2842 H2833 0.929 . S
C2842 C2834 1.378 1_554 S
C2842 C2837 1.350 . S
C2843 H2830 0.929 . S
C2843 C2835 1.433 . S
C2843 N2845 1.384 . S
N2844 C2840 1.427 . S
N2844 C2841 1.384 . S
N2845 C2837 1.427 1_556 S
N2845 C2843 1.384 . S
H2846 C2852 0.930 . S
H2847 C2856 0.930 . S
H2848 C2861 0.929 . S
H2849 C2859 0.929 . S
H2850 C2854 0.929 . S
H2851 C2860 0.929 . S
C2852 H2846 0.930 . S
C2852 C2853 1.367 . S
C2852 C2860 1.378 . S
C2853 C2852 1.367 . S
C2853 C2861 1.433 . S
C2854 H2850 0.929 . S
C2854 C2856 1.378 . S
C2854 C2858 1.350 . S
C2855 C2858 1.463 . S
C2855 C2860 1.350 . S
C2855 N2863 1.427 . S
C2856 H2847 0.930 . S
C2856 C2854 1.378 . S
C2856 C2857 1.367 . S
C2857 C2856 1.367 . S
C2857 C2859 1.433 . S
C2858 C2854 1.350 . S
C2858 C2855 1.463 . S
C2858 N2862 1.427 . S
C2859 H2849 0.929 . S
C2859 C2857 1.433 . S
C2859 N2862 1.384 . S
C2860 H2851 0.929 . S
C2860 C2852 1.378 . S
C2860 C2855 1.350 . S
C2861 H2848 0.929 . S
C2861 C2853 1.433 . S
C2861 N2863 1.384 . S
N2862 C2858 1.427 . S
N2862 C2859 1.384 . S
N2863 C2855 1.427 . S
N2863 C2861 1.384 . S
H2864 C2870 0.908 1_545 S
H2865 C2874 0.936 . S
H2866 C2879 0.929 . S
H2867 C2877 0.929 . S
H2868 C2872 0.929 . S
H2869 C2878 0.929 . S
C2870 H2864 0.908 1_565 S
C2870 C2871 1.367 . S
C2870 C2878 1.378 1_565 S
C2871 C2870 1.367 . S
C2871 C2879 1.433 . S
C2872 H2868 0.929 . S
C2872 C2874 1.384 . S
C2872 C2876 1.350 1_565 S
C2873 C2876 1.463 1_565 S
C2873 C2878 1.350 1_565 S
C2873 N2881 1.427 . S
C2874 H2865 0.936 . S
C2874 C2872 1.384 . S
C2874 C2875 1.355 1_565 S
C2875 C2874 1.355 1_545 S
C2875 C2877 1.433 . S
C2876 C2872 1.350 1_545 S
C2876 C2873 1.463 1_545 S
C2876 N2880 1.427 . S
C2877 H2867 0.929 . S
C2877 C2875 1.433 . S
C2877 N2880 1.384 . S
C2878 H2869 0.929 . S
C2878 C2870 1.378 1_545 S
C2878 C2873 1.350 1_545 S
C2879 H2866 0.929 . S
C2879 C2871 1.433 . S
C2879 N2881 1.384 . S
N2880 C2876 1.427 . S
N2880 C2877 1.384 . S
N2881 C2873 1.427 . S
N2881 C2879 1.384 . S
H2882 C2888 0.930 . S
H2883 C2892 0.930 . S
H2884 C2897 0.929 . S
H2885 C2895 0.929 . S
H2886 C2890 0.929 . S
H2887 C2896 0.929 . S
C2888 H2882 0.930 . S
C2888 C2889 1.367 . S
C2888 C2896 1.378 . S
C2889 C2888 1.367 . S
C2889 C2897 1.433 . S
C2890 H2886 0.929 . S
C2890 C2892 1.378 . S
C2890 C2894 1.350 . S
C2891 C2894 1.463 . S
C2891 C2896 1.350 . S
C2891 N2899 1.427 . S
C2892 H2883 0.930 . S
C2892 C2890 1.378 . S
C2892 C2893 1.367 . S
C2893 C2892 1.367 . S
C2893 C2895 1.433 . S
C2894 C2890 1.350 . S
C2894 C2891 1.463 . S
C2894 N2898 1.427 . S
C2895 H2885 0.929 . S
C2895 C2893 1.433 . S
C2895 N2898 1.384 . S
C2896 H2887 0.929 . S
C2896 C2888 1.378 . S
C2896 C2891 1.350 . S
C2897 H2884 0.929 . S
C2897 C2889 1.433 . S
C2897 N2899 1.384 . S
N2898 C2894 1.427 . S
N2898 C2895 1.384 . S
N2899 C2891 1.427 . S
N2899 C2897 1.384 . S
H2900 C2906 0.930 . S
H2901 C2910 0.930 . S
H2902 C2915 0.929 . S
H2903 C2913 0.929 . S
H2904 C2908 0.929 . S
H2905 C2914 0.929 . S
C2906 H2900 0.930 . S
C2906 C2907 1.367 . S
C2906 C2914 1.378 . S
C2907 C2906 1.367 . S
C2907 C2915 1.433 . S
C2908 H2904 0.929 . S
C2908 C2910 1.378 . S
C2908 C2912 1.350 1_565 S
C2909 C2912 1.463 . S
C2909 C2914 1.350 . S
C2909 N2917 1.427 . S
C2910 H2901 0.930 . S
C2910 C2908 1.378 . S
C2910 C2911 1.367 . S
C2911 C2910 1.367 . S
C2911 C2913 1.433 1_565 S
C2912 C2908 1.350 1_545 S
C2912 C2909 1.463 . S
C2912 N2916 1.427 . S
C2913 H2903 0.929 . S
C2913 C2911 1.433 1_545 S
C2913 N2916 1.384 . S
C2914 H2905 0.929 . S
C2914 C2906 1.378 . S
C2914 C2909 1.350 . S
C2915 H2902 0.929 . S
C2915 C2907 1.433 . S
C2915 N2917 1.384 . S
N2916 C2912 1.427 . S
N2916 C2913 1.384 . S
N2917 C2909 1.427 . S
N2917 C2915 1.384 . S
H2918 C2924 0.930 . S
H2919 C2928 0.930 . S
H2920 C2933 0.929 . S
H2921 C2931 0.929 . S
H2922 C2926 0.929 . S
H2923 C2932 0.929 . S
C2924 H2918 0.930 . S
C2924 C2925 1.367 . S
C2924 C2932 1.378 . S
C2925 C2924 1.367 . S
C2925 C2933 1.433 . S
C2926 H2922 0.929 . S
C2926 C2928 1.378 . S
C2926 C2930 1.350 . S
C2927 C2930 1.463 . S
C2927 C2932 1.350 . S
C2927 N2935 1.427 . S
C2928 H2919 0.930 . S
C2928 C2926 1.378 . S
C2928 C2929 1.367 . S
C2929 C2928 1.367 . S
C2929 C2931 1.433 . S
C2930 C2926 1.350 . S
C2930 C2927 1.463 . S
C2930 N2934 1.427 . S
C2931 H2921 0.929 . S
C2931 C2929 1.433 . S
C2931 N2934 1.384 . S
C2932 H2923 0.929 . S
C2932 C2924 1.378 . S
C2932 C2927 1.350 . S
C2933 H2920 0.929 . S
C2933 C2925 1.433 . S
C2933 N2935 1.384 . S
N2934 C2930 1.427 . S
N2934 C2931 1.384 . S
N2935 C2927 1.427 . S
N2935 C2933 1.384 . S
H2936 C2942 0.930 . S
H2937 C2946 0.930 . S
H2938 C2951 0.929 . S
H2939 C2949 0.929 . S
H2940 C2944 0.901 1_565 S
H2941 C2950 0.930 . S
C2942 H2936 0.930 . S
C2942 C2943 1.367 . S
C2942 C2950 1.376 1_565 S
C2943 C2942 1.367 . S
C2943 C2951 1.433 . S
C2944 H2940 0.901 1_545 S
C2944 C2946 1.378 1_554 S
C2944 C2948 1.350 . S
C2945 C2948 1.463 1_565 S
C2945 C2950 1.350 1_565 S
C2945 N2953 1.427 . S
C2946 H2937 0.930 . S
C2946 C2944 1.378 1_556 S
C2946 C2947 1.367 . S
C2947 C2946 1.367 . S
C2947 C2949 1.433 . S
C2948 C2944 1.350 . S
C2948 C2945 1.463 1_545 S
C2948 N2952 1.427 . S
C2949 H2939 0.929 . S
C2949 C2947 1.433 . S
C2949 N2952 1.384 1_556 S
C2950 H2941 0.930 . S
C2950 C2942 1.376 1_545 S
C2950 C2945 1.350 1_545 S
C2951 H2938 0.929 . S
C2951 C2943 1.433 . S
C2951 N2953 1.384 . S
N2952 C2948 1.427 . S
N2952 C2949 1.384 1_554 S
N2953 C2945 1.427 . S
N2953 C2951 1.384 . S
H2954 C2960 0.930 . S
H2955 C2964 0.930 . S
H2956 C2969 0.929 . S
H2957 C2967 0.929 . S
H2958 C2962 0.929 . S
H2959 C2968 0.929 . S
C2960 H2954 0.930 . S
C2960 C2961 1.367 . S
C2960 C2968 1.378 . S
C2961 C2960 1.367 . S
C2961 C2969 1.433 . S
C2962 H2958 0.929 . S
C2962 C2964 1.378 . S
C2962 C2966 1.350 . S
C2963 C2966 1.463 . S
C2963 C2968 1.350 . S
C2963 N2971 1.427 . S
C2964 H2955 0.930 . S
C2964 C2962 1.378 . S
C2964 C2965 1.367 . S
C2965 C2964 1.367 . S
C2965 C2967 1.433 . S
C2966 C2962 1.350 . S
C2966 C2963 1.463 . S
C2966 N2970 1.427 . S
C2967 H2957 0.929 . S
C2967 C2965 1.433 . S
C2967 N2970 1.384 . S
C2968 H2959 0.929 . S
C2968 C2960 1.378 . S
C2968 C2963 1.350 . S
C2969 H2956 0.929 . S
C2969 C2961 1.433 . S
C2969 N2971 1.384 . S
N2970 C2966 1.427 . S
N2970 C2967 1.384 . S
N2971 C2963 1.427 . S
N2971 C2969 1.384 . S
H2972 C2978 0.930 . S
H2973 C2982 0.930 . S
H2974 C2987 0.929 . S
H2975 C2985 0.929 . S
H2976 C2980 0.929 . S
H2977 C2986 0.929 . S
C2978 H2972 0.930 . S
C2978 C2979 1.367 . S
C2978 C2986 1.378 . S
C2979 C2978 1.367 . S
C2979 C2987 1.433 . S
C2980 H2976 0.929 . S
C2980 C2982 1.378 . S
C2980 C2984 1.350 1_545 S
C2981 C2984 1.463 . S
C2981 C2986 1.350 . S
C2981 N2989 1.427 . S
C2982 H2973 0.930 . S
C2982 C2980 1.378 . S
C2982 C2983 1.367 . S
C2983 C2982 1.367 . S
C2983 C2985 1.433 1_545 S
C2984 C2980 1.350 1_565 S
C2984 C2981 1.463 . S
C2984 N2988 1.427 . S
C2985 H2975 0.929 . S
C2985 C2983 1.433 1_565 S
C2985 N2988 1.384 . S
C2986 H2977 0.929 . S
C2986 C2978 1.378 . S
C2986 C2981 1.350 . S
C2987 H2974 0.929 . S
C2987 C2979 1.433 . S
C2987 N2989 1.384 . S
N2988 C2984 1.427 . S
N2988 C2985 1.384 . S
N2989 C2981 1.427 . S
N2989 C2987 1.384 . S
H2990 C2996 0.930 . S
H2991 C3000 0.930 . S
H2992 C3005 0.929 . S
H2993 C3003 0.929 . S
H2994 C2998 0.929 . S
H2995 C3004 0.929 . S
C2996 H2990 0.930 . S
C2996 C2997 1.367 . S
C2996 C3004 1.378 . S
C2997 C2996 1.367 . S
C2997 C3005 1.433 . S
C2998 H2994 0.929 . S
C2998 C3000 1.378 . S
C2998 C3002 1.350 . S
C2999 C3002 1.463 . S
C2999 C3004 1.350 . S
C2999 N3007 1.427 . S
C3000 H2991 0.930 . S
C3000 C2998 1.378 . S
C3000 C3001 1.367 . S
C3001 C3000 1.367 . S
C3001 C3003 1.433 . S
C3002 C2998 1.350 . S
C3002 C2999 1.463 . S
C3002 N3006 1.427 . S
C3003 H2993 0.929 . S
C3003 C3001 1.433 . S
C3003 N3006 1.384 . S
C3004 H2995 0.929 . S
C3004 C2996 1.378 . S
C3004 C2999 1.350 . S
C3005 H2992 0.929 . S
C3005 C2997 1.433 . S
C3005 N3007 1.384 . S
N3006 C3002 1.427 . S
N3006 C3003 1.384 . S
N3007 C2999 1.427 . S
N3007 C3005 1.384 . S
C1287 C2 0.293 . S
C1291 C176 0.211 . S
C1305 C216 0.252 . S
C1309 C42 0.355 . S
C1323 C82 0.279 . S
C1327 C256 0.271 . S
C1341 C296 0.329 . S
C1345 C136 0.411 . S
C1359 C331 0.287 . S
C1363 C487 0.218 . S
C1377 C371 0.305 . S
C1381 C527 0.283 . S
C1395 C567 0.295 . S
C1399 C411 0.257 . S
C1413 C447 0.397 . S
C1417 C607 0.318 . S
C1431 C816 0.202 . S
C1435 C642 0.335 . S
C1449 C682 0.329 . S
C1453 C856 0.254 . S
C1467 C722 0.234 . S
C1471 C896 0.295 . S
C1485 C776 0.384 . S
C1489 C936 0.361 . S
C1503 C971 0.328 . S
C1507 C1127 0.194 . S
C1521 C1167 0.279 . S
C1525 C1011 0.306 . S
C1539 C1051 0.258 . S
C1543 C1207 0.294 . S
C1557 C1247 0.352 . S
C1561 C1087 0.412 . S
C1575 C850 1.882 . S
C1579 C19 1.853 . S
C1593 C890 1.435 . S
C1597 C59 1.425 . S
C1611 C930 1.925 . S
C1615 C99 1.906 . S
C1629 C130 1.334 . S
C1633 C810 1.350 . S
C1647 C170 1.354 . S
C1651 C770 1.345 . S
C1665 C659 1.840 . S
C1669 C210 1.869 . S
C1683 C250 1.427 . S
C1687 C699 1.419 . S
C1701 C290 1.920 . S
C1705 C739 1.897 . S
C1719 C330 1.857 . S
C1723 C1179 1.885 . S
C1737 C1219 1.418 . S
C1741 C370 1.406 . S
C1755 C1259 1.913 . S
C1759 C410 1.892 . S
C1773 C459 1.351 . S
C1777 C1139 1.347 . S
C1791 C499 1.350 . S
C1795 C1099 1.334 . S
C1809 C539 1.881 . S
C1813 C970 1.854 . S
C1827 C579 1.432 . S
C1831 C1010 1.420 . S
C1845 C619 1.928 . S
C1849 C1050 1.906 . S
C1863 C339 0.806 . S
C1867 C10 0.806 . S
C1881 C50 0.694 . S
C1885 C1019 0.694 . S
C1899 C419 0.672 . S
C1903 C90 0.672 . S
C1917 C139 0.689 . S
C1921 C1090 0.689 . S
C1935 C490 0.453 . S
C1939 C179 0.453 . S
C1953 C1170 0.579 . S
C1957 C219 0.579 . S
C1971 C259 0.500 . S
C1975 C570 0.500 . S
C1989 C299 0.685 . S
C1993 C1250 0.685 . S
C2007 C690 0.729 . S
C2011 C379 0.729 . S
C2025 C779 0.730 . S
C2029 C450 0.730 . S
C2043 C530 0.563 . S
C2047 C859 0.563 . S
C2061 C939 0.714 . S
C2065 C610 0.714 . S
C2079 C979 0.812 . S
C2083 C650 0.812 . S
C2097 C1059 0.674 . S
C2101 C730 0.674 . S
C2115 C1130 0.440 . S
C2119 C819 0.440 . S
C2133 C899 0.508 . S
C2137 C1210 0.508 . S
C2151 C11 2.212 . S
C2155 C482 2.231 . S
C2169 C1162 1.943 . S
C2173 C51 1.923 . S
C2187 C562 2.230 . S
C2191 C91 2.211 . S
C2205 C127 1.338 . S
C2209 C1242 1.359 . S
C2223 C336 0.807 1_556 S
C2227 C167 0.828 . S
C2241 C1016 0.984 . S
C2245 C207 0.982 . S
C2259 C416 0.767 . S
C2263 C247 0.750 . S
C2277 C1082 1.633 . S
C2281 C287 1.611 . S
C2295 C171 2.230 . S
C2299 C322 2.205 . S
C2313 C851 1.937 . S
C2317 C362 1.919 . S
C2331 C251 2.229 1_556 S
C2335 C402 2.208 . S
C2349 C456 1.332 . S
C2353 C931 1.364 . S
C2367 C7 0.836 . S
C2371 C496 0.818 . S
C2385 C687 0.991 . S
C2389 C536 0.974 . S
C2403 C576 0.747 . S
C2407 C87 0.764 . S
C2421 C616 1.606 . S
C2425 C771 1.631 . S
C2439 C1122 2.228 . S
C2443 C651 2.212 . S
C2457 C522 1.937 . S
C2461 C691 1.923 . S
C2475 C731 2.208 . S
C2479 C1202 2.234 . S
C2493 C602 1.362 . S
C2497 C767 1.324 . S
C2511 C807 0.823 . S
C2515 C976 0.818 . S
C2529 C847 0.974 . S
C2533 C376 0.991 . S
C2547 C1056 0.753 . S
C2551 C887 0.769 . S
C2565 C442 1.632 . S
C2569 C927 1.608 . S
C2583 C962 2.208 . S
C2587 C811 2.226 1_556 S
C2601 C1002 1.921 . S
C2605 C211 1.943 . S
C2619 C1042 2.211 . S
C2623 C891 2.232 . S
C2637 C1096 1.326 . S
C2641 C291 1.354 . S
C2655 C647 0.818 . S
C2659 C1136 0.827 . S
C2673 C47 0.987 . S
C2677 C1176 0.993 . S
C2691 C1216 0.769 . S
C2695 C727 0.753 . S
C2709 C131 1.635 . S
C2713 C1256 1.601 . S
C2727 C162 2.370 . S
C2731 C16 2.323 . S
C2745 C202 2.292 . S
C2749 C56 2.267 . S
C2763 C96 2.293 . S
C2767 C242 2.331 . S
C2781 C282 3.136 . S
C2785 C122 3.147 . S
C2799 C491 2.370 . S
C2803 C327 2.323 . S
C2817 C367 2.271 . S
C2821 C531 2.291 . S
C2835 C407 2.296 . S
C2839 C571 2.329 . S
C2853 C611 3.137 . S
C2857 C451 3.145 . S
C2871 C656 2.327 . S
C2875 C802 2.368 . S
C2889 C842 2.293 . S
C2893 C696 2.268 . S
C2907 C736 2.292 . S
C2911 C882 2.331 . S
C2925 C762 3.148 . S
C2929 C922 3.137 1_554 S
C2943 C1131 2.369 . S
C2947 C967 2.329 . S
C2961 C1171 2.290 . S
C2965 C1007 2.273 . S
C2979 C1047 2.293 . S
C2983 C1211 2.330 . S
C2997 C1251 3.138 . S
C3001 C1091 3.149 . S
