# Generated by pormake.
# Topology msp, (4)-cn, num edge types: 1
# Building blocks:
#     Node 0, Type 0, BuildingBlock: CEKHIL_clean_sbu_0, # of connection points: 4
#     Node 1, Type 0, BuildingBlock: CEKHIL_clean_sbu_0, # of connection points: 4
#     Node 2, Type 0, BuildingBlock: CEKHIL_clean_sbu_0, # of connection points: 4
#     Node 3, Type 0, BuildingBlock: CEKHIL_clean_sbu_0, # of connection points: 4
#     Node 4, Type 0, BuildingBlock: CEKHIL_clean_sbu_0, # of connection points: 4
#     Node 5, Type 0, BuildingBlock: CEKHIL_clean_sbu_0, # of connection points: 4
#     Node 6, Type 0, BuildingBlock: CEKHIL_clean_sbu_0, # of connection points: 4
#     Node 7, Type 0, BuildingBlock: CEKHIL_clean_sbu_0, # of connection points: 4
#     Edge 8, Type (0, 0), BuildingBlock: AJUNOK_clean_linker_0, # of connection points: 2
#     Edge 9, Type (0, 0), BuildingBlock: AJUNOK_clean_linker_0, # of connection points: 2
#     Edge 10, Type (0, 0), BuildingBlock: AJUNOK_clean_linker_0, # of connection points: 2
#     Edge 11, Type (0, 0), BuildingBlock: AJUNOK_clean_linker_0, # of connection points: 2
#     Edge 12, Type (0, 0), BuildingBlock: AJUNOK_clean_linker_0, # of connection points: 2
#     Edge 13, Type (0, 0), BuildingBlock: AJUNOK_clean_linker_0, # of connection points: 2
#     Edge 14, Type (0, 0), BuildingBlock: AJUNOK_clean_linker_0, # of connection points: 2
#     Edge 15, Type (0, 0), BuildingBlock: AJUNOK_clean_linker_0, # of connection points: 2
#     Edge 16, Type (0, 0), BuildingBlock: AJUNOK_clean_linker_0, # of connection points: 2
#     Edge 17, Type (0, 0), BuildingBlock: AJUNOK_clean_linker_0, # of connection points: 2
#     Edge 18, Type (0, 0), BuildingBlock: AJUNOK_clean_linker_0, # of connection points: 2
#     Edge 19, Type (0, 0), BuildingBlock: AJUNOK_clean_linker_0, # of connection points: 2
#     Edge 20, Type (0, 0), BuildingBlock: AJUNOK_clean_linker_0, # of connection points: 2
#     Edge 21, Type (0, 0), BuildingBlock: AJUNOK_clean_linker_0, # of connection points: 2
#     Edge 22, Type (0, 0), BuildingBlock: AJUNOK_clean_linker_0, # of connection points: 2
#     Edge 23, Type (0, 0), BuildingBlock: AJUNOK_clean_linker_0, # of connection points: 2
# Relax obj value: 0.162
# Max RMSD: 0.207
# Mean RMSD: 0.207
data_MOF--net-msp--node1-CEKHIL_clean_sbu_0--edge1-AJUNOK_clean_linker_0
_symmetry_space_group_name_H-M    P1
_symmetry_Int_Tables_number       1
_symmetry_cell_setting            triclinic
loop_
_symmetry_equiv_pos_as_xyz
'x, y, z'
_cell_length_a     17.155968
_cell_length_b     16.726113
_cell_length_c     28.966694
_cell_angle_alpha  90.059133
_cell_angle_beta   97.79078
_cell_angle_gamma 90.024648
loop_
_atom_site_label
_atom_site_type_symbol
_atom_site_fract_x
_atom_site_fract_y
_atom_site_fract_z
_atom_type_partial_charge
Co0 Co 0.99605 0.32053 0.35402 0.0
O1 O 0.91359 0.35816 0.30809 0.0
O2 O 0.93202 0.23129 0.32753 0.0
C3 C 0.97681 0.41134 0.40927 0.0
O4 O 0.07541 0.26293 0.40115 0.0
Co5 Co 0.13254 0.44354 0.38364 0.0
O6 O 0.16719 0.35562 0.42724 0.0
C7 C 0.1409 0.33539 0.30345 0.0
C8 C 0.88905 0.28515 0.30351 0.0
C9 C 0.13904 0.28493 0.42674 0.0
O10 O 0.07189 0.30687 0.3067 0.0
O11 O 0.17142 0.39339 0.32848 0.0
O12 O 0.93397 0.3473 0.40391 0.0
O13 O 0.02182 0.42283 0.37772 0.0
Co14 Co 0.50603 0.3216 0.63153 0.0
O15 O 0.59155 0.35643 0.67669 0.0
O16 O 0.56717 0.23036 0.6566 0.0
C17 C 0.52422 0.41192 0.57595 0.0
O18 O 0.42381 0.26532 0.5854 0.0
Co19 Co 0.36985 0.44503 0.60464 0.0
O20 O 0.33124 0.35799 0.56132 0.0
C21 C 0.36482 0.33819 0.68521 0.0
C22 C 0.61244 0.28211 0.68091 0.0
C23 C 0.35903 0.2873 0.56111 0.0
O24 O 0.43301 0.30971 0.68026 0.0
O25 O 0.33183 0.39493 0.66017 0.0
O26 O 0.56628 0.34729 0.58085 0.0
O27 O 0.48079 0.42432 0.60832 0.0
Co28 Co 1.00111 0.68263 0.6383 0.0
O29 O 0.08791 0.64675 0.68222 0.0
O30 O 0.06458 0.7731 0.66284 0.0
C31 C 0.0147 0.59416 0.58114 0.0
O32 O 0.9182 0.7395 0.59298 0.0
Co33 Co 0.86319 0.56009 0.61347 0.0
O34 O 0.82181 0.64894 0.57231 0.0
C35 C 0.86405 0.66446 0.69553 0.0
C36 C 0.11021 0.72072 0.68626 0.0
C37 C 0.85119 0.71879 0.57068 0.0
O38 O 0.93047 0.69494 0.68848 0.0
O39 O 0.83082 0.60672 0.6714 0.0
O40 O 0.05849 0.65755 0.58646 0.0
O41 O 0.97381 0.58021 0.61456 0.0
Co42 Co 0.51634 0.68263 0.3473 0.0
O43 O 0.43362 0.64516 0.30104 0.0
O44 O 0.45416 0.772 0.32071 0.0
C45 C 0.49865 0.59455 0.40377 0.0
O46 O 0.59463 0.741 0.39485 0.0
Co47 Co 0.65506 0.56342 0.37545 0.0
O48 O 0.69031 0.65151 0.41885 0.0
C49 C 0.65915 0.6675 0.29416 0.0
C50 C 0.41111 0.71893 0.29606 0.0
C51 C 0.65963 0.72086 0.41963 0.0
O52 O 0.59134 0.69593 0.2998 0.0
O53 O 0.69221 0.61035 0.3188 0.0
O54 O 0.45407 0.65708 0.39663 0.0
O55 O 0.54331 0.58096 0.37204 0.0
Co56 Co 0.51283 0.82267 0.85355 0.0
O57 O 0.43638 0.86454 0.80499 0.0
O58 O 0.45027 0.73651 0.82291 0.0
C59 C 0.48847 0.91224 0.90833 0.0
O60 O 0.58479 0.75895 0.9019 0.0
Co61 Co 0.65213 0.93072 0.89704 0.0
O62 O 0.65419 0.85014 0.94735 0.0
C63 C 0.66725 0.83438 0.8126 0.0
C64 C 0.41129 0.79193 0.79799 0.0
C65 C 0.63196 0.7784 0.93849 0.0
O66 O 0.59517 0.81053 0.81027 0.0
O67 O 0.69859 0.8845 0.84304 0.0
O68 O 0.44414 0.8496 0.90001 0.0
O69 O 0.54023 0.92226 0.88044 0.0
Co70 Co 0.00598 0.81858 0.12973 0.0
O71 O 0.0868 0.86125 0.17524 0.0
O72 O 0.07133 0.73278 0.1586 0.0
C73 C 0.02397 0.90708 0.07326 0.0
O74 O 0.9289 0.75491 0.08406 0.0
Co75 Co 0.86429 0.92922 0.09232 0.0
O76 O 0.853 0.84671 0.04272 0.0
C77 C 0.85953 0.83384 0.17823 0.0
C78 C 0.11248 0.78889 0.18181 0.0
C79 C 0.87643 0.77494 0.05007 0.0
O80 O 0.92973 0.80715 0.17672 0.0
O81 O 0.82575 0.88499 0.14931 0.0
O82 O 0.06857 0.84441 0.08006 0.0
O83 O 0.97645 0.91795 0.10355 0.0
Co84 Co 0.48397 0.17302 0.14052 0.0
O85 O 0.56731 0.13483 0.18636 0.0
O86 O 0.54481 0.26205 0.16858 0.0
C87 C 0.50301 0.0881 0.08265 0.0
O88 O 0.40552 0.23296 0.09392 0.0
Co89 Co 0.34609 0.05413 0.10953 0.0
O90 O 0.30943 0.14467 0.06851 0.0
C91 C 0.33983 0.15492 0.19214 0.0
C92 C 0.58875 0.20885 0.19239 0.0
C93 C 0.34013 0.21418 0.06908 0.0
O94 O 0.40847 0.18287 0.18792 0.0
O95 O 0.30651 0.09985 0.16582 0.0
O96 O 0.54682 0.15097 0.09109 0.0
O97 O 0.45798 0.07215 0.11387 0.0
Co98 Co 0.01768 0.17215 0.84336 0.0
O99 O 0.93844 0.13208 0.79595 0.0
O100 O 0.95445 0.25965 0.81494 0.0
C101 C 0.997 0.08398 0.89936 0.0
O102 O 0.09197 0.23298 0.89187 0.0
Co103 Co 0.15615 0.05427 0.87752 0.0
O104 O 0.18707 0.14517 0.91977 0.0
C105 C 0.1665 0.1577 0.79612 0.0
C106 C 0.91326 0.20486 0.79059 0.0
C107 C 0.1557 0.21444 0.91839 0.0
O108 O 0.09699 0.18579 0.79819 0.0
O109 O 0.19696 0.10104 0.82215 0.0
O110 O 0.95198 0.14595 0.89113 0.0
O111 O 0.04451 0.07138 0.86919 0.0
C112 C 0.96679 0.42568 0.49413 0.0
C113 C 0.98292 0.46002 0.4521 0.0
C114 C 0.97686 0.46954 0.53583 0.0
C115 C 0.00359 0.54904 0.53686 0.0
H116 H 0.94794 0.36394 0.49506 0.0
H117 H 0.96491 0.44058 0.56757 0.0
S118 S 0.0445 0.66909 0.43506 0.0
N119 N 0.02073 0.57972 0.4133 0.0
N120 N 0.03946 0.66239 0.49144 0.0
C121 C 0.01762 0.5847 0.49476 0.0
C122 C 0.00737 0.54007 0.45241 0.0
C123 C 0.54757 0.47756 0.45313 0.0
C124 C 0.50477 0.54932 0.44803 0.0
C125 C 0.55446 0.43419 0.49489 0.0
C126 C 0.51901 0.46109 0.53317 0.0
H127 H 0.5755 0.45427 0.42455 0.0
H128 H 0.58714 0.37862 0.49688 0.0
S129 S 0.40468 0.64825 0.53884 0.0
N130 N 0.42895 0.64718 0.48563 0.0
N131 N 0.44258 0.56596 0.56399 0.0
C132 C 0.47732 0.53355 0.52886 0.0
C133 C 0.47 0.57757 0.48632 0.0
C134 C 0.45128 0.97632 0.02935 0.0
C135 C 0.49881 0.04472 0.03775 0.0
C136 C 0.44668 0.93478 0.98693 0.0
C137 C 0.48933 0.96023 0.95137 0.0
H138 H 0.41786 0.95423 0.05582 0.0
H139 H 0.41041 0.88159 0.98236 0.0
S140 S 0.61831 0.13898 0.95463 0.0
N141 N 0.58692 0.13795 0.00599 0.0
N142 N 0.57739 0.06056 0.92648 0.0
C143 C 0.53551 0.02965 0.9589 0.0
C144 C 0.54052 0.07167 0.00204 0.0
C145 C 0.05499 0.92726 -0.00781 0.0
C146 C 0.01848 0.95454 0.02992 0.0
C147 C 0.04714 0.9691 0.94991 0.0
C148 C 0.00239 0.03963 0.9438 0.0
H149 H 0.08917 0.87263 -0.00496 0.0
H150 H 0.0761 0.94571 0.92177 0.0
S151 S 0.89844 0.13865 0.03277 0.0
N152 N 0.93853 0.05826 0.05908 0.0
N153 N 0.92321 0.13649 0.9797 0.0
C154 C 0.96625 0.06804 0.98145 0.0
C155 C 0.97452 0.02564 0.0245 0.0
C156 C 0.71665 0.1691 0.23906 0.0
C157 C 0.66329 0.22988 0.22217 0.0
C158 C 0.78971 0.18713 0.26505 0.0
C159 C 0.81243 0.26668 0.27504 0.0
H160 H 0.70247 0.10687 0.23168 0.0
H161 H 0.82875 0.13838 0.27711 0.0
S162 S 0.69211 0.44782 0.24124 0.0
N163 N 0.63709 0.37261 0.21898 0.0
N164 N 0.77376 0.40694 0.26753 0.0
C165 C 0.75905 0.32804 0.25888 0.0
C166 C 0.68469 0.30956 0.23256 0.0
C167 C 0.74082 0.32046 0.727 0.0
C168 C 0.68763 0.25985 0.70953 0.0
C169 C 0.81402 0.30224 0.75249 0.0
C170 C 0.8372 0.22265 0.76151 0.0
H171 H 0.7263 0.38286 0.72065 0.0
H172 H 0.85262 0.35106 0.76519 0.0
S173 S 0.71779 0.04155 0.72588 0.0
N174 N 0.66218 0.11695 0.70455 0.0
N175 N 0.79946 0.0823 0.75242 0.0
C176 C 0.78424 0.16128 0.74465 0.0
C177 C 0.70957 0.17996 0.71872 0.0
C178 C 0.23104 0.68144 0.73956 0.0
C179 C 0.18662 0.74174 0.71419 0.0
C180 C 0.30454 0.69765 0.7653 0.0
C181 C 0.33698 0.7749 0.76681 0.0
H182 H 0.20886 0.62082 0.73981 0.0
H183 H 0.33546 0.64931 0.78477 0.0
S184 S 0.24634 0.95384 0.70501 0.0
N185 N 0.18177 0.88158 0.69114 0.0
N186 N 0.31981 0.91236 0.73942 0.0
C187 C 0.29386 0.83572 0.74099 0.0
C188 C 0.21875 0.81913 0.71479 0.0
C189 C 0.28621 0.67734 0.2472 0.0
C190 C 0.33657 0.73924 0.26616 0.0
C191 C 0.21357 0.69377 0.22052 0.0
C192 C 0.18818 0.77279 0.21171 0.0
H193 H 0.30252 0.6153 0.25331 0.0
H194 H 0.17714 0.64403 0.20674 0.0
S195 S 0.29928 0.95683 0.25198 0.0
N196 N 0.35665 0.88276 0.27331 0.0
N197 N 0.22047 0.9141 0.22326 0.0
C198 C 0.23825 0.83544 0.2302 0.0
C199 C 0.31231 0.81857 0.25735 0.0
C200 C 0.20993 0.18436 0.21924 0.0
C201 C 0.29201 0.19675 0.22399 0.0
C202 C 0.16131 0.23093 0.24379 0.0
C203 C 0.1924 0.29222 0.27415 0.0
H204 H 0.18227 0.13942 0.1955 0.0
H205 H 0.09875 0.21855 0.23885 0.0
S206 S 0.40463 0.34555 0.30172 0.0
N207 N 0.4027 0.27241 0.26337 0.0
N208 N 0.31211 0.36 0.30927 0.0
C209 C 0.2748 0.30435 0.27989 0.0
C210 C 0.32427 0.25657 0.25505 0.0
C211 C 0.2338 0.30053 0.70753 0.0
C212 C 0.31661 0.29551 0.71627 0.0
C213 C 0.18573 0.254 0.73233 0.0
C214 C 0.21823 0.20015 0.7669 0.0
H215 H 0.20539 0.33944 0.68046 0.0
H216 H 0.12251 0.26044 0.72428 0.0
S217 S 0.43202 0.16815 0.8055 0.0
N218 N 0.42905 0.23477 0.76333 0.0
N219 N 0.33937 0.14749 0.81018 0.0
C220 C 0.30117 0.1952 0.77643 0.0
C221 C 0.35006 0.24281 0.75116 0.0
C222 C 0.68669 0.74192 0.74704 0.0
C223 C 0.7192 0.79528 0.78198 0.0
C224 C 0.73443 0.69809 0.72073 0.0
C225 C 0.81709 0.70559 0.72793 0.0
H226 H 0.62362 0.73332 0.73994 0.0
H227 H 0.70568 0.65915 0.69372 0.0
S228 S 0.93304 0.83512 0.81594 0.0
N229 N 0.84059 0.85174 0.82307 0.0
N230 N 0.92972 0.76957 0.77309 0.0
C231 C 0.85076 0.75855 0.76271 0.0
C232 C 0.80211 0.80329 0.78976 0.0
C233 C 0.82793 0.71729 0.22652 0.0
C234 C 0.81052 0.79552 0.2105 0.0
C235 C 0.77708 0.6753 0.25181 0.0
C236 C 0.70647 0.70959 0.26222 0.0
H237 H 0.88041 0.68721 0.21855 0.0
H238 H 0.79375 0.61544 0.26349 0.0
S239 S 0.63526 0.9148 0.23009 0.0
N240 N 0.71875 0.90681 0.2081 0.0
N241 N 0.6232 0.82824 0.25546 0.0
C242 C 0.68852 0.78815 0.24659 0.0
C243 C 0.74052 0.83099 0.22095 0.0
C244 C 0.32632 0.22022 0.48586 0.0
C245 C 0.31022 0.23019 0.53168 0.0
C246 C 0.2645 0.21828 0.44888 0.0
C247 C 0.18604 0.22809 0.45724 0.0
H248 H 0.38585 0.22763 0.47791 0.0
H249 H 0.27897 0.22408 0.41374 0.0
S250 S 0.11467 0.2264 0.57191 0.0
N251 N 0.21156 0.2249 0.58418 0.0
N252 N 0.09538 0.22459 0.51445 0.0
C253 C 0.16949 0.22041 0.50299 0.0
C254 C 0.23224 0.22077 0.54057 0.0
C255 C 0.83424 0.78545 0.49481 0.0
C256 C 0.80648 0.77359 0.53764 0.0
C257 C 0.78134 0.78659 0.45346 0.0
C258 C 0.70016 0.77561 0.45443 0.0
H259 H 0.89652 0.77999 0.49241 0.0
H260 H 0.805 0.78211 0.4207 0.0
S261 S 0.59873 0.77183 0.55902 0.0
N262 N 0.69334 0.77439 0.57963 0.0
N263 N 0.59395 0.77569 0.50171 0.0
C264 C 0.67161 0.78148 0.49731 0.0
C265 C 0.72529 0.78055 0.53933 0.0
C266 C 0.82547 0.70584 0.97784 0.0
C267 C 0.82404 0.71454 0.02589 0.0
C268 C 0.75502 0.70566 0.94697 0.0
C269 C 0.68257 0.71773 0.96371 0.0
H270 H 0.88033 0.71312 0.96365 0.0
H271 H 0.75874 0.7123 0.91009 0.0
S272 S 0.6482 0.71233 0.08685 0.0
N273 N 0.74481 0.70745 0.08904 0.0
N274 N 0.61258 0.71428 0.0309 0.0
C275 C 0.68019 0.70869 0.01151 0.0
C276 C 0.75165 0.705 0.04285 0.0
C277 C 0.2176 0.27916 0.03614 0.0
C278 C 0.29924 0.27102 0.03573 0.0
C279 C 0.16586 0.2796 -0.00568 0.0
C280 C 0.19532 0.27221 0.95167 0.0
H281 H 0.1931 0.27082 0.06839 0.0
H282 H 0.10364 0.27104 -0.0041 0.0
S283 S 0.40396 0.2813 0.93258 0.0
N284 N 0.40701 0.27999 0.98984 0.0
N285 N 0.30968 0.28215 0.9111 0.0
C286 C 0.27635 0.28343 0.95108 0.0
C287 C 0.32892 0.28239 -0.00645 0.0
loop_
_geom_bond_atom_site_label_1
_geom_bond_atom_site_label_2
_geom_bond_distance
_geom_bond_site_symmetry_2
_ccdc_geom_bond_type
Co0 O1 2.216 1_455 S
Co0 O2 2.091 1_455 S
Co0 O4 2.004 . S
Co0 O10 2.021 . S
Co0 O12 2.137 1_455 S
Co0 O13 2.244 . S
O1 Co0 2.216 1_655 S
O1 C8 1.247 . S
O2 Co0 2.091 1_655 S
O2 C8 1.261 . S
C3 O12 1.247 1_455 S
C3 O13 1.272 . S
O4 Co0 2.004 . S
O4 C9 1.259 . S
Co5 O6 2.061 . S
Co5 O11 2.052 . S
Co5 O13 2.135 . S
O6 Co5 2.061 . S
O6 C9 1.235 . S
C7 O10 1.238 . S
C7 O11 1.241 . S
C8 O1 1.247 . S
C8 O2 1.261 . S
C9 O4 1.259 . S
C9 O6 1.235 . S
O10 Co0 2.021 . S
O10 C7 1.238 . S
O11 Co5 2.052 . S
O11 C7 1.241 . S
O12 Co0 2.137 1_655 S
O12 C3 1.247 1_655 S
O13 Co0 2.244 . S
O13 C3 1.272 . S
O13 Co5 2.135 . S
Co14 O15 2.216 . S
Co14 O16 2.091 . S
Co14 O18 2.004 . S
Co14 O24 2.021 . S
Co14 O26 2.137 . S
Co14 O27 2.244 . S
O15 Co14 2.216 . S
O15 C22 1.247 . S
O16 Co14 2.091 . S
O16 C22 1.261 . S
C17 O26 1.247 . S
C17 O27 1.272 . S
O18 Co14 2.004 . S
O18 C23 1.259 . S
Co19 O20 2.061 . S
Co19 O25 2.052 . S
Co19 O27 2.135 . S
O20 Co19 2.061 . S
O20 C23 1.235 . S
C21 O24 1.238 . S
C21 O25 1.241 . S
C22 O15 1.247 . S
C22 O16 1.261 . S
C23 O18 1.259 . S
C23 O20 1.235 . S
O24 Co14 2.021 . S
O24 C21 1.238 . S
O25 Co19 2.052 . S
O25 C21 1.241 . S
O26 Co14 2.137 . S
O26 C17 1.247 . S
O27 Co14 2.244 . S
O27 C17 1.272 . S
O27 Co19 2.135 . S
Co28 O29 2.216 1_655 S
Co28 O30 2.091 1_655 S
Co28 O32 2.004 . S
Co28 O38 2.021 . S
Co28 O40 2.137 1_655 S
Co28 O41 2.244 . S
O29 Co28 2.216 1_455 S
O29 C36 1.247 . S
O30 Co28 2.091 1_455 S
O30 C36 1.261 . S
C31 O40 1.247 1_655 S
C31 O41 1.272 . S
O32 Co28 2.004 . S
O32 C37 1.259 . S
Co33 O34 2.061 . S
Co33 O39 2.052 . S
Co33 O41 2.135 . S
O34 Co33 2.061 . S
O34 C37 1.235 . S
C35 O38 1.238 . S
C35 O39 1.241 . S
C36 O29 1.247 . S
C36 O30 1.261 . S
C37 O32 1.259 . S
C37 O34 1.235 . S
O38 Co28 2.021 . S
O38 C35 1.238 . S
O39 Co33 2.052 . S
O39 C35 1.241 . S
O40 Co28 2.137 1_455 S
O40 C31 1.247 1_455 S
O41 Co28 2.244 . S
O41 C31 1.272 . S
O41 Co33 2.135 . S
Co42 O43 2.216 . S
Co42 O44 2.091 . S
Co42 O46 2.004 . S
Co42 O52 2.021 . S
Co42 O54 2.137 . S
Co42 O55 2.244 . S
O43 Co42 2.216 . S
O43 C50 1.247 . S
O44 Co42 2.091 . S
O44 C50 1.261 . S
C45 O54 1.247 . S
C45 O55 1.272 . S
O46 Co42 2.004 . S
O46 C51 1.259 . S
Co47 O48 2.061 . S
Co47 O53 2.052 . S
Co47 O55 2.135 . S
O48 Co47 2.061 . S
O48 C51 1.235 . S
C49 O52 1.238 . S
C49 O53 1.241 . S
C50 O43 1.247 . S
C50 O44 1.261 . S
C51 O46 1.259 . S
C51 O48 1.235 . S
O52 Co42 2.021 . S
O52 C49 1.238 . S
O53 Co47 2.052 . S
O53 C49 1.241 . S
O54 Co42 2.137 . S
O54 C45 1.247 . S
O55 Co42 2.244 . S
O55 C45 1.272 . S
O55 Co47 2.135 . S
Co56 O57 2.216 . S
Co56 O58 2.091 . S
Co56 O60 2.004 . S
Co56 O66 2.021 . S
Co56 O68 2.137 . S
Co56 O69 2.244 . S
O57 Co56 2.216 . S
O57 C64 1.247 . S
O58 Co56 2.091 . S
O58 C64 1.261 . S
C59 O68 1.247 . S
C59 O69 1.272 . S
O60 Co56 2.004 . S
O60 C65 1.259 . S
Co61 O62 2.061 . S
Co61 O67 2.052 . S
Co61 O69 2.135 . S
O62 Co61 2.061 . S
O62 C65 1.235 . S
C63 O66 1.238 . S
C63 O67 1.241 . S
C64 O57 1.247 . S
C64 O58 1.261 . S
C65 O60 1.259 . S
C65 O62 1.235 . S
O66 Co56 2.021 . S
O66 C63 1.238 . S
O67 Co61 2.052 . S
O67 C63 1.241 . S
O68 Co56 2.137 . S
O68 C59 1.247 . S
O69 Co56 2.244 . S
O69 C59 1.272 . S
O69 Co61 2.135 . S
Co70 O71 2.216 1_655 S
Co70 O72 2.091 1_655 S
Co70 O74 2.004 . S
Co70 O80 2.021 . S
Co70 O82 2.137 1_655 S
Co70 O83 2.244 . S
O71 Co70 2.216 1_455 S
O71 C78 1.247 . S
O72 Co70 2.091 1_455 S
O72 C78 1.261 . S
C73 O82 1.247 1_655 S
C73 O83 1.272 . S
O74 Co70 2.004 . S
O74 C79 1.259 . S
Co75 O76 2.061 . S
Co75 O81 2.052 . S
Co75 O83 2.135 . S
O76 Co75 2.061 . S
O76 C79 1.235 . S
C77 O80 1.238 . S
C77 O81 1.241 . S
C78 O71 1.247 . S
C78 O72 1.261 . S
C79 O74 1.259 . S
C79 O76 1.235 . S
O80 Co70 2.021 . S
O80 C77 1.238 . S
O81 Co75 2.052 . S
O81 C77 1.241 . S
O82 Co70 2.137 1_455 S
O82 C73 1.247 1_455 S
O83 Co70 2.244 . S
O83 C73 1.272 . S
O83 Co75 2.135 . S
Co84 O85 2.216 . S
Co84 O86 2.091 . S
Co84 O88 2.004 . S
Co84 O94 2.021 . S
Co84 O96 2.137 . S
Co84 O97 2.244 . S
O85 Co84 2.216 . S
O85 C92 1.247 . S
O86 Co84 2.091 . S
O86 C92 1.261 . S
C87 O96 1.247 . S
C87 O97 1.272 . S
O88 Co84 2.004 . S
O88 C93 1.259 . S
Co89 O90 2.061 . S
Co89 O95 2.052 . S
Co89 O97 2.135 . S
O90 Co89 2.061 . S
O90 C93 1.235 . S
C91 O94 1.238 . S
C91 O95 1.241 . S
C92 O85 1.247 . S
C92 O86 1.261 . S
C93 O88 1.259 . S
C93 O90 1.235 . S
O94 Co84 2.021 . S
O94 C91 1.238 . S
O95 Co89 2.052 . S
O95 C91 1.241 . S
O96 Co84 2.137 . S
O96 C87 1.247 . S
O97 Co84 2.244 . S
O97 C87 1.272 . S
O97 Co89 2.135 . S
Co98 O99 2.216 1_455 S
Co98 O100 2.091 1_455 S
Co98 O102 2.004 . S
Co98 O108 2.021 . S
Co98 O110 2.137 1_455 S
Co98 O111 2.244 . S
O99 Co98 2.216 1_655 S
O99 C106 1.247 . S
O100 Co98 2.091 1_655 S
O100 C106 1.261 . S
C101 O110 1.247 1_455 S
C101 O111 1.272 . S
O102 Co98 2.004 . S
O102 C107 1.259 . S
Co103 O104 2.061 . S
Co103 O109 2.052 . S
Co103 O111 2.135 . S
O104 Co103 2.061 . S
O104 C107 1.235 . S
C105 O108 1.238 . S
C105 O109 1.241 . S
C106 O99 1.247 . S
C106 O100 1.261 . S
C107 O102 1.259 . S
C107 O104 1.235 . S
O108 Co98 2.021 . S
O108 C105 1.238 . S
O109 Co103 2.052 . S
O109 C105 1.241 . S
O110 Co98 2.137 1_655 S
O110 C101 1.247 1_655 S
O111 Co98 2.244 . S
O111 C101 1.272 . S
O111 Co103 2.135 . S
C112 C113 1.369 1_455 S
C112 C114 1.419 . S
C112 H116 0.930 . S
C113 C112 1.369 1_655 S
C113 C122 1.429 . S
C114 C112 1.419 . S
C114 C115 1.363 . S
C114 H117 0.929 . S
C115 C114 1.363 . S
C115 C121 1.428 1_455 S
H116 C112 0.930 . S
H117 C114 0.929 . S
S118 N119 1.613 . S
S118 N120 1.610 . S
N119 S118 1.613 . S
N119 C122 1.350 . S
N120 S118 1.610 . S
N120 C121 1.351 . S
C121 C115 1.428 1_655 S
C121 N120 1.351 . S
C121 C122 1.434 . S
C122 C113 1.429 . S
C122 N119 1.350 . S
C122 C121 1.434 . S
C123 C124 1.369 . S
C123 C125 1.419 . S
C123 H127 0.930 . S
C124 C123 1.369 . S
C124 C133 1.429 . S
C125 C123 1.419 . S
C125 C126 1.363 . S
C125 H128 0.929 . S
C126 C125 1.363 . S
C126 C132 1.428 . S
H127 C123 0.930 . S
H128 C125 0.929 . S
S129 N130 1.613 . S
S129 N131 1.610 . S
N130 S129 1.613 . S
N130 C133 1.350 . S
N131 S129 1.610 . S
N131 C132 1.351 . S
C132 C126 1.428 . S
C132 N131 1.351 . S
C132 C133 1.434 . S
C133 C124 1.429 . S
C133 N130 1.350 . S
C133 C132 1.434 . S
C134 C135 1.369 . S
C134 C136 1.419 1_544 S
C134 H138 0.930 . S
C135 C134 1.369 . S
C135 C144 1.429 . S
C136 C134 1.419 1_566 S
C136 C137 1.363 . S
C136 H139 0.929 . S
C137 C136 1.363 . S
C137 C143 1.428 . S
H138 C134 0.930 . S
H139 C136 0.929 . S
S140 N141 1.613 1_565 S
S140 N142 1.610 1_554 S
N141 S140 1.613 1_545 S
N141 C144 1.350 . S
N142 S140 1.610 1_556 S
N142 C143 1.351 . S
C143 C137 1.428 . S
C143 N142 1.351 . S
C143 C144 1.434 1_566 S
C144 C135 1.429 . S
C144 N141 1.350 . S
C144 C143 1.434 1_544 S
C145 C146 1.369 1_656 S
C145 C147 1.419 . S
C145 H149 0.930 . S
C146 C145 1.369 1_454 S
C146 C155 1.429 1_565 S
C147 C145 1.419 . S
C147 C148 1.363 1_565 S
C147 H150 0.929 . S
C148 C147 1.363 1_545 S
C148 C154 1.428 1_656 S
H149 C145 0.930 . S
H150 C147 0.929 . S
S151 N152 1.613 . S
S151 N153 1.610 . S
N152 S151 1.613 . S
N152 C155 1.350 . S
N153 S151 1.610 . S
N153 C154 1.351 . S
C154 C148 1.428 1_454 S
C154 N153 1.351 . S
C154 C155 1.434 . S
C155 C146 1.429 1_545 S
C155 N152 1.350 . S
C155 C154 1.434 . S
C156 C157 1.369 . S
C156 C158 1.419 . S
C156 H160 0.930 . S
C157 C156 1.369 . S
C157 C166 1.429 . S
C158 C156 1.419 . S
C158 C159 1.363 . S
C158 H161 0.929 . S
C159 C158 1.363 . S
C159 C165 1.428 . S
H160 C156 0.930 . S
H161 C158 0.929 . S
S162 N163 1.613 . S
S162 N164 1.610 . S
N163 S162 1.613 . S
N163 C166 1.350 . S
N164 S162 1.610 . S
N164 C165 1.351 . S
C165 C159 1.428 . S
C165 N164 1.351 . S
C165 C166 1.434 . S
C166 C157 1.429 . S
C166 N163 1.350 . S
C166 C165 1.434 . S
C167 C168 1.369 . S
C167 C169 1.419 . S
C167 H171 0.930 . S
C168 C167 1.369 . S
C168 C177 1.429 . S
C169 C167 1.419 . S
C169 C170 1.363 . S
C169 H172 0.929 . S
C170 C169 1.363 . S
C170 C176 1.428 . S
H171 C167 0.930 . S
H172 C169 0.929 . S
S173 N174 1.613 . S
S173 N175 1.610 . S
N174 S173 1.613 . S
N174 C177 1.350 . S
N175 S173 1.610 . S
N175 C176 1.351 . S
C176 C170 1.428 . S
C176 N175 1.351 . S
C176 C177 1.434 . S
C177 C168 1.429 . S
C177 N174 1.350 . S
C177 C176 1.434 . S
C178 C179 1.369 . S
C178 C180 1.419 . S
C178 H182 0.930 . S
C179 C178 1.369 . S
C179 C188 1.429 . S
C180 C178 1.419 . S
C180 C181 1.363 . S
C180 H183 0.929 . S
C181 C180 1.363 . S
C181 C187 1.428 . S
H182 C178 0.930 . S
H183 C180 0.929 . S
S184 N185 1.613 . S
S184 N186 1.610 . S
N185 S184 1.613 . S
N185 C188 1.350 . S
N186 S184 1.610 . S
N186 C187 1.351 . S
C187 C181 1.428 . S
C187 N186 1.351 . S
C187 C188 1.434 . S
C188 C179 1.429 . S
C188 N185 1.350 . S
C188 C187 1.434 . S
C189 C190 1.369 . S
C189 C191 1.419 . S
C189 H193 0.930 . S
C190 C189 1.369 . S
C190 C199 1.429 . S
C191 C189 1.419 . S
C191 C192 1.363 . S
C191 H194 0.929 . S
C192 C191 1.363 . S
C192 C198 1.428 . S
H193 C189 0.930 . S
H194 C191 0.929 . S
S195 N196 1.613 . S
S195 N197 1.610 . S
N196 S195 1.613 . S
N196 C199 1.350 . S
N197 S195 1.610 . S
N197 C198 1.351 . S
C198 C192 1.428 . S
C198 N197 1.351 . S
C198 C199 1.434 . S
C199 C190 1.429 . S
C199 N196 1.350 . S
C199 C198 1.434 . S
C200 C201 1.369 . S
C200 C202 1.419 . S
C200 H204 0.930 . S
C201 C200 1.369 . S
C201 C210 1.429 . S
C202 C200 1.419 . S
C202 C203 1.363 . S
C202 H205 0.929 . S
C203 C202 1.363 . S
C203 C209 1.428 . S
H204 C200 0.930 . S
H205 C202 0.929 . S
S206 N207 1.613 . S
S206 N208 1.610 . S
N207 S206 1.613 . S
N207 C210 1.350 . S
N208 S206 1.610 . S
N208 C209 1.351 . S
C209 C203 1.428 . S
C209 N208 1.351 . S
C209 C210 1.434 . S
C210 C201 1.429 . S
C210 N207 1.350 . S
C210 C209 1.434 . S
C211 C212 1.369 . S
C211 C213 1.419 . S
C211 H215 0.930 . S
C212 C211 1.369 . S
C212 C221 1.429 . S
C213 C211 1.419 . S
C213 C214 1.363 . S
C213 H216 0.929 . S
C214 C213 1.363 . S
C214 C220 1.428 . S
H215 C211 0.930 . S
H216 C213 0.929 . S
S217 N218 1.613 . S
S217 N219 1.610 . S
N218 S217 1.613 . S
N218 C221 1.350 . S
N219 S217 1.610 . S
N219 C220 1.351 . S
C220 C214 1.428 . S
C220 N219 1.351 . S
C220 C221 1.434 . S
C221 C212 1.429 . S
C221 N218 1.350 . S
C221 C220 1.434 . S
C222 C223 1.369 . S
C222 C224 1.419 . S
C222 H226 0.930 . S
C223 C222 1.369 . S
C223 C232 1.429 . S
C224 C222 1.419 . S
C224 C225 1.363 . S
C224 H227 0.929 . S
C225 C224 1.363 . S
C225 C231 1.428 . S
H226 C222 0.930 . S
H227 C224 0.929 . S
S228 N229 1.613 . S
S228 N230 1.610 . S
N229 S228 1.613 . S
N229 C232 1.350 . S
N230 S228 1.610 . S
N230 C231 1.351 . S
C231 C225 1.428 . S
C231 N230 1.351 . S
C231 C232 1.434 . S
C232 C223 1.429 . S
C232 N229 1.350 . S
C232 C231 1.434 . S
C233 C234 1.369 . S
C233 C235 1.419 . S
C233 H237 0.930 . S
C234 C233 1.369 . S
C234 C243 1.429 . S
C235 C233 1.419 . S
C235 C236 1.363 . S
C235 H238 0.929 . S
C236 C235 1.363 . S
C236 C242 1.428 . S
H237 C233 0.930 . S
H238 C235 0.929 . S
S239 N240 1.613 . S
S239 N241 1.610 . S
N240 S239 1.613 . S
N240 C243 1.350 . S
N241 S239 1.610 . S
N241 C242 1.351 . S
C242 C236 1.428 . S
C242 N241 1.351 . S
C242 C243 1.434 . S
C243 C234 1.429 . S
C243 N240 1.350 . S
C243 C242 1.434 . S
C244 C245 1.369 . S
C244 C246 1.419 . S
C244 H248 0.930 . S
C245 C244 1.369 . S
C245 C254 1.429 . S
C246 C244 1.419 . S
C246 C247 1.363 . S
C246 H249 0.929 . S
C247 C246 1.363 . S
C247 C253 1.428 . S
H248 C244 0.930 . S
H249 C246 0.929 . S
S250 N251 1.613 . S
S250 N252 1.610 . S
N251 S250 1.613 . S
N251 C254 1.350 . S
N252 S250 1.610 . S
N252 C253 1.351 . S
C253 C247 1.428 . S
C253 N252 1.351 . S
C253 C254 1.434 . S
C254 C245 1.429 . S
C254 N251 1.350 . S
C254 C253 1.434 . S
C255 C256 1.369 . S
C255 C257 1.419 . S
C255 H259 0.930 . S
C256 C255 1.369 . S
C256 C265 1.429 . S
C257 C255 1.419 . S
C257 C258 1.363 . S
C257 H260 0.929 . S
C258 C257 1.363 . S
C258 C264 1.428 . S
H259 C255 0.930 . S
H260 C257 0.929 . S
S261 N262 1.613 . S
S261 N263 1.610 . S
N262 S261 1.613 . S
N262 C265 1.350 . S
N263 S261 1.610 . S
N263 C264 1.351 . S
C264 C258 1.428 . S
C264 N263 1.351 . S
C264 C265 1.434 . S
C265 C256 1.429 . S
C265 N262 1.350 . S
C265 C264 1.434 . S
C266 C267 1.369 1_556 S
C266 C268 1.419 . S
C266 H270 0.930 . S
C267 C266 1.369 1_554 S
C267 C276 1.429 . S
C268 C266 1.419 . S
C268 C269 1.363 . S
C268 H271 0.929 . S
C269 C268 1.363 . S
C269 C275 1.428 1_556 S
H270 C266 0.930 . S
H271 C268 0.929 . S
S272 N273 1.613 . S
S272 N274 1.610 . S
N273 S272 1.613 . S
N273 C276 1.350 . S
N274 S272 1.610 . S
N274 C275 1.351 . S
C275 C269 1.428 1_554 S
C275 N274 1.351 . S
C275 C276 1.434 . S
C276 C267 1.429 . S
C276 N273 1.350 . S
C276 C275 1.434 . S
C277 C278 1.369 . S
C277 C279 1.419 . S
C277 H281 0.930 . S
C278 C277 1.369 . S
C278 C287 1.429 1_554 S
C279 C277 1.419 . S
C279 C280 1.363 1_554 S
C279 H282 0.929 . S
C280 C279 1.363 1_556 S
C280 C286 1.428 . S
H281 C277 0.930 . S
H282 C279 0.929 . S
S283 N284 1.613 . S
S283 N285 1.610 . S
N284 S283 1.613 . S
N284 C287 1.350 . S
N285 S283 1.610 . S
N285 C286 1.351 . S
C286 C280 1.428 . S
C286 N285 1.351 . S
C286 C287 1.434 . S
C287 C278 1.429 1_556 S
C287 N284 1.350 . S
C287 C286 1.434 . S
C113 C3 1.574 1_655 S
C115 C31 1.569 1_455 S
C124 C45 1.568 . S
C126 C17 1.574 . S
C135 C87 1.573 . S
C137 C59 1.570 . S
C146 C73 1.573 1_455 S
C148 C101 1.569 1_655 S
C157 C92 1.812 . S
C159 C8 1.807 . S
C168 C22 1.811 . S
C170 C106 1.807 . S
C179 C36 1.811 . S
C181 C64 1.807 . S
C190 C50 1.812 . S
C192 C78 1.807 . S
C201 C91 1.500 . S
C203 C7 1.492 . S
C212 C21 1.501 . S
C214 C105 1.492 . S
C223 C63 1.491 . S
C225 C35 1.500 . S
C234 C77 1.496 . S
C236 C49 1.496 . S
C245 C23 0.802 . S
C247 C9 0.812 . S
C256 C37 0.796 . S
C258 C51 0.807 . S
C267 C79 0.814 . S
C269 C65 0.815 . S
C278 C93 0.817 . S
C280 C107 0.812 . S
