# Generated by pormake.
# Topology wjd, (6)-cn, num edge types: 1
# Building blocks:
#     Node 0, Type 0, BuildingBlock: KUMBUR_clean_sbu_1, # of connection points: 6
#     Node 1, Type 0, BuildingBlock: KUMBUR_clean_sbu_1, # of connection points: 6
#     Node 2, Type 0, BuildingBlock: KUMBUR_clean_sbu_1, # of connection points: 6
#     Node 3, Type 0, BuildingBlock: KUMBUR_clean_sbu_1, # of connection points: 6
#     Node 4, Type 0, BuildingBlock: KUMBUR_clean_sbu_1, # of connection points: 6
#     Node 5, Type 0, BuildingBlock: KUMBUR_clean_sbu_1, # of connection points: 6
#     Node 6, Type 0, BuildingBlock: KUMBUR_clean_sbu_1, # of connection points: 6
#     Node 7, Type 0, BuildingBlock: KUMBUR_clean_sbu_1, # of connection points: 6
#     Node 8, Type 0, BuildingBlock: KUMBUR_clean_sbu_1, # of connection points: 6
#     Node 9, Type 0, BuildingBlock: KUMBUR_clean_sbu_1, # of connection points: 6
#     Node 10, Type 0, BuildingBlock: KUMBUR_clean_sbu_1, # of connection points: 6
#     Node 11, Type 0, BuildingBlock: KUMBUR_clean_sbu_1, # of connection points: 6
#     Edge 12, Type (0, 0), BuildingBlock: OJICUG_clean_linker_0, # of connection points: 2
#     Edge 13, Type (0, 0), BuildingBlock: OJICUG_clean_linker_0, # of connection points: 2
#     Edge 14, Type (0, 0), BuildingBlock: OJICUG_clean_linker_0, # of connection points: 2
#     Edge 15, Type (0, 0), BuildingBlock: OJICUG_clean_linker_0, # of connection points: 2
#     Edge 16, Type (0, 0), BuildingBlock: OJICUG_clean_linker_0, # of connection points: 2
#     Edge 17, Type (0, 0), BuildingBlock: OJICUG_clean_linker_0, # of connection points: 2
#     Edge 18, Type (0, 0), BuildingBlock: OJICUG_clean_linker_0, # of connection points: 2
#     Edge 19, Type (0, 0), BuildingBlock: OJICUG_clean_linker_0, # of connection points: 2
#     Edge 20, Type (0, 0), BuildingBlock: OJICUG_clean_linker_0, # of connection points: 2
#     Edge 21, Type (0, 0), BuildingBlock: OJICUG_clean_linker_0, # of connection points: 2
#     Edge 22, Type (0, 0), BuildingBlock: OJICUG_clean_linker_0, # of connection points: 2
#     Edge 23, Type (0, 0), BuildingBlock: OJICUG_clean_linker_0, # of connection points: 2
#     Edge 24, Type (0, 0), BuildingBlock: OJICUG_clean_linker_0, # of connection points: 2
#     Edge 25, Type (0, 0), BuildingBlock: OJICUG_clean_linker_0, # of connection points: 2
#     Edge 26, Type (0, 0), BuildingBlock: OJICUG_clean_linker_0, # of connection points: 2
#     Edge 27, Type (0, 0), BuildingBlock: OJICUG_clean_linker_0, # of connection points: 2
#     Edge 28, Type (0, 0), BuildingBlock: OJICUG_clean_linker_0, # of connection points: 2
#     Edge 29, Type (0, 0), BuildingBlock: OJICUG_clean_linker_0, # of connection points: 2
#     Edge 30, Type (0, 0), BuildingBlock: OJICUG_clean_linker_0, # of connection points: 2
#     Edge 31, Type (0, 0), BuildingBlock: OJICUG_clean_linker_0, # of connection points: 2
#     Edge 32, Type (0, 0), BuildingBlock: OJICUG_clean_linker_0, # of connection points: 2
#     Edge 33, Type (0, 0), BuildingBlock: OJICUG_clean_linker_0, # of connection points: 2
#     Edge 34, Type (0, 0), BuildingBlock: OJICUG_clean_linker_0, # of connection points: 2
#     Edge 35, Type (0, 0), BuildingBlock: OJICUG_clean_linker_0, # of connection points: 2
#     Edge 36, Type (0, 0), BuildingBlock: OJICUG_clean_linker_0, # of connection points: 2
#     Edge 37, Type (0, 0), BuildingBlock: OJICUG_clean_linker_0, # of connection points: 2
#     Edge 38, Type (0, 0), BuildingBlock: OJICUG_clean_linker_0, # of connection points: 2
#     Edge 39, Type (0, 0), BuildingBlock: OJICUG_clean_linker_0, # of connection points: 2
#     Edge 40, Type (0, 0), BuildingBlock: OJICUG_clean_linker_0, # of connection points: 2
#     Edge 41, Type (0, 0), BuildingBlock: OJICUG_clean_linker_0, # of connection points: 2
#     Edge 42, Type (0, 0), BuildingBlock: OJICUG_clean_linker_0, # of connection points: 2
#     Edge 43, Type (0, 0), BuildingBlock: OJICUG_clean_linker_0, # of connection points: 2
#     Edge 44, Type (0, 0), BuildingBlock: OJICUG_clean_linker_0, # of connection points: 2
#     Edge 45, Type (0, 0), BuildingBlock: OJICUG_clean_linker_0, # of connection points: 2
#     Edge 46, Type (0, 0), BuildingBlock: OJICUG_clean_linker_0, # of connection points: 2
#     Edge 47, Type (0, 0), BuildingBlock: OJICUG_clean_linker_0, # of connection points: 2
# Relax obj value: 0.073
# Max RMSD: 0.199
# Mean RMSD: 0.199
data_MOF--net-wjd--node1-KUMBUR_clean_sbu_1--edge1-OJICUG_clean_linker_0
_symmetry_space_group_name_H-M    P1
_symmetry_Int_Tables_number       1
_symmetry_cell_setting            triclinic
loop_
_symmetry_equiv_pos_as_xyz
'x, y, z'
_cell_length_a     30.395796
_cell_length_b     30.501569
_cell_length_c     38.647364
_cell_angle_alpha  90.439191
_cell_angle_beta   89.80506
_cell_angle_gamma 119.87126
loop_
_atom_site_label
_atom_site_type_symbol
_atom_site_fract_x
_atom_site_fract_y
_atom_site_fract_z
_atom_type_partial_charge
Tb0 Tb 0.31089 0.05076 0.12893 0.0
C1 C 0.29809 0.19883 0.04837 0.0
N2 N 0.33462 0.18614 0.04357 0.0
C3 C 0.30479 0.15974 0.98544 0.0
C4 C 0.26106 0.18881 0.02293 0.0
C5 C 0.34177 0.17263 0.01101 0.0
C6 C 0.26292 0.16566 0.99205 0.0
C7 C 0.2682 0.24613 0.08193 0.0
C8 C 0.30126 0.2267 0.07734 0.0
C9 C 0.22907 0.23354 0.05787 0.0
C10 C 0.2253 0.20461 0.02845 0.0
Tb11 Tb 0.38576 0.19834 0.09111 0.0
N12 N 0.33883 0.23699 0.10022 0.0
C13 C 0.27647 0.2786 0.11005 0.0
C14 C 0.34858 0.27028 0.1269 0.0
C15 C 0.31746 0.29148 0.13226 0.0
H16 H 0.37506 0.17003 1.0047 0.0
H17 H 0.32468 0.31716 0.15374 0.0
H18 H 0.38389 0.03977 0.18757 0.0
H19 H 0.18943 0.91764 0.0327 0.0
H20 H 0.37973 0.2794 0.14439 0.0
H21 H 0.25208 0.29457 0.11445 0.0
H22 H 0.21816 0.98986 0.07335 0.0
H23 H 0.30847 0.14489 0.96083 0.0
H24 H 0.20257 0.24724 0.06121 0.0
H25 H 0.1962 0.19678 0.00938 0.0
H26 H 0.42754 0.99013 0.19481 0.0
H27 H 0.23401 0.155 0.97238 0.0
H28 H 0.23565 0.86984 0.02931 0.0
N29 N 0.34991 1.0047 0.13961 0.0
C30 C 0.3408 0.9674 0.11662 0.0
C31 C 0.40349 0.98362 0.17256 0.0
C32 C 0.36405 0.93762 0.11989 0.0
C33 C 0.37876 1.0116 0.1684 0.0
C34 C 0.39676 0.947 0.14789 0.0
N35 N 0.28084 0.98396 0.09153 0.0
C36 C 0.23862 0.96932 0.07177 0.0
C37 C 0.28977 0.91496 0.06907 0.0
C38 C 0.30468 0.95652 0.09158 0.0
C39 C 0.24848 0.90161 0.047 0.0
C40 C 0.22217 0.92832 0.04891 0.0
H41 H 0.41553 0.92506 0.15135 0.0
H42 H 0.37003 0.87525 0.09774 0.0
H43 H 0.30461 0.85519 0.05322 0.0
O44 O 0.24782 0.9846 0.14834 0.0
O45 O 0.394 0.08238 0.12111 0.0
O46 O 0.43259 0.16295 0.09487 0.0
O47 O 0.27631 0.05554 0.175 0.0
O48 O 0.30308 0.07697 0.07896 0.0
O49 O 0.37869 0.13477 0.05751 0.0
O50 O 0.45393 0.26115 0.10976 0.0
O51 O 0.32237 0.17076 0.1279 0.0
O52 O 0.27399 0.09062 0.10782 0.0
O53 O 0.42998 0.26 0.05822 0.0
O54 O 0.38942 0.19171 0.14781 0.0
O55 O 0.36501 0.10811 0.16477 0.0
C56 C 0.43349 0.12338 0.10789 0.0
C57 C 0.18626 1.00034 0.17552 0.0
C58 C 0.09333 0.94702 0.16912 0.0
C59 C 0.08807 0.98648 0.18389 0.0
C60 C 0.17878 0.03787 0.19119 0.0
C61 C 0.13027 0.03117 0.1949 0.0
C62 C 0.14298 0.95454 0.16443 0.0
C63 C 0.3388 0.08872 0.05623 0.0
C64 C 0.23907 1.00899 0.17257 0.0
C65 C 0.35215 0.89827 0.09599 0.0
C66 C 0.31493 0.88688 0.07062 0.0
C67 C 0.27776 0.13033 0.12387 0.0
C68 C 0.47424 0.34095 0.08579 0.0
C69 C 0.53257 0.4306 0.10142 0.0
C70 C 0.49363 0.44109 0.09349 0.0
C71 C 0.43725 0.35381 0.07714 0.0
C72 C 0.52247 0.37994 0.09748 0.0
C73 C 0.44671 0.40318 0.08134 0.0
C74 C 0.38615 0.15742 0.17025 0.0
C75 C 0.46264 0.28734 0.08182 0.0
H76 H 0.05089 0.98261 0.18726 0.0
H77 H 0.21059 0.07284 0.20058 0.0
H78 H 0.12536 0.06078 0.20665 0.0
H79 H 0.14775 0.92451 0.15321 0.0
H80 H 0.49997 0.47925 0.09563 0.0
H81 H 0.40079 0.32571 0.06691 0.0
H82 H 0.55183 0.37091 0.10349 0.0
H83 H 0.4176 0.41226 0.07471 0.0
Tb84 Tb 0.85783 0.64601 0.41215 0.0
C85 C 0.69341 0.68019 0.35372 0.0
N86 N 0.73837 0.69102 0.33899 0.0
C87 C 0.69535 0.64757 0.28703 0.0
C88 C 0.64736 0.65197 0.33569 0.0
C89 C 0.7402 0.67699 0.3056 0.0
C90 C 0.64868 0.63482 0.30218 0.0
C91 C 0.64896 0.69229 0.40162 0.0
C92 C 0.69414 0.69851 0.38678 0.0
C93 C 0.60264 0.66305 0.38423 0.0
C94 C 0.6018 0.6426 0.35144 0.0
Tb95 Tb 0.80832 0.7345 0.37321 0.0
N96 N 0.73967 0.72659 0.40286 0.0
C97 C 0.65214 0.71817 0.4324 0.0
C98 C 0.74341 0.75637 0.43051 0.0
C99 C 0.69975 0.75165 0.44627 0.0
H100 H 0.77621 0.6886 0.29338 0.0
H101 H 0.70293 0.77434 0.46879 0.0
H102 H 0.82465 0.6223 0.49534 0.0
H103 H 1.03472 0.70974 0.34589 0.0
H104 H 0.78008 0.78439 0.4403 0.0
H105 H 0.61841 0.71483 0.44452 0.0
H106 H 0.94352 0.68309 0.35059 0.0
H107 H 0.69688 0.63578 0.26077 0.0
H108 H 0.56745 0.65731 0.39545 0.0
H109 H 0.56592 0.62086 0.33808 0.0
H110 H 0.86781 0.63065 0.55088 0.0
H111 H 0.61408 0.61288 0.28748 0.0
H112 H 0.08442 0.71894 0.39891 0.0
N113 N 0.89274 0.65362 0.46561 0.0
C114 C 0.94349 0.67117 0.46587 0.0
C115 C 0.88958 0.64243 0.52716 0.0
C116 C 0.96927 0.67418 0.49683 0.0
C117 C 0.86538 0.63858 0.49562 0.0
C118 C 0.94175 0.66026 0.52778 0.0
N119 N 0.94308 0.68109 0.40553 0.0
C120 C 0.96545 0.68855 0.37377 0.0
C121 C 1.02118 0.69905 0.43334 0.0
C122 C 0.96932 0.68429 0.4347 0.0
C123 C 0.04488 0.70854 0.401 0.0
C124 C 1.01688 0.70319 0.37106 0.0
H125 H 0.96021 0.66233 0.55216 0.0
H126 H 0.04168 0.69199 0.51922 0.0
H127 H 0.08713 0.71378 0.46362 0.0
O128 O 0.86283 0.5936 0.37991 0.0
O129 O 0.91029 0.72825 0.41385 0.0
O130 O 0.88936 0.76004 0.36671 0.0
O131 O 0.84384 0.57614 0.43393 0.0
O132 O 0.8404 0.63991 0.35532 0.0
O133 O 0.85261 0.71746 0.33709 0.0
O134 O 0.83777 0.8117 0.38418 0.0
O135 O 0.76011 0.65007 0.36902 0.0
O136 O 0.77803 0.62057 0.41794 0.0
O137 O 0.80526 0.7812 0.33459 0.0
O138 O 0.83157 0.74224 0.42758 0.0
O139 O 0.80951 0.66304 0.44726 0.0
C140 C 0.92254 0.76234 0.38951 0.0
C141 C 0.83328 0.50877 0.395 0.0
C142 C 0.84951 0.43965 0.38054 0.0
C143 C 0.80128 0.41341 0.36504 0.0
C144 C 0.78547 0.48209 0.37933 0.0
C145 C 0.76939 0.43434 0.36477 0.0
C146 C 0.86484 0.48718 0.39588 0.0
C147 C 0.84889 0.67335 0.33079 0.0
C148 C 0.85542 0.56231 0.40486 0.0
C149 C 1.02128 0.68992 0.49576 0.0
C150 C 0.04717 0.70229 0.46409 0.0
C151 C 0.74835 0.61381 0.39179 0.0
C152 C 0.79836 0.8508 0.3563 0.0
C153 C 0.80365 0.93194 0.36813 0.0
C154 C 0.75064 0.90859 0.36589 0.0
C155 C 0.74541 0.82804 0.35349 0.0
C156 C 0.82734 0.90293 0.36321 0.0
C157 C 0.72175 0.85692 0.35833 0.0
C158 C 0.8123 0.70757 0.45159 0.0
C159 C 0.82424 0.82091 0.35454 0.0
H160 H 0.788 0.37644 0.35349 0.0
H161 H 0.76141 0.49878 0.37747 0.0
H162 H 0.73242 0.41385 0.35266 0.0
H163 H 0.90242 0.50849 0.40716 0.0
H164 H 0.73176 0.93043 0.36967 0.0
H165 H 0.72235 0.78807 0.34794 0.0
H166 H 0.86827 0.92077 0.36548 0.0
H167 H 0.68089 0.83913 0.35641 0.0
Tb168 Tb 0.99055 0.27127 0.15124 0.0
C169 C 0.79811 0.11131 0.08204 0.0
N170 N 0.83172 0.15975 0.0732 0.0
C171 C 0.84164 0.13192 0.01693 0.0
C172 C 0.78742 0.07094 0.05933 0.0
C173 C 0.85153 0.17078 0.0405 0.0
C174 C 0.81024 0.0817 0.02663 0.0
C175 C 0.74222 0.05256 0.1251 0.0
C176 C 0.7772 0.10231 0.11492 0.0
C177 C 0.73118 1.01209 0.10248 0.0
C178 C 0.75521 1.02128 0.07023 0.0
Tb179 Tb 0.84724 0.21986 0.11442 0.0
N180 N 0.79181 0.14215 0.13701 0.0
C181 C 0.72034 0.04495 0.15797 0.0
C182 C 0.76934 0.13493 0.16879 0.0
C183 C 0.73376 0.08636 0.1798 0.0
H184 H 0.87498 0.20938 0.03243 0.0
H185 H 0.71633 0.08096 0.20505 0.0
H186 H 0.97239 0.26227 0.23809 0.0
H187 H 0.12917 0.42608 0.07595 0.0
H188 H 0.7771 0.16642 0.18551 0.0
H189 H 0.69291 1.00741 0.16668 0.0
H190 H 0.06662 0.33655 0.08823 0.0
H191 H 0.85829 0.14072 0.99134 0.0
H192 H 0.70502 0.9735 0.10992 0.0
H193 H 0.74918 0.98987 0.05393 0.0
H194 H 0.98297 0.32046 0.28573 0.0
H195 H 0.80329 0.05163 0.00851 0.0
H196 H 0.14877 0.49175 0.12087 0.0
N197 N 1.00754 0.32026 0.20039 0.0
C198 C 0.03899 0.37069 0.1959 0.0
C199 C 0.99828 0.3352 0.2604 0.0
C200 C 0.05014 0.40554 0.22325 0.0
C201 C 0.99065 0.30211 0.23286 0.0
C202 C 1.02768 0.38726 0.25549 0.0
N203 N 0.04955 0.3523 0.13847 0.0
C204 C 0.07437 0.36525 0.10755 0.0
C205 C 0.09737 0.43846 0.15855 0.0
C206 C 0.06199 0.38712 0.16409 0.0
C207 C 0.12121 0.45266 0.12621 0.0
C208 C 0.11011 0.41574 0.10074 0.0
H209 H 1.03478 0.41274 0.27713 0.0
H210 H 0.09313 0.48453 0.23838 0.0
H211 H 0.13476 0.51334 0.1817 0.0
O212 O 0.03651 0.24773 0.12541 0.0
O213 O 0.9709 0.32808 0.13307 0.0
O214 O 0.88626 0.28909 0.14542 0.0
O215 O 0.04863 0.26882 0.17894 0.0
O216 O 0.97247 0.25438 0.09621 0.0
O217 O 0.90985 0.27211 0.07942 0.0
O218 O 0.77636 0.21398 0.12366 0.0
O219 O 0.88834 0.17771 0.1081 0.0
O220 O 0.93357 0.1911 0.15764 0.0
O221 O 0.81387 0.24248 0.07543 0.0
O222 O 0.85796 0.23531 0.1713 0.0
O223 O 0.92709 0.22595 0.18621 0.0
C224 C 0.92871 0.3297 0.13726 0.0
C225 C 0.06155 0.2018 0.16093 0.0
C226 C 0.10273 0.15061 0.15604 0.0
C227 C 0.05984 0.10978 0.17092 0.0
C228 C 1.01991 0.16101 0.17701 0.0
C229 C 1.01894 0.11522 0.18166 0.0
C230 C 0.10337 0.19668 0.15096 0.0
C231 C 0.95464 0.27504 0.0747 0.0
C232 C 0.0606 0.24877 0.15341 0.0
C233 C 0.08416 0.45717 0.2177 0.0
C234 C 0.10795 0.47357 0.18545 0.0
C235 C 0.90371 0.16044 0.1334 0.0
C236 C 0.72296 0.18964 0.07544 0.0
C237 C 0.62942 0.14361 0.07578 0.0
C238 C 0.63 0.11421 0.04773 0.0
C239 C 0.722 0.16007 0.04713 0.0
C240 C 0.67645 0.18126 0.08957 0.0
C241 C 0.67587 0.12249 0.03359 0.0
C242 C 0.88535 0.22703 0.19423 0.0
C243 C 0.77154 0.22607 0.09251 0.0
H244 H 0.05853 0.07408 0.17503 0.0
H245 H 0.98817 0.16444 0.18617 0.0
H246 H 0.98644 0.0839 0.19379 0.0
H247 H 0.13604 0.22816 0.13899 0.0
H248 H 0.59495 0.08559 0.03603 0.0
H249 H 0.75679 0.16553 0.03559 0.0
H250 H 0.677 0.20359 0.11168 0.0
H251 H 0.67566 0.09976 0.01187 0.0
Tb252 Tb 0.41989 0.19748 0.39812 0.0
C253 C 0.39582 0.98996 0.34334 0.0
N254 N 0.38804 0.02506 0.32724 0.0
C255 C 0.43445 1.02209 0.27779 0.0
C256 C 0.42461 0.97066 0.32761 0.0
C257 C 0.40497 0.03954 0.29423 0.0
C258 C 0.44492 0.98803 0.29471 0.0
C259 C 0.37683 0.93268 0.39154 0.0
C260 C 0.37283 0.97166 0.37514 0.0
C261 C 0.40705 0.91469 0.3766 0.0
C262 C 0.43106 0.93378 0.34477 0.0
Tb263 Tb 0.3435 0.05357 0.3589 0.0
N264 N 0.34409 0.99003 0.38893 0.0
C265 C 0.3488 0.91173 0.42177 0.0
C266 C 0.31363 0.9671 0.41675 0.0
C267 C 0.31618 0.92826 0.43397 0.0
H268 H 0.39503 0.06348 0.27996 0.0
H269 H 0.29277 0.91094 0.45647 0.0
H270 H 0.44199 0.18995 0.48288 0.0
H271 H 0.32361 0.28333 0.3338 0.0
H272 H 0.28706 0.97846 0.42568 0.0
H273 H 0.3506 0.88154 0.43509 0.0
H274 H 0.38094 0.24838 0.33673 0.0
H275 H 0.44857 0.03452 0.25189 0.0
H276 H 0.41107 0.88514 0.38901 0.0
H277 H 0.45337 0.91876 0.3332 0.0
H278 H 0.40322 0.19429 0.538 0.0
H279 H 0.46735 0.97423 0.28174 0.0
H280 H 0.28141 0.29002 0.38677 0.0
N281 N 0.3948 0.2075 0.45199 0.0
C282 C 0.36214 0.22596 0.45206 0.0
C283 C 0.39075 0.20251 0.51394 0.0
C284 C 0.33915 0.2291 0.48298 0.0
C285 C 0.41216 0.19948 0.48255 0.0
C286 C 0.35306 0.21601 0.51407 0.0
N287 N 0.37187 0.23538 0.3911 0.0
C288 C 0.36326 0.25125 0.36017 0.0
C289 C 0.31735 0.26034 0.42015 0.0
C290 C 0.35128 0.24148 0.4209 0.0
C291 C 0.30738 0.27547 0.38841 0.0
C292 C 0.33089 0.27143 0.3584 0.0
H293 H 0.33611 0.2177 0.53838 0.0
H294 H 0.28354 0.24587 0.50515 0.0
H295 H 0.26559 0.27451 0.45049 0.0
O296 O 0.45819 0.27661 0.39628 0.0
O297 O 0.33684 0.15159 0.39967 0.0
O298 O 0.31704 0.10738 0.34894 0.0
O299 O 0.49596 0.23887 0.41596 0.0
O300 O 0.41817 0.19592 0.34057 0.0
O301 O 0.37719 0.11194 0.31912 0.0
O302 O 0.26514 1.01322 0.36823 0.0
O303 O 0.41995 0.07956 0.38097 0.0
O304 O 0.45732 0.16354 0.36857 0.0
O305 O 0.29649 0.99904 0.32215 0.0
O306 O 0.33448 0.07081 0.41246 0.0
O307 O 0.41057 0.13548 0.43315 0.0
C308 C 0.30599 0.13017 0.3735 0.0
C309 C 0.54395 0.31512 0.38376 0.0
C310 C 0.60956 0.40065 0.36686 0.0
C311 C 0.61716 0.38015 0.33617 0.0
C312 C 0.55101 0.29633 0.35227 0.0
C313 C 0.58802 0.3285 0.32899 0.0
C314 C 0.57304 0.3674 0.39084 0.0
C315 C 0.40252 0.16167 0.3152 0.0
C316 C 0.50106 0.28215 0.40652 0.0
C317 C 0.30322 0.24526 0.48191 0.0
C318 C 0.2929 0.2615 0.45073 0.0
C319 C 0.46101 0.12447 0.37849 0.0
C320 C 0.22091 0.93094 0.34555 0.0
C321 C 0.13584 0.86286 0.35944 0.0
C322 C 0.15365 0.82837 0.35805 0.0
C323 C 0.23811 0.89592 0.34422 0.0
C324 C 0.16958 0.91413 0.35292 0.0
C325 C 0.20447 0.84484 0.35043 0.0
C326 C 0.36992 0.08991 0.43629 0.0
C327 C 0.25572 0.9853 0.3406 0.0
H328 H 0.64572 0.40402 0.31761 0.0
H329 H 0.52692 0.25705 0.3452 0.0
H330 H 0.59355 0.31346 0.30494 0.0
H331 H 0.56569 0.38229 0.41434 0.0
H332 H 0.12816 0.78865 0.36255 0.0
H333 H 0.2774 0.90797 0.33857 0.0
H334 H 0.1561 0.94101 0.35418 0.0
H335 H 0.21783 0.81793 0.3494 0.0
Tb336 Tb 0.78167 0.73508 0.14656 0.0
C337 C 0.942 0.70235 0.06008 0.0
N338 N 0.89132 0.68231 0.05487 0.0
C339 C 0.90395 0.68393 0.99342 0.0
C340 C 0.97577 0.71434 0.03203 0.0
C341 C 0.87192 0.67247 0.02207 0.0
C342 C 0.956 0.70446 0.99845 0.0
C343 C 1.01182 0.72799 0.10033 0.0
C344 C 0.95967 0.70796 0.09372 0.0
C345 C 0.04584 0.74139 0.07248 0.0
C346 C 1.02775 0.73391 0.03841 0.0
Tb347 Tb 0.84226 0.65623 0.10356 0.0
N348 N 0.92546 0.69341 0.11997 0.0
C349 C 1.02801 0.73297 0.13471 0.0
C350 C 0.94079 0.69565 0.1534 0.0
C351 C 0.99226 0.71647 0.16135 0.0
H352 H 0.83145 0.65253 0.0179 0.0
H353 H 1.00422 0.71893 0.18798 0.0
H354 H 0.81103 0.77133 0.22817 0.0
H355 H 0.60108 0.63792 0.07921 0.0
H356 H 0.91357 0.68098 0.17396 0.0
H357 H 0.06779 0.74845 0.14091 0.0
H358 H 0.69294 0.67263 0.08559 0.0
H359 H 0.88826 0.67518 0.96754 0.0
H360 H 0.08603 0.75655 0.077 0.0
H361 H 0.0542 0.74279 0.0172 0.0
H362 H 0.76784 0.78328 0.27854 0.0
H363 H 0.98037 0.71106 0.97634 0.0
H364 H 0.5503 0.63915 0.12895 0.0
N365 N 0.74392 0.73517 0.19761 0.0
C366 C 0.69313 0.71682 0.19635 0.0
C367 C 0.74624 0.76347 0.25593 0.0
C368 C 0.66657 0.72038 0.22523 0.0
C369 C 0.77047 0.75657 0.22733 0.0
C370 C 0.694 0.74491 0.25506 0.0
N371 N 0.69545 0.6953 0.13799 0.0
C372 C 0.67188 0.67518 0.1071 0.0
C373 C 0.61507 0.67597 0.16327 0.0
C374 C 0.66795 0.69578 0.16563 0.0
C375 C 0.59089 0.65502 0.13177 0.0
C376 C 0.61945 0.6545 0.1036 0.0
H377 H 0.67529 0.7496 0.27754 0.0
H378 H 0.59282 0.70273 0.24508 0.0
H379 H 0.54752 0.66312 0.19092 0.0
O380 O 0.78322 0.79146 0.11452 0.0
O381 O 0.73126 0.651 0.14599 0.0
O382 O 0.76042 0.62434 0.09982 0.0
O383 O 0.80608 0.80713 0.16777 0.0
O384 O 0.80827 0.74535 0.0932 0.0
O385 O 0.79521 0.67296 0.06731 0.0
O386 O 0.84866 0.59536 0.12428 0.0
O387 O 0.89137 0.73994 0.10818 0.0
O388 O 0.86132 0.75964 0.15714 0.0
O389 O 0.82837 0.5948 0.07135 0.0
O390 O 0.82024 0.64146 0.15951 0.0
O391 O 0.82282 0.71369 0.18243 0.0
C392 C 0.72704 0.61505 0.12436 0.0
C393 C 0.77708 0.85774 0.14272 0.0
C394 C 0.7902 0.9433 0.14704 0.0
C395 C 0.73956 0.92286 0.15797 0.0
C396 C 0.72632 0.83801 0.15254 0.0
C397 C 0.7077 0.87056 0.16012 0.0
C398 C 0.80862 0.91027 0.1393 0.0
C399 C 0.78935 0.71324 0.06764 0.0
C400 C 0.79963 0.82521 0.13921 0.0
C401 C 0.61391 0.70059 0.22309 0.0
C402 C 0.58815 0.67813 0.19224 0.0
C403 C 0.89793 0.77008 0.1348 0.0
C404 C 0.87911 0.55753 0.08333 0.0
C405 C 0.91882 0.50479 0.09036 0.0
C406 C 0.94778 0.52692 0.06043 0.0
C407 C 0.90777 0.57747 0.05302 0.0
C408 C 0.88466 0.52079 0.10189 0.0
C409 C 0.9423 0.56295 0.04207 0.0
C410 C 0.82234 0.67045 0.186 0.0
C411 C 0.84169 0.57293 0.0944 0.0
H412 H 0.72447 0.94729 0.16464 0.0
H413 H 0.70149 0.79774 0.15503 0.0
H414 H 0.66865 0.85527 0.16821 0.0
H415 H 0.84802 0.92553 0.13194 0.0
H416 H 0.97346 0.51503 0.05028 0.0
H417 H 0.90295 0.60355 0.03711 0.0
H418 H 0.86207 0.50438 0.12491 0.0
H419 H 0.96404 0.57881 0.01867 0.0
Tb420 Tb 0.87234 0.21847 0.42233 0.0
C421 C 0.06316 0.29481 0.30336 0.0
N422 N 1.02767 0.25141 0.31823 0.0
C423 C 1.03159 0.20357 0.26998 0.0
C424 C 0.08431 0.29457 0.27093 0.0
C425 C 1.01161 0.20596 0.30212 0.0
C426 C 0.06856 0.24804 0.25451 0.0
C427 C 0.11763 0.3854 0.30779 0.0
C428 C 0.08019 0.33915 0.32179 0.0
C429 C 0.13747 0.38596 0.27476 0.0
C430 C 0.12114 0.34052 0.25647 0.0
Tb431 Tb 1.00466 0.25706 0.37348 0.0
N432 N 0.06148 0.33647 0.3541 0.0
C433 C 0.13469 0.42939 0.32771 0.0
C434 C 0.07963 0.37907 0.37422 0.0
C435 C 0.11571 0.42615 0.36113 0.0
H436 H 0.98443 0.17134 0.31448 0.0
H437 H 0.12927 0.45983 0.37699 0.0
H438 H 0.88956 0.24158 0.507 0.0
H439 H 0.7492 0.05026 0.34822 0.0
H440 H 0.06595 0.37715 0.40027 0.0
H441 H 0.16313 0.46578 0.31782 0.0
H442 H 0.8155 0.13902 0.35592 0.0
H443 H 1.01932 0.16737 0.25757 0.0
H444 H 0.16604 0.42114 0.26342 0.0
H445 H 0.13738 0.34128 0.23133 0.0
H446 H 0.84821 0.19598 0.56058 0.0
H447 H 0.0855 0.24595 0.23037 0.0
H448 H 0.7075 0.9972 0.39934 0.0
N449 N 0.84399 0.17887 0.47396 0.0
C450 C 0.80591 0.1301 0.47178 0.0
C451 C 0.83633 0.1769 0.53579 0.0
C452 C 0.7812 0.10278 0.50172 0.0
C453 C 0.86012 0.20235 0.5054 0.0
C454 C 0.79604 0.12728 0.53386 0.0
N455 N 0.8142 0.13602 0.41092 0.0
C456 C 0.79866 0.11637 0.37847 0.0
C457 C 0.75161 0.05716 0.43607 0.0
C458 C 0.79069 0.10788 0.4393 0.0
C459 C 0.73714 0.03614 0.4029 0.0
C460 C 0.76063 0.06596 0.37399 0.0
H461 H 0.77649 0.10831 0.55731 0.0
H462 H 0.72332 0.03052 0.52145 0.0
H463 H 0.69826 0.99011 0.46395 0.0
O464 O 0.80768 0.21876 0.4026 0.0
O465 O 0.89759 0.16258 0.42187 0.0
O466 O 0.94172 0.17821 0.37067 0.0
O467 O 0.83747 0.2506 0.45259 0.0
O468 O 0.87566 0.23239 0.36539 0.0
O469 O 0.93571 0.21395 0.34338 0.0
O470 O 1.02148 0.21611 0.41002 0.0
O471 O 0.97596 0.31207 0.37009 0.0
O472 O 0.93138 0.29675 0.42087 0.0
O473 O 0.0746 0.25856 0.36991 0.0
O474 O 1.01264 0.29232 0.42388 0.0
O475 O 0.94062 0.24257 0.45674 0.0
C476 C 0.91333 0.14711 0.3953 0.0
C477 C 0.74668 0.20724 0.44584 0.0
C478 C 0.65339 0.16507 0.43902 0.0
C479 C 0.64836 0.15118 0.47406 0.0
C480 C 0.73947 0.19382 0.48096 0.0
C481 C 0.69091 0.16555 0.49471 0.0
C482 C 0.70311 0.19327 0.42497 0.0
C483 C 0.89792 0.2229 0.33921 0.0
C484 C 0.79933 0.23598 0.43133 0.0
C485 C 0.74229 0.05223 0.49864 0.0
C486 C 0.72799 0.02928 0.46593 0.0
C487 C 0.94973 0.32298 0.39271 0.0
C488 C 0.06881 0.18095 0.38395 0.0
C489 C 0.12173 0.14279 0.37091 0.0
C490 C 0.07881 0.0999 0.35765 0.0
C491 C 1.02686 0.13717 0.37075 0.0
C492 C 0.11656 0.1834 0.38433 0.0
C493 C 1.03171 0.09707 0.35781 0.0
C494 C 0.99093 0.27172 0.45339 0.0
C495 C 0.06325 0.22519 0.39408 0.0
H496 H 0.61128 0.13044 0.48597 0.0
H497 H 0.77134 0.20529 0.49812 0.0
H498 H 0.68622 0.15526 0.52177 0.0
H499 H 0.7079 0.20412 0.398 0.0
H500 H 0.08164 0.06815 0.34754 0.0
H501 H 0.99032 0.13417 0.36972 0.0
H502 H 0.14959 0.21701 0.39416 0.0
H503 H 0.99879 0.06378 0.34761 0.0
Tb504 Tb 0.23077 0.39302 0.61603 0.0
C505 C 0.05011 0.38923 0.69303 0.0
N506 N 0.07515 0.36412 0.70107 0.0
C507 C 0.07971 0.38931 0.76052 0.0
C508 C 0.03914 0.4157 0.71853 0.0
C509 C 0.08867 0.36261 0.73446 0.0
C510 C 0.05479 0.41593 0.75256 0.0
C511 C 1.00937 0.41383 0.64952 0.0
C512 C 1.03584 0.38871 0.65891 0.0
C513 C 0.99823 0.44016 0.67484 0.0
C514 C 1.01318 0.44118 0.70925 0.0
Tb515 Tb 0.09133 0.32567 0.65569 0.0
N516 N 0.04861 0.36405 0.63489 0.0
C517 C 0.99455 0.41137 0.615 0.0
C518 C 1.03155 0.3591 0.60176 0.0
C519 C 1.00512 0.3833 0.59112 0.0
H520 H 0.10509 0.33966 0.7413 0.0
H521 H 0.99228 0.37964 0.56462 0.0
H522 H 0.23377 0.40822 0.53079 0.0
H523 H 0.30509 0.30406 0.69951 0.0
H524 H 0.03668 0.33543 0.5837 0.0
H525 H 0.974 0.43002 0.60672 0.0
H526 H 0.25702 0.34717 0.68598 0.0
H527 H 0.09098 0.38841 0.7869 0.0
H528 H 0.97801 0.45978 0.6681 0.0
H529 H 1.00437 0.46168 0.7285 0.0
H530 H 0.27622 0.39389 0.48099 0.0
H531 H 0.0472 0.43588 0.77294 0.0
H532 H 0.34817 0.28422 0.65261 0.0
N533 N 0.26033 0.37454 0.56713 0.0
C534 C 0.28889 0.3523 0.57241 0.0
C535 C 0.27986 0.38179 0.50655 0.0
C536 C 0.31531 0.34515 0.54496 0.0
C537 C 0.25515 0.38906 0.53474 0.0
C538 C 0.31058 0.36035 0.51174 0.0
N539 N 0.26818 0.34723 0.63168 0.0
C540 C 0.27398 0.33714 0.66522 0.0
C541 C 0.32266 0.31548 0.61241 0.0
C542 C 0.29291 0.3381 0.60574 0.0
C543 C 0.32602 0.30206 0.64645 0.0
C544 C 0.30174 0.31317 0.67299 0.0
H545 H 0.33077 0.35609 0.49001 0.0
H546 H 0.36817 0.31975 0.53114 0.0
H547 H 0.37293 0.2918 0.58983 0.0
O548 O 0.29626 0.44151 0.64383 0.0
O549 O 0.18987 0.30977 0.61579 0.0
O550 O 0.13828 0.28981 0.66364 0.0
O551 O 0.28897 0.45805 0.5909 0.0
O552 O 0.21872 0.41025 0.67068 0.0
O553 O 0.15208 0.33542 0.68966 0.0
O554 O 1.0309 0.25744 0.63566 0.0
O555 O 0.13364 0.41027 0.65038 0.0
O556 O 0.18651 0.42855 0.60335 0.0
O557 O 1.03305 0.27694 0.68914 0.0
O558 O 0.09997 0.30692 0.60247 0.0
O559 O 0.16932 0.37491 0.57713 0.0
C560 C 0.16263 0.27803 0.64029 0.0
C561 C 0.35044 0.52527 0.62689 0.0
C562 C 0.43593 0.5962 0.63814 0.0
C563 C 0.41412 0.62209 0.65455 0.0
C564 C 0.32957 0.55194 0.64313 0.0
C565 C 0.36135 0.60025 0.65671 0.0
C566 C 0.40366 0.54787 0.62394 0.0
C567 C 0.19276 0.37898 0.69598 0.0
C568 C 0.31855 0.47137 0.61787 0.0
C569 C 0.34626 0.32404 0.55167 0.0
C570 C 0.34924 0.30844 0.58516 0.0
C571 C 0.16163 0.44084 0.62528 0.0
C572 C 1.00529 0.19127 0.67623 0.0
C573 C 0.95843 0.09849 0.67522 0.0
C574 C 0.99552 0.09864 0.69692 0.0
C575 C 0.04151 0.18985 0.69802 0.0
C576 C 0.96378 0.14517 0.66446 0.0
C577 C 0.03674 0.14396 0.70809 0.0
C578 C 0.12312 0.33432 0.5753 0.0
C579 C 1.01171 0.24104 0.66617 0.0
H580 H 0.43797 0.6595 0.6654 0.0
H581 H 0.2889 0.53476 0.64619 0.0
H582 H 0.34503 0.62056 0.66945 0.0
H583 H 0.41999 0.52703 0.61189 0.0
H584 H 0.99252 0.06342 0.7053 0.0
H585 H 0.07337 0.22443 0.70774 0.0
H586 H 0.93538 0.14558 0.6478 0.0
H587 H 0.06494 0.14353 0.7249 0.0
Tb588 Tb 0.28011 0.99388 0.86374 0.0
C589 C 0.0952 0.80787 0.91592 0.0
N590 N 0.14169 0.83531 0.93102 0.0
C591 C 0.10316 0.84337 0.98301 0.0
C592 C 0.05081 0.79844 0.93366 0.0
C593 C 0.14625 0.85201 0.96436 0.0
C594 C 0.05537 0.81702 0.96749 0.0
C595 C 0.04564 0.76701 0.86446 0.0
C596 C 0.09286 0.79298 0.88152 0.0
C597 C 1.00116 0.75679 0.88224 0.0
C598 C 1.00376 0.77268 0.91666 0.0
Tb599 Tb 0.20859 0.84706 0.89782 0.0
N600 N 0.13699 0.80578 0.86449 0.0
C601 C 0.04459 0.75262 0.82989 0.0
C602 C 0.13572 0.78922 0.83136 0.0
C603 C 0.08975 0.76328 0.81343 0.0
H604 H 0.18302 0.87212 0.97652 0.0
H605 H 0.08913 0.75096 0.787 0.0
H606 H 0.2537 0.99837 0.78181 0.0
H607 H 0.45032 0.10416 0.93857 0.0
H608 H 0.16953 0.79432 0.81875 0.0
H609 H 1.00908 0.73267 0.81585 0.0
H610 H 0.35901 0.0449 0.9293 0.0
H611 H 0.10668 0.85701 0.00934 0.0
H612 H 0.96461 0.73724 0.86943 0.0
H613 H 0.96923 0.76549 0.92973 0.0
H614 H 0.2993 0.04702 0.73032 0.0
H615 H 1.02228 0.81135 0.98183 0.0
H616 H 0.50648 0.1436 0.88811 0.0
N617 N 0.32006 0.02906 0.81309 0.0
C618 C 0.37072 0.06148 0.81503 0.0
C619 C 0.31998 0.05091 0.75376 0.0
C620 C 0.3985 0.08917 0.78597 0.0
C621 C 0.29439 0.02293 0.7829 0.0
C622 C 0.37232 0.08388 0.75512 0.0
N623 N 0.36438 0.04633 0.87474 0.0
C624 C 0.38358 0.06004 0.90741 0.0
C625 C 0.44587 0.1055 0.85072 0.0
C626 C 0.39387 0.06998 0.84694 0.0
C627 C 0.4667 0.11649 0.88405 0.0
C628 C 0.43516 0.09431 0.91259 0.0
H629 H 0.39202 0.10519 0.73233 0.0
H630 H 0.47303 0.14381 0.76691 0.0
H631 H 0.51472 0.15785 0.8237 0.0
O632 O 0.25964 0.03362 0.89909 0.0
O633 O 0.33488 0.96759 0.87518 0.0
O634 O 0.29052 0.88213 0.892 0.0
O635 O 0.269 0.0521 0.84503 0.0
O636 O 0.25073 0.9653 0.91488 0.0
O637 O 0.25876 0.90228 0.93803 0.0
O638 O 0.20159 0.77698 0.88431 0.0
O639 O 0.17219 0.89436 0.89389 0.0
O640 O 0.20283 0.94228 0.8452 0.0
O641 O 0.19979 0.79583 0.93755 0.0
O642 O 0.24362 0.86063 0.8458 0.0
O643 O 0.24474 0.93275 0.8257 0.0
C644 C 0.33237 0.92431 0.88389 0.0
C645 C 0.28182 0.11716 0.88356 0.0
C646 C 0.27107 0.19028 0.89274 0.0
C647 C 0.3232 0.22 0.89961 0.0
C648 C 0.3341 0.14751 0.88939 0.0
C649 C 0.35462 0.19875 0.89753 0.0
C650 C 0.25058 0.13886 0.88475 0.0
C651 C 0.27087 0.9504 0.93844 0.0
C652 C 0.25869 0.06317 0.8753 0.0
C653 C 0.45088 0.12276 0.78909 0.0
C654 C 0.47461 0.1307 0.82141 0.0
C655 C 0.16477 0.91373 0.86577 0.0
C656 C 0.1497 0.7087 0.92025 0.0
C657 C 0.11003 0.61708 0.90933 0.0
C658 C 0.06537 0.61057 0.92507 0.0
C659 C 0.10499 0.70066 0.93657 0.0
C660 C 0.15197 0.6667 0.90676 0.0
C661 C 0.06304 0.65201 0.9386 0.0
C662 C 0.25031 0.893 0.82102 0.0
C663 C 0.19368 0.76039 0.91577 0.0
H664 H 0.33959 0.25965 0.90624 0.0
H665 H 0.35892 0.13178 0.88783 0.0
H666 H 0.39488 0.22195 0.90244 0.0
H667 H 0.21021 0.11561 0.87989 0.0
H668 H 1.03274 0.57317 0.92809 0.0
H669 H 0.10235 0.73179 0.94784 0.0
H670 H 0.18651 0.67275 0.89425 0.0
H671 H 1.02871 0.64629 0.95119 0.0
Tb672 Tb 0.69232 0.83926 0.60147 0.0
C673 C 0.76761 0.70769 0.70125 0.0
N674 N 0.78402 0.75795 0.69913 0.0
C675 C 0.82358 0.77222 0.75451 0.0
C676 C 0.77761 0.68741 0.73085 0.0
C677 C 0.81071 0.79031 0.72544 0.0
C678 C 0.80613 0.72047 0.75766 0.0
C679 C 0.72712 0.6251 0.67368 0.0
C680 C 0.74361 0.67723 0.67271 0.0
C681 C 0.73444 0.60412 0.70388 0.0
C682 C 0.76005 0.63528 0.73228 0.0
Tb683 Tb 0.77151 0.78467 0.64764 0.0
N684 N 0.73882 0.69917 0.6435 0.0
C685 C 0.70526 0.59595 0.64388 0.0
C686 C 0.72 0.67132 0.61388 0.0
C687 C 0.70204 0.61927 0.61379 0.0
H688 H 0.82432 0.83032 0.72297 0.0
H689 H 0.68608 0.59723 0.59042 0.0
H690 H 0.7271 0.84122 0.51895 0.0
H691 H 0.72451 0.98863 0.69183 0.0
H692 H 0.71737 0.6888 0.59067 0.0
H693 H 0.69191 0.55573 0.64359 0.0
H694 H 0.68597 0.90045 0.67183 0.0
H695 H 0.84755 0.79832 0.77416 0.0
H696 H 0.72173 0.56408 0.70518 0.0
H697 H 0.76666 0.61881 0.75503 0.0
H698 H 0.78142 0.90562 0.47674 0.0
H699 H 0.81564 0.70662 0.78055 0.0
H700 H 0.78203 0.05828 0.65326 0.0
N701 N 0.73935 0.89462 0.55897 0.0
C702 C 0.76007 0.94443 0.56744 0.0
C703 C 0.7762 0.91701 0.50232 0.0
C704 C 0.79227 0.98246 0.54428 0.0
C705 C 0.74578 0.88048 0.52657 0.0
C706 C 0.80008 0.9682 0.51137 0.0
N707 N 0.72253 0.91929 0.62272 0.0
C708 C 0.71148 0.93011 0.65484 0.0
C709 C 0.7743 1.00824 0.61078 0.0
C710 C 0.75116 0.95717 0.6003 0.0
C711 C 0.76485 1.01951 0.6442 0.0
C712 C 0.73275 0.98028 0.66614 0.0
H713 H 0.82436 0.99642 0.49281 0.0
H714 H 0.8427 0.06289 0.53791 0.0
H715 H 0.82701 0.08545 0.59615 0.0
O716 O 0.62647 0.84337 0.61401 0.0
O717 O 0.776 0.88257 0.61041 0.0
O718 O 0.7909 0.8606 0.66348 0.0
O719 O 0.64376 0.83496 0.56145 0.0
O720 O 0.67115 0.8164 0.65658 0.0
O721 O 0.74114 0.81891 0.68415 0.0
O722 O 0.83502 0.82335 0.61486 0.0
O723 O 0.68825 0.73106 0.64573 0.0
O724 O 0.65653 0.75719 0.60062 0.0
O725 O 0.83834 0.78296 0.65911 0.0
O726 O 0.77645 0.80074 0.59242 0.0
O727 O 0.70275 0.78534 0.56764 0.0
C728 C 0.79907 0.89548 0.64069 0.0
C729 C 0.60136 0.88197 0.57064 0.0
C730 C 0.54481 0.91851 0.57302 0.0
C731 C 0.57127 0.94868 0.54438 0.0
C732 C 0.62758 0.91415 0.54296 0.0
C733 C 0.61232 0.94684 0.52993 0.0
C734 C 0.56027 0.88472 0.58589 0.0
C735 C 0.69669 0.81754 0.68474 0.0
C736 C 0.61434 0.84313 0.58176 0.0
C737 C 0.81661 0.03327 0.55501 0.0
C738 C 0.80759 0.04612 0.58814 0.0
C739 C 0.65107 0.72508 0.62494 0.0
C740 C 0.91299 0.85769 0.64526 0.0
C741 C 1.00559 0.90157 0.64719 0.0
C742 C 1.00519 0.93841 0.6691 0.0
C743 C 0.91372 0.8939 0.66823 0.0
C744 C 0.95921 0.8617 0.63464 0.0
C745 C 0.95948 0.93454 0.67947 0.0
C746 C 0.74267 0.77887 0.56819 0.0
C747 C 0.86417 0.81397 0.63454 0.0
H748 H 0.55979 0.97326 0.53226 0.0
H749 H 0.65915 0.91323 0.53063 0.0
H750 H 0.63168 0.97026 0.50791 0.0
H751 H 0.54047 0.86036 0.60749 0.0
H752 H 0.04035 0.96977 0.67873 0.0
H753 H 0.87903 0.89027 0.67822 0.0
H754 H 0.959 0.83283 0.61799 0.0
H755 H 0.95948 0.96244 0.69696 0.0
Tb756 Tb 0.06458 0.30969 0.8805 0.0
C757 C 0.25719 0.37237 0.97088 0.0
N758 N 0.22028 0.38508 0.97371 0.0
C759 C 0.21726 0.37276 0.03517 0.0
C760 C 0.27511 0.35868 1.00017 0.0
C761 C 0.20086 0.38634 1.00544 0.0
C762 C 0.25448 0.35883 0.03254 0.0
C763 C 0.31514 0.35987 0.93429 0.0
C764 C 0.27686 0.3728 0.93833 0.0
C765 C 0.33316 0.34631 0.96341 0.0
C766 C 0.31309 0.34556 0.99625 0.0
Tb767 Tb 0.19985 0.40979 0.92338 0.0
N768 N 0.25715 0.38427 0.91053 0.0
C769 C 0.3336 0.36024 0.90103 0.0
C770 C 0.27631 0.38631 0.8782 0.0
C771 C 0.31418 0.37364 0.87291 0.0
H772 H 0.17377 0.39914 0.00838 0.0
H773 H 0.32886 0.37489 0.84717 0.0
H774 H 0.06617 0.25986 0.80481 0.0
H775 H 0.95067 0.38581 0.9316 0.0
H776 H 0.26364 0.39875 0.85643 0.0
H777 H 0.36304 0.35063 0.89681 0.0
H778 H 1.01477 0.35886 0.93418 0.0
H779 H 0.20167 0.37377 0.0602 0.0
H780 H 0.3623 0.33592 0.96077 0.0
H781 H 0.3272 0.33478 0.01844 0.0
H782 H 1.01628 0.23741 0.75089 0.0
H783 H 0.26743 0.34886 0.05568 0.0
H784 H 0.90693 0.37967 0.87635 0.0
N785 N 1.02953 0.29729 0.82696 0.0
C786 C 0.9945 0.31202 0.82285 0.0
C787 C 1.01037 0.25919 0.77059 0.0
C788 C 0.96659 0.30183 0.79189 0.0
C789 C 0.03862 0.27203 0.80116 0.0
C790 C 0.97471 0.27477 0.76564 0.0
N791 N 1.00946 0.34011 0.8808 0.0
C792 C 0.9965 0.35661 0.90998 0.0
C793 C 0.947 0.34885 0.84791 0.0
C794 C 0.98454 0.33477 0.85056 0.0
C795 C 0.93551 0.36836 0.8773 0.0
C796 C 0.96003 0.37178 0.90856 0.0
H797 H 0.95346 0.26538 0.74167 0.0
H798 H 0.90914 0.31061 0.76484 0.0
H799 H 0.89217 0.3521 0.81387 0.0
O800 O 1.00641 0.25734 0.91313 0.0
O801 O 0.08731 0.3915 0.87452 0.0
O802 O 0.14094 0.42962 0.92067 0.0
O803 O 1.02677 0.23289 0.86653 0.0
O804 O 0.08566 0.31295 0.93452 0.0
O805 O 0.13168 0.39242 0.95538 0.0
O806 O 0.26094 0.47646 0.90268 0.0
O807 O 0.17326 0.32839 0.92544 0.0
O808 O 0.12599 0.29178 0.87613 0.0
O809 O 0.24229 0.47186 0.95649 0.0
O810 O 0.19259 0.41377 0.86596 0.0
O811 O 0.12945 0.33447 0.8458 0.0
C812 C 0.11728 0.43224 0.8933 0.0
C813 C 0.94274 0.18288 0.88481 0.0
C814 C 0.87599 0.09521 0.87622 0.0
C815 C 0.84494 0.11233 0.86187 0.0
C816 C 0.91047 0.1992 0.87157 0.0
C817 C 0.8619 0.16405 0.86001 0.0
C818 C 0.92496 0.1307 0.88773 0.0
C819 C 0.09075 0.34705 0.95703 0.0
C820 C 0.99623 0.21907 0.8928 0.0
C821 C 0.93052 0.31753 0.7886 0.0
C822 C 0.92091 0.34121 0.81651 0.0
C823 C 0.15742 0.29439 0.90048 0.0
C824 C 0.33001 0.51244 0.94213 0.0
C825 C 0.42066 0.55447 0.92738 0.0
C826 C 0.42937 0.53407 0.95735 0.0
C827 C 0.34079 0.49487 0.97275 0.0
C828 C 0.37057 0.54324 0.91974 0.0
C829 C 0.3898 0.50484 0.97989 0.0
C830 C 0.1697 0.37957 0.841 0.0
C831 C 0.27651 0.49681 0.93312 0.0
H832 H 0.80731 0.08566 0.85254 0.0
H833 H 0.92288 0.23892 0.86977 0.0
H834 H 0.83745 0.17694 0.84938 0.0
H835 H 0.94955 0.11773 0.89813 0.0
H836 H 0.46736 0.54248 0.96415 0.0
H837 H 0.31134 0.47295 0.99128 0.0
H838 H 0.36322 0.55824 0.89651 0.0
H839 H 0.39725 0.49034 1.00329 0.0
Tb840 Tb 0.24775 0.8537 0.59596 0.0
C841 C 0.42511 0.04169 0.66687 0.0
N842 N 0.37595 1.01109 0.67642 0.0
C843 C 0.40388 1.00074 0.73236 0.0
C844 C 0.46559 0.05201 0.68943 0.0
C845 C 0.36507 0.99269 0.70935 0.0
C846 C 0.45439 0.03022 0.72228 0.0
C847 C 0.48494 0.09769 0.62406 0.0
C848 C 0.43484 0.06415 0.63468 0.0
C849 C 0.52544 0.10724 0.64611 0.0
C850 C 0.51578 0.08436 0.6787 0.0
Tb851 Tb 0.31676 0.99765 0.63457 0.0
N852 N 0.39489 0.05297 0.61369 0.0
C853 C 0.49264 0.1207 0.59166 0.0
C854 C 0.40181 0.07727 0.58299 0.0
C855 C 0.45079 0.11091 0.57123 0.0
H856 H 0.32682 0.97359 0.7189 0.0
H857 H 0.4562 0.12952 0.54656 0.0
H858 H 0.24318 0.86966 0.51102 0.0
H859 H 0.09913 0.75909 0.69184 0.0
H860 H 0.36954 0.07117 0.56778 0.0
H861 H 0.53056 0.14673 0.58251 0.0
H862 H 0.18623 0.79789 0.6701 0.0
H863 H 0.39472 0.98554 0.75827 0.0
H864 H 0.56429 0.1326 0.63835 0.0
H865 H 0.54735 0.09253 0.69561 0.0
H866 H 0.17774 0.85546 0.46792 0.0
H867 H 0.48434 0.03721 0.74041 0.0
H868 H 1.0294 0.74623 0.65276 0.0
N869 N 0.1912 0.84149 0.55315 0.0
C870 C 0.14149 0.81691 0.56287 0.0
C871 C 0.16716 0.84511 0.49466 0.0
C872 C 0.10291 0.80829 0.53909 0.0
C873 C 0.2043 0.85373 0.51931 0.0
C874 C 0.11636 0.82297 0.50468 0.0
N875 N 0.16807 0.81276 0.6199 0.0
C876 C 0.1572 0.79543 0.65309 0.0
C877 C 0.07872 0.77894 0.60852 0.0
C878 C 0.12961 0.80254 0.59732 0.0
C879 C 0.06798 0.76433 0.64313 0.0
C880 C 0.1073 0.77192 0.66534 0.0
H881 H 0.08773 0.81676 0.48563 0.0
H882 H 1.02232 0.77972 0.53265 0.0
H883 H 1.00106 0.75349 0.59323 0.0
O884 O 0.21329 0.77456 0.59883 0.0
O885 O 0.21152 0.9011 0.59472 0.0
O886 O 0.23711 0.94521 0.64544 0.0
O887 O 0.27285 0.81518 0.56245 0.0
O888 O 0.26866 0.86041 0.65157 0.0
O889 O 0.27396 0.93582 0.671 0.0
O890 O 0.29197 0.04686 0.61637 0.0
O891 O 0.36397 0.9701 0.60967 0.0
O892 O 0.32234 0.88465 0.62112 0.0
O893 O 0.32594 0.05792 0.66642 0.0
O894 O 0.29046 0.98216 0.58103 0.0
O895 O 0.29765 0.9149 0.55914 0.0
C896 C 0.20232 0.92153 0.62177 0.0
C897 C 0.26276 0.73718 0.58548 0.0
C898 C 0.24817 0.6542 0.60504 0.0
C899 C 0.30091 0.67438 0.60681 0.0
C900 C 0.31519 0.75542 0.58639 0.0
C901 C 0.33404 0.7244 0.59734 0.0
C902 C 0.22919 0.68588 0.59425 0.0
C903 C 0.27044 0.8914 0.67647 0.0
C904 C 0.24249 0.77102 0.57593 0.0
C905 C 0.05238 0.78591 0.55044 0.0
C906 C 0.04029 0.77104 0.58498 0.0
C907 C 0.36403 0.92725 0.61389 0.0
C908 C 0.25795 0.07442 0.66091 0.0
C909 C 0.2069 0.11617 0.66738 0.0
C910 C 0.17398 0.07684 0.68946 0.0
C911 C 0.22461 0.03635 0.6834 0.0
C912 C 0.24889 0.11439 0.65281 0.0
C913 C 0.18298 0.03755 0.69747 0.0
C914 C 0.30354 0.96106 0.55632 0.0
C915 C 0.30117 0.07129 0.64561 0.0
H916 H 0.31651 0.65086 0.61459 0.0
H917 H 0.34165 0.79365 0.57855 0.0
H918 H 0.3746 0.73909 0.59818 0.0
H919 H 0.18854 0.67076 0.59282 0.0
H920 H 0.1408 0.07614 0.70043 0.0
H921 H 0.23081 1.00554 0.69023 0.0
H922 H 0.27474 0.14416 0.6357 0.0
H923 H 0.15744 1.00774 0.71463 0.0
Tb924 Tb 0.73155 0.76644 0.86169 0.0
C925 C 0.67906 0.91065 0.96125 0.0
N926 N 0.66297 0.86049 0.96284 0.0
C927 C 0.65193 0.86171 0.02427 0.0
C928 C 0.68069 0.93817 0.99114 0.0
C929 C 0.65002 0.83584 0.99381 0.0
C930 C 0.66604 0.91274 0.02279 0.0
C931 C 0.70672 0.98548 0.92627 0.0
C932 C 0.69108 0.93372 0.9292 0.0
C933 C 0.70891 1.0133 0.95599 0.0
C934 C 0.69505 0.98948 0.98823 0.0
Tb935 Tb 0.64928 0.82027 0.91083 0.0
N936 N 0.68603 0.90499 0.9008 0.0
C937 C 0.71796 1.00727 0.89341 0.0
C938 C 0.69489 0.92565 0.86856 0.0
C939 C 0.71207 0.97721 0.86443 0.0
H940 H 0.6343 0.79539 0.99474 0.0
H941 H 0.7198 0.99352 0.83882 0.0
H942 H 0.72663 0.78519 0.77744 0.0
H943 H 0.66918 0.59481 0.93575 0.0
H944 H 0.68865 0.90273 0.84591 0.0
H945 H 0.73009 0.04693 0.89009 0.0
H946 H 0.70132 0.68507 0.92819 0.0
H947 H 0.64016 0.84171 0.04858 0.0
H948 H 0.72021 0.05298 0.95422 0.0
H949 H 0.69528 1.01104 0.01068 0.0
H950 H 0.68753 0.73212 0.7254 0.0
H951 H 0.66439 0.93172 0.04611 0.0
H952 H 0.64182 0.53773 0.88486 0.0
N953 N 0.70388 0.7226 0.81078 0.0
C954 C 0.68363 0.67166 0.81295 0.0
C955 C 0.68569 0.71477 0.75001 0.0
C956 C 0.66371 0.64028 0.7835 0.0
C957 C 0.70689 0.74461 0.77962 0.0
C958 C 0.66381 0.6624 0.75195 0.0
N959 N 0.69602 0.68173 0.87345 0.0
C960 C 0.69145 0.66186 0.90565 0.0
C961 C 0.66054 0.59801 0.84835 0.0
C962 C 0.68114 0.65072 0.84513 0.0
C963 C 0.65722 0.57796 0.88128 0.0
C964 C 0.67254 0.61005 0.91006 0.0
H965 H 0.64832 0.6396 0.72878 0.0
H966 H 0.62888 0.56334 0.76407 0.0
H967 H 0.62677 0.52635 0.82082 0.0
O968 O 0.80268 0.78118 0.88136 0.0
O969 O 0.64747 0.7167 0.86194 0.0
O970 O 0.6281 0.74179 0.91226 0.0
O971 O 0.78611 0.76871 0.82736 0.0
O972 O 0.74286 0.77666 0.91738 0.0
O973 O 0.67587 0.77921 0.94572 0.0
O974 O 0.5891 0.82694 0.88868 0.0
O975 O 0.73196 0.86769 0.91372 0.0
O976 O 0.75866 0.84869 0.86272 0.0
O977 O 0.58145 0.79531 0.93899 0.0
O978 O 0.63895 0.80584 0.85335 0.0
O979 O 0.71706 0.82018 0.8351 0.0
C980 C 0.61389 0.71271 0.88511 0.0
C981 C 0.86939 0.83062 0.84222 0.0
C982 C 0.96223 0.87875 0.83834 0.0
C983 C 0.95886 0.9171 0.82076 0.0
C984 C 0.8674 0.87009 0.82504 0.0
C985 C 0.91178 0.9129 0.81444 0.0
C986 C 0.91718 0.83546 0.84932 0.0
C987 C 0.71745 0.7745 0.94557 0.0
C988 C 0.82144 0.78374 0.85063 0.0
C989 C 0.64379 0.58792 0.78652 0.0
C990 C 0.64265 0.56688 0.81882 0.0
C991 C 0.76615 0.87924 0.88932 0.0
C992 C 0.54343 0.84693 0.93056 0.0
C993 C 0.49807 0.89468 0.92341 0.0
C994 C 0.51197 0.91322 0.95738 0.0
C995 C 0.55337 0.86399 0.96507 0.0
C996 C 0.51458 0.86176 0.90988 0.0
C997 C 0.53905 0.89773 0.97798 0.0
C998 C 0.67192 0.81349 0.82833 0.0
C999 C 0.56212 0.81301 0.91688 0.0
H1000 H 0.99286 0.95069 0.81225 0.0
H1001 H 0.83134 0.86711 0.81879 0.0
H1002 H 0.90963 0.94275 0.80094 0.0
H1003 H 0.91931 0.80533 0.86251 0.0
H1004 H 0.49955 0.93776 0.96882 0.0
H1005 H 0.5718 0.85094 0.9825 0.0
H1006 H 0.50453 0.84733 0.88368 0.0
H1007 H 0.54788 0.91094 1.0045 0.0
C1008 C 0.14291 0.10737 0.12428 0.0
C1009 C 0.14733 0.14534 0.14724 0.0
H1010 H 0.18094 0.0729 0.09858 0.0
C1011 C 0.19401 0.17658 0.16343 0.0
H1012 H 0.10698 0.08238 0.11185 0.0
C1013 C 0.23568 0.17024 0.15669 0.0
C1014 C 0.23201 0.13352 0.13284 0.0
H1015 H 0.19802 0.20537 0.18179 0.0
H1016 H 0.27096 0.19432 0.17011 0.0
C1017 C 0.18503 0.10173 0.11692 0.0
C1018 C 0.0474 0.83966 0.3425 0.0
C1019 C 0.08219 0.84497 0.36824 0.0
H1020 H 0.96915 0.80963 0.3291 0.0
C1021 C 0.06485 0.82943 0.40204 0.0
H1022 H 0.06018 0.85157 0.31626 0.0
C1023 C 1.01304 0.80629 0.40962 0.0
C1024 C 0.9775 0.7972 0.38332 0.0
H1025 H 0.09124 0.83351 0.42225 0.0
H1026 H 1.00061 0.79301 0.43569 0.0
C1027 C 0.99541 0.81592 0.34995 0.0
C1028 C 0.87957 0.07394 0.11104 0.0
C1029 C 0.8799 0.10522 0.13798 0.0
H1030 H 0.8512 0.99772 0.09293 0.0
C1031 C 0.85326 0.08298 0.16846 0.0
H1032 H 0.89942 0.09029 0.08708 0.0
C1033 C 0.82541 0.03049 0.17176 0.0
C1034 C 0.82376 0.99896 0.14456 0.0
H1035 H 0.85092 0.10601 0.18876 0.0
H1036 H 0.80391 1.01455 0.19524 0.0
C1037 C 0.85214 1.02115 0.11443 0.0
C1038 C 0.23911 0.14226 0.40298 0.0
C1039 C 0.25846 0.13279 0.37239 0.0
H1040 H 0.18216 0.15504 0.42626 0.0
C1041 C 0.23305 0.12794 0.3411 0.0
H1042 H 0.25703 0.14503 0.42769 0.0
C1043 C 0.18955 0.13286 0.34047 0.0
C1044 C 0.17091 0.14329 0.37102 0.0
H1045 H 0.24695 0.12072 0.31711 0.0
H1046 H 0.17022 0.12827 0.31607 0.0
C1047 C 0.19634 0.14823 0.40224 0.0
C1048 C 0.0382 0.87383 0.12821 0.0
C1049 C 0.04601 0.89817 0.16061 0.0
H1050 H 0.98523 0.81498 0.09412 0.0
C1051 C 1.00582 0.87799 0.18456 0.0
H1052 H 0.06821 0.88843 0.10908 0.0
C1053 C 0.95869 0.83648 0.17607 0.0
C1054 C 0.94979 0.81313 0.14331 0.0
H1055 H 1.01052 0.89508 0.20995 0.0
H1056 H 0.92892 0.8231 0.19536 0.0
C1057 C 0.99051 0.83186 0.1196 0.0
C1058 C 0.8614 1.0205 0.34909 0.0
C1059 C 0.83421 0.98661 0.37562 0.0
H1060 H 0.90723 0.09774 0.33435 0.0
C1061 C 0.83549 1.0052 0.4091 0.0
H1062 H 0.86079 1.00676 0.32306 0.0
C1063 C 0.86321 0.05722 0.41592 0.0
C1064 C 0.88904 0.09165 0.38911 0.0
H1065 H 0.81465 0.97944 0.42983 0.0
H1066 H 0.86331 0.07051 0.442 0.0
C1067 C 0.88819 0.07253 0.35568 0.0
C1068 C 0.17906 0.17771 0.68675 0.0
C1069 C 0.19657 0.15839 0.66015 0.0
H1070 H 0.15511 0.23031 0.70155 0.0
C1071 C 0.202 0.17839 0.62673 0.0
H1072 H 0.17543 0.16416 0.71301 0.0
C1073 C 0.18955 0.21612 0.62008 0.0
C1074 C 0.17156 0.23495 0.6467 0.0
H1075 H 0.21506 0.16434 0.60556 0.0
H1076 H 0.19434 0.23081 0.59407 0.0
C1077 C 0.1668 0.21542 0.68014 0.0
C1078 C 0.09668 0.90379 0.8244 0.0
C1079 C 0.11334 0.90579 0.85853 0.0
H1080 H 1.03532 0.89288 0.79129 0.0
C1081 C 0.07975 0.89855 0.88588 0.0
H1082 H 0.12169 0.90934 0.8028 0.0
C1083 C 1.02999 0.8876 0.87931 0.0
C1084 C 1.01322 0.88523 0.84522 0.0
H1085 H 0.09208 0.90157 0.91246 0.0
H1086 H 1.00502 0.88232 0.90089 0.0
C1087 C 0.04718 0.89387 0.81783 0.0
C1088 C 0.86611 0.9833 0.62238 0.0
C1089 C 0.83791 0.9488 0.64862 0.0
H1090 H 0.9255 0.05863 0.6101 0.0
C1091 C 0.84813 0.96515 0.68323 0.0
H1092 H 0.86002 0.9715 0.59552 0.0
C1093 C 0.88565 1.01442 0.69151 0.0
C1094 C 0.91406 0.04889 0.66542 0.0
H1095 H 0.82774 0.93949 0.70409 0.0
H1096 H 0.89333 0.02537 0.71852 0.0
C1097 C 0.9035 0.03312 0.63069 0.0
C1098 C 0.18298 0.23916 0.86754 0.0
C1099 C 0.17961 0.26094 0.8989 0.0
H1100 H 0.21468 0.19892 0.84114 0.0
C1101 C 0.20256 0.25493 0.92859 0.0
H1102 H 0.16529 0.24274 0.84428 0.0
C1103 C 0.2329 0.23278 0.92631 0.0
C1104 C 0.23785 0.21263 0.89487 0.0
H1105 H 0.19911 0.26954 0.95344 0.0
H1106 H 0.25332 0.23244 0.94901 0.0
C1107 C 0.21149 0.21456 0.86566 0.0
C1108 C 0.13484 0.91578 0.66133 0.0
C1109 C 0.151 0.91442 0.6275 0.0
H1110 H 0.07626 0.91216 0.69393 0.0
C1111 C 0.11795 0.9067 0.5998 0.0
H1112 H 0.15905 0.92127 0.68325 0.0
C1113 C 0.06977 0.90082 0.60598 0.0
C1114 C 0.05447 0.90358 0.63991 0.0
H1115 H 0.12965 0.90609 0.5734 0.0
H1116 H 0.04516 0.89565 0.58427 0.0
C1117 C 0.08731 0.91052 0.66747 0.0
C1118 C 0.84462 1.01798 0.91252 0.0
C1119 C 0.85626 0.04024 0.8797 0.0
H1120 H 0.80718 0.94912 0.94129 0.0
C1121 C 0.8441 1.00918 0.8502 0.0
H1122 H 0.85329 0.04126 0.93559 0.0
C1123 C 0.81864 0.95647 0.8534 0.0
C1124 C 0.80367 0.93393 0.88614 0.0
H1125 H 0.85266 0.02568 0.82462 0.0
H1126 H 0.80765 0.93355 0.83011 0.0
C1127 C 0.81831 0.96531 0.91571 0.0
C1128 C 0.44064 0.1631 0.2583 0.0
C1129 C 0.41232 0.17825 0.27886 0.0
H1130 H 0.454 0.14412 0.20726 0.0
C1131 C 0.38284 0.19586 0.26264 0.0
H1132 H 0.46358 0.14932 0.27027 0.0
C1133 C 0.37839 0.19413 0.22642 0.0
C1134 C 0.40258 0.17382 0.20621 0.0
H1135 H 0.35969 0.20654 0.27795 0.0
H1136 H 0.35238 0.20415 0.21453 0.0
C1137 C 0.43521 0.16014 0.22232 0.0
C1138 C 0.8864 0.70121 0.27274 0.0
C1139 C 0.85077 0.66193 0.29355 0.0
H1140 H 0.90514 0.73409 0.22244 0.0
C1141 C 0.81015 0.6197 0.27728 0.0
H1142 H 0.91784 0.73435 0.28449 0.0
C1143 C 0.80273 0.61957 0.24118 0.0
C1144 C 0.83601 0.66152 0.22111 0.0
H1145 H 0.78144 0.58944 0.29275 0.0
H1146 H 0.76883 0.58893 0.2296 0.0
C1147 C 0.87895 0.70117 0.23715 0.0
C1148 C 0.85987 0.24849 0.25147 0.0
C1149 C 0.86938 0.21579 0.23092 0.0
H1150 H 0.8604 0.27604 0.30314 0.0
C1151 C 0.87677 0.17913 0.24745 0.0
H1152 H 0.85482 0.27765 0.23947 0.0
C1153 C 0.87973 0.17812 0.2832 0.0
C1154 C 0.87677 0.21461 0.30372 0.0
H1155 H 0.88622 0.15469 0.23286 0.0
H1156 H 0.88918 0.15149 0.29457 0.0
C1157 C 0.86353 0.24787 0.28788 0.0
C1158 C 0.20296 0.34995 0.75334 0.0
C1159 C 0.20751 0.39008 0.73307 0.0
H1160 H 0.18762 0.31562 0.80321 0.0
C1161 C 0.21038 0.43248 0.75008 0.0
H1162 H 0.20036 0.31665 0.7411 0.0
C1163 C 0.20295 0.43184 0.78628 0.0
C1164 C 0.19221 0.38866 0.80565 0.0
H1165 H 0.21275 0.46347 0.73512 0.0
H1166 H 0.2007 0.46278 0.79841 0.0
C1167 C 0.19508 0.3491 0.78899 0.0
C1168 C 0.28955 0.8733 0.7702 0.0
C1169 C 0.24917 0.8772 0.78474 0.0
H1170 H 0.32769 0.87341 0.72305 0.0
C1171 C 0.21087 0.87414 0.76305 0.0
H1172 H 0.31978 0.87615 0.78653 0.0
C1173 C 0.21499 0.87183 0.7273 0.0
C1174 C 0.25772 0.87313 0.71236 0.0
H1175 H 0.17926 0.87683 0.7737 0.0
H1176 H 0.18669 0.87314 0.71118 0.0
C1177 C 0.29383 0.87127 0.73401 0.0
C1178 C 0.71252 0.86534 0.74001 0.0
C1179 C 0.679 0.82424 0.71937 0.0
H1180 H 0.73415 0.89567 0.79107 0.0
C1181 C 0.63407 0.78611 0.7346 0.0
H1182 H 0.74687 0.89569 0.72897 0.0
C1183 C 0.62689 0.78561 0.77081 0.0
C1184 C 0.66413 0.82386 0.79192 0.0
H1185 H 0.60736 0.75405 0.71927 0.0
H1186 H 0.59556 0.7526 0.78248 0.0
C1187 C 0.70484 0.86552 0.77567 0.0
C1188 C 0.33217 0.99256 0.98894 0.0
C1189 C 0.28749 0.98155 0.97092 0.0
H1190 H 0.38528 0.03723 0.02929 0.0
C1191 C 0.26202 1.0076 0.98075 0.0
H1192 H 0.35314 0.97378 0.9817 0.0
C1193 C 0.28042 0.04364 0.00731 0.0
C1194 C 0.32564 0.05604 0.02469 0.0
H1195 H 0.22736 1.00005 0.9678 0.0
H1196 H 0.25837 0.06118 0.01485 0.0
C1197 C 0.35133 0.02986 0.01544 0.0
C1198 C 0.82688 0.76831 0.49968 0.0
C1199 C 0.79514 0.72105 0.48418 0.0
H1200 H 0.83498 0.82341 0.53757 0.0
C1201 C 0.74466 0.69279 0.49596 0.0
H1202 H 0.86558 0.79144 0.49078 0.0
C1203 C 0.72614 0.71242 0.52188 0.0
C1204 C 0.75826 0.75986 0.53734 0.0
H1205 H 0.71885 0.6569 0.48382 0.0
H1206 H 0.68708 0.69018 0.53026 0.0
C1207 C 0.80898 0.78702 0.5261 0.0
C1208 C 0.04451 0.36363 1.00614 0.0
C1209 C 0.055 0.33036 0.98704 0.0
H1210 H 1.00207 0.37172 0.04824 0.0
C1211 C 1.0283 0.27864 0.99542 0.0
H1212 H 0.06406 0.40357 1.00016 0.0
C1213 C 0.99326 0.26071 0.02248 0.0
C1214 C 0.98283 0.29361 0.04171 0.0
H1215 H 1.03529 0.25174 0.98152 0.0
H1216 H 0.97519 0.22099 0.02907 0.0
C1217 C 1.00826 0.34527 0.03306 0.0
C1218 C 0.3863 0.04032 0.48151 0.0
C1219 C 0.35764 0.06177 0.4693 0.0
H1220 H 0.39056 0.98923 0.51802 0.0
C1221 C 0.3104 0.04707 0.48458 0.0
H1222 H 0.42217 0.04989 0.46946 0.0
C1223 C 0.29205 1.012 0.51139 0.0
C1224 C 0.31999 0.98988 0.52353 0.0
H1225 H 0.28704 0.06213 0.47521 0.0
H1226 H 0.25588 1.00244 0.52302 0.0
C1227 C 0.36749 1.00442 0.50841 0.0
C1228 C 0.78582 0.72479 1.00304 0.0
C1229 C 0.77009 0.72823 0.03653 0.0
H1230 H 0.78466 0.73884 0.94932 0.0
C1231 C 0.73821 0.74958 0.04012 0.0
H1232 H 0.81185 0.71097 0.99884 0.0
C1233 C 0.72012 0.76375 0.01118 0.0
C1234 C 0.73548 0.75977 0.9776 0.0
H1235 H 0.72614 0.75484 0.06527 0.0
H1236 H 0.69495 0.77865 0.01539 0.0
C1237 C 0.77003 0.74142 0.97437 0.0
C1238 C 0.04709 0.27042 0.54113 0.0
C1239 C 0.09292 0.31753 0.54219 0.0
H1240 H 0.97857 0.22027 0.51364 0.0
C1241 C 0.10483 0.34916 0.51332 0.0
H1242 H 0.03623 0.24445 0.56259 0.0
C1243 C 0.0715 0.33447 0.48478 0.0
C1244 C 1.02482 0.28827 0.48456 0.0
H1245 H 0.13917 0.38568 0.5131 0.0
H1246 H 0.08204 0.35988 0.463 0.0
C1247 C 1.01333 0.25647 0.51314 0.0
C1248 C 0.57536 0.17919 0.09743 0.0
C1249 C 0.57991 0.13676 0.08898 0.0
H1250 H 0.52609 0.20791 0.11051 0.0
C1251 C 0.53591 0.0885 0.09068 0.0
H1252 H 0.60795 0.21692 0.09623 0.0
C1253 C 0.48834 0.08324 0.09888 0.0
C1254 C 0.48373 0.12617 0.10526 0.0
H1255 H 0.53799 0.05481 0.08486 0.0
H1256 H 0.45501 0.04595 0.09847 0.0
C1257 C 0.52809 0.17397 0.10538 0.0
C1258 C 0.68696 0.54348 0.35248 0.0
C1259 C 0.70665 0.56119 0.38568 0.0
H1260 H 0.64033 0.47915 0.32049 0.0
C1261 C 0.69053 0.52631 0.41306 0.0
H1262 H 0.69869 0.56917 0.33084 0.0
C1263 C 0.65789 0.47473 0.40715 0.0
C1264 C 0.64016 0.45637 0.37367 0.0
H1265 H 0.70477 0.53861 0.43907 0.0
H1266 H 0.64849 0.44904 0.42867 0.0
C1267 C 0.65407 0.49166 0.34654 0.0
C1268 C 0.88103 0.37676 0.12962 0.0
C1269 C 0.92735 0.37668 0.12931 0.0
H1270 H 0.84187 0.41686 0.1176 0.0
C1271 C 0.97152 0.421 0.11948 0.0
H1272 H 0.84613 0.34333 0.13707 0.0
C1273 C 0.96916 0.46359 0.10895 0.0
C1274 C 0.92242 0.4628 0.10739 0.0
H1275 H 1.0078 0.42248 0.11894 0.0
H1276 H 1.00396 0.49678 0.10105 0.0
C1277 C 0.87858 0.41921 0.11873 0.0
C1278 C 0.55648 0.17845 0.38419 0.0
C1279 C 0.51149 0.1323 0.39009 0.0
H1280 H 0.63626 0.22494 0.39442 0.0
C1281 C 0.51511 0.0949 0.40885 0.0
H1282 H 0.55563 0.2078 0.36937 0.0
C1283 C 0.56168 0.10458 0.42301 0.0
C1284 C 0.60618 0.15186 0.41873 0.0
H1285 H 0.48162 0.05867 0.4137 0.0
H1286 H 0.56253 0.07534 0.43823 0.0
C1287 C 0.60312 0.18811 0.39823 0.0
C1288 C 0.58789 0.51165 0.13507 0.0
C1289 C 0.58372 0.47394 0.11164 0.0
H1290 H 0.63571 0.58458 0.15829 0.0
C1291 C 0.6281 0.48148 0.095 0.0
H1292 H 0.55463 0.50708 0.14862 0.0
C1293 C 0.67447 0.52648 0.10006 0.0
C1294 C 0.67823 0.5653 0.12222 0.0
H1295 H 0.6265 0.4537 0.07666 0.0
H1296 H 0.70729 0.53129 0.08578 0.0
C1297 C 0.63449 0.55636 0.14056 0.0
C1298 C 0.89095 0.39408 0.35217 0.0
C1299 C 0.88303 0.41685 0.38167 0.0
H1300 H 0.9218 0.34896 0.33199 0.0
C1301 C 0.90527 0.41534 0.41307 0.0
H1302 H 0.87495 0.39532 0.32745 0.0
C1303 C 0.93119 0.38839 0.41564 0.0
C1304 C 0.93644 0.36296 0.38677 0.0
H1305 H 0.90001 0.43245 0.43623 0.0
H1306 H 0.9448 0.3851 0.44083 0.0
C1307 C 0.91812 0.36799 0.35462 0.0
C1308 C 0.19139 0.56508 0.58473 0.0
C1309 C 0.21446 0.59921 0.61228 0.0
H1310 H 0.15622 0.48783 0.56746 0.0
C1311 C 0.21256 0.57963 0.64553 0.0
H1312 H 0.19298 0.57901 0.55879 0.0
C1313 C 0.19013 0.52713 0.65074 0.0
C1314 C 0.17076 0.49338 0.62257 0.0
H1315 H 0.23082 0.60512 0.66714 0.0
H1316 H 0.19195 0.51339 0.67616 0.0
C1317 C 0.17036 0.51288 0.58973 0.0
C1318 C 0.42587 0.96177 0.8975 0.0
C1319 C 0.37959 0.92087 0.88633 0.0
H1320 H 0.50043 0.98592 0.9174 0.0
C1321 C 0.37662 0.87354 0.88147 0.0
H1322 H 0.42975 0.99864 0.90134 0.0
C1323 C 0.4171 0.86617 0.89042 0.0
C1324 C 0.46166 0.90585 0.90476 0.0
H1325 H 0.3418 0.84124 0.87233 0.0
H1326 H 0.4119 0.82842 0.88861 0.0
C1327 C 0.46636 0.9543 0.90677 0.0
C1328 C 0.5763 0.66834 0.66181 0.0
C1329 C 0.59896 0.68152 0.62898 0.0
H1330 H 0.50639 0.63183 0.69049 0.0
C1331 C 0.56808 0.6606 0.59952 0.0
H1332 H 0.59907 0.684 0.6849 0.0
C1333 C 0.51538 0.62995 0.60269 0.0
C1334 C 0.49221 0.62055 0.63534 0.0
H1335 H 0.58447 0.67026 0.57385 0.0
H1336 H 0.49245 0.6164 0.57947 0.0
C1337 C 0.52329 0.63883 0.66496 0.0
C1338 C 0.15802 0.56989 0.90681 0.0
C1339 C 0.11404 0.5718 0.89873 0.0
H1340 H 0.19336 0.52476 0.91065 0.0
C1341 C 0.07288 0.5285 0.88357 0.0
H1342 H 0.1904 0.60205 0.9186 0.0
C1343 C 0.07474 0.48359 0.87871 0.0
C1344 C 0.11728 0.48084 0.8897 0.0
H1345 H 0.03868 0.52888 0.87638 0.0
H1346 H 0.04205 0.45061 0.86812 0.0
C1347 C 0.15955 0.5252 0.90241 0.0
C1348 C 0.4152 0.88232 0.613 0.0
C1349 C 0.41193 0.92613 0.60718 0.0
H1350 H 0.45792 0.84433 0.60594 0.0
C1351 C 0.45457 0.96858 0.5935 0.0
H1352 H 0.38381 0.84944 0.62467 0.0
C1353 C 0.49833 0.96683 0.58469 0.0
C1354 C 0.50042 0.92177 0.58771 0.0
H1355 H 0.45393 1.00309 0.58861 0.0
H1356 H 0.53021 1.00101 0.57477 0.0
C1357 C 0.45842 0.8798 0.60286 0.0
C1358 C 0.52105 0.67872 0.89058 0.0
C1359 C 0.56145 0.66943 0.8852 0.0
H1360 H 0.44412 0.64915 0.90733 0.0
C1361 C 0.55204 0.61964 0.88743 0.0
H1362 H 0.52725 0.71673 0.88875 0.0
C1363 C 0.50445 0.58082 0.89833 0.0
C1364 C 0.46527 0.59109 0.90672 0.0
H1365 H 0.58239 0.61142 0.88361 0.0
H1366 H 0.49928 0.54343 0.90235 0.0
C1367 C 0.47331 0.63991 0.90097 0.0
loop_
_geom_bond_atom_site_label_1
_geom_bond_atom_site_label_2
_geom_bond_distance
_geom_bond_site_symmetry_2
_ccdc_geom_bond_type
Tb0 N29 2.617 . S
Tb0 N35 2.572 . S
Tb0 O44 2.465 . S
Tb0 O45 2.387 . S
Tb0 O47 2.428 . S
Tb0 O48 2.308 . S
Tb0 O52 2.349 . S
Tb0 O55 2.393 . S
Tb0 C64 2.807 . S
C1 N2 1.379 . S
C1 C4 1.416 . S
C1 C8 1.424 . S
N2 C1 1.379 . S
N2 C5 1.334 1_554 S
N2 Tb11 2.617 . S
C3 C5 1.390 . S
C3 C6 1.339 . S
C3 H23 0.930 . S
C4 C1 1.416 . S
C4 C6 1.416 1_554 S
C4 C10 1.448 . S
C5 N2 1.334 1_556 S
C5 C3 1.390 . S
C5 H16 0.930 . S
C6 C3 1.339 . S
C6 C4 1.416 1_556 S
C6 H27 0.930 . S
C7 C8 1.413 . S
C7 C9 1.427 . S
C7 C13 1.416 . S
C8 C1 1.424 . S
C8 C7 1.413 . S
C8 N12 1.361 . S
C9 C7 1.427 . S
C9 C10 1.328 . S
C9 H24 0.929 . S
C10 C4 1.448 . S
C10 C9 1.328 . S
C10 H25 0.930 1_554 S
Tb11 N2 2.617 . S
Tb11 N12 2.572 . S
Tb11 O46 2.349 . S
Tb11 O49 2.393 . S
Tb11 O50 2.465 . S
Tb11 O51 2.387 . S
Tb11 O53 2.428 . S
Tb11 O54 2.308 . S
Tb11 C75 2.802 . S
N12 C8 1.361 . S
N12 Tb11 2.572 . S
N12 C14 1.340 . S
C13 C7 1.416 . S
C13 C15 1.332 . S
C13 H21 0.931 . S
C14 N12 1.340 . S
C14 C15 1.407 . S
C14 H20 0.930 . S
C15 C13 1.332 . S
C15 C14 1.407 . S
C15 H17 0.929 . S
H16 C5 0.930 . S
H17 C15 0.929 . S
H18 C33 0.930 . S
H19 C40 0.929 . S
H20 C14 0.930 . S
H21 C13 0.931 . S
H22 C36 0.930 1_545 S
H23 C3 0.930 . S
H24 C9 0.929 . S
H25 C10 0.930 1_556 S
H26 C31 0.930 . S
H27 C6 0.930 . S
H28 C39 0.931 . S
N29 Tb0 2.617 . S
N29 C30 1.379 . S
N29 C33 1.334 . S
C30 N29 1.379 . S
C30 C32 1.416 . S
C30 C38 1.423 1_545 S
C31 H26 0.930 . S
C31 C33 1.390 . S
C31 C34 1.339 . S
C32 C30 1.416 . S
C32 C34 1.416 . S
C32 C65 1.448 1_545 S
C33 H18 0.930 . S
C33 N29 1.334 . S
C33 C31 1.390 . S
C34 C31 1.339 . S
C34 C32 1.416 . S
C34 H41 0.930 . S
N35 Tb0 2.572 . S
N35 C36 1.340 1_545 S
N35 C38 1.361 1_545 S
C36 H22 0.930 1_565 S
C36 N35 1.340 1_565 S
C36 C40 1.407 . S
C37 C38 1.413 . S
C37 C39 1.416 . S
C37 C66 1.427 . S
C38 C30 1.423 1_565 S
C38 N35 1.361 1_565 S
C38 C37 1.413 . S
C39 H28 0.931 . S
C39 C37 1.416 . S
C39 C40 1.332 . S
C40 H19 0.929 . S
C40 C36 1.407 . S
C40 C39 1.332 . S
H41 C34 0.930 . S
H42 C65 0.930 . S
H43 C66 0.929 . S
O44 Tb0 2.465 . S
O44 C64 1.264 . S
O45 Tb0 2.387 . S
O45 C56 1.264 . S
O46 Tb11 2.349 . S
O46 C56 1.243 . S
O47 Tb0 2.428 . S
O47 C64 1.261 . S
O48 Tb0 2.308 . S
O48 C63 1.266 . S
O49 Tb11 2.393 . S
O49 C63 1.248 . S
O50 Tb11 2.465 . S
O50 C75 1.264 . S
O51 Tb11 2.387 . S
O51 C67 1.264 . S
O52 Tb0 2.349 . S
O52 C67 1.243 . S
O53 Tb11 2.428 . S
O53 C75 1.256 . S
O54 Tb11 2.308 . S
O54 C74 1.266 . S
O55 Tb0 2.393 . S
O55 C74 1.248 . S
C56 O45 1.264 . S
C56 O46 1.243 . S
C57 C60 1.399 . S
C57 C62 1.383 . S
C57 C64 1.491 1_565 S
C58 C59 1.399 . S
C58 C62 1.389 . S
C59 C58 1.399 . S
C59 C61 1.380 . S
C59 H76 0.929 . S
C60 C57 1.399 . S
C60 C61 1.392 . S
C60 H77 0.929 . S
C61 C59 1.380 . S
C61 C60 1.392 . S
C61 H78 0.929 . S
C62 C57 1.383 . S
C62 C58 1.389 . S
C62 H79 0.931 . S
C63 O48 1.266 . S
C63 O49 1.248 . S
C64 Tb0 2.807 . S
C64 O44 1.264 . S
C64 O47 1.261 . S
C64 C57 1.491 1_545 S
C65 C32 1.448 1_565 S
C65 H42 0.930 . S
C65 C66 1.328 . S
C66 C37 1.427 . S
C66 H43 0.929 . S
C66 C65 1.328 . S
C67 O51 1.264 . S
C67 O52 1.243 . S
C68 C71 1.399 . S
C68 C72 1.383 . S
C68 C75 1.496 . S
C69 C70 1.399 . S
C69 C72 1.389 . S
C70 C69 1.399 . S
C70 C73 1.380 . S
C70 H80 0.929 . S
C71 C68 1.399 . S
C71 C73 1.392 . S
C71 H81 0.929 . S
C72 C68 1.383 . S
C72 C69 1.389 . S
C72 H82 0.931 . S
C73 C70 1.380 . S
C73 C71 1.392 . S
C73 H83 0.929 . S
C74 O54 1.266 . S
C74 O55 1.248 . S
C75 Tb11 2.802 . S
C75 O50 1.264 . S
C75 O53 1.256 . S
C75 C68 1.496 . S
H76 C59 0.929 . S
H77 C60 0.929 . S
H78 C61 0.929 . S
H79 C62 0.931 . S
H80 C70 0.929 . S
H81 C71 0.929 . S
H82 C72 0.931 . S
H83 C73 0.929 . S
Tb84 N113 2.617 . S
Tb84 N119 2.572 . S
Tb84 O128 2.465 . S
Tb84 O129 2.387 . S
Tb84 O131 2.428 . S
Tb84 O132 2.308 . S
Tb84 O136 2.349 . S
Tb84 O139 2.393 . S
Tb84 C148 2.802 . S
C85 N86 1.379 . S
C85 C88 1.416 . S
C85 C92 1.424 . S
N86 C85 1.379 . S
N86 C89 1.334 . S
N86 Tb95 2.617 . S
C87 C89 1.390 . S
C87 C90 1.339 . S
C87 H107 0.930 . S
C88 C85 1.416 . S
C88 C90 1.416 . S
C88 C94 1.448 . S
C89 N86 1.334 . S
C89 C87 1.390 . S
C89 H100 0.930 . S
C90 C87 1.339 . S
C90 C88 1.416 . S
C90 H111 0.930 . S
C91 C92 1.413 . S
C91 C93 1.427 . S
C91 C97 1.416 . S
C92 C85 1.424 . S
C92 C91 1.413 . S
C92 N96 1.361 . S
C93 C91 1.427 . S
C93 C94 1.328 . S
C93 H108 0.929 . S
C94 C88 1.448 . S
C94 C93 1.328 . S
C94 H109 0.930 . S
Tb95 N86 2.617 . S
Tb95 N96 2.572 . S
Tb95 O130 2.349 . S
Tb95 O133 2.393 . S
Tb95 O134 2.465 . S
Tb95 O135 2.387 . S
Tb95 O137 2.428 . S
Tb95 O138 2.308 . S
Tb95 C159 2.802 . S
N96 C92 1.361 . S
N96 Tb95 2.572 . S
N96 C98 1.340 . S
C97 C91 1.416 . S
C97 C99 1.332 . S
C97 H105 0.931 . S
C98 N96 1.340 . S
C98 C99 1.407 . S
C98 H104 0.930 . S
C99 C97 1.332 . S
C99 C98 1.407 . S
C99 H101 0.929 . S
H100 C89 0.930 . S
H101 C99 0.929 . S
H102 C117 0.930 . S
H103 C124 0.929 . S
H104 C98 0.930 . S
H105 C97 0.931 . S
H106 C120 0.930 . S
H107 C87 0.930 . S
H108 C93 0.929 . S
H109 C94 0.930 . S
H110 C115 0.930 . S
H111 C90 0.930 . S
H112 C123 0.931 . S
N113 Tb84 2.617 . S
N113 C114 1.379 . S
N113 C117 1.334 . S
C114 N113 1.379 . S
C114 C116 1.416 . S
C114 C122 1.424 . S
C115 H110 0.930 . S
C115 C117 1.390 . S
C115 C118 1.339 . S
C116 C114 1.416 . S
C116 C118 1.416 . S
C116 C149 1.448 1_655 S
C117 H102 0.930 . S
C117 N113 1.334 . S
C117 C115 1.390 . S
C118 C115 1.339 . S
C118 C116 1.416 . S
C118 H125 0.930 . S
N119 Tb84 2.572 . S
N119 C120 1.340 . S
N119 C122 1.361 . S
C120 H106 0.930 . S
C120 N119 1.340 . S
C120 C124 1.407 1_655 S
C121 C122 1.413 1_455 S
C121 C123 1.416 . S
C121 C150 1.427 . S
C122 C114 1.424 . S
C122 N119 1.361 . S
C122 C121 1.413 1_655 S
C123 H112 0.931 . S
C123 C121 1.416 . S
C123 C124 1.332 . S
C124 H103 0.929 . S
C124 C120 1.407 1_455 S
C124 C123 1.332 . S
H125 C118 0.930 . S
H126 C149 0.930 . S
H127 C150 0.929 . S
O128 Tb84 2.465 . S
O128 C148 1.264 . S
O129 Tb84 2.387 . S
O129 C140 1.264 . S
O130 Tb95 2.349 . S
O130 C140 1.243 . S
O131 Tb84 2.428 . S
O131 C148 1.256 . S
O132 Tb84 2.308 . S
O132 C147 1.266 . S
O133 Tb95 2.393 . S
O133 C147 1.248 . S
O134 Tb95 2.465 . S
O134 C159 1.264 . S
O135 Tb95 2.387 . S
O135 C151 1.264 . S
O136 Tb84 2.349 . S
O136 C151 1.243 . S
O137 Tb95 2.428 . S
O137 C159 1.256 . S
O138 Tb95 2.308 . S
O138 C158 1.266 . S
O139 Tb84 2.393 . S
O139 C158 1.248 . S
C140 O129 1.264 . S
C140 O130 1.243 . S
C141 C144 1.399 . S
C141 C146 1.383 . S
C141 C148 1.496 . S
C142 C143 1.399 . S
C142 C146 1.389 . S
C143 C142 1.399 . S
C143 C145 1.380 . S
C143 H160 0.929 . S
C144 C141 1.399 . S
C144 C145 1.392 . S
C144 H161 0.929 . S
C145 C143 1.380 . S
C145 C144 1.392 . S
C145 H162 0.929 . S
C146 C141 1.383 . S
C146 C142 1.389 . S
C146 H163 0.931 . S
C147 O132 1.266 . S
C147 O133 1.248 . S
C148 Tb84 2.802 . S
C148 O128 1.264 . S
C148 O131 1.256 . S
C148 C141 1.496 . S
C149 C116 1.448 1_455 S
C149 H126 0.930 . S
C149 C150 1.328 . S
C150 C121 1.427 . S
C150 H127 0.929 . S
C150 C149 1.328 . S
C151 O135 1.264 . S
C151 O136 1.243 . S
C152 C155 1.399 . S
C152 C156 1.383 . S
C152 C159 1.496 . S
C153 C154 1.399 . S
C153 C156 1.389 . S
C154 C153 1.399 . S
C154 C157 1.380 . S
C154 H164 0.929 . S
C155 C152 1.399 . S
C155 C157 1.392 . S
C155 H165 0.929 . S
C156 C152 1.383 . S
C156 C153 1.389 . S
C156 H166 0.931 . S
C157 C154 1.380 . S
C157 C155 1.392 . S
C157 H167 0.929 . S
C158 O138 1.266 . S
C158 O139 1.248 . S
C159 Tb95 2.802 . S
C159 O134 1.264 . S
C159 O137 1.256 . S
C159 C152 1.496 . S
H160 C143 0.929 . S
H161 C144 0.929 . S
H162 C145 0.929 . S
H163 C146 0.931 . S
H164 C154 0.929 . S
H165 C155 0.929 . S
H166 C156 0.931 . S
H167 C157 0.929 . S
Tb168 N197 2.617 . S
Tb168 N203 2.572 . S
Tb168 O212 2.465 . S
Tb168 O213 2.387 . S
Tb168 O215 2.428 . S
Tb168 O216 2.308 . S
Tb168 O220 2.349 . S
Tb168 O223 2.393 . S
Tb168 C232 2.814 . S
C169 N170 1.379 . S
C169 C172 1.416 . S
C169 C176 1.424 . S
N170 C169 1.379 . S
N170 C173 1.334 1_554 S
N170 Tb179 2.617 . S
C171 C173 1.390 . S
C171 C174 1.339 . S
C171 H191 0.930 . S
C172 C169 1.416 . S
C172 C174 1.416 1_554 S
C172 C178 1.448 1_545 S
C173 N170 1.334 1_556 S
C173 C171 1.390 . S
C173 H184 0.930 . S
C174 C171 1.339 . S
C174 C172 1.416 1_556 S
C174 H195 0.930 . S
C175 C176 1.413 1_565 S
C175 C177 1.427 . S
C175 C181 1.416 . S
C176 C169 1.424 . S
C176 C175 1.413 1_545 S
C176 N180 1.361 . S
C177 C175 1.427 . S
C177 C178 1.328 . S
C177 H192 0.929 . S
C178 C172 1.448 1_565 S
C178 C177 1.328 . S
C178 H193 0.930 1_554 S
Tb179 N170 2.617 . S
Tb179 N180 2.572 . S
Tb179 O214 2.349 . S
Tb179 O217 2.393 . S
Tb179 O218 2.465 . S
Tb179 O219 2.387 . S
Tb179 O221 2.428 . S
Tb179 O222 2.308 . S
Tb179 C243 2.802 . S
N180 C176 1.361 . S
N180 Tb179 2.572 . S
N180 C182 1.340 . S
C181 C175 1.416 . S
C181 C183 1.332 . S
C181 H189 0.931 . S
C182 N180 1.340 . S
C182 C183 1.407 1_545 S
C182 H188 0.930 . S
C183 C181 1.332 . S
C183 C182 1.407 1_565 S
C183 H185 0.929 . S
H184 C173 0.930 . S
H185 C183 0.929 . S
H186 C201 0.930 . S
H187 C208 0.929 . S
H188 C182 0.930 . S
H189 C181 0.931 . S
H190 C204 0.930 1_655 S
H191 C171 0.930 . S
H192 C177 0.929 . S
H193 C178 0.930 1_556 S
H194 C199 0.930 . S
H195 C174 0.930 . S
H196 C207 0.931 . S
N197 Tb168 2.617 . S
N197 C198 1.379 . S
N197 C201 1.334 . S
C198 N197 1.379 . S
C198 C200 1.416 . S
C198 C206 1.423 1_655 S
C199 H194 0.930 . S
C199 C201 1.390 . S
C199 C202 1.339 . S
C200 C198 1.416 . S
C200 C202 1.416 . S
C200 C233 1.448 1_655 S
C201 H186 0.930 . S
C201 N197 1.334 . S
C201 C199 1.390 . S
C202 C199 1.339 . S
C202 C200 1.416 . S
C202 H209 0.930 . S
N203 Tb168 2.572 . S
N203 C204 1.340 1_655 S
N203 C206 1.361 1_655 S
C204 H190 0.930 1_455 S
C204 N203 1.340 1_455 S
C204 C208 1.407 . S
C205 C206 1.413 . S
C205 C207 1.416 . S
C205 C234 1.427 . S
C206 C198 1.423 1_455 S
C206 N203 1.361 1_455 S
C206 C205 1.413 . S
C207 H196 0.931 . S
C207 C205 1.416 . S
C207 C208 1.332 . S
C208 H187 0.929 . S
C208 C204 1.407 . S
C208 C207 1.332 . S
H209 C202 0.930 . S
H210 C233 0.930 . S
H211 C234 0.929 . S
O212 Tb168 2.465 . S
O212 C232 1.269 . S
O213 Tb168 2.387 . S
O213 C224 1.264 . S
O214 Tb179 2.349 . S
O214 C224 1.243 . S
O215 Tb168 2.428 . S
O215 C232 1.263 . S
O216 Tb168 2.308 . S
O216 C231 1.266 . S
O217 Tb179 2.393 . S
O217 C231 1.248 . S
O218 Tb179 2.465 . S
O218 C243 1.264 . S
O219 Tb179 2.387 . S
O219 C235 1.264 . S
O220 Tb168 2.349 . S
O220 C235 1.243 . S
O221 Tb179 2.428 . S
O221 C243 1.256 . S
O222 Tb179 2.308 . S
O222 C242 1.266 . S
O223 Tb168 2.393 . S
O223 C242 1.248 . S
C224 O213 1.264 . S
C224 O214 1.243 . S
C225 C228 1.399 . S
C225 C230 1.383 . S
C225 C232 1.484 1_455 S
C226 C227 1.399 . S
C226 C230 1.389 . S
C227 C226 1.399 . S
C227 C229 1.380 . S
C227 H244 0.929 . S
C228 C225 1.399 . S
C228 C229 1.392 . S
C228 H245 0.929 . S
C229 C227 1.380 . S
C229 C228 1.392 . S
C229 H246 0.929 . S
C230 C225 1.383 . S
C230 C226 1.389 . S
C230 H247 0.931 . S
C231 O216 1.266 . S
C231 O217 1.248 . S
C232 Tb168 2.814 . S
C232 O212 1.269 . S
C232 O215 1.263 . S
C232 C225 1.484 1_655 S
C233 C200 1.448 1_455 S
C233 H210 0.930 . S
C233 C234 1.328 . S
C234 C205 1.427 . S
C234 H211 0.929 . S
C234 C233 1.328 . S
C235 O219 1.264 . S
C235 O220 1.243 . S
C236 C239 1.399 . S
C236 C240 1.383 . S
C236 C243 1.496 . S
C237 C238 1.399 . S
C237 C240 1.389 . S
C238 C237 1.399 . S
C238 C241 1.380 . S
C238 H248 0.929 . S
C239 C236 1.399 . S
C239 C241 1.392 . S
C239 H249 0.929 . S
C240 C236 1.383 . S
C240 C237 1.389 . S
C240 H250 0.931 . S
C241 C238 1.380 . S
C241 C239 1.392 . S
C241 H251 0.929 . S
C242 O222 1.266 . S
C242 O223 1.248 . S
C243 Tb179 2.802 . S
C243 O218 1.264 . S
C243 O221 1.256 . S
C243 C236 1.496 . S
H244 C227 0.929 . S
H245 C228 0.929 . S
H246 C229 0.929 . S
H247 C230 0.931 . S
H248 C238 0.929 . S
H249 C239 0.929 . S
H250 C240 0.931 . S
H251 C241 0.929 . S
Tb252 N281 2.617 . S
Tb252 N287 2.572 . S
Tb252 O296 2.465 . S
Tb252 O297 2.387 . S
Tb252 O299 2.428 . S
Tb252 O300 2.308 . S
Tb252 O304 2.349 . S
Tb252 O307 2.393 . S
Tb252 C316 2.802 . S
C253 N254 1.379 . S
C253 C256 1.416 . S
C253 C260 1.423 1_545 S
N254 C253 1.379 . S
N254 C257 1.334 . S
N254 Tb263 2.617 . S
C255 C257 1.390 . S
C255 C258 1.339 . S
C255 H275 0.930 . S
C256 C253 1.416 . S
C256 C258 1.416 . S
C256 C262 1.448 1_545 S
C257 N254 1.334 . S
C257 C255 1.390 . S
C257 H268 0.930 . S
C258 C255 1.339 . S
C258 C256 1.416 . S
C258 H279 0.930 . S
C259 C260 1.413 . S
C259 C261 1.427 . S
C259 C265 1.416 . S
C260 C253 1.423 1_565 S
C260 C259 1.413 . S
C260 N264 1.361 1_565 S
C261 C259 1.427 . S
C261 C262 1.328 . S
C261 H276 0.929 . S
C262 C256 1.448 1_565 S
C262 C261 1.328 . S
C262 H277 0.930 . S
Tb263 N254 2.617 . S
Tb263 N264 2.572 . S
Tb263 O298 2.349 . S
Tb263 O301 2.393 . S
Tb263 O302 2.465 . S
Tb263 O303 2.387 . S
Tb263 O305 2.428 . S
Tb263 O306 2.308 . S
Tb263 C327 2.807 . S
N264 C260 1.361 1_545 S
N264 Tb263 2.572 . S
N264 C266 1.340 1_545 S
C265 C259 1.416 . S
C265 C267 1.332 . S
C265 H273 0.931 . S
C266 N264 1.340 1_565 S
C266 C267 1.407 . S
C266 H272 0.930 1_565 S
C267 C265 1.332 . S
C267 C266 1.407 . S
C267 H269 0.929 . S
H268 C257 0.930 . S
H269 C267 0.929 . S
H270 C285 0.930 . S
H271 C292 0.929 . S
H272 C266 0.930 1_545 S
H273 C265 0.931 . S
H274 C288 0.930 . S
H275 C255 0.930 . S
H276 C261 0.929 . S
H277 C262 0.930 . S
H278 C283 0.930 . S
H279 C258 0.930 . S
H280 C291 0.931 . S
N281 Tb252 2.617 . S
N281 C282 1.379 . S
N281 C285 1.334 . S
C282 N281 1.379 . S
C282 C284 1.416 . S
C282 C290 1.424 . S
C283 H278 0.930 . S
C283 C285 1.390 . S
C283 C286 1.339 . S
C284 C282 1.416 . S
C284 C286 1.416 . S
C284 C317 1.448 . S
C285 H270 0.930 . S
C285 N281 1.334 . S
C285 C283 1.390 . S
C286 C283 1.339 . S
C286 C284 1.416 . S
C286 H293 0.930 . S
N287 Tb252 2.572 . S
N287 C288 1.340 . S
N287 C290 1.361 . S
C288 H274 0.930 . S
C288 N287 1.340 . S
C288 C292 1.407 . S
C289 C290 1.413 . S
C289 C291 1.416 . S
C289 C318 1.427 . S
C290 C282 1.424 . S
C290 N287 1.361 . S
C290 C289 1.413 . S
C291 H280 0.931 . S
C291 C289 1.416 . S
C291 C292 1.332 . S
C292 H271 0.929 . S
C292 C288 1.407 . S
C292 C291 1.332 . S
H293 C286 0.930 . S
H294 C317 0.930 . S
H295 C318 0.929 . S
O296 Tb252 2.465 . S
O296 C316 1.264 . S
O297 Tb252 2.387 . S
O297 C308 1.264 . S
O298 Tb263 2.349 . S
O298 C308 1.243 . S
O299 Tb252 2.428 . S
O299 C316 1.256 . S
O300 Tb252 2.308 . S
O300 C315 1.266 . S
O301 Tb263 2.393 . S
O301 C315 1.248 . S
O302 Tb263 2.465 . S
O302 C327 1.264 . S
O303 Tb263 2.387 . S
O303 C319 1.264 . S
O304 Tb252 2.349 . S
O304 C319 1.243 . S
O305 Tb263 2.428 . S
O305 C327 1.261 . S
O306 Tb263 2.308 . S
O306 C326 1.266 . S
O307 Tb252 2.393 . S
O307 C326 1.248 . S
C308 O297 1.264 . S
C308 O298 1.243 . S
C309 C312 1.399 . S
C309 C314 1.383 . S
C309 C316 1.496 . S
C310 C311 1.399 . S
C310 C314 1.389 . S
C311 C310 1.399 . S
C311 C313 1.380 . S
C311 H328 0.929 . S
C312 C309 1.399 . S
C312 C313 1.392 . S
C312 H329 0.929 . S
C313 C311 1.380 . S
C313 C312 1.392 . S
C313 H330 0.929 . S
C314 C309 1.383 . S
C314 C310 1.389 . S
C314 H331 0.931 . S
C315 O300 1.266 . S
C315 O301 1.248 . S
C316 Tb252 2.802 . S
C316 O296 1.264 . S
C316 O299 1.256 . S
C316 C309 1.496 . S
C317 C284 1.448 . S
C317 H294 0.930 . S
C317 C318 1.328 . S
C318 C289 1.427 . S
C318 H295 0.929 . S
C318 C317 1.328 . S
C319 O303 1.264 . S
C319 O304 1.243 . S
C320 C323 1.399 . S
C320 C324 1.383 . S
C320 C327 1.491 1_565 S
C321 C322 1.399 . S
C321 C324 1.389 . S
C322 C321 1.399 . S
C322 C325 1.380 . S
C322 H332 0.929 . S
C323 C320 1.399 . S
C323 C325 1.392 . S
C323 H333 0.929 . S
C324 C320 1.383 . S
C324 C321 1.389 . S
C324 H334 0.931 . S
C325 C322 1.380 . S
C325 C323 1.392 . S
C325 H335 0.929 . S
C326 O306 1.266 . S
C326 O307 1.248 . S
C327 Tb263 2.807 . S
C327 O302 1.264 . S
C327 O305 1.261 . S
C327 C320 1.491 1_545 S
H328 C311 0.929 . S
H329 C312 0.929 . S
H330 C313 0.929 . S
H331 C314 0.931 . S
H332 C322 0.929 . S
H333 C323 0.929 . S
H334 C324 0.931 . S
H335 C325 0.929 . S
Tb336 N365 2.617 . S
Tb336 N371 2.572 . S
Tb336 O380 2.465 . S
Tb336 O381 2.387 . S
Tb336 O383 2.428 . S
Tb336 O384 2.308 . S
Tb336 O388 2.349 . S
Tb336 O391 2.393 . S
Tb336 C400 2.802 . S
C337 N338 1.379 . S
C337 C340 1.416 . S
C337 C344 1.424 . S
N338 C337 1.379 . S
N338 C341 1.334 1_554 S
N338 Tb347 2.617 . S
C339 C341 1.390 . S
C339 C342 1.339 . S
C339 H359 0.930 . S
C340 C337 1.416 . S
C340 C342 1.416 1_554 S
C340 C346 1.448 1_655 S
C341 N338 1.334 1_556 S
C341 C339 1.390 . S
C341 H352 0.930 . S
C342 C339 1.339 . S
C342 C340 1.416 1_556 S
C342 H363 0.930 . S
C343 C344 1.413 1_455 S
C343 C345 1.427 . S
C343 C349 1.416 . S
C344 C337 1.424 . S
C344 C343 1.413 1_655 S
C344 N348 1.361 . S
C345 C343 1.427 . S
C345 C346 1.328 . S
C345 H360 0.929 . S
C346 C340 1.448 1_455 S
C346 C345 1.328 . S
C346 H361 0.930 1_554 S
Tb347 N338 2.617 . S
Tb347 N348 2.572 . S
Tb347 O382 2.349 . S
Tb347 O385 2.393 . S
Tb347 O386 2.465 . S
Tb347 O387 2.387 . S
Tb347 O389 2.428 . S
Tb347 O390 2.308 . S
Tb347 C411 2.802 . S
N348 C344 1.361 . S
N348 Tb347 2.572 . S
N348 C350 1.340 . S
C349 C343 1.416 . S
C349 C351 1.332 . S
C349 H357 0.931 . S
C350 N348 1.340 . S
C350 C351 1.407 1_655 S
C350 H356 0.930 . S
C351 C349 1.332 . S
C351 C350 1.407 1_455 S
C351 H353 0.929 . S
H352 C341 0.930 . S
H353 C351 0.929 . S
H354 C369 0.930 . S
H355 C376 0.929 . S
H356 C350 0.930 . S
H357 C349 0.931 . S
H358 C372 0.930 . S
H359 C339 0.930 . S
H360 C345 0.929 . S
H361 C346 0.930 1_556 S
H362 C367 0.930 . S
H363 C342 0.930 . S
H364 C375 0.931 . S
N365 Tb336 2.617 . S
N365 C366 1.379 . S
N365 C369 1.334 . S
C366 N365 1.379 . S
C366 C368 1.416 . S
C366 C374 1.424 . S
C367 H362 0.930 . S
C367 C369 1.390 . S
C367 C370 1.339 . S
C368 C366 1.416 . S
C368 C370 1.416 . S
C368 C401 1.448 . S
C369 H354 0.930 . S
C369 N365 1.334 . S
C369 C367 1.390 . S
C370 C367 1.339 . S
C370 C368 1.416 . S
C370 H377 0.930 . S
N371 Tb336 2.572 . S
N371 C372 1.340 . S
N371 C374 1.361 . S
C372 H358 0.930 . S
C372 N371 1.340 . S
C372 C376 1.407 . S
C373 C374 1.413 . S
C373 C375 1.416 . S
C373 C402 1.427 . S
C374 C366 1.424 . S
C374 N371 1.361 . S
C374 C373 1.413 . S
C375 H364 0.931 . S
C375 C373 1.416 . S
C375 C376 1.332 . S
C376 H355 0.929 . S
C376 C372 1.407 . S
C376 C375 1.332 . S
H377 C370 0.930 . S
H378 C401 0.930 . S
H379 C402 0.929 . S
O380 Tb336 2.465 . S
O380 C400 1.264 . S
O381 Tb336 2.387 . S
O381 C392 1.264 . S
O382 Tb347 2.349 . S
O382 C392 1.243 . S
O383 Tb336 2.428 . S
O383 C400 1.256 . S
O384 Tb336 2.308 . S
O384 C399 1.266 . S
O385 Tb347 2.393 . S
O385 C399 1.248 . S
O386 Tb347 2.465 . S
O386 C411 1.264 . S
O387 Tb347 2.387 . S
O387 C403 1.264 . S
O388 Tb336 2.349 . S
O388 C403 1.243 . S
O389 Tb347 2.428 . S
O389 C411 1.256 . S
O390 Tb347 2.308 . S
O390 C410 1.266 . S
O391 Tb336 2.393 . S
O391 C410 1.248 . S
C392 O381 1.264 . S
C392 O382 1.243 . S
C393 C396 1.399 . S
C393 C398 1.383 . S
C393 C400 1.496 . S
C394 C395 1.399 . S
C394 C398 1.389 . S
C395 C394 1.399 . S
C395 C397 1.380 . S
C395 H412 0.929 . S
C396 C393 1.399 . S
C396 C397 1.392 . S
C396 H413 0.929 . S
C397 C395 1.380 . S
C397 C396 1.392 . S
C397 H414 0.929 . S
C398 C393 1.383 . S
C398 C394 1.389 . S
C398 H415 0.931 . S
C399 O384 1.266 . S
C399 O385 1.248 . S
C400 Tb336 2.802 . S
C400 O380 1.264 . S
C400 O383 1.256 . S
C400 C393 1.496 . S
C401 C368 1.448 . S
C401 H378 0.930 . S
C401 C402 1.328 . S
C402 C373 1.427 . S
C402 H379 0.929 . S
C402 C401 1.328 . S
C403 O387 1.264 . S
C403 O388 1.243 . S
C404 C407 1.399 . S
C404 C408 1.383 . S
C404 C411 1.496 . S
C405 C406 1.399 . S
C405 C408 1.389 . S
C406 C405 1.399 . S
C406 C409 1.380 . S
C406 H416 0.929 . S
C407 C404 1.399 . S
C407 C409 1.392 . S
C407 H417 0.929 . S
C408 C404 1.383 . S
C408 C405 1.389 . S
C408 H418 0.931 . S
C409 C406 1.380 . S
C409 C407 1.392 . S
C409 H419 0.929 . S
C410 O390 1.266 . S
C410 O391 1.248 . S
C411 Tb347 2.802 . S
C411 O386 1.264 . S
C411 O389 1.256 . S
C411 C404 1.496 . S
H412 C395 0.929 . S
H413 C396 0.929 . S
H414 C397 0.929 . S
H415 C398 0.931 . S
H416 C406 0.929 . S
H417 C407 0.929 . S
H418 C408 0.931 . S
H419 C409 0.929 . S
Tb420 N449 2.617 . S
Tb420 N455 2.572 . S
Tb420 O464 2.465 . S
Tb420 O465 2.387 . S
Tb420 O467 2.428 . S
Tb420 O468 2.308 . S
Tb420 O472 2.349 . S
Tb420 O475 2.393 . S
Tb420 C484 2.802 . S
C421 N422 1.379 . S
C421 C424 1.416 . S
C421 C428 1.423 1_655 S
N422 C421 1.379 . S
N422 C425 1.334 . S
N422 Tb431 2.617 . S
C423 C425 1.390 . S
C423 C426 1.339 . S
C423 H443 0.930 . S
C424 C421 1.416 . S
C424 C426 1.416 . S
C424 C430 1.448 1_655 S
C425 N422 1.334 . S
C425 C423 1.390 . S
C425 H436 0.930 . S
C426 C423 1.339 . S
C426 C424 1.416 . S
C426 H447 0.930 . S
C427 C428 1.413 . S
C427 C429 1.427 . S
C427 C433 1.416 . S
C428 C421 1.423 1_455 S
C428 C427 1.413 . S
C428 N432 1.361 1_455 S
C429 C427 1.427 . S
C429 C430 1.328 . S
C429 H444 0.929 . S
C430 C424 1.448 1_455 S
C430 C429 1.328 . S
C430 H445 0.930 . S
Tb431 N422 2.617 . S
Tb431 N432 2.572 . S
Tb431 O466 2.349 . S
Tb431 O469 2.393 . S
Tb431 O470 2.465 . S
Tb431 O471 2.387 . S
Tb431 O473 2.428 . S
Tb431 O474 2.308 . S
Tb431 C495 2.814 . S
N432 C428 1.361 1_655 S
N432 Tb431 2.572 . S
N432 C434 1.340 1_655 S
C433 C427 1.416 . S
C433 C435 1.332 . S
C433 H441 0.931 . S
C434 N432 1.340 1_455 S
C434 C435 1.407 . S
C434 H440 0.930 1_455 S
C435 C433 1.332 . S
C435 C434 1.407 . S
C435 H437 0.929 . S
H436 C425 0.930 . S
H437 C435 0.929 . S
H438 C453 0.930 . S
H439 C460 0.929 . S
H440 C434 0.930 1_655 S
H441 C433 0.931 . S
H442 C456 0.930 . S
H443 C423 0.930 . S
H444 C429 0.929 . S
H445 C430 0.930 . S
H446 C451 0.930 . S
H447 C426 0.930 . S
H448 C459 0.931 . S
N449 Tb420 2.617 . S
N449 C450 1.379 . S
N449 C453 1.334 . S
C450 N449 1.379 . S
C450 C452 1.416 . S
C450 C458 1.424 . S
C451 H446 0.930 . S
C451 C453 1.390 . S
C451 C454 1.339 . S
C452 C450 1.416 . S
C452 C454 1.416 . S
C452 C485 1.448 1_545 S
C453 H438 0.930 . S
C453 N449 1.334 . S
C453 C451 1.390 . S
C454 C451 1.339 . S
C454 C452 1.416 . S
C454 H461 0.930 . S
N455 Tb420 2.572 . S
N455 C456 1.340 . S
N455 C458 1.361 . S
C456 H442 0.930 . S
C456 N455 1.340 . S
C456 C460 1.407 1_545 S
C457 C458 1.413 1_565 S
C457 C459 1.416 . S
C457 C486 1.427 . S
C458 C450 1.424 . S
C458 N455 1.361 . S
C458 C457 1.413 1_545 S
C459 H448 0.931 . S
C459 C457 1.416 . S
C459 C460 1.332 . S
C460 H439 0.929 . S
C460 C456 1.407 1_565 S
C460 C459 1.332 . S
H461 C454 0.930 . S
H462 C485 0.930 . S
H463 C486 0.929 . S
O464 Tb420 2.465 . S
O464 C484 1.264 . S
O465 Tb420 2.387 . S
O465 C476 1.264 . S
O466 Tb431 2.349 . S
O466 C476 1.243 . S
O467 Tb420 2.428 . S
O467 C484 1.256 . S
O468 Tb420 2.308 . S
O468 C483 1.266 . S
O469 Tb431 2.393 . S
O469 C483 1.248 . S
O470 Tb431 2.465 . S
O470 C495 1.269 . S
O471 Tb431 2.387 . S
O471 C487 1.264 . S
O472 Tb420 2.349 . S
O472 C487 1.243 . S
O473 Tb431 2.428 . S
O473 C495 1.263 . S
O474 Tb431 2.308 . S
O474 C494 1.266 . S
O475 Tb420 2.393 . S
O475 C494 1.248 . S
C476 O465 1.264 . S
C476 O466 1.243 . S
C477 C480 1.399 . S
C477 C482 1.383 . S
C477 C484 1.496 . S
C478 C479 1.399 . S
C478 C482 1.389 . S
C479 C478 1.399 . S
C479 C481 1.380 . S
C479 H496 0.929 . S
C480 C477 1.399 . S
C480 C481 1.392 . S
C480 H497 0.929 . S
C481 C479 1.380 . S
C481 C480 1.392 . S
C481 H498 0.929 . S
C482 C477 1.383 . S
C482 C478 1.389 . S
C482 H499 0.931 . S
C483 O468 1.266 . S
C483 O469 1.248 . S
C484 Tb420 2.802 . S
C484 O464 1.264 . S
C484 O467 1.256 . S
C484 C477 1.496 . S
C485 C452 1.448 1_565 S
C485 H462 0.930 . S
C485 C486 1.328 . S
C486 C457 1.427 . S
C486 H463 0.929 . S
C486 C485 1.328 . S
C487 O471 1.264 . S
C487 O472 1.243 . S
C488 C491 1.399 . S
C488 C492 1.383 . S
C488 C495 1.484 1_455 S
C489 C490 1.399 . S
C489 C492 1.389 . S
C490 C489 1.399 . S
C490 C493 1.380 . S
C490 H500 0.929 . S
C491 C488 1.399 . S
C491 C493 1.392 . S
C491 H501 0.929 . S
C492 C488 1.383 . S
C492 C489 1.389 . S
C492 H502 0.931 . S
C493 C490 1.380 . S
C493 C491 1.392 . S
C493 H503 0.929 . S
C494 O474 1.266 . S
C494 O475 1.248 . S
C495 Tb431 2.814 . S
C495 O470 1.269 . S
C495 O473 1.263 . S
C495 C488 1.484 1_655 S
H496 C479 0.929 . S
H497 C480 0.929 . S
H498 C481 0.929 . S
H499 C482 0.931 . S
H500 C490 0.929 . S
H501 C491 0.929 . S
H502 C492 0.931 . S
H503 C493 0.929 . S
Tb504 N533 2.617 . S
Tb504 N539 2.572 . S
Tb504 O548 2.465 . S
Tb504 O549 2.387 . S
Tb504 O551 2.428 . S
Tb504 O552 2.308 . S
Tb504 O556 2.349 . S
Tb504 O559 2.393 . S
Tb504 C568 2.802 . S
C505 N506 1.379 . S
C505 C508 1.416 . S
C505 C512 1.423 1_455 S
N506 C505 1.379 . S
N506 C509 1.334 . S
N506 Tb515 2.617 . S
C507 C509 1.390 . S
C507 C510 1.339 . S
C507 H527 0.930 . S
C508 C505 1.416 . S
C508 C510 1.416 . S
C508 C514 1.448 1_455 S
C509 N506 1.334 . S
C509 C507 1.390 . S
C509 H520 0.930 . S
C510 C507 1.339 . S
C510 C508 1.416 . S
C510 H531 0.930 . S
C511 C512 1.413 . S
C511 C513 1.427 . S
C511 C517 1.416 . S
C512 C505 1.423 1_655 S
C512 C511 1.413 . S
C512 N516 1.361 1_655 S
C513 C511 1.427 . S
C513 C514 1.328 . S
C513 H528 0.929 . S
C514 C508 1.448 1_655 S
C514 C513 1.328 . S
C514 H529 0.930 . S
Tb515 N506 2.617 . S
Tb515 N516 2.572 . S
Tb515 O550 2.349 . S
Tb515 O553 2.393 . S
Tb515 O554 2.465 . S
Tb515 O555 2.387 . S
Tb515 O557 2.428 . S
Tb515 O558 2.308 . S
Tb515 C579 2.807 . S
N516 C512 1.361 1_455 S
N516 Tb515 2.572 . S
N516 C518 1.340 1_455 S
C517 C511 1.416 . S
C517 C519 1.332 . S
C517 H525 0.931 . S
C518 N516 1.340 1_655 S
C518 C519 1.407 . S
C518 H524 0.930 1_655 S
C519 C517 1.332 . S
C519 C518 1.407 . S
C519 H521 0.929 . S
H520 C509 0.930 . S
H521 C519 0.929 . S
H522 C537 0.930 . S
H523 C544 0.929 . S
H524 C518 0.930 1_455 S
H525 C517 0.931 . S
H526 C540 0.930 . S
H527 C507 0.930 . S
H528 C513 0.929 . S
H529 C514 0.930 . S
H530 C535 0.930 . S
H531 C510 0.930 . S
H532 C543 0.931 . S
N533 Tb504 2.617 . S
N533 C534 1.379 . S
N533 C537 1.334 . S
C534 N533 1.379 . S
C534 C536 1.416 . S
C534 C542 1.424 . S
C535 H530 0.930 . S
C535 C537 1.390 . S
C535 C538 1.339 . S
C536 C534 1.416 . S
C536 C538 1.416 . S
C536 C569 1.448 . S
C537 H522 0.930 . S
C537 N533 1.334 . S
C537 C535 1.390 . S
C538 C535 1.339 . S
C538 C536 1.416 . S
C538 H545 0.930 . S
N539 Tb504 2.572 . S
N539 C540 1.340 . S
N539 C542 1.361 . S
C540 H526 0.930 . S
C540 N539 1.340 . S
C540 C544 1.407 . S
C541 C542 1.413 . S
C541 C543 1.416 . S
C541 C570 1.427 . S
C542 C534 1.424 . S
C542 N539 1.361 . S
C542 C541 1.413 . S
C543 H532 0.931 . S
C543 C541 1.416 . S
C543 C544 1.332 . S
C544 H523 0.929 . S
C544 C540 1.407 . S
C544 C543 1.332 . S
H545 C538 0.930 . S
H546 C569 0.930 . S
H547 C570 0.929 . S
O548 Tb504 2.465 . S
O548 C568 1.264 . S
O549 Tb504 2.387 . S
O549 C560 1.264 . S
O550 Tb515 2.349 . S
O550 C560 1.243 . S
O551 Tb504 2.428 . S
O551 C568 1.256 . S
O552 Tb504 2.308 . S
O552 C567 1.266 . S
O553 Tb515 2.393 . S
O553 C567 1.248 . S
O554 Tb515 2.465 . S
O554 C579 1.264 . S
O555 Tb515 2.387 . S
O555 C571 1.264 . S
O556 Tb504 2.349 . S
O556 C571 1.243 . S
O557 Tb515 2.428 . S
O557 C579 1.261 . S
O558 Tb515 2.308 . S
O558 C578 1.266 . S
O559 Tb504 2.393 . S
O559 C578 1.248 . S
C560 O549 1.264 . S
C560 O550 1.243 . S
C561 C564 1.399 . S
C561 C566 1.383 . S
C561 C568 1.496 . S
C562 C563 1.399 . S
C562 C566 1.389 . S
C563 C562 1.399 . S
C563 C565 1.380 . S
C563 H580 0.929 . S
C564 C561 1.399 . S
C564 C565 1.392 . S
C564 H581 0.929 . S
C565 C563 1.380 . S
C565 C564 1.392 . S
C565 H582 0.929 . S
C566 C561 1.383 . S
C566 C562 1.389 . S
C566 H583 0.931 . S
C567 O552 1.266 . S
C567 O553 1.248 . S
C568 Tb504 2.802 . S
C568 O548 1.264 . S
C568 O551 1.256 . S
C568 C561 1.496 . S
C569 C536 1.448 . S
C569 H546 0.930 . S
C569 C570 1.328 . S
C570 C541 1.427 . S
C570 H547 0.929 . S
C570 C569 1.328 . S
C571 O555 1.264 . S
C571 O556 1.243 . S
C572 C575 1.399 . S
C572 C576 1.383 . S
C572 C579 1.491 1_655 S
C573 C574 1.399 . S
C573 C576 1.389 . S
C574 C573 1.399 . S
C574 C577 1.380 . S
C574 H584 0.929 . S
C575 C572 1.399 . S
C575 C577 1.392 . S
C575 H585 0.929 . S
C576 C572 1.383 . S
C576 C573 1.389 . S
C576 H586 0.931 . S
C577 C574 1.380 . S
C577 C575 1.392 . S
C577 H587 0.929 . S
C578 O558 1.266 . S
C578 O559 1.248 . S
C579 Tb515 2.807 . S
C579 O554 1.264 . S
C579 O557 1.261 . S
C579 C572 1.491 1_455 S
H580 C563 0.929 . S
H581 C564 0.929 . S
H582 C565 0.929 . S
H583 C566 0.931 . S
H584 C574 0.929 . S
H585 C575 0.929 . S
H586 C576 0.931 . S
H587 C577 0.929 . S
Tb588 N617 2.617 . S
Tb588 N623 2.572 . S
Tb588 O632 2.465 . S
Tb588 O633 2.387 . S
Tb588 O635 2.428 . S
Tb588 O636 2.308 . S
Tb588 O640 2.349 . S
Tb588 O643 2.393 . S
Tb588 C652 2.814 . S
C589 N590 1.379 . S
C589 C592 1.416 . S
C589 C596 1.424 . S
N590 C589 1.379 . S
N590 C593 1.334 1_556 S
N590 Tb599 2.617 . S
C591 C593 1.390 . S
C591 C594 1.339 . S
C591 H611 0.930 . S
C592 C589 1.416 . S
C592 C594 1.416 1_556 S
C592 C598 1.448 1_455 S
C593 N590 1.334 1_554 S
C593 C591 1.390 . S
C593 H604 0.930 . S
C594 C591 1.339 . S
C594 C592 1.416 1_554 S
C594 H615 0.930 . S
C595 C596 1.413 1_655 S
C595 C597 1.427 . S
C595 C601 1.416 . S
C596 C589 1.424 . S
C596 C595 1.413 1_455 S
C596 N600 1.361 . S
C597 C595 1.427 . S
C597 C598 1.328 . S
C597 H612 0.929 . S
C598 C592 1.448 1_655 S
C598 C597 1.328 . S
C598 H613 0.930 1_556 S
Tb599 N590 2.617 . S
Tb599 N600 2.572 . S
Tb599 O634 2.349 . S
Tb599 O637 2.393 . S
Tb599 O638 2.465 . S
Tb599 O639 2.387 . S
Tb599 O641 2.428 . S
Tb599 O642 2.308 . S
Tb599 C663 2.802 . S
N600 C596 1.361 . S
N600 Tb599 2.572 . S
N600 C602 1.340 . S
C601 C595 1.416 . S
C601 C603 1.332 . S
C601 H609 0.931 . S
C602 N600 1.340 . S
C602 C603 1.407 1_455 S
C602 H608 0.930 . S
C603 C601 1.332 . S
C603 C602 1.407 1_655 S
C603 H605 0.929 . S
H604 C593 0.930 . S
H605 C603 0.929 . S
H606 C621 0.930 . S
H607 C628 0.929 . S
H608 C602 0.930 . S
H609 C601 0.931 . S
H610 C624 0.930 1_565 S
H611 C591 0.930 . S
H612 C597 0.929 . S
H613 C598 0.930 1_554 S
H614 C619 0.930 . S
H615 C594 0.930 . S
H616 C627 0.931 . S
N617 Tb588 2.617 . S
N617 C618 1.379 . S
N617 C621 1.334 . S
C618 N617 1.379 . S
C618 C620 1.416 . S
C618 C626 1.423 1_565 S
C619 H614 0.930 . S
C619 C621 1.390 . S
C619 C622 1.339 . S
C620 C618 1.416 . S
C620 C622 1.416 . S
C620 C653 1.448 1_565 S
C621 H606 0.930 . S
C621 N617 1.334 . S
C621 C619 1.390 . S
C622 C619 1.339 . S
C622 C620 1.416 . S
C622 H629 0.930 . S
N623 Tb588 2.572 . S
N623 C624 1.340 1_565 S
N623 C626 1.361 1_565 S
C624 H610 0.930 1_545 S
C624 N623 1.340 1_545 S
C624 C628 1.407 . S
C625 C626 1.413 . S
C625 C627 1.416 . S
C625 C654 1.427 . S
C626 C618 1.423 1_545 S
C626 N623 1.361 1_545 S
C626 C625 1.413 . S
C627 H616 0.931 . S
C627 C625 1.416 . S
C627 C628 1.332 . S
C628 H607 0.929 . S
C628 C624 1.407 . S
C628 C627 1.332 . S
H629 C622 0.930 . S
H630 C653 0.930 . S
H631 C654 0.929 . S
O632 Tb588 2.465 . S
O632 C652 1.269 . S
O633 Tb588 2.387 . S
O633 C644 1.264 . S
O634 Tb599 2.349 . S
O634 C644 1.243 . S
O635 Tb588 2.428 . S
O635 C652 1.263 . S
O636 Tb588 2.308 . S
O636 C651 1.266 . S
O637 Tb599 2.393 . S
O637 C651 1.248 . S
O638 Tb599 2.465 . S
O638 C663 1.264 . S
O639 Tb599 2.387 . S
O639 C655 1.264 . S
O640 Tb588 2.349 . S
O640 C655 1.243 . S
O641 Tb599 2.428 . S
O641 C663 1.256 . S
O642 Tb599 2.308 . S
O642 C662 1.266 . S
O643 Tb588 2.393 . S
O643 C662 1.248 . S
C644 O633 1.264 . S
C644 O634 1.243 . S
C645 C648 1.399 . S
C645 C650 1.383 . S
C645 C652 1.484 1_545 S
C646 C647 1.399 . S
C646 C650 1.389 . S
C647 C646 1.399 . S
C647 C649 1.380 . S
C647 H664 0.929 . S
C648 C645 1.399 . S
C648 C649 1.392 . S
C648 H665 0.929 . S
C649 C647 1.380 . S
C649 C648 1.392 . S
C649 H666 0.929 . S
C650 C645 1.383 . S
C650 C646 1.389 . S
C650 H667 0.931 . S
C651 O636 1.266 . S
C651 O637 1.248 . S
C652 Tb588 2.814 . S
C652 O632 1.269 . S
C652 O635 1.263 . S
C652 C645 1.484 1_565 S
C653 C620 1.448 1_545 S
C653 H630 0.930 . S
C653 C654 1.328 . S
C654 C625 1.427 . S
C654 H631 0.929 . S
C654 C653 1.328 . S
C655 O639 1.264 . S
C655 O640 1.243 . S
C656 C659 1.399 . S
C656 C660 1.383 . S
C656 C663 1.496 . S
C657 C658 1.399 . S
C657 C660 1.389 . S
C658 C657 1.399 . S
C658 C661 1.380 . S
C658 H668 0.929 . S
C659 C656 1.399 . S
C659 C661 1.392 . S
C659 H669 0.929 . S
C660 C656 1.383 . S
C660 C657 1.389 . S
C660 H670 0.931 . S
C661 C658 1.380 . S
C661 C659 1.392 . S
C661 H671 0.929 . S
C662 O642 1.266 . S
C662 O643 1.248 . S
C663 Tb599 2.802 . S
C663 O638 1.264 . S
C663 O641 1.256 . S
C663 C656 1.496 . S
H664 C647 0.929 . S
H665 C648 0.929 . S
H666 C649 0.929 . S
H667 C650 0.931 . S
H668 C658 0.929 . S
H669 C659 0.929 . S
H670 C660 0.931 . S
H671 C661 0.929 . S
Tb672 N701 2.617 . S
Tb672 N707 2.572 . S
Tb672 O716 2.465 . S
Tb672 O717 2.387 . S
Tb672 O719 2.428 . S
Tb672 O720 2.308 . S
Tb672 O724 2.349 . S
Tb672 O727 2.393 . S
Tb672 C736 2.802 . S
C673 N674 1.379 . S
C673 C676 1.416 . S
C673 C680 1.424 . S
N674 C673 1.379 . S
N674 C677 1.334 . S
N674 Tb683 2.617 . S
C675 C677 1.390 . S
C675 C678 1.339 . S
C675 H695 0.930 . S
C676 C673 1.416 . S
C676 C678 1.416 . S
C676 C682 1.448 . S
C677 N674 1.334 . S
C677 C675 1.390 . S
C677 H688 0.930 . S
C678 C675 1.339 . S
C678 C676 1.416 . S
C678 H699 0.930 . S
C679 C680 1.413 . S
C679 C681 1.427 . S
C679 C685 1.416 . S
C680 C673 1.424 . S
C680 C679 1.413 . S
C680 N684 1.361 . S
C681 C679 1.427 . S
C681 C682 1.328 . S
C681 H696 0.929 . S
C682 C676 1.448 . S
C682 C681 1.328 . S
C682 H697 0.930 . S
Tb683 N674 2.617 . S
Tb683 N684 2.572 . S
Tb683 O718 2.349 . S
Tb683 O721 2.393 . S
Tb683 O722 2.465 . S
Tb683 O723 2.387 . S
Tb683 O725 2.428 . S
Tb683 O726 2.308 . S
Tb683 C747 2.802 . S
N684 C680 1.361 . S
N684 Tb683 2.572 . S
N684 C686 1.340 . S
C685 C679 1.416 . S
C685 C687 1.332 . S
C685 H693 0.931 . S
C686 N684 1.340 . S
C686 C687 1.407 . S
C686 H692 0.930 . S
C687 C685 1.332 . S
C687 C686 1.407 . S
C687 H689 0.929 . S
H688 C677 0.930 . S
H689 C687 0.929 . S
H690 C705 0.930 . S
H691 C712 0.929 . S
H692 C686 0.930 . S
H693 C685 0.931 . S
H694 C708 0.930 . S
H695 C675 0.930 . S
H696 C681 0.929 . S
H697 C682 0.930 . S
H698 C703 0.930 . S
H699 C678 0.930 . S
H700 C711 0.931 . S
N701 Tb672 2.617 . S
N701 C702 1.379 . S
N701 C705 1.334 . S
C702 N701 1.379 . S
C702 C704 1.416 . S
C702 C710 1.424 . S
C703 H698 0.930 . S
C703 C705 1.390 . S
C703 C706 1.339 . S
C704 C702 1.416 . S
C704 C706 1.416 . S
C704 C737 1.448 1_565 S
C705 H690 0.930 . S
C705 N701 1.334 . S
C705 C703 1.390 . S
C706 C703 1.339 . S
C706 C704 1.416 . S
C706 H713 0.930 . S
N707 Tb672 2.572 . S
N707 C708 1.340 . S
N707 C710 1.361 . S
C708 H694 0.930 . S
C708 N707 1.340 . S
C708 C712 1.407 1_565 S
C709 C710 1.413 1_545 S
C709 C711 1.416 . S
C709 C738 1.427 . S
C710 C702 1.424 . S
C710 N707 1.361 . S
C710 C709 1.413 1_565 S
C711 H700 0.931 . S
C711 C709 1.416 . S
C711 C712 1.332 . S
C712 H691 0.929 . S
C712 C708 1.407 1_545 S
C712 C711 1.332 . S
H713 C706 0.930 . S
H714 C737 0.930 . S
H715 C738 0.929 . S
O716 Tb672 2.465 . S
O716 C736 1.264 . S
O717 Tb672 2.387 . S
O717 C728 1.264 . S
O718 Tb683 2.349 . S
O718 C728 1.243 . S
O719 Tb672 2.428 . S
O719 C736 1.256 . S
O720 Tb672 2.308 . S
O720 C735 1.266 . S
O721 Tb683 2.393 . S
O721 C735 1.248 . S
O722 Tb683 2.465 . S
O722 C747 1.264 . S
O723 Tb683 2.387 . S
O723 C739 1.264 . S
O724 Tb672 2.349 . S
O724 C739 1.243 . S
O725 Tb683 2.428 . S
O725 C747 1.256 . S
O726 Tb683 2.308 . S
O726 C746 1.266 . S
O727 Tb672 2.393 . S
O727 C746 1.248 . S
C728 O717 1.264 . S
C728 O718 1.243 . S
C729 C732 1.399 . S
C729 C734 1.383 . S
C729 C736 1.496 . S
C730 C731 1.399 . S
C730 C734 1.389 . S
C731 C730 1.399 . S
C731 C733 1.380 . S
C731 H748 0.929 . S
C732 C729 1.399 . S
C732 C733 1.392 . S
C732 H749 0.929 . S
C733 C731 1.380 . S
C733 C732 1.392 . S
C733 H750 0.929 . S
C734 C729 1.383 . S
C734 C730 1.389 . S
C734 H751 0.931 . S
C735 O720 1.266 . S
C735 O721 1.248 . S
C736 Tb672 2.802 . S
C736 O716 1.264 . S
C736 O719 1.256 . S
C736 C729 1.496 . S
C737 C704 1.448 1_545 S
C737 H714 0.930 . S
C737 C738 1.328 . S
C738 C709 1.427 . S
C738 H715 0.929 . S
C738 C737 1.328 . S
C739 O723 1.264 . S
C739 O724 1.243 . S
C740 C743 1.399 . S
C740 C744 1.383 . S
C740 C747 1.496 . S
C741 C742 1.399 . S
C741 C744 1.389 . S
C742 C741 1.399 . S
C742 C745 1.380 . S
C742 H752 0.929 . S
C743 C740 1.399 . S
C743 C745 1.392 . S
C743 H753 0.929 . S
C744 C740 1.383 . S
C744 C741 1.389 . S
C744 H754 0.931 . S
C745 C742 1.380 . S
C745 C743 1.392 . S
C745 H755 0.929 . S
C746 O726 1.266 . S
C746 O727 1.248 . S
C747 Tb683 2.802 . S
C747 O722 1.264 . S
C747 O725 1.256 . S
C747 C740 1.496 . S
H748 C731 0.929 . S
H749 C732 0.929 . S
H750 C733 0.929 . S
H751 C734 0.931 . S
H752 C742 0.929 . S
H753 C743 0.929 . S
H754 C744 0.931 . S
H755 C745 0.929 . S
Tb756 N785 2.617 . S
Tb756 N791 2.572 . S
Tb756 O800 2.465 . S
Tb756 O801 2.387 . S
Tb756 O803 2.428 . S
Tb756 O804 2.308 . S
Tb756 O808 2.349 . S
Tb756 O811 2.393 . S
Tb756 C820 2.807 . S
C757 N758 1.379 . S
C757 C760 1.416 . S
C757 C764 1.424 . S
N758 C757 1.379 . S
N758 C761 1.334 1_556 S
N758 Tb767 2.617 . S
C759 C761 1.390 . S
C759 C762 1.339 . S
C759 H779 0.930 . S
C760 C757 1.416 . S
C760 C762 1.416 1_556 S
C760 C766 1.448 . S
C761 N758 1.334 1_554 S
C761 C759 1.390 . S
C761 H772 0.930 . S
C762 C759 1.339 . S
C762 C760 1.416 1_554 S
C762 H783 0.930 . S
C763 C764 1.413 . S
C763 C765 1.427 . S
C763 C769 1.416 . S
C764 C757 1.424 . S
C764 C763 1.413 . S
C764 N768 1.361 . S
C765 C763 1.427 . S
C765 C766 1.328 . S
C765 H780 0.929 . S
C766 C760 1.448 . S
C766 C765 1.328 . S
C766 H781 0.930 1_556 S
Tb767 N758 2.617 . S
Tb767 N768 2.572 . S
Tb767 O802 2.349 . S
Tb767 O805 2.393 . S
Tb767 O806 2.465 . S
Tb767 O807 2.387 . S
Tb767 O809 2.428 . S
Tb767 O810 2.308 . S
Tb767 C831 2.802 . S
N768 C764 1.361 . S
N768 Tb767 2.572 . S
N768 C770 1.340 . S
C769 C763 1.416 . S
C769 C771 1.332 . S
C769 H777 0.931 . S
C770 N768 1.340 . S
C770 C771 1.407 . S
C770 H776 0.930 . S
C771 C769 1.332 . S
C771 C770 1.407 . S
C771 H773 0.929 . S
H772 C761 0.930 . S
H773 C771 0.929 . S
H774 C789 0.930 . S
H775 C796 0.929 . S
H776 C770 0.930 . S
H777 C769 0.931 . S
H778 C792 0.930 1_455 S
H779 C759 0.930 . S
H780 C765 0.929 . S
H781 C766 0.930 1_554 S
H782 C787 0.930 . S
H783 C762 0.930 . S
H784 C795 0.931 . S
N785 Tb756 2.617 . S
N785 C786 1.379 . S
N785 C789 1.334 . S
C786 N785 1.379 . S
C786 C788 1.416 . S
C786 C794 1.423 1_455 S
C787 H782 0.930 . S
C787 C789 1.390 . S
C787 C790 1.339 . S
C788 C786 1.416 . S
C788 C790 1.416 . S
C788 C821 1.448 1_455 S
C789 H774 0.930 . S
C789 N785 1.334 . S
C789 C787 1.390 . S
C790 C787 1.339 . S
C790 C788 1.416 . S
C790 H797 0.930 . S
N791 Tb756 2.572 . S
N791 C792 1.340 1_455 S
N791 C794 1.361 1_455 S
C792 H778 0.930 1_655 S
C792 N791 1.340 1_655 S
C792 C796 1.407 . S
C793 C794 1.413 . S
C793 C795 1.416 . S
C793 C822 1.427 . S
C794 C786 1.423 1_655 S
C794 N791 1.361 1_655 S
C794 C793 1.413 . S
C795 H784 0.931 . S
C795 C793 1.416 . S
C795 C796 1.332 . S
C796 H775 0.929 . S
C796 C792 1.407 . S
C796 C795 1.332 . S
H797 C790 0.930 . S
H798 C821 0.930 . S
H799 C822 0.929 . S
O800 Tb756 2.465 . S
O800 C820 1.264 . S
O801 Tb756 2.387 . S
O801 C812 1.264 . S
O802 Tb767 2.349 . S
O802 C812 1.243 . S
O803 Tb756 2.428 . S
O803 C820 1.261 . S
O804 Tb756 2.308 . S
O804 C819 1.266 . S
O805 Tb767 2.393 . S
O805 C819 1.248 . S
O806 Tb767 2.465 . S
O806 C831 1.264 . S
O807 Tb767 2.387 . S
O807 C823 1.264 . S
O808 Tb756 2.349 . S
O808 C823 1.243 . S
O809 Tb767 2.428 . S
O809 C831 1.256 . S
O810 Tb767 2.308 . S
O810 C830 1.266 . S
O811 Tb756 2.393 . S
O811 C830 1.248 . S
C812 O801 1.264 . S
C812 O802 1.243 . S
C813 C816 1.399 . S
C813 C818 1.383 . S
C813 C820 1.491 1_655 S
C814 C815 1.399 . S
C814 C818 1.389 . S
C815 C814 1.399 . S
C815 C817 1.380 . S
C815 H832 0.929 . S
C816 C813 1.399 . S
C816 C817 1.392 . S
C816 H833 0.929 . S
C817 C815 1.380 . S
C817 C816 1.392 . S
C817 H834 0.929 . S
C818 C813 1.383 . S
C818 C814 1.389 . S
C818 H835 0.931 . S
C819 O804 1.266 . S
C819 O805 1.248 . S
C820 Tb756 2.807 . S
C820 O800 1.264 . S
C820 O803 1.261 . S
C820 C813 1.491 1_455 S
C821 C788 1.448 1_655 S
C821 H798 0.930 . S
C821 C822 1.328 . S
C822 C793 1.427 . S
C822 H799 0.929 . S
C822 C821 1.328 . S
C823 O807 1.264 . S
C823 O808 1.243 . S
C824 C827 1.399 . S
C824 C828 1.383 . S
C824 C831 1.496 . S
C825 C826 1.399 . S
C825 C828 1.389 . S
C826 C825 1.399 . S
C826 C829 1.380 . S
C826 H836 0.929 . S
C827 C824 1.399 . S
C827 C829 1.392 . S
C827 H837 0.929 . S
C828 C824 1.383 . S
C828 C825 1.389 . S
C828 H838 0.931 . S
C829 C826 1.380 . S
C829 C827 1.392 . S
C829 H839 0.929 . S
C830 O810 1.266 . S
C830 O811 1.248 . S
C831 Tb767 2.802 . S
C831 O806 1.264 . S
C831 O809 1.256 . S
C831 C824 1.496 . S
H832 C815 0.929 . S
H833 C816 0.929 . S
H834 C817 0.929 . S
H835 C818 0.931 . S
H836 C826 0.929 . S
H837 C827 0.929 . S
H838 C828 0.931 . S
H839 C829 0.929 . S
Tb840 N869 2.617 . S
Tb840 N875 2.572 . S
Tb840 O884 2.465 . S
Tb840 O885 2.387 . S
Tb840 O887 2.428 . S
Tb840 O888 2.308 . S
Tb840 O892 2.349 . S
Tb840 O895 2.393 . S
Tb840 C904 2.802 . S
C841 N842 1.379 . S
C841 C844 1.416 . S
C841 C848 1.423 1_565 S
N842 C841 1.379 . S
N842 C845 1.334 . S
N842 Tb851 2.617 . S
C843 C845 1.390 . S
C843 C846 1.339 . S
C843 H863 0.930 . S
C844 C841 1.416 . S
C844 C846 1.416 . S
C844 C850 1.448 1_565 S
C845 N842 1.334 . S
C845 C843 1.390 . S
C845 H856 0.930 . S
C846 C843 1.339 . S
C846 C844 1.416 . S
C846 H867 0.930 . S
C847 C848 1.413 . S
C847 C849 1.427 . S
C847 C853 1.416 . S
C848 C841 1.423 1_545 S
C848 C847 1.413 . S
C848 N852 1.361 1_545 S
C849 C847 1.427 . S
C849 C850 1.328 . S
C849 H864 0.929 . S
C850 C844 1.448 1_545 S
C850 C849 1.328 . S
C850 H865 0.930 . S
Tb851 N842 2.617 . S
Tb851 N852 2.572 . S
Tb851 O886 2.349 . S
Tb851 O889 2.393 . S
Tb851 O890 2.465 . S
Tb851 O891 2.387 . S
Tb851 O893 2.428 . S
Tb851 O894 2.308 . S
Tb851 C915 2.814 . S
N852 C848 1.361 1_565 S
N852 Tb851 2.572 . S
N852 C854 1.340 1_565 S
C853 C847 1.416 . S
C853 C855 1.332 . S
C853 H861 0.931 . S
C854 N852 1.340 1_545 S
C854 C855 1.407 . S
C854 H860 0.930 1_545 S
C855 C853 1.332 . S
C855 C854 1.407 . S
C855 H857 0.929 . S
H856 C845 0.930 . S
H857 C855 0.929 . S
H858 C873 0.930 . S
H859 C880 0.929 . S
H860 C854 0.930 1_565 S
H861 C853 0.931 . S
H862 C876 0.930 . S
H863 C843 0.930 . S
H864 C849 0.929 . S
H865 C850 0.930 . S
H866 C871 0.930 . S
H867 C846 0.930 . S
H868 C879 0.931 . S
N869 Tb840 2.617 . S
N869 C870 1.379 . S
N869 C873 1.334 . S
C870 N869 1.379 . S
C870 C872 1.416 . S
C870 C878 1.424 . S
C871 H866 0.930 . S
C871 C873 1.390 . S
C871 C874 1.339 . S
C872 C870 1.416 . S
C872 C874 1.416 . S
C872 C905 1.448 1_455 S
C873 H858 0.930 . S
C873 N869 1.334 . S
C873 C871 1.390 . S
C874 C871 1.339 . S
C874 C872 1.416 . S
C874 H881 0.930 . S
N875 Tb840 2.572 . S
N875 C876 1.340 . S
N875 C878 1.361 . S
C876 H862 0.930 . S
C876 N875 1.340 . S
C876 C880 1.407 1_455 S
C877 C878 1.413 1_655 S
C877 C879 1.416 . S
C877 C906 1.427 . S
C878 C870 1.424 . S
C878 N875 1.361 . S
C878 C877 1.413 1_455 S
C879 H868 0.931 . S
C879 C877 1.416 . S
C879 C880 1.332 . S
C880 H859 0.929 . S
C880 C876 1.407 1_655 S
C880 C879 1.332 . S
H881 C874 0.930 . S
H882 C905 0.930 . S
H883 C906 0.929 . S
O884 Tb840 2.465 . S
O884 C904 1.264 . S
O885 Tb840 2.387 . S
O885 C896 1.264 . S
O886 Tb851 2.349 . S
O886 C896 1.243 . S
O887 Tb840 2.428 . S
O887 C904 1.256 . S
O888 Tb840 2.308 . S
O888 C903 1.266 . S
O889 Tb851 2.393 . S
O889 C903 1.248 . S
O890 Tb851 2.465 . S
O890 C915 1.269 . S
O891 Tb851 2.387 . S
O891 C907 1.264 . S
O892 Tb840 2.349 . S
O892 C907 1.243 . S
O893 Tb851 2.428 . S
O893 C915 1.263 . S
O894 Tb851 2.308 . S
O894 C914 1.266 . S
O895 Tb840 2.393 . S
O895 C914 1.248 . S
C896 O885 1.264 . S
C896 O886 1.243 . S
C897 C900 1.399 . S
C897 C902 1.383 . S
C897 C904 1.496 . S
C898 C899 1.399 . S
C898 C902 1.389 . S
C899 C898 1.399 . S
C899 C901 1.380 . S
C899 H916 0.929 . S
C900 C897 1.399 . S
C900 C901 1.392 . S
C900 H917 0.929 . S
C901 C899 1.380 . S
C901 C900 1.392 . S
C901 H918 0.929 . S
C902 C897 1.383 . S
C902 C898 1.389 . S
C902 H919 0.931 . S
C903 O888 1.266 . S
C903 O889 1.248 . S
C904 Tb840 2.802 . S
C904 O884 1.264 . S
C904 O887 1.256 . S
C904 C897 1.496 . S
C905 C872 1.448 1_655 S
C905 H882 0.930 . S
C905 C906 1.328 . S
C906 C877 1.427 . S
C906 H883 0.929 . S
C906 C905 1.328 . S
C907 O891 1.264 . S
C907 O892 1.243 . S
C908 C911 1.399 . S
C908 C912 1.383 . S
C908 C915 1.484 1_545 S
C909 C910 1.399 . S
C909 C912 1.389 . S
C910 C909 1.399 . S
C910 C913 1.380 . S
C910 H920 0.929 . S
C911 C908 1.399 . S
C911 C913 1.392 . S
C911 H921 0.929 . S
C912 C908 1.383 . S
C912 C909 1.389 . S
C912 H922 0.931 . S
C913 C910 1.380 . S
C913 C911 1.392 . S
C913 H923 0.929 . S
C914 O894 1.266 . S
C914 O895 1.248 . S
C915 Tb851 2.814 . S
C915 O890 1.269 . S
C915 O893 1.263 . S
C915 C908 1.484 1_565 S
H916 C899 0.929 . S
H917 C900 0.929 . S
H918 C901 0.929 . S
H919 C902 0.931 . S
H920 C910 0.929 . S
H921 C911 0.929 . S
H922 C912 0.931 . S
H923 C913 0.929 . S
Tb924 N953 2.617 . S
Tb924 N959 2.572 . S
Tb924 O968 2.465 . S
Tb924 O969 2.387 . S
Tb924 O971 2.428 . S
Tb924 O972 2.308 . S
Tb924 O976 2.349 . S
Tb924 O979 2.393 . S
Tb924 C988 2.802 . S
C925 N926 1.379 . S
C925 C928 1.416 . S
C925 C932 1.424 . S
N926 C925 1.379 . S
N926 C929 1.334 1_556 S
N926 Tb935 2.617 . S
C927 C929 1.390 . S
C927 C930 1.339 . S
C927 H947 0.930 . S
C928 C925 1.416 . S
C928 C930 1.416 1_556 S
C928 C934 1.448 1_565 S
C929 N926 1.334 1_554 S
C929 C927 1.390 . S
C929 H940 0.930 . S
C930 C927 1.339 . S
C930 C928 1.416 1_554 S
C930 H951 0.930 . S
C931 C932 1.413 1_545 S
C931 C933 1.427 . S
C931 C937 1.416 . S
C932 C925 1.424 . S
C932 C931 1.413 1_565 S
C932 N936 1.361 . S
C933 C931 1.427 . S
C933 C934 1.328 . S
C933 H948 0.929 . S
C934 C928 1.448 1_545 S
C934 C933 1.328 . S
C934 H949 0.930 1_556 S
Tb935 N926 2.617 . S
Tb935 N936 2.572 . S
Tb935 O970 2.349 . S
Tb935 O973 2.393 . S
Tb935 O974 2.465 . S
Tb935 O975 2.387 . S
Tb935 O977 2.428 . S
Tb935 O978 2.308 . S
Tb935 C999 2.802 . S
N936 C932 1.361 . S
N936 Tb935 2.572 . S
N936 C938 1.340 . S
C937 C931 1.416 . S
C937 C939 1.332 . S
C937 H945 0.931 . S
C938 N936 1.340 . S
C938 C939 1.407 1_565 S
C938 H944 0.930 . S
C939 C937 1.332 . S
C939 C938 1.407 1_545 S
C939 H941 0.929 . S
H940 C929 0.930 . S
H941 C939 0.929 . S
H942 C957 0.930 . S
H943 C964 0.929 . S
H944 C938 0.930 . S
H945 C937 0.931 . S
H946 C960 0.930 . S
H947 C927 0.930 . S
H948 C933 0.929 . S
H949 C934 0.930 1_554 S
H950 C955 0.930 . S
H951 C930 0.930 . S
H952 C963 0.931 . S
N953 Tb924 2.617 . S
N953 C954 1.379 . S
N953 C957 1.334 . S
C954 N953 1.379 . S
C954 C956 1.416 . S
C954 C962 1.424 . S
C955 H950 0.930 . S
C955 C957 1.390 . S
C955 C958 1.339 . S
C956 C954 1.416 . S
C956 C958 1.416 . S
C956 C989 1.448 . S
C957 H942 0.930 . S
C957 N953 1.334 . S
C957 C955 1.390 . S
C958 C955 1.339 . S
C958 C956 1.416 . S
C958 H965 0.930 . S
N959 Tb924 2.572 . S
N959 C960 1.340 . S
N959 C962 1.361 . S
C960 H946 0.930 . S
C960 N959 1.340 . S
C960 C964 1.407 . S
C961 C962 1.413 . S
C961 C963 1.416 . S
C961 C990 1.427 . S
C962 C954 1.424 . S
C962 N959 1.361 . S
C962 C961 1.413 . S
C963 H952 0.931 . S
C963 C961 1.416 . S
C963 C964 1.332 . S
C964 H943 0.929 . S
C964 C960 1.407 . S
C964 C963 1.332 . S
H965 C958 0.930 . S
H966 C989 0.930 . S
H967 C990 0.929 . S
O968 Tb924 2.465 . S
O968 C988 1.264 . S
O969 Tb924 2.387 . S
O969 C980 1.264 . S
O970 Tb935 2.349 . S
O970 C980 1.243 . S
O971 Tb924 2.428 . S
O971 C988 1.256 . S
O972 Tb924 2.308 . S
O972 C987 1.266 . S
O973 Tb935 2.393 . S
O973 C987 1.248 . S
O974 Tb935 2.465 . S
O974 C999 1.264 . S
O975 Tb935 2.387 . S
O975 C991 1.264 . S
O976 Tb924 2.349 . S
O976 C991 1.243 . S
O977 Tb935 2.428 . S
O977 C999 1.256 . S
O978 Tb935 2.308 . S
O978 C998 1.266 . S
O979 Tb924 2.393 . S
O979 C998 1.248 . S
C980 O969 1.264 . S
C980 O970 1.243 . S
C981 C984 1.399 . S
C981 C986 1.383 . S
C981 C988 1.496 . S
C982 C983 1.399 . S
C982 C986 1.389 . S
C983 C982 1.399 . S
C983 C985 1.380 . S
C983 H1000 0.929 . S
C984 C981 1.399 . S
C984 C985 1.392 . S
C984 H1001 0.929 . S
C985 C983 1.380 . S
C985 C984 1.392 . S
C985 H1002 0.929 . S
C986 C981 1.383 . S
C986 C982 1.389 . S
C986 H1003 0.931 . S
C987 O972 1.266 . S
C987 O973 1.248 . S
C988 Tb924 2.802 . S
C988 O968 1.264 . S
C988 O971 1.256 . S
C988 C981 1.496 . S
C989 C956 1.448 . S
C989 H966 0.930 . S
C989 C990 1.328 . S
C990 C961 1.427 . S
C990 H967 0.929 . S
C990 C989 1.328 . S
C991 O975 1.264 . S
C991 O976 1.243 . S
C992 C995 1.399 . S
C992 C996 1.383 . S
C992 C999 1.496 . S
C993 C994 1.399 . S
C993 C996 1.389 . S
C994 C993 1.399 . S
C994 C997 1.380 . S
C994 H1004 0.929 . S
C995 C992 1.399 . S
C995 C997 1.392 . S
C995 H1005 0.929 . S
C996 C992 1.383 . S
C996 C993 1.389 . S
C996 H1006 0.931 . S
C997 C994 1.380 . S
C997 C995 1.392 . S
C997 H1007 0.929 . S
C998 O978 1.266 . S
C998 O979 1.248 . S
C999 Tb935 2.802 . S
C999 O974 1.264 . S
C999 O977 1.256 . S
C999 C992 1.496 . S
H1000 C983 0.929 . S
H1001 C984 0.929 . S
H1002 C985 0.929 . S
H1003 C986 0.931 . S
H1004 C994 0.929 . S
H1005 C995 0.929 . S
H1006 C996 0.931 . S
H1007 C997 0.929 . S
C1008 C1009 1.387 . S
C1008 H1012 0.950 . S
C1008 C1017 1.390 . S
C1009 C1008 1.387 . S
C1009 C1011 1.387 . S
H1010 C1017 0.950 . S
C1011 C1009 1.387 . S
C1011 C1013 1.390 . S
C1011 H1015 0.950 . S
H1012 C1008 0.950 . S
C1013 C1011 1.390 . S
C1013 C1014 1.387 . S
C1013 H1016 0.950 . S
C1014 C1013 1.387 . S
C1014 C1017 1.387 . S
H1015 C1011 0.950 . S
H1016 C1013 0.950 . S
C1017 C1008 1.390 . S
C1017 H1010 0.950 . S
C1017 C1014 1.387 . S
C1018 C1019 1.387 . S
C1018 H1022 0.950 . S
C1018 C1027 1.390 1_455 S
C1019 C1018 1.387 . S
C1019 C1021 1.387 . S
H1020 C1027 0.950 . S
C1021 C1019 1.387 . S
C1021 C1023 1.390 1_455 S
C1021 H1025 0.950 . S
H1022 C1018 0.950 . S
C1023 C1021 1.390 1_655 S
C1023 C1024 1.387 . S
C1023 H1026 0.950 . S
C1024 C1023 1.387 . S
C1024 C1027 1.387 . S
H1025 C1021 0.950 . S
H1026 C1023 0.950 . S
C1027 C1018 1.390 1_655 S
C1027 H1020 0.950 . S
C1027 C1024 1.387 . S
C1028 C1029 1.387 . S
C1028 H1032 0.950 . S
C1028 C1037 1.390 1_545 S
C1029 C1028 1.387 . S
C1029 C1031 1.387 . S
H1030 C1037 0.950 . S
C1031 C1029 1.387 . S
C1031 C1033 1.390 1_545 S
C1031 H1035 0.950 . S
H1032 C1028 0.950 . S
C1033 C1031 1.390 1_565 S
C1033 C1034 1.387 . S
C1033 H1036 0.950 . S
C1034 C1033 1.387 . S
C1034 C1037 1.387 . S
H1035 C1031 0.950 . S
H1036 C1033 0.950 . S
C1037 C1028 1.390 1_565 S
C1037 H1030 0.950 . S
C1037 C1034 1.387 . S
C1038 C1039 1.387 . S
C1038 H1042 0.950 . S
C1038 C1047 1.390 . S
C1039 C1038 1.387 . S
C1039 C1041 1.387 . S
H1040 C1047 0.950 . S
C1041 C1039 1.387 . S
C1041 C1043 1.390 . S
C1041 H1045 0.950 . S
H1042 C1038 0.950 . S
C1043 C1041 1.390 . S
C1043 C1044 1.387 . S
C1043 H1046 0.950 . S
C1044 C1043 1.387 . S
C1044 C1047 1.387 . S
H1045 C1041 0.950 . S
H1046 C1043 0.950 . S
C1047 C1038 1.390 . S
C1047 H1040 0.950 . S
C1047 C1044 1.387 . S
C1048 C1049 1.387 . S
C1048 H1052 0.950 . S
C1048 C1057 1.390 1_455 S
C1049 C1048 1.387 . S
C1049 C1051 1.387 . S
H1050 C1057 0.950 . S
C1051 C1049 1.387 . S
C1051 C1053 1.390 1_455 S
C1051 H1055 0.950 . S
H1052 C1048 0.950 . S
C1053 C1051 1.390 1_655 S
C1053 C1054 1.387 . S
C1053 H1056 0.950 . S
C1054 C1053 1.387 . S
C1054 C1057 1.387 . S
H1055 C1051 0.950 . S
H1056 C1053 0.950 . S
C1057 C1048 1.390 1_655 S
C1057 H1050 0.950 . S
C1057 C1054 1.387 . S
C1058 C1059 1.387 . S
C1058 H1062 0.950 . S
C1058 C1067 1.390 1_565 S
C1059 C1058 1.387 . S
C1059 C1061 1.387 . S
H1060 C1067 0.950 . S
C1061 C1059 1.387 . S
C1061 C1063 1.390 1_565 S
C1061 H1065 0.950 . S
H1062 C1058 0.950 . S
C1063 C1061 1.390 1_545 S
C1063 C1064 1.387 . S
C1063 H1066 0.950 . S
C1064 C1063 1.387 . S
C1064 C1067 1.387 . S
H1065 C1061 0.950 . S
H1066 C1063 0.950 . S
C1067 C1058 1.390 1_545 S
C1067 H1060 0.950 . S
C1067 C1064 1.387 . S
C1068 C1069 1.387 . S
C1068 H1072 0.950 . S
C1068 C1077 1.390 . S
C1069 C1068 1.387 . S
C1069 C1071 1.387 . S
H1070 C1077 0.950 . S
C1071 C1069 1.387 . S
C1071 C1073 1.390 . S
C1071 H1075 0.950 . S
H1072 C1068 0.950 . S
C1073 C1071 1.390 . S
C1073 C1074 1.387 . S
C1073 H1076 0.950 . S
C1074 C1073 1.387 . S
C1074 C1077 1.387 . S
H1075 C1071 0.950 . S
H1076 C1073 0.950 . S
C1077 C1068 1.390 . S
C1077 H1070 0.950 . S
C1077 C1074 1.387 . S
C1078 C1079 1.387 . S
C1078 H1082 0.950 . S
C1078 C1087 1.390 1_455 S
C1079 C1078 1.387 . S
C1079 C1081 1.387 . S
H1080 C1087 0.950 . S
C1081 C1079 1.387 . S
C1081 C1083 1.390 1_455 S
C1081 H1085 0.950 . S
H1082 C1078 0.950 . S
C1083 C1081 1.390 1_655 S
C1083 C1084 1.387 . S
C1083 H1086 0.950 . S
C1084 C1083 1.387 . S
C1084 C1087 1.387 . S
H1085 C1081 0.950 . S
H1086 C1083 0.950 . S
C1087 C1078 1.390 1_655 S
C1087 H1080 0.950 . S
C1087 C1084 1.387 . S
C1088 C1089 1.387 . S
C1088 H1092 0.950 . S
C1088 C1097 1.390 1_565 S
C1089 C1088 1.387 . S
C1089 C1091 1.387 . S
H1090 C1097 0.950 . S
C1091 C1089 1.387 . S
C1091 C1093 1.390 1_565 S
C1091 H1095 0.950 . S
H1092 C1088 0.950 . S
C1093 C1091 1.390 1_545 S
C1093 C1094 1.387 . S
C1093 H1096 0.950 . S
C1094 C1093 1.387 . S
C1094 C1097 1.387 . S
H1095 C1091 0.950 . S
H1096 C1093 0.950 . S
C1097 C1088 1.390 1_545 S
C1097 H1090 0.950 . S
C1097 C1094 1.387 . S
C1098 C1099 1.387 . S
C1098 H1102 0.950 . S
C1098 C1107 1.390 . S
C1099 C1098 1.387 . S
C1099 C1101 1.387 . S
H1100 C1107 0.950 . S
C1101 C1099 1.387 . S
C1101 C1103 1.390 . S
C1101 H1105 0.950 . S
H1102 C1098 0.950 . S
C1103 C1101 1.390 . S
C1103 C1104 1.387 . S
C1103 H1106 0.950 . S
C1104 C1103 1.387 . S
C1104 C1107 1.387 . S
H1105 C1101 0.950 . S
H1106 C1103 0.950 . S
C1107 C1098 1.390 . S
C1107 H1100 0.950 . S
C1107 C1104 1.387 . S
C1108 C1109 1.387 . S
C1108 H1112 0.950 . S
C1108 C1117 1.390 1_455 S
C1109 C1108 1.387 . S
C1109 C1111 1.387 . S
H1110 C1117 0.950 . S
C1111 C1109 1.387 . S
C1111 C1113 1.390 1_455 S
C1111 H1115 0.950 . S
H1112 C1108 0.950 . S
C1113 C1111 1.390 1_655 S
C1113 C1114 1.387 . S
C1113 H1116 0.950 . S
C1114 C1113 1.387 . S
C1114 C1117 1.387 . S
H1115 C1111 0.950 . S
H1116 C1113 0.950 . S
C1117 C1108 1.390 1_655 S
C1117 H1110 0.950 . S
C1117 C1114 1.387 . S
C1118 C1119 1.387 . S
C1118 H1122 0.950 . S
C1118 C1127 1.390 1_545 S
C1119 C1118 1.387 . S
C1119 C1121 1.387 . S
H1120 C1127 0.950 . S
C1121 C1119 1.387 . S
C1121 C1123 1.390 1_545 S
C1121 H1125 0.950 . S
H1122 C1118 0.950 . S
C1123 C1121 1.390 1_565 S
C1123 C1124 1.387 . S
C1123 H1126 0.950 . S
C1124 C1123 1.387 . S
C1124 C1127 1.387 . S
H1125 C1121 0.950 . S
H1126 C1123 0.950 . S
C1127 C1118 1.390 1_565 S
C1127 H1120 0.950 . S
C1127 C1124 1.387 . S
C1128 C1129 1.387 . S
C1128 H1132 0.950 . S
C1128 C1137 1.390 . S
C1129 C1128 1.387 . S
C1129 C1131 1.387 . S
H1130 C1137 0.950 . S
C1131 C1129 1.387 . S
C1131 C1133 1.390 . S
C1131 H1135 0.950 . S
H1132 C1128 0.950 . S
C1133 C1131 1.390 . S
C1133 C1134 1.387 . S
C1133 H1136 0.950 . S
C1134 C1133 1.387 . S
C1134 C1137 1.387 . S
H1135 C1131 0.950 . S
H1136 C1133 0.950 . S
C1137 C1128 1.390 . S
C1137 H1130 0.950 . S
C1137 C1134 1.387 . S
C1138 C1139 1.387 . S
C1138 H1142 0.950 . S
C1138 C1147 1.390 . S
C1139 C1138 1.387 . S
C1139 C1141 1.387 . S
H1140 C1147 0.950 . S
C1141 C1139 1.387 . S
C1141 C1143 1.390 . S
C1141 H1145 0.950 . S
H1142 C1138 0.950 . S
C1143 C1141 1.390 . S
C1143 C1144 1.387 . S
C1143 H1146 0.950 . S
C1144 C1143 1.387 . S
C1144 C1147 1.387 . S
H1145 C1141 0.950 . S
H1146 C1143 0.950 . S
C1147 C1138 1.390 . S
C1147 H1140 0.950 . S
C1147 C1144 1.387 . S
C1148 C1149 1.387 . S
C1148 H1152 0.950 . S
C1148 C1157 1.390 . S
C1149 C1148 1.387 . S
C1149 C1151 1.387 . S
H1150 C1157 0.950 . S
C1151 C1149 1.387 . S
C1151 C1153 1.390 . S
C1151 H1155 0.950 . S
H1152 C1148 0.950 . S
C1153 C1151 1.390 . S
C1153 C1154 1.387 . S
C1153 H1156 0.950 . S
C1154 C1153 1.387 . S
C1154 C1157 1.387 . S
H1155 C1151 0.950 . S
H1156 C1153 0.950 . S
C1157 C1148 1.390 . S
C1157 H1150 0.950 . S
C1157 C1154 1.387 . S
C1158 C1159 1.387 . S
C1158 H1162 0.950 . S
C1158 C1167 1.390 . S
C1159 C1158 1.387 . S
C1159 C1161 1.387 . S
H1160 C1167 0.950 . S
C1161 C1159 1.387 . S
C1161 C1163 1.390 . S
C1161 H1165 0.950 . S
H1162 C1158 0.950 . S
C1163 C1161 1.390 . S
C1163 C1164 1.387 . S
C1163 H1166 0.950 . S
C1164 C1163 1.387 . S
C1164 C1167 1.387 . S
H1165 C1161 0.950 . S
H1166 C1163 0.950 . S
C1167 C1158 1.390 . S
C1167 H1160 0.950 . S
C1167 C1164 1.387 . S
C1168 C1169 1.387 . S
C1168 H1172 0.950 . S
C1168 C1177 1.390 . S
C1169 C1168 1.387 . S
C1169 C1171 1.387 . S
H1170 C1177 0.950 . S
C1171 C1169 1.387 . S
C1171 C1173 1.390 . S
C1171 H1175 0.950 . S
H1172 C1168 0.950 . S
C1173 C1171 1.390 . S
C1173 C1174 1.387 . S
C1173 H1176 0.950 . S
C1174 C1173 1.387 . S
C1174 C1177 1.387 . S
H1175 C1171 0.950 . S
H1176 C1173 0.950 . S
C1177 C1168 1.390 . S
C1177 H1170 0.950 . S
C1177 C1174 1.387 . S
C1178 C1179 1.387 . S
C1178 H1182 0.950 . S
C1178 C1187 1.390 . S
C1179 C1178 1.387 . S
C1179 C1181 1.387 . S
H1180 C1187 0.950 . S
C1181 C1179 1.387 . S
C1181 C1183 1.390 . S
C1181 H1185 0.950 . S
H1182 C1178 0.950 . S
C1183 C1181 1.390 . S
C1183 C1184 1.387 . S
C1183 H1186 0.950 . S
C1184 C1183 1.387 . S
C1184 C1187 1.387 . S
H1185 C1181 0.950 . S
H1186 C1183 0.950 . S
C1187 C1178 1.390 . S
C1187 H1180 0.950 . S
C1187 C1184 1.387 . S
C1188 C1189 1.387 . S
C1188 H1192 0.950 . S
C1188 C1197 1.390 1_566 S
C1189 C1188 1.387 . S
C1189 C1191 1.387 . S
H1190 C1197 0.950 . S
C1191 C1189 1.387 . S
C1191 C1193 1.390 1_566 S
C1191 H1195 0.950 . S
H1192 C1188 0.950 . S
C1193 C1191 1.390 1_544 S
C1193 C1194 1.387 . S
C1193 H1196 0.950 . S
C1194 C1193 1.387 . S
C1194 C1197 1.387 . S
H1195 C1191 0.950 . S
H1196 C1193 0.950 . S
C1197 C1188 1.390 1_544 S
C1197 H1190 0.950 . S
C1197 C1194 1.387 . S
C1198 C1199 1.387 . S
C1198 H1202 0.950 . S
C1198 C1207 1.390 . S
C1199 C1198 1.387 . S
C1199 C1201 1.387 . S
H1200 C1207 0.950 . S
C1201 C1199 1.387 . S
C1201 C1203 1.390 . S
C1201 H1205 0.950 . S
H1202 C1198 0.950 . S
C1203 C1201 1.390 . S
C1203 C1204 1.387 . S
C1203 H1206 0.950 . S
C1204 C1203 1.387 . S
C1204 C1207 1.387 . S
H1205 C1201 0.950 . S
H1206 C1203 0.950 . S
C1207 C1198 1.390 . S
C1207 H1200 0.950 . S
C1207 C1204 1.387 . S
C1208 C1209 1.387 1_554 S
C1208 H1212 0.950 . S
C1208 C1217 1.390 1_455 S
C1209 C1208 1.387 1_556 S
C1209 C1211 1.387 . S
H1210 C1217 0.950 . S
C1211 C1209 1.387 . S
C1211 C1213 1.390 1_455 S
C1211 H1215 0.950 . S
H1212 C1208 0.950 . S
C1213 C1211 1.390 1_655 S
C1213 C1214 1.387 1_556 S
C1213 H1216 0.950 . S
C1214 C1213 1.387 1_554 S
C1214 C1217 1.387 . S
H1215 C1211 0.950 . S
H1216 C1213 0.950 . S
C1217 C1208 1.390 1_655 S
C1217 H1210 0.950 . S
C1217 C1214 1.387 . S
C1218 C1219 1.387 . S
C1218 H1222 0.950 . S
C1218 C1227 1.390 1_545 S
C1219 C1218 1.387 . S
C1219 C1221 1.387 . S
H1220 C1227 0.950 . S
C1221 C1219 1.387 . S
C1221 C1223 1.390 1_545 S
C1221 H1225 0.950 . S
H1222 C1218 0.950 . S
C1223 C1221 1.390 1_565 S
C1223 C1224 1.387 . S
C1223 H1226 0.950 . S
C1224 C1223 1.387 . S
C1224 C1227 1.387 . S
H1225 C1221 0.950 . S
H1226 C1223 0.950 . S
C1227 C1218 1.390 1_565 S
C1227 H1220 0.950 . S
C1227 C1224 1.387 . S
C1228 C1229 1.387 1_556 S
C1228 H1232 0.950 . S
C1228 C1237 1.390 . S
C1229 C1228 1.387 1_554 S
C1229 C1231 1.387 . S
H1230 C1237 0.950 . S
C1231 C1229 1.387 . S
C1231 C1233 1.390 . S
C1231 H1235 0.950 . S
H1232 C1228 0.950 . S
C1233 C1231 1.390 . S
C1233 C1234 1.387 1_554 S
C1233 H1236 0.950 . S
C1234 C1233 1.387 1_556 S
C1234 C1237 1.387 . S
H1235 C1231 0.950 . S
H1236 C1233 0.950 . S
C1237 C1228 1.390 . S
C1237 H1230 0.950 . S
C1237 C1234 1.387 . S
C1238 C1239 1.387 . S
C1238 H1242 0.950 . S
C1238 C1247 1.390 1_455 S
C1239 C1238 1.387 . S
C1239 C1241 1.387 . S
H1240 C1247 0.950 . S
C1241 C1239 1.387 . S
C1241 C1243 1.390 1_455 S
C1241 H1245 0.950 . S
H1242 C1238 0.950 . S
C1243 C1241 1.390 1_655 S
C1243 C1244 1.387 . S
C1243 H1246 0.950 . S
C1244 C1243 1.387 . S
C1244 C1247 1.387 . S
H1245 C1241 0.950 . S
H1246 C1243 0.950 . S
C1247 C1238 1.390 1_655 S
C1247 H1240 0.950 . S
C1247 C1244 1.387 . S
C1248 C1249 1.387 . S
C1248 H1252 0.950 . S
C1248 C1257 1.390 . S
C1249 C1248 1.387 . S
C1249 C1251 1.387 . S
H1250 C1257 0.950 . S
C1251 C1249 1.387 . S
C1251 C1253 1.390 . S
C1251 H1255 0.950 . S
H1252 C1248 0.950 . S
C1253 C1251 1.390 . S
C1253 C1254 1.387 . S
C1253 H1256 0.950 . S
C1254 C1253 1.387 . S
C1254 C1257 1.387 . S
H1255 C1251 0.950 . S
H1256 C1253 0.950 . S
C1257 C1248 1.390 . S
C1257 H1250 0.950 . S
C1257 C1254 1.387 . S
C1258 C1259 1.387 . S
C1258 H1262 0.950 . S
C1258 C1267 1.390 . S
C1259 C1258 1.387 . S
C1259 C1261 1.387 . S
H1260 C1267 0.950 . S
C1261 C1259 1.387 . S
C1261 C1263 1.390 . S
C1261 H1265 0.950 . S
H1262 C1258 0.950 . S
C1263 C1261 1.390 . S
C1263 C1264 1.387 . S
C1263 H1266 0.950 . S
C1264 C1263 1.387 . S
C1264 C1267 1.387 . S
H1265 C1261 0.950 . S
H1266 C1263 0.950 . S
C1267 C1258 1.390 . S
C1267 H1260 0.950 . S
C1267 C1264 1.387 . S
C1268 C1269 1.387 . S
C1268 H1272 0.950 . S
C1268 C1277 1.390 . S
C1269 C1268 1.387 . S
C1269 C1271 1.387 . S
H1270 C1277 0.950 . S
C1271 C1269 1.387 . S
C1271 C1273 1.390 . S
C1271 H1275 0.950 . S
H1272 C1268 0.950 . S
C1273 C1271 1.390 . S
C1273 C1274 1.387 . S
C1273 H1276 0.950 . S
C1274 C1273 1.387 . S
C1274 C1277 1.387 . S
H1275 C1271 0.950 . S
H1276 C1273 0.950 . S
C1277 C1268 1.390 . S
C1277 H1270 0.950 . S
C1277 C1274 1.387 . S
C1278 C1279 1.387 . S
C1278 H1282 0.950 . S
C1278 C1287 1.390 . S
C1279 C1278 1.387 . S
C1279 C1281 1.387 . S
H1280 C1287 0.950 . S
C1281 C1279 1.387 . S
C1281 C1283 1.390 . S
C1281 H1285 0.950 . S
H1282 C1278 0.950 . S
C1283 C1281 1.390 . S
C1283 C1284 1.387 . S
C1283 H1286 0.950 . S
C1284 C1283 1.387 . S
C1284 C1287 1.387 . S
H1285 C1281 0.950 . S
H1286 C1283 0.950 . S
C1287 C1278 1.390 . S
C1287 H1280 0.950 . S
C1287 C1284 1.387 . S
C1288 C1289 1.387 . S
C1288 H1292 0.950 . S
C1288 C1297 1.390 . S
C1289 C1288 1.387 . S
C1289 C1291 1.387 . S
H1290 C1297 0.950 . S
C1291 C1289 1.387 . S
C1291 C1293 1.390 . S
C1291 H1295 0.950 . S
H1292 C1288 0.950 . S
C1293 C1291 1.390 . S
C1293 C1294 1.387 . S
C1293 H1296 0.950 . S
C1294 C1293 1.387 . S
C1294 C1297 1.387 . S
H1295 C1291 0.950 . S
H1296 C1293 0.950 . S
C1297 C1288 1.390 . S
C1297 H1290 0.950 . S
C1297 C1294 1.387 . S
C1298 C1299 1.387 . S
C1298 H1302 0.950 . S
C1298 C1307 1.390 . S
C1299 C1298 1.387 . S
C1299 C1301 1.387 . S
H1300 C1307 0.950 . S
C1301 C1299 1.387 . S
C1301 C1303 1.390 . S
C1301 H1305 0.950 . S
H1302 C1298 0.950 . S
C1303 C1301 1.390 . S
C1303 C1304 1.387 . S
C1303 H1306 0.950 . S
C1304 C1303 1.387 . S
C1304 C1307 1.387 . S
H1305 C1301 0.950 . S
H1306 C1303 0.950 . S
C1307 C1298 1.390 . S
C1307 H1300 0.950 . S
C1307 C1304 1.387 . S
C1308 C1309 1.387 . S
C1308 H1312 0.950 . S
C1308 C1317 1.390 . S
C1309 C1308 1.387 . S
C1309 C1311 1.387 . S
H1310 C1317 0.950 . S
C1311 C1309 1.387 . S
C1311 C1313 1.390 . S
C1311 H1315 0.950 . S
H1312 C1308 0.950 . S
C1313 C1311 1.390 . S
C1313 C1314 1.387 . S
C1313 H1316 0.950 . S
C1314 C1313 1.387 . S
C1314 C1317 1.387 . S
H1315 C1311 0.950 . S
H1316 C1313 0.950 . S
C1317 C1308 1.390 . S
C1317 H1310 0.950 . S
C1317 C1314 1.387 . S
C1318 C1319 1.387 . S
C1318 H1322 0.950 . S
C1318 C1327 1.390 . S
C1319 C1318 1.387 . S
C1319 C1321 1.387 . S
H1320 C1327 0.950 . S
C1321 C1319 1.387 . S
C1321 C1323 1.390 . S
C1321 H1325 0.950 . S
H1322 C1318 0.950 . S
C1323 C1321 1.390 . S
C1323 C1324 1.387 . S
C1323 H1326 0.950 . S
C1324 C1323 1.387 . S
C1324 C1327 1.387 . S
H1325 C1321 0.950 . S
H1326 C1323 0.950 . S
C1327 C1318 1.390 . S
C1327 H1320 0.950 . S
C1327 C1324 1.387 . S
C1328 C1329 1.387 . S
C1328 H1332 0.950 . S
C1328 C1337 1.390 . S
C1329 C1328 1.387 . S
C1329 C1331 1.387 . S
H1330 C1337 0.950 . S
C1331 C1329 1.387 . S
C1331 C1333 1.390 . S
C1331 H1335 0.950 . S
H1332 C1328 0.950 . S
C1333 C1331 1.390 . S
C1333 C1334 1.387 . S
C1333 H1336 0.950 . S
C1334 C1333 1.387 . S
C1334 C1337 1.387 . S
H1335 C1331 0.950 . S
H1336 C1333 0.950 . S
C1337 C1328 1.390 . S
C1337 H1330 0.950 . S
C1337 C1334 1.387 . S
C1338 C1339 1.387 . S
C1338 H1342 0.950 . S
C1338 C1347 1.390 . S
C1339 C1338 1.387 . S
C1339 C1341 1.387 . S
H1340 C1347 0.950 . S
C1341 C1339 1.387 . S
C1341 C1343 1.390 . S
C1341 H1345 0.950 . S
H1342 C1338 0.950 . S
C1343 C1341 1.390 . S
C1343 C1344 1.387 . S
C1343 H1346 0.950 . S
C1344 C1343 1.387 . S
C1344 C1347 1.387 . S
H1345 C1341 0.950 . S
H1346 C1343 0.950 . S
C1347 C1338 1.390 . S
C1347 H1340 0.950 . S
C1347 C1344 1.387 . S
C1348 C1349 1.387 . S
C1348 H1352 0.950 . S
C1348 C1357 1.390 . S
C1349 C1348 1.387 . S
C1349 C1351 1.387 . S
H1350 C1357 0.950 . S
C1351 C1349 1.387 . S
C1351 C1353 1.390 . S
C1351 H1355 0.950 . S
H1352 C1348 0.950 . S
C1353 C1351 1.390 . S
C1353 C1354 1.387 . S
C1353 H1356 0.950 . S
C1354 C1353 1.387 . S
C1354 C1357 1.387 . S
H1355 C1351 0.950 . S
H1356 C1353 0.950 . S
C1357 C1348 1.390 . S
C1357 H1350 0.950 . S
C1357 C1354 1.387 . S
C1358 C1359 1.387 . S
C1358 H1362 0.950 . S
C1358 C1367 1.390 . S
C1359 C1358 1.387 . S
C1359 C1361 1.387 . S
H1360 C1367 0.950 . S
C1361 C1359 1.387 . S
C1361 C1363 1.390 . S
C1361 H1365 0.950 . S
H1362 C1358 0.950 . S
C1363 C1361 1.390 . S
C1363 C1364 1.387 . S
C1363 H1366 0.950 . S
C1364 C1363 1.387 . S
C1364 C1367 1.387 . S
H1365 C1361 0.950 . S
H1366 C1363 0.950 . S
C1367 C1358 1.390 . S
C1367 H1360 0.950 . S
C1367 C1364 1.387 . S
C1009 C226 1.154 . S
C1014 C67 1.319 . S
C1019 C321 1.156 . S
C1024 C140 1.319 . S
C1029 C235 1.319 . S
C1034 C394 1.156 . S
C1039 C308 1.320 . S
C1044 C489 1.158 . S
C1049 C58 1.155 . S
C1054 C403 1.319 . S
C1059 C153 1.156 . S
C1064 C476 1.319 . S
C1069 C909 1.155 . S
C1074 C560 1.319 . S
C1079 C655 1.320 . S
C1084 C982 1.158 . S
C1089 C728 1.320 . S
C1094 C573 1.157 . S
C1099 C823 1.320 . S
C1104 C646 1.156 . S
C1109 C896 1.319 . S
C1114 C741 1.155 . S
C1119 C814 1.156 . S
C1124 C991 1.319 . S
C1129 C315 1.895 . S
C1134 C74 1.896 . S
C1139 C147 1.895 . S
C1144 C410 1.896 . S
C1149 C242 1.894 . S
C1154 C483 1.897 . S
C1159 C567 1.895 . S
C1164 C830 1.896 . S
C1169 C662 1.896 . S
C1174 C903 1.895 . S
C1179 C735 1.894 . S
C1184 C998 1.897 . S
C1189 C651 2.251 . S
C1194 C63 2.251 . S
C1199 C158 2.251 . S
C1204 C746 2.250 . S
C1209 C819 2.251 . S
C1214 C231 2.250 . S
C1219 C326 2.249 . S
C1224 C914 2.249 . S
C1229 C399 2.250 . S
C1234 C987 2.249 . S
C1239 C578 2.250 . S
C1244 C494 2.249 . S
C1249 C237 1.276 . S
C1254 C56 1.435 . S
C1259 C151 1.434 . S
C1264 C310 1.274 . S
C1269 C224 1.433 . S
C1274 C405 1.274 . S
C1279 C319 1.433 . S
C1284 C478 1.272 . S
C1289 C69 1.274 . S
C1294 C392 1.434 . S
C1299 C142 1.274 . S
C1304 C487 1.434 . S
C1309 C898 1.273 . S
C1314 C571 1.433 . S
C1319 C644 1.433 . S
C1324 C993 1.272 . S
C1329 C739 1.434 . S
C1334 C562 1.274 . S
C1339 C657 1.275 . S
C1344 C812 1.434 . S
C1349 C907 1.433 . S
C1354 C730 1.273 . S
C1359 C980 1.433 . S
C1364 C825 1.274 . S
