# Generated by pormake.
# Topology xfw, (5)-cn, num edge types: 1
# Building blocks:
#     Node 0, Type 0, BuildingBlock: XOMCOT_clean_sbu_1, # of connection points: 5
#     Node 1, Type 0, BuildingBlock: XOMCOT_clean_sbu_1, # of connection points: 5
#     Node 2, Type 0, BuildingBlock: XOMCOT_clean_sbu_1, # of connection points: 5
#     Node 3, Type 0, BuildingBlock: XOMCOT_clean_sbu_1, # of connection points: 5
#     Node 4, Type 0, BuildingBlock: XOMCOT_clean_sbu_1, # of connection points: 5
#     Node 5, Type 0, BuildingBlock: XOMCOT_clean_sbu_1, # of connection points: 5
#     Node 6, Type 0, BuildingBlock: XOMCOT_clean_sbu_1, # of connection points: 5
#     Node 7, Type 0, BuildingBlock: XOMCOT_clean_sbu_1, # of connection points: 5
#     Edge 8, Type (0, 0), BuildingBlock: UVAHIK_clean_linker_0, # of connection points: 2
#     Edge 9, Type (0, 0), BuildingBlock: UVAHIK_clean_linker_0, # of connection points: 2
#     Edge 10, Type (0, 0), BuildingBlock: UVAHIK_clean_linker_0, # of connection points: 2
#     Edge 11, Type (0, 0), BuildingBlock: UVAHIK_clean_linker_0, # of connection points: 2
#     Edge 12, Type (0, 0), BuildingBlock: UVAHIK_clean_linker_0, # of connection points: 2
#     Edge 13, Type (0, 0), BuildingBlock: UVAHIK_clean_linker_0, # of connection points: 2
#     Edge 14, Type (0, 0), BuildingBlock: UVAHIK_clean_linker_0, # of connection points: 2
#     Edge 15, Type (0, 0), BuildingBlock: UVAHIK_clean_linker_0, # of connection points: 2
#     Edge 16, Type (0, 0), BuildingBlock: UVAHIK_clean_linker_0, # of connection points: 2
#     Edge 17, Type (0, 0), BuildingBlock: UVAHIK_clean_linker_0, # of connection points: 2
#     Edge 18, Type (0, 0), BuildingBlock: UVAHIK_clean_linker_0, # of connection points: 2
#     Edge 19, Type (0, 0), BuildingBlock: UVAHIK_clean_linker_0, # of connection points: 2
#     Edge 20, Type (0, 0), BuildingBlock: UVAHIK_clean_linker_0, # of connection points: 2
#     Edge 21, Type (0, 0), BuildingBlock: UVAHIK_clean_linker_0, # of connection points: 2
#     Edge 22, Type (0, 0), BuildingBlock: UVAHIK_clean_linker_0, # of connection points: 2
#     Edge 23, Type (0, 0), BuildingBlock: UVAHIK_clean_linker_0, # of connection points: 2
#     Edge 24, Type (0, 0), BuildingBlock: UVAHIK_clean_linker_0, # of connection points: 2
#     Edge 25, Type (0, 0), BuildingBlock: UVAHIK_clean_linker_0, # of connection points: 2
#     Edge 26, Type (0, 0), BuildingBlock: UVAHIK_clean_linker_0, # of connection points: 2
#     Edge 27, Type (0, 0), BuildingBlock: UVAHIK_clean_linker_0, # of connection points: 2
# Relax obj value: 0.589
# Max RMSD: 0.301
# Mean RMSD: 0.301
data_MOF--net-xfw--node1-XOMCOT_clean_sbu_1--edge1-UVAHIK_clean_linker_0
_symmetry_space_group_name_H-M    P1
_symmetry_Int_Tables_number       1
_symmetry_cell_setting            triclinic
loop_
_symmetry_equiv_pos_as_xyz
'x, y, z'
_cell_length_a     33.700361
_cell_length_b     33.759242
_cell_length_c     74.056959
_cell_angle_alpha  90.001456
_cell_angle_beta   89.94517
_cell_angle_gamma 89.939886
loop_
_atom_site_label
_atom_site_type_symbol
_atom_site_fract_x
_atom_site_fract_y
_atom_site_fract_z
_atom_type_partial_charge
C0 C 0.32815 0.10462 0.58003 0.0
C1 C 0.33272 0.07286 0.56868 0.0
N2 N 0.29852 0.05217 0.56856 0.0
N3 N 0.29135 0.10401 0.58709 0.0
C4 C 0.27393 0.07164 0.57997 0.0
H5 H 0.35018 0.12698 0.58296 0.0
Co6 Co 0.27465 0.14246 0.60294 0.0
C7 C 0.1903 0.12868 0.61132 0.0
O8 O 0.18616 0.16724 0.60979 0.0
N9 N 0.25984 0.18224 0.6196 0.0
C10 C 0.24583 0.23756 0.63467 0.0
C11 C 0.25651 0.22203 0.6182 0.0
C12 C 0.25144 0.17464 0.63711 0.0
N13 N 0.2427 0.20763 0.64662 0.0
O14 O 0.30257 0.1149 0.62162 0.0
H15 H 0.26143 0.23934 0.6062 0.0
H16 H 0.25218 0.14515 0.64275 0.0
O17 O 0.22459 0.11299 0.6086 0.0
C18 C 0.3365 0.12967 0.62509 0.0
O19 O 0.3457 0.16398 0.61782 0.0
N20 N 0.25119 0.16925 0.58336 0.0
C21 C 0.22866 0.20599 0.55121 0.0
C22 C 0.20832 0.17262 0.55755 0.0
C23 C 0.22055 0.15419 0.57341 0.0
C24 C 0.27273 0.20027 0.5768 0.0
C25 C 0.26132 0.21988 0.56101 0.0
H26 H 0.20624 0.12684 0.5771 0.0
H27 H 0.29945 0.2094 0.58373 0.0
H28 H 0.24358 0.06316 0.5827 0.0
H29 H 0.35926 0.06564 0.56113 0.0
H30 H 0.24078 0.26859 0.63749 0.0
H31 H 0.18342 0.16042 0.55018 0.0
H32 H 0.27865 0.24475 0.5562 0.0
C33 C 0.09685 0.67715 0.40032 0.0
C34 C 0.07036 0.66239 0.41269 0.0
N35 N 0.04101 0.68913 0.41495 0.0
N36 N 0.08427 0.71289 0.39465 0.0
C37 C 0.05008 0.71934 0.40367 0.0
H38 H 0.12424 0.66321 0.39614 0.0
Co39 Co 0.11292 0.74447 0.37892 0.0
C40 C 0.05496 0.80006 0.3638 0.0
O41 O 0.06302 0.7855 0.34776 0.0
N42 N 0.14262 0.77599 0.3631 0.0
C43 C 0.1697 0.82866 0.34992 0.0
C44 C 0.15049 0.81501 0.36506 0.0
C45 C 0.15781 0.76657 0.34679 0.0
N46 N 0.17413 0.79809 0.33842 0.0
O47 O 0.08999 0.71528 0.35936 0.0
H48 H 0.14136 0.83287 0.37646 0.0
H49 H 0.15502 0.73777 0.34061 0.0
O50 O 0.07073 0.78432 0.37775 0.0
C51 C 0.1077 0.68313 0.35527 0.0
O52 O 0.14291 0.67638 0.36226 0.0
N53 N 0.13596 0.76988 0.39869 0.0
C54 C 0.1723 0.79775 0.4299 0.0
C55 C 0.13219 0.80571 0.42653 0.0
C56 C 0.11453 0.79145 0.41087 0.0
C57 C 0.17511 0.76206 0.40161 0.0
C58 C 0.1941 0.77615 0.41711 0.0
H59 H 0.0833 0.7968 0.40895 0.0
H60 H 0.19141 0.74414 0.39202 0.0
H61 H 0.03329 0.74654 0.40267 0.0
H62 H 0.07322 0.6345 0.41976 0.0
H63 H 0.17865 0.85893 0.34738 0.0
H64 H 0.11448 0.82264 0.436 0.0
H65 H 0.22511 0.76926 0.41931 0.0
C66 C 0.70027 0.89521 0.57537 0.0
C67 C 0.6888 0.92314 0.56293 0.0
N68 N 0.70726 0.95748 0.56688 0.0
N69 N 0.72594 0.9118 0.58704 0.0
C70 C 0.72948 0.94977 0.58165 0.0
H71 H 0.69103 0.86455 0.57578 0.0
Co72 Co 0.74893 0.88504 0.60603 0.0
C73 C 0.80536 0.94154 0.62177 0.0
O74 O 0.78725 0.93718 0.63737 0.0
N75 N 0.77151 0.85714 0.6252 0.0
C76 C 0.81467 0.82794 0.64355 0.0
C77 C 0.81 0.84694 0.62728 0.0
C78 C 0.75337 0.84357 0.6402 0.0
N79 N 0.77896 0.82605 0.65169 0.0
O80 O 0.71574 0.91477 0.62217 0.0
H81 H 0.83337 0.85387 0.61777 0.0
H82 H 0.72203 0.84679 0.64281 0.0
O83 O 0.79171 0.92399 0.60783 0.0
C84 C 0.68103 0.90009 0.62348 0.0
O85 O 0.67389 0.86601 0.61552 0.0
N86 N 0.7785 0.85527 0.58962 0.0
C87 C 0.81182 0.80937 0.56237 0.0
C88 C 0.82007 0.84997 0.56351 0.0
C89 C 0.80302 0.87249 0.57723 0.0
C90 C 0.77049 0.81573 0.58889 0.0
C91 C 0.78731 0.79202 0.57546 0.0
H92 H 0.80811 0.90406 0.57733 0.0
H93 H 0.75003 0.80282 0.59849 0.0
H94 H 0.74801 0.97127 0.58843 0.0
H95 H 0.66943 0.91808 0.55152 0.0
H96 H 0.84246 0.81791 0.64927 0.0
H97 H 0.83897 0.86437 0.55366 0.0
H98 H 0.77994 0.76082 0.57487 0.0
C99 C 0.90279 0.32345 0.41031 0.0
C100 C 0.93408 0.33352 0.42126 0.0
N101 N 0.96507 0.30989 0.41713 0.0
N102 N 0.91395 0.29358 0.39938 0.0
C103 C 0.95205 0.28603 0.40375 0.0
H104 H 0.87353 0.33665 0.41041 0.0
Co105 Co 0.88135 0.27089 0.38231 0.0
C106 C 0.9303 0.20903 0.36544 0.0
O107 O 0.92482 0.22623 0.34972 0.0
N108 N 0.84757 0.2482 0.3649 0.0
C109 C 0.80878 0.20594 0.34995 0.0
C110 C 0.82816 0.21317 0.36596 0.0
C111 C 0.83974 0.26133 0.34804 0.0
N112 N 0.81643 0.23626 0.33876 0.0
O113 O 0.90951 0.3002 0.36426 0.0
H114 H 0.82934 0.19316 0.37735 0.0
H115 H 0.85208 0.28786 0.34217 0.0
O116 O 0.91638 0.22515 0.37969 0.0
C117 C 0.89465 0.33468 0.36238 0.0
O118 O 0.86144 0.34299 0.37091 0.0
N119 N 0.85347 0.24573 0.4008 0.0
C120 C 0.81092 0.21701 0.43023 0.0
C121 C 0.8501 0.20473 0.42712 0.0
C122 C 0.87101 0.21969 0.41242 0.0
C123 C 0.81552 0.25828 0.40363 0.0
C124 C 0.79344 0.24389 0.41818 0.0
H125 H 0.9017 0.21126 0.41078 0.0
H126 H 0.80258 0.27999 0.39463 0.0
H127 H 0.9699 0.26354 0.39723 0.0
H128 H 0.93359 0.35566 0.43183 0.0
H129 H 0.79252 0.17942 0.3464 0.0
H130 H 0.86466 0.1839 0.43606 0.0
H131 H 0.76344 0.2545 0.42027 0.0
C132 C 0.68937 0.09415 0.08185 0.0
C133 C 0.6773 0.06542 0.06995 0.0
N134 N 0.70294 0.03482 0.07098 0.0
N135 N 0.72239 0.08177 0.09037 0.0
C136 C 0.72988 0.04547 0.08358 0.0
H137 H 0.67533 0.12258 0.08401 0.0
Co138 Co 0.74876 0.11195 0.1073 0.0
C139 C 0.80873 0.05746 0.12211 0.0
O140 O 0.79186 0.06039 0.13805 0.0
N141 N 0.77477 0.14319 0.12449 0.0
C142 C 0.81997 0.17907 0.1391 0.0
C143 C 0.81162 0.15892 0.1234 0.0
C144 C 0.76162 0.15384 0.141 0.0
N145 N 0.78845 0.1755 0.15009 0.0
O146 O 0.7201 0.08398 0.12565 0.0
H147 H 0.8316 0.15516 0.11209 0.0
H148 H 0.73325 0.14545 0.14658 0.0
O149 O 0.79311 0.0748 0.10854 0.0
C150 C 0.68546 0.09785 0.12846 0.0
O151 O 0.67595 0.13185 0.12095 0.0
N152 N 0.7736 0.13949 0.08857 0.0
C153 C 0.79971 0.18009 0.05815 0.0
C154 C 0.80952 0.14018 0.06068 0.0
C155 C 0.79612 0.12035 0.07595 0.0
C156 C 0.76396 0.17845 0.08645 0.0
C157 C 0.77728 0.19962 0.07139 0.0
H158 H 0.80247 0.08913 0.07714 0.0
H159 H 0.74508 0.19285 0.09629 0.0
H160 H 0.75543 0.02789 0.08731 0.0
H161 H 0.65184 0.06724 0.0611 0.0
H162 H 0.84758 0.19362 0.14253 0.0
H163 H 0.82694 0.12421 0.05075 0.0
H164 H 0.76896 0.23041 0.06977 0.0
C165 C 0.09634 0.33444 0.90345 0.0
C166 C 0.06536 0.34117 0.91509 0.0
N167 N 0.04256 0.30841 0.91555 0.0
N168 N 0.09313 0.29769 0.89656 0.0
C169 C 0.05996 0.28254 0.90406 0.0
H170 H 0.1201 0.35483 0.90033 0.0
Co171 Co 0.13035 0.27757 0.88084 0.0
C172 C 0.1054 0.19727 0.86963 0.0
O173 O 0.143 0.18709 0.87005 0.0
N174 N 0.16923 0.25933 0.86443 0.0
C175 C 0.22381 0.23945 0.85009 0.0
C176 C 0.20805 0.25025 0.8665 0.0
C177 C 0.16252 0.25421 0.84659 0.0
N178 N 0.19505 0.24198 0.83752 0.0
O179 O 0.10765 0.31004 0.86234 0.0
H180 H 0.22449 0.25122 0.87895 0.0
H181 H 0.13402 0.25968 0.8404 0.0
O182 O 0.09495 0.2326 0.87404 0.0
C183 C 0.12664 0.34167 0.85872 0.0
O184 O 0.16172 0.3469 0.86609 0.0
N185 N 0.15259 0.24902 0.90021 0.0
C186 C 0.18315 0.21934 0.93244 0.0
C187 C 0.14882 0.20313 0.9249 0.0
C188 C 0.13372 0.21866 0.90892 0.0
C189 C 0.185 0.26635 0.90789 0.0
C190 C 0.20158 0.25121 0.92376 0.0
H191 H 0.10571 0.20733 0.90428 0.0
H192 H 0.19769 0.29256 0.90179 0.0
H193 H 0.04956 0.25273 0.90164 0.0
H194 H 0.06029 0.36804 0.92272 0.0
H195 H 0.25414 0.23031 0.84773 0.0
H196 H 0.13332 0.179 0.93148 0.0
H197 H 0.2276 0.26513 0.92953 0.0
C198 C 0.33167 0.89978 0.08034 0.0
C199 C 0.33542 0.93131 0.06878 0.0
N200 N 0.30071 0.95125 0.06851 0.0
N201 N 0.2949 0.89979 0.08742 0.0
C202 C 0.27666 0.93143 0.08002 0.0
H203 H 0.35437 0.87822 0.08352 0.0
Co204 Co 0.27876 0.86249 0.10399 0.0
C205 C 0.19693 0.88261 0.11562 0.0
O206 O 0.18938 0.84446 0.1161 0.0
N207 N 0.26457 0.82396 0.12124 0.0
C208 C 0.253 0.76924 0.1372 0.0
C209 C 0.26164 0.78406 0.12032 0.0
C210 C 0.25811 0.83239 0.13883 0.0
N211 N 0.25071 0.79984 0.14879 0.0
O212 O 0.31033 0.88905 0.12175 0.0
H213 H 0.26594 0.76627 0.1084 0.0
H214 H 0.25936 0.8621 0.14427 0.0
O215 O 0.23136 0.89484 0.11068 0.0
C216 C 0.3431 0.87186 0.12526 0.0
O217 O 0.3499 0.83685 0.11811 0.0
N218 N 0.25129 0.83626 0.08543 0.0
C219 C 0.22371 0.79989 0.05404 0.0
C220 C 0.20401 0.83279 0.06129 0.0
C221 C 0.21863 0.85098 0.07678 0.0
C222 C 0.27162 0.80515 0.07816 0.0
C223 C 0.25782 0.78582 0.06272 0.0
H224 H 0.20466 0.8781 0.08103 0.0
H225 H 0.29942 0.79596 0.08415 0.0
H226 H 0.24619 0.93933 0.0828 0.0
H227 H 0.36193 0.93899 0.06133 0.0
H228 H 0.2487 0.73838 0.14061 0.0
H229 H 0.17796 0.84503 0.05477 0.0
H230 H 0.27457 0.76124 0.05719 0.0
C231 C 0.90703 0.69059 0.90609 0.0
C232 C 0.93744 0.67937 0.91733 0.0
N233 N 0.96888 0.70296 0.91403 0.0
N234 N 0.9192 0.72113 0.8958 0.0
C235 C 0.95705 0.72786 0.9008 0.0
H236 H 0.87757 0.67794 0.90566 0.0
Co237 Co 0.88762 0.74631 0.87898 0.0
C238 C 0.94006 0.80804 0.86429 0.0
O239 O 0.93781 0.79103 0.84837 0.0
N240 N 0.85522 0.77117 0.86202 0.0
C241 C 0.8201 0.81641 0.8472 0.0
C242 C 0.84258 0.80915 0.86231 0.0
C243 C 0.83992 0.75594 0.8467 0.0
N244 N 0.81866 0.78289 0.83737 0.0
O245 O 0.91632 0.71901 0.86046 0.0
H246 H 0.84998 0.83046 0.87268 0.0
H247 H 0.84452 0.7258 0.8423 0.0
O248 O 0.92311 0.79196 0.87785 0.0
C249 C 0.90377 0.68385 0.85798 0.0
O250 O 0.87112 0.67284 0.86631 0.0
N251 N 0.85912 0.76991 0.89772 0.0
C252 C 0.81662 0.79431 0.92787 0.0
C253 C 0.85679 0.804 0.92603 0.0
C254 C 0.87756 0.7916 0.91081 0.0
C255 C 0.81995 0.76033 0.89923 0.0
C256 C 0.79783 0.77288 0.91415 0.0
H257 H 0.90891 0.79794 0.90997 0.0
H258 H 0.8061 0.7421 0.88902 0.0
H259 H 0.97541 0.75082 0.89499 0.0
H260 H 0.93592 0.65669 0.92763 0.0
H261 H 0.80727 0.84459 0.84336 0.0
H262 H 0.87213 0.82056 0.93643 0.0
H263 H 0.76685 0.76471 0.91527 0.0
C264 C 0.25905 0.99179 0.56248 0.0
C265 C 0.28954 0.0181 0.55759 0.0
C266 C 0.24925 0.95994 0.55129 0.0
C267 C 0.2855 0.90024 0.51255 0.0
H268 H 0.17367 0.88966 0.5014 0.0
C269 C 0.22705 0.83226 0.44642 0.0
C270 C 0.19073 0.81201 0.44679 0.0
C271 C 0.24185 0.84986 0.46211 0.0
C272 C 0.20497 0.89153 0.5046 0.0
H273 H 0.33377 0.03117 0.53709 0.0
H274 H 0.31676 0.9759 0.51773 0.0
H275 H 0.19435 0.93427 0.52534 0.0
H276 H 0.14292 0.79147 0.464 0.0
H277 H 0.16894 0.82176 0.49143 0.0
H278 H 0.29611 0.85831 0.49138 0.0
C279 C 0.30088 0.97942 0.53035 0.0
C280 C 0.2168 0.91715 0.51835 0.0
C281 C 0.31058 0.01124 0.54148 0.0
C282 C 0.17063 0.80765 0.4633 0.0
C283 C 0.1855 0.82499 0.47898 0.0
C284 C 0.27365 0.87453 0.4988 0.0
C285 C 0.26981 0.9537 0.53501 0.0
C286 C 0.25723 0.92248 0.52218 0.0
C287 C 0.22068 0.84726 0.47845 0.0
C288 C 0.23329 0.87058 0.49442 0.0
H289 H 0.24269 0.99582 0.57492 0.0
H290 H 0.22539 0.94034 0.5553 0.0
H291 H 0.31686 0.90334 0.51541 0.0
H292 H 0.24302 0.83616 0.43384 0.0
H293 H 0.26884 0.86714 0.46121 0.0
C294 C 0.82438 0.8008 0.52941 0.0
C295 C 0.82738 0.78592 0.54706 0.0
C296 C 0.841 0.78017 0.51496 0.0
C297 C 0.92261 0.71391 0.50505 0.0
H298 H 0.87417 0.70907 0.4576 0.0
C299 C 0.01311 0.66375 0.44367 0.0
C300 C 0.00995 0.68836 0.42839 0.0
C301 C 0.98552 0.66634 0.45768 0.0
C302 C 0.88812 0.71025 0.47076 0.0
H303 H 0.84884 0.73726 0.56344 0.0
H304 H 0.8785 0.70115 0.53805 0.0
H305 H 0.83482 0.73072 0.48351 0.0
H306 H 0.97321 0.73286 0.41541 0.0
H307 H 0.92619 0.73853 0.44011 0.0
H308 H 0.97638 0.69555 0.49231 0.0
C309 C 0.86322 0.72881 0.53547 0.0
C310 C 0.86556 0.7225 0.48558 0.0
C311 C 0.84618 0.74932 0.54994 0.0
C312 C 0.97722 0.71407 0.42709 0.0
C313 C 0.9498 0.71688 0.44118 0.0
C314 C 0.94523 0.70193 0.49023 0.0
C315 C 0.8612 0.74434 0.51787 0.0
C316 C 0.8829 0.72542 0.50277 0.0
C317 C 0.95422 0.69376 0.45685 0.0
C318 C 0.92854 0.70094 0.47283 0.0
H319 H 0.80954 0.82871 0.52681 0.0
H320 H 0.83935 0.7931 0.50159 0.0
H321 H 0.93689 0.71634 0.5181 0.0
H322 H 0.03775 0.64354 0.44527 0.0
H323 H 0.98938 0.64758 0.46941 0.0
C324 C 0.7386 0.01971 0.55663 0.0
C325 C 0.70627 0.99345 0.55641 0.0
C326 C 0.7396 0.05219 0.54498 0.0
C327 C 0.70367 0.08051 0.50061 0.0
H328 H 0.75327 0.18088 0.51227 0.0
C329 C 0.74955 0.18906 0.44462 0.0
C330 C 0.78899 0.20207 0.44617 0.0
C331 C 0.73048 0.17132 0.45932 0.0
C332 C 0.73926 0.15303 0.50881 0.0
H333 H 0.64832 0.98249 0.5447 0.0
H334 H 0.65038 0.03896 0.52418 0.0
H335 H 0.73573 0.13502 0.5365 0.0
H336 H 0.83839 0.20934 0.46461 0.0
H337 H 0.80568 0.17767 0.49002 0.0
H338 H 0.709 0.09739 0.47292 0.0
C339 C 0.67513 0.03402 0.53322 0.0
C340 C 0.72921 0.12685 0.52268 0.0
C341 C 0.67406 1.0016 0.54492 0.0
C342 C 0.80822 0.19892 0.46293 0.0
C343 C 0.78922 0.18129 0.47758 0.0
C344 C 0.71385 0.1066 0.48675 0.0
C345 C 0.70833 0.05911 0.53284 0.0
C346 C 0.71249 0.08979 0.51866 0.0
C347 C 0.75046 0.16646 0.47584 0.0
C348 C 0.73297 0.14257 0.49066 0.0
H349 H 0.76408 0.01421 0.56514 0.0
H350 H 0.76586 0.07066 0.54484 0.0
H351 H 0.6912 0.052 0.49706 0.0
H352 H 0.734 0.19113 0.43186 0.0
H353 H 0.70046 0.16053 0.45763 0.0
C354 C 0.20627 0.20197 0.51912 0.0
C355 C 0.21611 0.22523 0.53418 0.0
C356 C 0.18986 0.21931 0.50377 0.0
C357 C 0.12781 0.30332 0.49178 0.0
H358 H 0.14185 0.26193 0.44334 0.0
C359 C 0.01742 0.34159 0.43547 0.0
C360 C 1.00272 0.30823 0.4263 0.0
C361 C 0.05167 0.33881 0.446 0.0
C362 C 0.1377 0.2739 0.45678 0.0
H363 H 0.21874 0.28511 0.54464 0.0
H364 H 0.18999 0.31566 0.51765 0.0
H365 H 0.18919 0.24418 0.46696 0.0
H366 H 0.01351 0.24619 0.42043 0.0
H367 H 0.07299 0.24129 0.43878 0.0
H368 H 0.0754 0.33154 0.4819 0.0
C369 C 0.19469 0.28391 0.51783 0.0
C370 C 0.16479 0.26378 0.47028 0.0
C371 C 0.21133 0.26651 0.53321 0.0
C372 C 0.02416 0.27256 0.42715 0.0
C373 C 0.05839 0.26978 0.43767 0.0
C374 C 0.10076 0.31345 0.47829 0.0
C375 C 0.18287 0.26033 0.50313 0.0
C376 C 0.15931 0.27725 0.48808 0.0
C377 C 0.07199 0.30262 0.44756 0.0
C378 C 0.10463 0.29773 0.4608 0.0
H379 H 0.21024 0.17013 0.51941 0.0
H380 H 0.18075 0.20022 0.49278 0.0
H381 H 0.12245 0.31385 0.50539 0.0
H382 H 1.00205 0.36971 0.43478 0.0
H383 H 0.06177 0.36477 0.45325 0.0
C384 C 0.81035 0.79484 0.96132 0.0
C385 C 0.7952 0.80577 0.94441 0.0
C386 C 0.79322 0.80949 0.97711 0.0
C387 C 0.70742 0.86726 -0.00474 0.0
H388 H 0.78675 0.90511 0.029 0.0
C389 C 0.6862 1.00078 0.04243 0.0
C390 C 0.70407 1.00021 0.05959 0.0
C391 C 0.69097 0.96902 0.03058 0.0
C392 C 0.76407 0.89403 0.01996 0.0
H393 H 0.74943 0.83878 0.93053 0.0
H394 H 0.72018 0.86587 0.95811 0.0
H395 H 0.80684 0.86368 0.0039 0.0
H396 H 0.73842 0.96431 0.07819 0.0
H397 H 0.74733 0.90911 0.05733 0.0
H398 H 0.66503 0.89982 0.01099 0.0
C399 C 0.74465 0.84523 0.9593 0.0
C400 C 0.77557 0.87015 0.00553 0.0
C401 C 0.76146 0.82998 0.94349 0.0
C402 C 0.72507 0.96618 0.06494 0.0
C403 C 0.73 0.93446 0.05304 0.0
C404 C 0.69595 0.89149 0.00966 0.0
C405 C 0.76107 0.83602 0.97627 0.0
C406 C 0.74755 0.85711 0.99278 0.0
C407 C 0.71381 0.93602 0.03558 0.0
C408 C 0.72435 0.90576 0.02193 0.0
H409 H 0.83608 0.77568 0.96229 0.0
H410 H 0.80599 0.80099 0.98995 0.0
H411 H 0.685 0.8572 0.98586 0.0
H412 H 0.67012 0.02652 0.03773 0.0
H413 H 0.67858 0.97131 0.01712 0.0
C414 C 0.80589 0.18222 0.02465 0.0
C415 C 0.8123 0.20039 0.04144 0.0
C416 C 0.82202 0.1984 0.00897 0.0
C417 C 0.87275 0.28678 0.98992 0.0
H418 H 0.92626 0.20804 0.9605 0.0
C419 C 0.00501 0.32198 0.94354 0.0
C420 C 0.009 0.30125 0.92716 0.0
C421 C 0.97422 0.31314 0.95546 0.0
C422 C 0.91086 0.23041 0.96831 0.0
H423 H 0.83861 0.25067 0.05502 0.0
H424 H 0.8678 0.27871 0.02761 0.0
H425 H 0.88397 0.18684 0.98519 0.0
H426 H 0.98241 0.25638 0.91008 0.0
H427 H 0.92867 0.24071 0.931 0.0
H428 H 0.90107 0.33036 0.9733 0.0
C429 C 0.84979 0.25228 0.02649 0.0
C430 C 0.88655 0.21826 0.9825 0.0
C431 C 0.83326 0.23622 0.04219 0.0
C432 C 0.98063 0.27237 0.92272 0.0
C433 C 0.94979 0.26349 0.93467 0.0
C434 C 0.8972 0.29896 0.97571 0.0
C435 C 0.84528 0.23287 0.00979 0.0
C436 C 0.86771 0.24627 -0.00634 0.0
C437 C 0.94668 0.28333 0.95131 0.0
C438 C 0.91705 0.27086 0.96497 0.0
H439 H 0.78917 0.1549 0.02372 0.0
H440 H 0.81721 0.18326 -0.00373 0.0
H441 H 0.85822 0.30905 -0.00188 0.0
H442 H 0.02656 0.344 0.94755 0.0
H443 H 0.97305 0.3285 0.96829 0.0
C444 C 0.17316 0.19957 0.96453 0.0
C445 C 0.19854 0.20337 0.9496 0.0
C446 C 0.18592 0.18006 0.98007 0.0
C447 C 0.27475 0.13648 0.00271 0.0
H448 H 0.19672 0.06376 0.02228 0.0
C449 C 0.31426 0.99544 0.04255 0.0
C450 C 0.2911 0.98557 0.05772 0.0
C451 C 0.30425 0.02769 0.0317 0.0
C452 C 0.21867 0.08436 0.01719 0.0
H453 H 0.25746 0.19152 0.93932 0.0
H454 H 0.27958 0.15608 0.96626 0.0
H455 H 0.1772 0.11061 -0.00096 0.0
H456 H 0.23983 1.0033 0.07362 0.0
H457 H 0.22188 0.05894 0.05433 0.0
H458 H 0.3166 0.10849 0.02038 0.0
C459 C 0.25012 0.1689 0.96621 0.0
C460 C 0.20749 0.11137 0.00388 0.0
C461 C 0.23749 0.189 0.95074 0.0
C462 C 0.258 0.00936 0.0619 0.0
C463 C 0.24779 0.04144 0.05092 0.0
C464 C 0.28601 0.10912 0.01592 0.0
C465 C 0.22411 0.16332 0.98089 0.0
C466 C 0.2355 0.13741 -0.00373 0.0
C467 C 0.27065 0.05069 0.03563 0.0
C468 C 0.25817 0.08243 0.02308 0.0
H469 H 0.14312 0.21097 0.964 0.0
H470 H 0.16545 0.17724 0.99128 0.0
H471 H 0.29692 0.15652 -0.00262 0.0
H472 H 0.33958 0.97771 0.03866 0.0
H473 H 0.32205 0.03376 0.01982 0.0
C474 C 0.02651 0.73991 0.92583 0.0
C475 C 0.00545 0.70422 0.92407 0.0
C476 C 0.05937 0.7423 0.93722 0.0
C477 C 0.09755 0.6968 0.97834 0.0
H478 H 0.18631 0.7673 0.96967 0.0
C479 C 0.20512 0.7407 0.03539 0.0
C480 C 0.20963 0.78191 0.037 0.0
C481 C 0.18857 0.72437 0.01976 0.0
C482 C 0.1618 0.74735 0.97225 0.0
H483 H 1.00411 0.64237 0.93194 0.0
H484 H 0.06149 0.64661 0.95194 0.0
H485 H 0.14176 0.75037 0.94487 0.0
H486 H 0.20283 0.83812 0.0232 0.0
H487 H 0.17368 0.80983 -0.00393 0.0
H488 H 0.11656 0.69508 0.00587 0.0
C489 C 0.05212 0.67287 0.94469 0.0
C490 C 0.1363 0.7377 0.95808 0.0
C491 C 0.01922 0.67048 0.93328 0.0
C492 C 0.19912 0.80629 0.02241 0.0
C493 C 0.18292 0.79002 0.00678 0.0
C494 C 0.12309 0.7064 0.99251 0.0
C495 C 0.07199 0.70905 0.9471 0.0
C496 C 0.1031 0.71344 0.96112 0.0
C497 C 0.17674 0.74898 0.00541 0.0
C498 C 0.15464 0.73289 0.98975 0.0
H499 H 0.01652 0.76659 0.91913 0.0
H500 H 0.0736 0.77079 0.93897 0.0
H501 H 0.07205 0.67833 0.98119 0.0
H502 H 0.21305 0.72128 0.04646 0.0
H503 H 0.18433 0.69261 0.01901 0.0
C504 C 0.61243 0.90195 0.63595 0.0
C505 C 0.64773 0.9221 0.63179 0.0
C506 C 0.57827 0.92282 0.64078 0.0
C507 C 0.53821 0.02139 0.65384 0.0
H508 H 0.44666 0.98626 0.62652 0.0
C509 C 0.40582 0.12244 0.63649 0.0
C510 C 0.36814 0.1057 0.63369 0.0
C511 C 0.43822 0.09865 0.64104 0.0
C512 C 0.4715 0.99608 0.63463 0.0
H513 H 0.67564 0.97981 0.63051 0.0
H514 H 0.6156 0.01654 0.63875 0.0
H515 H 0.5073 0.94765 0.62573 0.0
H516 H 0.33426 0.05123 0.63496 0.0
H517 H 0.39073 0.00968 0.64331 0.0
H518 H 0.50242 0.07049 0.66235 0.0
C519 C 0.61448 0.98449 0.63844 0.0
C520 C 0.50647 0.97391 0.63413 0.0
C521 C 0.64888 0.96349 0.63369 0.0
C522 C 0.36294 0.06503 0.63691 0.0
C523 C 0.39541 0.04117 0.64154 0.0
C524 C 0.50306 0.04357 0.6544 0.0
C525 C 0.57844 0.9644 0.64143 0.0
C526 C 0.54047 0.98656 0.64348 0.0
C527 C 0.43375 0.05748 0.64299 0.0
C528 C 0.46945 0.03156 0.64452 0.0
H529 H 0.61073 0.87 0.63485 0.0
H530 H 0.55129 0.90637 0.64341 0.0
H531 H 0.56373 0.03171 0.66136 0.0
H532 H 0.41086 0.15374 0.63422 0.0
H533 H 0.4672 0.11233 0.64191 0.0
C534 C 0.10482 0.6134 0.34413 0.0
C535 C 0.08621 0.6504 0.34627 0.0
C536 C 0.08281 0.57996 0.33939 0.0
C537 C 0.98094 0.54376 0.34453 0.0
H538 H 0.02271 0.45028 0.32067 0.0
C539 C 0.89357 0.39966 0.34662 0.0
C540 C 0.91524 0.36646 0.35239 0.0
C541 C 0.91303 0.43351 0.34047 0.0
C542 C 0.01066 0.47617 0.32736 0.0
H543 H 0.03057 0.68206 0.34339 0.0
H544 H 0.99226 0.62383 0.33464 0.0
H545 H 0.05902 0.51289 0.31881 0.0
H546 H 0.97416 0.34149 0.35508 0.0
H547 H 0.00847 0.40114 0.3446 0.0
H548 H 0.93333 0.50715 0.35354 0.0
C549 C 0.02373 0.62044 0.33716 0.0
C550 C 0.03142 0.51205 0.3263 0.0
C551 C 0.04574 0.65391 0.34203 0.0
C552 C 0.95674 0.36666 0.35066 0.0
C553 C 0.97634 0.40082 0.34463 0.0
C554 C 0.9602 0.5081 0.34551 0.0
C555 C 0.04168 0.58275 0.33654 0.0
C556 C 0.0172 0.54611 0.3352 0.0
C557 C 0.95467 0.43514 0.34014 0.0
C558 C 0.9751 0.47368 0.33722 0.0
H559 H 0.13602 0.60965 0.34718 0.0
H560 H 0.09771 0.55153 0.33916 0.0
H561 H 0.96942 0.56896 0.35192 0.0
H562 H 0.86148 0.40013 0.34757 0.0
H563 H 0.89543 0.45907 0.33669 0.0
C564 C 0.6601 0.03358 0.14109 0.0
C565 C 0.65418 0.07392 0.13727 0.0
C566 C 0.62803 0.00961 0.14612 0.0
C567 C 0.5203 0.01177 0.15898 0.0
H568 H 0.51686 0.91459 0.13119 0.0
C569 C 0.37556 0.93427 0.13627 0.0
C570 C 0.37582 0.89283 0.13451 0.0
C571 C 0.40983 0.95435 0.14178 0.0
C572 C 0.51749 0.94119 0.13936 0.0
H573 H 0.61068 0.12136 0.13715 0.0
H574 H 0.55509 0.07977 0.14554 0.0
H575 H 0.57757 0.95299 0.13201 0.0
H576 H 0.41096 0.83974 0.13865 0.0
H577 H 0.47032 0.87464 0.14846 0.0
H578 H 0.45932 1.0006 0.16557 0.0
C579 C 0.58429 0.06643 0.14484 0.0
C580 C 0.55248 0.96324 0.13988 0.0
C581 C 0.61625 0.09032 0.13987 0.0
C582 C 0.40997 0.87174 0.13964 0.0
C583 C 0.44407 0.89174 0.14519 0.0
C584 C 0.48513 0.98975 0.15838 0.0
C585 C 0.58945 0.0255 0.14742 0.0
C586 C 0.55414 0.99929 0.14935 0.0
C587 C 0.4449 0.93333 0.14568 0.0
C588 C 0.48313 0.95459 0.14826 0.0
H589 H 0.68901 0.0201 0.1393 0.0
H590 H 0.63322 0.97833 0.14835 0.0
H591 H 0.52068 0.03909 0.16664 0.0
H592 H 0.34971 0.95134 0.13238 0.0
H593 H 0.40952 0.98643 0.14193 0.0
C594 C 0.06586 0.37586 0.84685 0.0
C595 C 0.10718 0.3752 0.84935 0.0
C596 C 0.04682 0.41069 0.84131 0.0
C597 C 0.06142 0.51778 0.84501 0.0
H598 H 0.9646 0.52336 0.81693 0.0
C599 C 0.96841 0.66017 0.84489 0.0
C600 C 0.92806 0.65364 0.8486 0.0
C601 C 0.99277 0.62875 0.83937 0.0
C602 C 0.99165 0.52232 0.8248 0.0
H603 H 0.16127 0.40941 0.84649 0.0
H604 H 0.12817 0.46981 0.83662 0.0
H605 H 1.00292 0.46186 0.8175 0.0
H606 H 0.88094 0.60993 0.84799 0.0
H607 H 0.92315 0.55545 0.83869 0.0
H608 H 0.04943 0.57733 0.85306 0.0
C609 C 0.11034 0.44379 0.83933 0.0
C610 C 0.01358 0.48708 0.82512 0.0
C611 C 0.12932 0.40909 0.84491 0.0
C612 C 0.912 0.61591 0.84537 0.0
C613 C 0.93624 0.58462 0.83988 0.0
C614 C 0.03948 0.55288 0.84476 0.0
C615 C 0.06877 0.44546 0.83812 0.0
C616 C 0.04822 0.48411 0.83559 0.0
C617 C 0.9772 0.59026 0.83743 0.0
C618 C 1.00375 0.55531 0.83504 0.0
H619 H 0.04795 0.35026 0.85019 0.0
H620 H 0.01472 0.41098 0.84063 0.0
H621 H 0.08763 0.51643 0.85345 0.0
H622 H 0.98164 0.68896 0.84719 0.0
H623 H 0.0241 0.63427 0.8373 0.0
C624 C 0.1188 0.1243 0.61955 0.0
C625 C 0.15388 0.10474 0.61437 0.0
C626 C 0.08309 0.10386 0.62117 0.0
C627 C 0.03066 0.01336 0.60639 0.0
H628 H 0.95575 0.04728 0.64304 0.0
C629 C 0.8644 0.9676 0.60453 0.0
C630 C 0.84499 0.96086 0.62108 0.0
C631 C 0.903 0.98312 0.60411 0.0
C632 C 0.97629 0.03691 0.63283 0.0
H633 H 0.17884 0.04776 0.60711 0.0
H634 H 0.11594 0.01144 0.61025 0.0
H635 H 0.02209 0.07482 0.64269 0.0
H636 H 0.8513 0.965 0.65016 0.0
H637 H 0.91836 0.99107 0.64947 0.0
H638 H 0.98487 0.97463 0.59683 0.0
C639 C 0.11629 0.043 0.61284 0.0
C640 C 0.0144 0.05318 0.63248 0.0
C641 C 0.15241 0.06368 0.61121 0.0
C642 C 0.86504 0.97025 0.63715 0.0
C643 C 0.90367 0.98536 0.63674 0.0
C644 C 0.99247 0.99677 0.60681 0.0
C645 C 0.08109 0.06297 0.61779 0.0
C646 C 0.04196 0.04223 0.61908 0.0
C647 C 0.92333 0.99203 0.62023 0.0
C648 C 0.96454 0.00866 0.61993 0.0
H649 H 0.11862 0.15589 0.62213 0.0
H650 H 0.05671 0.12056 0.62464 0.0
H651 H 0.05092 0.00434 0.59579 0.0
H652 H 0.84984 0.96072 0.59189 0.0
H653 H 0.91674 0.98843 0.59112 0.0
C654 C 0.02443 0.86011 0.3495 0.0
C655 C 0.03511 0.83933 0.36522 0.0
C656 C 0.01099 0.89927 0.35045 0.0
C657 C 0.01458 0.98767 0.38016 0.0
H658 H 0.93655 0.02827 0.34646 0.0
C659 C 0.95212 0.14868 0.38284 0.0
C660 C 0.94645 0.16805 0.36621 0.0
C661 C 0.96311 0.10863 0.38341 0.0
C662 C 0.95868 0.0175 0.35586 0.0
H663 H 0.03807 0.84317 0.39442 0.0
H664 H 0.01393 0.91125 0.39612 0.0
H665 H 0.95227 0.95785 0.34657 0.0
H666 H 0.94929 0.16056 0.33713 0.0
H667 H 0.96863 0.09107 0.33816 0.0
H668 H 0.02073 0.04753 0.38947 0.0
C669 C 0.01682 0.89749 0.38298 0.0
C670 C 0.96771 0.97704 0.35594 0.0
C671 C 0.03037 0.85825 0.38202 0.0
C672 C 0.9533 0.1467 0.35019 0.0
C673 C 0.96404 0.10667 0.35077 0.0
C674 C 0.00536 0.02818 0.38015 0.0
C675 C 0.00764 0.9188 0.36718 0.0
C676 C 0.99612 0.96156 0.36794 0.0
C677 C 0.96846 0.08693 0.36737 0.0
C678 C 0.97763 0.04368 0.36785 0.0
H679 H 0.0278 0.84667 0.33631 0.0
H680 H 0.00469 0.91469 0.33796 0.0
H681 H 0.03702 0.97705 0.38943 0.0
H682 H 0.94723 0.16418 0.39544 0.0
H683 H 0.96615 0.09434 0.39643 0.0
C684 C 0.13406 0.90016 0.13121 0.0
C685 C 0.16324 0.91004 0.11843 0.0
C686 C 0.09839 0.92117 0.13205 0.0
C687 C 0.02976 0.97506 0.10324 0.0
H688 H 0.97927 0.00434 0.14836 0.0
C689 C 0.87365 0.04854 0.10581 0.0
C690 C 0.84887 0.03951 0.12054 0.0
C691 C 0.91301 0.03512 0.10532 0.0
C692 C 0.99258 0.99585 0.13562 0.0
H693 H 0.17844 0.95032 0.09676 0.0
H694 H 0.11538 0.98697 0.09801 0.0
H695 H 0.04712 0.97937 0.14849 0.0
H696 H 0.84571 0.00799 0.14598 0.0
H697 H 0.91355 0.9833 0.14484 0.0
H698 H 0.97487 0.98996 0.09038 0.0
C699 C 0.12044 0.96306 0.10749 0.0
C700 C 0.03169 0.98186 0.13572 0.0
C701 C 0.15666 0.94242 0.10689 0.0
C702 C 0.86402 0.01569 0.13448 0.0
C703 C 0.90319 1.00188 0.1339 0.0
C704 C 0.99041 0.98862 0.10315 0.0
C705 C 0.09066 0.95217 0.11989 0.0
C706 C 0.05062 0.97091 0.11956 0.0
C707 C 0.92856 0.01196 0.11947 0.0
C708 C 0.97104 0.99877 0.11938 0.0
H709 H 0.13832 0.87519 0.1402 0.0
H710 H 0.07601 0.91183 0.14165 0.0
H711 H 0.04334 0.96634 0.09058 0.0
H712 H 0.86314 0.06721 0.09492 0.0
H713 H 0.93153 0.04397 0.09408 0.0
C714 C 0.94713 0.87288 0.88074 0.0
C715 C 0.95625 0.84884 0.86577 0.0
C716 C 0.95865 0.91276 0.88114 0.0
C717 C 0.99106 0.99443 0.85046 0.0
H718 H 0.02411 0.04521 0.89492 0.0
C719 C 0.08433 0.13702 0.85319 0.0
C720 C 0.07631 0.1653 0.8666 0.0
C721 C 0.06309 0.10157 0.8525 0.0
C722 C 0.01429 0.03164 0.88244 0.0
H723 H 0.98603 0.8476 0.83983 0.0
H724 H 0.0073 0.91643 0.84079 0.0
H725 H 1.00289 0.97611 0.89541 0.0
H726 H 0.03903 0.17937 0.88953 0.0
H727 H 1.00189 0.1167 0.88852 0.0
H728 H 1.00402 0.04962 0.83743 0.0
C729 C 0.99012 0.90501 0.852 0.0
C730 C 1.00216 0.99193 0.8827 0.0
C731 C 0.97829 0.8653 0.85152 0.0
C732 C 0.04532 0.1583 0.87888 0.0
C733 C 0.02447 0.12228 0.87842 0.0
C734 C 1.00355 0.03394 0.85019 0.0
C735 C 0.97987 0.92958 0.86666 0.0
C736 C 0.99096 0.97253 0.86665 0.0
C737 C 0.0338 0.09316 0.86546 0.0
C738 C 0.01584 0.05287 0.86613 0.0
H739 H 0.92986 0.86132 0.89189 0.0
H740 H 0.94983 0.93066 0.8926 0.0
H741 H 0.98165 0.98102 0.8379 0.0
H742 H 0.10838 0.14158 0.84369 0.0
H743 H 0.07127 0.07972 0.84245 0.0
C744 C 0.2238 0.17596 0.67559 0.0
C745 C 0.23379 0.21016 0.66567 0.0
C746 C 0.21756 0.17797 0.69419 0.0
C747 C 0.18984 0.24417 0.73085 0.0
H748 H 0.25036 0.17293 0.76142 0.0
C749 C 0.16417 0.23002 0.80765 0.0
C750 C 0.19837 0.23473 0.81836 0.0
C751 C 0.16725 0.2253 0.78898 0.0
C752 C 0.23329 0.19291 0.75301 0.0
H753 H 0.24386 0.2736 0.66785 0.0
H754 H 0.23173 0.27702 0.70018 0.0
H755 H 0.25692 0.16857 0.72854 0.0
H756 H 0.26282 0.23709 0.81754 0.0
H757 H 0.26797 0.22762 0.78506 0.0
H758 H 0.16611 0.26844 0.75532 0.0
C759 C 0.22911 0.24868 0.69342 0.0
C760 C 0.23683 0.19027 0.73427 0.0
C761 C 0.23597 0.24664 0.67484 0.0
C762 C 0.23578 0.23324 0.8099 0.0
C763 C 0.23883 0.22792 0.79125 0.0
C764 C 0.1858 0.24638 0.74959 0.0
C765 C 0.22042 0.21428 0.70327 0.0
C766 C 0.2154 0.21611 0.72305 0.0
C767 C 0.20458 0.22445 0.78063 0.0
C768 C 0.20775 0.221 0.76081 0.0
H769 H 0.22079 0.14746 0.6691 0.0
H770 H 0.21034 0.15112 0.7015 0.0
H771 H 0.1729 0.26427 0.72244 0.0
H772 H 0.13485 0.22995 0.81357 0.0
H773 H 0.14042 0.22213 0.78106 0.0
C774 C 0.25265 0.76483 0.17811 0.0
C775 C 0.24299 0.79856 0.1679 0.0
C776 C 0.24641 0.76436 0.19677 0.0
C777 C 0.18972 0.81467 0.23284 0.0
H778 H 0.26956 0.76936 0.26441 0.0
C779 C 0.18239 0.83416 0.30969 0.0
C780 C 0.18761 0.79962 0.32 0.0
C781 C 0.19153 0.83435 0.29132 0.0
C782 C 0.24692 0.78187 0.25573 0.0
H783 H 0.21808 0.85779 0.16921 0.0
H784 H 0.2082 0.85738 0.20169 0.0
H785 H 0.27962 0.76816 0.23174 0.0
H786 H 0.20843 0.73887 0.31937 0.0
H787 H 0.22419 0.7391 0.28718 0.0
H788 H 0.15714 0.82859 0.2568 0.0
C789 C 0.2203 0.83114 0.19531 0.0
C790 C 0.25259 0.78107 0.23704 0.0
C791 C 0.22645 0.83156 0.1767 0.0
C792 C 0.20367 0.76576 0.31171 0.0
C793 C 0.213 0.76599 0.29333 0.0
C794 C 0.18416 0.81563 0.25149 0.0
C795 C 0.23031 0.7976 0.20558 0.0
C796 C 0.22407 0.79756 0.2254 0.0
C797 C 0.20626 0.80006 0.28289 0.0
C798 C 0.21274 0.79935 0.26312 0.0
H799 H 0.26569 0.73905 0.17176 0.0
H800 H 0.25399 0.73789 0.20428 0.0
H801 H 0.16685 0.82698 0.22423 0.0
H802 H 0.16978 0.86062 0.31563 0.0
H803 H 0.18653 0.86119 0.28363 0.0
C804 C 0.76945 0.8012 0.81418 0.0
C805 C 0.8022 0.77838 0.81959 0.0
C806 C 0.75616 0.79993 0.79634 0.0
C807 C 0.75861 0.81658 0.75635 0.0
H808 H 0.76625 0.72394 0.72555 0.0
C809 C 0.73972 0.82983 0.67983 0.0
C810 C 0.77081 0.81279 0.66979 0.0
C811 C 0.73447 0.82019 0.69798 0.0
C812 C 0.76389 0.75001 0.73401 0.0
H813 H 0.84588 0.73536 0.81072 0.0
H814 H 0.82327 0.7336 0.77962 0.0
H815 H 0.77228 0.71653 0.75827 0.0
H816 H 0.81911 0.7704 0.67066 0.0
H817 H 0.81046 0.75412 0.7025 0.0
H818 H 0.7514 0.85022 0.73216 0.0
C819 C 0.8072 0.75187 0.78917 0.0
C820 C 0.76738 0.74581 0.75271 0.0
C821 C 0.82028 0.75295 0.80702 0.0
C822 C 0.79529 0.78444 0.6781 0.0
C823 C 0.78999 0.77475 0.69627 0.0
C824 C 0.75493 0.82073 0.7377 0.0
C825 C 0.77558 0.77604 0.78352 0.0
C826 C 0.76582 0.77922 0.76404 0.0
C827 C 0.76016 0.7933 0.7065 0.0
C828 C 0.75852 0.78765 0.72631 0.0
H829 H 0.75455 0.82053 0.82368 0.0
H830 H 0.73126 0.81839 0.79248 0.0
H831 H 0.75792 0.84304 0.76461 0.0
H832 H 0.72047 0.85197 0.67393 0.0
H833 H 0.71099 0.83467 0.70551 0.0
C834 C 0.83973 0.24403 0.30765 0.0
C835 C 0.80853 0.23769 0.3198 0.0
C836 C 0.83289 0.24321 0.28911 0.0
C837 C 0.75904 0.20781 0.25548 0.0
H838 H 0.83037 0.26251 0.2229 0.0
C839 C 0.77386 0.15997 0.1817 0.0
C840 C 0.78584 0.18737 0.1686 0.0
C841 C 0.77241 0.17075 0.19984 0.0
C842 C 0.80951 0.24758 0.23168 0.0
H843 H 0.7457 0.22688 0.3225 0.0
H844 H 0.73276 0.22782 0.29 0.0
H845 H 0.83378 0.27582 0.25491 0.0
H846 H 0.80455 0.24758 0.16376 0.0
H847 H 0.79983 0.26764 0.19543 0.0
H848 H 0.73312 0.18141 0.23217 0.0
C849 C 0.76293 0.23186 0.29463 0.0
C850 C 0.81205 0.25463 0.2502 0.0
C851 C 0.7701 0.23158 0.31322 0.0
C852 C 0.79555 0.22604 0.17379 0.0
C853 C 0.79304 0.23728 0.19193 0.0
C854 C 0.75571 0.20165 0.23692 0.0
C855 C 0.79439 0.23704 0.28228 0.0
C856 C 0.78783 0.23378 0.26243 0.0
C857 C 0.78187 0.20961 0.20526 0.0
C858 C 0.78184 0.22034 0.22478 0.0
H859 H 0.86972 0.24822 0.31254 0.0
H860 H 0.85818 0.24619 0.2802 0.0
H861 H 0.7399 0.19092 0.26434 0.0
H862 H 0.76676 0.12982 0.17791 0.0
H863 H 0.76482 0.14815 0.20961 0.0
loop_
_geom_bond_atom_site_label_1
_geom_bond_atom_site_label_2
_geom_bond_distance
_geom_bond_site_symmetry_2
_ccdc_geom_bond_type
C0 C1 1.351 . S
C0 N3 1.368 . S
C0 H5 0.931 . S
C1 C0 1.351 . S
C1 N2 1.373 . S
C1 H29 0.930 . S
N2 C1 1.373 . S
N2 C4 1.340 . S
N3 C0 1.368 . S
N3 C4 1.321 . S
N3 Co6 2.135 . S
C4 N2 1.340 . S
C4 N3 1.321 . S
C4 H28 0.930 . S
H5 C0 0.931 . S
Co6 N3 2.135 . S
Co6 N9 2.121 . S
Co6 O14 2.055 . S
Co6 O17 2.039 . S
Co6 N20 2.140 . S
C7 O8 1.227 . S
C7 O17 1.265 . S
O8 C7 1.227 . S
N9 Co6 2.121 . S
N9 C11 1.375 . S
N9 C12 1.313 . S
C10 C11 1.338 . S
C10 N13 1.377 . S
C10 H30 0.930 . S
C11 N9 1.375 . S
C11 C10 1.338 . S
C11 H15 0.931 . S
C12 N9 1.313 . S
C12 N13 1.344 . S
C12 H16 0.930 . S
N13 C10 1.377 . S
N13 C12 1.344 . S
O14 Co6 2.055 . S
O14 C18 1.253 . S
H15 C11 0.931 . S
H16 C12 0.930 . S
O17 Co6 2.039 . S
O17 C7 1.265 . S
C18 O14 1.253 . S
C18 O19 1.227 . S
O19 C18 1.227 . S
N20 Co6 2.140 . S
N20 C23 1.346 . S
N20 C24 1.345 . S
C21 C22 1.387 . S
C21 C25 1.391 . S
C22 C21 1.387 . S
C22 C23 1.369 . S
C22 H31 0.929 . S
C23 N20 1.346 . S
C23 C22 1.369 . S
C23 H26 0.928 . S
C24 N20 1.345 . S
C24 C25 1.371 . S
C24 H27 0.931 . S
C25 C21 1.391 . S
C25 C24 1.371 . S
C25 H32 0.930 . S
H26 C23 0.928 . S
H27 C24 0.931 . S
H28 C4 0.930 . S
H29 C1 0.930 . S
H30 C10 0.930 . S
H31 C22 0.929 . S
H32 C25 0.930 . S
C33 C34 1.351 . S
C33 N36 1.368 . S
C33 H38 0.931 . S
C34 C33 1.351 . S
C34 N35 1.373 . S
C34 H62 0.930 . S
N35 C34 1.373 . S
N35 C37 1.340 . S
N36 C33 1.368 . S
N36 C37 1.321 . S
N36 Co39 2.135 . S
C37 N35 1.340 . S
C37 N36 1.321 . S
C37 H61 0.930 . S
H38 C33 0.931 . S
Co39 N36 2.135 . S
Co39 N42 2.121 . S
Co39 O47 2.055 . S
Co39 O50 2.039 . S
Co39 N53 2.140 . S
C40 O41 1.227 . S
C40 O50 1.265 . S
O41 C40 1.227 . S
N42 Co39 2.121 . S
N42 C44 1.375 . S
N42 C45 1.313 . S
C43 C44 1.338 . S
C43 N46 1.377 . S
C43 H63 0.930 . S
C44 N42 1.375 . S
C44 C43 1.338 . S
C44 H48 0.931 . S
C45 N42 1.313 . S
C45 N46 1.344 . S
C45 H49 0.930 . S
N46 C43 1.377 . S
N46 C45 1.344 . S
O47 Co39 2.055 . S
O47 C51 1.253 . S
H48 C44 0.931 . S
H49 C45 0.930 . S
O50 Co39 2.039 . S
O50 C40 1.265 . S
C51 O47 1.253 . S
C51 O52 1.227 . S
O52 C51 1.227 . S
N53 Co39 2.140 . S
N53 C56 1.346 . S
N53 C57 1.345 . S
C54 C55 1.387 . S
C54 C58 1.391 . S
C55 C54 1.387 . S
C55 C56 1.369 . S
C55 H64 0.929 . S
C56 N53 1.346 . S
C56 C55 1.369 . S
C56 H59 0.928 . S
C57 N53 1.345 . S
C57 C58 1.371 . S
C57 H60 0.931 . S
C58 C54 1.391 . S
C58 C57 1.371 . S
C58 H65 0.930 . S
H59 C56 0.928 . S
H60 C57 0.931 . S
H61 C37 0.930 . S
H62 C34 0.930 . S
H63 C43 0.930 . S
H64 C55 0.929 . S
H65 C58 0.930 . S
C66 C67 1.351 . S
C66 N69 1.368 . S
C66 H71 0.931 . S
C67 C66 1.351 . S
C67 N68 1.373 . S
C67 H95 0.930 . S
N68 C67 1.373 . S
N68 C70 1.340 . S
N69 C66 1.368 . S
N69 C70 1.321 . S
N69 Co72 2.135 . S
C70 N68 1.340 . S
C70 N69 1.321 . S
C70 H94 0.930 . S
H71 C66 0.931 . S
Co72 N69 2.135 . S
Co72 N75 2.121 . S
Co72 O80 2.055 . S
Co72 O83 2.039 . S
Co72 N86 2.140 . S
C73 O74 1.227 . S
C73 O83 1.265 . S
O74 C73 1.227 . S
N75 Co72 2.121 . S
N75 C77 1.375 . S
N75 C78 1.313 . S
C76 C77 1.338 . S
C76 N79 1.377 . S
C76 H96 0.930 . S
C77 N75 1.375 . S
C77 C76 1.338 . S
C77 H81 0.931 . S
C78 N75 1.313 . S
C78 N79 1.344 . S
C78 H82 0.930 . S
N79 C76 1.377 . S
N79 C78 1.344 . S
O80 Co72 2.055 . S
O80 C84 1.253 . S
H81 C77 0.931 . S
H82 C78 0.930 . S
O83 Co72 2.039 . S
O83 C73 1.265 . S
C84 O80 1.253 . S
C84 O85 1.227 . S
O85 C84 1.227 . S
N86 Co72 2.140 . S
N86 C89 1.346 . S
N86 C90 1.345 . S
C87 C88 1.387 . S
C87 C91 1.391 . S
C88 C87 1.387 . S
C88 C89 1.369 . S
C88 H97 0.929 . S
C89 N86 1.346 . S
C89 C88 1.369 . S
C89 H92 0.928 . S
C90 N86 1.345 . S
C90 C91 1.371 . S
C90 H93 0.931 . S
C91 C87 1.391 . S
C91 C90 1.371 . S
C91 H98 0.930 . S
H92 C89 0.928 . S
H93 C90 0.931 . S
H94 C70 0.930 . S
H95 C67 0.930 . S
H96 C76 0.930 . S
H97 C88 0.929 . S
H98 C91 0.930 . S
C99 C100 1.351 . S
C99 N102 1.368 . S
C99 H104 0.931 . S
C100 C99 1.351 . S
C100 N101 1.373 . S
C100 H128 0.930 . S
N101 C100 1.373 . S
N101 C103 1.340 . S
N102 C99 1.368 . S
N102 C103 1.321 . S
N102 Co105 2.135 . S
C103 N101 1.340 . S
C103 N102 1.321 . S
C103 H127 0.930 . S
H104 C99 0.931 . S
Co105 N102 2.135 . S
Co105 N108 2.121 . S
Co105 O113 2.055 . S
Co105 O116 2.039 . S
Co105 N119 2.140 . S
C106 O107 1.227 . S
C106 O116 1.265 . S
O107 C106 1.227 . S
N108 Co105 2.121 . S
N108 C110 1.375 . S
N108 C111 1.313 . S
C109 C110 1.338 . S
C109 N112 1.377 . S
C109 H129 0.930 . S
C110 N108 1.375 . S
C110 C109 1.338 . S
C110 H114 0.931 . S
C111 N108 1.313 . S
C111 N112 1.344 . S
C111 H115 0.930 . S
N112 C109 1.377 . S
N112 C111 1.344 . S
O113 Co105 2.055 . S
O113 C117 1.253 . S
H114 C110 0.931 . S
H115 C111 0.930 . S
O116 Co105 2.039 . S
O116 C106 1.265 . S
C117 O113 1.253 . S
C117 O118 1.227 . S
O118 C117 1.227 . S
N119 Co105 2.140 . S
N119 C122 1.346 . S
N119 C123 1.345 . S
C120 C121 1.387 . S
C120 C124 1.391 . S
C121 C120 1.387 . S
C121 C122 1.369 . S
C121 H130 0.929 . S
C122 N119 1.346 . S
C122 C121 1.369 . S
C122 H125 0.928 . S
C123 N119 1.345 . S
C123 C124 1.371 . S
C123 H126 0.931 . S
C124 C120 1.391 . S
C124 C123 1.371 . S
C124 H131 0.930 . S
H125 C122 0.928 . S
H126 C123 0.931 . S
H127 C103 0.930 . S
H128 C100 0.930 . S
H129 C109 0.930 . S
H130 C121 0.929 . S
H131 C124 0.930 . S
C132 C133 1.351 . S
C132 N135 1.368 . S
C132 H137 0.931 . S
C133 C132 1.351 . S
C133 N134 1.373 . S
C133 H161 0.930 . S
N134 C133 1.373 . S
N134 C136 1.340 . S
N135 C132 1.368 . S
N135 C136 1.321 . S
N135 Co138 2.135 . S
C136 N134 1.340 . S
C136 N135 1.321 . S
C136 H160 0.930 . S
H137 C132 0.931 . S
Co138 N135 2.135 . S
Co138 N141 2.121 . S
Co138 O146 2.055 . S
Co138 O149 2.039 . S
Co138 N152 2.140 . S
C139 O140 1.227 . S
C139 O149 1.265 . S
O140 C139 1.227 . S
N141 Co138 2.121 . S
N141 C143 1.375 . S
N141 C144 1.313 . S
C142 C143 1.338 . S
C142 N145 1.377 . S
C142 H162 0.930 . S
C143 N141 1.375 . S
C143 C142 1.338 . S
C143 H147 0.931 . S
C144 N141 1.313 . S
C144 N145 1.344 . S
C144 H148 0.930 . S
N145 C142 1.377 . S
N145 C144 1.344 . S
O146 Co138 2.055 . S
O146 C150 1.253 . S
H147 C143 0.931 . S
H148 C144 0.930 . S
O149 Co138 2.039 . S
O149 C139 1.265 . S
C150 O146 1.253 . S
C150 O151 1.227 . S
O151 C150 1.227 . S
N152 Co138 2.140 . S
N152 C155 1.346 . S
N152 C156 1.345 . S
C153 C154 1.387 . S
C153 C157 1.391 . S
C154 C153 1.387 . S
C154 C155 1.369 . S
C154 H163 0.929 . S
C155 N152 1.346 . S
C155 C154 1.369 . S
C155 H158 0.928 . S
C156 N152 1.345 . S
C156 C157 1.371 . S
C156 H159 0.931 . S
C157 C153 1.391 . S
C157 C156 1.371 . S
C157 H164 0.930 . S
H158 C155 0.928 . S
H159 C156 0.931 . S
H160 C136 0.930 . S
H161 C133 0.930 . S
H162 C142 0.930 . S
H163 C154 0.929 . S
H164 C157 0.930 . S
C165 C166 1.351 . S
C165 N168 1.368 . S
C165 H170 0.931 . S
C166 C165 1.351 . S
C166 N167 1.373 . S
C166 H194 0.930 . S
N167 C166 1.373 . S
N167 C169 1.340 . S
N168 C165 1.368 . S
N168 C169 1.321 . S
N168 Co171 2.135 . S
C169 N167 1.340 . S
C169 N168 1.321 . S
C169 H193 0.930 . S
H170 C165 0.931 . S
Co171 N168 2.135 . S
Co171 N174 2.121 . S
Co171 O179 2.055 . S
Co171 O182 2.039 . S
Co171 N185 2.140 . S
C172 O173 1.227 . S
C172 O182 1.265 . S
O173 C172 1.227 . S
N174 Co171 2.121 . S
N174 C176 1.375 . S
N174 C177 1.313 . S
C175 C176 1.338 . S
C175 N178 1.377 . S
C175 H195 0.930 . S
C176 N174 1.375 . S
C176 C175 1.338 . S
C176 H180 0.931 . S
C177 N174 1.313 . S
C177 N178 1.344 . S
C177 H181 0.930 . S
N178 C175 1.377 . S
N178 C177 1.344 . S
O179 Co171 2.055 . S
O179 C183 1.253 . S
H180 C176 0.931 . S
H181 C177 0.930 . S
O182 Co171 2.039 . S
O182 C172 1.265 . S
C183 O179 1.253 . S
C183 O184 1.227 . S
O184 C183 1.227 . S
N185 Co171 2.140 . S
N185 C188 1.346 . S
N185 C189 1.345 . S
C186 C187 1.387 . S
C186 C190 1.391 . S
C187 C186 1.387 . S
C187 C188 1.369 . S
C187 H196 0.929 . S
C188 N185 1.346 . S
C188 C187 1.369 . S
C188 H191 0.928 . S
C189 N185 1.345 . S
C189 C190 1.371 . S
C189 H192 0.931 . S
C190 C186 1.391 . S
C190 C189 1.371 . S
C190 H197 0.930 . S
H191 C188 0.928 . S
H192 C189 0.931 . S
H193 C169 0.930 . S
H194 C166 0.930 . S
H195 C175 0.930 . S
H196 C187 0.929 . S
H197 C190 0.930 . S
C198 C199 1.351 . S
C198 N201 1.368 . S
C198 H203 0.931 . S
C199 C198 1.351 . S
C199 N200 1.373 . S
C199 H227 0.930 . S
N200 C199 1.373 . S
N200 C202 1.340 . S
N201 C198 1.368 . S
N201 C202 1.321 . S
N201 Co204 2.135 . S
C202 N200 1.340 . S
C202 N201 1.321 . S
C202 H226 0.930 . S
H203 C198 0.931 . S
Co204 N201 2.135 . S
Co204 N207 2.121 . S
Co204 O212 2.055 . S
Co204 O215 2.039 . S
Co204 N218 2.140 . S
C205 O206 1.227 . S
C205 O215 1.265 . S
O206 C205 1.227 . S
N207 Co204 2.121 . S
N207 C209 1.375 . S
N207 C210 1.313 . S
C208 C209 1.338 . S
C208 N211 1.377 . S
C208 H228 0.930 . S
C209 N207 1.375 . S
C209 C208 1.338 . S
C209 H213 0.931 . S
C210 N207 1.313 . S
C210 N211 1.344 . S
C210 H214 0.930 . S
N211 C208 1.377 . S
N211 C210 1.344 . S
O212 Co204 2.055 . S
O212 C216 1.253 . S
H213 C209 0.931 . S
H214 C210 0.930 . S
O215 Co204 2.039 . S
O215 C205 1.265 . S
C216 O212 1.253 . S
C216 O217 1.227 . S
O217 C216 1.227 . S
N218 Co204 2.140 . S
N218 C221 1.346 . S
N218 C222 1.345 . S
C219 C220 1.387 . S
C219 C223 1.391 . S
C220 C219 1.387 . S
C220 C221 1.369 . S
C220 H229 0.929 . S
C221 N218 1.346 . S
C221 C220 1.369 . S
C221 H224 0.928 . S
C222 N218 1.345 . S
C222 C223 1.371 . S
C222 H225 0.931 . S
C223 C219 1.391 . S
C223 C222 1.371 . S
C223 H230 0.930 . S
H224 C221 0.928 . S
H225 C222 0.931 . S
H226 C202 0.930 . S
H227 C199 0.930 . S
H228 C208 0.930 . S
H229 C220 0.929 . S
H230 C223 0.930 . S
C231 C232 1.351 . S
C231 N234 1.368 . S
C231 H236 0.931 . S
C232 C231 1.351 . S
C232 N233 1.373 . S
C232 H260 0.930 . S
N233 C232 1.373 . S
N233 C235 1.340 . S
N234 C231 1.368 . S
N234 C235 1.321 . S
N234 Co237 2.135 . S
C235 N233 1.340 . S
C235 N234 1.321 . S
C235 H259 0.930 . S
H236 C231 0.931 . S
Co237 N234 2.135 . S
Co237 N240 2.121 . S
Co237 O245 2.055 . S
Co237 O248 2.039 . S
Co237 N251 2.140 . S
C238 O239 1.227 . S
C238 O248 1.265 . S
O239 C238 1.227 . S
N240 Co237 2.121 . S
N240 C242 1.375 . S
N240 C243 1.313 . S
C241 C242 1.338 . S
C241 N244 1.377 . S
C241 H261 0.930 . S
C242 N240 1.375 . S
C242 C241 1.338 . S
C242 H246 0.931 . S
C243 N240 1.313 . S
C243 N244 1.344 . S
C243 H247 0.930 . S
N244 C241 1.377 . S
N244 C243 1.344 . S
O245 Co237 2.055 . S
O245 C249 1.253 . S
H246 C242 0.931 . S
H247 C243 0.930 . S
O248 Co237 2.039 . S
O248 C238 1.265 . S
C249 O245 1.253 . S
C249 O250 1.227 . S
O250 C249 1.227 . S
N251 Co237 2.140 . S
N251 C254 1.346 . S
N251 C255 1.345 . S
C252 C253 1.387 . S
C252 C256 1.391 . S
C253 C252 1.387 . S
C253 C254 1.369 . S
C253 H262 0.929 . S
C254 N251 1.346 . S
C254 C253 1.369 . S
C254 H257 0.928 . S
C255 N251 1.345 . S
C255 C256 1.371 . S
C255 H258 0.931 . S
C256 C252 1.391 . S
C256 C255 1.371 . S
C256 H263 0.930 . S
H257 C254 0.928 . S
H258 C255 0.931 . S
H259 C235 0.930 . S
H260 C232 0.930 . S
H261 C241 0.930 . S
H262 C253 0.929 . S
H263 C256 0.930 . S
C264 C265 1.349 1_565 S
C264 C266 1.327 . S
C264 H289 0.950 . S
C265 C264 1.349 1_545 S
C265 C281 1.349 . S
C266 C264 1.327 . S
C266 C285 1.429 . S
C266 H290 0.950 . S
C267 C284 1.574 . S
C267 C286 1.368 . S
C267 H291 0.949 . S
H268 C272 0.949 . S
C269 C270 1.349 . S
C269 C271 1.327 . S
C269 H292 0.950 . S
C270 C269 1.349 . S
C270 C282 1.349 . S
C271 C269 1.327 . S
C271 C287 1.429 . S
C271 H293 0.950 . S
C272 H268 0.949 . S
C272 C280 1.574 . S
C272 C288 1.368 . S
H273 C281 0.950 . S
H274 C279 0.950 . S
H275 C280 0.949 . S
H276 C282 0.950 . S
H277 C283 0.950 . S
H278 C284 0.949 . S
C279 H274 0.950 . S
C279 C281 1.327 . S
C279 C285 1.429 1_545 S
C280 C272 1.574 . S
C280 H275 0.949 . S
C280 C286 1.368 . S
C281 C265 1.349 . S
C281 H273 0.950 . S
C281 C279 1.327 . S
C282 C270 1.349 . S
C282 H276 0.950 . S
C282 C283 1.327 . S
C283 H277 0.950 . S
C283 C282 1.327 . S
C283 C287 1.429 . S
C284 C267 1.574 . S
C284 H278 0.949 . S
C284 C288 1.368 . S
C285 C266 1.429 . S
C285 C279 1.429 1_565 S
C285 C286 1.523 . S
C286 C267 1.368 . S
C286 C280 1.368 . S
C286 C285 1.523 . S
C287 C271 1.429 . S
C287 C283 1.429 . S
C287 C288 1.523 . S
C288 C272 1.368 . S
C288 C284 1.368 . S
C288 C287 1.523 . S
H289 C264 0.950 . S
H290 C266 0.950 . S
H291 C267 0.949 . S
H292 C269 0.950 . S
H293 C271 0.950 . S
C294 C295 1.349 . S
C294 C296 1.327 . S
C294 H319 0.950 . S
C295 C294 1.349 . S
C295 C311 1.349 . S
C296 C294 1.327 . S
C296 C315 1.429 . S
C296 H320 0.950 . S
C297 C314 1.574 . S
C297 C316 1.368 . S
C297 H321 0.949 . S
H298 C302 0.949 . S
C299 C300 1.349 . S
C299 C301 1.313 1_455 S
C299 H322 0.950 . S
C300 C299 1.349 . S
C300 C312 1.349 1_455 S
C301 C299 1.313 1_655 S
C301 C317 1.444 . S
C301 H323 0.948 1_655 S
C302 H298 0.949 . S
C302 C310 1.574 . S
C302 C318 1.368 . S
H303 C311 0.950 . S
H304 C309 0.950 . S
H305 C310 0.949 . S
H306 C312 0.950 . S
H307 C313 0.950 . S
H308 C314 0.949 . S
C309 H304 0.950 . S
C309 C311 1.327 . S
C309 C315 1.429 . S
C310 C302 1.574 . S
C310 H305 0.949 . S
C310 C316 1.368 . S
C311 C295 1.349 . S
C311 H303 0.950 . S
C311 C309 1.327 . S
C312 C300 1.349 1_655 S
C312 H306 0.950 . S
C312 C313 1.327 . S
C313 H307 0.950 . S
C313 C312 1.327 . S
C313 C317 1.429 . S
C314 C297 1.574 . S
C314 H308 0.949 . S
C314 C318 1.368 . S
C315 C296 1.429 . S
C315 C309 1.429 . S
C315 C316 1.523 . S
C316 C297 1.368 . S
C316 C310 1.368 . S
C316 C315 1.523 . S
C317 C301 1.444 . S
C317 C313 1.429 . S
C317 C318 1.523 . S
C318 C302 1.368 . S
C318 C314 1.368 . S
C318 C317 1.523 . S
H319 C294 0.950 . S
H320 C296 0.950 . S
H321 C297 0.949 . S
H322 C299 0.950 . S
H323 C301 0.948 1_455 S
C324 C325 1.349 1_545 S
C324 C326 1.327 . S
C324 H349 0.950 . S
C325 C324 1.349 1_565 S
C325 C341 1.349 . S
C326 C324 1.327 . S
C326 C345 1.429 . S
C326 H350 0.950 . S
C327 C344 1.574 . S
C327 C346 1.368 . S
C327 H351 0.949 . S
H328 C332 0.949 . S
C329 C330 1.349 . S
C329 C331 1.327 . S
C329 H352 0.950 . S
C330 C329 1.349 . S
C330 C342 1.349 . S
C331 C329 1.327 . S
C331 C347 1.429 . S
C331 H353 0.950 . S
C332 H328 0.949 . S
C332 C340 1.574 . S
C332 C348 1.368 . S
H333 C341 0.950 . S
H334 C339 0.950 . S
H335 C340 0.949 . S
H336 C342 0.950 . S
H337 C343 0.950 . S
H338 C344 0.949 . S
C339 H334 0.950 . S
C339 C341 1.327 . S
C339 C345 1.429 1_565 S
C340 C332 1.574 . S
C340 H335 0.949 . S
C340 C346 1.368 . S
C341 C325 1.349 . S
C341 H333 0.950 . S
C341 C339 1.327 . S
C342 C330 1.349 . S
C342 H336 0.950 . S
C342 C343 1.327 . S
C343 H337 0.950 . S
C343 C342 1.327 . S
C343 C347 1.429 . S
C344 C327 1.574 . S
C344 H338 0.949 . S
C344 C348 1.368 . S
C345 C326 1.429 . S
C345 C339 1.429 1_545 S
C345 C346 1.523 . S
C346 C327 1.368 . S
C346 C340 1.368 . S
C346 C345 1.523 . S
C347 C331 1.429 . S
C347 C343 1.429 . S
C347 C348 1.523 . S
C348 C332 1.368 . S
C348 C344 1.368 . S
C348 C347 1.523 . S
H349 C324 0.950 . S
H350 C326 0.950 . S
H351 C327 0.949 . S
H352 C329 0.950 . S
H353 C331 0.950 . S
C354 C355 1.349 . S
C354 C356 1.327 . S
C354 H379 0.950 . S
C355 C354 1.349 . S
C355 C371 1.349 . S
C356 C354 1.327 . S
C356 C375 1.429 . S
C356 H380 0.950 . S
C357 C374 1.574 . S
C357 C376 1.368 . S
C357 H381 0.949 . S
H358 C362 0.949 . S
C359 C360 1.349 . S
C359 C361 1.315 1_655 S
C359 H382 0.950 . S
C360 C359 1.349 . S
C360 C372 1.349 1_655 S
C361 C359 1.315 1_455 S
C361 C377 1.441 . S
C361 H383 0.948 1_455 S
C362 H358 0.949 . S
C362 C370 1.574 . S
C362 C378 1.368 . S
H363 C371 0.950 . S
H364 C369 0.950 . S
H365 C370 0.949 . S
H366 C372 0.950 . S
H367 C373 0.950 . S
H368 C374 0.949 . S
C369 H364 0.950 . S
C369 C371 1.327 . S
C369 C375 1.429 . S
C370 C362 1.574 . S
C370 H365 0.949 . S
C370 C376 1.368 . S
C371 C355 1.349 . S
C371 H363 0.950 . S
C371 C369 1.327 . S
C372 C360 1.349 1_455 S
C372 H366 0.950 . S
C372 C373 1.327 . S
C373 H367 0.950 . S
C373 C372 1.327 . S
C373 C377 1.429 . S
C374 C357 1.574 . S
C374 H368 0.949 . S
C374 C378 1.368 . S
C375 C356 1.429 . S
C375 C369 1.429 . S
C375 C376 1.523 . S
C376 C357 1.368 . S
C376 C370 1.368 . S
C376 C375 1.523 . S
C377 C361 1.441 . S
C377 C373 1.429 . S
C377 C378 1.523 . S
C378 C362 1.368 . S
C378 C374 1.368 . S
C378 C377 1.523 . S
H379 C354 0.950 . S
H380 C356 0.950 . S
H381 C357 0.949 . S
H382 C359 0.950 . S
H383 C361 0.948 1_655 S
C384 C385 1.349 . S
C384 C386 1.327 . S
C384 H409 0.950 . S
C385 C384 1.349 . S
C385 C401 1.349 . S
C386 C384 1.327 . S
C386 C405 1.429 . S
C386 H410 0.950 . S
C387 C404 1.574 . S
C387 C406 1.368 . S
C387 H411 0.949 . S
H388 C392 0.949 . S
C389 C390 1.349 . S
C389 C391 1.327 . S
C389 H412 0.950 . S
C390 C389 1.349 . S
C390 C402 1.349 1_545 S
C391 C389 1.327 . S
C391 C407 1.429 1_545 S
C391 H413 0.950 . S
C392 H388 0.949 . S
C392 C400 1.574 1_554 S
C392 C408 1.368 . S
H393 C401 0.950 . S
H394 C399 0.950 . S
H395 C400 0.949 . S
H396 C402 0.950 . S
H397 C403 0.950 . S
H398 C404 0.949 . S
C399 H394 0.950 . S
C399 C401 1.327 . S
C399 C405 1.429 . S
C400 C392 1.574 1_556 S
C400 H395 0.949 . S
C400 C406 1.368 . S
C401 C385 1.349 . S
C401 H393 0.950 . S
C401 C399 1.327 . S
C402 C390 1.349 1_565 S
C402 H396 0.950 . S
C402 C403 1.327 . S
C403 H397 0.950 . S
C403 C402 1.327 . S
C403 C407 1.429 . S
C404 C387 1.574 . S
C404 H398 0.949 . S
C404 C408 1.368 1_556 S
C405 C386 1.429 . S
C405 C399 1.429 . S
C405 C406 1.523 . S
C406 C387 1.368 . S
C406 C400 1.368 . S
C406 C405 1.523 . S
C407 C391 1.429 1_565 S
C407 C403 1.429 . S
C407 C408 1.523 . S
C408 C392 1.368 . S
C408 C404 1.368 1_554 S
C408 C407 1.523 . S
H409 C384 0.950 . S
H410 C386 0.950 . S
H411 C387 0.949 . S
H412 C389 0.950 . S
H413 C391 0.950 . S
C414 C415 1.349 . S
C414 C416 1.327 . S
C414 H439 0.950 . S
C415 C414 1.349 . S
C415 C431 1.349 . S
C416 C414 1.327 . S
C416 C435 1.429 . S
C416 H440 0.950 . S
C417 C434 1.574 . S
C417 C436 1.368 . S
C417 H441 0.949 . S
H418 C422 0.949 . S
C419 C420 1.349 . S
C419 C421 1.321 1_455 S
C419 H442 0.950 . S
C420 C419 1.349 . S
C420 C432 1.349 1_455 S
C421 C419 1.321 1_655 S
C421 C437 1.436 . S
C421 H443 0.949 1_655 S
C422 H418 0.949 . S
C422 C430 1.574 1_556 S
C422 C438 1.368 . S
H423 C431 0.950 . S
H424 C429 0.950 . S
H425 C430 0.949 . S
H426 C432 0.950 . S
H427 C433 0.950 . S
H428 C434 0.949 . S
C429 H424 0.950 . S
C429 C431 1.327 . S
C429 C435 1.429 . S
C430 C422 1.574 1_554 S
C430 H425 0.949 . S
C430 C436 1.368 . S
C431 C415 1.349 . S
C431 H423 0.950 . S
C431 C429 1.327 . S
C432 C420 1.349 1_655 S
C432 H426 0.950 . S
C432 C433 1.327 . S
C433 H427 0.950 . S
C433 C432 1.327 . S
C433 C437 1.429 . S
C434 C417 1.574 . S
C434 H428 0.949 . S
C434 C438 1.368 1_554 S
C435 C416 1.429 . S
C435 C429 1.429 . S
C435 C436 1.523 . S
C436 C417 1.368 . S
C436 C430 1.368 . S
C436 C435 1.523 . S
C437 C421 1.436 . S
C437 C433 1.429 . S
C437 C438 1.523 . S
C438 C422 1.368 . S
C438 C434 1.368 1_556 S
C438 C437 1.523 . S
H439 C414 0.950 . S
H440 C416 0.950 . S
H441 C417 0.949 . S
H442 C419 0.950 . S
H443 C421 0.949 1_455 S
C444 C445 1.349 . S
C444 C446 1.327 . S
C444 H469 0.950 . S
C445 C444 1.349 . S
C445 C461 1.349 . S
C446 C444 1.327 . S
C446 C465 1.429 . S
C446 H470 0.950 . S
C447 C464 1.574 . S
C447 C466 1.368 . S
C447 H471 0.949 . S
H448 C452 0.949 . S
C449 C450 1.349 . S
C449 C451 1.327 . S
C449 H472 0.950 . S
C450 C449 1.349 . S
C450 C462 1.349 1_565 S
C451 C449 1.327 . S
C451 C467 1.429 1_565 S
C451 H473 0.950 . S
C452 H448 0.949 . S
C452 C460 1.574 1_554 S
C452 C468 1.368 . S
H453 C461 0.950 . S
H454 C459 0.950 . S
H455 C460 0.949 . S
H456 C462 0.950 . S
H457 C463 0.950 . S
H458 C464 0.949 . S
C459 H454 0.950 . S
C459 C461 1.327 . S
C459 C465 1.429 . S
C460 C452 1.574 1_556 S
C460 H455 0.949 . S
C460 C466 1.368 . S
C461 C445 1.349 . S
C461 H453 0.950 . S
C461 C459 1.327 . S
C462 C450 1.349 1_545 S
C462 H456 0.950 . S
C462 C463 1.327 . S
C463 H457 0.950 . S
C463 C462 1.327 . S
C463 C467 1.429 . S
C464 C447 1.574 . S
C464 H458 0.949 . S
C464 C468 1.368 1_556 S
C465 C446 1.429 . S
C465 C459 1.429 . S
C465 C466 1.523 . S
C466 C447 1.368 . S
C466 C460 1.368 . S
C466 C465 1.523 . S
C467 C451 1.429 1_545 S
C467 C463 1.429 . S
C467 C468 1.523 . S
C468 C452 1.368 . S
C468 C464 1.368 1_554 S
C468 C467 1.523 . S
H469 C444 0.950 . S
H470 C446 0.950 . S
H471 C447 0.949 . S
H472 C449 0.950 . S
H473 C451 0.950 . S
C474 C475 1.349 1_455 S
C474 C476 1.327 . S
C474 H499 0.950 . S
C475 C474 1.349 1_655 S
C475 C491 1.349 . S
C476 C474 1.327 . S
C476 C495 1.429 . S
C476 H500 0.950 . S
C477 C494 1.574 . S
C477 C496 1.368 1_554 S
C477 H501 0.949 . S
H478 C482 0.949 . S
C479 C480 1.349 . S
C479 C481 1.327 . S
C479 H502 0.950 . S
C480 C479 1.349 . S
C480 C492 1.349 . S
C481 C479 1.327 . S
C481 C497 1.429 . S
C481 H503 0.950 . S
C482 H478 0.949 . S
C482 C490 1.574 1_554 S
C482 C498 1.368 . S
H483 C491 0.950 . S
H484 C489 0.948 1_655 S
H485 C490 0.949 . S
H486 C492 0.950 . S
H487 C493 0.950 . S
H488 C494 0.949 . S
C489 H484 0.948 1_455 S
C489 C491 1.309 1_455 S
C489 C495 1.448 . S
C490 C482 1.574 1_556 S
C490 H485 0.949 . S
C490 C496 1.368 . S
C491 C475 1.349 . S
C491 H483 0.950 . S
C491 C489 1.309 1_655 S
C492 C480 1.349 . S
C492 H486 0.950 . S
C492 C493 1.327 . S
C493 H487 0.950 . S
C493 C492 1.327 . S
C493 C497 1.429 . S
C494 C477 1.574 . S
C494 H488 0.949 . S
C494 C498 1.368 . S
C495 C476 1.429 . S
C495 C489 1.448 . S
C495 C496 1.523 . S
C496 C477 1.368 1_556 S
C496 C490 1.368 . S
C496 C495 1.523 . S
C497 C481 1.429 . S
C497 C493 1.429 . S
C497 C498 1.523 . S
C498 C482 1.368 . S
C498 C494 1.368 . S
C498 C497 1.523 . S
H499 C474 0.950 . S
H500 C476 0.950 . S
H501 C477 0.949 . S
H502 C479 0.950 . S
H503 C481 0.950 . S
C504 C505 1.349 . S
C504 C506 1.327 . S
C504 H529 0.950 . S
C505 C504 1.349 . S
C505 C521 1.349 . S
C506 C504 1.327 . S
C506 C525 1.429 . S
C506 H530 0.950 . S
C507 C524 1.574 . S
C507 C526 1.368 1_545 S
C507 H531 0.949 . S
H508 C512 0.949 . S
C509 C510 1.349 . S
C509 C511 1.327 . S
C509 H532 0.950 . S
C510 C509 1.349 . S
C510 C522 1.349 . S
C511 C509 1.327 . S
C511 C527 1.429 . S
C511 H533 0.950 . S
C512 H508 0.949 . S
C512 C520 1.574 . S
C512 C528 1.368 1_565 S
H513 C521 0.950 . S
H514 C519 0.950 . S
H515 C520 0.949 . S
H516 C522 0.950 . S
H517 C523 0.950 . S
H518 C524 0.949 . S
C519 H514 0.950 . S
C519 C521 1.327 . S
C519 C525 1.429 . S
C520 C512 1.574 . S
C520 H515 0.949 . S
C520 C526 1.368 . S
C521 C505 1.349 . S
C521 H513 0.950 . S
C521 C519 1.327 . S
C522 C510 1.349 . S
C522 H516 0.950 . S
C522 C523 1.327 . S
C523 H517 0.950 . S
C523 C522 1.327 . S
C523 C527 1.429 . S
C524 C507 1.574 . S
C524 H518 0.949 . S
C524 C528 1.368 . S
C525 C506 1.429 . S
C525 C519 1.429 . S
C525 C526 1.523 . S
C526 C507 1.368 1_565 S
C526 C520 1.368 . S
C526 C525 1.523 . S
C527 C511 1.429 . S
C527 C523 1.429 . S
C527 C528 1.523 . S
C528 C512 1.368 1_545 S
C528 C524 1.368 . S
C528 C527 1.523 . S
H529 C504 0.950 . S
H530 C506 0.950 . S
H531 C507 0.949 . S
H532 C509 0.950 . S
H533 C511 0.950 . S
C534 C535 1.349 . S
C534 C536 1.327 . S
C534 H559 0.950 . S
C535 C534 1.349 . S
C535 C551 1.349 . S
C536 C534 1.327 . S
C536 C555 1.429 . S
C536 H560 0.950 . S
C537 C554 1.574 . S
C537 C556 1.368 1_655 S
C537 H561 0.949 . S
H538 C542 0.949 . S
C539 C540 1.349 . S
C539 C541 1.327 . S
C539 H562 0.950 . S
C540 C539 1.349 . S
C540 C552 1.349 . S
C541 C539 1.327 . S
C541 C557 1.429 . S
C541 H563 0.950 . S
C542 H538 0.949 . S
C542 C550 1.574 . S
C542 C558 1.368 1_455 S
H543 C551 0.950 . S
H544 C549 0.950 . S
H545 C550 0.949 . S
H546 C552 0.950 . S
H547 C553 0.950 . S
H548 C554 0.949 . S
C549 H544 0.950 . S
C549 C551 1.327 . S
C549 C555 1.429 . S
C550 C542 1.574 . S
C550 H545 0.949 . S
C550 C556 1.368 . S
C551 C535 1.349 . S
C551 H543 0.950 . S
C551 C549 1.327 . S
C552 C540 1.349 . S
C552 H546 0.950 . S
C552 C553 1.327 . S
C553 H547 0.950 . S
C553 C552 1.327 . S
C553 C557 1.429 . S
C554 C537 1.574 . S
C554 H548 0.949 . S
C554 C558 1.368 . S
C555 C536 1.429 . S
C555 C549 1.429 . S
C555 C556 1.523 . S
C556 C537 1.368 1_455 S
C556 C550 1.368 . S
C556 C555 1.523 . S
C557 C541 1.429 . S
C557 C553 1.429 . S
C557 C558 1.523 . S
C558 C542 1.368 1_655 S
C558 C554 1.368 . S
C558 C557 1.523 . S
H559 C534 0.950 . S
H560 C536 0.950 . S
H561 C537 0.949 . S
H562 C539 0.950 . S
H563 C541 0.950 . S
C564 C565 1.349 . S
C564 C566 1.327 . S
C564 H589 0.950 . S
C565 C564 1.349 . S
C565 C581 1.349 . S
C566 C564 1.327 . S
C566 C585 1.429 . S
C566 H590 0.950 . S
C567 C584 1.574 . S
C567 C586 1.368 . S
C567 H591 0.949 . S
H568 C572 0.949 . S
C569 C570 1.349 . S
C569 C571 1.327 . S
C569 H592 0.950 . S
C570 C569 1.349 . S
C570 C582 1.349 . S
C571 C569 1.327 . S
C571 C587 1.429 . S
C571 H593 0.950 . S
C572 H568 0.949 . S
C572 C580 1.574 . S
C572 C588 1.368 . S
H573 C581 0.950 . S
H574 C579 0.950 . S
H575 C580 0.949 . S
H576 C582 0.950 . S
H577 C583 0.950 . S
H578 C584 0.949 . S
C579 H574 0.950 . S
C579 C581 1.327 . S
C579 C585 1.429 . S
C580 C572 1.574 . S
C580 H575 0.949 . S
C580 C586 1.368 1_565 S
C581 C565 1.349 . S
C581 H573 0.950 . S
C581 C579 1.327 . S
C582 C570 1.349 . S
C582 H576 0.950 . S
C582 C583 1.327 . S
C583 H577 0.950 . S
C583 C582 1.327 . S
C583 C587 1.429 . S
C584 C567 1.574 . S
C584 H578 0.949 . S
C584 C588 1.368 1_545 S
C585 C566 1.429 . S
C585 C579 1.429 . S
C585 C586 1.523 . S
C586 C567 1.368 . S
C586 C580 1.368 1_545 S
C586 C585 1.523 . S
C587 C571 1.429 . S
C587 C583 1.429 . S
C587 C588 1.523 . S
C588 C572 1.368 . S
C588 C584 1.368 1_565 S
C588 C587 1.523 . S
H589 C564 0.950 . S
H590 C566 0.950 . S
H591 C567 0.949 . S
H592 C569 0.950 . S
H593 C571 0.950 . S
C594 C595 1.349 . S
C594 C596 1.327 . S
C594 H619 0.950 . S
C595 C594 1.349 . S
C595 C611 1.349 . S
C596 C594 1.327 . S
C596 C615 1.429 . S
C596 H620 0.950 . S
C597 C614 1.574 . S
C597 C616 1.368 . S
C597 H621 0.949 . S
H598 C602 0.949 . S
C599 C600 1.349 . S
C599 C601 1.327 . S
C599 H622 0.950 . S
C600 C599 1.349 . S
C600 C612 1.349 . S
C601 C599 1.327 . S
C601 C617 1.429 . S
C601 H623 0.950 . S
C602 H598 0.949 . S
C602 C610 1.574 . S
C602 C618 1.368 . S
H603 C611 0.950 . S
H604 C609 0.950 . S
H605 C610 0.949 . S
H606 C612 0.950 . S
H607 C613 0.950 . S
H608 C614 0.949 . S
C609 H604 0.950 . S
C609 C611 1.327 . S
C609 C615 1.429 . S
C610 C602 1.574 . S
C610 H605 0.949 . S
C610 C616 1.368 1_655 S
C611 C595 1.349 . S
C611 H603 0.950 . S
C611 C609 1.327 . S
C612 C600 1.349 . S
C612 H606 0.950 . S
C612 C613 1.327 . S
C613 H607 0.950 . S
C613 C612 1.327 . S
C613 C617 1.429 . S
C614 C597 1.574 . S
C614 H608 0.949 . S
C614 C618 1.368 1_455 S
C615 C596 1.429 . S
C615 C609 1.429 . S
C615 C616 1.523 . S
C616 C597 1.368 . S
C616 C610 1.368 1_455 S
C616 C615 1.523 . S
C617 C601 1.429 . S
C617 C613 1.429 . S
C617 C618 1.523 . S
C618 C602 1.368 . S
C618 C614 1.368 1_655 S
C618 C617 1.523 . S
H619 C594 0.950 . S
H620 C596 0.950 . S
H621 C597 0.949 . S
H622 C599 0.950 . S
H623 C601 0.950 . S
C624 C625 1.349 . S
C624 C626 1.327 . S
C624 H649 0.950 . S
C625 C624 1.349 . S
C625 C641 1.349 . S
C626 C624 1.327 . S
C626 C645 1.429 . S
C626 H650 0.950 . S
C627 C644 1.574 1_455 S
C627 C646 1.368 1_565 S
C627 H651 0.949 . S
H628 C632 0.949 . S
C629 C630 1.349 . S
C629 C631 1.327 . S
C629 H652 0.950 . S
C630 C629 1.349 . S
C630 C642 1.349 . S
C631 C629 1.327 . S
C631 C647 1.429 . S
C631 H653 0.950 . S
C632 H628 0.949 . S
C632 C640 1.574 1_655 S
C632 C648 1.368 1_545 S
H633 C641 0.950 . S
H634 C639 0.935 1_565 S
H635 C640 0.949 . S
H636 C642 0.950 . S
H637 C643 0.935 1_545 S
H638 C644 0.949 . S
C639 H634 0.935 1_545 S
C639 C641 1.327 . S
C639 C645 1.429 . S
C640 C632 1.574 1_455 S
C640 H635 0.949 . S
C640 C646 1.368 . S
C641 C625 1.349 . S
C641 H633 0.950 . S
C641 C639 1.327 . S
C642 C630 1.349 . S
C642 H636 0.950 . S
C642 C643 1.327 . S
C643 H637 0.935 1_565 S
C643 C642 1.327 . S
C643 C647 1.429 . S
C644 C627 1.574 1_655 S
C644 H638 0.949 . S
C644 C648 1.368 . S
C645 C626 1.429 . S
C645 C639 1.429 . S
C645 C646 1.523 . S
C646 C627 1.368 1_545 S
C646 C640 1.368 . S
C646 C645 1.523 . S
C647 C631 1.429 . S
C647 C643 1.429 . S
C647 C648 1.523 . S
C648 C632 1.368 1_565 S
C648 C644 1.368 . S
C648 C647 1.523 . S
H649 C624 0.950 . S
H650 C626 0.950 . S
H651 C627 0.949 . S
H652 C629 0.950 . S
H653 C631 0.950 . S
C654 C655 1.349 . S
C654 C656 1.327 . S
C654 H679 0.950 . S
C655 C654 1.349 . S
C655 C671 1.349 . S
C656 C654 1.327 . S
C656 C675 1.429 . S
C656 H680 0.935 1_455 S
C657 C674 1.574 1_565 S
C657 C676 1.368 . S
C657 H681 0.949 . S
H658 C662 0.949 . S
C659 C660 1.349 . S
C659 C661 1.327 . S
C659 H682 0.950 . S
C660 C659 1.349 . S
C660 C672 1.349 . S
C661 C659 1.327 . S
C661 C677 1.429 . S
C661 H683 0.935 1_655 S
C662 H658 0.949 . S
C662 C670 1.574 1_545 S
C662 C678 1.368 . S
H663 C671 0.950 . S
H664 C669 0.950 . S
H665 C670 0.949 . S
H666 C672 0.950 . S
H667 C673 0.950 . S
H668 C674 0.949 . S
C669 H664 0.950 . S
C669 C671 1.327 . S
C669 C675 1.429 . S
C670 C662 1.574 1_565 S
C670 H665 0.949 . S
C670 C676 1.368 1_655 S
C671 C655 1.349 . S
C671 H663 0.950 . S
C671 C669 1.327 . S
C672 C660 1.349 . S
C672 H666 0.950 . S
C672 C673 1.327 . S
C673 H667 0.950 . S
C673 C672 1.327 . S
C673 C677 1.429 . S
C674 C657 1.574 1_545 S
C674 H668 0.949 . S
C674 C678 1.368 1_455 S
C675 C656 1.429 . S
C675 C669 1.429 . S
C675 C676 1.523 . S
C676 C657 1.368 . S
C676 C670 1.368 1_455 S
C676 C675 1.523 . S
C677 C661 1.429 . S
C677 C673 1.429 . S
C677 C678 1.523 . S
C678 C662 1.368 . S
C678 C674 1.368 1_655 S
C678 C677 1.523 . S
H679 C654 0.950 . S
H680 C656 0.935 1_655 S
H681 C657 0.949 . S
H682 C659 0.950 . S
H683 C661 0.935 1_455 S
C684 C685 1.349 . S
C684 C686 1.327 . S
C684 H709 0.950 . S
C685 C684 1.349 . S
C685 C701 1.349 . S
C686 C684 1.327 . S
C686 C705 1.429 . S
C686 H710 0.935 1_565 S
C687 C704 1.574 1_455 S
C687 C706 1.368 . S
C687 H711 0.949 . S
H688 C692 0.949 . S
C689 C690 1.349 . S
C689 C691 1.327 . S
C689 H712 0.950 . S
C690 C689 1.349 . S
C690 C702 1.349 . S
C691 C689 1.327 . S
C691 C707 1.429 . S
C691 H713 0.935 1_545 S
C692 H688 0.949 . S
C692 C700 1.574 1_655 S
C692 C708 1.368 . S
H693 C701 0.950 . S
H694 C699 0.950 . S
H695 C700 0.949 . S
H696 C702 0.950 . S
H697 C703 0.950 . S
H698 C704 0.949 . S
C699 H694 0.950 . S
C699 C701 1.327 . S
C699 C705 1.429 . S
C700 C692 1.574 1_455 S
C700 H695 0.949 . S
C700 C706 1.368 1_545 S
C701 C685 1.349 . S
C701 H693 0.950 . S
C701 C699 1.327 . S
C702 C690 1.349 . S
C702 H696 0.950 . S
C702 C703 1.327 . S
C703 H697 0.950 . S
C703 C702 1.327 . S
C703 C707 1.429 . S
C704 C687 1.574 1_655 S
C704 H698 0.949 . S
C704 C708 1.368 1_565 S
C705 C686 1.429 . S
C705 C699 1.429 . S
C705 C706 1.523 . S
C706 C687 1.368 . S
C706 C700 1.368 1_565 S
C706 C705 1.523 . S
C707 C691 1.429 . S
C707 C703 1.429 . S
C707 C708 1.523 . S
C708 C692 1.368 . S
C708 C704 1.368 1_545 S
C708 C707 1.523 . S
H709 C684 0.950 . S
H710 C686 0.935 1_545 S
H711 C687 0.949 . S
H712 C689 0.950 . S
H713 C691 0.935 1_565 S
C714 C715 1.349 . S
C714 C716 1.327 . S
C714 H739 0.950 . S
C715 C714 1.349 . S
C715 C731 1.349 . S
C716 C714 1.327 . S
C716 C735 1.429 . S
C716 H740 0.935 1_655 S
C717 C734 1.574 1_565 S
C717 C736 1.368 . S
C717 H741 0.949 . S
H718 C722 0.949 . S
C719 C720 1.349 . S
C719 C721 1.327 . S
C719 H742 0.950 . S
C720 C719 1.349 . S
C720 C732 1.349 . S
C721 C719 1.327 . S
C721 C737 1.429 . S
C721 H743 0.935 1_455 S
C722 H718 0.949 . S
C722 C730 1.574 1_545 S
C722 C738 1.368 . S
H723 C731 0.950 . S
H724 C729 0.950 . S
H725 C730 0.949 . S
H726 C732 0.950 . S
H727 C733 0.950 . S
H728 C734 0.949 . S
C729 H724 0.950 . S
C729 C731 1.327 . S
C729 C735 1.429 . S
C730 C722 1.574 1_565 S
C730 H725 0.949 . S
C730 C736 1.368 1_455 S
C731 C715 1.349 . S
C731 H723 0.950 . S
C731 C729 1.327 . S
C732 C720 1.349 . S
C732 H726 0.950 . S
C732 C733 1.327 . S
C733 H727 0.950 . S
C733 C732 1.327 . S
C733 C737 1.429 . S
C734 C717 1.574 1_545 S
C734 H728 0.949 . S
C734 C738 1.368 1_655 S
C735 C716 1.429 . S
C735 C729 1.429 . S
C735 C736 1.523 . S
C736 C717 1.368 . S
C736 C730 1.368 1_655 S
C736 C735 1.523 . S
C737 C721 1.429 . S
C737 C733 1.429 . S
C737 C738 1.523 . S
C738 C722 1.368 . S
C738 C734 1.368 1_455 S
C738 C737 1.523 . S
H739 C714 0.950 . S
H740 C716 0.935 1_455 S
H741 C717 0.949 . S
H742 C719 0.950 . S
H743 C721 0.935 1_655 S
C744 C745 1.349 . S
C744 C746 1.327 . S
C744 H769 0.950 . S
C745 C744 1.349 . S
C745 C761 1.349 . S
C746 C744 1.327 . S
C746 C765 1.429 . S
C746 H770 0.950 . S
C747 C764 1.574 . S
C747 C766 1.368 . S
C747 H771 0.949 . S
H748 C752 0.949 . S
C749 C750 1.349 . S
C749 C751 1.327 . S
C749 H772 0.950 . S
C750 C749 1.349 . S
C750 C762 1.349 . S
C751 C749 1.327 . S
C751 C767 1.429 . S
C751 H773 0.950 . S
C752 H748 0.949 . S
C752 C760 1.574 . S
C752 C768 1.368 . S
H753 C761 0.950 . S
H754 C759 0.950 . S
H755 C760 0.949 . S
H756 C762 0.950 . S
H757 C763 0.950 . S
H758 C764 0.949 . S
C759 H754 0.950 . S
C759 C761 1.327 . S
C759 C765 1.429 . S
C760 C752 1.574 . S
C760 H755 0.949 . S
C760 C766 1.368 . S
C761 C745 1.349 . S
C761 H753 0.950 . S
C761 C759 1.327 . S
C762 C750 1.349 . S
C762 H756 0.950 . S
C762 C763 1.327 . S
C763 H757 0.950 . S
C763 C762 1.327 . S
C763 C767 1.429 . S
C764 C747 1.574 . S
C764 H758 0.949 . S
C764 C768 1.368 . S
C765 C746 1.429 . S
C765 C759 1.429 . S
C765 C766 1.523 . S
C766 C747 1.368 . S
C766 C760 1.368 . S
C766 C765 1.523 . S
C767 C751 1.429 . S
C767 C763 1.429 . S
C767 C768 1.523 . S
C768 C752 1.368 . S
C768 C764 1.368 . S
C768 C767 1.523 . S
H769 C744 0.950 . S
H770 C746 0.950 . S
H771 C747 0.949 . S
H772 C749 0.950 . S
H773 C751 0.950 . S
C774 C775 1.349 . S
C774 C776 1.327 . S
C774 H799 0.950 . S
C775 C774 1.349 . S
C775 C791 1.349 . S
C776 C774 1.327 . S
C776 C795 1.429 . S
C776 H800 0.950 . S
C777 C794 1.574 . S
C777 C796 1.368 . S
C777 H801 0.949 . S
H778 C782 0.949 . S
C779 C780 1.349 . S
C779 C781 1.327 . S
C779 H802 0.950 . S
C780 C779 1.349 . S
C780 C792 1.349 . S
C781 C779 1.327 . S
C781 C797 1.429 . S
C781 H803 0.950 . S
C782 H778 0.949 . S
C782 C790 1.574 . S
C782 C798 1.368 . S
H783 C791 0.950 . S
H784 C789 0.950 . S
H785 C790 0.949 . S
H786 C792 0.950 . S
H787 C793 0.950 . S
H788 C794 0.949 . S
C789 H784 0.950 . S
C789 C791 1.327 . S
C789 C795 1.429 . S
C790 C782 1.574 . S
C790 H785 0.949 . S
C790 C796 1.368 . S
C791 C775 1.349 . S
C791 H783 0.950 . S
C791 C789 1.327 . S
C792 C780 1.349 . S
C792 H786 0.950 . S
C792 C793 1.327 . S
C793 H787 0.950 . S
C793 C792 1.327 . S
C793 C797 1.429 . S
C794 C777 1.574 . S
C794 H788 0.949 . S
C794 C798 1.368 . S
C795 C776 1.429 . S
C795 C789 1.429 . S
C795 C796 1.523 . S
C796 C777 1.368 . S
C796 C790 1.368 . S
C796 C795 1.523 . S
C797 C781 1.429 . S
C797 C793 1.429 . S
C797 C798 1.523 . S
C798 C782 1.368 . S
C798 C794 1.368 . S
C798 C797 1.523 . S
H799 C774 0.950 . S
H800 C776 0.950 . S
H801 C777 0.949 . S
H802 C779 0.950 . S
H803 C781 0.950 . S
C804 C805 1.349 . S
C804 C806 1.327 . S
C804 H829 0.950 . S
C805 C804 1.349 . S
C805 C821 1.349 . S
C806 C804 1.327 . S
C806 C825 1.429 . S
C806 H830 0.950 . S
C807 C824 1.574 . S
C807 C826 1.368 . S
C807 H831 0.949 . S
H808 C812 0.949 . S
C809 C810 1.349 . S
C809 C811 1.327 . S
C809 H832 0.950 . S
C810 C809 1.349 . S
C810 C822 1.349 . S
C811 C809 1.327 . S
C811 C827 1.429 . S
C811 H833 0.950 . S
C812 H808 0.949 . S
C812 C820 1.574 . S
C812 C828 1.368 . S
H813 C821 0.950 . S
H814 C819 0.950 . S
H815 C820 0.949 . S
H816 C822 0.950 . S
H817 C823 0.950 . S
H818 C824 0.949 . S
C819 H814 0.950 . S
C819 C821 1.327 . S
C819 C825 1.429 . S
C820 C812 1.574 . S
C820 H815 0.949 . S
C820 C826 1.368 . S
C821 C805 1.349 . S
C821 H813 0.950 . S
C821 C819 1.327 . S
C822 C810 1.349 . S
C822 H816 0.950 . S
C822 C823 1.327 . S
C823 H817 0.950 . S
C823 C822 1.327 . S
C823 C827 1.429 . S
C824 C807 1.574 . S
C824 H818 0.949 . S
C824 C828 1.368 . S
C825 C806 1.429 . S
C825 C819 1.429 . S
C825 C826 1.523 . S
C826 C807 1.368 . S
C826 C820 1.368 . S
C826 C825 1.523 . S
C827 C811 1.429 . S
C827 C823 1.429 . S
C827 C828 1.523 . S
C828 C812 1.368 . S
C828 C824 1.368 . S
C828 C827 1.523 . S
H829 C804 0.950 . S
H830 C806 0.950 . S
H831 C807 0.949 . S
H832 C809 0.950 . S
H833 C811 0.950 . S
C834 C835 1.349 . S
C834 C836 1.327 . S
C834 H859 0.950 . S
C835 C834 1.349 . S
C835 C851 1.349 . S
C836 C834 1.327 . S
C836 C855 1.429 . S
C836 H860 0.950 . S
C837 C854 1.574 . S
C837 C856 1.368 . S
C837 H861 0.949 . S
H838 C842 0.949 . S
C839 C840 1.349 . S
C839 C841 1.327 . S
C839 H862 0.950 . S
C840 C839 1.349 . S
C840 C852 1.349 . S
C841 C839 1.327 . S
C841 C857 1.429 . S
C841 H863 0.950 . S
C842 H838 0.949 . S
C842 C850 1.574 . S
C842 C858 1.368 . S
H843 C851 0.950 . S
H844 C849 0.950 . S
H845 C850 0.949 . S
H846 C852 0.950 . S
H847 C853 0.950 . S
H848 C854 0.949 . S
C849 H844 0.950 . S
C849 C851 1.327 . S
C849 C855 1.429 . S
C850 C842 1.574 . S
C850 H845 0.949 . S
C850 C856 1.368 . S
C851 C835 1.349 . S
C851 H843 0.950 . S
C851 C849 1.327 . S
C852 C840 1.349 . S
C852 H846 0.950 . S
C852 C853 1.327 . S
C853 H847 0.950 . S
C853 C852 1.327 . S
C853 C857 1.429 . S
C854 C837 1.574 . S
C854 H848 0.949 . S
C854 C858 1.368 . S
C855 C836 1.429 . S
C855 C849 1.429 . S
C855 C856 1.523 . S
C856 C837 1.368 . S
C856 C850 1.368 . S
C856 C855 1.523 . S
C857 C841 1.429 . S
C857 C853 1.429 . S
C857 C858 1.523 . S
C858 C842 1.368 . S
C858 C854 1.368 . S
C858 C857 1.523 . S
H859 C834 0.950 . S
H860 C836 0.950 . S
H861 C837 0.949 . S
H862 C839 0.950 . S
H863 C841 0.950 . S
C265 N2 0.671 . S
C270 C54 0.703 . S
C295 C87 0.703 . S
C300 N35 0.671 . S
C325 N68 0.671 . S
C330 C120 0.703 . S
C355 C21 0.703 . S
C360 N101 0.671 . S
C385 C252 0.703 . S
C390 N134 0.671 . S
C415 C153 0.703 . S
C420 N167 0.671 . S
C445 C186 0.703 . S
C450 N200 0.671 . S
C475 N233 0.671 . S
C480 C219 0.703 . S
C505 C84 1.502 . S
C510 C18 1.502 . S
C535 C51 1.502 . S
C540 C117 1.502 . S
C565 C150 1.502 . S
C570 C216 1.502 . S
C595 C183 1.502 . S
C600 C249 1.502 . S
C625 C7 0.598 . S
C630 C73 0.598 . S
C655 C40 0.598 . S
C660 C106 0.598 . S
C685 C205 0.598 . S
C690 C139 0.598 . S
C715 C238 0.598 . S
C720 C172 0.598 . S
C745 N13 1.659 . S
C750 N178 1.659 . S
C775 N211 1.659 . S
C780 N46 1.659 . S
C805 N244 1.659 . S
C810 N79 1.659 . S
C835 N112 1.659 . S
C840 N145 1.659 . S
