# Generated by pormake.
# Topology wme, (6)-cn, num edge types: 1
# Building blocks:
#     Node 0, Type 0, BuildingBlock: KUMJIN_clean_sbu_0, # of connection points: 6
#     Node 1, Type 0, BuildingBlock: KUMJIN_clean_sbu_0, # of connection points: 6
#     Node 2, Type 0, BuildingBlock: KUMJIN_clean_sbu_0, # of connection points: 6
#     Node 3, Type 0, BuildingBlock: KUMJIN_clean_sbu_0, # of connection points: 6
#     Node 4, Type 0, BuildingBlock: KUMJIN_clean_sbu_0, # of connection points: 6
#     Node 5, Type 0, BuildingBlock: KUMJIN_clean_sbu_0, # of connection points: 6
#     Node 6, Type 0, BuildingBlock: KUMJIN_clean_sbu_0, # of connection points: 6
#     Node 7, Type 0, BuildingBlock: KUMJIN_clean_sbu_0, # of connection points: 6
#     Node 8, Type 0, BuildingBlock: KUMJIN_clean_sbu_0, # of connection points: 6
#     Node 9, Type 0, BuildingBlock: KUMJIN_clean_sbu_0, # of connection points: 6
#     Node 10, Type 0, BuildingBlock: KUMJIN_clean_sbu_0, # of connection points: 6
#     Node 11, Type 0, BuildingBlock: KUMJIN_clean_sbu_0, # of connection points: 6
#     Edge 12, Type (0, 0), BuildingBlock: XUDNAN_clean_linker_2, # of connection points: 2
#     Edge 13, Type (0, 0), BuildingBlock: XUDNAN_clean_linker_2, # of connection points: 2
#     Edge 14, Type (0, 0), BuildingBlock: XUDNAN_clean_linker_2, # of connection points: 2
#     Edge 15, Type (0, 0), BuildingBlock: XUDNAN_clean_linker_2, # of connection points: 2
#     Edge 16, Type (0, 0), BuildingBlock: XUDNAN_clean_linker_2, # of connection points: 2
#     Edge 17, Type (0, 0), BuildingBlock: XUDNAN_clean_linker_2, # of connection points: 2
#     Edge 18, Type (0, 0), BuildingBlock: XUDNAN_clean_linker_2, # of connection points: 2
#     Edge 19, Type (0, 0), BuildingBlock: XUDNAN_clean_linker_2, # of connection points: 2
#     Edge 20, Type (0, 0), BuildingBlock: XUDNAN_clean_linker_2, # of connection points: 2
#     Edge 21, Type (0, 0), BuildingBlock: XUDNAN_clean_linker_2, # of connection points: 2
#     Edge 22, Type (0, 0), BuildingBlock: XUDNAN_clean_linker_2, # of connection points: 2
#     Edge 23, Type (0, 0), BuildingBlock: XUDNAN_clean_linker_2, # of connection points: 2
#     Edge 24, Type (0, 0), BuildingBlock: XUDNAN_clean_linker_2, # of connection points: 2
#     Edge 25, Type (0, 0), BuildingBlock: XUDNAN_clean_linker_2, # of connection points: 2
#     Edge 26, Type (0, 0), BuildingBlock: XUDNAN_clean_linker_2, # of connection points: 2
#     Edge 27, Type (0, 0), BuildingBlock: XUDNAN_clean_linker_2, # of connection points: 2
#     Edge 28, Type (0, 0), BuildingBlock: XUDNAN_clean_linker_2, # of connection points: 2
#     Edge 29, Type (0, 0), BuildingBlock: XUDNAN_clean_linker_2, # of connection points: 2
#     Edge 30, Type (0, 0), BuildingBlock: XUDNAN_clean_linker_2, # of connection points: 2
#     Edge 31, Type (0, 0), BuildingBlock: XUDNAN_clean_linker_2, # of connection points: 2
#     Edge 32, Type (0, 0), BuildingBlock: XUDNAN_clean_linker_2, # of connection points: 2
#     Edge 33, Type (0, 0), BuildingBlock: XUDNAN_clean_linker_2, # of connection points: 2
#     Edge 34, Type (0, 0), BuildingBlock: XUDNAN_clean_linker_2, # of connection points: 2
#     Edge 35, Type (0, 0), BuildingBlock: XUDNAN_clean_linker_2, # of connection points: 2
#     Edge 36, Type (0, 0), BuildingBlock: XUDNAN_clean_linker_2, # of connection points: 2
#     Edge 37, Type (0, 0), BuildingBlock: XUDNAN_clean_linker_2, # of connection points: 2
#     Edge 38, Type (0, 0), BuildingBlock: XUDNAN_clean_linker_2, # of connection points: 2
#     Edge 39, Type (0, 0), BuildingBlock: XUDNAN_clean_linker_2, # of connection points: 2
#     Edge 40, Type (0, 0), BuildingBlock: XUDNAN_clean_linker_2, # of connection points: 2
#     Edge 41, Type (0, 0), BuildingBlock: XUDNAN_clean_linker_2, # of connection points: 2
#     Edge 42, Type (0, 0), BuildingBlock: XUDNAN_clean_linker_2, # of connection points: 2
#     Edge 43, Type (0, 0), BuildingBlock: XUDNAN_clean_linker_2, # of connection points: 2
#     Edge 44, Type (0, 0), BuildingBlock: XUDNAN_clean_linker_2, # of connection points: 2
#     Edge 45, Type (0, 0), BuildingBlock: XUDNAN_clean_linker_2, # of connection points: 2
#     Edge 46, Type (0, 0), BuildingBlock: XUDNAN_clean_linker_2, # of connection points: 2
#     Edge 47, Type (0, 0), BuildingBlock: XUDNAN_clean_linker_2, # of connection points: 2
# Relax obj value: 0.094
# Max RMSD: 0.208
# Mean RMSD: 0.208
data_MOF--net-wme--node1-KUMJIN_clean_sbu_0--edge1-XUDNAN_clean_linker_2
_symmetry_space_group_name_H-M    P1
_symmetry_Int_Tables_number       1
_symmetry_cell_setting            triclinic
loop_
_symmetry_equiv_pos_as_xyz
'x, y, z'
_cell_length_a     38.589205
_cell_length_b     38.610536
_cell_length_c     54.814221
_cell_angle_alpha  89.891512
_cell_angle_beta   90.058435
_cell_angle_gamma 119.96113
loop_
_atom_site_label
_atom_site_type_symbol
_atom_site_fract_x
_atom_site_fract_y
_atom_site_fract_z
_atom_type_partial_charge
Eu0 Eu 0.21471 0.38078 0.11584 0.0
C1 C 0.35013 0.36861 0.12654 0.0
C2 C 0.37633 0.36072 0.0882 0.0
C3 C 0.42129 0.40929 0.11765 0.0
C4 C 0.34377 0.35092 0.10397 0.0
C5 C 0.38919 0.39745 0.13388 0.0
C6 C 0.41488 0.39085 0.09484 0.0
C7 C 0.36252 0.39862 0.17336 0.0
N8 N 0.31834 0.3566 0.14168 0.0
C9 C 0.32449 0.36991 0.16527 0.0
C10 C 0.39494 0.41306 0.15745 0.0
Eu11 Eu 0.25332 0.31368 0.1247 0.0
N12 N 0.30612 0.32222 0.09807 0.0
C13 C 0.30006 0.29843 0.07819 0.0
C14 C 0.36943 0.33894 0.06667 0.0
C15 C 0.33134 0.30691 0.062 0.0
H16 H 0.30054 0.35885 0.17818 0.0
H17 H 0.32617 0.28881 0.04593 0.0
H18 H 0.4401 0.39926 0.08278 0.0
H19 H 0.36678 0.40951 0.19192 0.0
H20 H 0.27086 0.27309 0.07446 0.0
H21 H 0.09398 0.33598 0.18298 0.0
H22 H 0.39359 0.34547 0.05408 0.0
H23 H 0.20443 0.38414 0.05371 0.0
H24 H 0.16276 0.36999 0.16859 0.0
H25 H 0.15287 0.35085 0.02269 0.0
H26 H 0.45132 0.43183 0.12282 0.0
H27 H 0.03847 0.2981 0.15419 0.0
H28 H 1.01583 0.27751 0.1115 0.0
H29 H 0.42437 0.43535 0.16375 0.0
H30 H 0.03198 0.27999 0.06802 0.0
N31 N 0.14836 0.34857 0.13191 0.0
C32 C 0.13975 0.35208 0.15573 0.0
C33 C 0.06907 0.31235 0.14772 0.0
C34 C 0.07764 0.31099 0.12311 0.0
C35 C 0.10028 0.3335 0.16402 0.0
C36 C 0.11807 0.32994 0.11551 0.0
H37 H 0.08275 0.30598 0.03487 0.0
N38 N 0.16623 0.35221 0.08382 0.0
C39 C 0.14531 0.34411 0.04178 0.0
C40 C 0.12727 0.33112 0.09093 0.0
C41 C 0.17488 0.36191 0.05963 0.0
C42 C 0.1058 0.31899 0.04873 0.0
C43 C 0.0961 0.31368 0.07351 0.0
O44 O 0.23392 0.43637 0.09504 0.0
O45 O 0.27139 0.37794 0.11399 0.0
O46 O 0.23596 0.32722 0.1614 0.0
O47 O 0.22463 0.38084 0.15723 0.0
O48 O 0.27224 0.42353 0.13468 0.0
O49 O 0.19412 0.4224 0.12551 0.0
O50 O 0.24896 0.27646 0.15612 0.0
O51 O 0.19796 0.31903 0.12799 0.0
O52 O 0.24228 0.37058 0.0803 0.0
O53 O 0.23508 0.30799 0.08559 0.0
O54 O 0.19211 0.27035 0.10901 0.0
O55 O 0.24503 0.2536 0.11977 0.0
C56 C 0.29428 0.4104 0.12542 0.0
C57 C 0.23199 0.49068 0.11499 0.0
C58 C 0.22619 0.55117 0.1183 0.0
C59 C 0.21067 0.51107 0.11075 0.0
C60 C 0.2635 0.57035 0.13018 0.0
C61 C 0.26923 0.51073 0.12669 0.0
C62 C 0.28477 0.5503 0.13424 0.0
C63 C 0.22968 0.35516 0.17082 0.0
C64 C 0.21361 0.44795 0.10834 0.0
C65 C 0.05611 0.29357 0.08118 0.0
C66 C 0.04691 0.29228 0.10591 0.0
C67 C 0.17271 0.2868 0.11761 0.0
C68 C 0.25949 0.22045 0.15157 0.0
C69 C 0.23934 0.17961 0.14506 0.0
C70 C 0.25132 0.15322 0.15462 0.0
C71 C 0.28417 0.16859 0.17064 0.0
C72 C 0.29236 0.23503 0.1674 0.0
C73 C 0.30459 0.20917 0.17681 0.0
C74 C 0.2402 0.3374 0.07137 0.0
C75 C 0.24362 0.24614 0.14293 0.0
H76 H 0.1817 0.49547 0.1019 0.0
H77 H 0.27673 0.60122 0.1359 0.0
H78 H 0.28618 0.49585 0.13016 0.0
H79 H 0.31351 0.56559 0.14329 0.0
H80 H 0.21366 0.16818 0.13302 0.0
H81 H 0.29449 0.14932 0.1781 0.0
H82 H 0.30827 0.26622 0.17269 0.0
H83 H 0.32995 0.22059 0.18907 0.0
Eu84 Eu 0.84191 0.18795 0.59949 0.0
C85 C 0.98212 0.30176 0.67107 0.0
C86 C 1.00056 0.36763 0.656 0.0
C87 C 1.01042 0.35841 0.6988 0.0
C88 C 0.98421 0.32624 0.65216 0.0
C89 C 0.99657 0.31773 0.69443 0.0
C90 C 1.01229 0.38334 0.67961 0.0
C91 C 0.98723 0.25338 0.70635 0.0
N92 N 0.96883 0.26278 0.6661 0.0
C93 C 0.97234 0.23875 0.68306 0.0
C94 C 0.99841 0.29276 0.71229 0.0
Eu95 Eu 0.94341 0.23948 0.62647 0.0
N96 N 0.9737 0.31013 0.62956 0.0
C97 C 0.98283 0.33445 0.60964 0.0
C98 C 1.0065 0.3922 0.63582 0.0
C99 C 0.99849 0.37563 0.61247 0.0
H100 H 0.96344 0.20817 0.67875 0.0
H101 H 1.00435 0.39454 0.59662 0.0
H102 H 0.02442 0.41496 0.68299 0.0
H103 H 0.98991 0.2342 0.71973 0.0
H104 H 0.97706 0.32222 0.59146 0.0
H105 H 0.76002 0.04237 0.6441 0.0
H106 H 1.01887 0.42412 0.63796 0.0
H107 H 0.84338 0.20871 0.53991 0.0
H108 H 0.79751 0.1156 0.64184 0.0
H109 H 0.82861 0.1735 0.50024 0.0
H110 H 1.02111 0.37116 0.71671 0.0
H111 H 0.7492 1.00199 0.60688 0.0
H112 H 0.75627 0.99991 0.56143 0.0
H113 H 1.00967 0.30392 0.7304 0.0
H114 H 0.77564 0.03575 0.5222 0.0
N115 N 0.80767 0.11746 0.60356 0.0
C116 C 0.7929 0.09866 0.62536 0.0
C117 C 0.76543 0.03432 0.60569 0.0
C118 C 0.77914 0.0537 0.58324 0.0
C119 C 0.77165 0.05695 0.62675 0.0
C120 C 0.79996 0.09589 0.5827 0.0
H121 H 0.80203 0.10043 0.49918 0.0
N122 N 0.82728 0.15635 0.56079 0.0
C123 C 0.82371 0.15701 0.51708 0.0
C124 C 0.81079 0.11602 0.56064 0.0
C125 C 0.83193 0.1768 0.5395 0.0
C126 C 0.80886 0.11579 0.51656 0.0
C127 C 0.80124 0.0946 0.53851 0.0
O128 O 0.79865 0.2031 0.584 0.0
O129 O 0.89006 0.24616 0.61518 0.0
O130 O 0.90343 0.23318 0.65797 0.0
O131 O 0.84052 0.18729 0.64184 0.0
O132 O 0.86246 0.24876 0.58317 0.0
O133 O 0.78525 0.17113 0.61807 0.0
O134 O 0.98087 0.21159 0.6294 0.0
O135 O 0.89329 0.18208 0.6119 0.0
O136 O 0.88924 0.19246 0.57192 0.0
O137 O 0.9437 0.25078 0.58592 0.0
O138 O 0.92144 0.17712 0.6424 0.0
O139 O 0.99968 0.26285 0.60622 0.0
C140 C 0.88803 0.26986 0.59975 0.0
C141 C 0.7301 0.1569 0.59236 0.0
C142 C 0.65775 0.1338 0.59184 0.0
C143 C 0.69717 0.16083 0.60017 0.0
C144 C 0.65225 0.10256 0.57618 0.0
C145 C 0.72311 0.12591 0.57631 0.0
C146 C 0.68461 0.09887 0.56845 0.0
C147 C 0.86462 0.2079 0.66036 0.0
C148 C 0.77166 0.18454 0.60086 0.0
C149 C 0.78277 0.05271 0.53901 0.0
C150 C 0.77166 0.03229 0.56134 0.0
C151 C 0.89381 0.15718 0.62665 0.0
C152 C 0.05064 0.25322 0.62407 0.0
C153 C 0.06928 0.22955 0.6229 0.0
C154 C 0.10843 0.24429 0.63209 0.0
C155 C 0.12877 0.28317 0.64182 0.0
C156 C 0.0717 0.29171 0.63414 0.0
C157 C 0.1106 0.30661 0.64274 0.0
C158 C 0.92556 0.22383 0.56879 0.0
C159 C 1.00906 0.23739 0.61535 0.0
H160 H 0.70236 0.18506 0.61232 0.0
H161 H 0.62269 0.08044 0.57 0.0
H162 H 0.74745 0.1225 0.56977 0.0
H163 H 0.6798 0.07481 0.55628 0.0
H164 H 0.05301 0.19952 0.61556 0.0
H165 H 0.15882 0.29535 0.64896 0.0
H166 H 0.05801 0.31025 0.63545 0.0
H167 H 0.12662 0.33636 0.65044 0.0
Eu168 Eu 0.66735 0.83825 0.10682 0.0
C169 C 0.70095 0.97926 0.17336 0.0
C170 C 0.65641 0.99942 0.15532 0.0
C171 C 0.67353 1.01191 0.1983 0.0
C172 C 0.68036 0.98141 0.15328 0.0
C173 C 0.69858 0.99542 0.19594 0.0
C174 C 0.65245 1.01387 0.17803 0.0
C175 C 0.74919 0.98181 0.21147 0.0
N176 N 0.72519 0.96351 0.17046 0.0
C177 C 0.75048 0.96608 0.18876 0.0
C178 C 0.72262 0.9959 0.21523 0.0
Eu179 Eu 0.72729 0.93902 0.13126 0.0
N180 N 0.68521 0.96763 0.13152 0.0
C181 C 0.66776 0.972 0.11098 0.0
C182 C 0.63793 1.00329 0.13435 0.0
C183 C 0.64376 0.98963 0.11206 0.0
H184 H 0.77126 0.95542 0.18587 0.0
H185 H 0.62929 0.99208 0.09575 0.0
H186 H 0.63389 0.02744 0.17997 0.0
H187 H 0.76896 0.98346 0.22598 0.0
H188 H 0.67008 0.95952 0.09398 0.0
H189 H 0.65667 0.71715 0.16492 0.0
H190 H 0.61943 0.01706 0.13514 0.0
H191 H 0.71063 0.86464 0.05048 0.0
H192 H 0.6374 0.76491 0.14963 0.0
H193 H 0.75835 0.85665 0.02564 0.0
H194 H 0.67105 0.02415 0.21555 0.0
H195 H 0.71048 0.71111 0.14457 0.0
H196 H 0.75781 0.72957 0.10951 0.0
H197 H 0.72183 1.00826 0.23281 0.0
H198 H 0.78478 0.76683 0.07137 0.0
N199 N 0.6836 0.79028 0.12269 0.0
C200 C 0.66245 0.76434 0.14122 0.0
C201 C 0.70292 0.73308 0.13814 0.0
C202 C 0.72137 0.75636 0.11752 0.0
C203 C 0.67268 0.73649 0.14973 0.0
C204 C 0.71051 0.78467 0.1099 0.0
H205 H 0.7849 0.81376 0.03995 0.0
N206 N 0.71263 0.83069 0.08067 0.0
C207 C 0.74982 0.84247 0.04338 0.0
C208 C 0.72527 0.80527 0.08822 0.0
C209 C 0.72325 0.84781 0.05803 0.0
C210 C 0.76455 0.8181 0.05144 0.0
C211 C 0.75171 0.79846 0.07384 0.0
O212 O 0.6317 0.80398 0.07503 0.0
O213 O 0.66678 0.89521 0.11462 0.0
O214 O 0.69593 0.90073 0.16383 0.0
O215 O 0.67153 0.83588 0.14885 0.0
O216 O 0.62091 0.84286 0.12901 0.0
O217 O 0.60758 0.78529 0.11082 0.0
O218 O 0.79223 0.9759 0.13732 0.0
O219 O 0.72951 0.88657 0.11523 0.0
O220 O 0.67681 0.88583 0.07643 0.0
O221 O 0.73535 0.93975 0.09064 0.0
O222 O 0.76057 0.91038 0.14766 0.0
O223 O 0.76192 0.99892 0.11569 0.0
C224 C 0.63339 0.8803 0.12584 0.0
C225 C 0.59295 0.73309 0.08282 0.0
C226 C 0.54644 0.65966 0.08321 0.0
C227 C 0.55424 0.69938 0.08761 0.0
C228 C 0.57828 0.65471 0.07507 0.0
C229 C 0.62304 0.72613 0.07396 0.0
C230 C 0.61592 0.68746 0.07047 0.0
C231 C 0.67993 0.86187 0.16691 0.0
C232 C 0.60337 0.7754 0.08798 0.0
C233 C 0.76412 0.77195 0.08203 0.0
C234 C 0.74893 0.75089 0.1038 0.0
C235 C 0.75216 0.88386 0.13096 0.0
C236 C 0.81959 0.04629 0.13732 0.0
C237 C 0.862 0.06734 0.1363 0.0
C238 C 0.8844 0.10514 0.14768 0.0
C239 C 0.86348 0.12155 0.15949 0.0
C240 C 0.79997 0.0635 0.14954 0.0
C241 C 0.82181 0.10089 0.16043 0.0
C242 C 0.70855 0.92263 0.07335 0.0
C243 C 0.79578 1.00671 0.12551 0.0
H244 H 0.53043 0.70405 0.09417 0.0
H245 H 0.57389 0.62508 0.07191 0.0
H246 H 0.65243 0.75072 0.06976 0.0
H247 H 0.63976 0.68282 0.06394 0.0
H248 H 0.87738 0.0541 0.12708 0.0
H249 H 0.87943 0.15073 0.16798 0.0
H250 H 0.76765 0.04818 0.15051 0.0
H251 H 0.80632 0.114 0.16965 0.0
Eu252 Eu 0.84618 0.66196 0.60949 0.0
C253 C 0.71003 0.66865 0.66815 0.0
C254 C 0.65058 0.61525 0.64933 0.0
C255 C 0.64923 0.63146 0.69201 0.0
C256 C 0.69124 0.64518 0.64805 0.0
C257 C 0.68881 0.66311 0.69008 0.0
C258 C 0.63014 0.60751 0.67165 0.0
C259 C 0.74506 0.72419 0.70505 0.0
N260 N 0.74794 0.6994 0.66549 0.0
C261 C 0.7646 0.72852 0.68281 0.0
C262 C 0.70734 0.69078 0.70893 0.0
Eu263 Eu 0.78081 0.7025 0.62853 0.0
N264 N 0.71165 0.6541 0.62669 0.0
C265 C 0.69198 0.63718 0.60541 0.0
C266 C 0.63121 0.59536 0.62789 0.0
C267 C 0.65176 0.60707 0.60575 0.0
H268 H 0.79321 0.75494 0.6796 0.0
H269 H 0.63673 0.59277 0.58893 0.0
H270 H 0.59909 0.58423 0.67308 0.0
H271 H 0.75895 0.74673 0.71907 0.0
H272 H 0.70735 0.64572 0.58814 0.0
H273 H 0.99464 0.73924 0.65068 0.0
H274 H 0.60005 0.5721 0.62809 0.0
H275 H 0.82219 0.63618 0.55076 0.0
H276 H 0.92102 0.69783 0.65007 0.0
H277 H 0.85483 0.65389 0.51027 0.0
H278 H 0.63261 0.62632 0.70883 0.0
H279 H 0.03181 0.76658 0.61219 0.0
H280 H 0.03061 0.77009 0.56646 0.0
H281 H 0.69207 0.68765 0.72607 0.0
H282 H 0.9925 0.74696 0.52818 0.0
N283 N 0.91639 0.70339 0.61179 0.0
C284 C 0.93688 0.71007 0.63318 0.0
C285 C 0.99947 0.74868 0.61182 0.0
C286 C 0.97848 0.73944 0.58975 0.0
C287 C 0.97861 0.73327 0.63358 0.0
C288 C 0.93639 0.71583 0.5903 0.0
H289 H 0.92707 0.70312 0.50706 0.0
N290 N 0.87508 0.67641 0.57001 0.0
C291 C 0.87208 0.6678 0.52655 0.0
C292 C 0.91508 0.70208 0.56875 0.0
C293 C 0.85373 0.65776 0.54947 0.0
C294 C 0.91284 0.69571 0.52482 0.0
C295 C 0.93506 0.71257 0.54608 0.0
O296 O 0.86888 0.62946 0.63103 0.0
O297 O 0.78454 0.64667 0.62142 0.0
O298 O 0.79133 0.67657 0.66275 0.0
O299 O 0.84522 0.66679 0.652 0.0
O300 O 0.78812 0.61371 0.593 0.0
O301 O 0.84049 0.60564 0.59636 0.0
O302 O 0.80855 0.76692 0.62071 0.0
O303 O 0.84299 0.71546 0.62077 0.0
O304 O 0.84339 0.70499 0.58092 0.0
O305 O 0.7784 0.68851 0.5884 0.0
O306 O 0.83694 0.74927 0.6481 0.0
O307 O 0.74651 0.72849 0.61283 0.0
C308 C 0.76389 0.61746 0.6074 0.0
C309 C 0.84137 0.55915 0.62482 0.0
C310 C 0.84387 0.49636 0.62837 0.0
C311 C 0.85984 0.53613 0.61942 0.0
C312 C 0.80906 0.48064 0.64282 0.0
C313 C 0.80684 0.54226 0.63925 0.0
C314 C 0.79093 0.50336 0.64818 0.0
C315 C 0.8207 0.66934 0.66835 0.0
C316 C 0.85815 0.60057 0.61523 0.0
C317 C 0.97666 0.73828 0.54542 0.0
C318 C 0.99835 0.7515 0.56722 0.0
C319 C 0.86222 0.74316 0.63609 0.0
C320 C 0.76694 0.79509 0.6257 0.0
C321 C 0.78955 0.83625 0.61962 0.0
C322 C 0.78222 0.8647 0.63137 0.0
C323 C 0.7516 0.85093 0.64897 0.0
C324 C 0.73675 0.78269 0.6434 0.0
C325 C 0.72922 0.81042 0.65488 0.0
C326 C 0.81 0.70452 0.57426 0.0
C327 C 0.77558 0.76538 0.61417 0.0
H328 H 0.88671 0.5494 0.60839 0.0
H329 H 0.795 0.45025 0.64958 0.0
H330 H 0.79211 0.55916 0.64353 0.0
H331 H 0.76405 0.49051 0.65919 0.0
H332 H 0.81311 0.84609 0.60612 0.0
H333 H 0.74441 0.87147 0.65801 0.0
H334 H 0.71892 0.75148 0.64843 0.0
H335 H 0.70577 0.80044 0.66844 0.0
Eu336 Eu 0.20506 0.84583 0.10436 0.0
C337 C 0.08067 0.70978 0.16848 0.0
C338 C 0.06166 0.64971 0.14492 0.0
C339 C 0.06368 0.64743 0.18916 0.0
C340 C 0.07451 0.69095 0.14593 0.0
C341 C 0.07436 0.68786 0.19027 0.0
C342 C 0.05735 0.62841 0.16656 0.0
C343 C 0.08679 0.74664 0.2129 0.0
N344 N 0.09115 0.74903 0.16919 0.0
C345 C 0.09288 0.76727 0.19092 0.0
C346 C 0.07805 0.70695 0.2126 0.0
Eu347 Eu 0.10454 0.78173 0.1309 0.0
N348 N 0.07851 0.71209 0.12515 0.0
C349 C 0.06595 0.6927 0.10327 0.0
C350 C 0.05207 0.63061 0.12226 0.0
C351 C 0.05331 0.65198 0.10146 0.0
H352 H 0.10128 0.79842 0.19141 0.0
H353 H 0.04461 0.63713 0.08395 0.0
H354 H 0.04802 0.59689 0.16604 0.0
H355 H 0.08943 0.76156 0.23008 0.0
H356 H 0.06609 0.70808 0.08686 0.0
H357 H 0.28039 0.98645 0.15507 0.0
H358 H 0.04225 0.59905 0.12075 0.0
H359 H 0.20463 0.83337 0.04394 0.0
H360 H 0.24633 0.91429 0.14984 0.0
H361 H 0.21807 0.87309 0.00611 0.0
H362 H 0.05923 0.6303 0.20571 0.0
H363 H 0.28863 0.03055 0.12014 0.0
H364 H 0.28162 0.03762 0.07518 0.0
H365 H 0.07352 0.6911 0.2297 0.0
H366 H 0.2648 1.0067 0.0345 0.0
N367 N 0.23503 0.91569 0.1118 0.0
C368 C 0.24912 0.93234 0.13422 0.0
C369 C 0.27372 0.99847 0.11755 0.0
C370 C 0.26103 0.9816 0.09443 0.0
C371 C 0.26869 0.97373 0.13737 0.0
C372 C 0.24233 0.93964 0.09202 0.0
H373 H 0.24179 0.94553 0.00855 0.0
N374 N 0.21896 0.88252 0.06743 0.0
C375 C 0.22236 0.88733 0.02371 0.0
C376 C 0.23354 0.92242 0.06915 0.0
C377 C 0.21487 0.86498 0.04513 0.0
C378 C 0.23561 0.92817 0.02517 0.0
C379 C 0.24217 0.94639 0.04806 0.0
O380 O 0.25683 0.84751 0.08631 0.0
O381 O 0.15933 0.78364 0.11543 0.0
O382 O 0.15053 0.7864 0.15793 0.0
O383 O 0.20757 0.84549 0.14657 0.0
O384 O 0.18967 0.78909 0.08348 0.0
O385 O 0.25439 0.84818 0.12544 0.0
O386 O 0.0664 0.80455 0.11667 0.0
O387 O 0.15084 0.84339 0.12025 0.0
O388 O 0.155 0.8381 0.07769 0.0
O389 O 0.10143 0.77672 0.08975 0.0
O390 O 0.12152 0.83894 0.15256 0.0
O391 O 0.04094 0.75327 0.14018 0.0
C392 C 0.1633 0.76392 0.09838 0.0
C393 C 0.31893 0.88138 0.1077 0.0
C394 C 0.38975 0.90028 0.11093 0.0
C395 C 0.34907 0.87067 0.10792 0.0
C396 C 0.39975 0.94033 0.11371 0.0
C397 C 0.33022 0.92189 0.10963 0.0
C398 C 0.37021 0.95103 0.11283 0.0
C399 C 0.18625 0.81687 0.1627 0.0
C400 C 0.27587 0.85048 0.10654 0.0
C401 C 0.25833 0.98785 0.05046 0.0
C402 C 0.26789 1.00545 0.07362 0.0
C403 C 0.14786 0.86362 0.13731 0.0
C404 C 1.0152 0.79731 0.14352 0.0
C405 C 0.98309 0.80068 0.13379 0.0
C406 C 0.96411 0.81708 0.14797 0.0
C407 C 0.97832 0.83051 0.17172 0.0
C408 C 0.02836 0.81085 0.1673 0.0
C409 C 1.01012 0.82738 0.18124 0.0
C410 C 0.11954 0.80572 0.0736 0.0
C411 C 0.03506 0.77972 0.12911 0.0
H412 H 0.34098 0.8396 0.10595 0.0
H413 H 0.4307 0.96355 0.11585 0.0
H414 H 0.30821 0.93114 0.10874 0.0
H415 H 0.37836 0.98212 0.11451 0.0
H416 H 0.97267 0.79016 0.11546 0.0
H417 H 0.96524 0.84412 0.1829 0.0
H418 H 0.05276 0.80865 0.17518 0.0
H419 H 1.02076 0.83792 0.19952 0.0
Eu420 Eu 0.3732 0.18501 0.61148 0.0
C421 C 0.37311 0.03954 0.62393 0.0
C422 C 0.36231 1.00104 0.58698 0.0
C423 C 0.41386 1.00893 0.6155 0.0
C424 C 0.35335 0.02525 0.60198 0.0
C425 C 0.40298 0.03061 0.63117 0.0
C426 C 0.39353 0.99412 0.59346 0.0
C427 C 0.40753 0.06288 0.66956 0.0
N428 N 0.36217 0.06076 0.63864 0.0
C429 C 0.37824 0.07148 0.66154 0.0
C430 C 0.42048 0.04299 0.65416 0.0
Eu431 Eu 0.31496 0.07745 0.62225 0.0
N432 N 0.32349 0.03264 0.59609 0.0
C433 C 0.29806 1.0122 0.57716 0.0
C434 C 0.33861 0.98314 0.5664 0.0
C435 C 0.30576 0.98803 0.5618 0.0
H436 H 0.36938 0.08713 0.67391 0.0
H437 H 0.28647 0.97337 0.54634 0.0
H438 H 0.40132 0.97627 0.58192 0.0
H439 H 0.42043 0.07205 0.68757 0.0
H440 H 0.27287 0.0163 0.57317 0.0
H441 H 0.29313 0.25265 0.65391 0.0
H442 H 0.34454 0.96437 0.55446 0.0
H443 H 0.4189 0.20746 0.55619 0.0
H444 H 0.33093 0.21696 0.65313 0.0
H445 H 0.41534 0.23793 0.51743 0.0
H446 H 0.43719 1.00247 0.6206 0.0
H447 H 0.27859 0.27647 0.6155 0.0
H448 H 0.28908 0.287 0.57039 0.0
H449 H 0.44346 0.03671 0.66036 0.0
H450 H 0.32174 0.28234 0.53314 0.0
N451 N 0.33587 0.21815 0.6144 0.0
C452 C 0.32439 0.22651 0.63612 0.0
C453 C 0.29489 0.26036 0.61495 0.0
C454 C 0.30949 0.25448 0.59291 0.0
C455 C 0.30313 0.24707 0.63668 0.0
C456 C 0.33061 0.23336 0.5932 0.0
H457 H 0.36936 0.26479 0.51334 0.0
N458 N 0.37333 0.2145 0.57348 0.0
C459 C 0.39647 0.23594 0.53259 0.0
C460 C 0.3498 0.23145 0.57217 0.0
C461 C 0.39839 0.21867 0.5546 0.0
C462 C 0.37039 0.25096 0.53034 0.0
C463 C 0.3475 0.24986 0.55043 0.0
O464 O 0.43379 0.21307 0.62688 0.0
O465 O 0.37747 0.1305 0.62099 0.0
O466 O 0.32574 0.10668 0.65903 0.0
O467 O 0.36088 0.17588 0.65304 0.0
O468 O 0.41063 0.16462 0.59135 0.0
O469 O 0.41016 0.25029 0.6162 0.0
O470 O 0.28029 0.04029 0.65341 0.0
O471 O 0.31388 0.13532 0.62327 0.0
O472 O 0.34117 0.15263 0.57566 0.0
O473 O 0.33026 0.08865 0.58248 0.0
O474 O 0.26727 0.08895 0.60534 0.0
O475 O 0.25671 0.02385 0.61719 0.0
C476 C 0.40363 0.13482 0.60527 0.0
C477 C 0.47992 0.27693 0.6108 0.0
C478 C 0.53925 0.34356 0.60483 0.0
C479 C 0.50297 0.3179 0.61721 0.0
C480 C 0.552 0.32714 0.58635 0.0
C481 C 0.4936 0.26201 0.59208 0.0
C482 C 0.52934 0.28691 0.58005 0.0
C483 C 0.34405 0.14371 0.66744 0.0
C484 C 0.44176 0.24959 0.62346 0.0
C485 C 0.32412 0.26837 0.54974 0.0
C486 C 0.30543 0.27094 0.57096 0.0
C487 C 0.28137 0.12535 0.61243 0.0
C488 C 0.20956 1.00901 0.64799 0.0
C489 C 0.1753 0.97072 0.64566 0.0
C490 C 0.13689 0.96509 0.6505 0.0
C491 C 0.13314 0.99798 0.6576 0.0
C492 C 0.20499 0.04115 0.65557 0.0
C493 C 0.16703 0.03572 0.6602 0.0
C494 C 0.33182 0.11634 0.56797 0.0
C495 C 0.24934 0.01626 0.64023 0.0
H496 H 0.49248 0.32971 0.63153 0.0
H497 H 0.58003 0.3453 0.57689 0.0
H498 H 0.47684 0.23093 0.5868 0.0
H499 H 0.5397 0.27489 0.56581 0.0
H500 H 0.17844 0.94559 0.63991 0.0
H501 H 0.10396 0.99425 0.66155 0.0
H502 H 0.23088 0.07052 0.65761 0.0
H503 H 0.16387 0.06086 0.66583 0.0
Eu504 Eu 0.67595 0.84563 0.40292 0.0
C505 C 0.73151 0.76294 0.33083 0.0
C506 C 0.68019 0.6931 0.33161 0.0
C507 C 0.71894 0.72212 0.29465 0.0
C508 C 0.70157 0.73058 0.34318 0.0
C509 C 0.74136 0.75887 0.30669 0.0
C510 C 0.68827 0.68932 0.30706 0.0
C511 C 0.79681 0.82671 0.30898 0.0
N512 N 0.75225 0.79816 0.34293 0.0
C513 C 0.78554 0.82945 0.33281 0.0
C514 C 0.77429 0.79146 0.29572 0.0
Eu515 Eu 0.73364 0.7998 0.38381 0.0
N516 N 0.69553 0.73503 0.36708 0.0
C517 C 0.67151 0.70252 0.38105 0.0
C518 C 0.65259 0.66025 0.34537 0.0
C519 C 0.64877 0.66486 0.37033 0.0
H520 H 0.8028 0.85666 0.34315 0.0
H521 H 0.62866 0.63938 0.38135 0.0
H522 H 0.67192 0.66085 0.29778 0.0
H523 H 0.82278 0.85177 0.30082 0.0
H524 H 0.66957 0.70578 0.40048 0.0
H525 H 0.72807 0.97869 0.3443 0.0
H526 H 0.63534 0.63097 0.33715 0.0
H527 H 0.666 0.84235 0.46448 0.0
H528 H 0.69251 0.9077 0.35328 0.0
H529 H 0.69285 0.88831 0.49947 0.0
H530 H 0.72573 0.71847 0.27598 0.0
H531 H 0.76291 0.02782 0.377 0.0
H532 H 0.77891 0.04177 0.42109 0.0
H533 H 0.78309 0.78943 0.27726 0.0
H534 H 0.76997 0.01726 0.46322 0.0
N535 N 0.70881 0.91431 0.39113 0.0
C536 C 0.70829 0.92769 0.36802 0.0
C537 C 0.74769 0.99616 0.38121 0.0
C538 C 0.74619 0.98273 0.40507 0.0
C539 C 0.72812 0.96854 0.36271 0.0
C540 C 0.72603 0.94109 0.40969 0.0
H541 H 0.73852 0.96044 0.49253 0.0
N542 N 0.69981 0.88726 0.43798 0.0
C543 C 0.70176 0.89961 0.4811 0.0
C544 C 0.72166 0.92722 0.43361 0.0
C545 C 0.6869 0.87368 0.46121 0.0
C546 C 0.72752 0.94025 0.4771 0.0
C547 C 0.73657 0.95472 0.45318 0.0
O548 O 0.62045 0.81802 0.42435 0.0
O549 O 0.67322 0.78592 0.39889 0.0
O550 O 0.71427 0.81804 0.3491 0.0
O551 O 0.67225 0.8426 0.36121 0.0
O552 O 0.62915 0.79302 0.38191 0.0
O553 O 0.63427 0.86845 0.40088 0.0
O554 O 0.79765 0.82337 0.38992 0.0
O555 O 0.73382 0.85838 0.38698 0.0
O556 O 0.70883 0.83259 0.4347 0.0
O557 O 0.70623 0.77584 0.42059 0.0
O558 O 0.78325 0.85781 0.39993 0.0
O559 O 0.75614 0.76097 0.39684 0.0
C560 C 0.64081 0.76787 0.38681 0.0
C561 C 0.56533 0.82253 0.40726 0.0
C562 C 0.50548 0.82797 0.39846 0.0
C563 C 0.5454 0.84504 0.40699 0.0
C564 C 0.48599 0.78807 0.39039 0.0
C565 C 0.54452 0.78257 0.39947 0.0
C566 C 0.50529 0.76565 0.39103 0.0
C567 C 0.68982 0.83194 0.3443 0.0
C568 C 0.6078 0.84117 0.41529 0.0
C569 C 0.75807 0.99587 0.44841 0.0
C570 C 0.76302 1.00982 0.42442 0.0
C571 C 0.76734 0.87974 0.39696 0.0
C572 C 0.82119 0.77871 0.382 0.0
C573 C 0.86261 0.79972 0.38717 0.0
C574 C 0.88943 0.79183 0.37399 0.0
C575 C 0.87387 0.76236 0.35569 0.0
C576 C 0.80673 0.74949 0.36365 0.0
C577 C 0.83295 0.74147 0.35062 0.0
C578 C 0.71288 0.80078 0.43859 0.0
C579 C 0.79372 0.7887 0.39507 0.0
H580 H 0.56104 0.87581 0.41314 0.0
H581 H 0.45531 0.77379 0.38407 0.0
H582 H 0.55842 0.76422 0.39989 0.0
H583 H 0.4896 0.73483 0.38506 0.0
H584 H 0.87395 0.82263 0.40113 0.0
H585 H 0.89328 0.75493 0.34548 0.0
H586 H 0.77519 0.73288 0.3593 0.0
H587 H 0.82146 0.71884 0.33653 0.0
Eu588 Eu 0.84669 0.66062 0.90544 0.0
C589 C 0.97259 0.66166 0.83532 0.0
C590 C 0.99539 0.62103 0.856 0.0
C591 C 0.99386 0.62221 0.81171 0.0
C592 C 0.98 0.64741 0.85692 0.0
C593 C 0.98044 0.64991 0.81256 0.0
C594 C 1.00136 0.60786 0.83336 0.0
C595 C 0.96481 0.69658 0.79298 0.0
N596 N 0.95987 0.68869 0.8365 0.0
C597 C 0.95726 0.70726 0.81585 0.0
C598 C 0.97585 0.66734 0.79128 0.0
Eu599 Eu 0.94578 0.70288 0.87603 0.0
N600 N 0.97479 0.66125 0.87867 0.0
C601 C 0.98798 0.65271 0.89979 0.0
C602 C 1.00579 0.60973 0.87781 0.0
C603 C 1.00284 0.62629 0.89972 0.0
H604 H 0.94747 0.72893 0.81689 0.0
H605 H 1.01206 0.61876 0.91663 0.0
H606 H 1.01279 0.58734 0.8324 0.0
H607 H 0.96188 0.71078 0.77669 0.0
H608 H 0.98669 0.66528 0.917 0.0
H609 H 0.76724 0.73437 0.87066 0.0
H610 H 1.01747 0.58938 0.87785 0.0
H611 H 0.85375 0.63713 0.96359 0.0
H612 H 0.80085 0.69462 0.8683 0.0
H613 H 0.84456 0.65574 0.00515 0.0
H614 H 0.9996 0.61253 0.7944 0.0
H615 H 0.762 0.76219 0.91016 0.0
H616 H 0.77329 0.76719 0.95548 0.0
H617 H 0.98165 0.6591 0.7735 0.0
H618 H 0.79452 0.74586 0.99217 0.0
N619 N 0.81523 0.69999 0.9061 0.0
C620 C 0.79893 0.70649 0.88569 0.0
C621 C 0.77676 0.7446 0.90928 0.0
C622 C 0.79171 0.73617 0.93033 0.0
C623 C 0.77976 0.72906 0.88693 0.0
C624 C 0.81052 0.71298 0.92816 0.0
H625 H 0.8205 0.70377 0.01089 0.0
N626 N 0.83645 0.67531 0.94596 0.0
C627 C 0.83818 0.66868 0.98945 0.0
C628 C 0.82185 0.70053 0.94876 0.0
C629 C 0.84321 0.65809 0.96588 0.0
C630 C 0.82475 0.69591 0.99261 0.0
C631 C 0.81561 0.71159 0.97215 0.0
O632 O 0.80061 0.60187 0.91894 0.0
O633 O 0.89235 0.64656 0.88991 0.0
O634 O 0.899 0.66528 0.8478 0.0
O635 O 0.84234 0.66384 0.86366 0.0
O636 O 0.86434 0.61774 0.92179 0.0
O637 O 0.7905 0.62459 0.88548 0.0
O638 O 0.98288 0.7621 0.89283 0.0
O639 O 0.89876 0.71523 0.88981 0.0
O640 O 0.89683 0.70407 0.93127 0.0
O641 O 0.94991 0.69724 0.91712 0.0
O642 O 0.92563 0.74304 0.85743 0.0
O643 O 1.00814 0.74271 0.86504 0.0
C644 C 0.88993 0.62123 0.90555 0.0
C645 C 0.73328 0.58316 0.90943 0.0
C646 C 0.66061 0.53549 0.90872 0.0
C647 C 0.70004 0.54724 0.90076 0.0
C648 C 0.65537 0.5609 0.92481 0.0
C649 C 0.7266 0.6071 0.92574 0.0
C650 C 0.688 0.59621 0.9332 0.0
C651 C 0.86268 0.66 0.8453 0.0
C652 C 0.77494 0.59609 0.90168 0.0
C653 C 0.7992 0.73673 0.97437 0.0
C654 C 0.78714 0.7489 0.95348 0.0
C655 C 0.90028 0.73971 0.87391 0.0
C656 C 0.02979 0.81212 0.86621 0.0
C657 C 0.0621 0.84756 0.87609 0.0
C658 C 0.0771 0.88468 0.86364 0.0
C659 C 0.05821 0.88556 0.84183 0.0
C660 C 1.01287 0.81444 0.84404 0.0
C661 C 0.02664 0.85081 0.83214 0.0
C662 C 0.93277 0.70771 0.93424 0.0
C663 C 1.01343 0.77262 0.87859 0.0
H664 H 0.70492 0.5283 0.88834 0.0
H665 H 0.62578 0.55357 0.9309 0.0
H666 H 0.75129 0.63428 0.93281 0.0
H667 H 0.68334 0.61523 0.94567 0.0
H668 H 0.07583 0.84608 0.89301 0.0
H669 H 0.0677 0.91336 0.83216 0.0
H670 H 0.9889 0.78808 0.83577 0.0
H671 H 1.01281 0.85207 0.81522 0.0
Eu672 Eu 0.21008 0.84899 0.39742 0.0
C673 C 0.31796 0.9872 0.325 0.0
C674 C 0.38459 0.99987 0.33424 0.0
C675 C 0.36873 1.01165 0.29324 0.0
C676 C 0.34483 0.98681 0.3414 0.0
C677 C 0.32999 1.00108 0.30096 0.0
C678 C 0.39599 1.0109 0.30985 0.0
C679 C 0.26628 0.99744 0.29496 0.0
N680 N 0.28082 0.97677 0.33315 0.0
C681 C 0.25557 0.98331 0.31885 0.0
C682 C 0.30334 1.00561 0.28579 0.0
Eu683 Eu 0.26461 0.95306 0.374 0.0
N684 N 0.33309 0.97726 0.36493 0.0
C685 C 0.36073 0.98447 0.38265 0.0
C686 C 0.41214 1.00338 0.35206 0.0
C687 C 0.40035 0.99654 0.37647 0.0
H688 H 0.22716 0.97795 0.32571 0.0
H689 H 0.42178 1.0008 0.39057 0.0
H690 H 0.42625 0.02053 0.30392 0.0
H691 H 0.24592 1.00202 0.28363 0.0
H692 H 0.35225 0.98033 0.40161 0.0
H693 H 0.07096 0.76417 0.34449 0.0
H694 H 0.44293 1.01316 0.34732 0.0
H695 H 0.22 0.85129 0.45947 0.0
H696 H 0.14264 0.79973 0.35059 0.0
H697 H 0.17743 0.83639 0.49582 0.0
H698 H 0.37834 0.02179 0.27473 0.0
H699 H 0.02537 0.7528 0.37893 0.0
H700 H 1.01606 0.75949 0.42314 0.0
H701 H 0.31153 0.01652 0.26727 0.0
H702 H 0.04486 0.77959 0.46407 0.0
N703 N 0.14021 0.81281 0.38838 0.0
C704 C 0.12434 0.79721 0.36597 0.0
C705 C 0.05743 0.76938 0.38184 0.0
C706 C 0.07335 0.78302 0.40501 0.0
C707 C 0.08303 0.77592 0.36235 0.0
C708 C 0.11542 0.80435 0.40797 0.0
H709 H 0.10452 0.80778 0.49122 0.0
N710 N 0.17206 0.83419 0.43413 0.0
C711 C 0.16422 0.83089 0.47781 0.0
C712 C 0.13171 0.81575 0.43126 0.0
C713 C 0.1882 0.83946 0.45712 0.0
C714 C 0.12312 0.81476 0.47512 0.0
C715 C 0.10625 0.80605 0.45178 0.0
O716 O 0.23087 0.81702 0.42134 0.0
O717 O 0.27174 0.90356 0.39182 0.0
O718 O 0.25413 0.91332 0.34124 0.0
O719 O 0.20627 0.84973 0.35559 0.0
O720 O 0.26223 0.84996 0.37828 0.0
O721 O 0.19425 0.78748 0.38963 0.0
O722 O 0.23691 0.98944 0.38286 0.0
O723 O 0.2068 0.90274 0.38823 0.0
O724 O 0.2233 0.89763 0.42684 0.0
O725 O 0.2821 0.94996 0.41288 0.0
O726 O 0.20184 0.93446 0.35976 0.0
O727 O 0.3 1.01462 0.38722 0.0
C728 C 0.28881 0.88661 0.38159 0.0
C729 C 0.19053 0.7447 0.42172 0.0
C730 C 0.17011 0.6731 0.42486 0.0
C731 C 0.19266 0.711 0.41338 0.0
C732 C 0.1452 0.66979 0.44455 0.0
C733 C 0.16536 0.73984 0.4414 0.0
C734 C 0.14302 0.70281 0.45271 0.0
C735 C 0.22781 0.87498 0.33782 0.0
C736 C 0.21245 0.78374 0.40869 0.0
C737 C 0.06468 0.78675 0.44855 0.0
C738 C 0.04829 0.7752 0.42525 0.0
C739 C 0.18196 0.90523 0.37453 0.0
C740 C 0.27699 0.0585 0.3744 0.0
C741 C 0.25659 0.07868 0.38176 0.0
C742 C 0.26245 0.11337 0.36922 0.0
C743 C 0.28934 0.12741 0.34944 0.0
C744 C 0.30328 0.0733 0.35446 0.0
C745 C 0.30936 0.10748 0.34215 0.0
C746 C 0.25547 0.93327 0.43031 0.0
C747 C 0.27046 0.02177 0.38717 0.0
H748 H 0.21186 0.71438 0.39808 0.0
H749 H 0.12658 0.64134 0.45347 0.0
H750 H 0.16226 0.76432 0.44793 0.0
H751 H 0.12347 0.69955 0.46776 0.0
H752 H 0.23592 0.06709 0.39696 0.0
H753 H 0.2955 0.15433 0.33971 0.0
H754 H 0.31931 0.05854 0.34839 0.0
H755 H 0.3299 0.11872 0.32689 0.0
Eu756 Eu 0.37108 0.19768 0.90463 0.0
C757 C 0.34609 0.30266 0.82444 0.0
C758 C 0.39123 0.37123 0.8363 0.0
C759 C 0.37236 0.3553 0.79375 0.0
C760 C 0.36737 0.33038 0.84234 0.0
C761 C 0.34746 0.31496 0.80004 0.0
C762 C 0.39436 0.38336 0.81184 0.0
C763 C 0.29765 0.24709 0.79011 0.0
N764 N 0.32236 0.26393 0.83109 0.0
C765 C 0.29759 0.23626 0.81445 0.0
C766 C 0.32286 0.28657 0.78283 0.0
Eu767 Eu 0.32272 0.24792 0.87281 0.0
N768 N 0.36285 0.31779 0.86585 0.0
C769 C 0.37903 0.345 0.88433 0.0
C770 C 0.41016 0.39883 0.85509 0.0
C771 C 0.40355 0.3857 0.87925 0.0
H772 H 0.27784 0.20568 0.8198 0.0
H773 H 0.41727 0.40688 0.89399 0.0
H774 H 0.41277 0.41454 0.80684 0.0
H775 H 0.2782 0.22496 0.77699 0.0
H776 H 0.37412 0.33563 0.90313 0.0
H777 H 0.29575 0.04034 0.87866 0.0
H778 H 0.4289 0.43041 0.85121 0.0
H779 H 0.40464 0.23547 0.96044 0.0
H780 H 0.33487 0.11315 0.87227 0.0
H781 H 0.39171 0.21378 0.00355 0.0
H782 H 0.37413 0.36523 0.77506 0.0
H783 H 0.27133 1.01305 0.91992 0.0
H784 H 0.27085 0.02578 0.96485 0.0
H785 H 0.32277 0.29489 0.76395 0.0
H786 H 0.29694 0.07332 0.99904 0.0
N787 N 0.3322 0.12733 0.90942 0.0
C788 C 0.32447 0.10176 0.89036 0.0
C789 C 0.28856 0.04512 0.91723 0.0
C790 C 0.29877 0.0714 0.93694 0.0
C791 C 0.30225 0.06039 0.89391 0.0
C792 C 0.32145 0.11289 0.93242 0.0
H793 H 0.34276 0.14345 0.01367 0.0
N794 N 0.36193 0.1785 0.94643 0.0
C795 C 0.37579 0.1926 0.98912 0.0
C796 C 0.33649 0.13946 0.95158 0.0
C797 C 0.38313 0.20474 0.96471 0.0
C798 C 0.348 0.15293 0.99476 0.0
C799 C 0.32873 0.12554 0.97589 0.0
O800 O 0.43216 0.21378 0.9155 0.0
O801 O 0.3811 0.25335 0.88549 0.0
O802 O 0.35886 0.23832 0.84427 0.0
O803 O 0.36241 0.18551 0.86286 0.0
O804 O 0.41605 0.26053 0.9159 0.0
O805 O 0.40475 0.17401 0.88531 0.0
O806 O 0.25739 0.21931 0.87091 0.0
O807 O 0.31381 0.19229 0.89188 0.0
O808 O 0.33632 0.2138 0.93259 0.0
O809 O 0.33528 0.26634 0.91228 0.0
O810 O 0.28023 0.18411 0.86074 0.0
O811 O 0.29093 0.27738 0.88734 0.0
C812 C 0.40917 0.27916 0.89877 0.0
C813 C 0.45002 0.16363 0.90943 0.0
C814 C 0.49819 0.13906 0.91041 0.0
C815 C 0.48513 0.1647 0.90044 0.0
C816 C 0.47484 0.112 0.92886 0.0
C817 C 0.42823 0.13657 0.92806 0.0
C818 C 0.44037 0.11087 0.93755 0.0
C819 C 0.36389 0.20692 0.84324 0.0
C820 C 0.43564 0.19039 0.89978 0.0
C821 C 0.30363 0.08456 0.9805 0.0
C822 C 0.28876 0.05749 0.96104 0.0
C823 C 0.28718 0.16607 0.87819 0.0
C824 C 0.22826 0.26024 0.86875 0.0
C825 C 0.18715 0.24046 0.87495 0.0
C826 C 0.16031 0.24958 0.86271 0.0
C827 C 0.17573 0.27919 0.84442 0.0
C828 C 0.24246 0.28933 0.85034 0.0
C829 C 0.21633 0.29878 0.83835 0.0
C830 C 0.33185 0.24586 0.93226 0.0
C831 C 0.25556 0.24888 0.88076 0.0
H832 H 0.50243 0.18574 0.88618 0.0
H833 H 0.48305 0.09124 0.93656 0.0
H834 H 0.40173 0.1353 0.93537 0.0
H835 H 0.42295 0.08995 0.95181 0.0
H836 H 0.17604 0.21748 0.8889 0.0
H837 H 0.15646 0.28767 0.83492 0.0
H838 H 0.27372 0.30461 0.84515 0.0
H839 H 0.2276 0.32142 0.82422 0.0
Eu840 Eu 0.21091 0.37863 0.40772 0.0
C841 C 0.08326 0.37387 0.33587 0.0
C842 C 0.06223 0.41727 0.35429 0.0
C843 C 0.06114 0.41053 0.31018 0.0
C844 C 0.07713 0.39064 0.35643 0.0
C845 C 0.07432 0.38272 0.31253 0.0
C846 C 0.05522 0.42788 0.33104 0.0
C847 C 0.08883 0.33344 0.29585 0.0
N848 N 0.0959 0.34711 0.3388 0.0
C849 C 0.09767 0.32597 0.31934 0.0
C850 C 0.07765 0.36237 0.29236 0.0
Eu851 Eu 0.11112 0.33613 0.37891 0.0
N852 N 0.08361 0.37919 0.37859 0.0
C853 C 0.07284 0.39096 0.39937 0.0
C854 C 0.05369 0.43148 0.3756 0.0
C855 C 0.05847 0.41778 0.39822 0.0
H856 H 0.10674 0.30388 0.32194 0.0
H857 H 0.05118 0.42793 0.41482 0.0
H858 H 0.04414 0.44857 0.32902 0.0
H859 H 0.09065 0.31687 0.28049 0.0
H860 H 0.07627 0.38082 0.41704 0.0
H861 H 0.29156 0.30603 0.37197 0.0
H862 H 0.04242 0.45213 0.37475 0.0
H863 H 0.20757 0.40519 0.46628 0.0
H864 H 0.25824 0.3455 0.3695 0.0
H865 H 0.21984 0.38815 0.50747 0.0
H866 H 0.05451 0.41806 0.29238 0.0
H867 H 0.29854 0.27977 0.41164 0.0
H868 H 0.28972 0.27664 0.4569 0.0
H869 H 0.07083 0.36813 0.27413 0.0
H870 H 0.27021 0.29889 0.49372 0.0
N871 N 0.24408 0.34084 0.40739 0.0
C872 C 0.25998 0.33392 0.38696 0.0
C873 C 0.28356 0.29714 0.41073 0.0
C874 C 0.26966 0.30649 0.43185 0.0
C875 C 0.27943 0.31166 0.38828 0.0
C876 C 0.2504 0.32933 0.42969 0.0
H877 H 0.24486 0.34085 0.51271 0.0
N878 N 0.22402 0.3667 0.44818 0.0
C879 C 0.22533 0.37485 0.49165 0.0
C880 C 0.23973 0.34224 0.45058 0.0
C881 C 0.21852 0.38452 0.46823 0.0
C882 C 0.23934 0.34805 0.49452 0.0
C883 C 0.24753 0.33204 0.4739 0.0
O884 O 0.27335 0.4201 0.41831 0.0
O885 O 0.16484 0.3922 0.39305 0.0
O886 O 0.15877 0.37237 0.35071 0.0
O887 O 0.21212 0.36732 0.36664 0.0
O888 O 0.19192 0.41924 0.4257 0.0
O889 O 0.24719 0.4358 0.3889 0.0
O890 O 0.0554 0.30049 0.39929 0.0
O891 O 0.15745 0.32378 0.39435 0.0
O892 O 0.16209 0.33885 0.43543 0.0
O893 O 0.1068 0.34066 0.41998 0.0
O894 O 0.12625 0.28925 0.36497 0.0
O895 O 0.06506 0.27732 0.36588 0.0
C896 C 0.167 0.41687 0.40911 0.0
C897 C 0.31716 0.46087 0.38678 0.0
C898 C 0.38792 0.51087 0.37941 0.0
C899 C 0.35283 0.49574 0.39389 0.0
C900 C 0.38665 0.48994 0.35812 0.0
C901 C 0.3171 0.44109 0.36533 0.0
C902 C 0.35162 0.45543 0.35123 0.0
C903 C 0.19289 0.37249 0.34804 0.0
C904 C 0.27975 0.44591 0.40116 0.0
C905 C 0.26444 0.30734 0.47596 0.0
C906 C 0.27556 0.29468 0.45499 0.0
C907 C 0.15307 0.29532 0.381 0.0
C908 C 0.03242 0.23097 0.39752 0.0
C909 C 0.9957 0.19568 0.39301 0.0
C910 C 0.98727 0.15885 0.40386 0.0
C911 C 1.01646 0.15851 0.4192 0.0
C912 C 0.06056 0.22932 0.41293 0.0
C913 C 0.05255 0.19342 0.42375 0.0
C914 C 0.12516 0.33283 0.43765 0.0
C915 C 0.04285 0.26919 0.38526 0.0
H916 H 0.35296 0.51146 0.41027 0.0
H917 H 0.41298 0.50006 0.34682 0.0
H918 H 0.29022 0.41473 0.35929 0.0
H919 H 0.35118 0.43979 0.33475 0.0
H920 H 0.97399 0.19702 0.38111 0.0
H921 H 1.012 0.131 0.42732 0.0
H922 H 0.0891 0.25576 0.41634 0.0
H923 H 0.07472 0.19254 0.43544 0.0
Eu924 Eu 0.82993 0.18501 0.89383 0.0
C925 C 0.72143 0.04474 0.82468 0.0
C926 C 0.65538 0.01591 0.84262 0.0
C927 C 0.66253 1.01337 0.79869 0.0
C928 C 0.69738 0.03646 0.84506 0.0
C929 C 0.70429 0.03294 0.80129 0.0
C930 C 0.63813 1.00488 0.81931 0.0
C931 C 0.77092 0.05933 0.78488 0.0
N932 N 0.76168 0.06394 0.82777 0.0
C933 C 0.78652 0.07034 0.80843 0.0
C934 C 0.72965 0.04084 0.78125 0.0
Eu935 Eu 0.78581 0.08386 0.86798 0.0
N936 N 0.71498 0.04748 0.86732 0.0
C937 C 0.69223 0.03683 0.88801 0.0
C938 C 0.63195 1.00654 0.8637 0.0
C939 C 0.65048 0.01671 0.88651 0.0
H940 H 0.81847 0.08486 0.81105 0.0
H941 H 0.63264 1.00917 0.90295 0.0
H942 H 0.60593 0.9893 0.81707 0.0
H943 H 0.79075 0.06523 0.76953 0.0
H944 H 0.70599 0.04457 0.90578 0.0
H945 H 0.97132 0.2693 0.84334 0.0
H946 H 0.5996 0.99092 0.8626 0.0
H947 H 0.81606 0.19614 0.95308 0.0
H948 H 0.89916 0.23133 0.84803 0.0
H949 H 0.85545 0.21736 0.9913 0.0
H950 H 0.64879 1.00426 0.78086 0.0
H951 H 1.01543 0.28434 0.87919 0.0
H952 H 1.02225 0.28236 0.92447 0.0
H953 H 0.71765 0.03237 0.76297 0.0
H954 H 0.99062 0.26759 0.96493 0.0
N955 N 0.90028 0.22257 0.88652 0.0
C956 C 0.91703 0.23671 0.86408 0.0
C957 C 0.98325 0.26738 0.88151 0.0
C958 C 0.96617 0.25553 0.90465 0.0
C959 C 0.95851 0.25883 0.86124 0.0
C960 C 0.92402 0.23356 0.90669 0.0
H961 H 0.92855 0.24413 0.99003 0.0
N962 N 0.86588 0.20762 0.93092 0.0
C963 C 0.87009 0.21926 0.97411 0.0
C964 C 0.90627 0.22528 0.92953 0.0
C965 C 0.84789 0.20707 0.95252 0.0
C966 C 0.91131 0.23426 0.97332 0.0
C967 C 0.93009 0.23863 0.95078 0.0
O968 O 0.84337 0.24509 0.90563 0.0
O969 O 0.77346 0.13238 0.88094 0.0
O970 O 0.77915 0.12279 0.84035 0.0
O971 O 0.83306 0.1842 0.85146 0.0
O972 O 0.77006 0.15991 0.91257 0.0
O973 O 0.80416 0.21737 0.87535 0.0
O974 O 0.81681 0.05091 0.85957 0.0
O975 O 0.84164 0.13601 0.88353 0.0
O976 O 0.81499 0.14025 0.92611 0.0
O977 O 0.77781 0.07684 0.90863 0.0
O978 O 0.84829 0.11185 0.85152 0.0
O979 O 0.76664 0.02509 0.88436 0.0
C980 C 0.74927 0.13214 0.89683 0.0
C981 C 0.84481 0.28836 0.87406 0.0
C982 C 0.86856 0.36065 0.86998 0.0
C983 C 0.84939 0.32452 0.88371 0.0
C984 C 0.88331 0.35968 0.84667 0.0
C985 C 0.85993 0.28889 0.85068 0.0
C986 C 0.87902 0.32422 0.8372 0.0
C987 C 0.80612 0.15999 0.83523 0.0
C988 C 0.82378 0.25004 0.88799 0.0
C989 C 0.9719 0.25773 0.94879 0.0
C990 C 0.98991 0.26622 0.92576 0.0
C991 C 0.8671 0.13802 0.86824 0.0
C992 C 0.78162 0.98049 0.86278 0.0
C993 C 0.80182 0.95991 0.86971 0.0
C994 C 0.79195 0.92276 0.85899 0.0
C995 C 0.76127 0.90665 0.8414 0.0
C996 C 0.75123 0.96363 0.84524 0.0
C997 C 0.74113 0.9269 0.83468 0.0
C998 C 0.79319 0.10035 0.92769 0.0
C999 C 0.79381 0.02025 0.87319 0.0
H1000 H 0.83754 0.3243 0.90165 0.0
H1001 H 0.89894 0.38661 0.83579 0.0
H1002 H 0.85683 0.26189 0.84269 0.0
H1003 H 0.89065 0.32413 0.81925 0.0
H1004 H 0.82566 0.97322 0.88306 0.0
H1005 H 0.75234 0.878 0.83306 0.0
H1006 H 0.73549 0.97896 0.83962 0.0
H1007 H 0.71756 0.91402 0.82116 0.0
H1008 H 0.16778 0.91823 0.17456 0.0
H1009 H 0.15083 0.90471 0.09626 0.0
H1010 H 0.17099 0.97613 0.09249 0.0
H1011 H 0.13055 0.98966 0.17992 0.0
H1012 H 0.16507 0.01822 0.20384 0.0
H1013 H 0.14776 0.96555 0.20098 0.0
H1014 H 0.22209 0.9792 0.19655 0.0
H1015 H 0.23577 0.03008 0.20324 0.0
H1016 H 0.25512 0.01927 0.17645 0.0
H1017 H 0.19866 0.05031 0.0967 0.0
H1018 H 0.22886 0.12122 0.10886 0.0
H1019 H 0.22705 0.0874 0.18456 0.0
C1020 C 0.16828 0.93047 0.15668 0.0
C1021 C 0.15895 0.90632 0.13557 0.0
C1022 C 0.1589 0.92296 0.11255 0.0
C1023 C 0.17006 0.96345 0.11027 0.0
C1024 C 0.1807 0.98695 0.13124 0.0
C1025 C 0.17957 0.97108 0.15407 0.0
C1026 C 0.19217 1.00303 0.17365 0.0
C1027 C 0.15677 0.99355 0.1906 0.0
C1028 C 0.22839 1.00805 0.18831 0.0
C1029 C 0.20309 0.03969 0.15809 0.0
C1030 C 0.19553 0.0296 0.13372 0.0
C1031 C 0.20424 0.05848 0.11577 0.0
C1032 C 0.22136 0.09872 0.12284 0.0
C1033 C 0.2303 0.11001 0.14764 0.0
C1034 C 0.22067 0.07983 0.16544 0.0
H1035 H 0.23245 0.1412 0.58279 0.0
H1036 H 0.26718 0.14193 0.6581 0.0
H1037 H 0.22141 0.16544 0.67114 0.0
H1038 H 0.22298 0.23085 0.58506 0.0
H1039 H 0.1807 0.20922 0.56491 0.0
H1040 H 0.21719 0.19316 0.56338 0.0
H1041 H 0.15614 0.1203 0.56934 0.0
H1042 H 0.12227 0.1393 0.57334 0.0
H1043 H 0.12659 0.10884 0.59675 0.0
H1044 H 0.17734 0.19445 0.67609 0.0
H1045 H 0.13607 0.22655 0.67283 0.0
H1046 H 0.12696 0.20746 0.59461 0.0
C1047 C 0.23026 0.14638 0.60198 0.0
C1048 C 0.25391 0.14032 0.61944 0.0
C1049 C 0.24973 0.14669 0.64442 0.0
C1050 C 0.22367 0.15997 0.65201 0.0
C1051 C 0.20157 0.16668 0.63444 0.0
C1052 C 0.20432 0.16005 0.60993 0.0
C1053 C 0.17712 0.17018 0.595 0.0
C1054 C 0.20098 0.20274 0.57594 0.0
C1055 C 0.14354 0.1324 0.58289 0.0
C1056 C 0.16054 0.18554 0.61483 0.0
C1057 C 0.17475 0.18258 0.63745 0.0
C1058 C 0.16566 0.19652 0.65853 0.0
C1059 C 0.14221 0.21477 0.65649 0.0
C1060 C 0.12799 0.21927 0.63355 0.0
C1061 C 0.1367 0.20372 0.61245 0.0
H1062 H 0.93852 0.12018 0.10977 0.0
H1063 H 0.93223 0.14274 0.18672 0.0
H1064 H 1.00483 0.18917 0.18734 0.0
H1065 H 0.04129 0.12837 0.11473 0.0
H1066 H 0.05552 0.15082 0.08489 0.0
H1067 H 1.00388 0.11514 0.09137 0.0
H1068 H 0.98634 0.16616 0.07606 0.0
H1069 H 0.03708 0.20631 0.0725 0.0
H1070 H 1.00275 0.212 0.09223 0.0
H1071 H 0.07714 0.2359 0.17974 0.0
H1072 H 0.14526 0.28055 0.16408 0.0
H1073 H 0.10707 0.23082 0.0917 0.0
C1074 C 0.95263 0.13405 0.12688 0.0
C1075 C 0.9293 0.12797 0.14816 0.0
C1076 C 0.94909 0.14724 0.17008 0.0
C1077 C 0.99049 0.17357 0.17068 0.0
C1078 C 1.01233 0.18012 0.14929 0.0
C1079 C 0.9944 0.16041 0.12787 0.0
C1080 C 0.02509 0.17436 0.10733 0.0
C1081 C 0.03184 0.14013 0.0991 0.0
C1082 C 1.01218 0.19079 0.08575 0.0
C1083 C 0.06217 0.20688 0.12022 0.0
C1084 C 0.05422 0.20863 0.14462 0.0
C1085 C 0.08368 0.23501 0.16064 0.0
C1086 C 0.12224 0.26059 0.15154 0.0
C1087 C 0.1311 0.26038 0.12652 0.0
C1088 C 0.10079 0.23244 0.11079 0.0
H1089 H 0.81012 0.92834 0.66314 0.0
H1090 H 0.8057 0.90078 0.58614 0.0
H1091 H 0.83668 0.97293 0.57636 0.0
H1092 H 0.78154 0.99809 0.65777 0.0
H1093 H 0.81405 0.03374 0.68021 0.0
H1094 H 0.79865 0.98159 0.68336 0.0
H1095 H 0.86995 0.99382 0.68426 0.0
H1096 H 0.88791 0.04678 0.68368 0.0
H1097 H 0.90533 0.02484 0.66129 0.0
H1098 H 0.86587 0.04922 0.57516 0.0
H1099 H 0.8883 0.12073 0.58262 0.0
H1100 H 0.87061 0.09727 0.6602 0.0
C1101 C 0.81598 0.93737 0.64418 0.0
C1102 C 0.8053 0.90855 0.62541 0.0
C1103 C 0.81394 0.92206 0.6009 0.0
C1104 C 0.8314 0.96307 0.59517 0.0
C1105 C 0.84055 0.99047 0.61414 0.0
C1106 C 0.83343 0.97807 0.63819 0.0
C1107 C 0.84415 1.01296 0.65521 0.0
C1108 C 0.80744 1.00628 0.67 0.0
C1109 C 0.8789 0.02001 0.67211 0.0
C1110 C 0.85718 0.04688 0.637 0.0
C1111 C 0.85567 0.03354 0.61341 0.0
C1112 C 0.86691 0.05976 0.59357 0.0
C1113 C 0.8793 0.10029 0.59793 0.0
C1114 C 0.87971 0.1142 0.62188 0.0
C1115 C 0.86954 0.08722 0.64164 0.0
H1116 H 0.89579 0.80264 0.1721 0.0
H1117 H 0.95635 0.84279 0.10245 0.0
H1118 H 0.90463 0.85865 0.08881 0.0
H1119 H 0.79364 0.75982 0.14945 0.0
H1120 H 0.77667 0.77703 0.17486 0.0
H1121 H 0.81598 0.76522 0.17904 0.0
H1122 H 0.86361 0.83538 0.19606 0.0
H1123 H 0.82461 0.84774 0.19305 0.0
H1124 H 0.8725 0.87885 0.1788 0.0
H1125 H 0.85163 0.87917 0.08522 0.0
H1126 H 0.79864 0.89696 0.0907 0.0
H1127 H 0.77215 0.84212 0.16226 0.0
C1128 C 0.89798 0.81431 0.15384 0.0
C1129 C 0.93029 0.82152 0.13835 0.0
C1130 C 0.93172 0.83654 0.11455 0.0
C1131 C 0.90257 0.84586 0.10671 0.0
C1132 C 0.8719 0.8396 0.12278 0.0
C1133 C 0.86921 0.82371 0.14577 0.0
C1134 C 0.83473 0.82186 0.16011 0.0
C1135 C 0.80337 0.77841 0.16621 0.0
C1136 C 0.84978 0.84749 0.18337 0.0
C1137 C 0.81879 0.83987 0.1418 0.0
C1138 C 0.84063 0.84999 0.12036 0.0
C1139 C 0.83368 0.87033 0.10164 0.0
C1140 C 0.80345 0.88016 0.10483 0.0
C1141 C 0.78018 0.8691 0.12638 0.0
C1142 C 0.78841 0.84925 0.14518 0.0
H1143 H 0.91928 0.797 0.60462 0.0
H1144 H 0.90184 0.74868 0.67777 0.0
H1145 H 0.97277 0.79539 0.68732 0.0
H1146 H 0.02797 0.82807 0.59472 0.0
H1147 H 0.03605 0.87317 0.58017 0.0
H1148 H 0.98742 0.82878 0.57871 0.0
H1149 H 0.95958 0.87341 0.59645 0.0
H1150 H 1.00944 0.91535 0.5996 0.0
H1151 H 0.9771 0.8966 0.62583 0.0
H1152 H 0.04515 0.84741 0.68931 0.0
H1153 H 0.11071 0.9097 0.68644 0.0
H1154 H 0.08014 0.93153 0.61418 0.0
C1155 C 0.93105 0.79536 0.62227 0.0
C1156 C 0.90582 0.76754 0.64005 0.0
C1157 C 0.92112 0.76852 0.66364 0.0
C1158 C 0.9614 0.79496 0.66921 0.0
C1159 C 0.98578 0.82166 0.65128 0.0
C1160 C 0.97106 0.82285 0.62845 0.0
C1161 C 1.00184 0.85904 0.61413 0.0
C1162 C 1.01394 0.84643 0.59053 0.0
C1163 C 0.98604 0.8878 0.60869 0.0
C1164 C 0.03633 0.8772 0.63223 0.0
C1165 C 0.02658 0.85459 0.65333 0.0
C1166 C 0.05318 0.86532 0.67287 0.0
C1167 C 0.0904 0.90054 0.67105 0.0
C1168 C 0.10055 0.92491 0.65002 0.0
C1169 C 0.07327 0.91294 0.63029 0.0
H1170 H 0.12136 0.88201 0.34152 0.0
H1171 H 0.14667 0.89726 0.41895 0.0
H1172 H 0.07505 0.87296 0.4275 0.0
H1173 H 0.04803 0.91581 0.34403 0.0
H1174 H 1.01693 0.88221 0.32042 0.0
H1175 H 0.07004 0.90068 0.32033 0.0
H1176 H 0.05818 0.82737 0.32089 0.0
H1177 H 1.00576 0.81133 0.3185 0.0
H1178 H 1.02306 0.79257 0.34275 0.0
H1179 H 0.99919 0.8422 0.42744 0.0
H1180 H 0.92681 0.81162 0.41877 0.0
H1181 H 0.95183 0.82021 0.34115 0.0
C1182 C 0.11159 0.87981 0.36026 0.0
C1183 C 0.13903 0.88973 0.37969 0.0
C1184 C 0.12572 0.88826 0.40392 0.0
C1185 C 0.08519 0.87484 0.40889 0.0
C1186 C 0.05848 0.86378 0.38937 0.0
C1187 C 0.07125 0.86663 0.36549 0.0
C1188 C 0.03683 0.85447 0.34777 0.0
C1189 C 0.04336 0.89044 0.33222 0.0
C1190 C 0.0307 0.81939 0.33154 0.0
C1191 C 1.00232 0.84204 0.36541 0.0
C1192 C 1.01542 0.84808 0.38931 0.0
C1193 C 0.98871 0.8378 0.40876 0.0
C1194 C 0.9476 0.82058 0.40366 0.0
C1195 C 0.93338 0.81341 0.37929 0.0
C1196 C 0.96148 0.8249 0.36001 0.0
H1197 H 0.13783 0.94328 0.83644 0.0
H1198 H 0.09527 0.91391 0.91095 0.0
H1199 H 0.14791 0.98159 0.92402 0.0
H1200 H 0.24298 1.00513 0.84933 0.0
H1201 H 0.25164 0.04127 0.82579 0.0
H1202 H 0.2131 0.98984 0.82205 0.0
H1203 H 0.15929 1.0096 0.81538 0.0
H1204 H 0.19711 0.06142 0.81789 0.0
H1205 H 0.15366 0.04116 0.83733 0.0
H1206 H 0.20228 0.05677 0.92775 0.0
H1207 H 0.25324 0.12847 0.92181 0.0
H1208 H 0.25713 0.10704 0.84466 0.0
C1209 C 0.13957 0.95077 0.85559 0.0
C1210 C 0.112 0.92304 0.87262 0.0
C1211 C 0.11609 0.93427 0.89754 0.0
C1212 C 0.1458 0.97284 0.90509 0.0
C1213 C 0.17141 0.99989 0.88755 0.0
C1214 C 0.16859 0.98899 0.86331 0.0
C1215 C 0.1978 0.02369 0.8476 0.0
C1216 C 0.22821 1.01446 0.83549 0.0
C1217 C 0.17563 0.0346 0.82843 0.0
C1218 C 0.21748 0.05614 0.86664 0.0
C1219 C 0.20212 0.0421 0.88966 0.0
C1220 C 0.21479 0.06769 0.90984 0.0
C1221 C 0.24389 0.10831 0.90638 0.0
C1222 C 0.26009 0.12287 0.88294 0.0
C1223 C 0.24614 0.0964 0.8629 0.0
H1224 H 0.17292 0.25824 0.34621 0.0
H1225 H 0.16444 0.26699 0.42445 0.0
H1226 H 0.18804 0.21837 0.43044 0.0
H1227 H 0.13876 0.15177 0.34574 0.0
H1228 H 0.17132 0.15575 0.32102 0.0
H1229 H 0.15328 0.19061 0.32315 0.0
H1230 H 0.22639 0.25061 0.32301 0.0
H1231 H 0.24354 0.21522 0.31973 0.0
H1232 H 0.26187 0.25056 0.34441 0.0
H1233 H 0.21718 0.17138 0.42735 0.0
H1234 H 0.24609 0.12915 0.41568 0.0
H1235 H 0.23203 0.14929 0.33929 0.0
C1236 C 0.17655 0.25024 0.3646 0.0
C1237 C 0.16867 0.26764 0.38493 0.0
C1238 C 0.17194 0.25517 0.40869 0.0
C1239 C 0.1849 0.22726 0.41221 0.0
C1240 C 0.19394 0.21172 0.39174 0.0
C1241 C 0.18951 0.22257 0.36838 0.0
C1242 C 0.20046 0.20122 0.34937 0.0
C1243 C 0.16377 0.17317 0.33391 0.0
C1244 C 0.23511 0.23121 0.33319 0.0
C1245 C 0.21323 0.17775 0.36561 0.0
C1246 C 0.20903 0.18387 0.39 0.0
C1247 C 0.22014 0.16608 0.40829 0.0
C1248 C 0.23635 0.14188 0.40147 0.0
C1249 C 0.24156 0.13573 0.37655 0.0
C1250 C 0.22905 0.15357 0.35853 0.0
H1251 H 0.0963 0.22396 0.83113 0.0
H1252 H 0.12461 0.22889 0.90811 0.0
H1253 H 0.05275 0.19929 0.91812 0.0
H1254 H 0.0246 0.25263 0.83671 0.0
H1255 H 0.98999 0.2196 0.81403 0.0
H1256 H 0.0426 0.23659 0.81137 0.0
H1257 H 0.03117 0.16536 0.81027 0.0
H1258 H 0.97802 0.14648 0.81107 0.0
H1259 H 1.00089 0.12987 0.83341 0.0
H1260 H 0.97664 0.17051 0.91961 0.0
H1261 H 0.90462 0.14629 0.91232 0.0
H1262 H 0.92684 0.16182 0.83454 0.0
C1263 C 0.08753 0.21879 0.85014 0.0
C1264 C 0.11649 0.22895 0.86883 0.0
C1265 C 0.10324 0.22105 0.8934 0.0
C1266 C 0.06239 0.20439 0.89928 0.0
C1267 C 0.03483 0.19536 0.88039 0.0
C1268 C 0.04694 0.20206 0.85629 0.0
C1269 C 1.0117 0.19064 0.83936 0.0
C1270 C 1.01751 0.227 0.8245 0.0
C1271 C 1.00506 0.15603 0.82254 0.0
C1272 C 0.97789 0.17724 0.85767 0.0
C1273 C 0.99168 0.17974 0.88126 0.0
C1274 C 0.9657 0.1686 0.9012 0.0
C1275 C 0.92487 0.15509 0.89693 0.0
C1276 C 0.91038 0.15328 0.87294 0.0
C1277 C 0.93724 0.16366 0.85311 0.0
H1278 H 0.9444 0.09508 0.43517 0.0
H1279 H 0.94372 0.13442 0.36096 0.0
H1280 H 0.88422 0.06902 0.352 0.0
H1281 H 0.9197 0.99527 0.41855 0.0
H1282 H 0.89039 0.97329 0.44568 0.0
H1283 H 0.93125 0.02405 0.44625 0.0
H1284 H 0.883 0.04521 0.46248 0.0
H1285 H 0.83927 0.99637 0.45967 0.0
H1286 H 0.84165 0.03888 0.44421 0.0
H1287 H 0.82872 0.99621 0.34991 0.0
H1288 H 0.77987 0.92422 0.35577 0.0
H1289 H 0.81663 0.93266 0.43117 0.0
C1290 C 0.93203 0.09017 0.41694 0.0
C1291 C 0.94921 0.12042 0.3988 0.0
C1292 C 0.93109 0.11238 0.37539 0.0
C1293 C 0.89737 0.07505 0.37004 0.0
C1294 C 0.88194 0.04579 0.38822 0.0
C1295 C 0.89879 0.053 0.4112 0.0
C1296 C 0.8777 0.01617 0.42729 0.0
C1297 C 0.90647 1.00132 0.43488 0.0
C1298 C 0.85922 0.02456 0.44974 0.0
C1299 C 0.84596 0.98705 0.40986 0.0
C1300 C 0.84915 1.00458 0.38731 0.0
C1301 C 0.82534 0.98256 0.36765 0.0
C1302 C 0.79746 0.94179 0.37117 0.0
C1303 C 0.79317 0.92353 0.39422 0.0
C1304 C 0.81817 0.94641 0.41366 0.0
H1305 H 0.87926 0.77497 0.83796 0.0
H1306 H 0.89489 0.77451 0.91618 0.0
H1307 H 0.87256 0.82422 0.92092 0.0
H1308 H 0.91211 0.8814 0.83313 0.0
H1309 H 0.87669 0.87414 0.80943 0.0
H1310 H 0.89572 0.84014 0.81222 0.0
H1311 H 0.82322 0.77977 0.81573 0.0
H1312 H 0.80491 0.81415 0.81188 0.0
H1313 H 0.78983 0.78159 0.83801 0.0
H1314 H 0.84393 0.87105 0.91706 0.0
H1315 H 0.81372 0.91198 0.90503 0.0
H1316 H 0.81695 0.88181 0.82917 0.0
C1317 C 0.87746 0.78498 0.8561 0.0
C1318 C 0.88699 0.76953 0.87684 0.0
C1319 C 0.88626 0.78486 0.90015 0.0
C1320 C 0.87396 0.81337 0.90297 0.0
C1321 C 0.86289 0.82662 0.88223 0.0
C1322 C 0.86486 0.81311 0.85921 0.0
C1323 C 0.85129 0.83195 0.83987 0.0
C1324 C 0.88602 0.85849 0.82265 0.0
C1325 C 0.81519 0.79993 0.82555 0.0
C1326 C 0.83979 0.85693 0.85565 0.0
C1327 C 0.84719 0.8539 0.88 0.0
C1328 C 0.83838 0.87387 0.89801 0.0
C1329 C 0.82136 0.89725 0.89098 0.0
C1330 C 0.81284 0.90029 0.86615 0.0
C1331 C 0.82267 0.87998 0.84834 0.0
H1332 H 0.17529 0.72655 0.13759 0.0
H1333 H 0.14035 0.71079 0.06156 0.0
H1334 H 0.14325 0.64831 0.0603 0.0
H1335 H 0.24812 0.70193 0.1308 0.0
H1336 H 0.24086 0.67608 0.15941 0.0
H1337 H 0.22677 0.7138 0.15647 0.0
H1338 H 0.15422 0.66329 0.16994 0.0
H1339 H 0.16868 0.62579 0.17367 0.0
H1340 H 0.127 0.61607 0.15434 0.0
H1341 H 0.15874 0.59307 0.06547 0.0
H1342 H 0.18788 0.55082 0.07607 0.0
H1343 H 0.21697 0.60381 0.14826 0.0
C1344 C 0.16649 0.70883 0.12107 0.0
C1345 C 0.15624 0.72262 0.09985 0.0
C1346 C 0.1472 0.70004 0.07812 0.0
C1347 C 0.1488 0.66454 0.07726 0.0
C1348 C 0.16027 0.65227 0.09821 0.0
C1349 C 0.1689 0.67365 0.11976 0.0
C1350 C 0.18574 0.65702 0.13857 0.0
C1351 C 0.22787 0.68912 0.14678 0.0
C1352 C 0.15721 0.63951 0.16043 0.0
C1353 C 0.18695 0.62425 0.12387 0.0
C1354 C 0.17111 0.62136 0.10086 0.0
C1355 C 0.17065 0.59464 0.08357 0.0
C1356 C 0.18721 0.57061 0.08979 0.0
C1357 C 0.20471 0.57372 0.11301 0.0
C1358 C 0.20394 0.60065 0.13033 0.0
H1359 H 0.59232 0.11893 0.56372 0.0
H1360 H 0.64096 0.15537 0.63662 0.0
H1361 H 0.57914 0.15516 0.64904 0.0
H1362 H 0.54246 0.17549 0.55979 0.0
H1363 H 0.5002 0.1373 0.54332 0.0
H1364 H 0.5484 0.14099 0.54054 0.0
H1365 H 0.51686 0.06686 0.55375 0.0
H1366 H 0.46867 0.06313 0.55725 0.0
H1367 H 0.49074 0.05098 0.58245 0.0
H1368 H 0.51101 0.15155 0.65313 0.0
H1369 H 0.446 0.14894 0.64765 0.0
H1370 H 0.44111 0.11136 0.5728 0.0
C1371 C 0.59007 0.12653 0.58242 0.0
C1372 C 0.62183 0.1369 0.59921 0.0
C1373 C 0.61753 0.14766 0.62328 0.0
C1374 C 0.58223 0.1472 0.63058 0.0
C1375 C 0.55124 0.13578 0.61368 0.0
C1376 C 0.55503 0.12585 0.59003 0.0
C1377 C 0.51782 0.11521 0.57515 0.0
C1378 C 0.52783 0.14397 0.55342 0.0
C1379 C 0.49732 0.07145 0.56665 0.0
C1380 C 0.49255 0.12122 0.59395 0.0
C1381 C 0.51214 0.13281 0.61615 0.0
C1382 C 0.49528 0.14184 0.63593 0.0
C1383 C 0.45806 0.13977 0.63277 0.0
C1384 C 0.43772 0.12824 0.61013 0.0
C1385 C 0.45531 0.1188 0.59056 0.0
H1386 H 0.49245 0.62986 0.12277 0.0
H1387 H 0.50887 0.60358 0.04819 0.0
H1388 H 0.44981 0.53638 0.05186 0.0
H1389 H 0.45961 0.53203 0.14729 0.0
H1390 H 0.42201 0.53105 0.1672 0.0
H1391 H 0.46516 0.57811 0.15907 0.0
H1392 H 0.41915 0.60405 0.14269 0.0
H1393 H 0.37609 0.55731 0.15135 0.0
H1394 H 0.38139 0.57492 0.12035 0.0
H1395 H 0.39133 0.46946 0.06412 0.0
H1396 H 0.33112 0.41232 0.08211 0.0
H1397 H 0.34855 0.48058 0.14812 0.0
C1398 C 0.48302 0.61029 0.10707 0.0
C1399 C 0.50578 0.6224 0.08514 0.0
C1400 C 0.49236 0.59529 0.0652 0.0
C1401 C 0.45882 0.55679 0.06713 0.0
C1402 C 0.43804 0.54518 0.08912 0.0
C1403 C 0.44895 0.57134 0.10861 0.0
C1404 C 0.42053 0.55099 0.13 0.0
C1405 C 0.4432 0.54789 0.1522 0.0
C1406 C 0.39795 0.57314 0.13647 0.0
C1407 C 0.39227 0.50968 0.11943 0.0
C1408 C 0.40336 0.50684 0.09593 0.0
C1409 C 0.38224 0.47159 0.08247 0.0
C1410 C 0.34811 0.43901 0.09288 0.0
C1411 C 0.33494 0.44153 0.11655 0.0
C1412 C 0.35795 0.47738 0.13006 0.0
H1413 H 0.8468 0.43697 0.65627 0.0
H1414 H 0.88045 0.495 0.58539 0.0
H1415 H 0.90397 0.44887 0.57318 0.0
H1416 H 0.92913 0.41329 0.66127 0.0
H1417 H 0.89741 0.36552 0.67544 0.0
H1418 H 0.88776 0.40619 0.68009 0.0
H1419 H 0.81525 0.36189 0.66435 0.0
H1420 H 0.82474 0.32121 0.65983 0.0
H1421 H 0.80716 0.33867 0.63479 0.0
H1422 H 0.91625 0.39159 0.56647 0.0
H1423 H 0.91588 0.32754 0.56574 0.0
H1424 H 0.87548 0.30511 0.64078 0.0
C1425 C 0.85937 0.44036 0.6382 0.0
C1426 C 0.86171 0.47035 0.6219 0.0
C1427 C 0.87882 0.4733 0.59854 0.0
C1428 C 0.89216 0.44691 0.59134 0.0
C1429 C 0.8887 0.41749 0.60765 0.0
C1430 C 0.87292 0.41415 0.63068 0.0
C1431 C 0.87028 0.37817 0.64409 0.0
C1432 C 0.89778 0.39161 0.66656 0.0
C1433 C 0.82678 0.34822 0.65118 0.0
C1434 C 0.88561 0.36092 0.62468 0.0
C1435 C 0.89654 0.38454 0.60392 0.0
C1436 C 0.90859 0.37345 0.5828 0.0
C1437 C 0.90846 0.33701 0.58259 0.0
C1438 C 0.89706 0.31188 0.60341 0.0
C1439 C 0.88609 0.32444 0.62494 0.0
H1440 H 0.58747 0.89862 0.15586 0.0
H1441 H 0.60496 0.87788 0.08039 0.0
H1442 H 0.54327 0.87809 0.06885 0.0
H1443 H 0.48264 0.83842 0.1574 0.0
H1444 H 0.47331 0.87145 0.17591 0.0
H1445 H 0.52022 0.87219 0.17848 0.0
H1446 H 0.55955 0.94821 0.16865 0.0
H1447 H 0.51254 0.94751 0.16729 0.0
H1448 H 0.54644 0.96626 0.1418 0.0
H1449 H 0.47605 0.87346 0.06604 0.0
H1450 H 0.41398 0.87686 0.07088 0.0
H1451 H 0.44137 0.90561 0.14738 0.0
C1452 C 0.57874 0.89525 0.13684 0.0
C1453 C 0.60144 0.88909 0.1189 0.0
C1454 C 0.58865 0.88373 0.09428 0.0
C1455 C 0.55337 0.88337 0.0876 0.0
C1456 C 0.53118 0.88872 0.10571 0.0
C1457 C 0.54385 0.89568 0.12973 0.0
C1458 C 0.51443 0.90102 0.14548 0.0
C1459 C 0.49661 0.86885 0.1655 0.0
C1460 C 0.53446 0.94327 0.15645 0.0
C1461 C 0.483 0.89523 0.12664 0.0
C1462 C 0.49302 0.88756 0.10389 0.0
C1463 C 0.46811 0.87988 0.08372 0.0
C1464 C 0.43272 0.88141 0.08665 0.0
C1465 C 0.42275 0.89104 0.10949 0.0
C1466 C 0.44814 0.89774 0.12977 0.0
H1467 H 0.71197 0.5646 0.57482 0.0
H1468 H 0.72824 0.58876 0.65232 0.0
H1469 H 0.66725 0.52337 0.6606 0.0
H1470 H 0.60053 0.5107 0.5755 0.0
H1471 H 0.59762 0.47664 0.55206 0.0
H1472 H 0.63932 0.52704 0.55277 0.0
H1473 H 0.68832 0.49949 0.55366 0.0
H1474 H 0.64694 0.44912 0.55319 0.0
H1475 H 0.68346 0.46484 0.57733 0.0
H1476 H 0.60804 0.45018 0.65985 0.0
H1477 H 0.55799 0.37976 0.65029 0.0
H1478 H 0.57998 0.40633 0.57309 0.0
C1479 C 0.70208 0.55651 0.59351 0.0
C1480 C 0.72435 0.58197 0.6129 0.0
C1481 C 0.71107 0.57007 0.63716 0.0
C1482 C 0.67654 0.53289 0.642 0.0
C1483 C 0.65549 0.50811 0.62236 0.0
C1484 C 0.66765 0.51991 0.59857 0.0
C1485 C 0.6416 0.48748 0.58062 0.0
C1486 C 0.61838 0.50129 0.56427 0.0
C1487 C 0.66658 0.47447 0.56532 0.0
C1488 C 0.61381 0.4547 0.59792 0.0
C1489 C 0.62179 0.46705 0.62194 0.0
C1490 C 0.60126 0.4406 0.64105 0.0
C1491 C 0.57265 0.40058 0.63545 0.0
C1492 C 0.5649 0.38713 0.61093 0.0
C1493 C 0.58523 0.41523 0.59206 0.0
H1494 H 0.33427 0.87012 0.35153 0.0
H1495 H 0.33361 0.91562 0.42348 0.0
H1496 H 0.39555 0.9144 0.43385 0.0
H1497 H 0.35819 0.80012 0.37094 0.0
H1498 H 0.38897 0.80405 0.34519 0.0
H1499 H 0.35013 0.8165 0.34174 0.0
H1500 H 0.40173 0.88683 0.32572 0.0
H1501 H 0.4409 0.87457 0.3289 0.0
H1502 H 0.44547 0.91833 0.34369 0.0
H1503 H 0.45397 0.90067 0.43772 0.0
H1504 H 0.49941 0.87268 0.43553 0.0
H1505 H 0.45895 0.83234 0.36181 0.0
C1506 C 0.34825 0.88149 0.36909 0.0
C1507 C 0.33026 0.89493 0.38625 0.0
C1508 C 0.34795 0.90715 0.40962 0.0
C1509 C 0.383 0.90621 0.41571 0.0
C1510 C 0.39969 0.89219 0.39843 0.0
C1511 C 0.38277 0.88006 0.37555 0.0
C1512 C 0.40321 0.86164 0.36128 0.0
C1513 C 0.37334 0.818 0.3544 0.0
C1514 C 0.42408 0.88685 0.33855 0.0
C1515 C 0.43349 0.86404 0.37988 0.0
C1516 C 0.43167 0.88251 0.40104 0.0
C1517 C 0.45582 0.88658 0.42111 0.0
C1518 C 0.48175 0.87074 0.41968 0.0
C1519 C 0.48294 0.85034 0.39851 0.0
C1520 C 0.45886 0.84777 0.37827 0.0
H1521 H 0.5985 0.4826 0.93753 0.0
H1522 H 0.64015 0.50101 0.86268 0.0
H1523 H 0.57695 0.44036 0.85036 0.0
H1524 H 0.5512 0.37649 0.93768 0.0
H1525 H 0.51084 0.37022 0.95715 0.0
H1526 H 0.55884 0.41503 0.95913 0.0
H1527 H 0.52475 0.45743 0.95139 0.0
H1528 H 0.47673 0.41255 0.94895 0.0
H1529 H 0.49468 0.44844 0.9244 0.0
H1530 H 0.50613 0.37554 0.84679 0.0
H1531 H 0.44232 0.31173 0.85361 0.0
H1532 H 0.44955 0.33862 0.93067 0.0
C1533 C 0.59441 0.47416 0.91846 0.0
C1534 C 0.62441 0.49701 0.90106 0.0
C1535 C 0.61787 0.48405 0.87642 0.0
C1536 C 0.58179 0.44981 0.86923 0.0
C1537 C 0.55242 0.42863 0.88686 0.0
C1538 C 0.55883 0.44033 0.91105 0.0
C1539 C 0.52382 0.41218 0.92688 0.0
C1540 C 0.53696 0.3923 0.94635 0.0
C1541 C 0.50383 0.43397 0.93859 0.0
C1542 C 0.4967 0.3823 0.90804 0.0
C1543 C 0.51308 0.39226 0.88491 0.0
C1544 C 0.49319 0.36781 0.86486 0.0
C1545 C 0.45671 0.33179 0.86879 0.0
C1546 C 0.44064 0.32061 0.89261 0.0
C1547 C 0.4607 0.34678 0.9122 0.0
H1548 H 0.16832 0.61332 0.45334 0.0
H1549 H 0.17394 0.64908 0.37771 0.0
H1550 H 0.17015 0.58579 0.36468 0.0
H1551 H 0.22666 0.56563 0.4475 0.0
H1552 H 0.19674 0.5264 0.46887 0.0
H1553 H 0.20045 0.57457 0.47167 0.0
H1554 H 0.12308 0.54067 0.46988 0.0
H1555 H 0.11927 0.49243 0.46684 0.0
H1556 H 0.09659 0.509 0.44436 0.0
H1557 H 0.16514 0.51618 0.36031 0.0
H1558 H 0.1645 0.45189 0.36549 0.0
H1559 H 0.15925 0.46222 0.44387 0.0
C1560 C 0.16848 0.60795 0.43397 0.0
C1561 C 0.1712 0.63648 0.4166 0.0
C1562 C 0.17226 0.62816 0.39148 0.0
C1563 C 0.16971 0.59198 0.38389 0.0
C1564 C 0.16603 0.56419 0.40158 0.0
C1565 C 0.16566 0.57207 0.42613 0.0
C1566 C 0.16193 0.53792 0.44173 0.0
C1567 C 0.19863 0.55198 0.45842 0.0
C1568 C 0.1229 0.5189 0.45658 0.0
C1569 C 0.16072 0.50959 0.42225 0.0
C1570 C 0.16281 0.52489 0.39912 0.0
C1571 C 0.16324 0.50402 0.37837 0.0
C1572 C 0.16249 0.46731 0.38144 0.0
C1573 C 0.16099 0.45164 0.40507 0.0
C1574 C 0.1597 0.47309 0.42557 0.0
H1575 H 0.69439 0.12174 0.93093 0.0
H1576 H 0.711 0.12568 0.85268 0.0
H1577 H 0.648 0.1274 0.8469 0.0
H1578 H 0.58385 0.06073 0.93088 0.0
H1579 H 0.57974 0.08805 0.95628 0.0
H1580 H 0.62309 0.08228 0.95338 0.0
H1581 H 0.66861 0.15919 0.95543 0.0
H1582 H 0.62551 0.16537 0.95778 0.0
H1583 H 0.66144 0.19023 0.93375 0.0
H1584 H 0.58518 0.13648 0.85075 0.0
H1585 H 0.52706 0.14336 0.86343 0.0
H1586 H 0.55442 0.13493 0.93917 0.0
C1587 C 0.68411 0.12169 0.91252 0.0
C1588 C 0.70738 0.12295 0.89227 0.0
C1589 C 0.69335 0.12382 0.86849 0.0
C1590 C 0.65773 0.12525 0.86508 0.0
C1591 C 0.63639 0.12575 0.88562 0.0
C1592 C 0.6489 0.12322 0.90887 0.0
C1593 C 0.62212 0.12582 0.92812 0.0
C1594 C 0.60093 0.0869 0.94304 0.0
C1595 C 0.64585 0.16232 0.94474 0.0
C1596 C 0.59278 0.13092 0.91225 0.0
C1597 C 0.60123 0.13085 0.88776 0.0
C1598 C 0.57828 0.13614 0.86991 0.0
C1599 C 0.54549 0.14048 0.87728 0.0
C1600 C 0.53568 0.13943 0.90231 0.0
C1601 C 0.56042 0.13524 0.91985 0.0
H1602 H 0.43897 0.572 0.34894 0.0
H1603 H 0.42371 0.53435 0.42464 0.0
H1604 H 0.48924 0.59365 0.43456 0.0
H1605 H 0.54554 0.60972 0.3454 0.0
H1606 H 0.55476 0.6511 0.32593 0.0
H1607 H 0.50713 0.60552 0.32483 0.0
H1608 H 0.47089 0.64536 0.33369 0.0
H1609 H 0.51828 0.6911 0.33479 0.0
H1610 H 0.48447 0.67676 0.36033 0.0
H1611 H 0.55828 0.65776 0.43578 0.0
H1612 H 0.61957 0.72336 0.42895 0.0
H1613 H 0.58839 0.7188 0.35268 0.0
C1614 C 0.44941 0.57602 0.36762 0.0
C1615 C 0.42607 0.54816 0.38599 0.0
C1616 C 0.44073 0.55524 0.41027 0.0
C1617 C 0.47816 0.5887 0.41601 0.0
C1618 C 0.50067 0.61509 0.39733 0.0
C1619 C 0.48651 0.60926 0.37366 0.0
C1620 C 0.51561 0.64256 0.357 0.0
C1621 C 0.53169 0.62623 0.33712 0.0
C1622 C 0.49616 0.6653 0.3458 0.0
C1623 C 0.54826 0.66836 0.37496 0.0
C1624 C 0.53953 0.65181 0.39809 0.0
C1625 C 0.56537 0.67072 0.41769 0.0
C1626 C 0.60033 0.70778 0.41363 0.0
C1627 C 0.60917 0.72557 0.39017 0.0
C1628 C 0.58278 0.70537 0.37067 0.0
H1629 H 0.8836 0.57707 0.86397 0.0
H1630 H 0.91266 0.5887 0.94095 0.0
H1631 H 0.91277 0.52486 0.94004 0.0
H1632 H 0.81521 0.47491 0.86554 0.0
H1633 H 0.82815 0.4626 0.83651 0.0
H1634 H 0.83637 0.51216 0.84179 0.0
H1635 H 0.91156 0.54317 0.83096 0.0
H1636 H 0.9028 0.4936 0.82473 0.0
H1637 H 0.94083 0.52502 0.84627 0.0
H1638 H 0.90248 0.45612 0.93213 0.0
H1639 H 0.88808 0.39009 0.9168 0.0
H1640 H 0.86333 0.42072 0.84512 0.0
C1641 C 0.89155 0.56685 0.88033 0.0
C1642 C 0.89916 0.58841 0.90245 0.0
C1643 C 0.90757 0.5731 0.92375 0.0
C1644 C 0.90751 0.53672 0.92343 0.0
C1645 C 0.89853 0.51539 0.90166 0.0
C1646 C 0.89119 0.53005 0.88038 0.0
C1647 C 0.87958 0.4996 0.85993 0.0
C1648 C 0.83731 0.48656 0.85039 0.0
C1649 C 0.91054 0.51637 0.83924 0.0
C1650 C 0.8808 0.46547 0.87317 0.0
C1651 C 0.89195 0.47531 0.8972 0.0
C1652 C 0.89407 0.44825 0.91325 0.0
C1653 C 0.88537 0.4105 0.90443 0.0
C1654 C 0.8746 0.39977 0.87971 0.0
C1655 C 0.87203 0.42787 0.86404 0.0
H1656 H 0.18752 0.41012 0.30612 0.0
H1657 H 0.22469 0.32771 0.33266 0.0
H1658 H 0.23935 0.31678 0.29075 0.0
H1659 H 0.14106 0.3599 0.25064 0.0
H1660 H 0.15969 0.40448 0.23243 0.0
H1661 H 0.15275 0.40678 0.26474 0.0
H1662 H 0.22691 0.4626 0.26857 0.0
H1663 H 0.23369 0.45966 0.23625 0.0
H1664 H 0.26571 0.4535 0.25765 0.0
H1665 H 0.2431 0.3087 0.24677 0.0
H1666 H 0.24414 0.3093 0.20239 0.0
H1667 H 0.21108 0.40184 0.20171 0.0
C1668 C 0.1994 0.39033 0.30303 0.0
C1669 C 0.20553 0.37016 0.32281 0.0
C1670 C 0.22071 0.34424 0.31805 0.0
C1671 C 0.22876 0.33751 0.2942 0.0
C1672 C 0.22218 0.35747 0.27516 0.0
C1673 C 0.20859 0.38395 0.27915 0.0
C1674 C 0.20512 0.40185 0.25504 0.0
C1675 C 0.16206 0.39268 0.25048 0.0
C1676 C 0.23462 0.44709 0.25434 0.0
C1677 C 0.21713 0.37982 0.23694 0.0
C1678 C 0.22669 0.3544 0.2492 0.0
C1679 C 0.23647 0.32905 0.23696 0.0
C1680 C 0.23687 0.32971 0.2115 0.0
C1681 C 0.22821 0.35605 0.19809 0.0
C1682 C 0.21823 0.38159 0.21118 0.0
H1683 H 0.90486 0.23527 0.70409 0.0
H1684 H 0.78542 0.16517 0.67394 0.0
H1685 H 0.7575 0.15213 0.71564 0.0
H1686 H 0.88819 0.1693 0.75438 0.0
H1687 H 0.91962 0.20899 0.77506 0.0
H1688 H 0.92936 0.21499 0.74284 0.0
H1689 H 0.92536 0.28018 0.74382 0.0
H1690 H 0.91471 0.27352 0.77605 0.0
H1691 H 0.88087 0.27844 0.75554 0.0
H1692 H 0.74284 0.14293 0.76052 0.0
H1693 H 0.74247 0.13509 0.80511 0.0
H1694 H 0.87163 0.20977 0.80666 0.0
C1695 C 0.87284 0.21731 0.70611 0.0
C1696 C 0.84746 0.20129 0.68548 0.0
C1697 C 0.80563 0.1779 0.68926 0.0
C1698 C 0.78945 0.17042 0.71294 0.0
C1699 C 0.81542 0.18636 0.73277 0.0
C1700 C 0.85627 0.20906 0.72963 0.0
C1701 C 0.8778 0.22023 0.75408 0.0
C1702 C 0.90536 0.2023 0.75675 0.0
C1703 C 0.90106 0.26581 0.75757 0.0
C1704 C 0.84268 0.2003 0.77151 0.0
C1705 C 0.80697 0.18108 0.75877 0.0
C1706 C 0.77057 0.15828 0.77064 0.0
C1707 C 0.77071 0.15406 0.79603 0.0
C1708 C 0.80699 0.17228 0.80947 0.0
C1709 C 0.84337 0.19649 0.79704 0.0
H1710 H 0.73571 0.8796 0.20211 0.0
H1711 H 0.60802 0.8143 0.18913 0.0
H1712 H 0.59612 0.8 0.23354 0.0
H1713 H 0.73589 0.81275 0.25079 0.0
H1714 H 0.77642 0.85504 0.266 0.0
H1715 H 0.77133 0.85567 0.23345 0.0
H1716 H 0.77268 0.92322 0.23925 0.0
H1717 H 0.77385 0.91964 0.27195 0.0
H1718 H 0.73453 0.92459 0.25757 0.0
H1719 H 0.59893 0.79938 0.28021 0.0
H1720 H 0.61587 0.80289 0.32415 0.0
H1721 H 0.74192 0.8637 0.30593 0.0
C1722 C 0.7053 0.86164 0.20865 0.0
C1723 C 0.67269 0.84767 0.19238 0.0
C1724 C 0.63329 0.82464 0.2014 0.0
C1725 C 0.62634 0.81673 0.22657 0.0
C1726 C 0.65922 0.83162 0.2423 0.0
C1727 C 0.69795 0.85283 0.23357 0.0
C1728 C 0.72815 0.86511 0.25409 0.0
C1729 C 0.75444 0.84591 0.2509 0.0
C1730 C 0.75379 0.91087 0.2558 0.0
C1731 C 0.7005 0.84792 0.27589 0.0
C1732 C 0.66081 0.82931 0.26878 0.0
C1733 C 0.62988 0.81336 0.28589 0.0
C1734 C 0.63973 0.8158 0.3108 0.0
C1735 C 0.68011 0.8334 0.31833 0.0
C1736 C 0.71079 0.84968 0.30061 0.0
H1737 H 0.83816 0.62116 0.69935 0.0
H1738 H 0.82957 0.7287 0.69722 0.0
H1739 H 0.83139 0.73219 0.74174 0.0
H1740 H 0.78503 0.57891 0.75566 0.0
H1741 H 0.81942 0.56428 0.76753 0.0
H1742 H 0.81401 0.56712 0.73503 0.0
H1743 H 0.88966 0.61491 0.73123 0.0
H1744 H 0.89621 0.61374 0.76372 0.0
H1745 H 0.91311 0.66081 0.74828 0.0
H1746 H 0.82552 0.72015 0.78581 0.0
H1747 H 0.83429 0.70653 0.82852 0.0
H1748 H 0.86305 0.61667 0.80484 0.0
C1749 C 0.83697 0.64547 0.70836 0.0
C1750 C 0.83058 0.67317 0.69482 0.0
C1751 C 0.83074 0.70531 0.70725 0.0
C1752 C 0.83247 0.70793 0.73259 0.0
C1753 C 0.83614 0.67911 0.74557 0.0
C1754 C 0.84035 0.64953 0.73409 0.0
C1755 C 0.84818 0.62523 0.75304 0.0
C1756 C 0.81466 0.58127 0.75279 0.0
C1757 C 0.88925 0.6289 0.74885 0.0
C1758 C 0.84733 0.64586 0.77663 0.0
C1759 C 0.83883 0.67586 0.77165 0.0
C1760 C 0.83315 0.69738 0.79004 0.0
C1761 C 0.83784 0.68921 0.81428 0.0
C1762 C 0.84961 0.66089 0.82001 0.0
C1763 C 0.85408 0.63857 0.80092 0.0
H1764 H 0.2276 0.88422 0.19149 0.0
H1765 H 0.17286 0.75507 0.19218 0.0
H1766 H 0.18043 0.75607 0.23684 0.0
H1767 H 0.29995 0.90222 0.2422 0.0
H1768 H 0.29545 0.94292 0.25457 0.0
H1769 H 0.28973 0.93325 0.22225 0.0
H1770 H 0.22007 0.9274 0.2231 0.0
H1771 H 0.22533 0.93769 0.25529 0.0
H1772 H 0.18258 0.89294 0.24396 0.0
H1773 H 0.18555 0.76995 0.28179 0.0
H1774 H 0.19464 0.79661 0.32365 0.0
H1775 H 0.24893 0.91693 0.29434 0.0
C1776 C 0.21874 0.85639 0.20095 0.0
C1777 C 0.19988 0.81958 0.1883 0.0
C1778 C 0.18753 0.78364 0.20148 0.0
C1779 C 0.19161 0.78386 0.22689 0.0
C1780 C 0.20869 0.82038 0.239 0.0
C1781 C 0.22284 0.85609 0.22648 0.0
C1782 C 0.23841 0.89095 0.24414 0.0
C1783 C 0.28356 0.919 0.24057 0.0
C1784 C 0.2152 0.91357 0.24147 0.0
C1785 C 0.22959 0.86912 0.26844 0.0
C1786 C 0.21245 0.82843 0.26504 0.0
C1787 C 0.19952 0.80187 0.28469 0.0
C1788 C 0.20452 0.8173 0.30844 0.0
C1789 C 0.22243 0.85901 0.31249 0.0
C1790 C 0.23533 0.88506 0.29206 0.0
H1791 H 0.39323 0.24893 0.80014 0.0
H1792 H 0.3314 0.12884 0.83023 0.0
H1793 H 0.32077 0.10099 0.78877 0.0
H1794 H 0.33504 0.23259 0.74742 0.0
H1795 H 0.37583 0.26248 0.72706 0.0
H1796 H 0.38095 0.27391 0.75911 0.0
H1797 H 0.44459 0.26804 0.76097 0.0
H1798 H 0.43988 0.25695 0.7288 0.0
H1799 H 0.44279 0.22305 0.75025 0.0
H1800 H 0.31044 0.08594 0.74481 0.0
H1801 H 0.30806 0.08298 0.70038 0.0
H1802 H 0.38072 0.2126 0.69658 0.0
C1803 C 0.3782 0.21678 0.79795 0.0
C1804 C 0.36343 0.19099 0.81853 0.0
C1805 C 0.34363 0.14916 0.81493 0.0
C1806 C 0.33713 0.13305 0.79137 0.0
C1807 C 0.35136 0.15914 0.77152 0.0
C1808 C 0.37232 0.2001 0.77445 0.0
C1809 C 0.38498 0.22104 0.74975 0.0
C1810 C 0.36814 0.24916 0.74563 0.0
C1811 C 0.43078 0.2436 0.7473 0.0
C1812 C 0.36586 0.18546 0.73253 0.0
C1813 C 0.34684 0.15019 0.74568 0.0
C1814 C 0.32577 0.1133 0.73431 0.0
C1815 C 0.32455 0.11211 0.70884 0.0
C1816 C 0.34449 0.14759 0.69459 0.0
C1817 C 0.36528 0.1849 0.70676 0.0
H1818 H 0.26976 0.21257 0.96585 0.0
H1819 H 0.38021 0.32081 0.94827 0.0
H1820 H 0.36506 0.35801 0.979 0.0
H1821 H 0.2115 0.26032 0.97416 0.0
H1822 H 0.18226 0.22912 0.99921 0.0
H1823 H 0.2023 0.20986 0.97673 0.0
H1824 H 0.23721 0.19213 0.01045 0.0
H1825 H 0.21749 0.211 0.03333 0.0
H1826 H 0.27054 0.22999 0.03138 0.0
H1827 H 0.33554 0.38512 0.00968 0.0
H1828 H 0.3005 0.39649 0.04386 0.0
H1829 H 0.21 0.27102 0.04261 0.0
C1830 C 0.29132 0.24372 0.96915 0.0
C1831 C 0.32662 0.26364 0.95499 0.0
C1832 C 0.35337 0.30484 0.95919 0.0
C1833 C 0.34477 0.32636 0.97642 0.0
C1834 C 0.30904 0.30643 0.98939 0.0
C1835 C 0.28309 0.26584 0.98638 0.0
C1836 C 0.24659 0.25188 1.00265 0.0
C1837 C 0.20841 0.23691 0.98726 0.0
C1838 C 0.24277 0.21939 0.02053 0.0
C1839 C 0.25674 0.29063 0.01568 0.0
C1840 C 0.29235 0.32198 0.00728 0.0
C1841 C 0.30772 0.36069 0.01652 0.0
C1842 C 0.28742 0.36705 0.03581 0.0
C1843 C 0.25268 0.33472 0.04607 0.0
C1844 C 0.23637 0.29645 0.03504 0.0
H1845 H 0.07396 0.351 0.46123 0.0
H1846 H 0.1199 0.26905 0.46299 0.0
H1847 H 0.0694 0.2284 0.4944 0.0
H1848 H 0.05598 0.34764 0.52716 0.0
H1849 H 1.01216 0.35242 0.52327 0.0
H1850 H 0.05203 0.37423 0.50121 0.0
H1851 H 1.00117 0.33478 0.46696 0.0
H1852 H 0.96132 0.31204 0.489 0.0
H1853 H 0.97143 0.28109 0.46904 0.0
H1854 H 1.00932 0.1939 0.52376 0.0
H1855 H 0.95524 0.17643 0.55409 0.0
H1856 H 0.95304 0.28428 0.53547 0.0
C1857 C 0.07384 0.32487 0.46857 0.0
C1858 C 0.10087 0.31315 0.45972 0.0
C1859 C 0.09982 0.27883 0.46975 0.0
C1860 C 0.07089 0.25532 0.48737 0.0
C1861 C 0.04382 0.26708 0.4952 0.0
C1862 C 0.04597 0.30179 0.48661 0.0
C1863 C 1.01482 0.30907 0.49871 0.0
C1864 C 0.03495 0.34815 0.51347 0.0
C1865 C 0.98545 0.30925 0.4798 0.0
C1866 C 0.99435 0.27282 0.51529 0.0
C1867 C 1.01092 0.24847 0.51269 0.0
C1868 C 0.99635 0.21291 0.52594 0.0
C1869 C 0.96526 0.20288 0.54288 0.0
C1870 C 0.94944 0.22853 0.54665 0.0
C1871 C 0.964 0.26369 0.53248 0.0
H1872 H 0.70526 0.91165 0.02148 0.0
H1873 H 0.72938 0.99993 0.07773 0.0
H1874 H 0.75052 0.05195 0.04747 0.0
H1875 H 0.79137 0.97587 0.98616 0.0
H1876 H 0.76843 0.95972 0.95659 0.0
H1877 H 0.7495 0.92608 0.98226 0.0
H1878 H 0.67888 0.91635 0.97512 0.0
H1879 H 0.69758 0.94965 0.94926 0.0
H1880 H 0.67252 0.95951 0.97371 0.0
H1881 H 0.7756 0.09767 0.01257 0.0
H1882 H 0.79829 0.13289 0.97327 0.0
H1883 H 0.76162 0.01955 0.93739 0.0
C1884 C 0.71363 0.94159 0.02731 0.0
C1885 C 0.71385 0.95054 0.05253 0.0
C1886 C 0.72707 0.99096 0.05897 0.0
C1887 C 0.73983 0.02145 0.04173 0.0
C1888 C 0.74027 1.01215 0.01745 0.0
C1889 C 0.72733 0.97333 0.00995 0.0
C1890 C 0.73348 0.97312 0.98242 0.0
C1891 C 0.76241 0.95778 0.97652 0.0
C1892 C 0.69321 0.94817 0.96935 0.0
C1893 C 0.75209 0.01759 0.9762 0.0
C1894 C 0.75566 0.03937 0.99682 0.0
C1895 C 0.77273 0.08094 0.99615 0.0
C1896 C 0.78594 0.10092 0.97368 0.0
C1897 C 0.78209 0.07956 0.95199 0.0
C1898 C 0.76502 0.03715 0.9535 0.0
H1899 H 0.75977 0.67366 0.53529 0.0
H1900 H 0.85215 0.78499 0.56594 0.0
H1901 H 0.83595 0.82274 0.53564 0.0
H1902 H 0.77691 0.70848 0.4708 0.0
H1903 H 0.72442 0.67942 0.46358 0.0
H1904 H 0.74551 0.66233 0.48678 0.0
H1905 H 0.69271 0.65861 0.51746 0.0
H1906 H 0.67214 0.67669 0.49454 0.0
H1907 H 0.68912 0.70268 0.52319 0.0
H1908 H 0.80343 0.84797 0.50403 0.0
H1909 H 0.76684 0.85812 0.46998 0.0
H1910 H 0.69921 0.73004 0.45851 0.0
C1911 C 0.77751 0.70599 0.53501 0.0
C1912 C 0.80792 0.72646 0.55255 0.0
C1913 C 0.82964 0.76877 0.55217 0.0
C1914 C 0.82019 0.7904 0.53522 0.0
C1915 C 0.78927 0.76929 0.5185 0.0
C1916 C 0.76906 0.72794 0.51787 0.0
C1917 C 0.73731 0.71218 0.49807 0.0
C1918 C 0.7466 0.68925 0.47866 0.0
C1919 C 0.69534 0.686 0.50898 0.0
C1920 C 0.74218 0.75094 0.48786 0.0
C1921 C 0.77188 0.78365 0.50005 0.0
C1922 C 0.78051 0.82248 0.49423 0.0
C1923 C 0.75926 0.828 0.47503 0.0
C1924 C 0.73009 0.79494 0.46158 0.0
C1925 C 0.72133 0.75598 0.46842 0.0
H1926 H 0.98251 0.68809 0.959 0.0
H1927 H 0.93789 0.77116 0.95979 0.0
H1928 H 0.98459 0.8085 0.99358 0.0
H1929 H 0.99171 0.68499 0.02511 0.0
H1930 H 0.03572 0.68011 0.02337 0.0
H1931 H 0.99934 0.66098 0.99914 0.0
H1932 H 0.05502 0.7036 0.96798 0.0
H1933 H 0.09146 0.72338 0.99217 0.0
H1934 H 0.08485 0.75689 0.97231 0.0
H1935 H 0.04078 0.83971 0.0258 0.0
H1936 H 0.09091 0.85403 0.05841 0.0
H1937 H 0.09382 0.74686 0.0391 0.0
C1938 C 0.9824 0.71402 0.96639 0.0
C1939 C 0.95673 0.72692 0.95661 0.0
C1940 C 0.95714 0.76065 0.96703 0.0
C1941 C 0.98386 0.78224 0.9861 0.0
C1942 C 1.0095 0.76928 0.99494 0.0
C1943 C 1.00811 0.73524 0.98583 0.0
C1944 C 0.03712 0.72622 0.99934 0.0
C1945 C 1.01462 0.68568 0.01253 0.0
C1946 C 0.06899 0.72761 0.9819 0.0
C1947 C 0.05541 0.76063 0.01736 0.0
C1948 C 0.03974 0.78568 0.01423 0.0
C1949 C 0.05295 0.82007 0.02843 0.0
C1950 C 0.08178 0.82829 0.04674 0.0
C1951 C 0.09663 0.80192 0.05101 0.0
C1952 C 0.08338 0.76785 0.03597 0.0
H1953 H 0.32458 0.99212 0.45127 0.0
H1954 H 0.19544 0.93159 0.45799 0.0
H1955 H 0.202 0.97963 0.4901 0.0
H1956 H 0.34463 1.00869 0.51487 0.0
H1957 H 0.38886 0.05713 0.51192 0.0
H1958 H 0.37506 0.02079 0.48793 0.0
H1959 H 0.37432 0.06957 0.45636 0.0
H1960 H 0.38906 0.10728 0.47964 0.0
H1961 H 0.34464 0.09292 0.46182 0.0
H1962 H 0.22299 0.03694 0.52024 0.0
H1963 H 0.2559 0.08721 0.55282 0.0
H1964 H 0.37124 0.10625 0.52954 0.0
C1965 C 0.29767 0.98879 0.45965 0.0
C1966 C 0.25941 0.95808 0.45205 0.0
C1967 C 0.22501 0.95461 0.46359 0.0
C1968 C 0.22848 0.98212 0.48164 0.0
C1969 C 0.26661 1.01268 0.48825 0.0
C1970 C 0.30064 1.01544 0.47807 0.0
C1971 C 0.33814 0.04918 0.48965 0.0
C1972 C 0.36315 0.03302 0.50185 0.0
C1973 C 0.363 0.08166 0.47074 0.0
C1974 C 0.31995 0.0646 0.5083 0.0
C1975 C 0.27867 0.04405 0.50656 0.0
C1976 C 0.25527 0.05317 0.5217 0.0
C1977 C 0.27428 0.08237 0.53989 0.0
C1978 C 0.31622 0.10166 0.54322 0.0
C1979 C 0.33933 0.09319 0.52681 0.0
loop_
_geom_bond_atom_site_label_1
_geom_bond_atom_site_label_2
_geom_bond_distance
_geom_bond_site_symmetry_2
_ccdc_geom_bond_type
Eu0 N31 2.657 . S
Eu0 N38 2.609 . S
Eu0 O44 2.558 . S
Eu0 O45 2.612 . S
Eu0 O47 2.339 . S
Eu0 O48 2.563 . S
Eu0 O49 2.419 . S
Eu0 O51 2.380 . S
Eu0 O52 2.432 . S
Eu0 C64 2.848 . S
C1 C4 1.429 . S
C1 C5 1.411 . S
C1 N8 1.377 . S
C2 C4 1.420 . S
C2 C6 1.423 . S
C2 C14 1.392 . S
C3 C5 1.420 . S
C3 C6 1.351 . S
C3 H26 0.931 . S
C4 C1 1.429 . S
C4 C2 1.420 . S
C4 N12 1.362 . S
C5 C1 1.411 . S
C5 C3 1.420 . S
C5 C10 1.395 . S
C6 C2 1.423 . S
C6 C3 1.351 . S
C6 H18 0.930 . S
C7 C9 1.400 . S
C7 C10 1.386 . S
C7 H19 0.930 . S
N8 C1 1.377 . S
N8 C9 1.321 . S
N8 Eu11 2.609 . S
C9 C7 1.400 . S
C9 N8 1.321 . S
C9 H16 0.930 . S
C10 C5 1.395 . S
C10 C7 1.386 . S
C10 H29 0.930 . S
Eu11 N8 2.609 . S
Eu11 N12 2.657 . S
Eu11 O45 2.380 . S
Eu11 O46 2.432 . S
Eu11 O50 2.558 . S
Eu11 O51 2.612 . S
Eu11 O53 2.339 . S
Eu11 O54 2.563 . S
Eu11 O55 2.419 . S
Eu11 C75 2.848 . S
N12 C4 1.362 . S
N12 Eu11 2.657 . S
N12 C13 1.334 . S
C13 N12 1.334 . S
C13 C15 1.413 . S
C13 H20 0.929 . S
C14 C2 1.392 . S
C14 C15 1.367 . S
C14 H22 0.930 . S
C15 C13 1.413 . S
C15 C14 1.367 . S
C15 H17 0.930 . S
H16 C9 0.930 . S
H17 C15 0.930 . S
H18 C6 0.930 . S
H19 C7 0.930 . S
H20 C13 0.929 . S
H21 C35 0.930 . S
H22 C14 0.930 . S
H23 C41 0.930 . S
H24 C32 0.929 . S
H25 C39 0.957 . S
H26 C3 0.931 . S
H27 C33 0.930 1_655 S
H28 C66 0.930 . S
H29 C10 0.930 . S
H30 C65 0.931 1_655 S
N31 Eu0 2.657 . S
N31 C32 1.334 . S
N31 C36 1.362 . S
C32 H24 0.929 . S
C32 N31 1.334 . S
C32 C35 1.413 . S
C33 H27 0.930 1_455 S
C33 C34 1.392 . S
C33 C35 1.367 . S
C34 C33 1.392 . S
C34 C36 1.420 . S
C34 C66 1.423 1_455 S
C35 H21 0.930 . S
C35 C32 1.413 . S
C35 C33 1.367 . S
C36 N31 1.362 . S
C36 C34 1.420 . S
C36 C40 1.429 . S
H37 C42 0.930 . S
N38 Eu0 2.609 . S
N38 C40 1.377 . S
N38 C41 1.321 . S
C39 H25 0.957 . S
C39 C41 1.400 . S
C39 C42 1.386 . S
C40 C36 1.429 . S
C40 N38 1.377 . S
C40 C43 1.411 . S
C41 H23 0.930 . S
C41 N38 1.321 . S
C41 C39 1.400 . S
C42 H37 0.930 . S
C42 C39 1.386 . S
C42 C43 1.395 . S
C43 C40 1.411 . S
C43 C42 1.395 . S
C43 C65 1.420 . S
O44 Eu0 2.558 . S
O44 C64 1.257 . S
O45 Eu0 2.612 . S
O45 Eu11 2.380 . S
O45 C56 1.276 . S
O46 Eu11 2.432 . S
O46 C63 1.264 . S
O47 Eu0 2.339 . S
O47 C63 1.254 . S
O48 Eu0 2.563 . S
O48 C56 1.235 . S
O49 Eu0 2.419 . S
O49 C64 1.249 . S
O50 Eu11 2.558 . S
O50 C75 1.257 . S
O51 Eu0 2.380 . S
O51 Eu11 2.612 . S
O51 C67 1.276 . S
O52 Eu0 2.432 . S
O52 C74 1.264 . S
O53 Eu11 2.339 . S
O53 C74 1.254 . S
O54 Eu11 2.563 . S
O54 C67 1.235 . S
O55 Eu11 2.419 . S
O55 C75 1.249 . S
C56 O45 1.276 . S
C56 O48 1.235 . S
C57 C59 1.393 . S
C57 C61 1.395 . S
C57 C64 1.492 . S
C58 C59 1.392 . S
C58 C60 1.386 . S
C59 C57 1.393 . S
C59 C58 1.392 . S
C59 H76 0.930 . S
C60 C58 1.386 . S
C60 C62 1.395 . S
C60 H77 0.930 . S
C61 C57 1.395 . S
C61 C62 1.379 . S
C61 H78 0.930 . S
C62 C60 1.395 . S
C62 C61 1.379 . S
C62 H79 0.930 . S
C63 O46 1.264 . S
C63 O47 1.254 . S
C64 Eu0 2.848 . S
C64 O44 1.257 . S
C64 O49 1.249 . S
C64 C57 1.492 . S
C65 H30 0.931 1_455 S
C65 C43 1.420 . S
C65 C66 1.351 1_455 S
C66 H28 0.930 . S
C66 C34 1.423 1_655 S
C66 C65 1.351 1_655 S
C67 O51 1.276 . S
C67 O54 1.235 . S
C68 C69 1.393 . S
C68 C72 1.395 . S
C68 C75 1.492 . S
C69 C68 1.393 . S
C69 C70 1.392 . S
C69 H80 0.930 . S
C70 C69 1.392 . S
C70 C71 1.386 . S
C71 C70 1.386 . S
C71 C73 1.395 . S
C71 H81 0.930 . S
C72 C68 1.395 . S
C72 C73 1.379 . S
C72 H82 0.930 . S
C73 C71 1.395 . S
C73 C72 1.379 . S
C73 H83 0.930 . S
C74 O52 1.264 . S
C74 O53 1.254 . S
C75 Eu11 2.848 . S
C75 O50 1.257 . S
C75 O55 1.249 . S
C75 C68 1.492 . S
H76 C59 0.930 . S
H77 C60 0.930 . S
H78 C61 0.930 . S
H79 C62 0.930 . S
H80 C69 0.930 . S
H81 C71 0.930 . S
H82 C72 0.930 . S
H83 C73 0.930 . S
Eu84 N115 2.657 . S
Eu84 N122 2.609 . S
Eu84 O128 2.558 . S
Eu84 O129 2.612 . S
Eu84 O131 2.339 . S
Eu84 O132 2.563 . S
Eu84 O133 2.419 . S
Eu84 O135 2.380 . S
Eu84 O136 2.432 . S
Eu84 C148 2.848 . S
C85 C88 1.429 . S
C85 C89 1.411 . S
C85 N92 1.377 . S
C86 C88 1.420 . S
C86 C90 1.423 . S
C86 C98 1.392 . S
C87 C89 1.420 . S
C87 C90 1.351 . S
C87 H110 0.931 1_655 S
C88 C85 1.429 . S
C88 C86 1.420 . S
C88 N96 1.362 . S
C89 C85 1.411 . S
C89 C87 1.420 . S
C89 C94 1.395 . S
C90 C86 1.423 . S
C90 C87 1.351 . S
C90 H102 0.930 1_655 S
C91 C93 1.400 . S
C91 C94 1.386 . S
C91 H103 0.930 . S
N92 C85 1.377 . S
N92 C93 1.321 . S
N92 Eu95 2.609 . S
C93 C91 1.400 . S
C93 N92 1.321 . S
C93 H100 0.930 . S
C94 C89 1.395 . S
C94 C91 1.386 . S
C94 H113 0.930 . S
Eu95 N92 2.609 . S
Eu95 N96 2.657 . S
Eu95 O129 2.380 . S
Eu95 O130 2.432 . S
Eu95 O134 2.558 . S
Eu95 O135 2.612 . S
Eu95 O137 2.339 . S
Eu95 O138 2.563 . S
Eu95 O139 2.419 . S
Eu95 C159 2.848 . S
N96 C88 1.362 . S
N96 Eu95 2.657 . S
N96 C97 1.334 . S
C97 N96 1.334 . S
C97 C99 1.413 . S
C97 H104 0.929 . S
C98 C86 1.392 . S
C98 C99 1.367 . S
C98 H106 0.930 . S
C99 C97 1.413 . S
C99 C98 1.367 . S
C99 H101 0.930 . S
H100 C93 0.930 . S
H101 C99 0.930 . S
H102 C90 0.930 1_455 S
H103 C91 0.930 . S
H104 C97 0.929 . S
H105 C119 0.930 . S
H106 C98 0.930 . S
H107 C125 0.930 . S
H108 C116 0.929 . S
H109 C123 0.930 . S
H110 C87 0.931 1_455 S
H111 C117 0.930 1_565 S
H112 C150 0.930 . S
H113 C94 0.930 . S
H114 C149 0.931 1_565 S
N115 Eu84 2.657 . S
N115 C116 1.334 . S
N115 C120 1.362 . S
C116 H108 0.929 . S
C116 N115 1.334 . S
C116 C119 1.413 . S
C117 H111 0.930 1_545 S
C117 C118 1.392 . S
C117 C119 1.367 . S
C118 C117 1.392 . S
C118 C120 1.420 . S
C118 C150 1.423 1_545 S
C119 H105 0.930 . S
C119 C116 1.413 . S
C119 C117 1.367 . S
C120 N115 1.362 . S
C120 C118 1.420 . S
C120 C124 1.429 . S
H121 C126 0.930 . S
N122 Eu84 2.609 . S
N122 C124 1.377 . S
N122 C125 1.321 . S
C123 H109 0.930 . S
C123 C125 1.400 . S
C123 C126 1.386 . S
C124 C120 1.429 . S
C124 N122 1.377 . S
C124 C127 1.411 . S
C125 H107 0.930 . S
C125 N122 1.321 . S
C125 C123 1.400 . S
C126 H121 0.930 . S
C126 C123 1.386 . S
C126 C127 1.395 . S
C127 C124 1.411 . S
C127 C126 1.395 . S
C127 C149 1.420 . S
O128 Eu84 2.558 . S
O128 C148 1.257 . S
O129 Eu84 2.612 . S
O129 Eu95 2.380 . S
O129 C140 1.276 . S
O130 Eu95 2.432 . S
O130 C147 1.264 . S
O131 Eu84 2.339 . S
O131 C147 1.254 . S
O132 Eu84 2.563 . S
O132 C140 1.235 . S
O133 Eu84 2.419 . S
O133 C148 1.249 . S
O134 Eu95 2.558 . S
O134 C159 1.257 . S
O135 Eu84 2.380 . S
O135 Eu95 2.612 . S
O135 C151 1.276 . S
O136 Eu84 2.432 . S
O136 C158 1.264 . S
O137 Eu95 2.339 . S
O137 C158 1.254 . S
O138 Eu95 2.563 . S
O138 C151 1.235 . S
O139 Eu95 2.419 . S
O139 C159 1.249 . S
C140 O129 1.276 . S
C140 O132 1.235 . S
C141 C143 1.393 . S
C141 C145 1.395 . S
C141 C148 1.492 . S
C142 C143 1.392 . S
C142 C144 1.386 . S
C143 C141 1.393 . S
C143 C142 1.392 . S
C143 H160 0.930 . S
C144 C142 1.386 . S
C144 C146 1.395 . S
C144 H161 0.930 . S
C145 C141 1.395 . S
C145 C146 1.379 . S
C145 H162 0.930 . S
C146 C144 1.395 . S
C146 C145 1.379 . S
C146 H163 0.930 . S
C147 O130 1.264 . S
C147 O131 1.254 . S
C148 Eu84 2.848 . S
C148 O128 1.257 . S
C148 O133 1.249 . S
C148 C141 1.492 . S
C149 H114 0.931 1_545 S
C149 C127 1.420 . S
C149 C150 1.351 1_545 S
C150 H112 0.930 . S
C150 C118 1.423 1_565 S
C150 C149 1.351 1_565 S
C151 O135 1.276 . S
C151 O138 1.235 . S
C152 C153 1.393 . S
C152 C156 1.395 . S
C152 C159 1.492 1_455 S
C153 C152 1.393 . S
C153 C154 1.392 . S
C153 H164 0.930 . S
C154 C153 1.392 . S
C154 C155 1.386 . S
C155 C154 1.386 . S
C155 C157 1.395 . S
C155 H165 0.930 . S
C156 C152 1.395 . S
C156 C157 1.379 . S
C156 H166 0.930 . S
C157 C155 1.395 . S
C157 C156 1.379 . S
C157 H167 0.930 . S
C158 O136 1.264 . S
C158 O137 1.254 . S
C159 Eu95 2.848 . S
C159 O134 1.257 . S
C159 O139 1.249 . S
C159 C152 1.492 1_655 S
H160 C143 0.930 . S
H161 C144 0.930 . S
H162 C145 0.930 . S
H163 C146 0.930 . S
H164 C153 0.930 . S
H165 C155 0.930 . S
H166 C156 0.930 . S
H167 C157 0.930 . S
Eu168 N199 2.657 . S
Eu168 N206 2.609 . S
Eu168 O212 2.558 . S
Eu168 O213 2.612 . S
Eu168 O215 2.339 . S
Eu168 O216 2.563 . S
Eu168 O217 2.419 . S
Eu168 O219 2.380 . S
Eu168 O220 2.432 . S
Eu168 C232 2.848 . S
C169 C172 1.429 . S
C169 C173 1.411 . S
C169 N176 1.377 . S
C170 C172 1.420 . S
C170 C174 1.423 . S
C170 C182 1.392 . S
C171 C173 1.420 . S
C171 C174 1.351 . S
C171 H194 0.931 1_565 S
C172 C169 1.429 . S
C172 C170 1.420 . S
C172 N180 1.362 . S
C173 C169 1.411 . S
C173 C171 1.420 . S
C173 C178 1.395 . S
C174 C170 1.423 . S
C174 C171 1.351 . S
C174 H186 0.930 1_565 S
C175 C177 1.400 . S
C175 C178 1.386 . S
C175 H187 0.930 . S
N176 C169 1.377 . S
N176 C177 1.321 . S
N176 Eu179 2.609 . S
C177 C175 1.400 . S
C177 N176 1.321 . S
C177 H184 0.930 . S
C178 C173 1.395 . S
C178 C175 1.386 . S
C178 H197 0.930 . S
Eu179 N176 2.609 . S
Eu179 N180 2.657 . S
Eu179 O213 2.380 . S
Eu179 O214 2.432 . S
Eu179 O218 2.558 . S
Eu179 O219 2.612 . S
Eu179 O221 2.339 . S
Eu179 O222 2.563 . S
Eu179 O223 2.419 . S
Eu179 C243 2.848 . S
N180 C172 1.362 . S
N180 Eu179 2.657 . S
N180 C181 1.334 . S
C181 N180 1.334 . S
C181 C183 1.413 . S
C181 H188 0.929 . S
C182 C170 1.392 . S
C182 C183 1.367 . S
C182 H190 0.930 . S
C183 C181 1.413 . S
C183 C182 1.367 . S
C183 H185 0.930 . S
H184 C177 0.930 . S
H185 C183 0.930 . S
H186 C174 0.930 1_545 S
H187 C175 0.930 . S
H188 C181 0.929 . S
H189 C203 0.930 . S
H190 C182 0.930 . S
H191 C209 0.930 . S
H192 C200 0.929 . S
H193 C207 0.957 . S
H194 C171 0.931 1_545 S
H195 C201 0.930 . S
H196 C234 0.930 . S
H197 C178 0.930 . S
H198 C233 0.931 . S
N199 Eu168 2.657 . S
N199 C200 1.334 . S
N199 C204 1.362 . S
C200 H192 0.929 . S
C200 N199 1.334 . S
C200 C203 1.413 . S
C201 H195 0.930 . S
C201 C202 1.392 . S
C201 C203 1.367 . S
C202 C201 1.392 . S
C202 C204 1.420 . S
C202 C234 1.423 . S
C203 H189 0.930 . S
C203 C200 1.413 . S
C203 C201 1.367 . S
C204 N199 1.362 . S
C204 C202 1.420 . S
C204 C208 1.429 . S
H205 C210 0.930 . S
N206 Eu168 2.609 . S
N206 C208 1.377 . S
N206 C209 1.321 . S
C207 H193 0.957 . S
C207 C209 1.400 . S
C207 C210 1.386 . S
C208 C204 1.429 . S
C208 N206 1.377 . S
C208 C211 1.411 . S
C209 H191 0.930 . S
C209 N206 1.321 . S
C209 C207 1.400 . S
C210 H205 0.930 . S
C210 C207 1.386 . S
C210 C211 1.395 . S
C211 C208 1.411 . S
C211 C210 1.395 . S
C211 C233 1.420 . S
O212 Eu168 2.558 . S
O212 C232 1.257 . S
O213 Eu168 2.612 . S
O213 Eu179 2.380 . S
O213 C224 1.276 . S
O214 Eu179 2.432 . S
O214 C231 1.264 . S
O215 Eu168 2.339 . S
O215 C231 1.254 . S
O216 Eu168 2.563 . S
O216 C224 1.235 . S
O217 Eu168 2.419 . S
O217 C232 1.249 . S
O218 Eu179 2.558 . S
O218 C243 1.257 . S
O219 Eu168 2.380 . S
O219 Eu179 2.612 . S
O219 C235 1.276 . S
O220 Eu168 2.432 . S
O220 C242 1.264 . S
O221 Eu179 2.339 . S
O221 C242 1.254 . S
O222 Eu179 2.563 . S
O222 C235 1.235 . S
O223 Eu179 2.419 . S
O223 C243 1.249 . S
C224 O213 1.276 . S
C224 O216 1.235 . S
C225 C227 1.393 . S
C225 C229 1.395 . S
C225 C232 1.492 . S
C226 C227 1.392 . S
C226 C228 1.386 . S
C227 C225 1.393 . S
C227 C226 1.392 . S
C227 H244 0.930 . S
C228 C226 1.386 . S
C228 C230 1.395 . S
C228 H245 0.930 . S
C229 C225 1.395 . S
C229 C230 1.379 . S
C229 H246 0.930 . S
C230 C228 1.395 . S
C230 C229 1.379 . S
C230 H247 0.930 . S
C231 O214 1.264 . S
C231 O215 1.254 . S
C232 Eu168 2.848 . S
C232 O212 1.257 . S
C232 O217 1.249 . S
C232 C225 1.492 . S
C233 H198 0.931 . S
C233 C211 1.420 . S
C233 C234 1.351 . S
C234 H196 0.930 . S
C234 C202 1.423 . S
C234 C233 1.351 . S
C235 O219 1.276 . S
C235 O222 1.235 . S
C236 C237 1.393 . S
C236 C240 1.395 . S
C236 C243 1.492 1_545 S
C237 C236 1.393 . S
C237 C238 1.392 . S
C237 H248 0.930 . S
C238 C237 1.392 . S
C238 C239 1.386 . S
C239 C238 1.386 . S
C239 C241 1.395 . S
C239 H249 0.930 . S
C240 C236 1.395 . S
C240 C241 1.379 . S
C240 H250 0.930 . S
C241 C239 1.395 . S
C241 C240 1.379 . S
C241 H251 0.930 . S
C242 O220 1.264 . S
C242 O221 1.254 . S
C243 Eu179 2.848 . S
C243 O218 1.257 . S
C243 O223 1.249 . S
C243 C236 1.492 1_565 S
H244 C227 0.930 . S
H245 C228 0.930 . S
H246 C229 0.930 . S
H247 C230 0.930 . S
H248 C237 0.930 . S
H249 C239 0.930 . S
H250 C240 0.930 . S
H251 C241 0.930 . S
Eu252 N283 2.657 . S
Eu252 N290 2.609 . S
Eu252 O296 2.558 . S
Eu252 O297 2.612 . S
Eu252 O299 2.339 . S
Eu252 O300 2.563 . S
Eu252 O301 2.419 . S
Eu252 O303 2.380 . S
Eu252 O304 2.432 . S
Eu252 C316 2.848 . S
C253 C256 1.429 . S
C253 C257 1.411 . S
C253 N260 1.377 . S
C254 C256 1.420 . S
C254 C258 1.423 . S
C254 C266 1.392 . S
C255 C257 1.420 . S
C255 C258 1.351 . S
C255 H278 0.931 . S
C256 C253 1.429 . S
C256 C254 1.420 . S
C256 N264 1.362 . S
C257 C253 1.411 . S
C257 C255 1.420 . S
C257 C262 1.395 . S
C258 C254 1.423 . S
C258 C255 1.351 . S
C258 H270 0.930 . S
C259 C261 1.400 . S
C259 C262 1.386 . S
C259 H271 0.930 . S
N260 C253 1.377 . S
N260 C261 1.321 . S
N260 Eu263 2.609 . S
C261 C259 1.400 . S
C261 N260 1.321 . S
C261 H268 0.930 . S
C262 C257 1.395 . S
C262 C259 1.386 . S
C262 H281 0.930 . S
Eu263 N260 2.609 . S
Eu263 N264 2.657 . S
Eu263 O297 2.380 . S
Eu263 O298 2.432 . S
Eu263 O302 2.558 . S
Eu263 O303 2.612 . S
Eu263 O305 2.339 . S
Eu263 O306 2.563 . S
Eu263 O307 2.419 . S
Eu263 C327 2.848 . S
N264 C256 1.362 . S
N264 Eu263 2.657 . S
N264 C265 1.334 . S
C265 N264 1.334 . S
C265 C267 1.413 . S
C265 H272 0.929 . S
C266 C254 1.392 . S
C266 C267 1.367 . S
C266 H274 0.930 . S
C267 C265 1.413 . S
C267 C266 1.367 . S
C267 H269 0.930 . S
H268 C261 0.930 . S
H269 C267 0.930 . S
H270 C258 0.930 . S
H271 C259 0.930 . S
H272 C265 0.929 . S
H273 C287 0.930 . S
H274 C266 0.930 . S
H275 C293 0.930 . S
H276 C284 0.929 . S
H277 C291 0.930 . S
H278 C255 0.931 . S
H279 C285 0.930 1_455 S
H280 C318 0.930 . S
H281 C262 0.930 . S
H282 C317 0.931 1_455 S
N283 Eu252 2.657 . S
N283 C284 1.334 . S
N283 C288 1.362 . S
C284 H276 0.929 . S
C284 N283 1.334 . S
C284 C287 1.413 . S
C285 H279 0.930 1_655 S
C285 C286 1.392 . S
C285 C287 1.367 . S
C286 C285 1.392 . S
C286 C288 1.420 . S
C286 C318 1.423 1_655 S
C287 H273 0.930 . S
C287 C284 1.413 . S
C287 C285 1.367 . S
C288 N283 1.362 . S
C288 C286 1.420 . S
C288 C292 1.429 . S
H289 C294 0.930 . S
N290 Eu252 2.609 . S
N290 C292 1.377 . S
N290 C293 1.321 . S
C291 H277 0.930 . S
C291 C293 1.400 . S
C291 C294 1.386 . S
C292 C288 1.429 . S
C292 N290 1.377 . S
C292 C295 1.411 . S
C293 H275 0.930 . S
C293 N290 1.321 . S
C293 C291 1.400 . S
C294 H289 0.930 . S
C294 C291 1.386 . S
C294 C295 1.395 . S
C295 C292 1.411 . S
C295 C294 1.395 . S
C295 C317 1.420 . S
O296 Eu252 2.558 . S
O296 C316 1.257 . S
O297 Eu252 2.612 . S
O297 Eu263 2.380 . S
O297 C308 1.276 . S
O298 Eu263 2.432 . S
O298 C315 1.264 . S
O299 Eu252 2.339 . S
O299 C315 1.254 . S
O300 Eu252 2.563 . S
O300 C308 1.235 . S
O301 Eu252 2.419 . S
O301 C316 1.249 . S
O302 Eu263 2.558 . S
O302 C327 1.257 . S
O303 Eu252 2.380 . S
O303 Eu263 2.612 . S
O303 C319 1.276 . S
O304 Eu252 2.432 . S
O304 C326 1.264 . S
O305 Eu263 2.339 . S
O305 C326 1.254 . S
O306 Eu263 2.563 . S
O306 C319 1.235 . S
O307 Eu263 2.419 . S
O307 C327 1.249 . S
C308 O297 1.276 . S
C308 O300 1.235 . S
C309 C311 1.393 . S
C309 C313 1.395 . S
C309 C316 1.492 . S
C310 C311 1.392 . S
C310 C312 1.386 . S
C311 C309 1.393 . S
C311 C310 1.392 . S
C311 H328 0.930 . S
C312 C310 1.386 . S
C312 C314 1.395 . S
C312 H329 0.930 . S
C313 C309 1.395 . S
C313 C314 1.379 . S
C313 H330 0.930 . S
C314 C312 1.395 . S
C314 C313 1.379 . S
C314 H331 0.930 . S
C315 O298 1.264 . S
C315 O299 1.254 . S
C316 Eu252 2.848 . S
C316 O296 1.257 . S
C316 O301 1.249 . S
C316 C309 1.492 . S
C317 H282 0.931 1_655 S
C317 C295 1.420 . S
C317 C318 1.351 1_655 S
C318 H280 0.930 . S
C318 C286 1.423 1_455 S
C318 C317 1.351 1_455 S
C319 O303 1.276 . S
C319 O306 1.235 . S
C320 C321 1.393 . S
C320 C324 1.395 . S
C320 C327 1.492 . S
C321 C320 1.393 . S
C321 C322 1.392 . S
C321 H332 0.930 . S
C322 C321 1.392 . S
C322 C323 1.386 . S
C323 C322 1.386 . S
C323 C325 1.395 . S
C323 H333 0.930 . S
C324 C320 1.395 . S
C324 C325 1.379 . S
C324 H334 0.930 . S
C325 C323 1.395 . S
C325 C324 1.379 . S
C325 H335 0.930 . S
C326 O304 1.264 . S
C326 O305 1.254 . S
C327 Eu263 2.848 . S
C327 O302 1.257 . S
C327 O307 1.249 . S
C327 C320 1.492 . S
H328 C311 0.930 . S
H329 C312 0.930 . S
H330 C313 0.930 . S
H331 C314 0.930 . S
H332 C321 0.930 . S
H333 C323 0.930 . S
H334 C324 0.930 . S
H335 C325 0.930 . S
Eu336 N367 2.657 . S
Eu336 N374 2.609 . S
Eu336 O380 2.558 . S
Eu336 O381 2.612 . S
Eu336 O383 2.339 . S
Eu336 O384 2.563 . S
Eu336 O385 2.419 . S
Eu336 O387 2.380 . S
Eu336 O388 2.432 . S
Eu336 C400 2.848 . S
C337 C340 1.429 . S
C337 C341 1.411 . S
C337 N344 1.377 . S
C338 C340 1.420 . S
C338 C342 1.423 . S
C338 C350 1.392 . S
C339 C341 1.420 . S
C339 C342 1.351 . S
C339 H362 0.931 1_455 S
C340 C337 1.429 . S
C340 C338 1.420 . S
C340 N348 1.362 . S
C341 C337 1.411 . S
C341 C339 1.420 . S
C341 C346 1.395 . S
C342 C338 1.423 . S
C342 C339 1.351 . S
C342 H354 0.930 1_455 S
C343 C345 1.400 . S
C343 C346 1.386 . S
C343 H355 0.930 . S
N344 C337 1.377 . S
N344 C345 1.321 . S
N344 Eu347 2.609 . S
C345 C343 1.400 . S
C345 N344 1.321 . S
C345 H352 0.930 . S
C346 C341 1.395 . S
C346 C343 1.386 . S
C346 H365 0.930 . S
Eu347 N344 2.609 . S
Eu347 N348 2.657 . S
Eu347 O381 2.380 . S
Eu347 O382 2.432 . S
Eu347 O386 2.558 . S
Eu347 O387 2.612 . S
Eu347 O389 2.339 . S
Eu347 O390 2.563 . S
Eu347 O391 2.419 . S
Eu347 C411 2.848 . S
N348 C340 1.362 . S
N348 Eu347 2.657 . S
N348 C349 1.334 . S
C349 N348 1.334 . S
C349 C351 1.413 . S
C349 H356 0.929 . S
C350 C338 1.392 . S
C350 C351 1.367 . S
C350 H358 0.930 . S
C351 C349 1.413 . S
C351 C350 1.367 . S
C351 H353 0.930 . S
H352 C345 0.930 . S
H353 C351 0.930 . S
H354 C342 0.930 1_655 S
H355 C343 0.930 . S
H356 C349 0.929 . S
H357 C371 0.930 . S
H358 C350 0.930 . S
H359 C377 0.930 . S
H360 C368 0.929 . S
H361 C375 0.957 . S
H362 C339 0.931 1_655 S
H363 C369 0.930 1_545 S
H364 C402 0.930 . S
H365 C346 0.930 . S
H366 C401 0.931 1_545 S
N367 Eu336 2.657 . S
N367 C368 1.334 . S
N367 C372 1.362 . S
C368 H360 0.929 . S
C368 N367 1.334 . S
C368 C371 1.413 . S
C369 H363 0.930 1_565 S
C369 C370 1.392 . S
C369 C371 1.367 . S
C370 C369 1.392 . S
C370 C372 1.420 . S
C370 C402 1.423 1_565 S
C371 H357 0.930 . S
C371 C368 1.413 . S
C371 C369 1.367 . S
C372 N367 1.362 . S
C372 C370 1.420 . S
C372 C376 1.429 . S
H373 C378 0.930 . S
N374 Eu336 2.609 . S
N374 C376 1.377 . S
N374 C377 1.321 . S
C375 H361 0.957 . S
C375 C377 1.400 . S
C375 C378 1.386 . S
C376 C372 1.429 . S
C376 N374 1.377 . S
C376 C379 1.411 . S
C377 H359 0.930 . S
C377 N374 1.321 . S
C377 C375 1.400 . S
C378 H373 0.930 . S
C378 C375 1.386 . S
C378 C379 1.395 . S
C379 C376 1.411 . S
C379 C378 1.395 . S
C379 C401 1.420 . S
O380 Eu336 2.558 . S
O380 C400 1.257 . S
O381 Eu336 2.612 . S
O381 Eu347 2.380 . S
O381 C392 1.276 . S
O382 Eu347 2.432 . S
O382 C399 1.264 . S
O383 Eu336 2.339 . S
O383 C399 1.254 . S
O384 Eu336 2.563 . S
O384 C392 1.235 . S
O385 Eu336 2.419 . S
O385 C400 1.249 . S
O386 Eu347 2.558 . S
O386 C411 1.257 . S
O387 Eu336 2.380 . S
O387 Eu347 2.612 . S
O387 C403 1.276 . S
O388 Eu336 2.432 . S
O388 C410 1.264 . S
O389 Eu347 2.339 . S
O389 C410 1.254 . S
O390 Eu347 2.563 . S
O390 C403 1.235 . S
O391 Eu347 2.419 . S
O391 C411 1.249 . S
C392 O381 1.276 . S
C392 O384 1.235 . S
C393 C395 1.393 . S
C393 C397 1.395 . S
C393 C400 1.492 . S
C394 C395 1.392 . S
C394 C396 1.386 . S
C395 C393 1.393 . S
C395 C394 1.392 . S
C395 H412 0.930 . S
C396 C394 1.386 . S
C396 C398 1.395 . S
C396 H413 0.930 . S
C397 C393 1.395 . S
C397 C398 1.379 . S
C397 H414 0.930 . S
C398 C396 1.395 . S
C398 C397 1.379 . S
C398 H415 0.930 . S
C399 O382 1.264 . S
C399 O383 1.254 . S
C400 Eu336 2.848 . S
C400 O380 1.257 . S
C400 O385 1.249 . S
C400 C393 1.492 . S
C401 H366 0.931 1_565 S
C401 C379 1.420 . S
C401 C402 1.351 1_565 S
C402 H364 0.930 . S
C402 C370 1.423 1_545 S
C402 C401 1.351 1_545 S
C403 O387 1.276 . S
C403 O390 1.235 . S
C404 C405 1.393 . S
C404 C408 1.395 . S
C404 C411 1.492 1_655 S
C405 C404 1.393 . S
C405 C406 1.392 . S
C405 H416 0.930 . S
C406 C405 1.392 . S
C406 C407 1.386 . S
C407 C406 1.386 . S
C407 C409 1.395 . S
C407 H417 0.930 . S
C408 C404 1.395 . S
C408 C409 1.379 . S
C408 H418 0.930 . S
C409 C407 1.395 . S
C409 C408 1.379 . S
C409 H419 0.930 . S
C410 O388 1.264 . S
C410 O389 1.254 . S
C411 Eu347 2.848 . S
C411 O386 1.257 . S
C411 O391 1.249 . S
C411 C404 1.492 1_455 S
H412 C395 0.930 . S
H413 C396 0.930 . S
H414 C397 0.930 . S
H415 C398 0.930 . S
H416 C405 0.930 . S
H417 C407 0.930 . S
H418 C408 0.930 . S
H419 C409 0.930 . S
Eu420 N451 2.657 . S
Eu420 N458 2.609 . S
Eu420 O464 2.558 . S
Eu420 O465 2.612 . S
Eu420 O467 2.339 . S
Eu420 O468 2.563 . S
Eu420 O469 2.419 . S
Eu420 O471 2.380 . S
Eu420 O472 2.432 . S
Eu420 C484 2.848 . S
C421 C424 1.429 . S
C421 C425 1.411 . S
C421 N428 1.377 . S
C422 C424 1.420 . S
C422 C426 1.423 . S
C422 C434 1.392 . S
C423 C425 1.420 . S
C423 C426 1.351 . S
C423 H446 0.931 1_545 S
C424 C421 1.429 . S
C424 C422 1.420 . S
C424 N432 1.362 . S
C425 C421 1.411 . S
C425 C423 1.420 . S
C425 C430 1.395 . S
C426 C422 1.423 . S
C426 C423 1.351 . S
C426 H438 0.930 1_545 S
C427 C429 1.400 . S
C427 C430 1.386 . S
C427 H439 0.930 . S
N428 C421 1.377 . S
N428 C429 1.321 . S
N428 Eu431 2.609 . S
C429 C427 1.400 . S
C429 N428 1.321 . S
C429 H436 0.930 . S
C430 C425 1.395 . S
C430 C427 1.386 . S
C430 H449 0.930 . S
Eu431 N428 2.609 . S
Eu431 N432 2.657 . S
Eu431 O465 2.380 . S
Eu431 O466 2.432 . S
Eu431 O470 2.558 . S
Eu431 O471 2.612 . S
Eu431 O473 2.339 . S
Eu431 O474 2.563 . S
Eu431 O475 2.419 . S
Eu431 C495 2.848 . S
N432 C424 1.362 . S
N432 Eu431 2.657 . S
N432 C433 1.334 . S
C433 N432 1.334 . S
C433 C435 1.413 . S
C433 H440 0.929 . S
C434 C422 1.392 . S
C434 C435 1.367 . S
C434 H442 0.930 . S
C435 C433 1.413 . S
C435 C434 1.367 . S
C435 H437 0.930 . S
H436 C429 0.930 . S
H437 C435 0.930 . S
H438 C426 0.930 1_565 S
H439 C427 0.930 . S
H440 C433 0.929 . S
H441 C455 0.930 . S
H442 C434 0.930 . S
H443 C461 0.930 . S
H444 C452 0.929 . S
H445 C459 0.930 . S
H446 C423 0.931 1_565 S
H447 C453 0.930 . S
H448 C486 0.930 . S
H449 C430 0.930 . S
H450 C485 0.931 . S
N451 Eu420 2.657 . S
N451 C452 1.334 . S
N451 C456 1.362 . S
C452 H444 0.929 . S
C452 N451 1.334 . S
C452 C455 1.413 . S
C453 H447 0.930 . S
C453 C454 1.392 . S
C453 C455 1.367 . S
C454 C453 1.392 . S
C454 C456 1.420 . S
C454 C486 1.423 . S
C455 H441 0.930 . S
C455 C452 1.413 . S
C455 C453 1.367 . S
C456 N451 1.362 . S
C456 C454 1.420 . S
C456 C460 1.429 . S
H457 C462 0.930 . S
N458 Eu420 2.609 . S
N458 C460 1.377 . S
N458 C461 1.321 . S
C459 H445 0.930 . S
C459 C461 1.400 . S
C459 C462 1.386 . S
C460 C456 1.429 . S
C460 N458 1.377 . S
C460 C463 1.411 . S
C461 H443 0.930 . S
C461 N458 1.321 . S
C461 C459 1.400 . S
C462 H457 0.930 . S
C462 C459 1.386 . S
C462 C463 1.395 . S
C463 C460 1.411 . S
C463 C462 1.395 . S
C463 C485 1.420 . S
O464 Eu420 2.558 . S
O464 C484 1.257 . S
O465 Eu420 2.612 . S
O465 Eu431 2.380 . S
O465 C476 1.276 . S
O466 Eu431 2.432 . S
O466 C483 1.264 . S
O467 Eu420 2.339 . S
O467 C483 1.254 . S
O468 Eu420 2.563 . S
O468 C476 1.235 . S
O469 Eu420 2.419 . S
O469 C484 1.249 . S
O470 Eu431 2.558 . S
O470 C495 1.257 . S
O471 Eu420 2.380 . S
O471 Eu431 2.612 . S
O471 C487 1.276 . S
O472 Eu420 2.432 . S
O472 C494 1.264 . S
O473 Eu431 2.339 . S
O473 C494 1.254 . S
O474 Eu431 2.563 . S
O474 C487 1.235 . S
O475 Eu431 2.419 . S
O475 C495 1.249 . S
C476 O465 1.276 . S
C476 O468 1.235 . S
C477 C479 1.393 . S
C477 C481 1.395 . S
C477 C484 1.492 . S
C478 C479 1.392 . S
C478 C480 1.386 . S
C479 C477 1.393 . S
C479 C478 1.392 . S
C479 H496 0.930 . S
C480 C478 1.386 . S
C480 C482 1.395 . S
C480 H497 0.930 . S
C481 C477 1.395 . S
C481 C482 1.379 . S
C481 H498 0.930 . S
C482 C480 1.395 . S
C482 C481 1.379 . S
C482 H499 0.930 . S
C483 O466 1.264 . S
C483 O467 1.254 . S
C484 Eu420 2.848 . S
C484 O464 1.257 . S
C484 O469 1.249 . S
C484 C477 1.492 . S
C485 H450 0.931 . S
C485 C463 1.420 . S
C485 C486 1.351 . S
C486 H448 0.930 . S
C486 C454 1.423 . S
C486 C485 1.351 . S
C487 O471 1.276 . S
C487 O474 1.235 . S
C488 C489 1.393 . S
C488 C492 1.395 . S
C488 C495 1.492 1_565 S
C489 C488 1.393 . S
C489 C490 1.392 . S
C489 H500 0.930 . S
C490 C489 1.392 . S
C490 C491 1.386 . S
C491 C490 1.386 . S
C491 C493 1.395 . S
C491 H501 0.930 . S
C492 C488 1.395 . S
C492 C493 1.379 . S
C492 H502 0.930 . S
C493 C491 1.395 . S
C493 C492 1.379 . S
C493 H503 0.930 . S
C494 O472 1.264 . S
C494 O473 1.254 . S
C495 Eu431 2.848 . S
C495 O470 1.257 . S
C495 O475 1.249 . S
C495 C488 1.492 1_545 S
H496 C479 0.930 . S
H497 C480 0.930 . S
H498 C481 0.930 . S
H499 C482 0.930 . S
H500 C489 0.930 . S
H501 C491 0.930 . S
H502 C492 0.930 . S
H503 C493 0.930 . S
Eu504 N535 2.657 . S
Eu504 N542 2.609 . S
Eu504 O548 2.558 . S
Eu504 O549 2.612 . S
Eu504 O551 2.339 . S
Eu504 O552 2.563 . S
Eu504 O553 2.419 . S
Eu504 O555 2.380 . S
Eu504 O556 2.432 . S
Eu504 C568 2.848 . S
C505 C508 1.429 . S
C505 C509 1.411 . S
C505 N512 1.377 . S
C506 C508 1.420 . S
C506 C510 1.423 . S
C506 C518 1.392 . S
C507 C509 1.420 . S
C507 C510 1.351 . S
C507 H530 0.931 . S
C508 C505 1.429 . S
C508 C506 1.420 . S
C508 N516 1.362 . S
C509 C505 1.411 . S
C509 C507 1.420 . S
C509 C514 1.395 . S
C510 C506 1.423 . S
C510 C507 1.351 . S
C510 H522 0.930 . S
C511 C513 1.400 . S
C511 C514 1.386 . S
C511 H523 0.930 . S
N512 C505 1.377 . S
N512 C513 1.321 . S
N512 Eu515 2.609 . S
C513 C511 1.400 . S
C513 N512 1.321 . S
C513 H520 0.930 . S
C514 C509 1.395 . S
C514 C511 1.386 . S
C514 H533 0.930 . S
Eu515 N512 2.609 . S
Eu515 N516 2.657 . S
Eu515 O549 2.380 . S
Eu515 O550 2.432 . S
Eu515 O554 2.558 . S
Eu515 O555 2.612 . S
Eu515 O557 2.339 . S
Eu515 O558 2.563 . S
Eu515 O559 2.419 . S
Eu515 C579 2.848 . S
N516 C508 1.362 . S
N516 Eu515 2.657 . S
N516 C517 1.334 . S
C517 N516 1.334 . S
C517 C519 1.413 . S
C517 H524 0.929 . S
C518 C506 1.392 . S
C518 C519 1.367 . S
C518 H526 0.930 . S
C519 C517 1.413 . S
C519 C518 1.367 . S
C519 H521 0.930 . S
H520 C513 0.930 . S
H521 C519 0.930 . S
H522 C510 0.930 . S
H523 C511 0.930 . S
H524 C517 0.929 . S
H525 C539 0.930 . S
H526 C518 0.930 . S
H527 C545 0.930 . S
H528 C536 0.929 . S
H529 C543 0.930 . S
H530 C507 0.931 . S
H531 C537 0.930 1_545 S
H532 C570 0.930 . S
H533 C514 0.930 . S
H534 C569 0.931 1_545 S
N535 Eu504 2.657 . S
N535 C536 1.334 . S
N535 C540 1.362 . S
C536 H528 0.929 . S
C536 N535 1.334 . S
C536 C539 1.413 . S
C537 H531 0.930 1_565 S
C537 C538 1.392 . S
C537 C539 1.367 . S
C538 C537 1.392 . S
C538 C540 1.420 . S
C538 C570 1.423 1_565 S
C539 H525 0.930 . S
C539 C536 1.413 . S
C539 C537 1.367 . S
C540 N535 1.362 . S
C540 C538 1.420 . S
C540 C544 1.429 . S
H541 C546 0.930 . S
N542 Eu504 2.609 . S
N542 C544 1.377 . S
N542 C545 1.321 . S
C543 H529 0.930 . S
C543 C545 1.400 . S
C543 C546 1.386 . S
C544 C540 1.429 . S
C544 N542 1.377 . S
C544 C547 1.411 . S
C545 H527 0.930 . S
C545 N542 1.321 . S
C545 C543 1.400 . S
C546 H541 0.930 . S
C546 C543 1.386 . S
C546 C547 1.395 . S
C547 C544 1.411 . S
C547 C546 1.395 . S
C547 C569 1.420 . S
O548 Eu504 2.558 . S
O548 C568 1.257 . S
O549 Eu504 2.612 . S
O549 Eu515 2.380 . S
O549 C560 1.276 . S
O550 Eu515 2.432 . S
O550 C567 1.264 . S
O551 Eu504 2.339 . S
O551 C567 1.254 . S
O552 Eu504 2.563 . S
O552 C560 1.235 . S
O553 Eu504 2.419 . S
O553 C568 1.249 . S
O554 Eu515 2.558 . S
O554 C579 1.257 . S
O555 Eu504 2.380 . S
O555 Eu515 2.612 . S
O555 C571 1.276 . S
O556 Eu504 2.432 . S
O556 C578 1.264 . S
O557 Eu515 2.339 . S
O557 C578 1.254 . S
O558 Eu515 2.563 . S
O558 C571 1.235 . S
O559 Eu515 2.419 . S
O559 C579 1.249 . S
C560 O549 1.276 . S
C560 O552 1.235 . S
C561 C563 1.393 . S
C561 C565 1.395 . S
C561 C568 1.492 . S
C562 C563 1.392 . S
C562 C564 1.386 . S
C563 C561 1.393 . S
C563 C562 1.392 . S
C563 H580 0.930 . S
C564 C562 1.386 . S
C564 C566 1.395 . S
C564 H581 0.930 . S
C565 C561 1.395 . S
C565 C566 1.379 . S
C565 H582 0.930 . S
C566 C564 1.395 . S
C566 C565 1.379 . S
C566 H583 0.930 . S
C567 O550 1.264 . S
C567 O551 1.254 . S
C568 Eu504 2.848 . S
C568 O548 1.257 . S
C568 O553 1.249 . S
C568 C561 1.492 . S
C569 H534 0.931 1_565 S
C569 C547 1.420 . S
C569 C570 1.351 1_565 S
C570 H532 0.930 . S
C570 C538 1.423 1_545 S
C570 C569 1.351 1_545 S
C571 O555 1.276 . S
C571 O558 1.235 . S
C572 C573 1.393 . S
C572 C576 1.395 . S
C572 C579 1.492 . S
C573 C572 1.393 . S
C573 C574 1.392 . S
C573 H584 0.930 . S
C574 C573 1.392 . S
C574 C575 1.386 . S
C575 C574 1.386 . S
C575 C577 1.395 . S
C575 H585 0.930 . S
C576 C572 1.395 . S
C576 C577 1.379 . S
C576 H586 0.930 . S
C577 C575 1.395 . S
C577 C576 1.379 . S
C577 H587 0.930 . S
C578 O556 1.264 . S
C578 O557 1.254 . S
C579 Eu515 2.848 . S
C579 O554 1.257 . S
C579 O559 1.249 . S
C579 C572 1.492 . S
H580 C563 0.930 . S
H581 C564 0.930 . S
H582 C565 0.930 . S
H583 C566 0.930 . S
H584 C573 0.930 . S
H585 C575 0.930 . S
H586 C576 0.930 . S
H587 C577 0.930 . S
Eu588 N619 2.657 . S
Eu588 N626 2.609 . S
Eu588 O632 2.558 . S
Eu588 O633 2.612 . S
Eu588 O635 2.339 . S
Eu588 O636 2.563 . S
Eu588 O637 2.419 . S
Eu588 O639 2.380 . S
Eu588 O640 2.432 . S
Eu588 C652 2.848 . S
C589 C592 1.429 . S
C589 C593 1.411 . S
C589 N596 1.377 . S
C590 C592 1.420 . S
C590 C594 1.423 . S
C590 C602 1.392 . S
C591 C593 1.420 . S
C591 C594 1.351 . S
C591 H614 0.931 1_655 S
C592 C589 1.429 . S
C592 C590 1.420 . S
C592 N600 1.362 . S
C593 C589 1.411 . S
C593 C591 1.420 . S
C593 C598 1.395 . S
C594 C590 1.423 . S
C594 C591 1.351 . S
C594 H606 0.930 1_655 S
C595 C597 1.400 . S
C595 C598 1.386 . S
C595 H607 0.930 . S
N596 C589 1.377 . S
N596 C597 1.321 . S
N596 Eu599 2.609 . S
C597 C595 1.400 . S
C597 N596 1.321 . S
C597 H604 0.930 . S
C598 C593 1.395 . S
C598 C595 1.386 . S
C598 H617 0.930 . S
Eu599 N596 2.609 . S
Eu599 N600 2.657 . S
Eu599 O633 2.380 . S
Eu599 O634 2.432 . S
Eu599 O638 2.558 . S
Eu599 O639 2.612 . S
Eu599 O641 2.339 . S
Eu599 O642 2.563 . S
Eu599 O643 2.419 . S
Eu599 C663 2.848 . S
N600 C592 1.362 . S
N600 Eu599 2.657 . S
N600 C601 1.334 . S
C601 N600 1.334 . S
C601 C603 1.413 . S
C601 H608 0.929 . S
C602 C590 1.392 . S
C602 C603 1.367 . S
C602 H610 0.930 . S
C603 C601 1.413 . S
C603 C602 1.367 . S
C603 H605 0.930 . S
H604 C597 0.930 . S
H605 C603 0.930 . S
H606 C594 0.930 1_455 S
H607 C595 0.930 . S
H608 C601 0.929 . S
H609 C623 0.930 . S
H610 C602 0.930 . S
H611 C629 0.930 . S
H612 C620 0.929 . S
H613 C627 0.957 . S
H614 C591 0.931 1_455 S
H615 C621 0.930 . S
H616 C654 0.930 . S
H617 C598 0.930 . S
H618 C653 0.931 . S
N619 Eu588 2.657 . S
N619 C620 1.334 . S
N619 C624 1.362 . S
C620 H612 0.929 . S
C620 N619 1.334 . S
C620 C623 1.413 . S
C621 H615 0.930 . S
C621 C622 1.392 . S
C621 C623 1.367 . S
C622 C621 1.392 . S
C622 C624 1.420 . S
C622 C654 1.423 . S
C623 H609 0.930 . S
C623 C620 1.413 . S
C623 C621 1.367 . S
C624 N619 1.362 . S
C624 C622 1.420 . S
C624 C628 1.429 . S
H625 C630 0.930 . S
N626 Eu588 2.609 . S
N626 C628 1.377 . S
N626 C629 1.321 . S
C627 H613 0.957 . S
C627 C629 1.400 . S
C627 C630 1.386 . S
C628 C624 1.429 . S
C628 N626 1.377 . S
C628 C631 1.411 . S
C629 H611 0.930 . S
C629 N626 1.321 . S
C629 C627 1.400 . S
C630 H625 0.930 . S
C630 C627 1.386 . S
C630 C631 1.395 . S
C631 C628 1.411 . S
C631 C630 1.395 . S
C631 C653 1.420 . S
O632 Eu588 2.558 . S
O632 C652 1.257 . S
O633 Eu588 2.612 . S
O633 Eu599 2.380 . S
O633 C644 1.276 . S
O634 Eu599 2.432 . S
O634 C651 1.264 . S
O635 Eu588 2.339 . S
O635 C651 1.254 . S
O636 Eu588 2.563 . S
O636 C644 1.235 . S
O637 Eu588 2.419 . S
O637 C652 1.249 . S
O638 Eu599 2.558 . S
O638 C663 1.257 . S
O639 Eu588 2.380 . S
O639 Eu599 2.612 . S
O639 C655 1.276 . S
O640 Eu588 2.432 . S
O640 C662 1.264 . S
O641 Eu599 2.339 . S
O641 C662 1.254 . S
O642 Eu599 2.563 . S
O642 C655 1.235 . S
O643 Eu599 2.419 . S
O643 C663 1.249 . S
C644 O633 1.276 . S
C644 O636 1.235 . S
C645 C647 1.393 . S
C645 C649 1.395 . S
C645 C652 1.492 . S
C646 C647 1.392 . S
C646 C648 1.386 . S
C647 C645 1.393 . S
C647 C646 1.392 . S
C647 H664 0.930 . S
C648 C646 1.386 . S
C648 C650 1.395 . S
C648 H665 0.930 . S
C649 C645 1.395 . S
C649 C650 1.379 . S
C649 H666 0.930 . S
C650 C648 1.395 . S
C650 C649 1.379 . S
C650 H667 0.930 . S
C651 O634 1.264 . S
C651 O635 1.254 . S
C652 Eu588 2.848 . S
C652 O632 1.257 . S
C652 O637 1.249 . S
C652 C645 1.492 . S
C653 H618 0.931 . S
C653 C631 1.420 . S
C653 C654 1.351 . S
C654 H616 0.930 . S
C654 C622 1.423 . S
C654 C653 1.351 . S
C655 O639 1.276 . S
C655 O642 1.235 . S
C656 C657 1.393 . S
C656 C660 1.395 . S
C656 C663 1.492 1_455 S
C657 C656 1.393 . S
C657 C658 1.392 . S
C657 H668 0.930 . S
C658 C657 1.392 . S
C658 C659 1.386 . S
C659 C658 1.386 . S
C659 C661 1.395 . S
C659 H669 0.930 . S
C660 C656 1.395 . S
C660 C661 1.379 . S
C660 H670 0.930 . S
C661 C659 1.395 . S
C661 C660 1.379 . S
C661 H671 0.930 . S
C662 O640 1.264 . S
C662 O641 1.254 . S
C663 Eu599 2.848 . S
C663 O638 1.257 . S
C663 O643 1.249 . S
C663 C656 1.492 1_655 S
H664 C647 0.930 . S
H665 C648 0.930 . S
H666 C649 0.930 . S
H667 C650 0.930 . S
H668 C657 0.930 . S
H669 C659 0.930 . S
H670 C660 0.930 . S
H671 C661 0.930 . S
Eu672 N703 2.657 . S
Eu672 N710 2.609 . S
Eu672 O716 2.558 . S
Eu672 O717 2.612 . S
Eu672 O719 2.339 . S
Eu672 O720 2.563 . S
Eu672 O721 2.419 . S
Eu672 O723 2.380 . S
Eu672 O724 2.432 . S
Eu672 C736 2.848 . S
C673 C676 1.429 . S
C673 C677 1.411 . S
C673 N680 1.377 . S
C674 C676 1.420 . S
C674 C678 1.423 . S
C674 C686 1.392 . S
C675 C677 1.420 . S
C675 C678 1.351 . S
C675 H698 0.931 1_565 S
C676 C673 1.429 . S
C676 C674 1.420 . S
C676 N684 1.362 . S
C677 C673 1.411 . S
C677 C675 1.420 . S
C677 C682 1.395 . S
C678 C674 1.423 . S
C678 C675 1.351 . S
C678 H690 0.930 1_565 S
C679 C681 1.400 . S
C679 C682 1.386 . S
C679 H691 0.930 . S
N680 C673 1.377 . S
N680 C681 1.321 . S
N680 Eu683 2.609 . S
C681 C679 1.400 . S
C681 N680 1.321 . S
C681 H688 0.930 . S
C682 C677 1.395 . S
C682 C679 1.386 . S
C682 H701 0.930 . S
Eu683 N680 2.609 . S
Eu683 N684 2.657 . S
Eu683 O717 2.380 . S
Eu683 O718 2.432 . S
Eu683 O722 2.558 . S
Eu683 O723 2.612 . S
Eu683 O725 2.339 . S
Eu683 O726 2.563 . S
Eu683 O727 2.419 . S
Eu683 C747 2.848 . S
N684 C676 1.362 . S
N684 Eu683 2.657 . S
N684 C685 1.334 . S
C685 N684 1.334 . S
C685 C687 1.413 . S
C685 H692 0.929 . S
C686 C674 1.392 . S
C686 C687 1.367 . S
C686 H694 0.930 . S
C687 C685 1.413 . S
C687 C686 1.367 . S
C687 H689 0.930 . S
H688 C681 0.930 . S
H689 C687 0.930 . S
H690 C678 0.930 1_545 S
H691 C679 0.930 . S
H692 C685 0.929 . S
H693 C707 0.930 . S
H694 C686 0.930 . S
H695 C713 0.930 . S
H696 C704 0.929 . S
H697 C711 0.930 . S
H698 C675 0.931 1_545 S
H699 C705 0.930 1_655 S
H700 C738 0.930 . S
H701 C682 0.930 . S
H702 C737 0.931 1_655 S
N703 Eu672 2.657 . S
N703 C704 1.334 . S
N703 C708 1.362 . S
C704 H696 0.929 . S
C704 N703 1.334 . S
C704 C707 1.413 . S
C705 H699 0.930 1_455 S
C705 C706 1.392 . S
C705 C707 1.367 . S
C706 C705 1.392 . S
C706 C708 1.420 . S
C706 C738 1.423 1_455 S
C707 H693 0.930 . S
C707 C704 1.413 . S
C707 C705 1.367 . S
C708 N703 1.362 . S
C708 C706 1.420 . S
C708 C712 1.429 . S
H709 C714 0.930 . S
N710 Eu672 2.609 . S
N710 C712 1.377 . S
N710 C713 1.321 . S
C711 H697 0.930 . S
C711 C713 1.400 . S
C711 C714 1.386 . S
C712 C708 1.429 . S
C712 N710 1.377 . S
C712 C715 1.411 . S
C713 H695 0.930 . S
C713 N710 1.321 . S
C713 C711 1.400 . S
C714 H709 0.930 . S
C714 C711 1.386 . S
C714 C715 1.395 . S
C715 C712 1.411 . S
C715 C714 1.395 . S
C715 C737 1.420 . S
O716 Eu672 2.558 . S
O716 C736 1.257 . S
O717 Eu672 2.612 . S
O717 Eu683 2.380 . S
O717 C728 1.276 . S
O718 Eu683 2.432 . S
O718 C735 1.264 . S
O719 Eu672 2.339 . S
O719 C735 1.254 . S
O720 Eu672 2.563 . S
O720 C728 1.235 . S
O721 Eu672 2.419 . S
O721 C736 1.249 . S
O722 Eu683 2.558 . S
O722 C747 1.257 . S
O723 Eu672 2.380 . S
O723 Eu683 2.612 . S
O723 C739 1.276 . S
O724 Eu672 2.432 . S
O724 C746 1.264 . S
O725 Eu683 2.339 . S
O725 C746 1.254 . S
O726 Eu683 2.563 . S
O726 C739 1.235 . S
O727 Eu683 2.419 . S
O727 C747 1.249 . S
C728 O717 1.276 . S
C728 O720 1.235 . S
C729 C731 1.393 . S
C729 C733 1.395 . S
C729 C736 1.492 . S
C730 C731 1.392 . S
C730 C732 1.386 . S
C731 C729 1.393 . S
C731 C730 1.392 . S
C731 H748 0.930 . S
C732 C730 1.386 . S
C732 C734 1.395 . S
C732 H749 0.930 . S
C733 C729 1.395 . S
C733 C734 1.379 . S
C733 H750 0.930 . S
C734 C732 1.395 . S
C734 C733 1.379 . S
C734 H751 0.930 . S
C735 O718 1.264 . S
C735 O719 1.254 . S
C736 Eu672 2.848 . S
C736 O716 1.257 . S
C736 O721 1.249 . S
C736 C729 1.492 . S
C737 H702 0.931 1_455 S
C737 C715 1.420 . S
C737 C738 1.351 1_455 S
C738 H700 0.930 . S
C738 C706 1.423 1_655 S
C738 C737 1.351 1_655 S
C739 O723 1.276 . S
C739 O726 1.235 . S
C740 C741 1.393 . S
C740 C744 1.395 . S
C740 C747 1.492 1_545 S
C741 C740 1.393 . S
C741 C742 1.392 . S
C741 H752 0.930 . S
C742 C741 1.392 . S
C742 C743 1.386 . S
C743 C742 1.386 . S
C743 C745 1.395 . S
C743 H753 0.930 . S
C744 C740 1.395 . S
C744 C745 1.379 . S
C744 H754 0.930 . S
C745 C743 1.395 . S
C745 C744 1.379 . S
C745 H755 0.930 . S
C746 O724 1.264 . S
C746 O725 1.254 . S
C747 Eu683 2.848 . S
C747 O722 1.257 . S
C747 O727 1.249 . S
C747 C740 1.492 1_565 S
H748 C731 0.930 . S
H749 C732 0.930 . S
H750 C733 0.930 . S
H751 C734 0.930 . S
H752 C741 0.930 . S
H753 C743 0.930 . S
H754 C744 0.930 . S
H755 C745 0.930 . S
Eu756 N787 2.657 . S
Eu756 N794 2.609 . S
Eu756 O800 2.558 . S
Eu756 O801 2.612 . S
Eu756 O803 2.339 . S
Eu756 O804 2.563 . S
Eu756 O805 2.419 . S
Eu756 O807 2.380 . S
Eu756 O808 2.432 . S
Eu756 C820 2.848 . S
C757 C760 1.429 . S
C757 C761 1.411 . S
C757 N764 1.377 . S
C758 C760 1.420 . S
C758 C762 1.423 . S
C758 C770 1.392 . S
C759 C761 1.420 . S
C759 C762 1.351 . S
C759 H782 0.931 . S
C760 C757 1.429 . S
C760 C758 1.420 . S
C760 N768 1.362 . S
C761 C757 1.411 . S
C761 C759 1.420 . S
C761 C766 1.395 . S
C762 C758 1.423 . S
C762 C759 1.351 . S
C762 H774 0.930 . S
C763 C765 1.400 . S
C763 C766 1.386 . S
C763 H775 0.930 . S
N764 C757 1.377 . S
N764 C765 1.321 . S
N764 Eu767 2.609 . S
C765 C763 1.400 . S
C765 N764 1.321 . S
C765 H772 0.930 . S
C766 C761 1.395 . S
C766 C763 1.386 . S
C766 H785 0.930 . S
Eu767 N764 2.609 . S
Eu767 N768 2.657 . S
Eu767 O801 2.380 . S
Eu767 O802 2.432 . S
Eu767 O806 2.558 . S
Eu767 O807 2.612 . S
Eu767 O809 2.339 . S
Eu767 O810 2.563 . S
Eu767 O811 2.419 . S
Eu767 C831 2.848 . S
N768 C760 1.362 . S
N768 Eu767 2.657 . S
N768 C769 1.334 . S
C769 N768 1.334 . S
C769 C771 1.413 . S
C769 H776 0.929 . S
C770 C758 1.392 . S
C770 C771 1.367 . S
C770 H778 0.930 . S
C771 C769 1.413 . S
C771 C770 1.367 . S
C771 H773 0.930 . S
H772 C765 0.930 . S
H773 C771 0.930 . S
H774 C762 0.930 . S
H775 C763 0.930 . S
H776 C769 0.929 . S
H777 C791 0.930 . S
H778 C770 0.930 . S
H779 C797 0.930 . S
H780 C788 0.929 . S
H781 C795 0.957 . S
H782 C759 0.931 . S
H783 C789 0.930 1_565 S
H784 C822 0.930 . S
H785 C766 0.930 . S
H786 C821 0.931 1_565 S
N787 Eu756 2.657 . S
N787 C788 1.334 . S
N787 C792 1.362 . S
C788 H780 0.929 . S
C788 N787 1.334 . S
C788 C791 1.413 . S
C789 H783 0.930 1_545 S
C789 C790 1.392 . S
C789 C791 1.367 . S
C790 C789 1.392 . S
C790 C792 1.420 . S
C790 C822 1.423 1_545 S
C791 H777 0.930 . S
C791 C788 1.413 . S
C791 C789 1.367 . S
C792 N787 1.362 . S
C792 C790 1.420 . S
C792 C796 1.429 . S
H793 C798 0.930 . S
N794 Eu756 2.609 . S
N794 C796 1.377 . S
N794 C797 1.321 . S
C795 H781 0.957 . S
C795 C797 1.400 . S
C795 C798 1.386 . S
C796 C792 1.429 . S
C796 N794 1.377 . S
C796 C799 1.411 . S
C797 H779 0.930 . S
C797 N794 1.321 . S
C797 C795 1.400 . S
C798 H793 0.930 . S
C798 C795 1.386 . S
C798 C799 1.395 . S
C799 C796 1.411 . S
C799 C798 1.395 . S
C799 C821 1.420 . S
O800 Eu756 2.558 . S
O800 C820 1.257 . S
O801 Eu756 2.612 . S
O801 Eu767 2.380 . S
O801 C812 1.276 . S
O802 Eu767 2.432 . S
O802 C819 1.264 . S
O803 Eu756 2.339 . S
O803 C819 1.254 . S
O804 Eu756 2.563 . S
O804 C812 1.235 . S
O805 Eu756 2.419 . S
O805 C820 1.249 . S
O806 Eu767 2.558 . S
O806 C831 1.257 . S
O807 Eu756 2.380 . S
O807 Eu767 2.612 . S
O807 C823 1.276 . S
O808 Eu756 2.432 . S
O808 C830 1.264 . S
O809 Eu767 2.339 . S
O809 C830 1.254 . S
O810 Eu767 2.563 . S
O810 C823 1.235 . S
O811 Eu767 2.419 . S
O811 C831 1.249 . S
C812 O801 1.276 . S
C812 O804 1.235 . S
C813 C815 1.393 . S
C813 C817 1.395 . S
C813 C820 1.492 . S
C814 C815 1.392 . S
C814 C816 1.386 . S
C815 C813 1.393 . S
C815 C814 1.392 . S
C815 H832 0.930 . S
C816 C814 1.386 . S
C816 C818 1.395 . S
C816 H833 0.930 . S
C817 C813 1.395 . S
C817 C818 1.379 . S
C817 H834 0.930 . S
C818 C816 1.395 . S
C818 C817 1.379 . S
C818 H835 0.930 . S
C819 O802 1.264 . S
C819 O803 1.254 . S
C820 Eu756 2.848 . S
C820 O800 1.257 . S
C820 O805 1.249 . S
C820 C813 1.492 . S
C821 H786 0.931 1_545 S
C821 C799 1.420 . S
C821 C822 1.351 1_545 S
C822 H784 0.930 . S
C822 C790 1.423 1_565 S
C822 C821 1.351 1_565 S
C823 O807 1.276 . S
C823 O810 1.235 . S
C824 C825 1.393 . S
C824 C828 1.395 . S
C824 C831 1.492 . S
C825 C824 1.393 . S
C825 C826 1.392 . S
C825 H836 0.930 . S
C826 C825 1.392 . S
C826 C827 1.386 . S
C827 C826 1.386 . S
C827 C829 1.395 . S
C827 H837 0.930 . S
C828 C824 1.395 . S
C828 C829 1.379 . S
C828 H838 0.930 . S
C829 C827 1.395 . S
C829 C828 1.379 . S
C829 H839 0.930 . S
C830 O808 1.264 . S
C830 O809 1.254 . S
C831 Eu767 2.848 . S
C831 O806 1.257 . S
C831 O811 1.249 . S
C831 C824 1.492 . S
H832 C815 0.930 . S
H833 C816 0.930 . S
H834 C817 0.930 . S
H835 C818 0.930 . S
H836 C825 0.930 . S
H837 C827 0.930 . S
H838 C828 0.930 . S
H839 C829 0.930 . S
Eu840 N871 2.657 . S
Eu840 N878 2.609 . S
Eu840 O884 2.558 . S
Eu840 O885 2.612 . S
Eu840 O887 2.339 . S
Eu840 O888 2.563 . S
Eu840 O889 2.419 . S
Eu840 O891 2.380 . S
Eu840 O892 2.432 . S
Eu840 C904 2.848 . S
C841 C844 1.429 . S
C841 C845 1.411 . S
C841 N848 1.377 . S
C842 C844 1.420 . S
C842 C846 1.423 . S
C842 C854 1.392 . S
C843 C845 1.420 . S
C843 C846 1.351 . S
C843 H866 0.931 1_455 S
C844 C841 1.429 . S
C844 C842 1.420 . S
C844 N852 1.362 . S
C845 C841 1.411 . S
C845 C843 1.420 . S
C845 C850 1.395 . S
C846 C842 1.423 . S
C846 C843 1.351 . S
C846 H858 0.930 1_455 S
C847 C849 1.400 . S
C847 C850 1.386 . S
C847 H859 0.930 . S
N848 C841 1.377 . S
N848 C849 1.321 . S
N848 Eu851 2.609 . S
C849 C847 1.400 . S
C849 N848 1.321 . S
C849 H856 0.930 . S
C850 C845 1.395 . S
C850 C847 1.386 . S
C850 H869 0.930 . S
Eu851 N848 2.609 . S
Eu851 N852 2.657 . S
Eu851 O885 2.380 . S
Eu851 O886 2.432 . S
Eu851 O890 2.558 . S
Eu851 O891 2.612 . S
Eu851 O893 2.339 . S
Eu851 O894 2.563 . S
Eu851 O895 2.419 . S
Eu851 C915 2.848 . S
N852 C844 1.362 . S
N852 Eu851 2.657 . S
N852 C853 1.334 . S
C853 N852 1.334 . S
C853 C855 1.413 . S
C853 H860 0.929 . S
C854 C842 1.392 . S
C854 C855 1.367 . S
C854 H862 0.930 . S
C855 C853 1.413 . S
C855 C854 1.367 . S
C855 H857 0.930 . S
H856 C849 0.930 . S
H857 C855 0.930 . S
H858 C846 0.930 1_655 S
H859 C847 0.930 . S
H860 C853 0.929 . S
H861 C875 0.930 . S
H862 C854 0.930 . S
H863 C881 0.930 . S
H864 C872 0.929 . S
H865 C879 0.930 . S
H866 C843 0.931 1_655 S
H867 C873 0.930 . S
H868 C906 0.930 . S
H869 C850 0.930 . S
H870 C905 0.931 . S
N871 Eu840 2.657 . S
N871 C872 1.334 . S
N871 C876 1.362 . S
C872 H864 0.929 . S
C872 N871 1.334 . S
C872 C875 1.413 . S
C873 H867 0.930 . S
C873 C874 1.392 . S
C873 C875 1.367 . S
C874 C873 1.392 . S
C874 C876 1.420 . S
C874 C906 1.423 . S
C875 H861 0.930 . S
C875 C872 1.413 . S
C875 C873 1.367 . S
C876 N871 1.362 . S
C876 C874 1.420 . S
C876 C880 1.429 . S
H877 C882 0.930 . S
N878 Eu840 2.609 . S
N878 C880 1.377 . S
N878 C881 1.321 . S
C879 H865 0.930 . S
C879 C881 1.400 . S
C879 C882 1.386 . S
C880 C876 1.429 . S
C880 N878 1.377 . S
C880 C883 1.411 . S
C881 H863 0.930 . S
C881 N878 1.321 . S
C881 C879 1.400 . S
C882 H877 0.930 . S
C882 C879 1.386 . S
C882 C883 1.395 . S
C883 C880 1.411 . S
C883 C882 1.395 . S
C883 C905 1.420 . S
O884 Eu840 2.558 . S
O884 C904 1.257 . S
O885 Eu840 2.612 . S
O885 Eu851 2.380 . S
O885 C896 1.276 . S
O886 Eu851 2.432 . S
O886 C903 1.264 . S
O887 Eu840 2.339 . S
O887 C903 1.254 . S
O888 Eu840 2.563 . S
O888 C896 1.235 . S
O889 Eu840 2.419 . S
O889 C904 1.249 . S
O890 Eu851 2.558 . S
O890 C915 1.257 . S
O891 Eu840 2.380 . S
O891 Eu851 2.612 . S
O891 C907 1.276 . S
O892 Eu840 2.432 . S
O892 C914 1.264 . S
O893 Eu851 2.339 . S
O893 C914 1.254 . S
O894 Eu851 2.563 . S
O894 C907 1.235 . S
O895 Eu851 2.419 . S
O895 C915 1.249 . S
C896 O885 1.276 . S
C896 O888 1.235 . S
C897 C899 1.393 . S
C897 C901 1.395 . S
C897 C904 1.492 . S
C898 C899 1.392 . S
C898 C900 1.386 . S
C899 C897 1.393 . S
C899 C898 1.392 . S
C899 H916 0.930 . S
C900 C898 1.386 . S
C900 C902 1.395 . S
C900 H917 0.930 . S
C901 C897 1.395 . S
C901 C902 1.379 . S
C901 H918 0.930 . S
C902 C900 1.395 . S
C902 C901 1.379 . S
C902 H919 0.930 . S
C903 O886 1.264 . S
C903 O887 1.254 . S
C904 Eu840 2.848 . S
C904 O884 1.257 . S
C904 O889 1.249 . S
C904 C897 1.492 . S
C905 H870 0.931 . S
C905 C883 1.420 . S
C905 C906 1.351 . S
C906 H868 0.930 . S
C906 C874 1.423 . S
C906 C905 1.351 . S
C907 O891 1.276 . S
C907 O894 1.235 . S
C908 C909 1.393 . S
C908 C912 1.395 . S
C908 C915 1.492 1_655 S
C909 C908 1.393 . S
C909 C910 1.392 . S
C909 H920 0.930 . S
C910 C909 1.392 . S
C910 C911 1.386 . S
C911 C910 1.386 . S
C911 C913 1.395 . S
C911 H921 0.930 . S
C912 C908 1.395 . S
C912 C913 1.379 . S
C912 H922 0.930 . S
C913 C911 1.395 . S
C913 C912 1.379 . S
C913 H923 0.930 . S
C914 O892 1.264 . S
C914 O893 1.254 . S
C915 Eu851 2.848 . S
C915 O890 1.257 . S
C915 O895 1.249 . S
C915 C908 1.492 1_455 S
H916 C899 0.930 . S
H917 C900 0.930 . S
H918 C901 0.930 . S
H919 C902 0.930 . S
H920 C909 0.930 . S
H921 C911 0.930 . S
H922 C912 0.930 . S
H923 C913 0.930 . S
Eu924 N955 2.657 . S
Eu924 N962 2.609 . S
Eu924 O968 2.558 . S
Eu924 O969 2.612 . S
Eu924 O971 2.339 . S
Eu924 O972 2.563 . S
Eu924 O973 2.419 . S
Eu924 O975 2.380 . S
Eu924 O976 2.432 . S
Eu924 C988 2.848 . S
C925 C928 1.429 . S
C925 C929 1.411 . S
C925 N932 1.377 . S
C926 C928 1.420 . S
C926 C930 1.423 . S
C926 C938 1.392 . S
C927 C929 1.420 . S
C927 C930 1.351 . S
C927 H950 0.931 1_545 S
C928 C925 1.429 . S
C928 C926 1.420 . S
C928 N936 1.362 . S
C929 C925 1.411 . S
C929 C927 1.420 . S
C929 C934 1.395 . S
C930 C926 1.423 . S
C930 C927 1.351 . S
C930 H942 0.930 1_545 S
C931 C933 1.400 . S
C931 C934 1.386 . S
C931 H943 0.930 . S
N932 C925 1.377 . S
N932 C933 1.321 . S
N932 Eu935 2.609 . S
C933 C931 1.400 . S
C933 N932 1.321 . S
C933 H940 0.930 . S
C934 C929 1.395 . S
C934 C931 1.386 . S
C934 H953 0.930 . S
Eu935 N932 2.609 . S
Eu935 N936 2.657 . S
Eu935 O969 2.380 . S
Eu935 O970 2.432 . S
Eu935 O974 2.558 . S
Eu935 O975 2.612 . S
Eu935 O977 2.339 . S
Eu935 O978 2.563 . S
Eu935 O979 2.419 . S
Eu935 C999 2.848 . S
N936 C928 1.362 . S
N936 Eu935 2.657 . S
N936 C937 1.334 . S
C937 N936 1.334 . S
C937 C939 1.413 . S
C937 H944 0.929 . S
C938 C926 1.392 . S
C938 C939 1.367 . S
C938 H946 0.930 . S
C939 C937 1.413 . S
C939 C938 1.367 . S
C939 H941 0.930 . S
H940 C933 0.930 . S
H941 C939 0.930 . S
H942 C930 0.930 1_565 S
H943 C931 0.930 . S
H944 C937 0.929 . S
H945 C959 0.930 . S
H946 C938 0.930 . S
H947 C965 0.930 . S
H948 C956 0.929 . S
H949 C963 0.957 . S
H950 C927 0.931 1_565 S
H951 C957 0.930 1_455 S
H952 C990 0.930 . S
H953 C934 0.930 . S
H954 C989 0.931 1_455 S
N955 Eu924 2.657 . S
N955 C956 1.334 . S
N955 C960 1.362 . S
C956 H948 0.929 . S
C956 N955 1.334 . S
C956 C959 1.413 . S
C957 H951 0.930 1_655 S
C957 C958 1.392 . S
C957 C959 1.367 . S
C958 C957 1.392 . S
C958 C960 1.420 . S
C958 C990 1.423 1_655 S
C959 H945 0.930 . S
C959 C956 1.413 . S
C959 C957 1.367 . S
C960 N955 1.362 . S
C960 C958 1.420 . S
C960 C964 1.429 . S
H961 C966 0.930 . S
N962 Eu924 2.609 . S
N962 C964 1.377 . S
N962 C965 1.321 . S
C963 H949 0.957 . S
C963 C965 1.400 . S
C963 C966 1.386 . S
C964 C960 1.429 . S
C964 N962 1.377 . S
C964 C967 1.411 . S
C965 H947 0.930 . S
C965 N962 1.321 . S
C965 C963 1.400 . S
C966 H961 0.930 . S
C966 C963 1.386 . S
C966 C967 1.395 . S
C967 C964 1.411 . S
C967 C966 1.395 . S
C967 C989 1.420 . S
O968 Eu924 2.558 . S
O968 C988 1.257 . S
O969 Eu924 2.612 . S
O969 Eu935 2.380 . S
O969 C980 1.276 . S
O970 Eu935 2.432 . S
O970 C987 1.264 . S
O971 Eu924 2.339 . S
O971 C987 1.254 . S
O972 Eu924 2.563 . S
O972 C980 1.235 . S
O973 Eu924 2.419 . S
O973 C988 1.249 . S
O974 Eu935 2.558 . S
O974 C999 1.257 . S
O975 Eu924 2.380 . S
O975 Eu935 2.612 . S
O975 C991 1.276 . S
O976 Eu924 2.432 . S
O976 C998 1.264 . S
O977 Eu935 2.339 . S
O977 C998 1.254 . S
O978 Eu935 2.563 . S
O978 C991 1.235 . S
O979 Eu935 2.419 . S
O979 C999 1.249 . S
C980 O969 1.276 . S
C980 O972 1.235 . S
C981 C983 1.393 . S
C981 C985 1.395 . S
C981 C988 1.492 . S
C982 C983 1.392 . S
C982 C984 1.386 . S
C983 C981 1.393 . S
C983 C982 1.392 . S
C983 H1000 0.930 . S
C984 C982 1.386 . S
C984 C986 1.395 . S
C984 H1001 0.930 . S
C985 C981 1.395 . S
C985 C986 1.379 . S
C985 H1002 0.930 . S
C986 C984 1.395 . S
C986 C985 1.379 . S
C986 H1003 0.930 . S
C987 O970 1.264 . S
C987 O971 1.254 . S
C988 Eu924 2.848 . S
C988 O968 1.257 . S
C988 O973 1.249 . S
C988 C981 1.492 . S
C989 H954 0.931 1_655 S
C989 C967 1.420 . S
C989 C990 1.351 1_655 S
C990 H952 0.930 . S
C990 C958 1.423 1_455 S
C990 C989 1.351 1_455 S
C991 O975 1.276 . S
C991 O978 1.235 . S
C992 C993 1.393 . S
C992 C996 1.395 . S
C992 C999 1.492 1_565 S
C993 C992 1.393 . S
C993 C994 1.392 . S
C993 H1004 0.930 . S
C994 C993 1.392 . S
C994 C995 1.386 . S
C995 C994 1.386 . S
C995 C997 1.395 . S
C995 H1005 0.930 . S
C996 C992 1.395 . S
C996 C997 1.379 . S
C996 H1006 0.930 . S
C997 C995 1.395 . S
C997 C996 1.379 . S
C997 H1007 0.930 . S
C998 O976 1.264 . S
C998 O977 1.254 . S
C999 Eu935 2.848 . S
C999 O974 1.257 . S
C999 O979 1.249 . S
C999 C992 1.492 1_545 S
H1000 C983 0.930 . S
H1001 C984 0.930 . S
H1002 C985 0.930 . S
H1003 C986 0.930 . S
H1004 C993 0.930 . S
H1005 C995 0.930 . S
H1006 C996 0.930 . S
H1007 C997 0.930 . S
H1008 C1020 0.930 . S
H1009 C1022 0.930 . S
H1010 C1023 0.930 . S
H1011 C1027 0.959 . S
H1012 C1027 0.959 1_545 S
H1013 C1027 0.961 . S
H1014 C1028 0.960 1_565 S
H1015 C1028 0.961 . S
H1016 C1028 0.959 . S
H1017 C1031 0.929 . S
H1018 C1032 0.931 . S
H1019 C1034 0.930 . S
C1020 H1008 0.930 . S
C1020 C1021 1.399 . S
C1020 C1025 1.399 . S
C1021 C1020 1.399 . S
C1021 C1022 1.376 . S
C1022 H1009 0.930 . S
C1022 C1021 1.376 . S
C1022 C1023 1.388 . S
C1023 H1010 0.930 . S
C1023 C1022 1.388 . S
C1023 C1024 1.390 . S
C1024 C1023 1.390 . S
C1024 C1025 1.394 . S
C1024 C1030 1.465 1_565 S
C1025 C1020 1.399 . S
C1025 C1024 1.394 . S
C1025 C1026 1.516 1_565 S
C1026 C1025 1.516 1_545 S
C1026 C1027 1.502 1_545 S
C1026 C1028 1.561 . S
C1026 C1029 1.526 . S
C1027 H1011 0.959 . S
C1027 H1012 0.959 1_565 S
C1027 H1013 0.961 . S
C1027 C1026 1.502 1_565 S
C1028 H1014 0.960 1_545 S
C1028 H1015 0.961 . S
C1028 H1016 0.959 . S
C1028 C1026 1.561 . S
C1029 C1026 1.526 . S
C1029 C1030 1.396 . S
C1029 C1034 1.390 . S
C1030 C1024 1.465 1_545 S
C1030 C1029 1.396 . S
C1030 C1031 1.399 . S
C1031 H1017 0.929 . S
C1031 C1030 1.399 . S
C1031 C1032 1.385 . S
C1032 H1018 0.931 . S
C1032 C1031 1.385 . S
C1032 C1033 1.389 . S
C1033 C1032 1.389 . S
C1033 C1034 1.387 . S
C1034 H1019 0.930 . S
C1034 C1029 1.390 . S
C1034 C1033 1.387 . S
H1035 C1047 0.930 . S
H1036 C1049 0.930 . S
H1037 C1050 0.930 . S
H1038 C1054 0.959 . S
H1039 C1054 0.959 . S
H1040 C1054 0.961 . S
H1041 C1055 0.960 . S
H1042 C1055 0.961 . S
H1043 C1055 0.959 . S
H1044 C1058 0.929 . S
H1045 C1059 0.931 . S
H1046 C1061 0.930 . S
C1047 H1035 0.930 . S
C1047 C1048 1.399 . S
C1047 C1052 1.399 . S
C1048 C1047 1.399 . S
C1048 C1049 1.376 . S
C1049 H1036 0.930 . S
C1049 C1048 1.376 . S
C1049 C1050 1.388 . S
C1050 H1037 0.930 . S
C1050 C1049 1.388 . S
C1050 C1051 1.390 . S
C1051 C1050 1.390 . S
C1051 C1052 1.394 . S
C1051 C1057 1.465 . S
C1052 C1047 1.399 . S
C1052 C1051 1.394 . S
C1052 C1053 1.516 . S
C1053 C1052 1.516 . S
C1053 C1054 1.502 . S
C1053 C1055 1.561 . S
C1053 C1056 1.526 . S
C1054 H1038 0.959 . S
C1054 H1039 0.959 . S
C1054 H1040 0.961 . S
C1054 C1053 1.502 . S
C1055 H1041 0.960 . S
C1055 H1042 0.961 . S
C1055 H1043 0.959 . S
C1055 C1053 1.561 . S
C1056 C1053 1.526 . S
C1056 C1057 1.396 . S
C1056 C1061 1.390 . S
C1057 C1051 1.465 . S
C1057 C1056 1.396 . S
C1057 C1058 1.399 . S
C1058 H1044 0.929 . S
C1058 C1057 1.399 . S
C1058 C1059 1.385 . S
C1059 H1045 0.931 . S
C1059 C1058 1.385 . S
C1059 C1060 1.389 . S
C1060 C1059 1.389 . S
C1060 C1061 1.387 . S
C1061 H1046 0.930 . S
C1061 C1056 1.390 . S
C1061 C1060 1.387 . S
H1062 C1074 0.930 . S
H1063 C1076 0.930 . S
H1064 C1077 0.930 . S
H1065 C1081 0.959 . S
H1066 C1081 0.959 . S
H1067 C1081 0.961 . S
H1068 C1082 0.960 . S
H1069 C1082 0.961 . S
H1070 C1082 0.959 . S
H1071 C1085 0.929 . S
H1072 C1086 0.931 . S
H1073 C1088 0.930 . S
C1074 H1062 0.930 . S
C1074 C1075 1.399 . S
C1074 C1079 1.399 . S
C1075 C1074 1.399 . S
C1075 C1076 1.376 . S
C1076 H1063 0.930 . S
C1076 C1075 1.376 . S
C1076 C1077 1.388 . S
C1077 H1064 0.930 . S
C1077 C1076 1.388 . S
C1077 C1078 1.390 . S
C1078 C1077 1.390 . S
C1078 C1079 1.394 . S
C1078 C1084 1.465 1_655 S
C1079 C1074 1.399 . S
C1079 C1078 1.394 . S
C1079 C1080 1.516 . S
C1080 C1079 1.516 . S
C1080 C1081 1.502 . S
C1080 C1082 1.561 . S
C1080 C1083 1.526 1_655 S
C1081 H1065 0.959 . S
C1081 H1066 0.959 . S
C1081 H1067 0.961 . S
C1081 C1080 1.502 . S
C1082 H1068 0.960 . S
C1082 H1069 0.961 . S
C1082 H1070 0.959 . S
C1082 C1080 1.561 . S
C1083 C1080 1.526 1_455 S
C1083 C1084 1.396 . S
C1083 C1088 1.390 . S
C1084 C1078 1.465 1_455 S
C1084 C1083 1.396 . S
C1084 C1085 1.399 . S
C1085 H1071 0.929 . S
C1085 C1084 1.399 . S
C1085 C1086 1.385 . S
C1086 H1072 0.931 . S
C1086 C1085 1.385 . S
C1086 C1087 1.389 . S
C1087 C1086 1.389 . S
C1087 C1088 1.387 . S
C1088 H1073 0.930 . S
C1088 C1083 1.390 . S
C1088 C1087 1.387 . S
H1089 C1101 0.930 . S
H1090 C1103 0.930 . S
H1091 C1104 0.930 . S
H1092 C1108 0.959 . S
H1093 C1108 0.959 . S
H1094 C1108 0.961 . S
H1095 C1109 0.960 . S
H1096 C1109 0.961 1_545 S
H1097 C1109 0.959 1_545 S
H1098 C1112 0.929 . S
H1099 C1113 0.931 . S
H1100 C1115 0.930 . S
C1101 H1089 0.930 . S
C1101 C1102 1.399 . S
C1101 C1106 1.399 . S
C1102 C1101 1.399 . S
C1102 C1103 1.376 . S
C1103 H1090 0.930 . S
C1103 C1102 1.376 . S
C1103 C1104 1.388 . S
C1104 H1091 0.930 . S
C1104 C1103 1.388 . S
C1104 C1105 1.390 . S
C1105 C1104 1.390 . S
C1105 C1106 1.394 . S
C1105 C1111 1.465 1_565 S
C1106 C1101 1.399 . S
C1106 C1105 1.394 . S
C1106 C1107 1.516 . S
C1107 C1106 1.516 . S
C1107 C1108 1.502 . S
C1107 C1109 1.561 . S
C1107 C1110 1.526 1_565 S
C1108 H1092 0.959 . S
C1108 H1093 0.959 . S
C1108 H1094 0.961 . S
C1108 C1107 1.502 . S
C1109 H1095 0.960 . S
C1109 H1096 0.961 1_565 S
C1109 H1097 0.959 1_565 S
C1109 C1107 1.561 . S
C1110 C1107 1.526 1_545 S
C1110 C1111 1.396 . S
C1110 C1115 1.390 . S
C1111 C1105 1.465 1_545 S
C1111 C1110 1.396 . S
C1111 C1112 1.399 . S
C1112 H1098 0.929 . S
C1112 C1111 1.399 . S
C1112 C1113 1.385 . S
C1113 H1099 0.931 . S
C1113 C1112 1.385 . S
C1113 C1114 1.389 . S
C1114 C1113 1.389 . S
C1114 C1115 1.387 . S
C1115 H1100 0.930 . S
C1115 C1110 1.390 . S
C1115 C1114 1.387 . S
H1116 C1128 0.930 . S
H1117 C1130 0.930 . S
H1118 C1131 0.930 . S
H1119 C1135 0.959 . S
H1120 C1135 0.959 . S
H1121 C1135 0.961 . S
H1122 C1136 0.960 . S
H1123 C1136 0.961 . S
H1124 C1136 0.959 . S
H1125 C1139 0.929 . S
H1126 C1140 0.931 . S
H1127 C1142 0.930 . S
C1128 H1116 0.930 . S
C1128 C1129 1.399 . S
C1128 C1133 1.399 . S
C1129 C1128 1.399 . S
C1129 C1130 1.376 . S
C1130 H1117 0.930 . S
C1130 C1129 1.376 . S
C1130 C1131 1.388 . S
C1131 H1118 0.930 . S
C1131 C1130 1.388 . S
C1131 C1132 1.390 . S
C1132 C1131 1.390 . S
C1132 C1133 1.394 . S
C1132 C1138 1.465 . S
C1133 C1128 1.399 . S
C1133 C1132 1.394 . S
C1133 C1134 1.516 . S
C1134 C1133 1.516 . S
C1134 C1135 1.502 . S
C1134 C1136 1.561 . S
C1134 C1137 1.526 . S
C1135 H1119 0.959 . S
C1135 H1120 0.959 . S
C1135 H1121 0.961 . S
C1135 C1134 1.502 . S
C1136 H1122 0.960 . S
C1136 H1123 0.961 . S
C1136 H1124 0.959 . S
C1136 C1134 1.561 . S
C1137 C1134 1.526 . S
C1137 C1138 1.396 . S
C1137 C1142 1.390 . S
C1138 C1132 1.465 . S
C1138 C1137 1.396 . S
C1138 C1139 1.399 . S
C1139 H1125 0.929 . S
C1139 C1138 1.399 . S
C1139 C1140 1.385 . S
C1140 H1126 0.931 . S
C1140 C1139 1.385 . S
C1140 C1141 1.389 . S
C1141 C1140 1.389 . S
C1141 C1142 1.387 . S
C1142 H1127 0.930 . S
C1142 C1137 1.390 . S
C1142 C1141 1.387 . S
H1143 C1155 0.930 . S
H1144 C1157 0.930 . S
H1145 C1158 0.930 . S
H1146 C1162 0.959 . S
H1147 C1162 0.959 . S
H1148 C1162 0.961 1_655 S
H1149 C1163 0.960 . S
H1150 C1163 0.961 1_455 S
H1151 C1163 0.959 . S
H1152 C1166 0.929 . S
H1153 C1167 0.931 . S
H1154 C1169 0.930 . S
C1155 H1143 0.930 . S
C1155 C1156 1.399 . S
C1155 C1160 1.399 . S
C1156 C1155 1.399 . S
C1156 C1157 1.376 . S
C1157 H1144 0.930 . S
C1157 C1156 1.376 . S
C1157 C1158 1.388 . S
C1158 H1145 0.930 . S
C1158 C1157 1.388 . S
C1158 C1159 1.390 . S
C1159 C1158 1.390 . S
C1159 C1160 1.394 . S
C1159 C1165 1.465 1_655 S
C1160 C1155 1.399 . S
C1160 C1159 1.394 . S
C1160 C1161 1.516 1_655 S
C1161 C1160 1.516 1_455 S
C1161 C1162 1.502 . S
C1161 C1163 1.561 1_455 S
C1161 C1164 1.526 . S
C1162 H1146 0.959 . S
C1162 H1147 0.959 . S
C1162 H1148 0.961 1_455 S
C1162 C1161 1.502 . S
C1163 H1149 0.960 . S
C1163 H1150 0.961 1_655 S
C1163 H1151 0.959 . S
C1163 C1161 1.561 1_655 S
C1164 C1161 1.526 . S
C1164 C1165 1.396 . S
C1164 C1169 1.390 . S
C1165 C1159 1.465 1_455 S
C1165 C1164 1.396 . S
C1165 C1166 1.399 . S
C1166 H1152 0.929 . S
C1166 C1165 1.399 . S
C1166 C1167 1.385 . S
C1167 H1153 0.931 . S
C1167 C1166 1.385 . S
C1167 C1168 1.389 . S
C1168 C1167 1.389 . S
C1168 C1169 1.387 . S
C1169 H1154 0.930 . S
C1169 C1164 1.390 . S
C1169 C1168 1.387 . S
H1170 C1182 0.930 . S
H1171 C1184 0.930 . S
H1172 C1185 0.930 . S
H1173 C1189 0.959 . S
H1174 C1189 0.967 . S
H1175 C1189 0.961 . S
H1176 C1190 0.940 1_455 S
H1177 C1190 0.981 . S
H1178 C1190 0.957 . S
H1179 C1193 0.929 . S
H1180 C1194 0.931 . S
H1181 C1196 0.930 . S
C1182 H1170 0.930 . S
C1182 C1183 1.399 . S
C1182 C1187 1.399 . S
C1183 C1182 1.399 . S
C1183 C1184 1.376 . S
C1184 H1171 0.930 . S
C1184 C1183 1.376 . S
C1184 C1185 1.388 . S
C1185 H1172 0.930 . S
C1185 C1184 1.388 . S
C1185 C1186 1.390 . S
C1186 C1185 1.390 . S
C1186 C1187 1.394 . S
C1186 C1192 1.465 1_455 S
C1187 C1182 1.399 . S
C1187 C1186 1.394 . S
C1187 C1188 1.516 . S
C1188 C1187 1.516 . S
C1188 C1189 1.502 . S
C1188 C1190 1.563 1_455 S
C1188 C1191 1.526 1_455 S
C1189 H1173 0.959 . S
C1189 H1174 0.967 . S
C1189 H1175 0.961 . S
C1189 C1188 1.502 . S
C1190 H1176 0.940 1_655 S
C1190 H1177 0.981 . S
C1190 H1178 0.957 . S
C1190 C1188 1.563 1_655 S
C1191 C1188 1.526 1_655 S
C1191 C1192 1.396 . S
C1191 C1196 1.390 . S
C1192 C1186 1.465 1_655 S
C1192 C1191 1.396 . S
C1192 C1193 1.399 . S
C1193 H1179 0.929 . S
C1193 C1192 1.399 . S
C1193 C1194 1.385 . S
C1194 H1180 0.931 . S
C1194 C1193 1.385 . S
C1194 C1195 1.389 . S
C1195 C1194 1.389 . S
C1195 C1196 1.387 . S
C1196 H1181 0.930 . S
C1196 C1191 1.390 . S
C1196 C1195 1.387 . S
H1197 C1209 0.930 . S
H1198 C1211 0.930 . S
H1199 C1212 0.930 . S
H1200 C1216 0.959 . S
H1201 C1216 0.959 . S
H1202 C1216 0.961 . S
H1203 C1217 0.942 1_565 S
H1204 C1217 0.973 . S
H1205 C1217 0.983 . S
H1206 C1220 0.929 . S
H1207 C1221 0.931 . S
H1208 C1223 0.930 . S
C1209 H1197 0.930 . S
C1209 C1210 1.399 . S
C1209 C1214 1.399 . S
C1210 C1209 1.399 . S
C1210 C1211 1.376 . S
C1211 H1198 0.930 . S
C1211 C1210 1.376 . S
C1211 C1212 1.388 . S
C1212 H1199 0.930 . S
C1212 C1211 1.388 . S
C1212 C1213 1.390 . S
C1213 C1212 1.390 . S
C1213 C1214 1.394 . S
C1213 C1219 1.465 1_565 S
C1214 C1209 1.399 . S
C1214 C1213 1.394 . S
C1214 C1215 1.516 . S
C1215 C1214 1.516 . S
C1215 C1216 1.502 . S
C1215 C1217 1.544 1_565 S
C1215 C1218 1.526 1_565 S
C1216 H1200 0.959 . S
C1216 H1201 0.959 . S
C1216 H1202 0.961 . S
C1216 C1215 1.502 . S
C1217 H1203 0.942 1_545 S
C1217 H1204 0.973 . S
C1217 H1205 0.983 . S
C1217 C1215 1.544 1_545 S
C1218 C1215 1.526 1_545 S
C1218 C1219 1.396 . S
C1218 C1223 1.390 . S
C1219 C1213 1.465 1_545 S
C1219 C1218 1.396 . S
C1219 C1220 1.399 . S
C1220 H1206 0.929 . S
C1220 C1219 1.399 . S
C1220 C1221 1.385 . S
C1221 H1207 0.931 . S
C1221 C1220 1.385 . S
C1221 C1222 1.389 . S
C1222 C1221 1.389 . S
C1222 C1223 1.387 . S
C1223 H1208 0.930 . S
C1223 C1218 1.390 . S
C1223 C1222 1.387 . S
H1224 C1236 0.930 . S
H1225 C1238 0.930 . S
H1226 C1239 0.930 . S
H1227 C1243 0.959 . S
H1228 C1243 0.959 . S
H1229 C1243 0.961 . S
H1230 C1244 0.960 . S
H1231 C1244 0.961 . S
H1232 C1244 0.959 . S
H1233 C1247 0.929 . S
H1234 C1248 0.931 . S
H1235 C1250 0.930 . S
C1236 H1224 0.930 . S
C1236 C1237 1.399 . S
C1236 C1241 1.399 . S
C1237 C1236 1.399 . S
C1237 C1238 1.376 . S
C1238 H1225 0.930 . S
C1238 C1237 1.376 . S
C1238 C1239 1.388 . S
C1239 H1226 0.930 . S
C1239 C1238 1.388 . S
C1239 C1240 1.390 . S
C1240 C1239 1.390 . S
C1240 C1241 1.394 . S
C1240 C1246 1.465 . S
C1241 C1236 1.399 . S
C1241 C1240 1.394 . S
C1241 C1242 1.516 . S
C1242 C1241 1.516 . S
C1242 C1243 1.502 . S
C1242 C1244 1.561 . S
C1242 C1245 1.526 . S
C1243 H1227 0.959 . S
C1243 H1228 0.959 . S
C1243 H1229 0.961 . S
C1243 C1242 1.502 . S
C1244 H1230 0.960 . S
C1244 H1231 0.961 . S
C1244 H1232 0.959 . S
C1244 C1242 1.561 . S
C1245 C1242 1.526 . S
C1245 C1246 1.396 . S
C1245 C1250 1.390 . S
C1246 C1240 1.465 . S
C1246 C1245 1.396 . S
C1246 C1247 1.399 . S
C1247 H1233 0.929 . S
C1247 C1246 1.399 . S
C1247 C1248 1.385 . S
C1248 H1234 0.931 . S
C1248 C1247 1.385 . S
C1248 C1249 1.389 . S
C1249 C1248 1.389 . S
C1249 C1250 1.387 . S
C1250 H1235 0.930 . S
C1250 C1245 1.390 . S
C1250 C1249 1.387 . S
H1251 C1263 0.930 . S
H1252 C1265 0.930 . S
H1253 C1266 0.930 . S
H1254 C1270 0.959 . S
H1255 C1270 0.938 1_655 S
H1256 C1270 0.961 . S
H1257 C1271 0.960 1_455 S
H1258 C1271 0.961 . S
H1259 C1271 0.959 . S
H1260 C1274 0.929 . S
H1261 C1275 0.931 . S
H1262 C1277 0.930 . S
C1263 H1251 0.930 . S
C1263 C1264 1.399 . S
C1263 C1268 1.399 . S
C1264 C1263 1.399 . S
C1264 C1265 1.376 . S
C1265 H1252 0.930 . S
C1265 C1264 1.376 . S
C1265 C1266 1.388 . S
C1266 H1253 0.930 . S
C1266 C1265 1.388 . S
C1266 C1267 1.390 . S
C1267 C1266 1.390 . S
C1267 C1268 1.394 . S
C1267 C1273 1.465 1_455 S
C1268 C1263 1.399 . S
C1268 C1267 1.394 . S
C1268 C1269 1.516 . S
C1269 C1268 1.516 . S
C1269 C1270 1.502 . S
C1269 C1271 1.561 1_455 S
C1269 C1272 1.526 1_455 S
C1270 H1254 0.959 . S
C1270 H1255 0.938 1_455 S
C1270 H1256 0.961 . S
C1270 C1269 1.502 . S
C1271 H1257 0.960 1_655 S
C1271 H1258 0.961 . S
C1271 H1259 0.959 . S
C1271 C1269 1.561 1_655 S
C1272 C1269 1.526 1_655 S
C1272 C1273 1.396 . S
C1272 C1277 1.390 . S
C1273 C1267 1.465 1_655 S
C1273 C1272 1.396 . S
C1273 C1274 1.399 . S
C1274 H1260 0.929 . S
C1274 C1273 1.399 . S
C1274 C1275 1.385 . S
C1275 H1261 0.931 . S
C1275 C1274 1.385 . S
C1275 C1276 1.389 . S
C1276 C1275 1.389 . S
C1276 C1277 1.387 . S
C1277 H1262 0.930 . S
C1277 C1272 1.390 . S
C1277 C1276 1.387 . S
H1278 C1290 0.930 . S
H1279 C1292 0.930 . S
H1280 C1293 0.930 . S
H1281 C1297 0.959 . S
H1282 C1297 0.959 . S
H1283 C1297 0.961 1_545 S
H1284 C1298 0.960 . S
H1285 C1298 0.961 1_565 S
H1286 C1298 0.959 . S
H1287 C1301 0.929 . S
H1288 C1302 0.931 . S
H1289 C1304 0.930 . S
C1290 H1278 0.930 . S
C1290 C1291 1.399 . S
C1290 C1295 1.399 . S
C1291 C1290 1.399 . S
C1291 C1292 1.376 . S
C1292 H1279 0.930 . S
C1292 C1291 1.376 . S
C1292 C1293 1.388 . S
C1293 H1280 0.930 . S
C1293 C1292 1.388 . S
C1293 C1294 1.390 . S
C1294 C1293 1.390 . S
C1294 C1295 1.394 . S
C1294 C1300 1.465 1_545 S
C1295 C1290 1.399 . S
C1295 C1294 1.394 . S
C1295 C1296 1.516 . S
C1296 C1295 1.516 . S
C1296 C1297 1.502 1_545 S
C1296 C1298 1.561 . S
C1296 C1299 1.526 1_545 S
C1297 H1281 0.959 . S
C1297 H1282 0.959 . S
C1297 H1283 0.961 1_565 S
C1297 C1296 1.502 1_565 S
C1298 H1284 0.960 . S
C1298 H1285 0.961 1_545 S
C1298 H1286 0.959 . S
C1298 C1296 1.561 . S
C1299 C1296 1.526 1_565 S
C1299 C1300 1.396 . S
C1299 C1304 1.390 . S
C1300 C1294 1.465 1_565 S
C1300 C1299 1.396 . S
C1300 C1301 1.399 . S
C1301 H1287 0.929 . S
C1301 C1300 1.399 . S
C1301 C1302 1.385 . S
C1302 H1288 0.931 . S
C1302 C1301 1.385 . S
C1302 C1303 1.389 . S
C1303 C1302 1.389 . S
C1303 C1304 1.387 . S
C1304 H1289 0.930 . S
C1304 C1299 1.390 . S
C1304 C1303 1.387 . S
H1305 C1317 0.930 . S
H1306 C1319 0.930 . S
H1307 C1320 0.930 . S
H1308 C1324 0.959 . S
H1309 C1324 0.959 . S
H1310 C1324 0.961 . S
H1311 C1325 0.960 . S
H1312 C1325 0.961 . S
H1313 C1325 0.959 . S
H1314 C1328 0.929 . S
H1315 C1329 0.931 . S
H1316 C1331 0.930 . S
C1317 H1305 0.930 . S
C1317 C1318 1.399 . S
C1317 C1322 1.399 . S
C1318 C1317 1.399 . S
C1318 C1319 1.376 . S
C1319 H1306 0.930 . S
C1319 C1318 1.376 . S
C1319 C1320 1.388 . S
C1320 H1307 0.930 . S
C1320 C1319 1.388 . S
C1320 C1321 1.390 . S
C1321 C1320 1.390 . S
C1321 C1322 1.394 . S
C1321 C1327 1.465 . S
C1322 C1317 1.399 . S
C1322 C1321 1.394 . S
C1322 C1323 1.516 . S
C1323 C1322 1.516 . S
C1323 C1324 1.502 . S
C1323 C1325 1.561 . S
C1323 C1326 1.526 . S
C1324 H1308 0.959 . S
C1324 H1309 0.959 . S
C1324 H1310 0.961 . S
C1324 C1323 1.502 . S
C1325 H1311 0.960 . S
C1325 H1312 0.961 . S
C1325 H1313 0.959 . S
C1325 C1323 1.561 . S
C1326 C1323 1.526 . S
C1326 C1327 1.396 . S
C1326 C1331 1.390 . S
C1327 C1321 1.465 . S
C1327 C1326 1.396 . S
C1327 C1328 1.399 . S
C1328 H1314 0.929 . S
C1328 C1327 1.399 . S
C1328 C1329 1.385 . S
C1329 H1315 0.931 . S
C1329 C1328 1.385 . S
C1329 C1330 1.389 . S
C1330 C1329 1.389 . S
C1330 C1331 1.387 . S
C1331 H1316 0.930 . S
C1331 C1326 1.390 . S
C1331 C1330 1.387 . S
H1332 C1344 0.930 . S
H1333 C1346 0.930 . S
H1334 C1347 0.930 . S
H1335 C1351 0.959 . S
H1336 C1351 0.959 . S
H1337 C1351 0.961 . S
H1338 C1352 0.960 . S
H1339 C1352 0.961 . S
H1340 C1352 0.959 . S
H1341 C1355 0.929 . S
H1342 C1356 0.931 . S
H1343 C1358 0.930 . S
C1344 H1332 0.930 . S
C1344 C1345 1.399 . S
C1344 C1349 1.399 . S
C1345 C1344 1.399 . S
C1345 C1346 1.376 . S
C1346 H1333 0.930 . S
C1346 C1345 1.376 . S
C1346 C1347 1.388 . S
C1347 H1334 0.930 . S
C1347 C1346 1.388 . S
C1347 C1348 1.390 . S
C1348 C1347 1.390 . S
C1348 C1349 1.394 . S
C1348 C1354 1.465 . S
C1349 C1344 1.399 . S
C1349 C1348 1.394 . S
C1349 C1350 1.516 . S
C1350 C1349 1.516 . S
C1350 C1351 1.502 . S
C1350 C1352 1.561 . S
C1350 C1353 1.526 . S
C1351 H1335 0.959 . S
C1351 H1336 0.959 . S
C1351 H1337 0.961 . S
C1351 C1350 1.502 . S
C1352 H1338 0.960 . S
C1352 H1339 0.961 . S
C1352 H1340 0.959 . S
C1352 C1350 1.561 . S
C1353 C1350 1.526 . S
C1353 C1354 1.396 . S
C1353 C1358 1.390 . S
C1354 C1348 1.465 . S
C1354 C1353 1.396 . S
C1354 C1355 1.399 . S
C1355 H1341 0.929 . S
C1355 C1354 1.399 . S
C1355 C1356 1.385 . S
C1356 H1342 0.931 . S
C1356 C1355 1.385 . S
C1356 C1357 1.389 . S
C1357 C1356 1.389 . S
C1357 C1358 1.387 . S
C1358 H1343 0.930 . S
C1358 C1353 1.390 . S
C1358 C1357 1.387 . S
H1359 C1371 0.930 . S
H1360 C1373 0.930 . S
H1361 C1374 0.930 . S
H1362 C1378 0.959 . S
H1363 C1378 0.959 . S
H1364 C1378 0.961 . S
H1365 C1379 0.960 . S
H1366 C1379 0.961 . S
H1367 C1379 0.959 . S
H1368 C1382 0.929 . S
H1369 C1383 0.931 . S
H1370 C1385 0.930 . S
C1371 H1359 0.930 . S
C1371 C1372 1.399 . S
C1371 C1376 1.399 . S
C1372 C1371 1.399 . S
C1372 C1373 1.376 . S
C1373 H1360 0.930 . S
C1373 C1372 1.376 . S
C1373 C1374 1.388 . S
C1374 H1361 0.930 . S
C1374 C1373 1.388 . S
C1374 C1375 1.390 . S
C1375 C1374 1.390 . S
C1375 C1376 1.394 . S
C1375 C1381 1.465 . S
C1376 C1371 1.399 . S
C1376 C1375 1.394 . S
C1376 C1377 1.516 . S
C1377 C1376 1.516 . S
C1377 C1378 1.502 . S
C1377 C1379 1.561 . S
C1377 C1380 1.526 . S
C1378 H1362 0.959 . S
C1378 H1363 0.959 . S
C1378 H1364 0.961 . S
C1378 C1377 1.502 . S
C1379 H1365 0.960 . S
C1379 H1366 0.961 . S
C1379 H1367 0.959 . S
C1379 C1377 1.561 . S
C1380 C1377 1.526 . S
C1380 C1381 1.396 . S
C1380 C1385 1.390 . S
C1381 C1375 1.465 . S
C1381 C1380 1.396 . S
C1381 C1382 1.399 . S
C1382 H1368 0.929 . S
C1382 C1381 1.399 . S
C1382 C1383 1.385 . S
C1383 H1369 0.931 . S
C1383 C1382 1.385 . S
C1383 C1384 1.389 . S
C1384 C1383 1.389 . S
C1384 C1385 1.387 . S
C1385 H1370 0.930 . S
C1385 C1380 1.390 . S
C1385 C1384 1.387 . S
H1386 C1398 0.930 . S
H1387 C1400 0.930 . S
H1388 C1401 0.930 . S
H1389 C1405 0.959 . S
H1390 C1405 0.959 . S
H1391 C1405 0.961 . S
H1392 C1406 0.960 . S
H1393 C1406 0.961 . S
H1394 C1406 0.959 . S
H1395 C1409 0.929 . S
H1396 C1410 0.931 . S
H1397 C1412 0.930 . S
C1398 H1386 0.930 . S
C1398 C1399 1.399 . S
C1398 C1403 1.399 . S
C1399 C1398 1.399 . S
C1399 C1400 1.376 . S
C1400 H1387 0.930 . S
C1400 C1399 1.376 . S
C1400 C1401 1.388 . S
C1401 H1388 0.930 . S
C1401 C1400 1.388 . S
C1401 C1402 1.390 . S
C1402 C1401 1.390 . S
C1402 C1403 1.394 . S
C1402 C1408 1.465 . S
C1403 C1398 1.399 . S
C1403 C1402 1.394 . S
C1403 C1404 1.516 . S
C1404 C1403 1.516 . S
C1404 C1405 1.502 . S
C1404 C1406 1.561 . S
C1404 C1407 1.526 . S
C1405 H1389 0.959 . S
C1405 H1390 0.959 . S
C1405 H1391 0.961 . S
C1405 C1404 1.502 . S
C1406 H1392 0.960 . S
C1406 H1393 0.961 . S
C1406 H1394 0.959 . S
C1406 C1404 1.561 . S
C1407 C1404 1.526 . S
C1407 C1408 1.396 . S
C1407 C1412 1.390 . S
C1408 C1402 1.465 . S
C1408 C1407 1.396 . S
C1408 C1409 1.399 . S
C1409 H1395 0.929 . S
C1409 C1408 1.399 . S
C1409 C1410 1.385 . S
C1410 H1396 0.931 . S
C1410 C1409 1.385 . S
C1410 C1411 1.389 . S
C1411 C1410 1.389 . S
C1411 C1412 1.387 . S
C1412 H1397 0.930 . S
C1412 C1407 1.390 . S
C1412 C1411 1.387 . S
H1413 C1425 0.930 . S
H1414 C1427 0.930 . S
H1415 C1428 0.930 . S
H1416 C1432 0.959 . S
H1417 C1432 0.959 . S
H1418 C1432 0.961 . S
H1419 C1433 0.960 . S
H1420 C1433 0.961 . S
H1421 C1433 0.959 . S
H1422 C1436 0.929 . S
H1423 C1437 0.931 . S
H1424 C1439 0.930 . S
C1425 H1413 0.930 . S
C1425 C1426 1.399 . S
C1425 C1430 1.399 . S
C1426 C1425 1.399 . S
C1426 C1427 1.376 . S
C1427 H1414 0.930 . S
C1427 C1426 1.376 . S
C1427 C1428 1.388 . S
C1428 H1415 0.930 . S
C1428 C1427 1.388 . S
C1428 C1429 1.390 . S
C1429 C1428 1.390 . S
C1429 C1430 1.394 . S
C1429 C1435 1.465 . S
C1430 C1425 1.399 . S
C1430 C1429 1.394 . S
C1430 C1431 1.516 . S
C1431 C1430 1.516 . S
C1431 C1432 1.502 . S
C1431 C1433 1.561 . S
C1431 C1434 1.526 . S
C1432 H1416 0.959 . S
C1432 H1417 0.959 . S
C1432 H1418 0.961 . S
C1432 C1431 1.502 . S
C1433 H1419 0.960 . S
C1433 H1420 0.961 . S
C1433 H1421 0.959 . S
C1433 C1431 1.561 . S
C1434 C1431 1.526 . S
C1434 C1435 1.396 . S
C1434 C1439 1.390 . S
C1435 C1429 1.465 . S
C1435 C1434 1.396 . S
C1435 C1436 1.399 . S
C1436 H1422 0.929 . S
C1436 C1435 1.399 . S
C1436 C1437 1.385 . S
C1437 H1423 0.931 . S
C1437 C1436 1.385 . S
C1437 C1438 1.389 . S
C1438 C1437 1.389 . S
C1438 C1439 1.387 . S
C1439 H1424 0.930 . S
C1439 C1434 1.390 . S
C1439 C1438 1.387 . S
H1440 C1452 0.930 . S
H1441 C1454 0.930 . S
H1442 C1455 0.930 . S
H1443 C1459 0.959 . S
H1444 C1459 0.959 . S
H1445 C1459 0.961 . S
H1446 C1460 0.960 . S
H1447 C1460 0.961 . S
H1448 C1460 0.959 . S
H1449 C1463 0.929 . S
H1450 C1464 0.931 . S
H1451 C1466 0.930 . S
C1452 H1440 0.930 . S
C1452 C1453 1.399 . S
C1452 C1457 1.399 . S
C1453 C1452 1.399 . S
C1453 C1454 1.376 . S
C1454 H1441 0.930 . S
C1454 C1453 1.376 . S
C1454 C1455 1.388 . S
C1455 H1442 0.930 . S
C1455 C1454 1.388 . S
C1455 C1456 1.390 . S
C1456 C1455 1.390 . S
C1456 C1457 1.394 . S
C1456 C1462 1.465 . S
C1457 C1452 1.399 . S
C1457 C1456 1.394 . S
C1457 C1458 1.516 . S
C1458 C1457 1.516 . S
C1458 C1459 1.502 . S
C1458 C1460 1.561 . S
C1458 C1461 1.526 . S
C1459 H1443 0.959 . S
C1459 H1444 0.959 . S
C1459 H1445 0.961 . S
C1459 C1458 1.502 . S
C1460 H1446 0.960 . S
C1460 H1447 0.961 . S
C1460 H1448 0.959 . S
C1460 C1458 1.561 . S
C1461 C1458 1.526 . S
C1461 C1462 1.396 . S
C1461 C1466 1.390 . S
C1462 C1456 1.465 . S
C1462 C1461 1.396 . S
C1462 C1463 1.399 . S
C1463 H1449 0.929 . S
C1463 C1462 1.399 . S
C1463 C1464 1.385 . S
C1464 H1450 0.931 . S
C1464 C1463 1.385 . S
C1464 C1465 1.389 . S
C1465 C1464 1.389 . S
C1465 C1466 1.387 . S
C1466 H1451 0.930 . S
C1466 C1461 1.390 . S
C1466 C1465 1.387 . S
H1467 C1479 0.930 . S
H1468 C1481 0.930 . S
H1469 C1482 0.930 . S
H1470 C1486 0.959 . S
H1471 C1486 0.959 . S
H1472 C1486 0.961 . S
H1473 C1487 0.960 . S
H1474 C1487 0.961 . S
H1475 C1487 0.959 . S
H1476 C1490 0.929 . S
H1477 C1491 0.931 . S
H1478 C1493 0.930 . S
C1479 H1467 0.930 . S
C1479 C1480 1.399 . S
C1479 C1484 1.399 . S
C1480 C1479 1.399 . S
C1480 C1481 1.376 . S
C1481 H1468 0.930 . S
C1481 C1480 1.376 . S
C1481 C1482 1.388 . S
C1482 H1469 0.930 . S
C1482 C1481 1.388 . S
C1482 C1483 1.390 . S
C1483 C1482 1.390 . S
C1483 C1484 1.394 . S
C1483 C1489 1.465 . S
C1484 C1479 1.399 . S
C1484 C1483 1.394 . S
C1484 C1485 1.516 . S
C1485 C1484 1.516 . S
C1485 C1486 1.502 . S
C1485 C1487 1.561 . S
C1485 C1488 1.526 . S
C1486 H1470 0.959 . S
C1486 H1471 0.959 . S
C1486 H1472 0.961 . S
C1486 C1485 1.502 . S
C1487 H1473 0.960 . S
C1487 H1474 0.961 . S
C1487 H1475 0.959 . S
C1487 C1485 1.561 . S
C1488 C1485 1.526 . S
C1488 C1489 1.396 . S
C1488 C1493 1.390 . S
C1489 C1483 1.465 . S
C1489 C1488 1.396 . S
C1489 C1490 1.399 . S
C1490 H1476 0.929 . S
C1490 C1489 1.399 . S
C1490 C1491 1.385 . S
C1491 H1477 0.931 . S
C1491 C1490 1.385 . S
C1491 C1492 1.389 . S
C1492 C1491 1.389 . S
C1492 C1493 1.387 . S
C1493 H1478 0.930 . S
C1493 C1488 1.390 . S
C1493 C1492 1.387 . S
H1494 C1506 0.930 . S
H1495 C1508 0.930 . S
H1496 C1509 0.930 . S
H1497 C1513 0.959 . S
H1498 C1513 0.959 . S
H1499 C1513 0.961 . S
H1500 C1514 0.960 . S
H1501 C1514 0.961 . S
H1502 C1514 0.959 . S
H1503 C1517 0.929 . S
H1504 C1518 0.931 . S
H1505 C1520 0.930 . S
C1506 H1494 0.930 . S
C1506 C1507 1.399 . S
C1506 C1511 1.399 . S
C1507 C1506 1.399 . S
C1507 C1508 1.376 . S
C1508 H1495 0.930 . S
C1508 C1507 1.376 . S
C1508 C1509 1.388 . S
C1509 H1496 0.930 . S
C1509 C1508 1.388 . S
C1509 C1510 1.390 . S
C1510 C1509 1.390 . S
C1510 C1511 1.394 . S
C1510 C1516 1.465 . S
C1511 C1506 1.399 . S
C1511 C1510 1.394 . S
C1511 C1512 1.516 . S
C1512 C1511 1.516 . S
C1512 C1513 1.502 . S
C1512 C1514 1.561 . S
C1512 C1515 1.526 . S
C1513 H1497 0.959 . S
C1513 H1498 0.959 . S
C1513 H1499 0.961 . S
C1513 C1512 1.502 . S
C1514 H1500 0.960 . S
C1514 H1501 0.961 . S
C1514 H1502 0.959 . S
C1514 C1512 1.561 . S
C1515 C1512 1.526 . S
C1515 C1516 1.396 . S
C1515 C1520 1.390 . S
C1516 C1510 1.465 . S
C1516 C1515 1.396 . S
C1516 C1517 1.399 . S
C1517 H1503 0.929 . S
C1517 C1516 1.399 . S
C1517 C1518 1.385 . S
C1518 H1504 0.931 . S
C1518 C1517 1.385 . S
C1518 C1519 1.389 . S
C1519 C1518 1.389 . S
C1519 C1520 1.387 . S
C1520 H1505 0.930 . S
C1520 C1515 1.390 . S
C1520 C1519 1.387 . S
H1521 C1533 0.930 . S
H1522 C1535 0.930 . S
H1523 C1536 0.930 . S
H1524 C1540 0.959 . S
H1525 C1540 0.959 . S
H1526 C1540 0.961 . S
H1527 C1541 0.960 . S
H1528 C1541 0.961 . S
H1529 C1541 0.959 . S
H1530 C1544 0.929 . S
H1531 C1545 0.931 . S
H1532 C1547 0.930 . S
C1533 H1521 0.930 . S
C1533 C1534 1.399 . S
C1533 C1538 1.399 . S
C1534 C1533 1.399 . S
C1534 C1535 1.376 . S
C1535 H1522 0.930 . S
C1535 C1534 1.376 . S
C1535 C1536 1.388 . S
C1536 H1523 0.930 . S
C1536 C1535 1.388 . S
C1536 C1537 1.390 . S
C1537 C1536 1.390 . S
C1537 C1538 1.394 . S
C1537 C1543 1.465 . S
C1538 C1533 1.399 . S
C1538 C1537 1.394 . S
C1538 C1539 1.516 . S
C1539 C1538 1.516 . S
C1539 C1540 1.502 . S
C1539 C1541 1.561 . S
C1539 C1542 1.526 . S
C1540 H1524 0.959 . S
C1540 H1525 0.959 . S
C1540 H1526 0.961 . S
C1540 C1539 1.502 . S
C1541 H1527 0.960 . S
C1541 H1528 0.961 . S
C1541 H1529 0.959 . S
C1541 C1539 1.561 . S
C1542 C1539 1.526 . S
C1542 C1543 1.396 . S
C1542 C1547 1.390 . S
C1543 C1537 1.465 . S
C1543 C1542 1.396 . S
C1543 C1544 1.399 . S
C1544 H1530 0.929 . S
C1544 C1543 1.399 . S
C1544 C1545 1.385 . S
C1545 H1531 0.931 . S
C1545 C1544 1.385 . S
C1545 C1546 1.389 . S
C1546 C1545 1.389 . S
C1546 C1547 1.387 . S
C1547 H1532 0.930 . S
C1547 C1542 1.390 . S
C1547 C1546 1.387 . S
H1548 C1560 0.930 . S
H1549 C1562 0.930 . S
H1550 C1563 0.930 . S
H1551 C1567 0.959 . S
H1552 C1567 0.959 . S
H1553 C1567 0.961 . S
H1554 C1568 0.960 . S
H1555 C1568 0.961 . S
H1556 C1568 0.959 . S
H1557 C1571 0.929 . S
H1558 C1572 0.931 . S
H1559 C1574 0.930 . S
C1560 H1548 0.930 . S
C1560 C1561 1.399 . S
C1560 C1565 1.399 . S
C1561 C1560 1.399 . S
C1561 C1562 1.376 . S
C1562 H1549 0.930 . S
C1562 C1561 1.376 . S
C1562 C1563 1.388 . S
C1563 H1550 0.930 . S
C1563 C1562 1.388 . S
C1563 C1564 1.390 . S
C1564 C1563 1.390 . S
C1564 C1565 1.394 . S
C1564 C1570 1.465 . S
C1565 C1560 1.399 . S
C1565 C1564 1.394 . S
C1565 C1566 1.516 . S
C1566 C1565 1.516 . S
C1566 C1567 1.502 . S
C1566 C1568 1.561 . S
C1566 C1569 1.526 . S
C1567 H1551 0.959 . S
C1567 H1552 0.959 . S
C1567 H1553 0.961 . S
C1567 C1566 1.502 . S
C1568 H1554 0.960 . S
C1568 H1555 0.961 . S
C1568 H1556 0.959 . S
C1568 C1566 1.561 . S
C1569 C1566 1.526 . S
C1569 C1570 1.396 . S
C1569 C1574 1.390 . S
C1570 C1564 1.465 . S
C1570 C1569 1.396 . S
C1570 C1571 1.399 . S
C1571 H1557 0.929 . S
C1571 C1570 1.399 . S
C1571 C1572 1.385 . S
C1572 H1558 0.931 . S
C1572 C1571 1.385 . S
C1572 C1573 1.389 . S
C1573 C1572 1.389 . S
C1573 C1574 1.387 . S
C1574 H1559 0.930 . S
C1574 C1569 1.390 . S
C1574 C1573 1.387 . S
H1575 C1587 0.930 . S
H1576 C1589 0.930 . S
H1577 C1590 0.930 . S
H1578 C1594 0.959 . S
H1579 C1594 0.959 . S
H1580 C1594 0.961 . S
H1581 C1595 0.960 . S
H1582 C1595 0.961 . S
H1583 C1595 0.959 . S
H1584 C1598 0.929 . S
H1585 C1599 0.931 . S
H1586 C1601 0.930 . S
C1587 H1575 0.930 . S
C1587 C1588 1.399 . S
C1587 C1592 1.399 . S
C1588 C1587 1.399 . S
C1588 C1589 1.376 . S
C1589 H1576 0.930 . S
C1589 C1588 1.376 . S
C1589 C1590 1.388 . S
C1590 H1577 0.930 . S
C1590 C1589 1.388 . S
C1590 C1591 1.390 . S
C1591 C1590 1.390 . S
C1591 C1592 1.394 . S
C1591 C1597 1.465 . S
C1592 C1587 1.399 . S
C1592 C1591 1.394 . S
C1592 C1593 1.516 . S
C1593 C1592 1.516 . S
C1593 C1594 1.502 . S
C1593 C1595 1.561 . S
C1593 C1596 1.526 . S
C1594 H1578 0.959 . S
C1594 H1579 0.959 . S
C1594 H1580 0.961 . S
C1594 C1593 1.502 . S
C1595 H1581 0.960 . S
C1595 H1582 0.961 . S
C1595 H1583 0.959 . S
C1595 C1593 1.561 . S
C1596 C1593 1.526 . S
C1596 C1597 1.396 . S
C1596 C1601 1.390 . S
C1597 C1591 1.465 . S
C1597 C1596 1.396 . S
C1597 C1598 1.399 . S
C1598 H1584 0.929 . S
C1598 C1597 1.399 . S
C1598 C1599 1.385 . S
C1599 H1585 0.931 . S
C1599 C1598 1.385 . S
C1599 C1600 1.389 . S
C1600 C1599 1.389 . S
C1600 C1601 1.387 . S
C1601 H1586 0.930 . S
C1601 C1596 1.390 . S
C1601 C1600 1.387 . S
H1602 C1614 0.930 . S
H1603 C1616 0.930 . S
H1604 C1617 0.930 . S
H1605 C1621 0.959 . S
H1606 C1621 0.959 . S
H1607 C1621 0.961 . S
H1608 C1622 0.960 . S
H1609 C1622 0.961 . S
H1610 C1622 0.959 . S
H1611 C1625 0.929 . S
H1612 C1626 0.931 . S
H1613 C1628 0.930 . S
C1614 H1602 0.930 . S
C1614 C1615 1.399 . S
C1614 C1619 1.399 . S
C1615 C1614 1.399 . S
C1615 C1616 1.376 . S
C1616 H1603 0.930 . S
C1616 C1615 1.376 . S
C1616 C1617 1.388 . S
C1617 H1604 0.930 . S
C1617 C1616 1.388 . S
C1617 C1618 1.390 . S
C1618 C1617 1.390 . S
C1618 C1619 1.394 . S
C1618 C1624 1.465 . S
C1619 C1614 1.399 . S
C1619 C1618 1.394 . S
C1619 C1620 1.516 . S
C1620 C1619 1.516 . S
C1620 C1621 1.502 . S
C1620 C1622 1.561 . S
C1620 C1623 1.526 . S
C1621 H1605 0.959 . S
C1621 H1606 0.959 . S
C1621 H1607 0.961 . S
C1621 C1620 1.502 . S
C1622 H1608 0.960 . S
C1622 H1609 0.961 . S
C1622 H1610 0.959 . S
C1622 C1620 1.561 . S
C1623 C1620 1.526 . S
C1623 C1624 1.396 . S
C1623 C1628 1.390 . S
C1624 C1618 1.465 . S
C1624 C1623 1.396 . S
C1624 C1625 1.399 . S
C1625 H1611 0.929 . S
C1625 C1624 1.399 . S
C1625 C1626 1.385 . S
C1626 H1612 0.931 . S
C1626 C1625 1.385 . S
C1626 C1627 1.389 . S
C1627 C1626 1.389 . S
C1627 C1628 1.387 . S
C1628 H1613 0.930 . S
C1628 C1623 1.390 . S
C1628 C1627 1.387 . S
H1629 C1641 0.930 . S
H1630 C1643 0.930 . S
H1631 C1644 0.930 . S
H1632 C1648 0.959 . S
H1633 C1648 0.959 . S
H1634 C1648 0.961 . S
H1635 C1649 0.960 . S
H1636 C1649 0.961 . S
H1637 C1649 0.959 . S
H1638 C1652 0.929 . S
H1639 C1653 0.931 . S
H1640 C1655 0.930 . S
C1641 H1629 0.930 . S
C1641 C1642 1.399 . S
C1641 C1646 1.399 . S
C1642 C1641 1.399 . S
C1642 C1643 1.376 . S
C1643 H1630 0.930 . S
C1643 C1642 1.376 . S
C1643 C1644 1.388 . S
C1644 H1631 0.930 . S
C1644 C1643 1.388 . S
C1644 C1645 1.390 . S
C1645 C1644 1.390 . S
C1645 C1646 1.394 . S
C1645 C1651 1.465 . S
C1646 C1641 1.399 . S
C1646 C1645 1.394 . S
C1646 C1647 1.516 . S
C1647 C1646 1.516 . S
C1647 C1648 1.502 . S
C1647 C1649 1.561 . S
C1647 C1650 1.526 . S
C1648 H1632 0.959 . S
C1648 H1633 0.959 . S
C1648 H1634 0.961 . S
C1648 C1647 1.502 . S
C1649 H1635 0.960 . S
C1649 H1636 0.961 . S
C1649 H1637 0.959 . S
C1649 C1647 1.561 . S
C1650 C1647 1.526 . S
C1650 C1651 1.396 . S
C1650 C1655 1.390 . S
C1651 C1645 1.465 . S
C1651 C1650 1.396 . S
C1651 C1652 1.399 . S
C1652 H1638 0.929 . S
C1652 C1651 1.399 . S
C1652 C1653 1.385 . S
C1653 H1639 0.931 . S
C1653 C1652 1.385 . S
C1653 C1654 1.389 . S
C1654 C1653 1.389 . S
C1654 C1655 1.387 . S
C1655 H1640 0.930 . S
C1655 C1650 1.390 . S
C1655 C1654 1.387 . S
H1656 C1668 0.930 . S
H1657 C1670 0.930 . S
H1658 C1671 0.930 . S
H1659 C1675 0.959 . S
H1660 C1675 0.959 . S
H1661 C1675 0.961 . S
H1662 C1676 0.960 . S
H1663 C1676 0.961 . S
H1664 C1676 0.959 . S
H1665 C1679 0.929 . S
H1666 C1680 0.931 . S
H1667 C1682 0.930 . S
C1668 H1656 0.930 . S
C1668 C1669 1.399 . S
C1668 C1673 1.399 . S
C1669 C1668 1.399 . S
C1669 C1670 1.376 . S
C1670 H1657 0.930 . S
C1670 C1669 1.376 . S
C1670 C1671 1.388 . S
C1671 H1658 0.930 . S
C1671 C1670 1.388 . S
C1671 C1672 1.390 . S
C1672 C1671 1.390 . S
C1672 C1673 1.394 . S
C1672 C1678 1.465 . S
C1673 C1668 1.399 . S
C1673 C1672 1.394 . S
C1673 C1674 1.516 . S
C1674 C1673 1.516 . S
C1674 C1675 1.502 . S
C1674 C1676 1.561 . S
C1674 C1677 1.526 . S
C1675 H1659 0.959 . S
C1675 H1660 0.959 . S
C1675 H1661 0.961 . S
C1675 C1674 1.502 . S
C1676 H1662 0.960 . S
C1676 H1663 0.961 . S
C1676 H1664 0.959 . S
C1676 C1674 1.561 . S
C1677 C1674 1.526 . S
C1677 C1678 1.396 . S
C1677 C1682 1.390 . S
C1678 C1672 1.465 . S
C1678 C1677 1.396 . S
C1678 C1679 1.399 . S
C1679 H1665 0.929 . S
C1679 C1678 1.399 . S
C1679 C1680 1.385 . S
C1680 H1666 0.931 . S
C1680 C1679 1.385 . S
C1680 C1681 1.389 . S
C1681 C1680 1.389 . S
C1681 C1682 1.387 . S
C1682 H1667 0.930 . S
C1682 C1677 1.390 . S
C1682 C1681 1.387 . S
H1683 C1695 0.930 . S
H1684 C1697 0.930 . S
H1685 C1698 0.930 . S
H1686 C1702 0.959 . S
H1687 C1702 0.959 . S
H1688 C1702 0.961 . S
H1689 C1703 0.960 . S
H1690 C1703 0.961 . S
H1691 C1703 0.959 . S
H1692 C1706 0.929 . S
H1693 C1707 0.931 . S
H1694 C1709 0.930 . S
C1695 H1683 0.930 . S
C1695 C1696 1.399 . S
C1695 C1700 1.399 . S
C1696 C1695 1.399 . S
C1696 C1697 1.376 . S
C1697 H1684 0.930 . S
C1697 C1696 1.376 . S
C1697 C1698 1.388 . S
C1698 H1685 0.930 . S
C1698 C1697 1.388 . S
C1698 C1699 1.390 . S
C1699 C1698 1.390 . S
C1699 C1700 1.394 . S
C1699 C1705 1.465 . S
C1700 C1695 1.399 . S
C1700 C1699 1.394 . S
C1700 C1701 1.516 . S
C1701 C1700 1.516 . S
C1701 C1702 1.502 . S
C1701 C1703 1.561 . S
C1701 C1704 1.526 . S
C1702 H1686 0.959 . S
C1702 H1687 0.959 . S
C1702 H1688 0.961 . S
C1702 C1701 1.502 . S
C1703 H1689 0.960 . S
C1703 H1690 0.961 . S
C1703 H1691 0.959 . S
C1703 C1701 1.561 . S
C1704 C1701 1.526 . S
C1704 C1705 1.396 . S
C1704 C1709 1.390 . S
C1705 C1699 1.465 . S
C1705 C1704 1.396 . S
C1705 C1706 1.399 . S
C1706 H1692 0.929 . S
C1706 C1705 1.399 . S
C1706 C1707 1.385 . S
C1707 H1693 0.931 . S
C1707 C1706 1.385 . S
C1707 C1708 1.389 . S
C1708 C1707 1.389 . S
C1708 C1709 1.387 . S
C1709 H1694 0.930 . S
C1709 C1704 1.390 . S
C1709 C1708 1.387 . S
H1710 C1722 0.930 . S
H1711 C1724 0.930 . S
H1712 C1725 0.930 . S
H1713 C1729 0.959 . S
H1714 C1729 0.959 . S
H1715 C1729 0.961 . S
H1716 C1730 0.960 . S
H1717 C1730 0.961 . S
H1718 C1730 0.959 . S
H1719 C1733 0.929 . S
H1720 C1734 0.931 . S
H1721 C1736 0.930 . S
C1722 H1710 0.930 . S
C1722 C1723 1.399 . S
C1722 C1727 1.399 . S
C1723 C1722 1.399 . S
C1723 C1724 1.376 . S
C1724 H1711 0.930 . S
C1724 C1723 1.376 . S
C1724 C1725 1.388 . S
C1725 H1712 0.930 . S
C1725 C1724 1.388 . S
C1725 C1726 1.390 . S
C1726 C1725 1.390 . S
C1726 C1727 1.394 . S
C1726 C1732 1.465 . S
C1727 C1722 1.399 . S
C1727 C1726 1.394 . S
C1727 C1728 1.516 . S
C1728 C1727 1.516 . S
C1728 C1729 1.502 . S
C1728 C1730 1.561 . S
C1728 C1731 1.526 . S
C1729 H1713 0.959 . S
C1729 H1714 0.959 . S
C1729 H1715 0.961 . S
C1729 C1728 1.502 . S
C1730 H1716 0.960 . S
C1730 H1717 0.961 . S
C1730 H1718 0.959 . S
C1730 C1728 1.561 . S
C1731 C1728 1.526 . S
C1731 C1732 1.396 . S
C1731 C1736 1.390 . S
C1732 C1726 1.465 . S
C1732 C1731 1.396 . S
C1732 C1733 1.399 . S
C1733 H1719 0.929 . S
C1733 C1732 1.399 . S
C1733 C1734 1.385 . S
C1734 H1720 0.931 . S
C1734 C1733 1.385 . S
C1734 C1735 1.389 . S
C1735 C1734 1.389 . S
C1735 C1736 1.387 . S
C1736 H1721 0.930 . S
C1736 C1731 1.390 . S
C1736 C1735 1.387 . S
H1737 C1749 0.930 . S
H1738 C1751 0.930 . S
H1739 C1752 0.930 . S
H1740 C1756 0.959 . S
H1741 C1756 0.959 . S
H1742 C1756 0.961 . S
H1743 C1757 0.960 . S
H1744 C1757 0.961 . S
H1745 C1757 0.959 . S
H1746 C1760 0.929 . S
H1747 C1761 0.931 . S
H1748 C1763 0.930 . S
C1749 H1737 0.930 . S
C1749 C1750 1.399 . S
C1749 C1754 1.399 . S
C1750 C1749 1.399 . S
C1750 C1751 1.376 . S
C1751 H1738 0.930 . S
C1751 C1750 1.376 . S
C1751 C1752 1.388 . S
C1752 H1739 0.930 . S
C1752 C1751 1.388 . S
C1752 C1753 1.390 . S
C1753 C1752 1.390 . S
C1753 C1754 1.394 . S
C1753 C1759 1.465 . S
C1754 C1749 1.399 . S
C1754 C1753 1.394 . S
C1754 C1755 1.516 . S
C1755 C1754 1.516 . S
C1755 C1756 1.502 . S
C1755 C1757 1.561 . S
C1755 C1758 1.526 . S
C1756 H1740 0.959 . S
C1756 H1741 0.959 . S
C1756 H1742 0.961 . S
C1756 C1755 1.502 . S
C1757 H1743 0.960 . S
C1757 H1744 0.961 . S
C1757 H1745 0.959 . S
C1757 C1755 1.561 . S
C1758 C1755 1.526 . S
C1758 C1759 1.396 . S
C1758 C1763 1.390 . S
C1759 C1753 1.465 . S
C1759 C1758 1.396 . S
C1759 C1760 1.399 . S
C1760 H1746 0.929 . S
C1760 C1759 1.399 . S
C1760 C1761 1.385 . S
C1761 H1747 0.931 . S
C1761 C1760 1.385 . S
C1761 C1762 1.389 . S
C1762 C1761 1.389 . S
C1762 C1763 1.387 . S
C1763 H1748 0.930 . S
C1763 C1758 1.390 . S
C1763 C1762 1.387 . S
H1764 C1776 0.930 . S
H1765 C1778 0.930 . S
H1766 C1779 0.930 . S
H1767 C1783 0.959 . S
H1768 C1783 0.959 . S
H1769 C1783 0.961 . S
H1770 C1784 0.960 . S
H1771 C1784 0.961 . S
H1772 C1784 0.959 . S
H1773 C1787 0.929 . S
H1774 C1788 0.931 . S
H1775 C1790 0.930 . S
C1776 H1764 0.930 . S
C1776 C1777 1.399 . S
C1776 C1781 1.399 . S
C1777 C1776 1.399 . S
C1777 C1778 1.376 . S
C1778 H1765 0.930 . S
C1778 C1777 1.376 . S
C1778 C1779 1.388 . S
C1779 H1766 0.930 . S
C1779 C1778 1.388 . S
C1779 C1780 1.390 . S
C1780 C1779 1.390 . S
C1780 C1781 1.394 . S
C1780 C1786 1.465 . S
C1781 C1776 1.399 . S
C1781 C1780 1.394 . S
C1781 C1782 1.516 . S
C1782 C1781 1.516 . S
C1782 C1783 1.502 . S
C1782 C1784 1.561 . S
C1782 C1785 1.526 . S
C1783 H1767 0.959 . S
C1783 H1768 0.959 . S
C1783 H1769 0.961 . S
C1783 C1782 1.502 . S
C1784 H1770 0.960 . S
C1784 H1771 0.961 . S
C1784 H1772 0.959 . S
C1784 C1782 1.561 . S
C1785 C1782 1.526 . S
C1785 C1786 1.396 . S
C1785 C1790 1.390 . S
C1786 C1780 1.465 . S
C1786 C1785 1.396 . S
C1786 C1787 1.399 . S
C1787 H1773 0.929 . S
C1787 C1786 1.399 . S
C1787 C1788 1.385 . S
C1788 H1774 0.931 . S
C1788 C1787 1.385 . S
C1788 C1789 1.389 . S
C1789 C1788 1.389 . S
C1789 C1790 1.387 . S
C1790 H1775 0.930 . S
C1790 C1785 1.390 . S
C1790 C1789 1.387 . S
H1791 C1803 0.930 . S
H1792 C1805 0.930 . S
H1793 C1806 0.930 . S
H1794 C1810 0.959 . S
H1795 C1810 0.959 . S
H1796 C1810 0.961 . S
H1797 C1811 0.960 . S
H1798 C1811 0.961 . S
H1799 C1811 0.959 . S
H1800 C1814 0.929 . S
H1801 C1815 0.931 . S
H1802 C1817 0.930 . S
C1803 H1791 0.930 . S
C1803 C1804 1.399 . S
C1803 C1808 1.399 . S
C1804 C1803 1.399 . S
C1804 C1805 1.376 . S
C1805 H1792 0.930 . S
C1805 C1804 1.376 . S
C1805 C1806 1.388 . S
C1806 H1793 0.930 . S
C1806 C1805 1.388 . S
C1806 C1807 1.390 . S
C1807 C1806 1.390 . S
C1807 C1808 1.394 . S
C1807 C1813 1.465 . S
C1808 C1803 1.399 . S
C1808 C1807 1.394 . S
C1808 C1809 1.516 . S
C1809 C1808 1.516 . S
C1809 C1810 1.502 . S
C1809 C1811 1.561 . S
C1809 C1812 1.526 . S
C1810 H1794 0.959 . S
C1810 H1795 0.959 . S
C1810 H1796 0.961 . S
C1810 C1809 1.502 . S
C1811 H1797 0.960 . S
C1811 H1798 0.961 . S
C1811 H1799 0.959 . S
C1811 C1809 1.561 . S
C1812 C1809 1.526 . S
C1812 C1813 1.396 . S
C1812 C1817 1.390 . S
C1813 C1807 1.465 . S
C1813 C1812 1.396 . S
C1813 C1814 1.399 . S
C1814 H1800 0.929 . S
C1814 C1813 1.399 . S
C1814 C1815 1.385 . S
C1815 H1801 0.931 . S
C1815 C1814 1.385 . S
C1815 C1816 1.389 . S
C1816 C1815 1.389 . S
C1816 C1817 1.387 . S
C1817 H1802 0.930 . S
C1817 C1812 1.390 . S
C1817 C1816 1.387 . S
H1818 C1830 0.930 . S
H1819 C1832 0.930 . S
H1820 C1833 0.930 . S
H1821 C1837 0.959 . S
H1822 C1837 0.959 . S
H1823 C1837 0.961 . S
H1824 C1838 0.960 . S
H1825 C1838 0.961 . S
H1826 C1838 0.959 . S
H1827 C1841 0.929 . S
H1828 C1842 0.931 . S
H1829 C1844 0.930 . S
C1830 H1818 0.930 . S
C1830 C1831 1.399 . S
C1830 C1835 1.399 . S
C1831 C1830 1.399 . S
C1831 C1832 1.376 . S
C1832 H1819 0.930 . S
C1832 C1831 1.376 . S
C1832 C1833 1.388 . S
C1833 H1820 0.930 . S
C1833 C1832 1.388 . S
C1833 C1834 1.390 . S
C1834 C1833 1.390 . S
C1834 C1835 1.394 . S
C1834 C1840 1.465 . S
C1835 C1830 1.399 . S
C1835 C1834 1.394 . S
C1835 C1836 1.516 1_556 S
C1836 C1835 1.516 1_554 S
C1836 C1837 1.502 . S
C1836 C1838 1.561 . S
C1836 C1839 1.526 . S
C1837 H1821 0.959 . S
C1837 H1822 0.959 . S
C1837 H1823 0.961 . S
C1837 C1836 1.502 . S
C1838 H1824 0.960 . S
C1838 H1825 0.961 . S
C1838 H1826 0.959 . S
C1838 C1836 1.561 . S
C1839 C1836 1.526 . S
C1839 C1840 1.396 1_554 S
C1839 C1844 1.390 . S
C1840 C1834 1.465 . S
C1840 C1839 1.396 1_556 S
C1840 C1841 1.399 . S
C1841 H1827 0.929 . S
C1841 C1840 1.399 . S
C1841 C1842 1.385 1_556 S
C1842 H1828 0.931 . S
C1842 C1841 1.385 1_554 S
C1842 C1843 1.389 . S
C1843 C1842 1.389 . S
C1843 C1844 1.387 . S
C1844 H1829 0.930 . S
C1844 C1839 1.390 . S
C1844 C1843 1.387 . S
H1845 C1857 0.930 . S
H1846 C1859 0.930 . S
H1847 C1860 0.930 . S
H1848 C1864 0.959 . S
H1849 C1864 0.959 . S
H1850 C1864 0.961 . S
H1851 C1865 0.960 1_455 S
H1852 C1865 0.961 . S
H1853 C1865 0.959 . S
H1854 C1868 0.929 . S
H1855 C1869 0.931 . S
H1856 C1871 0.930 . S
C1857 H1845 0.930 . S
C1857 C1858 1.399 . S
C1857 C1862 1.399 . S
C1858 C1857 1.399 . S
C1858 C1859 1.376 . S
C1859 H1846 0.930 . S
C1859 C1858 1.376 . S
C1859 C1860 1.388 . S
C1860 H1847 0.930 . S
C1860 C1859 1.388 . S
C1860 C1861 1.390 . S
C1861 C1860 1.390 . S
C1861 C1862 1.394 . S
C1861 C1867 1.465 1_455 S
C1862 C1857 1.399 . S
C1862 C1861 1.394 . S
C1862 C1863 1.516 . S
C1863 C1862 1.516 . S
C1863 C1864 1.502 . S
C1863 C1865 1.561 1_455 S
C1863 C1866 1.526 1_455 S
C1864 H1848 0.959 . S
C1864 H1849 0.959 . S
C1864 H1850 0.961 . S
C1864 C1863 1.502 . S
C1865 H1851 0.960 1_655 S
C1865 H1852 0.961 . S
C1865 H1853 0.959 . S
C1865 C1863 1.561 1_655 S
C1866 C1863 1.526 1_655 S
C1866 C1867 1.396 . S
C1866 C1871 1.390 . S
C1867 C1861 1.465 1_655 S
C1867 C1866 1.396 . S
C1867 C1868 1.399 . S
C1868 H1854 0.929 . S
C1868 C1867 1.399 . S
C1868 C1869 1.385 . S
C1869 H1855 0.931 . S
C1869 C1868 1.385 . S
C1869 C1870 1.389 . S
C1870 C1869 1.389 . S
C1870 C1871 1.387 . S
C1871 H1856 0.930 . S
C1871 C1866 1.390 . S
C1871 C1870 1.387 . S
H1872 C1884 0.930 . S
H1873 C1886 0.930 . S
H1874 C1887 0.930 1_545 S
H1875 C1891 0.959 . S
H1876 C1891 0.959 . S
H1877 C1891 0.961 . S
H1878 C1892 0.960 . S
H1879 C1892 0.961 . S
H1880 C1892 0.959 . S
H1881 C1895 0.929 . S
H1882 C1896 0.931 . S
H1883 C1898 0.930 . S
C1884 H1872 0.930 . S
C1884 C1885 1.399 . S
C1884 C1889 1.399 . S
C1885 C1884 1.399 . S
C1885 C1886 1.376 . S
C1886 H1873 0.930 . S
C1886 C1885 1.376 . S
C1886 C1887 1.388 . S
C1887 H1874 0.930 1_565 S
C1887 C1886 1.388 . S
C1887 C1888 1.390 . S
C1888 C1887 1.390 . S
C1888 C1889 1.394 . S
C1888 C1894 1.465 1_565 S
C1889 C1884 1.399 . S
C1889 C1888 1.394 . S
C1889 C1890 1.516 1_554 S
C1890 C1889 1.516 1_556 S
C1890 C1891 1.502 . S
C1890 C1892 1.561 . S
C1890 C1893 1.526 1_565 S
C1891 H1875 0.959 . S
C1891 H1876 0.959 . S
C1891 H1877 0.961 . S
C1891 C1890 1.502 . S
C1892 H1878 0.960 . S
C1892 H1879 0.961 . S
C1892 H1880 0.959 . S
C1892 C1890 1.561 . S
C1893 C1890 1.526 1_545 S
C1893 C1894 1.396 1_556 S
C1893 C1898 1.390 . S
C1894 C1888 1.465 1_545 S
C1894 C1893 1.396 1_554 S
C1894 C1895 1.399 . S
C1895 H1881 0.929 . S
C1895 C1894 1.399 . S
C1895 C1896 1.385 1_554 S
C1896 H1882 0.931 . S
C1896 C1895 1.385 1_556 S
C1896 C1897 1.389 . S
C1897 C1896 1.389 . S
C1897 C1898 1.387 . S
C1898 H1883 0.930 . S
C1898 C1893 1.390 . S
C1898 C1897 1.387 . S
H1899 C1911 0.930 . S
H1900 C1913 0.930 . S
H1901 C1914 0.930 . S
H1902 C1918 0.959 . S
H1903 C1918 0.959 . S
H1904 C1918 0.961 . S
H1905 C1919 0.960 . S
H1906 C1919 0.961 . S
H1907 C1919 0.959 . S
H1908 C1922 0.929 . S
H1909 C1923 0.931 . S
H1910 C1925 0.930 . S
C1911 H1899 0.930 . S
C1911 C1912 1.399 . S
C1911 C1916 1.399 . S
C1912 C1911 1.399 . S
C1912 C1913 1.376 . S
C1913 H1900 0.930 . S
C1913 C1912 1.376 . S
C1913 C1914 1.388 . S
C1914 H1901 0.930 . S
C1914 C1913 1.388 . S
C1914 C1915 1.390 . S
C1915 C1914 1.390 . S
C1915 C1916 1.394 . S
C1915 C1921 1.465 . S
C1916 C1911 1.399 . S
C1916 C1915 1.394 . S
C1916 C1917 1.516 . S
C1917 C1916 1.516 . S
C1917 C1918 1.502 . S
C1917 C1919 1.561 . S
C1917 C1920 1.526 . S
C1918 H1902 0.959 . S
C1918 H1903 0.959 . S
C1918 H1904 0.961 . S
C1918 C1917 1.502 . S
C1919 H1905 0.960 . S
C1919 H1906 0.961 . S
C1919 H1907 0.959 . S
C1919 C1917 1.561 . S
C1920 C1917 1.526 . S
C1920 C1921 1.396 . S
C1920 C1925 1.390 . S
C1921 C1915 1.465 . S
C1921 C1920 1.396 . S
C1921 C1922 1.399 . S
C1922 H1908 0.929 . S
C1922 C1921 1.399 . S
C1922 C1923 1.385 . S
C1923 H1909 0.931 . S
C1923 C1922 1.385 . S
C1923 C1924 1.389 . S
C1924 C1923 1.389 . S
C1924 C1925 1.387 . S
C1925 H1910 0.930 . S
C1925 C1920 1.390 . S
C1925 C1924 1.387 . S
H1926 C1938 0.930 . S
H1927 C1940 0.930 . S
H1928 C1941 0.930 . S
H1929 C1945 0.959 . S
H1930 C1945 0.959 . S
H1931 C1945 0.961 . S
H1932 C1946 0.960 . S
H1933 C1946 0.961 . S
H1934 C1946 0.959 . S
H1935 C1949 0.929 1_655 S
H1936 C1950 0.931 . S
H1937 C1952 0.930 . S
C1938 H1926 0.930 . S
C1938 C1939 1.399 . S
C1938 C1943 1.399 . S
C1939 C1938 1.399 . S
C1939 C1940 1.376 . S
C1940 H1927 0.930 . S
C1940 C1939 1.376 . S
C1940 C1941 1.388 1_556 S
C1941 H1928 0.930 . S
C1941 C1940 1.388 1_554 S
C1941 C1942 1.397 . S
C1942 C1941 1.397 . S
C1942 C1943 1.361 1_554 S
C1942 C1948 1.487 1_655 S
C1943 C1938 1.399 . S
C1943 C1942 1.361 1_556 S
C1943 C1944 1.516 1_655 S
C1944 C1943 1.516 1_455 S
C1944 C1945 1.502 . S
C1944 C1946 1.561 . S
C1944 C1947 1.526 1_556 S
C1945 H1929 0.959 . S
C1945 H1930 0.959 . S
C1945 H1931 0.961 . S
C1945 C1944 1.502 . S
C1946 H1932 0.960 . S
C1946 H1933 0.961 . S
C1946 H1934 0.959 . S
C1946 C1944 1.561 . S
C1947 C1944 1.526 1_554 S
C1947 C1948 1.396 . S
C1947 C1952 1.390 . S
C1948 C1942 1.487 1_455 S
C1948 C1947 1.396 . S
C1948 C1949 1.399 . S
C1949 H1935 0.929 1_455 S
C1949 C1948 1.399 . S
C1949 C1950 1.385 . S
C1950 H1936 0.931 . S
C1950 C1949 1.385 . S
C1950 C1951 1.389 . S
C1951 C1950 1.389 . S
C1951 C1952 1.387 . S
C1952 H1937 0.930 . S
C1952 C1947 1.390 . S
C1952 C1951 1.387 . S
H1953 C1965 0.930 . S
H1954 C1967 0.930 . S
H1955 C1968 0.930 . S
H1956 C1972 0.959 . S
H1957 C1972 0.959 . S
H1958 C1972 0.961 . S
H1959 C1973 0.960 . S
H1960 C1973 0.961 . S
H1961 C1973 0.959 . S
H1962 C1976 0.929 1_565 S
H1963 C1977 0.931 . S
H1964 C1979 0.930 . S
C1965 H1953 0.930 . S
C1965 C1966 1.399 . S
C1965 C1970 1.399 . S
C1966 C1965 1.399 . S
C1966 C1967 1.376 . S
C1967 H1954 0.930 . S
C1967 C1966 1.376 . S
C1967 C1968 1.388 . S
C1968 H1955 0.930 . S
C1968 C1967 1.388 . S
C1968 C1969 1.390 . S
C1969 C1968 1.390 . S
C1969 C1970 1.394 . S
C1969 C1975 1.465 1_565 S
C1970 C1965 1.399 . S
C1970 C1969 1.394 . S
C1970 C1971 1.516 1_565 S
C1971 C1970 1.516 1_545 S
C1971 C1972 1.502 . S
C1971 C1973 1.561 . S
C1971 C1974 1.526 . S
C1972 H1956 0.959 . S
C1972 H1957 0.959 . S
C1972 H1958 0.961 . S
C1972 C1971 1.502 . S
C1973 H1959 0.960 . S
C1973 H1960 0.961 . S
C1973 H1961 0.959 . S
C1973 C1971 1.561 . S
C1974 C1971 1.526 . S
C1974 C1975 1.396 . S
C1974 C1979 1.390 . S
C1975 C1969 1.465 1_545 S
C1975 C1974 1.396 . S
C1975 C1976 1.399 . S
C1976 H1962 0.929 1_545 S
C1976 C1975 1.399 . S
C1976 C1977 1.385 . S
C1977 H1963 0.931 . S
C1977 C1976 1.385 . S
C1977 C1978 1.389 . S
C1978 C1977 1.389 . S
C1978 C1979 1.387 . S
C1979 H1964 0.930 . S
C1979 C1974 1.390 . S
C1979 C1978 1.387 . S
C1021 C403 1.383 . S
C1033 C70 1.310 . S
C1048 C487 1.297 . S
C1060 C154 1.206 . S
C1075 C238 1.195 . S
C1087 C67 1.296 . S
C1102 C322 1.311 . S
C1114 C151 1.360 . S
C1129 C406 1.313 . S
C1141 C235 1.362 . S
C1156 C319 1.301 . S
C1168 C490 1.188 . S
C1183 C739 1.374 . S
C1195 C574 1.285 . S
C1210 C658 1.314 . S
C1222 C823 1.363 . S
C1237 C907 1.383 . S
C1249 C742 1.311 . S
C1264 C826 1.319 . S
C1276 C991 1.368 . S
C1291 C910 1.211 . S
C1303 C571 1.329 . S
C1318 C655 1.381 . S
C1330 C994 1.303 . S
C1345 C392 1.419 . S
C1357 C58 1.260 . S
C1372 C142 1.366 . S
C1384 C476 1.444 . S
C1399 C226 1.303 . S
C1411 C56 1.350 . S
C1426 C310 1.257 . S
C1438 C140 1.382 . S
C1453 C224 1.387 . S
C1465 C394 1.256 . S
C1480 C308 1.404 . S
C1492 C478 1.390 . S
C1507 C728 1.402 . S
C1519 C562 1.255 . S
C1534 C646 1.310 . S
C1546 C812 1.451 . S
C1561 C730 1.339 . S
C1573 C896 1.452 . S
C1588 C980 1.445 . S
C1600 C814 1.363 . S
C1615 C898 1.287 . S
C1627 C560 1.355 . S
C1642 C644 1.384 . S
C1654 C982 1.257 . S
C1669 C903 1.853 . S
C1681 C63 1.842 . S
C1696 C147 1.895 . S
C1708 C987 1.870 . S
C1723 C231 1.916 . S
C1735 C567 1.910 . S
C1750 C315 1.857 . S
C1762 C651 1.843 . S
C1777 C399 1.856 . S
C1789 C735 1.881 . S
C1804 C819 1.842 . S
C1816 C483 1.856 . S
C1831 C830 1.989 . S
C1843 C74 2.034 . S
C1858 C914 2.028 . S
C1870 C158 2.056 . S
C1885 C242 1.989 . S
C1897 C998 2.032 . S
C1912 C326 2.005 . S
C1924 C578 2.053 . S
C1939 C662 2.056 . S
C1951 C410 2.015 . S
C1966 C746 2.056 . S
C1978 C494 2.015 . S
