# Generated by pormake.
# Topology wnd, (6)-cn, num edge types: 1
# Building blocks:
#     Node 0, Type 0, BuildingBlock: CIFDUS_clean_sbu_1, # of connection points: 6
#     Node 1, Type 0, BuildingBlock: CIFDUS_clean_sbu_1, # of connection points: 6
#     Node 2, Type 0, BuildingBlock: CIFDUS_clean_sbu_1, # of connection points: 6
#     Node 3, Type 0, BuildingBlock: CIFDUS_clean_sbu_1, # of connection points: 6
#     Node 4, Type 0, BuildingBlock: CIFDUS_clean_sbu_1, # of connection points: 6
#     Node 5, Type 0, BuildingBlock: CIFDUS_clean_sbu_1, # of connection points: 6
#     Node 6, Type 0, BuildingBlock: CIFDUS_clean_sbu_1, # of connection points: 6
#     Node 7, Type 0, BuildingBlock: CIFDUS_clean_sbu_1, # of connection points: 6
#     Node 8, Type 0, BuildingBlock: CIFDUS_clean_sbu_1, # of connection points: 6
#     Node 9, Type 0, BuildingBlock: CIFDUS_clean_sbu_1, # of connection points: 6
#     Node 10, Type 0, BuildingBlock: CIFDUS_clean_sbu_1, # of connection points: 6
#     Node 11, Type 0, BuildingBlock: CIFDUS_clean_sbu_1, # of connection points: 6
#     Node 12, Type 0, BuildingBlock: CIFDUS_clean_sbu_1, # of connection points: 6
#     Node 13, Type 0, BuildingBlock: CIFDUS_clean_sbu_1, # of connection points: 6
#     Node 14, Type 0, BuildingBlock: CIFDUS_clean_sbu_1, # of connection points: 6
#     Node 15, Type 0, BuildingBlock: CIFDUS_clean_sbu_1, # of connection points: 6
#     Node 16, Type 0, BuildingBlock: CIFDUS_clean_sbu_1, # of connection points: 6
#     Node 17, Type 0, BuildingBlock: CIFDUS_clean_sbu_1, # of connection points: 6
#     Node 18, Type 0, BuildingBlock: CIFDUS_clean_sbu_1, # of connection points: 6
#     Node 19, Type 0, BuildingBlock: CIFDUS_clean_sbu_1, # of connection points: 6
#     Node 20, Type 0, BuildingBlock: CIFDUS_clean_sbu_1, # of connection points: 6
#     Node 21, Type 0, BuildingBlock: CIFDUS_clean_sbu_1, # of connection points: 6
#     Node 22, Type 0, BuildingBlock: CIFDUS_clean_sbu_1, # of connection points: 6
#     Node 23, Type 0, BuildingBlock: CIFDUS_clean_sbu_1, # of connection points: 6
#     Node 24, Type 0, BuildingBlock: CIFDUS_clean_sbu_1, # of connection points: 6
#     Node 25, Type 0, BuildingBlock: CIFDUS_clean_sbu_1, # of connection points: 6
#     Node 26, Type 0, BuildingBlock: CIFDUS_clean_sbu_1, # of connection points: 6
#     Node 27, Type 0, BuildingBlock: CIFDUS_clean_sbu_1, # of connection points: 6
#     Node 28, Type 0, BuildingBlock: CIFDUS_clean_sbu_1, # of connection points: 6
#     Node 29, Type 0, BuildingBlock: CIFDUS_clean_sbu_1, # of connection points: 6
#     Node 30, Type 0, BuildingBlock: CIFDUS_clean_sbu_1, # of connection points: 6
#     Node 31, Type 0, BuildingBlock: CIFDUS_clean_sbu_1, # of connection points: 6
#     Node 32, Type 0, BuildingBlock: CIFDUS_clean_sbu_1, # of connection points: 6
#     Node 33, Type 0, BuildingBlock: CIFDUS_clean_sbu_1, # of connection points: 6
#     Node 34, Type 0, BuildingBlock: CIFDUS_clean_sbu_1, # of connection points: 6
#     Node 35, Type 0, BuildingBlock: CIFDUS_clean_sbu_1, # of connection points: 6
#     Edge 36, Type (0, 0), BuildingBlock: AJUNOK_clean_linker_0, # of connection points: 2
#     Edge 37, Type (0, 0), BuildingBlock: AJUNOK_clean_linker_0, # of connection points: 2
#     Edge 38, Type (0, 0), BuildingBlock: AJUNOK_clean_linker_0, # of connection points: 2
#     Edge 39, Type (0, 0), BuildingBlock: AJUNOK_clean_linker_0, # of connection points: 2
#     Edge 40, Type (0, 0), BuildingBlock: AJUNOK_clean_linker_0, # of connection points: 2
#     Edge 41, Type (0, 0), BuildingBlock: AJUNOK_clean_linker_0, # of connection points: 2
#     Edge 42, Type (0, 0), BuildingBlock: AJUNOK_clean_linker_0, # of connection points: 2
#     Edge 43, Type (0, 0), BuildingBlock: AJUNOK_clean_linker_0, # of connection points: 2
#     Edge 44, Type (0, 0), BuildingBlock: AJUNOK_clean_linker_0, # of connection points: 2
#     Edge 45, Type (0, 0), BuildingBlock: AJUNOK_clean_linker_0, # of connection points: 2
#     Edge 46, Type (0, 0), BuildingBlock: AJUNOK_clean_linker_0, # of connection points: 2
#     Edge 47, Type (0, 0), BuildingBlock: AJUNOK_clean_linker_0, # of connection points: 2
#     Edge 48, Type (0, 0), BuildingBlock: AJUNOK_clean_linker_0, # of connection points: 2
#     Edge 49, Type (0, 0), BuildingBlock: AJUNOK_clean_linker_0, # of connection points: 2
#     Edge 50, Type (0, 0), BuildingBlock: AJUNOK_clean_linker_0, # of connection points: 2
#     Edge 51, Type (0, 0), BuildingBlock: AJUNOK_clean_linker_0, # of connection points: 2
#     Edge 52, Type (0, 0), BuildingBlock: AJUNOK_clean_linker_0, # of connection points: 2
#     Edge 53, Type (0, 0), BuildingBlock: AJUNOK_clean_linker_0, # of connection points: 2
#     Edge 54, Type (0, 0), BuildingBlock: AJUNOK_clean_linker_0, # of connection points: 2
#     Edge 55, Type (0, 0), BuildingBlock: AJUNOK_clean_linker_0, # of connection points: 2
#     Edge 56, Type (0, 0), BuildingBlock: AJUNOK_clean_linker_0, # of connection points: 2
#     Edge 57, Type (0, 0), BuildingBlock: AJUNOK_clean_linker_0, # of connection points: 2
#     Edge 58, Type (0, 0), BuildingBlock: AJUNOK_clean_linker_0, # of connection points: 2
#     Edge 59, Type (0, 0), BuildingBlock: AJUNOK_clean_linker_0, # of connection points: 2
#     Edge 60, Type (0, 0), BuildingBlock: AJUNOK_clean_linker_0, # of connection points: 2
#     Edge 61, Type (0, 0), BuildingBlock: AJUNOK_clean_linker_0, # of connection points: 2
#     Edge 62, Type (0, 0), BuildingBlock: AJUNOK_clean_linker_0, # of connection points: 2
#     Edge 63, Type (0, 0), BuildingBlock: AJUNOK_clean_linker_0, # of connection points: 2
#     Edge 64, Type (0, 0), BuildingBlock: AJUNOK_clean_linker_0, # of connection points: 2
#     Edge 65, Type (0, 0), BuildingBlock: AJUNOK_clean_linker_0, # of connection points: 2
#     Edge 66, Type (0, 0), BuildingBlock: AJUNOK_clean_linker_0, # of connection points: 2
#     Edge 67, Type (0, 0), BuildingBlock: AJUNOK_clean_linker_0, # of connection points: 2
#     Edge 68, Type (0, 0), BuildingBlock: AJUNOK_clean_linker_0, # of connection points: 2
#     Edge 69, Type (0, 0), BuildingBlock: AJUNOK_clean_linker_0, # of connection points: 2
#     Edge 70, Type (0, 0), BuildingBlock: AJUNOK_clean_linker_0, # of connection points: 2
#     Edge 71, Type (0, 0), BuildingBlock: AJUNOK_clean_linker_0, # of connection points: 2
#     Edge 72, Type (0, 0), BuildingBlock: AJUNOK_clean_linker_0, # of connection points: 2
#     Edge 73, Type (0, 0), BuildingBlock: AJUNOK_clean_linker_0, # of connection points: 2
#     Edge 74, Type (0, 0), BuildingBlock: AJUNOK_clean_linker_0, # of connection points: 2
#     Edge 75, Type (0, 0), BuildingBlock: AJUNOK_clean_linker_0, # of connection points: 2
#     Edge 76, Type (0, 0), BuildingBlock: AJUNOK_clean_linker_0, # of connection points: 2
#     Edge 77, Type (0, 0), BuildingBlock: AJUNOK_clean_linker_0, # of connection points: 2
#     Edge 78, Type (0, 0), BuildingBlock: AJUNOK_clean_linker_0, # of connection points: 2
#     Edge 79, Type (0, 0), BuildingBlock: AJUNOK_clean_linker_0, # of connection points: 2
#     Edge 80, Type (0, 0), BuildingBlock: AJUNOK_clean_linker_0, # of connection points: 2
#     Edge 81, Type (0, 0), BuildingBlock: AJUNOK_clean_linker_0, # of connection points: 2
#     Edge 82, Type (0, 0), BuildingBlock: AJUNOK_clean_linker_0, # of connection points: 2
#     Edge 83, Type (0, 0), BuildingBlock: AJUNOK_clean_linker_0, # of connection points: 2
#     Edge 84, Type (0, 0), BuildingBlock: AJUNOK_clean_linker_0, # of connection points: 2
#     Edge 85, Type (0, 0), BuildingBlock: AJUNOK_clean_linker_0, # of connection points: 2
#     Edge 86, Type (0, 0), BuildingBlock: AJUNOK_clean_linker_0, # of connection points: 2
#     Edge 87, Type (0, 0), BuildingBlock: AJUNOK_clean_linker_0, # of connection points: 2
#     Edge 88, Type (0, 0), BuildingBlock: AJUNOK_clean_linker_0, # of connection points: 2
#     Edge 89, Type (0, 0), BuildingBlock: AJUNOK_clean_linker_0, # of connection points: 2
#     Edge 90, Type (0, 0), BuildingBlock: AJUNOK_clean_linker_0, # of connection points: 2
#     Edge 91, Type (0, 0), BuildingBlock: AJUNOK_clean_linker_0, # of connection points: 2
#     Edge 92, Type (0, 0), BuildingBlock: AJUNOK_clean_linker_0, # of connection points: 2
#     Edge 93, Type (0, 0), BuildingBlock: AJUNOK_clean_linker_0, # of connection points: 2
#     Edge 94, Type (0, 0), BuildingBlock: AJUNOK_clean_linker_0, # of connection points: 2
#     Edge 95, Type (0, 0), BuildingBlock: AJUNOK_clean_linker_0, # of connection points: 2
#     Edge 96, Type (0, 0), BuildingBlock: AJUNOK_clean_linker_0, # of connection points: 2
#     Edge 97, Type (0, 0), BuildingBlock: AJUNOK_clean_linker_0, # of connection points: 2
#     Edge 98, Type (0, 0), BuildingBlock: AJUNOK_clean_linker_0, # of connection points: 2
#     Edge 99, Type (0, 0), BuildingBlock: AJUNOK_clean_linker_0, # of connection points: 2
#     Edge 100, Type (0, 0), BuildingBlock: AJUNOK_clean_linker_0, # of connection points: 2
#     Edge 101, Type (0, 0), BuildingBlock: AJUNOK_clean_linker_0, # of connection points: 2
#     Edge 102, Type (0, 0), BuildingBlock: AJUNOK_clean_linker_0, # of connection points: 2
#     Edge 103, Type (0, 0), BuildingBlock: AJUNOK_clean_linker_0, # of connection points: 2
#     Edge 104, Type (0, 0), BuildingBlock: AJUNOK_clean_linker_0, # of connection points: 2
#     Edge 105, Type (0, 0), BuildingBlock: AJUNOK_clean_linker_0, # of connection points: 2
#     Edge 106, Type (0, 0), BuildingBlock: AJUNOK_clean_linker_0, # of connection points: 2
#     Edge 107, Type (0, 0), BuildingBlock: AJUNOK_clean_linker_0, # of connection points: 2
#     Edge 108, Type (0, 0), BuildingBlock: AJUNOK_clean_linker_0, # of connection points: 2
#     Edge 109, Type (0, 0), BuildingBlock: AJUNOK_clean_linker_0, # of connection points: 2
#     Edge 110, Type (0, 0), BuildingBlock: AJUNOK_clean_linker_0, # of connection points: 2
#     Edge 111, Type (0, 0), BuildingBlock: AJUNOK_clean_linker_0, # of connection points: 2
#     Edge 112, Type (0, 0), BuildingBlock: AJUNOK_clean_linker_0, # of connection points: 2
#     Edge 113, Type (0, 0), BuildingBlock: AJUNOK_clean_linker_0, # of connection points: 2
#     Edge 114, Type (0, 0), BuildingBlock: AJUNOK_clean_linker_0, # of connection points: 2
#     Edge 115, Type (0, 0), BuildingBlock: AJUNOK_clean_linker_0, # of connection points: 2
#     Edge 116, Type (0, 0), BuildingBlock: AJUNOK_clean_linker_0, # of connection points: 2
#     Edge 117, Type (0, 0), BuildingBlock: AJUNOK_clean_linker_0, # of connection points: 2
#     Edge 118, Type (0, 0), BuildingBlock: AJUNOK_clean_linker_0, # of connection points: 2
#     Edge 119, Type (0, 0), BuildingBlock: AJUNOK_clean_linker_0, # of connection points: 2
#     Edge 120, Type (0, 0), BuildingBlock: AJUNOK_clean_linker_0, # of connection points: 2
#     Edge 121, Type (0, 0), BuildingBlock: AJUNOK_clean_linker_0, # of connection points: 2
#     Edge 122, Type (0, 0), BuildingBlock: AJUNOK_clean_linker_0, # of connection points: 2
#     Edge 123, Type (0, 0), BuildingBlock: AJUNOK_clean_linker_0, # of connection points: 2
#     Edge 124, Type (0, 0), BuildingBlock: AJUNOK_clean_linker_0, # of connection points: 2
#     Edge 125, Type (0, 0), BuildingBlock: AJUNOK_clean_linker_0, # of connection points: 2
#     Edge 126, Type (0, 0), BuildingBlock: AJUNOK_clean_linker_0, # of connection points: 2
#     Edge 127, Type (0, 0), BuildingBlock: AJUNOK_clean_linker_0, # of connection points: 2
#     Edge 128, Type (0, 0), BuildingBlock: AJUNOK_clean_linker_0, # of connection points: 2
#     Edge 129, Type (0, 0), BuildingBlock: AJUNOK_clean_linker_0, # of connection points: 2
#     Edge 130, Type (0, 0), BuildingBlock: AJUNOK_clean_linker_0, # of connection points: 2
#     Edge 131, Type (0, 0), BuildingBlock: AJUNOK_clean_linker_0, # of connection points: 2
#     Edge 132, Type (0, 0), BuildingBlock: AJUNOK_clean_linker_0, # of connection points: 2
#     Edge 133, Type (0, 0), BuildingBlock: AJUNOK_clean_linker_0, # of connection points: 2
#     Edge 134, Type (0, 0), BuildingBlock: AJUNOK_clean_linker_0, # of connection points: 2
#     Edge 135, Type (0, 0), BuildingBlock: AJUNOK_clean_linker_0, # of connection points: 2
#     Edge 136, Type (0, 0), BuildingBlock: AJUNOK_clean_linker_0, # of connection points: 2
#     Edge 137, Type (0, 0), BuildingBlock: AJUNOK_clean_linker_0, # of connection points: 2
#     Edge 138, Type (0, 0), BuildingBlock: AJUNOK_clean_linker_0, # of connection points: 2
#     Edge 139, Type (0, 0), BuildingBlock: AJUNOK_clean_linker_0, # of connection points: 2
#     Edge 140, Type (0, 0), BuildingBlock: AJUNOK_clean_linker_0, # of connection points: 2
#     Edge 141, Type (0, 0), BuildingBlock: AJUNOK_clean_linker_0, # of connection points: 2
#     Edge 142, Type (0, 0), BuildingBlock: AJUNOK_clean_linker_0, # of connection points: 2
#     Edge 143, Type (0, 0), BuildingBlock: AJUNOK_clean_linker_0, # of connection points: 2
# Relax obj value: 0.152
# Max RMSD: 0.182
# Mean RMSD: 0.182
data_MOF--net-wnd--node1-CIFDUS_clean_sbu_1--edge1-AJUNOK_clean_linker_0
_symmetry_space_group_name_H-M    P1
_symmetry_Int_Tables_number       1
_symmetry_cell_setting            triclinic
loop_
_symmetry_equiv_pos_as_xyz
'x, y, z'
_cell_length_a     22.841371
_cell_length_b     22.913381
_cell_length_c     130.94703
_cell_angle_alpha  89.955335
_cell_angle_beta   89.948616
_cell_angle_gamma 120.03591
loop_
_atom_site_label
_atom_site_type_symbol
_atom_site_fract_x
_atom_site_fract_y
_atom_site_fract_z
_atom_type_partial_charge
O0 O 0.46731 0.09759 0.05134 0.0
Mn1 Mn 0.50684 0.03365 0.05109 0.0
O2 O 0.54036 0.18121 0.04169 0.0
Mn3 Mn 0.5552 0.12692 0.03322 0.0
O4 O 0.54222 0.96454 0.05043 0.0
O5 O 0.49219 0.03538 0.06716 0.0
Mn6 Mn 0.46907 0.95011 0.06918 0.0
O7 O 0.40913 0.95423 0.04865 0.0
O8 O 0.53151 0.92497 0.06605 0.0
O9 O 0.60479 0.11177 0.05343 0.0
O10 O 0.64089 0.14716 0.03746 0.0
O11 O 0.47367 0.97892 0.08192 0.0
O12 O 0.38403 0.89878 0.06356 0.0
C13 C 0.48917 0.03332 0.02748 0.0
C14 C 0.49339 0.15761 0.04812 0.0
C15 C 0.5494 0.92693 0.05689 0.0
C16 C 0.48358 0.03303 0.07726 0.0
C17 C 0.36776 0.90736 0.05462 0.0
C18 C 0.65215 0.14408 0.04695 0.0
O19 O 0.52586 0.03822 0.03531 0.0
O20 O 0.46768 0.07458 0.02793 0.0
O21 O 0.94642 0.40589 0.05347 0.0
Mn22 Mn 0.02724 0.50485 0.05169 0.0
O23 O 0.91209 0.36978 0.03812 0.0
Mn24 Mn 0.93005 0.45565 0.03717 0.0
O25 O 0.1074 0.60514 0.05024 0.0
O26 O 0.03287 0.49947 0.06768 0.0
Mn27 Mn 0.12167 0.55681 0.06881 0.0
O28 O 0.09642 0.4703 0.04912 0.0
O29 O 0.13805 0.64267 0.06601 0.0
O30 O 0.96634 0.54656 0.05452 0.0
O31 O 0.8801 0.48467 0.04442 0.0
O32 O 0.09778 0.51214 0.08087 0.0
O33 O 0.17371 0.53207 0.06094 0.0
C34 C 0.99148 0.50771 0.02638 0.0
C35 C 0.91394 0.35705 0.04729 0.0
C36 C 0.13699 0.65421 0.05656 0.0
C37 C 0.03986 0.47498 0.07648 0.0
C38 C 0.15523 0.49316 0.05323 0.0
C39 C 0.90808 0.52993 0.0511 0.0
O40 O 0.01894 0.51196 0.03554 0.0
O41 O 0.92696 0.47419 0.02463 0.0
O42 O 0.66518 0.59834 0.05248 0.0
Mn43 Mn 0.56131 0.55495 0.05062 0.0
O44 O 0.68422 0.53061 0.04302 0.0
Mn45 Mn 0.60507 0.49984 0.03616 0.0
O46 O 0.45552 0.51575 0.04913 0.0
O47 O 0.5647 0.56304 0.06648 0.0
Mn48 Mn 0.51215 0.59701 0.06867 0.0
O49 O 0.57446 0.65181 0.04803 0.0
O50 O 0.42531 0.54788 0.06335 0.0
O51 O 0.53946 0.45495 0.05358 0.0
O52 O 0.54139 0.41302 0.03856 0.0
O53 O 0.53132 0.58011 0.08139 0.0
O54 O 0.56519 0.68333 0.06375 0.0
C55 C 0.58343 0.54246 0.02524 0.0
C56 C 0.7042 0.57796 0.04929 0.0
C57 C 0.41073 0.51884 0.05471 0.0
C58 C 0.574 0.56893 0.07647 0.0
C59 C 0.57657 0.69593 0.05428 0.0
C60 C 0.52092 0.40418 0.04764 0.0
O61 O 0.56246 0.54697 0.03453 0.0
O62 O 0.62641 0.52225 0.02358 0.0
O63 O 0.95957 0.41164 0.46421 0.0
Mn64 Mn 0.03912 0.51135 0.46089 0.0
O65 O 0.91161 0.37637 0.44891 0.0
Mn66 Mn 0.94653 0.46173 0.44356 0.0
O67 O 0.10854 0.61132 0.45693 0.0
O68 O 0.05111 0.52756 0.47702 0.0
Mn69 Mn 0.14141 0.57109 0.47575 0.0
O70 O 0.10846 0.47778 0.45953 0.0
O71 O 0.18138 0.65319 0.46963 0.0
O72 O 0.9684 0.54424 0.46231 0.0
O73 O 0.90896 0.51242 0.44795 0.0
O74 O 0.13774 0.58292 0.48864 0.0
O75 O 0.17356 0.51459 0.4732 0.0
C76 C 0.03136 0.48764 0.43482 0.0
C77 C 0.91451 0.36578 0.45838 0.0
C78 C 0.15816 0.66059 0.46137 0.0
C79 C 0.07392 0.54695 0.48651 0.0
C80 C 0.15429 0.47923 0.46525 0.0
C81 C 0.92231 0.5419 0.45651 0.0
O82 O 0.03451 0.49677 0.44488 0.0
O83 O 0.97454 0.47326 0.43055 0.0
O84 O 0.65602 0.57933 0.46424 0.0
Mn85 Mn 0.55756 0.56111 0.46222 0.0
O86 O 0.67031 0.5306 0.45017 0.0
Mn87 Mn 0.5884 0.50424 0.44367 0.0
O88 O 0.45632 0.53735 0.4599 0.0
O89 O 0.5421 0.55497 0.47792 0.0
Mn90 Mn 0.50146 0.60545 0.47799 0.0
O91 O 0.59728 0.66433 0.46133 0.0
O92 O 0.41599 0.53695 0.47551 0.0
O93 O 0.52304 0.45661 0.46333 0.0
O94 O 0.51826 0.42052 0.44752 0.0
O95 O 0.56556 0.64128 0.48777 0.0
O96 O 0.51917 0.6748 0.46939 0.0
C97 C 0.57913 0.58311 0.43658 0.0
C98 C 0.69129 0.56222 0.45864 0.0
C99 C 0.40655 0.51898 0.46618 0.0
C100 C 0.56792 0.58706 0.48646 0.0
C101 C 0.5691 0.6981 0.46356 0.0
C102 C 0.50666 0.40834 0.45699 0.0
O103 O 0.57067 0.56942 0.44643 0.0
O104 O 0.58874 0.5411 0.43125 0.0
O105 O 0.48816 0.10965 0.4647 0.0
Mn106 Mn 0.50143 0.02616 0.46194 0.0
O107 O 0.49713 0.15389 0.44911 0.0
Mn108 Mn 0.54374 0.11578 0.44326 0.0
O109 O 0.52195 0.94677 0.45913 0.0
O110 O 0.50588 0.01469 0.4777 0.0
Mn111 Mn 0.45424 0.92396 0.47703 0.0
O112 O 0.39782 0.96672 0.46064 0.0
O113 O 0.51745 0.90045 0.47435 0.0
O114 O 0.60731 0.09469 0.46275 0.0
O115 O 0.6314 0.15068 0.44786 0.0
O116 O 0.42653 0.94364 0.48849 0.0
O117 O 0.37957 0.87681 0.46911 0.0
C118 C 0.47883 0.0216 0.43651 0.0
C119 C 0.48587 0.15279 0.45866 0.0
C120 C 0.53736 0.91184 0.46513 0.0
C121 C 0.47569 0.00361 0.48663 0.0
C122 C 0.35989 0.90586 0.46311 0.0
C123 C 0.64893 0.14161 0.45669 0.0
O124 O 0.49453 0.03061 0.44627 0.0
O125 O 0.51468 0.07428 0.4309 0.0
O126 O 0.65524 0.10591 0.96277 0.0
Mn127 Mn 0.55417 0.03206 0.96084 0.0
O128 O 0.67235 0.17419 0.94927 0.0
Mn129 Mn 0.5893 0.1233 0.94252 0.0
O130 O 0.45388 0.96085 0.95906 0.0
O131 O 0.53988 0.0234 0.9768 0.0
Mn132 Mn 0.51569 0.93686 0.97946 0.0
O133 O 0.57813 0.9545 0.95958 0.0
O134 O 0.44042 0.88386 0.97099 0.0
O135 O 0.52704 0.10727 0.96227 0.0
O136 O 0.52251 0.14229 0.94668 0.0
O137 O 0.54035 0.02499 0.9771 0.0
O138 O 0.5936 0.9379 0.97558 0.0
C139 C 0.57441 0.03159 0.93542 0.0
C140 C 0.69217 0.1597 0.95756 0.0
C141 C 0.41855 0.90401 0.96351 0.0
C142 C 0.55325 0.06771 0.98391 0.0
C143 C 0.59651 0.92618 0.96627 0.0
C144 C 0.5097 0.13953 0.95616 0.0
O145 O 0.56587 0.0384 0.94518 0.0
O146 O 0.58674 0.08414 0.9301 0.0
O147 O 0.95952 0.58083 0.96373 0.0
Mn148 Mn 0.03781 0.55993 0.96106 0.0
O149 O 0.89252 0.53641 0.94982 0.0
Mn150 Mn 0.94073 0.50292 0.9429 0.0
O151 O 0.11097 0.53228 0.9571 0.0
O152 O 0.05034 0.55926 0.97712 0.0
Mn153 Mn 0.13932 0.59582 0.97536 0.0
O154 O 0.10503 0.66348 0.95943 0.0
O155 O 0.16212 0.53461 0.97145 0.0
O156 O 0.96618 0.45594 0.96264 0.0
O157 O 0.92206 0.41814 0.94718 0.0
O158 O 0.14064 0.6026 0.98837 0.0
O159 O 0.18674 0.67971 0.97008 0.0
C160 C 0.03349 0.57946 0.93612 0.0
C161 C 0.90664 0.56712 0.9584 0.0
C162 C 0.14774 0.51594 0.96238 0.0
C163 C 0.07621 0.57004 0.9865 0.0
C164 C 0.16189 0.7017 0.96365 0.0
C165 C 0.92917 0.40749 0.9565 0.0
O166 O 0.02536 0.56213 0.94572 0.0
O167 O 0.98129 0.54124 0.93057 0.0
O168 O 0.47601 0.40944 0.96284 0.0
Mn169 Mn 0.50571 0.51082 0.96048 0.0
O170 O 0.52805 0.38781 0.94996 0.0
Mn171 Mn 0.56176 0.46816 0.94256 0.0
O172 O 0.53898 0.61358 0.95856 0.0
O173 O 0.50451 0.51768 0.9765 0.0
Mn174 Mn 0.43399 0.52941 0.97463 0.0
O175 O 0.40698 0.48854 0.95691 0.0
O176 O 0.45684 0.6099 0.96803 0.0
O177 O 0.60767 0.53616 0.96257 0.0
O178 O 0.6466 0.53439 0.94694 0.0
O179 O 0.43742 0.53367 0.98786 0.0
O180 O 0.35598 0.45412 0.97123 0.0
C181 C 0.48516 0.48658 0.93587 0.0
C182 C 0.49367 0.37114 0.95824 0.0
C183 C 0.50829 0.64249 0.96228 0.0
C184 C 0.48665 0.52256 0.98593 0.0
C185 C 0.35189 0.45695 0.9618 0.0
C186 C 0.65673 0.54986 0.95638 0.0
O187 O 0.50605 0.49812 0.94527 0.0
O188 O 0.52031 0.46856 0.93034 0.0
O189 O 0.09925 0.65492 0.54897 0.0
Mn190 Mn 0.02952 0.552 0.55198 0.0
O191 O 0.16894 0.68073 0.56256 0.0
Mn192 Mn 0.12146 0.60119 0.56991 0.0
O193 O 0.96918 0.45046 0.55538 0.0
O194 O 0.02388 0.53136 0.53584 0.0
Mn195 Mn 0.93825 0.50787 0.53813 0.0
O196 O 0.94639 0.57017 0.55347 0.0
O197 O 0.88184 0.43613 0.54655 0.0
O198 O 0.1103 0.53194 0.55102 0.0
O199 O 0.14323 0.53561 0.567 0.0
O200 O 0.92694 0.47373 0.52611 0.0
O201 O 0.93689 0.58598 0.53776 0.0
C202 C 0.03257 0.58549 0.57725 0.0
C203 C 0.15324 0.69593 0.55399 0.0
C204 C 0.90804 0.41378 0.55275 0.0
C205 C 0.99198 0.5033 0.52712 0.0
C206 C 0.92324 0.59296 0.54664 0.0
C207 C 0.14219 0.51838 0.55779 0.0
O208 O 0.03537 0.5728 0.56751 0.0
O209 O 0.08748 0.6033 0.58236 0.0
O210 O 0.40803 0.47736 0.55084 0.0
Mn211 Mn 0.50956 0.50636 0.55209 0.0
O212 O 0.39875 0.54046 0.56327 0.0
Mn213 Mn 0.48053 0.56988 0.57024 0.0
O214 O 0.61135 0.53692 0.55303 0.0
O215 O 0.51355 0.50453 0.53582 0.0
Mn216 Mn 0.52427 0.43275 0.53749 0.0
O217 O 0.4893 0.41005 0.55649 0.0
O218 O 0.61542 0.4694 0.54097 0.0
O219 O 0.53578 0.6092 0.54978 0.0
O220 O 0.55112 0.65061 0.56557 0.0
O221 O 0.49149 0.41826 0.52515 0.0
O222 O 0.46133 0.35281 0.54275 0.0
C223 C 0.49215 0.48993 0.5772 0.0
C224 C 0.37514 0.50094 0.55556 0.0
C225 C 0.64402 0.51538 0.54779 0.0
C226 C 0.49853 0.47687 0.52661 0.0
C227 C 0.46362 0.35347 0.55215 0.0
C228 C 0.5587 0.65981 0.55598 0.0
O229 O 0.50193 0.50773 0.56759 0.0
O230 O 0.48062 0.5303 0.5826 0.0
O231 O 0.57619 0.95642 0.54883 0.0
Mn232 Mn 0.55905 0.03694 0.55119 0.0
O233 O 0.52948 0.89175 0.56287 0.0
Mn234 Mn 0.49788 0.94302 0.56942 0.0
O235 O 0.5374 0.11481 0.55418 0.0
O236 O 0.55661 0.04966 0.53534 0.0
Mn237 Mn 0.60489 0.14017 0.5364 0.0
O238 O 0.66298 0.09948 0.55301 0.0
O239 O 0.54208 0.16442 0.53931 0.0
O240 O 0.45354 0.9683 0.54959 0.0
O241 O 0.41334 0.92578 0.56501 0.0
O242 O 0.63635 0.12502 0.52494 0.0
O243 O 0.67956 0.18782 0.54415 0.0
C244 C 0.57652 0.03369 0.57649 0.0
C245 C 0.56069 0.90394 0.55431 0.0
C246 C 0.52399 0.15279 0.5486 0.0
C247 C 0.58799 0.06417 0.52645 0.0
C248 C 0.70041 0.16015 0.5502 0.0
C249 C 0.40363 0.93216 0.55561 0.0
O250 O 0.56095 0.02696 0.56676 0.0
O251 O 0.53506 0.98183 0.58185 0.0
O252 O 0.156 0.44553 0.38848 0.0
Mn253 Mn 0.1752 0.36786 0.38487 0.0
O254 O 0.15434 0.48943 0.37402 0.0
Mn255 Mn 0.21203 0.46198 0.36999 0.0
O256 O 0.19782 0.29101 0.38256 0.0
O257 O 0.16635 0.36019 0.40039 0.0
Mn258 Mn 0.14981 0.27782 0.40287 0.0
O259 O 0.07297 0.29533 0.38361 0.0
O260 O 0.22159 0.26958 0.39796 0.0
O261 O 0.27787 0.43321 0.38685 0.0
O262 O 0.30197 0.50599 0.37415 0.0
O263 O 0.14963 0.31524 0.41535 0.0
O264 O 0.06732 0.22438 0.39615 0.0
C265 C 0.18593 0.39668 0.35907 0.0
C266 C 0.14525 0.48601 0.38337 0.0
C267 C 0.22501 0.26617 0.38833 0.0
C268 C 0.15727 0.36639 0.41009 0.0
C269 C 0.04165 0.23901 0.38852 0.0
C270 C 0.32022 0.48432 0.38175 0.0
O271 O 0.18211 0.37428 0.36857 0.0
O272 O 0.19782 0.45696 0.35709 0.0
O273 O 0.6181 0.73816 0.38716 0.0
Mn274 Mn 0.69157 0.8395 0.38529 0.0
O275 O 0.5745 0.70022 0.37224 0.0
Mn276 Mn 0.5905 0.78631 0.37133 0.0
O277 O 0.76549 0.94191 0.38414 0.0
O278 O 0.69575 0.82621 0.40122 0.0
Mn279 Mn 0.78507 0.86864 0.4017 0.0
O280 O 0.76704 0.81412 0.38132 0.0
O281 O 0.83075 0.9586 0.39764 0.0
O282 O 0.62663 0.87535 0.38878 0.0
O283 O 0.53934 0.81016 0.37913 0.0
O284 O 0.76305 0.85484 0.41481 0.0
O285 O 0.80693 0.808 0.39635 0.0
C286 C 0.65036 0.84379 0.36044 0.0
C287 C 0.58288 0.68851 0.3813 0.0
C288 C 0.81563 0.98074 0.38979 0.0
C289 C 0.70225 0.82083 0.41121 0.0
C290 C 0.80676 0.80215 0.38677 0.0
C291 C 0.56759 0.85673 0.38555 0.0
O292 O 0.67899 0.84596 0.36937 0.0
O293 O 0.58548 0.81102 0.35909 0.0
O294 O 0.32909 0.93355 0.38402 0.0
Mn295 Mn 0.22487 0.89104 0.38421 0.0
O296 O 0.33045 0.84696 0.37728 0.0
Mn297 Mn 0.25816 0.82516 0.36912 0.0
O298 O 0.1182 0.85021 0.38358 0.0
O299 O 0.24447 0.90879 0.40046 0.0
Mn300 Mn 0.18494 0.93758 0.40061 0.0
O301 O 0.23946 0.98661 0.38043 0.0
O302 O 0.09506 0.88092 0.39816 0.0
O303 O 0.20638 0.7937 0.38772 0.0
O304 O 0.18797 0.74269 0.37273 0.0
O305 O 0.20122 0.93838 0.41362 0.0
O306 O 0.22203 0.02217 0.39522 0.0
C307 C 0.24653 0.89297 0.35995 0.0
C308 C 0.35984 0.9021 0.38184 0.0
C309 C 0.07543 0.85175 0.38969 0.0
C310 C 0.24444 0.92181 0.41045 0.0
C311 C 0.239 0.03239 0.38594 0.0
C312 C 0.18103 0.7395 0.38238 0.0
O313 O 0.21283 0.87071 0.36853 0.0
O314 O 0.29686 0.88348 0.35877 0.0
O315 O 0.63403 0.74267 0.79643 0.0
Mn316 Mn 0.7002 0.84667 0.79451 0.0
O317 O 0.55221 0.73184 0.78599 0.0
Mn318 Mn 0.60441 0.80406 0.77743 0.0
O319 O 0.76248 0.95094 0.79271 0.0
O320 O 0.70921 0.85575 0.81058 0.0
Mn321 Mn 0.79508 0.87759 0.80759 0.0
O322 O 0.77834 0.82696 0.79143 0.0
O323 O 0.8498 0.95312 0.79988 0.0
O324 O 0.61835 0.86553 0.79634 0.0
O325 O 0.59324 0.87597 0.78029 0.0
O326 O 0.80766 0.90789 0.8199 0.0
O327 O 0.80659 0.80498 0.80598 0.0
C328 C 0.68917 0.80087 0.77128 0.0
C329 C 0.57369 0.70865 0.79292 0.0
C330 C 0.82469 0.98313 0.79513 0.0
C331 C 0.74316 0.88393 0.81908 0.0
C332 C 0.80747 0.8013 0.79647 0.0
C333 C 0.58774 0.88315 0.78982 0.0
O334 O 0.69316 0.83917 0.77897 0.0
O335 O 0.63204 0.77508 0.7665 0.0
O336 O 0.31315 0.90994 0.79993 0.0
Mn337 Mn 0.21436 0.88982 0.79542 0.0
O338 O 0.36473 0.94747 0.78551 0.0
Mn339 Mn 0.29222 0.87576 0.77939 0.0
O340 O 0.11597 0.85753 0.79077 0.0
O341 O 0.19228 0.88244 0.81117 0.0
Mn342 Mn 0.15659 0.93597 0.80926 0.0
O343 O 0.24556 0.9918 0.79402 0.0
O344 O 0.0813 0.90754 0.80151 0.0
O345 O 0.18411 0.78749 0.79588 0.0
O346 O 0.25604 0.78741 0.78443 0.0
O347 O 0.12802 0.91025 0.82149 0.0
O348 O 0.22151 0.02432 0.80831 0.0
C349 C 0.24819 0.91469 0.76988 0.0
C350 C 0.36801 0.93469 0.79469 0.0
C351 C 0.071 0.86973 0.79401 0.0
C352 C 0.1656 0.88332 0.82015 0.0
C353 C 0.24994 0.03864 0.79974 0.0
C354 C 0.20994 0.75711 0.79113 0.0
O355 O 0.23495 0.90542 0.77975 0.0
O356 O 0.28192 0.88795 0.76615 0.0
O357 O 0.14438 0.43722 0.79595 0.0
Mn358 Mn 0.17394 0.36202 0.79473 0.0
O359 O 0.18519 0.48941 0.78087 0.0
Mn360 Mn 0.22442 0.44393 0.77547 0.0
O361 O 0.21238 0.29832 0.793 0.0
O362 O 0.18127 0.35673 0.81108 0.0
Mn363 Mn 0.11139 0.27587 0.80787 0.0
O364 O 0.07214 0.28303 0.79206 0.0
O365 O 0.12672 0.21407 0.80053 0.0
O366 O 0.27608 0.44068 0.79622 0.0
O367 O 0.31067 0.47539 0.7803 0.0
O368 O 0.12008 0.25815 0.8203 0.0
O369 O 0.03646 0.28506 0.80678 0.0
C370 C 0.14953 0.34981 0.76956 0.0
C371 C 0.15546 0.48406 0.78934 0.0
C372 C 0.18099 0.23686 0.79546 0.0
C373 C 0.16811 0.32025 0.81958 0.0
C374 C 0.02136 0.26564 0.79786 0.0
C375 C 0.32314 0.47638 0.78978 0.0
O376 O 0.1679 0.36188 0.77916 0.0
O377 O 0.18966 0.39806 0.76348 0.0
O378 O 0.32029 0.44433 0.29721 0.0
Mn379 Mn 0.22424 0.36315 0.29439 0.0
O380 O 0.34741 0.4997 0.28239 0.0
Mn381 Mn 0.26164 0.44941 0.27693 0.0
O382 O 0.12512 0.28335 0.29126 0.0
O383 O 0.21135 0.3584 0.31033 0.0
Mn384 Mn 0.16199 0.26892 0.30821 0.0
O385 O 0.2708 0.30502 0.29444 0.0
O386 O 0.07771 0.25518 0.30638 0.0
O387 O 0.18229 0.42801 0.29528 0.0
O388 O 0.20053 0.47679 0.28023 0.0
O389 O 0.20255 0.27182 0.31973 0.0
O390 O 0.18176 0.21623 0.30002 0.0
C391 C 0.24595 0.3674 0.2682 0.0
C392 C 0.36272 0.49115 0.29138 0.0
C393 C 0.07168 0.25726 0.29684 0.0
C394 C 0.22096 0.33481 0.31899 0.0
C395 C 0.2391 0.24239 0.29607 0.0
C396 C 0.17605 0.46801 0.28912 0.0
O397 O 0.23787 0.3629 0.27831 0.0
O398 O 0.25687 0.42318 0.26401 0.0
O399 O 0.63041 0.92587 0.29749 0.0
Mn400 Mn 0.6992 0.8916 0.2947 0.0
O401 O 0.55732 0.86827 0.28496 0.0
Mn402 Mn 0.61172 0.84161 0.27806 0.0
O403 O 0.75917 0.84999 0.29115 0.0
O404 O 0.70508 0.88202 0.31087 0.0
Mn405 Mn 0.79422 0.93184 0.30964 0.0
O406 O 0.77953 0.99026 0.29335 0.0
O407 O 0.83939 0.89872 0.30263 0.0
O408 O 0.62004 0.79196 0.29622 0.0
O409 O 0.59725 0.75595 0.2806 0.0
O410 O 0.79465 0.90686 0.32187 0.0
O411 O 0.82 0.02028 0.30871 0.0
C412 C 0.69047 0.91056 0.26875 0.0
C413 C 0.57385 0.90615 0.29283 0.0
C414 C 0.81386 0.86026 0.29516 0.0
C415 C 0.73066 0.88163 0.32003 0.0
C416 C 0.81719 0.03593 0.29965 0.0
C417 C 0.5958 0.74298 0.28996 0.0
O418 O 0.69844 0.90716 0.27873 0.0
O419 O 0.63161 0.86796 0.2651 0.0
O420 O 0.14982 0.74483 0.29842 0.0
Mn421 Mn 0.16822 0.84459 0.29519 0.0
O422 O 0.15622 0.70581 0.28326 0.0
Mn423 Mn 0.20676 0.79194 0.27841 0.0
O424 O 0.19208 0.94623 0.29311 0.0
O425 O 0.17804 0.86276 0.31081 0.0
Mn426 Mn 0.11611 0.88718 0.31329 0.0
O427 O 0.06471 0.80858 0.29435 0.0
O428 O 0.17111 0.97384 0.30871 0.0
O429 O 0.27366 0.88194 0.29597 0.0
O430 O 0.29718 0.83968 0.28247 0.0
O431 O 0.09623 0.81716 0.32181 0.0
O432 O 0.03726 0.85384 0.30703 0.0
C433 C 0.15034 0.81623 0.26888 0.0
C434 C 0.14327 0.69616 0.29269 0.0
C435 C 0.1979 0.9903 0.29985 0.0
C436 C 0.15483 0.82876 0.31924 0.0
C437 C 0.02207 0.81786 0.29931 0.0
C438 C 0.31627 0.87528 0.29048 0.0
O439 O 0.15288 0.8278 0.27895 0.0
O440 O 0.19223 0.79868 0.26531 0.0
O441 O 0.77155 0.98877 0.88238 0.0
Mn442 Mn 0.69351 0.89071 0.8846 0.0
O443 O 0.83976 -0.00093 0.89544 0.0
Mn444 Mn 0.78208 0.91629 0.90156 0.0
O445 O 0.61519 0.79007 0.88802 0.0
O446 O 0.68915 0.88559 0.8684 0.0
Mn447 Mn 0.60525 0.82051 0.87034 0.0
O448 O 0.62761 0.9267 0.88562 0.0
O449 O 0.60763 0.74433 0.87346 0.0
O450 O 0.76338 0.85586 0.88265 0.0
O451 O 0.79544 0.84573 0.89795 0.0
O452 O 0.59822 0.82703 0.85743 0.0
O453 O 0.54744 0.84311 0.87687 0.0
C454 C 0.70353 0.91294 0.91054 0.0
C455 C 0.82622 0.02228 0.88748 0.0
C456 C 0.59728 0.73662 0.8828 0.0
C457 C 0.66174 0.86928 0.85916 0.0
C458 C 0.56706 0.89399 0.88257 0.0
C459 C 0.79366 0.83475 0.8885 0.0
O460 O 0.69858 0.90454 0.90051 0.0
O461 O 0.75703 0.91658 0.91455 0.0
O462 O 0.07293 0.80923 0.88208 0.0
Mn463 Mn 0.17495 0.83877 0.88541 0.0
O464 O 0.05325 0.86187 0.89499 0.0
Mn465 Mn 0.13339 0.8897 0.90203 0.0
O466 O 0.27586 0.87514 0.88986 0.0
O467 O 0.19479 0.84825 0.86949 0.0
Mn468 Mn 0.24012 0.80416 0.87051 0.0
O469 O 0.15119 0.73737 0.88636 0.0
O470 O 0.31837 0.84109 0.87769 0.0
O471 O 0.19978 0.94068 0.88374 0.0
O472 O 0.20147 0.97703 0.89926 0.0
O473 O 0.2619 0.83033 0.85812 0.0
O474 O 0.18115 0.71436 0.87159 0.0
C475 C 0.14197 0.81858 0.91119 0.0
C476 C 0.03481 0.82741 0.88678 0.0
C477 C 0.32516 0.87227 0.88586 0.0
C478 C 0.21947 0.85075 0.86018 0.0
C479 C 0.1516 0.69483 0.88005 0.0
C480 C 0.21646 0.98952 0.88994 0.0
O481 O 0.15491 0.8245 0.90124 0.0
O482 O 0.12657 0.86143 0.91496 0.0
O483 O 0.26119 0.29984 0.88353 0.0
Mn484 Mn 0.22135 0.36352 0.88572 0.0
O485 O 0.19663 0.22436 0.89538 0.0
Mn486 Mn 0.17165 0.27984 0.90232 0.0
O487 O 0.17433 0.42044 0.88819 0.0
O488 O 0.20807 0.36155 0.86932 0.0
Mn489 Mn 0.27354 0.4449 0.87174 0.0
O490 O 0.31819 0.4491 0.88788 0.0
O491 O 0.24635 0.4994 0.87806 0.0
O492 O 0.12451 0.27992 0.8839 0.0
O493 O 0.08616 0.2653 0.89939 0.0
O494 O 0.26432 0.45605 0.85907 0.0
O495 O 0.3576 0.45429 0.87311 0.0
C496 C 0.24185 0.35803 0.91168 0.0
C497 C 0.23717 0.24176 0.88781 0.0
C498 C 0.1976 0.47829 0.88422 0.0
C499 C 0.21978 0.3931 0.86036 0.0
C500 C 0.36989 0.47098 0.88218 0.0
C501 C 0.07447 0.25759 0.88996 0.0
O502 O 0.23889 0.36605 0.90169 0.0
O503 O 0.198 0.29967 0.91533 0.0
O504 O 0.81856 0.78075 0.71926 0.0
Mn505 Mn 0.83814 0.70067 0.71847 0.0
O506 O 0.82042 0.81314 0.70364 0.0
Mn507 Mn 0.88928 0.79568 0.70419 0.0
O508 O 0.85696 0.61972 0.71748 0.0
O509 O 0.82208 0.70353 0.73445 0.0
Mn510 Mn 0.79955 0.61809 0.73618 0.0
O511 O 0.73477 0.62981 0.71596 0.0
O512 O 0.86893 0.60137 0.73349 0.0
O513 O 0.94049 0.75979 0.72154 0.0
O514 O 0.95961 0.84846 0.71281 0.0
O515 O 0.79537 0.6434 0.7489 0.0
O516 O 0.71822 0.56344 0.72958 0.0
C517 C 0.88758 0.73529 0.69367 0.0
C518 C 0.80356 0.81251 0.71272 0.0
C519 C 0.87633 0.59273 0.72418 0.0
C520 C 0.81131 0.70005 0.74448 0.0
C521 C 0.69792 0.57553 0.7212 0.0
C522 C 0.97908 0.82068 0.7191 0.0
O523 O 0.85521 0.70662 0.70236 0.0
O524 O 0.92705 0.79971 0.69263 0.0
O525 O 0.2918 0.06272 0.71751 0.0
Mn526 Mn 0.35514 0.16729 0.71736 0.0
O527 O 0.20735 0.04719 0.70762 0.0
Mn528 Mn 0.25925 0.11985 0.69989 0.0
O529 O 0.42204 0.27281 0.7175 0.0
O530 O 0.35573 0.15269 0.73335 0.0
Mn531 Mn 0.44456 0.19541 0.73484 0.0
O532 O 0.44017 0.15463 0.71425 0.0
O533 O 0.49353 0.28449 0.72995 0.0
O534 O 0.27469 0.1877 0.71944 0.0
O535 O 0.23808 0.1841 0.70338 0.0
O536 O 0.41497 0.17955 0.74784 0.0
O537 O 0.46488 0.13338 0.72947 0.0
C538 C 0.35355 0.15007 0.69351 0.0
C539 C 0.23277 0.02547 0.7139 0.0
C540 C 0.47654 0.30916 0.72257 0.0
C541 C 0.35689 0.14423 0.74339 0.0
C542 C 0.47376 0.13606 0.71994 0.0
C543 C 0.24371 0.20345 0.71263 0.0
O544 O 0.34799 0.17776 0.70183 0.0
O545 O 0.3044 0.09123 0.69168 0.0
O546 O -0.00387 0.26856 0.71745 0.0
Mn547 Mn 0.89196 0.22039 0.71787 0.0
O548 O -0.00514 0.17823 0.71213 0.0
Mn549 Mn 0.91896 0.15675 0.70441 0.0
O550 O 0.78499 0.17402 0.71742 0.0
O551 O 0.91231 0.23147 0.73407 0.0
Mn552 Mn 0.86337 0.27097 0.73435 0.0
O553 O 0.89924 0.31578 0.71499 0.0
O554 O 0.77546 0.23125 0.72997 0.0
O555 O 0.87556 0.12249 0.72115 0.0
O556 O 0.84696 0.07389 0.70635 0.0
O557 O 0.86352 0.25362 0.74741 0.0
O558 O 0.92189 0.3577 0.73032 0.0
C559 C 0.91201 0.20923 0.69302 0.0
C560 C 0.02619 0.23569 0.71608 0.0
C561 C 0.74917 0.19178 0.72255 0.0
C562 C 0.90832 0.23942 0.74411 0.0
C563 C 0.91734 0.3663 0.72095 0.0
C564 C 0.84173 0.06884 0.71586 0.0
O565 O 0.88416 0.21055 0.70184 0.0
O566 O 0.94906 0.18148 0.69211 0.0
O567 O 0.28763 0.07552 0.13047 0.0
Mn568 Mn 0.36597 0.17381 0.12872 0.0
O569 O 0.22334 0.06154 0.11661 0.0
Mn570 Mn 0.27735 0.14539 0.11051 0.0
O571 O 0.4436 0.27629 0.12667 0.0
O572 O 0.37118 0.18224 0.14458 0.0
Mn573 Mn 0.46172 0.23113 0.14436 0.0
O574 O 0.43205 0.13692 0.12752 0.0
O575 O 0.461 0.30971 0.14271 0.0
O576 O 0.29577 0.20764 0.13019 0.0
O577 O 0.26002 0.21247 0.11469 0.0
O578 O 0.4425 0.1663 0.15376 0.0
O579 O 0.51686 0.22361 0.13485 0.0
C580 C 0.36507 0.15582 0.10304 0.0
C581 C 0.23539 0.04025 0.12493 0.0
C582 C 0.46766 0.32431 0.13329 0.0
C583 C 0.38319 0.15866 0.15294 0.0
C584 C 0.4948 0.17276 0.1292 0.0
C585 C 0.26318 0.22514 0.12415 0.0
O586 O 0.36131 0.16372 0.11294 0.0
O587 O 0.31312 0.14827 0.09796 0.0
O588 O 0.98729 0.25212 0.13128 0.0
Mn589 Mn 0.88576 0.22263 0.12783 0.0
O590 O 0.01694 0.21383 0.11743 0.0
Mn591 Mn 0.93729 0.17903 0.11024 0.0
O592 O 0.78511 0.18494 0.12315 0.0
O593 O 0.86676 0.21314 0.14396 0.0
Mn594 Mn 0.82887 0.26312 0.142 0.0
O595 O 0.90863 0.3235 0.12604 0.0
O596 O 0.74818 0.22501 0.1351 0.0
O597 O 0.86302 0.12199 0.12918 0.0
O598 O 0.87413 0.0912 0.11358 0.0
O599 O 0.80274 0.24174 0.15435 0.0
O600 O 0.89745 0.35136 0.14134 0.0
C601 C 0.91868 0.25004 0.10285 0.0
C602 C 0.02953 0.24104 0.12624 0.0
C603 C 0.73805 0.19162 0.1271 0.0
C604 C 0.84071 0.21529 0.15299 0.0
C605 C 0.91725 0.36934 0.13237 0.0
C606 C 0.85565 0.07654 0.12282 0.0
O607 O 0.90682 0.23469 0.11254 0.0
O608 O 0.93908 0.21475 0.09782 0.0
O609 O 0.80752 0.76615 0.12914 0.0
Mn610 Mn 0.84028 0.69616 0.12715 0.0
O611 O 0.84948 0.82674 0.11472 0.0
Mn612 Mn 0.88862 0.78055 0.10898 0.0
O613 O 0.88117 0.63457 0.12504 0.0
O614 O 0.85284 0.69738 0.14371 0.0
Mn615 Mn 0.77944 0.62142 0.14038 0.0
O616 O 0.74072 0.61365 0.12438 0.0
O617 O 0.79869 0.55972 0.13427 0.0
O618 O 0.93939 0.77611 0.12887 0.0
O619 O 0.97553 0.80764 0.1131 0.0
O620 O 0.7795 0.60452 0.15319 0.0
O621 O 0.70149 0.62485 0.13818 0.0
C622 C 0.82008 0.69318 0.10135 0.0
C623 C 0.82193 0.81782 0.12353 0.0
C624 C 0.84902 0.5755 0.12856 0.0
C625 C 0.83375 0.66213 0.15237 0.0
C626 C 0.68836 0.59794 0.12966 0.0
C627 C 0.98733 0.80832 0.12254 0.0
O628 O 0.82929 0.69553 0.11133 0.0
O629 O 0.86393 0.74595 0.09634 0.0
O630 O 0.98548 0.7694 0.63158 0.0
Mn631 Mn 0.88422 0.6935 0.62784 0.0
O632 O 0.02871 0.81569 0.61654 0.0
Mn633 Mn 0.94537 0.78904 0.61114 0.0
O634 O 0.78256 0.62916 0.62455 0.0
O635 O 0.86548 0.68112 0.64387 0.0
Mn636 Mn 0.8399 0.5943 0.64138 0.0
O637 O 0.91205 0.61813 0.62601 0.0
O638 O 0.77033 0.54067 0.63265 0.0
O639 O 0.85537 0.76751 0.62914 0.0
O640 O 0.89839 0.83122 0.61532 0.0
O641 O 0.8045 0.58433 0.65336 0.0
O642 O 0.9127 0.58295 0.64136 0.0
C643 C 0.91366 0.70644 0.6019 0.0
C644 C 0.03515 0.8129 0.62607 0.0
C645 C 0.74597 0.56803 0.62712 0.0
C646 C 0.83667 0.6494 0.65257 0.0
C647 C 0.92866 0.58543 0.63219 0.0
C648 C 0.86354 0.81641 0.62344 0.0
O649 O 0.90211 0.70034 0.6119 0.0
O650 O 0.93744 0.76624 0.59805 0.0
O651 O 0.28681 0.2465 0.63121 0.0
Mn652 Mn 0.36519 0.22664 0.62862 0.0
O653 O 0.22171 0.19524 0.61759 0.0
Mn654 Mn 0.28017 0.17174 0.61137 0.0
O655 O 0.44055 0.20116 0.62556 0.0
O656 O 0.37289 0.21719 0.64437 0.0
Mn657 Mn 0.46402 0.25838 0.64312 0.0
O658 O 0.42998 0.33026 0.62858 0.0
O659 O 0.47362 0.18544 0.64069 0.0
O660 O 0.2946 0.12198 0.62987 0.0
O661 O 0.26465 0.08629 0.61427 0.0
O662 O 0.4504 0.30228 0.65334 0.0
O663 O 0.51738 0.32667 0.63437 0.0
C664 C 0.35873 0.24552 0.60245 0.0
C665 C 0.23321 0.22811 0.62591 0.0
C666 C 0.46693 0.17418 0.63116 0.0
C667 C 0.38951 0.25299 0.65279 0.0
C668 C 0.49263 0.3591 0.63041 0.0
C669 C 0.2636 0.07321 0.62364 0.0
O670 O 0.36465 0.24189 0.61252 0.0
O671 O 0.30331 0.19846 0.59844 0.0
O672 O 0.80181 0.07109 0.62942 0.0
Mn673 Mn 0.83514 0.17423 0.62758 0.0
O674 O 0.87054 0.06612 0.61753 0.0
Mn675 Mn 0.89603 0.14731 0.61082 0.0
O676 O 0.87661 0.27722 0.6253 0.0
O677 O 0.83727 0.18697 0.64378 0.0
Mn678 Mn 0.77744 0.2147 0.64189 0.0
O679 O 0.7377 0.15573 0.62431 0.0
O680 O 0.81585 0.2995 0.63614 0.0
O681 O 0.93542 0.1945 0.63018 0.0
O682 O 0.97662 0.22078 0.61476 0.0
O683 O 0.78278 0.22291 0.65489 0.0
O684 O 0.69194 0.14889 0.63899 0.0
C685 C 0.82207 0.15131 0.60166 0.0
C686 C 0.82761 0.03941 0.62481 0.0
C687 C 0.86269 0.3186 0.6296 0.0
C688 C 0.82543 0.2025 0.65308 0.0
C689 C 0.68515 0.13778 0.62966 0.0
C690 C 0.98667 0.22344 0.62425 0.0
O691 O 0.82568 0.16001 0.61167 0.0
O692 O 0.87015 0.14422 0.59772 0.0
O693 O 0.4379 0.32113 0.21612 0.0
Mn694 Mn 0.36092 0.22066 0.21803 0.0
O695 O 0.50508 0.33851 0.22978 0.0
Mn696 Mn 0.45542 0.25479 0.23629 0.0
O697 O 0.28584 0.1184 0.21965 0.0
O698 O 0.34882 0.20949 0.20214 0.0
Mn699 Mn 0.26123 0.18624 0.20222 0.0
O700 O 0.29205 0.25233 0.22146 0.0
O701 O 0.22232 0.09596 0.20545 0.0
O702 O 0.43467 0.19018 0.21601 0.0
O703 O 0.47438 0.18957 0.23161 0.0
O704 O 0.29291 0.23564 0.19094 0.0
O705 O 0.22427 0.22986 0.20849 0.0
C706 C 0.36137 0.23828 0.24317 0.0
C707 C 0.49126 0.35828 0.22143 0.0
C708 C 0.23918 0.07683 0.21356 0.0
C709 C 0.34618 0.23269 0.19306 0.0
C710 C 0.24399 0.25492 0.21708 0.0
C711 C 0.47016 0.17591 0.22213 0.0
O712 O 0.37039 0.22942 0.23355 0.0
O713 O 0.41356 0.25054 0.24861 0.0
O714 O 0.7424 0.14059 0.21608 0.0
Mn715 Mn 0.84533 0.17483 0.21876 0.0
O716 O 0.7162 0.18194 0.22999 0.0
Mn717 Mn 0.797 0.21718 0.23731 0.0
O718 O 0.94684 0.21712 0.22255 0.0
O719 O 0.86278 0.1849 0.20268 0.0
Mn720 Mn 0.90141 0.13435 0.20415 0.0
O721 O 0.82711 0.07625 0.2202 0.0
O722 O 0.97768 0.16356 0.21193 0.0
O723 O 0.86314 0.27315 0.21782 0.0
O724 O 0.86216 0.30397 0.23387 0.0
O725 O 0.92954 0.1621 0.19198 0.0
O726 O 0.83488 0.04653 0.20473 0.0
C727 C 0.8188 0.14461 0.2437 0.0
C728 C 0.70082 0.15114 0.22139 0.0
C729 C 0.99037 0.20288 0.2193 0.0
C730 C 0.88996 0.18651 0.19359 0.0
C731 C 0.81705 0.03032 0.21382 0.0
C732 C 0.87548 0.31852 0.22449 0.0
O733 O 0.82828 0.16368 0.23415 0.0
O734 O 0.79971 0.17804 0.24941 0.0
O735 O 0.90123 0.61492 0.21414 0.0
Mn736 Mn 0.89166 0.69925 0.21743 0.0
O737 O 0.90216 0.57533 0.22966 0.0
Mn738 Mn 0.85067 0.60708 0.23555 0.0
O739 O 0.87464 0.77981 0.2215 0.0
O740 O 0.88223 0.70605 0.20172 0.0
Mn741 Mn 0.91811 0.79447 0.2042 0.0
O742 O -0.00355 0.75856 0.21743 0.0
O743 O 0.84689 0.80602 0.20699 0.0
O744 O 0.78625 0.63575 0.21719 0.0
O745 O 0.76116 0.57251 0.23127 0.0
O746 O 0.95134 0.79637 0.1921 0.0
O747 O -0.00614 0.8465 0.21185 0.0
C748 C 0.91766 0.69765 0.24243 0.0
C749 C 0.90877 0.57459 0.22005 0.0
C750 C 0.84453 0.80579 0.2166 0.0
C751 C 0.91344 0.73182 0.19303 0.0
C752 C 0.02548 0.8215 0.21598 0.0
C753 C 0.74349 0.58865 0.223 0.0
O754 O 0.90203 0.69247 0.23276 0.0
O755 O 0.88039 0.64479 0.24797 0.0
C756 C 0.36726 0.06124 0.09446 0.0
C757 C 0.40502 0.12797 0.09799 0.0
C758 C 0.39278 0.03474 0.08721 0.0
C759 C 0.45851 0.07246 0.08314 0.0
H760 H 0.31561 0.02945 0.09704 0.0
H761 H 0.36045 0.98284 0.08486 0.0
S762 S 0.5825 0.24739 0.09064 0.0
N763 N 0.51348 0.2315 0.097 0.0
N764 N 0.56437 0.1785 0.08417 0.0
C765 C 0.4989 0.13841 0.08695 0.0
C766 C 0.47155 0.1668 0.09415 0.0
C767 C 0.95825 0.37481 0.10081 0.0
C768 C 0.91961 0.308 0.09734 0.0
C769 C 0.98856 0.42946 0.09381 0.0
C770 C 0.9849 0.41979 0.08305 0.0
H771 H 0.97135 0.38464 0.1088 0.0
H772 H 0.0213 0.47929 0.09691 0.0
S773 S 0.88661 0.25189 0.07078 0.0
N774 N 0.86885 0.23592 0.08291 0.0
N775 N 0.93747 0.33432 0.06985 0.0
C776 C 0.9418 0.35316 0.0797 0.0
C777 C 0.906 0.29887 0.08686 0.0
C778 C 0.66662 0.55758 0.08609 0.0
C779 C 0.64167 0.59729 0.08164 0.0
C780 C 0.72256 0.58613 0.09302 0.0
C781 C 0.75268 0.65431 0.09615 0.0
H782 H 0.64258 0.50438 0.0843 0.0
H783 H 0.74251 0.55511 0.09583 0.0
S784 S 0.70313 0.77768 0.0874 0.0
N785 N 0.65254 0.70813 0.08109 0.0
N786 N 0.75027 0.75848 0.09458 0.0
C787 C 0.72596 0.69272 0.09202 0.0
C788 C 0.67274 0.66528 0.08468 0.0
C789 C 0.03389 0.39723 0.42489 0.0
C790 C 0.07148 0.46313 0.42886 0.0
C791 C 0.06126 0.37052 0.41799 0.0
C792 C 0.12866 0.40728 0.41464 0.0
H793 H 0.98154 0.36524 0.42714 0.0
H794 H 0.02959 0.31869 0.41558 0.0
S795 S 0.24722 0.58693 0.42095 0.0
N796 N 0.17833 0.56883 0.42757 0.0
N797 N 0.23148 0.51688 0.41499 0.0
C798 C 0.16704 0.4747 0.4181 0.0
C799 C 0.13822 0.50293 0.4251 0.0
C800 C 0.57043 0.64531 0.42113 0.0
C801 C 0.59174 0.64742 0.43138 0.0
C802 C 0.59972 0.70315 0.41468 0.0
C803 C 0.65103 0.76635 0.41825 0.0
H804 H 0.53468 0.59717 0.4178 0.0
H805 H 0.58609 0.69677 0.40669 0.0
S806 S 0.72289 0.80116 0.44445 0.0
N807 N 0.66864 0.71943 0.44445 0.0
N808 N 0.71488 0.82835 0.43319 0.0
C809 C 0.66677 0.77021 0.42879 0.0
C810 C 0.63988 0.71101 0.43512 0.0
C811 C 0.35009 0.91674 0.41625 0.0
C812 C 0.29781 0.93062 0.41826 0.0
C813 C 0.40599 0.93761 0.423 0.0
C814 C 0.41107 0.97196 0.43224 0.0
H815 H 0.34922 0.89321 0.40916 0.0
H816 H 0.44789 0.93133 0.42059 0.0
S817 S 0.28723 0.01881 0.44161 0.0
N818 N 0.25475 0.97887 0.43082 0.0
N819 N 0.35763 0.0166 0.44312 0.0
C820 C 0.35675 0.98136 0.43471 0.0
C821 C 0.30091 0.96125 0.42786 0.0
C822 C 0.56251 0.94099 0.9227 0.0
C823 C 0.59728 0.98568 0.9309 0.0
C824 C 0.5948 0.91576 0.91609 0.0
C825 C 0.66405 0.93601 0.91721 0.0
H826 H 0.51069 0.92748 0.92112 0.0
H827 H 0.56587 0.88161 0.90998 0.0
S828 S 0.77893 0.0577 0.93665 0.0
N829 N 0.70483 0.04984 0.93934 0.0
N830 N 0.76598 0.00785 0.92688 0.0
C831 C 0.69849 0.98103 0.92534 0.0
C832 C 0.66527 0.00431 0.93216 0.0
C833 C 0.10767 0.76013 0.92824 0.0
C834 C 0.13308 0.76164 0.91827 0.0
C835 C 0.08402 0.70387 0.93476 0.0
C836 C 0.0853 0.6459 0.93179 0.0
H837 H 0.10133 0.8013 0.93092 0.0
H838 H 0.05874 0.70364 0.94178 0.0
S839 S 0.16914 0.63008 0.90875 0.0
N840 N 0.17384 0.70403 0.90716 0.0
N841 N 0.12853 0.5984 0.91955 0.0
C842 C 0.11823 0.64917 0.92255 0.0
C843 C 0.14243 0.70672 0.91578 0.0
C844 C 0.35941 0.41206 0.93496 0.0
C845 C 0.41739 0.47184 0.93195 0.0
C846 C 0.30181 0.38016 0.92864 0.0
C847 C 0.29916 0.4051 0.91881 0.0
H848 H 0.36053 0.38624 0.94182 0.0
H849 H 0.26065 0.33237 0.93129 0.0
S850 S 0.42761 0.57578 0.90967 0.0
N851 N 0.46187 0.56503 0.92007 0.0
N852 N 0.35418 0.50564 0.90809 0.0
C853 C 0.35364 0.46995 0.91639 0.0
C854 C 0.41235 0.50276 0.92296 0.0
C855 C 0.94147 0.61331 0.59918 0.0
C856 C 0.9203 0.65654 0.59517 0.0
C857 C 0.96768 0.58157 0.5929 0.0
C858 C 0.97967 0.59606 0.58235 0.0
H859 H 0.9456 0.6104 0.60733 0.0
H860 H 0.98612 0.55146 0.59657 0.0
S861 S 0.94523 0.71636 0.5683 0.0
N862 N 0.91351 0.71209 0.57976 0.0
N863 N 0.97553 0.66438 0.56856 0.0
C864 C 0.95943 0.63981 0.57822 0.0
C865 C 0.92725 0.66736 0.58446 0.0
C866 C 0.39653 0.37634 0.58143 0.0
C867 C 0.46673 0.42005 0.58142 0.0
C868 C 0.36472 0.32188 0.58829 0.0
C869 C 0.40073 0.30654 0.59561 0.0
H870 H 0.36496 0.38702 0.57652 0.0
H871 H 0.31003 0.29244 0.58801 0.0
S872 S 0.58878 0.39371 0.59665 0.0
N873 N 0.57342 0.43815 0.58821 0.0
N874 N 0.51409 0.33288 0.60068 0.0
C875 C 0.47218 0.34626 0.59508 0.0
C876 C 0.50479 0.40339 0.58813 0.0
C877 C 0.74603 0.07936 0.58762 0.0
C878 C 0.75978 0.12963 0.59502 0.0
C879 C 0.69099 0.05513 0.58085 0.0
C880 C 0.6453 0.07911 0.58099 0.0
H881 H 0.77732 0.05625 0.5872 0.0
H882 H 0.68169 0.01369 0.57586 0.0
S883 S 0.66092 0.21775 0.59753 0.0
N884 N 0.7252 0.20831 0.60115 0.0
N885 N 0.62008 0.16064 0.58861 0.0
C886 C 0.65886 0.13122 0.58804 0.0
C887 C 0.71611 0.15688 0.59499 0.0
C888 C 0.81218 0.74704 0.76183 0.0
C889 C 0.80664 0.75177 0.75111 0.0
C890 C 0.78067 0.76976 0.76882 0.0
C891 C 0.74756 0.80404 0.7655 0.0
H892 H 0.8336 0.71777 0.76486 0.0
H893 H 0.77549 0.75304 0.77662 0.0
S894 S 0.7284 0.84167 0.73894 0.0
N895 N 0.7686 0.79888 0.73786 0.0
N896 N 0.72085 0.85141 0.75116 0.0
C897 C 0.75153 0.81873 0.75505 0.0
C898 C 0.77848 0.79086 0.74782 0.0
C899 C 0.27192 0.03489 0.76691 0.0
C900 C 0.2472 0.96854 0.76332 0.0
C901 C 0.29915 0.091 0.76013 0.0
C902 C 0.3048 0.08408 0.74945 0.0
H903 H 0.27672 0.04453 0.77504 0.0
H904 H 0.32203 0.14105 0.76342 0.0
S905 S 0.25375 0.92099 0.7366 0.0
N906 N 0.22744 0.89935 0.74842 0.0
N907 N 0.2879 0.0038 0.73613 0.0
C908 C 0.27826 0.01764 0.74585 0.0
C909 C 0.24696 0.96056 0.75265 0.0
C910 C 0.00252 0.22534 0.75285 0.0
C911 C 0.96702 0.26041 0.75138 0.0
C912 C 0.05749 0.24901 0.75989 0.0
C913 C 0.07818 0.30763 0.76584 0.0
H914 H 0.98826 0.18 0.74851 0.0
H915 H 0.08549 0.22261 0.76048 0.0
S916 S -0.00202 0.41386 0.76574 0.0
N917 N 0.95596 0.35583 0.75706 0.0
N918 N 0.05415 0.39579 0.77036 0.0
C919 C 0.03981 0.33968 0.76493 0.0
C920 C 0.986 0.31746 0.75768 0.0
C921 C 0.32848 0.36443 0.25625 0.0
C922 C 0.26761 0.32683 0.26174 0.0
C923 C 0.35234 0.33505 0.24922 0.0
C924 C 0.31796 0.26546 0.24729 0.0
H925 H 0.35936 0.41826 0.25749 0.0
H926 H 0.40126 0.36717 0.24572 0.0
S927 S 0.14761 0.14433 0.25776 0.0
N928 N 0.16644 0.21651 0.2633 0.0
N929 N 0.21351 0.15974 0.25053 0.0
C930 C 0.25442 0.22668 0.25223 0.0
C931 C 0.22885 0.25753 0.25933 0.0
C932 C 0.71511 0.96553 0.25147 0.0
C933 C 0.73911 0.96524 0.26146 0.0
C934 C 0.74825 0.0208 0.24481 0.0
C935 C 0.80774 0.07899 0.24771 0.0
H936 H 0.66704 0.92445 0.2489 0.0
H937 H 0.72295 0.0206 0.2378 0.0
S938 S 0.90905 0.0951 0.27065 0.0
N939 N 0.8386 0.0221 0.2724 0.0
N940 N 0.90001 0.12638 0.2598 0.0
C941 C 0.83805 0.07616 0.25692 0.0
C942 C 0.80421 0.01945 0.26381 0.0
C943 C 0.04393 0.75921 0.24436 0.0
C944 C 0.9811 0.75118 0.24713 0.0
C945 C 0.09931 0.78785 0.25117 0.0
C946 C 0.09382 0.80526 0.26145 0.0
H947 H 0.04943 0.73971 0.23711 0.0
H948 H 0.14574 0.7912 0.24849 0.0
S949 S 0.93356 0.78395 0.27193 0.0
N950 N 0.91511 0.76303 0.26003 0.0
N951 N 0.0143 0.8072 0.2736 0.0
C952 C 0.03034 0.79786 0.26407 0.0
C953 C 0.97571 0.77313 0.25676 0.0
C954 C 0.54132 0.10025 0.01159 0.0
C955 C 0.5187 0.03877 0.01694 0.0
C956 C 0.55224 0.10602 1.0011 0.0
C957 C 0.54534 0.05235 0.99519 0.0
H958 H 0.547 0.14461 0.01544 0.0
H959 H 0.56473 0.15362 0.99752 0.0
S960 S 0.51619 0.88833 1.00598 0.0
N961 N 0.50668 0.92746 0.0159 0.0
N962 N 0.53387 0.9399 0.99617 0.0
C963 C 0.53256 0.99271 1.00056 0.0
C964 C 0.51853 0.98596 0.01143 0.0
C965 C 0.01694 0.58041 1.00098 0.0
C966 C 0.03637 0.54033 0.99556 0.0
C967 C 0.01462 0.57846 0.01163 0.0
C968 C 0.03045 0.5355 0.01717 0.0
H969 H 0.00782 0.61662 0.99701 0.0
H970 H -0.00394 0.60762 0.01557 0.0
S971 S 0.08629 0.42198 0.00641 0.0
N972 N 0.0725 0.45699 0.99635 0.0
N973 N 0.06812 0.45354 0.01648 0.0
C974 C 0.05041 0.49552 0.01182 0.0
C975 C 0.05152 0.4965 1.00099 0.0
C976 C 0.56833 0.59446 0.01006 0.0
C977 C 0.5451 0.53705 0.01616 0.0
C978 C 0.55913 0.5885 0.99952 0.0
C979 C 0.52554 0.52511 0.99477 0.0
H980 H 0.59672 0.64426 0.01339 0.0
H981 H 0.57444 0.63386 0.99507 0.0
S982 S 0.46206 0.35916 0.00742 0.0
N983 N 0.49023 0.4146 0.01682 0.0
N984 N 0.4747 0.40353 0.99684 0.0
C985 C 0.50371 0.467 1.00075 0.0
C986 C 0.51159 0.47297 0.01151 0.0
C987 C 0.02488 0.57177 0.51183 0.0
C988 C 0.02611 0.51955 0.51731 0.0
C989 C 0.02747 0.57368 0.50116 0.0
C990 C 0.03214 0.52382 0.49559 0.0
H991 H 0.01864 0.60976 0.51583 0.0
H992 H 0.03064 0.61697 0.49727 0.0
S993 S 0.03813 0.37731 0.50636 0.0
N994 N 0.03106 0.41656 0.51646 0.0
N995 N 0.03877 0.42145 0.49633 0.0
C996 C 0.03227 0.47088 0.50099 0.0
C997 C 0.02953 0.46893 0.51186 0.0
C998 C 0.4915 0.5492 0.50146 0.0
C999 C 0.54501 0.54816 0.49606 0.0
C1000 C 0.48091 0.53453 0.5119 0.0
C1001 C 0.52259 0.5168 0.51725 0.0
H1002 H 0.45932 0.56455 0.49763 0.0
H1003 H 0.43853 0.53435 0.51566 0.0
S1004 S 0.65233 0.48303 0.5061 0.0
N1005 N 0.62805 0.512 0.4964 0.0
N1006 N 0.61063 0.48683 0.51611 0.0
C1007 C 0.57344 0.51172 0.5118 0.0
C1008 C 0.58309 0.52524 0.50115 0.0
C1009 C 0.55116 0.99131 0.51111 0.0
C1010 C 0.5482 0.04045 0.51703 0.0
C1011 C 0.53613 0.9861 0.50068 0.0
C1012 C 0.51704 0.0294 0.49584 0.0
H1013 H 0.56732 0.95845 0.51447 0.0
H1014 H 0.53584 0.9454 0.49642 0.0
S1015 S 0.51285 0.17323 0.50771 0.0
N1016 N 0.52972 0.13648 0.5172 0.0
N1017 N 0.50486 0.12789 0.49745 0.0
C1018 C 0.51664 0.08025 0.50157 0.0
C1019 C 0.52997 0.08453 0.51222 0.0
C1020 C 0.15063 0.31471 0.33409 0.0
C1021 C 0.2108 0.3591 0.32877 0.0
C1022 C 0.1454 0.31837 0.34466 0.0
C1023 C 0.19991 0.36748 0.35022 0.0
H1024 H 0.10801 0.27481 0.33003 0.0
H1025 H 0.09739 0.28573 0.34837 0.0
S1026 S 0.36108 0.50581 0.3398 0.0
N1027 N 0.32036 0.46078 0.32967 0.0
N1028 N 0.3132 0.4652 0.3497 0.0
C1029 C 0.26024 0.41213 0.34498 0.0
C1030 C 0.26436 0.41004 0.33418 0.0
C1031 C 0.67276 0.80354 0.34486 0.0
C1032 C 0.68713 0.85989 0.35092 0.0
C1033 C 0.67489 0.80759 0.33424 0.0
C1034 C 0.69288 0.86856 0.32935 0.0
H1035 H 0.65548 0.75473 0.34839 0.0
H1036 H 0.66652 0.76396 0.32986 0.0
S1037 S 0.74683 0.03332 0.34175 0.0
N1038 N 0.72591 0.9796 0.35136 0.0
N1039 N 0.73257 0.98821 0.33125 0.0
C1040 C 0.70905 0.92574 0.33533 0.0
C1041 C 0.70681 0.92152 0.34615 0.0
C1042 C 0.19754 0.80756 0.33488 0.0
C1043 C 0.19446 0.85519 0.32863 0.0
C1044 C 0.20204 0.81548 0.34545 0.0
C1045 C 0.20938 0.87426 0.35024 0.0
H1046 H 0.1916 0.76138 0.33164 0.0
H1047 H 0.20538 0.77745 0.34993 0.0
S1048 S 0.18859 0.00697 0.33772 0.0
N1049 N 0.187 0.95823 0.32831 0.0
N1050 N 0.20128 0.9748 0.34821 0.0
C1051 C 0.20395 0.92137 0.34423 0.0
C1052 C 0.1971 0.91248 0.33342 0.0
C1053 C 0.71868 0.83231 0.83566 0.0
C1054 C 0.70979 0.87432 0.82879 0.0
C1055 C 0.71611 0.84027 0.84614 0.0
C1056 C 0.70196 0.88884 0.85004 0.0
H1057 H 0.73118 0.79527 0.83288 0.0
H1058 H 0.7198 0.80471 0.85119 0.0
S1059 S 0.67044 0.00796 0.83539 0.0
N1060 N 0.68542 0.96535 0.82658 0.0
N1061 N 0.67721 0.97781 0.8465 0.0
C1062 C 0.69298 0.93096 0.8433 0.0
C1063 C 0.69635 0.92348 0.8326 0.0
C1064 C 0.15584 0.80453 0.84485 0.0
C1065 C 0.19118 0.86193 0.85109 0.0
C1066 C 0.15636 0.81018 0.83424 0.0
C1067 C 0.19123 0.87354 0.82963 0.0
H1068 H 0.13162 0.75447 0.84819 0.0
H1069 H 0.12671 0.76536 0.82968 0.0
S1070 S 0.28536 0.0394 0.84255 0.0
N1071 N 0.25898 0.9837 0.85195 0.0
N1072 N 0.25799 -0.00494 0.83193 0.0
C1073 C 0.22603 0.9313 0.83578 0.0
C1074 C 0.22532 0.92545 0.84655 0.0
C1075 C 0.17251 0.38966 0.83374 0.0
C1076 C 0.19613 0.34966 0.82939 0.0
C1077 C 0.16835 0.39325 0.84431 0.0
C1078 C 0.19014 0.35906 0.85086 0.0
H1079 H 0.15318 0.41489 0.82897 0.0
H1080 H 0.15255 0.42702 0.84744 0.0
S1081 S 0.25352 0.24549 0.84306 0.0
N1082 N 0.2392 0.27308 0.83221 0.0
N1083 N 0.23324 0.28169 0.85224 0.0
C1084 C 0.21277 0.31799 0.84658 0.0
C1085 C 0.21693 0.31422 0.83581 0.0
C1086 C 0.89832 0.67304 0.67925 0.0
C1087 C 0.86414 0.70232 0.68386 0.0
C1088 C 0.89448 0.66302 0.6687 0.0
C1089 C 0.85703 0.68259 0.66244 0.0
H1090 H 0.93001 0.66008 0.68375 0.0
H1091 H 0.91919 0.63749 0.66542 0.0
S1092 S 0.76558 0.76922 0.67081 0.0
N1093 N 0.79669 0.75644 0.68142 0.0
N1094 N 0.7885 0.73604 0.66151 0.0
C1095 C 0.824 0.71345 0.66691 0.0
C1096 C 0.82761 0.7234 0.67767 0.0
C1097 C 0.42608 0.21632 0.668 0.0
C1098 C 0.37259 0.2179 0.66273 0.0
C1099 C 0.42336 0.20376 0.67843 0.0
C1100 C 0.36545 0.18817 0.68397 0.0
H1101 H 0.47233 0.22781 0.66403 0.0
H1102 H 0.4654 0.20258 0.68205 0.0
S1103 S 0.20364 0.16605 0.67336 0.0
N1104 N 0.25589 0.19162 0.6635 0.0
N1105 N 0.24842 0.16471 0.68315 0.0
C1106 C 0.30952 0.18562 0.6787 0.0
C1107 C 0.313 0.19965 0.66803 0.0
C1108 C 0.83738 0.14514 0.66776 0.0
C1109 C 0.8631 0.20446 0.66204 0.0
C1110 C 0.84586 0.14811 0.67832 0.0
C1111 C 0.8814 0.21041 0.68343 0.0
H1112 H 0.80692 0.09645 0.66416 0.0
H1113 H 0.82715 0.10123 0.68251 0.0
S1114 S 0.95162 0.3796 0.67196 0.0
N1115 N 0.9213 0.32704 0.66221 0.0
N1116 N 0.93761 0.33209 0.6822 0.0
C1117 C 0.90632 0.26993 0.67785 0.0
C1118 C 0.89817 0.26703 0.66709 0.0
C1119 C 0.41769 0.24986 0.17801 0.0
C1120 C 0.36226 0.20601 0.18396 0.0
C1121 C 0.41974 0.23697 0.16763 0.0
C1122 C 0.3671 0.17891 0.16279 0.0
H1123 H 0.45802 0.29602 0.18127 0.0
H1124 H 0.46442 0.27184 0.16335 0.0
S1125 S 0.20407 0.05691 0.17461 0.0
N1126 N 0.24944 0.10647 0.18407 0.0
N1127 N 0.25343 0.08408 0.16442 0.0
C1128 C 0.31002 0.13633 0.16852 0.0
C1129 C 0.30829 0.14862 0.17916 0.0
C1130 C 0.82782 0.14371 0.16748 0.0
C1131 C 0.86587 0.20577 0.16257 0.0
C1132 C 0.82698 0.1399 0.17812 0.0
C1133 C 0.86438 0.19793 0.18416 0.0
H1134 H 0.79609 0.09856 0.1631 0.0
H1135 H 0.80031 0.0905 0.18167 0.0
S1136 S 0.96471 0.37334 0.1749 0.0
N1137 N 0.93717 0.32727 0.16443 0.0
N1138 N 0.93578 0.31939 0.18453 0.0
C1139 C 0.90096 0.26037 0.17935 0.0
C1140 C 0.90261 0.26428 0.16853 0.0
C1141 C 0.85455 0.73312 0.16705 0.0
C1142 C 0.8671 0.68683 0.16205 0.0
C1143 C 0.85901 0.73847 0.17761 0.0
C1144 C 0.88081 0.70114 0.18343 0.0
H1145 H 0.83716 0.76241 0.16287 0.0
H1146 H 0.85004 0.7759 0.18122 0.0
S1147 S 0.9007 0.55981 0.17418 0.0
N1148 N 0.88697 0.59218 0.16378 0.0
N1149 N 0.901 0.60673 0.1838 0.0
C1150 C 0.88883 0.65118 0.17868 0.0
C1151 C 0.88196 0.64399 0.1679 0.0
C1152 C 0.50385 0.8051 0.0573 0.0
C1153 C 0.55338 0.86754 0.05341 0.0
C1154 C 0.50675 0.74704 0.05564 0.0
C1155 C 0.56291 0.7494 0.05087 0.0
H1156 H 0.46304 0.80112 0.06204 0.0
H1157 H 0.4684 0.70101 0.05927 0.0
S1158 S 0.69231 0.89421 0.03591 0.0
N1159 N 0.64817 0.92418 0.04164 0.0
N1160 N 0.65927 0.81475 0.03964 0.0
C1161 C 0.60856 0.80911 0.04572 0.0
C1162 C 0.60274 0.86854 0.04684 0.0
C1163 C 0.18513 0.7784 0.05361 0.0
C1164 C 0.19045 0.72 0.05272 0.0
C1165 C 0.24279 0.84287 0.05258 0.0
C1166 C 0.30646 0.84986 0.05054 0.0
H1167 H 0.13764 0.77433 0.0559 0.0
H1168 H 0.23879 0.88689 0.05438 0.0
S1169 S 0.34603 0.71371 0.04729 0.0
N1170 N 0.26387 0.67405 0.04948 0.0
N1171 N 0.37046 0.79456 0.04692 0.0
C1172 C 0.31052 0.79204 0.0486 0.0
C1173 C 0.25292 0.72703 0.04994 0.0
C1174 C 0.22042 0.43537 0.05632 0.0
C1175 C 0.20595 0.47482 0.04967 0.0
C1176 C 0.286 0.44443 0.05709 0.0
C1177 C 0.3398 0.4924 0.05109 0.0
H1178 H 0.18278 0.4029 0.06185 0.0
H1179 H 0.29594 0.41776 0.06305 0.0
S1180 S 0.3248 0.59544 0.03049 0.0
N1181 N 0.24818 0.55451 0.03556 0.0
N1182 N 0.37126 0.57144 0.03698 0.0
C1183 C 0.3242 0.52613 0.04351 0.0
C1184 C 0.25727 0.51709 0.04277 0.0
C1185 C 0.8338 0.54066 0.46801 0.0
C1186 C 0.87921 0.56988 0.45977 0.0
C1187 C 0.77525 0.54652 0.46873 0.0
C1188 C 0.76162 0.58255 0.4613 0.0
H1189 H 0.83939 0.50704 0.47323 0.0
H1190 H 0.73722 0.51673 0.47439 0.0
S1191 S 0.87137 0.67943 0.43965 0.0
N1192 N 0.91101 0.64367 0.44502 0.0
N1193 N 0.80349 0.65728 0.4467 0.0
C1194 C 0.81142 0.61946 0.45398 0.0
C1195 C 0.86954 0.61218 0.45309 0.0
C1196 C 0.55458 0.27476 0.45916 0.0
C1197 C 0.49527 0.21752 0.46253 0.0
C1198 C 0.55816 0.33681 0.45803 0.0
C1199 C 0.50331 0.34534 0.46061 0.0
H1200 H 0.59595 0.26971 0.4562 0.0
H1201 H 0.60295 0.37753 0.45449 0.0
S1202 S 0.34631 0.21824 0.47358 0.0
N1203 N 0.3866 0.17685 0.47091 0.0
N1204 N 0.39451 0.29608 0.46928 0.0
C1205 C 0.44747 0.29153 0.46554 0.0
C1206 C 0.44321 0.22686 0.46645 0.0
C1207 C 0.79325 0.31962 0.45884 0.0
C1208 C 0.84776 0.31334 0.46242 0.0
C1209 C 0.72963 0.2636 0.45747 0.0
C1210 C 0.71485 0.19854 0.46038 0.0
H1211 H 0.80184 0.36736 0.45579 0.0
H1212 H 0.69273 0.27132 0.45348 0.0
S1213 S 0.83162 0.15988 0.47465 0.0
N1214 N 0.8792 0.24039 0.47151 0.0
N1215 N 0.75515 0.13477 0.47005 0.0
C1216 C 0.76535 0.19309 0.46578 0.0
C1217 C 0.83281 0.25064 0.46661 0.0
C1218 C 0.53704 0.30443 0.96661 0.0
C1219 C 0.4806 0.30669 0.96278 0.0
C1220 C 0.54283 0.24655 0.96541 0.0
C1221 C 0.49227 0.18916 0.96037 0.0
H1222 H 0.58068 0.35024 0.96932 0.0
H1223 H 0.59011 0.24935 0.96747 0.0
S1224 S 0.32507 0.16255 0.95237 0.0
N1225 N 0.36617 0.24147 0.95639 0.0
N1226 N 0.37738 0.13293 0.95385 0.0
C1227 C 0.43154 0.1876 0.95797 0.0
C1228 C 0.42537 0.24627 0.95936 0.0
C1229 C 0.82202 0.33231 0.96569 0.0
C1230 C 0.87978 0.34003 0.96058 0.0
C1231 C 0.76215 0.26935 0.96609 0.0
C1232 C 0.75845 0.21211 0.96152 0.0
H1233 H 0.82063 0.37633 0.96837 0.0
H1234 H 0.71665 0.26706 0.96902 0.0
S1235 S 0.90113 0.20207 0.95001 0.0
N1236 N 0.93312 0.28292 0.95262 0.0
N1237 N 0.8217 0.16411 0.95396 0.0
C1238 C 0.81847 0.21738 0.95778 0.0
C1239 C 0.87893 0.28165 0.95713 0.0
C1240 C 0.73429 0.52458 0.96634 0.0
C1241 C 0.7251 0.57053 0.96038 0.0
C1242 C 0.79835 0.53028 0.96723 0.0
C1243 C 0.85515 0.58237 0.96225 0.0
H1244 H 0.69078 0.48001 0.9694 0.0
H1245 H 0.80179 0.48938 0.97079 0.0
S1246 S 0.86064 0.72385 0.9478 0.0
N1247 N 0.78 0.67556 0.95085 0.0
N1248 N 0.9005 0.6872 0.95282 0.0
C1249 C 0.84808 0.63324 0.95745 0.0
C1250 C 0.78285 0.62687 0.95638 0.0
C1251 C 0.28594 0.50691 0.54524 0.0
C1252 C 0.30364 0.477 0.55316 0.0
C1253 C 0.22757 0.51314 0.54607 0.0
C1254 C 0.18699 0.49108 0.55495 0.0
H1255 H 0.32087 0.53206 0.539 0.0
H1256 H 0.21872 0.54184 0.54031 0.0
S1257 S 0.20565 0.3965 0.5765 0.0
N1258 N 0.26947 0.41316 0.56884 0.0
N1259 N 0.16303 0.42795 0.57081 0.0
C1260 C 0.20008 0.45347 0.56214 0.0
C1261 C 0.25752 0.44531 0.5611 0.0
C1262 C 0.53933 0.73947 0.54519 0.0
C1263 C 0.57944 0.72936 0.55237 0.0
C1264 C 0.53991 0.80134 0.54468 0.0
C1265 C 0.58151 0.85508 0.55121 0.0
H1266 H 0.50179 0.6973 0.54079 0.0
H1267 H 0.50266 0.80458 0.53997 0.0
S1268 S 0.70644 0.85998 0.56962 0.0
N1269 N 0.66949 0.78268 0.56493 0.0
N1270 N 0.6717 0.89859 0.56366 0.0
C1271 C 0.62804 0.84857 0.55735 0.0
C1272 C 0.62673 0.78574 0.55802 0.0
C1273 C 0.33317 0.81608 0.54903 0.0
C1274 C 0.33838 0.87852 0.55125 0.0
C1275 C 0.27008 0.75733 0.54795 0.0
C1276 C 0.20921 0.75791 0.54932 0.0
H1277 H 0.3781 0.81138 0.54903 0.0
H1278 H 0.26903 0.70961 0.54733 0.0
S1279 S 0.19509 0.91131 0.55225 0.0
N1280 N 0.2775 0.93996 0.55255 0.0
N1281 N 0.1583 0.82865 0.55077 0.0
C1282 C 0.21355 0.82116 0.55024 0.0
C1283 C 0.27833 0.88164 0.55124 0.0
C1284 C 0.29627 0.15351 0.38122 0.0
C1285 C 0.23712 0.08989 0.38143 0.0
C1286 C 0.29289 0.21276 0.38264 0.0
C1287 C 0.2303 0.20904 0.38436 0.0
H1288 H 0.34535 0.15701 0.38103 0.0
H1289 H 0.33936 0.26078 0.38316 0.0
S1290 S 0.06161 0.05538 0.38467 0.0
N1291 N 0.11464 0.02785 0.38229 0.0
N1292 N 0.10871 0.13795 0.3855 0.0
C1293 C 0.17107 0.14635 0.38368 0.0
C1294 C 0.17436 0.087 0.38195 0.0
C1295 C 0.95651 0.1416 0.37811 0.0
C1296 C 0.97095 0.18782 0.38614 0.0
C1297 C 0.90034 0.07545 0.37868 0.0
C1298 C 0.85842 0.05367 0.3874 0.0
H1299 H 0.99244 0.15404 0.37193 0.0
H1300 H 0.89398 0.03947 0.37281 0.0
S1301 S 0.86885 0.16004 0.40942 0.0
N1302 N 0.93256 0.21107 0.402 0.0
N1303 N 0.83028 0.08674 0.40345 0.0
C1304 C 0.86866 0.10186 0.39486 0.0
C1305 C 0.92394 0.16913 0.39409 0.0
C1306 C 0.92695 0.87926 0.38725 0.0
C1307 C 0.87489 0.81964 0.38298 0.0
C1308 C 0.98958 0.88639 0.38944 0.0
C1309 C 0.00772 0.8391 0.38624 0.0
H1310 H 0.91612 0.91671 0.39037 0.0
H1311 H 0.02354 0.92899 0.39409 0.0
S1312 S 0.89792 0.68545 0.37116 0.0
N1313 N 0.84835 0.7169 0.37385 0.0
N1314 N 0.9726 0.73716 0.37628 0.0
C1315 C 0.95999 0.78408 0.38039 0.0
C1316 C 0.89244 0.7732 0.37902 0.0
C1317 C 0.41651 0.86743 0.7882 0.0
C1318 C 0.41535 0.9086 0.79611 0.0
C1319 C 0.47147 0.85851 0.78662 0.0
C1320 C 0.5285 0.88925 0.79294 0.0
H1321 H 0.37745 0.84676 0.78246 0.0
H1322 H 0.46989 0.82891 0.78005 0.0
S1323 S 0.54497 0.98796 0.81626 0.0
N1324 N 0.47153 0.97152 0.81137 0.0
N1325 N 0.57586 0.95245 0.80861 0.0
C1326 C 0.52558 0.92425 0.8016 0.0
C1327 C 0.46886 0.93447 0.80314 0.0
C1328 C 0.17109 0.64538 0.80078 0.0
C1329 C 0.1789 0.68226 0.79169 0.0
C1330 C 0.15478 0.57655 0.80042 0.0
C1331 C 0.14343 0.54239 0.79099 0.0
H1332 H 0.18274 0.67102 0.80807 0.0
H1333 H 0.15644 0.55214 0.80741 0.0
S1334 S 0.15072 0.61632 0.76529 0.0
N1335 N 0.1709 0.67871 0.7733 0.0
N1336 N 0.13253 0.55086 0.77256 0.0
C1337 C 0.14329 0.57794 0.7821 0.0
C1338 C 0.16363 0.64746 0.78245 0.0
C1339 C 0.51074 0.59321 0.78681 0.0
C1340 C 0.52787 0.63658 0.79523 0.0
C1341 C 0.44557 0.53814 0.78566 0.0
C1342 C 0.39472 0.52243 0.79299 0.0
H1343 H 0.54518 0.60712 0.78039 0.0
H1344 H 0.43362 0.51067 0.77852 0.0
S1345 S 0.42115 0.60793 0.81809 0.0
N1346 N 0.49447 0.65206 0.81214 0.0
N1347 N 0.37126 0.54669 0.81018 0.0
C1348 C 0.41414 0.55937 0.80222 0.0
C1349 C 0.4811 0.61666 0.80331 0.0
C1350 C 0.21809 0.58902 0.29129 0.0
C1351 C 0.16507 0.52328 0.29303 0.0
C1352 C 0.21358 0.64567 0.29379 0.0
C1353 C 0.15185 0.64012 0.29669 0.0
H1354 H 0.26254 0.5968 0.28724 0.0
H1355 H 0.25595 0.69456 0.29174 0.0
S1356 S -0.00349 0.47977 0.30331 0.0
N1357 N 0.05025 0.45552 0.29953 0.0
N1358 N 0.03675 0.56298 0.30231 0.0
C1359 C 0.09789 0.57482 0.29892 0.0
C1360 C 0.10516 0.51619 0.29736 0.0
C1361 C 0.48708 0.55474 0.29477 0.0
C1362 C 0.42296 0.54896 0.2957 0.0
C1363 C 0.5457 0.61878 0.29378 0.0
C1364 C 0.54037 0.67738 0.29341 0.0
H1365 H 0.4912 0.50993 0.29388 0.0
H1366 H 0.59413 0.62206 0.29251 0.0
S1367 S 0.3847 0.68685 0.2961 0.0
N1368 N 0.3595 0.60637 0.29769 0.0
N1369 N 0.46685 0.72453 0.29417 0.0
C1370 C 0.47722 0.67143 0.29499 0.0
C1371 C 0.41923 0.60761 0.29668 0.0
C1372 C 0.39584 0.84631 0.29901 0.0
C1373 C 0.38528 0.89589 0.29449 0.0
C1374 C 0.46141 0.85738 0.30071 0.0
C1375 C 0.51887 0.91578 0.29716 0.0
H1376 H 0.35298 0.79737 0.30083 0.0
H1377 H 0.46736 0.81762 0.30402 0.0
S1378 S 0.52037 0.07188 0.28934 0.0
N1379 N 0.43896 0.01476 0.28999 0.0
N1380 N 0.56217 0.03246 0.29227 0.0
C1381 C 0.50974 0.96964 0.29417 0.0
C1382 C 0.44274 0.95993 0.29292 0.0
C1383 C 0.96855 0.87709 0.88024 0.0
C1384 C 0.9704 0.81783 0.88245 0.0
C1385 C 0.90864 0.87977 0.88117 0.0
C1386 C 0.84774 0.82316 0.88431 0.0
H1387 H 0.01538 0.9239 0.87892 0.0
H1388 H 0.91159 0.92827 0.88038 0.0
S1389 S 0.82117 0.65132 0.88833 0.0
N1390 N 0.90308 0.69785 0.88593 0.0
N1391 N 0.79023 0.70289 0.88777 0.0
C1392 C 0.84698 0.76161 0.88537 0.0
C1393 C 0.90829 0.75883 0.88434 0.0
C1394 C 0.19696 0.13222 0.87927 0.0
C1395 C 0.25096 0.18922 0.88391 0.0
C1396 C 0.18994 0.0678 0.88028 0.0
C1397 C 0.2364 0.0582 0.88607 0.0
H1398 H 0.1559 0.13612 0.87583 0.0
H1399 H 0.14438 0.02461 0.87741 0.0
S1400 S 0.39565 0.1937 0.89727 0.0
N1401 N 0.35875 0.23396 0.8925 0.0
N1402 N 0.34474 0.11292 0.89475 0.0
C1403 C 0.2947 0.11591 0.88962 0.0
C1404 C 0.30242 0.18155 0.88838 0.0
C1405 C 0.8861 0.14337 0.89109 0.0
C1406 C 0.87644 0.09113 0.88448 0.0
C1407 C 0.94976 0.20113 0.89209 0.0
C1408 C 0.00542 0.20851 0.88645 0.0
H1409 H 0.84633 0.13618 0.89635 0.0
H1410 H 0.95671 0.23748 0.89794 0.0
S1411 S 0.00081 0.09262 0.86623 0.0
N1412 N 0.92295 0.05531 0.87082 0.0
N1413 N 0.04322 0.16424 0.87257 0.0
C1414 C -0.00624 0.16087 0.87874 0.0
C1415 C 0.92874 0.10189 0.87778 0.0
C1416 C 0.93682 0.47667 0.71316 0.0
C1417 C 0.89726 0.4175 0.71889 0.0
C1418 C 0.92806 0.53344 0.71434 0.0
C1419 C 0.8816 0.53268 0.72155 0.0
H1420 H 0.97699 0.48058 0.70829 0.0
H1421 H 0.96047 0.57914 0.71012 0.0
S1422 S 0.76349 0.38832 0.7377 0.0
N1423 N 0.80567 0.36044 0.73106 0.0
N1424 N 0.79303 0.4664 0.7338 0.0
C1425 C 0.83984 0.47256 0.72678 0.0
C1426 C 0.84648 0.41508 0.72525 0.0
C1427 C 0.51701 0.4343 0.71947 0.0
C1428 C 0.5278 0.37875 0.71899 0.0
C1429 C 0.57182 0.50157 0.71856 0.0
C1430 C 0.63847 0.51502 0.7168 0.0
H1431 H 0.46741 0.42617 0.72143 0.0
H1432 H 0.56299 0.5429 0.72016 0.0
S1433 S 0.6903 0.38734 0.71266 0.0
N1434 N 0.60869 0.34262 0.71521 0.0
N1435 N 0.70907 0.46685 0.71287 0.0
C1436 C 0.64736 0.45957 0.71493 0.0
C1437 C 0.59292 0.3921 0.71626 0.0
C1438 C 0.59285 0.20749 0.72327 0.0
C1439 C 0.54437 0.15522 0.71729 0.0
C1440 C 0.65643 0.21617 0.72471 0.0
C1441 C 0.67886 0.17632 0.71977 0.0
H1442 H 0.5794 0.2385 0.72783 0.0
H1443 H 0.68719 0.25405 0.73021 0.0
S1444 S 0.57662 0.04242 0.70087 0.0
N1445 N 0.52429 0.06755 0.705 0.0
N1446 N 0.64913 0.08842 0.70695 0.0
C1447 C 0.63345 0.12785 0.71273 0.0
C1448 C 0.56537 0.11658 0.71161 0.0
C1449 C 0.14488 0.17616 0.1298 0.0
C1450 C 0.2082 0.23427 0.12841 0.0
C1451 C 0.08667 0.18056 0.13136 0.0
C1452 C 0.08882 0.24307 0.13109 0.0
H1453 H 0.13945 0.12664 0.12889 0.0
H1454 H 0.03833 0.13416 0.13138 0.0
S1455 S 0.2445 0.4104 0.13086 0.0
N1456 N 0.27216 0.35657 0.12935 0.0
N1457 N 0.16116 0.3646 0.13173 0.0
C1458 C 0.15266 0.30174 0.13103 0.0
C1459 C 0.21276 0.29736 0.12969 0.0
C1460 C 0.90235 0.00161 0.12475 0.0
C1461 C 0.84824 0.01247 0.12662 0.0
C1462 C 0.89503 0.9381 0.12587 0.0
C1463 C 0.83158 0.88141 0.12802 0.0
H1464 H 0.94972 0.04169 0.12173 0.0
H1465 H 0.93743 0.93194 0.12366 0.0
S1466 S 0.68449 0.88928 0.13837 0.0
N1467 N 0.73758 0.96737 0.1346 0.0
N1468 N 0.72084 0.84415 0.13563 0.0
C1469 C 0.78011 0.89295 0.13161 0.0
C1470 C 0.78911 0.95967 0.13104 0.0
C1471 C 0.13338 0.9603 0.13464 0.0
C1472 C 0.18583 0.97115 0.12789 0.0
C1473 C 0.06932 0.90206 0.13378 0.0
C1474 C 0.0568 0.85423 0.12609 0.0
H1475 H 0.13944 0.00021 0.13973 0.0
H1476 H 0.02801 0.89837 0.13835 0.0
S1477 S 0.18274 0.85285 0.10845 0.0
N1478 N 0.22536 0.92393 0.11489 0.0
N1479 N 0.10502 0.81557 0.11307 0.0
C1480 C 0.11151 0.86074 0.12033 0.0
C1481 C 0.17638 0.91904 0.12132 0.0
C1482 C 0.80032 0.87214 0.61767 0.0
C1483 C 0.8308 0.85704 0.62578 0.0
C1484 C 0.78725 0.92552 0.61828 0.0
C1485 C 0.80621 0.96774 0.62689 0.0
H1486 H 0.79144 0.84589 0.61046 0.0
H1487 H 0.76998 0.93902 0.61144 0.0
S1488 S 0.86956 0.93802 0.65129 0.0
N1489 N 0.86521 0.87876 0.64359 0.0
N1490 N 0.84324 0.98172 0.64457 0.0
C1491 C 0.82809 0.94775 0.63558 0.0
C1492 C 0.84012 0.89187 0.63504 0.0
C1493 C 0.14031 -0.00338 0.62437 0.0
C1494 C 0.20461 0.00901 0.62729 0.0
C1495 C 0.08254 0.9344 0.62613 0.0
C1496 C 0.08666 0.8795 0.63018 0.0
H1497 H 0.13478 0.03463 0.62024 0.0
H1498 H 0.03515 0.92657 0.62301 0.0
S1499 S 0.23856 0.89246 0.6425 0.0
N1500 N 0.26616 0.96776 0.63733 0.0
N1501 N 0.15728 0.8469 0.63962 0.0
C1502 C 0.14897 0.8932 0.63435 0.0
C1503 C 0.20817 0.95882 0.63305 0.0
C1504 C 0.17283 0.28822 0.62168 0.0
C1505 C 0.18365 0.24851 0.62873 0.0
C1506 C 0.11066 0.28612 0.62118 0.0
C1507 C 0.05657 0.24368 0.62765 0.0
H1508 H 0.21027 0.31582 0.61583 0.0
H1509 H 0.10294 0.31308 0.61501 0.0
S1510 S 0.06625 0.14346 0.64922 0.0
N1511 N 0.14116 0.17625 0.64366 0.0
N1512 N 0.02324 0.1716 0.64274 0.0
C1513 C 0.07008 0.21097 0.63568 0.0
C1514 C 0.13403 0.21345 0.6362 0.0
C1515 C 0.51699 0.09712 0.22037 0.0
C1516 C 0.52117 0.15928 0.21807 0.0
C1517 C 0.57456 0.08929 0.21979 0.0
C1518 C 0.63797 0.14329 0.21683 0.0
H1519 H 0.47052 0.05623 0.22347 0.0
H1520 H 0.57093 0.04323 0.22265 0.0
S1521 S 0.67413 0.3122 0.20871 0.0
N1522 N 0.59339 0.27346 0.21194 0.0
N1523 N 0.69935 0.25693 0.21028 0.0
C1524 C 0.64062 0.20247 0.21339 0.0
C1525 C 0.58301 0.2112 0.21423 0.0
C1526 C 0.94418 0.49463 0.2136 0.0
C1527 C 0.89262 0.50788 0.21646 0.0
C1528 C 0.93724 0.43093 0.21555 0.0
C1529 C 0.88096 0.38186 0.22104 0.0
H1530 H 0.99177 0.53487 0.21067 0.0
H1531 H 0.97817 0.42207 0.21354 0.0
S1532 S 0.73566 0.39582 0.23064 0.0
N1533 N 0.78148 0.4651 0.22397 0.0
N1534 N 0.77504 0.35231 0.22953 0.0
C1535 C 0.82874 0.39442 0.22358 0.0
C1536 C 0.83243 0.45539 0.22061 0.0
C1537 C 0.55421 0.48034 0.22498 0.0
C1538 C 0.54115 0.42778 0.21817 0.0
C1539 C 0.61901 0.53746 0.22575 0.0
C1540 C 0.67252 0.54467 0.21957 0.0
H1541 H 0.51634 0.47359 0.23057 0.0
H1542 H 0.62869 0.57318 0.23183 0.0
S1543 S 0.65754 0.43416 0.19787 0.0
N1544 N 0.58184 0.39524 0.20327 0.0
N1545 N 0.70371 0.50298 0.20467 0.0
C1546 C 0.65715 0.4979 0.21161 0.0
C1547 C 0.59115 0.43936 0.21088 0.0
C1548 C 0.44014 0.28279 0.04591 0.0
C1549 C 0.49183 0.33551 0.05159 0.0
C1550 C 0.43127 0.21781 0.04624 0.0
C1551 C 0.47424 0.20449 0.0522 0.0
H1552 H 0.41194 0.29363 0.04031 0.0
H1553 H 0.39728 0.18077 0.04078 0.0
S1554 S 0.61601 0.32493 0.06826 0.0
N1555 N 0.58321 0.3692 0.06365 0.0
N1556 N 0.56747 0.24725 0.06408 0.0
C1557 C 0.52096 0.2548 0.05867 0.0
C1558 C 0.52969 0.3207 0.0584 0.0
C1559 C 0.80248 0.30256 0.05543 0.0
C1560 C 0.8543 0.29622 0.0507 0.0
C1561 C 0.7361 0.24866 0.05537 0.0
C1562 C 0.7207 0.18786 0.05058 0.0
H1563 H 0.81207 0.35106 0.05825 0.0
H1564 H 0.69604 0.25689 0.05811 0.0
S1565 S 0.84094 0.14203 0.03948 0.0
N1566 N 0.8882 0.22212 0.04273 0.0
N1567 N 0.76279 0.11992 0.04285 0.0
C1568 C 0.77314 0.17864 0.04699 0.0
C1569 C 0.84042 0.23345 0.04693 0.0
C1570 C 0.82088 0.53752 0.0611 0.0
C1571 C 0.87403 0.56707 0.05404 0.0
C1572 C 0.77007 0.55462 0.06117 0.0
C1573 C 0.76977 0.59939 0.05386 0.0
H1574 H 0.81453 0.49581 0.06581 0.0
H1575 H 0.72536 0.52428 0.06577 0.0
S1576 S 0.90362 0.6985 0.03494 0.0
N1577 N 0.92946 0.65121 0.04071 0.0
N1578 N 0.83176 0.68094 0.04055 0.0
C1579 C 0.82704 0.6357 0.04769 0.0
C1580 C 0.87951 0.61932 0.04775 0.0
C1581 C 0.28562 0.43521 0.46791 0.0
C1582 C 0.33725 0.48881 0.46237 0.0
C1583 C 0.21892 0.42173 0.46732 0.0
C1584 C 0.20261 0.46178 0.46118 0.0
H1585 H 0.29808 0.40849 0.47355 0.0
H1586 H 0.18224 0.3864 0.47271 0.0
S1587 S 0.31853 0.605 0.44485 0.0
N1588 N 0.36692 0.57851 0.45004 0.0
N1589 N 0.24103 0.55257 0.44887 0.0
C1590 C 0.25202 0.50967 0.45466 0.0
C1591 C 0.32006 0.52389 0.45533 0.0
C1592 C 0.55048 0.77296 0.45279 0.0
C1593 C 0.59305 0.76599 0.45981 0.0
C1594 C 0.53847 0.82701 0.45355 0.0
C1595 C 0.57024 0.87565 0.46122 0.0
H1596 H 0.51844 0.73135 0.44779 0.0
H1597 H 0.49813 0.82583 0.44905 0.0
S1598 S 0.69916 0.88891 0.47957 0.0
N1599 N 0.6765 0.81825 0.47327 0.0
N1600 N 0.65583 0.92143 0.47444 0.0
C1601 C 0.62111 0.87491 0.46709 0.0
C1602 C 0.63263 0.81964 0.4664 0.0
C1603 C 0.29595 0.81823 0.45094 0.0
C1604 C 0.29563 0.86359 0.45812 0.0
C1605 C 0.24341 0.75122 0.45073 0.0
C1606 C 0.18856 0.72921 0.45743 0.0
H1607 H 0.34192 0.8312 0.44676 0.0
H1608 H 0.25038 0.71495 0.44637 0.0
S1609 S 0.15725 0.83317 0.47585 0.0
N1610 N 0.23163 0.88576 0.47076 0.0
N1611 N 0.13075 0.76025 0.47002 0.0
C1612 C 0.18256 0.77706 0.46337 0.0
C1613 C 0.23672 0.8448 0.46374 0.0
C1614 C 0.52095 0.7423 0.9708 0.0
C1615 C 0.53764 0.71699 0.96221 0.0
C1616 C 0.54132 0.80924 0.97179 0.0
C1617 C 0.5818 0.85688 0.96441 0.0
H1618 H 0.49087 0.71003 0.97703 0.0
H1619 H 0.52319 0.82294 0.97852 0.0
S1620 S 0.64732 0.8219 0.94075 0.0
N1621 N 0.60193 0.74684 0.94619 0.0
N1622 N 0.64192 0.87668 0.94834 0.0
C1623 C 0.60174 0.83453 0.95582 0.0
C1624 C 0.58004 0.76396 0.9547 0.0
C1625 C 0.24725 0.78335 0.95225 0.0
C1626 C 0.20569 0.77203 0.96081 0.0
C1627 C 0.31693 0.83018 0.95272 0.0
C1628 C 0.34535 0.86726 0.96169 0.0
H1629 H 0.22831 0.7488 0.94585 0.0
H1630 H 0.34919 0.83276 0.94647 0.0
S1631 S 0.25444 0.86889 0.98496 0.0
N1632 N 0.19505 0.81183 0.97751 0.0
N1633 N 0.32542 0.8998 0.97837 0.0
C1634 C 0.30233 0.86396 0.96957 0.0
C1635 C 0.23195 0.81724 0.96904 0.0
C1636 C 0.24399 0.52584 0.9526 0.0
C1637 C 0.18385 0.48453 0.95797 0.0
C1638 C 0.29691 0.51147 0.95261 0.0
C1639 C 0.29077 0.45546 0.95803 0.0
H1640 H 0.25337 0.57362 0.94949 0.0
H1641 H 0.34522 0.54863 0.94942 0.0
S1642 S 0.14283 0.33147 0.97291 0.0
N1643 N 0.11998 0.38423 0.96832 0.0
N1644 N 0.21923 0.35724 0.96832 0.0
C1645 C 0.22876 0.41096 0.96262 0.0
C1646 C 0.17521 0.4255 0.9626 0.0
C1647 C 0.75259 0.55325 0.55743 0.0
C1648 C 0.71818 0.55084 0.5484 0.0
C1649 C 0.82166 0.57258 0.55714 0.0
C1650 C 0.85833 0.5925 0.54789 0.0
H1651 H 0.72493 0.5348 0.56453 0.0
H1652 H 0.84465 0.5669 0.56401 0.0
S1653 S 0.79009 0.60253 0.52249 0.0
N1654 N 0.72551 0.57595 0.53037 0.0
N1655 N 0.85426 0.61446 0.52967 0.0
C1656 C 0.82474 0.59662 0.53906 0.0
C1657 C 0.75493 0.57542 0.53937 0.0
C1658 C 0.43569 0.18256 0.55176 0.0
C1659 C 0.50174 0.19571 0.55341 0.0
C1660 C 0.41885 0.23252 0.55352 0.0
C1661 C 0.46829 0.29754 0.55662 0.0
H1662 H 0.39856 0.1356 0.54826 0.0
H1663 H 0.36962 0.22324 0.55105 0.0
S1664 S 0.64747 0.35421 0.5628 0.0
N1665 N 0.61509 0.27471 0.55929 0.0
N1666 N 0.58442 0.37001 0.56228 0.0
C1667 C 0.53281 0.30883 0.55933 0.0
C1668 C 0.54961 0.25758 0.55765 0.0
C1669 C 0.81662 0.31744 0.56208 0.0
C1670 C 0.87056 0.34157 0.55516 0.0
C1671 C 0.76591 0.24954 0.56204 0.0
C1672 C 0.76603 0.20483 0.55472 0.0
H1673 H 0.81025 0.35232 0.56689 0.0
H1674 H 0.72115 0.23472 0.56665 0.0
S1675 S 0.89976 0.24188 0.5356 0.0
N1676 N 0.92581 0.31415 0.54162 0.0
N1677 N 0.82782 0.18713 0.54114 0.0
C1678 C 0.82318 0.22668 0.54846 0.0
C1679 C 0.87582 0.29543 0.54868 0.0
C1680 C 0.10454 0.55944 0.39018 0.0
C1681 C 0.15868 0.54932 0.38788 0.0
C1682 C 0.11299 0.62437 0.38966 0.0
C1683 C 0.1761 0.67974 0.38708 0.0
H1684 H 0.05416 0.51656 0.39115 0.0
H1685 H 0.06895 0.63026 0.39028 0.0
S1686 S 0.3335 0.67998 0.38062 0.0
N1687 N 0.27703 0.60041 0.38293 0.0
N1688 N 0.2941 0.72185 0.38314 0.0
C1689 C 0.23209 0.67104 0.38601 0.0
C1690 C 0.22314 0.60557 0.3861 0.0
C1691 C 0.4745 0.63971 0.38991 0.0
C1692 C 0.52544 0.62958 0.38578 0.0
C1693 C 0.40752 0.58769 0.38994 0.0
C1694 C 0.38956 0.52536 0.38553 0.0
H1695 H 0.48522 0.68974 0.39211 0.0
H1696 H 0.36921 0.59785 0.39278 0.0
S1697 S 0.50806 0.46653 0.37819 0.0
N1698 N 0.55719 0.54809 0.38037 0.0
N1699 N 0.4295 0.4494 0.38026 0.0
C1700 C 0.44109 0.51124 0.3831 0.0
C1701 C 0.50984 0.56421 0.38319 0.0
C1702 C 0.43072 0.88495 0.39364 0.0
C1703 C 0.42732 0.92263 0.38544 0.0
C1704 C 0.48491 0.87385 0.39477 0.0
C1705 C 0.53565 0.89701 0.38738 0.0
H1706 H 0.38625 0.85357 0.39812 0.0
H1707 H 0.4815 0.83828 0.40053 0.0
S1708 S 0.54836 0.99377 0.36395 0.0
N1709 N 0.47926 0.98289 0.36974 0.0
N1710 N 0.58069 0.95957 0.37156 0.0
C1711 C 0.53547 0.93821 0.3794 0.0
C1712 C 0.48091 0.95113 0.37843 0.0
C1713 C 0.95531 0.77479 0.79393 0.0
C1714 C 0.00344 0.83718 0.78974 0.0
C1715 C 0.888 0.7589 0.79515 0.0
C1716 C 0.86758 0.80444 0.79197 0.0
H1717 H 0.97144 0.74253 0.79752 0.0
H1718 H 0.85362 0.7142 0.79944 0.0
S1719 S 0.97449 0.97088 0.77959 0.0
N1720 N 0.0259 0.94114 0.78165 0.0
N1721 N 0.89946 0.91104 0.78346 0.0
C1722 C 0.91385 0.86306 0.78663 0.0
C1723 C 0.98204 0.87933 0.78556 0.0
C1724 C 0.19316 0.08315 0.78953 0.0
C1725 C 0.25212 0.09653 0.79481 0.0
C1726 C 0.17218 0.1308 0.78919 0.0
C1727 C 0.21144 0.19435 0.79366 0.0
H1728 H 0.15865 0.03268 0.7868 0.0
H1729 H 0.12301 0.11639 0.78601 0.0
S1730 S 0.37884 0.25864 0.80608 0.0
N1731 N 0.35463 0.17961 0.80317 0.0
N1732 N 0.31836 0.2723 0.8019 0.0
C1733 C 0.27534 0.21138 0.7977 0.0
C1734 C 0.29522 0.16162 0.79838 0.0
C1735 C 0.94483 0.15396 0.80536 0.0
C1736 C 0.96215 0.19716 0.79684 0.0
C1737 C 0.8972 0.08609 0.80467 0.0
C1738 C 0.8642 0.05739 0.79544 0.0
H1739 H 0.97072 0.1715 0.8126 0.0
H1740 H 0.88806 0.05508 0.8114 0.0
S1741 S 0.88235 0.14943 0.77136 0.0
N1742 N 0.9373 0.20791 0.77916 0.0
N1743 N 0.84539 0.07807 0.7779 0.0
C1744 C 0.87687 0.10009 0.78702 0.0
C1745 C 0.92679 0.17036 0.78769 0.0
C1746 C 0.25661 0.10722 0.30648 0.0
C1747 C 0.23649 0.06416 0.2979 0.0
C1748 C 0.27377 0.1745 0.30557 0.0
C1749 C 0.27103 0.20094 0.29604 0.0
H1750 H 0.25318 0.08758 0.31413 0.0
H1751 H 0.27897 0.2026 0.3125 0.0
S1752 S 0.26046 0.12246 0.27111 0.0
N1753 N 0.24125 0.06095 0.27938 0.0
N1754 N 0.27422 0.18931 0.27779 0.0
C1755 C 0.26578 0.16358 0.28734 0.0
C1756 C 0.24785 0.09431 0.28822 0.0
C1757 C 0.9523 0.20893 0.29186 0.0
C1758 C 0.0097 0.20186 0.29285 0.0
C1759 C 0.88743 0.15306 0.29321 0.0
C1760 C 0.88014 0.09052 0.29581 0.0
H1761 H 0.95788 0.25848 0.291 0.0
H1762 H 0.84376 0.15979 0.29301 0.0
S1763 S 0.0154 0.04702 0.29892 0.0
N1764 N 0.05463 0.12684 0.29547 0.0
N1765 N 0.93464 0.02435 0.29905 0.0
C1766 C 0.93707 0.08245 0.29613 0.0
C1767 C 0.00173 0.13774 0.29425 0.0
C1768 C 0.97237 0.87161 0.29004 0.0
C1769 C 0.96334 0.81179 0.29448 0.0
C1770 C 0.91724 0.87929 0.28788 0.0
C1771 C 0.85261 0.8312 0.29126 0.0
H1772 H 0.02273 0.91331 0.28844 0.0
H1773 H 0.92657 0.92725 0.28486 0.0
S1774 S 0.80493 0.67147 0.30484 0.0
N1775 N 0.88669 0.705 0.30254 0.0
N1776 N 0.78259 0.72343 0.29971 0.0
C1777 C 0.84257 0.77078 0.29565 0.0
C1778 C 0.89859 0.76094 0.29725 0.0
C1779 C 0.44556 0.95537 0.88784 0.0
C1780 C 0.38917 0.8945 0.89114 0.0
C1781 C 0.5082 0.95921 0.88607 0.0
C1782 C 0.51466 0.90207 0.88761 0.0
H1783 H 0.43874 -0.00356 0.88522 0.0
H1784 H 0.54859 0.00378 0.88245 0.0
S1785 S 0.38694 0.73699 0.89809 0.0
N1786 N 0.34857 0.78182 0.89771 0.0
N1787 N 0.46456 0.78793 0.89404 0.0
C1788 C 0.46189 0.84507 0.89227 0.0
C1789 C 0.39957 0.84198 0.89431 0.0
C1790 C 0.21883 0.64721 0.8857 0.0
C1791 C 0.15381 0.63682 0.88409 0.0
C1792 C 0.2295 0.59391 0.88756 0.0
C1793 C 0.17627 0.52707 0.88704 0.0
H1794 H 0.26248 0.69708 0.88492 0.0
H1795 H 0.28134 0.60499 0.8883 0.0
S1796 S -0.00585 0.47336 0.88424 0.0
N1797 N 0.03346 0.55653 0.88341 0.0
N1798 N 0.0537 0.45309 0.88592 0.0
C1799 C 0.10957 0.51538 0.88607 0.0
C1800 C 0.09842 0.57119 0.88465 0.0
C1801 C 0.48498 0.55281 0.88893 0.0
C1802 C 0.42548 0.53967 0.88387 0.0
C1803 C 0.5399 0.61916 0.88963 0.0
C1804 C 0.53589 0.67339 0.88536 0.0
H1805 H 0.48959 0.51165 0.8921 0.0
H1806 H 0.58672 0.6276 0.89302 0.0
S1807 S 0.39474 0.66304 0.86988 0.0
N1808 N 0.36951 0.58505 0.87344 0.0
N1809 N 0.46943 0.70829 0.87524 0.0
C1810 C 0.47606 0.66018 0.88035 0.0
C1811 C 0.42177 0.59349 0.87942 0.0
C1812 C 0.87342 0.92963 0.71778 0.0
C1813 C 0.80838 0.87478 0.71606 0.0
C1814 C 0.88313 0.99346 0.7196 0.0
C1815 C 0.82793 0.00413 0.71969 0.0
H1816 H 0.91764 0.92438 0.71707 0.0
H1817 H 0.9345 0.03572 0.71975 0.0
S1818 S 0.64705 0.87474 0.71753 0.0
N1819 N 0.6877 0.83297 0.71554 0.0
N1820 N 0.70586 0.95409 0.71954 0.0
C1821 C 0.76233 0.94886 0.71881 0.0
C1822 C 0.75253 0.88386 0.71663 0.0
C1823 C 0.08194 0.90465 0.72781 0.0
C1824 C 0.05181 0.85305 0.72058 0.0
C1825 C 0.14812 0.9573 0.72642 0.0
C1826 C 0.18617 0.95906 0.71788 0.0
H1827 H 0.05174 0.90879 0.73384 0.0
H1828 H 0.16661 0.00085 0.73138 0.0
S1829 S 0.12849 0.83602 0.69666 0.0
N1830 N 0.06399 0.80577 0.70467 0.0
N1831 N 0.1892 0.90465 0.70213 0.0
C1832 C 0.15833 0.90472 0.71103 0.0
C1833 C 0.09075 0.85142 0.71239 0.0
C1834 C 0.1889 0.2677 0.70705 0.0
C1835 C 0.20689 0.23932 0.71518 0.0
C1836 C 0.13541 0.28021 0.70799 0.0
C1837 C 0.09898 0.26561 0.71713 0.0
H1838 H 0.21133 0.27356 0.69955 0.0
H1839 H 0.11672 0.29216 0.70115 0.0
S1840 S 0.14084 0.21515 0.74153 0.0
N1841 N 0.19524 0.21412 0.73334 0.0
N1842 N 0.09494 0.23976 0.73507 0.0
C1843 C 0.12416 0.2496 0.72575 0.0
C1844 C 0.17824 0.2357 0.7248 0.0
C1845 C 0.61604 0.11003 0.12644 0.0
C1846 C 0.67199 0.16765 0.12224 0.0
C1847 C 0.55285 0.10622 0.12739 0.0
C1848 C 0.54486 0.16039 0.12424 0.0
H1849 H 0.62341 0.07215 0.13024 0.0
H1850 H 0.51324 0.06509 0.13174 0.0
S1851 S 0.67199 0.31693 0.1114 0.0
N1852 N 0.71136 0.27402 0.11341 0.0
N1853 N 0.59466 0.26914 0.11588 0.0
C1854 C 0.59783 0.21415 0.119 0.0
C1855 C 0.66095 0.21694 0.11774 0.0
C1856 C 0.95276 0.48754 0.12598 0.0
C1857 C 0.90318 0.42176 0.12878 0.0
C1858 C 0.9351 0.53842 0.12494 0.0
C1859 C 0.8676 0.52341 0.12655 0.0
H1860 H 0.00517 0.5005 0.12528 0.0
H1861 H 0.97472 0.58992 0.12359 0.0
S1862 S 0.72293 0.35991 0.13474 0.0
N1863 N 0.78746 0.34778 0.13381 0.0
N1864 N 0.75219 0.43705 0.13051 0.0
C1865 C 0.81805 0.45652 0.12853 0.0
C1866 C 0.83649 0.40732 0.13004 0.0
C1867 C 0.57997 0.50136 0.12251 0.0
C1868 C 0.63391 0.52653 0.1295 0.0
C1869 C 0.52615 0.43397 0.12324 0.0
C1870 C 0.52681 0.39033 0.13078 0.0
H1871 H 0.57793 0.5345 0.1168 0.0
H1872 H 0.48298 0.41696 0.11823 0.0
S1873 S 0.65848 0.43041 0.15043 0.0
N1874 N 0.68265 0.50113 0.14418 0.0
N1875 N 0.58974 0.37483 0.14446 0.0
C1876 C 0.5835 0.4138 0.13714 0.0
C1877 C 0.63484 0.48198 0.13683 0.0
C1878 C 0.94767 0.43391 0.63478 0.0
C1879 C 0.90205 0.39078 0.62738 0.0
C1880 C 0.96491 0.50174 0.63527 0.0
C1881 C 0.93461 0.52751 0.62866 0.0
H1882 H 0.96514 0.41372 0.64078 0.0
H1883 H -0.00419 0.53193 0.64159 0.0
S1884 S 0.81633 0.43398 0.60747 0.0
N1885 N 0.83552 0.37952 0.61245 0.0
N1886 N 0.85796 0.50327 0.61431 0.0
C1887 C 0.89258 0.48538 0.6208 0.0
C1888 C 0.87874 0.41772 0.61995 0.0
C1889 C 0.63239 0.50843 0.61872 0.0
C1890 C 0.67214 0.5371 0.62744 0.0
C1891 C 0.56458 0.45718 0.61975 0.0
C1892 C 0.53743 0.43157 0.62939 0.0
H1893 H 0.6552 0.52084 0.61121 0.0
H1894 H 0.53589 0.43188 0.61304 0.0
S1895 S 0.61588 0.50338 0.65442 0.0
N1896 N 0.6741 0.5496 0.64589 0.0
N1897 N 0.54983 0.44813 0.64777 0.0
C1898 C 0.5734 0.46707 0.63808 0.0
C1899 C 0.64063 0.52108 0.63707 0.0
C1900 C 0.56267 0.08394 0.62724 0.0
C1901 C 0.62735 0.13868 0.62526 0.0
C1902 C 0.5069 0.0935 0.62796 0.0
C1903 C 0.51477 0.15771 0.62651 0.0
H1904 H 0.55664 0.03558 0.62941 0.0
H1905 H 0.45903 0.05218 0.6306 0.0
S1906 S 0.67286 0.31652 0.62099 0.0
N1907 N 0.6958 0.2588 0.62177 0.0
N1908 N 0.59004 0.27538 0.6224 0.0
C1909 C 0.57777 0.21119 0.62352 0.0
C1910 C 0.63465 0.20204 0.62307 0.0
C1911 C 0.10859 0.29425 0.21982 0.0
C1912 C 0.05781 0.23225 0.22372 0.0
C1913 C 0.17593 0.30893 0.21941 0.0
C1914 C 0.19371 0.26185 0.2229 0.0
H1915 H 0.09503 0.32733 0.21585 0.0
H1916 H 0.21206 0.35258 0.21508 0.0
S1917 S 0.07865 0.09314 0.23375 0.0
N1918 N 0.02985 0.12588 0.23161 0.0
N1919 N 0.15567 0.15217 0.2305 0.0
C1920 C 0.14436 0.2029 0.22772 0.0
C1921 C 0.07622 0.18824 0.22818 0.0
C1922 C 0.77168 0.91538 0.22135 0.0
C1923 C 0.82555 0.97542 0.21752 0.0
C1924 C 0.77975 0.85898 0.22277 0.0
C1925 C 0.84258 0.86354 0.22087 0.0
H1926 H 0.72227 0.91034 0.22236 0.0
H1927 H 0.73561 0.81055 0.2244 0.0
S1928 S -0.00047 0.01191 0.21154 0.0
N1929 N 0.94272 0.03595 0.21194 0.0
N1930 N 0.96072 0.93544 0.21642 0.0
C1931 C 0.89849 0.92649 0.2185 0.0
C1932 C 0.8891 0.98118 0.21622 0.0
C1933 C 0.13504 0.89187 0.20825 0.0
C1934 C 0.09768 0.86745 0.21732 0.0
C1935 C 0.18603 0.95926 0.20741 0.0
C1936 C 0.20269 0.00379 0.2157 0.0
H1937 H 0.11826 0.86175 0.20135 0.0
H1938 H 0.20845 0.97803 0.19996 0.0
S1939 S 0.12971 0.95977 0.24171 0.0
N1940 N 0.08622 0.88998 0.23503 0.0
N1941 N 0.18688 0.01533 0.23379 0.0
C1942 C 0.17279 0.97732 0.22521 0.0
C1943 C 0.11906 0.90913 0.22594 0.0
loop_
_geom_bond_atom_site_label_1
_geom_bond_atom_site_label_2
_geom_bond_distance
_geom_bond_site_symmetry_2
_ccdc_geom_bond_type
O0 Mn1 2.163 . S
O0 C14 1.244 . S
Mn1 O0 2.163 . S
Mn1 O4 2.160 1_545 S
Mn1 O5 2.221 . S
Mn1 O7 2.163 1_545 S
Mn1 O9 2.160 . S
Mn1 O19 2.221 . S
O2 Mn3 2.087 . S
O2 C14 1.256 . S
Mn3 O2 2.087 . S
Mn3 O10 2.089 . S
Mn3 O19 2.290 . S
Mn3 O20 2.251 . S
O4 Mn1 2.160 1_565 S
O4 C15 1.239 . S
O5 Mn1 2.221 . S
O5 Mn6 2.290 1_545 S
O5 C16 1.278 . S
Mn6 O5 2.290 1_565 S
Mn6 O8 2.089 . S
Mn6 O11 2.251 1_565 S
Mn6 O12 2.087 . S
O7 Mn1 2.163 1_565 S
O7 C17 1.244 . S
O8 Mn6 2.089 . S
O8 C15 1.256 . S
O9 Mn1 2.160 . S
O9 C18 1.239 . S
O10 Mn3 2.089 . S
O10 C18 1.256 . S
O11 Mn6 2.251 1_545 S
O11 C16 1.241 . S
O12 Mn6 2.087 . S
O12 C17 1.256 . S
C13 O19 1.278 . S
C13 O20 1.241 . S
C14 O0 1.244 . S
C14 O2 1.256 . S
C15 O4 1.239 . S
C15 O8 1.256 . S
C16 O5 1.278 . S
C16 O11 1.241 . S
C17 O7 1.244 . S
C17 O12 1.256 . S
C18 O9 1.239 . S
C18 O10 1.256 . S
O19 Mn1 2.221 . S
O19 Mn3 2.290 . S
O19 C13 1.278 . S
O20 Mn3 2.251 . S
O20 C13 1.241 . S
O21 Mn22 2.163 1_655 S
O21 C35 1.244 . S
Mn22 O21 2.163 1_455 S
Mn22 O25 2.160 . S
Mn22 O26 2.221 . S
Mn22 O28 2.163 . S
Mn22 O30 2.160 1_455 S
Mn22 O40 2.221 . S
O23 Mn24 2.087 . S
O23 C35 1.256 . S
Mn24 O23 2.087 . S
Mn24 O31 2.089 . S
Mn24 O40 2.290 1_655 S
Mn24 O41 2.251 . S
O25 Mn22 2.160 . S
O25 C36 1.239 . S
O26 Mn22 2.221 . S
O26 Mn27 2.290 . S
O26 C37 1.278 . S
Mn27 O26 2.290 . S
Mn27 O29 2.089 . S
Mn27 O32 2.251 . S
Mn27 O33 2.087 . S
O28 Mn22 2.163 . S
O28 C38 1.244 . S
O29 Mn27 2.089 . S
O29 C36 1.256 . S
O30 Mn22 2.160 1_655 S
O30 C39 1.239 . S
O31 Mn24 2.089 . S
O31 C39 1.256 . S
O32 Mn27 2.251 . S
O32 C37 1.241 . S
O33 Mn27 2.087 . S
O33 C38 1.256 . S
C34 O40 1.278 . S
C34 O41 1.241 1_455 S
C35 O21 1.244 . S
C35 O23 1.256 . S
C36 O25 1.239 . S
C36 O29 1.256 . S
C37 O26 1.278 . S
C37 O32 1.241 . S
C38 O28 1.244 . S
C38 O33 1.256 . S
C39 O30 1.239 . S
C39 O31 1.256 . S
O40 Mn22 2.221 . S
O40 Mn24 2.290 1_455 S
O40 C34 1.278 . S
O41 Mn24 2.251 . S
O41 C34 1.241 1_655 S
O42 Mn43 2.163 . S
O42 C56 1.244 . S
Mn43 O42 2.163 . S
Mn43 O46 2.160 . S
Mn43 O47 2.221 . S
Mn43 O49 2.163 . S
Mn43 O51 2.160 . S
Mn43 O61 2.221 . S
O44 Mn45 2.087 . S
O44 C56 1.256 . S
Mn45 O44 2.087 . S
Mn45 O52 2.089 . S
Mn45 O61 2.290 . S
Mn45 O62 2.251 . S
O46 Mn43 2.160 . S
O46 C57 1.239 . S
O47 Mn43 2.221 . S
O47 Mn48 2.290 . S
O47 C58 1.278 . S
Mn48 O47 2.290 . S
Mn48 O50 2.089 . S
Mn48 O53 2.251 . S
Mn48 O54 2.087 . S
O49 Mn43 2.163 . S
O49 C59 1.244 . S
O50 Mn48 2.089 . S
O50 C57 1.256 . S
O51 Mn43 2.160 . S
O51 C60 1.239 . S
O52 Mn45 2.089 . S
O52 C60 1.256 . S
O53 Mn48 2.251 . S
O53 C58 1.241 . S
O54 Mn48 2.087 . S
O54 C59 1.256 . S
C55 O61 1.278 . S
C55 O62 1.241 . S
C56 O42 1.244 . S
C56 O44 1.256 . S
C57 O46 1.239 . S
C57 O50 1.256 . S
C58 O47 1.278 . S
C58 O53 1.241 . S
C59 O49 1.244 . S
C59 O54 1.256 . S
C60 O51 1.239 . S
C60 O52 1.256 . S
O61 Mn43 2.221 . S
O61 Mn45 2.290 . S
O61 C55 1.278 . S
O62 Mn45 2.251 . S
O62 C55 1.241 . S
O63 Mn64 2.163 1_655 S
O63 C77 1.244 . S
Mn64 O63 2.163 1_455 S
Mn64 O67 2.160 . S
Mn64 O68 2.221 . S
Mn64 O70 2.163 . S
Mn64 O72 2.160 1_455 S
Mn64 O82 2.221 . S
O65 Mn66 2.087 . S
O65 C77 1.256 . S
Mn66 O65 2.087 . S
Mn66 O73 2.089 . S
Mn66 O82 2.290 1_655 S
Mn66 O83 2.251 1_655 S
O67 Mn64 2.160 . S
O67 C78 1.239 . S
O68 Mn64 2.221 . S
O68 Mn69 2.290 . S
O68 C79 1.278 . S
Mn69 O68 2.290 . S
Mn69 O71 2.089 . S
Mn69 O74 2.251 . S
Mn69 O75 2.087 . S
O70 Mn64 2.163 . S
O70 C80 1.244 . S
O71 Mn69 2.089 . S
O71 C78 1.256 . S
O72 Mn64 2.160 1_655 S
O72 C81 1.239 . S
O73 Mn66 2.089 . S
O73 C81 1.256 . S
O74 Mn69 2.251 . S
O74 C79 1.241 . S
O75 Mn69 2.087 . S
O75 C80 1.256 . S
C76 O82 1.278 . S
C76 O83 1.241 . S
C77 O63 1.244 . S
C77 O65 1.256 . S
C78 O67 1.239 . S
C78 O71 1.256 . S
C79 O68 1.278 . S
C79 O74 1.241 . S
C80 O70 1.244 . S
C80 O75 1.256 . S
C81 O72 1.239 . S
C81 O73 1.256 . S
O82 Mn64 2.221 . S
O82 Mn66 2.290 1_455 S
O82 C76 1.278 . S
O83 Mn66 2.251 1_455 S
O83 C76 1.241 . S
O84 Mn85 2.163 . S
O84 C98 1.244 . S
Mn85 O84 2.163 . S
Mn85 O88 2.160 . S
Mn85 O89 2.221 . S
Mn85 O91 2.163 . S
Mn85 O93 2.160 . S
Mn85 O103 2.221 . S
O86 Mn87 2.087 . S
O86 C98 1.256 . S
Mn87 O86 2.087 . S
Mn87 O94 2.089 . S
Mn87 O103 2.290 . S
Mn87 O104 2.251 . S
O88 Mn85 2.160 . S
O88 C99 1.239 . S
O89 Mn85 2.221 . S
O89 Mn90 2.290 . S
O89 C100 1.278 . S
Mn90 O89 2.290 . S
Mn90 O92 2.089 . S
Mn90 O95 2.251 . S
Mn90 O96 2.087 . S
O91 Mn85 2.163 . S
O91 C101 1.244 . S
O92 Mn90 2.089 . S
O92 C99 1.256 . S
O93 Mn85 2.160 . S
O93 C102 1.239 . S
O94 Mn87 2.089 . S
O94 C102 1.256 . S
O95 Mn90 2.251 . S
O95 C100 1.241 . S
O96 Mn90 2.087 . S
O96 C101 1.256 . S
C97 O103 1.278 . S
C97 O104 1.241 . S
C98 O84 1.244 . S
C98 O86 1.256 . S
C99 O88 1.239 . S
C99 O92 1.256 . S
C100 O89 1.278 . S
C100 O95 1.241 . S
C101 O91 1.244 . S
C101 O96 1.256 . S
C102 O93 1.239 . S
C102 O94 1.256 . S
O103 Mn85 2.221 . S
O103 Mn87 2.290 . S
O103 C97 1.278 . S
O104 Mn87 2.251 . S
O104 C97 1.241 . S
O105 Mn106 2.163 . S
O105 C119 1.244 . S
Mn106 O105 2.163 . S
Mn106 O109 2.160 1_545 S
Mn106 O110 2.221 . S
Mn106 O112 2.163 1_545 S
Mn106 O114 2.160 . S
Mn106 O124 2.221 . S
O107 Mn108 2.087 . S
O107 C119 1.256 . S
Mn108 O107 2.087 . S
Mn108 O115 2.089 . S
Mn108 O124 2.290 . S
Mn108 O125 2.251 . S
O109 Mn106 2.160 1_565 S
O109 C120 1.239 . S
O110 Mn106 2.221 . S
O110 Mn111 2.290 1_545 S
O110 C121 1.278 . S
Mn111 O110 2.290 1_565 S
Mn111 O113 2.089 . S
Mn111 O116 2.251 . S
Mn111 O117 2.087 . S
O112 Mn106 2.163 1_565 S
O112 C122 1.244 . S
O113 Mn111 2.089 . S
O113 C120 1.256 . S
O114 Mn106 2.160 . S
O114 C123 1.239 . S
O115 Mn108 2.089 . S
O115 C123 1.256 . S
O116 Mn111 2.251 . S
O116 C121 1.241 1_565 S
O117 Mn111 2.087 . S
O117 C122 1.256 . S
C118 O124 1.278 . S
C118 O125 1.241 . S
C119 O105 1.244 . S
C119 O107 1.256 . S
C120 O109 1.239 . S
C120 O113 1.256 . S
C121 O110 1.278 . S
C121 O116 1.241 1_545 S
C122 O112 1.244 . S
C122 O117 1.256 . S
C123 O114 1.239 . S
C123 O115 1.256 . S
O124 Mn106 2.221 . S
O124 Mn108 2.290 . S
O124 C118 1.278 . S
O125 Mn108 2.251 . S
O125 C118 1.241 . S
O126 Mn127 2.163 . S
O126 C140 1.244 . S
Mn127 O126 2.163 . S
Mn127 O130 2.160 1_545 S
Mn127 O131 2.221 . S
Mn127 O133 2.163 1_545 S
Mn127 O135 2.160 . S
Mn127 O145 2.221 . S
O128 Mn129 2.087 . S
O128 C140 1.256 . S
Mn129 O128 2.087 . S
Mn129 O136 2.089 . S
Mn129 O145 2.290 . S
Mn129 O146 2.251 . S
O130 Mn127 2.160 1_565 S
O130 C141 1.239 . S
O131 Mn127 2.221 . S
O131 Mn132 2.290 1_545 S
O131 C142 1.278 . S
Mn132 O131 2.290 1_565 S
Mn132 O134 2.089 . S
Mn132 O137 2.251 . S
Mn132 O138 2.087 . S
O133 Mn127 2.163 1_565 S
O133 C143 1.244 . S
O134 Mn132 2.089 . S
O134 C141 1.256 . S
O135 Mn127 2.160 . S
O135 C144 1.239 . S
O136 Mn129 2.089 . S
O136 C144 1.256 . S
O137 Mn132 2.251 . S
O137 C142 1.241 1_565 S
O138 Mn132 2.087 . S
O138 C143 1.256 . S
C139 O145 1.278 . S
C139 O146 1.241 . S
C140 O126 1.244 . S
C140 O128 1.256 . S
C141 O130 1.239 . S
C141 O134 1.256 . S
C142 O131 1.278 . S
C142 O137 1.241 1_545 S
C143 O133 1.244 . S
C143 O138 1.256 . S
C144 O135 1.239 . S
C144 O136 1.256 . S
O145 Mn127 2.221 . S
O145 Mn129 2.290 . S
O145 C139 1.278 . S
O146 Mn129 2.251 . S
O146 C139 1.241 . S
O147 Mn148 2.163 1_655 S
O147 C161 1.244 . S
Mn148 O147 2.163 1_455 S
Mn148 O151 2.160 . S
Mn148 O152 2.221 . S
Mn148 O154 2.163 . S
Mn148 O156 2.160 1_455 S
Mn148 O166 2.221 . S
O149 Mn150 2.087 . S
O149 C161 1.256 . S
Mn150 O149 2.087 . S
Mn150 O157 2.089 . S
Mn150 O166 2.290 1_655 S
Mn150 O167 2.251 1_655 S
O151 Mn148 2.160 . S
O151 C162 1.239 . S
O152 Mn148 2.221 . S
O152 Mn153 2.290 . S
O152 C163 1.278 . S
Mn153 O152 2.290 . S
Mn153 O155 2.089 . S
Mn153 O158 2.251 . S
Mn153 O159 2.087 . S
O154 Mn148 2.163 . S
O154 C164 1.244 . S
O155 Mn153 2.089 . S
O155 C162 1.256 . S
O156 Mn148 2.160 1_655 S
O156 C165 1.239 . S
O157 Mn150 2.089 . S
O157 C165 1.256 . S
O158 Mn153 2.251 . S
O158 C163 1.241 . S
O159 Mn153 2.087 . S
O159 C164 1.256 . S
C160 O166 1.278 . S
C160 O167 1.241 . S
C161 O147 1.244 . S
C161 O149 1.256 . S
C162 O151 1.239 . S
C162 O155 1.256 . S
C163 O152 1.278 . S
C163 O158 1.241 . S
C164 O154 1.244 . S
C164 O159 1.256 . S
C165 O156 1.239 . S
C165 O157 1.256 . S
O166 Mn148 2.221 . S
O166 Mn150 2.290 1_455 S
O166 C160 1.278 . S
O167 Mn150 2.251 1_455 S
O167 C160 1.241 . S
O168 Mn169 2.163 . S
O168 C182 1.244 . S
Mn169 O168 2.163 . S
Mn169 O172 2.160 . S
Mn169 O173 2.221 . S
Mn169 O175 2.163 . S
Mn169 O177 2.160 . S
Mn169 O187 2.221 . S
O170 Mn171 2.087 . S
O170 C182 1.256 . S
Mn171 O170 2.087 . S
Mn171 O178 2.089 . S
Mn171 O187 2.290 . S
Mn171 O188 2.251 . S
O172 Mn169 2.160 . S
O172 C183 1.239 . S
O173 Mn169 2.221 . S
O173 Mn174 2.290 . S
O173 C184 1.278 . S
Mn174 O173 2.290 . S
Mn174 O176 2.089 . S
Mn174 O179 2.251 . S
Mn174 O180 2.087 . S
O175 Mn169 2.163 . S
O175 C185 1.244 . S
O176 Mn174 2.089 . S
O176 C183 1.256 . S
O177 Mn169 2.160 . S
O177 C186 1.239 . S
O178 Mn171 2.089 . S
O178 C186 1.256 . S
O179 Mn174 2.251 . S
O179 C184 1.241 . S
O180 Mn174 2.087 . S
O180 C185 1.256 . S
C181 O187 1.278 . S
C181 O188 1.241 . S
C182 O168 1.244 . S
C182 O170 1.256 . S
C183 O172 1.239 . S
C183 O176 1.256 . S
C184 O173 1.278 . S
C184 O179 1.241 . S
C185 O175 1.244 . S
C185 O180 1.256 . S
C186 O177 1.239 . S
C186 O178 1.256 . S
O187 Mn169 2.221 . S
O187 Mn171 2.290 . S
O187 C181 1.278 . S
O188 Mn171 2.251 . S
O188 C181 1.241 . S
O189 Mn190 2.163 . S
O189 C203 1.244 . S
Mn190 O189 2.163 . S
Mn190 O193 2.160 1_455 S
Mn190 O194 2.221 . S
Mn190 O196 2.163 1_455 S
Mn190 O198 2.160 . S
Mn190 O208 2.221 . S
O191 Mn192 2.087 . S
O191 C203 1.256 . S
Mn192 O191 2.087 . S
Mn192 O199 2.089 . S
Mn192 O208 2.290 . S
Mn192 O209 2.251 . S
O193 Mn190 2.160 1_655 S
O193 C204 1.239 . S
O194 Mn190 2.221 . S
O194 Mn195 2.290 1_455 S
O194 C205 1.278 . S
Mn195 O194 2.290 1_655 S
Mn195 O197 2.089 . S
Mn195 O200 2.251 . S
Mn195 O201 2.087 . S
O196 Mn190 2.163 1_655 S
O196 C206 1.244 . S
O197 Mn195 2.089 . S
O197 C204 1.256 . S
O198 Mn190 2.160 . S
O198 C207 1.239 . S
O199 Mn192 2.089 . S
O199 C207 1.256 . S
O200 Mn195 2.251 . S
O200 C205 1.241 1_655 S
O201 Mn195 2.087 . S
O201 C206 1.256 . S
C202 O208 1.278 . S
C202 O209 1.241 . S
C203 O189 1.244 . S
C203 O191 1.256 . S
C204 O193 1.239 . S
C204 O197 1.256 . S
C205 O194 1.278 . S
C205 O200 1.241 1_455 S
C206 O196 1.244 . S
C206 O201 1.256 . S
C207 O198 1.239 . S
C207 O199 1.256 . S
O208 Mn190 2.221 . S
O208 Mn192 2.290 . S
O208 C202 1.278 . S
O209 Mn192 2.251 . S
O209 C202 1.241 . S
O210 Mn211 2.163 . S
O210 C224 1.244 . S
Mn211 O210 2.163 . S
Mn211 O214 2.160 . S
Mn211 O215 2.221 . S
Mn211 O217 2.163 . S
Mn211 O219 2.160 . S
Mn211 O229 2.221 . S
O212 Mn213 2.087 . S
O212 C224 1.256 . S
Mn213 O212 2.087 . S
Mn213 O220 2.089 . S
Mn213 O229 2.290 . S
Mn213 O230 2.251 . S
O214 Mn211 2.160 . S
O214 C225 1.239 . S
O215 Mn211 2.221 . S
O215 Mn216 2.290 . S
O215 C226 1.278 . S
Mn216 O215 2.290 . S
Mn216 O218 2.089 . S
Mn216 O221 2.251 . S
Mn216 O222 2.087 . S
O217 Mn211 2.163 . S
O217 C227 1.244 . S
O218 Mn216 2.089 . S
O218 C225 1.256 . S
O219 Mn211 2.160 . S
O219 C228 1.239 . S
O220 Mn213 2.089 . S
O220 C228 1.256 . S
O221 Mn216 2.251 . S
O221 C226 1.241 . S
O222 Mn216 2.087 . S
O222 C227 1.256 . S
C223 O229 1.278 . S
C223 O230 1.241 . S
C224 O210 1.244 . S
C224 O212 1.256 . S
C225 O214 1.239 . S
C225 O218 1.256 . S
C226 O215 1.278 . S
C226 O221 1.241 . S
C227 O217 1.244 . S
C227 O222 1.256 . S
C228 O219 1.239 . S
C228 O220 1.256 . S
O229 Mn211 2.221 . S
O229 Mn213 2.290 . S
O229 C223 1.278 . S
O230 Mn213 2.251 . S
O230 C223 1.241 . S
O231 Mn232 2.163 1_565 S
O231 C245 1.244 . S
Mn232 O231 2.163 1_545 S
Mn232 O235 2.160 . S
Mn232 O236 2.221 . S
Mn232 O238 2.163 . S
Mn232 O240 2.160 1_545 S
Mn232 O250 2.221 . S
O233 Mn234 2.087 . S
O233 C245 1.256 . S
Mn234 O233 2.087 . S
Mn234 O241 2.089 . S
Mn234 O250 2.290 1_565 S
Mn234 O251 2.251 1_565 S
O235 Mn232 2.160 . S
O235 C246 1.239 . S
O236 Mn232 2.221 . S
O236 Mn237 2.290 . S
O236 C247 1.278 . S
Mn237 O236 2.290 . S
Mn237 O239 2.089 . S
Mn237 O242 2.251 . S
Mn237 O243 2.087 . S
O238 Mn232 2.163 . S
O238 C248 1.244 . S
O239 Mn237 2.089 . S
O239 C246 1.256 . S
O240 Mn232 2.160 1_565 S
O240 C249 1.239 . S
O241 Mn234 2.089 . S
O241 C249 1.256 . S
O242 Mn237 2.251 . S
O242 C247 1.241 . S
O243 Mn237 2.087 . S
O243 C248 1.256 . S
C244 O250 1.278 . S
C244 O251 1.241 . S
C245 O231 1.244 . S
C245 O233 1.256 . S
C246 O235 1.239 . S
C246 O239 1.256 . S
C247 O236 1.278 . S
C247 O242 1.241 . S
C248 O238 1.244 . S
C248 O243 1.256 . S
C249 O240 1.239 . S
C249 O241 1.256 . S
O250 Mn232 2.221 . S
O250 Mn234 2.290 1_545 S
O250 C244 1.278 . S
O251 Mn234 2.251 1_545 S
O251 C244 1.241 . S
O252 Mn253 2.163 . S
O252 C266 1.244 . S
Mn253 O252 2.163 . S
Mn253 O256 2.160 . S
Mn253 O257 2.221 . S
Mn253 O259 2.163 . S
Mn253 O261 2.160 . S
Mn253 O271 2.221 . S
O254 Mn255 2.087 . S
O254 C266 1.256 . S
Mn255 O254 2.087 . S
Mn255 O262 2.089 . S
Mn255 O271 2.290 . S
Mn255 O272 2.251 . S
O256 Mn253 2.160 . S
O256 C267 1.239 . S
O257 Mn253 2.221 . S
O257 Mn258 2.290 . S
O257 C268 1.278 . S
Mn258 O257 2.290 . S
Mn258 O260 2.089 . S
Mn258 O263 2.251 . S
Mn258 O264 2.087 . S
O259 Mn253 2.163 . S
O259 C269 1.244 . S
O260 Mn258 2.089 . S
O260 C267 1.256 . S
O261 Mn253 2.160 . S
O261 C270 1.239 . S
O262 Mn255 2.089 . S
O262 C270 1.256 . S
O263 Mn258 2.251 . S
O263 C268 1.241 . S
O264 Mn258 2.087 . S
O264 C269 1.256 . S
C265 O271 1.278 . S
C265 O272 1.241 . S
C266 O252 1.244 . S
C266 O254 1.256 . S
C267 O256 1.239 . S
C267 O260 1.256 . S
C268 O257 1.278 . S
C268 O263 1.241 . S
C269 O259 1.244 . S
C269 O264 1.256 . S
C270 O261 1.239 . S
C270 O262 1.256 . S
O271 Mn253 2.221 . S
O271 Mn255 2.290 . S
O271 C265 1.278 . S
O272 Mn255 2.251 . S
O272 C265 1.241 . S
O273 Mn274 2.163 . S
O273 C287 1.244 . S
Mn274 O273 2.163 . S
Mn274 O277 2.160 . S
Mn274 O278 2.221 . S
Mn274 O280 2.163 . S
Mn274 O282 2.160 . S
Mn274 O292 2.221 . S
O275 Mn276 2.087 . S
O275 C287 1.256 . S
Mn276 O275 2.087 . S
Mn276 O283 2.089 . S
Mn276 O292 2.290 . S
Mn276 O293 2.251 . S
O277 Mn274 2.160 . S
O277 C288 1.239 . S
O278 Mn274 2.221 . S
O278 Mn279 2.290 . S
O278 C289 1.278 . S
Mn279 O278 2.290 . S
Mn279 O281 2.089 . S
Mn279 O284 2.251 . S
Mn279 O285 2.087 . S
O280 Mn274 2.163 . S
O280 C290 1.244 . S
O281 Mn279 2.089 . S
O281 C288 1.257 . S
O282 Mn274 2.160 . S
O282 C291 1.239 . S
O283 Mn276 2.089 . S
O283 C291 1.256 . S
O284 Mn279 2.251 . S
O284 C289 1.241 . S
O285 Mn279 2.087 . S
O285 C290 1.256 . S
C286 O292 1.278 . S
C286 O293 1.241 . S
C287 O273 1.244 . S
C287 O275 1.256 . S
C288 O277 1.239 . S
C288 O281 1.257 . S
C289 O278 1.278 . S
C289 O284 1.241 . S
C290 O280 1.244 . S
C290 O285 1.256 . S
C291 O282 1.239 . S
C291 O283 1.256 . S
O292 Mn274 2.221 . S
O292 Mn276 2.290 . S
O292 C286 1.278 . S
O293 Mn276 2.251 . S
O293 C286 1.241 . S
O294 Mn295 2.163 . S
O294 C308 1.244 . S
Mn295 O294 2.163 . S
Mn295 O298 2.160 . S
Mn295 O299 2.221 . S
Mn295 O301 2.163 . S
Mn295 O303 2.160 . S
Mn295 O313 2.221 . S
O296 Mn297 2.087 . S
O296 C308 1.256 . S
Mn297 O296 2.087 . S
Mn297 O304 2.089 . S
Mn297 O313 2.290 . S
Mn297 O314 2.251 . S
O298 Mn295 2.160 . S
O298 C309 1.239 . S
O299 Mn295 2.221 . S
O299 Mn300 2.290 . S
O299 C310 1.278 . S
Mn300 O299 2.290 . S
Mn300 O302 2.089 . S
Mn300 O305 2.251 . S
Mn300 O306 2.087 1_565 S
O301 Mn295 2.163 . S
O301 C311 1.244 1_565 S
O302 Mn300 2.089 . S
O302 C309 1.256 . S
O303 Mn295 2.160 . S
O303 C312 1.239 . S
O304 Mn297 2.089 . S
O304 C312 1.256 . S
O305 Mn300 2.251 . S
O305 C310 1.241 . S
O306 Mn300 2.087 1_545 S
O306 C311 1.256 . S
C307 O313 1.278 . S
C307 O314 1.241 . S
C308 O294 1.244 . S
C308 O296 1.256 . S
C309 O298 1.239 . S
C309 O302 1.256 . S
C310 O299 1.278 . S
C310 O305 1.241 . S
C311 O301 1.244 1_545 S
C311 O306 1.256 . S
C312 O303 1.239 . S
C312 O304 1.256 . S
O313 Mn295 2.221 . S
O313 Mn297 2.290 . S
O313 C307 1.278 . S
O314 Mn297 2.251 . S
O314 C307 1.241 . S
O315 Mn316 2.163 . S
O315 C329 1.244 . S
Mn316 O315 2.163 . S
Mn316 O319 2.160 . S
Mn316 O320 2.221 . S
Mn316 O322 2.163 . S
Mn316 O324 2.160 . S
Mn316 O334 2.221 . S
O317 Mn318 2.087 . S
O317 C329 1.256 . S
Mn318 O317 2.087 . S
Mn318 O325 2.089 . S
Mn318 O334 2.290 . S
Mn318 O335 2.251 . S
O319 Mn316 2.160 . S
O319 C330 1.239 1_565 S
O320 Mn316 2.221 . S
O320 Mn321 2.290 . S
O320 C331 1.278 . S
Mn321 O320 2.290 . S
Mn321 O323 2.089 1_565 S
Mn321 O326 2.251 . S
Mn321 O327 2.087 . S
O322 Mn316 2.163 . S
O322 C332 1.244 . S
O323 Mn321 2.089 1_545 S
O323 C330 1.256 . S
O324 Mn316 2.160 . S
O324 C333 1.239 . S
O325 Mn318 2.089 . S
O325 C333 1.256 . S
O326 Mn321 2.251 . S
O326 C331 1.241 . S
O327 Mn321 2.087 . S
O327 C332 1.256 . S
C328 O334 1.278 . S
C328 O335 1.241 . S
C329 O315 1.244 . S
C329 O317 1.256 . S
C330 O319 1.239 1_545 S
C330 O323 1.256 . S
C331 O320 1.278 . S
C331 O326 1.241 . S
C332 O322 1.244 . S
C332 O327 1.256 . S
C333 O324 1.239 . S
C333 O325 1.256 . S
O334 Mn316 2.221 . S
O334 Mn318 2.290 . S
O334 C328 1.278 . S
O335 Mn318 2.251 . S
O335 C328 1.241 . S
O336 Mn337 2.163 . S
O336 C350 1.244 . S
Mn337 O336 2.163 . S
Mn337 O340 2.160 . S
Mn337 O341 2.221 . S
Mn337 O343 2.163 . S
Mn337 O345 2.160 . S
Mn337 O355 2.221 . S
O338 Mn339 2.087 . S
O338 C350 1.256 . S
Mn339 O338 2.087 . S
Mn339 O346 2.089 . S
Mn339 O355 2.290 . S
Mn339 O356 2.251 . S
O340 Mn337 2.160 . S
O340 C351 1.239 . S
O341 Mn337 2.221 . S
O341 Mn342 2.290 . S
O341 C352 1.278 . S
Mn342 O341 2.290 . S
Mn342 O344 2.089 . S
Mn342 O347 2.251 . S
Mn342 O348 2.087 1_565 S
O343 Mn337 2.163 . S
O343 C353 1.244 1_565 S
O344 Mn342 2.089 . S
O344 C351 1.256 . S
O345 Mn337 2.160 . S
O345 C354 1.239 . S
O346 Mn339 2.089 . S
O346 C354 1.256 . S
O347 Mn342 2.251 . S
O347 C352 1.241 . S
O348 Mn342 2.087 1_545 S
O348 C353 1.256 . S
C349 O355 1.278 . S
C349 O356 1.241 . S
C350 O336 1.244 . S
C350 O338 1.256 . S
C351 O340 1.239 . S
C351 O344 1.256 . S
C352 O341 1.278 . S
C352 O347 1.241 . S
C353 O343 1.244 1_545 S
C353 O348 1.256 . S
C354 O345 1.239 . S
C354 O346 1.256 . S
O355 Mn337 2.221 . S
O355 Mn339 2.290 . S
O355 C349 1.278 . S
O356 Mn339 2.251 . S
O356 C349 1.241 . S
O357 Mn358 2.163 . S
O357 C371 1.244 . S
Mn358 O357 2.163 . S
Mn358 O361 2.160 . S
Mn358 O362 2.221 . S
Mn358 O364 2.163 . S
Mn358 O366 2.160 . S
Mn358 O376 2.221 . S
O359 Mn360 2.087 . S
O359 C371 1.256 . S
Mn360 O359 2.087 . S
Mn360 O367 2.089 . S
Mn360 O376 2.290 . S
Mn360 O377 2.251 . S
O361 Mn358 2.160 . S
O361 C372 1.239 . S
O362 Mn358 2.221 . S
O362 Mn363 2.290 . S
O362 C373 1.278 . S
Mn363 O362 2.290 . S
Mn363 O365 2.089 . S
Mn363 O368 2.251 . S
Mn363 O369 2.087 . S
O364 Mn358 2.163 . S
O364 C374 1.244 . S
O365 Mn363 2.089 . S
O365 C372 1.256 . S
O366 Mn358 2.160 . S
O366 C375 1.239 . S
O367 Mn360 2.089 . S
O367 C375 1.256 . S
O368 Mn363 2.251 . S
O368 C373 1.241 . S
O369 Mn363 2.087 . S
O369 C374 1.256 . S
C370 O376 1.278 . S
C370 O377 1.241 . S
C371 O357 1.244 . S
C371 O359 1.256 . S
C372 O361 1.239 . S
C372 O365 1.256 . S
C373 O362 1.278 . S
C373 O368 1.241 . S
C374 O364 1.244 . S
C374 O369 1.256 . S
C375 O366 1.239 . S
C375 O367 1.256 . S
O376 Mn358 2.221 . S
O376 Mn360 2.290 . S
O376 C370 1.278 . S
O377 Mn360 2.251 . S
O377 C370 1.241 . S
O378 Mn379 2.163 . S
O378 C392 1.244 . S
Mn379 O378 2.163 . S
Mn379 O382 2.160 . S
Mn379 O383 2.221 . S
Mn379 O385 2.163 . S
Mn379 O387 2.160 . S
Mn379 O397 2.221 . S
O380 Mn381 2.087 . S
O380 C392 1.256 . S
Mn381 O380 2.087 . S
Mn381 O388 2.089 . S
Mn381 O397 2.290 . S
Mn381 O398 2.251 . S
O382 Mn379 2.160 . S
O382 C393 1.239 . S
O383 Mn379 2.221 . S
O383 Mn384 2.290 . S
O383 C394 1.278 . S
Mn384 O383 2.290 . S
Mn384 O386 2.089 . S
Mn384 O389 2.251 . S
Mn384 O390 2.087 . S
O385 Mn379 2.163 . S
O385 C395 1.244 . S
O386 Mn384 2.089 . S
O386 C393 1.256 . S
O387 Mn379 2.160 . S
O387 C396 1.239 . S
O388 Mn381 2.089 . S
O388 C396 1.256 . S
O389 Mn384 2.251 . S
O389 C394 1.241 . S
O390 Mn384 2.087 . S
O390 C395 1.256 . S
C391 O397 1.278 . S
C391 O398 1.241 . S
C392 O378 1.244 . S
C392 O380 1.256 . S
C393 O382 1.239 . S
C393 O386 1.256 . S
C394 O383 1.278 . S
C394 O389 1.241 . S
C395 O385 1.244 . S
C395 O390 1.256 . S
C396 O387 1.239 . S
C396 O388 1.256 . S
O397 Mn379 2.221 . S
O397 Mn381 2.290 . S
O397 C391 1.278 . S
O398 Mn381 2.251 . S
O398 C391 1.241 . S
O399 Mn400 2.163 . S
O399 C413 1.244 . S
Mn400 O399 2.163 . S
Mn400 O403 2.160 . S
Mn400 O404 2.221 . S
Mn400 O406 2.163 . S
Mn400 O408 2.160 . S
Mn400 O418 2.221 . S
O401 Mn402 2.087 . S
O401 C413 1.256 . S
Mn402 O401 2.087 . S
Mn402 O409 2.089 . S
Mn402 O418 2.290 . S
Mn402 O419 2.251 . S
O403 Mn400 2.160 . S
O403 C414 1.239 . S
O404 Mn400 2.221 . S
O404 Mn405 2.290 . S
O404 C415 1.278 . S
Mn405 O404 2.290 . S
Mn405 O407 2.089 . S
Mn405 O410 2.251 . S
Mn405 O411 2.087 1_565 S
O406 Mn400 2.163 . S
O406 C416 1.244 1_565 S
O407 Mn405 2.089 . S
O407 C414 1.256 . S
O408 Mn400 2.160 . S
O408 C417 1.239 . S
O409 Mn402 2.089 . S
O409 C417 1.256 . S
O410 Mn405 2.251 . S
O410 C415 1.241 . S
O411 Mn405 2.087 1_545 S
O411 C416 1.256 . S
C412 O418 1.278 . S
C412 O419 1.241 . S
C413 O399 1.244 . S
C413 O401 1.256 . S
C414 O403 1.239 . S
C414 O407 1.256 . S
C415 O404 1.278 . S
C415 O410 1.241 . S
C416 O406 1.244 1_545 S
C416 O411 1.256 . S
C417 O408 1.239 . S
C417 O409 1.256 . S
O418 Mn400 2.221 . S
O418 Mn402 2.290 . S
O418 C412 1.278 . S
O419 Mn402 2.251 . S
O419 C412 1.241 . S
O420 Mn421 2.163 . S
O420 C434 1.244 . S
Mn421 O420 2.163 . S
Mn421 O424 2.160 . S
Mn421 O425 2.221 . S
Mn421 O427 2.163 . S
Mn421 O429 2.160 . S
Mn421 O439 2.221 . S
O422 Mn423 2.087 . S
O422 C434 1.256 . S
Mn423 O422 2.087 . S
Mn423 O430 2.089 . S
Mn423 O439 2.290 . S
Mn423 O440 2.251 . S
O424 Mn421 2.160 . S
O424 C435 1.239 1_565 S
O425 Mn421 2.221 . S
O425 Mn426 2.290 . S
O425 C436 1.278 . S
Mn426 O425 2.290 . S
Mn426 O428 2.089 1_565 S
Mn426 O431 2.251 . S
Mn426 O432 2.087 . S
O427 Mn421 2.163 . S
O427 C437 1.244 . S
O428 Mn426 2.089 1_545 S
O428 C435 1.256 . S
O429 Mn421 2.160 . S
O429 C438 1.239 . S
O430 Mn423 2.089 . S
O430 C438 1.256 . S
O431 Mn426 2.251 . S
O431 C436 1.241 . S
O432 Mn426 2.087 . S
O432 C437 1.256 . S
C433 O439 1.278 . S
C433 O440 1.241 . S
C434 O420 1.244 . S
C434 O422 1.256 . S
C435 O424 1.239 1_545 S
C435 O428 1.256 . S
C436 O425 1.278 . S
C436 O431 1.241 . S
C437 O427 1.244 . S
C437 O432 1.256 . S
C438 O429 1.239 . S
C438 O430 1.256 . S
O439 Mn421 2.221 . S
O439 Mn423 2.290 . S
O439 C433 1.278 . S
O440 Mn423 2.251 . S
O440 C433 1.241 . S
O441 Mn442 2.163 . S
O441 C455 1.244 1_565 S
Mn442 O441 2.163 . S
Mn442 O445 2.160 . S
Mn442 O446 2.221 . S
Mn442 O448 2.163 . S
Mn442 O450 2.160 . S
Mn442 O460 2.221 . S
O443 Mn444 2.087 1_545 S
O443 C455 1.256 . S
Mn444 O443 2.087 1_565 S
Mn444 O451 2.089 . S
Mn444 O460 2.290 . S
Mn444 O461 2.251 . S
O445 Mn442 2.160 . S
O445 C456 1.239 . S
O446 Mn442 2.221 . S
O446 Mn447 2.290 . S
O446 C457 1.278 . S
Mn447 O446 2.290 . S
Mn447 O449 2.089 . S
Mn447 O452 2.251 . S
Mn447 O453 2.087 . S
O448 Mn442 2.163 . S
O448 C458 1.244 . S
O449 Mn447 2.089 . S
O449 C456 1.256 . S
O450 Mn442 2.160 . S
O450 C459 1.239 . S
O451 Mn444 2.089 . S
O451 C459 1.256 . S
O452 Mn447 2.251 . S
O452 C457 1.241 . S
O453 Mn447 2.087 . S
O453 C458 1.256 . S
C454 O460 1.278 . S
C454 O461 1.241 . S
C455 O441 1.244 1_545 S
C455 O443 1.256 . S
C456 O445 1.239 . S
C456 O449 1.256 . S
C457 O446 1.278 . S
C457 O452 1.241 . S
C458 O448 1.244 . S
C458 O453 1.256 . S
C459 O450 1.239 . S
C459 O451 1.256 . S
O460 Mn442 2.221 . S
O460 Mn444 2.290 . S
O460 C454 1.278 . S
O461 Mn444 2.251 . S
O461 C454 1.241 . S
O462 Mn463 2.163 . S
O462 C476 1.244 . S
Mn463 O462 2.163 . S
Mn463 O466 2.160 . S
Mn463 O467 2.221 . S
Mn463 O469 2.163 . S
Mn463 O471 2.160 . S
Mn463 O481 2.221 . S
O464 Mn465 2.087 . S
O464 C476 1.256 . S
Mn465 O464 2.087 . S
Mn465 O472 2.089 . S
Mn465 O481 2.290 . S
Mn465 O482 2.251 . S
O466 Mn463 2.160 . S
O466 C477 1.239 . S
O467 Mn463 2.221 . S
O467 Mn468 2.290 . S
O467 C478 1.278 . S
Mn468 O467 2.290 . S
Mn468 O470 2.089 . S
Mn468 O473 2.251 . S
Mn468 O474 2.087 . S
O469 Mn463 2.163 . S
O469 C479 1.244 . S
O470 Mn468 2.089 . S
O470 C477 1.256 . S
O471 Mn463 2.160 . S
O471 C480 1.246 . S
O472 Mn465 2.089 . S
O472 C480 1.255 . S
O473 Mn468 2.251 . S
O473 C478 1.241 . S
O474 Mn468 2.087 . S
O474 C479 1.256 . S
C475 O481 1.278 . S
C475 O482 1.241 . S
C476 O462 1.244 . S
C476 O464 1.256 . S
C477 O466 1.239 . S
C477 O470 1.256 . S
C478 O467 1.278 . S
C478 O473 1.241 . S
C479 O469 1.244 . S
C479 O474 1.256 . S
C480 O471 1.246 . S
C480 O472 1.255 . S
O481 Mn463 2.221 . S
O481 Mn465 2.290 . S
O481 C475 1.278 . S
O482 Mn465 2.251 . S
O482 C475 1.241 . S
O483 Mn484 2.163 . S
O483 C497 1.244 . S
Mn484 O483 2.163 . S
Mn484 O487 2.160 . S
Mn484 O488 2.221 . S
Mn484 O490 2.163 . S
Mn484 O492 2.160 . S
Mn484 O502 2.221 . S
O485 Mn486 2.087 . S
O485 C497 1.256 . S
Mn486 O485 2.087 . S
Mn486 O493 2.089 . S
Mn486 O502 2.290 . S
Mn486 O503 2.251 . S
O487 Mn484 2.160 . S
O487 C498 1.239 . S
O488 Mn484 2.221 . S
O488 Mn489 2.290 . S
O488 C499 1.278 . S
Mn489 O488 2.290 . S
Mn489 O491 2.089 . S
Mn489 O494 2.251 . S
Mn489 O495 2.087 . S
O490 Mn484 2.163 . S
O490 C500 1.244 . S
O491 Mn489 2.089 . S
O491 C498 1.256 . S
O492 Mn484 2.160 . S
O492 C501 1.239 . S
O493 Mn486 2.089 . S
O493 C501 1.256 . S
O494 Mn489 2.251 . S
O494 C499 1.241 . S
O495 Mn489 2.087 . S
O495 C500 1.256 . S
C496 O502 1.278 . S
C496 O503 1.241 . S
C497 O483 1.244 . S
C497 O485 1.256 . S
C498 O487 1.239 . S
C498 O491 1.256 . S
C499 O488 1.278 . S
C499 O494 1.241 . S
C500 O490 1.244 . S
C500 O495 1.256 . S
C501 O492 1.239 . S
C501 O493 1.256 . S
O502 Mn484 2.221 . S
O502 Mn486 2.290 . S
O502 C496 1.278 . S
O503 Mn486 2.251 . S
O503 C496 1.241 . S
O504 Mn505 2.163 . S
O504 C518 1.244 . S
Mn505 O504 2.163 . S
Mn505 O508 2.160 . S
Mn505 O509 2.221 . S
Mn505 O511 2.163 . S
Mn505 O513 2.160 . S
Mn505 O523 2.221 . S
O506 Mn507 2.087 . S
O506 C518 1.256 . S
Mn507 O506 2.087 . S
Mn507 O514 2.089 1_655 S
Mn507 O523 2.290 . S
Mn507 O524 2.251 . S
O508 Mn505 2.160 . S
O508 C519 1.239 . S
O509 Mn505 2.221 . S
O509 Mn510 2.290 . S
O509 C520 1.278 . S
Mn510 O509 2.290 . S
Mn510 O512 2.089 . S
Mn510 O515 2.251 . S
Mn510 O516 2.087 . S
O511 Mn505 2.163 . S
O511 C521 1.244 . S
O512 Mn510 2.089 . S
O512 C519 1.256 . S
O513 Mn505 2.160 . S
O513 C522 1.239 1_655 S
O514 Mn507 2.089 1_455 S
O514 C522 1.256 . S
O515 Mn510 2.251 . S
O515 C520 1.241 . S
O516 Mn510 2.087 . S
O516 C521 1.256 . S
C517 O523 1.278 . S
C517 O524 1.241 . S
C518 O504 1.244 . S
C518 O506 1.256 . S
C519 O508 1.239 . S
C519 O512 1.256 . S
C520 O509 1.278 . S
C520 O515 1.241 . S
C521 O511 1.244 . S
C521 O516 1.256 . S
C522 O513 1.239 1_455 S
C522 O514 1.256 . S
O523 Mn505 2.221 . S
O523 Mn507 2.290 . S
O523 C517 1.278 . S
O524 Mn507 2.251 . S
O524 C517 1.241 . S
O525 Mn526 2.163 . S
O525 C539 1.244 . S
Mn526 O525 2.163 . S
Mn526 O529 2.160 . S
Mn526 O530 2.221 . S
Mn526 O532 2.163 . S
Mn526 O534 2.160 . S
Mn526 O544 2.221 . S
O527 Mn528 2.087 . S
O527 C539 1.256 . S
Mn528 O527 2.087 . S
Mn528 O535 2.089 . S
Mn528 O544 2.290 . S
Mn528 O545 2.251 . S
O529 Mn526 2.160 . S
O529 C540 1.239 . S
O530 Mn526 2.221 . S
O530 Mn531 2.290 . S
O530 C541 1.278 . S
Mn531 O530 2.290 . S
Mn531 O533 2.089 . S
Mn531 O536 2.251 . S
Mn531 O537 2.087 . S
O532 Mn526 2.163 . S
O532 C542 1.244 . S
O533 Mn531 2.089 . S
O533 C540 1.256 . S
O534 Mn526 2.160 . S
O534 C543 1.239 . S
O535 Mn528 2.089 . S
O535 C543 1.256 . S
O536 Mn531 2.251 . S
O536 C541 1.241 . S
O537 Mn531 2.087 . S
O537 C542 1.256 . S
C538 O544 1.278 . S
C538 O545 1.241 . S
C539 O525 1.244 . S
C539 O527 1.256 . S
C540 O529 1.239 . S
C540 O533 1.256 . S
C541 O530 1.278 . S
C541 O536 1.241 . S
C542 O532 1.244 . S
C542 O537 1.256 . S
C543 O534 1.239 . S
C543 O535 1.256 . S
O544 Mn526 2.221 . S
O544 Mn528 2.290 . S
O544 C538 1.278 . S
O545 Mn528 2.251 . S
O545 C538 1.241 . S
O546 Mn547 2.163 . S
O546 C560 1.244 1_655 S
Mn547 O546 2.163 . S
Mn547 O550 2.160 . S
Mn547 O551 2.221 . S
Mn547 O553 2.163 . S
Mn547 O555 2.160 . S
Mn547 O565 2.221 . S
O548 Mn549 2.087 1_455 S
O548 C560 1.256 . S
Mn549 O548 2.087 1_655 S
Mn549 O556 2.089 . S
Mn549 O565 2.290 . S
Mn549 O566 2.251 . S
O550 Mn547 2.160 . S
O550 C561 1.239 . S
O551 Mn547 2.221 . S
O551 Mn552 2.290 . S
O551 C562 1.278 . S
Mn552 O551 2.290 . S
Mn552 O554 2.089 . S
Mn552 O557 2.251 . S
Mn552 O558 2.087 . S
O553 Mn547 2.163 . S
O553 C563 1.244 . S
O554 Mn552 2.089 . S
O554 C561 1.256 . S
O555 Mn547 2.160 . S
O555 C564 1.239 . S
O556 Mn549 2.089 . S
O556 C564 1.256 . S
O557 Mn552 2.251 . S
O557 C562 1.241 . S
O558 Mn552 2.087 . S
O558 C563 1.256 . S
C559 O565 1.278 . S
C559 O566 1.241 . S
C560 O546 1.244 1_455 S
C560 O548 1.256 . S
C561 O550 1.239 . S
C561 O554 1.256 . S
C562 O551 1.278 . S
C562 O557 1.241 . S
C563 O553 1.244 . S
C563 O558 1.256 . S
C564 O555 1.239 . S
C564 O556 1.256 . S
O565 Mn547 2.221 . S
O565 Mn549 2.290 . S
O565 C559 1.278 . S
O566 Mn549 2.251 . S
O566 C559 1.241 . S
O567 Mn568 2.163 . S
O567 C581 1.244 . S
Mn568 O567 2.163 . S
Mn568 O571 2.160 . S
Mn568 O572 2.221 . S
Mn568 O574 2.163 . S
Mn568 O576 2.160 . S
Mn568 O586 2.221 . S
O569 Mn570 2.087 . S
O569 C581 1.256 . S
Mn570 O569 2.087 . S
Mn570 O577 2.089 . S
Mn570 O586 2.290 . S
Mn570 O587 2.251 . S
O571 Mn568 2.160 . S
O571 C582 1.239 . S
O572 Mn568 2.221 . S
O572 Mn573 2.290 . S
O572 C583 1.278 . S
Mn573 O572 2.290 . S
Mn573 O575 2.089 . S
Mn573 O578 2.251 . S
Mn573 O579 2.087 . S
O574 Mn568 2.163 . S
O574 C584 1.244 . S
O575 Mn573 2.089 . S
O575 C582 1.256 . S
O576 Mn568 2.160 . S
O576 C585 1.239 . S
O577 Mn570 2.089 . S
O577 C585 1.256 . S
O578 Mn573 2.251 . S
O578 C583 1.241 . S
O579 Mn573 2.087 . S
O579 C584 1.256 . S
C580 O586 1.278 . S
C580 O587 1.241 . S
C581 O567 1.244 . S
C581 O569 1.256 . S
C582 O571 1.239 . S
C582 O575 1.256 . S
C583 O572 1.278 . S
C583 O578 1.241 . S
C584 O574 1.244 . S
C584 O579 1.256 . S
C585 O576 1.239 . S
C585 O577 1.256 . S
O586 Mn568 2.221 . S
O586 Mn570 2.290 . S
O586 C580 1.278 . S
O587 Mn570 2.251 . S
O587 C580 1.241 . S
O588 Mn589 2.163 . S
O588 C602 1.244 1_655 S
Mn589 O588 2.163 . S
Mn589 O592 2.160 . S
Mn589 O593 2.221 . S
Mn589 O595 2.163 . S
Mn589 O597 2.160 . S
Mn589 O607 2.221 . S
O590 Mn591 2.087 1_455 S
O590 C602 1.256 . S
Mn591 O590 2.087 1_655 S
Mn591 O598 2.089 . S
Mn591 O607 2.290 . S
Mn591 O608 2.251 . S
O592 Mn589 2.160 . S
O592 C603 1.239 . S
O593 Mn589 2.221 . S
O593 Mn594 2.290 . S
O593 C604 1.278 . S
Mn594 O593 2.290 . S
Mn594 O596 2.089 . S
Mn594 O599 2.251 . S
Mn594 O600 2.087 . S
O595 Mn589 2.163 . S
O595 C605 1.244 . S
O596 Mn594 2.089 . S
O596 C603 1.256 . S
O597 Mn589 2.160 . S
O597 C606 1.239 . S
O598 Mn591 2.089 . S
O598 C606 1.256 . S
O599 Mn594 2.251 . S
O599 C604 1.241 . S
O600 Mn594 2.087 . S
O600 C605 1.256 . S
C601 O607 1.278 . S
C601 O608 1.241 . S
C602 O588 1.244 1_455 S
C602 O590 1.256 . S
C603 O592 1.239 . S
C603 O596 1.256 . S
C604 O593 1.278 . S
C604 O599 1.241 . S
C605 O595 1.244 . S
C605 O600 1.256 . S
C606 O597 1.239 . S
C606 O598 1.256 . S
O607 Mn589 2.221 . S
O607 Mn591 2.290 . S
O607 C601 1.278 . S
O608 Mn591 2.251 . S
O608 C601 1.241 . S
O609 Mn610 2.163 . S
O609 C623 1.244 . S
Mn610 O609 2.163 . S
Mn610 O613 2.160 . S
Mn610 O614 2.221 . S
Mn610 O616 2.163 . S
Mn610 O618 2.160 . S
Mn610 O628 2.221 . S
O611 Mn612 2.087 . S
O611 C623 1.256 . S
Mn612 O611 2.087 . S
Mn612 O619 2.089 . S
Mn612 O628 2.290 . S
Mn612 O629 2.251 . S
O613 Mn610 2.160 . S
O613 C624 1.239 . S
O614 Mn610 2.221 . S
O614 Mn615 2.290 . S
O614 C625 1.278 . S
Mn615 O614 2.290 . S
Mn615 O617 2.089 . S
Mn615 O620 2.251 . S
Mn615 O621 2.087 . S
O616 Mn610 2.163 . S
O616 C626 1.244 . S
O617 Mn615 2.089 . S
O617 C624 1.256 . S
O618 Mn610 2.160 . S
O618 C627 1.239 1_655 S
O619 Mn612 2.089 . S
O619 C627 1.256 1_655 S
O620 Mn615 2.251 . S
O620 C625 1.241 . S
O621 Mn615 2.087 . S
O621 C626 1.256 . S
C622 O628 1.278 . S
C622 O629 1.241 . S
C623 O609 1.244 . S
C623 O611 1.256 . S
C624 O613 1.239 . S
C624 O617 1.256 . S
C625 O614 1.278 . S
C625 O620 1.241 . S
C626 O616 1.244 . S
C626 O621 1.256 . S
C627 O618 1.239 1_455 S
C627 O619 1.256 1_455 S
O628 Mn610 2.221 . S
O628 Mn612 2.290 . S
O628 C622 1.278 . S
O629 Mn612 2.251 . S
O629 C622 1.241 . S
O630 Mn631 2.163 . S
O630 C644 1.244 1_655 S
Mn631 O630 2.163 . S
Mn631 O634 2.160 . S
Mn631 O635 2.221 . S
Mn631 O637 2.163 . S
Mn631 O639 2.160 . S
Mn631 O649 2.221 . S
O632 Mn633 2.087 1_455 S
O632 C644 1.256 . S
Mn633 O632 2.087 1_655 S
Mn633 O640 2.089 . S
Mn633 O649 2.290 . S
Mn633 O650 2.251 . S
O634 Mn631 2.160 . S
O634 C645 1.239 . S
O635 Mn631 2.221 . S
O635 Mn636 2.290 . S
O635 C646 1.278 . S
Mn636 O635 2.290 . S
Mn636 O638 2.089 . S
Mn636 O641 2.251 . S
Mn636 O642 2.087 . S
O637 Mn631 2.163 . S
O637 C647 1.244 . S
O638 Mn636 2.089 . S
O638 C645 1.256 . S
O639 Mn631 2.160 . S
O639 C648 1.239 . S
O640 Mn633 2.089 . S
O640 C648 1.256 . S
O641 Mn636 2.251 . S
O641 C646 1.241 . S
O642 Mn636 2.087 . S
O642 C647 1.256 . S
C643 O649 1.278 . S
C643 O650 1.241 . S
C644 O630 1.244 1_455 S
C644 O632 1.256 . S
C645 O634 1.239 . S
C645 O638 1.256 . S
C646 O635 1.278 . S
C646 O641 1.241 . S
C647 O637 1.244 . S
C647 O642 1.256 . S
C648 O639 1.239 . S
C648 O640 1.256 . S
O649 Mn631 2.221 . S
O649 Mn633 2.290 . S
O649 C643 1.278 . S
O650 Mn633 2.251 . S
O650 C643 1.241 . S
O651 Mn652 2.163 . S
O651 C665 1.244 . S
Mn652 O651 2.163 . S
Mn652 O655 2.160 . S
Mn652 O656 2.221 . S
Mn652 O658 2.163 . S
Mn652 O660 2.160 . S
Mn652 O670 2.221 . S
O653 Mn654 2.087 . S
O653 C665 1.256 . S
Mn654 O653 2.087 . S
Mn654 O661 2.089 . S
Mn654 O670 2.290 . S
Mn654 O671 2.251 . S
O655 Mn652 2.160 . S
O655 C666 1.239 . S
O656 Mn652 2.221 . S
O656 Mn657 2.290 . S
O656 C667 1.278 . S
Mn657 O656 2.290 . S
Mn657 O659 2.089 . S
Mn657 O662 2.251 . S
Mn657 O663 2.087 . S
O658 Mn652 2.163 . S
O658 C668 1.244 . S
O659 Mn657 2.089 . S
O659 C666 1.256 . S
O660 Mn652 2.160 . S
O660 C669 1.239 . S
O661 Mn654 2.089 . S
O661 C669 1.256 . S
O662 Mn657 2.251 . S
O662 C667 1.241 . S
O663 Mn657 2.087 . S
O663 C668 1.256 . S
C664 O670 1.278 . S
C664 O671 1.241 . S
C665 O651 1.244 . S
C665 O653 1.256 . S
C666 O655 1.239 . S
C666 O659 1.256 . S
C667 O656 1.278 . S
C667 O662 1.241 . S
C668 O658 1.244 . S
C668 O663 1.256 . S
C669 O660 1.239 . S
C669 O661 1.256 . S
O670 Mn652 2.221 . S
O670 Mn654 2.290 . S
O670 C664 1.278 . S
O671 Mn654 2.251 . S
O671 C664 1.241 . S
O672 Mn673 2.163 . S
O672 C686 1.244 . S
Mn673 O672 2.163 . S
Mn673 O676 2.160 . S
Mn673 O677 2.221 . S
Mn673 O679 2.163 . S
Mn673 O681 2.160 . S
Mn673 O691 2.221 . S
O674 Mn675 2.087 . S
O674 C686 1.256 . S
Mn675 O674 2.087 . S
Mn675 O682 2.089 . S
Mn675 O691 2.290 . S
Mn675 O692 2.251 . S
O676 Mn673 2.160 . S
O676 C687 1.239 . S
O677 Mn673 2.221 . S
O677 Mn678 2.290 . S
O677 C688 1.278 . S
Mn678 O677 2.290 . S
Mn678 O680 2.089 . S
Mn678 O683 2.251 . S
Mn678 O684 2.087 . S
O679 Mn673 2.163 . S
O679 C689 1.244 . S
O680 Mn678 2.089 . S
O680 C687 1.256 . S
O681 Mn673 2.160 . S
O681 C690 1.240 1_655 S
O682 Mn675 2.089 . S
O682 C690 1.256 1_655 S
O683 Mn678 2.251 . S
O683 C688 1.241 . S
O684 Mn678 2.087 . S
O684 C689 1.256 . S
C685 O691 1.278 . S
C685 O692 1.241 . S
C686 O672 1.244 . S
C686 O674 1.256 . S
C687 O676 1.239 . S
C687 O680 1.256 . S
C688 O677 1.278 . S
C688 O683 1.241 . S
C689 O679 1.244 . S
C689 O684 1.256 . S
C690 O681 1.240 1_455 S
C690 O682 1.256 1_455 S
O691 Mn673 2.221 . S
O691 Mn675 2.290 . S
O691 C685 1.278 . S
O692 Mn675 2.251 . S
O692 C685 1.241 . S
O693 Mn694 2.163 . S
O693 C707 1.244 . S
Mn694 O693 2.163 . S
Mn694 O697 2.160 . S
Mn694 O698 2.221 . S
Mn694 O700 2.163 . S
Mn694 O702 2.160 . S
Mn694 O712 2.221 . S
O695 Mn696 2.087 . S
O695 C707 1.256 . S
Mn696 O695 2.087 . S
Mn696 O703 2.089 . S
Mn696 O712 2.290 . S
Mn696 O713 2.251 . S
O697 Mn694 2.160 . S
O697 C708 1.239 . S
O698 Mn694 2.221 . S
O698 Mn699 2.290 . S
O698 C709 1.278 . S
Mn699 O698 2.290 . S
Mn699 O701 2.089 . S
Mn699 O704 2.251 . S
Mn699 O705 2.087 . S
O700 Mn694 2.163 . S
O700 C710 1.244 . S
O701 Mn699 2.089 . S
O701 C708 1.256 . S
O702 Mn694 2.160 . S
O702 C711 1.239 . S
O703 Mn696 2.089 . S
O703 C711 1.256 . S
O704 Mn699 2.251 . S
O704 C709 1.241 . S
O705 Mn699 2.087 . S
O705 C710 1.256 . S
C706 O712 1.278 . S
C706 O713 1.241 . S
C707 O693 1.244 . S
C707 O695 1.256 . S
C708 O697 1.239 . S
C708 O701 1.256 . S
C709 O698 1.278 . S
C709 O704 1.241 . S
C710 O700 1.244 . S
C710 O705 1.256 . S
C711 O702 1.239 . S
C711 O703 1.256 . S
O712 Mn694 2.221 . S
O712 Mn696 2.290 . S
O712 C706 1.278 . S
O713 Mn696 2.251 . S
O713 C706 1.241 . S
O714 Mn715 2.163 . S
O714 C728 1.244 . S
Mn715 O714 2.163 . S
Mn715 O718 2.160 . S
Mn715 O719 2.221 . S
Mn715 O721 2.163 . S
Mn715 O723 2.160 . S
Mn715 O733 2.221 . S
O716 Mn717 2.087 . S
O716 C728 1.256 . S
Mn717 O716 2.087 . S
Mn717 O724 2.089 . S
Mn717 O733 2.290 . S
Mn717 O734 2.251 . S
O718 Mn715 2.160 . S
O718 C729 1.239 1_655 S
O719 Mn715 2.221 . S
O719 Mn720 2.290 . S
O719 C730 1.278 . S
Mn720 O719 2.290 . S
Mn720 O722 2.089 1_655 S
Mn720 O725 2.251 . S
Mn720 O726 2.087 . S
O721 Mn715 2.163 . S
O721 C731 1.244 . S
O722 Mn720 2.089 1_455 S
O722 C729 1.256 . S
O723 Mn715 2.160 . S
O723 C732 1.239 . S
O724 Mn717 2.089 . S
O724 C732 1.256 . S
O725 Mn720 2.251 . S
O725 C730 1.241 . S
O726 Mn720 2.087 . S
O726 C731 1.256 . S
C727 O733 1.278 . S
C727 O734 1.241 . S
C728 O714 1.244 . S
C728 O716 1.256 . S
C729 O718 1.239 1_455 S
C729 O722 1.256 . S
C730 O719 1.278 . S
C730 O725 1.241 . S
C731 O721 1.244 . S
C731 O726 1.256 . S
C732 O723 1.239 . S
C732 O724 1.256 . S
O733 Mn715 2.221 . S
O733 Mn717 2.290 . S
O733 C727 1.278 . S
O734 Mn717 2.251 . S
O734 C727 1.241 . S
O735 Mn736 2.163 . S
O735 C749 1.244 . S
Mn736 O735 2.163 . S
Mn736 O739 2.160 . S
Mn736 O740 2.221 . S
Mn736 O742 2.163 . S
Mn736 O744 2.160 . S
Mn736 O754 2.221 . S
O737 Mn738 2.087 . S
O737 C749 1.256 . S
Mn738 O737 2.087 . S
Mn738 O745 2.089 . S
Mn738 O754 2.290 . S
Mn738 O755 2.251 . S
O739 Mn736 2.160 . S
O739 C750 1.239 . S
O740 Mn736 2.221 . S
O740 Mn741 2.290 . S
O740 C751 1.278 . S
Mn741 O740 2.290 . S
Mn741 O743 2.089 . S
Mn741 O746 2.251 . S
Mn741 O747 2.087 1_655 S
O742 Mn736 2.163 . S
O742 C752 1.244 1_655 S
O743 Mn741 2.089 . S
O743 C750 1.256 . S
O744 Mn736 2.160 . S
O744 C753 1.239 . S
O745 Mn738 2.089 . S
O745 C753 1.256 . S
O746 Mn741 2.251 . S
O746 C751 1.241 . S
O747 Mn741 2.087 1_455 S
O747 C752 1.256 . S
C748 O754 1.278 . S
C748 O755 1.241 . S
C749 O735 1.244 . S
C749 O737 1.256 . S
C750 O739 1.239 . S
C750 O743 1.256 . S
C751 O740 1.278 . S
C751 O746 1.241 . S
C752 O742 1.244 1_455 S
C752 O747 1.256 . S
C753 O744 1.239 . S
C753 O745 1.256 . S
O754 Mn736 2.221 . S
O754 Mn738 2.290 . S
O754 C748 1.278 . S
O755 Mn738 2.251 . S
O755 C748 1.241 . S
C756 C757 1.369 . S
C756 C758 1.419 . S
C756 H760 0.930 . S
C757 C756 1.369 . S
C757 C766 1.429 . S
C758 C756 1.419 . S
C758 C759 1.363 . S
C758 H761 0.929 . S
C759 C758 1.363 . S
C759 C765 1.428 . S
H760 C756 0.930 . S
H761 C758 0.929 . S
S762 N763 1.613 . S
S762 N764 1.610 . S
N763 S762 1.613 . S
N763 C766 1.350 . S
N764 S762 1.610 . S
N764 C765 1.351 . S
C765 C759 1.428 . S
C765 N764 1.351 . S
C765 C766 1.434 . S
C766 C757 1.429 . S
C766 N763 1.350 . S
C766 C765 1.434 . S
C767 C768 1.369 . S
C767 C769 1.419 . S
C767 H771 0.930 . S
C768 C767 1.369 . S
C768 C777 1.429 . S
C769 C767 1.419 . S
C769 C770 1.363 . S
C769 H772 0.929 1_655 S
C770 C769 1.363 . S
C770 C776 1.428 . S
H771 C767 0.930 . S
H772 C769 0.929 1_455 S
S773 N774 1.613 . S
S773 N775 1.610 . S
N774 S773 1.613 . S
N774 C777 1.350 . S
N775 S773 1.610 . S
N775 C776 1.351 . S
C776 C770 1.428 . S
C776 N775 1.351 . S
C776 C777 1.434 . S
C777 C768 1.429 . S
C777 N774 1.350 . S
C777 C776 1.434 . S
C778 C779 1.369 . S
C778 C780 1.419 . S
C778 H782 0.930 . S
C779 C778 1.369 . S
C779 C788 1.429 . S
C780 C778 1.419 . S
C780 C781 1.363 . S
C780 H783 0.929 . S
C781 C780 1.363 . S
C781 C787 1.428 . S
H782 C778 0.930 . S
H783 C780 0.929 . S
S784 N785 1.613 . S
S784 N786 1.610 . S
N785 S784 1.613 . S
N785 C788 1.350 . S
N786 S784 1.610 . S
N786 C787 1.351 . S
C787 C781 1.428 . S
C787 N786 1.351 . S
C787 C788 1.434 . S
C788 C779 1.429 . S
C788 N785 1.350 . S
C788 C787 1.434 . S
C789 C790 1.369 . S
C789 C791 1.419 . S
C789 H793 0.930 . S
C790 C789 1.369 . S
C790 C799 1.429 . S
C791 C789 1.419 . S
C791 C792 1.363 . S
C791 H794 0.929 . S
C792 C791 1.363 . S
C792 C798 1.428 . S
H793 C789 0.930 . S
H794 C791 0.929 . S
S795 N796 1.613 . S
S795 N797 1.610 . S
N796 S795 1.613 . S
N796 C799 1.350 . S
N797 S795 1.610 . S
N797 C798 1.351 . S
C798 C792 1.428 . S
C798 N797 1.351 . S
C798 C799 1.434 . S
C799 C790 1.429 . S
C799 N796 1.350 . S
C799 C798 1.434 . S
C800 C801 1.369 . S
C800 C802 1.419 . S
C800 H804 0.930 . S
C801 C800 1.369 . S
C801 C810 1.429 . S
C802 C800 1.419 . S
C802 C803 1.363 . S
C802 H805 0.929 . S
C803 C802 1.363 . S
C803 C809 1.428 . S
H804 C800 0.930 . S
H805 C802 0.929 . S
S806 N807 1.613 . S
S806 N808 1.610 . S
N807 S806 1.613 . S
N807 C810 1.350 . S
N808 S806 1.610 . S
N808 C809 1.351 . S
C809 C803 1.428 . S
C809 N808 1.351 . S
C809 C810 1.434 . S
C810 C801 1.429 . S
C810 N807 1.350 . S
C810 C809 1.434 . S
C811 C812 1.369 . S
C811 C813 1.419 . S
C811 H815 0.930 . S
C812 C811 1.369 . S
C812 C821 1.429 . S
C813 C811 1.419 . S
C813 C814 1.363 . S
C813 H816 0.929 . S
C814 C813 1.363 . S
C814 C820 1.428 . S
H815 C811 0.930 . S
H816 C813 0.929 . S
S817 N818 1.613 1_545 S
S817 N819 1.610 . S
N818 S817 1.613 1_565 S
N818 C821 1.350 . S
N819 S817 1.610 . S
N819 C820 1.351 1_545 S
C820 C814 1.428 . S
C820 N819 1.351 1_565 S
C820 C821 1.434 . S
C821 C812 1.429 . S
C821 N818 1.350 . S
C821 C820 1.434 . S
C822 C823 1.369 . S
C822 C824 1.419 . S
C822 H826 0.930 . S
C823 C822 1.369 . S
C823 C832 1.429 . S
C824 C822 1.419 . S
C824 C825 1.363 . S
C824 H827 0.929 . S
C825 C824 1.363 . S
C825 C831 1.428 . S
H826 C822 0.930 . S
H827 C824 0.929 . S
S828 N829 1.613 . S
S828 N830 1.610 . S
N829 S828 1.613 . S
N829 C832 1.350 1_545 S
N830 S828 1.610 . S
N830 C831 1.351 1_545 S
C831 C825 1.428 . S
C831 N830 1.351 1_565 S
C831 C832 1.434 . S
C832 C823 1.429 . S
C832 N829 1.350 1_565 S
C832 C831 1.434 . S
C833 C834 1.369 . S
C833 C835 1.419 . S
C833 H837 0.930 . S
C834 C833 1.369 . S
C834 C843 1.429 . S
C835 C833 1.419 . S
C835 C836 1.363 . S
C835 H838 0.929 . S
C836 C835 1.363 . S
C836 C842 1.428 . S
H837 C833 0.930 . S
H838 C835 0.929 . S
S839 N840 1.613 . S
S839 N841 1.610 . S
N840 S839 1.613 . S
N840 C843 1.350 . S
N841 S839 1.610 . S
N841 C842 1.351 . S
C842 C836 1.428 . S
C842 N841 1.351 . S
C842 C843 1.434 . S
C843 C834 1.429 . S
C843 N840 1.350 . S
C843 C842 1.434 . S
C844 C845 1.369 . S
C844 C846 1.419 . S
C844 H848 0.930 . S
C845 C844 1.369 . S
C845 C854 1.429 . S
C846 C844 1.419 . S
C846 C847 1.363 . S
C846 H849 0.929 . S
C847 C846 1.363 . S
C847 C853 1.428 . S
H848 C844 0.930 . S
H849 C846 0.929 . S
S850 N851 1.613 . S
S850 N852 1.610 . S
N851 S850 1.613 . S
N851 C854 1.350 . S
N852 S850 1.610 . S
N852 C853 1.351 . S
C853 C847 1.428 . S
C853 N852 1.351 . S
C853 C854 1.434 . S
C854 C845 1.429 . S
C854 N851 1.350 . S
C854 C853 1.434 . S
C855 C856 1.369 . S
C855 C857 1.419 . S
C855 H859 0.930 . S
C856 C855 1.369 . S
C856 C865 1.429 . S
C857 C855 1.419 . S
C857 C858 1.363 . S
C857 H860 0.929 . S
C858 C857 1.363 . S
C858 C864 1.428 . S
H859 C855 0.930 . S
H860 C857 0.929 . S
S861 N862 1.613 . S
S861 N863 1.610 . S
N862 S861 1.613 . S
N862 C865 1.350 . S
N863 S861 1.610 . S
N863 C864 1.351 . S
C864 C858 1.428 . S
C864 N863 1.351 . S
C864 C865 1.434 . S
C865 C856 1.429 . S
C865 N862 1.350 . S
C865 C864 1.434 . S
C866 C867 1.369 . S
C866 C868 1.419 . S
C866 H870 0.930 . S
C867 C866 1.369 . S
C867 C876 1.429 . S
C868 C866 1.419 . S
C868 C869 1.363 . S
C868 H871 0.929 . S
C869 C868 1.363 . S
C869 C875 1.428 . S
H870 C866 0.930 . S
H871 C868 0.929 . S
S872 N873 1.613 . S
S872 N874 1.610 . S
N873 S872 1.613 . S
N873 C876 1.350 . S
N874 S872 1.610 . S
N874 C875 1.351 . S
C875 C869 1.428 . S
C875 N874 1.351 . S
C875 C876 1.434 . S
C876 C867 1.429 . S
C876 N873 1.350 . S
C876 C875 1.434 . S
C877 C878 1.369 . S
C877 C879 1.419 . S
C877 H881 0.930 . S
C878 C877 1.369 . S
C878 C887 1.429 . S
C879 C877 1.419 . S
C879 C880 1.363 . S
C879 H882 0.929 . S
C880 C879 1.363 . S
C880 C886 1.428 . S
H881 C877 0.930 . S
H882 C879 0.929 . S
S883 N884 1.613 . S
S883 N885 1.610 . S
N884 S883 1.613 . S
N884 C887 1.350 . S
N885 S883 1.610 . S
N885 C886 1.351 . S
C886 C880 1.428 . S
C886 N885 1.351 . S
C886 C887 1.434 . S
C887 C878 1.429 . S
C887 N884 1.350 . S
C887 C886 1.434 . S
C888 C889 1.369 . S
C888 C890 1.419 . S
C888 H892 0.930 . S
C889 C888 1.369 . S
C889 C898 1.429 . S
C890 C888 1.419 . S
C890 C891 1.363 . S
C890 H893 0.929 . S
C891 C890 1.363 . S
C891 C897 1.428 . S
H892 C888 0.930 . S
H893 C890 0.929 . S
S894 N895 1.613 . S
S894 N896 1.610 . S
N895 S894 1.613 . S
N895 C898 1.350 . S
N896 S894 1.610 . S
N896 C897 1.351 . S
C897 C891 1.428 . S
C897 N896 1.351 . S
C897 C898 1.434 . S
C898 C889 1.429 . S
C898 N895 1.350 . S
C898 C897 1.434 . S
C899 C900 1.369 1_545 S
C899 C901 1.419 . S
C899 H903 0.930 . S
C900 C899 1.369 1_565 S
C900 C909 1.429 . S
C901 C899 1.419 . S
C901 C902 1.363 . S
C901 H904 0.929 . S
C902 C901 1.363 . S
C902 C908 1.428 . S
H903 C899 0.930 . S
H904 C901 0.929 . S
S905 N906 1.613 . S
S905 N907 1.610 . S
N906 S905 1.613 . S
N906 C909 1.350 . S
N907 S905 1.610 . S
N907 C908 1.351 1_565 S
C908 C902 1.428 . S
C908 N907 1.351 1_545 S
C908 C909 1.434 1_545 S
C909 C900 1.429 . S
C909 N906 1.350 . S
C909 C908 1.434 1_565 S
C910 C911 1.369 1_455 S
C910 C912 1.419 . S
C910 H914 0.930 . S
C911 C910 1.369 1_655 S
C911 C920 1.429 . S
C912 C910 1.419 . S
C912 C913 1.363 . S
C912 H915 0.929 . S
C913 C912 1.363 . S
C913 C919 1.428 . S
H914 C910 0.930 . S
H915 C912 0.929 . S
S916 N917 1.613 . S
S916 N918 1.610 1_655 S
N917 S916 1.613 . S
N917 C920 1.350 . S
N918 S916 1.610 1_455 S
N918 C919 1.351 . S
C919 C913 1.428 . S
C919 N918 1.351 . S
C919 C920 1.434 1_455 S
C920 C911 1.429 . S
C920 N917 1.350 . S
C920 C919 1.434 1_655 S
C921 C922 1.369 . S
C921 C923 1.419 . S
C921 H925 0.930 . S
C922 C921 1.369 . S
C922 C931 1.429 . S
C923 C921 1.419 . S
C923 C924 1.363 . S
C923 H926 0.929 . S
C924 C923 1.363 . S
C924 C930 1.428 . S
H925 C921 0.930 . S
H926 C923 0.929 . S
S927 N928 1.613 . S
S927 N929 1.610 . S
N928 S927 1.613 . S
N928 C931 1.350 . S
N929 S927 1.610 . S
N929 C930 1.351 . S
C930 C924 1.428 . S
C930 N929 1.351 . S
C930 C931 1.434 . S
C931 C922 1.429 . S
C931 N928 1.350 . S
C931 C930 1.434 . S
C932 C933 1.369 . S
C932 C934 1.419 1_565 S
C932 H936 0.930 . S
C933 C932 1.369 . S
C933 C942 1.429 1_565 S
C934 C932 1.419 1_545 S
C934 C935 1.363 . S
C934 H937 0.929 . S
C935 C934 1.363 . S
C935 C941 1.428 . S
H936 C932 0.930 . S
H937 C934 0.929 . S
S938 N939 1.613 . S
S938 N940 1.610 . S
N939 S938 1.613 . S
N939 C942 1.350 . S
N940 S938 1.610 . S
N940 C941 1.351 . S
C941 C935 1.428 . S
C941 N940 1.351 . S
C941 C942 1.434 . S
C942 C933 1.429 1_545 S
C942 N939 1.350 . S
C942 C941 1.434 . S
C943 C944 1.369 1_455 S
C943 C945 1.419 . S
C943 H947 0.930 . S
C944 C943 1.369 1_655 S
C944 C953 1.429 . S
C945 C943 1.419 . S
C945 C946 1.363 . S
C945 H948 0.929 . S
C946 C945 1.363 . S
C946 C952 1.428 . S
H947 C943 0.930 . S
H948 C945 0.929 . S
S949 N950 1.613 . S
S949 N951 1.610 1_655 S
N950 S949 1.613 . S
N950 C953 1.350 . S
N951 S949 1.610 1_455 S
N951 C952 1.351 . S
C952 C946 1.428 . S
C952 N951 1.351 . S
C952 C953 1.434 1_455 S
C953 C944 1.429 . S
C953 N950 1.350 . S
C953 C952 1.434 1_655 S
C954 C955 1.369 . S
C954 C956 1.419 1_554 S
C954 H958 0.930 . S
C955 C954 1.369 . S
C955 C964 1.429 1_545 S
C956 C954 1.419 1_556 S
C956 C957 1.363 . S
C956 H959 0.929 . S
C957 C956 1.363 . S
C957 C963 1.428 1_545 S
H958 C954 0.930 . S
H959 C956 0.929 . S
S960 N961 1.613 1_556 S
S960 N962 1.610 . S
N961 S960 1.613 1_554 S
N961 C964 1.350 . S
N962 S960 1.610 . S
N962 C963 1.351 . S
C963 C957 1.428 1_565 S
C963 N962 1.351 . S
C963 C964 1.434 1_556 S
C964 C955 1.429 1_565 S
C964 N961 1.350 . S
C964 C963 1.434 1_554 S
C965 C966 1.369 . S
C965 C967 1.419 1_556 S
C965 H969 0.930 1_455 S
C966 C965 1.369 . S
C966 C975 1.429 . S
C967 C965 1.419 1_554 S
C967 C968 1.363 . S
C967 H970 0.929 1_455 S
C968 C967 1.363 . S
C968 C974 1.428 . S
H969 C965 0.930 1_655 S
H970 C967 0.929 1_655 S
S971 N972 1.613 . S
S971 N973 1.610 1_556 S
N972 S971 1.613 . S
N972 C975 1.350 . S
N973 S971 1.610 1_554 S
N973 C974 1.351 . S
C974 C968 1.428 . S
C974 N973 1.351 . S
C974 C975 1.434 1_554 S
C975 C966 1.429 . S
C975 N972 1.350 . S
C975 C974 1.434 1_556 S
C976 C977 1.369 . S
C976 C978 1.419 1_554 S
C976 H980 0.930 . S
C977 C976 1.369 . S
C977 C986 1.429 . S
C978 C976 1.419 1_556 S
C978 C979 1.363 . S
C978 H981 0.929 . S
C979 C978 1.363 . S
C979 C985 1.428 . S
H980 C976 0.930 . S
H981 C978 0.929 . S
S982 N983 1.613 . S
S982 N984 1.610 1_554 S
N983 S982 1.613 . S
N983 C986 1.350 . S
N984 S982 1.610 1_556 S
N984 C985 1.351 . S
C985 C979 1.428 . S
C985 N984 1.351 . S
C985 C986 1.434 1_556 S
C986 C977 1.429 . S
C986 N983 1.350 . S
C986 C985 1.434 1_554 S
C987 C988 1.369 . S
C987 C989 1.419 . S
C987 H991 0.930 . S
C988 C987 1.369 . S
C988 C997 1.429 . S
C989 C987 1.419 . S
C989 C990 1.363 . S
C989 H992 0.929 . S
C990 C989 1.363 . S
C990 C996 1.428 . S
H991 C987 0.930 . S
H992 C989 0.929 . S
S993 N994 1.613 . S
S993 N995 1.610 . S
N994 S993 1.613 . S
N994 C997 1.350 . S
N995 S993 1.610 . S
N995 C996 1.351 . S
C996 C990 1.428 . S
C996 N995 1.351 . S
C996 C997 1.434 . S
C997 C988 1.429 . S
C997 N994 1.350 . S
C997 C996 1.434 . S
C998 C999 1.369 . S
C998 C1000 1.419 . S
C998 H1002 0.930 . S
C999 C998 1.369 . S
C999 C1008 1.429 . S
C1000 C998 1.419 . S
C1000 C1001 1.363 . S
C1000 H1003 0.929 . S
C1001 C1000 1.363 . S
C1001 C1007 1.428 . S
H1002 C998 0.930 . S
H1003 C1000 0.929 . S
S1004 N1005 1.613 . S
S1004 N1006 1.610 . S
N1005 S1004 1.613 . S
N1005 C1008 1.350 . S
N1006 S1004 1.610 . S
N1006 C1007 1.351 . S
C1007 C1001 1.428 . S
C1007 N1006 1.351 . S
C1007 C1008 1.434 . S
C1008 C999 1.429 . S
C1008 N1005 1.350 . S
C1008 C1007 1.434 . S
C1009 C1010 1.369 1_565 S
C1009 C1011 1.419 . S
C1009 H1013 0.930 . S
C1010 C1009 1.369 1_545 S
C1010 C1019 1.429 . S
C1011 C1009 1.419 . S
C1011 C1012 1.363 1_565 S
C1011 H1014 0.929 . S
C1012 C1011 1.363 1_545 S
C1012 C1018 1.428 . S
H1013 C1009 0.930 . S
H1014 C1011 0.929 . S
S1015 N1016 1.613 . S
S1015 N1017 1.610 . S
N1016 S1015 1.613 . S
N1016 C1019 1.350 . S
N1017 S1015 1.610 . S
N1017 C1018 1.351 . S
C1018 C1012 1.428 . S
C1018 N1017 1.351 . S
C1018 C1019 1.434 . S
C1019 C1010 1.429 . S
C1019 N1016 1.350 . S
C1019 C1018 1.434 . S
C1020 C1021 1.369 . S
C1020 C1022 1.419 . S
C1020 H1024 0.930 . S
C1021 C1020 1.369 . S
C1021 C1030 1.429 . S
C1022 C1020 1.419 . S
C1022 C1023 1.363 . S
C1022 H1025 0.929 . S
C1023 C1022 1.363 . S
C1023 C1029 1.428 . S
H1024 C1020 0.930 . S
H1025 C1022 0.929 . S
S1026 N1027 1.613 . S
S1026 N1028 1.610 . S
N1027 S1026 1.613 . S
N1027 C1030 1.350 . S
N1028 S1026 1.610 . S
N1028 C1029 1.351 . S
C1029 C1023 1.428 . S
C1029 N1028 1.351 . S
C1029 C1030 1.434 . S
C1030 C1021 1.429 . S
C1030 N1027 1.350 . S
C1030 C1029 1.434 . S
C1031 C1032 1.369 . S
C1031 C1033 1.419 . S
C1031 H1035 0.930 . S
C1032 C1031 1.369 . S
C1032 C1041 1.429 . S
C1033 C1031 1.419 . S
C1033 C1034 1.363 . S
C1033 H1036 0.929 . S
C1034 C1033 1.363 . S
C1034 C1040 1.428 . S
H1035 C1031 0.930 . S
H1036 C1033 0.929 . S
S1037 N1038 1.613 1_545 S
S1037 N1039 1.610 1_545 S
N1038 S1037 1.613 1_565 S
N1038 C1041 1.350 . S
N1039 S1037 1.610 1_565 S
N1039 C1040 1.351 . S
C1040 C1034 1.428 . S
C1040 N1039 1.351 . S
C1040 C1041 1.434 . S
C1041 C1032 1.429 . S
C1041 N1038 1.350 . S
C1041 C1040 1.434 . S
C1042 C1043 1.369 . S
C1042 C1044 1.419 . S
C1042 H1046 0.930 . S
C1043 C1042 1.369 . S
C1043 C1052 1.429 . S
C1044 C1042 1.419 . S
C1044 C1045 1.363 . S
C1044 H1047 0.929 . S
C1045 C1044 1.363 . S
C1045 C1051 1.428 . S
H1046 C1042 0.930 . S
H1047 C1044 0.929 . S
S1048 N1049 1.613 . S
S1048 N1050 1.610 . S
N1049 S1048 1.613 . S
N1049 C1052 1.350 . S
N1050 S1048 1.610 . S
N1050 C1051 1.351 . S
C1051 C1045 1.428 . S
C1051 N1050 1.351 . S
C1051 C1052 1.434 . S
C1052 C1043 1.429 . S
C1052 N1049 1.350 . S
C1052 C1051 1.434 . S
C1053 C1054 1.369 . S
C1053 C1055 1.419 . S
C1053 H1057 0.930 . S
C1054 C1053 1.369 . S
C1054 C1063 1.429 . S
C1055 C1053 1.419 . S
C1055 C1056 1.363 . S
C1055 H1058 0.929 . S
C1056 C1055 1.363 . S
C1056 C1062 1.428 . S
H1057 C1053 0.930 . S
H1058 C1055 0.929 . S
S1059 N1060 1.613 . S
S1059 N1061 1.610 . S
N1060 S1059 1.613 . S
N1060 C1063 1.350 . S
N1061 S1059 1.610 . S
N1061 C1062 1.351 . S
C1062 C1056 1.428 . S
C1062 N1061 1.351 . S
C1062 C1063 1.434 . S
C1063 C1054 1.429 . S
C1063 N1060 1.350 . S
C1063 C1062 1.434 . S
C1064 C1065 1.369 . S
C1064 C1066 1.419 . S
C1064 H1068 0.930 . S
C1065 C1064 1.369 . S
C1065 C1074 1.429 . S
C1066 C1064 1.419 . S
C1066 C1067 1.363 . S
C1066 H1069 0.929 . S
C1067 C1066 1.363 . S
C1067 C1073 1.428 . S
H1068 C1064 0.930 . S
H1069 C1066 0.929 . S
S1070 N1071 1.613 1_545 S
S1070 N1072 1.610 1_545 S
N1071 S1070 1.613 1_565 S
N1071 C1074 1.350 . S
N1072 S1070 1.610 1_565 S
N1072 C1073 1.351 . S
C1073 C1067 1.428 . S
C1073 N1072 1.351 . S
C1073 C1074 1.434 . S
C1074 C1065 1.429 . S
C1074 N1071 1.350 . S
C1074 C1073 1.434 . S
C1075 C1076 1.369 . S
C1075 C1077 1.419 . S
C1075 H1079 0.930 . S
C1076 C1075 1.369 . S
C1076 C1085 1.429 . S
C1077 C1075 1.419 . S
C1077 C1078 1.363 . S
C1077 H1080 0.929 . S
C1078 C1077 1.363 . S
C1078 C1084 1.428 . S
H1079 C1075 0.930 . S
H1080 C1077 0.929 . S
S1081 N1082 1.613 . S
S1081 N1083 1.610 . S
N1082 S1081 1.613 . S
N1082 C1085 1.350 . S
N1083 S1081 1.610 . S
N1083 C1084 1.351 . S
C1084 C1078 1.428 . S
C1084 N1083 1.351 . S
C1084 C1085 1.434 . S
C1085 C1076 1.429 . S
C1085 N1082 1.350 . S
C1085 C1084 1.434 . S
C1086 C1087 1.369 . S
C1086 C1088 1.419 . S
C1086 H1090 0.930 . S
C1087 C1086 1.369 . S
C1087 C1096 1.429 . S
C1088 C1086 1.419 . S
C1088 C1089 1.363 . S
C1088 H1091 0.929 . S
C1089 C1088 1.363 . S
C1089 C1095 1.428 . S
H1090 C1086 0.930 . S
H1091 C1088 0.929 . S
S1092 N1093 1.613 . S
S1092 N1094 1.610 . S
N1093 S1092 1.613 . S
N1093 C1096 1.350 . S
N1094 S1092 1.610 . S
N1094 C1095 1.351 . S
C1095 C1089 1.428 . S
C1095 N1094 1.351 . S
C1095 C1096 1.434 . S
C1096 C1087 1.429 . S
C1096 N1093 1.350 . S
C1096 C1095 1.434 . S
C1097 C1098 1.369 . S
C1097 C1099 1.419 . S
C1097 H1101 0.930 . S
C1098 C1097 1.369 . S
C1098 C1107 1.429 . S
C1099 C1097 1.419 . S
C1099 C1100 1.363 . S
C1099 H1102 0.929 . S
C1100 C1099 1.363 . S
C1100 C1106 1.428 . S
H1101 C1097 0.930 . S
H1102 C1099 0.929 . S
S1103 N1104 1.613 . S
S1103 N1105 1.610 . S
N1104 S1103 1.613 . S
N1104 C1107 1.350 . S
N1105 S1103 1.610 . S
N1105 C1106 1.351 . S
C1106 C1100 1.428 . S
C1106 N1105 1.351 . S
C1106 C1107 1.434 . S
C1107 C1098 1.429 . S
C1107 N1104 1.350 . S
C1107 C1106 1.434 . S
C1108 C1109 1.369 . S
C1108 C1110 1.419 . S
C1108 H1112 0.930 . S
C1109 C1108 1.369 . S
C1109 C1118 1.429 . S
C1110 C1108 1.419 . S
C1110 C1111 1.363 . S
C1110 H1113 0.929 . S
C1111 C1110 1.363 . S
C1111 C1117 1.428 . S
H1112 C1108 0.930 . S
H1113 C1110 0.929 . S
S1114 N1115 1.613 . S
S1114 N1116 1.610 . S
N1115 S1114 1.613 . S
N1115 C1118 1.350 . S
N1116 S1114 1.610 . S
N1116 C1117 1.351 . S
C1117 C1111 1.428 . S
C1117 N1116 1.351 . S
C1117 C1118 1.434 . S
C1118 C1109 1.429 . S
C1118 N1115 1.350 . S
C1118 C1117 1.434 . S
C1119 C1120 1.369 . S
C1119 C1121 1.419 . S
C1119 H1123 0.930 . S
C1120 C1119 1.369 . S
C1120 C1129 1.429 . S
C1121 C1119 1.419 . S
C1121 C1122 1.363 . S
C1121 H1124 0.929 . S
C1122 C1121 1.363 . S
C1122 C1128 1.428 . S
H1123 C1119 0.930 . S
H1124 C1121 0.929 . S
S1125 N1126 1.613 . S
S1125 N1127 1.610 . S
N1126 S1125 1.613 . S
N1126 C1129 1.350 . S
N1127 S1125 1.610 . S
N1127 C1128 1.351 . S
C1128 C1122 1.428 . S
C1128 N1127 1.351 . S
C1128 C1129 1.434 . S
C1129 C1120 1.429 . S
C1129 N1126 1.350 . S
C1129 C1128 1.434 . S
C1130 C1131 1.369 . S
C1130 C1132 1.419 . S
C1130 H1134 0.930 . S
C1131 C1130 1.369 . S
C1131 C1140 1.429 . S
C1132 C1130 1.419 . S
C1132 C1133 1.363 . S
C1132 H1135 0.929 . S
C1133 C1132 1.363 . S
C1133 C1139 1.428 . S
H1134 C1130 0.930 . S
H1135 C1132 0.929 . S
S1136 N1137 1.613 . S
S1136 N1138 1.610 . S
N1137 S1136 1.613 . S
N1137 C1140 1.350 . S
N1138 S1136 1.610 . S
N1138 C1139 1.351 . S
C1139 C1133 1.428 . S
C1139 N1138 1.351 . S
C1139 C1140 1.434 . S
C1140 C1131 1.429 . S
C1140 N1137 1.350 . S
C1140 C1139 1.434 . S
C1141 C1142 1.369 . S
C1141 C1143 1.419 . S
C1141 H1145 0.930 . S
C1142 C1141 1.369 . S
C1142 C1151 1.429 . S
C1143 C1141 1.419 . S
C1143 C1144 1.363 . S
C1143 H1146 0.929 . S
C1144 C1143 1.363 . S
C1144 C1150 1.428 . S
H1145 C1141 0.930 . S
H1146 C1143 0.929 . S
S1147 N1148 1.613 . S
S1147 N1149 1.610 . S
N1148 S1147 1.613 . S
N1148 C1151 1.350 . S
N1149 S1147 1.610 . S
N1149 C1150 1.351 . S
C1150 C1144 1.428 . S
C1150 N1149 1.351 . S
C1150 C1151 1.434 . S
C1151 C1142 1.429 . S
C1151 N1148 1.350 . S
C1151 C1150 1.434 . S
C1152 C1153 1.369 . S
C1152 C1154 1.419 . S
C1152 H1156 0.930 . S
C1153 C1152 1.369 . S
C1153 C1162 1.429 . S
C1154 C1152 1.419 . S
C1154 C1155 1.363 . S
C1154 H1157 0.929 . S
C1155 C1154 1.363 . S
C1155 C1161 1.428 . S
H1156 C1152 0.930 . S
H1157 C1154 0.929 . S
S1158 N1159 1.613 . S
S1158 N1160 1.610 . S
N1159 S1158 1.613 . S
N1159 C1162 1.350 . S
N1160 S1158 1.610 . S
N1160 C1161 1.351 . S
C1161 C1155 1.428 . S
C1161 N1160 1.351 . S
C1161 C1162 1.434 . S
C1162 C1153 1.429 . S
C1162 N1159 1.350 . S
C1162 C1161 1.434 . S
C1163 C1164 1.369 . S
C1163 C1165 1.419 . S
C1163 H1167 0.930 . S
C1164 C1163 1.369 . S
C1164 C1173 1.429 . S
C1165 C1163 1.419 . S
C1165 C1166 1.363 . S
C1165 H1168 0.929 . S
C1166 C1165 1.363 . S
C1166 C1172 1.428 . S
H1167 C1163 0.930 . S
H1168 C1165 0.929 . S
S1169 N1170 1.613 . S
S1169 N1171 1.610 . S
N1170 S1169 1.613 . S
N1170 C1173 1.350 . S
N1171 S1169 1.610 . S
N1171 C1172 1.351 . S
C1172 C1166 1.428 . S
C1172 N1171 1.351 . S
C1172 C1173 1.434 . S
C1173 C1164 1.429 . S
C1173 N1170 1.350 . S
C1173 C1172 1.434 . S
C1174 C1175 1.369 . S
C1174 C1176 1.419 . S
C1174 H1178 0.930 . S
C1175 C1174 1.369 . S
C1175 C1184 1.429 . S
C1176 C1174 1.419 . S
C1176 C1177 1.363 . S
C1176 H1179 0.929 . S
C1177 C1176 1.363 . S
C1177 C1183 1.428 . S
H1178 C1174 0.930 . S
H1179 C1176 0.929 . S
S1180 N1181 1.613 . S
S1180 N1182 1.610 . S
N1181 S1180 1.613 . S
N1181 C1184 1.350 . S
N1182 S1180 1.610 . S
N1182 C1183 1.351 . S
C1183 C1177 1.428 . S
C1183 N1182 1.351 . S
C1183 C1184 1.434 . S
C1184 C1175 1.429 . S
C1184 N1181 1.350 . S
C1184 C1183 1.434 . S
C1185 C1186 1.369 . S
C1185 C1187 1.419 . S
C1185 H1189 0.930 . S
C1186 C1185 1.369 . S
C1186 C1195 1.429 . S
C1187 C1185 1.419 . S
C1187 C1188 1.363 . S
C1187 H1190 0.929 . S
C1188 C1187 1.363 . S
C1188 C1194 1.428 . S
H1189 C1185 0.930 . S
H1190 C1187 0.929 . S
S1191 N1192 1.613 . S
S1191 N1193 1.610 . S
N1192 S1191 1.613 . S
N1192 C1195 1.350 . S
N1193 S1191 1.610 . S
N1193 C1194 1.351 . S
C1194 C1188 1.428 . S
C1194 N1193 1.351 . S
C1194 C1195 1.434 . S
C1195 C1186 1.429 . S
C1195 N1192 1.350 . S
C1195 C1194 1.434 . S
C1196 C1197 1.369 . S
C1196 C1198 1.419 . S
C1196 H1200 0.930 . S
C1197 C1196 1.369 . S
C1197 C1206 1.429 . S
C1198 C1196 1.419 . S
C1198 C1199 1.363 . S
C1198 H1201 0.929 . S
C1199 C1198 1.363 . S
C1199 C1205 1.428 . S
H1200 C1196 0.930 . S
H1201 C1198 0.929 . S
S1202 N1203 1.613 . S
S1202 N1204 1.610 . S
N1203 S1202 1.613 . S
N1203 C1206 1.350 . S
N1204 S1202 1.610 . S
N1204 C1205 1.351 . S
C1205 C1199 1.428 . S
C1205 N1204 1.351 . S
C1205 C1206 1.434 . S
C1206 C1197 1.429 . S
C1206 N1203 1.350 . S
C1206 C1205 1.434 . S
C1207 C1208 1.369 . S
C1207 C1209 1.419 . S
C1207 H1211 0.930 . S
C1208 C1207 1.369 . S
C1208 C1217 1.429 . S
C1209 C1207 1.419 . S
C1209 C1210 1.363 . S
C1209 H1212 0.929 . S
C1210 C1209 1.363 . S
C1210 C1216 1.428 . S
H1211 C1207 0.930 . S
H1212 C1209 0.929 . S
S1213 N1214 1.613 . S
S1213 N1215 1.610 . S
N1214 S1213 1.613 . S
N1214 C1217 1.350 . S
N1215 S1213 1.610 . S
N1215 C1216 1.351 . S
C1216 C1210 1.428 . S
C1216 N1215 1.351 . S
C1216 C1217 1.434 . S
C1217 C1208 1.429 . S
C1217 N1214 1.350 . S
C1217 C1216 1.434 . S
C1218 C1219 1.369 . S
C1218 C1220 1.419 . S
C1218 H1222 0.930 . S
C1219 C1218 1.369 . S
C1219 C1228 1.429 . S
C1220 C1218 1.419 . S
C1220 C1221 1.363 . S
C1220 H1223 0.929 . S
C1221 C1220 1.363 . S
C1221 C1227 1.428 . S
H1222 C1218 0.930 . S
H1223 C1220 0.929 . S
S1224 N1225 1.613 . S
S1224 N1226 1.610 . S
N1225 S1224 1.613 . S
N1225 C1228 1.350 . S
N1226 S1224 1.610 . S
N1226 C1227 1.351 . S
C1227 C1221 1.428 . S
C1227 N1226 1.351 . S
C1227 C1228 1.434 . S
C1228 C1219 1.429 . S
C1228 N1225 1.350 . S
C1228 C1227 1.434 . S
C1229 C1230 1.369 . S
C1229 C1231 1.419 . S
C1229 H1233 0.930 . S
C1230 C1229 1.369 . S
C1230 C1239 1.429 . S
C1231 C1229 1.419 . S
C1231 C1232 1.363 . S
C1231 H1234 0.929 . S
C1232 C1231 1.363 . S
C1232 C1238 1.428 . S
H1233 C1229 0.930 . S
H1234 C1231 0.929 . S
S1235 N1236 1.613 . S
S1235 N1237 1.610 . S
N1236 S1235 1.613 . S
N1236 C1239 1.350 . S
N1237 S1235 1.610 . S
N1237 C1238 1.351 . S
C1238 C1232 1.428 . S
C1238 N1237 1.351 . S
C1238 C1239 1.434 . S
C1239 C1230 1.429 . S
C1239 N1236 1.350 . S
C1239 C1238 1.434 . S
C1240 C1241 1.369 . S
C1240 C1242 1.419 . S
C1240 H1244 0.930 . S
C1241 C1240 1.369 . S
C1241 C1250 1.429 . S
C1242 C1240 1.419 . S
C1242 C1243 1.363 . S
C1242 H1245 0.929 . S
C1243 C1242 1.363 . S
C1243 C1249 1.428 . S
H1244 C1240 0.930 . S
H1245 C1242 0.929 . S
S1246 N1247 1.613 . S
S1246 N1248 1.610 . S
N1247 S1246 1.613 . S
N1247 C1250 1.350 . S
N1248 S1246 1.610 . S
N1248 C1249 1.351 . S
C1249 C1243 1.428 . S
C1249 N1248 1.351 . S
C1249 C1250 1.434 . S
C1250 C1241 1.429 . S
C1250 N1247 1.350 . S
C1250 C1249 1.434 . S
C1251 C1252 1.369 . S
C1251 C1253 1.419 . S
C1251 H1255 0.930 . S
C1252 C1251 1.369 . S
C1252 C1261 1.429 . S
C1253 C1251 1.419 . S
C1253 C1254 1.363 . S
C1253 H1256 0.929 . S
C1254 C1253 1.363 . S
C1254 C1260 1.428 . S
H1255 C1251 0.930 . S
H1256 C1253 0.929 . S
S1257 N1258 1.613 . S
S1257 N1259 1.610 . S
N1258 S1257 1.613 . S
N1258 C1261 1.350 . S
N1259 S1257 1.610 . S
N1259 C1260 1.351 . S
C1260 C1254 1.428 . S
C1260 N1259 1.351 . S
C1260 C1261 1.434 . S
C1261 C1252 1.429 . S
C1261 N1258 1.350 . S
C1261 C1260 1.434 . S
C1262 C1263 1.369 . S
C1262 C1264 1.419 . S
C1262 H1266 0.930 . S
C1263 C1262 1.369 . S
C1263 C1272 1.429 . S
C1264 C1262 1.419 . S
C1264 C1265 1.363 . S
C1264 H1267 0.929 . S
C1265 C1264 1.363 . S
C1265 C1271 1.428 . S
H1266 C1262 0.930 . S
H1267 C1264 0.929 . S
S1268 N1269 1.613 . S
S1268 N1270 1.610 . S
N1269 S1268 1.613 . S
N1269 C1272 1.350 . S
N1270 S1268 1.610 . S
N1270 C1271 1.351 . S
C1271 C1265 1.428 . S
C1271 N1270 1.351 . S
C1271 C1272 1.434 . S
C1272 C1263 1.429 . S
C1272 N1269 1.350 . S
C1272 C1271 1.434 . S
C1273 C1274 1.369 . S
C1273 C1275 1.419 . S
C1273 H1277 0.930 . S
C1274 C1273 1.369 . S
C1274 C1283 1.429 . S
C1275 C1273 1.419 . S
C1275 C1276 1.363 . S
C1275 H1278 0.929 . S
C1276 C1275 1.363 . S
C1276 C1282 1.428 . S
H1277 C1273 0.930 . S
H1278 C1275 0.929 . S
S1279 N1280 1.613 . S
S1279 N1281 1.610 . S
N1280 S1279 1.613 . S
N1280 C1283 1.350 . S
N1281 S1279 1.610 . S
N1281 C1282 1.351 . S
C1282 C1276 1.428 . S
C1282 N1281 1.351 . S
C1282 C1283 1.434 . S
C1283 C1274 1.429 . S
C1283 N1280 1.350 . S
C1283 C1282 1.434 . S
C1284 C1285 1.369 . S
C1284 C1286 1.419 . S
C1284 H1288 0.930 . S
C1285 C1284 1.369 . S
C1285 C1294 1.429 . S
C1286 C1284 1.419 . S
C1286 C1287 1.363 . S
C1286 H1289 0.929 . S
C1287 C1286 1.363 . S
C1287 C1293 1.428 . S
H1288 C1284 0.930 . S
H1289 C1286 0.929 . S
S1290 N1291 1.613 . S
S1290 N1292 1.610 . S
N1291 S1290 1.613 . S
N1291 C1294 1.350 . S
N1292 S1290 1.610 . S
N1292 C1293 1.351 . S
C1293 C1287 1.428 . S
C1293 N1292 1.351 . S
C1293 C1294 1.434 . S
C1294 C1285 1.429 . S
C1294 N1291 1.350 . S
C1294 C1293 1.434 . S
C1295 C1296 1.369 . S
C1295 C1297 1.419 . S
C1295 H1299 0.930 . S
C1296 C1295 1.369 . S
C1296 C1305 1.429 . S
C1297 C1295 1.419 . S
C1297 C1298 1.363 . S
C1297 H1300 0.929 . S
C1298 C1297 1.363 . S
C1298 C1304 1.428 . S
H1299 C1295 0.930 . S
H1300 C1297 0.929 . S
S1301 N1302 1.613 . S
S1301 N1303 1.610 . S
N1302 S1301 1.613 . S
N1302 C1305 1.350 . S
N1303 S1301 1.610 . S
N1303 C1304 1.351 . S
C1304 C1298 1.428 . S
C1304 N1303 1.351 . S
C1304 C1305 1.434 . S
C1305 C1296 1.429 . S
C1305 N1302 1.350 . S
C1305 C1304 1.434 . S
C1306 C1307 1.369 . S
C1306 C1308 1.419 . S
C1306 H1310 0.930 . S
C1307 C1306 1.369 . S
C1307 C1316 1.429 . S
C1308 C1306 1.419 . S
C1308 C1309 1.363 1_655 S
C1308 H1311 0.929 1_655 S
C1309 C1308 1.363 1_455 S
C1309 C1315 1.428 1_455 S
H1310 C1306 0.930 . S
H1311 C1308 0.929 1_455 S
S1312 N1313 1.613 . S
S1312 N1314 1.610 . S
N1313 S1312 1.613 . S
N1313 C1316 1.350 . S
N1314 S1312 1.610 . S
N1314 C1315 1.351 . S
C1315 C1309 1.428 1_655 S
C1315 N1314 1.351 . S
C1315 C1316 1.434 . S
C1316 C1307 1.429 . S
C1316 N1313 1.350 . S
C1316 C1315 1.434 . S
C1317 C1318 1.369 . S
C1317 C1319 1.419 . S
C1317 H1321 0.930 . S
C1318 C1317 1.369 . S
C1318 C1327 1.429 . S
C1319 C1317 1.419 . S
C1319 C1320 1.363 . S
C1319 H1322 0.929 . S
C1320 C1319 1.363 . S
C1320 C1326 1.428 . S
H1321 C1317 0.930 . S
H1322 C1319 0.929 . S
S1323 N1324 1.613 . S
S1323 N1325 1.610 . S
N1324 S1323 1.613 . S
N1324 C1327 1.350 . S
N1325 S1323 1.610 . S
N1325 C1326 1.351 . S
C1326 C1320 1.428 . S
C1326 N1325 1.351 . S
C1326 C1327 1.434 . S
C1327 C1318 1.429 . S
C1327 N1324 1.350 . S
C1327 C1326 1.434 . S
C1328 C1329 1.369 . S
C1328 C1330 1.419 . S
C1328 H1332 0.930 . S
C1329 C1328 1.369 . S
C1329 C1338 1.429 . S
C1330 C1328 1.419 . S
C1330 C1331 1.363 . S
C1330 H1333 0.929 . S
C1331 C1330 1.363 . S
C1331 C1337 1.428 . S
H1332 C1328 0.930 . S
H1333 C1330 0.929 . S
S1334 N1335 1.613 . S
S1334 N1336 1.610 . S
N1335 S1334 1.613 . S
N1335 C1338 1.350 . S
N1336 S1334 1.610 . S
N1336 C1337 1.351 . S
C1337 C1331 1.428 . S
C1337 N1336 1.351 . S
C1337 C1338 1.434 . S
C1338 C1329 1.429 . S
C1338 N1335 1.350 . S
C1338 C1337 1.434 . S
C1339 C1340 1.369 . S
C1339 C1341 1.419 . S
C1339 H1343 0.930 . S
C1340 C1339 1.369 . S
C1340 C1349 1.429 . S
C1341 C1339 1.419 . S
C1341 C1342 1.363 . S
C1341 H1344 0.929 . S
C1342 C1341 1.363 . S
C1342 C1348 1.428 . S
H1343 C1339 0.930 . S
H1344 C1341 0.929 . S
S1345 N1346 1.613 . S
S1345 N1347 1.610 . S
N1346 S1345 1.613 . S
N1346 C1349 1.350 . S
N1347 S1345 1.610 . S
N1347 C1348 1.351 . S
C1348 C1342 1.428 . S
C1348 N1347 1.351 . S
C1348 C1349 1.434 . S
C1349 C1340 1.429 . S
C1349 N1346 1.350 . S
C1349 C1348 1.434 . S
C1350 C1351 1.369 . S
C1350 C1352 1.419 . S
C1350 H1354 0.930 . S
C1351 C1350 1.369 . S
C1351 C1360 1.429 . S
C1352 C1350 1.419 . S
C1352 C1353 1.363 . S
C1352 H1355 0.929 . S
C1353 C1352 1.363 . S
C1353 C1359 1.428 . S
H1354 C1350 0.930 . S
H1355 C1352 0.929 . S
S1356 N1357 1.613 1_655 S
S1356 N1358 1.610 1_655 S
N1357 S1356 1.613 1_455 S
N1357 C1360 1.350 . S
N1358 S1356 1.610 1_455 S
N1358 C1359 1.351 . S
C1359 C1353 1.428 . S
C1359 N1358 1.351 . S
C1359 C1360 1.434 . S
C1360 C1351 1.429 . S
C1360 N1357 1.350 . S
C1360 C1359 1.434 . S
C1361 C1362 1.369 . S
C1361 C1363 1.419 . S
C1361 H1365 0.930 . S
C1362 C1361 1.369 . S
C1362 C1371 1.429 . S
C1363 C1361 1.419 . S
C1363 C1364 1.363 . S
C1363 H1366 0.929 . S
C1364 C1363 1.363 . S
C1364 C1370 1.428 . S
H1365 C1361 0.930 . S
H1366 C1363 0.929 . S
S1367 N1368 1.613 . S
S1367 N1369 1.610 . S
N1368 S1367 1.613 . S
N1368 C1371 1.350 . S
N1369 S1367 1.610 . S
N1369 C1370 1.351 . S
C1370 C1364 1.428 . S
C1370 N1369 1.351 . S
C1370 C1371 1.434 . S
C1371 C1362 1.429 . S
C1371 N1368 1.350 . S
C1371 C1370 1.434 . S
C1372 C1373 1.369 . S
C1372 C1374 1.419 . S
C1372 H1376 0.930 . S
C1373 C1372 1.369 . S
C1373 C1382 1.429 . S
C1374 C1372 1.419 . S
C1374 C1375 1.363 . S
C1374 H1377 0.929 . S
C1375 C1374 1.363 . S
C1375 C1381 1.428 . S
H1376 C1372 0.930 . S
H1377 C1374 0.929 . S
S1378 N1379 1.613 . S
S1378 N1380 1.610 . S
N1379 S1378 1.613 . S
N1379 C1382 1.350 1_545 S
N1380 S1378 1.610 . S
N1380 C1381 1.351 1_545 S
C1381 C1375 1.428 . S
C1381 N1380 1.351 1_565 S
C1381 C1382 1.434 . S
C1382 C1373 1.429 . S
C1382 N1379 1.350 1_565 S
C1382 C1381 1.434 . S
C1383 C1384 1.369 . S
C1383 C1385 1.419 . S
C1383 H1387 0.930 1_655 S
C1384 C1383 1.369 . S
C1384 C1393 1.429 . S
C1385 C1383 1.419 . S
C1385 C1386 1.363 . S
C1385 H1388 0.929 . S
C1386 C1385 1.363 . S
C1386 C1392 1.428 . S
H1387 C1383 0.930 1_455 S
H1388 C1385 0.929 . S
S1389 N1390 1.613 . S
S1389 N1391 1.610 . S
N1390 S1389 1.613 . S
N1390 C1393 1.350 . S
N1391 S1389 1.610 . S
N1391 C1392 1.351 . S
C1392 C1386 1.428 . S
C1392 N1391 1.351 . S
C1392 C1393 1.434 . S
C1393 C1384 1.429 . S
C1393 N1390 1.350 . S
C1393 C1392 1.434 . S
C1394 C1395 1.369 . S
C1394 C1396 1.419 . S
C1394 H1398 0.930 . S
C1395 C1394 1.369 . S
C1395 C1404 1.429 . S
C1396 C1394 1.419 . S
C1396 C1397 1.363 . S
C1396 H1399 0.929 . S
C1397 C1396 1.363 . S
C1397 C1403 1.428 . S
H1398 C1394 0.930 . S
H1399 C1396 0.929 . S
S1400 N1401 1.613 . S
S1400 N1402 1.610 . S
N1401 S1400 1.613 . S
N1401 C1404 1.350 . S
N1402 S1400 1.610 . S
N1402 C1403 1.351 . S
C1403 C1397 1.428 . S
C1403 N1402 1.351 . S
C1403 C1404 1.434 . S
C1404 C1395 1.429 . S
C1404 N1401 1.350 . S
C1404 C1403 1.434 . S
C1405 C1406 1.369 . S
C1405 C1407 1.419 . S
C1405 H1409 0.930 . S
C1406 C1405 1.369 . S
C1406 C1415 1.429 . S
C1407 C1405 1.419 . S
C1407 C1408 1.363 1_655 S
C1407 H1410 0.929 . S
C1408 C1407 1.363 1_455 S
C1408 C1414 1.428 1_455 S
H1409 C1405 0.930 . S
H1410 C1407 0.929 . S
S1411 N1412 1.613 1_455 S
S1411 N1413 1.610 . S
N1412 S1411 1.613 1_655 S
N1412 C1415 1.350 . S
N1413 S1411 1.610 . S
N1413 C1414 1.351 1_455 S
C1414 C1408 1.428 1_655 S
C1414 N1413 1.351 1_655 S
C1414 C1415 1.434 . S
C1415 C1406 1.429 . S
C1415 N1412 1.350 . S
C1415 C1414 1.434 . S
C1416 C1417 1.369 . S
C1416 C1418 1.419 . S
C1416 H1420 0.930 . S
C1417 C1416 1.369 . S
C1417 C1426 1.429 . S
C1418 C1416 1.419 . S
C1418 C1419 1.363 . S
C1418 H1421 0.929 . S
C1419 C1418 1.363 . S
C1419 C1425 1.428 . S
H1420 C1416 0.930 . S
H1421 C1418 0.929 . S
S1422 N1423 1.613 . S
S1422 N1424 1.610 . S
N1423 S1422 1.613 . S
N1423 C1426 1.350 . S
N1424 S1422 1.610 . S
N1424 C1425 1.351 . S
C1425 C1419 1.428 . S
C1425 N1424 1.351 . S
C1425 C1426 1.434 . S
C1426 C1417 1.429 . S
C1426 N1423 1.350 . S
C1426 C1425 1.434 . S
C1427 C1428 1.369 . S
C1427 C1429 1.419 . S
C1427 H1431 0.930 . S
C1428 C1427 1.369 . S
C1428 C1437 1.429 . S
C1429 C1427 1.419 . S
C1429 C1430 1.363 . S
C1429 H1432 0.929 . S
C1430 C1429 1.363 . S
C1430 C1436 1.428 . S
H1431 C1427 0.930 . S
H1432 C1429 0.929 . S
S1433 N1434 1.613 . S
S1433 N1435 1.610 . S
N1434 S1433 1.613 . S
N1434 C1437 1.350 . S
N1435 S1433 1.610 . S
N1435 C1436 1.351 . S
C1436 C1430 1.428 . S
C1436 N1435 1.351 . S
C1436 C1437 1.434 . S
C1437 C1428 1.429 . S
C1437 N1434 1.350 . S
C1437 C1436 1.434 . S
C1438 C1439 1.369 . S
C1438 C1440 1.419 . S
C1438 H1442 0.930 . S
C1439 C1438 1.369 . S
C1439 C1448 1.429 . S
C1440 C1438 1.419 . S
C1440 C1441 1.363 . S
C1440 H1443 0.929 . S
C1441 C1440 1.363 . S
C1441 C1447 1.428 . S
H1442 C1438 0.930 . S
H1443 C1440 0.929 . S
S1444 N1445 1.613 . S
S1444 N1446 1.610 . S
N1445 S1444 1.613 . S
N1445 C1448 1.350 . S
N1446 S1444 1.610 . S
N1446 C1447 1.351 . S
C1447 C1441 1.428 . S
C1447 N1446 1.351 . S
C1447 C1448 1.434 . S
C1448 C1439 1.429 . S
C1448 N1445 1.350 . S
C1448 C1447 1.434 . S
C1449 C1450 1.369 . S
C1449 C1451 1.419 . S
C1449 H1453 0.930 . S
C1450 C1449 1.369 . S
C1450 C1459 1.429 . S
C1451 C1449 1.419 . S
C1451 C1452 1.363 . S
C1451 H1454 0.929 . S
C1452 C1451 1.363 . S
C1452 C1458 1.428 . S
H1453 C1449 0.930 . S
H1454 C1451 0.929 . S
S1455 N1456 1.613 . S
S1455 N1457 1.610 . S
N1456 S1455 1.613 . S
N1456 C1459 1.350 . S
N1457 S1455 1.610 . S
N1457 C1458 1.351 . S
C1458 C1452 1.428 . S
C1458 N1457 1.351 . S
C1458 C1459 1.434 . S
C1459 C1450 1.429 . S
C1459 N1456 1.350 . S
C1459 C1458 1.434 . S
C1460 C1461 1.369 1_565 S
C1460 C1462 1.419 . S
C1460 H1464 0.930 1_565 S
C1461 C1460 1.369 1_545 S
C1461 C1470 1.429 1_545 S
C1462 C1460 1.419 . S
C1462 C1463 1.363 . S
C1462 H1465 0.929 . S
C1463 C1462 1.363 . S
C1463 C1469 1.428 . S
H1464 C1460 0.930 1_545 S
H1465 C1462 0.929 . S
S1466 N1467 1.613 . S
S1466 N1468 1.610 . S
N1467 S1466 1.613 . S
N1467 C1470 1.350 . S
N1468 S1466 1.610 . S
N1468 C1469 1.351 . S
C1469 C1463 1.428 . S
C1469 N1468 1.351 . S
C1469 C1470 1.434 . S
C1470 C1461 1.429 1_565 S
C1470 N1467 1.350 . S
C1470 C1469 1.434 . S
C1471 C1472 1.369 . S
C1471 C1473 1.419 . S
C1471 H1475 0.930 1_565 S
C1472 C1471 1.369 . S
C1472 C1481 1.429 . S
C1473 C1471 1.419 . S
C1473 C1474 1.363 . S
C1473 H1476 0.929 . S
C1474 C1473 1.363 . S
C1474 C1480 1.428 . S
H1475 C1471 0.930 1_545 S
H1476 C1473 0.929 . S
S1477 N1478 1.613 . S
S1477 N1479 1.610 . S
N1478 S1477 1.613 . S
N1478 C1481 1.350 . S
N1479 S1477 1.610 . S
N1479 C1480 1.351 . S
C1480 C1474 1.428 . S
C1480 N1479 1.351 . S
C1480 C1481 1.434 . S
C1481 C1472 1.429 . S
C1481 N1478 1.350 . S
C1481 C1480 1.434 . S
C1482 C1483 1.369 . S
C1482 C1484 1.419 . S
C1482 H1486 0.930 . S
C1483 C1482 1.369 . S
C1483 C1492 1.429 . S
C1484 C1482 1.419 . S
C1484 C1485 1.363 . S
C1484 H1487 0.929 . S
C1485 C1484 1.363 . S
C1485 C1491 1.428 . S
H1486 C1482 0.930 . S
H1487 C1484 0.929 . S
S1488 N1489 1.613 . S
S1488 N1490 1.610 . S
N1489 S1488 1.613 . S
N1489 C1492 1.350 . S
N1490 S1488 1.610 . S
N1490 C1491 1.351 . S
C1491 C1485 1.428 . S
C1491 N1490 1.351 . S
C1491 C1492 1.434 . S
C1492 C1483 1.429 . S
C1492 N1489 1.350 . S
C1492 C1491 1.434 . S
C1493 C1494 1.369 1_565 S
C1493 C1495 1.419 . S
C1493 H1497 0.930 1_565 S
C1494 C1493 1.369 1_545 S
C1494 C1503 1.429 1_545 S
C1495 C1493 1.419 . S
C1495 C1496 1.363 . S
C1495 H1498 0.929 . S
C1496 C1495 1.363 . S
C1496 C1502 1.428 . S
H1497 C1493 0.930 1_545 S
H1498 C1495 0.929 . S
S1499 N1500 1.613 . S
S1499 N1501 1.610 . S
N1500 S1499 1.613 . S
N1500 C1503 1.350 . S
N1501 S1499 1.610 . S
N1501 C1502 1.351 . S
C1502 C1496 1.428 . S
C1502 N1501 1.351 . S
C1502 C1503 1.434 . S
C1503 C1494 1.429 1_565 S
C1503 N1500 1.350 . S
C1503 C1502 1.434 . S
C1504 C1505 1.369 . S
C1504 C1506 1.419 . S
C1504 H1508 0.930 . S
C1505 C1504 1.369 . S
C1505 C1514 1.429 . S
C1506 C1504 1.419 . S
C1506 C1507 1.363 . S
C1506 H1509 0.929 . S
C1507 C1506 1.363 . S
C1507 C1513 1.428 . S
H1508 C1504 0.930 . S
H1509 C1506 0.929 . S
S1510 N1511 1.613 . S
S1510 N1512 1.610 . S
N1511 S1510 1.613 . S
N1511 C1514 1.350 . S
N1512 S1510 1.610 . S
N1512 C1513 1.351 . S
C1513 C1507 1.428 . S
C1513 N1512 1.351 . S
C1513 C1514 1.434 . S
C1514 C1505 1.429 . S
C1514 N1511 1.350 . S
C1514 C1513 1.434 . S
C1515 C1516 1.369 . S
C1515 C1517 1.419 . S
C1515 H1519 0.930 . S
C1516 C1515 1.369 . S
C1516 C1525 1.429 . S
C1517 C1515 1.419 . S
C1517 C1518 1.363 . S
C1517 H1520 0.929 . S
C1518 C1517 1.363 . S
C1518 C1524 1.428 . S
H1519 C1515 0.930 . S
H1520 C1517 0.929 . S
S1521 N1522 1.613 . S
S1521 N1523 1.610 . S
N1522 S1521 1.613 . S
N1522 C1525 1.350 . S
N1523 S1521 1.610 . S
N1523 C1524 1.351 . S
C1524 C1518 1.428 . S
C1524 N1523 1.351 . S
C1524 C1525 1.434 . S
C1525 C1516 1.429 . S
C1525 N1522 1.350 . S
C1525 C1524 1.434 . S
C1526 C1527 1.369 . S
C1526 C1528 1.419 . S
C1526 H1530 0.930 1_655 S
C1527 C1526 1.369 . S
C1527 C1536 1.429 . S
C1528 C1526 1.419 . S
C1528 C1529 1.363 . S
C1528 H1531 0.929 . S
C1529 C1528 1.363 . S
C1529 C1535 1.428 . S
H1530 C1526 0.930 1_455 S
H1531 C1528 0.929 . S
S1532 N1533 1.613 . S
S1532 N1534 1.610 . S
N1533 S1532 1.613 . S
N1533 C1536 1.350 . S
N1534 S1532 1.610 . S
N1534 C1535 1.351 . S
C1535 C1529 1.428 . S
C1535 N1534 1.351 . S
C1535 C1536 1.434 . S
C1536 C1527 1.429 . S
C1536 N1533 1.350 . S
C1536 C1535 1.434 . S
C1537 C1538 1.369 . S
C1537 C1539 1.419 . S
C1537 H1541 0.930 . S
C1538 C1537 1.369 . S
C1538 C1547 1.429 . S
C1539 C1537 1.419 . S
C1539 C1540 1.363 . S
C1539 H1542 0.929 . S
C1540 C1539 1.363 . S
C1540 C1546 1.428 . S
H1541 C1537 0.930 . S
H1542 C1539 0.929 . S
S1543 N1544 1.613 . S
S1543 N1545 1.610 . S
N1544 S1543 1.613 . S
N1544 C1547 1.350 . S
N1545 S1543 1.610 . S
N1545 C1546 1.351 . S
C1546 C1540 1.428 . S
C1546 N1545 1.351 . S
C1546 C1547 1.434 . S
C1547 C1538 1.429 . S
C1547 N1544 1.350 . S
C1547 C1546 1.434 . S
C1548 C1549 1.369 . S
C1548 C1550 1.419 . S
C1548 H1552 0.930 . S
C1549 C1548 1.369 . S
C1549 C1558 1.429 . S
C1550 C1548 1.419 . S
C1550 C1551 1.363 . S
C1550 H1553 0.929 . S
C1551 C1550 1.363 . S
C1551 C1557 1.428 . S
H1552 C1548 0.930 . S
H1553 C1550 0.929 . S
S1554 N1555 1.613 . S
S1554 N1556 1.610 . S
N1555 S1554 1.613 . S
N1555 C1558 1.350 . S
N1556 S1554 1.610 . S
N1556 C1557 1.351 . S
C1557 C1551 1.428 . S
C1557 N1556 1.351 . S
C1557 C1558 1.434 . S
C1558 C1549 1.429 . S
C1558 N1555 1.350 . S
C1558 C1557 1.434 . S
C1559 C1560 1.369 . S
C1559 C1561 1.419 . S
C1559 H1563 0.930 . S
C1560 C1559 1.369 . S
C1560 C1569 1.429 . S
C1561 C1559 1.419 . S
C1561 C1562 1.363 . S
C1561 H1564 0.929 . S
C1562 C1561 1.363 . S
C1562 C1568 1.428 . S
H1563 C1559 0.930 . S
H1564 C1561 0.929 . S
S1565 N1566 1.613 . S
S1565 N1567 1.610 . S
N1566 S1565 1.613 . S
N1566 C1569 1.350 . S
N1567 S1565 1.610 . S
N1567 C1568 1.351 . S
C1568 C1562 1.428 . S
C1568 N1567 1.351 . S
C1568 C1569 1.434 . S
C1569 C1560 1.429 . S
C1569 N1566 1.350 . S
C1569 C1568 1.434 . S
C1570 C1571 1.369 . S
C1570 C1572 1.419 . S
C1570 H1574 0.930 . S
C1571 C1570 1.369 . S
C1571 C1580 1.429 . S
C1572 C1570 1.419 . S
C1572 C1573 1.363 . S
C1572 H1575 0.929 . S
C1573 C1572 1.363 . S
C1573 C1579 1.428 . S
H1574 C1570 0.930 . S
H1575 C1572 0.929 . S
S1576 N1577 1.613 . S
S1576 N1578 1.610 . S
N1577 S1576 1.613 . S
N1577 C1580 1.350 . S
N1578 S1576 1.610 . S
N1578 C1579 1.351 . S
C1579 C1573 1.428 . S
C1579 N1578 1.351 . S
C1579 C1580 1.434 . S
C1580 C1571 1.429 . S
C1580 N1577 1.350 . S
C1580 C1579 1.434 . S
C1581 C1582 1.369 . S
C1581 C1583 1.419 . S
C1581 H1585 0.930 . S
C1582 C1581 1.369 . S
C1582 C1591 1.429 . S
C1583 C1581 1.419 . S
C1583 C1584 1.363 . S
C1583 H1586 0.929 . S
C1584 C1583 1.363 . S
C1584 C1590 1.428 . S
H1585 C1581 0.930 . S
H1586 C1583 0.929 . S
S1587 N1588 1.613 . S
S1587 N1589 1.610 . S
N1588 S1587 1.613 . S
N1588 C1591 1.350 . S
N1589 S1587 1.610 . S
N1589 C1590 1.351 . S
C1590 C1584 1.428 . S
C1590 N1589 1.351 . S
C1590 C1591 1.434 . S
C1591 C1582 1.429 . S
C1591 N1588 1.350 . S
C1591 C1590 1.434 . S
C1592 C1593 1.369 . S
C1592 C1594 1.419 . S
C1592 H1596 0.930 . S
C1593 C1592 1.369 . S
C1593 C1602 1.429 . S
C1594 C1592 1.419 . S
C1594 C1595 1.363 . S
C1594 H1597 0.929 . S
C1595 C1594 1.363 . S
C1595 C1601 1.428 . S
H1596 C1592 0.930 . S
H1597 C1594 0.929 . S
S1598 N1599 1.613 . S
S1598 N1600 1.610 . S
N1599 S1598 1.613 . S
N1599 C1602 1.350 . S
N1600 S1598 1.610 . S
N1600 C1601 1.351 . S
C1601 C1595 1.428 . S
C1601 N1600 1.351 . S
C1601 C1602 1.434 . S
C1602 C1593 1.429 . S
C1602 N1599 1.350 . S
C1602 C1601 1.434 . S
C1603 C1604 1.369 . S
C1603 C1605 1.419 . S
C1603 H1607 0.930 . S
C1604 C1603 1.369 . S
C1604 C1613 1.429 . S
C1605 C1603 1.419 . S
C1605 C1606 1.363 . S
C1605 H1608 0.929 . S
C1606 C1605 1.363 . S
C1606 C1612 1.428 . S
H1607 C1603 0.930 . S
H1608 C1605 0.929 . S
S1609 N1610 1.613 . S
S1609 N1611 1.610 . S
N1610 S1609 1.613 . S
N1610 C1613 1.350 . S
N1611 S1609 1.610 . S
N1611 C1612 1.351 . S
C1612 C1606 1.428 . S
C1612 N1611 1.351 . S
C1612 C1613 1.434 . S
C1613 C1604 1.429 . S
C1613 N1610 1.350 . S
C1613 C1612 1.434 . S
C1614 C1615 1.369 . S
C1614 C1616 1.419 . S
C1614 H1618 0.930 . S
C1615 C1614 1.369 . S
C1615 C1624 1.429 . S
C1616 C1614 1.419 . S
C1616 C1617 1.363 . S
C1616 H1619 0.929 . S
C1617 C1616 1.363 . S
C1617 C1623 1.428 . S
H1618 C1614 0.930 . S
H1619 C1616 0.929 . S
S1620 N1621 1.613 . S
S1620 N1622 1.610 . S
N1621 S1620 1.613 . S
N1621 C1624 1.350 . S
N1622 S1620 1.610 . S
N1622 C1623 1.351 . S
C1623 C1617 1.428 . S
C1623 N1622 1.351 . S
C1623 C1624 1.434 . S
C1624 C1615 1.429 . S
C1624 N1621 1.350 . S
C1624 C1623 1.434 . S
C1625 C1626 1.369 . S
C1625 C1627 1.419 . S
C1625 H1629 0.930 . S
C1626 C1625 1.369 . S
C1626 C1635 1.429 . S
C1627 C1625 1.419 . S
C1627 C1628 1.363 . S
C1627 H1630 0.929 . S
C1628 C1627 1.363 . S
C1628 C1634 1.428 . S
H1629 C1625 0.930 . S
H1630 C1627 0.929 . S
S1631 N1632 1.613 . S
S1631 N1633 1.610 . S
N1632 S1631 1.613 . S
N1632 C1635 1.350 . S
N1633 S1631 1.610 . S
N1633 C1634 1.351 . S
C1634 C1628 1.428 . S
C1634 N1633 1.351 . S
C1634 C1635 1.434 . S
C1635 C1626 1.429 . S
C1635 N1632 1.350 . S
C1635 C1634 1.434 . S
C1636 C1637 1.369 . S
C1636 C1638 1.419 . S
C1636 H1640 0.930 . S
C1637 C1636 1.369 . S
C1637 C1646 1.429 . S
C1638 C1636 1.419 . S
C1638 C1639 1.363 . S
C1638 H1641 0.929 . S
C1639 C1638 1.363 . S
C1639 C1645 1.428 . S
H1640 C1636 0.930 . S
H1641 C1638 0.929 . S
S1642 N1643 1.613 . S
S1642 N1644 1.610 . S
N1643 S1642 1.613 . S
N1643 C1646 1.350 . S
N1644 S1642 1.610 . S
N1644 C1645 1.351 . S
C1645 C1639 1.428 . S
C1645 N1644 1.351 . S
C1645 C1646 1.434 . S
C1646 C1637 1.429 . S
C1646 N1643 1.350 . S
C1646 C1645 1.434 . S
C1647 C1648 1.369 . S
C1647 C1649 1.419 . S
C1647 H1651 0.930 . S
C1648 C1647 1.369 . S
C1648 C1657 1.429 . S
C1649 C1647 1.419 . S
C1649 C1650 1.363 . S
C1649 H1652 0.929 . S
C1650 C1649 1.363 . S
C1650 C1656 1.428 . S
H1651 C1647 0.930 . S
H1652 C1649 0.929 . S
S1653 N1654 1.613 . S
S1653 N1655 1.610 . S
N1654 S1653 1.613 . S
N1654 C1657 1.350 . S
N1655 S1653 1.610 . S
N1655 C1656 1.351 . S
C1656 C1650 1.428 . S
C1656 N1655 1.351 . S
C1656 C1657 1.434 . S
C1657 C1648 1.429 . S
C1657 N1654 1.350 . S
C1657 C1656 1.434 . S
C1658 C1659 1.369 . S
C1658 C1660 1.419 . S
C1658 H1662 0.930 . S
C1659 C1658 1.369 . S
C1659 C1668 1.429 . S
C1660 C1658 1.419 . S
C1660 C1661 1.363 . S
C1660 H1663 0.929 . S
C1661 C1660 1.363 . S
C1661 C1667 1.428 . S
H1662 C1658 0.930 . S
H1663 C1660 0.929 . S
S1664 N1665 1.613 . S
S1664 N1666 1.610 . S
N1665 S1664 1.613 . S
N1665 C1668 1.350 . S
N1666 S1664 1.610 . S
N1666 C1667 1.351 . S
C1667 C1661 1.428 . S
C1667 N1666 1.351 . S
C1667 C1668 1.434 . S
C1668 C1659 1.429 . S
C1668 N1665 1.350 . S
C1668 C1667 1.434 . S
C1669 C1670 1.369 . S
C1669 C1671 1.419 . S
C1669 H1673 0.930 . S
C1670 C1669 1.369 . S
C1670 C1679 1.429 . S
C1671 C1669 1.419 . S
C1671 C1672 1.363 . S
C1671 H1674 0.929 . S
C1672 C1671 1.363 . S
C1672 C1678 1.428 . S
H1673 C1669 0.930 . S
H1674 C1671 0.929 . S
S1675 N1676 1.613 . S
S1675 N1677 1.610 . S
N1676 S1675 1.613 . S
N1676 C1679 1.350 . S
N1677 S1675 1.610 . S
N1677 C1678 1.351 . S
C1678 C1672 1.428 . S
C1678 N1677 1.351 . S
C1678 C1679 1.434 . S
C1679 C1670 1.429 . S
C1679 N1676 1.350 . S
C1679 C1678 1.434 . S
C1680 C1681 1.369 . S
C1680 C1682 1.419 . S
C1680 H1684 0.930 . S
C1681 C1680 1.369 . S
C1681 C1690 1.429 . S
C1682 C1680 1.419 . S
C1682 C1683 1.363 . S
C1682 H1685 0.929 . S
C1683 C1682 1.363 . S
C1683 C1689 1.428 . S
H1684 C1680 0.930 . S
H1685 C1682 0.929 . S
S1686 N1687 1.613 . S
S1686 N1688 1.610 . S
N1687 S1686 1.613 . S
N1687 C1690 1.350 . S
N1688 S1686 1.610 . S
N1688 C1689 1.351 . S
C1689 C1683 1.428 . S
C1689 N1688 1.351 . S
C1689 C1690 1.434 . S
C1690 C1681 1.429 . S
C1690 N1687 1.350 . S
C1690 C1689 1.434 . S
C1691 C1692 1.369 . S
C1691 C1693 1.419 . S
C1691 H1695 0.930 . S
C1692 C1691 1.369 . S
C1692 C1701 1.429 . S
C1693 C1691 1.419 . S
C1693 C1694 1.363 . S
C1693 H1696 0.929 . S
C1694 C1693 1.363 . S
C1694 C1700 1.428 . S
H1695 C1691 0.930 . S
H1696 C1693 0.929 . S
S1697 N1698 1.613 . S
S1697 N1699 1.610 . S
N1698 S1697 1.613 . S
N1698 C1701 1.350 . S
N1699 S1697 1.610 . S
N1699 C1700 1.351 . S
C1700 C1694 1.428 . S
C1700 N1699 1.351 . S
C1700 C1701 1.434 . S
C1701 C1692 1.429 . S
C1701 N1698 1.350 . S
C1701 C1700 1.434 . S
C1702 C1703 1.369 . S
C1702 C1704 1.419 . S
C1702 H1706 0.930 . S
C1703 C1702 1.369 . S
C1703 C1712 1.429 . S
C1704 C1702 1.419 . S
C1704 C1705 1.363 . S
C1704 H1707 0.929 . S
C1705 C1704 1.363 . S
C1705 C1711 1.428 . S
H1706 C1702 0.930 . S
H1707 C1704 0.929 . S
S1708 N1709 1.613 . S
S1708 N1710 1.610 . S
N1709 S1708 1.613 . S
N1709 C1712 1.350 . S
N1710 S1708 1.610 . S
N1710 C1711 1.351 . S
C1711 C1705 1.428 . S
C1711 N1710 1.351 . S
C1711 C1712 1.434 . S
C1712 C1703 1.429 . S
C1712 N1709 1.350 . S
C1712 C1711 1.434 . S
C1713 C1714 1.369 1_655 S
C1713 C1715 1.419 . S
C1713 H1717 0.930 . S
C1714 C1713 1.369 1_455 S
C1714 C1723 1.429 1_455 S
C1715 C1713 1.419 . S
C1715 C1716 1.363 . S
C1715 H1718 0.929 . S
C1716 C1715 1.363 . S
C1716 C1722 1.428 . S
H1717 C1713 0.930 . S
H1718 C1715 0.929 . S
S1719 N1720 1.619 1_545 S
S1719 N1721 1.606 1_445 S
N1720 S1719 1.619 1_565 S
N1720 C1723 1.350 1_455 S
N1721 S1719 1.606 1_665 S
N1721 C1722 1.351 . S
C1722 C1716 1.428 . S
C1722 N1721 1.351 . S
C1722 C1723 1.434 . S
C1723 C1714 1.429 1_655 S
C1723 N1720 1.350 1_655 S
C1723 C1722 1.434 . S
C1724 C1725 1.369 . S
C1724 C1726 1.419 . S
C1724 H1728 0.930 . S
C1725 C1724 1.369 . S
C1725 C1734 1.429 . S
C1726 C1724 1.419 . S
C1726 C1727 1.363 . S
C1726 H1729 0.929 . S
C1727 C1726 1.363 . S
C1727 C1733 1.428 . S
H1728 C1724 0.930 . S
H1729 C1726 0.929 . S
S1730 N1731 1.613 . S
S1730 N1732 1.610 . S
N1731 S1730 1.613 . S
N1731 C1734 1.350 . S
N1732 S1730 1.610 . S
N1732 C1733 1.351 . S
C1733 C1727 1.428 . S
C1733 N1732 1.351 . S
C1733 C1734 1.434 . S
C1734 C1725 1.429 . S
C1734 N1731 1.350 . S
C1734 C1733 1.434 . S
C1735 C1736 1.369 . S
C1735 C1737 1.419 . S
C1735 H1739 0.930 . S
C1736 C1735 1.369 . S
C1736 C1745 1.429 . S
C1737 C1735 1.419 . S
C1737 C1738 1.363 . S
C1737 H1740 0.929 . S
C1738 C1737 1.363 . S
C1738 C1744 1.428 . S
H1739 C1735 0.930 . S
H1740 C1737 0.929 . S
S1741 N1742 1.613 . S
S1741 N1743 1.610 . S
N1742 S1741 1.613 . S
N1742 C1745 1.350 . S
N1743 S1741 1.610 . S
N1743 C1744 1.351 . S
C1744 C1738 1.428 . S
C1744 N1743 1.351 . S
C1744 C1745 1.434 . S
C1745 C1736 1.429 . S
C1745 N1742 1.350 . S
C1745 C1744 1.434 . S
C1746 C1747 1.369 . S
C1746 C1748 1.419 . S
C1746 H1750 0.930 . S
C1747 C1746 1.369 . S
C1747 C1756 1.429 . S
C1748 C1746 1.419 . S
C1748 C1749 1.363 . S
C1748 H1751 0.929 . S
C1749 C1748 1.363 . S
C1749 C1755 1.428 . S
H1750 C1746 0.930 . S
H1751 C1748 0.929 . S
S1752 N1753 1.613 . S
S1752 N1754 1.610 . S
N1753 S1752 1.613 . S
N1753 C1756 1.350 . S
N1754 S1752 1.610 . S
N1754 C1755 1.351 . S
C1755 C1749 1.428 . S
C1755 N1754 1.351 . S
C1755 C1756 1.434 . S
C1756 C1747 1.429 . S
C1756 N1753 1.350 . S
C1756 C1755 1.434 . S
C1757 C1758 1.369 1_655 S
C1757 C1759 1.419 . S
C1757 H1761 0.930 . S
C1758 C1757 1.369 1_455 S
C1758 C1767 1.429 . S
C1759 C1757 1.419 . S
C1759 C1760 1.363 . S
C1759 H1762 0.929 . S
C1760 C1759 1.363 . S
C1760 C1766 1.428 . S
H1761 C1757 0.930 . S
H1762 C1759 0.929 . S
S1763 N1764 1.613 . S
S1763 N1765 1.610 1_455 S
N1764 S1763 1.613 . S
N1764 C1767 1.350 . S
N1765 S1763 1.610 1_655 S
N1765 C1766 1.351 . S
C1766 C1760 1.428 . S
C1766 N1765 1.351 . S
C1766 C1767 1.434 1_655 S
C1767 C1758 1.429 . S
C1767 N1764 1.350 . S
C1767 C1766 1.434 1_455 S
C1768 C1769 1.369 1_455 S
C1768 C1770 1.419 1_455 S
C1768 H1772 0.930 . S
C1769 C1768 1.369 1_655 S
C1769 C1778 1.429 . S
C1770 C1768 1.419 1_655 S
C1770 C1771 1.363 . S
C1770 H1773 0.929 . S
C1771 C1770 1.363 . S
C1771 C1777 1.428 . S
H1772 C1768 0.930 . S
H1773 C1770 0.929 . S
S1774 N1775 1.613 . S
S1774 N1776 1.610 . S
N1775 S1774 1.613 . S
N1775 C1778 1.350 . S
N1776 S1774 1.610 . S
N1776 C1777 1.351 . S
C1777 C1771 1.428 . S
C1777 N1776 1.351 . S
C1777 C1778 1.434 . S
C1778 C1769 1.429 . S
C1778 N1775 1.350 . S
C1778 C1777 1.434 . S
C1779 C1780 1.369 . S
C1779 C1781 1.419 . S
C1779 H1783 0.930 . S
C1780 C1779 1.369 . S
C1780 C1789 1.429 . S
C1781 C1779 1.419 . S
C1781 C1782 1.363 . S
C1781 H1784 0.929 . S
C1782 C1781 1.363 . S
C1782 C1788 1.428 . S
H1783 C1779 0.930 . S
H1784 C1781 0.929 . S
S1785 N1786 1.613 . S
S1785 N1787 1.610 . S
N1786 S1785 1.613 . S
N1786 C1789 1.350 . S
N1787 S1785 1.610 . S
N1787 C1788 1.351 . S
C1788 C1782 1.428 . S
C1788 N1787 1.351 . S
C1788 C1789 1.434 . S
C1789 C1780 1.429 . S
C1789 N1786 1.350 . S
C1789 C1788 1.434 . S
C1790 C1791 1.369 . S
C1790 C1792 1.419 . S
C1790 H1794 0.930 . S
C1791 C1790 1.369 . S
C1791 C1800 1.429 . S
C1792 C1790 1.419 . S
C1792 C1793 1.363 . S
C1792 H1795 0.929 . S
C1793 C1792 1.363 . S
C1793 C1799 1.428 . S
H1794 C1790 0.930 . S
H1795 C1792 0.929 . S
S1796 N1797 1.613 . S
S1796 N1798 1.610 . S
N1797 S1796 1.613 . S
N1797 C1800 1.350 . S
N1798 S1796 1.610 . S
N1798 C1799 1.351 . S
C1799 C1793 1.428 . S
C1799 N1798 1.351 . S
C1799 C1800 1.434 . S
C1800 C1791 1.429 . S
C1800 N1797 1.350 . S
C1800 C1799 1.434 . S
C1801 C1802 1.369 . S
C1801 C1803 1.419 . S
C1801 H1805 0.930 . S
C1802 C1801 1.369 . S
C1802 C1811 1.429 . S
C1803 C1801 1.419 . S
C1803 C1804 1.363 . S
C1803 H1806 0.929 . S
C1804 C1803 1.363 . S
C1804 C1810 1.428 . S
H1805 C1801 0.930 . S
H1806 C1803 0.929 . S
S1807 N1808 1.613 . S
S1807 N1809 1.610 . S
N1808 S1807 1.613 . S
N1808 C1811 1.350 . S
N1809 S1807 1.610 . S
N1809 C1810 1.351 . S
C1810 C1804 1.428 . S
C1810 N1809 1.351 . S
C1810 C1811 1.434 . S
C1811 C1802 1.429 . S
C1811 N1808 1.350 . S
C1811 C1810 1.434 . S
C1812 C1813 1.369 . S
C1812 C1814 1.411 1_565 S
C1812 H1816 0.930 . S
C1813 C1812 1.369 . S
C1813 C1822 1.429 . S
C1814 C1812 1.411 1_545 S
C1814 C1815 1.367 . S
C1814 H1817 0.933 . S
C1815 C1814 1.367 . S
C1815 C1821 1.428 1_545 S
H1816 C1812 0.930 . S
H1817 C1814 0.933 . S
S1818 N1819 1.613 . S
S1818 N1820 1.610 . S
N1819 S1818 1.613 . S
N1819 C1822 1.350 . S
N1820 S1818 1.610 . S
N1820 C1821 1.351 . S
C1821 C1815 1.428 1_565 S
C1821 N1820 1.351 . S
C1821 C1822 1.434 . S
C1822 C1813 1.429 . S
C1822 N1819 1.350 . S
C1822 C1821 1.434 . S
C1823 C1824 1.369 . S
C1823 C1825 1.419 . S
C1823 H1827 0.930 . S
C1824 C1823 1.369 . S
C1824 C1833 1.429 . S
C1825 C1823 1.419 . S
C1825 C1826 1.363 . S
C1825 H1828 0.929 1_565 S
C1826 C1825 1.363 . S
C1826 C1832 1.428 . S
H1827 C1823 0.930 . S
H1828 C1825 0.929 1_545 S
S1829 N1830 1.613 . S
S1829 N1831 1.610 . S
N1830 S1829 1.613 . S
N1830 C1833 1.350 . S
N1831 S1829 1.610 . S
N1831 C1832 1.351 . S
C1832 C1826 1.428 . S
C1832 N1831 1.351 . S
C1832 C1833 1.434 . S
C1833 C1824 1.429 . S
C1833 N1830 1.350 . S
C1833 C1832 1.434 . S
C1834 C1835 1.369 . S
C1834 C1836 1.419 . S
C1834 H1838 0.930 . S
C1835 C1834 1.369 . S
C1835 C1844 1.429 . S
C1836 C1834 1.419 . S
C1836 C1837 1.363 . S
C1836 H1839 0.929 . S
C1837 C1836 1.363 . S
C1837 C1843 1.428 . S
H1838 C1834 0.930 . S
H1839 C1836 0.929 . S
S1840 N1841 1.613 . S
S1840 N1842 1.610 . S
N1841 S1840 1.613 . S
N1841 C1844 1.350 . S
N1842 S1840 1.610 . S
N1842 C1843 1.351 . S
C1843 C1837 1.428 . S
C1843 N1842 1.351 . S
C1843 C1844 1.434 . S
C1844 C1835 1.429 . S
C1844 N1841 1.350 . S
C1844 C1843 1.434 . S
C1845 C1846 1.369 . S
C1845 C1847 1.419 . S
C1845 H1849 0.930 . S
C1846 C1845 1.369 . S
C1846 C1855 1.429 . S
C1847 C1845 1.419 . S
C1847 C1848 1.363 . S
C1847 H1850 0.929 . S
C1848 C1847 1.363 . S
C1848 C1854 1.428 . S
H1849 C1845 0.930 . S
H1850 C1847 0.929 . S
S1851 N1852 1.613 . S
S1851 N1853 1.610 . S
N1852 S1851 1.613 . S
N1852 C1855 1.350 . S
N1853 S1851 1.610 . S
N1853 C1854 1.351 . S
C1854 C1848 1.428 . S
C1854 N1853 1.351 . S
C1854 C1855 1.434 . S
C1855 C1846 1.429 . S
C1855 N1852 1.350 . S
C1855 C1854 1.434 . S
C1856 C1857 1.369 . S
C1856 C1858 1.419 . S
C1856 H1860 0.930 . S
C1857 C1856 1.369 . S
C1857 C1866 1.429 . S
C1858 C1856 1.419 . S
C1858 C1859 1.363 . S
C1858 H1861 0.929 . S
C1859 C1858 1.363 . S
C1859 C1865 1.428 . S
H1860 C1856 0.930 . S
H1861 C1858 0.929 . S
S1862 N1863 1.613 . S
S1862 N1864 1.610 . S
N1863 S1862 1.613 . S
N1863 C1866 1.350 . S
N1864 S1862 1.610 . S
N1864 C1865 1.351 . S
C1865 C1859 1.428 . S
C1865 N1864 1.351 . S
C1865 C1866 1.434 . S
C1866 C1857 1.429 . S
C1866 N1863 1.350 . S
C1866 C1865 1.434 . S
C1867 C1868 1.369 . S
C1867 C1869 1.419 . S
C1867 H1871 0.930 . S
C1868 C1867 1.369 . S
C1868 C1877 1.429 . S
C1869 C1867 1.419 . S
C1869 C1870 1.363 . S
C1869 H1872 0.929 . S
C1870 C1869 1.363 . S
C1870 C1876 1.428 . S
H1871 C1867 0.930 . S
H1872 C1869 0.929 . S
S1873 N1874 1.613 . S
S1873 N1875 1.610 . S
N1874 S1873 1.613 . S
N1874 C1877 1.350 . S
N1875 S1873 1.610 . S
N1875 C1876 1.351 . S
C1876 C1870 1.428 . S
C1876 N1875 1.351 . S
C1876 C1877 1.434 . S
C1877 C1868 1.429 . S
C1877 N1874 1.350 . S
C1877 C1876 1.434 . S
C1878 C1879 1.369 . S
C1878 C1880 1.419 . S
C1878 H1882 0.930 . S
C1879 C1878 1.369 . S
C1879 C1888 1.429 . S
C1880 C1878 1.419 . S
C1880 C1881 1.363 . S
C1880 H1883 0.929 . S
C1881 C1880 1.363 . S
C1881 C1887 1.428 . S
H1882 C1878 0.930 . S
H1883 C1880 0.929 . S
S1884 N1885 1.613 . S
S1884 N1886 1.610 . S
N1885 S1884 1.613 . S
N1885 C1888 1.350 . S
N1886 S1884 1.610 . S
N1886 C1887 1.351 . S
C1887 C1881 1.428 . S
C1887 N1886 1.351 . S
C1887 C1888 1.434 . S
C1888 C1879 1.429 . S
C1888 N1885 1.350 . S
C1888 C1887 1.434 . S
C1889 C1890 1.369 . S
C1889 C1891 1.419 . S
C1889 H1893 0.930 . S
C1890 C1889 1.369 . S
C1890 C1899 1.429 . S
C1891 C1889 1.419 . S
C1891 C1892 1.363 . S
C1891 H1894 0.929 . S
C1892 C1891 1.363 . S
C1892 C1898 1.428 . S
H1893 C1889 0.930 . S
H1894 C1891 0.929 . S
S1895 N1896 1.613 . S
S1895 N1897 1.610 . S
N1896 S1895 1.613 . S
N1896 C1899 1.350 . S
N1897 S1895 1.610 . S
N1897 C1898 1.351 . S
C1898 C1892 1.428 . S
C1898 N1897 1.351 . S
C1898 C1899 1.434 . S
C1899 C1890 1.429 . S
C1899 N1896 1.350 . S
C1899 C1898 1.434 . S
C1900 C1901 1.369 . S
C1900 C1902 1.419 . S
C1900 H1904 0.930 . S
C1901 C1900 1.369 . S
C1901 C1910 1.429 . S
C1902 C1900 1.419 . S
C1902 C1903 1.363 . S
C1902 H1905 0.929 . S
C1903 C1902 1.363 . S
C1903 C1909 1.428 . S
H1904 C1900 0.930 . S
H1905 C1902 0.929 . S
S1906 N1907 1.613 . S
S1906 N1908 1.610 . S
N1907 S1906 1.613 . S
N1907 C1910 1.350 . S
N1908 S1906 1.610 . S
N1908 C1909 1.351 . S
C1909 C1903 1.428 . S
C1909 N1908 1.351 . S
C1909 C1910 1.434 . S
C1910 C1901 1.429 . S
C1910 N1907 1.350 . S
C1910 C1909 1.434 . S
C1911 C1912 1.369 . S
C1911 C1913 1.419 . S
C1911 H1915 0.930 . S
C1912 C1911 1.369 . S
C1912 C1921 1.429 . S
C1913 C1911 1.419 . S
C1913 C1914 1.363 . S
C1913 H1916 0.929 . S
C1914 C1913 1.363 . S
C1914 C1920 1.428 . S
H1915 C1911 0.930 . S
H1916 C1913 0.929 . S
S1917 N1918 1.613 . S
S1917 N1919 1.610 . S
N1918 S1917 1.613 . S
N1918 C1921 1.350 . S
N1919 S1917 1.610 . S
N1919 C1920 1.351 . S
C1920 C1914 1.428 . S
C1920 N1919 1.351 . S
C1920 C1921 1.434 . S
C1921 C1912 1.429 . S
C1921 N1918 1.350 . S
C1921 C1920 1.434 . S
C1922 C1923 1.369 . S
C1922 C1924 1.419 . S
C1922 H1926 0.930 . S
C1923 C1922 1.369 . S
C1923 C1932 1.429 . S
C1924 C1922 1.419 . S
C1924 C1925 1.363 . S
C1924 H1927 0.929 . S
C1925 C1924 1.363 . S
C1925 C1931 1.428 . S
H1926 C1922 0.930 . S
H1927 C1924 0.929 . S
S1928 N1929 1.613 1_455 S
S1928 N1930 1.610 1_445 S
N1929 S1928 1.613 1_655 S
N1929 C1932 1.350 1_545 S
N1930 S1928 1.610 1_665 S
N1930 C1931 1.351 . S
C1931 C1925 1.428 . S
C1931 N1930 1.351 . S
C1931 C1932 1.434 . S
C1932 C1923 1.429 . S
C1932 N1929 1.350 1_565 S
C1932 C1931 1.434 . S
C1933 C1934 1.369 . S
C1933 C1935 1.419 . S
C1933 H1937 0.930 . S
C1934 C1933 1.369 . S
C1934 C1943 1.429 . S
C1935 C1933 1.419 . S
C1935 C1936 1.363 1_565 S
C1935 H1938 0.929 1_565 S
C1936 C1935 1.363 1_545 S
C1936 C1942 1.428 1_545 S
H1937 C1933 0.930 . S
H1938 C1935 0.929 1_545 S
S1939 N1940 1.613 . S
S1939 N1941 1.610 . S
N1940 S1939 1.613 . S
N1940 C1943 1.350 . S
N1941 S1939 1.610 . S
N1941 C1942 1.351 . S
C1942 C1936 1.428 1_565 S
C1942 N1941 1.351 . S
C1942 C1943 1.434 . S
C1943 C1934 1.429 . S
C1943 N1940 1.350 . S
C1943 C1942 1.434 . S
C757 C580 1.584 . S
C759 C16 1.585 . S
C768 C601 1.577 . S
C770 C37 1.579 1_655 S
C779 C58 1.575 . S
C781 C622 1.576 . S
C790 C76 1.586 . S
C792 C268 1.585 . S
C801 C97 1.581 . S
C803 C289 1.579 . S
C812 C310 1.573 . S
C814 C118 1.575 1_565 S
C823 C139 1.574 1_565 S
C825 C454 1.575 . S
C834 C475 1.583 . S
C836 C160 1.582 . S
C845 C181 1.585 . S
C847 C496 1.584 . S
C856 C643 1.579 . S
C858 C202 1.581 1_655 S
C867 C223 1.587 . S
C869 C664 1.585 . S
C878 C685 1.585 . S
C880 C244 1.583 . S
C889 C520 1.583 . S
C891 C328 1.581 . S
C900 C349 1.577 . S
C902 C541 1.580 . S
C911 C562 1.573 . S
C913 C370 1.575 . S
C922 C391 1.585 . S
C924 C706 1.583 . S
C933 C412 1.583 . S
C935 C727 1.582 . S
C944 C748 1.585 . S
C946 C433 1.585 . S
C955 C13 1.284 . S
C957 C142 1.272 . S
C966 C163 1.276 . S
C968 C34 1.278 . S
C977 C55 1.268 . S
C979 C184 1.284 . S
C988 C205 1.282 . S
C990 C79 1.274 . S
C999 C100 1.287 . S
C1001 C226 1.270 . S
C1010 C247 1.270 . S
C1012 C121 1.283 . S
C1021 C394 1.285 . S
C1023 C265 1.271 . S
C1032 C286 1.279 . S
C1034 C415 1.276 . S
C1043 C436 1.269 . S
C1045 C307 1.284 . S
C1054 C331 1.277 . S
C1056 C457 1.277 . S
C1065 C478 1.286 . S
C1067 C352 1.271 . S
C1076 C373 1.268 . S
C1078 C499 1.285 . S
C1087 C517 1.274 . S
C1089 C646 1.280 . S
C1098 C667 1.286 . S
C1100 C538 1.270 . S
C1109 C688 1.274 . S
C1111 C559 1.280 . S
C1120 C709 1.269 . S
C1122 C583 1.284 . S
C1131 C604 1.274 . S
C1133 C730 1.280 . S
C1142 C625 1.267 . S
C1144 C751 1.285 . S
C1153 C15 1.466 . S
C1155 C59 1.366 . S
C1164 C36 1.461 . S
C1166 C17 1.359 . S
C1175 C38 1.366 . S
C1177 C57 1.463 . S
C1186 C81 1.466 . S
C1188 C98 1.359 . S
C1197 C119 1.365 . S
C1199 C102 1.467 . S
C1208 C77 1.366 . S
C1210 C123 1.467 . S
C1219 C182 1.364 . S
C1221 C144 1.467 . S
C1230 C165 1.465 . S
C1232 C140 1.359 . S
C1241 C186 1.465 . S
C1243 C161 1.358 . S
C1252 C224 1.357 . S
C1254 C207 1.465 . S
C1263 C228 1.464 . S
C1265 C245 1.357 . S
C1274 C249 1.467 . S
C1276 C203 1.362 . S
C1285 C311 1.360 . S
C1287 C267 1.462 . S
C1296 C269 1.354 1_655 S
C1298 C288 1.463 1_545 S
C1307 C290 1.365 . S
C1309 C309 1.467 . S
C1318 C350 1.367 . S
C1320 C333 1.467 . S
C1329 C354 1.464 . S
C1331 C371 1.356 . S
C1340 C329 1.368 . S
C1342 C375 1.465 . S
C1351 C396 1.467 . S
C1353 C434 1.363 . S
C1362 C392 1.356 . S
C1364 C417 1.462 . S
C1373 C438 1.467 . S
C1375 C413 1.361 . S
C1384 C476 1.365 1_655 S
C1386 C459 1.467 . S
C1395 C497 1.363 . S
C1397 C480 1.459 1_545 S
C1406 C455 1.362 . S
C1408 C501 1.463 . S
C1417 C563 1.357 . S
C1419 C519 1.461 . S
C1428 C540 1.461 . S
C1430 C521 1.357 . S
C1439 C542 1.366 . S
C1441 C561 1.467 . S
C1450 C585 1.468 . S
C1452 C602 1.365 . S
C1461 C606 1.467 . S
C1463 C623 1.366 . S
C1472 C581 1.355 1_565 S
C1474 C627 1.464 . S
C1483 C648 1.466 . S
C1485 C686 1.367 1_565 S
C1494 C669 1.468 . S
C1496 C644 1.365 . S
C1505 C665 1.364 . S
C1507 C690 1.462 . S
C1516 C711 1.461 . S
C1518 C728 1.361 . S
C1527 C749 1.355 . S
C1529 C732 1.462 . S
C1538 C707 1.360 . S
C1540 C753 1.462 . S
C1549 C60 0.963 . S
C1551 C14 0.996 . S
C1560 C35 0.998 . S
C1562 C18 0.956 . S
C1571 C39 0.958 . S
C1573 C56 0.999 . S
C1582 C99 0.963 . S
C1584 C80 0.996 . S
C1593 C101 0.995 . S
C1595 C120 0.953 . S
C1604 C122 0.996 . S
C1606 C78 0.954 . S
C1615 C183 0.967 . S
C1617 C143 1.001 . S
C1626 C164 0.997 . S
C1628 C141 0.954 . S
C1637 C162 0.954 . S
C1639 C185 0.998 . S
C1648 C225 0.950 . S
C1650 C206 0.993 . S
C1659 C246 0.962 . S
C1661 C227 0.994 . S
C1670 C204 0.952 . S
C1672 C248 0.997 . S
C1681 C266 0.991 . S
C1683 C312 0.956 . S
C1692 C287 1.000 . S
C1694 C270 0.959 . S
C1703 C308 0.994 . S
C1705 C291 0.952 . S
C1714 C351 0.955 . S
C1716 C332 0.992 . S
C1725 C353 0.998 . S
C1727 C372 0.956 . S
C1736 C374 1.003 1_655 S
C1738 C330 0.966 . S
C1747 C435 0.969 . S
C1749 C395 1.000 . S
C1758 C393 0.956 . S
C1760 C416 0.992 . S
C1769 C437 1.001 1_655 S
C1771 C414 0.960 . S
C1780 C477 0.957 . S
C1782 C458 0.992 . S
C1791 C479 1.002 . S
C1793 C498 0.964 . S
C1802 C500 0.991 . S
C1804 C456 0.952 . S
C1813 C518 1.002 . S
C1815 C564 0.963 . S
C1824 C522 0.954 . S
C1826 C539 0.997 1_565 S
C1835 C543 0.966 . S
C1837 C560 0.997 . S
C1846 C603 0.952 . S
C1848 C584 0.991 . S
C1857 C605 0.991 . S
C1859 C624 0.957 . S
C1868 C626 0.991 . S
C1870 C582 0.956 . S
C1879 C687 0.969 . S
C1881 C647 0.999 . S
C1890 C645 0.949 . S
C1892 C668 0.992 . S
C1901 C689 0.990 . S
C1903 C666 0.956 . S
C1912 C729 0.964 . S
C1914 C710 0.995 . S
C1923 C731 0.990 1_565 S
C1925 C750 0.952 . S
C1934 C752 0.998 . S
C1936 C708 0.966 . S
