# Generated by pormake.
# Topology lvt, (4)-cn, num edge types: 1
# Building blocks:
#     Node 0, Type 0, BuildingBlock: MUDLON_clean_sbu_0, # of connection points: 4
#     Node 1, Type 0, BuildingBlock: MUDLON_clean_sbu_0, # of connection points: 4
#     Node 2, Type 0, BuildingBlock: MUDLON_clean_sbu_0, # of connection points: 4
#     Node 3, Type 0, BuildingBlock: MUDLON_clean_sbu_0, # of connection points: 4
#     Node 4, Type 0, BuildingBlock: MUDLON_clean_sbu_0, # of connection points: 4
#     Node 5, Type 0, BuildingBlock: MUDLON_clean_sbu_0, # of connection points: 4
#     Node 6, Type 0, BuildingBlock: MUDLON_clean_sbu_0, # of connection points: 4
#     Node 7, Type 0, BuildingBlock: MUDLON_clean_sbu_0, # of connection points: 4
#     Edge 8, Type (0, 0), BuildingBlock: MIFKUJ_clean_linker_0, # of connection points: 2
#     Edge 9, Type (0, 0), BuildingBlock: MIFKUJ_clean_linker_0, # of connection points: 2
#     Edge 10, Type (0, 0), BuildingBlock: MIFKUJ_clean_linker_0, # of connection points: 2
#     Edge 11, Type (0, 0), BuildingBlock: MIFKUJ_clean_linker_0, # of connection points: 2
#     Edge 12, Type (0, 0), BuildingBlock: MIFKUJ_clean_linker_0, # of connection points: 2
#     Edge 13, Type (0, 0), BuildingBlock: MIFKUJ_clean_linker_0, # of connection points: 2
#     Edge 14, Type (0, 0), BuildingBlock: MIFKUJ_clean_linker_0, # of connection points: 2
#     Edge 15, Type (0, 0), BuildingBlock: MIFKUJ_clean_linker_0, # of connection points: 2
#     Edge 16, Type (0, 0), BuildingBlock: MIFKUJ_clean_linker_0, # of connection points: 2
#     Edge 17, Type (0, 0), BuildingBlock: MIFKUJ_clean_linker_0, # of connection points: 2
#     Edge 18, Type (0, 0), BuildingBlock: MIFKUJ_clean_linker_0, # of connection points: 2
#     Edge 19, Type (0, 0), BuildingBlock: MIFKUJ_clean_linker_0, # of connection points: 2
#     Edge 20, Type (0, 0), BuildingBlock: MIFKUJ_clean_linker_0, # of connection points: 2
#     Edge 21, Type (0, 0), BuildingBlock: MIFKUJ_clean_linker_0, # of connection points: 2
#     Edge 22, Type (0, 0), BuildingBlock: MIFKUJ_clean_linker_0, # of connection points: 2
#     Edge 23, Type (0, 0), BuildingBlock: MIFKUJ_clean_linker_0, # of connection points: 2
# Relax obj value: 0.001
# Max RMSD: 0.036
# Mean RMSD: 0.025
data_MOF--net-lvt--node1-MUDLON_clean_sbu_0--edge1-MIFKUJ_clean_linker_0
_symmetry_space_group_name_H-M    P1
_symmetry_Int_Tables_number       1
_symmetry_cell_setting            triclinic
loop_
_symmetry_equiv_pos_as_xyz
'x, y, z'
_cell_length_a     55.178778
_cell_length_b     55.056115
_cell_length_c     12.179751
_cell_angle_alpha  89.993124
_cell_angle_beta   90.024824
_cell_angle_gamma 90.027259
loop_
_atom_site_label
_atom_site_type_symbol
_atom_site_fract_x
_atom_site_fract_y
_atom_site_fract_z
_atom_type_partial_charge
Mg0 Mg 0.02462 0.01878 0.57786 0.0
C1 C 0.07122 0.04624 0.54524 0.0
O2 O 0.07347 0.03825 0.64631 0.0
C3 C 0.99714 0.97309 0.53801 0.0
O4 O 1.00414 0.9713 0.64073 0.0
C5 C 0.97515 0.04246 0.60889 0.0
O6 O 0.9685 0.02069 0.57694 0.0
O7 O 0.99756 0.04633 0.62809 0.0
O8 O 0.05234 0.04041 0.4906 0.0
O9 O 0.04482 0.99685 0.70007 0.0
C10 C 0.06113 0.98372 0.65525 0.0
O11 O 0.06407 0.98544 0.54845 0.0
O12 O 1.00392 0.99158 0.48273 0.0
Mg13 Mg 0.26015 0.76087 0.99681 0.0
C14 C 0.2202 0.72765 0.94227 0.0
O15 O 0.21258 0.74086 0.0251 0.0
C16 C 0.29361 0.8006 0.99278 0.0
O17 O 0.2801 0.80224 0.08131 0.0
C18 C 0.21686 0.79639 0.08889 0.0
O19 O 0.2147 0.78443 0.1817 0.0
O20 O 0.23257 0.78971 0.01842 0.0
O21 O 0.24129 0.732 0.90384 0.0
O22 O 0.28135 0.74236 0.12557 0.0
C23 C 0.28087 0.71929 0.13599 0.0
O24 O 0.26325 0.70708 0.08892 0.0
O25 O 0.28959 0.78299 0.92689 0.0
Mg26 Mg 0.51774 0.01972 0.05779 0.0
C27 C 0.48846 0.97523 0.02333 0.0
O28 O 0.50038 0.9781 0.93088 0.0
C29 C 0.54793 0.05854 0.1464 0.0
O30 O 0.54595 0.06246 0.04033 0.0
C31 C 0.55418 0.98162 0.02176 0.0
O32 O 0.54326 0.9759 0.11407 0.0
O33 O 0.54735 1.00076 0.97127 0.0
O34 O 0.49217 0.99035 0.10101 0.0
O35 O 0.49533 0.04716 0.97207 0.0
C36 C 0.47358 0.04867 0.00712 0.0
O37 O 0.46652 0.03338 0.08347 0.0
O38 O 0.53678 0.0403 0.18681 0.0
Mg39 Mg 0.26731 0.26868 0.11476 0.0
C40 C 0.25246 0.22356 0.24679 0.0
O41 O 0.27254 0.21474 0.20491 0.0
C42 C 0.31857 0.28934 0.18066 0.0
O43 O 0.32632 0.26681 0.17488 0.0
C44 C 0.23637 0.31178 0.12391 0.0
O45 O 0.25168 0.31359 0.20605 0.0
O46 O 0.23832 0.29358 0.0595 0.0
O47 O 0.24753 0.24596 0.23258 0.0
O48 O 0.2847 0.24222 0.00452 0.0
C49 C 0.30434 0.24614 0.95232 0.0
O50 O 0.31242 0.26852 0.94437 0.0
O51 O 0.29602 0.29366 0.16984 0.0
Mg52 Mg 0.76217 0.26465 0.4736 0.0
C53 C 0.78165 0.30659 0.6138 0.0
O54 O 0.76452 0.31861 0.56251 0.0
C55 C 0.72853 0.22109 0.56675 0.0
O56 O 0.74476 0.21581 0.64197 0.0
C57 C 0.79068 0.22029 0.392 0.0
O58 O 0.76925 0.21004 0.39861 0.0
O59 O 0.7923 0.24324 0.40455 0.0
O60 O 0.78239 0.28352 0.60433 0.0
O61 O 0.74389 0.29358 0.37838 0.0
C62 C 0.72369 0.29958 0.42195 0.0
O63 O 0.71682 0.28797 0.51091 0.0
O64 O 0.73209 0.23901 0.5025 0.0
Mg65 Mg 0.76797 0.77261 0.61414 0.0
C66 C 0.80878 0.80296 0.55974 0.0
O67 O 0.81099 0.79577 0.66215 0.0
C68 C 0.73445 0.73333 0.64185 0.0
O69 O 0.74744 0.73584 0.73162 0.0
C70 C 0.80787 0.73821 0.58953 0.0
O71 O 0.80289 0.74634 0.49066 0.0
O72 O 0.79558 0.74637 0.6703 0.0
O73 O 0.79014 0.796 0.50604 0.0
O74 O 0.74937 0.79783 0.72761 0.0
C75 C 0.74676 0.8197 0.69463 0.0
O76 O 0.75719 0.82625 0.60242 0.0
O77 O 0.73866 0.74785 0.56226 0.0
Mg78 Mg 0.52106 0.52368 0.03489 0.0
C79 C 0.47505 0.49486 0.98675 0.0
O80 O 0.4652 0.51568 0.01456 0.0
C81 C 0.5596 0.55712 0.96315 0.0
O82 O 0.56235 0.55468 0.06978 0.0
C83 C 0.56541 0.49449 0.07661 0.0
O84 O 0.56609 0.49908 0.9708 0.0
O85 O 0.5481 0.50352 0.13303 0.0
O86 O 0.49801 0.49371 0.97639 0.0
O87 O 0.4962 0.54946 0.11776 0.0
C88 C 0.49113 0.56909 0.06677 0.0
O89 O 0.50249 0.57373 0.9744 0.0
O90 O 0.54255 0.54528 0.91674 0.0
Mg91 Mg 0.01718 0.50362 0.56426 0.0
C92 C 0.99399 0.45448 0.62618 0.0
O93 O 1.00997 0.44619 0.55565 0.0
C94 C 0.04372 0.54363 0.6933 0.0
O95 O 0.02201 0.55337 0.6919 0.0
C96 C 0.0577 0.4874 0.41149 0.0
O97 O 0.0682 0.50594 0.45997 0.0
O98 O 0.03539 0.48329 0.43152 0.0
O99 O 0.99454 0.47691 0.65222 0.0
O100 O 0.99109 0.53237 0.51957 0.0
C101 C 0.9746 0.53597 0.59128 0.0
O102 O 0.97422 0.52198 0.67861 0.0
O103 O 0.04651 0.52227 0.65485 0.0
H104 H 0.11914 0.04685 0.59474 0.0
H105 H 0.14942 0.07692 0.54195 0.0
H106 H 0.09562 0.115 0.35078 0.0
H107 H 0.06547 0.08392 0.39902 0.0
H108 H 0.13558 0.11838 0.2483 0.0
H109 H 0.115 0.13354 0.62254 0.0
H110 H 0.10837 0.12424 0.81836 0.0
H111 H 0.18314 0.10413 0.85294 0.0
H112 H 0.19019 0.11309 0.65704 0.0
H113 H 0.20335 0.23045 0.25689 0.0
H114 H 0.17228 0.20046 0.30529 0.0
H115 H 0.22798 0.14842 0.38361 0.0
H116 H 0.25921 0.17808 0.33223 0.0
H117 H 0.18623 0.15413 0.54385 0.0
H118 H 0.20482 0.13974 0.15952 0.0
H119 H 0.20959 0.1522 0.96623 0.0
H120 H 0.13526 0.1751 0.95667 0.0
H121 H 0.13014 0.16309 0.15053 0.0
C122 C 0.11382 0.06148 0.54032 0.0
C123 C 0.08988 0.06308 0.50147 0.0
C124 C 0.13112 0.07887 0.51106 0.0
C125 C 0.12477 0.09886 0.44522 0.0
C126 C 0.10105 0.09995 0.40249 0.0
C127 C 0.08381 0.08214 0.42979 0.0
C128 C 0.14282 0.11857 0.42235 0.0
C129 C 0.14634 0.12637 0.31351 0.0
C130 C 0.1572 0.12912 0.50673 0.0
C131 C 0.15305 0.12373 0.62472 0.0
C132 C 0.12999 0.12695 0.67168 0.0
C133 C 0.12616 0.12176 0.78271 0.0
C134 C 0.14528 0.11342 0.84781 0.0
C135 C 0.16832 0.11043 0.8022 0.0
C136 C 0.17225 0.11564 0.69126 0.0
C137 C 0.20903 0.21276 0.28597 0.0
C138 C 0.2338 0.20668 0.29097 0.0
C139 C 0.19123 0.19559 0.31288 0.0
C140 C 0.19782 0.17217 0.34728 0.0
C141 C 0.22251 0.16638 0.357 0.0
C142 C 0.24032 0.18336 0.3278 0.0
C143 C 0.17896 0.15353 0.37055 0.0
C144 C 0.17532 0.14606 0.47931 0.0
C145 C 0.16415 0.1437 0.28666 0.0
C146 C 0.1672 0.15085 0.17004 0.0
C147 C 0.18957 0.1477 0.11663 0.0
C148 C 0.19233 0.15465 0.00692 0.0
C149 C 0.1728 0.16464 0.94953 0.0
C150 C 0.15042 0.16754 0.0015 0.0
C151 C 0.14757 0.16062 0.11122 0.0
H152 H 0.17495 0.16992 0.86446 0.0
H153 H 0.1423 0.10947 0.93382 0.0
H154 H 0.10278 0.96229 0.58727 0.0
H155 H 0.12657 0.93116 0.67892 0.0
H156 H 0.07801 0.93334 0.95612 0.0
H157 H 0.05413 0.96529 0.86465 0.0
H158 H 0.12421 0.92796 0.02481 0.0
H159 H 0.07415 0.88805 0.76422 0.0
H160 H 0.05515 0.87994 0.5847 0.0
H161 H 0.12502 0.86565 0.44401 0.0
H162 H 0.14455 0.87433 0.62188 0.0
H163 H 0.17804 0.81415 0.20788 0.0
H164 H 0.1495 0.84622 0.15358 0.0
H165 H 0.18927 0.85682 0.85268 0.0
H166 H 0.21751 0.82493 0.90538 0.0
H167 H 0.14214 0.85335 0.81178 0.0
H168 H 0.19193 0.89636 0.07481 0.0
H169 H 0.20993 0.90442 0.25647 0.0
H170 H 0.13892 0.91188 0.39627 0.0
H171 H 0.12044 0.90313 0.21607 0.0
C172 C 0.09711 0.95631 0.66801 0.0
C173 C 0.07633 0.96618 0.71802 0.0
C174 C 0.11075 0.93835 0.72032 0.0
C175 C 0.10385 0.92935 0.82354 0.0
C176 C 0.08365 0.9398 0.87612 0.0
C177 C 0.07 0.95808 0.82382 0.0
C178 C 0.11764 0.90874 0.8738 0.0
C179 C 0.12777 0.91145 0.97904 0.0
C180 C 0.12249 0.88715 0.81415 0.0
C181 C 0.11084 0.88203 0.7065 0.0
C182 C 0.0855 0.88342 0.6948 0.0
C183 C 0.07464 0.87873 0.59325 0.0
C184 C 0.08888 0.87238 0.50291 0.0
C185 C 0.11402 0.87066 0.51398 0.0
C186 C 0.125 0.87549 0.61515 0.0
C187 C 0.1808 0.82344 0.13052 0.0
C188 C 0.20011 0.8168 0.06101 0.0
C189 C 0.16448 0.84185 0.09966 0.0
C190 C 0.16717 0.85408 -0.00112 0.0
C191 C 0.18665 0.84767 0.93054 0.0
C192 C 0.20288 0.82938 0.96113 0.0
C193 C 0.14946 0.87291 0.96113 0.0
C194 C 0.13843 0.86976 0.8581 0.0
C195 C 0.14367 0.89391 0.02335 0.0
C196 C 0.15479 0.89873 0.13212 0.0
C197 C 0.18013 0.89936 0.14456 0.0
C198 C 0.19042 0.90407 0.2473 0.0
C199 C 0.17557 0.90849 0.33802 0.0
C200 C 0.15039 0.90826 0.32611 0.0
C201 C 0.14 0.90339 0.22373 0.0
H202 H 0.18357 0.9122 0.41742 0.0
H203 H 0.08044 0.86872 0.42441 0.0
H204 H 0.44755 0.97283 0.15238 0.0
H205 H 0.41553 0.94193 0.14513 0.0
H206 H 0.45691 0.90161 0.90598 0.0
H207 H 0.48821 0.93286 0.90967 0.0
H208 H 0.41378 0.90303 0.83805 0.0
H209 H 0.44818 0.88316 0.18873 0.0
H210 H 0.46213 0.89008 0.37862 0.0
H211 H 0.3905 0.91242 0.47191 0.0
H212 H 0.37615 0.90579 0.28244 0.0
H213 H 0.33542 0.79693 0.86745 0.0
H214 H 0.36994 0.82534 0.86724 0.0
H215 H 0.33078 0.87311 0.08469 0.0
H216 H 0.29685 0.84499 0.08641 0.0
H217 H 0.37447 0.86563 0.16234 0.0
H218 H 0.34084 0.88614 0.807 0.0
H219 H 0.3275 0.87839 0.61688 0.0
H220 H 0.39883 0.85341 0.53306 0.0
H221 H 0.41255 0.86081 0.72297 0.0
C222 C 0.44992 0.95717 0.09965 0.0
C223 C 0.47039 0.95531 0.03157 0.0
C224 C 0.43163 0.93942 0.0956 0.0
C225 C 0.43373 0.91916 0.02539 0.0
C226 C 0.45462 0.91702 0.96029 0.0
C227 C 0.47261 0.9349 0.96286 0.0
C228 C 0.41379 0.90083 0.01493 0.0
C229 C 0.40549 0.89458 0.90923 0.0
C230 C 0.4025 0.88998 0.10721 0.0
C231 C 0.41116 0.89422 0.22102 0.0
C232 C 0.43545 0.88974 0.24951 0.0
C233 C 0.44341 0.89355 0.35717 0.0
C234 C 0.42722 0.90174 0.43721 0.0
C235 C 0.40303 0.90612 0.40978 0.0
C236 C 0.39496 0.90228 0.30235 0.0
C237 C 0.3341 0.81369 0.91357 0.0
C238 C 0.31344 0.81859 0.9775 0.0
C239 C 0.35383 0.82993 0.91357 0.0
C240 C 0.35307 0.85141 0.97652 0.0
C241 C 0.33202 0.85662 0.03643 0.0
C242 C 0.31254 0.84048 0.037 0.0
C243 C 0.37436 0.86809 0.98581 0.0
C244 C 0.38291 0.87399 0.09132 0.0
C245 C 0.38597 0.87847 0.89341 0.0
C246 C 0.37762 0.87372 0.77963 0.0
C247 C 0.35361 0.87875 0.74834 0.0
C248 C 0.346 0.87449 0.64051 0.0
C249 C 0.36228 0.86532 0.56306 0.0
C250 C 0.38622 0.86042 0.59324 0.0
C251 C 0.39392 0.86469 0.70089 0.0
H252 H 0.35638 0.8621 0.47954 0.0
H253 H 0.4334 0.90462 0.52056 0.0
H254 H 0.29515 0.19735 0.97346 0.0
H255 H 0.32412 0.16397 0.95786 0.0
H256 H 0.37959 0.2143 0.85597 0.0
H257 H 0.35064 0.24782 0.86991 0.0
H258 H 0.38374 0.1707 0.7467 0.0
H259 H 0.37606 0.19752 0.12012 0.0
H260 H 0.35367 0.20817 0.28855 0.0
H261 H 0.32614 0.13536 0.30976 0.0
H262 H 0.34808 0.12437 0.14037 0.0
H263 H 0.48379 0.09245 0.90523 0.0
H264 H 0.45548 0.1262 0.87234 0.0
H265 H 0.3967 0.08251 -0.0029 0.0
H266 H 0.42471 0.04927 0.03173 0.0
H267 H 0.39584 0.12466 0.09244 0.0
H268 H 0.40334 0.09767 0.71795 0.0
H269 H 0.42484 0.08733 0.54677 0.0
H270 H 0.45267 0.16004 0.52657 0.0
H271 H 0.43158 0.17073 0.69849 0.0
C272 C 0.31336 0.20133 0.94558 0.0
C273 C 0.32054 0.22539 0.92393 0.0
C274 C 0.32998 0.18218 0.9372 0.0
C275 C 0.35423 0.18663 0.90783 0.0
C276 C 0.36105 0.21038 0.87926 0.0
C277 C 0.34442 0.22956 0.88739 0.0
C278 C 0.37274 0.16688 0.91538 0.0
C279 C 0.38659 0.16078 0.82256 0.0
C280 C 0.3764 0.15375 0.01401 0.0
C281 C 0.36354 0.16019 0.11702 0.0
C282 C 0.36512 0.18382 0.16035 0.0
C283 C 0.35252 0.18992 0.25601 0.0
C284 C 0.33845 0.17247 0.30969 0.0
C285 C 0.33702 0.14887 0.26802 0.0
C286 C 0.34955 0.14269 0.17223 0.0
C287 C 0.46476 0.08996 0.9238 0.0
C288 C 0.45658 0.06818 0.97172 0.0
C289 C 0.44855 0.10927 0.90492 0.0
C290 C 0.42383 0.10703 0.93238 0.0
C291 C 0.41563 0.0849 0.97599 0.0
C292 C 0.43174 0.06581 0.99552 0.0
C293 C 0.40657 0.12792 0.92292 0.0
C294 C 0.39304 0.13445 0.01616 0.0
C295 C 0.40328 0.14136 0.82469 0.0
C296 C 0.41611 0.13491 0.72179 0.0
C297 C 0.41423 0.11139 0.67758 0.0
C298 C 0.4263 0.10548 0.58028 0.0
C299 C 0.44017 0.123 0.52601 0.0
C300 C 0.44196 0.14648 0.5688 0.0
C301 C 0.42993 0.15247 0.66613 0.0
H302 H 0.44949 0.11839 0.45065 0.0
H303 H 0.32869 0.17723 0.38367 0.0
H304 H 0.9898 0.92742 0.61343 0.0
H305 H 0.95771 0.89917 0.56417 0.0
H306 H 0.93168 0.94924 0.31867 0.0
H307 H 0.96409 0.97802 0.36879 0.0
H308 H 0.89474 0.9319 0.45038 0.0
H309 H 0.95742 0.89668 0.23648 0.0
H310 H 0.99863 0.88172 0.19736 0.0
H311 H 0.99106 0.82742 0.44804 0.0
H312 H 0.94993 0.84225 0.48981 0.0
H313 H 0.80574 0.83601 0.38836 0.0
H314 H 0.83729 0.86517 0.33111 0.0
H315 H 0.88619 0.83484 0.57112 0.0
H316 H 0.85524 0.80606 0.62736 0.0
H317 H 0.90983 0.84432 0.38352 0.0
H318 H 0.85244 0.886 0.62366 0.0
H319 H 0.81184 0.90137 0.67217 0.0
H320 H 0.81005 0.94353 0.37558 0.0
H321 H 0.85054 0.92812 0.32469 0.0
C322 C 0.97752 0.93236 0.5477 0.0
C323 C 0.97957 0.95498 0.49486 0.0
C324 C 0.95917 0.91609 0.51924 0.0
C325 C 0.94233 0.92189 0.43693 0.0
C326 C 0.94453 0.94429 0.38209 0.0
C327 C 0.96315 0.96063 0.41014 0.0
C328 C 0.92183 0.90487 0.41457 0.0
C329 C 0.89798 0.91287 0.43255 0.0
C330 C 0.92596 0.87996 0.39244 0.0
C331 C 0.95057 0.87065 0.36644 0.0
C332 C 0.96457 0.88162 0.28362 0.0
C333 C 0.98792 0.87315 0.26095 0.0
C334 C 0.99746 0.85365 0.32023 0.0
C335 C 0.98364 0.84251 0.4021 0.0
C336 C 0.96027 0.85091 0.42514 0.0
C337 C 0.82338 0.83539 0.42727 0.0
C338 C 0.82793 0.81885 0.51289 0.0
C339 C 0.84134 0.85212 0.39504 0.0
C340 C 0.86413 0.85237 0.44741 0.0
C341 C 0.86886 0.83508 0.52919 0.0
C342 C 0.85102 0.81867 0.56176 0.0
C343 C 0.88292 0.87118 0.42375 0.0
C344 C 0.9065 0.86349 0.39751 0.0
C345 C 0.87854 0.89632 0.43874 0.0
C346 C 0.85433 0.90568 0.46969 0.0
C347 C 0.8433 0.89841 0.56843 0.0
C348 C 0.82033 0.90714 0.59641 0.0
C349 C 0.80833 0.92335 0.5268 0.0
C350 C 0.81933 0.93092 0.42926 0.0
C351 C 0.84228 0.92219 0.4008 0.0
H352 H 0.79055 0.93009 0.54859 0.0
H353 H 0.01556 0.84715 0.30269 0.0
H354 H 0.98258 0.09166 0.64196 0.0
H355 H 0.95375 0.12476 0.60573 0.0
H356 H 0.89875 0.07226 0.52267 0.0
H357 H 0.92707 0.03934 0.55939 0.0
H358 H 0.90445 0.10707 0.36243 0.0
H359 H 0.89475 0.10353 0.75555 0.0
H360 H 0.90768 0.10522 0.94922 0.0
H361 H 0.93341 0.1781 0.90303 0.0
H362 H 0.921 0.17672 0.70847 0.0
H363 H 0.79358 0.17162 0.35021 0.0
H364 H 0.82804 0.1447 0.38096 0.0
H365 H 0.87225 0.20614 0.47116 0.0
H366 H 0.83767 0.23331 0.44082 0.0
H367 H 0.87607 0.17039 0.62156 0.0
H368 H 0.88343 0.17535 0.23312 0.0
H369 H 0.8707 0.17413 0.0391 0.0
H370 H 0.85013 0.09933 0.07436 0.0
H371 H 0.86244 0.10016 0.26902 0.0
C372 C 0.96421 0.08716 0.61797 0.0
C373 C 0.95726 0.06275 0.60319 0.0
C374 C 0.94775 0.10613 0.5971 0.0
C375 C 0.92408 0.10103 0.56065 0.0
C376 C 0.91693 0.0767 0.54983 0.0
C377 C 0.9332 0.05784 0.5714 0.0
C378 C 0.907 0.12077 0.52756 0.0
C379 C 0.89808 0.12079 0.41943 0.0
C380 C 0.89932 0.13924 0.60058 0.0
C381 C 0.90729 0.13988 0.71691 0.0
C382 C 0.90349 0.11979 0.7862 0.0
C383 C 0.91068 0.12071 0.89622 0.0
C384 C 0.92149 0.1417 0.93823 0.0
C385 C 0.92512 0.16182 0.87029 0.0
C386 C 0.91802 0.16097 0.76012 0.0
C387 C 0.81074 0.17954 0.37454 0.0
C388 C 0.81277 0.2047 0.39286 0.0
C389 C 0.83051 0.16407 0.39197 0.0
C390 C 0.85287 0.17331 0.42822 0.0
C391 C 0.85522 0.19852 0.44329 0.0
C392 C 0.83545 0.21408 0.42505 0.0
C393 C 0.8731 0.15638 0.4569 0.0
C394 C 0.88263 0.15686 0.56407 0.0
C395 C 0.88146 0.1384 0.38286 0.0
C396 C 0.87364 0.13791 0.26615 0.0
C397 C 0.87594 0.15871 0.1999 0.0
C398 C 0.86883 0.15808 0.08974 0.0
C399 C 0.85948 0.13671 0.04464 0.0
C400 C 0.85729 0.1159 0.10952 0.0
C401 C 0.86437 0.11643 0.21975 0.0
H402 H 0.85407 0.13624 0.95922 0.0
H403 H 0.92691 0.14242 0.02359 0.0
H404 H 0.69772 0.22151 0.39128 0.0
H405 H 0.66494 0.19352 0.34958 0.0
H406 H 0.67799 0.15548 0.65356 0.0
H407 H 0.7118 0.18312 0.69402 0.0
H408 H 0.67017 0.1236 0.50044 0.0
H409 H 0.62693 0.19396 0.61275 0.0
H410 H 0.61623 0.23742 0.61907 0.0
H411 H 0.59738 0.23564 0.27711 0.0
H412 H 0.60827 0.19225 0.26828 0.0
H413 H 0.56278 0.05368 0.36303 0.0
H414 H 0.59045 0.08062 0.465 0.0
H415 H 0.59628 0.12707 0.18108 0.0
H416 H 0.56882 0.10076 0.08045 0.0
H417 H 0.59111 0.15368 0.3626 0.0
H418 H 0.64042 0.08434 0.25034 0.0
H419 H 0.65084 0.04077 0.24769 0.0
H420 H 0.6569 0.04076 0.59922 0.0
H421 H 0.64623 0.08429 0.60393 0.0
C422 C 0.69358 0.20737 0.45018 0.0
C423 C 0.70741 0.20475 0.54659 0.0
C424 C 0.67462 0.19136 0.42634 0.0
C425 C 0.66846 0.17255 0.49928 0.0
C426 C 0.6822 0.16987 0.59596 0.0
C427 C 0.70149 0.18576 0.6193 0.0
C428 C 0.64827 0.15538 0.4716 0.0
C429 C 0.65271 0.13022 0.47257 0.0
C430 C 0.62537 0.16378 0.43464 0.0
C431 C 0.61854 0.18985 0.43979 0.0
C432 C 0.62062 0.20286 0.53875 0.0
C433 C 0.61451 0.22749 0.54278 0.0
C434 C 0.60617 0.23929 0.44852 0.0
C435 C 0.60385 0.22648 0.35007 0.0
C436 C 0.60994 0.20185 0.34556 0.0
C437 C 0.56985 0.06974 0.32287 0.0
C438 C 0.56359 0.07494 0.21328 0.0
C439 C 0.58577 0.08507 0.38102 0.0
C440 C 0.59567 0.10586 0.33058 0.0
C441 C 0.58894 0.11124 0.22221 0.0
C442 C 0.57322 0.09602 0.16443 0.0
C443 C 0.61339 0.1221 0.38771 0.0
C444 C 0.60843 0.1471 0.39247 0.0
C445 C 0.63567 0.11353 0.43068 0.0
C446 C 0.64227 0.08746 0.42757 0.0
C447 C 0.64382 0.07499 0.32708 0.0
C448 C 0.64979 0.05032 0.3252 0.0
C449 C 0.65445 0.03798 0.42325 0.0
C450 C 0.65324 0.05032 0.52336 0.0
C451 C 0.64725 0.07499 0.52568 0.0
H452 H 0.65906 0.01888 0.42163 0.0
H453 H 0.60147 0.25836 0.45179 0.0
H454 H 0.56028 0.93377 0.06571 0.0
H455 H 0.59368 0.9074 0.01297 0.0
H456 H 0.62683 0.96662 0.83606 0.0
H457 H 0.59254 0.99303 0.88539 0.0
H458 H 0.63292 0.9265 0.72509 0.0
H459 H 0.64695 0.94754 0.10204 0.0
H460 H 0.63575 0.95243 0.29686 0.0
H461 H 0.62224 0.87584 0.3222 0.0
H462 H 0.63323 0.8705 0.12732 0.0
H463 H 0.746 0.86885 0.67375 0.0
H464 H 0.71483 0.89704 0.73594 0.0
H465 H 0.67705 0.83816 0.8949 0.0
H466 H 0.70873 0.80976 0.83467 0.0
H467 H 0.67447 0.87919 0.01663 0.0
H468 H 0.66001 0.85893 0.63606 0.0
H469 H 0.67202 0.85466 0.44192 0.0
H470 H 0.68734 0.93103 0.42504 0.0
H471 H 0.67562 0.93572 0.61942 0.0
C472 C 0.57461 0.94122 0.01509 0.0
C473 C 0.57386 0.9656 0.98061 0.0
C474 C 0.59386 0.92611 0.9856 0.0
C475 C 0.61331 0.93509 0.92327 0.0
C476 C 0.61222 0.95925 0.88516 0.0
C477 C 0.5926 0.97435 0.91319 0.0
C478 C 0.63462 0.91917 0.89864 0.0
C479 C 0.64221 0.91649 0.78924 0.0
C480 C 0.64664 0.90563 0.9817 0.0
C481 C 0.64069 0.90867 0.09977 0.0
C482 C 0.6415 0.93176 0.14905 0.0
C483 C 0.63517 0.93461 0.25945 0.0
C484 C 0.62807 0.91449 0.32155 0.0
C485 C 0.62756 0.89143 0.27373 0.0
C486 C 0.63394 0.88846 0.16345 0.0
C487 C 0.73126 0.86189 0.72331 0.0
C488 C 0.72978 0.83698 0.74843 0.0
C489 C 0.71332 0.87806 0.75829 0.0
C490 C 0.69316 0.8697 0.81764 0.0
C491 C 0.6923 0.84506 0.84839 0.0
C492 C 0.71046 0.82883 0.81422 0.0
C493 C 0.67263 0.88649 0.84324 0.0
C494 C 0.6652 0.8893 0.95272 0.0
C495 C 0.66087 0.90028 0.76041 0.0
C496 C 0.66719 0.89762 0.6426 0.0
C497 C 0.66605 0.87479 0.59107 0.0
C498 C 0.67284 0.87229 0.48106 0.0
C499 C 0.68068 0.89251 0.42155 0.0
C500 C 0.68146 0.91534 0.47154 0.0
C501 C 0.67467 0.91795 0.5815 0.0
H502 H 0.68589 0.89055 0.33634 0.0
H503 H 0.6232 0.91673 0.40703 0.0
H504 H 0.5539 0.57703 0.75553 0.0
H505 H 0.57985 0.60787 0.66777 0.0
H506 H 0.62804 0.60571 0.94661 0.0
H507 H 0.60228 0.57569 0.03438 0.0
H508 H 0.6175 0.65075 0.90022 0.0
H509 H 0.64122 0.57977 0.68766 0.0
H510 H 0.63393 0.54546 0.56168 0.0
H511 H 0.608 0.59476 0.31499 0.0
H512 H 0.61485 0.62935 0.44018 0.0
H513 H 0.73039 0.69503 0.77935 0.0
H514 H 0.69706 0.66657 0.79795 0.0
H515 H 0.66091 0.69948 0.52175 0.0
H516 H 0.69478 0.72858 0.50212 0.0
H517 H 0.65822 0.64454 0.53826 0.0
H518 H 0.64017 0.71602 0.74628 0.0
H519 H 0.64932 0.74973 0.87294 0.0
H520 H 0.66515 0.69874 0.1299 0.0
H521 H 0.65649 0.6647 0.00425 0.0
C522 C 0.57018 0.583 0.79728 0.0
C523 C 0.57589 0.57399 0.90238 0.0
C524 C 0.58503 0.60061 0.74701 0.0
C525 C 0.60597 0.60928 0.80054 0.0
C526 C 0.61193 0.59962 0.90375 0.0
C527 C 0.59713 0.58233 0.95394 0.0
C528 C 0.62141 0.62911 0.75393 0.0
C529 C 0.62636 0.64928 0.82099 0.0
C530 C 0.63238 0.62789 0.6487 0.0
C531 C 0.62824 0.6071 0.57378 0.0
C532 C 0.63375 0.58326 0.60694 0.0
C533 C 0.62975 0.56377 0.5356 0.0
C534 C 0.62042 0.56791 0.43055 0.0
C535 C 0.61516 0.59157 0.39649 0.0
C536 C 0.61911 0.61112 0.46758 0.0
C537 C 0.71554 0.69624 0.72141 0.0
C538 C 0.71516 0.71439 0.64004 0.0
C539 C 0.69646 0.67981 0.73217 0.0
C540 C 0.67632 0.68104 0.66234 0.0
C541 C 0.67629 0.69823 0.57674 0.0
C542 C 0.69561 0.71485 0.56566 0.0
C543 C 0.65492 0.6654 0.68693 0.0
C544 C 0.64886 0.64617 0.6162 0.0
C545 C 0.64287 0.66735 0.78912 0.0
C546 C 0.64779 0.68779 0.86556 0.0
C547 C 0.64575 0.71198 0.82958 0.0
C548 C 0.65084 0.73116 0.90123 0.0
C549 C 0.65783 0.72638 0.00936 0.0
C550 C 0.65972 0.70242 0.04612 0.0
C551 C 0.65469 0.68317 0.97475 0.0
H552 H 0.66177 0.74125 0.0647 0.0
H553 H 0.61734 0.5528 0.37544 0.0
H554 H 0.73291 0.33198 0.25242 0.0
H555 H 0.70745 0.36631 0.19384 0.0
H556 H 0.65495 0.34793 0.44271 0.0
H557 H 0.67973 0.31374 0.49939 0.0
H558 H 0.63202 0.3585 0.26359 0.0
H559 H 0.6958 0.39599 0.47077 0.0
H560 H 0.73799 0.40618 0.51939 0.0
H561 H 0.74831 0.4389 0.20282 0.0
H562 H 0.70625 0.42859 0.15167 0.0
H563 H 0.56262 0.46764 0.26761 0.0
H564 H 0.59088 0.43593 0.32951 0.0
H565 H 0.63737 0.45106 0.05345 0.0
H566 H 0.60935 0.4825 0.99132 0.0
H567 H 0.66375 0.44268 0.24308 0.0
H568 H 0.59901 0.40471 0.03958 0.0
H569 H 0.55629 0.39527 -0.00218 0.0
H570 H 0.54757 0.36379 0.31797 0.0
H571 H 0.59017 0.37338 0.36221 0.0
C572 C 0.71588 0.33522 0.29405 0.0
C573 C 0.70847 0.32004 0.38077 0.0
C574 C 0.70138 0.35496 0.26105 0.0
C575 C 0.67928 0.35998 0.31453 0.0
C576 C 0.67182 0.34457 0.39979 0.0
C577 C 0.68616 0.32496 0.43242 0.0
C578 C 0.66366 0.38109 0.28283 0.0
C579 C 0.63899 0.37691 0.26044 0.0
C580 C 0.67262 0.4052 0.2768 0.0
C581 C 0.69796 0.41128 0.30697 0.0
C582 C 0.70713 0.40516 0.41114 0.0
C583 C 0.731 0.41099 0.43922 0.0
C584 C 0.74583 0.42314 0.36417 0.0
C585 C 0.73681 0.42946 0.26082 0.0
C586 C 0.71295 0.42364 0.23224 0.0
C587 C 0.57905 0.46446 0.22122 0.0
C588 C 0.58362 0.47752 0.12414 0.0
C589 C 0.59514 0.44624 0.25627 0.0
C590 C 0.61618 0.44088 0.19543 0.0
C591 C 0.62131 0.45476 0.10173 0.0
C592 C 0.60517 0.47271 0.06612 0.0
C593 C 0.63219 0.42001 0.2252 0.0
C594 C 0.65688 0.42423 0.2466 0.0
C595 C 0.62324 0.39594 0.23137 0.0
C596 C 0.59769 0.38999 0.2046 0.0
C597 C 0.58793 0.39594 0.10137 0.0
C598 C 0.56375 0.39054 0.0772 0.0
C599 C 0.54921 0.379 0.1553 0.0
C600 C 0.55884 0.37277 0.25762 0.0
C601 C 0.58301 0.37817 0.28227 0.0
H602 H 0.53049 0.37484 0.13645 0.0
H603 H 0.76425 0.42775 0.38631 0.0
H604 H 0.78317 0.35399 0.67914 0.0
H605 H 0.81915 0.37875 0.71315 0.0
H606 H 0.86445 0.31557 0.67222 0.0
H607 H 0.82838 0.29051 0.64218 0.0
H608 H 0.88437 0.34411 0.81944 0.0
H609 H 0.85322 0.35602 0.45712 0.0
H610 H 0.82233 0.36535 0.31696 0.0
H611 H 0.8131 0.43667 0.45318 0.0
H612 H 0.84378 0.42766 0.59509 0.0
H613 H 0.99051 0.40496 0.61344 0.0
H614 H 0.95451 0.3798 0.6433 0.0
H615 H 0.914 0.44332 0.73852 0.0
H616 H 0.95004 0.4686 0.7102 0.0
H617 H 0.89149 0.41557 0.57329 0.0
H618 H 0.92723 0.40274 0.92817 0.0
H619 H 0.9599 0.39171 0.05699 0.0
H620 H 0.96275 0.31997 0.91928 0.0
H621 H 0.93032 0.33069 0.78852 0.0
C622 C 0.80075 0.34523 0.67997 0.0
C623 C 0.80286 0.32028 0.65713 0.0
C624 C 0.82138 0.35947 0.69853 0.0
C625 C 0.84469 0.34925 0.69206 0.0
C626 C 0.84675 0.324 0.67692 0.0
C627 C 0.82605 0.30964 0.65999 0.0
C628 C 0.86676 0.36507 0.69316 0.0
C629 C 0.88597 0.35961 0.76495 0.0
C630 C 0.86897 0.38551 0.62283 0.0
C631 C 0.85061 0.39108 0.53737 0.0
C632 C 0.84449 0.37364 0.45761 0.0
C633 C 0.82704 0.37888 0.37782 0.0
C634 C 0.81573 0.40157 0.37631 0.0
C635 C 0.82187 0.4191 0.45454 0.0
C636 C 0.8393 0.41394 0.53462 0.0
C637 C 0.97407 0.41355 0.64271 0.0
C638 C 0.97321 0.43883 0.65945 0.0
C639 C 0.95349 0.3991 0.6599 0.0
C640 C 0.93151 0.40963 0.69323 0.0
C641 C 0.93075 0.43477 0.7129 0.0
C642 C 0.95144 0.44919 0.69725 0.0
C643 C 0.90898 0.39468 0.69988 0.0
C644 C 0.88975 0.40024 0.62871 0.0
C645 C 0.90702 0.37411 0.76914 0.0
C646 C 0.92648 0.3676 0.84786 0.0
C647 C 0.93496 0.38468 0.92469 0.0
C648 C 0.95341 0.37847 -0.00179 0.0
C649 C 0.96344 0.35517 0.99615 0.0
C650 C 0.95499 0.33802 0.92072 0.0
C651 C 0.93655 0.34415 0.84697 0.0
H652 H 0.97772 0.3504 0.05314 0.0
H653 H 0.80226 0.40559 0.3143 0.0
H654 H 0.84648 0.73096 0.45645 0.0
H655 H 0.87559 0.69773 0.45997 0.0
H656 H 0.84112 0.66873 0.74968 0.0
H657 H 0.81227 0.70279 0.74863 0.0
H658 H 0.88801 0.66312 0.76623 0.0
H659 H 0.83064 0.64626 0.48096 0.0
H660 H 0.80689 0.6538 0.31287 0.0
H661 H 0.87255 0.66009 0.12586 0.0
H662 H 0.89672 0.65305 0.29322 0.0
H663 H 0.93584 0.54454 0.72366 0.0
H664 H 0.90896 0.57956 0.72521 0.0
H665 H 0.94718 0.60993 0.44856 0.0
H666 H 0.97423 0.57447 0.4456 0.0
H667 H 0.899 0.61505 0.42535 0.0
H668 H 0.95619 0.63055 0.71293 0.0
H669 H 0.97936 0.62213 0.88178 0.0
H670 H 0.91315 0.61733 0.06568 0.0
H671 H 0.88954 0.62522 0.89748 0.0
C672 C 0.84519 0.71763 0.52164 0.0
C673 C 0.82693 0.71939 0.6018 0.0
C674 C 0.86178 0.69849 0.52304 0.0
C675 C 0.8602 0.6802 0.60301 0.0
C676 C 0.84262 0.68246 0.68633 0.0
C677 C 0.82617 0.70195 0.68599 0.0
C678 C 0.87671 0.65868 0.59829 0.0
C679 C 0.89011 0.65241 0.69211 0.0
C680 C 0.88003 0.64495 0.50071 0.0
C681 C 0.8655 0.6494 0.40003 0.0
C682 C 0.84003 0.64949 0.40424 0.0
C683 C 0.82649 0.65365 0.30903 0.0
C684 C 0.8382 0.65751 0.20884 0.0
C685 C 0.8635 0.65718 0.20358 0.0
C686 C 0.87712 0.65311 0.29861 0.0
C687 C 0.93859 0.55859 0.66265 0.0
C688 C 0.95736 0.5567 0.58476 0.0
C689 C 0.92322 0.57874 0.66422 0.0
C690 C 0.92631 0.59772 0.58866 0.0
C691 C 0.94455 0.59562 0.50839 0.0
C692 C 0.95998 0.57532 0.50656 0.0
C693 C 0.91024 0.61951 0.59321 0.0
C694 C 0.8969 0.62581 0.49937 0.0
C695 C 0.90688 0.63314 0.69091 0.0
C696 C 0.92107 0.62822 0.79215 0.0
C697 C 0.94655 0.62744 0.78908 0.0
C698 C 0.95976 0.62279 0.88476 0.0
C699 C 0.94773 0.61911 0.98431 0.0
C700 C 0.92245 0.62011 0.98844 0.0
C701 C 0.90914 0.62466 0.89293 0.0
H702 H 0.958 0.61555 0.05831 0.0
H703 H 0.82768 0.66069 0.13521 0.0
H704 H 0.42567 0.49166 0.99021 0.0
H705 H 0.40092 0.45563 0.02267 0.0
H706 H 0.4652 0.41112 0.02539 0.0
H707 H 0.49016 0.44718 0.99074 0.0
H708 H 0.42821 0.3876 0.92573 0.0
H709 H 0.43916 0.4298 0.26594 0.0
H710 H 0.43859 0.46518 0.39009 0.0
H711 H 0.36179 0.47236 0.34369 0.0
H712 H 0.36195 0.43722 0.21802 0.0
H713 H 0.36836 0.28737 0.17704 0.0
H714 H 0.39664 0.32103 0.14782 0.0
H715 H 0.33685 0.37145 0.14375 0.0
H716 H 0.30857 0.33807 0.17519 0.0
H717 H 0.37398 0.39073 0.25038 0.0
H718 H 0.36342 0.34943 0.90432 0.0
H719 H 0.36397 0.31379 0.78168 0.0
H720 H 0.44016 0.30465 0.84047 0.0
H721 H 0.43998 0.34004 0.96485 0.0
C722 C 0.43458 0.47418 0.99603 0.0
C723 C 0.45997 0.47241 0.98867 0.0
C724 C 0.42038 0.45356 0.01535 0.0
C725 C 0.43119 0.43067 0.02929 0.0
C726 C 0.45641 0.42858 0.01579 0.0
C727 C 0.47068 0.44924 0.99572 0.0
C728 C 0.41622 0.40926 0.06246 0.0
C729 C 0.41662 0.38817 -0.00239 0.0
C730 C 0.4008 0.40998 0.15556 0.0
C731 C 0.40061 0.431 0.23184 0.0
C732 C 0.42218 0.43902 0.28166 0.0
C733 C 0.42192 0.45902 0.35237 0.0
C734 C 0.40018 0.47104 0.37457 0.0
C735 C 0.37862 0.46305 0.32633 0.0
C736 C 0.37878 0.44307 0.25544 0.0
C737 C 0.36123 0.30566 0.17163 0.0
C738 C 0.33611 0.30992 0.17793 0.0
C739 C 0.37744 0.3249 0.15396 0.0
C740 C 0.3689 0.34881 0.14123 0.0
C741 C 0.34395 0.35321 0.15266 0.0
C742 C 0.32776 0.33403 0.17067 0.0
C743 C 0.38567 0.36918 0.11279 0.0
C744 C 0.38564 0.3901 0.17874 0.0
C745 C 0.40142 0.36826 0.02082 0.0
C746 C 0.40163 0.34723 0.94474 0.0
C747 C 0.38026 0.33973 0.89161 0.0
C748 C 0.38051 0.31958 0.82175 0.0
C749 C 0.40208 0.30693 0.80353 0.0
C750 C 0.42346 0.31445 0.85481 0.0
C751 C 0.4233 0.33456 0.92495 0.0
H752 H 0.40223 0.29132 0.7495 0.0
H753 H 0.40002 0.48653 0.42931 0.0
H754 H 0.28378 0.67226 0.20787 0.0
H755 H 0.32058 0.6477 0.2298 0.0
H756 H 0.36446 0.7106 0.16106 0.0
H757 H 0.32786 0.73545 0.1423 0.0
H758 H 0.36595 0.66373 0.01141 0.0
H759 H 0.37389 0.6948 0.38059 0.0
H760 H 0.36158 0.70243 0.57196 0.0
H761 H 0.3549 0.62572 0.62779 0.0
H762 H 0.36671 0.61763 0.43596 0.0
H763 H 0.48327 0.61573 0.00227 0.0
H764 H 0.44825 0.64136 0.03937 0.0
H765 H 0.41757 0.58515 0.24318 0.0
H766 H 0.45318 0.55946 0.20823 0.0
H767 H 0.40809 0.6276 0.33191 0.0
H768 H 0.39869 0.59502 0.97335 0.0
H769 H 0.40831 0.58477 0.78122 0.0
H770 H 0.414 0.66056 0.70226 0.0
H771 H 0.40483 0.67128 0.8944 0.0
C772 C 0.30128 0.68105 0.20101 0.0
C773 C 0.30282 0.70586 0.17346 0.0
C774 C 0.3223 0.66697 0.21363 0.0
C775 C 0.34527 0.67731 0.19738 0.0
C776 C 0.34692 0.70229 0.17499 0.0
C777 C 0.32594 0.7165 0.16469 0.0
C778 C 0.36709 0.66153 0.18743 0.0
C779 C 0.37544 0.65613 0.0815 0.0
C780 C 0.37871 0.65073 0.27884 0.0
C781 C 0.37077 0.65563 0.39309 0.0
C782 C 0.36935 0.67957 0.43292 0.0
C783 C 0.36258 0.68397 0.54173 0.0
C784 C 0.35732 0.66458 0.61181 0.0
C785 C 0.35884 0.64074 0.57324 0.0
C786 C 0.36558 0.63623 0.46448 0.0
C787 C 0.46922 0.60883 0.05596 0.0
C788 C 0.47102 0.58542 0.10169 0.0
C789 C 0.44904 0.62351 0.07655 0.0
C790 C 0.42982 0.61507 0.14187 0.0
C791 C 0.43202 0.59209 0.19182 0.0
C792 C 0.45243 0.57741 0.17203 0.0
C793 C 0.40739 0.63012 0.15538 0.0
C794 C 0.39873 0.63523 0.26159 0.0
C795 C 0.39508 0.64034 0.06394 0.0
C796 C 0.40137 0.63394 0.94886 0.0
C797 C 0.40231 0.6095 0.91544 0.0
C798 C 0.40762 0.60361 0.8064 0.0
C799 C 0.41186 0.622 0.7297 0.0
C800 C 0.41082 0.64633 0.76189 0.0
C801 C 0.40555 0.65232 0.87085 0.0
H802 H 0.41584 0.61741 0.6452 0.0
H803 H 0.35221 0.66802 0.69619 0.0
H804 H 0.17222 0.72147 0.9806 0.0
H805 H 0.14675 0.68691 0.93494 0.0
H806 H 0.20692 0.65251 0.77133 0.0
H807 H 0.23277 0.6877 0.81586 0.0
H808 H 0.16499 0.64559 0.65772 0.0
H809 H 0.18982 0.63339 0.02792 0.0
H810 H 0.19733 0.64378 0.22193 0.0
H811 H 0.12148 0.65767 0.26878 0.0
H812 H 0.11353 0.64755 0.07481 0.0
H813 H 0.09211 0.53617 0.64833 0.0
H814 H 0.12599 0.56397 0.68571 0.0
H815 H 0.07693 0.61341 0.84662 0.0
H816 H 0.04318 0.58594 0.80944 0.0
H817 H 0.1189 0.60756 0.96239 0.0
H818 H 0.09542 0.62305 0.58506 0.0
H819 H 0.08848 0.61215 0.39118 0.0
H820 H 0.163 0.59097 0.35892 0.0
H821 H 0.17032 0.60143 0.55318 0.0
C822 C 0.18015 0.70666 0.93437 0.0
C823 C 0.20467 0.70732 0.90282 0.0
C824 C 0.16551 0.68677 0.90877 0.0
C825 C 0.17498 0.66672 0.85214 0.0
C826 C 0.19922 0.66765 0.81608 0.0
C827 C 0.21397 0.68779 0.84131 0.0
C828 C 0.15931 0.64498 0.83262 0.0
C829 C 0.15531 0.63693 0.72462 0.0
C830 C 0.14643 0.6337 0.91959 0.0
C831 C 0.15112 0.63988 0.03644 0.0
C832 C 0.17476 0.63883 0.07935 0.0
C833 C 0.17909 0.64464 0.18939 0.0
C834 C 0.1599 0.65147 0.25751 0.0
C835 C 0.13634 0.65246 0.2158 0.0
C836 C 0.1319 0.6466 0.10591 0.0
C837 C 0.08861 0.55282 0.69293 0.0
C838 C 0.06489 0.5588 0.72593 0.0
C839 C 0.10797 0.56879 0.71343 0.0
C840 C 0.10401 0.59095 0.76801 0.0
C841 C 0.08049 0.59649 0.80417 0.0
C842 C 0.06117 0.58072 0.78281 0.0
C843 C 0.12405 0.60868 0.7874 0.0
C844 C 0.12888 0.61595 0.89567 0.0
C845 C 0.13776 0.61905 0.70076 0.0
C846 C 0.13332 0.61265 0.58419 0.0
C847 C 0.11026 0.6158 0.53702 0.0
C848 C 0.10627 0.60973 0.42701 0.0
C849 C 0.12523 0.60067 0.36307 0.0
C850 C 0.14828 0.59781 0.40881 0.0
C851 C 0.15237 0.60382 0.51881 0.0
H852 H 0.12213 0.59607 0.27781 0.0
H853 H 0.16328 0.65589 0.34277 0.0
H854 H 0.19 0.30643 0.03969 0.0
H855 H 0.156 0.33505 0.06204 0.0
H856 H 0.20434 0.38661 0.21449 0.0
H857 H 0.23781 0.35824 0.19431 0.0
H858 H 0.16654 0.37954 0.34044 0.0
H859 H 0.17942 0.39491 0.95448 0.0
H860 H 0.18255 0.38374 0.75893 0.0
H861 H 0.10903 0.35822 0.7624 0.0
H862 H 0.10556 0.3689 0.95857 0.0
H863 H 0.10616 0.49014 0.36935 0.0
H864 H 0.13245 0.45873 0.29423 0.0
H865 H 0.07056 0.41261 0.23837 0.0
H866 H 0.04384 0.44406 0.31536 0.0
H867 H 0.11001 0.41282 0.06163 0.0
H868 H 0.09726 0.39941 0.44813 0.0
H869 H 0.09458 0.41224 0.64172 0.0
H870 H 0.169 0.43497 0.63415 0.0
H871 H 0.17201 0.42264 0.43983 0.0
C872 C 0.19339 0.32411 0.07555 0.0
C873 C 0.21656 0.33 0.1159 0.0
C874 C 0.17394 0.34045 0.08859 0.0
C875 C 0.17749 0.36301 0.14097 0.0
C876 C 0.20097 0.36929 0.17511 0.0
C877 C 0.22017 0.35303 0.16309 0.0
C878 C 0.15689 0.37956 0.16885 0.0
C879 C 0.15433 0.38685 0.2789 0.0
C880 C 0.14033 0.38866 0.08976 0.0
C881 C 0.14236 0.38234 0.97173 0.0
C882 C 0.16401 0.38666 0.91392 0.0
C883 C 0.16585 0.38042 0.80297 0.0
C884 C 0.14609 0.37003 0.74862 0.0
C885 C 0.12438 0.36607 0.80488 0.0
C886 C 0.12247 0.37224 0.91592 0.0
C887 C 0.09794 0.47353 0.33963 0.0
C888 C 0.07282 0.46962 0.34952 0.0
C889 C 0.11307 0.45556 0.29643 0.0
C890 C 0.10353 0.43326 0.26128 0.0
C891 C 0.07831 0.42972 0.26473 0.0
C892 C 0.06308 0.4477 0.30903 0.0
C893 C 0.12036 0.41311 0.23205 0.0
C894 C 0.12212 0.40517 0.12266 0.0
C895 C 0.13636 0.40337 0.31143 0.0
C896 C 0.13477 0.41035 0.429 0.0
C897 C 0.11299 0.40735 0.48742 0.0
C898 C 0.11141 0.41455 0.59726 0.0
C899 C 0.13154 0.42463 0.64987 0.0
C900 C 0.15337 0.42732 0.59302 0.0
C901 C 0.15503 0.42019 0.48309 0.0
H902 H 0.13031 0.43011 0.73504 0.0
H903 H 0.14752 0.36531 0.66259 0.0
loop_
_geom_bond_atom_site_label_1
_geom_bond_atom_site_label_2
_geom_bond_distance
_geom_bond_site_symmetry_2
_ccdc_geom_bond_type
Mg0 O7 2.141 1_455 S
Mg0 O8 2.048 . S
Mg0 O9 2.048 1_545 S
Mg0 O12 2.141 1_445 S
C1 O2 1.313 . S
C1 O8 1.195 . S
O2 C1 1.313 . S
C3 O4 1.245 . S
C3 O12 1.289 . S
O4 C3 1.245 . S
C5 O6 1.245 . S
C5 O7 1.289 . S
O6 C5 1.245 . S
O7 Mg0 2.141 1_655 S
O7 C5 1.289 . S
O8 Mg0 2.048 . S
O8 C1 1.195 . S
O9 Mg0 2.048 1_565 S
O9 C10 1.195 . S
C10 O9 1.195 . S
C10 O11 1.313 . S
O11 C10 1.313 . S
O12 Mg0 2.141 1_665 S
O12 C3 1.289 . S
Mg13 O20 2.141 . S
Mg13 O21 2.048 . S
Mg13 O22 2.048 . S
Mg13 O25 2.141 . S
C14 O15 1.313 . S
C14 O21 1.195 . S
O15 C14 1.313 . S
C16 O17 1.245 . S
C16 O25 1.289 . S
O17 C16 1.245 . S
C18 O19 1.245 . S
C18 O20 1.289 . S
O19 C18 1.245 . S
O20 Mg13 2.141 . S
O20 C18 1.289 . S
O21 Mg13 2.048 . S
O21 C14 1.195 . S
O22 Mg13 2.048 . S
O22 C23 1.195 . S
C23 O22 1.195 . S
C23 O24 1.313 . S
O24 C23 1.313 . S
O25 Mg13 2.141 . S
O25 C16 1.289 . S
Mg26 O33 2.141 . S
Mg26 O34 2.048 . S
Mg26 O35 2.048 1_565 S
Mg26 O38 2.141 1_565 S
C27 O28 1.313 1_554 S
C27 O34 1.195 . S
O28 C27 1.313 1_556 S
C29 O30 1.245 . S
C29 O38 1.289 . S
O30 C29 1.245 . S
C31 O32 1.245 1_554 S
C31 O33 1.289 . S
O32 C31 1.245 1_556 S
O33 Mg26 2.141 . S
O33 C31 1.289 . S
O34 Mg26 2.048 . S
O34 C27 1.195 . S
O35 Mg26 2.048 1_545 S
O35 C36 1.195 . S
C36 O35 1.195 . S
C36 O37 1.313 . S
O37 C36 1.313 . S
O38 Mg26 2.141 1_545 S
O38 C29 1.289 . S
Mg39 O46 2.141 . S
Mg39 O47 2.048 . S
Mg39 O48 2.048 . S
Mg39 O51 2.141 . S
C40 O41 1.313 . S
C40 O47 1.195 . S
O41 C40 1.313 . S
C42 O43 1.245 . S
C42 O51 1.289 . S
O43 C42 1.245 . S
C44 O45 1.245 . S
C44 O46 1.289 . S
O45 C44 1.245 . S
O46 Mg39 2.141 . S
O46 C44 1.289 . S
O47 Mg39 2.048 . S
O47 C40 1.195 . S
O48 Mg39 2.048 . S
O48 C49 1.195 . S
C49 O48 1.195 . S
C49 O50 1.313 . S
O50 C49 1.313 . S
O51 Mg39 2.141 . S
O51 C42 1.289 . S
Mg52 O59 2.141 . S
Mg52 O60 2.048 . S
Mg52 O61 2.048 . S
Mg52 O64 2.141 . S
C53 O54 1.313 . S
C53 O60 1.195 . S
O54 C53 1.313 . S
C55 O56 1.245 . S
C55 O64 1.289 . S
O56 C55 1.245 . S
C57 O58 1.245 . S
C57 O59 1.289 . S
O58 C57 1.245 . S
O59 Mg52 2.141 . S
O59 C57 1.289 . S
O60 Mg52 2.048 . S
O60 C53 1.195 . S
O61 Mg52 2.048 . S
O61 C62 1.195 . S
C62 O61 1.195 . S
C62 O63 1.313 . S
O63 C62 1.313 . S
O64 Mg52 2.141 . S
O64 C55 1.289 . S
Mg65 O72 2.141 . S
Mg65 O73 2.048 . S
Mg65 O74 2.048 . S
Mg65 O77 2.141 . S
C66 O67 1.313 . S
C66 O73 1.195 . S
O67 C66 1.313 . S
C68 O69 1.245 . S
C68 O77 1.289 . S
O69 C68 1.245 . S
C70 O71 1.245 . S
C70 O72 1.289 . S
O71 C70 1.245 . S
O72 Mg65 2.141 . S
O72 C70 1.289 . S
O73 Mg65 2.048 . S
O73 C66 1.195 . S
O74 Mg65 2.048 . S
O74 C75 1.195 . S
C75 O74 1.195 . S
C75 O76 1.313 . S
O76 C75 1.313 . S
O77 Mg65 2.141 . S
O77 C68 1.289 . S
Mg78 O85 2.141 . S
Mg78 O86 2.048 . S
Mg78 O87 2.048 . S
Mg78 O90 2.141 . S
C79 O80 1.313 1_554 S
C79 O86 1.195 . S
O80 C79 1.313 1_556 S
C81 O82 1.245 . S
C81 O90 1.289 1_556 S
O82 C81 1.245 . S
C83 O84 1.245 1_554 S
C83 O85 1.289 . S
O84 C83 1.245 1_556 S
O85 Mg78 2.141 . S
O85 C83 1.289 . S
O86 Mg78 2.048 . S
O86 C79 1.195 . S
O87 Mg78 2.048 . S
O87 C88 1.195 1_554 S
C88 O87 1.195 1_556 S
C88 O89 1.313 . S
O89 C88 1.313 . S
O90 Mg78 2.141 . S
O90 C81 1.289 1_554 S
Mg91 O98 2.141 . S
Mg91 O99 2.048 1_455 S
Mg91 O100 2.048 1_455 S
Mg91 O103 2.141 . S
C92 O93 1.313 . S
C92 O99 1.195 . S
O93 C92 1.313 . S
C94 O95 1.245 . S
C94 O103 1.289 . S
O95 C94 1.245 . S
C96 O97 1.245 . S
C96 O98 1.289 . S
O97 C96 1.245 . S
O98 Mg91 2.141 . S
O98 C96 1.289 . S
O99 Mg91 2.048 1_655 S
O99 C92 1.195 . S
O100 Mg91 2.048 1_655 S
O100 C101 1.195 . S
C101 O100 1.195 . S
C101 O102 1.313 . S
O102 C101 1.313 . S
O103 Mg91 2.141 . S
O103 C94 1.289 . S
H104 C122 0.951 . S
H105 C124 0.951 . S
H106 C126 0.950 . S
H107 C127 0.950 . S
H108 C129 0.950 . S
H109 C132 0.950 . S
H110 C133 0.950 . S
H111 C135 0.950 . S
H112 C136 0.950 . S
H113 C137 0.951 . S
H114 C139 0.951 . S
H115 C141 0.950 . S
H116 C142 0.950 . S
H117 C144 0.950 . S
H118 C147 0.950 . S
H119 C148 0.957 . S
H120 C150 0.950 . S
H121 C151 0.950 . S
C122 H104 0.951 . S
C122 C123 1.366 . S
C122 C124 1.388 . S
C123 C122 1.366 . S
C123 C127 1.385 . S
C124 H105 0.951 . S
C124 C122 1.388 . S
C124 C125 1.366 . S
C125 C124 1.366 . S
C125 C126 1.414 . S
C125 C128 1.499 . S
C126 H106 0.950 . S
C126 C125 1.414 . S
C126 C127 1.374 . S
C127 H107 0.950 . S
C127 C123 1.385 . S
C127 C126 1.374 . S
C128 C125 1.499 . S
C128 C129 1.373 . S
C128 C130 1.389 . S
C129 H108 0.950 . S
C129 C128 1.373 . S
C129 C145 1.377 . S
C130 C128 1.389 . S
C130 C131 1.524 . S
C130 C144 1.377 . S
C131 C130 1.524 . S
C131 C132 1.397 . S
C131 C136 1.363 . S
C132 H109 0.950 . S
C132 C131 1.397 . S
C132 C133 1.334 . S
C133 H110 0.950 . S
C133 C132 1.334 . S
C133 C134 1.287 . S
C134 C133 1.287 . S
C134 C135 1.524 . S
C134 H153 0.913 . S
C135 H111 0.950 . S
C135 C134 1.524 . S
C135 C136 1.415 . S
C136 H112 0.950 . S
C136 C131 1.363 . S
C136 C135 1.415 . S
C137 H113 0.951 . S
C137 C138 1.366 . S
C137 C139 1.388 . S
C138 C137 1.366 . S
C138 C142 1.385 . S
C139 H114 0.951 . S
C139 C137 1.388 . S
C139 C140 1.366 . S
C140 C139 1.366 . S
C140 C141 1.414 . S
C140 C143 1.499 . S
C141 H115 0.950 . S
C141 C140 1.414 . S
C141 C142 1.374 . S
C142 H116 0.950 . S
C142 C138 1.385 . S
C142 C141 1.374 . S
C143 C140 1.499 . S
C143 C144 1.373 . S
C143 C145 1.389 . S
C144 H117 0.950 . S
C144 C130 1.377 . S
C144 C143 1.373 . S
C145 C129 1.377 . S
C145 C143 1.389 . S
C145 C146 1.524 . S
C146 C145 1.524 . S
C146 C147 1.397 . S
C146 C151 1.363 . S
C147 H118 0.950 . S
C147 C146 1.397 . S
C147 C148 1.334 . S
C148 H119 0.957 . S
C148 C147 1.334 . S
C148 C149 1.287 . S
C149 C148 1.287 . S
C149 C150 1.524 . S
C149 H152 0.999 1_554 S
C150 H120 0.950 . S
C150 C149 1.524 . S
C150 C151 1.415 . S
C151 H121 0.950 . S
C151 C146 1.363 . S
C151 C150 1.415 . S
H152 C149 0.999 1_556 S
H153 C134 0.913 . S
H154 C172 0.951 . S
H155 C174 0.951 . S
H156 C176 0.950 . S
H157 C177 0.950 . S
H158 C179 0.950 . S
H159 C182 0.950 . S
H160 C183 0.950 . S
H161 C185 0.950 . S
H162 C186 0.950 . S
H163 C187 0.951 . S
H164 C189 0.951 . S
H165 C191 0.950 . S
H166 C192 0.950 . S
H167 C194 0.950 . S
H168 C197 0.950 . S
H169 C198 0.950 . S
H170 C200 0.950 . S
H171 C201 0.950 . S
C172 H154 0.951 . S
C172 C173 1.366 . S
C172 C174 1.388 . S
C173 C172 1.366 . S
C173 C177 1.385 . S
C174 H155 0.951 . S
C174 C172 1.388 . S
C174 C175 1.366 . S
C175 C174 1.366 . S
C175 C176 1.414 . S
C175 C178 1.499 . S
C176 H156 0.950 . S
C176 C175 1.414 . S
C176 C177 1.374 . S
C177 H157 0.950 . S
C177 C173 1.385 . S
C177 C176 1.374 . S
C178 C175 1.499 . S
C178 C179 1.373 . S
C178 C180 1.389 . S
C179 H158 0.950 . S
C179 C178 1.373 . S
C179 C195 1.377 . S
C180 C178 1.389 . S
C180 C181 1.524 . S
C180 C194 1.377 . S
C181 C180 1.524 . S
C181 C182 1.397 . S
C181 C186 1.363 . S
C182 H159 0.950 . S
C182 C181 1.397 . S
C182 C183 1.334 . S
C183 H160 0.950 . S
C183 C182 1.334 . S
C183 C184 1.287 . S
C184 C183 1.287 . S
C184 C185 1.524 . S
C184 H203 0.913 . S
C185 H161 0.950 . S
C185 C184 1.524 . S
C185 C186 1.415 . S
C186 H162 0.950 . S
C186 C181 1.363 . S
C186 C185 1.415 . S
C187 H163 0.951 . S
C187 C188 1.366 . S
C187 C189 1.388 . S
C188 C187 1.366 . S
C188 C192 1.385 . S
C189 H164 0.951 . S
C189 C187 1.388 . S
C189 C190 1.366 . S
C190 C189 1.366 . S
C190 C191 1.414 . S
C190 C193 1.499 . S
C191 H165 0.950 . S
C191 C190 1.414 . S
C191 C192 1.374 . S
C192 H166 0.950 . S
C192 C188 1.385 . S
C192 C191 1.374 . S
C193 C190 1.499 . S
C193 C194 1.373 . S
C193 C195 1.389 . S
C194 H167 0.950 . S
C194 C180 1.377 . S
C194 C193 1.373 . S
C195 C179 1.377 . S
C195 C193 1.389 . S
C195 C196 1.524 . S
C196 C195 1.524 . S
C196 C197 1.397 . S
C196 C201 1.363 1_556 S
C197 H168 0.950 . S
C197 C196 1.397 . S
C197 C198 1.334 1_556 S
C198 H169 0.950 . S
C198 C197 1.334 1_554 S
C198 C199 1.287 . S
C199 C198 1.287 . S
C199 C200 1.524 . S
C199 H202 0.999 . S
C200 H170 0.950 . S
C200 C199 1.524 . S
C200 C201 1.415 . S
C201 H171 0.950 . S
C201 C196 1.363 1_554 S
C201 C200 1.415 . S
H202 C199 0.999 . S
H203 C184 0.913 . S
H204 C222 0.951 . S
H205 C224 0.951 . S
H206 C226 0.950 . S
H207 C227 0.950 1_556 S
H208 C229 0.950 . S
H209 C232 0.950 . S
H210 C233 0.950 . S
H211 C235 0.950 . S
H212 C236 0.950 . S
H213 C237 0.951 . S
H214 C239 0.951 . S
H215 C241 0.950 1_554 S
H216 C242 0.950 . S
H217 C244 0.950 . S
H218 C247 0.950 . S
H219 C248 0.950 . S
H220 C250 0.950 . S
H221 C251 0.950 . S
C222 H204 0.951 . S
C222 C223 1.366 . S
C222 C224 1.388 . S
C223 C222 1.366 . S
C223 C227 1.385 . S
C224 H205 0.951 . S
C224 C222 1.388 . S
C224 C225 1.366 . S
C225 C224 1.366 . S
C225 C226 1.414 1_554 S
C225 C228 1.499 . S
C226 H206 0.950 . S
C226 C225 1.414 1_556 S
C226 C227 1.374 1_556 S
C227 H207 0.950 1_554 S
C227 C223 1.385 . S
C227 C226 1.374 1_554 S
C228 C225 1.499 . S
C228 C229 1.373 1_554 S
C228 C230 1.389 . S
C229 H208 0.950 . S
C229 C228 1.373 1_556 S
C229 C245 1.377 . S
C230 C228 1.389 . S
C230 C231 1.524 . S
C230 C244 1.377 . S
C231 C230 1.524 . S
C231 C232 1.397 . S
C231 C236 1.363 . S
C232 H209 0.950 . S
C232 C231 1.397 . S
C232 C233 1.334 . S
C233 H210 0.950 . S
C233 C232 1.334 . S
C233 C234 1.287 . S
C234 C233 1.287 . S
C234 C235 1.524 . S
C234 H253 0.913 . S
C235 H211 0.950 . S
C235 C234 1.524 . S
C235 C236 1.415 . S
C236 H212 0.950 . S
C236 C231 1.363 . S
C236 C235 1.415 . S
C237 H213 0.951 . S
C237 C238 1.366 . S
C237 C239 1.388 . S
C238 C237 1.366 . S
C238 C242 1.385 . S
C239 H214 0.951 . S
C239 C237 1.388 . S
C239 C240 1.366 . S
C240 C239 1.366 . S
C240 C241 1.414 . S
C240 C243 1.499 . S
C241 H215 0.950 1_556 S
C241 C240 1.414 . S
C241 C242 1.374 . S
C242 H216 0.950 . S
C242 C238 1.385 . S
C242 C241 1.374 . S
C243 C240 1.499 . S
C243 C244 1.373 1_556 S
C243 C245 1.389 . S
C244 H217 0.950 . S
C244 C230 1.377 . S
C244 C243 1.373 1_554 S
C245 C229 1.377 . S
C245 C243 1.389 . S
C245 C246 1.524 . S
C246 C245 1.524 . S
C246 C247 1.397 . S
C246 C251 1.363 . S
C247 H218 0.950 . S
C247 C246 1.397 . S
C247 C248 1.334 . S
C248 H219 0.950 . S
C248 C247 1.334 . S
C248 C249 1.287 . S
C249 C248 1.287 . S
C249 C250 1.524 . S
C249 H252 0.999 . S
C250 H220 0.950 . S
C250 C249 1.524 . S
C250 C251 1.415 . S
C251 H221 0.950 . S
C251 C246 1.363 . S
C251 C250 1.415 . S
H252 C249 0.999 . S
H253 C234 0.913 . S
H254 C272 0.951 . S
H255 C274 0.951 . S
H256 C276 0.950 . S
H257 C277 0.950 . S
H258 C279 0.950 . S
H259 C282 0.950 . S
H260 C283 0.950 . S
H261 C285 0.950 . S
H262 C286 0.950 . S
H263 C287 0.951 . S
H264 C289 0.951 . S
H265 C291 0.950 . S
H266 C292 0.950 . S
H267 C294 0.950 . S
H268 C297 0.950 . S
H269 C298 0.950 . S
H270 C300 0.950 . S
H271 C301 0.950 . S
C272 H254 0.951 . S
C272 C273 1.366 . S
C272 C274 1.388 . S
C273 C272 1.366 . S
C273 C277 1.385 . S
C274 H255 0.951 . S
C274 C272 1.388 . S
C274 C275 1.366 . S
C275 C274 1.366 . S
C275 C276 1.414 . S
C275 C278 1.499 . S
C276 H256 0.950 . S
C276 C275 1.414 . S
C276 C277 1.374 . S
C277 H257 0.950 . S
C277 C273 1.385 . S
C277 C276 1.374 . S
C278 C275 1.499 . S
C278 C279 1.373 . S
C278 C280 1.389 . S
C279 H258 0.950 . S
C279 C278 1.373 . S
C279 C295 1.377 . S
C280 C278 1.389 . S
C280 C281 1.524 . S
C280 C294 1.377 . S
C281 C280 1.524 . S
C281 C282 1.397 . S
C281 C286 1.363 . S
C282 H259 0.950 . S
C282 C281 1.397 . S
C282 C283 1.334 . S
C283 H260 0.950 . S
C283 C282 1.334 . S
C283 C284 1.287 . S
C284 C283 1.287 . S
C284 C285 1.524 . S
C284 H303 0.913 . S
C285 H261 0.950 . S
C285 C284 1.524 . S
C285 C286 1.415 . S
C286 H262 0.950 . S
C286 C281 1.363 . S
C286 C285 1.415 . S
C287 H263 0.951 . S
C287 C288 1.366 . S
C287 C289 1.388 . S
C288 C287 1.366 . S
C288 C292 1.385 . S
C289 H264 0.951 . S
C289 C287 1.388 . S
C289 C290 1.366 . S
C290 C289 1.366 . S
C290 C291 1.414 . S
C290 C293 1.499 . S
C291 H265 0.950 . S
C291 C290 1.414 . S
C291 C292 1.374 . S
C292 H266 0.950 . S
C292 C288 1.385 . S
C292 C291 1.374 . S
C293 C290 1.499 . S
C293 C294 1.373 . S
C293 C295 1.389 . S
C294 H267 0.950 . S
C294 C280 1.377 . S
C294 C293 1.373 . S
C295 C279 1.377 . S
C295 C293 1.389 . S
C295 C296 1.524 . S
C296 C295 1.524 . S
C296 C297 1.397 1_554 S
C296 C301 1.363 . S
C297 H268 0.950 . S
C297 C296 1.397 1_556 S
C297 C298 1.334 . S
C298 H269 0.950 . S
C298 C297 1.334 . S
C298 C299 1.287 . S
C299 C298 1.287 . S
C299 C300 1.524 . S
C299 H302 0.999 . S
C300 H270 0.950 . S
C300 C299 1.524 . S
C300 C301 1.415 1_556 S
C301 H271 0.950 . S
C301 C296 1.363 . S
C301 C300 1.415 1_554 S
H302 C299 0.999 . S
H303 C284 0.913 . S
H304 C322 0.951 . S
H305 C324 0.951 . S
H306 C326 0.950 . S
H307 C327 0.950 . S
H308 C329 0.950 . S
H309 C332 0.950 . S
H310 C333 0.950 . S
H311 C335 0.950 . S
H312 C336 0.950 . S
H313 C337 0.951 . S
H314 C339 0.951 . S
H315 C341 0.950 . S
H316 C342 0.950 . S
H317 C344 0.950 . S
H318 C347 0.950 . S
H319 C348 0.950 . S
H320 C350 0.950 . S
H321 C351 0.950 . S
C322 H304 0.951 . S
C322 C323 1.366 . S
C322 C324 1.388 . S
C323 C322 1.366 . S
C323 C327 1.385 . S
C324 H305 0.951 . S
C324 C322 1.388 . S
C324 C325 1.366 . S
C325 C324 1.366 . S
C325 C326 1.414 . S
C325 C328 1.499 . S
C326 H306 0.950 . S
C326 C325 1.414 . S
C326 C327 1.374 . S
C327 H307 0.950 . S
C327 C323 1.385 . S
C327 C326 1.374 . S
C328 C325 1.499 . S
C328 C329 1.373 . S
C328 C330 1.389 . S
C329 H308 0.950 . S
C329 C328 1.373 . S
C329 C345 1.377 . S
C330 C328 1.389 . S
C330 C331 1.524 . S
C330 C344 1.377 . S
C331 C330 1.524 . S
C331 C332 1.397 . S
C331 C336 1.363 . S
C332 H309 0.950 . S
C332 C331 1.397 . S
C332 C333 1.334 . S
C333 H310 0.950 . S
C333 C332 1.334 . S
C333 C334 1.287 . S
C334 C333 1.287 . S
C334 C335 1.524 . S
C334 H353 0.913 . S
C335 H311 0.950 . S
C335 C334 1.524 . S
C335 C336 1.415 . S
C336 H312 0.950 . S
C336 C331 1.363 . S
C336 C335 1.415 . S
C337 H313 0.951 . S
C337 C338 1.366 . S
C337 C339 1.388 . S
C338 C337 1.366 . S
C338 C342 1.385 . S
C339 H314 0.951 . S
C339 C337 1.388 . S
C339 C340 1.366 . S
C340 C339 1.366 . S
C340 C341 1.414 . S
C340 C343 1.499 . S
C341 H315 0.950 . S
C341 C340 1.414 . S
C341 C342 1.374 . S
C342 H316 0.950 . S
C342 C338 1.385 . S
C342 C341 1.374 . S
C343 C340 1.499 . S
C343 C344 1.373 . S
C343 C345 1.389 . S
C344 H317 0.950 . S
C344 C330 1.377 . S
C344 C343 1.373 . S
C345 C329 1.377 . S
C345 C343 1.389 . S
C345 C346 1.524 . S
C346 C345 1.524 . S
C346 C347 1.397 . S
C346 C351 1.363 . S
C347 H318 0.950 . S
C347 C346 1.397 . S
C347 C348 1.334 1_556 S
C348 H319 0.950 . S
C348 C347 1.334 1_554 S
C348 C349 1.287 . S
C349 C348 1.287 . S
C349 C350 1.524 1_554 S
C349 H352 0.999 . S
C350 H320 0.950 . S
C350 C349 1.524 1_556 S
C350 C351 1.415 . S
C351 H321 0.950 . S
C351 C346 1.363 . S
C351 C350 1.415 . S
H352 C349 0.999 . S
H353 C334 0.913 . S
H354 C372 0.951 . S
H355 C374 0.951 . S
H356 C376 0.950 . S
H357 C377 0.950 . S
H358 C379 0.950 . S
H359 C382 0.950 . S
H360 C383 0.950 . S
H361 C385 0.950 . S
H362 C386 0.950 . S
H363 C387 0.951 . S
H364 C389 0.951 . S
H365 C391 0.950 . S
H366 C392 0.950 . S
H367 C394 0.950 . S
H368 C397 0.950 . S
H369 C398 0.950 . S
H370 C400 0.950 . S
H371 C401 0.950 . S
C372 H354 0.951 . S
C372 C373 1.366 . S
C372 C374 1.388 . S
C373 C372 1.366 . S
C373 C377 1.385 . S
C374 H355 0.951 . S
C374 C372 1.388 . S
C374 C375 1.366 . S
C375 C374 1.366 . S
C375 C376 1.414 . S
C375 C378 1.499 . S
C376 H356 0.950 . S
C376 C375 1.414 . S
C376 C377 1.374 . S
C377 H357 0.950 . S
C377 C373 1.385 . S
C377 C376 1.374 . S
C378 C375 1.499 . S
C378 C379 1.373 . S
C378 C380 1.389 . S
C379 H358 0.950 . S
C379 C378 1.373 . S
C379 C395 1.377 . S
C380 C378 1.389 . S
C380 C381 1.524 . S
C380 C394 1.377 . S
C381 C380 1.524 . S
C381 C382 1.397 . S
C381 C386 1.363 . S
C382 H359 0.950 . S
C382 C381 1.397 . S
C382 C383 1.334 . S
C383 H360 0.950 . S
C383 C382 1.334 . S
C383 C384 1.287 . S
C384 C383 1.287 . S
C384 C385 1.524 . S
C384 H403 0.913 . S
C385 H361 0.950 . S
C385 C384 1.524 . S
C385 C386 1.415 . S
C386 H362 0.950 . S
C386 C381 1.363 . S
C386 C385 1.415 . S
C387 H363 0.951 . S
C387 C388 1.366 . S
C387 C389 1.388 . S
C388 C387 1.366 . S
C388 C392 1.385 . S
C389 H364 0.951 . S
C389 C387 1.388 . S
C389 C390 1.366 . S
C390 C389 1.366 . S
C390 C391 1.414 . S
C390 C393 1.499 . S
C391 H365 0.950 . S
C391 C390 1.414 . S
C391 C392 1.374 . S
C392 H366 0.950 . S
C392 C388 1.385 . S
C392 C391 1.374 . S
C393 C390 1.499 . S
C393 C394 1.373 . S
C393 C395 1.389 . S
C394 H367 0.950 . S
C394 C380 1.377 . S
C394 C393 1.373 . S
C395 C379 1.377 . S
C395 C393 1.389 . S
C395 C396 1.524 . S
C396 C395 1.524 . S
C396 C397 1.397 . S
C396 C401 1.363 . S
C397 H368 0.950 . S
C397 C396 1.397 . S
C397 C398 1.334 . S
C398 H369 0.950 . S
C398 C397 1.334 . S
C398 C399 1.287 . S
C399 C398 1.287 . S
C399 C400 1.524 . S
C399 H402 0.999 . S
C400 H370 0.950 . S
C400 C399 1.524 . S
C400 C401 1.415 . S
C401 H371 0.950 . S
C401 C396 1.363 . S
C401 C400 1.415 . S
H402 C399 0.999 . S
H403 C384 0.913 . S
H404 C422 0.951 . S
H405 C424 0.951 . S
H406 C426 0.950 . S
H407 C427 0.950 . S
H408 C429 0.950 . S
H409 C432 0.950 . S
H410 C433 0.950 . S
H411 C435 0.950 . S
H412 C436 0.950 . S
H413 C437 0.951 . S
H414 C439 0.951 . S
H415 C441 0.950 . S
H416 C442 0.950 . S
H417 C444 0.950 . S
H418 C447 0.950 . S
H419 C448 0.950 . S
H420 C450 0.950 . S
H421 C451 0.950 . S
C422 H404 0.951 . S
C422 C423 1.366 . S
C422 C424 1.388 . S
C423 C422 1.366 . S
C423 C427 1.385 . S
C424 H405 0.951 . S
C424 C422 1.388 . S
C424 C425 1.366 . S
C425 C424 1.366 . S
C425 C426 1.414 . S
C425 C428 1.499 . S
C426 H406 0.950 . S
C426 C425 1.414 . S
C426 C427 1.374 . S
C427 H407 0.950 . S
C427 C423 1.385 . S
C427 C426 1.374 . S
C428 C425 1.499 . S
C428 C429 1.373 . S
C428 C430 1.389 . S
C429 H408 0.950 . S
C429 C428 1.373 . S
C429 C445 1.377 . S
C430 C428 1.389 . S
C430 C431 1.524 . S
C430 C444 1.377 . S
C431 C430 1.524 . S
C431 C432 1.397 . S
C431 C436 1.363 . S
C432 H409 0.950 . S
C432 C431 1.397 . S
C432 C433 1.334 . S
C433 H410 0.950 . S
C433 C432 1.334 . S
C433 C434 1.287 . S
C434 C433 1.287 . S
C434 C435 1.524 . S
C434 H453 0.913 . S
C435 H411 0.950 . S
C435 C434 1.524 . S
C435 C436 1.415 . S
C436 H412 0.950 . S
C436 C431 1.363 . S
C436 C435 1.415 . S
C437 H413 0.951 . S
C437 C438 1.366 . S
C437 C439 1.388 . S
C438 C437 1.366 . S
C438 C442 1.385 . S
C439 H414 0.951 . S
C439 C437 1.388 . S
C439 C440 1.366 . S
C440 C439 1.366 . S
C440 C441 1.414 . S
C440 C443 1.499 . S
C441 H415 0.950 . S
C441 C440 1.414 . S
C441 C442 1.374 . S
C442 H416 0.950 . S
C442 C438 1.385 . S
C442 C441 1.374 . S
C443 C440 1.499 . S
C443 C444 1.373 . S
C443 C445 1.389 . S
C444 H417 0.950 . S
C444 C430 1.377 . S
C444 C443 1.373 . S
C445 C429 1.377 . S
C445 C443 1.389 . S
C445 C446 1.524 . S
C446 C445 1.524 . S
C446 C447 1.397 . S
C446 C451 1.363 . S
C447 H418 0.950 . S
C447 C446 1.397 . S
C447 C448 1.334 . S
C448 H419 0.950 . S
C448 C447 1.334 . S
C448 C449 1.287 . S
C449 C448 1.287 . S
C449 C450 1.524 . S
C449 H452 0.999 . S
C450 H420 0.950 . S
C450 C449 1.524 . S
C450 C451 1.415 . S
C451 H421 0.950 . S
C451 C446 1.363 . S
C451 C450 1.415 . S
H452 C449 0.999 . S
H453 C434 0.913 . S
H454 C472 0.951 1_556 S
H455 C474 0.951 . S
H456 C476 0.950 . S
H457 C477 0.950 . S
H458 C479 0.950 . S
H459 C482 0.950 . S
H460 C483 0.950 . S
H461 C485 0.950 . S
H462 C486 0.950 1_556 S
H463 C487 0.951 . S
H464 C489 0.951 1_554 S
H465 C491 0.950 . S
H466 C492 0.950 . S
H467 C494 0.950 . S
H468 C497 0.950 . S
H469 C498 0.950 . S
H470 C500 0.950 . S
H471 C501 0.950 1_554 S
C472 H454 0.951 1_554 S
C472 C473 1.366 . S
C472 C474 1.388 1_554 S
C473 C472 1.366 . S
C473 C477 1.385 . S
C474 H455 0.951 . S
C474 C472 1.388 1_556 S
C474 C475 1.366 1_556 S
C475 C474 1.366 1_554 S
C475 C476 1.414 . S
C475 C478 1.499 . S
C476 H456 0.950 . S
C476 C475 1.414 . S
C476 C477 1.374 . S
C477 H457 0.950 . S
C477 C473 1.385 . S
C477 C476 1.374 . S
C478 C475 1.499 . S
C478 C479 1.373 1_554 S
C478 C480 1.389 . S
C479 H458 0.950 . S
C479 C478 1.373 1_556 S
C479 C495 1.377 . S
C480 C478 1.389 . S
C480 C481 1.524 . S
C480 C494 1.377 1_554 S
C481 C480 1.524 . S
C481 C482 1.397 . S
C481 C486 1.363 . S
C482 H459 0.950 . S
C482 C481 1.397 . S
C482 C483 1.334 . S
C483 H460 0.950 . S
C483 C482 1.334 . S
C483 C484 1.287 . S
C484 C483 1.287 . S
C484 C485 1.524 . S
C484 H503 0.913 . S
C485 H461 0.950 . S
C485 C484 1.524 . S
C485 C486 1.415 . S
C486 H462 0.950 1_554 S
C486 C481 1.363 . S
C486 C485 1.415 . S
C487 H463 0.951 . S
C487 C488 1.366 . S
C487 C489 1.388 . S
C488 C487 1.366 . S
C488 C492 1.385 . S
C489 H464 0.951 1_556 S
C489 C487 1.388 . S
C489 C490 1.366 . S
C490 C489 1.366 . S
C490 C491 1.414 . S
C490 C493 1.499 . S
C491 H465 0.950 . S
C491 C490 1.414 . S
C491 C492 1.374 . S
C492 H466 0.950 . S
C492 C488 1.385 . S
C492 C491 1.374 . S
C493 C490 1.499 . S
C493 C494 1.373 . S
C493 C495 1.389 . S
C494 H467 0.950 . S
C494 C480 1.377 1_556 S
C494 C493 1.373 . S
C495 C479 1.377 . S
C495 C493 1.389 . S
C495 C496 1.524 . S
C496 C495 1.524 . S
C496 C497 1.397 . S
C496 C501 1.363 . S
C497 H468 0.950 . S
C497 C496 1.397 . S
C497 C498 1.334 . S
C498 H469 0.950 . S
C498 C497 1.334 . S
C498 C499 1.287 . S
C499 C498 1.287 . S
C499 C500 1.524 . S
C499 H502 0.999 . S
C500 H470 0.950 . S
C500 C499 1.524 . S
C500 C501 1.415 . S
C501 H471 0.950 1_556 S
C501 C496 1.363 . S
C501 C500 1.415 . S
H502 C499 0.999 . S
H503 C484 0.913 . S
H504 C522 0.951 . S
H505 C524 0.951 . S
H506 C526 0.950 1_554 S
H507 C527 0.950 . S
H508 C529 0.950 . S
H509 C532 0.950 . S
H510 C533 0.950 . S
H511 C535 0.950 . S
H512 C536 0.950 . S
H513 C537 0.951 . S
H514 C539 0.951 . S
H515 C541 0.950 . S
H516 C542 0.950 . S
H517 C544 0.950 . S
H518 C547 0.950 . S
H519 C548 0.950 . S
H520 C550 0.950 . S
H521 C551 0.950 . S
C522 H504 0.951 . S
C522 C523 1.366 . S
C522 C524 1.388 . S
C523 C522 1.366 . S
C523 C527 1.385 1_556 S
C524 H505 0.951 . S
C524 C522 1.388 . S
C524 C525 1.366 . S
C525 C524 1.366 . S
C525 C526 1.414 . S
C525 C528 1.499 . S
C526 H506 0.950 1_556 S
C526 C525 1.414 . S
C526 C527 1.374 1_556 S
C527 H507 0.950 . S
C527 C523 1.385 1_554 S
C527 C526 1.374 1_554 S
C528 C525 1.499 . S
C528 C529 1.373 1_556 S
C528 C530 1.389 . S
C529 H508 0.950 . S
C529 C528 1.373 1_554 S
C529 C545 1.377 1_554 S
C530 C528 1.389 . S
C530 C531 1.524 . S
C530 C544 1.377 . S
C531 C530 1.524 . S
C531 C532 1.397 . S
C531 C536 1.363 . S
C532 H509 0.950 . S
C532 C531 1.397 . S
C532 C533 1.334 . S
C533 H510 0.950 . S
C533 C532 1.334 . S
C533 C534 1.287 . S
C534 C533 1.287 . S
C534 C535 1.524 . S
C534 H553 0.913 . S
C535 H511 0.950 . S
C535 C534 1.524 . S
C535 C536 1.415 . S
C536 H512 0.950 . S
C536 C531 1.363 . S
C536 C535 1.415 . S
C537 H513 0.951 . S
C537 C538 1.366 . S
C537 C539 1.388 . S
C538 C537 1.366 . S
C538 C542 1.385 . S
C539 H514 0.951 . S
C539 C537 1.388 . S
C539 C540 1.366 . S
C540 C539 1.366 . S
C540 C541 1.414 . S
C540 C543 1.499 . S
C541 H515 0.950 . S
C541 C540 1.414 . S
C541 C542 1.374 . S
C542 H516 0.950 . S
C542 C538 1.385 . S
C542 C541 1.374 . S
C543 C540 1.499 . S
C543 C544 1.373 . S
C543 C545 1.389 . S
C544 H517 0.950 . S
C544 C530 1.377 . S
C544 C543 1.373 . S
C545 C529 1.377 1_556 S
C545 C543 1.389 . S
C545 C546 1.524 1_556 S
C546 C545 1.524 1_554 S
C546 C547 1.397 . S
C546 C551 1.363 . S
C547 H518 0.950 . S
C547 C546 1.397 . S
C547 C548 1.334 . S
C548 H519 0.950 . S
C548 C547 1.334 . S
C548 C549 1.287 . S
C549 C548 1.287 . S
C549 C550 1.524 . S
C549 H552 0.999 . S
C550 H520 0.950 . S
C550 C549 1.524 . S
C550 C551 1.415 . S
C551 H521 0.950 . S
C551 C546 1.363 . S
C551 C550 1.415 . S
H552 C549 0.999 . S
H553 C534 0.913 . S
H554 C572 0.951 . S
H555 C574 0.951 . S
H556 C576 0.950 . S
H557 C577 0.950 . S
H558 C579 0.950 . S
H559 C582 0.950 . S
H560 C583 0.950 . S
H561 C585 0.950 . S
H562 C586 0.950 . S
H563 C587 0.951 . S
H564 C589 0.951 . S
H565 C591 0.950 . S
H566 C592 0.953 . S
H567 C594 0.950 . S
H568 C597 0.950 . S
H569 C598 0.950 . S
H570 C600 0.950 . S
H571 C601 0.950 . S
C572 H554 0.951 . S
C572 C573 1.366 . S
C572 C574 1.388 . S
C573 C572 1.366 . S
C573 C577 1.385 . S
C574 H555 0.951 . S
C574 C572 1.388 . S
C574 C575 1.366 . S
C575 C574 1.366 . S
C575 C576 1.414 . S
C575 C578 1.499 . S
C576 H556 0.950 . S
C576 C575 1.414 . S
C576 C577 1.374 . S
C577 H557 0.950 . S
C577 C573 1.385 . S
C577 C576 1.374 . S
C578 C575 1.499 . S
C578 C579 1.373 . S
C578 C580 1.389 . S
C579 H558 0.950 . S
C579 C578 1.373 . S
C579 C595 1.377 . S
C580 C578 1.389 . S
C580 C581 1.524 . S
C580 C594 1.377 . S
C581 C580 1.524 . S
C581 C582 1.397 . S
C581 C586 1.363 . S
C582 H559 0.950 . S
C582 C581 1.397 . S
C582 C583 1.334 . S
C583 H560 0.950 . S
C583 C582 1.334 . S
C583 C584 1.287 . S
C584 C583 1.287 . S
C584 C585 1.524 . S
C584 H603 0.913 . S
C585 H561 0.950 . S
C585 C584 1.524 . S
C585 C586 1.415 . S
C586 H562 0.950 . S
C586 C581 1.363 . S
C586 C585 1.415 . S
C587 H563 0.951 . S
C587 C588 1.366 . S
C587 C589 1.388 . S
C588 C587 1.366 . S
C588 C592 1.385 . S
C589 H564 0.951 . S
C589 C587 1.388 . S
C589 C590 1.366 . S
C590 C589 1.366 . S
C590 C591 1.414 . S
C590 C593 1.499 . S
C591 H565 0.950 . S
C591 C590 1.414 . S
C591 C592 1.374 . S
C592 H566 0.953 . S
C592 C588 1.385 . S
C592 C591 1.374 . S
C593 C590 1.499 . S
C593 C594 1.373 . S
C593 C595 1.389 . S
C594 H567 0.950 . S
C594 C580 1.377 . S
C594 C593 1.373 . S
C595 C579 1.377 . S
C595 C593 1.389 . S
C595 C596 1.524 . S
C596 C595 1.524 . S
C596 C597 1.397 1_554 S
C596 C601 1.363 . S
C597 H568 0.950 . S
C597 C596 1.397 1_556 S
C597 C598 1.334 . S
C598 H569 0.950 . S
C598 C597 1.334 . S
C598 C599 1.287 . S
C599 C598 1.287 . S
C599 C600 1.524 1_556 S
C599 H602 0.999 . S
C600 H570 0.950 . S
C600 C599 1.524 1_554 S
C600 C601 1.415 . S
C601 H571 0.950 . S
C601 C596 1.363 . S
C601 C600 1.415 . S
H602 C599 0.999 . S
H603 C584 0.913 . S
H604 C622 0.951 . S
H605 C624 0.951 . S
H606 C626 0.950 . S
H607 C627 0.950 . S
H608 C629 0.950 . S
H609 C632 0.950 . S
H610 C633 0.950 . S
H611 C635 0.950 . S
H612 C636 0.950 . S
H613 C637 0.951 . S
H614 C639 0.951 . S
H615 C641 0.950 . S
H616 C642 0.950 . S
H617 C644 0.950 . S
H618 C647 0.950 . S
H619 C648 0.950 . S
H620 C650 0.950 . S
H621 C651 0.950 . S
C622 H604 0.951 . S
C622 C623 1.366 . S
C622 C624 1.388 . S
C623 C622 1.366 . S
C623 C627 1.385 . S
C624 H605 0.951 . S
C624 C622 1.388 . S
C624 C625 1.366 . S
C625 C624 1.366 . S
C625 C626 1.414 . S
C625 C628 1.499 . S
C626 H606 0.950 . S
C626 C625 1.414 . S
C626 C627 1.374 . S
C627 H607 0.950 . S
C627 C623 1.385 . S
C627 C626 1.374 . S
C628 C625 1.499 . S
C628 C629 1.373 . S
C628 C630 1.389 . S
C629 H608 0.950 . S
C629 C628 1.373 . S
C629 C645 1.377 . S
C630 C628 1.389 . S
C630 C631 1.524 . S
C630 C644 1.377 . S
C631 C630 1.524 . S
C631 C632 1.397 . S
C631 C636 1.363 . S
C632 H609 0.950 . S
C632 C631 1.397 . S
C632 C633 1.334 . S
C633 H610 0.950 . S
C633 C632 1.334 . S
C633 C634 1.287 . S
C634 C633 1.287 . S
C634 C635 1.524 . S
C634 H653 0.913 . S
C635 H611 0.950 . S
C635 C634 1.524 . S
C635 C636 1.415 . S
C636 H612 0.950 . S
C636 C631 1.363 . S
C636 C635 1.415 . S
C637 H613 0.951 . S
C637 C638 1.366 . S
C637 C639 1.388 . S
C638 C637 1.366 . S
C638 C642 1.385 . S
C639 H614 0.951 . S
C639 C637 1.388 . S
C639 C640 1.366 . S
C640 C639 1.366 . S
C640 C641 1.414 . S
C640 C643 1.499 . S
C641 H615 0.950 . S
C641 C640 1.414 . S
C641 C642 1.374 . S
C642 H616 0.950 . S
C642 C638 1.385 . S
C642 C641 1.374 . S
C643 C640 1.499 . S
C643 C644 1.373 . S
C643 C645 1.389 . S
C644 H617 0.950 . S
C644 C630 1.377 . S
C644 C643 1.373 . S
C645 C629 1.377 . S
C645 C643 1.389 . S
C645 C646 1.524 . S
C646 C645 1.524 . S
C646 C647 1.397 . S
C646 C651 1.363 . S
C647 H618 0.950 . S
C647 C646 1.397 . S
C647 C648 1.334 . S
C648 H619 0.950 . S
C648 C647 1.334 . S
C648 C649 1.287 . S
C649 C648 1.287 . S
C649 C650 1.524 . S
C649 H652 0.999 . S
C650 H620 0.950 . S
C650 C649 1.524 . S
C650 C651 1.415 . S
C651 H621 0.950 . S
C651 C646 1.363 . S
C651 C650 1.415 . S
H652 C649 0.999 . S
H653 C634 0.913 . S
H654 C672 0.951 . S
H655 C674 0.951 . S
H656 C676 0.950 . S
H657 C677 0.950 . S
H658 C679 0.950 . S
H659 C682 0.950 . S
H660 C683 0.950 . S
H661 C685 0.950 . S
H662 C686 0.950 . S
H663 C687 0.951 . S
H664 C689 0.951 . S
H665 C691 0.950 . S
H666 C692 0.950 . S
H667 C694 0.950 . S
H668 C697 0.950 . S
H669 C698 0.950 . S
H670 C700 0.950 . S
H671 C701 0.950 . S
C672 H654 0.951 . S
C672 C673 1.366 . S
C672 C674 1.388 . S
C673 C672 1.366 . S
C673 C677 1.385 . S
C674 H655 0.951 . S
C674 C672 1.388 . S
C674 C675 1.366 . S
C675 C674 1.366 . S
C675 C676 1.414 . S
C675 C678 1.499 . S
C676 H656 0.950 . S
C676 C675 1.414 . S
C676 C677 1.374 . S
C677 H657 0.950 . S
C677 C673 1.385 . S
C677 C676 1.374 . S
C678 C675 1.499 . S
C678 C679 1.373 . S
C678 C680 1.389 . S
C679 H658 0.950 . S
C679 C678 1.373 . S
C679 C695 1.377 . S
C680 C678 1.389 . S
C680 C681 1.524 . S
C680 C694 1.377 . S
C681 C680 1.524 . S
C681 C682 1.397 . S
C681 C686 1.363 . S
C682 H659 0.950 . S
C682 C681 1.397 . S
C682 C683 1.334 . S
C683 H660 0.950 . S
C683 C682 1.334 . S
C683 C684 1.287 . S
C684 C683 1.287 . S
C684 C685 1.524 . S
C684 H703 0.913 . S
C685 H661 0.950 . S
C685 C684 1.524 . S
C685 C686 1.415 . S
C686 H662 0.950 . S
C686 C681 1.363 . S
C686 C685 1.415 . S
C687 H663 0.951 . S
C687 C688 1.366 . S
C687 C689 1.388 . S
C688 C687 1.366 . S
C688 C692 1.385 . S
C689 H664 0.951 . S
C689 C687 1.388 . S
C689 C690 1.366 . S
C690 C689 1.366 . S
C690 C691 1.414 . S
C690 C693 1.499 . S
C691 H665 0.950 . S
C691 C690 1.414 . S
C691 C692 1.374 . S
C692 H666 0.950 . S
C692 C688 1.385 . S
C692 C691 1.374 . S
C693 C690 1.499 . S
C693 C694 1.373 . S
C693 C695 1.389 . S
C694 H667 0.950 . S
C694 C680 1.377 . S
C694 C693 1.373 . S
C695 C679 1.377 . S
C695 C693 1.389 . S
C695 C696 1.524 . S
C696 C695 1.524 . S
C696 C697 1.397 . S
C696 C701 1.363 . S
C697 H668 0.950 . S
C697 C696 1.397 . S
C697 C698 1.334 . S
C698 H669 0.950 . S
C698 C697 1.334 . S
C698 C699 1.287 . S
C699 C698 1.287 . S
C699 C700 1.524 . S
C699 H702 0.999 . S
C700 H670 0.950 . S
C700 C699 1.524 . S
C700 C701 1.415 . S
C701 H671 0.950 . S
C701 C696 1.363 . S
C701 C700 1.415 . S
H702 C699 0.999 . S
H703 C684 0.913 . S
H704 C722 0.951 . S
H705 C724 0.951 . S
H706 C726 0.950 . S
H707 C727 0.950 . S
H708 C729 0.950 . S
H709 C732 0.950 . S
H710 C733 0.950 . S
H711 C735 0.950 . S
H712 C736 0.950 . S
H713 C737 0.951 . S
H714 C739 0.951 . S
H715 C741 0.950 1_556 S
H716 C742 0.950 1_556 S
H717 C744 0.950 . S
H718 C747 0.950 . S
H719 C748 0.950 . S
H720 C750 0.950 . S
H721 C751 0.950 . S
C722 H704 0.951 . S
C722 C723 1.366 1_556 S
C722 C724 1.388 . S
C723 C722 1.366 1_554 S
C723 C727 1.385 . S
C724 H705 0.951 . S
C724 C722 1.388 . S
C724 C725 1.366 1_556 S
C725 C724 1.366 1_554 S
C725 C726 1.414 . S
C725 C728 1.499 . S
C726 H706 0.950 . S
C726 C725 1.414 . S
C726 C727 1.374 . S
C727 H707 0.950 . S
C727 C723 1.385 . S
C727 C726 1.374 . S
C728 C725 1.499 . S
C728 C729 1.373 . S
C728 C730 1.389 . S
C729 H708 0.950 . S
C729 C728 1.373 . S
C729 C745 1.377 . S
C730 C728 1.389 . S
C730 C731 1.524 . S
C730 C744 1.377 . S
C731 C730 1.524 . S
C731 C732 1.397 . S
C731 C736 1.363 1_554 S
C732 H709 0.950 . S
C732 C731 1.397 . S
C732 C733 1.334 . S
C733 H710 0.950 . S
C733 C732 1.334 . S
C733 C734 1.287 1_554 S
C734 C733 1.287 1_556 S
C734 C735 1.524 . S
C734 H753 0.913 . S
C735 H711 0.950 . S
C735 C734 1.524 . S
C735 C736 1.415 . S
C736 H712 0.950 . S
C736 C731 1.363 1_556 S
C736 C735 1.415 . S
C737 H713 0.951 . S
C737 C738 1.366 . S
C737 C739 1.388 . S
C738 C737 1.366 . S
C738 C742 1.385 . S
C739 H714 0.951 . S
C739 C737 1.388 . S
C739 C740 1.366 . S
C740 C739 1.366 . S
C740 C741 1.414 . S
C740 C743 1.499 . S
C741 H715 0.950 1_554 S
C741 C740 1.414 . S
C741 C742 1.374 . S
C742 H716 0.950 1_554 S
C742 C738 1.385 . S
C742 C741 1.374 . S
C743 C740 1.499 . S
C743 C744 1.373 . S
C743 C745 1.389 . S
C744 H717 0.950 . S
C744 C730 1.377 . S
C744 C743 1.373 . S
C745 C729 1.377 . S
C745 C743 1.389 . S
C745 C746 1.524 . S
C746 C745 1.524 . S
C746 C747 1.397 . S
C746 C751 1.363 . S
C747 H718 0.950 . S
C747 C746 1.397 . S
C747 C748 1.334 . S
C748 H719 0.950 . S
C748 C747 1.334 . S
C748 C749 1.287 . S
C749 C748 1.287 . S
C749 C750 1.524 . S
C749 H752 0.999 . S
C750 H720 0.950 . S
C750 C749 1.524 . S
C750 C751 1.415 . S
C751 H721 0.950 . S
C751 C746 1.363 . S
C751 C750 1.415 . S
H752 C749 0.999 . S
H753 C734 0.913 . S
H754 C772 0.951 . S
H755 C774 0.951 . S
H756 C776 0.950 . S
H757 C777 0.950 . S
H758 C779 0.950 . S
H759 C782 0.950 . S
H760 C783 0.950 . S
H761 C785 0.950 . S
H762 C786 0.950 . S
H763 C787 0.951 . S
H764 C789 0.951 . S
H765 C791 0.950 1_554 S
H766 C792 0.950 1_554 S
H767 C794 0.950 1_554 S
H768 C797 0.950 . S
H769 C798 0.950 . S
H770 C800 0.950 . S
H771 C801 0.950 . S
C772 H754 0.951 . S
C772 C773 1.366 . S
C772 C774 1.388 . S
C773 C772 1.366 . S
C773 C777 1.385 . S
C774 H755 0.951 . S
C774 C772 1.388 . S
C774 C775 1.366 . S
C775 C774 1.366 . S
C775 C776 1.414 . S
C775 C778 1.499 . S
C776 H756 0.950 . S
C776 C775 1.414 . S
C776 C777 1.374 . S
C777 H757 0.950 . S
C777 C773 1.385 . S
C777 C776 1.374 . S
C778 C775 1.499 . S
C778 C779 1.373 . S
C778 C780 1.389 . S
C779 H758 0.950 . S
C779 C778 1.373 . S
C779 C795 1.377 . S
C780 C778 1.389 . S
C780 C781 1.524 1_556 S
C780 C794 1.377 . S
C781 C780 1.524 1_554 S
C781 C782 1.397 . S
C781 C786 1.363 . S
C782 H759 0.950 . S
C782 C781 1.397 . S
C782 C783 1.334 . S
C783 H760 0.950 . S
C783 C782 1.334 . S
C783 C784 1.287 . S
C784 C783 1.287 . S
C784 C785 1.524 . S
C784 H803 0.913 . S
C785 H761 0.950 . S
C785 C784 1.524 . S
C785 C786 1.415 . S
C786 H762 0.950 . S
C786 C781 1.363 . S
C786 C785 1.415 . S
C787 H763 0.951 . S
C787 C788 1.366 . S
C787 C789 1.388 . S
C788 C787 1.366 . S
C788 C792 1.385 . S
C789 H764 0.951 . S
C789 C787 1.388 . S
C789 C790 1.366 . S
C790 C789 1.366 . S
C790 C791 1.414 . S
C790 C793 1.499 . S
C791 H765 0.950 1_556 S
C791 C790 1.414 . S
C791 C792 1.374 . S
C792 H766 0.950 1_556 S
C792 C788 1.385 . S
C792 C791 1.374 . S
C793 C790 1.499 . S
C793 C794 1.373 . S
C793 C795 1.389 . S
C794 H767 0.950 1_556 S
C794 C780 1.377 . S
C794 C793 1.373 . S
C795 C779 1.377 . S
C795 C793 1.389 . S
C795 C796 1.524 . S
C796 C795 1.524 . S
C796 C797 1.397 . S
C796 C801 1.363 . S
C797 H768 0.950 . S
C797 C796 1.397 . S
C797 C798 1.334 . S
C798 H769 0.950 . S
C798 C797 1.334 . S
C798 C799 1.287 . S
C799 C798 1.287 . S
C799 C800 1.524 . S
C799 H802 0.999 . S
C800 H770 0.950 . S
C800 C799 1.524 . S
C800 C801 1.415 . S
C801 H771 0.950 . S
C801 C796 1.363 . S
C801 C800 1.415 . S
H802 C799 0.999 . S
H803 C784 0.913 . S
H804 C822 0.951 . S
H805 C824 0.951 . S
H806 C826 0.950 . S
H807 C827 0.950 . S
H808 C829 0.950 . S
H809 C832 0.950 . S
H810 C833 0.950 . S
H811 C835 0.950 . S
H812 C836 0.950 . S
H813 C837 0.951 . S
H814 C839 0.951 . S
H815 C841 0.950 . S
H816 C842 0.950 . S
H817 C844 0.950 . S
H818 C847 0.950 . S
H819 C848 0.950 . S
H820 C850 0.950 . S
H821 C851 0.950 . S
C822 H804 0.951 . S
C822 C823 1.366 . S
C822 C824 1.388 . S
C823 C822 1.366 . S
C823 C827 1.385 . S
C824 H805 0.951 . S
C824 C822 1.388 . S
C824 C825 1.366 . S
C825 C824 1.366 . S
C825 C826 1.414 . S
C825 C828 1.499 . S
C826 H806 0.950 . S
C826 C825 1.414 . S
C826 C827 1.374 . S
C827 H807 0.950 . S
C827 C823 1.385 . S
C827 C826 1.374 . S
C828 C825 1.499 . S
C828 C829 1.373 . S
C828 C830 1.389 . S
C829 H808 0.950 . S
C829 C828 1.373 . S
C829 C845 1.377 . S
C830 C828 1.389 . S
C830 C831 1.524 . S
C830 C844 1.377 . S
C831 C830 1.524 . S
C831 C832 1.397 . S
C831 C836 1.363 . S
C832 H809 0.950 . S
C832 C831 1.397 . S
C832 C833 1.334 1_556 S
C833 H810 0.950 . S
C833 C832 1.334 1_554 S
C833 C834 1.287 . S
C834 C833 1.287 . S
C834 C835 1.524 1_554 S
C834 H853 0.913 . S
C835 H811 0.950 . S
C835 C834 1.524 1_556 S
C835 C836 1.415 . S
C836 H812 0.950 . S
C836 C831 1.363 . S
C836 C835 1.415 . S
C837 H813 0.951 . S
C837 C838 1.366 . S
C837 C839 1.388 . S
C838 C837 1.366 . S
C838 C842 1.385 . S
C839 H814 0.951 . S
C839 C837 1.388 . S
C839 C840 1.366 . S
C840 C839 1.366 . S
C840 C841 1.414 . S
C840 C843 1.499 . S
C841 H815 0.950 . S
C841 C840 1.414 . S
C841 C842 1.374 . S
C842 H816 0.950 . S
C842 C838 1.385 . S
C842 C841 1.374 . S
C843 C840 1.499 . S
C843 C844 1.373 . S
C843 C845 1.389 . S
C844 H817 0.950 . S
C844 C830 1.377 . S
C844 C843 1.373 . S
C845 C829 1.377 . S
C845 C843 1.389 . S
C845 C846 1.524 . S
C846 C845 1.524 . S
C846 C847 1.397 . S
C846 C851 1.363 . S
C847 H818 0.950 . S
C847 C846 1.397 . S
C847 C848 1.334 . S
C848 H819 0.950 . S
C848 C847 1.334 . S
C848 C849 1.287 . S
C849 C848 1.287 . S
C849 C850 1.524 . S
C849 H852 0.999 . S
C850 H820 0.950 . S
C850 C849 1.524 . S
C850 C851 1.415 . S
C851 H821 0.950 . S
C851 C846 1.363 . S
C851 C850 1.415 . S
H852 C849 0.999 . S
H853 C834 0.913 . S
H854 C872 0.951 . S
H855 C874 0.951 . S
H856 C876 0.950 . S
H857 C877 0.950 . S
H858 C879 0.950 . S
H859 C882 0.950 . S
H860 C883 0.950 . S
H861 C885 0.950 . S
H862 C886 0.950 . S
H863 C887 0.951 . S
H864 C889 0.951 . S
H865 C891 0.950 . S
H866 C892 0.950 . S
H867 C894 0.950 . S
H868 C897 0.950 . S
H869 C898 0.950 . S
H870 C900 0.950 . S
H871 C901 0.950 . S
C872 H854 0.951 . S
C872 C873 1.366 . S
C872 C874 1.388 . S
C873 C872 1.366 . S
C873 C877 1.385 . S
C874 H855 0.951 . S
C874 C872 1.388 . S
C874 C875 1.366 . S
C875 C874 1.366 . S
C875 C876 1.414 . S
C875 C878 1.499 . S
C876 H856 0.950 . S
C876 C875 1.414 . S
C876 C877 1.374 . S
C877 H857 0.950 . S
C877 C873 1.385 . S
C877 C876 1.374 . S
C878 C875 1.499 . S
C878 C879 1.373 . S
C878 C880 1.389 . S
C879 H858 0.950 . S
C879 C878 1.373 . S
C879 C895 1.377 . S
C880 C878 1.389 . S
C880 C881 1.524 . S
C880 C894 1.377 . S
C881 C880 1.524 . S
C881 C882 1.397 . S
C881 C886 1.363 . S
C882 H859 0.950 . S
C882 C881 1.397 . S
C882 C883 1.334 1_554 S
C883 H860 0.950 . S
C883 C882 1.334 1_556 S
C883 C884 1.287 . S
C884 C883 1.287 . S
C884 C885 1.524 . S
C884 H903 0.913 . S
C885 H861 0.950 . S
C885 C884 1.524 . S
C885 C886 1.415 1_556 S
C886 H862 0.950 . S
C886 C881 1.363 . S
C886 C885 1.415 1_554 S
C887 H863 0.951 . S
C887 C888 1.366 . S
C887 C889 1.388 . S
C888 C887 1.366 . S
C888 C892 1.385 . S
C889 H864 0.951 . S
C889 C887 1.388 . S
C889 C890 1.366 . S
C890 C889 1.366 . S
C890 C891 1.414 . S
C890 C893 1.499 . S
C891 H865 0.950 . S
C891 C890 1.414 . S
C891 C892 1.374 . S
C892 H866 0.950 . S
C892 C888 1.385 . S
C892 C891 1.374 . S
C893 C890 1.499 . S
C893 C894 1.373 . S
C893 C895 1.389 . S
C894 H867 0.950 . S
C894 C880 1.377 . S
C894 C893 1.373 . S
C895 C879 1.377 . S
C895 C893 1.389 . S
C895 C896 1.524 . S
C896 C895 1.524 . S
C896 C897 1.397 . S
C896 C901 1.363 . S
C897 H868 0.950 . S
C897 C896 1.397 . S
C897 C898 1.334 . S
C898 H869 0.950 . S
C898 C897 1.334 . S
C898 C899 1.287 . S
C899 C898 1.287 . S
C899 C900 1.524 . S
C899 H902 0.999 . S
C900 H870 0.950 . S
C900 C899 1.524 . S
C900 C901 1.415 . S
C901 H871 0.950 . S
C901 C896 1.363 . S
C901 C900 1.415 . S
H902 C899 0.999 . S
H903 C884 0.913 . S
C123 C1 1.578 . S
C138 C40 1.580 . S
C173 C10 1.483 . S
C188 C18 1.479 . S
C223 C27 1.461 . S
C238 C16 1.457 . S
C273 C49 1.555 . S
C288 C36 1.553 . S
C323 C3 1.495 . S
C338 C66 1.508 . S
C373 C5 1.436 . S
C388 C57 1.442 . S
C423 C55 1.472 . S
C438 C29 1.466 . S
C473 C31 1.523 . S
C488 C75 1.537 . S
C523 C81 1.417 . S
C538 C68 1.415 . S
C573 C62 1.524 . S
C588 C83 1.522 . S
C623 C53 1.566 . S
C638 C92 1.565 . S
C673 C70 1.455 . S
C688 C101 1.461 . S
C723 C79 1.510 . S
C738 C42 1.498 . S
C773 C23 1.580 . S
C788 C88 1.584 . S
C823 C14 1.535 . S
C838 C94 1.537 . S
C873 C44 1.451 . S
C888 C96 1.459 . S
