# Generated by pormake.
# Topology soi, (5)-cn, num edge types: 1
# Building blocks:
#     Node 0, Type 0, BuildingBlock: XOMCOT_clean_sbu_1, # of connection points: 5
#     Node 1, Type 0, BuildingBlock: XOMCOT_clean_sbu_1, # of connection points: 5
#     Node 2, Type 0, BuildingBlock: XOMCOT_clean_sbu_1, # of connection points: 5
#     Node 3, Type 0, BuildingBlock: XOMCOT_clean_sbu_1, # of connection points: 5
#     Node 4, Type 0, BuildingBlock: XOMCOT_clean_sbu_1, # of connection points: 5
#     Node 5, Type 0, BuildingBlock: XOMCOT_clean_sbu_1, # of connection points: 5
#     Node 6, Type 0, BuildingBlock: XOMCOT_clean_sbu_1, # of connection points: 5
#     Node 7, Type 0, BuildingBlock: XOMCOT_clean_sbu_1, # of connection points: 5
#     Node 8, Type 0, BuildingBlock: XOMCOT_clean_sbu_1, # of connection points: 5
#     Node 9, Type 0, BuildingBlock: XOMCOT_clean_sbu_1, # of connection points: 5
#     Node 10, Type 0, BuildingBlock: XOMCOT_clean_sbu_1, # of connection points: 5
#     Node 11, Type 0, BuildingBlock: XOMCOT_clean_sbu_1, # of connection points: 5
#     Node 12, Type 0, BuildingBlock: XOMCOT_clean_sbu_1, # of connection points: 5
#     Node 13, Type 0, BuildingBlock: XOMCOT_clean_sbu_1, # of connection points: 5
#     Node 14, Type 0, BuildingBlock: XOMCOT_clean_sbu_1, # of connection points: 5
#     Node 15, Type 0, BuildingBlock: XOMCOT_clean_sbu_1, # of connection points: 5
#     Edge 16, Type (0, 0), BuildingBlock: AJUNOK_clean_linker_0, # of connection points: 2
#     Edge 17, Type (0, 0), BuildingBlock: AJUNOK_clean_linker_0, # of connection points: 2
#     Edge 18, Type (0, 0), BuildingBlock: AJUNOK_clean_linker_0, # of connection points: 2
#     Edge 19, Type (0, 0), BuildingBlock: AJUNOK_clean_linker_0, # of connection points: 2
#     Edge 20, Type (0, 0), BuildingBlock: AJUNOK_clean_linker_0, # of connection points: 2
#     Edge 21, Type (0, 0), BuildingBlock: AJUNOK_clean_linker_0, # of connection points: 2
#     Edge 22, Type (0, 0), BuildingBlock: AJUNOK_clean_linker_0, # of connection points: 2
#     Edge 23, Type (0, 0), BuildingBlock: AJUNOK_clean_linker_0, # of connection points: 2
#     Edge 24, Type (0, 0), BuildingBlock: AJUNOK_clean_linker_0, # of connection points: 2
#     Edge 25, Type (0, 0), BuildingBlock: AJUNOK_clean_linker_0, # of connection points: 2
#     Edge 26, Type (0, 0), BuildingBlock: AJUNOK_clean_linker_0, # of connection points: 2
#     Edge 27, Type (0, 0), BuildingBlock: AJUNOK_clean_linker_0, # of connection points: 2
#     Edge 28, Type (0, 0), BuildingBlock: AJUNOK_clean_linker_0, # of connection points: 2
#     Edge 29, Type (0, 0), BuildingBlock: AJUNOK_clean_linker_0, # of connection points: 2
#     Edge 30, Type (0, 0), BuildingBlock: AJUNOK_clean_linker_0, # of connection points: 2
#     Edge 31, Type (0, 0), BuildingBlock: AJUNOK_clean_linker_0, # of connection points: 2
#     Edge 32, Type (0, 0), BuildingBlock: AJUNOK_clean_linker_0, # of connection points: 2
#     Edge 33, Type (0, 0), BuildingBlock: AJUNOK_clean_linker_0, # of connection points: 2
#     Edge 34, Type (0, 0), BuildingBlock: AJUNOK_clean_linker_0, # of connection points: 2
#     Edge 35, Type (0, 0), BuildingBlock: AJUNOK_clean_linker_0, # of connection points: 2
#     Edge 36, Type (0, 0), BuildingBlock: AJUNOK_clean_linker_0, # of connection points: 2
#     Edge 37, Type (0, 0), BuildingBlock: AJUNOK_clean_linker_0, # of connection points: 2
#     Edge 38, Type (0, 0), BuildingBlock: AJUNOK_clean_linker_0, # of connection points: 2
#     Edge 39, Type (0, 0), BuildingBlock: AJUNOK_clean_linker_0, # of connection points: 2
#     Edge 40, Type (0, 0), BuildingBlock: AJUNOK_clean_linker_0, # of connection points: 2
#     Edge 41, Type (0, 0), BuildingBlock: AJUNOK_clean_linker_0, # of connection points: 2
#     Edge 42, Type (0, 0), BuildingBlock: AJUNOK_clean_linker_0, # of connection points: 2
#     Edge 43, Type (0, 0), BuildingBlock: AJUNOK_clean_linker_0, # of connection points: 2
#     Edge 44, Type (0, 0), BuildingBlock: AJUNOK_clean_linker_0, # of connection points: 2
#     Edge 45, Type (0, 0), BuildingBlock: AJUNOK_clean_linker_0, # of connection points: 2
#     Edge 46, Type (0, 0), BuildingBlock: AJUNOK_clean_linker_0, # of connection points: 2
#     Edge 47, Type (0, 0), BuildingBlock: AJUNOK_clean_linker_0, # of connection points: 2
#     Edge 48, Type (0, 0), BuildingBlock: AJUNOK_clean_linker_0, # of connection points: 2
#     Edge 49, Type (0, 0), BuildingBlock: AJUNOK_clean_linker_0, # of connection points: 2
#     Edge 50, Type (0, 0), BuildingBlock: AJUNOK_clean_linker_0, # of connection points: 2
#     Edge 51, Type (0, 0), BuildingBlock: AJUNOK_clean_linker_0, # of connection points: 2
#     Edge 52, Type (0, 0), BuildingBlock: AJUNOK_clean_linker_0, # of connection points: 2
#     Edge 53, Type (0, 0), BuildingBlock: AJUNOK_clean_linker_0, # of connection points: 2
#     Edge 54, Type (0, 0), BuildingBlock: AJUNOK_clean_linker_0, # of connection points: 2
#     Edge 55, Type (0, 0), BuildingBlock: AJUNOK_clean_linker_0, # of connection points: 2
# Relax obj value: 0.107
# Max RMSD: 0.157
# Mean RMSD: 0.157
data_MOF--net-soi--node1-XOMCOT_clean_sbu_1--edge1-AJUNOK_clean_linker_0
_symmetry_space_group_name_H-M    P1
_symmetry_Int_Tables_number       1
_symmetry_cell_setting            triclinic
loop_
_symmetry_equiv_pos_as_xyz
'x, y, z'
_cell_length_a     36.999972
_cell_length_b     19.339433
_cell_length_c     51.524731
_cell_angle_alpha  89.836144
_cell_angle_beta   89.707823
_cell_angle_gamma 90.169853
loop_
_atom_site_label
_atom_site_type_symbol
_atom_site_fract_x
_atom_site_fract_y
_atom_site_fract_z
_atom_type_partial_charge
C0 C 0.35816 0.05437 0.09294 0.0
C1 C 0.34626 0.04611 0.06786 0.0
N2 N 0.30999 0.04004 0.06832 0.0
N3 N 0.32951 0.05458 0.10929 0.0
C4 C 0.30077 0.04278 0.09374 0.0
H5 H 0.38597 0.06169 0.09868 0.0
Co6 Co 0.32905 0.07047 0.1455 0.0
C7 C 0.28624 0.19294 0.12425 0.0
O8 O 0.29561 0.18296 0.09997 0.0
N9 N 0.32871 0.08622 0.18161 0.0
C10 C 0.33388 0.14247 0.21897 0.0
C11 C 0.33181 0.14929 0.19254 0.0
C12 C 0.32867 0.04175 0.20197 0.0
N13 N 0.33198 0.07478 0.2251 0.0
O14 O 0.28861 0.00961 0.14888 0.0
H15 H 0.33353 0.19746 0.18188 0.0
H16 H 0.32599 0.98646 0.19971 0.0
O17 O 0.29723 0.15163 0.14197 0.0
C18 C 0.29885 0.94672 0.14769 0.0
O19 O 0.33365 0.93426 0.1456 0.0
N20 N 0.37082 0.12444 0.14285 0.0
C21 C 0.43694 0.19155 0.145 0.0
C22 C 0.40807 0.22165 0.13181 0.0
C23 C 0.37503 0.18722 0.13099 0.0
C24 C 0.3993 0.09319 0.15471 0.0
C25 C 0.43264 0.12628 0.1563 0.0
H26 H 0.35347 0.21154 0.12072 0.0
H27 H 0.39575 0.04269 0.16346 0.0
H28 H 0.27337 0.03896 0.10101 0.0
H29 H 0.36294 0.04734 0.05055 0.0
H30 H 0.33735 0.18444 0.23259 0.0
H31 H 0.41087 0.27189 0.12264 0.0
H32 H 0.45479 0.10125 0.16625 0.0
C33 C 0.65747 0.49382 0.10488 0.0
C34 C 0.67195 0.49506 0.08014 0.0
N35 N 0.70476 0.46485 0.08074 0.0
N36 N 0.68096 0.46248 0.12093 0.0
C37 C 0.70911 0.44465 0.10564 0.0
H38 H 0.63243 0.51753 0.11106 0.0
Co39 Co 0.68027 0.45898 0.15709 0.0
C40 C 0.70641 0.31931 0.16987 0.0
O41 O 0.6798 0.31473 0.18681 0.0
N42 N 0.68161 0.45678 0.1941 0.0
C43 C 0.70829 0.4446 0.2326 0.0
C44 C 0.71329 0.44443 0.20628 0.0
C45 C 0.65793 0.46764 0.21394 0.0
N46 N 0.67344 0.4587 0.23744 0.0
O47 O 0.72124 0.51881 0.15723 0.0
H48 H 0.73887 0.43612 0.19654 0.0
H49 H 0.63016 0.48314 0.21167 0.0
O50 O 0.71051 0.37496 0.15651 0.0
C51 C 0.71055 0.58092 0.15414 0.0
O52 O 0.6756 0.59239 0.15308 0.0
N53 N 0.63806 0.40621 0.15564 0.0
C54 C 0.57218 0.33892 0.15163 0.0
C55 C 0.60296 0.31104 0.1399 0.0
C56 C 0.63563 0.34636 0.14168 0.0
C57 C 0.60758 0.43723 0.16476 0.0
C58 C 0.57436 0.40341 0.16372 0.0
H59 H 0.65881 0.32607 0.13143 0.0
H60 H 0.60887 0.48935 0.17214 0.0
H61 H 0.73288 0.41922 0.113 0.0
H62 H 0.66015 0.51993 0.06336 0.0
H63 H 0.72903 0.43804 0.24714 0.0
H64 H 0.60172 0.26258 0.12944 0.0
H65 H 0.55049 0.42806 0.17164 0.0
C66 C 0.32703 1.00052 0.45938 0.0
C67 C 0.31051 0.00532 0.48339 0.0
N68 N 0.27815 0.97299 0.48237 0.0
N69 N 0.30543 0.9646 0.44332 0.0
C70 C 0.27602 0.94841 0.45786 0.0
H71 H 0.3525 0.0238 0.45371 0.0
Co72 Co 0.31037 0.95194 0.40733 0.0
C73 C 0.29115 0.80517 0.40118 0.0
O74 O 0.32123 0.79811 0.38776 0.0
N75 N 0.3126 0.94177 0.37027 0.0
C76 C 0.29339 0.91539 0.33038 0.0
C77 C 0.28768 0.9062 0.35638 0.0
C78 C 0.33125 0.97728 0.35166 0.0
N79 N 0.32083 0.9599 0.32734 0.0
O80 O 0.26864 0.00727 0.4029 0.0
H81 H 0.26444 0.87959 0.3643 0.0
H82 H 0.35036 0.01822 0.35574 0.0
O83 O 0.28232 0.86501 0.40992 0.0
C84 C 0.27976 0.06971 0.40407 0.0
O85 O 0.31476 0.08088 0.40534 0.0
N86 N 0.35393 0.90262 0.41279 0.0
C87 C 0.41799 0.83004 0.4208 0.0
C88 C 0.38766 0.81741 0.43647 0.0
C89 C 0.35601 0.85444 0.43226 0.0
C90 C 0.3842 0.91981 0.399 0.0
C91 C 0.41634 0.88323 0.40231 0.0
H92 H 0.3328 0.84309 0.44437 0.0
H93 H 0.38387 0.96221 0.38548 0.0
H94 H 0.25326 0.91988 0.45034 0.0
H95 H 0.32095 0.03285 0.50001 0.0
H96 H 0.27663 0.89574 0.31487 0.0
H97 H 0.3883 0.77913 0.45184 0.0
H98 H 0.43954 0.89602 0.39031 0.0
C99 C 0.64006 0.50549 0.47045 0.0
C100 C 0.65445 0.49937 0.49499 0.0
N101 N 0.68668 0.53226 0.49542 0.0
N102 N 0.66291 0.54266 0.45548 0.0
C103 C 0.69084 0.5586 0.47122 0.0
H104 H 0.61536 0.48185 0.46362 0.0
Co105 Co 0.66113 0.55581 0.4195 0.0
C106 C 0.67935 0.70405 0.41441 0.0
O107 O 0.65049 0.7104 0.39983 0.0
N108 N 0.66165 0.56677 0.38257 0.0
C109 C 0.68236 0.59612 0.34324 0.0
C110 C 0.68662 0.60454 0.36935 0.0
C111 C 0.64463 0.5308 0.36353 0.0
N112 N 0.6559 0.54991 0.33952 0.0
O113 O 0.70393 0.5019 0.41633 0.0
H114 H 0.70889 0.63244 0.37784 0.0
H115 H 0.62622 0.48823 0.36707 0.0
O116 O 0.68819 0.64416 0.42321 0.0
C117 C 0.69319 0.4391 0.41684 0.0
O118 O 0.65824 0.42691 0.41777 0.0
N119 N 0.61653 0.60247 0.4233 0.0
C120 C 0.55 0.66901 0.42725 0.0
C121 C 0.57854 0.68738 0.44362 0.0
C122 C 0.6114 0.65246 0.44171 0.0
C123 C 0.588 0.58009 0.40895 0.0
C124 C 0.55483 0.61383 0.41004 0.0
H125 H 0.63312 0.66702 0.45456 0.0
H126 H 0.59056 0.53558 0.39668 0.0
H127 H 0.71409 0.58789 0.46472 0.0
H128 H 0.64281 0.47018 0.51093 0.0
H129 H 0.69958 0.61746 0.32814 0.0
H130 H 0.57555 0.72854 0.45767 0.0
H131 H 0.53341 0.5974 0.3972 0.0
C132 C 0.66427 0.99336 0.96346 0.0
C133 C 0.67751 1.0013 0.98827 0.0
N134 N 0.71118 0.9748 0.98908 0.0
N135 N 0.68929 0.96109 0.94882 0.0
C136 C 0.71737 0.9501 0.96495 0.0
H137 H 0.63881 0.01264 0.95623 0.0
Co138 Co 0.69 0.94946 0.91289 0.0
C139 C 0.71258 0.80437 0.90639 0.0
O140 O 0.68507 0.79807 0.89053 0.0
N141 N 0.69337 0.94115 0.87605 0.0
C142 C 0.72074 0.92436 0.83781 0.0
C143 C 0.72275 0.91407 0.86403 0.0
C144 C 0.67508 0.97185 0.85635 0.0
N145 N 0.69087 0.9612 0.83294 0.0
O146 O 0.73178 0.00842 0.91153 0.0
H147 H 0.74569 0.89136 0.87369 0.0
H148 H 0.65236 0.00605 0.85902 0.0
O149 O 0.71929 0.86347 0.9168 0.0
C150 C 0.72218 0.07186 0.9114 0.0
O151 O 0.68743 0.08564 0.91082 0.0
N152 N 0.6463 0.89641 0.91523 0.0
C153 C 0.58073 0.82383 0.92071 0.0
C154 C 0.60989 0.81078 0.93733 0.0
C155 C 0.64234 0.84702 0.93415 0.0
C156 C 0.61724 0.91373 0.90043 0.0
C157 C 0.58478 0.87682 0.90222 0.0
H158 H 0.66432 0.8357 0.94722 0.0
H159 H 0.6184 0.95742 0.88762 0.0
H160 H 0.7423 0.9261 0.95876 0.0
H161 H 0.66412 0.02767 1.00411 0.0
H162 H 0.74022 0.9072 0.82349 0.0
H163 H 0.60769 0.77383 0.95306 0.0
H164 H 0.56297 0.89036 0.88925 0.0
C165 C 0.35082 0.5119 0.95619 0.0
C166 C 0.33642 0.51196 0.9808 0.0
N167 N 0.3043 0.54459 0.98018 0.0
N168 N 0.32796 0.54411 0.93992 0.0
C169 C 0.29958 0.56288 0.95502 0.0
H170 H 0.37609 0.48854 0.95033 0.0
Co171 Co 0.33661 0.55175 0.90428 0.0
C172 C 0.30795 0.69277 0.89093 0.0
O173 O 0.33816 0.70606 0.87849 0.0
N174 N 0.34578 0.55767 0.86734 0.0
C175 C 0.36936 0.58341 0.82839 0.0
C176 C 0.37135 0.59513 0.85451 0.0
C177 C 0.32865 0.52337 0.84793 0.0
N178 N 0.34261 0.538 0.82416 0.0
O179 O 0.29708 0.48766 0.89852 0.0
H180 H 0.39026 0.63077 0.8631 0.0
H181 H 0.30595 0.48899 0.85097 0.0
O182 O 0.30375 0.63372 0.90214 0.0
C183 C 0.30754 0.42505 0.90167 0.0
O184 O 0.34194 0.41443 0.9064 0.0
N185 N 0.37756 0.60609 0.91168 0.0
C186 C 0.44359 0.67152 0.92157 0.0
C187 C 0.4108 0.70071 0.93008 0.0
C188 C 0.37803 0.66668 0.92522 0.0
C189 C 0.40919 0.57371 0.90575 0.0
C190 C 0.44228 0.60669 0.90939 0.0
H191 H 0.35316 0.68879 0.93243 0.0
H192 H 0.40851 0.52333 0.89667 0.0
H193 H 0.27583 0.58883 0.94773 0.0
H194 H 0.34817 0.48748 0.99767 0.0
H195 H 0.38662 0.60613 0.81361 0.0
H196 H 0.41043 0.74939 0.9404 0.0
H197 H 0.46637 0.58211 0.90189 0.0
C198 C 0.64231 0.98897 0.59955 0.0
C199 C 0.65936 0.98791 0.57583 0.0
N200 N 0.69008 0.02532 0.57742 0.0
N201 N 0.662 0.02701 0.61617 0.0
C202 C 0.69094 0.0487 0.60218 0.0
H203 H 0.61744 0.96254 0.60459 0.0
Co204 Co 0.65007 0.03693 0.65111 0.0
C205 C 0.67606 0.17672 0.66552 0.0
O206 O 0.64542 0.18632 0.67788 0.0
N207 N 0.6377 0.04488 0.68748 0.0
C208 C 0.61073 0.06687 0.72557 0.0
C209 C 0.60826 0.0732 0.69915 0.0
C210 C 0.65768 0.02222 0.70785 0.0
N211 N 0.64187 0.03498 0.73108 0.0
O212 O 0.68889 0.97602 0.65942 0.0
H213 H 0.58671 0.10051 0.68966 0.0
H214 H 0.68331 0.99611 0.70585 0.0
O215 O 0.68179 0.1191 0.65392 0.0
C216 C 0.67805 0.91369 0.6569 0.0
O217 O 0.64383 0.90287 0.65153 0.0
N218 N 0.61041 0.08955 0.64106 0.0
C219 C 0.54667 0.15628 0.62786 0.0
C220 C 0.58032 0.18493 0.62096 0.0
C221 C 0.61201 0.15016 0.62746 0.0
C222 C 0.57822 0.05652 0.6445 0.0
C223 C 0.54593 0.09027 0.63927 0.0
H224 H 0.6377 0.17202 0.62162 0.0
H225 H 0.57764 0.00567 0.65332 0.0
H226 H 0.71203 0.08104 0.61003 0.0
H227 H 0.65026 0.96002 0.55888 0.0
H228 H 0.59151 0.08605 0.73972 0.0
H229 H 0.58216 0.23425 0.61103 0.0
H230 H 0.52094 0.06587 0.64534 0.0
C231 C 0.3301 0.49698 0.59417 0.0
C232 C 0.31797 0.50659 0.56918 0.0
N233 N 0.28603 0.47344 0.56662 0.0
N234 N 0.30595 0.45798 0.60733 0.0
C235 C 0.27937 0.44485 0.59014 0.0
H236 H 0.35416 0.51938 0.60257 0.0
Co237 Co 0.30568 0.43867 0.64292 0.0
C238 C 0.28623 0.29192 0.64534 0.0
O239 O 0.31417 0.28445 0.66073 0.0
N240 N 0.3029 0.42266 0.67952 0.0
C241 C 0.27725 0.39551 0.71761 0.0
C242 C 0.27496 0.38924 0.69122 0.0
C243 C 0.32025 0.45324 0.69966 0.0
N244 N 0.30594 0.4354 0.72302 0.0
O245 O 0.26354 0.49358 0.64592 0.0
H246 H 0.25239 0.36582 0.68133 0.0
H247 H 0.34148 0.49132 0.69734 0.0
O248 O 0.2778 0.35239 0.63688 0.0
C249 C 0.27427 0.55627 0.6464 0.0
O250 O 0.30919 0.56856 0.64741 0.0
N251 N 0.34966 0.3891 0.63886 0.0
C252 C 0.41418 0.31697 0.63126 0.0
C253 C 0.38566 0.31025 0.61371 0.0
C254 C 0.35364 0.34591 0.61801 0.0
C255 C 0.37836 0.40104 0.65473 0.0
C256 C 0.41044 0.36404 0.65178 0.0
H257 H 0.33177 0.33811 0.6045 0.0
H258 H 0.37702 0.43964 0.66958 0.0
H259 H 0.25501 0.4165 0.59504 0.0
H260 H 0.3308 0.53871 0.55457 0.0
H261 H 0.25769 0.37651 0.73162 0.0
H262 H 0.3879 0.27796 0.59667 0.0
H263 H 0.43204 0.37231 0.66553 0.0
C264 C 0.82887 0.5024 0.6093 0.0
C265 C 0.81718 0.50006 0.58396 0.0
N266 N 0.78434 0.53017 0.58259 0.0
N267 N 0.80352 0.53351 0.62396 0.0
C268 C 0.77677 0.54963 0.60723 0.0
H269 H 0.85336 0.47965 0.61683 0.0
Co270 Co 0.80231 0.53869 0.66011 0.0
C271 C 0.77407 0.67817 0.67083 0.0
O272 O 0.8001 0.68483 0.68793 0.0
N273 N 0.79893 0.54143 0.69705 0.0
C274 C 0.77069 0.54924 0.7354 0.0
C275 C 0.76735 0.55697 0.70909 0.0
C276 C 0.82054 0.5206 0.71681 0.0
N277 N 0.80408 0.52603 0.74024 0.0
O278 O 0.76197 0.47645 0.66024 0.0
H279 H 0.74264 0.5708 0.69927 0.0
H280 H 0.84719 0.49923 0.7144 0.0
O281 O 0.77101 0.62144 0.6581 0.0
C282 C 0.77344 0.41431 0.65904 0.0
O283 O 0.80854 0.40422 0.65844 0.0
N284 N 0.84458 0.59429 0.65903 0.0
C285 C 0.91091 0.6636 0.65441 0.0
C286 C 0.87996 0.68886 0.642 0.0
C287 C 0.84727 0.65284 0.64415 0.0
C288 C 0.87495 0.56658 0.66961 0.0
C289 C 0.90799 0.60154 0.66845 0.0
H290 H 0.82437 0.67116 0.63321 0.0
H291 H 0.8741 0.51555 0.67799 0.0
H292 H 0.75156 0.57284 0.61324 0.0
H293 H 0.83099 0.4741 0.56824 0.0
H294 H 0.74964 0.55667 0.74979 0.0
H295 H 0.88119 0.73508 0.6301 0.0
H296 H 0.93106 0.5794 0.67822 0.0
C297 C 0.12927 0.98233 0.59368 0.0
C298 C 0.1418 0.98933 0.56848 0.0
N299 N 0.17444 0.95856 0.5666 0.0
N300 N 0.15385 0.94721 0.60764 0.0
C301 C 0.18085 0.93344 0.59064 0.0
H302 H 0.10511 0.00544 0.60171 0.0
Co303 Co 0.15787 0.93703 0.64371 0.0
C304 C 0.17777 0.79119 0.64961 0.0
O305 O 0.15179 0.78643 0.66704 0.0
N306 N 0.16563 0.92896 0.68039 0.0
C307 C 0.199 0.90979 0.71573 0.0
C308 C 0.19625 0.89974 0.68964 0.0
C309 C 0.15157 0.96099 0.70164 0.0
N310 N 0.17101 0.94861 0.72347 0.0
O311 O 0.20049 0.99194 0.64205 0.0
H312 H 0.21727 0.87653 0.67798 0.0
H313 H 0.12965 0.9977 0.70085 0.0
O314 O 0.18421 0.8495 0.63849 0.0
C315 C 0.19041 0.05497 0.64215 0.0
O316 O 0.15565 0.06791 0.64419 0.0
N317 N 0.11308 0.88808 0.64474 0.0
C318 C 0.0471 0.81673 0.64645 0.0
C319 C 0.07299 0.80187 0.62731 0.0
C320 C 0.10566 0.83811 0.62674 0.0
C321 C 0.08683 0.90751 0.66188 0.0
C322 C 0.05406 0.87154 0.66351 0.0
H323 H 0.12532 0.82516 0.61196 0.0
H324 H 0.09075 0.95157 0.67418 0.0
H325 H 0.20584 0.90882 0.59625 0.0
H326 H 0.12897 0.01931 0.55337 0.0
H327 H 0.22093 0.89226 0.72789 0.0
H328 H 0.06808 0.76281 0.61273 0.0
H329 H 0.03445 0.88647 0.6781 0.0
C330 C 0.85222 0.50998 0.97163 0.0
C331 C 0.83655 0.51444 0.99573 0.0
N332 N 0.8071 0.47321 0.99629 0.0
N333 N 0.83269 0.46669 0.95681 0.0
C334 C 0.80511 0.4454 0.97225 0.0
H335 H 0.8759 0.53792 0.96499 0.0
Co336 Co 0.84377 0.4517 0.92208 0.0
C337 C 0.8223 0.30597 0.91272 0.0
O338 O 0.85439 0.29615 0.90252 0.0
N339 N 0.85526 0.43878 0.88568 0.0
C340 C 0.88143 0.41095 0.84785 0.0
C341 C 0.88356 0.4059 0.8743 0.0
C342 C 0.8362 0.46279 0.86503 0.0
N343 N 0.85145 0.44632 0.84193 0.0
O344 O 0.8032 0.50834 0.91322 0.0
H345 H 0.90448 0.37749 0.88408 0.0
H346 H 0.81126 0.49139 0.86667 0.0
O347 O 0.81373 0.36598 0.92144 0.0
C348 C 0.81241 0.57207 0.91397 0.0
O349 O 0.84668 0.58687 0.91768 0.0
N350 N 0.88515 0.40398 0.93285 0.0
C351 C 0.95003 0.34247 0.94751 0.0
C352 C 0.91683 0.31786 0.9573 0.0
C353 C 0.88465 0.3496 0.94982 0.0
C354 C 0.91708 0.43501 0.92657 0.0
C355 C 0.94974 0.40304 0.93234 0.0
H356 H 0.85934 0.33017 0.9575 0.0
H357 H 0.91707 0.48204 0.91514 0.0
H358 H 0.78384 0.41088 0.96594 0.0
H359 H 0.84545 0.54784 1.01126 0.0
H360 H 0.90096 0.39096 0.83411 0.0
H361 H 0.91555 0.27354 0.97016 0.0
H362 H 0.97404 0.42428 0.92372 0.0
C363 C 0.16807 0.99726 0.95748 0.0
C364 C 0.18367 0.99335 0.98153 0.0
N365 N 0.21632 0.02379 0.98013 0.0
N366 N 0.19056 0.03086 0.94103 0.0
C367 C 0.22016 0.04573 0.95533 0.0
H368 H 0.14163 0.97788 0.95232 0.0
Co369 Co 0.17739 0.04857 0.90674 0.0
C370 C 0.20519 0.19251 0.89678 0.0
O371 O 0.17273 0.20884 0.88892 0.0
N372 N 0.16271 0.06363 0.87106 0.0
C373 C 0.1324 0.09701 0.8356 0.0
C374 C 0.13705 0.10704 0.86163 0.0
C375 C 0.17316 0.02778 0.84961 0.0
N376 N 0.15483 0.0467 0.82804 0.0
O377 O 0.21492 0.98522 0.89571 0.0
H378 H 0.12175 0.14426 0.87263 0.0
H379 H 0.19309 0.98704 0.84973 0.0
O380 O 0.21138 0.13031 0.90463 0.0
C381 C 0.20482 0.92228 0.89883 0.0
O382 O 0.17104 0.91081 0.90558 0.0
N383 N 0.13933 0.10315 0.91957 0.0
C384 C 0.07973 0.17517 0.93889 0.0
C385 C 0.11485 0.19083 0.94739 0.0
C386 C 0.14432 0.15468 0.93729 0.0
C387 C 0.10532 0.08019 0.91435 0.0
C388 C 0.07527 0.11743 0.92264 0.0
H389 H 0.17116 0.16752 0.94396 0.0
H390 H 0.1016 0.03494 0.90235 0.0
H391 H 0.24354 0.07336 0.94797 0.0
H392 H 0.17195 0.97023 0.99881 0.0
H393 H 0.11402 0.12495 0.82313 0.0
H394 H 0.11984 0.23027 0.96176 0.0
H395 H 0.04896 0.10165 0.91572 0.0
C396 C 0.14185 0.50473 0.45473 0.0
C397 C 0.15624 0.51177 0.47923 0.0
N398 N 0.18862 0.47991 0.47971 0.0
N399 N 0.16486 0.46783 0.43995 0.0
C400 C 0.19293 0.45328 0.45569 0.0
H401 H 0.11689 0.52707 0.44784 0.0
Co402 Co 0.16296 0.45188 0.40419 0.0
C403 C 0.18249 0.30461 0.40041 0.0
O404 O 0.15333 0.29621 0.38626 0.0
N405 N 0.16344 0.43861 0.36743 0.0
C406 C 0.18451 0.40873 0.32837 0.0
C407 C 0.18889 0.40174 0.35453 0.0
C408 C 0.14596 0.47268 0.3481 0.0
N409 N 0.15738 0.45306 0.32424 0.0
O410 O 0.20505 0.50696 0.4005 0.0
H411 H 0.21155 0.3757 0.36325 0.0
H412 H 0.12698 0.51425 0.35133 0.0
O413 O 0.19076 0.36525 0.40872 0.0
C414 C 0.1939 0.5693 0.40062 0.0
O415 O 0.15885 0.58024 0.40033 0.0
N416 N 0.11919 0.40284 0.4088 0.0
C417 C 0.05464 0.3305 0.41547 0.0
C418 C 0.08351 0.31981 0.43243 0.0
C419 C 0.11552 0.35645 0.42878 0.0
C420 C 0.09012 0.41868 0.39383 0.0
C421 C 0.05789 0.38184 0.39634 0.0
H422 H 0.13772 0.3464 0.4418 0.0
H423 H 0.09142 0.46024 0.38001 0.0
H424 H 0.21634 0.42451 0.44938 0.0
H425 H 0.14443 0.54046 0.49515 0.0
H426 H 0.20212 0.38789 0.31348 0.0
H427 H 0.08149 0.2835 0.44841 0.0
H428 H 0.03582 0.39328 0.3833 0.0
C429 C 0.83649 0.01691 0.4659 0.0
C430 C 0.82424 0.01352 0.49119 0.0
N431 N 0.79145 0.04378 0.49247 0.0
N432 N 0.81152 0.04896 0.45128 0.0
C433 C 0.78449 0.0646 0.46793 0.0
H434 H 0.86113 0.99442 0.45838 0.0
Co435 Co 0.81104 0.05761 0.41525 0.0
C436 C 0.78698 0.20045 0.40581 0.0
O437 O 0.81358 0.20592 0.38889 0.0
N438 N 0.80867 0.06477 0.3783 0.0
C439 C 0.78184 0.08253 0.34013 0.0
C440 C 0.77748 0.08307 0.36653 0.0
C441 C 0.83113 0.04978 0.35812 0.0
N442 N 0.81568 0.06203 0.33481 0.0
O443 O 0.76913 1.00056 0.41457 0.0
H444 H 0.75249 0.09465 0.37657 0.0
H445 H 0.85772 0.02785 0.35999 0.0
O446 O 0.78209 0.14316 0.41804 0.0
C447 C 0.77863 0.9373 0.41564 0.0
O448 O 0.81336 0.92317 0.41589 0.0
N449 N 0.8542 0.10794 0.41705 0.0
C450 C 0.92102 0.17313 0.42067 0.0
C451 C 0.89102 0.19904 0.43413 0.0
C452 C 0.85796 0.16494 0.43244 0.0
C453 C 0.88391 0.078 0.40629 0.0
C454 C 0.91732 0.11118 0.40686 0.0
H455 H 0.83549 0.18401 0.44378 0.0
H456 H 0.88193 0.02727 0.3978 0.0
H457 H 0.75946 0.08832 0.4619 0.0
H458 H 0.83752 0.98673 0.50692 0.0
H459 H 0.76106 0.09249 0.32588 0.0
H460 H 0.89313 0.245 0.44601 0.0
H461 H 0.93983 0.0885 0.39648 0.0
C462 C 0.16208 0.51098 0.0932 0.0
C463 C 0.17616 0.50783 0.0684 0.0
N464 N 0.20564 0.54901 0.06702 0.0
N465 N 0.18236 0.55435 0.10744 0.0
C466 C 0.20843 0.57709 0.09099 0.0
H467 H 0.13969 0.4809 0.10076 0.0
Co468 Co 0.1798 0.56533 0.14336 0.0
C469 C 0.20193 0.7095 0.15223 0.0
O470 O 0.17349 0.71435 0.16752 0.0
N471 N 0.17918 0.57405 0.18038 0.0
C472 C 0.2021 0.59319 0.21975 0.0
C473 C 0.20816 0.59806 0.19359 0.0
C474 C 0.15672 0.55061 0.19945 0.0
N475 N 0.16977 0.56319 0.22348 0.0
O476 O 0.22131 0.50767 0.14609 0.0
H477 H 0.23326 0.61512 0.18482 0.0
H478 H 0.13249 0.52093 0.19616 0.0
O479 O 0.2092 0.65158 0.14118 0.0
C480 C 0.21215 0.4461 0.1523 0.0
O481 O 0.17854 0.43416 0.15937 0.0
N482 N 0.13684 0.61614 0.13928 0.0
C483 C 0.07249 0.68917 0.13491 0.0
C484 C 0.10295 0.70905 0.12044 0.0
C485 C 0.13474 0.67107 0.12256 0.0
C486 C 0.10617 0.59086 0.15055 0.0
C487 C 0.07392 0.62771 0.14935 0.0
H488 H 0.1579 0.68665 0.11108 0.0
H489 H 0.10639 0.54134 0.16008 0.0
H490 H 0.22953 0.61229 0.09684 0.0
H491 H 0.16656 0.47466 0.053 0.0
H492 H 0.22116 0.60587 0.23491 0.0
H493 H 0.10229 0.75348 0.10761 0.0
H494 H 0.05048 0.60852 0.15982 0.0
C495 C 0.85039 0.02213 0.10405 0.0
C496 C 0.83783 0.02874 0.07904 0.0
N497 N 0.80737 0.99069 0.0767 0.0
N498 N 0.82792 0.98042 0.11754 0.0
C499 C 0.8019 0.9625 0.10046 0.0
H500 H 0.87362 0.04812 0.11219 0.0
Co501 Co 0.82964 0.96203 0.15323 0.0
C502 C 0.8104 0.81354 0.15501 0.0
O503 O 0.84009 0.8036 0.16843 0.0
N504 N 0.82933 0.9463 0.18991 0.0
C505 C 0.8099 0.9132 0.22915 0.0
C506 C 0.80601 0.90458 0.20301 0.0
C507 C 0.84498 0.98405 0.20906 0.0
N508 N 0.83436 0.96321 0.23303 0.0
O509 O 0.78735 0.01652 0.15753 0.0
H510 H 0.78461 0.87431 0.19457 0.0
H511 H 0.86202 0.02871 0.20554 0.0
O512 O 0.80186 0.8752 0.14796 0.0
C513 C 0.79871 0.07886 0.15841 0.0
O514 O 0.83378 0.08995 0.15804 0.0
N515 N 0.87383 0.91461 0.14834 0.0
C516 C 0.94017 0.84943 0.14065 0.0
C517 C 0.9112 0.83647 0.12398 0.0
C518 C 0.87841 0.87009 0.12797 0.0
C519 C 0.90253 0.93105 0.16364 0.0
C520 C 0.93562 0.89772 0.16062 0.0
H521 H 0.85637 0.85918 0.1149 0.0
H522 H 0.90024 0.97055 0.17817 0.0
H523 H 0.77891 0.93048 0.10554 0.0
H524 H 0.84941 0.06195 0.06425 0.0
H525 H 0.7934 0.88941 0.24415 0.0
H526 H 0.91382 0.80056 0.10799 0.0
H527 H 0.95723 0.90925 0.17402 0.0
C528 C 0.28585 0.8202 0.14349 0.0
C529 C 0.27293 0.88792 0.14767 0.0
C530 C 0.26259 0.76284 0.144 0.0
C531 C 0.22554 0.77083 0.149 0.0
H532 H 0.31432 0.811 0.14002 0.0
H533 H 0.27391 0.71176 0.14125 0.0
S534 S 0.17727 0.937 0.15888 0.0
N535 N 0.22006 0.95961 0.15525 0.0
N536 N 0.17637 0.85194 0.15639 0.0
C537 C 0.21199 0.83829 0.15241 0.0
C538 C 0.23565 0.89678 0.1517 0.0
C539 C 0.77222 0.63158 0.15989 0.0
C540 C 0.73625 0.63958 0.15197 0.0
C541 C 0.79616 0.6878 0.15991 0.0
C542 C 0.7852 0.75433 0.1519 0.0
H543 H 0.78175 0.582 0.16685 0.0
H544 H 0.82335 0.67901 0.16684 0.0
S545 S 0.69494 0.8008 0.12626 0.0
N546 N 0.69156 0.7179 0.13363 0.0
N547 N 0.73664 0.8234 0.13376 0.0
C548 C 0.74978 0.7623 0.1427 0.0
C549 C 0.7253 0.70502 0.14275 0.0
C550 C 0.21921 0.12205 0.39586 0.0
C551 C 0.25461 0.12893 0.4051 0.0
C552 C 0.19591 0.17893 0.39513 0.0
C553 C 0.20699 0.24482 0.40378 0.0
H554 H 0.20971 0.07287 0.38849 0.0
H555 H 0.16911 0.17112 0.38727 0.0
S556 S 0.2958 0.28809 0.4327 0.0
N557 N 0.29882 0.20537 0.4252 0.0
N558 N 0.25494 0.31205 0.42377 0.0
C559 C 0.24182 0.25163 0.41417 0.0
C560 C 0.26565 0.19377 0.41481 0.0
C561 C 0.77371 0.32652 0.40025 0.0
C562 C 0.76369 0.26147 0.4106 0.0
C563 C 0.75157 0.38477 0.40322 0.0
C564 C 0.7184 0.37994 0.41638 0.0
H565 H 0.79871 0.33258 0.38945 0.0
H566 H 0.75991 0.43318 0.39438 0.0
S567 S 0.68095 0.22375 0.44912 0.0
N568 N 0.71928 0.19736 0.43603 0.0
N569 N 0.67764 0.30646 0.44153 0.0
C570 C 0.70859 0.31597 0.4276 0.0
C571 C 0.73124 0.25685 0.42476 0.0
C572 C 0.73584 0.19904 0.91277 0.0
C573 C 0.74855 0.13016 0.91275 0.0
C574 C 0.75964 0.25573 0.91369 0.0
C575 C 0.79718 0.24596 0.91438 0.0
H576 H 0.70716 0.20966 0.91181 0.0
H577 H 0.74856 0.3075 0.91311 0.0
S578 S 0.84451 0.07671 0.91722 0.0
N579 N 0.8013 0.05598 0.91533 0.0
N580 N 0.84601 0.16203 0.91689 0.0
C581 C 0.81028 0.17746 0.91515 0.0
C582 C 0.78602 0.11975 0.91437 0.0
C583 C 0.24708 0.37282 0.89085 0.0
C584 C 0.2822 0.36468 0.90051 0.0
C585 C 0.22298 0.31667 0.88953 0.0
C586 C 0.23265 0.24949 0.89796 0.0
H587 H 0.23807 0.42296 0.88411 0.0
H588 H 0.1963 0.3266 0.88186 0.0
S589 S 0.32135 0.20022 0.92544 0.0
N590 N 0.32548 0.28357 0.91901 0.0
N591 N 0.28005 0.17873 0.91651 0.0
C592 C 0.2677 0.24051 0.90769 0.0
C593 C 0.29242 0.29777 0.90897 0.0
C594 C 0.73466 0.85957 0.67393 0.0
C595 C 0.70285 0.854 0.65936 0.0
C596 C 0.75741 0.80242 0.67742 0.0
C597 C 0.74949 0.73757 0.66624 0.0
H598 H 0.7417 0.90803 0.68315 0.0
H599 H 0.78142 0.80938 0.68908 0.0
S600 S 0.67058 0.69729 0.62473 0.0
N601 N 0.66535 0.77937 0.63256 0.0
N602 N 0.70812 0.67236 0.6391 0.0
C603 C 0.71817 0.73185 0.65109 0.0
C604 C 0.69486 0.7899 0.64768 0.0
C605 C 0.19029 0.66526 0.6548 0.0
C606 C 0.20153 0.73075 0.64565 0.0
C607 C 0.21349 0.60819 0.65416 0.0
C608 C 0.2489 0.61479 0.64465 0.0
H609 H 0.16355 0.65817 0.66306 0.0
H610 H 0.20404 0.55932 0.66202 0.0
S611 S 0.29033 0.77263 0.61573 0.0
N612 N 0.2495 0.79714 0.62479 0.0
N613 N 0.2932 0.69008 0.62367 0.0
C614 C 0.25998 0.67907 0.63433 0.0
C615 C 0.23624 0.737 0.63476 0.0
C616 C 0.71328 0.36027 0.66895 0.0
C617 C 0.7486 0.35384 0.65922 0.0
C618 C 0.69029 0.30264 0.67091 0.0
C619 C 0.70149 0.23618 0.66296 0.0
H620 H 0.7035 0.4099 0.67564 0.0
H621 H 0.66343 0.31061 0.67877 0.0
S622 S 0.79085 0.19239 0.63459 0.0
N623 N 0.79333 0.27613 0.64047 0.0
N624 N 0.75008 0.16819 0.64415 0.0
C625 C 0.73651 0.22934 0.65264 0.0
C626 C 0.76004 0.288 0.65079 0.0
C627 C 0.22559 0.23913 0.63791 0.0
C628 C 0.26299 0.23109 0.64073 0.0
C629 C 0.20259 0.18149 0.63776 0.0
C630 C 0.21615 0.11362 0.64018 0.0
H631 H 0.21381 0.2903 0.63703 0.0
H632 H 0.1738 0.19062 0.63633 0.0
S633 S 0.31282 0.06489 0.64434 0.0
N634 N 0.31315 0.15023 0.64337 0.0
N635 N 0.26986 0.04187 0.64294 0.0
C636 C 0.25375 0.10481 0.64145 0.0
C637 C 0.27717 0.16358 0.64178 0.0
C638 C 0.79733 0.69797 0.91736 0.0
C639 C 0.78578 0.62953 0.9125 0.0
C640 C 0.77335 0.75399 0.91628 0.0
C641 C 0.73686 0.7441 0.91 0.0
H642 H 0.82529 0.70879 0.92202 0.0
H643 H 0.78375 0.80557 0.91971 0.0
S644 S 0.69206 0.57529 0.89722 0.0
N645 N 0.73475 0.55514 0.9024 0.0
N646 N 0.6897 0.66014 0.90018 0.0
C647 C 0.72467 0.67587 0.90563 0.0
C648 C 0.74908 0.61872 0.90692 0.0
C649 C 0.26482 0.87168 0.88555 0.0
C650 C 0.2304 0.86276 0.8967 0.0
C651 C 0.28928 0.81636 0.8837 0.0
C652 C 0.28066 0.74949 0.89313 0.0
H653 H 0.27299 0.92179 0.87808 0.0
H654 H 0.31538 0.82664 0.87489 0.0
S655 S 0.19426 0.69852 0.92468 0.0
N656 N 0.18907 0.78126 0.91772 0.0
N657 N 0.23508 0.67813 0.91423 0.0
C658 C 0.24639 0.73985 0.90443 0.0
C659 C 0.22132 0.79611 0.9062 0.0
C660 C 0.25488 0.62254 0.39431 0.0
C661 C 0.21891 0.62865 0.40263 0.0
C662 C 0.27819 0.67969 0.39457 0.0
C663 C 0.26649 0.74499 0.40337 0.0
H664 H 0.26486 0.5738 0.38689 0.0
H665 H 0.30549 0.67261 0.38739 0.0
S666 S 0.17585 0.78578 0.43025 0.0
N667 N 0.17338 0.70344 0.42209 0.0
N668 N 0.21723 0.81068 0.42255 0.0
C669 C 0.231 0.75093 0.41288 0.0
C670 C 0.20719 0.69282 0.41248 0.0
C671 C 0.76436 0.81183 0.42149 0.0
C672 C 0.75206 0.87984 0.41706 0.0
C673 C 0.74051 0.75543 0.42177 0.0
C674 C 0.70344 0.76471 0.4174 0.0
H675 H 0.79281 0.80162 0.42442 0.0
H676 H 0.75143 0.70403 0.42453 0.0
S677 S 0.65676 0.93249 0.40733 0.0
N678 N 0.69985 0.95347 0.41004 0.0
N679 N 0.65497 0.84757 0.41046 0.0
C680 C 0.6905 0.83262 0.41393 0.0
C681 C 0.7148 0.89014 0.4138 0.0
C682 C 0.24964 0.26444 0.15514 0.0
C683 C 0.26919 0.25936 0.13175 0.0
C684 C 0.23269 0.32641 0.16229 0.0
C685 C 0.23556 0.38614 0.14673 0.0
H686 H 0.24653 0.21969 0.16766 0.0
H687 H 0.21657 0.32721 0.17991 0.0
S688 S 0.28542 0.40164 0.08441 0.0
N689 N 0.2916 0.32066 0.09351 0.0
N690 N 0.26035 0.43709 0.10735 0.0
C691 C 0.2562 0.38267 0.12385 0.0
C692 C 0.27281 0.31925 0.11625 0.0
C693 C 0.71933 0.19329 0.17582 0.0
C694 C 0.72969 0.25815 0.1655 0.0
C695 C 0.74103 0.13454 0.17264 0.0
C696 C 0.77411 0.13875 0.15934 0.0
H697 H 0.69429 0.18767 0.18661 0.0
H698 H 0.7324 0.08614 0.18136 0.0
S699 S 0.81261 0.29452 0.12697 0.0
N700 N 0.77453 0.32165 0.14022 0.0
N701 N 0.81534 0.21158 0.13435 0.0
C702 C 0.78439 0.20266 0.14832 0.0
C703 C 0.76218 0.26227 0.15135 0.0
C704 C 0.2979 0.00664 1.02272 0.0
C705 C 0.28634 0.03794 0.04604 0.0
C706 C 0.27547 0.00438 1.00078 0.0
C707 C 0.24065 0.03284 1.00149 0.0
H708 H 0.32422 0.98256 1.02156 0.0
H709 H 0.28487 0.9784 0.98344 0.0
S710 S 0.19863 0.1275 0.05613 0.0
N711 N 0.23855 0.10394 0.06718 0.0
N712 N 0.19633 0.097 1.02628 0.0
C713 C 0.22904 0.06567 1.02425 0.0
C714 C 0.25187 0.06885 0.04645 0.0
C715 C 0.74464 0.45912 1.01316 0.0
C716 C 0.78199 0.46524 1.01768 0.0
C717 C 0.71968 0.45787 0.03384 0.0
C718 C 0.73107 0.4625 0.05985 0.0
H719 H 0.73452 0.4574 0.9935 0.0
H720 H 0.69119 0.45376 1.02942 0.0
S721 S 0.82636 0.47586 0.082 0.0
N722 N 0.82933 0.47124 0.05011 0.0
N723 N 0.78275 0.47311 0.08872 0.0
C724 C 0.76851 0.46725 0.06457 0.0
C725 C 0.79383 0.46763 0.04356 0.0
C726 C 0.26248 0.96669 0.52913 0.0
C727 C 0.25141 0.96823 0.50303 0.0
C728 C 0.23733 0.96315 0.54961 0.0
C729 C 0.1998 0.96087 0.54501 0.0
H730 H 0.29094 0.9679 0.53385 0.0
H731 H 0.24754 0.96339 0.56925 0.0
S732 S 0.15623 0.96386 0.48025 0.0
N733 N 0.1999 0.96887 0.4738 0.0
N734 N 0.15289 0.95915 0.51216 0.0
C735 C 0.18827 0.96199 0.519 0.0
C736 C 0.21394 0.96617 0.49809 0.0
C737 C 0.72264 0.53195 0.56387 0.0
C738 C 0.76045 0.5336 0.56037 0.0
C739 C 0.69896 0.53241 0.54265 0.0
C740 C 0.71187 0.5344 0.5169 0.0
H741 H 0.71107 0.5288 0.58316 0.0
H742 H 0.67018 0.53116 0.54651 0.0
S743 S 0.80854 0.54064 0.49693 0.0
N744 N 0.80961 0.54037 0.52894 0.0
N745 N 0.76536 0.53729 0.48919 0.0
C746 C 0.74964 0.53651 0.51307 0.0
C747 C 0.77379 0.53691 0.53472 0.0
C748 C 0.72296 0.97224 0.03632 0.0
C749 C 0.73601 0.97758 1.01069 0.0
C750 C 0.74636 0.97595 0.05766 0.0
C751 C 0.7839 0.98539 0.05433 0.0
H752 H 0.69436 0.96483 0.03993 0.0
H753 H 0.73476 0.97257 0.07694 0.0
S754 S 0.83193 0.00298 0.99111 0.0
N755 N 0.78897 0.9948 0.98322 0.0
N756 N 0.83303 0.99838 1.02309 0.0
C757 C 0.79736 0.99036 1.02874 0.0
C758 C 0.77346 0.98715 1.00701 0.0
C759 C 0.21816 0.54486 1.01965 0.0
C760 C 0.23057 0.5547 0.04524 0.0
C761 C 0.2421 0.54424 0.99834 0.0
C762 C 0.27952 0.55296 1.00174 0.0
H763 H 0.18968 0.53672 1.01604 0.0
H764 H 0.23138 0.53441 0.97919 0.0
S765 S 0.32615 0.58615 0.06409 0.0
N766 N 0.28325 0.57664 0.07225 0.0
N767 N 0.32763 0.57731 0.03227 0.0
C768 C 0.29219 0.56565 1.02699 0.0
C769 C 0.26792 0.56623 0.04869 0.0
C770 C 0.70452 0.03543 0.5307 0.0
C771 C 0.71615 0.03545 0.55669 0.0
C772 C 0.72911 0.03956 0.51 0.0
C773 C 0.76659 0.04425 0.51427 0.0
H774 H 0.67604 0.03151 0.52624 0.0
H775 H 0.71857 0.037 0.49048 0.0
S776 S 0.81131 0.05112 0.57858 0.0
N777 N 0.76792 0.04255 0.58551 0.0
N778 N 0.81402 0.05342 0.54659 0.0
C779 C 0.77863 0.04677 0.54015 0.0
C780 C 0.7535 0.04191 0.56133 0.0
C781 C 0.22441 0.47353 0.54804 0.0
C782 C 0.26218 0.47397 0.54445 0.0
C783 C 0.20072 0.47541 0.52686 0.0
C784 C 0.21371 0.47759 0.50115 0.0
H785 H 0.21297 0.47286 0.56741 0.0
H786 H 0.17192 0.47465 0.53067 0.0
S787 S 0.31032 0.47988 0.48107 0.0
N788 N 0.31145 0.47539 0.51305 0.0
N789 N 0.2671 0.48191 0.47338 0.0
C790 C 0.25145 0.47824 0.49725 0.0
C791 C 0.27559 0.47586 0.51884 0.0
C792 C 0.32054 0.08653 0.27242 0.0
C793 C 0.33254 0.04626 0.25119 0.0
C794 C 0.3194 0.0598 0.29778 0.0
C795 C 0.32997 0.99166 0.30294 0.0
H796 H 0.31058 0.13842 0.26937 0.0
H797 H 0.30832 0.09122 0.31324 0.0
S798 S 0.36647 0.866 0.25561 0.0
N799 N 0.35826 0.93581 0.23809 0.0
N800 N 0.35431 0.88525 0.28561 0.0
C801 C 0.34299 0.95143 0.28232 0.0
C802 C 0.3447 0.9787 0.25651 0.0
C803 C 0.64375 0.538 0.26804 0.0
C804 C 0.65881 0.47295 0.26277 0.0
C805 C 0.63926 0.56063 0.29372 0.0
C806 C 0.64894 0.51841 0.31485 0.0
H807 H 0.63859 0.5738 0.2523 0.0
H808 H 0.63081 0.6134 0.29714 0.0
S809 S 0.68471 0.34029 0.3112 0.0
N810 N 0.67975 0.36394 0.28058 0.0
N811 N 0.67077 0.40638 0.32883 0.0
C812 C 0.66076 0.45101 0.3098 0.0
C813 C 0.66586 0.42832 0.28372 0.0
C814 C 0.64207 0.98038 0.80129 0.0
C815 C 0.67884 0.98429 0.80781 0.0
C816 C 0.63027 0.99693 0.7762 0.0
C817 C 0.65478 0.0181 0.75669 0.0
H818 H 0.62249 0.96249 0.81551 0.0
H819 H 0.60179 0.99183 0.77186 0.0
S820 S 0.75326 0.04554 0.76488 0.0
N821 N 0.73925 0.01685 0.79343 0.0
N822 N 0.71701 0.0479 0.74633 0.0
C823 C 0.69145 0.02432 0.7632 0.0
C824 C 0.70347 0.00754 0.78875 0.0
C825 C 0.32645 0.52901 0.7521 0.0
C826 C 0.3158 0.45997 0.74845 0.0
C827 C 0.33443 0.55427 0.77693 0.0
C828 C 0.33218 0.51148 0.7991 0.0
H829 H 0.32795 0.5641 0.73572 0.0
H830 H 0.34218 0.60803 0.77883 0.0
S831 S 0.30835 0.32514 0.79966 0.0
N832 N 0.30516 0.3482 0.76887 0.0
N833 N 0.32031 0.39568 0.81546 0.0
C834 C 0.32193 0.44214 0.79567 0.0
C835 C 0.31378 0.4164 0.77038 0.0
C836 C 0.82239 0.52903 0.81191 0.0
C837 C 0.83932 0.46501 0.81624 0.0
C838 C 0.81149 0.549 0.78694 0.0
C839 C 0.81741 0.50605 0.76535 0.0
H840 H 0.81796 0.56436 0.82786 0.0
H841 H 0.79849 0.59864 0.7844 0.0
S842 S 0.857 0.33048 0.76645 0.0
N843 N 0.85879 0.35645 0.79692 0.0
N844 N 0.83898 0.3951 0.75004 0.0
C845 C 0.83383 0.4417 0.76937 0.0
C846 C 0.8446 0.42091 0.79481 0.0
C847 C 0.19261 0.01072 0.79097 0.0
C848 C 0.15831 0.02028 0.80203 0.0
C849 C 0.19644 0.98921 0.76513 0.0
C850 C 0.16609 0.97548 0.7494 0.0
H851 H 0.21661 0.02148 0.80221 0.0
H852 H 0.22351 0.9838 0.75738 0.0
S853 S 0.07024 0.98794 0.77004 0.0
N854 N 0.09336 0.01205 0.79584 0.0
N855 N 0.10059 0.97026 0.74742 0.0
C856 C 0.13161 0.98422 0.76039 0.0
C857 C 0.12772 0.00672 0.78667 0.0
C858 C 0.15509 0.55442 0.29534 0.0
C859 C 0.14978 0.48328 0.29935 0.0
C860 C 0.15882 0.58137 0.27012 0.0
C861 C 0.15683 0.53823 0.24818 0.0
H862 H 0.15947 0.58822 0.31175 0.0
H863 H 0.16551 0.63557 0.26774 0.0
S864 S 0.13914 0.34963 0.24859 0.0
N865 N 0.13941 0.37139 0.27958 0.0
N866 N 0.14615 0.42201 0.2322 0.0
C867 C 0.14852 0.46808 0.25197 0.0
C868 C 0.14509 0.44064 0.27759 0.0
C869 C 0.84384 0.97894 0.30476 0.0
C870 C 0.82907 0.04463 0.30937 0.0
C871 C 0.84873 0.95469 0.27933 0.0
C872 C 0.83974 0.99577 0.25774 0.0
H873 H 0.84885 0.94411 0.32082 0.0
H874 H 0.85729 0.90175 0.27646 0.0
S875 S 0.80471 0.17474 0.25949 0.0
N876 N 0.809 0.15291 0.29036 0.0
N877 N 0.81852 0.10723 0.24259 0.0
C878 C 0.82788 0.06354 0.2621 0.0
C879 C 0.82243 0.08795 0.28794 0.0
C880 C 0.52304 0.28413 0.12613 0.0
C881 C 0.53759 0.30181 0.15036 0.0
C882 C 0.4902 0.24854 0.12452 0.0
C883 C 0.47142 0.2287 0.1471 0.0
H884 H 0.53699 0.29847 0.10837 0.0
H885 H 0.47956 0.23589 0.10556 0.0
S886 S 0.49839 0.2625 0.21504 0.0
N887 N 0.53105 0.29723 0.19728 0.0
N888 N 0.46928 0.22937 0.19425 0.0
C889 C 0.48577 0.24579 0.17141 0.0
C890 C 0.51891 0.28277 0.17304 0.0
C891 C 0.48524 0.82031 0.42437 0.0
C892 C 0.45116 0.78796 0.42369 0.0
C893 C 0.51699 0.78144 0.42621 0.0
C894 C 0.51584 0.70879 0.42741 0.0
H895 H 0.48741 0.87613 0.42339 0.0
H896 H 0.54269 0.80845 0.42605 0.0
S897 S 0.43341 0.5991 0.42718 0.0
N898 N 0.41816 0.67891 0.42451 0.0
N899 N 0.4778 0.60608 0.42901 0.0
C900 C 0.48193 0.67583 0.42733 0.0
C901 C 0.44961 0.71535 0.42527 0.0
C902 C 0.51273 0.81786 0.91896 0.0
C903 C 0.546 0.78414 0.92286 0.0
C904 C 0.47988 0.78149 0.9193 0.0
C905 C 0.4786 0.70979 0.92407 0.0
H906 H 0.5119 0.87301 0.91535 0.0
H907 H 0.45539 0.80977 0.91505 0.0
S908 S 0.55755 0.59735 0.93789 0.0
N909 N 0.57531 0.67428 0.93219 0.0
N910 N 0.51346 0.60751 0.93533 0.0
C911 C 0.51147 0.67589 0.92933 0.0
C912 C 0.54509 0.71258 0.9282 0.0
C913 C 0.48154 0.30646 0.63313 0.0
C914 C 0.44777 0.2758 0.62815 0.0
C915 C 0.5134 0.26795 0.63203 0.0
C916 C 0.51298 0.1974 0.62539 0.0
H917 H 0.48343 0.36059 0.6383 0.0
H918 H 0.5384 0.29338 0.63735 0.0
S919 S 0.43198 0.09365 0.60823 0.0
N920 N 0.41592 0.17052 0.61581 0.0
N921 N 0.47623 0.10005 0.61124 0.0
C922 C 0.47962 0.16691 0.61896 0.0
C923 C 0.44697 0.20561 0.62089 0.0
C924 C 0.94708 0.77367 0.65455 0.0
C925 C 0.94605 0.70118 0.65211 0.0
C926 C 0.97971 0.81048 0.65264 0.0
C927 C 0.01277 0.77638 0.64833 0.0
H928 H 0.92247 0.80231 0.65821 0.0
H929 H 0.97892 0.86626 0.65436 0.0
S930 S 0.02501 0.58704 0.64034 0.0
N931 N 0.98102 0.59686 0.64421 0.0
N932 N 0.04247 0.66547 0.64221 0.0
C933 C 0.01217 0.70384 0.64595 0.0
C934 C 0.97886 0.66644 0.64752 0.0
C935 C 0.01338 0.18849 0.94822 0.0
C936 C 0.04789 0.21897 0.94594 0.0
C937 C 0.98213 0.22866 0.95 0.0
C938 C 0.98387 0.30138 0.95071 0.0
H939 H 0.01011 0.13289 0.94761 0.0
H940 H 0.95639 0.20201 0.94948 0.0
S941 S 0.06785 0.40715 0.95146 0.0
N942 N 0.08196 0.32717 0.94718 0.0
N943 N 0.02351 0.40161 0.95421 0.0
C944 C 0.01837 0.33239 0.95145 0.0
C945 C 0.05025 0.29159 0.94831 0.0
C946 C 0.98734 0.32184 0.41573 0.0
C947 C 0.02108 0.28915 0.41784 0.0
C948 C 0.95524 0.28385 0.41697 0.0
C949 C 0.95559 0.21177 0.42066 0.0
H950 H 0.98567 0.37731 0.41304 0.0
H951 H 0.92994 0.31114 0.41455 0.0
S952 S 0.03683 0.10163 0.42837 0.0
N953 N 0.05301 0.18033 0.4237 0.0
N954 N 0.99243 0.10947 0.4278 0.0
C955 C 0.9891 0.17852 0.42346 0.0
C956 C 0.02188 0.21709 0.42171 0.0
C957 C 0.97344 0.73872 0.13407 0.0
C958 C 0.97446 0.81076 0.13773 0.0
C959 C 0.00525 0.70002 0.13265 0.0
C960 C 0.0393 0.73183 0.13494 0.0
H961 H 0.94782 0.71169 0.13287 0.0
H962 H 0.00311 0.64466 0.12987 0.0
S963 S 0.05682 0.91938 0.14382 0.0
N964 N 0.01238 0.91297 0.14228 0.0
N965 N 0.07221 0.83975 0.14089 0.0
C966 C 0.04076 0.804 0.13823 0.0
C967 C 0.00834 0.84353 0.13939 0.0
loop_
_geom_bond_atom_site_label_1
_geom_bond_atom_site_label_2
_geom_bond_distance
_geom_bond_site_symmetry_2
_ccdc_geom_bond_type
C0 C1 1.351 . S
C0 N3 1.368 . S
C0 H5 0.931 . S
C1 C0 1.351 . S
C1 N2 1.373 . S
C1 H29 0.930 . S
N2 C1 1.373 . S
N2 C4 1.340 . S
N3 C0 1.368 . S
N3 C4 1.321 . S
N3 Co6 2.135 . S
C4 N2 1.340 . S
C4 N3 1.321 . S
C4 H28 0.930 . S
H5 C0 0.931 . S
Co6 N3 2.135 . S
Co6 N9 2.121 . S
Co6 O14 2.055 . S
Co6 O17 2.039 . S
Co6 N20 2.140 . S
C7 O8 1.227 . S
C7 O17 1.265 . S
O8 C7 1.227 . S
N9 Co6 2.121 . S
N9 C11 1.375 . S
N9 C12 1.313 . S
C10 C11 1.338 . S
C10 N13 1.377 . S
C10 H30 0.930 . S
C11 N9 1.375 . S
C11 C10 1.338 . S
C11 H15 0.931 . S
C12 N9 1.313 . S
C12 N13 1.344 . S
C12 H16 0.930 . S
N13 C10 1.377 . S
N13 C12 1.344 . S
O14 Co6 2.055 . S
O14 C18 1.261 . S
H15 C11 0.931 . S
H16 C12 0.930 . S
O17 Co6 2.039 . S
O17 C7 1.265 . S
C18 O14 1.261 . S
C18 O19 1.228 . S
O19 C18 1.228 . S
N20 Co6 2.140 . S
N20 C23 1.346 . S
N20 C24 1.345 . S
C21 C22 1.387 . S
C21 C25 1.391 . S
C22 C21 1.387 . S
C22 C23 1.369 . S
C22 H31 0.929 . S
C23 N20 1.346 . S
C23 C22 1.369 . S
C23 H26 0.928 . S
C24 N20 1.345 . S
C24 C25 1.371 . S
C24 H27 0.931 . S
C25 C21 1.391 . S
C25 C24 1.371 . S
C25 H32 0.930 . S
H26 C23 0.928 . S
H27 C24 0.931 . S
H28 C4 0.930 . S
H29 C1 0.930 . S
H30 C10 0.930 . S
H31 C22 0.929 . S
H32 C25 0.930 . S
C33 C34 1.351 . S
C33 N36 1.368 . S
C33 H38 0.931 . S
C34 C33 1.351 . S
C34 N35 1.373 . S
C34 H62 0.930 . S
N35 C34 1.373 . S
N35 C37 1.340 . S
N36 C33 1.368 . S
N36 C37 1.321 . S
N36 Co39 2.135 . S
C37 N35 1.340 . S
C37 N36 1.321 . S
C37 H61 0.930 . S
H38 C33 0.931 . S
Co39 N36 2.135 . S
Co39 N42 2.121 . S
Co39 O47 2.055 . S
Co39 O50 2.039 . S
Co39 N53 2.140 . S
C40 O41 1.227 . S
C40 O50 1.265 . S
O41 C40 1.227 . S
N42 Co39 2.121 . S
N42 C44 1.375 . S
N42 C45 1.313 . S
C43 C44 1.338 . S
C43 N46 1.377 . S
C43 H63 0.930 . S
C44 N42 1.375 . S
C44 C43 1.338 . S
C44 H48 0.931 . S
C45 N42 1.313 . S
C45 N46 1.344 . S
C45 H49 0.930 . S
N46 C43 1.377 . S
N46 C45 1.344 . S
O47 Co39 2.055 . S
O47 C51 1.253 . S
H48 C44 0.931 . S
H49 C45 0.930 . S
O50 Co39 2.039 . S
O50 C40 1.265 . S
C51 O47 1.253 . S
C51 O52 1.227 . S
O52 C51 1.227 . S
N53 Co39 2.140 . S
N53 C56 1.346 . S
N53 C57 1.345 . S
C54 C55 1.387 . S
C54 C58 1.391 . S
C55 C54 1.387 . S
C55 C56 1.369 . S
C55 H64 0.929 . S
C56 N53 1.346 . S
C56 C55 1.369 . S
C56 H59 0.928 . S
C57 N53 1.345 . S
C57 C58 1.371 . S
C57 H60 0.931 . S
C58 C54 1.391 . S
C58 C57 1.371 . S
C58 H65 0.930 . S
H59 C56 0.928 . S
H60 C57 0.931 . S
H61 C37 0.930 . S
H62 C34 0.930 . S
H63 C43 0.930 . S
H64 C55 0.929 . S
H65 C58 0.930 . S
C66 C67 1.351 . S
C66 N69 1.368 . S
C66 H71 0.931 . S
C67 C66 1.351 . S
C67 N68 1.373 . S
C67 H95 0.930 . S
N68 C67 1.373 . S
N68 C70 1.340 . S
N69 C66 1.368 . S
N69 C70 1.321 . S
N69 Co72 2.135 . S
C70 N68 1.340 . S
C70 N69 1.321 . S
C70 H94 0.930 . S
H71 C66 0.931 . S
Co72 N69 2.135 . S
Co72 N75 2.121 . S
Co72 O80 2.055 . S
Co72 O83 2.039 . S
Co72 N86 2.140 . S
C73 O74 1.227 . S
C73 O83 1.265 . S
O74 C73 1.227 . S
N75 Co72 2.121 . S
N75 C77 1.375 . S
N75 C78 1.313 . S
C76 C77 1.338 . S
C76 N79 1.377 . S
C76 H96 0.930 . S
C77 N75 1.375 . S
C77 C76 1.338 . S
C77 H81 0.931 . S
C78 N75 1.313 . S
C78 N79 1.344 . S
C78 H82 0.930 . S
N79 C76 1.377 . S
N79 C78 1.344 . S
O80 Co72 2.055 . S
O80 C84 1.261 . S
H81 C77 0.931 . S
H82 C78 0.930 . S
O83 Co72 2.039 . S
O83 C73 1.265 . S
C84 O80 1.261 . S
C84 O85 1.228 . S
O85 C84 1.228 . S
N86 Co72 2.140 . S
N86 C89 1.346 . S
N86 C90 1.345 . S
C87 C88 1.387 . S
C87 C91 1.391 . S
C88 C87 1.387 . S
C88 C89 1.369 . S
C88 H97 0.929 . S
C89 N86 1.346 . S
C89 C88 1.369 . S
C89 H92 0.928 . S
C90 N86 1.345 . S
C90 C91 1.371 . S
C90 H93 0.931 . S
C91 C87 1.391 . S
C91 C90 1.371 . S
C91 H98 0.930 . S
H92 C89 0.928 . S
H93 C90 0.931 . S
H94 C70 0.930 . S
H95 C67 0.930 . S
H96 C76 0.930 . S
H97 C88 0.929 . S
H98 C91 0.930 . S
C99 C100 1.351 . S
C99 N102 1.368 . S
C99 H104 0.931 . S
C100 C99 1.351 . S
C100 N101 1.373 . S
C100 H128 0.930 . S
N101 C100 1.373 . S
N101 C103 1.340 . S
N102 C99 1.368 . S
N102 C103 1.321 . S
N102 Co105 2.135 . S
C103 N101 1.340 . S
C103 N102 1.321 . S
C103 H127 0.930 . S
H104 C99 0.931 . S
Co105 N102 2.135 . S
Co105 N108 2.121 . S
Co105 O113 2.055 . S
Co105 O116 2.039 . S
Co105 N119 2.140 . S
C106 O107 1.227 . S
C106 O116 1.265 . S
O107 C106 1.227 . S
N108 Co105 2.121 . S
N108 C110 1.375 . S
N108 C111 1.313 . S
C109 C110 1.338 . S
C109 N112 1.377 . S
C109 H129 0.930 . S
C110 N108 1.375 . S
C110 C109 1.338 . S
C110 H114 0.931 . S
C111 N108 1.313 . S
C111 N112 1.344 . S
C111 H115 0.930 . S
N112 C109 1.377 . S
N112 C111 1.344 . S
O113 Co105 2.055 . S
O113 C117 1.253 . S
H114 C110 0.931 . S
H115 C111 0.930 . S
O116 Co105 2.039 . S
O116 C106 1.265 . S
C117 O113 1.253 . S
C117 O118 1.227 . S
O118 C117 1.227 . S
N119 Co105 2.140 . S
N119 C122 1.346 . S
N119 C123 1.345 . S
C120 C121 1.387 . S
C120 C124 1.391 . S
C121 C120 1.387 . S
C121 C122 1.369 . S
C121 H130 0.929 . S
C122 N119 1.346 . S
C122 C121 1.369 . S
C122 H125 0.928 . S
C123 N119 1.345 . S
C123 C124 1.371 . S
C123 H126 0.931 . S
C124 C120 1.391 . S
C124 C123 1.371 . S
C124 H131 0.930 . S
H125 C122 0.928 . S
H126 C123 0.931 . S
H127 C103 0.930 . S
H128 C100 0.930 . S
H129 C109 0.930 . S
H130 C121 0.929 . S
H131 C124 0.930 . S
C132 C133 1.351 . S
C132 N135 1.368 . S
C132 H137 0.931 . S
C133 C132 1.351 . S
C133 N134 1.373 . S
C133 H161 0.930 . S
N134 C133 1.373 . S
N134 C136 1.340 . S
N135 C132 1.368 . S
N135 C136 1.321 . S
N135 Co138 2.135 . S
C136 N134 1.340 . S
C136 N135 1.321 . S
C136 H160 0.930 . S
H137 C132 0.931 . S
Co138 N135 2.135 . S
Co138 N141 2.121 . S
Co138 O146 2.055 . S
Co138 O149 2.039 . S
Co138 N152 2.140 . S
C139 O140 1.227 . S
C139 O149 1.265 . S
O140 C139 1.227 . S
N141 Co138 2.121 . S
N141 C143 1.375 . S
N141 C144 1.313 . S
C142 C143 1.338 . S
C142 N145 1.377 . S
C142 H162 0.930 . S
C143 N141 1.375 . S
C143 C142 1.338 . S
C143 H147 0.931 . S
C144 N141 1.313 . S
C144 N145 1.344 . S
C144 H148 0.930 . S
N145 C142 1.377 . S
N145 C144 1.344 . S
O146 Co138 2.055 . S
O146 C150 1.261 . S
H147 C143 0.931 . S
H148 C144 0.930 . S
O149 Co138 2.039 . S
O149 C139 1.265 . S
C150 O146 1.261 . S
C150 O151 1.228 . S
O151 C150 1.228 . S
N152 Co138 2.140 . S
N152 C155 1.346 . S
N152 C156 1.345 . S
C153 C154 1.387 . S
C153 C157 1.391 . S
C154 C153 1.387 . S
C154 C155 1.369 . S
C154 H163 0.929 . S
C155 N152 1.346 . S
C155 C154 1.369 . S
C155 H158 0.928 . S
C156 N152 1.345 . S
C156 C157 1.371 . S
C156 H159 0.931 . S
C157 C153 1.391 . S
C157 C156 1.371 . S
C157 H164 0.930 . S
H158 C155 0.928 . S
H159 C156 0.931 . S
H160 C136 0.930 . S
H161 C133 0.930 . S
H162 C142 0.930 . S
H163 C154 0.929 . S
H164 C157 0.930 . S
C165 C166 1.351 . S
C165 N168 1.368 . S
C165 H170 0.931 . S
C166 C165 1.351 . S
C166 N167 1.373 . S
C166 H194 0.930 . S
N167 C166 1.373 . S
N167 C169 1.340 . S
N168 C165 1.368 . S
N168 C169 1.321 . S
N168 Co171 2.135 . S
C169 N167 1.340 . S
C169 N168 1.321 . S
C169 H193 0.930 . S
H170 C165 0.931 . S
Co171 N168 2.135 . S
Co171 N174 2.121 . S
Co171 O179 2.055 . S
Co171 O182 2.039 . S
Co171 N185 2.140 . S
C172 O173 1.227 . S
C172 O182 1.265 . S
O173 C172 1.227 . S
N174 Co171 2.121 . S
N174 C176 1.375 . S
N174 C177 1.313 . S
C175 C176 1.338 . S
C175 N178 1.377 . S
C175 H195 0.930 . S
C176 N174 1.375 . S
C176 C175 1.338 . S
C176 H180 0.931 . S
C177 N174 1.313 . S
C177 N178 1.344 . S
C177 H181 0.930 . S
N178 C175 1.377 . S
N178 C177 1.344 . S
O179 Co171 2.055 . S
O179 C183 1.253 . S
H180 C176 0.931 . S
H181 C177 0.930 . S
O182 Co171 2.039 . S
O182 C172 1.265 . S
C183 O179 1.253 . S
C183 O184 1.227 . S
O184 C183 1.227 . S
N185 Co171 2.140 . S
N185 C188 1.346 . S
N185 C189 1.345 . S
C186 C187 1.387 . S
C186 C190 1.391 . S
C187 C186 1.387 . S
C187 C188 1.369 . S
C187 H196 0.929 . S
C188 N185 1.346 . S
C188 C187 1.369 . S
C188 H191 0.928 . S
C189 N185 1.345 . S
C189 C190 1.371 . S
C189 H192 0.931 . S
C190 C186 1.391 . S
C190 C189 1.371 . S
C190 H197 0.930 . S
H191 C188 0.928 . S
H192 C189 0.931 . S
H193 C169 0.930 . S
H194 C166 0.930 . S
H195 C175 0.930 . S
H196 C187 0.929 . S
H197 C190 0.930 . S
C198 C199 1.351 . S
C198 N201 1.368 . S
C198 H203 0.931 . S
C199 C198 1.351 . S
C199 N200 1.373 . S
C199 H227 0.930 . S
N200 C199 1.373 . S
N200 C202 1.340 . S
N201 C198 1.368 . S
N201 C202 1.321 . S
N201 Co204 2.135 . S
C202 N200 1.340 . S
C202 N201 1.321 . S
C202 H226 0.930 . S
H203 C198 0.931 . S
Co204 N201 2.135 . S
Co204 N207 2.121 . S
Co204 O212 2.055 . S
Co204 O215 2.039 . S
Co204 N218 2.140 . S
C205 O206 1.227 . S
C205 O215 1.265 . S
O206 C205 1.227 . S
N207 Co204 2.121 . S
N207 C209 1.375 . S
N207 C210 1.313 . S
C208 C209 1.338 . S
C208 N211 1.377 . S
C208 H228 0.930 . S
C209 N207 1.375 . S
C209 C208 1.338 . S
C209 H213 0.931 . S
C210 N207 1.313 . S
C210 N211 1.344 . S
C210 H214 0.930 . S
N211 C208 1.377 . S
N211 C210 1.344 . S
O212 Co204 2.055 . S
O212 C216 1.261 . S
H213 C209 0.931 . S
H214 C210 0.930 . S
O215 Co204 2.039 . S
O215 C205 1.265 . S
C216 O212 1.261 . S
C216 O217 1.228 . S
O217 C216 1.228 . S
N218 Co204 2.140 . S
N218 C221 1.346 . S
N218 C222 1.345 . S
C219 C220 1.387 . S
C219 C223 1.391 . S
C220 C219 1.387 . S
C220 C221 1.369 . S
C220 H229 0.929 . S
C221 N218 1.346 . S
C221 C220 1.369 . S
C221 H224 0.928 . S
C222 N218 1.345 . S
C222 C223 1.371 . S
C222 H225 0.931 . S
C223 C219 1.391 . S
C223 C222 1.371 . S
C223 H230 0.930 . S
H224 C221 0.928 . S
H225 C222 0.931 . S
H226 C202 0.930 . S
H227 C199 0.930 . S
H228 C208 0.930 . S
H229 C220 0.929 . S
H230 C223 0.930 . S
C231 C232 1.351 . S
C231 N234 1.368 . S
C231 H236 0.931 . S
C232 C231 1.351 . S
C232 N233 1.373 . S
C232 H260 0.930 . S
N233 C232 1.373 . S
N233 C235 1.340 . S
N234 C231 1.368 . S
N234 C235 1.321 . S
N234 Co237 2.135 . S
C235 N233 1.340 . S
C235 N234 1.321 . S
C235 H259 0.930 . S
H236 C231 0.931 . S
Co237 N234 2.135 . S
Co237 N240 2.121 . S
Co237 O245 2.055 . S
Co237 O248 2.039 . S
Co237 N251 2.140 . S
C238 O239 1.227 . S
C238 O248 1.265 . S
O239 C238 1.227 . S
N240 Co237 2.121 . S
N240 C242 1.375 . S
N240 C243 1.313 . S
C241 C242 1.338 . S
C241 N244 1.377 . S
C241 H261 0.930 . S
C242 N240 1.375 . S
C242 C241 1.338 . S
C242 H246 0.931 . S
C243 N240 1.313 . S
C243 N244 1.344 . S
C243 H247 0.930 . S
N244 C241 1.377 . S
N244 C243 1.344 . S
O245 Co237 2.055 . S
O245 C249 1.253 . S
H246 C242 0.931 . S
H247 C243 0.930 . S
O248 Co237 2.039 . S
O248 C238 1.265 . S
C249 O245 1.253 . S
C249 O250 1.227 . S
O250 C249 1.227 . S
N251 Co237 2.140 . S
N251 C254 1.346 . S
N251 C255 1.345 . S
C252 C253 1.387 . S
C252 C256 1.391 . S
C253 C252 1.387 . S
C253 C254 1.369 . S
C253 H262 0.929 . S
C254 N251 1.346 . S
C254 C253 1.369 . S
C254 H257 0.928 . S
C255 N251 1.345 . S
C255 C256 1.371 . S
C255 H258 0.931 . S
C256 C252 1.391 . S
C256 C255 1.371 . S
C256 H263 0.930 . S
H257 C254 0.928 . S
H258 C255 0.931 . S
H259 C235 0.930 . S
H260 C232 0.930 . S
H261 C241 0.930 . S
H262 C253 0.929 . S
H263 C256 0.930 . S
C264 C265 1.351 . S
C264 N267 1.368 . S
C264 H269 0.931 . S
C265 C264 1.351 . S
C265 N266 1.373 . S
C265 H293 0.930 . S
N266 C265 1.373 . S
N266 C268 1.340 . S
N267 C264 1.368 . S
N267 C268 1.321 . S
N267 Co270 2.135 . S
C268 N266 1.340 . S
C268 N267 1.321 . S
C268 H292 0.930 . S
H269 C264 0.931 . S
Co270 N267 2.135 . S
Co270 N273 2.121 . S
Co270 O278 2.055 . S
Co270 O281 2.039 . S
Co270 N284 2.140 . S
C271 O272 1.227 . S
C271 O281 1.265 . S
O272 C271 1.227 . S
N273 Co270 2.121 . S
N273 C275 1.375 . S
N273 C276 1.313 . S
C274 C275 1.338 . S
C274 N277 1.377 . S
C274 H294 0.930 . S
C275 N273 1.375 . S
C275 C274 1.338 . S
C275 H279 0.931 . S
C276 N273 1.313 . S
C276 N277 1.344 . S
C276 H280 0.930 . S
N277 C274 1.377 . S
N277 C276 1.344 . S
O278 Co270 2.055 . S
O278 C282 1.253 . S
H279 C275 0.931 . S
H280 C276 0.930 . S
O281 Co270 2.039 . S
O281 C271 1.265 . S
C282 O278 1.253 . S
C282 O283 1.227 . S
O283 C282 1.227 . S
N284 Co270 2.140 . S
N284 C287 1.346 . S
N284 C288 1.345 . S
C285 C286 1.387 . S
C285 C289 1.391 . S
C286 C285 1.387 . S
C286 C287 1.369 . S
C286 H295 0.929 . S
C287 N284 1.346 . S
C287 C286 1.369 . S
C287 H290 0.928 . S
C288 N284 1.345 . S
C288 C289 1.371 . S
C288 H291 0.931 . S
C289 C285 1.391 . S
C289 C288 1.371 . S
C289 H296 0.930 . S
H290 C287 0.928 . S
H291 C288 0.931 . S
H292 C268 0.930 . S
H293 C265 0.930 . S
H294 C274 0.930 . S
H295 C286 0.929 . S
H296 C289 0.930 . S
C297 C298 1.351 . S
C297 N300 1.368 . S
C297 H302 0.931 . S
C298 C297 1.351 . S
C298 N299 1.373 . S
C298 H326 0.930 . S
N299 C298 1.373 . S
N299 C301 1.340 . S
N300 C297 1.368 . S
N300 C301 1.321 . S
N300 Co303 2.135 . S
C301 N299 1.340 . S
C301 N300 1.321 . S
C301 H325 0.930 . S
H302 C297 0.931 . S
Co303 N300 2.135 . S
Co303 N306 2.121 . S
Co303 O311 2.055 . S
Co303 O314 2.039 . S
Co303 N317 2.140 . S
C304 O305 1.227 . S
C304 O314 1.265 . S
O305 C304 1.227 . S
N306 Co303 2.121 . S
N306 C308 1.375 . S
N306 C309 1.313 . S
C307 C308 1.338 . S
C307 N310 1.377 . S
C307 H327 0.930 . S
C308 N306 1.375 . S
C308 C307 1.338 . S
C308 H312 0.931 . S
C309 N306 1.313 . S
C309 N310 1.344 . S
C309 H313 0.930 . S
N310 C307 1.377 . S
N310 C309 1.344 . S
O311 Co303 2.055 . S
O311 C315 1.261 . S
H312 C308 0.931 . S
H313 C309 0.930 . S
O314 Co303 2.039 . S
O314 C304 1.265 . S
C315 O311 1.261 . S
C315 O316 1.228 . S
O316 C315 1.228 . S
N317 Co303 2.140 . S
N317 C320 1.346 . S
N317 C321 1.345 . S
C318 C319 1.387 . S
C318 C322 1.391 . S
C319 C318 1.387 . S
C319 C320 1.369 . S
C319 H328 0.929 . S
C320 N317 1.346 . S
C320 C319 1.369 . S
C320 H323 0.928 . S
C321 N317 1.345 . S
C321 C322 1.371 . S
C321 H324 0.931 . S
C322 C318 1.391 . S
C322 C321 1.371 . S
C322 H329 0.930 . S
H323 C320 0.928 . S
H324 C321 0.931 . S
H325 C301 0.930 . S
H326 C298 0.930 . S
H327 C307 0.930 . S
H328 C319 0.929 . S
H329 C322 0.930 . S
C330 C331 1.351 . S
C330 N333 1.368 . S
C330 H335 0.931 . S
C331 C330 1.351 . S
C331 N332 1.373 . S
C331 H359 0.930 . S
N332 C331 1.373 . S
N332 C334 1.340 . S
N333 C330 1.368 . S
N333 C334 1.321 . S
N333 Co336 2.135 . S
C334 N332 1.340 . S
C334 N333 1.321 . S
C334 H358 0.930 . S
H335 C330 0.931 . S
Co336 N333 2.135 . S
Co336 N339 2.121 . S
Co336 O344 2.055 . S
Co336 O347 2.039 . S
Co336 N350 2.140 . S
C337 O338 1.227 . S
C337 O347 1.265 . S
O338 C337 1.227 . S
N339 Co336 2.121 . S
N339 C341 1.375 . S
N339 C342 1.313 . S
C340 C341 1.338 . S
C340 N343 1.377 . S
C340 H360 0.930 . S
C341 N339 1.375 . S
C341 C340 1.338 . S
C341 H345 0.931 . S
C342 N339 1.313 . S
C342 N343 1.344 . S
C342 H346 0.930 . S
N343 C340 1.377 . S
N343 C342 1.344 . S
O344 Co336 2.055 . S
O344 C348 1.253 . S
H345 C341 0.931 . S
H346 C342 0.930 . S
O347 Co336 2.039 . S
O347 C337 1.265 . S
C348 O344 1.253 . S
C348 O349 1.227 . S
O349 C348 1.227 . S
N350 Co336 2.140 . S
N350 C353 1.346 . S
N350 C354 1.345 . S
C351 C352 1.387 . S
C351 C355 1.391 . S
C352 C351 1.387 . S
C352 C353 1.369 . S
C352 H361 0.929 . S
C353 N350 1.346 . S
C353 C352 1.369 . S
C353 H356 0.928 . S
C354 N350 1.345 . S
C354 C355 1.371 . S
C354 H357 0.931 . S
C355 C351 1.391 . S
C355 C354 1.371 . S
C355 H362 0.930 . S
H356 C353 0.928 . S
H357 C354 0.931 . S
H358 C334 0.930 . S
H359 C331 0.930 . S
H360 C340 0.930 . S
H361 C352 0.929 . S
H362 C355 0.930 . S
C363 C364 1.351 . S
C363 N366 1.368 . S
C363 H368 0.931 . S
C364 C363 1.351 . S
C364 N365 1.373 . S
C364 H392 0.930 . S
N365 C364 1.373 . S
N365 C367 1.340 . S
N366 C363 1.368 . S
N366 C367 1.321 . S
N366 Co369 2.135 . S
C367 N365 1.340 . S
C367 N366 1.321 . S
C367 H391 0.930 . S
H368 C363 0.931 . S
Co369 N366 2.135 . S
Co369 N372 2.121 . S
Co369 O377 2.055 . S
Co369 O380 2.039 . S
Co369 N383 2.140 . S
C370 O371 1.227 . S
C370 O380 1.265 . S
O371 C370 1.227 . S
N372 Co369 2.121 . S
N372 C374 1.375 . S
N372 C375 1.313 . S
C373 C374 1.338 . S
C373 N376 1.377 . S
C373 H393 0.930 . S
C374 N372 1.375 . S
C374 C373 1.338 . S
C374 H378 0.931 . S
C375 N372 1.313 . S
C375 N376 1.344 . S
C375 H379 0.930 . S
N376 C373 1.377 . S
N376 C375 1.344 . S
O377 Co369 2.055 . S
O377 C381 1.261 . S
H378 C374 0.931 . S
H379 C375 0.930 . S
O380 Co369 2.039 . S
O380 C370 1.265 . S
C381 O377 1.261 . S
C381 O382 1.228 . S
O382 C381 1.228 . S
N383 Co369 2.140 . S
N383 C386 1.346 . S
N383 C387 1.345 . S
C384 C385 1.387 . S
C384 C388 1.391 . S
C385 C384 1.387 . S
C385 C386 1.369 . S
C385 H394 0.929 . S
C386 N383 1.346 . S
C386 C385 1.369 . S
C386 H389 0.928 . S
C387 N383 1.345 . S
C387 C388 1.371 . S
C387 H390 0.931 . S
C388 C384 1.391 . S
C388 C387 1.371 . S
C388 H395 0.930 . S
H389 C386 0.928 . S
H390 C387 0.931 . S
H391 C367 0.930 . S
H392 C364 0.930 . S
H393 C373 0.930 . S
H394 C385 0.929 . S
H395 C388 0.930 . S
C396 C397 1.351 . S
C396 N399 1.368 . S
C396 H401 0.931 . S
C397 C396 1.351 . S
C397 N398 1.373 . S
C397 H425 0.930 . S
N398 C397 1.373 . S
N398 C400 1.340 . S
N399 C396 1.368 . S
N399 C400 1.321 . S
N399 Co402 2.135 . S
C400 N398 1.340 . S
C400 N399 1.321 . S
C400 H424 0.930 . S
H401 C396 0.931 . S
Co402 N399 2.135 . S
Co402 N405 2.121 . S
Co402 O410 2.055 . S
Co402 O413 2.039 . S
Co402 N416 2.140 . S
C403 O404 1.227 . S
C403 O413 1.265 . S
O404 C403 1.227 . S
N405 Co402 2.121 . S
N405 C407 1.375 . S
N405 C408 1.313 . S
C406 C407 1.338 . S
C406 N409 1.377 . S
C406 H426 0.930 . S
C407 N405 1.375 . S
C407 C406 1.338 . S
C407 H411 0.931 . S
C408 N405 1.313 . S
C408 N409 1.344 . S
C408 H412 0.930 . S
N409 C406 1.377 . S
N409 C408 1.344 . S
O410 Co402 2.055 . S
O410 C414 1.253 . S
H411 C407 0.931 . S
H412 C408 0.930 . S
O413 Co402 2.039 . S
O413 C403 1.265 . S
C414 O410 1.253 . S
C414 O415 1.227 . S
O415 C414 1.227 . S
N416 Co402 2.140 . S
N416 C419 1.346 . S
N416 C420 1.345 . S
C417 C418 1.387 . S
C417 C421 1.391 . S
C418 C417 1.387 . S
C418 C419 1.369 . S
C418 H427 0.929 . S
C419 N416 1.346 . S
C419 C418 1.369 . S
C419 H422 0.928 . S
C420 N416 1.345 . S
C420 C421 1.371 . S
C420 H423 0.931 . S
C421 C417 1.391 . S
C421 C420 1.371 . S
C421 H428 0.930 . S
H422 C419 0.928 . S
H423 C420 0.931 . S
H424 C400 0.930 . S
H425 C397 0.930 . S
H426 C406 0.930 . S
H427 C418 0.929 . S
H428 C421 0.930 . S
C429 C430 1.351 . S
C429 N432 1.368 . S
C429 H434 0.931 . S
C430 C429 1.351 . S
C430 N431 1.373 . S
C430 H458 0.930 . S
N431 C430 1.373 . S
N431 C433 1.340 . S
N432 C429 1.368 . S
N432 C433 1.321 . S
N432 Co435 2.135 . S
C433 N431 1.340 . S
C433 N432 1.321 . S
C433 H457 0.930 . S
H434 C429 0.931 . S
Co435 N432 2.135 . S
Co435 N438 2.121 . S
Co435 O443 2.055 . S
Co435 O446 2.039 . S
Co435 N449 2.140 . S
C436 O437 1.227 . S
C436 O446 1.265 . S
O437 C436 1.227 . S
N438 Co435 2.121 . S
N438 C440 1.375 . S
N438 C441 1.313 . S
C439 C440 1.338 . S
C439 N442 1.377 . S
C439 H459 0.930 . S
C440 N438 1.375 . S
C440 C439 1.338 . S
C440 H444 0.931 . S
C441 N438 1.313 . S
C441 N442 1.344 . S
C441 H445 0.930 . S
N442 C439 1.377 . S
N442 C441 1.344 . S
O443 Co435 2.055 . S
O443 C447 1.261 . S
H444 C440 0.931 . S
H445 C441 0.930 . S
O446 Co435 2.039 . S
O446 C436 1.265 . S
C447 O443 1.261 . S
C447 O448 1.228 . S
O448 C447 1.228 . S
N449 Co435 2.140 . S
N449 C452 1.346 . S
N449 C453 1.345 . S
C450 C451 1.387 . S
C450 C454 1.391 . S
C451 C450 1.387 . S
C451 C452 1.369 . S
C451 H460 0.929 . S
C452 N449 1.346 . S
C452 C451 1.369 . S
C452 H455 0.928 . S
C453 N449 1.345 . S
C453 C454 1.371 . S
C453 H456 0.931 . S
C454 C450 1.391 . S
C454 C453 1.371 . S
C454 H461 0.930 . S
H455 C452 0.928 . S
H456 C453 0.931 . S
H457 C433 0.930 . S
H458 C430 0.930 . S
H459 C439 0.930 . S
H460 C451 0.929 . S
H461 C454 0.930 . S
C462 C463 1.351 . S
C462 N465 1.368 . S
C462 H467 0.931 . S
C463 C462 1.351 . S
C463 N464 1.373 . S
C463 H491 0.930 . S
N464 C463 1.373 . S
N464 C466 1.340 . S
N465 C462 1.368 . S
N465 C466 1.321 . S
N465 Co468 2.135 . S
C466 N464 1.340 . S
C466 N465 1.321 . S
C466 H490 0.930 . S
H467 C462 0.931 . S
Co468 N465 2.135 . S
Co468 N471 2.121 . S
Co468 O476 2.055 . S
Co468 O479 2.039 . S
Co468 N482 2.140 . S
C469 O470 1.227 . S
C469 O479 1.265 . S
O470 C469 1.227 . S
N471 Co468 2.121 . S
N471 C473 1.375 . S
N471 C474 1.313 . S
C472 C473 1.338 . S
C472 N475 1.377 . S
C472 H492 0.930 . S
C473 N471 1.375 . S
C473 C472 1.338 . S
C473 H477 0.931 . S
C474 N471 1.313 . S
C474 N475 1.344 . S
C474 H478 0.930 . S
N475 C472 1.377 . S
N475 C474 1.344 . S
O476 Co468 2.055 . S
O476 C480 1.253 . S
H477 C473 0.931 . S
H478 C474 0.930 . S
O479 Co468 2.039 . S
O479 C469 1.265 . S
C480 O476 1.253 . S
C480 O481 1.227 . S
O481 C480 1.227 . S
N482 Co468 2.140 . S
N482 C485 1.346 . S
N482 C486 1.345 . S
C483 C484 1.387 . S
C483 C487 1.391 . S
C484 C483 1.387 . S
C484 C485 1.369 . S
C484 H493 0.929 . S
C485 N482 1.346 . S
C485 C484 1.369 . S
C485 H488 0.928 . S
C486 N482 1.345 . S
C486 C487 1.371 . S
C486 H489 0.931 . S
C487 C483 1.391 . S
C487 C486 1.371 . S
C487 H494 0.930 . S
H488 C485 0.928 . S
H489 C486 0.931 . S
H490 C466 0.930 . S
H491 C463 0.930 . S
H492 C472 0.930 . S
H493 C484 0.929 . S
H494 C487 0.930 . S
C495 C496 1.351 . S
C495 N498 1.368 . S
C495 H500 0.931 . S
C496 C495 1.351 . S
C496 N497 1.373 . S
C496 H524 0.930 . S
N497 C496 1.373 . S
N497 C499 1.340 . S
N498 C495 1.368 . S
N498 C499 1.321 . S
N498 Co501 2.135 . S
C499 N497 1.340 . S
C499 N498 1.321 . S
C499 H523 0.930 . S
H500 C495 0.931 . S
Co501 N498 2.135 . S
Co501 N504 2.121 . S
Co501 O509 2.055 . S
Co501 O512 2.039 . S
Co501 N515 2.140 . S
C502 O503 1.227 . S
C502 O512 1.265 . S
O503 C502 1.227 . S
N504 Co501 2.121 . S
N504 C506 1.375 . S
N504 C507 1.313 . S
C505 C506 1.338 . S
C505 N508 1.377 . S
C505 H525 0.930 . S
C506 N504 1.375 . S
C506 C505 1.338 . S
C506 H510 0.931 . S
C507 N504 1.313 . S
C507 N508 1.344 . S
C507 H511 0.930 . S
N508 C505 1.377 . S
N508 C507 1.344 . S
O509 Co501 2.055 . S
O509 C513 1.261 . S
H510 C506 0.931 . S
H511 C507 0.930 . S
O512 Co501 2.039 . S
O512 C502 1.265 . S
C513 O509 1.261 . S
C513 O514 1.228 . S
O514 C513 1.228 . S
N515 Co501 2.140 . S
N515 C518 1.346 . S
N515 C519 1.345 . S
C516 C517 1.387 . S
C516 C520 1.391 . S
C517 C516 1.387 . S
C517 C518 1.369 . S
C517 H526 0.929 . S
C518 N515 1.346 . S
C518 C517 1.369 . S
C518 H521 0.928 . S
C519 N515 1.345 . S
C519 C520 1.371 . S
C519 H522 0.931 . S
C520 C516 1.391 . S
C520 C519 1.371 . S
C520 H527 0.930 . S
H521 C518 0.928 . S
H522 C519 0.931 . S
H523 C499 0.930 . S
H524 C496 0.930 . S
H525 C505 0.930 . S
H526 C517 0.929 . S
H527 C520 0.930 . S
C528 C529 1.369 . S
C528 C530 1.419 . S
C528 H532 0.930 . S
C529 C528 1.369 . S
C529 C538 1.429 . S
C530 C528 1.419 . S
C530 C531 1.363 . S
C530 H533 0.929 . S
C531 C530 1.363 . S
C531 C537 1.428 . S
H532 C528 0.930 . S
H533 C530 0.929 . S
S534 N535 1.613 . S
S534 N536 1.610 . S
N535 S534 1.613 . S
N535 C538 1.350 . S
N536 S534 1.610 . S
N536 C537 1.351 . S
C537 C531 1.428 . S
C537 N536 1.351 . S
C537 C538 1.434 . S
C538 C529 1.429 . S
C538 N535 1.350 . S
C538 C537 1.434 . S
C539 C540 1.369 . S
C539 C541 1.419 . S
C539 H543 0.930 . S
C540 C539 1.369 . S
C540 C549 1.429 . S
C541 C539 1.419 . S
C541 C542 1.363 . S
C541 H544 0.929 . S
C542 C541 1.363 . S
C542 C548 1.428 . S
H543 C539 0.930 . S
H544 C541 0.929 . S
S545 N546 1.613 . S
S545 N547 1.610 . S
N546 S545 1.613 . S
N546 C549 1.350 . S
N547 S545 1.610 . S
N547 C548 1.351 . S
C548 C542 1.428 . S
C548 N547 1.351 . S
C548 C549 1.434 . S
C549 C540 1.429 . S
C549 N546 1.350 . S
C549 C548 1.434 . S
C550 C551 1.369 . S
C550 C552 1.419 . S
C550 H554 0.930 . S
C551 C550 1.369 . S
C551 C560 1.429 . S
C552 C550 1.419 . S
C552 C553 1.363 . S
C552 H555 0.929 . S
C553 C552 1.363 . S
C553 C559 1.428 . S
H554 C550 0.930 . S
H555 C552 0.929 . S
S556 N557 1.613 . S
S556 N558 1.610 . S
N557 S556 1.613 . S
N557 C560 1.350 . S
N558 S556 1.610 . S
N558 C559 1.351 . S
C559 C553 1.428 . S
C559 N558 1.351 . S
C559 C560 1.434 . S
C560 C551 1.429 . S
C560 N557 1.350 . S
C560 C559 1.434 . S
C561 C562 1.369 . S
C561 C563 1.419 . S
C561 H565 0.930 . S
C562 C561 1.369 . S
C562 C571 1.429 . S
C563 C561 1.419 . S
C563 C564 1.363 . S
C563 H566 0.929 . S
C564 C563 1.363 . S
C564 C570 1.428 . S
H565 C561 0.930 . S
H566 C563 0.929 . S
S567 N568 1.613 . S
S567 N569 1.610 . S
N568 S567 1.613 . S
N568 C571 1.350 . S
N569 S567 1.610 . S
N569 C570 1.351 . S
C570 C564 1.428 . S
C570 N569 1.351 . S
C570 C571 1.434 . S
C571 C562 1.429 . S
C571 N568 1.350 . S
C571 C570 1.434 . S
C572 C573 1.369 . S
C572 C574 1.419 . S
C572 H576 0.930 . S
C573 C572 1.369 . S
C573 C582 1.429 . S
C574 C572 1.419 . S
C574 C575 1.363 . S
C574 H577 0.929 . S
C575 C574 1.363 . S
C575 C581 1.428 . S
H576 C572 0.930 . S
H577 C574 0.929 . S
S578 N579 1.613 . S
S578 N580 1.610 . S
N579 S578 1.613 . S
N579 C582 1.350 . S
N580 S578 1.610 . S
N580 C581 1.351 . S
C581 C575 1.428 . S
C581 N580 1.351 . S
C581 C582 1.434 . S
C582 C573 1.429 . S
C582 N579 1.350 . S
C582 C581 1.434 . S
C583 C584 1.369 . S
C583 C585 1.419 . S
C583 H587 0.930 . S
C584 C583 1.369 . S
C584 C593 1.429 . S
C585 C583 1.419 . S
C585 C586 1.363 . S
C585 H588 0.929 . S
C586 C585 1.363 . S
C586 C592 1.428 . S
H587 C583 0.930 . S
H588 C585 0.929 . S
S589 N590 1.613 . S
S589 N591 1.610 . S
N590 S589 1.613 . S
N590 C593 1.350 . S
N591 S589 1.610 . S
N591 C592 1.351 . S
C592 C586 1.428 . S
C592 N591 1.351 . S
C592 C593 1.434 . S
C593 C584 1.429 . S
C593 N590 1.350 . S
C593 C592 1.434 . S
C594 C595 1.369 . S
C594 C596 1.419 . S
C594 H598 0.930 . S
C595 C594 1.369 . S
C595 C604 1.429 . S
C596 C594 1.419 . S
C596 C597 1.363 . S
C596 H599 0.929 . S
C597 C596 1.363 . S
C597 C603 1.428 . S
H598 C594 0.930 . S
H599 C596 0.929 . S
S600 N601 1.613 . S
S600 N602 1.610 . S
N601 S600 1.613 . S
N601 C604 1.350 . S
N602 S600 1.610 . S
N602 C603 1.351 . S
C603 C597 1.428 . S
C603 N602 1.351 . S
C603 C604 1.434 . S
C604 C595 1.429 . S
C604 N601 1.350 . S
C604 C603 1.434 . S
C605 C606 1.369 . S
C605 C607 1.419 . S
C605 H609 0.930 . S
C606 C605 1.369 . S
C606 C615 1.429 . S
C607 C605 1.419 . S
C607 C608 1.363 . S
C607 H610 0.929 . S
C608 C607 1.363 . S
C608 C614 1.428 . S
H609 C605 0.930 . S
H610 C607 0.929 . S
S611 N612 1.613 . S
S611 N613 1.610 . S
N612 S611 1.613 . S
N612 C615 1.350 . S
N613 S611 1.610 . S
N613 C614 1.351 . S
C614 C608 1.428 . S
C614 N613 1.351 . S
C614 C615 1.434 . S
C615 C606 1.429 . S
C615 N612 1.350 . S
C615 C614 1.434 . S
C616 C617 1.369 . S
C616 C618 1.419 . S
C616 H620 0.930 . S
C617 C616 1.369 . S
C617 C626 1.429 . S
C618 C616 1.419 . S
C618 C619 1.363 . S
C618 H621 0.929 . S
C619 C618 1.363 . S
C619 C625 1.428 . S
H620 C616 0.930 . S
H621 C618 0.929 . S
S622 N623 1.613 . S
S622 N624 1.610 . S
N623 S622 1.613 . S
N623 C626 1.350 . S
N624 S622 1.610 . S
N624 C625 1.351 . S
C625 C619 1.428 . S
C625 N624 1.351 . S
C625 C626 1.434 . S
C626 C617 1.429 . S
C626 N623 1.350 . S
C626 C625 1.434 . S
C627 C628 1.369 . S
C627 C629 1.419 . S
C627 H631 0.930 . S
C628 C627 1.369 . S
C628 C637 1.429 . S
C629 C627 1.419 . S
C629 C630 1.363 . S
C629 H632 0.929 . S
C630 C629 1.363 . S
C630 C636 1.428 . S
H631 C627 0.930 . S
H632 C629 0.929 . S
S633 N634 1.613 . S
S633 N635 1.610 . S
N634 S633 1.613 . S
N634 C637 1.350 . S
N635 S633 1.610 . S
N635 C636 1.351 . S
C636 C630 1.428 . S
C636 N635 1.351 . S
C636 C637 1.434 . S
C637 C628 1.429 . S
C637 N634 1.350 . S
C637 C636 1.434 . S
C638 C639 1.369 . S
C638 C640 1.419 . S
C638 H642 0.930 . S
C639 C638 1.369 . S
C639 C648 1.429 . S
C640 C638 1.419 . S
C640 C641 1.363 . S
C640 H643 0.929 . S
C641 C640 1.363 . S
C641 C647 1.428 . S
H642 C638 0.930 . S
H643 C640 0.929 . S
S644 N645 1.613 . S
S644 N646 1.610 . S
N645 S644 1.613 . S
N645 C648 1.350 . S
N646 S644 1.610 . S
N646 C647 1.351 . S
C647 C641 1.428 . S
C647 N646 1.351 . S
C647 C648 1.434 . S
C648 C639 1.429 . S
C648 N645 1.350 . S
C648 C647 1.434 . S
C649 C650 1.369 . S
C649 C651 1.419 . S
C649 H653 0.930 . S
C650 C649 1.369 . S
C650 C659 1.429 . S
C651 C649 1.419 . S
C651 C652 1.363 . S
C651 H654 0.929 . S
C652 C651 1.363 . S
C652 C658 1.428 . S
H653 C649 0.930 . S
H654 C651 0.929 . S
S655 N656 1.613 . S
S655 N657 1.610 . S
N656 S655 1.613 . S
N656 C659 1.350 . S
N657 S655 1.610 . S
N657 C658 1.351 . S
C658 C652 1.428 . S
C658 N657 1.351 . S
C658 C659 1.434 . S
C659 C650 1.429 . S
C659 N656 1.350 . S
C659 C658 1.434 . S
C660 C661 1.369 . S
C660 C662 1.419 . S
C660 H664 0.930 . S
C661 C660 1.369 . S
C661 C670 1.429 . S
C662 C660 1.419 . S
C662 C663 1.363 . S
C662 H665 0.929 . S
C663 C662 1.363 . S
C663 C669 1.428 . S
H664 C660 0.930 . S
H665 C662 0.929 . S
S666 N667 1.613 . S
S666 N668 1.610 . S
N667 S666 1.613 . S
N667 C670 1.350 . S
N668 S666 1.610 . S
N668 C669 1.351 . S
C669 C663 1.428 . S
C669 N668 1.351 . S
C669 C670 1.434 . S
C670 C661 1.429 . S
C670 N667 1.350 . S
C670 C669 1.434 . S
C671 C672 1.369 . S
C671 C673 1.419 . S
C671 H675 0.930 . S
C672 C671 1.369 . S
C672 C681 1.429 . S
C673 C671 1.419 . S
C673 C674 1.363 . S
C673 H676 0.929 . S
C674 C673 1.363 . S
C674 C680 1.428 . S
H675 C671 0.930 . S
H676 C673 0.929 . S
S677 N678 1.613 . S
S677 N679 1.610 . S
N678 S677 1.613 . S
N678 C681 1.350 . S
N679 S677 1.610 . S
N679 C680 1.351 . S
C680 C674 1.428 . S
C680 N679 1.351 . S
C680 C681 1.434 . S
C681 C672 1.429 . S
C681 N678 1.350 . S
C681 C680 1.434 . S
C682 C683 1.369 . S
C682 C684 1.419 . S
C682 H686 0.930 . S
C683 C682 1.369 . S
C683 C692 1.429 . S
C684 C682 1.419 . S
C684 C685 1.363 . S
C684 H687 0.929 . S
C685 C684 1.363 . S
C685 C691 1.428 . S
H686 C682 0.930 . S
H687 C684 0.929 . S
S688 N689 1.613 . S
S688 N690 1.610 . S
N689 S688 1.613 . S
N689 C692 1.350 . S
N690 S688 1.610 . S
N690 C691 1.351 . S
C691 C685 1.428 . S
C691 N690 1.351 . S
C691 C692 1.434 . S
C692 C683 1.429 . S
C692 N689 1.350 . S
C692 C691 1.434 . S
C693 C694 1.369 . S
C693 C695 1.419 . S
C693 H697 0.930 . S
C694 C693 1.369 . S
C694 C703 1.429 . S
C695 C693 1.419 . S
C695 C696 1.363 . S
C695 H698 0.929 . S
C696 C695 1.363 . S
C696 C702 1.428 . S
H697 C693 0.930 . S
H698 C695 0.929 . S
S699 N700 1.613 . S
S699 N701 1.610 . S
N700 S699 1.613 . S
N700 C703 1.350 . S
N701 S699 1.610 . S
N701 C702 1.351 . S
C702 C696 1.428 . S
C702 N701 1.351 . S
C702 C703 1.434 . S
C703 C694 1.429 . S
C703 N700 1.350 . S
C703 C702 1.434 . S
C704 C705 1.369 . S
C704 C706 1.419 1_554 S
C704 H708 0.930 . S
C705 C704 1.369 . S
C705 C714 1.429 . S
C706 C704 1.419 1_556 S
C706 C707 1.363 . S
C706 H709 0.929 . S
C707 C706 1.363 . S
C707 C713 1.444 . S
H708 C704 0.930 . S
H709 C706 0.929 . S
S710 N711 1.613 . S
S710 N712 1.610 . S
N711 S710 1.613 . S
N711 C714 1.350 . S
N712 S710 1.610 . S
N712 C713 1.349 1_554 S
C713 C707 1.444 . S
C713 N712 1.349 1_556 S
C713 C714 1.418 1_556 S
C714 C705 1.429 . S
C714 N711 1.350 . S
C714 C713 1.418 1_554 S
C715 C716 1.369 . S
C715 C717 1.390 1_556 S
C715 H719 0.930 . S
C716 C715 1.369 . S
C716 C725 1.425 1_556 S
C717 C715 1.390 1_554 S
C717 C718 1.393 . S
C717 H720 0.929 . S
C718 C717 1.393 . S
C718 C724 1.428 . S
H719 C715 0.930 . S
H720 C717 0.929 . S
S721 N722 1.613 . S
S721 N723 1.610 . S
N722 S721 1.613 . S
N722 C725 1.350 . S
N723 S721 1.610 . S
N723 C724 1.351 . S
C724 C718 1.428 . S
C724 N723 1.351 . S
C724 C725 1.438 . S
C725 C716 1.425 1_554 S
C725 N722 1.350 . S
C725 C724 1.438 . S
C726 C727 1.369 . S
C726 C728 1.419 . S
C726 H730 0.930 . S
C727 C726 1.369 . S
C727 C736 1.429 . S
C728 C726 1.419 . S
C728 C729 1.363 . S
C728 H731 0.929 . S
C729 C728 1.363 . S
C729 C735 1.428 . S
H730 C726 0.930 . S
H731 C728 0.929 . S
S732 N733 1.613 . S
S732 N734 1.610 . S
N733 S732 1.613 . S
N733 C736 1.350 . S
N734 S732 1.610 . S
N734 C735 1.351 . S
C735 C729 1.428 . S
C735 N734 1.351 . S
C735 C736 1.434 . S
C736 C727 1.429 . S
C736 N733 1.350 . S
C736 C735 1.434 . S
C737 C738 1.369 . S
C737 C739 1.419 . S
C737 H741 0.930 . S
C738 C737 1.369 . S
C738 C747 1.429 . S
C739 C737 1.419 . S
C739 C740 1.363 . S
C739 H742 0.929 . S
C740 C739 1.363 . S
C740 C746 1.428 . S
H741 C737 0.930 . S
H742 C739 0.929 . S
S743 N744 1.613 . S
S743 N745 1.610 . S
N744 S743 1.613 . S
N744 C747 1.350 . S
N745 S743 1.610 . S
N745 C746 1.351 . S
C746 C740 1.428 . S
C746 N745 1.351 . S
C746 C747 1.434 . S
C747 C738 1.429 . S
C747 N744 1.350 . S
C747 C746 1.434 . S
C748 C749 1.369 . S
C748 C750 1.419 1_556 S
C748 H752 0.930 . S
C749 C748 1.369 . S
C749 C758 1.429 . S
C750 C748 1.419 1_554 S
C750 C751 1.363 . S
C750 H753 0.929 . S
C751 C750 1.363 . S
C751 C757 1.428 . S
H752 C748 0.930 . S
H753 C750 0.929 . S
S754 N755 1.613 . S
S754 N756 1.610 1_556 S
N755 S754 1.613 . S
N755 C758 1.350 . S
N756 S754 1.610 1_554 S
N756 C757 1.351 . S
C757 C751 1.428 . S
C757 N756 1.351 . S
C757 C758 1.434 1_554 S
C758 C749 1.429 . S
C758 N755 1.350 . S
C758 C757 1.434 1_556 S
C759 C760 1.369 . S
C759 C761 1.419 1_554 S
C759 H763 0.930 . S
C760 C759 1.369 . S
C760 C769 1.429 . S
C761 C759 1.419 1_556 S
C761 C762 1.363 . S
C761 H764 0.929 . S
C762 C761 1.363 . S
C762 C768 1.428 . S
H763 C759 0.930 . S
H764 C761 0.929 . S
S765 N766 1.613 . S
S765 N767 1.610 1_554 S
N766 S765 1.613 . S
N766 C769 1.350 . S
N767 S765 1.610 1_556 S
N767 C768 1.351 . S
C768 C762 1.428 . S
C768 N767 1.351 . S
C768 C769 1.434 1_556 S
C769 C760 1.429 . S
C769 N766 1.350 . S
C769 C768 1.434 1_554 S
C770 C771 1.369 . S
C770 C772 1.419 . S
C770 H774 0.930 . S
C771 C770 1.369 . S
C771 C780 1.429 . S
C772 C770 1.419 . S
C772 C773 1.363 . S
C772 H775 0.929 . S
C773 C772 1.363 . S
C773 C779 1.428 . S
H774 C770 0.930 . S
H775 C772 0.929 . S
S776 N777 1.613 . S
S776 N778 1.610 . S
N777 S776 1.613 . S
N777 C780 1.350 . S
N778 S776 1.610 . S
N778 C779 1.351 . S
C779 C773 1.428 . S
C779 N778 1.351 . S
C779 C780 1.434 . S
C780 C771 1.429 . S
C780 N777 1.350 . S
C780 C779 1.434 . S
C781 C782 1.369 . S
C781 C783 1.419 . S
C781 H785 0.930 . S
C782 C781 1.369 . S
C782 C791 1.429 . S
C783 C781 1.419 . S
C783 C784 1.363 . S
C783 H786 0.929 . S
C784 C783 1.363 . S
C784 C790 1.428 . S
H785 C781 0.930 . S
H786 C783 0.929 . S
S787 N788 1.613 . S
S787 N789 1.610 . S
N788 S787 1.613 . S
N788 C791 1.350 . S
N789 S787 1.610 . S
N789 C790 1.351 . S
C790 C784 1.428 . S
C790 N789 1.351 . S
C790 C791 1.434 . S
C791 C782 1.429 . S
C791 N788 1.350 . S
C791 C790 1.434 . S
C792 C793 1.369 . S
C792 C794 1.419 1_545 S
C792 H796 0.930 . S
C793 C792 1.369 . S
C793 C802 1.429 . S
C794 C792 1.419 1_565 S
C794 C795 1.363 . S
C794 H797 0.929 . S
C795 C794 1.363 . S
C795 C801 1.428 . S
H796 C792 0.930 . S
H797 C794 0.929 . S
S798 N799 1.613 . S
S798 N800 1.610 . S
N799 S798 1.613 . S
N799 C802 1.350 1_565 S
N800 S798 1.610 . S
N800 C801 1.351 . S
C801 C795 1.428 . S
C801 N800 1.351 . S
C801 C802 1.434 1_565 S
C802 C793 1.429 . S
C802 N799 1.350 1_545 S
C802 C801 1.434 1_545 S
C803 C804 1.369 . S
C803 C805 1.419 . S
C803 H807 0.930 . S
C804 C803 1.369 . S
C804 C813 1.429 . S
C805 C803 1.419 . S
C805 C806 1.363 . S
C805 H808 0.929 . S
C806 C805 1.363 . S
C806 C812 1.428 . S
H807 C803 0.930 . S
H808 C805 0.929 . S
S809 N810 1.613 . S
S809 N811 1.610 . S
N810 S809 1.613 . S
N810 C813 1.350 . S
N811 S809 1.610 . S
N811 C812 1.351 . S
C812 C806 1.428 . S
C812 N811 1.351 . S
C812 C813 1.434 . S
C813 C804 1.429 . S
C813 N810 1.350 . S
C813 C812 1.434 . S
C814 C815 1.369 . S
C814 C816 1.419 1_565 S
C814 H818 0.930 . S
C815 C814 1.369 . S
C815 C824 1.429 . S
C816 C814 1.419 1_545 S
C816 C817 1.363 . S
C816 H819 0.929 . S
C817 C816 1.363 . S
C817 C823 1.428 . S
H818 C814 0.930 . S
H819 C816 0.929 . S
S820 N821 1.613 . S
S820 N822 1.610 1_565 S
N821 S820 1.613 . S
N821 C824 1.350 . S
N822 S820 1.610 1_545 S
N822 C823 1.351 . S
C823 C817 1.428 . S
C823 N822 1.351 . S
C823 C824 1.434 1_545 S
C824 C815 1.429 . S
C824 N821 1.350 . S
C824 C823 1.434 1_565 S
C825 C826 1.369 . S
C825 C827 1.419 . S
C825 H829 0.930 . S
C826 C825 1.369 . S
C826 C835 1.429 . S
C827 C825 1.419 . S
C827 C828 1.363 . S
C827 H830 0.929 . S
C828 C827 1.363 . S
C828 C834 1.428 . S
H829 C825 0.930 . S
H830 C827 0.929 . S
S831 N832 1.613 . S
S831 N833 1.610 . S
N832 S831 1.613 . S
N832 C835 1.350 . S
N833 S831 1.610 . S
N833 C834 1.351 . S
C834 C828 1.428 . S
C834 N833 1.351 . S
C834 C835 1.434 . S
C835 C826 1.429 . S
C835 N832 1.350 . S
C835 C834 1.434 . S
C836 C837 1.369 . S
C836 C838 1.419 . S
C836 H840 0.930 . S
C837 C836 1.369 . S
C837 C846 1.429 . S
C838 C836 1.419 . S
C838 C839 1.363 . S
C838 H841 0.929 . S
C839 C838 1.363 . S
C839 C845 1.428 . S
H840 C836 0.930 . S
H841 C838 0.929 . S
S842 N843 1.613 . S
S842 N844 1.610 . S
N843 S842 1.613 . S
N843 C846 1.350 . S
N844 S842 1.610 . S
N844 C845 1.351 . S
C845 C839 1.428 . S
C845 N844 1.351 . S
C845 C846 1.434 . S
C846 C837 1.429 . S
C846 N843 1.350 . S
C846 C845 1.434 . S
C847 C848 1.369 . S
C847 C849 1.419 1_545 S
C847 H851 0.930 . S
C848 C847 1.369 . S
C848 C857 1.429 . S
C849 C847 1.419 1_565 S
C849 C850 1.363 . S
C849 H852 0.929 . S
C850 C849 1.363 . S
C850 C856 1.428 . S
H851 C847 0.930 . S
H852 C849 0.929 . S
S853 N854 1.613 . S
S853 N855 1.610 1_545 S
N854 S853 1.613 . S
N854 C857 1.350 . S
N855 S853 1.610 1_565 S
N855 C856 1.351 . S
C856 C850 1.428 . S
C856 N855 1.351 . S
C856 C857 1.434 1_565 S
C857 C848 1.429 . S
C857 N854 1.350 . S
C857 C856 1.434 1_545 S
C858 C859 1.369 . S
C858 C860 1.419 . S
C858 H862 0.930 . S
C859 C858 1.369 . S
C859 C868 1.429 . S
C860 C858 1.419 . S
C860 C861 1.363 . S
C860 H863 0.929 . S
C861 C860 1.363 . S
C861 C867 1.428 . S
H862 C858 0.930 . S
H863 C860 0.929 . S
S864 N865 1.613 . S
S864 N866 1.610 . S
N865 S864 1.613 . S
N865 C868 1.350 . S
N866 S864 1.610 . S
N866 C867 1.351 . S
C867 C861 1.428 . S
C867 N866 1.351 . S
C867 C868 1.434 . S
C868 C859 1.429 . S
C868 N865 1.350 . S
C868 C867 1.434 . S
C869 C870 1.369 1_565 S
C869 C871 1.419 . S
C869 H873 0.930 . S
C870 C869 1.369 1_545 S
C870 C879 1.429 . S
C871 C869 1.419 . S
C871 C872 1.363 . S
C871 H874 0.929 . S
C872 C871 1.363 . S
C872 C878 1.428 1_565 S
H873 C869 0.930 . S
H874 C871 0.929 . S
S875 N876 1.613 . S
S875 N877 1.610 . S
N876 S875 1.613 . S
N876 C879 1.350 . S
N877 S875 1.610 . S
N877 C878 1.351 . S
C878 C872 1.428 1_545 S
C878 N877 1.351 . S
C878 C879 1.434 . S
C879 C870 1.429 . S
C879 N876 1.350 . S
C879 C878 1.434 . S
C880 C881 1.369 . S
C880 C882 1.419 . S
C880 H884 0.930 . S
C881 C880 1.369 . S
C881 C890 1.429 . S
C882 C880 1.419 . S
C882 C883 1.363 . S
C882 H885 0.929 . S
C883 C882 1.363 . S
C883 C889 1.428 . S
H884 C880 0.930 . S
H885 C882 0.929 . S
S886 N887 1.613 . S
S886 N888 1.610 . S
N887 S886 1.613 . S
N887 C890 1.350 . S
N888 S886 1.610 . S
N888 C889 1.351 . S
C889 C883 1.428 . S
C889 N888 1.351 . S
C889 C890 1.434 . S
C890 C881 1.429 . S
C890 N887 1.350 . S
C890 C889 1.434 . S
C891 C892 1.369 . S
C891 C893 1.419 . S
C891 H895 0.930 . S
C892 C891 1.369 . S
C892 C901 1.429 . S
C893 C891 1.419 . S
C893 C894 1.363 . S
C893 H896 0.929 . S
C894 C893 1.363 . S
C894 C900 1.428 . S
H895 C891 0.930 . S
H896 C893 0.929 . S
S897 N898 1.613 . S
S897 N899 1.610 . S
N898 S897 1.613 . S
N898 C901 1.350 . S
N899 S897 1.610 . S
N899 C900 1.351 . S
C900 C894 1.428 . S
C900 N899 1.351 . S
C900 C901 1.434 . S
C901 C892 1.429 . S
C901 N898 1.350 . S
C901 C900 1.434 . S
C902 C903 1.369 . S
C902 C904 1.419 . S
C902 H906 0.930 . S
C903 C902 1.369 . S
C903 C912 1.429 . S
C904 C902 1.419 . S
C904 C905 1.363 . S
C904 H907 0.929 . S
C905 C904 1.363 . S
C905 C911 1.428 . S
H906 C902 0.930 . S
H907 C904 0.929 . S
S908 N909 1.613 . S
S908 N910 1.610 . S
N909 S908 1.613 . S
N909 C912 1.350 . S
N910 S908 1.610 . S
N910 C911 1.351 . S
C911 C905 1.428 . S
C911 N910 1.351 . S
C911 C912 1.434 . S
C912 C903 1.429 . S
C912 N909 1.350 . S
C912 C911 1.434 . S
C913 C914 1.369 . S
C913 C915 1.419 . S
C913 H917 0.930 . S
C914 C913 1.369 . S
C914 C923 1.429 . S
C915 C913 1.419 . S
C915 C916 1.363 . S
C915 H918 0.929 . S
C916 C915 1.363 . S
C916 C922 1.428 . S
H917 C913 0.930 . S
H918 C915 0.929 . S
S919 N920 1.613 . S
S919 N921 1.610 . S
N920 S919 1.613 . S
N920 C923 1.350 . S
N921 S919 1.610 . S
N921 C922 1.351 . S
C922 C916 1.428 . S
C922 N921 1.351 . S
C922 C923 1.434 . S
C923 C914 1.429 . S
C923 N920 1.350 . S
C923 C922 1.434 . S
C924 C925 1.369 . S
C924 C926 1.419 1_655 S
C924 H928 0.930 . S
C925 C924 1.369 . S
C925 C934 1.452 . S
C926 C924 1.419 1_455 S
C926 C927 1.363 . S
C926 H929 0.929 . S
C927 C926 1.363 . S
C927 C933 1.428 . S
H928 C924 0.930 . S
H929 C926 0.929 . S
S930 N931 1.613 . S
S930 N932 1.610 . S
N931 S930 1.613 . S
N931 C934 1.348 1_455 S
N932 S930 1.610 . S
N932 C933 1.351 . S
C933 C927 1.428 . S
C933 N932 1.351 . S
C933 C934 1.411 1_455 S
C934 C925 1.452 . S
C934 N931 1.348 1_655 S
C934 C933 1.411 1_655 S
C935 C936 1.396 . S
C935 C937 1.392 1_455 S
C935 H939 0.930 . S
C936 C935 1.396 . S
C936 C945 1.429 . S
C937 C935 1.392 1_655 S
C937 C938 1.363 . S
C937 H940 0.929 . S
C938 C937 1.363 . S
C938 C944 1.429 1_655 S
H939 C935 0.930 . S
H940 C937 0.929 . S
S941 N942 1.613 . S
S941 N943 1.610 . S
N942 S941 1.613 . S
N942 C945 1.350 . S
N943 S941 1.610 . S
N943 C944 1.351 . S
C944 C938 1.429 1_455 S
C944 N943 1.351 . S
C944 C945 1.433 . S
C945 C936 1.429 . S
C945 N942 1.350 . S
C945 C944 1.433 . S
C946 C947 1.369 . S
C946 C948 1.419 1_455 S
C946 H950 0.930 . S
C947 C946 1.369 . S
C947 C956 1.429 . S
C948 C946 1.419 1_655 S
C948 C949 1.363 . S
C948 H951 0.929 . S
C949 C948 1.363 . S
C949 C955 1.443 . S
H950 C946 0.930 . S
H951 C948 0.929 . S
S952 N953 1.613 . S
S952 N954 1.610 . S
N953 S952 1.613 . S
N953 C956 1.350 . S
N954 S952 1.610 . S
N954 C955 1.349 1_455 S
C955 C949 1.443 . S
C955 N954 1.349 1_655 S
C955 C956 1.420 1_655 S
C956 C947 1.429 . S
C956 N953 1.350 . S
C956 C955 1.420 1_455 S
C957 C958 1.369 . S
C957 C959 1.428 . S
C957 H961 0.930 . S
C958 C957 1.369 . S
C958 C967 1.429 1_655 S
C959 C957 1.428 . S
C959 C960 1.353 1_655 S
C959 H962 0.930 . S
C960 C959 1.353 1_455 S
C960 C966 1.428 . S
H961 C957 0.930 . S
H962 C959 0.930 . S
S963 N964 1.613 . S
S963 N965 1.610 . S
N964 S963 1.613 . S
N964 C967 1.350 . S
N965 S963 1.610 . S
N965 C966 1.351 . S
C966 C960 1.428 . S
C966 N965 1.351 . S
C966 C967 1.434 . S
C967 C958 1.429 1_455 S
C967 N964 1.350 . S
C967 C966 1.434 . S
C529 C18 0.961 1_565 S
C531 C469 0.956 . S
C540 C51 0.973 . S
C542 C502 0.953 . S
C551 C84 0.961 1_545 S
C553 C403 0.957 . S
C562 C436 0.960 . S
C564 C117 0.971 . S
C573 C150 0.962 1_545 S
C575 C337 0.955 . S
C584 C183 0.971 . S
C586 C370 0.960 . S
C595 C216 0.961 1_565 S
C597 C271 0.957 . S
C606 C304 0.955 . S
C608 C249 0.972 . S
C617 C282 0.971 . S
C619 C205 0.960 . S
C628 C238 0.952 . S
C630 C315 0.962 1_545 S
C639 C348 0.972 . S
C641 C139 0.956 . S
C650 C381 0.960 1_565 S
C652 C172 0.961 . S
C661 C414 0.970 . S
C663 C73 0.960 . S
C672 C447 0.961 1_565 S
C674 C106 0.958 . S
C683 C7 0.955 . S
C685 C480 0.972 . S
C694 C40 0.957 . S
C696 C513 0.961 1_545 S
C705 N2 1.628 . S
C707 N365 1.634 . S
C716 N332 1.636 . S
C718 N35 1.631 . S
C727 N68 1.626 . S
C729 N299 1.631 . S
C738 N266 1.636 . S
C740 N101 1.631 . S
C749 N134 1.627 . S
C751 N497 1.631 . S
C760 N464 1.635 . S
C762 N167 1.635 . S
C771 N200 1.633 . S
C773 N431 1.635 . S
C782 N233 1.636 . S
C784 N398 1.632 . S
C793 N13 1.832 . S
C795 N79 1.833 . S
C804 N46 1.833 . S
C806 N112 1.832 . S
C815 N145 1.831 . S
C817 N211 1.832 . S
C826 N244 1.833 . S
C828 N178 1.831 . S
C837 N343 1.833 . S
C839 N277 1.831 . S
C848 N376 1.832 . S
C850 N310 1.832 . S
C859 N409 1.833 . S
C861 N475 1.832 . S
C870 N442 1.833 . S
C872 N508 1.832 . S
C881 C54 1.601 . S
C883 C21 1.601 . S
C892 C87 1.599 . S
C894 C120 1.604 . S
C903 C153 1.600 . S
C905 C186 1.603 . S
C914 C252 1.599 . S
C916 C219 1.605 . S
C925 C285 1.604 . S
C927 C318 1.600 . S
C936 C384 1.601 . S
C938 C351 1.605 . S
C947 C417 1.600 . S
C949 C450 1.604 . S
C958 C516 1.605 . S
C960 C483 1.600 . S
