# Generated by pormake.
# Topology qdl, (4)-cn, num edge types: 1
# Building blocks:
#     Node 0, Type 0, BuildingBlock: NAWXER_clean_sbu_0, # of connection points: 4
#     Node 1, Type 0, BuildingBlock: NAWXER_clean_sbu_0, # of connection points: 4
#     Node 2, Type 0, BuildingBlock: NAWXER_clean_sbu_0, # of connection points: 4
#     Node 3, Type 0, BuildingBlock: NAWXER_clean_sbu_0, # of connection points: 4
#     Node 4, Type 0, BuildingBlock: NAWXER_clean_sbu_0, # of connection points: 4
#     Node 5, Type 0, BuildingBlock: NAWXER_clean_sbu_0, # of connection points: 4
#     Edge 6, Type (0, 0), BuildingBlock: ZUJKAS_clean_linker_0, # of connection points: 2
#     Edge 7, Type (0, 0), BuildingBlock: ZUJKAS_clean_linker_0, # of connection points: 2
#     Edge 8, Type (0, 0), BuildingBlock: ZUJKAS_clean_linker_0, # of connection points: 2
#     Edge 9, Type (0, 0), BuildingBlock: ZUJKAS_clean_linker_0, # of connection points: 2
#     Edge 10, Type (0, 0), BuildingBlock: ZUJKAS_clean_linker_0, # of connection points: 2
#     Edge 11, Type (0, 0), BuildingBlock: ZUJKAS_clean_linker_0, # of connection points: 2
#     Edge 12, Type (0, 0), BuildingBlock: ZUJKAS_clean_linker_0, # of connection points: 2
#     Edge 13, Type (0, 0), BuildingBlock: ZUJKAS_clean_linker_0, # of connection points: 2
#     Edge 14, Type (0, 0), BuildingBlock: ZUJKAS_clean_linker_0, # of connection points: 2
#     Edge 15, Type (0, 0), BuildingBlock: ZUJKAS_clean_linker_0, # of connection points: 2
#     Edge 16, Type (0, 0), BuildingBlock: ZUJKAS_clean_linker_0, # of connection points: 2
#     Edge 17, Type (0, 0), BuildingBlock: ZUJKAS_clean_linker_0, # of connection points: 2
# Relax obj value: 0.000
# Max RMSD: 0.021
# Mean RMSD: 0.019
data_MOF--net-qdl--node1-NAWXER_clean_sbu_0--edge1-ZUJKAS_clean_linker_0
_symmetry_space_group_name_H-M    P1
_symmetry_Int_Tables_number       1
_symmetry_cell_setting            triclinic
loop_
_symmetry_equiv_pos_as_xyz
'x, y, z'
_cell_length_a     19.21375
_cell_length_b     19.229945
_cell_length_c     115.0282
_cell_angle_alpha  94.847685
_cell_angle_beta   94.754398
_cell_angle_gamma 120.03948
loop_
_atom_site_label
_atom_site_type_symbol
_atom_site_fract_x
_atom_site_fract_y
_atom_site_fract_z
_atom_type_partial_charge
C0 C 0.22958 0.09344 0.09131 0.0
C1 C 0.22923 0.34865 0.09386 0.0
O2 O 0.29049 0.1653 0.09283 0.0
Zn3 Zn 0.23054 0.22165 0.09268 0.0
O4 O 0.15766 0.08261 0.09016 0.0
Zn5 Zn 0.10183 0.15581 0.09011 0.0
O6 O 0.04084 0.12338 0.07448 0.0
O7 O 0.17356 0.19214 0.0746 0.0
O8 O 0.15741 0.2859 0.09216 0.0
O9 O 0.29031 0.33928 0.09488 0.0
O10 O 0.17556 0.19388 0.10851 0.0
O11 O 0.04257 0.12692 0.10337 0.0
C12 C 0.10128 0.15506 0.06889 0.0
C13 C 0.10381 0.15744 0.11137 0.0
C14 C 0.12409 0.9399 0.41999 0.0
C15 C 0.86886 0.93919 0.41862 0.0
O16 O 0.0523 0.87895 0.41864 0.0
Zn17 Zn 0.99618 0.93868 0.41921 0.0
O18 O 0.13492 1.0118 0.42125 0.0
Zn19 Zn 0.06111 0.06718 0.4218 0.0
O20 O 0.09616 0.12833 0.43744 0.0
O21 O 0.02939 0.99572 0.43734 0.0
O22 O 0.93135 1.01108 0.42026 0.0
O23 O 0.87855 0.87842 0.41742 0.0
O24 O 0.02132 0.99353 0.40333 0.0
O25 O 0.08581 0.12639 0.40854 0.0
C26 C 0.06699 0.068 0.44307 0.0
C27 C 0.05553 0.06534 0.40051 0.0
C28 C 0.0518 0.14712 0.77764 0.0
C29 C 0.04847 0.12046 0.73497 0.0
O30 O 0.02143 0.17326 0.77017 0.0
Zn31 Zn 0.04924 0.13409 0.75627 0.0
O32 O 0.08777 0.10994 0.7741 0.0
Zn33 Zn 0.11496 0.07278 0.75778 0.0
O34 O 0.23245 0.13242 0.75994 0.0
O35 O 0.17975 0.21061 0.75823 0.0
O36 O 0.08639 0.08994 0.74016 0.0
O37 O 1.01519 0.15106 0.74099 0.0
O38 O 0.97578 1.00455 0.75548 0.0
O39 O 0.0577 0.95562 0.75699 0.0
C40 C 0.24226 0.20256 0.75949 0.0
C41 C 0.98605 0.94377 0.75589 0.0
C42 C 0.02175 0.06893 0.60896 0.0
C43 C 0.02393 0.07131 0.5666 0.0
O44 O 0.05575 0.13013 0.60358 0.0
Zn45 Zn 0.02353 0.07087 0.58782 0.0
O46 O 0.984 0.99718 0.60307 0.0
Zn47 Zn 0.95714 0.94225 0.58491 0.0
O48 O 1.01348 0.88217 0.58474 0.0
O49 O 0.09634 0.01487 0.58771 0.0
O50 O 0.98679 0.99913 0.56928 0.0
O51 O 0.05405 0.13174 0.57474 0.0
O52 O 0.89307 0.01543 0.58555 0.0
O53 O 0.83967 0.8826 0.58242 0.0
C54 C 0.08543 0.94301 0.58643 0.0
C55 C 0.83026 0.94359 0.58359 0.0
C56 C 0.06113 0.14897 0.94361 0.0
C57 C 0.03008 0.13592 0.90077 0.0
O58 O 0.02737 0.17824 0.93734 0.0
Zn59 Zn 0.04539 0.14336 0.92219 0.0
O60 O 0.09318 0.11191 0.93861 0.0
Zn61 Zn 0.10826 0.07906 0.92107 0.0
O62 O 0.225 0.13669 0.92158 0.0
O63 O 0.17488 0.21774 0.92271 0.0
O64 O 0.06828 0.1014 0.9045 0.0
O65 O 1.0047 0.16799 0.90813 0.0
O66 O 0.97033 0.01322 0.92057 0.0
O67 O 0.05 0.96178 0.91946 0.0
C68 C 0.23606 0.20794 0.92235 0.0
C69 C 0.97934 0.95129 0.91966 0.0
C70 C 0.12297 0.13514 0.27779 0.0
C71 C 0.11816 0.1231 0.23521 0.0
O72 O 0.06151 0.10475 0.26983 0.0
Zn73 Zn 0.12012 0.12931 0.25651 0.0
O74 O 0.19463 0.16925 0.27488 0.0
Zn75 Zn 0.24869 0.19403 0.2589 0.0
O76 O 0.30901 0.31172 0.2607 0.0
O77 O 0.17628 0.25906 0.2582 0.0
O78 O 0.19072 0.16066 0.24083 0.0
O79 O 0.05823 0.09423 0.24093 0.0
O80 O 0.17532 0.05535 0.25703 0.0
O81 O 0.30825 0.13754 0.25936 0.0
C82 C 0.24819 0.3215 0.25975 0.0
C83 C 0.24718 0.06591 0.25816 0.0
H84 H 0.11107 0.93346 0.08812 0.0
H85 H 0.12721 0.81571 0.08851 0.0
H86 H 0.38774 0.97255 0.09444 0.0
H87 H 0.37223 0.09158 0.09421 0.0
H88 H 0.20772 0.76427 0.07399 0.0
H89 H 0.34418 0.83229 0.12111 0.0
H90 H 0.29389 0.8824 0.11519 0.0
H91 H 0.39455 0.91136 0.11227 0.0
C92 C 0.17196 0.94326 0.08952 0.0
C93 C 0.2404 0.02218 0.09118 0.0
C94 C 0.18102 0.87571 0.08973 0.0
C95 C 0.25859 0.88534 0.09166 0.0
C96 C 0.32726 0.96383 0.09315 0.0
H97 H 0.37151 0.49652 0.09669 0.0
H98 H 0.38617 0.6304 0.09592 0.0
C99 C 0.31827 0.03173 0.09295 0.0
C100 C 0.26646 0.81249 0.09193 0.0
H101 H 0.3246 0.71319 0.1101 0.0
C102 C 0.23377 0.75337 0.08186 0.0
C103 C 0.30085 0.79855 0.10219 0.0
C104 C 0.33492 0.85905 0.11335 0.0
C105 C 0.23311 0.68006 0.08184 0.0
C106 C 0.26484 0.66485 0.09223 0.0
C107 C 0.30018 0.72504 0.10217 0.0
C108 C 0.25692 0.58475 0.09311 0.0
C109 C 0.19793 0.61917 0.07071 0.0
C110 C 0.17954 0.51521 0.09207 0.0
C111 C 0.17094 0.43903 0.09253 0.0
C112 C 0.23965 0.43064 0.09409 0.0
C113 C 0.31735 0.50078 0.09544 0.0
C114 C 0.32587 0.57728 0.095 0.0
H115 H 0.19749 0.64838 0.0628 0.0
H116 H 0.23276 0.58788 0.06951 0.0
H117 H 0.13423 0.57266 0.07131 0.0
H118 H 0.12556 0.51983 0.09084 0.0
H119 H 0.11017 0.38656 0.09152 0.0
H120 H 0.28423 0.05813 0.42295 0.0
H121 H 0.40188 0.0414 0.42276 0.0
H122 H 0.24423 0.78115 0.41704 0.0
H123 H 0.1254 0.79719 0.4171 0.0
H124 H 0.45012 0.95947 0.43776 0.0
H125 H 0.38803 0.82434 0.39064 0.0
H126 H 0.33835 0.87592 0.3963 0.0
H127 H 0.30715 0.775 0.39925 0.0
C128 C 0.27425 0.99719 0.42162 0.0
C129 C 0.19522 0.92897 0.42 0.0
C130 C 0.3417 0.9878 0.42153 0.0
C131 C 0.33175 0.91011 0.41975 0.0
C132 C 0.25313 0.84168 0.41823 0.0
H133 H 0.72115 0.79665 0.41567 0.0
H134 H 0.58679 0.78147 0.41627 0.0
C135 C 0.18537 0.851 0.41833 0.0
C136 C 0.40442 0.90178 0.41973 0.0
H137 H 0.50593 0.84367 0.40198 0.0
C138 C 0.46206 0.93363 0.42996 0.0
C139 C 0.41956 0.86755 0.40957 0.0
C140 C 0.36047 0.83417 0.39827 0.0
C141 C 0.53524 0.93376 0.43024 0.0
C142 C 0.55182 0.90241 0.41994 0.0
C143 C 0.49299 0.86778 0.40984 0.0
C144 C 0.63225 0.91056 0.4193 0.0
C145 C 0.59456 0.96807 0.44152 0.0
C146 C 0.7018 0.98803 0.42054 0.0
C147 C 0.77821 0.99692 0.42018 0.0
C148 C 0.78678 0.92841 0.41851 0.0
C149 C 0.7167 0.85063 0.41701 0.0
C150 C 0.63995 0.84182 0.41735 0.0
H151 H 0.56393 0.96768 0.44932 0.0
H152 H 0.62577 0.93326 0.4428 0.0
H153 H 0.64134 0.03196 0.4411 0.0
H154 H 0.69698 0.04186 0.42181 0.0
H155 H 0.83065 0.05775 0.4213 0.0
H156 H 0.98284 0.80058 0.7579 0.0
H157 H 0.86294 0.66604 0.75787 0.0
H158 H 0.70808 0.76692 0.75328 0.0
H159 H 0.82646 0.90046 0.75316 0.0
H160 H 0.74565 0.61964 0.77329 0.0
H161 H 0.60359 0.5717 0.72721 0.0
H162 H 0.70837 0.64809 0.73243 0.0
H163 H 0.62822 0.66721 0.73523 0.0
C164 C 0.92317 0.79389 0.75677 0.0
C165 C 0.91433 0.86132 0.75546 0.0
C166 C 0.85479 0.71705 0.75678 0.0
C167 C 0.77651 0.70623 0.75538 0.0
C168 C 0.7677 0.77343 0.75411 0.0
H169 H 0.2815 0.35884 0.75822 0.0
H170 H 0.41504 0.47602 0.75748 0.0
C171 C 0.8357 0.84997 0.75411 0.0
C172 C 0.70365 0.62571 0.75567 0.0
H173 H 0.51735 0.48748 0.74021 0.0
C174 C 0.69617 0.58993 0.766 0.0
C175 C 0.63929 0.58701 0.74613 0.0
C176 C 0.64544 0.62002 0.73458 0.0
C177 C 0.62429 0.51864 0.76726 0.0
C178 C 0.5588 0.48189 0.75789 0.0
C179 C 0.56747 0.51611 0.74742 0.0
C180 C 0.47901 0.41053 0.75895 0.0
C181 C 0.61752 0.4851 0.77877 0.0
C182 C 0.47064 0.33467 0.76007 0.0
C183 C 0.39402 0.26714 0.76051 0.0
C184 C 0.32448 0.2744 0.75979 0.0
C185 C 0.33358 0.35088 0.75881 0.0
C186 C 0.40992 0.41804 0.75836 0.0
H187 H 0.66763 0.52855 0.78583 0.0
H188 H 0.55861 0.46974 0.78176 0.0
H189 H 0.61989 0.42852 0.77749 0.0
H190 H 0.52305 0.32731 0.76037 0.0
H191 H 0.38914 0.20909 0.7612 0.0
H192 H 0.08754 0.80073 0.58293 0.0
H193 H 0.20717 0.78574 0.58291 0.0
H194 H 0.36362 0.04594 0.59013 0.0
H195 H 0.24547 0.06154 0.5903 0.0
H196 H 0.33025 0.84937 0.56838 0.0
H197 H 0.45849 0.96735 0.61546 0.0
H198 H 0.35498 0.93592 0.60979 0.0
H199 H 0.43696 0.03464 0.60813 0.0
C200 C 0.14747 0.85468 0.58461 0.0
C201 C 0.15684 0.93232 0.58668 0.0
C202 C 0.21569 0.84599 0.58457 0.0
C203 C 0.2943 0.91466 0.5867 0.0
C204 C 0.30364 0.99203 0.58871 0.0
H205 H 0.79169 0.06207 0.58622 0.0
H206 H 0.65765 0.04572 0.58666 0.0
C207 C 0.23581 1.0008 0.58874 0.0
C208 C 0.36709 0.90661 0.58648 0.0
H209 H 0.54886 0.96253 0.6027 0.0
C210 C 0.37759 0.87288 0.57593 0.0
C211 C 0.4286 0.93714 0.59635 0.0
C212 C 0.41899 0.97006 0.60811 0.0
C213 C 0.44988 0.87275 0.57482 0.0
C214 C 0.51264 0.90634 0.58456 0.0
C215 C 0.50084 0.93731 0.59522 0.0
C216 C 0.59295 0.91444 0.58373 0.0
C217 C 0.46012 0.84005 0.5631 0.0
C218 C 0.60108 0.84588 0.5819 0.0
C219 C 0.67798 0.85497 0.58164 0.0
C220 C 0.74802 0.93284 0.58323 0.0
C221 C 0.73922 1.00119 0.58494 0.0
C222 C 0.66259 0.99203 0.58522 0.0
H223 H 0.41222 0.82987 0.55591 0.0
H224 H 0.5205 0.88245 0.56067 0.0
H225 H 0.45667 0.78121 0.56377 0.0
H226 H 0.54818 0.78542 0.5809 0.0
H227 H 0.68262 0.80107 0.58036 0.0
H228 H 0.27715 0.36642 0.92339 0.0
H229 H 0.40962 0.48377 0.92225 0.0
H230 H 0.51334 0.33039 0.91997 0.0
H231 H 0.38034 0.21174 0.92117 0.0
H232 H 0.60815 0.48121 0.93607 0.0
H233 H 0.5163 0.52831 0.8918 0.0
H234 H 0.44866 0.52001 0.90219 0.0
H235 H 0.45905 0.43429 0.89763 0.0
C236 C 0.32797 0.3573 0.92268 0.0
C237 C 0.31789 0.27941 0.9223 0.0
C238 C 0.40363 0.42454 0.92197 0.0
C239 C 0.47086 0.41549 0.92081 0.0
C240 C 0.46193 0.33842 0.92077 0.0
H241 H 0.9743 0.80533 0.91853 0.0
H242 H 0.85482 0.67041 0.91834 0.0
C243 C 0.38594 0.27078 0.92146 0.0
C244 C 0.55011 0.48711 0.91967 0.0
H245 H 0.63959 0.63777 0.90276 0.0
C246 C 0.61566 0.51496 0.92871 0.0
C247 C 0.55957 0.53069 0.91004 0.0
C248 C 0.49244 0.50151 0.8998 0.0
C249 C 0.68924 0.58774 0.92868 0.0
C250 C 0.6976 0.63282 0.91925 0.0
C251 C 0.63295 0.60327 0.91 0.0
C252 C 0.7705 0.7136 0.91917 0.0
C253 C 0.756 0.61775 0.93899 0.0
C254 C 0.76237 0.78219 0.91941 0.0
C255 C 0.8301 0.85897 0.91945 0.0
C256 C 0.90762 0.8689 0.9192 0.0
C257 C 0.91554 0.79985 0.91877 0.0
C258 C 0.84746 0.72279 0.91874 0.0
H259 H 0.73416 0.58431 0.94657 0.0
H260 H 0.80552 0.60921 0.93623 0.0
H261 H 0.78195 0.68353 0.94198 0.0
H262 H 0.7035 0.77642 0.91971 0.0
H263 H 0.82158 0.91064 0.91976 0.0
H264 H 0.3906 0.46904 0.26215 0.0
H265 H 0.40561 0.604 0.26293 0.0
H266 H 0.14522 0.49427 0.25914 0.0
H267 H 0.12958 0.36018 0.25846 0.0
H268 H 0.34079 0.66333 0.24589 0.0
H269 H 0.22498 0.66691 0.28832 0.0
H270 H 0.25696 0.59649 0.28368 0.0
H271 H 0.15778 0.57714 0.27802 0.0
C272 C 0.3366 0.47376 0.26155 0.0
C273 C 0.25891 0.40374 0.26031 0.0
C274 C 0.3453 0.55086 0.26198 0.0
C275 C 0.27658 0.5592 0.26129 0.0
C276 C 0.19915 0.48941 0.25994 0.0
H277 H 0.12865 0.90645 0.25621 0.0
H278 H 0.14509 0.78912 0.25712 0.0
C279 C 0.19037 0.41263 0.25949 0.0
C280 C 0.28463 0.64026 0.26166 0.0
H281 H 0.22955 0.76362 0.27613 0.0
C282 C 0.3177 0.68605 0.25259 0.0
C283 C 0.25462 0.66976 0.27044 0.0
C284 C 0.22231 0.62543 0.28073 0.0
C285 C 0.31766 0.75858 0.25174 0.0
C286 C 0.28465 0.7863 0.26027 0.0
C287 C 0.25435 0.74197 0.26956 0.0
C288 C 0.27642 0.85846 0.25937 0.0
C289 C 0.34952 0.80306 0.24144 0.0
C290 C 0.34497 0.93663 0.26036 0.0
C291 C 0.33582 1.00424 0.25984 0.0
C292 C 0.25791 0.99475 0.25836 0.0
C293 C 0.18955 0.91616 0.25734 0.0
C294 C 0.19878 0.8489 0.25787 0.0
H295 H 0.35867 0.76583 0.2345 0.0
H296 H 0.30712 0.82085 0.23747 0.0
H297 H 0.40884 0.85933 0.24458 0.0
H298 H 0.4055 0.9455 0.2617 0.0
H299 H 0.38974 0.06389 0.26071 0.0
H300 H 0.97373 0.05448 0.22027 0.0
H301 H 0.95473 0.04562 0.19872 0.0
H302 H 0.21424 0.16692 0.19923 0.0
H303 H 0.23385 0.17537 0.22062 0.0
H304 H 0.01625 0.17416 0.18521 0.0
H305 H 0.1298 0.96597 0.17452 0.0
H306 H 0.10117 0.97917 0.18874 0.0
H307 H 0.19927 0.05177 0.18531 0.0
C308 C 0.0267 0.07868 0.21578 0.0
C309 C 0.10531 0.11531 0.22217 0.0
C310 C 0.0157 0.07365 0.20348 0.0
C311 C 0.083 0.10445 0.19738 0.0
C312 C 0.16137 0.14119 0.20374 0.0
H313 H 0.223 0.21322 0.13025 0.0
H314 H 0.20748 0.1948 0.15078 0.0
C315 C 0.17244 0.14636 0.21599 0.0
C316 C 0.07248 0.10149 0.1844 0.0
H317 H 0.12371 0.04168 0.15933 0.0
C318 C 0.03844 0.14411 0.17949 0.0
C319 C 0.10118 0.0619 0.17698 0.0
C320 C 0.13416 1.01142 0.18163 0.0
C321 C 0.03652 0.15197 0.16745 0.0
C322 C 0.06867 0.11545 0.16016 0.0
C323 C 0.09961 0.07008 0.16498 0.0
C324 C 0.0761 0.12804 0.14769 0.0
C325 C 1.00373 0.20236 0.16272 0.0
C326 C 1.00716 0.0966 0.13913 0.0
C327 C 0.01575 0.10704 0.12732 0.0
C328 C 0.09349 0.14892 0.1239 0.0
C329 C 0.16222 0.18076 0.13255 0.0
C330 C 0.15354 0.17018 0.1443 0.0
H331 H 0.99363 0.23741 0.16988 0.0
H332 H 0.04612 0.24535 0.15729 0.0
H333 H 0.94482 0.1618 0.15697 0.0
H334 H 0.94683 0.06293 0.14155 0.0
H335 H 0.96161 0.08147 0.12087 0.0
H336 H 0.10116 0.21477 0.55747 0.0
H337 H 0.12154 0.23181 0.53689 0.0
H338 H 0.98986 0.97178 0.52707 0.0
H339 H 0.96958 0.95402 0.5475 0.0
H340 H 0.14439 0.05702 0.51882 0.0
H341 H 0.9488 0.18741 0.50842 0.0
H342 H 0.02339 0.23489 0.52145 0.0
H343 H 0.93963 0.13339 0.52084 0.0
C344 C 0.07604 0.16125 0.55091 0.0
C345 C 0.03365 0.08302 0.55414 0.0
C346 C 0.08753 0.17113 0.53916 0.0
C347 C 0.05667 0.10302 0.53047 0.0
C348 C 1.01404 0.0251 0.53366 0.0
H349 H 1.0143 0.95128 0.45746 0.0
H350 H 0.02163 0.9694 0.47884 0.0
C351 C 1.00241 0.01514 0.54535 0.0
C352 C 0.07034 0.11178 0.51805 0.0
H353 H 1.01312 0.1661 0.49312 0.0
C354 C 0.11628 0.0815 0.51322 0.0
C355 C 0.03419 0.14441 0.51081 0.0
C356 C 0.98325 0.17655 0.51556 0.0
C357 C 0.12535 0.08104 0.50124 0.0
C358 C 0.08607 0.11016 0.49387 0.0
C359 C 0.04292 0.14359 0.4988 0.0
C360 C 0.08388 0.10059 0.4809 0.0
C361 C 0.17637 0.0487 0.49658 0.0
C362 C 0.11494 0.16835 0.47491 0.0
C363 C 0.11055 0.15821 0.46261 0.0
C364 C 0.07431 0.08 0.45611 0.0
C365 C 0.04303 0.01241 0.46217 0.0
C366 C 0.04756 0.02263 0.47442 0.0
H367 H 0.22154 0.05274 0.5037 0.0
H368 H 0.13629 0.98377 0.49279 0.0
H369 H 0.20906 0.08231 0.48954 0.0
H370 H 0.14264 0.22901 0.47975 0.0
H371 H 0.1349 0.21151 0.45821 0.0
H372 H 0.10339 0.09002 0.79523 0.0
H373 H 0.0823 0.09506 0.81579 0.0
H374 H 0.95888 0.2266 0.8095 0.0
H375 H 0.97959 0.22185 0.7887 0.0
H376 H 0.08391 0.28833 0.83109 0.0
H377 H 0.85354 0.96043 0.82672 0.0
H378 H 0.94355 0.98192 0.82042 0.0
H379 H 0.87816 0.01524 0.81423 0.0
C380 C 0.07196 0.12039 0.79816 0.0
C381 C 0.04276 0.15516 0.79028 0.0
C382 C 0.05971 0.12287 0.80993 0.0
C383 C 0.01802 0.16009 0.8141 0.0
C384 C 0.99072 0.19709 0.8064 0.0
H385 H 0.96174 0.21286 0.8895 0.0
H386 H 0.9483 0.22208 0.86835 0.0
C387 C 1.00264 0.19431 0.79454 0.0
C388 C 1.00341 0.15931 0.82653 0.0
H389 H 0.9168 0.02886 0.84629 0.0
C390 C 0.04613 0.23203 0.83443 0.0
C391 C 0.95382 0.08568 0.83079 0.0
C392 C 0.90398 1.00638 0.8226 0.0
C393 C 0.04475 0.23217 0.84664 0.0
C394 C 0.99853 0.15775 0.85095 0.0
C395 C 0.95241 0.08577 0.84296 0.0
C396 C 1.00395 0.15166 0.86372 0.0
C397 C 0.0964 0.31099 0.85488 0.0
C398 C 0.03792 0.10757 0.86805 0.0
C399 C 0.04531 0.10188 0.88005 0.0
C400 C 0.01854 0.13992 0.888 0.0
C401 C 0.98313 0.18303 0.88361 0.0
C402 C 0.97584 0.18878 0.87155 0.0
H403 H 0.13798 0.36095 0.85024 0.0
H404 H 0.05642 0.32912 0.85895 0.0
H405 H 0.13318 0.30348 0.86209 0.0
H406 H 0.05981 0.07831 0.86215 0.0
H407 H 0.07271 0.06804 0.88308 0.0
H408 H 0.95761 0.08712 0.05379 0.0
H409 H 0.94008 0.08674 0.03243 0.0
H410 H 0.20014 0.21565 0.03333 0.0
H411 H 0.21838 0.2172 0.05461 0.0
H412 H 0.12196 0.28119 0.02037 0.0
H413 H 0.97652 0.94768 0.00717 0.0
H414 H 0.92899 0.97939 0.0175 0.0
H415 H 0.02932 0.99751 0.02183 0.0
C416 C 1.01105 0.11502 0.04943 0.0
C417 C 0.0894 0.15191 0.05591 0.0
C418 C 1.00089 0.11455 0.03722 0.0
C419 C 0.06883 0.15057 0.03129 0.0
C420 C 0.14692 0.18751 0.03774 0.0
H421 H 0.13279 0.09662 0.95925 0.0
H422 H 0.12955 0.09981 0.98042 0.0
C423 C 0.15716 0.18805 0.04991 0.0
C424 C 0.05946 0.15066 0.01838 0.0
H425 H 0.99283 0.02675 0.99192 0.0
C426 C 0.09323 0.22561 0.01413 0.0
C427 C 0.02247 0.07801 0.01029 0.0
C428 C 0.98773 0.99597 0.01437 0.0
C429 C 0.09223 0.22994 1.00199 0.0
C430 C 0.05553 0.15729 0.99391 0.0
C431 C 0.02051 0.08231 0.99815 0.0
C432 C 0.05783 0.15764 0.98106 0.0
C433 C 0.13311 0.3122 0.99795 0.0
C434 C 0.01859 0.18929 0.97438 0.0
C435 C 0.02058 0.18791 0.96222 0.0
C436 C 0.06145 0.15435 0.95654 0.0
C437 C 0.10079 0.12299 0.96331 0.0
C438 C 0.09885 0.12452 0.97542 0.0
H439 H 0.17257 0.36165 1.00533 0.0
H440 H 0.17053 0.31386 0.991 0.0
H441 H 0.08603 0.32448 0.99414 0.0
H442 H 0.98555 0.21405 0.97854 0.0
H443 H 0.98922 0.21206 0.95726 0.0
H444 H 0.23165 0.14687 0.29573 0.0
H445 H 0.21496 0.13645 0.31643 0.0
H446 H 0.97684 0.10672 0.30913 0.0
H447 H 0.99175 0.11314 0.28824 0.0
H448 H 0.19757 0.2264 0.33271 0.0
H449 H 0.92299 0.91912 0.32633 0.0
H450 H 0.97964 0.96128 0.31448 0.0
H451 H 0.90755 0.98895 0.31871 0.0
C452 C 0.17553 0.13773 0.29852 0.0
C453 C 0.11274 0.13023 0.29035 0.0
C454 C 0.16609 0.13188 0.31037 0.0
C455 C 0.09407 0.11937 0.31434 0.0
C456 C 0.03198 0.11387 0.30624 0.0
H457 H 0.07761 0.197 0.39023 0.0
H458 H 0.08409 0.21272 0.36937 0.0
C459 C 0.04076 0.11813 0.29432 0.0
C460 C 0.08521 0.11341 0.327 0.0
H461 H 0.96438 0.99259 0.34565 0.0
C462 C 0.14664 0.17513 0.33554 0.0
C463 C 0.01929 0.04604 0.33072 0.0
C464 C 0.95409 0.97471 0.32209 0.0
C465 C 0.14452 0.1711 0.34765 0.0
C466 C 0.07734 0.10499 0.35136 0.0
C467 C 0.01552 0.04366 0.34282 0.0
C468 C 0.07164 0.09579 0.36402 0.0
C469 C 0.21593 0.23624 0.35627 0.0
C470 C 0.0593 0.0237 0.36791 0.0
C471 C 0.05341 0.01379 0.37974 0.0
C472 C 0.06071 0.07619 0.38798 0.0
C473 C 0.07276 0.14829 0.3841 0.0
C474 C 0.07705 0.15754 0.37219 0.0
H475 H 0.27144 0.26758 0.352 0.0
H476 H 0.20155 0.28255 0.35971 0.0
H477 H 0.22965 0.21063 0.36383 0.0
H478 H 0.05481 0.9751 0.36179 0.0
H479 H 0.04434 0.9576 0.38246 0.0
H480 H 0.12795 0.20203 0.62515 0.0
H481 H 0.1338 0.21539 0.64666 0.0
H482 H 0.9239 0.97447 0.64334 0.0
H483 H 0.91987 0.95952 0.62199 0.0
H484 H 0.03176 0.21257 0.66114 0.0
H485 H 0.07821 0.95458 0.66629 0.0
H486 H 0.08405 0.99473 0.65257 0.0
H487 H 0.98691 0.92385 0.65653 0.0
C488 C 0.08329 0.15188 0.62903 0.0
C489 C 0.02421 0.07929 0.6219 0.0
C490 C 0.08658 0.15961 0.64131 0.0
C491 C 0.03046 0.09518 0.64665 0.0
C492 C 0.96952 0.02397 0.63948 0.0
H493 H 0.93968 0.1332 0.71959 0.0
H494 H 0.93507 0.12986 0.69818 0.0
C495 C 0.96705 0.01569 0.62725 0.0
C496 C 0.03545 0.1021 0.6597 0.0
H497 H 0.04359 1.0063 0.68298 0.0
C498 C 0.03493 0.16781 0.66594 0.0
C499 C 0.04096 0.04444 0.66599 0.0
C500 C 0.04847 0.97599 0.66001 0.0
C501 C 0.03853 0.17678 0.67827 0.0
C502 C 0.04005 0.11691 0.68449 0.0
C503 C 0.04148 0.05177 0.67823 0.0
C504 C 0.04301 0.12138 0.69751 0.0
C505 C 0.04274 0.25135 0.6845 0.0
C506 C 0.1036 0.11532 0.70425 0.0
C507 C 0.10493 0.11494 0.71639 0.0
C508 C 0.04625 0.1216 0.72211 0.0
C509 C 0.98606 0.12866 0.71542 0.0
C510 C 0.98383 0.12748 0.7032 0.0
H511 H 0.06616 0.30175 0.67913 0.0
H512 H 0.98077 0.2365 0.68601 0.0
H513 H 0.08234 0.27292 0.69317 0.0
H514 H 0.14993 0.11053 0.7001 0.0
H515 H 0.15246 0.10998 0.72131 0.0
loop_
_geom_bond_atom_site_label_1
_geom_bond_atom_site_label_2
_geom_bond_distance
_geom_bond_site_symmetry_2
_ccdc_geom_bond_type
C0 O2 1.247 . S
C0 O4 1.258 . S
C1 O8 1.247 . S
C1 O9 1.258 . S
O2 C0 1.247 . S
O2 Zn3 2.028 . S
Zn3 O2 2.028 . S
Zn3 O7 2.035 . S
Zn3 O9 2.035 . S
Zn3 O10 2.028 . S
O4 C0 1.258 . S
O4 Zn5 2.035 . S
Zn5 O4 2.035 . S
Zn5 O6 2.028 . S
Zn5 O8 2.028 . S
Zn5 O11 2.035 . S
O6 Zn5 2.028 . S
O6 C12 1.247 . S
O7 Zn3 2.035 . S
O7 C12 1.258 . S
O8 C1 1.247 . S
O8 Zn5 2.028 . S
O9 C1 1.258 . S
O9 Zn3 2.035 . S
O10 Zn3 2.028 . S
O10 C13 1.247 . S
O11 Zn5 2.035 . S
O11 C13 1.258 . S
C12 O6 1.247 . S
C12 O7 1.258 . S
C13 O10 1.247 . S
C13 O11 1.258 . S
C14 O16 1.247 1_545 S
C14 O18 1.258 . S
C15 O22 1.247 . S
C15 O23 1.258 1_545 S
O16 C14 1.247 1_565 S
O16 Zn17 2.028 . S
Zn17 O16 2.028 . S
Zn17 O21 2.035 . S
Zn17 O23 2.035 1_455 S
Zn17 O24 2.028 . S
O18 C14 1.258 . S
O18 Zn19 2.035 . S
Zn19 O18 2.035 . S
Zn19 O20 2.028 . S
Zn19 O22 2.028 1_455 S
Zn19 O25 2.035 . S
O20 Zn19 2.028 . S
O20 C26 1.247 . S
O21 Zn17 2.035 . S
O21 C26 1.258 1_565 S
O22 C15 1.247 . S
O22 Zn19 2.028 1_655 S
O23 C15 1.258 1_565 S
O23 Zn17 2.035 1_655 S
O24 Zn17 2.028 . S
O24 C27 1.247 1_565 S
O25 Zn19 2.035 . S
O25 C27 1.258 . S
C26 O20 1.247 . S
C26 O21 1.258 1_545 S
C27 O24 1.247 1_545 S
C27 O25 1.258 . S
C28 O30 1.247 1_455 S
C28 O32 1.258 . S
C29 O36 1.247 . S
C29 O37 1.258 1_455 S
O30 C28 1.247 1_655 S
O30 Zn31 2.028 . S
Zn31 O30 2.028 . S
Zn31 O35 2.035 1_655 S
Zn31 O37 2.035 . S
Zn31 O38 2.028 . S
O32 C28 1.258 . S
O32 Zn33 2.035 . S
Zn33 O32 2.035 . S
Zn33 O34 2.028 . S
Zn33 O36 2.028 . S
Zn33 O39 2.035 1_445 S
O34 Zn33 2.028 . S
O34 C40 1.247 . S
O35 Zn31 2.035 1_455 S
O35 C40 1.258 . S
O36 C29 1.247 . S
O36 Zn33 2.028 . S
O37 C29 1.258 1_655 S
O37 Zn31 2.035 . S
O38 Zn31 2.028 . S
O38 C41 1.247 1_545 S
O39 Zn33 2.035 1_665 S
O39 C41 1.258 . S
C40 O34 1.247 . S
C40 O35 1.258 . S
C41 O38 1.247 1_565 S
C41 O39 1.258 . S
C42 O44 1.247 . S
C42 O46 1.258 1_445 S
C43 O50 1.247 1_455 S
C43 O51 1.258 1_565 S
O44 C42 1.247 . S
O44 Zn45 2.028 . S
Zn45 O44 2.028 . S
Zn45 O49 2.035 . S
Zn45 O51 2.035 . S
Zn45 O52 2.028 1_455 S
O46 C42 1.258 1_665 S
O46 Zn47 2.035 . S
Zn47 O46 2.035 . S
Zn47 O48 2.028 1_655 S
Zn47 O50 2.028 . S
Zn47 O53 2.035 . S
O48 Zn47 2.028 1_455 S
O48 C54 1.238 1_565 S
O49 Zn45 2.035 . S
O49 C54 1.274 . S
O50 C43 1.247 1_655 S
O50 Zn47 2.028 . S
O51 C43 1.258 1_545 S
O51 Zn45 2.035 . S
O52 Zn45 2.028 1_655 S
O52 C55 1.247 . S
O53 Zn47 2.035 . S
O53 C55 1.258 1_565 S
C54 O48 1.238 1_545 S
C54 O49 1.274 . S
C55 O52 1.247 . S
C55 O53 1.258 1_545 S
C56 O58 1.247 . S
C56 O60 1.258 . S
C57 O64 1.247 . S
C57 O65 1.258 . S
O58 C56 1.247 . S
O58 Zn59 2.028 . S
Zn59 O58 2.028 . S
Zn59 O63 2.035 . S
Zn59 O65 2.035 . S
Zn59 O66 2.028 1_455 S
O60 C56 1.258 . S
O60 Zn61 2.035 . S
Zn61 O60 2.035 . S
Zn61 O62 2.028 . S
Zn61 O64 2.028 . S
Zn61 O67 2.035 1_455 S
O62 Zn61 2.028 . S
O62 C68 1.247 . S
O63 Zn59 2.035 . S
O63 C68 1.258 . S
O64 C57 1.247 . S
O64 Zn61 2.028 . S
O65 C57 1.258 . S
O65 Zn59 2.035 . S
O66 Zn59 2.028 1_655 S
O66 C69 1.247 . S
O67 Zn61 2.035 1_655 S
O67 C69 1.258 . S
C68 O62 1.247 . S
C68 O63 1.258 . S
C69 O66 1.247 . S
C69 O67 1.258 . S
C70 O72 1.247 . S
C70 O74 1.258 . S
C71 O78 1.247 . S
C71 O79 1.258 . S
O72 C70 1.247 . S
O72 Zn73 2.028 . S
Zn73 O72 2.028 . S
Zn73 O77 2.035 . S
Zn73 O79 2.035 . S
Zn73 O80 2.028 1_545 S
O74 C70 1.258 . S
O74 Zn75 2.035 . S
Zn75 O74 2.035 . S
Zn75 O76 2.028 . S
Zn75 O78 2.028 . S
Zn75 O81 2.035 . S
O76 Zn75 2.028 . S
O76 C82 1.247 . S
O77 Zn73 2.035 . S
O77 C82 1.258 . S
O78 C71 1.247 . S
O78 Zn75 2.028 . S
O79 C71 1.258 . S
O79 Zn73 2.035 . S
O80 Zn73 2.028 1_565 S
O80 C83 1.247 . S
O81 Zn75 2.035 . S
O81 C83 1.258 1_545 S
C82 O76 1.247 . S
C82 O77 1.258 . S
C83 O80 1.247 . S
C83 O81 1.258 1_565 S
H84 C92 0.929 . S
H85 C94 0.930 . S
H86 C96 0.930 . S
H87 C99 0.929 . S
H88 C102 0.930 . S
H89 C104 0.960 . S
H90 C104 0.960 . S
H91 C104 0.960 . S
C92 H84 0.929 . S
C92 C93 1.377 . S
C92 C94 1.384 . S
C93 C92 1.377 . S
C93 C99 1.390 . S
C94 H85 0.930 . S
C94 C92 1.384 . S
C94 C95 1.372 . S
C95 C94 1.372 . S
C95 C96 1.400 . S
C95 C100 1.490 . S
C96 H86 0.930 . S
C96 C95 1.400 . S
C96 C99 1.386 . S
H97 C113 0.930 . S
H98 C114 0.931 . S
C99 H87 0.929 . S
C99 C93 1.390 . S
C99 C96 1.386 . S
C100 C95 1.490 . S
C100 C102 1.395 . S
C100 C103 1.403 . S
H101 C107 0.930 . S
C102 H88 0.930 . S
C102 C100 1.395 . S
C102 C105 1.403 . S
C103 C100 1.403 . S
C103 C104 1.524 . S
C103 C107 1.400 . S
C104 H89 0.960 . S
C104 H90 0.960 . S
C104 H91 0.960 . S
C104 C103 1.524 . S
C105 C102 1.403 . S
C105 C106 1.392 . S
C105 C109 1.495 . S
C106 C105 1.392 . S
C106 C107 1.385 . S
C106 C108 1.478 . S
C107 H101 0.930 . S
C107 C103 1.400 . S
C107 C106 1.385 . S
C108 C106 1.478 . S
C108 C110 1.381 . S
C108 C114 1.383 . S
C109 C105 1.495 . S
C109 H115 0.959 . S
C109 H116 0.961 . S
C109 H117 0.960 . S
C110 C108 1.381 . S
C110 C111 1.394 . S
C110 H118 0.930 . S
C111 C110 1.394 . S
C111 C112 1.383 . S
C111 H119 0.929 . S
C112 C111 1.383 . S
C112 C113 1.377 . S
C113 H97 0.930 . S
C113 C112 1.377 . S
C113 C114 1.379 . S
C114 H98 0.931 . S
C114 C108 1.383 . S
C114 C113 1.379 . S
H115 C109 0.959 . S
H116 C109 0.961 . S
H117 C109 0.960 . S
H118 C110 0.930 . S
H119 C111 0.929 . S
H120 C128 0.929 . S
H121 C130 0.930 . S
H122 C132 0.930 . S
H123 C135 0.929 . S
H124 C138 0.930 . S
H125 C140 0.960 . S
H126 C140 0.960 . S
H127 C140 0.960 . S
C128 H120 0.929 . S
C128 C129 1.377 . S
C128 C130 1.384 . S
C129 C128 1.377 . S
C129 C135 1.390 1_545 S
C130 H121 0.930 . S
C130 C128 1.384 . S
C130 C131 1.372 . S
C131 C130 1.372 . S
C131 C132 1.400 1_545 S
C131 C136 1.490 . S
C132 H122 0.930 . S
C132 C131 1.400 1_565 S
C132 C135 1.386 . S
H133 C149 0.930 . S
H134 C150 0.931 . S
C135 H123 0.929 . S
C135 C129 1.390 1_565 S
C135 C132 1.386 . S
C136 C131 1.490 . S
C136 C138 1.395 . S
C136 C139 1.403 1_545 S
H137 C143 0.930 . S
C138 H124 0.930 . S
C138 C136 1.395 . S
C138 C141 1.403 . S
C139 C136 1.403 1_565 S
C139 C140 1.524 . S
C139 C143 1.400 . S
C140 H125 0.960 . S
C140 H126 0.960 . S
C140 H127 0.960 . S
C140 C139 1.524 . S
C141 C138 1.403 . S
C141 C142 1.392 . S
C141 C145 1.495 . S
C142 C141 1.392 . S
C142 C143 1.385 1_545 S
C142 C144 1.478 . S
C143 H137 0.930 . S
C143 C139 1.400 . S
C143 C142 1.385 1_565 S
C144 C142 1.478 . S
C144 C146 1.381 . S
C144 C150 1.383 1_545 S
C145 C141 1.495 . S
C145 H151 0.959 . S
C145 H152 0.961 . S
C145 H153 0.960 . S
C146 C144 1.381 . S
C146 C147 1.394 . S
C146 H154 0.930 . S
C147 C146 1.394 . S
C147 C148 1.383 . S
C147 H155 0.929 . S
C148 C147 1.383 . S
C148 C149 1.377 1_545 S
C149 H133 0.930 . S
C149 C148 1.377 1_565 S
C149 C150 1.379 . S
C150 H134 0.931 . S
C150 C144 1.383 1_565 S
C150 C149 1.379 . S
H151 C145 0.959 . S
H152 C145 0.961 . S
H153 C145 0.960 . S
H154 C146 0.930 . S
H155 C147 0.929 . S
H156 C164 0.929 . S
H157 C166 0.930 . S
H158 C168 0.930 . S
H159 C171 0.929 . S
H160 C174 0.930 . S
H161 C176 0.960 . S
H162 C176 0.960 . S
H163 C176 0.960 . S
C164 H156 0.929 . S
C164 C165 1.377 . S
C164 C166 1.384 . S
C165 C164 1.377 . S
C165 C171 1.390 . S
C166 H157 0.930 . S
C166 C164 1.384 . S
C166 C167 1.372 . S
C167 C166 1.372 . S
C167 C168 1.400 . S
C167 C172 1.490 . S
C168 H158 0.930 . S
C168 C167 1.400 . S
C168 C171 1.386 . S
H169 C185 0.930 . S
H170 C186 0.931 . S
C171 H159 0.929 . S
C171 C165 1.390 . S
C171 C168 1.386 . S
C172 C167 1.490 . S
C172 C174 1.395 . S
C172 C175 1.403 . S
H173 C179 0.930 . S
C174 H160 0.930 . S
C174 C172 1.395 . S
C174 C177 1.403 . S
C175 C172 1.403 . S
C175 C176 1.524 . S
C175 C179 1.400 . S
C176 H161 0.960 . S
C176 H162 0.960 . S
C176 H163 0.960 . S
C176 C175 1.524 . S
C177 C174 1.403 . S
C177 C178 1.392 . S
C177 C181 1.495 . S
C178 C177 1.392 . S
C178 C179 1.385 . S
C178 C180 1.478 . S
C179 H173 0.930 . S
C179 C175 1.400 . S
C179 C178 1.385 . S
C180 C178 1.478 . S
C180 C182 1.381 . S
C180 C186 1.383 . S
C181 C177 1.495 . S
C181 H187 0.959 . S
C181 H188 0.961 . S
C181 H189 0.960 . S
C182 C180 1.381 . S
C182 C183 1.394 . S
C182 H190 0.930 . S
C183 C182 1.394 . S
C183 C184 1.383 . S
C183 H191 0.929 . S
C184 C183 1.383 . S
C184 C185 1.377 . S
C185 H169 0.930 . S
C185 C184 1.377 . S
C185 C186 1.379 . S
C186 H170 0.931 . S
C186 C180 1.383 . S
C186 C185 1.379 . S
H187 C181 0.959 . S
H188 C181 0.961 . S
H189 C181 0.960 . S
H190 C182 0.930 . S
H191 C183 0.929 . S
H192 C200 0.929 . S
H193 C202 0.930 . S
H194 C204 0.930 . S
H195 C207 0.929 . S
H196 C210 0.930 . S
H197 C212 0.960 . S
H198 C212 0.960 . S
H199 C212 0.960 . S
C200 H192 0.929 . S
C200 C201 1.363 1_565 S
C200 C202 1.384 . S
C201 C200 1.363 1_545 S
C201 C207 1.396 . S
C202 H193 0.930 . S
C202 C200 1.384 . S
C202 C203 1.372 . S
C203 C202 1.372 . S
C203 C204 1.400 1_565 S
C203 C208 1.490 . S
C204 H194 0.930 . S
C204 C203 1.400 1_545 S
C204 C207 1.386 . S
H205 C221 0.930 . S
H206 C222 0.931 . S
C207 H195 0.929 . S
C207 C201 1.396 . S
C207 C204 1.386 . S
C208 C203 1.490 . S
C208 C210 1.395 . S
C208 C211 1.403 1_565 S
H209 C215 0.930 . S
C210 H196 0.930 . S
C210 C208 1.395 . S
C210 C213 1.403 . S
C211 C208 1.403 1_545 S
C211 C212 1.524 . S
C211 C215 1.400 . S
C212 H197 0.960 . S
C212 H198 0.960 . S
C212 H199 0.960 . S
C212 C211 1.524 . S
C213 C210 1.403 . S
C213 C214 1.392 . S
C213 C217 1.495 . S
C214 C213 1.392 . S
C214 C215 1.385 1_565 S
C214 C216 1.478 . S
C215 H209 0.930 . S
C215 C211 1.400 . S
C215 C214 1.385 1_545 S
C216 C214 1.478 . S
C216 C218 1.381 . S
C216 C222 1.383 1_565 S
C217 C213 1.495 . S
C217 H223 0.959 . S
C217 H224 0.961 . S
C217 H225 0.960 . S
C218 C216 1.381 . S
C218 C219 1.394 . S
C218 H226 0.930 . S
C219 C218 1.394 . S
C219 C220 1.383 . S
C219 H227 0.929 . S
C220 C219 1.383 . S
C220 C221 1.377 1_565 S
C221 H205 0.930 . S
C221 C220 1.377 1_545 S
C221 C222 1.379 . S
C222 H206 0.931 . S
C222 C216 1.383 1_545 S
C222 C221 1.379 . S
H223 C217 0.959 . S
H224 C217 0.961 . S
H225 C217 0.960 . S
H226 C218 0.930 . S
H227 C219 0.929 . S
H228 C236 0.929 . S
H229 C238 0.930 . S
H230 C240 0.930 . S
H231 C243 0.929 . S
H232 C246 0.930 . S
H233 C248 0.960 . S
H234 C248 0.960 . S
H235 C248 0.960 . S
C236 H228 0.929 . S
C236 C237 1.377 . S
C236 C238 1.384 . S
C237 C236 1.377 . S
C237 C243 1.390 . S
C238 H229 0.930 . S
C238 C236 1.384 . S
C238 C239 1.372 . S
C239 C238 1.372 . S
C239 C240 1.400 . S
C239 C244 1.490 . S
C240 H230 0.930 . S
C240 C239 1.400 . S
C240 C243 1.386 . S
H241 C257 0.930 . S
H242 C258 0.931 . S
C243 H231 0.929 . S
C243 C237 1.390 . S
C243 C240 1.386 . S
C244 C239 1.490 . S
C244 C246 1.395 . S
C244 C247 1.403 . S
H245 C251 0.930 . S
C246 H232 0.930 . S
C246 C244 1.395 . S
C246 C249 1.403 . S
C247 C244 1.403 . S
C247 C248 1.524 . S
C247 C251 1.400 . S
C248 H233 0.960 . S
C248 H234 0.960 . S
C248 H235 0.960 . S
C248 C247 1.524 . S
C249 C246 1.403 . S
C249 C250 1.392 . S
C249 C253 1.495 . S
C250 C249 1.392 . S
C250 C251 1.385 . S
C250 C252 1.478 . S
C251 H245 0.930 . S
C251 C247 1.400 . S
C251 C250 1.385 . S
C252 C250 1.478 . S
C252 C254 1.381 . S
C252 C258 1.383 . S
C253 C249 1.495 . S
C253 H259 0.959 . S
C253 H260 0.961 . S
C253 H261 0.960 . S
C254 C252 1.381 . S
C254 C255 1.394 . S
C254 H262 0.930 . S
C255 C254 1.394 . S
C255 C256 1.383 . S
C255 H263 0.929 . S
C256 C255 1.383 . S
C256 C257 1.377 . S
C257 H241 0.930 . S
C257 C256 1.377 . S
C257 C258 1.379 . S
C258 H242 0.931 . S
C258 C252 1.383 . S
C258 C257 1.379 . S
H259 C253 0.959 . S
H260 C253 0.961 . S
H261 C253 0.960 . S
H262 C254 0.930 . S
H263 C255 0.929 . S
H264 C272 0.929 . S
H265 C274 0.930 . S
H266 C276 0.930 . S
H267 C279 0.929 . S
H268 C282 0.930 . S
H269 C284 0.960 . S
H270 C284 0.960 . S
H271 C284 0.960 . S
C272 H264 0.929 . S
C272 C273 1.377 . S
C272 C274 1.384 . S
C273 C272 1.377 . S
C273 C279 1.390 . S
C274 H265 0.930 . S
C274 C272 1.384 . S
C274 C275 1.372 . S
C275 C274 1.372 . S
C275 C276 1.400 . S
C275 C280 1.490 . S
C276 H266 0.930 . S
C276 C275 1.400 . S
C276 C279 1.386 . S
H277 C293 0.930 . S
H278 C294 0.931 . S
C279 H267 0.929 . S
C279 C273 1.390 . S
C279 C276 1.386 . S
C280 C275 1.490 . S
C280 C282 1.395 . S
C280 C283 1.403 . S
H281 C287 0.930 . S
C282 H268 0.930 . S
C282 C280 1.395 . S
C282 C285 1.403 . S
C283 C280 1.403 . S
C283 C284 1.524 . S
C283 C287 1.400 . S
C284 H269 0.960 . S
C284 H270 0.960 . S
C284 H271 0.960 . S
C284 C283 1.524 . S
C285 C282 1.403 . S
C285 C286 1.392 . S
C285 C289 1.495 . S
C286 C285 1.392 . S
C286 C287 1.385 . S
C286 C288 1.478 . S
C287 H281 0.930 . S
C287 C283 1.400 . S
C287 C286 1.385 . S
C288 C286 1.478 . S
C288 C290 1.381 . S
C288 C294 1.383 . S
C289 C285 1.495 . S
C289 H295 0.959 . S
C289 H296 0.961 . S
C289 H297 0.960 . S
C290 C288 1.381 . S
C290 C291 1.394 . S
C290 H298 0.930 . S
C291 C290 1.394 . S
C291 C292 1.383 . S
C291 H299 0.929 . S
C292 C291 1.383 . S
C292 C293 1.377 . S
C293 H277 0.930 . S
C293 C292 1.377 . S
C293 C294 1.379 . S
C294 H278 0.931 . S
C294 C288 1.383 . S
C294 C293 1.379 . S
H295 C289 0.959 . S
H296 C289 0.961 . S
H297 C289 0.960 . S
H298 C290 0.930 . S
H299 C291 0.929 . S
H300 C308 0.929 . S
H301 C310 0.930 . S
H302 C312 0.930 . S
H303 C315 0.929 . S
H304 C318 0.930 . S
H305 C320 0.960 . S
H306 C320 0.960 1_565 S
H307 C320 0.960 . S
C308 H300 0.929 . S
C308 C309 1.377 . S
C308 C310 1.384 . S
C309 C308 1.377 . S
C309 C315 1.390 . S
C310 H301 0.930 . S
C310 C308 1.384 . S
C310 C311 1.372 . S
C311 C310 1.372 . S
C311 C312 1.400 . S
C311 C316 1.490 . S
C312 H302 0.930 . S
C312 C311 1.400 . S
C312 C315 1.386 . S
H313 C329 0.930 . S
H314 C330 0.931 . S
C315 H303 0.929 . S
C315 C309 1.390 . S
C315 C312 1.386 . S
C316 C311 1.490 . S
C316 C318 1.395 . S
C316 C319 1.403 . S
H317 C323 0.930 . S
C318 H304 0.930 . S
C318 C316 1.395 . S
C318 C321 1.403 . S
C319 C316 1.403 . S
C319 C320 1.524 . S
C319 C323 1.400 . S
C320 H305 0.960 . S
C320 H306 0.960 1_545 S
C320 H307 0.960 . S
C320 C319 1.524 . S
C321 C318 1.403 . S
C321 C322 1.392 . S
C321 C325 1.495 . S
C322 C321 1.392 . S
C322 C323 1.385 . S
C322 C324 1.478 . S
C323 H317 0.930 . S
C323 C319 1.400 . S
C323 C322 1.385 . S
C324 C322 1.478 . S
C324 C326 1.381 . S
C324 C330 1.383 . S
C325 C321 1.495 . S
C325 H331 0.959 . S
C325 H332 0.961 . S
C325 H333 0.960 . S
C326 C324 1.381 . S
C326 C327 1.394 . S
C326 H334 0.930 . S
C327 C326 1.394 . S
C327 C328 1.383 . S
C327 H335 0.929 . S
C328 C327 1.383 . S
C328 C329 1.377 . S
C329 H313 0.930 . S
C329 C328 1.377 . S
C329 C330 1.379 . S
C330 H314 0.931 . S
C330 C324 1.383 . S
C330 C329 1.379 . S
H331 C325 0.959 . S
H332 C325 0.961 . S
H333 C325 0.960 . S
H334 C326 0.930 . S
H335 C327 0.929 . S
H336 C344 0.929 . S
H337 C346 0.930 . S
H338 C348 0.930 . S
H339 C351 0.929 . S
H340 C354 0.930 . S
H341 C356 0.960 . S
H342 C356 0.960 1_455 S
H343 C356 0.960 . S
C344 H336 0.929 . S
C344 C345 1.377 1_545 S
C344 C346 1.384 . S
C345 C344 1.377 1_565 S
C345 C351 1.390 1_455 S
C346 H337 0.930 . S
C346 C344 1.384 . S
C346 C347 1.372 1_545 S
C347 C346 1.372 1_565 S
C347 C348 1.400 1_455 S
C347 C352 1.490 . S
C348 H338 0.930 . S
C348 C347 1.400 1_655 S
C348 C351 1.386 . S
H349 C365 0.930 . S
H350 C366 0.931 . S
C351 H339 0.929 . S
C351 C345 1.390 1_655 S
C351 C348 1.386 . S
C352 C347 1.490 . S
C352 C354 1.395 . S
C352 C355 1.403 1_565 S
H353 C359 0.930 1_655 S
C354 H340 0.930 . S
C354 C352 1.395 . S
C354 C357 1.403 . S
C355 C352 1.403 1_545 S
C355 C356 1.524 1_455 S
C355 C359 1.400 . S
C356 H341 0.960 . S
C356 H342 0.960 1_655 S
C356 H343 0.960 . S
C356 C355 1.524 1_655 S
C357 C354 1.403 . S
C357 C358 1.392 . S
C357 C361 1.495 . S
C358 C357 1.392 . S
C358 C359 1.385 1_565 S
C358 C360 1.478 . S
C359 H353 0.930 1_455 S
C359 C355 1.400 . S
C359 C358 1.385 1_545 S
C360 C358 1.478 . S
C360 C362 1.381 1_565 S
C360 C366 1.383 1_455 S
C361 C357 1.495 . S
C361 H367 0.959 . S
C361 H368 0.961 . S
C361 H369 0.960 . S
C362 C360 1.381 1_545 S
C362 C363 1.394 . S
C362 H370 0.930 . S
C363 C362 1.394 . S
C363 C364 1.383 1_545 S
C363 H371 0.929 . S
C364 C363 1.383 1_565 S
C364 C365 1.377 1_455 S
C365 H349 0.930 . S
C365 C364 1.377 1_655 S
C365 C366 1.379 . S
C366 H350 0.931 . S
C366 C360 1.383 1_655 S
C366 C365 1.379 . S
H367 C361 0.959 . S
H368 C361 0.961 . S
H369 C361 0.960 . S
H370 C362 0.930 . S
H371 C363 0.929 . S
H372 C380 0.929 . S
H373 C382 0.930 . S
H374 C384 0.930 . S
H375 C387 0.929 . S
H376 C390 0.930 . S
H377 C392 0.960 . S
H378 C392 0.960 1_455 S
H379 C392 0.960 . S
C380 H372 0.929 . S
C380 C381 1.377 . S
C380 C382 1.384 . S
C381 C380 1.377 . S
C381 C387 1.390 1_455 S
C382 H373 0.930 . S
C382 C380 1.384 . S
C382 C383 1.372 . S
C383 C382 1.372 . S
C383 C384 1.400 1_455 S
C383 C388 1.490 . S
C384 H374 0.930 . S
C384 C383 1.400 1_655 S
C384 C387 1.386 . S
H385 C401 0.930 . S
H386 C402 0.931 . S
C387 H375 0.929 . S
C387 C381 1.390 1_655 S
C387 C384 1.386 . S
C388 C383 1.490 . S
C388 C390 1.395 . S
C388 C391 1.403 . S
H389 C395 0.930 . S
C390 H376 0.930 . S
C390 C388 1.395 . S
C390 C393 1.403 . S
C391 C388 1.403 . S
C391 C392 1.524 1_445 S
C391 C395 1.400 . S
C392 H377 0.960 . S
C392 H378 0.960 1_655 S
C392 H379 0.960 . S
C392 C391 1.524 1_665 S
C393 C390 1.403 . S
C393 C394 1.392 . S
C393 C397 1.495 . S
C394 C393 1.392 . S
C394 C395 1.385 . S
C394 C396 1.478 . S
C395 H389 0.930 . S
C395 C391 1.400 . S
C395 C394 1.385 . S
C396 C394 1.478 . S
C396 C398 1.381 . S
C396 C402 1.383 1_455 S
C397 C393 1.495 . S
C397 H403 0.959 . S
C397 H404 0.961 . S
C397 H405 0.960 . S
C398 C396 1.381 . S
C398 C399 1.394 . S
C398 H406 0.930 . S
C399 C398 1.394 . S
C399 C400 1.383 . S
C399 H407 0.929 . S
C400 C399 1.383 . S
C400 C401 1.377 1_455 S
C401 H385 0.930 . S
C401 C400 1.377 1_655 S
C401 C402 1.379 . S
C402 H386 0.931 . S
C402 C396 1.383 1_655 S
C402 C401 1.379 . S
H403 C397 0.959 . S
H404 C397 0.961 . S
H405 C397 0.960 . S
H406 C398 0.930 . S
H407 C399 0.929 . S
H408 C416 0.929 . S
H409 C418 0.930 . S
H410 C420 0.930 . S
H411 C423 0.929 . S
H412 C426 0.930 . S
H413 C428 0.960 . S
H414 C428 0.960 . S
H415 C428 0.960 . S
C416 H408 0.929 . S
C416 C417 1.377 . S
C416 C418 1.384 . S
C417 C416 1.377 . S
C417 C423 1.390 . S
C418 H409 0.930 . S
C418 C416 1.384 . S
C418 C419 1.372 . S
C419 C418 1.372 . S
C419 C420 1.400 . S
C419 C424 1.490 . S
C420 H410 0.930 . S
C420 C419 1.400 . S
C420 C423 1.386 . S
H421 C437 0.930 . S
H422 C438 0.931 . S
C423 H411 0.929 . S
C423 C417 1.390 . S
C423 C420 1.386 . S
C424 C419 1.490 . S
C424 C426 1.395 . S
C424 C427 1.403 . S
H425 C431 0.930 . S
C426 H412 0.930 . S
C426 C424 1.395 . S
C426 C429 1.403 1_554 S
C427 C424 1.403 . S
C427 C428 1.524 . S
C427 C431 1.400 1_554 S
C428 H413 0.960 . S
C428 H414 0.960 . S
C428 H415 0.960 . S
C428 C427 1.524 . S
C429 C426 1.403 1_556 S
C429 C430 1.392 . S
C429 C433 1.495 1_455 S
C430 C429 1.392 . S
C430 C431 1.385 . S
C430 C432 1.478 . S
C431 H425 0.930 . S
C431 C427 1.400 1_556 S
C431 C430 1.385 . S
C432 C430 1.478 . S
C432 C434 1.381 . S
C432 C438 1.383 . S
C433 C429 1.495 1_655 S
C433 H439 0.959 . S
C433 H440 0.961 . S
C433 H441 0.960 . S
C434 C432 1.381 . S
C434 C435 1.394 . S
C434 H442 0.930 1_455 S
C435 C434 1.394 . S
C435 C436 1.383 . S
C435 H443 0.929 1_455 S
C436 C435 1.383 . S
C436 C437 1.377 . S
C437 H421 0.930 . S
C437 C436 1.377 . S
C437 C438 1.379 . S
C438 H422 0.931 . S
C438 C432 1.383 . S
C438 C437 1.379 . S
H439 C433 0.959 . S
H440 C433 0.961 . S
H441 C433 0.960 . S
H442 C434 0.930 1_655 S
H443 C435 0.929 1_655 S
H444 C452 0.929 . S
H445 C454 0.930 . S
H446 C456 0.930 . S
H447 C459 0.929 . S
H448 C462 0.930 . S
H449 C464 0.960 . S
H450 C464 0.960 1_455 S
H451 C464 0.960 . S
C452 H444 0.929 . S
C452 C453 1.377 . S
C452 C454 1.384 . S
C453 C452 1.377 . S
C453 C459 1.390 . S
C454 H445 0.930 . S
C454 C452 1.384 . S
C454 C455 1.372 . S
C455 C454 1.372 . S
C455 C456 1.400 . S
C455 C460 1.490 . S
C456 H446 0.930 . S
C456 C455 1.400 . S
C456 C459 1.386 . S
H457 C473 0.930 1_655 S
H458 C474 0.931 . S
C459 H447 0.929 . S
C459 C453 1.390 . S
C459 C456 1.386 . S
C460 C455 1.490 . S
C460 C462 1.395 . S
C460 C463 1.400 1_545 S
H461 C467 0.929 . S
C462 H448 0.930 . S
C462 C460 1.395 . S
C462 C465 1.403 . S
C463 C460 1.400 1_565 S
C463 C464 1.526 1_455 S
C463 C467 1.400 . S
C464 H449 0.960 . S
C464 H450 0.960 1_655 S
C464 H451 0.960 . S
C464 C463 1.526 1_655 S
C465 C462 1.403 . S
C465 C466 1.392 . S
C465 C469 1.495 . S
C466 C465 1.392 . S
C466 C467 1.386 1_545 S
C466 C468 1.478 . S
C467 H461 0.929 . S
C467 C463 1.400 . S
C467 C466 1.386 1_565 S
C468 C466 1.478 . S
C468 C470 1.381 . S
C468 C474 1.383 . S
C469 C465 1.495 . S
C469 H475 0.959 . S
C469 H476 0.961 . S
C469 H477 0.960 . S
C470 C468 1.381 . S
C470 C471 1.394 . S
C470 H478 0.930 . S
C471 C470 1.394 . S
C471 C472 1.383 . S
C471 H479 0.929 . S
C472 C471 1.383 . S
C472 C473 1.377 . S
C473 H457 0.930 1_455 S
C473 C472 1.377 . S
C473 C474 1.379 . S
C474 H458 0.931 . S
C474 C468 1.383 . S
C474 C473 1.379 . S
H475 C469 0.959 . S
H476 C469 0.961 . S
H477 C469 0.960 . S
H478 C470 0.930 . S
H479 C471 0.929 . S
H480 C488 0.929 . S
H481 C490 0.930 . S
H482 C492 0.930 . S
H483 C495 0.929 . S
H484 C498 0.930 . S
H485 C500 0.960 . S
H486 C500 0.960 . S
H487 C500 0.960 . S
C488 H480 0.929 . S
C488 C489 1.377 . S
C488 C490 1.384 . S
C489 C488 1.377 . S
C489 C495 1.390 1_445 S
C490 H481 0.930 . S
C490 C488 1.384 . S
C490 C491 1.372 . S
C491 C490 1.372 . S
C491 C492 1.400 1_445 S
C491 C496 1.490 . S
C492 H482 0.930 . S
C492 C491 1.400 1_665 S
C492 C495 1.386 . S
H493 C509 0.930 . S
H494 C510 0.931 . S
C495 H483 0.929 . S
C495 C489 1.390 1_665 S
C495 C492 1.386 . S
C496 C491 1.490 . S
C496 C498 1.395 . S
C496 C499 1.403 1_445 S
H497 C503 0.930 . S
C498 H484 0.930 . S
C498 C496 1.395 . S
C498 C501 1.403 . S
C499 C496 1.403 1_665 S
C499 C500 1.524 . S
C499 C503 1.400 . S
C500 H485 0.960 . S
C500 H486 0.960 . S
C500 H487 0.960 . S
C500 C499 1.524 . S
C501 C498 1.403 . S
C501 C502 1.392 . S
C501 C505 1.495 . S
C502 C501 1.392 . S
C502 C503 1.385 1_445 S
C502 C504 1.478 . S
C503 H497 0.930 . S
C503 C499 1.400 . S
C503 C502 1.385 1_665 S
C504 C502 1.478 . S
C504 C506 1.381 . S
C504 C510 1.383 1_455 S
C505 C501 1.495 . S
C505 H511 0.959 . S
C505 H512 0.961 . S
C505 H513 0.960 . S
C506 C504 1.381 . S
C506 C507 1.394 . S
C506 H514 0.930 . S
C507 C506 1.394 . S
C507 C508 1.383 . S
C507 H515 0.929 . S
C508 C507 1.383 . S
C508 C509 1.377 1_455 S
C509 H493 0.930 . S
C509 C508 1.377 1_655 S
C509 C510 1.379 . S
C510 H494 0.931 . S
C510 C504 1.383 1_655 S
C510 C509 1.379 . S
H511 C505 0.959 . S
H512 C505 0.961 . S
H513 C505 0.960 . S
H514 C506 0.930 . S
H515 C507 0.929 . S
C93 C0 1.499 1_565 S
C112 C1 1.499 . S
C129 C14 1.499 . S
C148 C15 1.499 . S
C165 C41 1.497 . S
C184 C40 1.490 . S
C201 C54 1.497 . S
C220 C55 1.492 1_565 S
C237 C68 1.498 . S
C256 C69 1.498 1_565 S
C273 C82 1.497 . S
C292 C83 1.491 . S
C309 C71 1.505 . S
C328 C13 1.498 . S
C345 C43 1.506 . S
C364 C26 1.500 1_565 S
C381 C28 1.505 . S
C400 C57 1.507 . S
C417 C12 1.506 . S
C436 C56 1.507 . S
C453 C70 1.507 . S
C472 C27 1.503 . S
C489 C42 1.506 . S
C508 C29 1.509 . S
