# Generated by pormake.
# Topology wgw, (6)-cn, num edge types: 1
# Building blocks:
#     Node 0, Type 0, BuildingBlock: OJICUG_clean_sbu_0, # of connection points: 6
#     Node 1, Type 0, BuildingBlock: OJICUG_clean_sbu_0, # of connection points: 6
#     Node 2, Type 0, BuildingBlock: OJICUG_clean_sbu_0, # of connection points: 6
#     Node 3, Type 0, BuildingBlock: OJICUG_clean_sbu_0, # of connection points: 6
#     Node 4, Type 0, BuildingBlock: OJICUG_clean_sbu_0, # of connection points: 6
#     Node 5, Type 0, BuildingBlock: OJICUG_clean_sbu_0, # of connection points: 6
#     Node 6, Type 0, BuildingBlock: OJICUG_clean_sbu_0, # of connection points: 6
#     Node 7, Type 0, BuildingBlock: OJICUG_clean_sbu_0, # of connection points: 6
#     Edge 8, Type (0, 0), BuildingBlock: XIVTED_clean_linker_0, # of connection points: 2
#     Edge 9, Type (0, 0), BuildingBlock: XIVTED_clean_linker_0, # of connection points: 2
#     Edge 10, Type (0, 0), BuildingBlock: XIVTED_clean_linker_0, # of connection points: 2
#     Edge 11, Type (0, 0), BuildingBlock: XIVTED_clean_linker_0, # of connection points: 2
#     Edge 12, Type (0, 0), BuildingBlock: XIVTED_clean_linker_0, # of connection points: 2
#     Edge 13, Type (0, 0), BuildingBlock: XIVTED_clean_linker_0, # of connection points: 2
#     Edge 14, Type (0, 0), BuildingBlock: XIVTED_clean_linker_0, # of connection points: 2
#     Edge 15, Type (0, 0), BuildingBlock: XIVTED_clean_linker_0, # of connection points: 2
#     Edge 16, Type (0, 0), BuildingBlock: XIVTED_clean_linker_0, # of connection points: 2
#     Edge 17, Type (0, 0), BuildingBlock: XIVTED_clean_linker_0, # of connection points: 2
#     Edge 18, Type (0, 0), BuildingBlock: XIVTED_clean_linker_0, # of connection points: 2
#     Edge 19, Type (0, 0), BuildingBlock: XIVTED_clean_linker_0, # of connection points: 2
#     Edge 20, Type (0, 0), BuildingBlock: XIVTED_clean_linker_0, # of connection points: 2
#     Edge 21, Type (0, 0), BuildingBlock: XIVTED_clean_linker_0, # of connection points: 2
#     Edge 22, Type (0, 0), BuildingBlock: XIVTED_clean_linker_0, # of connection points: 2
#     Edge 23, Type (0, 0), BuildingBlock: XIVTED_clean_linker_0, # of connection points: 2
#     Edge 24, Type (0, 0), BuildingBlock: XIVTED_clean_linker_0, # of connection points: 2
#     Edge 25, Type (0, 0), BuildingBlock: XIVTED_clean_linker_0, # of connection points: 2
#     Edge 26, Type (0, 0), BuildingBlock: XIVTED_clean_linker_0, # of connection points: 2
#     Edge 27, Type (0, 0), BuildingBlock: XIVTED_clean_linker_0, # of connection points: 2
#     Edge 28, Type (0, 0), BuildingBlock: XIVTED_clean_linker_0, # of connection points: 2
#     Edge 29, Type (0, 0), BuildingBlock: XIVTED_clean_linker_0, # of connection points: 2
#     Edge 30, Type (0, 0), BuildingBlock: XIVTED_clean_linker_0, # of connection points: 2
#     Edge 31, Type (0, 0), BuildingBlock: XIVTED_clean_linker_0, # of connection points: 2
# Relax obj value: 0.221
# Max RMSD: 0.288
# Mean RMSD: 0.288
data_MOF--net-wgw--node1-OJICUG_clean_sbu_0--edge1-XIVTED_clean_linker_0
_symmetry_space_group_name_H-M    P1
_symmetry_Int_Tables_number       1
_symmetry_cell_setting            triclinic
loop_
_symmetry_equiv_pos_as_xyz
'x, y, z'
_cell_length_a     29.147428
_cell_length_b     29.172211
_cell_length_c     43.401174
_cell_angle_alpha  89.965116
_cell_angle_beta   89.995108
_cell_angle_gamma 89.876927
loop_
_atom_site_label
_atom_site_type_symbol
_atom_site_fract_x
_atom_site_fract_y
_atom_site_fract_z
_atom_type_partial_charge
Sc0 Sc 0.10936 0.4699 0.14793 0.0
Sc1 Sc 0.06388 0.43372 0.21882 0.0
Sc2 Sc 0.02474 0.38444 0.1499 0.0
O3 O 0.0662 0.42914 0.17217 0.0
C4 C 0.02855 0.46235 0.09885 0.0
C5 C 0.06522 0.53831 0.19583 0.0
C6 C 0.95797 0.42795 0.1991 0.0
C7 C 0.16865 0.45271 0.20928 0.0
C8 C 0.12471 0.369 0.12079 0.0
C9 C 0.04827 0.32819 0.21165 0.0
O10 O 0.06442 0.48073 0.10956 0.0
O11 O 0.06102 0.5068 0.2159 0.0
O12 O 0.96407 0.41226 0.17199 0.0
O13 O 0.16238 0.46738 0.1821 0.0
O14 O 0.0841 0.35535 0.12712 0.0
O15 O 0.06508 0.3612 0.22686 0.0
O16 O 0.139 0.40952 0.12662 0.0
O17 O 0.1368 0.43527 0.22529 0.0
O18 O 0.03168 0.33297 0.18482 0.0
O19 O 0.08047 0.53108 0.16871 0.0
O20 O 0.01007 0.4278 0.11129 0.0
O21 O 0.99055 0.434 0.21812 0.0
Sc22 Sc 0.10491 0.00714 0.66714 0.0
Sc23 Sc 0.01973 0.00418 0.72473 0.0
Sc24 Sc 0.01531 0.08888 0.66694 0.0
O25 O 0.04673 0.03347 0.68627 0.0
C26 C 0.12106 0.11544 0.66203 0.0
C27 C 0.12626 -0.0008 0.73899 0.0
C28 C 0.00365 0.10918 0.73891 0.0
C29 C 0.04925 0.91709 0.68521 0.0
C30 C 0.04792 0.03348 0.6073 0.0
C31 C 0.93066 0.02631 0.68421 0.0
O32 O 0.13534 0.07417 0.6621 0.0
O33 O 0.0848 -0.00235 0.74777 0.0
O34 O 0.00305 0.12095 0.71075 0.0
O35 O 0.08104 0.93679 0.67013 0.0
O36 O 0.02377 0.0636 0.62087 0.0
O37 O 0.95188 0.00624 0.70593 0.0
O38 O 0.07782 0.0093 0.62111 0.0
O39 O 0.02494 0.93736 0.70527 0.0
O40 O 0.94853 0.05727 0.66752 0.0
O41 O 0.13836 0.00315 0.71102 0.0
O42 O 0.07883 0.12604 0.66422 0.0
O43 O 0.01094 0.06855 0.74807 0.0
Sc44 Sc 0.46532 0.11678 0.14358 0.0
Sc45 Sc 0.42473 0.07623 0.21413 0.0
Sc46 Sc 0.38103 0.03125 0.14561 0.0
O47 O 0.42351 0.07485 0.16765 0.0
C48 C 0.36382 0.13106 0.11667 0.0
C49 C 0.44573 0.1789 0.20316 0.0
C50 C 0.32176 0.05136 0.20632 0.0
C51 C 0.53089 0.077 0.19389 0.0
C52 C 0.45896 0.03629 0.09465 0.0
C53 C 0.42681 0.96924 0.19614 0.0
O54 O 0.40467 0.14542 0.1219 0.0
O55 O 0.42232 0.14962 0.21786 0.0
O56 O 0.32928 0.03252 0.18056 0.0
O57 O 0.52497 0.08742 0.16562 0.0
O58 O 0.4241 0.01816 0.10678 0.0
O59 O 0.42842 0.00262 0.21506 0.0
O60 O 0.47729 0.07196 0.10549 0.0
O61 O 0.49847 0.07651 0.2136 0.0
O62 O 0.41284 0.97337 0.16838 0.0
O63 O 0.46442 0.17012 0.17748 0.0
O64 O 0.35007 0.09045 0.1233 0.0
O65 O 0.35153 0.07525 0.22016 0.0
Sc66 Sc 0.47014 0.37915 0.66357 0.0
Sc67 Sc 0.47282 0.46344 0.72208 0.0
Sc68 Sc 0.3863 0.4662 0.66537 0.0
O69 O 0.44313 0.43623 0.6837 0.0
C70 C 0.44229 0.43906 0.60497 0.0
C71 C 0.55983 0.43567 0.68167 0.0
C72 C 0.44591 0.55294 0.68389 0.0
C73 C 0.48106 0.35648 0.7351 0.0
C74 C 0.36254 0.36001 0.65863 0.0
C75 C 0.36671 0.47345 0.73755 0.0
O76 O 0.46603 0.40788 0.6179 0.0
O77 O 0.53981 0.45953 0.70211 0.0
O78 O 0.41408 0.53445 0.66831 0.0
O79 O 0.4765 0.34489 0.70707 0.0
O80 O 0.35138 0.40198 0.66063 0.0
O81 O 0.40831 0.47129 0.74623 0.0
O82 O 0.40404 0.34648 0.6589 0.0
O83 O 0.48137 0.3978 0.74431 0.0
O84 O 0.35436 0.47204 0.70953 0.0
O85 O 0.53984 0.4044 0.66632 0.0
O86 O 0.41239 0.46265 0.61923 0.0
O87 O 0.4692 0.53162 0.70402 0.0
Sc88 Sc 0.52488 0.62033 0.34501 0.0
Sc89 Sc 0.55575 0.5731 0.27415 0.0
Sc90 Sc 0.60849 0.53397 0.34224 0.0
O91 O 0.56363 0.57595 0.32052 0.0
C92 C 0.62557 0.63317 0.37198 0.0
C93 C 0.54749 0.67769 0.28326 0.0
C94 C 0.66231 0.55055 0.27957 0.0
C95 C 0.45299 0.5844 0.29792 0.0
C96 C 0.53101 0.53838 0.39338 0.0
C97 C 0.55485 0.46895 0.29554 0.0
O98 O 0.58597 0.64898 0.36517 0.0
O99 O 0.56609 0.64531 0.26816 0.0
O100 O 0.66059 0.54256 0.30822 0.0
O101 O 0.46255 0.59225 0.32599 0.0
O102 O 0.56369 0.51814 0.37981 0.0
O103 O 0.54257 0.50128 0.27768 0.0
O104 O 0.5148 0.57622 0.38402 0.0
O105 O 0.48312 0.58388 0.2768 0.0
O106 O 0.58108 0.4743 0.31881 0.0
O107 O 0.52862 0.67181 0.30942 0.0
O108 O 0.63786 0.59189 0.36645 0.0
O109 O 0.62712 0.56081 0.26381 0.0
Sc110 Sc 0.88735 0.50268 0.8223 0.0
Sc111 Sc 0.97224 0.50489 0.76453 0.0
Sc112 Sc 0.9709 0.59014 0.82186 0.0
O113 O 0.94343 0.53265 0.80288 0.0
C114 C 0.86267 0.60885 0.82604 0.0
C115 C 0.86713 0.49052 0.7502 0.0
C116 C 0.98179 0.61132 0.75029 0.0
C117 C 0.94738 0.41633 0.805 0.0
C118 C 0.94272 0.53497 0.88204 0.0
C119 C 0.0598 0.53175 0.80451 0.0
O120 O 0.85096 0.56699 0.82376 0.0
O121 O 0.90752 0.49897 0.74086 0.0
O122 O 0.97668 0.62368 0.77809 0.0
O123 O 0.91819 0.43557 0.82249 0.0
O124 O 0.9679 0.56348 0.86787 0.0
O125 O 0.03909 0.50742 0.78466 0.0
O126 O 0.91177 0.51168 0.86871 0.0
O127 O 0.96716 0.43673 0.78282 0.0
O128 O 0.04065 0.56446 0.81908 0.0
O129 O 0.85587 0.48904 0.77845 0.0
O130 O 0.90435 0.62181 0.82658 0.0
O131 O 0.98223 0.56979 0.74165 0.0
Sc132 Sc 0.87844 0.97058 0.3424 0.0
Sc133 Sc 0.92609 0.94063 0.27153 0.0
Sc134 Sc 0.96268 0.8849 0.33921 0.0
O135 O 0.92223 0.93143 0.31777 0.0
C136 C 0.95944 0.96086 0.39122 0.0
C137 C 0.91736 0.04279 0.29665 0.0
C138 C 0.03001 0.93788 0.29353 0.0
C139 C 0.82156 0.9518 0.27993 0.0
C140 C 0.86265 0.86987 0.36843 0.0
C141 C 0.94479 0.83349 0.27583 0.0
O142 O 0.92211 0.97809 0.38176 0.0
O143 O 0.91744 0.01332 0.27514 0.0
O144 O 0.02352 0.91109 0.31639 0.0
O145 O 0.82761 0.96957 0.30639 0.0
O146 O 0.90372 0.85673 0.36299 0.0
O147 O 0.93629 0.8694 0.26039 0.0
O148 O 0.84775 0.90983 0.36167 0.0
O149 O 0.85363 0.93257 0.26486 0.0
O150 O 0.95253 0.83406 0.30454 0.0
O151 O 0.9086 0.03262 0.32451 0.0
O152 O 0.97938 0.92822 0.37741 0.0
O153 O -0.00174 0.95159 0.27566 0.0
Sc154 Sc 0.51611 0.88147 0.82508 0.0
Sc155 Sc 0.5196 0.96344 0.76562 0.0
Sc156 Sc 0.60473 0.96356 0.82291 0.0
O157 O 0.54688 0.9361 0.80454 0.0
C158 C 0.54985 0.93902 0.88354 0.0
C159 C 0.43114 0.94264 0.80734 0.0
C160 C 0.54738 0.05214 0.80366 0.0
C161 C 0.50237 0.85887 0.75345 0.0
C162 C 0.62174 0.85521 0.82875 0.0
C163 C 0.62613 0.96917 0.75118 0.0
O164 O 0.5272 0.90689 0.87102 0.0
O165 O 0.45154 0.95986 0.78419 0.0
O166 O 0.58049 0.03365 0.81822 0.0
O167 O 0.49986 0.84912 0.78192 0.0
O168 O 0.63497 0.89677 0.82956 0.0
O169 O 0.58462 0.97139 0.74253 0.0
O170 O 0.57981 0.84379 0.82594 0.0
O171 O 0.51313 0.89814 0.74328 0.0
O172 O 0.63824 0.96503 0.77911 0.0
O173 O 0.44997 0.91446 0.82577 0.0
O174 O 0.57762 0.96416 0.86872 0.0
O175 O 0.52257 0.03073 0.78449 0.0
H176 H 0.38708 0.54091 0.33275 0.0
H177 H 0.24888 0.47435 0.18082 0.0
H178 H 0.41412 0.59426 0.24175 0.0
H179 H 0.18939 0.45563 0.2711 0.0
H180 H 0.31653 0.50741 0.20461 0.0
H181 H 0.31776 0.50328 0.31253 0.0
C182 C 0.37787 0.54558 0.30877 0.0
C183 C 0.40645 0.57038 0.2888 0.0
C184 C 0.28881 0.49588 0.2193 0.0
C185 C 0.32882 0.52666 0.26559 0.0
C186 C 0.25031 0.4766 0.20572 0.0
C187 C 0.21313 0.46283 0.22396 0.0
C188 C 0.29032 0.50158 0.25139 0.0
C189 C 0.21724 0.46602 0.25617 0.0
C190 C 0.33875 0.52371 0.29721 0.0
C191 C 0.39335 0.57499 0.25787 0.0
N192 N 0.25507 0.4856 0.26894 0.0
N193 N 0.35584 0.55295 0.2472 0.0
H194 H 0.88817 0.34779 0.82117 0.0
H195 H 0.06865 0.15663 0.76974 0.0
H196 H 0.02946 0.37387 0.79747 0.0
H197 H 0.92245 0.14406 0.75821 0.0
H198 H 0.05651 0.22788 0.79875 0.0
H199 H 0.90305 0.26511 0.81677 0.0
C200 C 0.92256 0.33601 0.81589 0.0
C201 C 0.9575 0.36735 0.80908 0.0
C202 C 0.02704 0.20889 0.79055 0.0
C203 C 0.97466 0.27372 0.80423 0.0
C204 C 0.03397 0.16837 0.77419 0.0
C205 C -0.00359 0.14516 0.76173 0.0
C206 C 0.98228 0.22602 0.7942 0.0
C207 C 0.9521 0.16146 0.7676 0.0
C208 C 0.93096 0.28902 0.81327 0.0
C209 C 0.00145 0.3506 0.80231 0.0
N210 N 0.94618 0.20137 0.78319 0.0
N211 N 0.0087 0.30486 0.79974 0.0
H212 H 0.26658 0.10357 0.24416 0.0
H213 H 0.11162 0.89143 0.29453 0.0
H214 H 0.28344 0.96753 0.20676 0.0
H215 H 0.05246 0.02513 0.27893 0.0
H216 H 0.18644 0.92136 0.27768 0.0
H217 H 0.19727 0.07692 0.27157 0.0
C218 C 0.2557 0.06826 0.24181 0.0
C219 C 0.27991 0.03786 0.22281 0.0
C220 C 0.15706 0.94413 0.27845 0.0
C221 C 0.203 0.00711 0.25468 0.0
C222 C 0.11469 0.92719 0.28811 0.0
C223 C 0.07613 0.9558 0.28758 0.0
C224 C 0.16068 0.99008 0.26903 0.0
C225 C 0.08153 0.00193 0.27911 0.0
C226 C 0.21655 0.05313 0.25742 0.0
C227 C 0.26502 0.99226 0.22069 0.0
N228 N 0.12314 0.01774 0.27007 0.0
N229 N 0.22763 0.97819 0.23656 0.0
H230 H 0.55206 0.34254 0.7751 0.0
H231 H 0.4629 0.08934 0.80785 0.0
H232 H 0.42322 0.28607 0.74489 0.0
H233 H 0.60634 0.12513 0.80965 0.0
H234 H 0.44315 0.17022 0.80321 0.0
H235 H 0.56706 0.27161 0.80439 0.0
C236 C 0.52644 0.31569 0.77546 0.0
C237 C 0.48655 0.31951 0.7576 0.0
C238 C 0.47895 0.16058 0.80517 0.0
C239 C 0.50309 0.23945 0.79076 0.0
C240 C 0.49022 0.1145 0.80784 0.0
C241 C 0.5363 0.10078 0.80839 0.0
C242 C 0.51403 0.19315 0.80245 0.0
C243 C 0.57041 0.13456 0.80894 0.0
C244 C 0.53506 0.27537 0.79196 0.0
C245 C 0.45448 0.284 0.75832 0.0
N246 N 0.55863 0.17943 0.80521 0.0
N247 N 0.46357 0.24531 0.77447 0.0
H248 H 0.67772 0.52947 0.21857 0.0
H249 H 0.92983 0.44246 0.25778 0.0
H250 H 0.74725 0.55041 0.30525 0.0
H251 H 0.88177 0.44921 0.16373 0.0
H252 H 0.85913 0.47749 0.27488 0.0
H253 H 0.74958 0.49953 0.19671 0.0
C254 C 0.70826 0.52873 0.23278 0.0
C255 C 0.70641 0.54186 0.26391 0.0
C256 C 0.8638 0.47147 0.25046 0.0
C257 C 0.78785 0.50702 0.23933 0.0
C258 C 0.90421 0.45111 0.24064 0.0
C259 C 0.91201 0.44323 0.20919 0.0
C260 C 0.83038 0.48409 0.22881 0.0
C261 C 0.8771 0.45466 0.1882 0.0
C262 C 0.74906 0.51131 0.22036 0.0
C263 C 0.74687 0.54001 0.28131 0.0
N264 N 0.83765 0.47478 0.1984 0.0
N265 N 0.78567 0.52245 0.26887 0.0
H266 H 0.10995 0.84593 0.67643 0.0
H267 H 0.91856 0.67255 0.73103 0.0
H268 H 0.96575 0.87756 0.68326 0.0
H269 H 0.05997 0.63318 0.7194 0.0
H270 H 0.93329 0.74279 0.70215 0.0
H271 H 0.09144 0.76395 0.6807 0.0
C272 C 0.07438 0.83547 0.67795 0.0
C273 C 0.03934 0.86826 0.68019 0.0
C274 C 0.96108 0.71854 0.70527 0.0
C275 C 0.01796 0.77541 0.68528 0.0
C276 C 0.95251 0.67845 0.72165 0.0
C277 C 0.98817 0.64758 0.72743 0.0
C278 C 0.00605 0.72844 0.69555 0.0
C279 C 0.03169 0.65647 0.71515 0.0
C280 C 0.0638 0.78881 0.68052 0.0
C281 C 0.99381 0.85322 0.68214 0.0
N282 N 0.03975 0.69671 0.70026 0.0
N283 N 0.98451 0.80799 0.68507 0.0
H284 H 0.56105 0.07478 0.25292 0.0
H285 H 0.80149 0.95523 0.21802 0.0
H286 H 0.60318 0.04204 0.16008 0.0
H287 H 0.74013 0.96823 0.30814 0.0
H288 H 0.7306 0.98558 0.19509 0.0
H289 H 0.62986 0.03851 0.27241 0.0
C290 C 0.58504 0.06018 0.23654 0.0
C291 C 0.57615 0.06115 0.2048 0.0
C292 C 0.7326 0.98113 0.21983 0.0
C293 C 0.65535 0.0188 0.22716 0.0
C294 C 0.77279 0.96343 0.2329 0.0
C295 C 0.7768 0.95976 0.26506 0.0
C296 C 0.69659 -0.00482 0.23917 0.0
C297 C 0.73877 0.97111 0.28328 0.0
C298 C 0.62431 0.03913 0.24775 0.0
C299 C 0.60883 0.04212 0.18473 0.0
N300 N 0.70053 0.98871 0.2701 0.0
N301 N 0.64709 0.02142 0.19628 0.0
H302 H 0.52828 0.59605 0.68625 0.0
H303 H 0.42058 0.81711 0.74686 0.0
H304 H 0.38354 0.62138 0.67421 0.0
H305 H 0.55867 0.81825 0.71147 0.0
H306 H 0.40497 0.74768 0.71708 0.0
H307 H 0.54089 0.67845 0.69146 0.0
C308 C 0.49932 0.61919 0.68407 0.0
C309 C 0.45474 0.60218 0.68032 0.0
C310 C 0.43834 0.7637 0.71514 0.0
C311 C 0.46871 0.69594 0.68685 0.0
C312 C 0.44723 0.80303 0.73222 0.0
C313 C 0.49093 0.82269 0.73155 0.0
C314 C 0.47396 0.74324 0.69824 0.0
C315 C 0.52457 0.80365 0.71243 0.0
C316 C 0.50654 0.66614 0.68686 0.0
C317 C 0.41838 0.63334 0.67729 0.0
N318 N 0.51573 0.76412 0.697 0.0
N319 N 0.42598 0.67884 0.68147 0.0
H320 H 0.82564 0.5504 0.71096 0.0
H321 H 0.62674 0.37145 0.67191 0.0
H322 H 0.82629 0.40905 0.73972 0.0
H323 H 0.60528 0.51679 0.68328 0.0
H324 H 0.70971 0.38358 0.67757 0.0
H325 H 0.75458 0.53618 0.68187 0.0
C326 C 0.81144 0.51612 0.7103 0.0
C327 C 0.83119 0.48078 0.72763 0.0
C328 C 0.68681 0.41286 0.67803 0.0
C329 C 0.75087 0.46434 0.69483 0.0
C330 C 0.63965 0.406 0.67465 0.0
C331 C 0.60938 0.44312 0.67766 0.0
C332 C 0.70346 0.45715 0.68396 0.0
C333 C 0.62764 0.48722 0.68134 0.0
C334 C 0.77103 0.50805 0.69389 0.0
C335 C 0.81163 0.43704 0.72657 0.0
N336 N 0.67354 0.493 0.6847 0.0
N337 N 0.77222 0.43005 0.71062 0.0
H338 H 0.0503 0.61484 0.15917 0.0
H339 H 0.93231 0.7483 0.2993 0.0
H340 H 0.03942 0.56598 0.25294 0.0
H341 H 0.97295 0.81877 0.21623 0.0
H342 H 0.95828 0.67646 0.27696 0.0
H343 H 0.01332 0.68702 0.1753 0.0
C344 C 0.04059 0.61933 0.18307 0.0
C345 C 0.04787 0.58414 0.20467 0.0
C346 C 0.96129 0.70751 0.26342 0.0
C347 C 0.00489 0.66549 0.22288 0.0
C348 C 0.94617 0.74848 0.27612 0.0
C349 C 0.95116 0.78952 0.25975 0.0
C350 C 0.98212 0.7075 0.23424 0.0
C351 C 0.96871 0.78774 0.22962 0.0
C352 C 0.01923 0.66027 0.19215 0.0
C353 C 0.03434 0.59174 0.2353 0.0
N354 N 0.98432 0.74733 0.2179 0.0
N355 N 0.01342 0.6313 0.24334 0.0
H356 H 0.89548 0.94087 0.6875 0.0
H357 H 0.64137 0.03481 0.70736 0.0
H358 H 0.85725 0.08131 0.66978 0.0
H359 H 0.69423 0.90782 0.7438 0.0
H360 H 0.71268 0.0443 0.67755 0.0
H361 H 0.81463 0.92049 0.69061 0.0
C362 C 0.86984 0.96727 0.68377 0.0
C363 C 0.88271 0.01298 0.67917 0.0
C364 C 0.70804 0.01382 0.69145 0.0
C365 C 0.79032 0.99023 0.68345 0.0
C366 C 0.66748 0.00836 0.70827 0.0
C367 C 0.66272 0.97083 0.72816 0.0
C368 C 0.74329 0.98117 0.69453 0.0
C369 C 0.69719 0.93749 0.72891 0.0
C370 C 0.82375 0.95567 0.68552 0.0
C371 C 0.84843 0.04577 0.67377 0.0
N372 N 0.73623 0.94365 0.71257 0.0
N373 N 0.80351 0.03397 0.67684 0.0
H374 H 0.44922 0.89205 0.16235 0.0
H375 H 0.54043 0.75995 0.31197 0.0
H376 H 0.4479 0.94584 0.25511 0.0
H377 H 0.53975 0.69791 0.22175 0.0
H378 H 0.51437 0.83163 0.28933 0.0
H379 H 0.48668 0.82226 0.18186 0.0
C380 C 0.45639 0.88909 0.18676 0.0
C381 C 0.44532 0.9249 0.20709 0.0
C382 C 0.52029 0.80259 0.27431 0.0
C383 C 0.48872 0.84593 0.22932 0.0
C384 C 0.53547 0.76173 0.28725 0.0
C385 C 0.54183 0.72295 0.26873 0.0
C386 C 0.51074 0.80464 0.24261 0.0
C387 C 0.53527 0.72716 0.2368 0.0
C388 C 0.47811 0.84949 0.19781 0.0
C389 C 0.45581 0.91937 0.23845 0.0
N390 N 0.51934 0.76721 0.22473 0.0
N391 N 0.47689 0.88082 0.24849 0.0
H392 H 0.35625 0.5367 0.78382 0.0
H393 H 0.12955 0.5921 0.81735 0.0
H394 H 0.29334 0.41833 0.74232 0.0
H395 H 0.10143 0.44884 0.80207 0.0
H396 H 0.21173 0.57597 0.81283 0.0
H397 H 0.28545 0.55034 0.81336 0.0
C398 C 0.32782 0.51308 0.78156 0.0
C399 C 0.32995 0.47676 0.76048 0.0
C400 C 0.18785 0.54773 0.81157 0.0
C401 C 0.24918 0.49243 0.79322 0.0
C402 C 0.14084 0.55705 0.81405 0.0
C403 C 0.10885 0.5219 0.80935 0.0
C404 C 0.20246 0.5029 0.80451 0.0
C405 C 0.12504 0.4771 0.8051 0.0
C406 C 0.28726 0.52116 0.79805 0.0
C407 C 0.29258 0.44704 0.75814 0.0
N408 N 0.17061 0.46906 0.80227 0.0
N409 N 0.25365 0.45573 0.77412 0.0
H410 H 0.03859 0.24531 0.18416 0.0
H411 H 0.95905 0.1078 0.3333 0.0
H412 H 0.04044 0.31012 0.27357 0.0
H413 H 0.91259 0.08228 0.24041 0.0
H414 H -0.00127 0.17709 0.31471 0.0
H415 H 0.00769 0.17631 0.20767 0.0
C416 C 0.03322 0.2447 0.20887 0.0
C417 C 0.04128 0.28366 0.22687 0.0
C418 C 0.97941 0.15633 0.29864 0.0
C419 C 0.00491 0.20519 0.25382 0.0
C420 C 0.9564 0.11725 0.30923 0.0
C421 C 0.9329 0.08913 0.28827 0.0
C422 C 0.97902 0.16653 0.26701 0.0
C423 C 0.93083 0.10259 0.2573 0.0
C424 C 0.0152 0.20548 0.22224 0.0
C425 C 0.0344 0.28077 0.25888 0.0
N426 N 0.954 0.13996 0.24759 0.0
N427 N 0.01585 0.24224 0.2714 0.0
H428 H 0.35944 0.88887 0.82651 0.0
H429 H 0.18771 0.06548 0.75081 0.0
H430 H 0.39369 0.02625 0.79802 0.0
H431 H 0.14776 0.92941 0.77833 0.0
H432 H 0.25771 0.05786 0.78112 0.0
H433 H 0.27767 0.90839 0.82197 0.0
C434 C 0.34965 0.92344 0.82013 0.0
C435 C 0.38297 0.95576 0.81186 0.0
C436 C 0.23344 0.02981 0.78111 0.0
C437 C 0.29038 0.97818 0.80655 0.0
C438 C 0.19355 0.03429 0.76385 0.0
C439 C 0.16272 -0.00219 0.76203 0.0
C440 C 0.24322 0.98788 0.79572 0.0
C441 C 0.17121 0.95812 0.77926 0.0
C442 C 0.30311 0.93454 0.81745 0.0
C443 C 0.36884 7e-05 0.80385 0.0
N444 N 0.2114 0.9537 0.79492 0.0
N445 N 0.32364 0.00978 0.80099 0.0
H446 H 0.46648 0.4477 0.2833 0.0
H447 H 0.52622 0.22365 0.19714 0.0
H448 H 0.60134 0.38788 0.29165 0.0
H449 H 0.39658 0.23028 0.24512 0.0
H450 H 0.55203 0.29097 0.22535 0.0
H451 H 0.43713 0.37396 0.26463 0.0
C452 C 0.48967 0.4187 0.28157 0.0
C453 C 0.53634 0.42345 0.28878 0.0
C454 C 0.51798 0.27762 0.22971 0.0
C455 C 0.50344 0.3403 0.26694 0.0
C456 C 0.5029 0.23968 0.21334 0.0
C457 C 0.45895 0.22175 0.21861 0.0
C458 C 0.48858 0.29852 0.25096 0.0
C459 C 0.43059 0.24333 0.24034 0.0
C460 C 0.47291 0.37687 0.2711 0.0
C461 C 0.56515 0.38525 0.28633 0.0
N462 N 0.44569 0.28123 0.25553 0.0
N463 N 0.54839 0.3453 0.27492 0.0
H464 H 0.10987 0.27813 0.10756 0.0
H465 H 0.37729 0.22145 0.10132 0.0
H466 H 0.21637 0.3809 0.10811 0.0
H467 H 0.27122 0.11868 0.10784 0.0
H468 H 0.3184 0.27971 0.09329 0.0
H469 H 0.16778 0.21965 0.09732 0.0
C470 C 0.1453 0.28863 0.10506 0.0
C471 C 0.1582 0.33461 0.10924 0.0
C472 C 0.30803 0.24432 0.09605 0.0
C473 C 0.22489 0.26743 0.0977 0.0
C474 C 0.34171 0.21089 0.10057 0.0
C475 C 0.32932 0.165 0.10583 0.0
C476 C 0.26152 0.23196 0.09689 0.0
C477 C 0.28254 0.15359 0.10427 0.0
C478 C 0.17841 0.25508 0.09926 0.0
C479 C 0.20471 0.34592 0.10545 0.0
N480 N 0.25037 0.18692 0.10038 0.0
N481 N 0.23639 0.31251 0.1003 0.0
H482 H 0.10473 0.20635 0.65095 0.0
H483 H 0.27034 0.37471 0.66475 0.0
H484 H 0.21492 0.11012 0.66713 0.0
H485 H 0.36952 0.2667 0.65004 0.0
H486 H 0.20969 0.31831 0.66497 0.0
H487 H 0.16038 0.26774 0.64759 0.0
C488 C 0.14069 0.19819 0.65416 0.0
C489 C 0.15502 0.15296 0.65962 0.0
C490 C 0.24438 0.30667 0.66086 0.0
C491 C 0.21951 0.22387 0.65686 0.0
C492 C 0.27935 0.33911 0.66101 0.0
C493 C 0.32526 0.32562 0.65713 0.0
C494 C 0.2551 0.26014 0.65646 0.0
C495 C 0.33465 0.27878 0.65297 0.0
C496 C 0.17266 0.23354 0.65253 0.0
C497 C 0.20222 0.14447 0.66299 0.0
N498 N 0.29988 0.24775 0.65281 0.0
N499 N 0.23272 0.17962 0.66164 0.0
H500 H 0.77303 0.88387 0.38545 0.0
H501 H 0.71713 0.61722 0.38291 0.0
H502 H 0.87611 0.77777 0.37825 0.0
H503 H 0.61428 0.72395 0.38674 0.0
H504 H 0.77628 0.67473 0.39184 0.0
H505 H 0.71573 0.82538 0.39643 0.0
C506 C 0.78384 0.84836 0.38659 0.0
C507 C 0.82943 0.83576 0.38032 0.0
C508 C 0.7407 0.68545 0.3912 0.0
C509 C 0.76368 0.76845 0.39267 0.0
C510 C 0.7068 0.65257 0.38618 0.0
C511 C 0.66059 0.66578 0.38343 0.0
C512 C 0.72838 0.73191 0.39338 0.0
C513 C 0.64945 0.71214 0.38816 0.0
C514 C 0.75101 0.81492 0.39287 0.0
C515 C 0.84133 0.78917 0.38255 0.0
N516 N 0.68314 0.74357 0.39244 0.0
N517 N 0.80853 0.75717 0.38808 0.0
H518 H 0.71477 0.86535 0.83436 0.0
H519 H 0.76917 0.59682 0.82444 0.0
H520 H 0.60971 0.76177 0.82628 0.0
H521 H 0.87294 0.70187 0.8315 0.0
H522 H 0.71006 0.65622 0.82643 0.0
H523 H 0.77283 0.80532 0.83484 0.0
C524 C 0.70379 0.82998 0.83281 0.0
C525 C 0.65712 0.81872 0.83024 0.0
C526 C 0.74577 0.66621 0.82761 0.0
C527 C 0.72381 0.74957 0.83068 0.0
C528 C 0.77961 0.6323 0.82648 0.0
C529 C 0.82624 0.64426 0.82778 0.0
C530 C 0.75859 0.71243 0.83005 0.0
C531 C 0.83753 0.69088 0.8304 0.0
C532 C 0.73708 0.79566 0.83305 0.0
C533 C 0.64521 0.77216 0.82828 0.0
N534 N 0.80398 0.72318 0.83141 0.0
N535 N 0.67835 0.73931 0.82848 0.0
H536 H 0.89829 0.47558 0.92094 0.0
H537 H 0.05813 0.53567 0.06476 0.0
H538 H 0.00404 0.57917 0.91947 0.0
H539 H 0.95624 0.4283 0.06558 0.0
H540 H 0.03259 0.55782 0.0134 0.0
H541 H 0.91358 0.46303 0.97556 0.0
C542 C 0.92459 0.49584 0.93207 0.0
C543 C 0.9502 0.52821 0.91544 0.0
C544 C 0.01558 0.52963 0.02491 0.0
C545 C 0.96779 0.51399 0.97803 0.0
C546 C 0.0301 0.51698 0.0543 0.0
C547 C 0.00972 0.47964 0.06941 0.0
C548 C 0.98053 0.50471 0.01044 0.0
C549 C 0.97326 0.45704 0.05474 0.0
C550 C 0.93325 0.48867 0.9633 0.0
C551 C 0.98366 0.55359 0.93123 0.0
N552 N 0.96013 0.46966 0.02595 0.0
N553 N 0.99162 0.54575 0.96158 0.0
H554 H 0.08953 0.97061 0.56931 0.0
H555 H 0.93125 0.03449 0.42541 0.0
H556 H 0.98913 0.07985 0.56924 0.0
H557 H 0.03133 0.92501 0.42423 0.0
H558 H 0.95771 0.0562 0.47653 0.0
H559 H 0.07372 0.95748 0.51477 0.0
C560 C 0.06432 0.99196 0.55785 0.0
C561 C 0.04032 0.02612 0.57401 0.0
C562 C 0.97414 0.02762 0.46502 0.0
C563 C 0.02218 0.01128 0.51162 0.0
C564 C 0.95904 0.01519 0.43578 0.0
C565 C 0.97868 0.97747 0.42063 0.0
C566 C 0.00896 0.00203 0.47935 0.0
C567 C 0.01493 0.95412 0.43512 0.0
C568 C 0.05538 0.98448 0.52669 0.0
C569 C 0.00823 0.05287 0.55787 0.0
N570 N 0.0286 0.9665 0.46383 0.0
N571 N -5e-05 0.0447 0.52764 0.0
H572 H 0.59261 0.0033 0.9194 0.0
H573 H 0.42961 0.95959 0.06411 0.0
H574 H 0.48999 0.8967 0.92306 0.0
H575 H 0.53087 0.06741 0.05982 0.0
H576 H 0.45676 0.93107 0.01458 0.0
H577 H 0.57576 0.02225 0.97287 0.0
C578 C 0.56671 0.98367 0.93146 0.0
C579 C 0.54233 0.94865 0.91656 0.0
C580 C 0.47324 0.96078 0.02458 0.0
C581 C 0.52284 0.97032 0.97782 0.0
C582 C 0.45775 0.97713 0.05288 0.0
C583 C 0.4776 0.01634 0.066 0.0
C584 C 0.50873 0.98386 0.00923 0.0
C585 C 0.51423 0.03733 0.05048 0.0
C586 C 0.55714 -0.00548 0.96203 0.0
C587 C 0.50942 0.9242 0.93349 0.0
N588 N 0.52836 0.02103 0.02279 0.0
N589 N 0.50041 0.93574 0.96316 0.0
H590 H 0.55984 0.46043 0.42301 0.0
H591 H 0.39841 0.5026 0.56898 0.0
H592 H 0.46093 0.57056 0.42958 0.0
H593 H 0.50469 0.39917 0.5658 0.0
H594 H 0.41518 0.5223 0.51568 0.0
H595 H 0.53402 0.43188 0.47288 0.0
C596 C 0.53245 0.47846 0.43479 0.0
C597 C 0.51289 0.51832 0.42219 0.0
C598 C 0.43469 0.49514 0.52658 0.0
C599 C 0.48333 0.48578 0.47937 0.0
C600 C 0.42516 0.48383 0.55708 0.0
C601 C 0.45047 0.44941 0.57208 0.0
C602 C 0.46984 0.47197 0.51088 0.0
C603 C 0.48448 0.42614 0.55529 0.0
C604 C 0.51779 0.46212 0.46331 0.0
C605 C 0.47733 0.53998 0.43848 0.0
N606 N 0.49335 0.43805 0.52563 0.0
N607 N 0.46392 0.52359 0.46632 0.0
loop_
_geom_bond_atom_site_label_1
_geom_bond_atom_site_label_2
_geom_bond_distance
_geom_bond_site_symmetry_2
_ccdc_geom_bond_type
Sc0 O3 2.025 . S
Sc0 O10 2.105 . S
Sc0 O13 2.105 . S
Sc0 O16 2.105 . S
Sc0 O19 2.105 . S
Sc1 O3 2.025 . S
Sc1 O11 2.105 . S
Sc1 O15 2.105 . S
Sc1 O17 2.105 . S
Sc1 O21 2.105 1_455 S
Sc2 O3 2.025 . S
Sc2 O12 2.105 1_455 S
Sc2 O14 2.105 . S
Sc2 O18 2.105 . S
Sc2 O20 2.105 . S
O3 Sc0 2.025 . S
O3 Sc1 2.025 . S
O3 Sc2 2.025 . S
C4 O10 1.268 . S
C4 O20 1.268 . S
C5 O11 1.268 . S
C5 O19 1.268 . S
C6 O12 1.268 . S
C6 O21 1.268 . S
C7 O13 1.268 . S
C7 O17 1.268 . S
C8 O14 1.268 . S
C8 O16 1.268 . S
C9 O15 1.268 . S
C9 O18 1.268 . S
O10 Sc0 2.105 . S
O10 C4 1.268 . S
O11 Sc1 2.105 . S
O11 C5 1.268 . S
O12 Sc2 2.105 1_655 S
O12 C6 1.268 . S
O13 Sc0 2.105 . S
O13 C7 1.268 . S
O14 Sc2 2.105 . S
O14 C8 1.268 . S
O15 Sc1 2.105 . S
O15 C9 1.268 . S
O16 Sc0 2.105 . S
O16 C8 1.268 . S
O17 Sc1 2.105 . S
O17 C7 1.268 . S
O18 Sc2 2.105 . S
O18 C9 1.268 . S
O19 Sc0 2.105 . S
O19 C5 1.268 . S
O20 Sc2 2.105 . S
O20 C4 1.268 . S
O21 Sc1 2.105 1_655 S
O21 C6 1.268 . S
Sc22 O25 2.025 . S
Sc22 O32 2.105 . S
Sc22 O35 2.105 1_545 S
Sc22 O38 2.105 . S
Sc22 O41 2.105 . S
Sc23 O25 2.025 . S
Sc23 O33 2.105 . S
Sc23 O37 2.105 1_455 S
Sc23 O39 2.105 1_545 S
Sc23 O43 2.105 . S
Sc24 O25 2.025 . S
Sc24 O34 2.105 . S
Sc24 O36 2.105 . S
Sc24 O40 2.105 1_455 S
Sc24 O42 2.105 . S
O25 Sc22 2.025 . S
O25 Sc23 2.025 . S
O25 Sc24 2.025 . S
C26 O32 1.268 . S
C26 O42 1.268 . S
C27 O33 1.268 . S
C27 O41 1.268 . S
C28 O34 1.268 . S
C28 O43 1.268 . S
C29 O35 1.268 . S
C29 O39 1.268 . S
C30 O36 1.268 . S
C30 O38 1.268 . S
C31 O37 1.268 . S
C31 O40 1.268 . S
O32 Sc22 2.105 . S
O32 C26 1.268 . S
O33 Sc23 2.105 . S
O33 C27 1.268 . S
O34 Sc24 2.105 . S
O34 C28 1.268 . S
O35 Sc22 2.105 1_565 S
O35 C29 1.268 . S
O36 Sc24 2.105 . S
O36 C30 1.268 . S
O37 Sc23 2.105 1_655 S
O37 C31 1.268 . S
O38 Sc22 2.105 . S
O38 C30 1.268 . S
O39 Sc23 2.105 1_565 S
O39 C29 1.268 . S
O40 Sc24 2.105 1_655 S
O40 C31 1.268 . S
O41 Sc22 2.105 . S
O41 C27 1.268 . S
O42 Sc24 2.105 . S
O42 C26 1.268 . S
O43 Sc23 2.105 . S
O43 C28 1.268 . S
Sc44 O47 2.025 . S
Sc44 O54 2.105 . S
Sc44 O57 2.105 . S
Sc44 O60 2.105 . S
Sc44 O63 2.105 . S
Sc45 O47 2.025 . S
Sc45 O55 2.105 . S
Sc45 O59 2.105 1_545 S
Sc45 O61 2.105 . S
Sc45 O65 2.105 . S
Sc46 O47 2.025 . S
Sc46 O56 2.105 . S
Sc46 O58 2.105 . S
Sc46 O62 2.105 1_545 S
Sc46 O64 2.105 . S
O47 Sc44 2.025 . S
O47 Sc45 2.025 . S
O47 Sc46 2.025 . S
C48 O54 1.268 . S
C48 O64 1.268 . S
C49 O55 1.268 . S
C49 O63 1.268 . S
C50 O56 1.268 . S
C50 O65 1.268 . S
C51 O57 1.268 . S
C51 O61 1.268 . S
C52 O58 1.268 . S
C52 O60 1.268 . S
C53 O59 1.268 . S
C53 O62 1.268 . S
O54 Sc44 2.105 . S
O54 C48 1.268 . S
O55 Sc45 2.105 . S
O55 C49 1.268 . S
O56 Sc46 2.105 . S
O56 C50 1.268 . S
O57 Sc44 2.105 . S
O57 C51 1.268 . S
O58 Sc46 2.105 . S
O58 C52 1.268 . S
O59 Sc45 2.105 1_565 S
O59 C53 1.268 . S
O60 Sc44 2.105 . S
O60 C52 1.268 . S
O61 Sc45 2.105 . S
O61 C51 1.268 . S
O62 Sc46 2.105 1_565 S
O62 C53 1.268 . S
O63 Sc44 2.105 . S
O63 C49 1.268 . S
O64 Sc46 2.105 . S
O64 C48 1.268 . S
O65 Sc45 2.105 . S
O65 C50 1.268 . S
Sc66 O69 2.025 . S
Sc66 O76 2.105 . S
Sc66 O79 2.105 . S
Sc66 O82 2.105 . S
Sc66 O85 2.105 . S
Sc67 O69 2.025 . S
Sc67 O77 2.105 . S
Sc67 O81 2.105 . S
Sc67 O83 2.105 . S
Sc67 O87 2.105 . S
Sc68 O69 2.025 . S
Sc68 O78 2.105 . S
Sc68 O80 2.105 . S
Sc68 O84 2.105 . S
Sc68 O86 2.105 . S
O69 Sc66 2.025 . S
O69 Sc67 2.025 . S
O69 Sc68 2.025 . S
C70 O76 1.268 . S
C70 O86 1.268 . S
C71 O77 1.268 . S
C71 O85 1.268 . S
C72 O78 1.268 . S
C72 O87 1.268 . S
C73 O79 1.268 . S
C73 O83 1.268 . S
C74 O80 1.268 . S
C74 O82 1.268 . S
C75 O81 1.268 . S
C75 O84 1.268 . S
O76 Sc66 2.105 . S
O76 C70 1.268 . S
O77 Sc67 2.105 . S
O77 C71 1.268 . S
O78 Sc68 2.105 . S
O78 C72 1.268 . S
O79 Sc66 2.105 . S
O79 C73 1.268 . S
O80 Sc68 2.105 . S
O80 C74 1.268 . S
O81 Sc67 2.105 . S
O81 C75 1.268 . S
O82 Sc66 2.105 . S
O82 C74 1.268 . S
O83 Sc67 2.105 . S
O83 C73 1.268 . S
O84 Sc68 2.105 . S
O84 C75 1.268 . S
O85 Sc66 2.105 . S
O85 C71 1.268 . S
O86 Sc68 2.105 . S
O86 C70 1.268 . S
O87 Sc67 2.105 . S
O87 C72 1.268 . S
Sc88 O91 2.025 . S
Sc88 O98 2.105 . S
Sc88 O101 2.105 . S
Sc88 O104 2.105 . S
Sc88 O107 2.105 . S
Sc89 O91 2.025 . S
Sc89 O99 2.105 . S
Sc89 O103 2.105 . S
Sc89 O105 2.105 . S
Sc89 O109 2.105 . S
Sc90 O91 2.025 . S
Sc90 O100 2.105 . S
Sc90 O102 2.105 . S
Sc90 O106 2.105 . S
Sc90 O108 2.105 . S
O91 Sc88 2.025 . S
O91 Sc89 2.025 . S
O91 Sc90 2.025 . S
C92 O98 1.268 . S
C92 O108 1.268 . S
C93 O99 1.268 . S
C93 O107 1.268 . S
C94 O100 1.268 . S
C94 O109 1.268 . S
C95 O101 1.268 . S
C95 O105 1.268 . S
C96 O102 1.268 . S
C96 O104 1.268 . S
C97 O103 1.268 . S
C97 O106 1.268 . S
O98 Sc88 2.105 . S
O98 C92 1.268 . S
O99 Sc89 2.105 . S
O99 C93 1.268 . S
O100 Sc90 2.105 . S
O100 C94 1.268 . S
O101 Sc88 2.105 . S
O101 C95 1.268 . S
O102 Sc90 2.105 . S
O102 C96 1.268 . S
O103 Sc89 2.105 . S
O103 C97 1.268 . S
O104 Sc88 2.105 . S
O104 C96 1.268 . S
O105 Sc89 2.105 . S
O105 C95 1.268 . S
O106 Sc90 2.105 . S
O106 C97 1.268 . S
O107 Sc88 2.105 . S
O107 C93 1.268 . S
O108 Sc90 2.105 . S
O108 C92 1.268 . S
O109 Sc89 2.105 . S
O109 C94 1.268 . S
Sc110 O113 2.025 . S
Sc110 O120 2.105 . S
Sc110 O123 2.105 . S
Sc110 O126 2.105 . S
Sc110 O129 2.105 . S
Sc111 O113 2.025 . S
Sc111 O121 2.105 . S
Sc111 O125 2.105 1_655 S
Sc111 O127 2.105 . S
Sc111 O131 2.105 . S
Sc112 O113 2.025 . S
Sc112 O122 2.105 . S
Sc112 O124 2.105 . S
Sc112 O128 2.105 1_655 S
Sc112 O130 2.105 . S
O113 Sc110 2.025 . S
O113 Sc111 2.025 . S
O113 Sc112 2.025 . S
C114 O120 1.268 . S
C114 O130 1.268 . S
C115 O121 1.268 . S
C115 O129 1.268 . S
C116 O122 1.268 . S
C116 O131 1.268 . S
C117 O123 1.268 . S
C117 O127 1.268 . S
C118 O124 1.268 . S
C118 O126 1.268 . S
C119 O125 1.268 . S
C119 O128 1.268 . S
O120 Sc110 2.105 . S
O120 C114 1.268 . S
O121 Sc111 2.105 . S
O121 C115 1.268 . S
O122 Sc112 2.105 . S
O122 C116 1.268 . S
O123 Sc110 2.105 . S
O123 C117 1.268 . S
O124 Sc112 2.105 . S
O124 C118 1.268 . S
O125 Sc111 2.105 1_455 S
O125 C119 1.268 . S
O126 Sc110 2.105 . S
O126 C118 1.268 . S
O127 Sc111 2.105 . S
O127 C117 1.268 . S
O128 Sc112 2.105 1_455 S
O128 C119 1.268 . S
O129 Sc110 2.105 . S
O129 C115 1.268 . S
O130 Sc112 2.105 . S
O130 C114 1.268 . S
O131 Sc111 2.105 . S
O131 C116 1.268 . S
Sc132 O135 2.025 . S
Sc132 O142 2.105 . S
Sc132 O145 2.105 . S
Sc132 O148 2.105 . S
Sc132 O151 2.105 1_565 S
Sc133 O135 2.025 . S
Sc133 O143 2.105 1_565 S
Sc133 O147 2.105 . S
Sc133 O149 2.105 . S
Sc133 O153 2.105 1_655 S
Sc134 O135 2.025 . S
Sc134 O144 2.105 1_655 S
Sc134 O146 2.105 . S
Sc134 O150 2.105 . S
Sc134 O152 2.105 . S
O135 Sc132 2.025 . S
O135 Sc133 2.025 . S
O135 Sc134 2.025 . S
C136 O142 1.268 . S
C136 O152 1.268 . S
C137 O143 1.268 . S
C137 O151 1.268 . S
C138 O144 1.268 . S
C138 O153 1.268 . S
C139 O145 1.268 . S
C139 O149 1.268 . S
C140 O146 1.268 . S
C140 O148 1.268 . S
C141 O147 1.268 . S
C141 O150 1.268 . S
O142 Sc132 2.105 . S
O142 C136 1.268 . S
O143 Sc133 2.105 1_545 S
O143 C137 1.268 . S
O144 Sc134 2.105 1_455 S
O144 C138 1.268 . S
O145 Sc132 2.105 . S
O145 C139 1.268 . S
O146 Sc134 2.105 . S
O146 C140 1.268 . S
O147 Sc133 2.105 . S
O147 C141 1.268 . S
O148 Sc132 2.105 . S
O148 C140 1.268 . S
O149 Sc133 2.105 . S
O149 C139 1.268 . S
O150 Sc134 2.105 . S
O150 C141 1.268 . S
O151 Sc132 2.105 1_545 S
O151 C137 1.268 . S
O152 Sc134 2.105 . S
O152 C136 1.268 . S
O153 Sc133 2.105 1_455 S
O153 C138 1.268 . S
Sc154 O157 2.025 . S
Sc154 O164 2.105 . S
Sc154 O167 2.105 . S
Sc154 O170 2.105 . S
Sc154 O173 2.105 . S
Sc155 O157 2.025 . S
Sc155 O165 2.105 . S
Sc155 O169 2.105 . S
Sc155 O171 2.105 . S
Sc155 O175 2.105 1_565 S
Sc156 O157 2.025 . S
Sc156 O166 2.105 1_565 S
Sc156 O168 2.105 . S
Sc156 O172 2.105 . S
Sc156 O174 2.105 . S
O157 Sc154 2.025 . S
O157 Sc155 2.025 . S
O157 Sc156 2.025 . S
C158 O164 1.268 . S
C158 O174 1.268 . S
C159 O165 1.268 . S
C159 O173 1.268 . S
C160 O166 1.268 . S
C160 O175 1.268 . S
C161 O167 1.268 . S
C161 O171 1.268 . S
C162 O168 1.268 . S
C162 O170 1.268 . S
C163 O169 1.268 . S
C163 O172 1.268 . S
O164 Sc154 2.105 . S
O164 C158 1.268 . S
O165 Sc155 2.105 . S
O165 C159 1.268 . S
O166 Sc156 2.105 1_545 S
O166 C160 1.268 . S
O167 Sc154 2.105 . S
O167 C161 1.268 . S
O168 Sc156 2.105 . S
O168 C162 1.268 . S
O169 Sc155 2.105 . S
O169 C163 1.268 . S
O170 Sc154 2.105 . S
O170 C162 1.268 . S
O171 Sc155 2.105 . S
O171 C161 1.268 . S
O172 Sc156 2.105 . S
O172 C163 1.268 . S
O173 Sc154 2.105 . S
O173 C159 1.268 . S
O174 Sc156 2.105 . S
O174 C158 1.268 . S
O175 Sc155 2.105 1_545 S
O175 C160 1.268 . S
H176 C182 0.930 . S
H177 C186 0.930 . S
H178 C191 0.929 . S
H179 C189 0.929 . S
H180 C184 0.929 . S
H181 C190 0.929 . S
C182 H176 0.930 . S
C182 C183 1.367 . S
C182 C190 1.378 . S
C183 C182 1.367 . S
C183 C191 1.433 . S
C184 H180 0.929 . S
C184 C186 1.378 . S
C184 C188 1.350 . S
C185 C188 1.463 . S
C185 C190 1.350 . S
C185 N193 1.427 . S
C186 H177 0.930 . S
C186 C184 1.378 . S
C186 C187 1.367 . S
C187 C186 1.367 . S
C187 C189 1.433 . S
C188 C184 1.350 . S
C188 C185 1.463 . S
C188 N192 1.427 . S
C189 H179 0.929 . S
C189 C187 1.433 . S
C189 N192 1.384 . S
C190 H181 0.929 . S
C190 C182 1.378 . S
C190 C185 1.350 . S
C191 H178 0.929 . S
C191 C183 1.433 . S
C191 N193 1.384 . S
N192 C188 1.427 . S
N192 C189 1.384 . S
N193 C185 1.427 . S
N193 C191 1.384 . S
H194 C200 0.930 . S
H195 C204 0.930 . S
H196 C209 0.919 1_455 S
H197 C207 0.929 . S
H198 C202 0.929 . S
H199 C208 0.929 . S
C200 H194 0.930 . S
C200 C201 1.367 . S
C200 C208 1.378 . S
C201 C200 1.367 . S
C201 C209 1.451 . S
C202 H198 0.929 . S
C202 C204 1.378 . S
C202 C206 1.350 . S
C203 C206 1.463 1_655 S
C203 C208 1.350 . S
C203 N211 1.427 1_655 S
C204 H195 0.930 . S
C204 C202 1.378 . S
C204 C205 1.367 . S
C205 C204 1.367 . S
C205 C207 1.433 1_455 S
C206 C202 1.350 . S
C206 C203 1.463 1_455 S
C206 N210 1.427 1_455 S
C207 H197 0.929 . S
C207 C205 1.433 1_655 S
C207 N210 1.384 . S
C208 H199 0.929 . S
C208 C200 1.378 . S
C208 C203 1.350 . S
C209 H196 0.919 1_655 S
C209 C201 1.451 . S
C209 N211 1.377 1_655 S
N210 C206 1.427 1_655 S
N210 C207 1.384 . S
N211 C203 1.427 1_455 S
N211 C209 1.377 1_455 S
H212 C218 0.930 . S
H213 C222 0.930 . S
H214 C227 0.929 . S
H215 C225 0.929 . S
H216 C220 0.929 . S
H217 C226 0.929 . S
C218 H212 0.930 . S
C218 C219 1.367 . S
C218 C226 1.378 . S
C219 C218 1.367 . S
C219 C227 1.433 1_545 S
C220 H216 0.929 . S
C220 C222 1.378 . S
C220 C224 1.350 . S
C221 C224 1.463 1_545 S
C221 C226 1.350 . S
C221 N229 1.427 1_545 S
C222 H213 0.930 . S
C222 C220 1.378 . S
C222 C223 1.367 . S
C223 C222 1.367 . S
C223 C225 1.433 1_565 S
C224 C220 1.350 . S
C224 C221 1.463 1_565 S
C224 N228 1.427 1_565 S
C225 H215 0.929 . S
C225 C223 1.433 1_545 S
C225 N228 1.384 . S
C226 H217 0.929 . S
C226 C218 1.378 . S
C226 C221 1.350 . S
C227 H214 0.929 . S
C227 C219 1.433 1_565 S
C227 N229 1.384 . S
N228 C224 1.427 1_545 S
N228 C225 1.384 . S
N229 C221 1.427 1_565 S
N229 C227 1.384 . S
H230 C236 0.930 . S
H231 C240 0.930 . S
H232 C245 0.929 . S
H233 C243 0.929 . S
H234 C238 0.929 . S
H235 C244 0.929 . S
C236 H230 0.930 . S
C236 C237 1.367 . S
C236 C244 1.378 . S
C237 C236 1.367 . S
C237 C245 1.433 . S
C238 H234 0.929 . S
C238 C240 1.378 . S
C238 C242 1.350 . S
C239 C242 1.463 . S
C239 C244 1.350 . S
C239 N247 1.427 . S
C240 H231 0.930 . S
C240 C238 1.378 . S
C240 C241 1.367 . S
C241 C240 1.367 . S
C241 C243 1.433 . S
C242 C238 1.350 . S
C242 C239 1.463 . S
C242 N246 1.427 . S
C243 H233 0.929 . S
C243 C241 1.433 . S
C243 N246 1.384 . S
C244 H235 0.929 . S
C244 C236 1.378 . S
C244 C239 1.350 . S
C245 H232 0.929 . S
C245 C237 1.433 . S
C245 N247 1.384 . S
N246 C242 1.427 . S
N246 C243 1.384 . S
N247 C239 1.427 . S
N247 C245 1.384 . S
H248 C254 0.930 . S
H249 C258 0.930 . S
H250 C263 0.929 . S
H251 C261 0.929 . S
H252 C256 0.929 . S
H253 C262 0.929 . S
C254 H248 0.930 . S
C254 C255 1.367 . S
C254 C262 1.378 . S
C255 C254 1.367 . S
C255 C263 1.433 . S
C256 H252 0.929 . S
C256 C258 1.378 . S
C256 C260 1.350 . S
C257 C260 1.463 . S
C257 C262 1.350 . S
C257 N265 1.427 . S
C258 H249 0.930 . S
C258 C256 1.378 . S
C258 C259 1.367 . S
C259 C258 1.367 . S
C259 C261 1.433 . S
C260 C256 1.350 . S
C260 C257 1.463 . S
C260 N264 1.427 . S
C261 H251 0.929 . S
C261 C259 1.433 . S
C261 N264 1.384 . S
C262 H253 0.929 . S
C262 C254 1.378 . S
C262 C257 1.350 . S
C263 H250 0.929 . S
C263 C255 1.433 . S
C263 N265 1.384 . S
N264 C260 1.427 . S
N264 C261 1.384 . S
N265 C257 1.427 . S
N265 C263 1.384 . S
H266 C272 0.930 . S
H267 C276 0.930 . S
H268 C281 0.929 1_655 S
H269 C279 0.929 . S
H270 C274 0.929 . S
H271 C280 0.929 . S
C272 H266 0.930 . S
C272 C273 1.367 . S
C272 C280 1.378 . S
C273 C272 1.367 . S
C273 C281 1.433 . S
C274 H270 0.929 . S
C274 C276 1.378 . S
C274 C278 1.350 . S
C275 C278 1.463 1_455 S
C275 C280 1.350 . S
C275 N283 1.427 1_455 S
C276 H267 0.930 . S
C276 C274 1.378 . S
C276 C277 1.367 . S
C277 C276 1.367 . S
C277 C279 1.433 1_655 S
C278 C274 1.350 . S
C278 C275 1.463 1_655 S
C278 N282 1.427 1_655 S
C279 H269 0.929 . S
C279 C277 1.433 1_455 S
C279 N282 1.384 . S
C280 H271 0.929 . S
C280 C272 1.378 . S
C280 C275 1.350 . S
C281 H268 0.929 1_455 S
C281 C273 1.433 . S
C281 N283 1.384 1_455 S
N282 C278 1.427 1_455 S
N282 C279 1.384 . S
N283 C275 1.427 1_655 S
N283 C281 1.384 1_655 S
H284 C290 0.930 . S
H285 C294 0.930 . S
H286 C299 0.929 . S
H287 C297 0.929 . S
H288 C292 0.929 . S
H289 C298 0.929 . S
C290 H284 0.930 . S
C290 C291 1.367 . S
C290 C298 1.378 . S
C291 C290 1.367 . S
C291 C299 1.433 . S
C292 H288 0.929 . S
C292 C294 1.378 . S
C292 C296 1.350 . S
C293 C296 1.463 1_545 S
C293 C298 1.350 . S
C293 N301 1.427 . S
C294 H285 0.930 . S
C294 C292 1.378 . S
C294 C295 1.367 . S
C295 C294 1.367 . S
C295 C297 1.433 . S
C296 C292 1.350 . S
C296 C293 1.463 1_565 S
C296 N300 1.427 . S
C297 H287 0.929 . S
C297 C295 1.433 . S
C297 N300 1.384 . S
C298 H289 0.929 . S
C298 C290 1.378 . S
C298 C293 1.350 . S
C299 H286 0.929 . S
C299 C291 1.433 . S
C299 N301 1.384 . S
N300 C296 1.427 . S
N300 C297 1.384 . S
N301 C293 1.427 . S
N301 C299 1.384 . S
H302 C308 0.930 . S
H303 C312 0.930 . S
H304 C317 0.929 . S
H305 C315 0.929 . S
H306 C310 0.929 . S
H307 C316 0.929 . S
C308 H302 0.930 . S
C308 C309 1.367 . S
C308 C316 1.378 . S
C309 C308 1.367 . S
C309 C317 1.433 . S
C310 H306 0.929 . S
C310 C312 1.378 . S
C310 C314 1.350 . S
C311 C314 1.463 . S
C311 C316 1.350 . S
C311 N319 1.427 . S
C312 H303 0.930 . S
C312 C310 1.378 . S
C312 C313 1.367 . S
C313 C312 1.367 . S
C313 C315 1.433 . S
C314 C310 1.350 . S
C314 C311 1.463 . S
C314 N318 1.427 . S
C315 H305 0.929 . S
C315 C313 1.433 . S
C315 N318 1.384 . S
C316 H307 0.929 . S
C316 C308 1.378 . S
C316 C311 1.350 . S
C317 H304 0.929 . S
C317 C309 1.433 . S
C317 N319 1.384 . S
N318 C314 1.427 . S
N318 C315 1.384 . S
N319 C311 1.427 . S
N319 C317 1.384 . S
H320 C326 0.930 . S
H321 C330 0.930 . S
H322 C335 0.929 . S
H323 C333 0.929 . S
H324 C328 0.929 . S
H325 C334 0.929 . S
C326 H320 0.930 . S
C326 C327 1.367 . S
C326 C334 1.378 . S
C327 C326 1.367 . S
C327 C335 1.433 . S
C328 H324 0.929 . S
C328 C330 1.378 . S
C328 C332 1.350 . S
C329 C332 1.463 . S
C329 C334 1.350 . S
C329 N337 1.427 . S
C330 H321 0.930 . S
C330 C328 1.378 . S
C330 C331 1.367 . S
C331 C330 1.367 . S
C331 C333 1.433 . S
C332 C328 1.350 . S
C332 C329 1.463 . S
C332 N336 1.427 . S
C333 H323 0.929 . S
C333 C331 1.433 . S
C333 N336 1.384 . S
C334 H325 0.929 . S
C334 C326 1.378 . S
C334 C329 1.350 . S
C335 H322 0.929 . S
C335 C327 1.433 . S
C335 N337 1.384 . S
N336 C332 1.427 . S
N336 C333 1.384 . S
N337 C329 1.427 . S
N337 C335 1.384 . S
H338 C344 0.930 . S
H339 C348 0.930 . S
H340 C353 0.929 . S
H341 C351 0.929 . S
H342 C346 0.929 . S
H343 C352 0.929 . S
C344 H338 0.930 . S
C344 C345 1.367 . S
C344 C352 1.378 . S
C345 C344 1.367 . S
C345 C353 1.433 1_455 S
C346 H342 0.929 . S
C346 C348 1.378 . S
C346 C350 1.350 . S
C347 C350 1.463 1_455 S
C347 C352 1.350 . S
C347 N355 1.427 1_455 S
C348 H339 0.930 . S
C348 C346 1.378 . S
C348 C349 1.367 . S
C349 C348 1.367 . S
C349 C351 1.433 1_655 S
C350 C346 1.350 . S
C350 C347 1.463 1_655 S
C350 N354 1.427 1_655 S
C351 H341 0.929 . S
C351 C349 1.433 1_455 S
C351 N354 1.384 . S
C352 H343 0.929 . S
C352 C344 1.378 . S
C352 C347 1.350 . S
C353 H340 0.929 . S
C353 C345 1.433 1_655 S
C353 N355 1.384 . S
N354 C350 1.427 1_455 S
N354 C351 1.384 . S
N355 C347 1.427 1_655 S
N355 C353 1.384 . S
H356 C362 0.930 . S
H357 C366 0.930 . S
H358 C371 0.929 . S
H359 C369 0.929 . S
H360 C364 0.929 . S
H361 C370 0.929 . S
C362 H356 0.930 . S
C362 C363 1.367 1_565 S
C362 C370 1.378 . S
C363 C362 1.367 1_545 S
C363 C371 1.433 . S
C364 H360 0.929 . S
C364 C366 1.378 . S
C364 C368 1.350 1_545 S
C365 C368 1.463 1_545 S
C365 C370 1.350 1_545 S
C365 N373 1.427 . S
C366 H357 0.930 . S
C366 C364 1.378 . S
C366 C367 1.367 1_545 S
C367 C366 1.367 1_565 S
C367 C369 1.433 . S
C368 C364 1.350 1_565 S
C368 C365 1.463 1_565 S
C368 N372 1.427 . S
C369 H359 0.929 . S
C369 C367 1.433 . S
C369 N372 1.384 . S
C370 H361 0.929 . S
C370 C362 1.378 . S
C370 C365 1.350 1_565 S
C371 H358 0.929 . S
C371 C363 1.433 . S
C371 N373 1.384 . S
N372 C368 1.427 . S
N372 C369 1.384 . S
N373 C365 1.427 . S
N373 C371 1.384 . S
H374 C380 0.930 . S
H375 C384 0.930 . S
H376 C389 0.929 . S
H377 C387 0.929 . S
H378 C382 0.929 . S
H379 C388 0.929 . S
C380 H374 0.930 . S
C380 C381 1.367 . S
C380 C388 1.378 . S
C381 C380 1.367 . S
C381 C389 1.433 . S
C382 H378 0.929 . S
C382 C384 1.378 . S
C382 C386 1.350 . S
C383 C386 1.463 . S
C383 C388 1.350 . S
C383 N391 1.427 . S
C384 H375 0.930 . S
C384 C382 1.378 . S
C384 C385 1.367 . S
C385 C384 1.367 . S
C385 C387 1.433 . S
C386 C382 1.350 . S
C386 C383 1.463 . S
C386 N390 1.427 . S
C387 H377 0.929 . S
C387 C385 1.433 . S
C387 N390 1.384 . S
C388 H379 0.929 . S
C388 C380 1.378 . S
C388 C383 1.350 . S
C389 H376 0.929 . S
C389 C381 1.433 . S
C389 N391 1.384 . S
N390 C386 1.427 . S
N390 C387 1.384 . S
N391 C383 1.427 . S
N391 C389 1.384 . S
H392 C398 0.930 . S
H393 C402 0.930 . S
H394 C407 0.929 . S
H395 C405 0.929 . S
H396 C400 0.929 . S
H397 C406 0.929 . S
C398 H392 0.930 . S
C398 C399 1.367 . S
C398 C406 1.378 . S
C399 C398 1.367 . S
C399 C407 1.433 . S
C400 H396 0.929 . S
C400 C402 1.378 . S
C400 C404 1.350 . S
C401 C404 1.463 . S
C401 C406 1.350 . S
C401 N409 1.427 . S
C402 H393 0.930 . S
C402 C400 1.378 . S
C402 C403 1.367 . S
C403 C402 1.367 . S
C403 C405 1.433 . S
C404 C400 1.350 . S
C404 C401 1.463 . S
C404 N408 1.427 . S
C405 H395 0.929 . S
C405 C403 1.433 . S
C405 N408 1.384 . S
C406 H397 0.929 . S
C406 C398 1.378 . S
C406 C401 1.350 . S
C407 H394 0.929 . S
C407 C399 1.433 . S
C407 N409 1.384 . S
N408 C404 1.427 . S
N408 C405 1.384 . S
N409 C401 1.427 . S
N409 C407 1.384 . S
H410 C416 0.930 . S
H411 C420 0.930 . S
H412 C425 0.929 . S
H413 C423 0.929 . S
H414 C418 0.929 . S
H415 C424 0.929 . S
C416 H410 0.930 . S
C416 C417 1.367 . S
C416 C424 1.378 . S
C417 C416 1.367 . S
C417 C425 1.433 . S
C418 H414 0.929 . S
C418 C420 1.378 . S
C418 C422 1.350 . S
C419 C422 1.463 1_455 S
C419 C424 1.350 . S
C419 N427 1.427 . S
C420 H411 0.930 . S
C420 C418 1.378 . S
C420 C421 1.367 . S
C421 C420 1.367 . S
C421 C423 1.433 . S
C422 C418 1.350 . S
C422 C419 1.463 1_655 S
C422 N426 1.427 . S
C423 H413 0.929 . S
C423 C421 1.433 . S
C423 N426 1.384 . S
C424 H415 0.929 . S
C424 C416 1.378 . S
C424 C419 1.350 . S
C425 H412 0.929 . S
C425 C417 1.433 . S
C425 N427 1.384 . S
N426 C422 1.427 . S
N426 C423 1.384 . S
N427 C419 1.427 . S
N427 C425 1.384 . S
H428 C434 0.930 . S
H429 C438 0.930 . S
H430 C443 0.929 1_545 S
H431 C441 0.928 1_565 S
H432 C436 0.929 . S
H433 C442 0.929 . S
C434 H428 0.930 . S
C434 C435 1.367 . S
C434 C442 1.378 . S
C435 C434 1.367 . S
C435 C443 1.433 . S
C436 H432 0.929 . S
C436 C438 1.378 . S
C436 C440 1.350 . S
C437 C440 1.463 1_565 S
C437 C442 1.350 . S
C437 N445 1.427 1_565 S
C438 H429 0.930 . S
C438 C436 1.378 . S
C438 C439 1.367 . S
C439 C438 1.367 . S
C439 C441 1.436 . S
C440 C436 1.350 . S
C440 C437 1.463 1_545 S
C440 N444 1.427 1_545 S
C441 H431 0.928 1_545 S
C441 C439 1.436 . S
C441 N444 1.382 1_545 S
C442 H433 0.929 . S
C442 C434 1.378 . S
C442 C437 1.350 . S
C443 H430 0.929 1_565 S
C443 C435 1.433 . S
C443 N445 1.384 1_565 S
N444 C440 1.427 1_565 S
N444 C441 1.382 1_565 S
N445 C437 1.427 1_545 S
N445 C443 1.384 1_545 S
H446 C452 0.930 . S
H447 C456 0.930 . S
H448 C461 0.929 . S
H449 C459 0.929 . S
H450 C454 0.929 . S
H451 C460 0.929 . S
C452 H446 0.930 . S
C452 C453 1.367 . S
C452 C460 1.378 . S
C453 C452 1.367 . S
C453 C461 1.433 . S
C454 H450 0.929 . S
C454 C456 1.378 . S
C454 C458 1.350 . S
C455 C458 1.463 . S
C455 C460 1.350 . S
C455 N463 1.427 . S
C456 H447 0.930 . S
C456 C454 1.378 . S
C456 C457 1.367 . S
C457 C456 1.367 . S
C457 C459 1.433 . S
C458 C454 1.350 . S
C458 C455 1.463 . S
C458 N462 1.427 . S
C459 H449 0.929 . S
C459 C457 1.433 . S
C459 N462 1.384 . S
C460 H451 0.929 . S
C460 C452 1.378 . S
C460 C455 1.350 . S
C461 H448 0.929 . S
C461 C453 1.433 . S
C461 N463 1.384 . S
N462 C458 1.427 . S
N462 C459 1.384 . S
N463 C455 1.427 . S
N463 C461 1.384 . S
H464 C470 0.930 . S
H465 C474 0.930 . S
H466 C479 0.929 . S
H467 C477 0.929 . S
H468 C472 0.929 . S
H469 C478 0.929 . S
C470 H464 0.930 . S
C470 C471 1.367 . S
C470 C478 1.378 . S
C471 C470 1.367 . S
C471 C479 1.433 . S
C472 H468 0.929 . S
C472 C474 1.378 . S
C472 C476 1.350 . S
C473 C476 1.463 . S
C473 C478 1.350 . S
C473 N481 1.427 . S
C474 H465 0.930 . S
C474 C472 1.378 . S
C474 C475 1.367 . S
C475 C474 1.367 . S
C475 C477 1.433 . S
C476 C472 1.350 . S
C476 C473 1.463 . S
C476 N480 1.427 . S
C477 H467 0.929 . S
C477 C475 1.433 . S
C477 N480 1.384 . S
C478 H469 0.929 . S
C478 C470 1.378 . S
C478 C473 1.350 . S
C479 H466 0.929 . S
C479 C471 1.433 . S
C479 N481 1.384 . S
N480 C476 1.427 . S
N480 C477 1.384 . S
N481 C473 1.427 . S
N481 C479 1.384 . S
H482 C488 0.930 . S
H483 C492 0.930 . S
H484 C497 0.929 . S
H485 C495 0.929 . S
H486 C490 0.929 . S
H487 C496 0.929 . S
C488 H482 0.930 . S
C488 C489 1.367 . S
C488 C496 1.378 . S
C489 C488 1.367 . S
C489 C497 1.433 . S
C490 H486 0.929 . S
C490 C492 1.378 . S
C490 C494 1.350 . S
C491 C494 1.463 . S
C491 C496 1.350 . S
C491 N499 1.427 . S
C492 H483 0.930 . S
C492 C490 1.378 . S
C492 C493 1.367 . S
C493 C492 1.367 . S
C493 C495 1.433 . S
C494 C490 1.350 . S
C494 C491 1.463 . S
C494 N498 1.427 . S
C495 H485 0.929 . S
C495 C493 1.433 . S
C495 N498 1.384 . S
C496 H487 0.929 . S
C496 C488 1.378 . S
C496 C491 1.350 . S
C497 H484 0.929 . S
C497 C489 1.433 . S
C497 N499 1.384 . S
N498 C494 1.427 . S
N498 C495 1.384 . S
N499 C491 1.427 . S
N499 C497 1.384 . S
H500 C506 0.930 . S
H501 C510 0.930 . S
H502 C515 0.929 . S
H503 C513 0.929 . S
H504 C508 0.929 . S
H505 C514 0.929 . S
C506 H500 0.930 . S
C506 C507 1.367 . S
C506 C514 1.378 . S
C507 C506 1.367 . S
C507 C515 1.433 . S
C508 H504 0.929 . S
C508 C510 1.378 . S
C508 C512 1.350 . S
C509 C512 1.463 . S
C509 C514 1.350 . S
C509 N517 1.427 . S
C510 H501 0.930 . S
C510 C508 1.378 . S
C510 C511 1.367 . S
C511 C510 1.367 . S
C511 C513 1.433 . S
C512 C508 1.350 . S
C512 C509 1.463 . S
C512 N516 1.427 . S
C513 H503 0.929 . S
C513 C511 1.433 . S
C513 N516 1.384 . S
C514 H505 0.929 . S
C514 C506 1.378 . S
C514 C509 1.350 . S
C515 H502 0.929 . S
C515 C507 1.433 . S
C515 N517 1.384 . S
N516 C512 1.427 . S
N516 C513 1.384 . S
N517 C509 1.427 . S
N517 C515 1.384 . S
H518 C524 0.930 . S
H519 C528 0.930 . S
H520 C533 0.929 . S
H521 C531 0.929 . S
H522 C526 0.929 . S
H523 C532 0.929 . S
C524 H518 0.930 . S
C524 C525 1.367 . S
C524 C532 1.378 . S
C525 C524 1.367 . S
C525 C533 1.433 . S
C526 H522 0.929 . S
C526 C528 1.378 . S
C526 C530 1.350 . S
C527 C530 1.463 . S
C527 C532 1.350 . S
C527 N535 1.427 . S
C528 H519 0.930 . S
C528 C526 1.378 . S
C528 C529 1.367 . S
C529 C528 1.367 . S
C529 C531 1.433 . S
C530 C526 1.350 . S
C530 C527 1.463 . S
C530 N534 1.427 . S
C531 H521 0.929 . S
C531 C529 1.433 . S
C531 N534 1.384 . S
C532 H523 0.929 . S
C532 C524 1.378 . S
C532 C527 1.350 . S
C533 H520 0.929 . S
C533 C525 1.433 . S
C533 N535 1.384 . S
N534 C530 1.427 . S
N534 C531 1.384 . S
N535 C527 1.427 . S
N535 C533 1.384 . S
H536 C542 0.930 . S
H537 C546 0.930 . S
H538 C551 0.929 . S
H539 C549 0.929 . S
H540 C544 0.929 . S
H541 C550 0.929 . S
C542 H536 0.930 . S
C542 C543 1.367 . S
C542 C550 1.378 . S
C543 C542 1.367 . S
C543 C551 1.433 1_655 S
C544 H540 0.929 . S
C544 C546 1.378 . S
C544 C548 1.350 . S
C545 C548 1.463 1_656 S
C545 C550 1.350 . S
C545 N553 1.427 1_655 S
C546 H537 0.930 . S
C546 C544 1.378 . S
C546 C547 1.367 . S
C547 C546 1.367 . S
C547 C549 1.433 1_455 S
C548 C544 1.350 . S
C548 C545 1.463 1_454 S
C548 N552 1.427 1_455 S
C549 H539 0.929 . S
C549 C547 1.433 1_655 S
C549 N552 1.384 . S
C550 H541 0.929 . S
C550 C542 1.378 . S
C550 C545 1.350 . S
C551 H538 0.929 . S
C551 C543 1.433 1_455 S
C551 N553 1.384 . S
N552 C548 1.427 1_655 S
N552 C549 1.384 . S
N553 C545 1.427 1_455 S
N553 C551 1.384 . S
H554 C560 0.930 . S
H555 C564 0.930 . S
H556 C569 0.929 . S
H557 C567 0.929 . S
H558 C562 0.925 1_455 S
H559 C568 0.925 1_655 S
C560 H554 0.930 . S
C560 C561 1.367 1_565 S
C560 C568 1.381 . S
C561 C560 1.367 1_545 S
C561 C569 1.433 . S
C562 H558 0.925 1_655 S
C562 C564 1.381 . S
C562 C566 1.351 1_545 S
C563 C566 1.463 1_445 S
C563 C568 1.351 1_545 S
C563 N571 1.427 . S
C564 H555 0.930 . S
C564 C562 1.381 . S
C564 C565 1.367 1_545 S
C565 C564 1.367 1_565 S
C565 C567 1.433 . S
C566 C562 1.351 1_565 S
C566 C563 1.463 1_665 S
C566 N570 1.427 . S
C567 H557 0.929 . S
C567 C565 1.433 . S
C567 N570 1.384 . S
C568 H559 0.925 1_455 S
C568 C560 1.381 . S
C568 C563 1.351 1_565 S
C569 H556 0.929 . S
C569 C561 1.433 . S
C569 N571 1.384 . S
N570 C566 1.427 . S
N570 C567 1.384 . S
N571 C563 1.427 . S
N571 C569 1.384 . S
H572 C578 0.930 . S
H573 C582 0.930 . S
H574 C587 0.929 . S
H575 C585 0.929 . S
H576 C580 0.929 . S
H577 C586 0.929 . S
C578 H572 0.930 . S
C578 C579 1.367 1_545 S
C578 C586 1.378 . S
C579 C578 1.367 1_565 S
C579 C587 1.433 . S
C580 H576 0.929 . S
C580 C582 1.378 . S
C580 C584 1.350 1_565 S
C581 C584 1.463 1_566 S
C581 C586 1.350 1_565 S
C581 N589 1.427 . S
C582 H573 0.930 . S
C582 C580 1.378 . S
C582 C583 1.367 1_565 S
C583 C582 1.367 1_545 S
C583 C585 1.433 . S
C584 C580 1.350 1_545 S
C584 C581 1.463 1_544 S
C584 N588 1.427 . S
C585 H575 0.929 . S
C585 C583 1.433 . S
C585 N588 1.384 . S
C586 H577 0.929 . S
C586 C578 1.378 . S
C586 C581 1.350 1_545 S
C587 H574 0.929 . S
C587 C579 1.433 . S
C587 N589 1.384 . S
N588 C584 1.427 . S
N588 C585 1.384 . S
N589 C581 1.427 . S
N589 C587 1.384 . S
H590 C596 0.930 . S
H591 C600 0.930 . S
H592 C605 0.929 . S
H593 C603 0.929 . S
H594 C598 0.929 . S
H595 C604 0.929 . S
C596 H590 0.930 . S
C596 C597 1.367 . S
C596 C604 1.378 . S
C597 C596 1.367 . S
C597 C605 1.433 . S
C598 H594 0.929 . S
C598 C600 1.378 . S
C598 C602 1.350 . S
C599 C602 1.463 . S
C599 C604 1.350 . S
C599 N607 1.427 . S
C600 H591 0.930 . S
C600 C598 1.378 . S
C600 C601 1.367 . S
C601 C600 1.367 . S
C601 C603 1.433 . S
C602 C598 1.350 . S
C602 C599 1.463 . S
C602 N606 1.427 . S
C603 H593 0.929 . S
C603 C601 1.433 . S
C603 N606 1.384 . S
C604 H595 0.929 . S
C604 C596 1.378 . S
C604 C599 1.350 . S
C605 H592 0.929 . S
C605 C597 1.433 . S
C605 N607 1.384 . S
N606 C602 1.427 . S
N606 C603 1.384 . S
N607 C599 1.427 . S
N607 C605 1.384 . S
C183 C95 1.366 . S
C187 C7 1.333 . S
C201 C117 1.365 . S
C205 C28 1.344 . S
C219 C50 1.348 . S
C223 C138 1.357 . S
C237 C73 1.332 . S
C241 C160 1.366 . S
C255 C94 1.333 . S
C259 C6 1.360 . S
C273 C29 1.365 . S
C277 C116 1.344 . S
C291 C51 1.355 . S
C295 C139 1.344 . S
C309 C72 1.365 . S
C313 C161 1.332 . S
C327 C115 1.342 . S
C331 C71 1.355 . S
C345 C5 1.360 . S
C349 C141 1.348 . S
C363 C31 1.360 . S
C367 C163 1.333 . S
C381 C53 1.367 . S
C385 C93 1.334 . S
C399 C75 1.342 . S
C403 C119 1.355 . S
C417 C9 1.337 . S
C421 C137 1.368 . S
C435 C159 1.365 . S
C439 C27 1.343 . S
C453 C97 1.366 . S
C457 C49 1.332 . S
C471 C8 1.656 . S
C475 C48 1.659 . S
C489 C26 1.660 . S
C493 C74 1.656 . S
C507 C140 1.657 . S
C511 C92 1.658 . S
C525 C162 1.656 . S
C529 C114 1.659 . S
C543 C118 1.431 . S
C547 C4 1.431 . S
C561 C30 1.438 . S
C565 C136 1.438 . S
C579 C158 1.439 . S
C583 C52 1.439 . S
C597 C96 1.434 . S
C601 C70 1.434 . S
