# Generated by pormake.
# Topology umx, (4)-cn, num edge types: 1
# Building blocks:
#     Node 0, Type 0, BuildingBlock: QUQFOY_clean_sbu_1, # of connection points: 4
#     Node 1, Type 0, BuildingBlock: QUQFOY_clean_sbu_1, # of connection points: 4
#     Node 2, Type 0, BuildingBlock: QUQFOY_clean_sbu_1, # of connection points: 4
#     Node 3, Type 0, BuildingBlock: QUQFOY_clean_sbu_1, # of connection points: 4
#     Node 4, Type 0, BuildingBlock: QUQFOY_clean_sbu_1, # of connection points: 4
#     Node 5, Type 0, BuildingBlock: QUQFOY_clean_sbu_1, # of connection points: 4
#     Node 6, Type 0, BuildingBlock: QUQFOY_clean_sbu_1, # of connection points: 4
#     Node 7, Type 0, BuildingBlock: QUQFOY_clean_sbu_1, # of connection points: 4
#     Edge 8, Type (0, 0), BuildingBlock: UVAHIK_clean_linker_0, # of connection points: 2
#     Edge 9, Type (0, 0), BuildingBlock: UVAHIK_clean_linker_0, # of connection points: 2
#     Edge 10, Type (0, 0), BuildingBlock: UVAHIK_clean_linker_0, # of connection points: 2
#     Edge 11, Type (0, 0), BuildingBlock: UVAHIK_clean_linker_0, # of connection points: 2
#     Edge 12, Type (0, 0), BuildingBlock: UVAHIK_clean_linker_0, # of connection points: 2
#     Edge 13, Type (0, 0), BuildingBlock: UVAHIK_clean_linker_0, # of connection points: 2
#     Edge 14, Type (0, 0), BuildingBlock: UVAHIK_clean_linker_0, # of connection points: 2
#     Edge 15, Type (0, 0), BuildingBlock: UVAHIK_clean_linker_0, # of connection points: 2
#     Edge 16, Type (0, 0), BuildingBlock: UVAHIK_clean_linker_0, # of connection points: 2
#     Edge 17, Type (0, 0), BuildingBlock: UVAHIK_clean_linker_0, # of connection points: 2
#     Edge 18, Type (0, 0), BuildingBlock: UVAHIK_clean_linker_0, # of connection points: 2
#     Edge 19, Type (0, 0), BuildingBlock: UVAHIK_clean_linker_0, # of connection points: 2
#     Edge 20, Type (0, 0), BuildingBlock: UVAHIK_clean_linker_0, # of connection points: 2
#     Edge 21, Type (0, 0), BuildingBlock: UVAHIK_clean_linker_0, # of connection points: 2
#     Edge 22, Type (0, 0), BuildingBlock: UVAHIK_clean_linker_0, # of connection points: 2
#     Edge 23, Type (0, 0), BuildingBlock: UVAHIK_clean_linker_0, # of connection points: 2
# Relax obj value: 0.064
# Max RMSD: 0.141
# Mean RMSD: 0.141
data_MOF--net-umx--node1-QUQFOY_clean_sbu_1--edge1-UVAHIK_clean_linker_0
_symmetry_space_group_name_H-M    P1
_symmetry_Int_Tables_number       1
_symmetry_cell_setting            triclinic
loop_
_symmetry_equiv_pos_as_xyz
'x, y, z'
_cell_length_a     52.105184
_cell_length_b     52.108392
_cell_length_c     37.423827
_cell_angle_alpha  89.97809
_cell_angle_beta   90.027161
_cell_angle_gamma 90.013802
loop_
_atom_site_label
_atom_site_type_symbol
_atom_site_fract_x
_atom_site_fract_y
_atom_site_fract_z
_atom_type_partial_charge
O0 O 0.19601 0.45156 0.07408 0.0
Cd1 Cd 0.1818 0.43484 0.02822 0.0
Cd2 Cd 0.19497 0.48074 1.00152 0.0
O3 O 0.21266 0.48656 0.05035 0.0
O4 O 0.18329 0.39712 0.03788 0.0
O5 O 0.20714 0.4164 0.99702 0.0
C6 C 0.20136 0.39576 0.01438 0.0
C7 C 0.21552 0.48514 0.94648 0.0
C8 C 0.2089 0.47215 0.07729 0.0
C9 C 0.13861 0.46797 1.00384 0.0
O10 O 0.15572 0.48516 1.00015 0.0
O11 O 0.14496 0.44517 0.01239 0.0
O12 O 0.20904 0.50498 0.96506 0.0
O13 O 0.21152 0.46273 0.96018 0.0
O14 O 0.56245 0.19439 0.57868 0.0
Cd15 Cd 0.57707 0.18082 0.53111 0.0
Cd16 Cd 0.53002 0.19423 0.50876 0.0
O17 O 0.52652 0.21143 0.55835 0.0
O18 O 0.61519 0.18263 0.53709 0.0
O19 O 0.59353 0.20699 0.4992 0.0
C20 C 0.61507 0.20124 0.51431 0.0
C21 C 0.52321 0.21516 0.45443 0.0
C22 C 0.54211 0.20733 0.5839 0.0
C23 C 0.54287 0.13793 0.50853 0.0
O24 O 0.52549 0.15502 0.5071 0.0
O25 O 0.56604 0.14424 0.51496 0.0
O26 O 0.50424 0.2088 0.47477 0.0
O27 O 0.54618 0.21087 0.46599 0.0
O28 O 0.81722 0.56263 0.08168 0.0
Cd29 Cd 0.82947 0.57677 0.03314 0.0
Cd30 Cd 0.81631 0.52926 0.01235 0.0
O31 O 0.79952 0.52672 0.06235 0.0
O32 O 0.82694 0.61507 0.03668 0.0
O33 O 0.80172 0.59142 1.00231 0.0
C34 C 0.80748 0.61361 0.01541 0.0
C35 C 0.79514 0.522 0.95832 0.0
C36 C 0.80415 0.54246 0.08755 0.0
C37 C 0.87232 0.54266 0.01002 0.0
O38 O 0.85552 0.52497 0.01021 0.0
O39 O 0.86573 0.56589 0.01541 0.0
O40 O 0.80148 0.50317 0.97894 0.0
O41 O 0.79953 0.54504 0.96948 0.0
O42 O 0.45263 0.81379 0.57673 0.0
Cd43 Cd 0.4357 0.82785 0.53091 0.0
Cd44 Cd 0.48178 0.81529 0.50432 0.0
O45 O 0.48788 0.79766 0.55309 0.0
O46 O 0.39804 0.82624 0.54094 0.0
O47 O 0.41713 0.80247 0.49987 0.0
C48 C 0.39657 0.80821 0.51741 0.0
C49 C 0.4857 0.79478 0.44923 0.0
C50 C 0.4734 0.8012 0.58 0.0
C51 C 0.46843 0.87143 0.50658 0.0
O52 O 0.48588 0.85458 0.50304 0.0
O53 O 0.4457 0.86476 0.51497 0.0
O54 O 0.50571 0.80129 0.46746 0.0
O55 O 0.46341 0.79874 0.46331 0.0
O56 O 0.19593 0.56159 0.44821 0.0
Cd57 Cd 0.18232 0.57615 0.49583 0.0
Cd58 Cd 0.19528 0.52891 0.51757 0.0
O59 O 0.21255 0.52536 0.46809 0.0
O60 O 0.18342 0.61417 0.48885 0.0
O61 O 0.20811 0.59361 0.52748 0.0
C62 C 0.20193 0.6148 0.51175 0.0
C63 C 0.21614 0.5225 0.57197 0.0
C64 C 0.20867 0.54117 0.44275 0.0
C65 C 0.13916 0.54205 0.51811 0.0
O66 O 0.15606 0.52447 0.51917 0.0
O67 O 0.14571 0.5652 0.512 0.0
O68 O 0.20986 0.50338 0.55182 0.0
O69 O 0.21181 0.5454 0.56015 0.0
O70 O 0.45134 0.19605 0.95242 0.0
Cd71 Cd 0.43455 0.18212 0.99842 0.0
Cd72 Cd 0.4804 0.19549 0.02508 0.0
O73 O 0.48622 0.21298 0.97611 0.0
O74 O 0.39683 0.18361 0.98875 0.0
O75 O 0.41616 0.20767 0.02933 0.0
C76 C 0.3955 0.20181 0.01206 0.0
C77 C 0.48483 0.21612 0.08007 0.0
C78 C 0.47188 0.209 0.94915 0.0
C79 C 0.46769 0.13911 0.02334 0.0
O80 O 0.48488 0.15626 0.02674 0.0
O81 O 0.44487 0.14539 0.01477 0.0
O82 O 0.50466 0.20966 0.06145 0.0
O83 O 0.46241 0.2121 0.0664 0.0
O84 O 0.81527 0.45198 0.45584 0.0
Cd85 Cd 0.82935 0.43488 0.50151 0.0
Cd86 Cd 0.81641 0.48071 0.52887 0.0
O87 O 0.79876 0.48686 0.48007 0.0
O88 O 0.82713 0.39711 0.49223 0.0
O89 O 0.80364 0.41714 0.53278 0.0
C90 C 0.80898 0.39629 0.51568 0.0
C91 C 0.7959 0.48486 0.58402 0.0
C92 C 0.80247 0.47264 0.45292 0.0
C93 C 0.87271 0.46765 0.52619 0.0
O94 O 0.85569 0.48489 0.53014 0.0
O95 O 0.86624 0.44493 0.51744 0.0
O96 O 0.80245 0.50479 0.56566 0.0
O97 O 0.79982 0.46253 0.57006 0.0
O98 O 0.56227 0.81769 0.95158 0.0
Cd99 Cd 0.57648 0.82994 1.00006 0.0
Cd100 Cd 0.52906 0.81682 0.02095 0.0
O101 O 0.5264 0.79996 0.97102 0.0
O102 O 0.61475 0.82764 0.996 0.0
O103 O 0.59152 0.80218 0.03057 0.0
C104 C 0.61356 0.80808 0.01711 0.0
C105 C 0.52201 0.79558 0.07496 0.0
C106 C 0.5421 0.80458 0.94577 0.0
C107 C 0.54242 0.87283 0.02311 0.0
O108 O 0.52474 0.85603 0.02302 0.0
O109 O 0.56565 0.86623 0.01772 0.0
O110 O 0.5031 0.80194 0.05446 0.0
O111 O 0.54501 0.80004 0.0637 0.0
C112 C 0.22436 0.50561 0.12053 0.0
C113 C 0.21789 0.47995 0.11323 0.0
C114 C 0.22952 0.51344 0.15557 0.0
C115 C 0.24529 0.4904 0.24657 0.0
H116 H 0.20407 0.54814 0.27753 0.0
C117 C 0.22187 0.50995 0.39515 0.0
C118 C 0.21747 0.53536 0.40605 0.0
C119 C 0.22687 0.50436 0.35923 0.0
C120 C 0.21622 0.53234 0.26938 0.0
H121 H 0.21334 0.4421 0.13662 0.0
H122 H 0.22255 0.45575 0.19754 0.0
H123 H 0.20494 0.53654 0.21473 0.0
H124 H 0.21668 0.57499 0.38844 0.0
H125 H 0.22634 0.56542 0.3263 0.0
H126 H 0.25643 0.48605 0.30132 0.0
C127 C 0.22356 0.46982 0.17627 0.0
C128 C 0.21664 0.52567 0.23326 0.0
C129 C 0.2181 0.46205 0.14137 0.0
C130 C 0.21962 0.55517 0.38076 0.0
C131 C 0.225 0.54964 0.34504 0.0
C132 C 0.24509 0.49724 0.28274 0.0
C133 C 0.22867 0.4957 0.18388 0.0
C134 C 0.23081 0.50437 0.22154 0.0
C135 C 0.22792 0.52411 0.33355 0.0
C136 C 0.23018 0.51805 0.29472 0.0
H137 H 0.22437 0.51985 0.09944 0.0
H138 H 0.23362 0.53349 0.16067 0.0
H139 H 0.25655 0.474 0.23821 0.0
H140 H 0.22025 0.49427 0.41402 0.0
H141 H 0.22874 0.48444 0.35143 0.0
C142 C 0.55584 0.21828 0.64601 0.0
C143 C 0.53615 0.21617 0.62053 0.0
C144 C 0.55015 0.22372 0.68166 0.0
C145 C 0.49746 0.24406 0.7434 0.0
H146 H 0.53653 0.2042 0.812 0.0
C147 C 0.46191 0.21776 0.8849 0.0
C148 C 0.47974 0.21777 0.91313 0.0
C149 C 0.46974 0.22301 0.84997 0.0
C150 C 0.52572 0.21582 0.79329 0.0
H151 H 0.4951 0.21905 0.61215 0.0
H152 H 0.48499 0.22764 0.67463 0.0
H153 H 0.54834 0.20305 0.74929 0.0
H154 H 0.5196 0.22442 0.92701 0.0
H155 H 0.53336 0.23328 0.86573 0.0
H156 H 0.47407 0.2557 0.78768 0.0
C157 C 0.50494 0.2257 0.66703 0.0
C158 C 0.53252 0.21523 0.75722 0.0
C159 C 0.5107 0.22065 0.63118 0.0
C160 C 0.5054 0.22424 0.90586 0.0
C161 C 0.51331 0.22918 0.87078 0.0
C162 C 0.49049 0.2444 0.77952 0.0
C163 C 0.52456 0.22673 0.69291 0.0
C164 C 0.51833 0.22911 0.73167 0.0
C165 C 0.49564 0.22812 0.8424 0.0
C166 C 0.50439 0.23004 0.80476 0.0
H167 H 0.57569 0.21527 0.63852 0.0
H168 H 0.56584 0.22506 0.70055 0.0
H169 H 0.48634 0.25533 0.72466 0.0
H170 H 0.44196 0.21299 0.88962 0.0
H171 H 0.45572 0.22185 0.82865 0.0
C172 C 0.78771 0.50661 0.40998 0.0
C173 C 0.79358 0.48078 0.41708 0.0
C174 C 0.78276 0.51472 0.37499 0.0
C175 C 0.76646 0.49253 0.28384 0.0
H176 H 0.80961 0.54898 0.25323 0.0
C177 C 0.79042 0.5116 0.13536 0.0
C178 C 0.79563 0.53686 0.12446 0.0
C179 C 0.78538 0.50612 0.17129 0.0
C180 C 0.79694 0.53357 0.26128 0.0
H181 H 0.79724 0.44294 0.39343 0.0
H182 H 0.78834 0.45706 0.33261 0.0
H183 H 0.80825 0.53726 0.31599 0.0
H184 H 0.79793 0.57641 0.14216 0.0
H185 H 0.78819 0.56706 0.20437 0.0
H186 H 0.75525 0.48869 0.22906 0.0
C187 C 0.78767 0.47105 0.35398 0.0
C188 C 0.79622 0.52683 0.29737 0.0
C189 C 0.79294 0.46301 0.38882 0.0
C190 C 0.79435 0.55668 0.14983 0.0
C191 C 0.78892 0.55128 0.18558 0.0
C192 C 0.76693 0.49946 0.24771 0.0
C193 C 0.7832 0.49708 0.34655 0.0
C194 C 0.78136 0.50596 0.30896 0.0
C195 C 0.78508 0.52584 0.19703 0.0
C196 C 0.78255 0.51979 0.23583 0.0
H197 H 0.78805 0.52076 0.43117 0.0
H198 H 0.77917 0.53488 0.37003 0.0
H199 H 0.75466 0.47647 0.29211 0.0
H200 H 0.79137 0.4959 0.11643 0.0
H201 H 0.78281 0.48627 0.17905 0.0
C202 C 0.51126 0.79078 0.89799 0.0
C203 C 0.53652 0.79595 0.90892 0.0
C204 C 0.50582 0.78558 0.86208 0.0
C205 C 0.53349 0.79661 0.77212 0.0
H206 H 0.47643 0.75424 0.74139 0.0
C207 C 0.50715 0.7866 0.62337 0.0
C208 C 0.48135 0.79242 0.61597 0.0
C209 C 0.51508 0.78181 0.65848 0.0
C210 C 0.49247 0.76607 0.74963 0.0
H211 H 0.57611 0.79802 0.89135 0.0
H212 H 0.56684 0.78802 0.82921 0.0
H213 H 0.48844 0.75519 0.80452 0.0
H214 H 0.44338 0.79615 0.63923 0.0
H215 H 0.45721 0.78757 0.70026 0.0
H216 H 0.53739 0.80759 0.71731 0.0
C217 C 0.55102 0.7889 0.84792 0.0
C218 C 0.49928 0.76674 0.78581 0.0
C219 C 0.55638 0.79448 0.88364 0.0
C220 C 0.46344 0.79189 0.64407 0.0
C221 C 0.47131 0.7868 0.67903 0.0
C222 C 0.52687 0.79569 0.736 0.0
C223 C 0.52559 0.78509 0.83642 0.0
C224 C 0.51961 0.78239 0.79763 0.0
C225 C 0.49731 0.78239 0.68675 0.0
C226 C 0.50602 0.78078 0.72444 0.0
H227 H 0.49554 0.79186 0.91686 0.0
H228 H 0.48597 0.78304 0.85428 0.0
H229 H 0.5489 0.8093 0.78013 0.0
H230 H 0.5214 0.78685 0.60232 0.0
H231 H 0.53523 0.77825 0.66367 0.0
C232 C 0.78187 0.46565 0.6423 0.0
C233 C 0.78646 0.48749 0.6212 0.0
C234 C 0.77652 0.4681 0.67878 0.0
C235 C 0.75871 0.51485 0.74989 0.0
H236 H 0.79874 0.46969 0.8105 0.0
C237 C 0.78276 0.53769 0.89735 0.0
C238 C 0.78558 0.51726 0.92159 0.0
C239 C 0.7776 0.53293 0.86126 0.0
C240 C 0.78698 0.48216 0.79412 0.0
H241 H 0.78766 0.52911 0.62151 0.0
H242 H 0.77852 0.53335 0.68504 0.0
H243 H 0.7989 0.46329 0.74623 0.0
H244 H 0.78353 0.4759 0.92734 0.0
H245 H 0.77405 0.46764 0.8646 0.0
H246 H 0.74731 0.5341 0.79793 0.0
C247 C 0.77887 0.51432 0.67344 0.0
C248 C 0.78709 0.47848 0.75715 0.0
C249 C 0.78425 0.51187 0.63698 0.0
C250 C 0.78167 0.49207 0.90934 0.0
C251 C 0.77642 0.48732 0.87328 0.0
C252 C 0.75857 0.51851 0.78696 0.0
C253 C 0.77559 0.49244 0.69498 0.0
C254 C 0.77328 0.495 0.7345 0.0
C255 C 0.77504 0.50764 0.84858 0.0
C256 C 0.77302 0.50244 0.80951 0.0
H257 H 0.7833 0.44658 0.63096 0.0
H258 H 0.77367 0.45087 0.69448 0.0
H259 H 0.74759 0.52772 0.73325 0.0
H260 H 0.78568 0.55733 0.90589 0.0
H261 H 0.77689 0.54906 0.84303 0.0
C262 C 0.53785 0.78303 0.13578 0.0
C263 C 0.51737 0.78588 0.11163 0.0
C264 C 0.53317 0.77766 0.17183 0.0
C265 C 0.48249 0.78653 0.23919 0.0
H266 H 0.5282 0.74688 0.29951 0.0
C267 C 0.46632 0.78084 0.39101 0.0
C268 C 0.48822 0.78536 0.41202 0.0
C269 C 0.46867 0.77557 0.3545 0.0
C270 C 0.51529 0.75807 0.28302 0.0
H271 H 0.476 0.78369 0.10597 0.0
H272 H 0.46788 0.77386 0.16865 0.0
H273 H 0.53449 0.74697 0.23481 0.0
H274 H 0.52984 0.78652 0.41153 0.0
H275 H 0.53392 0.77755 0.34794 0.0
H276 H 0.46368 0.79817 0.28726 0.0
C277 C 0.48754 0.77636 0.15993 0.0
C278 C 0.5189 0.75813 0.24594 0.0
C279 C 0.49221 0.78181 0.12392 0.0
C280 C 0.51256 0.78315 0.39612 0.0
C281 C 0.51491 0.77787 0.35963 0.0
C282 C 0.47886 0.78643 0.27618 0.0
C283 C 0.50791 0.77493 0.18455 0.0
C284 C 0.50277 0.77269 0.2236 0.0
C285 C 0.49298 0.77467 0.33817 0.0
C286 C 0.49544 0.77253 0.29863 0.0
H287 H 0.55747 0.78607 0.12721 0.0
H288 H 0.54932 0.77692 0.19002 0.0
H289 H 0.46997 0.79835 0.22298 0.0
H290 H 0.44728 0.78227 0.40245 0.0
H291 H 0.4514 0.77277 0.33886 0.0
C292 C 0.22692 0.51249 0.89372 0.0
C293 C 0.22494 0.48802 0.90932 0.0
C294 C 0.23221 0.51516 0.85728 0.0
C295 C 0.2243 0.47951 0.77334 0.0
H296 H 0.26313 0.53591 0.73273 0.0
C297 C 0.23003 0.49308 0.62127 0.0
C298 C 0.22561 0.51815 0.60883 0.0
C299 C 0.23522 0.48854 0.65738 0.0
C300 C 0.25214 0.52011 0.74366 0.0
H301 H 0.22846 0.44719 0.89924 0.0
H302 H 0.23801 0.45186 0.83575 0.0
H303 H 0.263 0.52934 0.7974 0.0
H304 H 0.22452 0.55824 0.62426 0.0
H305 H 0.23324 0.55031 0.6873 0.0
H306 H 0.21281 0.47064 0.71996 0.0
C307 C 0.235 0.46899 0.85158 0.0
C308 C 0.25208 0.51633 0.78072 0.0
C309 C 0.2297 0.46632 0.88804 0.0
C310 C 0.22785 0.5387 0.63296 0.0
C311 C 0.23296 0.53414 0.66913 0.0
C312 C 0.22434 0.48328 0.73638 0.0
C313 C 0.23567 0.49342 0.83556 0.0
C314 C 0.23787 0.49618 0.79605 0.0
C315 C 0.23602 0.50894 0.68197 0.0
C316 C 0.23798 0.50382 0.72106 0.0
H317 H 0.22337 0.52962 0.90934 0.0
H318 H 0.23236 0.53425 0.84584 0.0
H319 H 0.21274 0.46409 0.78419 0.0
H320 H 0.22864 0.47682 0.60335 0.0
H321 H 0.238 0.46893 0.66619 0.0
C322 C 0.5391 0.22721 0.39341 0.0
C323 C 0.51864 0.2247 0.41765 0.0
C324 C 0.53439 0.23245 0.35731 0.0
C325 C 0.48339 0.22388 0.29021 0.0
H326 H 0.52906 0.2632 0.22944 0.0
C327 C 0.46605 0.23001 0.13867 0.0
C328 C 0.48774 0.22547 0.11726 0.0
C329 C 0.46877 0.23515 0.17518 0.0
C330 C 0.51616 0.2521 0.24605 0.0
H331 H 0.47731 0.22734 0.42339 0.0
H332 H 0.46915 0.23694 0.36067 0.0
H333 H 0.53578 0.26297 0.29408 0.0
H334 H 0.52935 0.22412 0.11708 0.0
H335 H 0.53406 0.23284 0.18064 0.0
H336 H 0.46415 0.21246 0.24235 0.0
C337 C 0.4888 0.23428 0.36934 0.0
C338 C 0.52002 0.25195 0.2831 0.0
C339 C 0.4935 0.22895 0.40538 0.0
C340 C 0.51223 0.22752 0.13279 0.0
C341 C 0.51494 0.23265 0.16927 0.0
C342 C 0.47952 0.22404 0.25327 0.0
C343 C 0.50912 0.23538 0.34465 0.0
C344 C 0.50388 0.23755 0.3056 0.0
C345 C 0.49323 0.23586 0.19112 0.0
C346 C 0.49605 0.23785 0.23064 0.0
H347 H 0.5587 0.22402 0.40196 0.0
H348 H 0.5505 0.23296 0.33906 0.0
H349 H 0.47085 0.21217 0.30655 0.0
H350 H 0.4469 0.2287 0.12753 0.0
H351 H 0.45165 0.23797 0.1911 0.0
C352 C 0.907 0.50973 1.00341 0.0
C353 C 0.89971 0.53571 1.00493 0.0
C354 C 0.93279 0.5028 1.00042 0.0
C355 C 0.99833 0.52792 0.01595 0.0
H356 H 0.01849 0.46786 0.96154 0.0
C357 C 0.10441 0.501 0.99407 0.0
C358 C 0.11119 0.47518 0.99979 0.0
C359 C 0.07868 0.5084 0.99246 0.0
C360 C 0.01311 0.48456 0.97704 0.0
H361 H 0.91395 0.57479 1.00363 0.0
H362 H 0.95903 0.56271 0.99762 0.0
H363 H 0.97366 0.48141 0.96181 0.0
H364 H 0.09606 0.43678 0.00737 0.0
H365 H 0.05097 0.44976 1.00432 0.0
H366 H 0.03786 0.53113 0.03093 0.0
C367 C 0.94476 0.54766 0.99948 0.0
C368 C 0.98741 0.49234 0.97726 0.0
C369 C 0.91889 0.55461 1.0027 0.0
C370 C 0.09153 0.45682 1.00295 0.0
C371 C 0.06571 0.46423 1.00107 0.0
C372 C 0.02404 0.52025 0.01549 0.0
C373 C 0.95206 0.52163 0.99862 0.0
C374 C 0.97964 0.51403 0.99693 0.0
C375 C 0.05903 0.49017 0.99629 0.0
C376 C 0.03171 0.49841 0.99619 0.0
H377 H 0.8928 0.4946 1.00522 0.0
H378 H 0.93763 0.48259 1.00046 0.0
H379 H 0.99306 0.5444 0.03194 0.0
H380 H 0.11899 0.5157 0.99139 0.0
H381 H 0.07416 0.52846 0.98823 0.0
C382 C 0.45637 0.91821 0.50401 0.0
C383 C 0.47522 0.89895 0.50248 0.0
C384 C 0.46325 0.94415 0.50182 0.0
C385 C 0.51722 0.98759 0.47617 0.0
H386 H 0.48199 0.0359 0.53771 0.0
C387 C 0.55409 0.09097 0.50419 0.0
C388 C 0.53554 0.11057 0.50418 0.0
C389 C 0.54667 0.06517 0.50178 0.0
C390 C 0.49186 0.02269 0.52011 0.0
H391 H 0.51612 0.89197 0.49712 0.0
H392 H 0.52808 0.93691 0.49418 0.0
H393 H 0.46875 0.99108 0.5372 0.0
H394 H 0.49463 0.11831 0.50096 0.0
H395 H 0.48187 0.07353 0.4969 0.0
H396 H 0.5407 0.01928 0.45976 0.0
C397 C 0.50792 0.93211 0.4963 0.0
C398 C 0.4842 0.99698 0.51969 0.0
C399 C 0.50103 0.90625 0.49822 0.0
C400 C 0.50948 0.10377 0.50116 0.0
C401 C 0.5021 0.07807 0.49904 0.0
C402 C 0.52502 0.01328 0.47682 0.0
C403 C 0.48917 0.95145 0.4983 0.0
C404 C 0.49679 0.97905 0.49776 0.0
C405 C 0.52056 0.05845 0.49962 0.0
C406 C 0.51242 0.03111 0.4988 0.0
H407 H 0.4363 0.91327 0.5071 0.0
H408 H 0.44823 0.95848 0.50288 0.0
H409 H 0.52712 0.97445 0.4585 0.0
H410 H 0.57431 0.09552 0.50647 0.0
H411 H 0.56134 0.05045 0.5025 0.0
C412 C 0.09254 0.55395 0.52465 0.0
C413 C 0.11175 0.53506 0.52281 0.0
C414 C 0.06667 0.54697 0.52785 0.0
C415 C 0.02412 0.49173 0.55096 0.0
H416 H 0.97346 0.5303 0.49737 0.0
C417 C 0.91975 0.45634 0.52666 0.0
C418 C 0.90018 0.47476 0.53 0.0
C419 C 0.94561 0.46367 0.52818 0.0
C420 C 0.98735 0.51948 0.51278 0.0
H421 H 0.11872 0.49397 0.52307 0.0
H422 H 0.07388 0.48191 0.52776 0.0
H423 H 0.01828 0.54351 0.49574 0.0
H424 H 0.89258 0.51531 0.53836 0.0
H425 H 0.93746 0.52795 0.54087 0.0
H426 H 0.99308 0.46737 0.56727 0.0
C427 C 0.0787 0.50213 0.52754 0.0
C428 C 0.01306 0.52711 0.51197 0.0
C429 C 0.10449 0.50908 0.52459 0.0
C430 C 0.90708 0.50057 0.53557 0.0
C431 C 0.93284 0.50789 0.5368 0.0
C432 C 0.99841 0.48398 0.55152 0.0
C433 C 0.0594 0.52094 0.52907 0.0
C434 C 0.03183 0.51331 0.53098 0.0
C435 C 0.9524 0.4896 0.53276 0.0
C436 C 0.97974 0.49777 0.53242 0.0
H437 H 0.09746 0.57413 0.52352 0.0
H438 H 0.05239 0.56201 0.5295 0.0
H439 H 0.03793 0.48087 0.56643 0.0
H440 H 0.91512 0.43631 0.52235 0.0
H441 H 0.96028 0.44916 0.52479 0.0
C442 C 0.50949 0.90752 0.02957 0.0
C443 C 0.53546 0.90025 0.0279 0.0
C444 C 0.50255 0.93334 0.03201 0.0
C445 C 0.52754 0.99864 0.01431 0.0
H446 H 0.46773 0.01963 0.06865 0.0
C447 C 0.50076 0.10501 0.03345 0.0
C448 C 0.47491 0.11173 0.02783 0.0
C449 C 0.50815 0.0793 0.03565 0.0
C450 C 0.48436 0.01401 0.05316 0.0
H451 H 0.57454 0.91454 0.02846 0.0
H452 H 0.56245 0.95967 0.03353 0.0
H453 H 0.4813 0.9748 0.06962 0.0
H454 H 0.43646 0.09654 0.02101 0.0
H455 H 0.44942 0.05149 0.02507 0.0
H456 H 0.53065 0.03791 0.9981 0.0
C457 C 0.5474 0.94536 0.03218 0.0
C458 C 0.49215 0.98831 0.05365 0.0
C459 C 0.55437 0.91946 0.02952 0.0
C460 C 0.45652 0.09205 0.02532 0.0
C461 C 0.46393 0.06626 0.02779 0.0
C462 C 0.51985 0.02434 0.01405 0.0
C463 C 0.52137 0.95265 0.0331 0.0
C464 C 0.51376 0.98024 0.03403 0.0
C465 C 0.48988 0.05962 0.03252 0.0
C466 C 0.49811 0.0323 0.03332 0.0
H467 H 0.49437 0.89329 0.02824 0.0
H468 H 0.48233 0.93816 0.03206 0.0
H469 H 0.54395 0.99312 0.99833 0.0
H470 H 0.51548 0.11961 0.03563 0.0
H471 H 0.52823 0.07483 0.0398 0.0
C472 C 0.21247 0.3509 0.03294 0.0
C473 C 0.21666 0.37196 0.01016 0.0
C474 C 0.22911 0.32984 0.03255 0.0
C475 C 0.2797 0.29736 0.97984 0.0
H476 H 0.30352 0.27375 0.07243 0.0
C477 C 0.37069 0.23771 0.04042 0.0
C478 C 0.37171 0.21714 0.01618 0.0
C479 C 0.34954 0.25426 0.0409 0.0
C480 C 0.29706 0.28012 0.04638 0.0
H481 H 0.24098 0.38685 0.96795 0.0
H482 H 0.26992 0.35005 0.96715 0.0
H483 H 0.27062 0.30701 0.06905 0.0
H484 H 0.35076 0.19721 0.97444 0.0
H485 H 0.31388 0.22601 0.97541 0.0
H486 H 0.30662 0.27095 0.95718 0.0
C487 C 0.25374 0.3498 0.98529 0.0
C488 C 0.27802 0.299 0.04443 0.0
C489 C 0.23717 0.37094 0.98581 0.0
C490 C 0.35064 0.21289 0.99342 0.0
C491 C 0.32957 0.22952 0.99376 0.0
C492 C 0.29862 0.27837 0.9818 0.0
C493 C 0.25023 0.32927 0.00922 0.0
C494 C 0.2693 0.30804 0.01113 0.0
C495 C 0.32899 0.25069 0.01701 0.0
C496 C 0.30772 0.26971 0.0151 0.0
H497 H 0.19683 0.35102 0.05199 0.0
H498 H 0.22565 0.31415 0.05093 0.0
H499 H 0.27328 0.30378 0.9538 0.0
H500 H 0.38661 0.24157 0.05826 0.0
H501 H 0.34978 0.27049 0.05898 0.0
C502 C 0.77158 0.37313 0.54279 0.0
C503 C 0.79301 0.37294 0.52001 0.0
C504 C 0.75426 0.35263 0.54285 0.0
C505 C 0.7449 0.28497 0.51444 0.0
H506 H 0.6731 0.3045 0.51289 0.0
C507 C 0.63708 0.23934 0.4872 0.0
C508 C 0.63821 0.21734 0.50887 0.0
C509 C 0.65748 0.25679 0.48656 0.0
C510 C 0.69305 0.29869 0.51292 0.0
H511 H 0.81373 0.35042 0.48073 0.0
H512 H 0.78348 0.3147 0.4808 0.0
H513 H 0.70593 0.33747 0.51806 0.0
H514 H 0.66229 0.19573 0.5454 0.0
H515 H 0.6978 0.22618 0.54433 0.0
H516 H 0.73188 0.24613 0.50881 0.0
C517 C 0.7801 0.33065 0.49873 0.0
C518 C 0.71189 0.3176 0.51646 0.0
C519 C 0.79742 0.35119 0.49863 0.0
C520 C 0.66078 0.21249 0.52839 0.0
C521 C 0.6812 0.22993 0.52771 0.0
C522 C 0.726 0.266 0.51103 0.0
C523 C 0.75796 0.33143 0.52016 0.0
C524 C 0.73805 0.31101 0.51731 0.0
C525 C 0.6795 0.25264 0.50755 0.0
C526 C 0.69983 0.27266 0.51015 0.0
H527 H 0.76765 0.38953 0.55971 0.0
H528 H 0.73765 0.35361 0.5602 0.0
H529 H 0.76486 0.27923 0.51517 0.0
H530 H 0.62004 0.24362 0.47172 0.0
H531 H 0.65576 0.27384 0.47018 0.0
C532 C 0.79862 0.66089 0.01904 0.0
C533 C 0.7906 0.63608 0.0095 0.0
C534 C 0.78142 0.68152 0.01786 0.0
C535 C 0.71563 0.70012 0.98586 0.0
H536 H 0.72088 0.7511 0.06106 0.0
C537 C 0.63255 0.76551 0.03285 0.0
C538 C 0.63609 0.79114 0.02216 0.0
C539 C 0.65299 0.74817 0.03193 0.0
C540 C 0.71936 0.73702 0.03987 0.0
H541 H 0.75839 0.61354 0.99056 0.0
H542 H 0.72827 0.64898 0.98982 0.0
H543 H 0.75364 0.71772 0.05602 0.0
H544 H 0.66414 0.819 1.00402 0.0
H545 H 0.70019 0.78866 1.00374 0.0
H546 H 0.68051 0.71887 0.97119 0.0
C547 C 0.74796 0.65295 0.99718 0.0
C548 C 0.7382 0.718 0.03667 0.0
C549 C 0.76526 0.63247 0.99773 0.0
C550 C 0.66084 0.79939 0.01244 0.0
C551 C 0.68142 0.78211 0.01223 0.0
C552 C 0.69659 0.71881 0.98957 0.0
C553 C 0.75564 0.67774 0.00775 0.0
C554 C 0.73651 0.6991 0.00977 0.0
C555 C 0.67745 0.75625 0.02108 0.0
C556 C 0.69823 0.73726 0.01671 0.0
H557 H 0.81807 0.66429 0.02808 0.0
H558 H 0.78831 0.70036 0.02537 0.0
H559 H 0.71385 0.68643 0.96426 0.0
H560 H 0.61371 0.7585 0.04023 0.0
H561 H 0.6496 0.72826 0.03888 0.0
C562 C 0.3519 0.79685 0.53652 0.0
C563 C 0.37274 0.79293 0.51329 0.0
C564 C 0.33081 0.78025 0.53607 0.0
C565 C 0.2976 0.73067 0.4825 0.0
H566 H 0.27492 0.70527 0.57471 0.0
C567 C 0.23819 0.63882 0.54062 0.0
C568 C 0.21729 0.63848 0.51686 0.0
C569 C 0.25484 0.65989 0.54169 0.0
C570 C 0.28103 0.71219 0.54877 0.0
H571 H 0.38722 0.76912 0.47027 0.0
H572 H 0.35033 0.74025 0.46933 0.0
H573 H 0.30833 0.73808 0.57178 0.0
H574 H 0.19685 0.66054 0.47672 0.0
H575 H 0.22584 0.69726 0.47872 0.0
H576 H 0.27073 0.70434 0.45946 0.0
C577 C 0.3503 0.75619 0.48789 0.0
C578 C 0.29999 0.73116 0.54709 0.0
C579 C 0.37148 0.77271 0.48849 0.0
C580 C 0.21279 0.66013 0.49531 0.0
C581 C 0.22951 0.68111 0.49622 0.0
C582 C 0.2785 0.71184 0.48419 0.0
C583 C 0.32998 0.75944 0.51222 0.0
C584 C 0.30869 0.74043 0.51392 0.0
C585 C 0.25103 0.68102 0.51888 0.0
C586 C 0.27018 0.70218 0.51734 0.0
H587 H 0.35222 0.81225 0.55594 0.0
H588 H 0.31529 0.78348 0.55478 0.0
H589 H 0.30377 0.73753 0.45656 0.0
H590 H 0.24224 0.62243 0.55753 0.0
H591 H 0.27132 0.65915 0.5593 0.0
loop_
_geom_bond_atom_site_label_1
_geom_bond_atom_site_label_2
_geom_bond_distance
_geom_bond_site_symmetry_2
_ccdc_geom_bond_type
O0 Cd1 2.223 . S
O0 C8 1.315 . S
Cd1 O0 2.223 . S
Cd1 O4 2.297 . S
Cd1 O5 2.439 . S
Cd1 O11 2.240 . S
Cd2 O3 2.240 1_556 S
Cd2 O10 2.223 1_556 S
Cd2 O12 2.297 . S
Cd2 O13 2.439 . S
O3 Cd2 2.240 1_554 S
O3 C8 1.279 . S
O4 Cd1 2.297 . S
O4 C6 1.247 . S
O5 Cd1 2.439 . S
O5 C6 1.208 . S
C6 O4 1.247 . S
C6 O5 1.208 . S
C7 O12 1.247 . S
C7 O13 1.208 . S
C8 O0 1.315 . S
C8 O3 1.279 . S
C9 O10 1.315 . S
C9 O11 1.279 . S
O10 Cd2 2.223 1_554 S
O10 C9 1.315 . S
O11 Cd1 2.240 . S
O11 C9 1.279 . S
O12 Cd2 2.297 . S
O12 C7 1.247 . S
O13 Cd2 2.439 . S
O13 C7 1.208 . S
O14 Cd15 2.223 . S
O14 C22 1.315 . S
Cd15 O14 2.223 . S
Cd15 O18 2.297 . S
Cd15 O19 2.439 . S
Cd15 O25 2.240 . S
Cd16 O17 2.240 . S
Cd16 O24 2.223 . S
Cd16 O26 2.297 . S
Cd16 O27 2.439 . S
O17 Cd16 2.240 . S
O17 C22 1.279 . S
O18 Cd15 2.297 . S
O18 C20 1.247 . S
O19 Cd15 2.439 . S
O19 C20 1.208 . S
C20 O18 1.247 . S
C20 O19 1.208 . S
C21 O26 1.247 . S
C21 O27 1.208 . S
C22 O14 1.315 . S
C22 O17 1.279 . S
C23 O24 1.315 . S
C23 O25 1.279 . S
O24 Cd16 2.223 . S
O24 C23 1.315 . S
O25 Cd15 2.240 . S
O25 C23 1.279 . S
O26 Cd16 2.297 . S
O26 C21 1.247 . S
O27 Cd16 2.439 . S
O27 C21 1.208 . S
O28 Cd29 2.223 . S
O28 C36 1.315 . S
Cd29 O28 2.223 . S
Cd29 O32 2.297 . S
Cd29 O33 2.439 . S
Cd29 O39 2.240 . S
Cd30 O31 2.240 1_556 S
Cd30 O38 2.223 1_556 S
Cd30 O40 2.297 . S
Cd30 O41 2.439 . S
O31 Cd30 2.240 1_554 S
O31 C36 1.279 . S
O32 Cd29 2.297 . S
O32 C34 1.247 . S
O33 Cd29 2.439 . S
O33 C34 1.208 . S
C34 O32 1.247 . S
C34 O33 1.208 . S
C35 O40 1.247 . S
C35 O41 1.208 . S
C36 O28 1.315 . S
C36 O31 1.279 . S
C37 O38 1.315 . S
C37 O39 1.279 . S
O38 Cd30 2.223 1_554 S
O38 C37 1.315 . S
O39 Cd29 2.240 . S
O39 C37 1.279 . S
O40 Cd30 2.297 . S
O40 C35 1.247 . S
O41 Cd30 2.439 . S
O41 C35 1.208 . S
O42 Cd43 2.223 . S
O42 C50 1.315 . S
Cd43 O42 2.223 . S
Cd43 O46 2.297 . S
Cd43 O47 2.439 . S
Cd43 O53 2.240 . S
Cd44 O45 2.240 . S
Cd44 O52 2.223 . S
Cd44 O54 2.297 . S
Cd44 O55 2.439 . S
O45 Cd44 2.240 . S
O45 C50 1.279 . S
O46 Cd43 2.297 . S
O46 C48 1.247 . S
O47 Cd43 2.439 . S
O47 C48 1.208 . S
C48 O46 1.247 . S
C48 O47 1.208 . S
C49 O54 1.247 . S
C49 O55 1.208 . S
C50 O42 1.315 . S
C50 O45 1.279 . S
C51 O52 1.315 . S
C51 O53 1.279 . S
O52 Cd44 2.223 . S
O52 C51 1.315 . S
O53 Cd43 2.240 . S
O53 C51 1.279 . S
O54 Cd44 2.297 . S
O54 C49 1.247 . S
O55 Cd44 2.439 . S
O55 C49 1.208 . S
O56 Cd57 2.223 . S
O56 C64 1.315 . S
Cd57 O56 2.223 . S
Cd57 O60 2.297 . S
Cd57 O61 2.439 . S
Cd57 O67 2.240 . S
Cd58 O59 2.240 . S
Cd58 O66 2.223 . S
Cd58 O68 2.297 . S
Cd58 O69 2.439 . S
O59 Cd58 2.240 . S
O59 C64 1.279 . S
O60 Cd57 2.297 . S
O60 C62 1.247 . S
O61 Cd57 2.439 . S
O61 C62 1.208 . S
C62 O60 1.247 . S
C62 O61 1.208 . S
C63 O68 1.247 . S
C63 O69 1.208 . S
C64 O56 1.315 . S
C64 O59 1.279 . S
C65 O66 1.315 . S
C65 O67 1.279 . S
O66 Cd58 2.223 . S
O66 C65 1.315 . S
O67 Cd57 2.240 . S
O67 C65 1.279 . S
O68 Cd58 2.297 . S
O68 C63 1.247 . S
O69 Cd58 2.439 . S
O69 C63 1.208 . S
O70 Cd71 2.223 . S
O70 C78 1.315 . S
Cd71 O70 2.223 . S
Cd71 O74 2.297 . S
Cd71 O75 2.439 1_556 S
Cd71 O81 2.240 1_556 S
Cd72 O73 2.240 1_554 S
Cd72 O80 2.223 . S
Cd72 O82 2.297 . S
Cd72 O83 2.439 . S
O73 Cd72 2.240 1_556 S
O73 C78 1.279 . S
O74 Cd71 2.297 . S
O74 C76 1.247 . S
O75 Cd71 2.439 1_554 S
O75 C76 1.208 1_554 S
C76 O74 1.247 . S
C76 O75 1.208 1_556 S
C77 O82 1.247 . S
C77 O83 1.208 . S
C78 O70 1.315 . S
C78 O73 1.279 . S
C79 O80 1.315 . S
C79 O81 1.279 . S
O80 Cd72 2.223 . S
O80 C79 1.315 . S
O81 Cd71 2.240 1_554 S
O81 C79 1.279 . S
O82 Cd72 2.297 . S
O82 C77 1.247 . S
O83 Cd72 2.439 . S
O83 C77 1.208 . S
O84 Cd85 2.223 . S
O84 C92 1.315 . S
Cd85 O84 2.223 . S
Cd85 O88 2.297 . S
Cd85 O89 2.439 . S
Cd85 O95 2.240 . S
Cd86 O87 2.240 . S
Cd86 O94 2.223 . S
Cd86 O96 2.297 . S
Cd86 O97 2.439 . S
O87 Cd86 2.240 . S
O87 C92 1.279 . S
O88 Cd85 2.297 . S
O88 C90 1.247 . S
O89 Cd85 2.439 . S
O89 C90 1.208 . S
C90 O88 1.247 . S
C90 O89 1.208 . S
C91 O96 1.247 . S
C91 O97 1.208 . S
C92 O84 1.315 . S
C92 O87 1.279 . S
C93 O94 1.315 . S
C93 O95 1.279 . S
O94 Cd86 2.223 . S
O94 C93 1.315 . S
O95 Cd85 2.240 . S
O95 C93 1.279 . S
O96 Cd86 2.297 . S
O96 C91 1.247 . S
O97 Cd86 2.439 . S
O97 C91 1.208 . S
O98 Cd99 2.223 . S
O98 C106 1.315 . S
Cd99 O98 2.223 . S
Cd99 O102 2.297 . S
Cd99 O103 2.439 1_556 S
Cd99 O109 2.240 1_556 S
Cd100 O101 2.240 1_554 S
Cd100 O108 2.223 . S
Cd100 O110 2.297 . S
Cd100 O111 2.439 . S
O101 Cd100 2.240 1_556 S
O101 C106 1.279 . S
O102 Cd99 2.297 . S
O102 C104 1.247 . S
O103 Cd99 2.439 1_554 S
O103 C104 1.208 1_554 S
C104 O102 1.247 . S
C104 O103 1.208 1_556 S
C105 O110 1.247 . S
C105 O111 1.208 . S
C106 O98 1.315 . S
C106 O101 1.279 . S
C107 O108 1.315 . S
C107 O109 1.279 . S
O108 Cd100 2.223 . S
O108 C107 1.315 . S
O109 Cd99 2.240 1_554 S
O109 C107 1.279 . S
O110 Cd100 2.297 . S
O110 C105 1.247 . S
O111 Cd100 2.439 . S
O111 C105 1.208 . S
C112 C113 1.349 . S
C112 C114 1.327 . S
C112 H137 0.950 . S
C113 C112 1.349 . S
C113 C129 1.349 . S
C114 C112 1.327 . S
C114 C133 1.429 . S
C114 H138 0.950 . S
C115 C132 1.574 . S
C115 C134 1.368 . S
C115 H139 0.949 . S
H116 C120 0.949 . S
C117 C118 1.349 . S
C117 C119 1.327 . S
C117 H140 0.950 . S
C118 C117 1.349 . S
C118 C130 1.349 . S
C119 C117 1.327 . S
C119 C135 1.429 . S
C119 H141 0.950 . S
C120 H116 0.949 . S
C120 C128 1.574 . S
C120 C136 1.368 . S
H121 C129 0.950 . S
H122 C127 0.950 . S
H123 C128 0.949 . S
H124 C130 0.950 . S
H125 C131 0.950 . S
H126 C132 0.949 . S
C127 H122 0.950 . S
C127 C129 1.327 . S
C127 C133 1.429 . S
C128 C120 1.574 . S
C128 H123 0.949 . S
C128 C134 1.368 . S
C129 C113 1.349 . S
C129 H121 0.950 . S
C129 C127 1.327 . S
C130 C118 1.349 . S
C130 H124 0.950 . S
C130 C131 1.327 . S
C131 H125 0.950 . S
C131 C130 1.327 . S
C131 C135 1.429 . S
C132 C115 1.574 . S
C132 H126 0.949 . S
C132 C136 1.368 . S
C133 C114 1.429 . S
C133 C127 1.429 . S
C133 C134 1.523 . S
C134 C115 1.368 . S
C134 C128 1.368 . S
C134 C133 1.523 . S
C135 C119 1.429 . S
C135 C131 1.429 . S
C135 C136 1.523 . S
C136 C120 1.368 . S
C136 C132 1.368 . S
C136 C135 1.523 . S
H137 C112 0.950 . S
H138 C114 0.950 . S
H139 C115 0.949 . S
H140 C117 0.950 . S
H141 C119 0.950 . S
C142 C143 1.349 . S
C142 C144 1.327 . S
C142 H167 0.950 . S
C143 C142 1.349 . S
C143 C159 1.349 . S
C144 C142 1.327 . S
C144 C163 1.429 . S
C144 H168 0.950 . S
C145 C162 1.574 . S
C145 C164 1.368 . S
C145 H169 0.949 . S
H146 C150 0.949 . S
C147 C148 1.349 . S
C147 C149 1.327 . S
C147 H170 0.950 . S
C148 C147 1.349 . S
C148 C160 1.349 . S
C149 C147 1.327 . S
C149 C165 1.429 . S
C149 H171 0.950 . S
C150 H146 0.949 . S
C150 C158 1.574 . S
C150 C166 1.368 . S
H151 C159 0.950 . S
H152 C157 0.950 . S
H153 C158 0.949 . S
H154 C160 0.950 . S
H155 C161 0.950 . S
H156 C162 0.949 . S
C157 H152 0.950 . S
C157 C159 1.327 . S
C157 C163 1.429 . S
C158 C150 1.574 . S
C158 H153 0.949 . S
C158 C164 1.368 . S
C159 C143 1.349 . S
C159 H151 0.950 . S
C159 C157 1.327 . S
C160 C148 1.349 . S
C160 H154 0.950 . S
C160 C161 1.327 . S
C161 H155 0.950 . S
C161 C160 1.327 . S
C161 C165 1.429 . S
C162 C145 1.574 . S
C162 H156 0.949 . S
C162 C166 1.368 . S
C163 C144 1.429 . S
C163 C157 1.429 . S
C163 C164 1.523 . S
C164 C145 1.368 . S
C164 C158 1.368 . S
C164 C163 1.523 . S
C165 C149 1.429 . S
C165 C161 1.429 . S
C165 C166 1.523 . S
C166 C150 1.368 . S
C166 C162 1.368 . S
C166 C165 1.523 . S
H167 C142 0.950 . S
H168 C144 0.950 . S
H169 C145 0.949 . S
H170 C147 0.950 . S
H171 C149 0.950 . S
C172 C173 1.349 . S
C172 C174 1.327 . S
C172 H197 0.950 . S
C173 C172 1.349 . S
C173 C189 1.349 . S
C174 C172 1.327 . S
C174 C193 1.429 . S
C174 H198 0.950 . S
C175 C192 1.574 . S
C175 C194 1.368 . S
C175 H199 0.949 . S
H176 C180 0.949 . S
C177 C178 1.349 . S
C177 C179 1.327 . S
C177 H200 0.950 . S
C178 C177 1.349 . S
C178 C190 1.349 . S
C179 C177 1.327 . S
C179 C195 1.429 . S
C179 H201 0.950 . S
C180 H176 0.949 . S
C180 C188 1.574 . S
C180 C196 1.368 . S
H181 C189 0.950 . S
H182 C187 0.950 . S
H183 C188 0.949 . S
H184 C190 0.950 . S
H185 C191 0.950 . S
H186 C192 0.949 . S
C187 H182 0.950 . S
C187 C189 1.327 . S
C187 C193 1.429 . S
C188 C180 1.574 . S
C188 H183 0.949 . S
C188 C194 1.368 . S
C189 C173 1.349 . S
C189 H181 0.950 . S
C189 C187 1.327 . S
C190 C178 1.349 . S
C190 H184 0.950 . S
C190 C191 1.327 . S
C191 H185 0.950 . S
C191 C190 1.327 . S
C191 C195 1.429 . S
C192 C175 1.574 . S
C192 H186 0.949 . S
C192 C196 1.368 . S
C193 C174 1.429 . S
C193 C187 1.429 . S
C193 C194 1.523 . S
C194 C175 1.368 . S
C194 C188 1.368 . S
C194 C193 1.523 . S
C195 C179 1.429 . S
C195 C191 1.429 . S
C195 C196 1.523 . S
C196 C180 1.368 . S
C196 C192 1.368 . S
C196 C195 1.523 . S
H197 C172 0.950 . S
H198 C174 0.950 . S
H199 C175 0.949 . S
H200 C177 0.950 . S
H201 C179 0.950 . S
C202 C203 1.349 . S
C202 C204 1.327 . S
C202 H227 0.950 . S
C203 C202 1.349 . S
C203 C219 1.349 . S
C204 C202 1.327 . S
C204 C223 1.429 . S
C204 H228 0.950 . S
C205 C222 1.574 . S
C205 C224 1.368 . S
C205 H229 0.949 . S
H206 C210 0.949 . S
C207 C208 1.349 . S
C207 C209 1.327 . S
C207 H230 0.950 . S
C208 C207 1.349 . S
C208 C220 1.349 . S
C209 C207 1.327 . S
C209 C225 1.429 . S
C209 H231 0.950 . S
C210 H206 0.949 . S
C210 C218 1.574 . S
C210 C226 1.368 . S
H211 C219 0.950 . S
H212 C217 0.950 . S
H213 C218 0.949 . S
H214 C220 0.950 . S
H215 C221 0.950 . S
H216 C222 0.949 . S
C217 H212 0.950 . S
C217 C219 1.327 . S
C217 C223 1.429 . S
C218 C210 1.574 . S
C218 H213 0.949 . S
C218 C224 1.368 . S
C219 C203 1.349 . S
C219 H211 0.950 . S
C219 C217 1.327 . S
C220 C208 1.349 . S
C220 H214 0.950 . S
C220 C221 1.327 . S
C221 H215 0.950 . S
C221 C220 1.327 . S
C221 C225 1.429 . S
C222 C205 1.574 . S
C222 H216 0.949 . S
C222 C226 1.368 . S
C223 C204 1.429 . S
C223 C217 1.429 . S
C223 C224 1.523 . S
C224 C205 1.368 . S
C224 C218 1.368 . S
C224 C223 1.523 . S
C225 C209 1.429 . S
C225 C221 1.429 . S
C225 C226 1.523 . S
C226 C210 1.368 . S
C226 C222 1.368 . S
C226 C225 1.523 . S
H227 C202 0.950 . S
H228 C204 0.950 . S
H229 C205 0.949 . S
H230 C207 0.950 . S
H231 C209 0.950 . S
C232 C233 1.349 . S
C232 C234 1.327 . S
C232 H257 0.950 . S
C233 C232 1.349 . S
C233 C249 1.349 . S
C234 C232 1.327 . S
C234 C253 1.429 . S
C234 H258 0.950 . S
C235 C252 1.574 . S
C235 C254 1.368 . S
C235 H259 0.949 . S
H236 C240 0.949 . S
C237 C238 1.349 . S
C237 C239 1.327 . S
C237 H260 0.950 . S
C238 C237 1.349 . S
C238 C250 1.349 . S
C239 C237 1.327 . S
C239 C255 1.429 . S
C239 H261 0.950 . S
C240 H236 0.949 . S
C240 C248 1.574 . S
C240 C256 1.368 . S
H241 C249 0.950 . S
H242 C247 0.950 . S
H243 C248 0.949 . S
H244 C250 0.950 . S
H245 C251 0.950 . S
H246 C252 0.949 . S
C247 H242 0.950 . S
C247 C249 1.327 . S
C247 C253 1.429 . S
C248 C240 1.574 . S
C248 H243 0.949 . S
C248 C254 1.368 . S
C249 C233 1.349 . S
C249 H241 0.950 . S
C249 C247 1.327 . S
C250 C238 1.349 . S
C250 H244 0.950 . S
C250 C251 1.327 . S
C251 H245 0.950 . S
C251 C250 1.327 . S
C251 C255 1.429 . S
C252 C235 1.574 . S
C252 H246 0.949 . S
C252 C256 1.368 . S
C253 C234 1.429 . S
C253 C247 1.429 . S
C253 C254 1.523 . S
C254 C235 1.368 . S
C254 C248 1.368 . S
C254 C253 1.523 . S
C255 C239 1.429 . S
C255 C251 1.429 . S
C255 C256 1.523 . S
C256 C240 1.368 . S
C256 C252 1.368 . S
C256 C255 1.523 . S
H257 C232 0.950 . S
H258 C234 0.950 . S
H259 C235 0.949 . S
H260 C237 0.950 . S
H261 C239 0.950 . S
C262 C263 1.349 . S
C262 C264 1.327 . S
C262 H287 0.950 . S
C263 C262 1.349 . S
C263 C279 1.349 . S
C264 C262 1.327 . S
C264 C283 1.429 . S
C264 H288 0.950 . S
C265 C282 1.574 . S
C265 C284 1.368 . S
C265 H289 0.949 . S
H266 C270 0.949 . S
C267 C268 1.349 . S
C267 C269 1.327 . S
C267 H290 0.950 . S
C268 C267 1.349 . S
C268 C280 1.349 . S
C269 C267 1.327 . S
C269 C285 1.429 . S
C269 H291 0.950 . S
C270 H266 0.949 . S
C270 C278 1.574 . S
C270 C286 1.368 . S
H271 C279 0.950 . S
H272 C277 0.950 . S
H273 C278 0.949 . S
H274 C280 0.950 . S
H275 C281 0.950 . S
H276 C282 0.949 . S
C277 H272 0.950 . S
C277 C279 1.327 . S
C277 C283 1.429 . S
C278 C270 1.574 . S
C278 H273 0.949 . S
C278 C284 1.368 . S
C279 C263 1.349 . S
C279 H271 0.950 . S
C279 C277 1.327 . S
C280 C268 1.349 . S
C280 H274 0.950 . S
C280 C281 1.327 . S
C281 H275 0.950 . S
C281 C280 1.327 . S
C281 C285 1.429 . S
C282 C265 1.574 . S
C282 H276 0.949 . S
C282 C286 1.368 . S
C283 C264 1.429 . S
C283 C277 1.429 . S
C283 C284 1.523 . S
C284 C265 1.368 . S
C284 C278 1.368 . S
C284 C283 1.523 . S
C285 C269 1.429 . S
C285 C281 1.429 . S
C285 C286 1.523 . S
C286 C270 1.368 . S
C286 C282 1.368 . S
C286 C285 1.523 . S
H287 C262 0.950 . S
H288 C264 0.950 . S
H289 C265 0.949 . S
H290 C267 0.950 . S
H291 C269 0.950 . S
C292 C293 1.349 . S
C292 C294 1.327 . S
C292 H317 0.950 . S
C293 C292 1.349 . S
C293 C309 1.349 . S
C294 C292 1.327 . S
C294 C313 1.429 . S
C294 H318 0.950 . S
C295 C312 1.574 . S
C295 C314 1.368 . S
C295 H319 0.949 . S
H296 C300 0.949 . S
C297 C298 1.349 . S
C297 C299 1.327 . S
C297 H320 0.950 . S
C298 C297 1.349 . S
C298 C310 1.349 . S
C299 C297 1.327 . S
C299 C315 1.429 . S
C299 H321 0.950 . S
C300 H296 0.949 . S
C300 C308 1.574 . S
C300 C316 1.368 . S
H301 C309 0.950 . S
H302 C307 0.950 . S
H303 C308 0.949 . S
H304 C310 0.950 . S
H305 C311 0.950 . S
H306 C312 0.949 . S
C307 H302 0.950 . S
C307 C309 1.327 . S
C307 C313 1.429 . S
C308 C300 1.574 . S
C308 H303 0.949 . S
C308 C314 1.368 . S
C309 C293 1.349 . S
C309 H301 0.950 . S
C309 C307 1.327 . S
C310 C298 1.349 . S
C310 H304 0.950 . S
C310 C311 1.327 . S
C311 H305 0.950 . S
C311 C310 1.327 . S
C311 C315 1.429 . S
C312 C295 1.574 . S
C312 H306 0.949 . S
C312 C316 1.368 . S
C313 C294 1.429 . S
C313 C307 1.429 . S
C313 C314 1.523 . S
C314 C295 1.368 . S
C314 C308 1.368 . S
C314 C313 1.523 . S
C315 C299 1.429 . S
C315 C311 1.429 . S
C315 C316 1.523 . S
C316 C300 1.368 . S
C316 C312 1.368 . S
C316 C315 1.523 . S
H317 C292 0.950 . S
H318 C294 0.950 . S
H319 C295 0.949 . S
H320 C297 0.950 . S
H321 C299 0.950 . S
C322 C323 1.349 . S
C322 C324 1.327 . S
C322 H347 0.950 . S
C323 C322 1.349 . S
C323 C339 1.349 . S
C324 C322 1.327 . S
C324 C343 1.429 . S
C324 H348 0.950 . S
C325 C342 1.574 . S
C325 C344 1.368 . S
C325 H349 0.949 . S
H326 C330 0.949 . S
C327 C328 1.349 . S
C327 C329 1.327 . S
C327 H350 0.950 . S
C328 C327 1.349 . S
C328 C340 1.349 . S
C329 C327 1.327 . S
C329 C345 1.429 . S
C329 H351 0.950 . S
C330 H326 0.949 . S
C330 C338 1.574 . S
C330 C346 1.368 . S
H331 C339 0.950 . S
H332 C337 0.950 . S
H333 C338 0.949 . S
H334 C340 0.950 . S
H335 C341 0.950 . S
H336 C342 0.949 . S
C337 H332 0.950 . S
C337 C339 1.327 . S
C337 C343 1.429 . S
C338 C330 1.574 . S
C338 H333 0.949 . S
C338 C344 1.368 . S
C339 C323 1.349 . S
C339 H331 0.950 . S
C339 C337 1.327 . S
C340 C328 1.349 . S
C340 H334 0.950 . S
C340 C341 1.327 . S
C341 H335 0.950 . S
C341 C340 1.327 . S
C341 C345 1.429 . S
C342 C325 1.574 . S
C342 H336 0.949 . S
C342 C346 1.368 . S
C343 C324 1.429 . S
C343 C337 1.429 . S
C343 C344 1.523 . S
C344 C325 1.368 . S
C344 C338 1.368 . S
C344 C343 1.523 . S
C345 C329 1.429 . S
C345 C341 1.429 . S
C345 C346 1.523 . S
C346 C330 1.368 . S
C346 C342 1.368 . S
C346 C345 1.523 . S
H347 C322 0.950 . S
H348 C324 0.950 . S
H349 C325 0.949 . S
H350 C327 0.950 . S
H351 C329 0.950 . S
C352 C353 1.349 . S
C352 C354 1.327 . S
C352 H377 0.950 . S
C353 C352 1.349 . S
C353 C369 1.349 1_554 S
C354 C352 1.327 . S
C354 C373 1.429 . S
C354 H378 0.950 . S
C355 C372 1.574 1_655 S
C355 C374 1.368 1_556 S
C355 H379 0.949 . S
H356 C360 0.949 . S
C357 C358 1.349 1_556 S
C357 C359 1.327 . S
C357 H380 0.950 . S
C358 C357 1.349 1_554 S
C358 C370 1.349 . S
C359 C357 1.327 . S
C359 C375 1.429 1_556 S
C359 H381 0.950 . S
C360 H356 0.949 . S
C360 C368 1.574 1_455 S
C360 C376 1.368 . S
H361 C369 0.950 . S
H362 C367 0.950 . S
H363 C368 0.949 . S
H364 C370 0.950 . S
H365 C371 0.950 . S
H366 C372 0.949 . S
C367 H362 0.950 . S
C367 C369 1.327 . S
C367 C373 1.429 1_556 S
C368 C360 1.574 1_655 S
C368 H363 0.949 . S
C368 C374 1.368 . S
C369 C353 1.349 1_556 S
C369 H361 0.950 . S
C369 C367 1.327 . S
C370 C358 1.349 . S
C370 H364 0.950 . S
C370 C371 1.327 . S
C371 H365 0.950 . S
C371 C370 1.327 . S
C371 C375 1.429 . S
C372 C355 1.574 1_455 S
C372 H366 0.949 . S
C372 C376 1.368 1_556 S
C373 C354 1.429 . S
C373 C367 1.429 1_554 S
C373 C374 1.523 . S
C374 C355 1.368 1_554 S
C374 C368 1.368 . S
C374 C373 1.523 . S
C375 C359 1.429 1_554 S
C375 C371 1.429 . S
C375 C376 1.523 . S
C376 C360 1.368 . S
C376 C372 1.368 1_554 S
C376 C375 1.523 . S
H377 C352 0.950 . S
H378 C354 0.950 . S
H379 C355 0.949 . S
H380 C357 0.950 . S
H381 C359 0.950 . S
C382 C383 1.349 . S
C382 C384 1.327 . S
C382 H407 0.950 . S
C383 C382 1.349 . S
C383 C399 1.349 . S
C384 C382 1.327 . S
C384 C403 1.429 . S
C384 H408 0.950 . S
C385 C402 1.574 1_565 S
C385 C404 1.368 . S
C385 H409 0.949 . S
H386 C390 0.949 . S
C387 C388 1.349 . S
C387 C389 1.327 . S
C387 H410 0.950 . S
C388 C387 1.349 . S
C388 C400 1.349 . S
C389 C387 1.327 . S
C389 C405 1.429 . S
C389 H411 0.950 . S
C390 H386 0.949 . S
C390 C398 1.574 1_545 S
C390 C406 1.368 . S
H391 C399 0.950 . S
H392 C397 0.950 . S
H393 C398 0.949 . S
H394 C400 0.950 . S
H395 C401 0.950 . S
H396 C402 0.949 . S
C397 H392 0.950 . S
C397 C399 1.327 . S
C397 C403 1.429 . S
C398 C390 1.574 1_565 S
C398 H393 0.949 . S
C398 C404 1.368 . S
C399 C383 1.349 . S
C399 H391 0.950 . S
C399 C397 1.327 . S
C400 C388 1.349 . S
C400 H394 0.950 . S
C400 C401 1.327 . S
C401 H395 0.950 . S
C401 C400 1.327 . S
C401 C405 1.429 . S
C402 C385 1.574 1_545 S
C402 H396 0.949 . S
C402 C406 1.368 . S
C403 C384 1.429 . S
C403 C397 1.429 . S
C403 C404 1.523 . S
C404 C385 1.368 . S
C404 C398 1.368 . S
C404 C403 1.523 . S
C405 C389 1.429 . S
C405 C401 1.429 . S
C405 C406 1.523 . S
C406 C390 1.368 . S
C406 C402 1.368 . S
C406 C405 1.523 . S
H407 C382 0.950 . S
H408 C384 0.950 . S
H409 C385 0.949 . S
H410 C387 0.950 . S
H411 C389 0.950 . S
C412 C413 1.349 . S
C412 C414 1.327 . S
C412 H437 0.950 . S
C413 C412 1.349 . S
C413 C429 1.349 . S
C414 C412 1.327 . S
C414 C433 1.429 . S
C414 H438 0.950 . S
C415 C432 1.574 1_455 S
C415 C434 1.368 . S
C415 H439 0.949 . S
H416 C420 0.949 . S
C417 C418 1.349 . S
C417 C419 1.327 . S
C417 H440 0.950 . S
C418 C417 1.349 . S
C418 C430 1.349 . S
C419 C417 1.327 . S
C419 C435 1.429 . S
C419 H441 0.950 . S
C420 H416 0.949 . S
C420 C428 1.574 1_655 S
C420 C436 1.368 . S
H421 C429 0.950 . S
H422 C427 0.950 . S
H423 C428 0.949 . S
H424 C430 0.950 . S
H425 C431 0.950 . S
H426 C432 0.949 . S
C427 H422 0.950 . S
C427 C429 1.327 . S
C427 C433 1.429 . S
C428 C420 1.574 1_455 S
C428 H423 0.949 . S
C428 C434 1.368 . S
C429 C413 1.349 . S
C429 H421 0.950 . S
C429 C427 1.327 . S
C430 C418 1.349 . S
C430 H424 0.950 . S
C430 C431 1.327 . S
C431 H425 0.950 . S
C431 C430 1.327 . S
C431 C435 1.429 . S
C432 C415 1.574 1_655 S
C432 H426 0.949 . S
C432 C436 1.368 . S
C433 C414 1.429 . S
C433 C427 1.429 . S
C433 C434 1.523 . S
C434 C415 1.368 . S
C434 C428 1.368 . S
C434 C433 1.523 . S
C435 C419 1.429 . S
C435 C431 1.429 . S
C435 C436 1.523 . S
C436 C420 1.368 . S
C436 C432 1.368 . S
C436 C435 1.523 . S
H437 C412 0.950 . S
H438 C414 0.950 . S
H439 C415 0.949 . S
H440 C417 0.950 . S
H441 C419 0.950 . S
C442 C443 1.348 . S
C442 C444 1.327 . S
C442 H467 0.950 . S
C443 C442 1.348 . S
C443 C459 1.350 1_556 S
C444 C442 1.327 . S
C444 C463 1.427 . S
C444 H468 0.950 . S
C445 C462 1.574 1_565 S
C445 C464 1.370 1_554 S
C445 H469 0.949 . S
H446 C450 0.949 . S
C447 C448 1.350 1_554 S
C447 C449 1.327 . S
C447 H470 0.950 . S
C448 C447 1.350 1_556 S
C448 C460 1.348 . S
C449 C447 1.327 . S
C449 C465 1.430 1_554 S
C449 H471 0.950 . S
C450 H446 0.949 . S
C450 C458 1.574 1_545 S
C450 C466 1.367 . S
H451 C459 0.950 . S
H452 C457 0.950 . S
H453 C458 0.949 . S
H454 C460 0.950 . S
H455 C461 0.950 . S
H456 C462 0.949 . S
C457 H452 0.950 . S
C457 C459 1.327 . S
C457 C463 1.430 1_554 S
C458 C450 1.574 1_565 S
C458 H453 0.949 . S
C458 C464 1.367 . S
C459 C443 1.350 1_554 S
C459 H451 0.950 . S
C459 C457 1.327 . S
C460 C448 1.348 . S
C460 H454 0.950 . S
C460 C461 1.327 . S
C461 H455 0.950 . S
C461 C460 1.327 . S
C461 C465 1.427 . S
C462 C445 1.574 1_545 S
C462 H456 0.949 . S
C462 C466 1.370 1_554 S
C463 C444 1.427 . S
C463 C457 1.430 1_556 S
C463 C464 1.523 . S
C464 C445 1.370 1_556 S
C464 C458 1.367 . S
C464 C463 1.523 . S
C465 C449 1.430 1_556 S
C465 C461 1.427 . S
C465 C466 1.523 . S
C466 C450 1.367 . S
C466 C462 1.370 1_556 S
C466 C465 1.523 . S
H467 C442 0.950 . S
H468 C444 0.950 . S
H469 C445 0.949 . S
H470 C447 0.950 . S
H471 C449 0.950 . S
C472 C473 1.349 . S
C472 C474 1.327 . S
C472 H497 0.950 . S
C473 C472 1.349 . S
C473 C489 1.349 . S
C474 C472 1.327 . S
C474 C493 1.429 . S
C474 H498 0.950 . S
C475 C492 1.574 . S
C475 C494 1.368 1_556 S
C475 H499 0.949 . S
H476 C480 0.949 . S
C477 C478 1.349 . S
C477 C479 1.327 . S
C477 H500 0.950 . S
C478 C477 1.349 . S
C478 C490 1.349 1_556 S
C479 C477 1.327 . S
C479 C495 1.429 1_556 S
C479 H501 0.950 . S
C480 H476 0.949 . S
C480 C488 1.574 . S
C480 C496 1.368 . S
H481 C489 0.950 1_556 S
H482 C487 0.950 . S
H483 C488 0.949 . S
H484 C490 0.950 . S
H485 C491 0.950 . S
H486 C492 0.949 . S
C487 H482 0.950 . S
C487 C489 1.327 1_556 S
C487 C493 1.429 1_556 S
C488 C480 1.574 . S
C488 H483 0.949 . S
C488 C494 1.368 . S
C489 C473 1.349 . S
C489 H481 0.950 1_554 S
C489 C487 1.327 1_554 S
C490 C478 1.349 1_554 S
C490 H484 0.950 . S
C490 C491 1.327 . S
C491 H485 0.950 . S
C491 C490 1.327 . S
C491 C495 1.429 . S
C492 C475 1.574 . S
C492 H486 0.949 . S
C492 C496 1.368 1_556 S
C493 C474 1.429 . S
C493 C487 1.429 1_554 S
C493 C494 1.523 . S
C494 C475 1.368 1_554 S
C494 C488 1.368 . S
C494 C493 1.523 . S
C495 C479 1.429 1_554 S
C495 C491 1.429 . S
C495 C496 1.523 . S
C496 C480 1.368 . S
C496 C492 1.368 1_554 S
C496 C495 1.523 . S
H497 C472 0.950 . S
H498 C474 0.950 . S
H499 C475 0.949 . S
H500 C477 0.950 . S
H501 C479 0.950 . S
C502 C503 1.349 . S
C502 C504 1.327 . S
C502 H527 0.950 . S
C503 C502 1.349 . S
C503 C519 1.349 . S
C504 C502 1.327 . S
C504 C523 1.429 . S
C504 H528 0.950 . S
C505 C522 1.574 . S
C505 C524 1.368 . S
C505 H529 0.949 . S
H506 C510 0.949 . S
C507 C508 1.349 . S
C507 C509 1.327 . S
C507 H530 0.950 . S
C508 C507 1.349 . S
C508 C520 1.349 . S
C509 C507 1.327 . S
C509 C525 1.429 . S
C509 H531 0.950 . S
C510 H506 0.949 . S
C510 C518 1.574 . S
C510 C526 1.368 . S
H511 C519 0.950 . S
H512 C517 0.950 . S
H513 C518 0.949 . S
H514 C520 0.950 . S
H515 C521 0.950 . S
H516 C522 0.949 . S
C517 H512 0.950 . S
C517 C519 1.327 . S
C517 C523 1.429 . S
C518 C510 1.574 . S
C518 H513 0.949 . S
C518 C524 1.368 . S
C519 C503 1.349 . S
C519 H511 0.950 . S
C519 C517 1.327 . S
C520 C508 1.349 . S
C520 H514 0.950 . S
C520 C521 1.327 . S
C521 H515 0.950 . S
C521 C520 1.327 . S
C521 C525 1.429 . S
C522 C505 1.574 . S
C522 H516 0.949 . S
C522 C526 1.368 . S
C523 C504 1.429 . S
C523 C517 1.429 . S
C523 C524 1.523 . S
C524 C505 1.368 . S
C524 C518 1.368 . S
C524 C523 1.523 . S
C525 C509 1.429 . S
C525 C521 1.429 . S
C525 C526 1.523 . S
C526 C510 1.368 . S
C526 C522 1.368 . S
C526 C525 1.523 . S
H527 C502 0.950 . S
H528 C504 0.950 . S
H529 C505 0.949 . S
H530 C507 0.950 . S
H531 C509 0.950 . S
C532 C533 1.349 . S
C532 C534 1.327 . S
C532 H557 0.950 . S
C533 C532 1.349 . S
C533 C549 1.349 1_554 S
C534 C532 1.327 . S
C534 C553 1.429 . S
C534 H558 0.950 . S
C535 C552 1.574 . S
C535 C554 1.368 1_556 S
C535 H559 0.949 . S
H536 C540 0.949 . S
C537 C538 1.349 . S
C537 C539 1.327 . S
C537 H560 0.950 . S
C538 C537 1.349 . S
C538 C550 1.349 1_556 S
C539 C537 1.327 . S
C539 C555 1.429 1_556 S
C539 H561 0.950 . S
C540 H536 0.949 . S
C540 C548 1.574 . S
C540 C556 1.368 . S
H541 C549 0.950 . S
H542 C547 0.950 . S
H543 C548 0.949 . S
H544 C550 0.950 . S
H545 C551 0.950 . S
H546 C552 0.949 . S
C547 H542 0.950 . S
C547 C549 1.327 . S
C547 C553 1.429 1_556 S
C548 C540 1.574 . S
C548 H543 0.949 . S
C548 C554 1.368 . S
C549 C533 1.349 1_556 S
C549 H541 0.950 . S
C549 C547 1.327 . S
C550 C538 1.349 1_554 S
C550 H544 0.950 . S
C550 C551 1.327 . S
C551 H545 0.950 . S
C551 C550 1.327 . S
C551 C555 1.429 . S
C552 C535 1.574 . S
C552 H546 0.949 . S
C552 C556 1.368 1_556 S
C553 C534 1.429 . S
C553 C547 1.429 1_554 S
C553 C554 1.523 . S
C554 C535 1.368 1_554 S
C554 C548 1.368 . S
C554 C553 1.523 . S
C555 C539 1.429 1_554 S
C555 C551 1.429 . S
C555 C556 1.523 . S
C556 C540 1.368 . S
C556 C552 1.368 1_554 S
C556 C555 1.523 . S
H557 C532 0.950 . S
H558 C534 0.950 . S
H559 C535 0.949 . S
H560 C537 0.950 . S
H561 C539 0.950 . S
C562 C563 1.349 . S
C562 C564 1.327 . S
C562 H587 0.950 . S
C563 C562 1.349 . S
C563 C579 1.349 . S
C564 C562 1.327 . S
C564 C583 1.429 . S
C564 H588 0.950 . S
C565 C582 1.574 . S
C565 C584 1.368 . S
C565 H589 0.949 . S
H566 C570 0.949 . S
C567 C568 1.349 . S
C567 C569 1.327 . S
C567 H590 0.950 . S
C568 C567 1.349 . S
C568 C580 1.349 . S
C569 C567 1.327 . S
C569 C585 1.429 . S
C569 H591 0.950 . S
C570 H566 0.949 . S
C570 C578 1.574 . S
C570 C586 1.368 . S
H571 C579 0.950 . S
H572 C577 0.950 . S
H573 C578 0.949 . S
H574 C580 0.950 . S
H575 C581 0.950 . S
H576 C582 0.949 . S
C577 H572 0.950 . S
C577 C579 1.327 . S
C577 C583 1.429 . S
C578 C570 1.574 . S
C578 H573 0.949 . S
C578 C584 1.368 . S
C579 C563 1.349 . S
C579 H571 0.950 . S
C579 C577 1.327 . S
C580 C568 1.349 . S
C580 H574 0.950 . S
C580 C581 1.327 . S
C581 H575 0.950 . S
C581 C580 1.327 . S
C581 C585 1.429 . S
C582 C565 1.574 . S
C582 H576 0.949 . S
C582 C586 1.368 . S
C583 C564 1.429 . S
C583 C577 1.429 . S
C583 C584 1.523 . S
C584 C565 1.368 . S
C584 C578 1.368 . S
C584 C583 1.523 . S
C585 C569 1.429 . S
C585 C581 1.429 . S
C585 C586 1.523 . S
C586 C570 1.368 . S
C586 C582 1.368 . S
C586 C585 1.523 . S
H587 C562 0.950 . S
H588 C564 0.950 . S
H589 C565 0.949 . S
H590 C567 0.950 . S
H591 C569 0.950 . S
C113 C8 1.723 . S
C118 C64 1.723 . S
C143 C22 1.722 . S
C148 C78 1.722 . S
C173 C92 1.723 . S
C178 C36 1.723 . S
C203 C106 1.722 . S
C208 C50 1.722 . S
C233 C91 0.926 . S
C238 C35 0.926 . S
C263 C105 0.926 . S
C268 C49 0.926 . S
C293 C7 0.926 . S
C298 C63 0.926 . S
C323 C21 0.926 . S
C328 C77 0.926 . S
C353 C37 1.244 . S
C358 C9 1.244 . S
C383 C51 1.244 . S
C388 C23 1.244 . S
C413 C65 1.243 . S
C418 C93 1.243 . S
C443 C107 1.244 1_556 S
C448 C79 1.244 1_556 S
C473 C6 1.399 . S
C478 C76 1.399 . S
C503 C90 1.399 . S
C508 C20 1.399 . S
C533 C34 1.399 . S
C538 C104 1.399 . S
C563 C48 1.399 . S
C568 C62 1.399 . S
