# Generated by pormake.
# Topology smm, (6)-cn, num edge types: 1
# Building blocks:
#     Node 0, Type 0, BuildingBlock: JUFBIX_clean_sbu_0, # of connection points: 6
#     Node 1, Type 0, BuildingBlock: JUFBIX_clean_sbu_0, # of connection points: 6
#     Node 2, Type 0, BuildingBlock: JUFBIX_clean_sbu_0, # of connection points: 6
#     Node 3, Type 0, BuildingBlock: JUFBIX_clean_sbu_0, # of connection points: 6
#     Node 4, Type 0, BuildingBlock: JUFBIX_clean_sbu_0, # of connection points: 6
#     Node 5, Type 0, BuildingBlock: JUFBIX_clean_sbu_0, # of connection points: 6
#     Node 6, Type 0, BuildingBlock: JUFBIX_clean_sbu_0, # of connection points: 6
#     Node 7, Type 0, BuildingBlock: JUFBIX_clean_sbu_0, # of connection points: 6
#     Node 8, Type 0, BuildingBlock: JUFBIX_clean_sbu_0, # of connection points: 6
#     Edge 9, Type (0, 0), BuildingBlock: OJICUG_clean_linker_0, # of connection points: 2
#     Edge 10, Type (0, 0), BuildingBlock: OJICUG_clean_linker_0, # of connection points: 2
#     Edge 11, Type (0, 0), BuildingBlock: OJICUG_clean_linker_0, # of connection points: 2
#     Edge 12, Type (0, 0), BuildingBlock: OJICUG_clean_linker_0, # of connection points: 2
#     Edge 13, Type (0, 0), BuildingBlock: OJICUG_clean_linker_0, # of connection points: 2
#     Edge 14, Type (0, 0), BuildingBlock: OJICUG_clean_linker_0, # of connection points: 2
#     Edge 15, Type (0, 0), BuildingBlock: OJICUG_clean_linker_0, # of connection points: 2
#     Edge 16, Type (0, 0), BuildingBlock: OJICUG_clean_linker_0, # of connection points: 2
#     Edge 17, Type (0, 0), BuildingBlock: OJICUG_clean_linker_0, # of connection points: 2
#     Edge 18, Type (0, 0), BuildingBlock: OJICUG_clean_linker_0, # of connection points: 2
#     Edge 19, Type (0, 0), BuildingBlock: OJICUG_clean_linker_0, # of connection points: 2
#     Edge 20, Type (0, 0), BuildingBlock: OJICUG_clean_linker_0, # of connection points: 2
#     Edge 21, Type (0, 0), BuildingBlock: OJICUG_clean_linker_0, # of connection points: 2
#     Edge 22, Type (0, 0), BuildingBlock: OJICUG_clean_linker_0, # of connection points: 2
#     Edge 23, Type (0, 0), BuildingBlock: OJICUG_clean_linker_0, # of connection points: 2
#     Edge 24, Type (0, 0), BuildingBlock: OJICUG_clean_linker_0, # of connection points: 2
#     Edge 25, Type (0, 0), BuildingBlock: OJICUG_clean_linker_0, # of connection points: 2
#     Edge 26, Type (0, 0), BuildingBlock: OJICUG_clean_linker_0, # of connection points: 2
#     Edge 27, Type (0, 0), BuildingBlock: OJICUG_clean_linker_0, # of connection points: 2
#     Edge 28, Type (0, 0), BuildingBlock: OJICUG_clean_linker_0, # of connection points: 2
#     Edge 29, Type (0, 0), BuildingBlock: OJICUG_clean_linker_0, # of connection points: 2
#     Edge 30, Type (0, 0), BuildingBlock: OJICUG_clean_linker_0, # of connection points: 2
#     Edge 31, Type (0, 0), BuildingBlock: OJICUG_clean_linker_0, # of connection points: 2
#     Edge 32, Type (0, 0), BuildingBlock: OJICUG_clean_linker_0, # of connection points: 2
#     Edge 33, Type (0, 0), BuildingBlock: OJICUG_clean_linker_0, # of connection points: 2
#     Edge 34, Type (0, 0), BuildingBlock: OJICUG_clean_linker_0, # of connection points: 2
#     Edge 35, Type (0, 0), BuildingBlock: OJICUG_clean_linker_0, # of connection points: 2
# Relax obj value: 0.248
# Max RMSD: 0.200
# Mean RMSD: 0.200
data_MOF--net-smm--node1-JUFBIX_clean_sbu_0--edge1-OJICUG_clean_linker_0
_symmetry_space_group_name_H-M    P1
_symmetry_Int_Tables_number       1
_symmetry_cell_setting            triclinic
loop_
_symmetry_equiv_pos_as_xyz
'x, y, z'
_cell_length_a     44.373084
_cell_length_b     44.37366
_cell_length_c     10.842436
_cell_angle_alpha  90.001639
_cell_angle_beta   90.002618
_cell_angle_gamma 119.99797
loop_
_atom_site_label
_atom_site_type_symbol
_atom_site_fract_x
_atom_site_fract_y
_atom_site_fract_z
_atom_type_partial_charge
Co0 Co 1.00024 0.16411 -0.00628 0.0
C1 C 0.02573 0.19153 0.22734 0.0
Co2 Co 0.04449 0.21816 -0.00654 0.0
C3 C 0.95914 0.0887 0.96271 0.0
C4 C 0.93258 0.10967 0.06484 0.0
N5 N 0.9624 0.11904 0.0032 0.0
N6 N 0.92843 0.06093 -0.00349 0.0
C7 C 0.91169 0.07418 0.06035 0.0
H8 H 0.97913 0.08694 0.91145 0.0
H9 H 0.92684 0.12733 0.1145 0.0
C10 C 0.01886 0.19054 0.75986 0.0
N11 N 0.0819 0.26315 -0.01655 0.0
C12 C 0.08464 0.28852 0.90737 0.0
C13 C 0.11298 0.27689 0.04048 0.0
N14 N 0.11629 0.31748 0.91342 0.0
C15 C 0.13419 0.31026 -0.00241 0.0
C16 C 0.06417 0.16761 -0.02118 0.0
O17 O 0.99719 0.16349 0.81874 0.0
O18 O 0.04093 0.21709 0.81946 0.0
O19 O 0.07524 0.20014 -0.01821 0.0
O20 O 0.03157 0.14651 -0.01655 0.0
O21 O 0.04754 0.21857 0.16857 0.0
H22 H 0.11999 0.26326 0.10701 0.0
H23 H 0.06407 0.28531 0.84565 0.0
O24 O 1.00356 0.16501 0.16765 0.0
O25 O 0.9696 0.18269 0.00606 0.0
O26 O 1.01367 0.23596 0.00723 0.0
C27 C 0.98112 0.21521 0.01568 0.0
H28 H 0.88679 0.05918 0.10583 0.0
H29 H 0.16068 0.32783 0.0265 0.0
Co30 Co 0.8836 0.85392 -0.00655 0.0
C31 C 0.85619 0.85201 0.22705 0.0
Co32 Co 0.82956 0.84414 -0.00684 0.0
C33 C 0.95903 0.88824 0.96274 0.0
C34 C 0.93802 0.84065 0.06453 0.0
N35 N 0.92867 0.86114 0.00298 0.0
N36 N 0.98678 0.88528 -0.00338 0.0
C37 C 0.97351 0.85525 0.06024 0.0
H38 H 0.96081 0.91002 0.91163 0.0
H39 H 0.92034 0.81723 0.11404 0.0
C40 C 0.85718 0.84612 0.75957 0.0
N41 N 0.78457 0.83657 -0.01688 0.0
C42 C 0.75919 0.81393 0.9071 0.0
C43 C 0.77085 0.85394 0.04009 0.0
N44 N 0.73024 0.81663 0.91313 0.0
C45 C 0.73747 0.84177 -0.00278 0.0
C46 C 0.88013 0.91436 -0.02152 0.0
O47 O 0.88423 0.8515 0.81847 0.0
O48 O 0.83063 0.84164 0.81916 0.0
O49 O 0.8476 0.89291 -0.01855 0.0
O50 O 0.90123 0.90286 -0.01683 0.0
O51 O 0.82915 0.84679 0.16827 0.0
H52 H 0.78448 0.87458 0.10657 0.0
H53 H 0.76239 0.79655 0.84544 0.0
O54 O 0.8827 0.85634 0.16738 0.0
O55 O 0.86501 0.8047 0.00578 0.0
O56 O 0.81174 0.79552 0.00696 0.0
C57 C 0.83249 0.78372 0.01539 0.0
H58 H 0.98849 0.84533 0.10573 0.0
H59 H 0.71991 0.8507 0.02611 0.0
Co60 Co 0.19379 0.04749 -0.00514 0.0
C61 C 0.19568 0.02198 0.22846 0.0
Co62 Co 0.20358 1.00324 -0.00543 0.0
C63 C 0.1595 0.0886 0.96364 0.0
C64 C 0.20699 0.11514 0.06605 0.0
N65 N 0.18656 0.08533 0.00431 0.0
N66 N 0.16243 0.11931 -0.00256 0.0
C67 C 0.19239 0.13604 0.06146 0.0
H68 H 0.13778 0.06862 0.91226 0.0
H69 H 0.23037 0.12087 0.11584 0.0
C70 C 0.20163 0.02888 0.76099 0.0
N71 N 0.21115 0.96582 -0.0154 0.0
C72 C 0.23378 0.96306 0.90856 0.0
C73 C 0.19379 0.93474 0.04164 0.0
N74 N 0.23108 0.93141 0.91465 0.0
C75 C 0.20596 0.91353 -0.00119 0.0
C76 C 0.13336 0.98357 -0.02028 0.0
O77 O 0.19624 0.05055 0.81988 0.0
O78 O 0.2061 1.0068 0.82057 0.0
O79 O 0.15481 0.9725 -0.01724 0.0
O80 O 0.14485 0.01617 -0.01556 0.0
O81 O 0.20091 1.00017 0.16969 0.0
H82 H 0.17317 0.92775 0.10815 0.0
H83 H 0.25114 0.98363 0.84684 0.0
O84 O 0.19134 0.04416 0.16879 0.0
O85 O 0.243 0.07812 0.00733 0.0
O86 O 0.2522 0.03404 0.00847 0.0
C87 C 0.26399 0.06659 0.01698 0.0
H88 H 0.20227 0.16093 0.10698 0.0
H89 H 0.19703 0.88704 0.02775 0.0
Co90 Co 0.66701 0.49753 0.32732 0.0
C91 C 0.69253 0.52496 0.56094 0.0
Co92 Co 0.71129 0.55156 0.32707 0.0
C93 C 0.62584 0.42209 0.29681 0.0
C94 C 0.59933 0.44318 0.39857 0.0
N95 N 0.62914 0.45248 0.33696 0.0
N96 N 0.59512 0.39437 0.3308 0.0
C97 C 0.57841 0.40769 0.39441 0.0
H98 H 0.64581 0.42027 0.2457 0.0
H99 H 0.59362 0.46089 0.44806 0.0
C100 C 0.68564 0.52393 0.09347 0.0
N101 N 0.74872 0.59654 0.31694 0.0
C102 C 0.75145 0.6219 0.24083 0.0
C103 C 0.77983 0.61027 0.37382 0.0
N104 N 0.78311 0.65085 0.24672 0.0
C105 C 0.80103 0.64364 0.33082 0.0
C106 C 0.7309 0.50095 0.31246 0.0
O107 O 0.66396 0.49687 0.15234 0.0
O108 O 0.70772 0.55047 0.15308 0.0
O109 O 0.742 0.53349 0.3154 0.0
O110 O 0.6983 0.47987 0.31712 0.0
O111 O 0.71436 0.55199 0.50219 0.0
H112 H 0.78685 0.59666 0.44033 0.0
H113 H 0.73086 0.61868 0.17919 0.0
O114 O 0.67034 0.49846 0.50125 0.0
O115 O 0.63641 0.51615 0.33956 0.0
O116 O 0.6805 0.5694 0.34084 0.0
C117 C 0.64795 0.54867 0.34919 0.0
H118 H 0.55351 0.39274 0.43999 0.0
H119 H 0.82753 0.6612 0.3596 0.0
Co120 Co 0.55015 0.18731 0.32932 0.0
C121 C 0.52274 0.18542 0.56293 0.0
Co122 Co 0.49612 0.17754 0.32905 0.0
C123 C 0.62555 0.22154 0.29811 0.0
C124 C 0.60457 0.1741 0.40084 0.0
N125 N 0.59521 0.19452 0.33888 0.0
N126 N 0.65331 0.21859 0.33205 0.0
C127 C 0.64005 0.18866 0.39627 0.0
H128 H 0.62732 0.24324 0.24655 0.0
H129 H 0.5869 0.15076 0.45075 0.0
C130 C 0.52373 0.17951 0.09545 0.0
N131 N 0.45113 0.16998 0.31894 0.0
C132 C 0.42578 0.14735 0.2428 0.0
C133 C 0.43738 0.18733 0.37587 0.0
N134 N 0.39682 0.15004 0.24871 0.0
C135 C 0.40401 0.17516 0.33285 0.0
C136 C 0.5467 0.24776 0.31428 0.0
O137 O 0.55079 0.18488 0.15435 0.0
O138 O 0.49719 0.17504 0.15505 0.0
O139 O 0.51416 0.22632 0.3173 0.0
O140 O 0.56778 0.23625 0.31899 0.0
O141 O 0.4957 0.1802 0.50416 0.0
H142 H 0.45099 0.20796 0.44241 0.0
H143 H 0.429 0.12999 0.18112 0.0
O144 O 0.54925 0.18975 0.50326 0.0
O145 O 0.53156 0.1381 0.34168 0.0
O146 O 0.4783 0.12892 0.34286 0.0
C147 C 0.49904 0.11712 0.35128 0.0
H148 H 0.65505 0.17879 0.44194 0.0
H149 H 0.38644 0.18408 0.36166 0.0
Co150 Co 0.86035 0.38063 0.32775 0.0
C151 C 0.86229 0.35513 0.56136 0.0
Co152 Co 0.87012 0.33636 0.32748 0.0
C153 C 0.82609 0.42179 0.29678 0.0
C154 C 0.8736 0.44828 0.39907 0.0
N155 N 0.85314 0.41848 0.33731 0.0
N156 N 0.82905 0.4525 0.33068 0.0
C157 C 0.85903 0.4692 0.39462 0.0
H158 H 0.80434 0.40182 0.24543 0.0
H159 H 0.89698 0.45399 0.44879 0.0
C160 C 0.86811 0.36199 0.09389 0.0
N161 N 0.87769 0.29894 0.31737 0.0
C162 C 0.90032 0.29622 0.24123 0.0
C163 C 0.86035 0.26785 0.3743 0.0
N164 N 0.89763 0.26457 0.24714 0.0
C165 C 0.87252 0.24665 0.33129 0.0
C166 C 0.7999 0.31672 0.31296 0.0
O167 O 0.86274 0.38367 0.15277 0.0
O168 O 0.87258 0.33991 0.15349 0.0
O169 O 0.82134 0.30563 0.31589 0.0
O170 O 0.81141 0.34932 0.31756 0.0
O171 O 0.8675 0.33331 0.5026 0.0
H172 H 0.83972 0.26082 0.44085 0.0
H173 H 0.91767 0.3168 0.17955 0.0
O174 O 0.85795 0.37731 0.50168 0.0
O175 O 0.90956 0.41125 0.33998 0.0
O176 O 0.91875 0.36717 0.34119 0.0
C177 C 0.93055 0.39972 0.34957 0.0
H178 H 0.86893 0.49409 0.44019 0.0
H179 H 0.8636 0.22016 0.36011 0.0
Co180 Co 0.33362 0.8308 0.66194 0.0
C181 C 0.35912 0.8582 0.89556 0.0
Co182 Co 0.37789 0.88483 0.66168 0.0
C183 C 0.29248 0.7554 0.63076 0.0
C184 C 0.26596 0.77637 0.73313 0.0
N185 N 0.29577 0.78574 0.6714 0.0
N186 N 0.26176 0.72764 0.66456 0.0
C187 C 0.24505 0.74089 0.72856 0.0
H188 H 0.31245 0.75364 0.57939 0.0
H189 H 0.26024 0.79404 0.7829 0.0
C190 C 0.35225 0.85723 0.42808 0.0
N191 N 0.41531 0.92981 0.65171 0.0
C192 C 0.41804 0.9552 0.57577 0.0
C193 C 0.4464 0.94354 0.70869 0.0
N194 N 0.44968 0.98416 0.58185 0.0
C195 C 0.46759 0.97693 0.66591 0.0
C196 C 0.39752 0.83425 0.64694 0.0
O197 O 0.33057 0.83018 0.48697 0.0
O198 O 0.37434 0.88377 0.48768 0.0
O199 O 0.40862 0.86678 0.64996 0.0
O200 O 0.36493 0.81316 0.65163 0.0
O201 O 0.38094 0.88523 0.8368 0.0
H202 H 0.45342 0.9299 0.77514 0.0
H203 H 0.39746 0.952 0.51412 0.0
O204 O 0.33694 0.83169 0.83588 0.0
O205 O 0.303 0.8494 0.67429 0.0
O206 O 0.34709 0.90265 0.67548 0.0
C207 C 0.31455 0.88192 0.68389 0.0
H208 H 0.22015 0.72588 0.77407 0.0
H209 H 0.49408 0.99449 0.69483 0.0
Co210 Co 0.21685 0.52061 0.66072 0.0
C211 C 0.18943 0.51868 0.89432 0.0
Co212 Co 0.16281 0.51084 0.66043 0.0
C213 C 0.29227 0.55489 0.62981 0.0
C214 C 0.27126 0.50735 0.73193 0.0
N215 N 0.26191 0.52782 0.67025 0.0
N216 N 0.32002 0.55192 0.66368 0.0
C217 C 0.30675 0.52193 0.72751 0.0
H218 H 0.29404 0.57664 0.57855 0.0
H219 H 0.25358 0.48395 0.78157 0.0
C220 C 0.19043 0.51283 0.42684 0.0
N221 N 0.11782 0.50327 0.65037 0.0
C222 C 0.09245 0.48062 0.57435 0.0
C223 C 0.10409 0.52063 0.70729 0.0
N224 N 0.06349 0.4833 0.58034 0.0
C225 C 0.07071 0.50844 0.6644 0.0
C226 C 0.21339 0.58106 0.64588 0.0
O227 O 0.21749 0.5182 0.48574 0.0
O228 O 0.16389 0.50836 0.48643 0.0
O229 O 0.18085 0.55961 0.64881 0.0
O230 O 0.23448 0.56955 0.65051 0.0
O231 O 0.16239 0.51347 0.83555 0.0
H232 H 0.11771 0.54128 0.77376 0.0
H233 H 0.09566 0.46324 0.51272 0.0
O234 O 0.21594 0.52301 0.83465 0.0
O235 O 0.19825 0.47139 0.67297 0.0
O236 O 0.14499 0.46222 0.67415 0.0
C237 C 0.16573 0.45041 0.68254 0.0
H238 H 0.32174 0.51202 0.77304 0.0
H239 H 0.05314 0.51736 0.69325 0.0
Co240 Co 0.52707 0.71402 0.66067 0.0
C241 C 0.52899 0.68852 0.89428 0.0
Co242 Co 0.53683 0.66976 0.6604 0.0
C243 C 0.49278 0.75517 0.63002 0.0
C244 C 0.54036 0.7817 0.73189 0.0
N245 N 0.51987 0.75188 0.67027 0.0
N246 N 0.49575 0.78588 0.66396 0.0
C247 C 0.52578 0.80261 0.72763 0.0
H248 H 0.47099 0.73518 0.57887 0.0
H249 H 0.56378 0.78743 0.78141 0.0
C250 C 0.53484 0.69539 0.42681 0.0
N251 N 0.5444 0.63234 0.6503 0.0
C252 C 0.56706 0.62963 0.5743 0.0
C253 C 0.52702 0.60122 0.70712 0.0
N254 N 0.56437 0.59798 0.58019 0.0
C255 C 0.53922 0.58004 0.66417 0.0
C256 C 0.46661 0.65012 0.64578 0.0
O257 O 0.52947 0.71707 0.48569 0.0
O258 O 0.53931 0.67332 0.48641 0.0
O259 O 0.48805 0.63903 0.64873 0.0
O260 O 0.47812 0.68272 0.65044 0.0
O261 O 0.5342 0.66669 0.83552 0.0
H262 H 0.50636 0.59419 0.77354 0.0
H263 H 0.58445 0.65024 0.51273 0.0
O264 O 0.52466 0.7107 0.8346 0.0
O265 O 0.57629 0.74464 0.67293 0.0
O266 O 0.58545 0.70055 0.67416 0.0
C267 C 0.59727 0.7331 0.68253 0.0
H268 H 0.5357 0.8275 0.77318 0.0
H269 H 0.53029 0.55354 0.69292 0.0
C270 C 0.10485 0.35955 0.8024 0.0
C271 C 0.12839 0.34929 0.84412 0.0
H272 H 0.09807 0.39926 0.71704 0.0
C273 C 0.16404 0.37107 0.81963 0.0
H274 H 0.07726 0.34352 0.81998 0.0
C275 C 0.176 0.403 0.75981 0.0
C276 C 0.15262 0.41404 0.72373 0.0
H277 H 0.18281 0.36366 0.84815 0.0
H278 H 0.20375 0.41961 0.74635 0.0
C279 C 0.11682 0.39156 0.74317 0.0
C280 C 0.67664 0.81077 0.81936 0.0
C281 C 0.69841 0.79691 0.84391 0.0
H282 H 0.62809 0.80193 0.7461 0.0
C283 C 0.68814 0.76309 0.80233 0.0
H284 H 0.68406 0.83696 0.84778 0.0
C285 C 0.65611 0.74303 0.74317 0.0
C286 C 0.63364 0.75635 0.72367 0.0
H287 H 0.70417 0.75153 0.81996 0.0
H288 H 0.64841 0.71657 0.71714 0.0
C289 C 0.64469 0.79079 0.75961 0.0
C290 C 0.28459 0.94282 0.80369 0.0
C291 C 0.25078 0.91929 0.8454 0.0
H292 H 0.33108 0.94959 0.71834 0.0
C293 C 0.23691 0.88364 0.82096 0.0
H294 H 0.29615 0.97042 0.82124 0.0
C295 C 0.25688 0.87166 0.76117 0.0
C296 C 0.2913 0.89504 0.72508 0.0
H297 H 0.21074 0.86488 0.84949 0.0
H298 H 0.24573 0.84392 0.74775 0.0
C299 C 0.30463 0.93084 0.74449 0.0
C300 C 0.3548 0.09656 0.13745 0.0
C301 C 0.36503 0.13034 0.17925 0.0
H302 H 0.31514 0.05008 0.05179 0.0
C303 C 0.34325 0.14421 0.15466 0.0
H304 H 0.37082 0.08499 0.15511 0.0
C305 C 0.31135 0.12425 0.09461 0.0
C306 C 0.30033 0.08984 0.05842 0.0
H307 H 0.35063 0.17037 0.18325 0.0
H308 H 0.29474 0.13538 0.08107 0.0
C309 C 0.32281 0.07652 0.07799 0.0
C310 C 0.95113 0.27604 0.13595 0.0
C311 C 0.91734 0.25248 0.17772 0.0
H312 H 0.99762 0.28286 0.0504 0.0
C313 C 0.90348 0.21684 0.15313 0.0
H314 H 0.96268 0.30363 0.15361 0.0
C315 C 0.92345 0.2049 0.09315 0.0
C316 C 0.95787 0.2283 0.05702 0.0
H317 H 0.87732 0.19807 0.18169 0.0
H318 H 0.91232 0.17716 0.07963 0.0
C319 C 0.97117 0.2641 0.07657 0.0
C320 C 0.84278 0.73633 0.09277 0.0
C321 C 0.81939 0.74736 0.05671 0.0
H322 H 0.84961 0.69702 0.18121 0.0
C323 C 0.78359 0.72489 0.07629 0.0
H324 H 0.87052 0.75293 0.07921 0.0
C325 C 0.77164 0.69289 0.13563 0.0
C326 C 0.7952 0.68264 0.17733 0.0
H327 H 0.76483 0.73258 0.05016 0.0
H328 H 0.74405 0.67687 0.15331 0.0
C329 C 0.83083 0.70442 0.15271 0.0
C330 C 1.00988 0.47741 0.48646 0.0
C331 C 0.03167 0.46356 0.51109 0.0
H332 H 0.96134 0.46855 0.4131 0.0
C333 C 0.02141 0.42975 0.46954 0.0
H334 H 0.01729 0.5036 0.51486 0.0
C335 C 0.9894 0.40967 0.41034 0.0
C336 C 0.96691 0.42298 0.39075 0.0
H337 H 0.03745 0.41819 0.48723 0.0
H338 H 0.9817 0.38321 0.38433 0.0
C339 C 0.97795 0.45742 0.42666 0.0
C340 C 0.61794 0.60948 0.46947 0.0
C341 C 0.58411 0.58592 0.51089 0.0
H342 H 0.66448 0.61632 0.38431 0.0
C343 C 0.57025 0.55029 0.48607 0.0
H344 H 0.6295 0.63707 0.48731 0.0
C345 C 0.59024 0.53836 0.42621 0.0
C346 C 0.62469 0.56177 0.39043 0.0
H347 H 0.54406 0.53151 0.51436 0.0
H348 H 0.5791 0.51063 0.41248 0.0
C349 C 0.63801 0.59755 0.41021 0.0
C350 C 0.50935 0.06972 0.42843 0.0
C351 C 0.48595 0.08076 0.39248 0.0
H352 H 0.51618 0.03038 0.51658 0.0
C353 C 0.45015 0.05827 0.41201 0.0
H354 H 0.53709 0.08634 0.41491 0.0
C355 C 0.43821 0.02625 0.47115 0.0
C356 C 0.46177 0.01599 0.5127 0.0
H357 H 0.43139 0.06597 0.38597 0.0
H358 H 0.41062 1.01021 0.48878 0.0
C359 C 0.49741 0.03778 0.48817 0.0
C360 C 0.14902 0.16673 0.97727 0.0
C361 C 0.13762 0.13096 -0.01903 0.0
H362 H 0.13498 0.20628 0.9731 0.0
C363 C 0.10168 0.1071 0.97655 0.0
H364 H 0.17652 0.18575 -0.02144 0.0
C365 C 0.07768 0.11887 0.97337 0.0
C366 C 0.0892 0.15474 0.97394 0.0
H367 H 0.09207 0.07938 -0.0198 0.0
H368 H 0.05015 0.09989 0.97312 0.0
C369 C 0.12515 0.17848 0.9737 0.0
C370 C 0.92887 0.97661 0.97297 0.0
C371 C 0.89301 0.95226 0.97349 0.0
H372 H 0.96836 0.03048 -0.02032 0.0
C373 C 0.86926 0.96448 0.97305 0.0
H374 H 0.94786 0.96806 0.97287 0.0
C375 C 0.88101 1.00009 0.97646 0.0
C376 C 0.91678 0.02447 -0.0198 0.0
H377 H 0.84147 0.94651 0.9724 0.0
H378 H 0.862 1.00858 -0.02242 0.0
C379 C 0.94065 0.01239 0.97598 0.0
C380 C 0.03533 0.94605 0.97662 0.0
C381 C 0.02326 0.91011 -0.01939 0.0
H382 H 0.07965 0.99759 0.97394 0.0
C383 C 0.04764 0.89872 0.97696 0.0
H384 H 0.01723 0.95566 -0.01975 0.0
C385 C 0.08326 0.92259 0.97385 0.0
C386 C 0.09546 0.95855 0.97449 0.0
H387 H 0.03916 0.87122 -0.02208 0.0
H388 H 0.10123 0.91277 0.97325 0.0
C389 C 0.07111 0.97005 0.97389 0.0
C390 C 0.74435 0.45217 0.30691 0.0
C391 C 0.7559 0.48804 0.30753 0.0
H392 H 0.75868 0.41264 0.31358 0.0
C393 C 0.79186 0.51176 0.30725 0.0
H394 H 0.71681 0.43321 0.30669 0.0
C395 C 0.8157 0.49997 0.3107 0.0
C396 C 0.80427 0.46419 0.31433 0.0
H397 H 0.80171 0.53956 0.30668 0.0
H398 H 0.84321 0.51896 0.31194 0.0
C399 C 0.76832 0.44036 0.30997 0.0
C400 C 0.54765 0.33353 0.31144 0.0
C401 C 0.58343 0.35788 0.31493 0.0
H402 H 0.50808 0.27995 0.30793 0.0
C403 C 0.60727 0.34577 0.31093 0.0
H404 H 0.52865 0.34203 0.31242 0.0
C405 C 0.59547 0.30999 0.3083 0.0
C406 C 0.5596 0.28566 0.30903 0.0
H407 H 0.63499 0.36385 0.31445 0.0
H408 H 0.61444 0.30141 0.30832 0.0
C409 C 0.53588 0.2979 0.30843 0.0
C410 C 0.71412 0.23192 0.31196 0.0
C411 C 0.68978 0.24336 0.31548 0.0
H412 H 0.76769 0.2459 0.30781 0.0
C413 C 0.70189 0.2793 0.31078 0.0
H414 H 0.70561 0.20442 0.31347 0.0
C415 C 0.73767 0.30327 0.30748 0.0
C416 C 0.76199 0.29172 0.30821 0.0
H417 H 0.68381 0.28895 0.3143 0.0
H418 H 0.74625 0.33081 0.30701 0.0
C419 C 0.74974 0.25576 0.30826 0.0
C420 C 0.43499 0.7737 0.6439 0.0
C421 C 0.47094 0.79755 0.64795 0.0
H422 H 0.38346 0.76651 0.64113 0.0
C423 C 0.48235 0.83332 0.64435 0.0
H424 H 0.42537 0.74598 0.64749 0.0
C425 C 0.45849 0.84509 0.64122 0.0
C426 C 0.42253 0.82136 0.64178 0.0
H427 H 0.50985 0.85233 0.64537 0.0
H428 H 0.46833 0.87289 0.64065 0.0
C429 C 0.41101 0.78549 0.64114 0.0
C430 C 0.26214 0.6433 0.64049 0.0
C431 C 0.22628 0.61896 0.64104 0.0
H432 H 0.30166 0.69716 0.64735 0.0
C433 C 0.20255 0.63119 0.64081 0.0
H434 H 0.28112 0.63473 0.64024 0.0
C435 C 0.21431 0.66681 0.64439 0.0
C436 C 0.25009 0.69117 0.64809 0.0
H437 H 0.17475 0.61324 0.6402 0.0
H438 H 0.19531 0.67531 0.64568 0.0
C439 C 0.27394 0.67907 0.64368 0.0
C440 C 0.40437 0.63665 0.64019 0.0
C441 C 0.42871 0.62511 0.64079 0.0
H442 H 0.35051 0.6223 0.64681 0.0
C443 C 0.41647 0.58915 0.64041 0.0
H444 H 0.41294 0.66419 0.64006 0.0
C445 C 0.38085 0.5653 0.64378 0.0
C446 C 0.35649 0.57672 0.64743 0.0
H447 H 0.43443 0.57931 0.63981 0.0
H448 H 0.37235 0.5378 0.64494 0.0
C449 C 0.36859 0.61267 0.64318 0.0
C450 C 0.04477 0.22085 0.56032 0.0
C451 C 0.02001 0.19091 0.62353 0.0
H452 H 0.06625 0.24448 0.38592 0.0
C453 C 0.99752 0.16112 0.55539 0.0
H454 H 0.06259 0.24425 0.6101 0.0
C455 C 0.99975 0.16126 0.42685 0.0
C456 C 0.02454 0.19118 0.36366 0.0
H457 H 0.9783 0.13761 0.60126 0.0
H458 H 0.98191 0.13787 0.37706 0.0
C459 C 0.04702 0.22097 0.43179 0.0
C460 C 0.82687 0.84172 0.56002 0.0
C461 C 0.85681 0.8469 0.62324 0.0
H462 H 0.80324 0.83958 0.38561 0.0
C463 C 0.8866 0.8542 0.55511 0.0
H464 H 0.80347 0.83615 0.60979 0.0
C465 C 0.88646 0.8563 0.42657 0.0
C466 C 0.85654 0.85117 0.36337 0.0
H467 H 0.91011 0.85849 0.60099 0.0
H468 H 0.90985 0.86184 0.37679 0.0
C469 C 0.82675 0.84385 0.43149 0.0
C470 C 0.19352 0.05021 0.55654 0.0
C471 C 0.20084 0.02773 0.62465 0.0
H472 H 0.18585 0.06581 0.37823 0.0
C473 C 0.20601 1.00296 0.56142 0.0
H474 H 0.18923 0.06943 0.60243 0.0
C475 C 0.20386 1.0007 0.43289 0.0
C476 C 0.19652 0.02318 0.36478 0.0
H477 H 0.21159 0.98515 0.61118 0.0
H478 H 0.20814 0.98148 0.38701 0.0
C479 C 0.1914 0.04797 0.42801 0.0
C480 C 0.71382 0.55438 0.76543 0.0
C481 C 0.69133 0.5246 0.69726 0.0
H482 H 0.72939 0.57763 0.94377 0.0
C483 C 0.66654 0.49467 0.76042 0.0
H484 H 0.73306 0.57789 0.71959 0.0
C485 C 0.6643 0.49453 0.88896 0.0
C486 C 0.68679 0.5243 0.95714 0.0
H487 H 0.64869 0.4713 0.7106 0.0
H488 H 0.64507 0.47101 0.9348 0.0
C489 C 0.71156 0.55424 0.89396 0.0
C490 C 0.4933 0.17726 0.76739 0.0
C491 C 0.52309 0.18458 0.69925 0.0
H492 H 0.47002 0.16954 0.9457 0.0
C493 C 0.55302 0.18971 0.76245 0.0
H494 H 0.46979 0.17298 0.72153 0.0
C495 C 0.55315 0.1876 0.89098 0.0
C496 C 0.52336 0.18029 0.95912 0.0
H497 H 0.5764 0.19526 0.71266 0.0
H498 H 0.57667 0.19189 0.93685 0.0
C499 C 0.49342 0.17512 0.89592 0.0
C500 C 0.85798 0.38111 0.76086 0.0
C501 C 0.86311 0.35632 0.69768 0.0
H502 H 0.85576 0.40256 0.93526 0.0
C503 C 0.87041 0.33383 0.76583 0.0
H504 H 0.85245 0.39896 0.71106 0.0
C505 C 0.87252 0.33608 0.89436 0.0
C506 C 0.86734 0.36084 0.95756 0.0
H507 H 0.87469 0.3146 0.71997 0.0
H508 H 0.87808 0.31825 0.94416 0.0
C509 C 0.86006 0.38334 0.8894 0.0
C510 C 0.37818 0.88752 0.22854 0.0
C511 C 0.3534 0.85759 0.29175 0.0
H512 H 0.39967 0.91114 0.05414 0.0
C513 C 0.3309 0.82781 0.22362 0.0
H514 H 0.39601 0.91092 0.27831 0.0
C515 C 0.33313 0.82794 0.09509 0.0
C516 C 0.35793 0.85785 0.03188 0.0
H517 H 0.31167 0.8043 0.2695 0.0
H518 H 0.31527 0.80455 0.0453 0.0
C519 C 0.38043 0.88764 0.10001 0.0
C520 C 0.15999 0.51055 0.09877 0.0
C521 C 0.18978 0.51785 0.03064 0.0
H522 H 0.13673 0.50287 0.27708 0.0
C523 C 0.2197 0.52298 0.09384 0.0
H524 H 0.13649 0.50628 0.0529 0.0
C525 C 0.21984 0.52089 0.22238 0.0
C526 C 0.19006 0.51361 0.29051 0.0
H527 H 0.24309 0.52851 0.04405 0.0
H528 H 0.24336 0.52518 0.26825 0.0
C529 C 0.16012 0.50844 0.2273 0.0
C530 C 0.53924 0.66947 0.22728 0.0
C531 C 0.53406 0.69424 0.29048 0.0
H532 H 0.5414 0.64799 0.0529 0.0
C533 C 0.52678 0.71674 0.22233 0.0
H534 H 0.5448 0.65164 0.27708 0.0
C535 C 0.52469 0.7145 0.09379 0.0
C536 C 0.52982 0.68971 0.0306 0.0
H537 H 0.52249 0.73596 0.26818 0.0
H538 H 0.51916 0.73235 0.04398 0.0
C539 C 0.53712 0.66722 0.09875 0.0
loop_
_geom_bond_atom_site_label_1
_geom_bond_atom_site_label_2
_geom_bond_distance
_geom_bond_site_symmetry_2
_ccdc_geom_bond_type
Co0 N5 2.057 . S
Co0 O17 2.021 1_554 S
Co0 O20 2.062 1_654 S
Co0 O24 2.117 . S
Co0 O25 2.020 . S
C1 O21 1.259 . S
C1 O24 1.258 1_455 S
Co2 N11 2.057 1_554 S
Co2 O18 2.117 1_554 S
Co2 O19 2.020 1_554 S
Co2 O21 2.021 . S
Co2 O26 2.062 1_455 S
C3 N5 1.316 1_556 S
C3 N6 1.347 1_556 S
C3 H8 0.931 . S
C4 N5 1.375 . S
C4 C7 1.350 . S
C4 H9 0.930 . S
N5 Co0 2.057 . S
N5 C3 1.316 1_554 S
N5 C4 1.375 . S
N6 C3 1.347 1_554 S
N6 C7 1.373 . S
C7 C4 1.350 . S
C7 N6 1.373 . S
C7 H28 0.931 . S
H8 C3 0.931 . S
H9 C4 0.930 . S
C10 O17 1.258 1_455 S
C10 O18 1.259 . S
N11 Co2 2.057 1_556 S
N11 C12 1.316 1_556 S
N11 C13 1.375 . S
C12 N11 1.316 1_554 S
C12 N14 1.347 1_554 S
C12 H23 0.931 . S
C13 N11 1.375 . S
C13 C15 1.350 . S
C13 H22 0.930 . S
N14 C12 1.347 1_556 S
N14 C15 1.373 . S
C15 C13 1.350 . S
C15 N14 1.373 . S
C15 H29 0.931 . S
C16 O19 1.256 . S
C16 O20 1.255 . S
O17 Co0 2.021 1_556 S
O17 C10 1.258 1_655 S
O18 Co2 2.117 1_556 S
O18 C10 1.259 . S
O19 Co2 2.020 1_556 S
O19 C16 1.256 . S
O20 Co0 2.062 1_456 S
O20 C16 1.255 . S
O21 C1 1.259 . S
O21 Co2 2.021 . S
H22 C13 0.930 . S
H23 C12 0.931 . S
O24 Co0 2.117 . S
O24 C1 1.258 1_655 S
O25 Co0 2.020 . S
O25 C27 1.256 . S
O26 Co2 2.062 1_655 S
O26 C27 1.255 . S
C27 O25 1.256 . S
C27 O26 1.255 . S
H28 C7 0.931 . S
H29 C15 0.931 . S
Co30 N35 2.057 . S
Co30 O47 2.021 1_554 S
Co30 O50 2.062 1_554 S
Co30 O54 2.117 . S
Co30 O55 2.020 . S
C31 O51 1.259 . S
C31 O54 1.258 . S
Co32 N41 2.057 1_554 S
Co32 O48 2.117 1_554 S
Co32 O49 2.020 1_554 S
Co32 O51 2.021 . S
Co32 O56 2.062 . S
C33 N35 1.316 1_556 S
C33 N36 1.347 1_556 S
C33 H38 0.931 . S
C34 N35 1.375 . S
C34 C37 1.350 . S
C34 H39 0.930 . S
N35 Co30 2.057 . S
N35 C33 1.316 1_554 S
N35 C34 1.375 . S
N36 C33 1.347 1_554 S
N36 C37 1.373 . S
C37 C34 1.350 . S
C37 N36 1.373 . S
C37 H58 0.931 . S
H38 C33 0.931 . S
H39 C34 0.930 . S
C40 O47 1.259 . S
C40 O48 1.258 . S
N41 Co32 2.057 1_556 S
N41 C42 1.316 1_556 S
N41 C43 1.375 . S
C42 N41 1.316 1_554 S
C42 N44 1.347 1_554 S
C42 H53 0.931 . S
C43 N41 1.375 . S
C43 C45 1.350 . S
C43 H52 0.930 . S
N44 C42 1.347 1_556 S
N44 C45 1.373 . S
C45 C43 1.350 . S
C45 N44 1.373 . S
C45 H59 0.931 . S
C46 O49 1.256 . S
C46 O50 1.255 . S
O47 Co30 2.021 1_556 S
O47 C40 1.259 . S
O48 Co32 2.117 1_556 S
O48 C40 1.258 . S
O49 Co32 2.020 1_556 S
O49 C46 1.256 . S
O50 Co30 2.062 1_556 S
O50 C46 1.255 . S
O51 C31 1.259 . S
O51 Co32 2.021 . S
H52 C43 0.930 . S
H53 C42 0.931 . S
O54 Co30 2.117 . S
O54 C31 1.258 . S
O55 Co30 2.020 . S
O55 C57 1.256 . S
O56 Co32 2.062 . S
O56 C57 1.255 . S
C57 O55 1.256 . S
C57 O56 1.255 . S
H58 C37 0.931 . S
H59 C45 0.931 . S
Co60 N65 2.057 . S
Co60 O77 2.021 1_554 S
Co60 O80 2.055 1_544 S
Co60 O84 2.117 . S
Co60 O85 2.020 . S
C61 O81 1.259 1_545 S
C61 O84 1.258 . S
Co62 N71 2.057 1_554 S
Co62 O78 2.118 1_554 S
Co62 O79 2.020 1_554 S
Co62 O81 2.021 . S
Co62 O86 2.062 1_565 S
C63 N65 1.316 1_556 S
C63 N66 1.347 1_556 S
C63 H68 0.931 . S
C64 N65 1.375 . S
C64 C67 1.350 . S
C64 H69 0.930 . S
N65 Co60 2.057 . S
N65 C63 1.316 1_554 S
N65 C64 1.375 . S
N66 C63 1.347 1_554 S
N66 C67 1.373 . S
C67 C64 1.350 . S
C67 N66 1.373 . S
C67 H88 0.931 . S
H68 C63 0.931 . S
H69 C64 0.930 . S
C70 O77 1.259 . S
C70 O78 1.256 1_545 S
N71 Co62 2.057 1_556 S
N71 C72 1.316 1_556 S
N71 C73 1.375 . S
C72 N71 1.316 1_554 S
C72 N74 1.347 1_554 S
C72 H83 0.931 . S
C73 N71 1.375 . S
C73 C75 1.350 . S
C73 H82 0.930 . S
N74 C72 1.347 1_556 S
N74 C75 1.373 . S
C75 C73 1.350 . S
C75 N74 1.373 . S
C75 H89 0.931 . S
C76 O79 1.256 . S
C76 O80 1.275 . S
O77 Co60 2.021 1_556 S
O77 C70 1.259 . S
O78 Co62 2.118 1_556 S
O78 C70 1.256 1_565 S
O79 Co62 2.020 1_556 S
O79 C76 1.256 . S
O80 Co60 2.055 1_566 S
O80 C76 1.275 . S
O81 C61 1.259 1_565 S
O81 Co62 2.021 . S
H82 C73 0.930 . S
H83 C72 0.931 . S
O84 Co60 2.117 . S
O84 C61 1.258 . S
O85 Co60 2.020 . S
O85 C87 1.256 . S
O86 Co62 2.062 1_545 S
O86 C87 1.255 . S
C87 O85 1.256 . S
C87 O86 1.255 . S
H88 C67 0.931 . S
H89 C75 0.931 . S
Co90 N95 2.057 . S
Co90 O107 2.021 . S
Co90 O110 2.062 . S
Co90 O114 2.117 . S
Co90 O115 2.020 . S
C91 O111 1.259 . S
C91 O114 1.258 . S
Co92 N101 2.057 . S
Co92 O108 2.117 . S
Co92 O109 2.020 . S
Co92 O111 2.021 . S
Co92 O116 2.062 . S
C93 N95 1.316 . S
C93 N96 1.347 . S
C93 H98 0.931 . S
C94 N95 1.375 . S
C94 C97 1.350 . S
C94 H99 0.930 . S
N95 Co90 2.057 . S
N95 C93 1.316 . S
N95 C94 1.375 . S
N96 C93 1.347 . S
N96 C97 1.373 . S
C97 C94 1.350 . S
C97 N96 1.373 . S
C97 H118 0.931 . S
H98 C93 0.931 . S
H99 C94 0.930 . S
C100 O107 1.259 . S
C100 O108 1.258 . S
N101 Co92 2.057 . S
N101 C102 1.316 . S
N101 C103 1.375 . S
C102 N101 1.316 . S
C102 N104 1.347 . S
C102 H113 0.931 . S
C103 N101 1.375 . S
C103 C105 1.350 . S
C103 H112 0.930 . S
N104 C102 1.347 . S
N104 C105 1.373 . S
C105 C103 1.350 . S
C105 N104 1.373 . S
C105 H119 0.931 . S
C106 O109 1.256 . S
C106 O110 1.255 . S
O107 Co90 2.021 . S
O107 C100 1.259 . S
O108 Co92 2.117 . S
O108 C100 1.258 . S
O109 Co92 2.020 . S
O109 C106 1.256 . S
O110 Co90 2.062 . S
O110 C106 1.255 . S
O111 C91 1.259 . S
O111 Co92 2.021 . S
H112 C103 0.930 . S
H113 C102 0.931 . S
O114 Co90 2.117 . S
O114 C91 1.258 . S
O115 Co90 2.020 . S
O115 C117 1.256 . S
O116 Co92 2.062 . S
O116 C117 1.255 . S
C117 O115 1.256 . S
C117 O116 1.255 . S
H118 C97 0.931 . S
H119 C105 0.931 . S
Co120 N125 2.057 . S
Co120 O137 2.021 . S
Co120 O140 2.062 . S
Co120 O144 2.117 . S
Co120 O145 2.020 . S
C121 O141 1.259 . S
C121 O144 1.258 . S
Co122 N131 2.057 . S
Co122 O138 2.117 . S
Co122 O139 2.020 . S
Co122 O141 2.021 . S
Co122 O146 2.062 . S
C123 N125 1.316 . S
C123 N126 1.347 . S
C123 H128 0.931 . S
C124 N125 1.375 . S
C124 C127 1.350 . S
C124 H129 0.930 . S
N125 Co120 2.057 . S
N125 C123 1.316 . S
N125 C124 1.375 . S
N126 C123 1.347 . S
N126 C127 1.373 . S
C127 C124 1.350 . S
C127 N126 1.373 . S
C127 H148 0.931 . S
H128 C123 0.931 . S
H129 C124 0.930 . S
C130 O137 1.259 . S
C130 O138 1.258 . S
N131 Co122 2.057 . S
N131 C132 1.316 . S
N131 C133 1.375 . S
C132 N131 1.316 . S
C132 N134 1.347 . S
C132 H143 0.931 . S
C133 N131 1.375 . S
C133 C135 1.350 . S
C133 H142 0.930 . S
N134 C132 1.347 . S
N134 C135 1.373 . S
C135 C133 1.350 . S
C135 N134 1.373 . S
C135 H149 0.931 . S
C136 O139 1.256 . S
C136 O140 1.255 . S
O137 Co120 2.021 . S
O137 C130 1.259 . S
O138 Co122 2.117 . S
O138 C130 1.258 . S
O139 Co122 2.020 . S
O139 C136 1.256 . S
O140 Co120 2.062 . S
O140 C136 1.255 . S
O141 C121 1.259 . S
O141 Co122 2.021 . S
H142 C133 0.930 . S
H143 C132 0.931 . S
O144 Co120 2.117 . S
O144 C121 1.258 . S
O145 Co120 2.020 . S
O145 C147 1.256 . S
O146 Co122 2.062 . S
O146 C147 1.255 . S
C147 O145 1.256 . S
C147 O146 1.255 . S
H148 C127 0.931 . S
H149 C135 0.931 . S
Co150 N155 2.057 . S
Co150 O167 2.021 . S
Co150 O170 2.062 . S
Co150 O174 2.117 . S
Co150 O175 2.020 . S
C151 O171 1.259 . S
C151 O174 1.258 . S
Co152 N161 2.057 . S
Co152 O168 2.117 . S
Co152 O169 2.020 . S
Co152 O171 2.021 . S
Co152 O176 2.062 . S
C153 N155 1.316 . S
C153 N156 1.347 . S
C153 H158 0.931 . S
C154 N155 1.375 . S
C154 C157 1.350 . S
C154 H159 0.930 . S
N155 Co150 2.057 . S
N155 C153 1.316 . S
N155 C154 1.375 . S
N156 C153 1.347 . S
N156 C157 1.373 . S
C157 C154 1.350 . S
C157 N156 1.373 . S
C157 H178 0.931 . S
H158 C153 0.931 . S
H159 C154 0.930 . S
C160 O167 1.259 . S
C160 O168 1.258 . S
N161 Co152 2.057 . S
N161 C162 1.316 . S
N161 C163 1.375 . S
C162 N161 1.316 . S
C162 N164 1.347 . S
C162 H173 0.931 . S
C163 N161 1.375 . S
C163 C165 1.350 . S
C163 H172 0.930 . S
N164 C162 1.347 . S
N164 C165 1.373 . S
C165 C163 1.350 . S
C165 N164 1.373 . S
C165 H179 0.931 . S
C166 O169 1.256 . S
C166 O170 1.255 . S
O167 Co150 2.021 . S
O167 C160 1.259 . S
O168 Co152 2.117 . S
O168 C160 1.258 . S
O169 Co152 2.020 . S
O169 C166 1.256 . S
O170 Co150 2.062 . S
O170 C166 1.255 . S
O171 C151 1.259 . S
O171 Co152 2.021 . S
H172 C163 0.930 . S
H173 C162 0.931 . S
O174 Co150 2.117 . S
O174 C151 1.258 . S
O175 Co150 2.020 . S
O175 C177 1.256 . S
O176 Co152 2.062 . S
O176 C177 1.255 . S
C177 O175 1.256 . S
C177 O176 1.255 . S
H178 C157 0.931 . S
H179 C165 0.931 . S
Co180 N185 2.057 . S
Co180 O197 2.021 . S
Co180 O200 2.062 . S
Co180 O204 2.117 . S
Co180 O205 2.020 . S
C181 O201 1.259 . S
C181 O204 1.258 . S
Co182 N191 2.057 . S
Co182 O198 2.117 . S
Co182 O199 2.020 . S
Co182 O201 2.021 . S
Co182 O206 2.062 . S
C183 N185 1.316 . S
C183 N186 1.347 . S
C183 H188 0.931 . S
C184 N185 1.375 . S
C184 C187 1.350 . S
C184 H189 0.930 . S
N185 Co180 2.057 . S
N185 C183 1.316 . S
N185 C184 1.375 . S
N186 C183 1.347 . S
N186 C187 1.373 . S
C187 C184 1.350 . S
C187 N186 1.373 . S
C187 H208 0.931 . S
H188 C183 0.931 . S
H189 C184 0.930 . S
C190 O197 1.259 . S
C190 O198 1.258 . S
N191 Co182 2.057 . S
N191 C192 1.316 . S
N191 C193 1.375 . S
C192 N191 1.316 . S
C192 N194 1.347 . S
C192 H203 0.931 . S
C193 N191 1.375 . S
C193 C195 1.350 . S
C193 H202 0.930 . S
N194 C192 1.347 . S
N194 C195 1.373 . S
C195 C193 1.350 . S
C195 N194 1.373 . S
C195 H209 0.931 . S
C196 O199 1.256 . S
C196 O200 1.255 . S
O197 Co180 2.021 . S
O197 C190 1.259 . S
O198 Co182 2.117 . S
O198 C190 1.258 . S
O199 Co182 2.020 . S
O199 C196 1.256 . S
O200 Co180 2.062 . S
O200 C196 1.255 . S
O201 C181 1.259 . S
O201 Co182 2.021 . S
H202 C193 0.930 . S
H203 C192 0.931 . S
O204 Co180 2.117 . S
O204 C181 1.258 . S
O205 Co180 2.020 . S
O205 C207 1.256 . S
O206 Co182 2.062 . S
O206 C207 1.255 . S
C207 O205 1.256 . S
C207 O206 1.255 . S
H208 C187 0.931 . S
H209 C195 0.931 . S
Co210 N215 2.057 . S
Co210 O227 2.021 . S
Co210 O230 2.062 . S
Co210 O234 2.117 . S
Co210 O235 2.020 . S
C211 O231 1.259 . S
C211 O234 1.258 . S
Co212 N221 2.057 . S
Co212 O228 2.117 . S
Co212 O229 2.020 . S
Co212 O231 2.021 . S
Co212 O236 2.062 . S
C213 N215 1.316 . S
C213 N216 1.347 . S
C213 H218 0.931 . S
C214 N215 1.375 . S
C214 C217 1.350 . S
C214 H219 0.930 . S
N215 Co210 2.057 . S
N215 C213 1.316 . S
N215 C214 1.375 . S
N216 C213 1.347 . S
N216 C217 1.373 . S
C217 C214 1.350 . S
C217 N216 1.373 . S
C217 H238 0.931 . S
H218 C213 0.931 . S
H219 C214 0.930 . S
C220 O227 1.259 . S
C220 O228 1.258 . S
N221 Co212 2.057 . S
N221 C222 1.316 . S
N221 C223 1.375 . S
C222 N221 1.316 . S
C222 N224 1.347 . S
C222 H233 0.931 . S
C223 N221 1.375 . S
C223 C225 1.350 . S
C223 H232 0.930 . S
N224 C222 1.347 . S
N224 C225 1.373 . S
C225 C223 1.350 . S
C225 N224 1.373 . S
C225 H239 0.931 . S
C226 O229 1.256 . S
C226 O230 1.255 . S
O227 Co210 2.021 . S
O227 C220 1.259 . S
O228 Co212 2.117 . S
O228 C220 1.258 . S
O229 Co212 2.020 . S
O229 C226 1.256 . S
O230 Co210 2.062 . S
O230 C226 1.255 . S
O231 C211 1.259 . S
O231 Co212 2.021 . S
H232 C223 0.930 . S
H233 C222 0.931 . S
O234 Co210 2.117 . S
O234 C211 1.258 . S
O235 Co210 2.020 . S
O235 C237 1.256 . S
O236 Co212 2.062 . S
O236 C237 1.255 . S
C237 O235 1.256 . S
C237 O236 1.255 . S
H238 C217 0.931 . S
H239 C225 0.931 . S
Co240 N245 2.057 . S
Co240 O257 2.021 . S
Co240 O260 2.062 . S
Co240 O264 2.117 . S
Co240 O265 2.020 . S
C241 O261 1.259 . S
C241 O264 1.258 . S
Co242 N251 2.057 . S
Co242 O258 2.117 . S
Co242 O259 2.020 . S
Co242 O261 2.021 . S
Co242 O266 2.062 . S
C243 N245 1.316 . S
C243 N246 1.347 . S
C243 H248 0.931 . S
C244 N245 1.375 . S
C244 C247 1.350 . S
C244 H249 0.930 . S
N245 Co240 2.057 . S
N245 C243 1.316 . S
N245 C244 1.375 . S
N246 C243 1.347 . S
N246 C247 1.373 . S
C247 C244 1.350 . S
C247 N246 1.373 . S
C247 H268 0.931 . S
H248 C243 0.931 . S
H249 C244 0.930 . S
C250 O257 1.259 . S
C250 O258 1.258 . S
N251 Co242 2.057 . S
N251 C252 1.316 . S
N251 C253 1.375 . S
C252 N251 1.316 . S
C252 N254 1.347 . S
C252 H263 0.931 . S
C253 N251 1.375 . S
C253 C255 1.350 . S
C253 H262 0.930 . S
N254 C252 1.347 . S
N254 C255 1.373 . S
C255 C253 1.350 . S
C255 N254 1.373 . S
C255 H269 0.931 . S
C256 O259 1.256 . S
C256 O260 1.255 . S
O257 Co240 2.021 . S
O257 C250 1.259 . S
O258 Co242 2.117 . S
O258 C250 1.258 . S
O259 Co242 2.020 . S
O259 C256 1.256 . S
O260 Co240 2.062 . S
O260 C256 1.255 . S
O261 C241 1.259 . S
O261 Co242 2.021 . S
H262 C253 0.930 . S
H263 C252 0.931 . S
O264 Co240 2.117 . S
O264 C241 1.258 . S
O265 Co240 2.020 . S
O265 C267 1.256 . S
O266 Co242 2.062 . S
O266 C267 1.255 . S
C267 O265 1.256 . S
C267 O266 1.255 . S
H268 C247 0.931 . S
H269 C255 0.931 . S
C270 C271 1.387 . S
C270 H274 0.950 . S
C270 C279 1.390 . S
C271 C270 1.387 . S
C271 C273 1.387 . S
H272 C279 0.950 . S
C273 C271 1.387 . S
C273 C275 1.390 . S
C273 H277 0.950 . S
H274 C270 0.950 . S
C275 C273 1.390 . S
C275 C276 1.387 . S
C275 H278 0.950 . S
C276 C275 1.387 . S
C276 C279 1.387 . S
H277 C273 0.950 . S
H278 C275 0.950 . S
C279 C270 1.390 . S
C279 H272 0.950 . S
C279 C276 1.387 . S
C280 C281 1.387 . S
C280 H284 0.950 . S
C280 C289 1.390 . S
C281 C280 1.387 . S
C281 C283 1.387 . S
H282 C289 0.950 . S
C283 C281 1.387 . S
C283 C285 1.390 . S
C283 H287 0.950 1_556 S
H284 C280 0.950 . S
C285 C283 1.390 . S
C285 C286 1.387 . S
C285 H288 0.950 . S
C286 C285 1.387 . S
C286 C289 1.387 . S
H287 C283 0.950 1_554 S
H288 C285 0.950 . S
C289 C280 1.390 . S
C289 H282 0.950 . S
C289 C286 1.387 . S
C290 C291 1.387 . S
C290 H294 0.950 . S
C290 C299 1.390 . S
C291 C290 1.387 . S
C291 C293 1.387 . S
H292 C299 0.950 . S
C293 C291 1.387 . S
C293 C295 1.390 . S
C293 H297 0.950 . S
H294 C290 0.950 . S
C295 C293 1.390 . S
C295 C296 1.387 . S
C295 H298 0.950 . S
C296 C295 1.387 . S
C296 C299 1.387 . S
H297 C293 0.950 . S
H298 C295 0.950 . S
C299 C290 1.390 . S
C299 H292 0.950 . S
C299 C296 1.387 . S
C300 C301 1.387 . S
C300 H304 0.950 . S
C300 C309 1.390 . S
C301 C300 1.387 . S
C301 C303 1.387 . S
H302 C309 0.950 . S
C303 C301 1.387 . S
C303 C305 1.390 . S
C303 H307 0.950 . S
H304 C300 0.950 . S
C305 C303 1.390 . S
C305 C306 1.387 . S
C305 H308 0.950 . S
C306 C305 1.387 . S
C306 C309 1.387 . S
H307 C303 0.950 . S
H308 C305 0.950 . S
C309 C300 1.390 . S
C309 H302 0.950 . S
C309 C306 1.387 . S
C310 C311 1.387 . S
C310 H314 0.950 . S
C310 C319 1.390 . S
C311 C310 1.387 . S
C311 C313 1.387 . S
H312 C319 0.950 . S
C313 C311 1.387 . S
C313 C315 1.390 . S
C313 H317 0.950 . S
H314 C310 0.950 . S
C315 C313 1.390 . S
C315 C316 1.387 . S
C315 H318 0.950 . S
C316 C315 1.387 . S
C316 C319 1.387 . S
H317 C313 0.950 . S
H318 C315 0.950 . S
C319 C310 1.390 . S
C319 H312 0.950 . S
C319 C316 1.387 . S
C320 C321 1.387 . S
C320 H324 0.950 1_554 S
C320 C329 1.390 . S
C321 C320 1.387 . S
C321 C323 1.387 . S
H322 C329 0.950 . S
C323 C321 1.387 . S
C323 C325 1.390 . S
C323 H327 0.950 . S
H324 C320 0.950 1_556 S
C325 C323 1.390 . S
C325 C326 1.387 . S
C325 H328 0.950 . S
C326 C325 1.387 . S
C326 C329 1.387 . S
H327 C323 0.950 . S
H328 C325 0.950 . S
C329 C320 1.390 . S
C329 H322 0.950 . S
C329 C326 1.387 . S
C330 C331 1.390 . S
C330 H334 0.949 1_655 S
C330 C339 1.391 . S
C331 C330 1.390 . S
C331 C333 1.393 . S
H332 C339 0.950 . S
C333 C331 1.393 . S
C333 C335 1.390 . S
C333 H337 0.950 . S
H334 C330 0.949 1_455 S
C335 C333 1.390 . S
C335 C336 1.387 . S
C335 H338 0.950 . S
C336 C335 1.387 . S
C336 C339 1.387 . S
H337 C333 0.950 . S
H338 C335 0.950 . S
C339 C330 1.391 . S
C339 H332 0.950 . S
C339 C336 1.387 . S
C340 C341 1.387 . S
C340 H344 0.950 . S
C340 C349 1.390 . S
C341 C340 1.387 . S
C341 C343 1.387 . S
H342 C349 0.950 . S
C343 C341 1.387 . S
C343 C345 1.390 . S
C343 H347 0.950 . S
H344 C340 0.950 . S
C345 C343 1.390 . S
C345 C346 1.387 . S
C345 H348 0.950 . S
C346 C345 1.387 . S
C346 C349 1.387 . S
H347 C343 0.950 . S
H348 C345 0.950 . S
C349 C340 1.390 . S
C349 H342 0.950 . S
C349 C346 1.387 . S
C350 C351 1.387 . S
C350 H354 0.950 . S
C350 C359 1.390 . S
C351 C350 1.387 . S
C351 C353 1.387 . S
H352 C359 0.950 . S
C353 C351 1.387 . S
C353 C355 1.390 . S
C353 H357 0.950 . S
H354 C350 0.950 . S
C355 C353 1.390 . S
C355 C356 1.387 . S
C355 H358 0.950 1_545 S
C356 C355 1.387 . S
C356 C359 1.387 . S
H357 C353 0.950 . S
H358 C355 0.950 1_565 S
C359 C350 1.390 . S
C359 H352 0.950 . S
C359 C356 1.387 . S
C360 C361 1.387 . S
C360 H364 0.950 . S
C360 C369 1.390 . S
C361 C360 1.387 . S
C361 C363 1.387 1_554 S
H362 C369 0.950 . S
C363 C361 1.387 1_556 S
C363 C365 1.390 . S
C363 H367 0.950 . S
H364 C360 0.950 . S
C365 C363 1.390 . S
C365 C366 1.387 . S
C365 H368 0.950 . S
C366 C365 1.387 . S
C366 C369 1.387 1_556 S
H367 C363 0.950 . S
H368 C365 0.950 . S
C369 C360 1.390 . S
C369 H362 0.950 . S
C369 C366 1.387 1_554 S
C370 C371 1.387 1_554 S
C370 H374 0.950 . S
C370 C379 1.390 . S
C371 C370 1.387 1_556 S
C371 C373 1.387 . S
H372 C379 0.949 1_545 S
C373 C371 1.387 . S
C373 C375 1.390 . S
C373 H377 0.950 . S
H374 C370 0.950 . S
C375 C373 1.390 . S
C375 C376 1.387 1_566 S
C375 H378 0.950 1_565 S
C376 C375 1.387 1_544 S
C376 C379 1.387 1_545 S
H377 C373 0.950 . S
H378 C375 0.950 1_545 S
C379 C370 1.390 . S
C379 H372 0.949 1_565 S
C379 C376 1.387 1_565 S
C380 C381 1.387 1_556 S
C380 H384 0.950 . S
C380 C389 1.390 . S
C381 C380 1.387 1_554 S
C381 C383 1.387 . S
H382 C389 0.950 . S
C383 C381 1.387 . S
C383 C385 1.390 . S
C383 H387 0.950 . S
H384 C380 0.950 . S
C385 C383 1.390 . S
C385 C386 1.387 1_554 S
C385 H388 0.950 . S
C386 C385 1.387 1_556 S
C386 C389 1.387 . S
H387 C383 0.950 . S
H388 C385 0.950 . S
C389 C380 1.390 . S
C389 H382 0.950 . S
C389 C386 1.387 . S
C390 C391 1.387 . S
C390 H394 0.950 . S
C390 C399 1.390 . S
C391 C390 1.387 . S
C391 C393 1.387 . S
H392 C399 0.950 . S
C393 C391 1.387 . S
C393 C395 1.390 . S
C393 H397 0.950 . S
H394 C390 0.950 . S
C395 C393 1.390 . S
C395 C396 1.387 . S
C395 H398 0.950 . S
C396 C395 1.387 . S
C396 C399 1.387 . S
H397 C393 0.950 . S
H398 C395 0.950 . S
C399 C390 1.390 . S
C399 H392 0.950 . S
C399 C396 1.387 . S
C400 C401 1.387 . S
C400 H404 0.950 . S
C400 C409 1.390 . S
C401 C400 1.387 . S
C401 C403 1.387 . S
H402 C409 0.950 . S
C403 C401 1.387 . S
C403 C405 1.390 . S
C403 H407 0.950 . S
H404 C400 0.950 . S
C405 C403 1.390 . S
C405 C406 1.387 . S
C405 H408 0.950 . S
C406 C405 1.387 . S
C406 C409 1.387 . S
H407 C403 0.950 . S
H408 C405 0.950 . S
C409 C400 1.390 . S
C409 H402 0.950 . S
C409 C406 1.387 . S
C410 C411 1.387 . S
C410 H414 0.950 . S
C410 C419 1.390 . S
C411 C410 1.387 . S
C411 C413 1.387 . S
H412 C419 0.950 . S
C413 C411 1.387 . S
C413 C415 1.390 . S
C413 H417 0.950 . S
H414 C410 0.950 . S
C415 C413 1.390 . S
C415 C416 1.387 . S
C415 H418 0.950 . S
C416 C415 1.387 . S
C416 C419 1.387 . S
H417 C413 0.950 . S
H418 C415 0.950 . S
C419 C410 1.390 . S
C419 H412 0.950 . S
C419 C416 1.387 . S
C420 C421 1.387 . S
C420 H424 0.950 . S
C420 C429 1.390 . S
C421 C420 1.387 . S
C421 C423 1.387 . S
H422 C429 0.950 . S
C423 C421 1.387 . S
C423 C425 1.390 . S
C423 H427 0.950 . S
H424 C420 0.950 . S
C425 C423 1.390 . S
C425 C426 1.387 . S
C425 H428 0.950 . S
C426 C425 1.387 . S
C426 C429 1.387 . S
H427 C423 0.950 . S
H428 C425 0.950 . S
C429 C420 1.390 . S
C429 H422 0.950 . S
C429 C426 1.387 . S
C430 C431 1.387 . S
C430 H434 0.950 . S
C430 C439 1.390 . S
C431 C430 1.387 . S
C431 C433 1.387 . S
H432 C439 0.950 . S
C433 C431 1.387 . S
C433 C435 1.390 . S
C433 H437 0.950 . S
H434 C430 0.950 . S
C435 C433 1.390 . S
C435 C436 1.387 . S
C435 H438 0.950 . S
C436 C435 1.387 . S
C436 C439 1.387 . S
H437 C433 0.950 . S
H438 C435 0.950 . S
C439 C430 1.390 . S
C439 H432 0.950 . S
C439 C436 1.387 . S
C440 C441 1.387 . S
C440 H444 0.950 . S
C440 C449 1.390 . S
C441 C440 1.387 . S
C441 C443 1.387 . S
H442 C449 0.950 . S
C443 C441 1.387 . S
C443 C445 1.390 . S
C443 H447 0.950 . S
H444 C440 0.950 . S
C445 C443 1.390 . S
C445 C446 1.387 . S
C445 H448 0.950 . S
C446 C445 1.387 . S
C446 C449 1.387 . S
H447 C443 0.950 . S
H448 C445 0.950 . S
C449 C440 1.390 . S
C449 H442 0.950 . S
C449 C446 1.387 . S
C450 C451 1.387 . S
C450 H454 0.950 . S
C450 C459 1.390 . S
C451 C450 1.387 . S
C451 C453 1.387 1_455 S
H452 C459 0.950 . S
C453 C451 1.387 1_655 S
C453 C455 1.390 . S
C453 H457 0.950 . S
H454 C450 0.950 . S
C455 C453 1.390 . S
C455 C456 1.387 1_655 S
C455 H458 0.950 . S
C456 C455 1.387 1_455 S
C456 C459 1.387 . S
H457 C453 0.950 . S
H458 C455 0.950 . S
C459 C450 1.390 . S
C459 H452 0.950 . S
C459 C456 1.387 . S
C460 C461 1.387 . S
C460 H464 0.950 . S
C460 C469 1.390 . S
C461 C460 1.387 . S
C461 C463 1.387 . S
H462 C469 0.950 . S
C463 C461 1.387 . S
C463 C465 1.390 . S
C463 H467 0.950 . S
H464 C460 0.950 . S
C465 C463 1.390 . S
C465 C466 1.387 . S
C465 H468 0.950 . S
C466 C465 1.387 . S
C466 C469 1.387 . S
H467 C463 0.950 . S
H468 C465 0.950 . S
C469 C460 1.390 . S
C469 H462 0.950 . S
C469 C466 1.387 . S
C470 C471 1.387 . S
C470 H474 0.950 . S
C470 C479 1.390 . S
C471 C470 1.387 . S
C471 C473 1.417 . S
H472 C479 0.950 . S
C473 C471 1.417 . S
C473 C475 1.384 1_545 S
C473 H477 0.927 1_545 S
H474 C470 0.950 . S
C475 C473 1.384 1_565 S
C475 C476 1.387 1_565 S
C475 H478 0.950 . S
C476 C475 1.387 1_545 S
C476 C479 1.387 . S
H477 C473 0.927 1_565 S
H478 C475 0.950 . S
C479 C470 1.390 . S
C479 H472 0.950 . S
C479 C476 1.387 . S
C480 C481 1.387 . S
C480 H484 0.950 . S
C480 C489 1.390 . S
C481 C480 1.387 . S
C481 C483 1.387 . S
H482 C489 0.950 . S
C483 C481 1.387 . S
C483 C485 1.390 . S
C483 H487 0.950 . S
H484 C480 0.950 . S
C485 C483 1.390 . S
C485 C486 1.387 . S
C485 H488 0.950 . S
C486 C485 1.387 . S
C486 C489 1.387 . S
H487 C483 0.950 . S
H488 C485 0.950 . S
C489 C480 1.390 . S
C489 H482 0.950 . S
C489 C486 1.387 . S
C490 C491 1.387 . S
C490 H494 0.950 . S
C490 C499 1.390 . S
C491 C490 1.387 . S
C491 C493 1.387 . S
H492 C499 0.950 . S
C493 C491 1.387 . S
C493 C495 1.390 . S
C493 H497 0.950 . S
H494 C490 0.950 . S
C495 C493 1.390 . S
C495 C496 1.387 . S
C495 H498 0.950 . S
C496 C495 1.387 . S
C496 C499 1.387 . S
H497 C493 0.950 . S
H498 C495 0.950 . S
C499 C490 1.390 . S
C499 H492 0.950 . S
C499 C496 1.387 . S
C500 C501 1.387 . S
C500 H504 0.950 . S
C500 C509 1.390 . S
C501 C500 1.387 . S
C501 C503 1.387 . S
H502 C509 0.950 . S
C503 C501 1.387 . S
C503 C505 1.390 . S
C503 H507 0.950 . S
H504 C500 0.950 . S
C505 C503 1.390 . S
C505 C506 1.387 . S
C505 H508 0.950 . S
C506 C505 1.387 . S
C506 C509 1.387 . S
H507 C503 0.950 . S
H508 C505 0.950 . S
C509 C500 1.390 . S
C509 H502 0.950 . S
C509 C506 1.387 . S
C510 C511 1.387 . S
C510 H514 0.950 . S
C510 C519 1.390 . S
C511 C510 1.387 . S
C511 C513 1.387 . S
H512 C519 0.950 . S
C513 C511 1.387 . S
C513 C515 1.390 . S
C513 H517 0.950 . S
H514 C510 0.950 . S
C515 C513 1.390 . S
C515 C516 1.387 . S
C515 H518 0.950 . S
C516 C515 1.387 . S
C516 C519 1.387 . S
H517 C513 0.950 . S
H518 C515 0.950 . S
C519 C510 1.390 . S
C519 H512 0.950 . S
C519 C516 1.387 . S
C520 C521 1.387 . S
C520 H524 0.950 . S
C520 C529 1.390 . S
C521 C520 1.387 . S
C521 C523 1.387 . S
H522 C529 0.950 . S
C523 C521 1.387 . S
C523 C525 1.390 . S
C523 H527 0.950 . S
H524 C520 0.950 . S
C525 C523 1.390 . S
C525 C526 1.387 . S
C525 H528 0.950 . S
C526 C525 1.387 . S
C526 C529 1.387 . S
H527 C523 0.950 . S
H528 C525 0.950 . S
C529 C520 1.390 . S
C529 H522 0.950 . S
C529 C526 1.387 . S
C530 C531 1.387 . S
C530 H534 0.950 . S
C530 C539 1.390 . S
C531 C530 1.387 . S
C531 C533 1.387 . S
H532 C539 0.950 . S
C533 C531 1.387 . S
C533 C535 1.390 . S
C533 H537 0.950 . S
H534 C530 0.950 . S
C535 C533 1.390 . S
C535 C536 1.387 . S
C535 H538 0.950 . S
C536 C535 1.387 . S
C536 C539 1.387 . S
H537 C533 0.950 . S
H538 C535 0.950 . S
C539 C530 1.390 . S
C539 H532 0.950 . S
C539 C536 1.387 . S
C271 N14 1.426 . S
C276 C237 1.561 . S
C281 N44 1.430 . S
C286 C267 1.563 . S
C291 N74 1.427 . S
C296 C207 1.561 . S
C301 N134 1.427 . S
C306 C87 1.561 . S
C311 N164 1.427 . S
C316 C27 1.561 . S
C321 C57 1.563 . S
C326 N104 1.431 . S
C331 N224 1.419 1_655 S
C336 C177 1.563 . S
C341 N254 1.429 . S
C346 C117 1.562 . S
C351 C147 1.563 . S
C356 N194 1.430 1_545 S
C361 N66 1.295 . S
C366 C16 1.297 . S
C371 C46 1.296 . S
C376 N6 1.296 . S
C381 N36 1.297 1_455 S
C386 C76 1.296 . S
C391 C106 1.297 . S
C396 N156 1.296 . S
C401 N96 1.295 . S
C406 C136 1.297 . S
C411 N126 1.296 . S
C416 C166 1.297 . S
C421 N246 1.297 . S
C426 C196 1.296 . S
C431 C226 1.296 . S
C436 N186 1.296 . S
C441 C256 1.297 . S
C446 N216 1.296 . S
C451 C10 1.241 . S
C456 C1 1.241 . S
C461 C40 1.241 . S
C466 C31 1.241 . S
C471 C70 1.241 . S
C476 C61 1.241 . S
C481 C91 1.241 . S
C486 C100 1.241 1_556 S
C491 C121 1.242 . S
C496 C130 1.242 1_556 S
C501 C151 1.241 . S
C506 C160 1.241 1_556 S
C511 C190 1.241 . S
C516 C181 1.241 1_554 S
C521 C211 1.241 1_554 S
C526 C220 1.241 . S
C531 C250 1.241 . S
C536 C241 1.241 1_554 S
