# Generated by pormake.
# Topology gan, (5)-cn, num edge types: 1
# Building blocks:
#     Node 0, Type 0, BuildingBlock: XOMCOT_clean_sbu_1, # of connection points: 5
#     Node 1, Type 0, BuildingBlock: XOMCOT_clean_sbu_1, # of connection points: 5
#     Node 2, Type 0, BuildingBlock: XOMCOT_clean_sbu_1, # of connection points: 5
#     Node 3, Type 0, BuildingBlock: XOMCOT_clean_sbu_1, # of connection points: 5
#     Node 4, Type 0, BuildingBlock: XOMCOT_clean_sbu_1, # of connection points: 5
#     Node 5, Type 0, BuildingBlock: XOMCOT_clean_sbu_1, # of connection points: 5
#     Node 6, Type 0, BuildingBlock: XOMCOT_clean_sbu_1, # of connection points: 5
#     Node 7, Type 0, BuildingBlock: XOMCOT_clean_sbu_1, # of connection points: 5
#     Node 8, Type 0, BuildingBlock: XOMCOT_clean_sbu_1, # of connection points: 5
#     Node 9, Type 0, BuildingBlock: XOMCOT_clean_sbu_1, # of connection points: 5
#     Node 10, Type 0, BuildingBlock: XOMCOT_clean_sbu_1, # of connection points: 5
#     Node 11, Type 0, BuildingBlock: XOMCOT_clean_sbu_1, # of connection points: 5
#     Node 12, Type 0, BuildingBlock: XOMCOT_clean_sbu_1, # of connection points: 5
#     Node 13, Type 0, BuildingBlock: XOMCOT_clean_sbu_1, # of connection points: 5
#     Node 14, Type 0, BuildingBlock: XOMCOT_clean_sbu_1, # of connection points: 5
#     Node 15, Type 0, BuildingBlock: XOMCOT_clean_sbu_1, # of connection points: 5
#     Edge 16, Type (0, 0), None
#     Edge 17, Type (0, 0), None
#     Edge 18, Type (0, 0), None
#     Edge 19, Type (0, 0), None
#     Edge 20, Type (0, 0), None
#     Edge 21, Type (0, 0), None
#     Edge 22, Type (0, 0), None
#     Edge 23, Type (0, 0), None
#     Edge 24, Type (0, 0), None
#     Edge 25, Type (0, 0), None
#     Edge 26, Type (0, 0), None
#     Edge 27, Type (0, 0), None
#     Edge 28, Type (0, 0), None
#     Edge 29, Type (0, 0), None
#     Edge 30, Type (0, 0), None
#     Edge 31, Type (0, 0), None
#     Edge 32, Type (0, 0), None
#     Edge 33, Type (0, 0), None
#     Edge 34, Type (0, 0), None
#     Edge 35, Type (0, 0), None
#     Edge 36, Type (0, 0), None
#     Edge 37, Type (0, 0), None
#     Edge 38, Type (0, 0), None
#     Edge 39, Type (0, 0), None
#     Edge 40, Type (0, 0), None
#     Edge 41, Type (0, 0), None
#     Edge 42, Type (0, 0), None
#     Edge 43, Type (0, 0), None
#     Edge 44, Type (0, 0), None
#     Edge 45, Type (0, 0), None
#     Edge 46, Type (0, 0), None
#     Edge 47, Type (0, 0), None
#     Edge 48, Type (0, 0), None
#     Edge 49, Type (0, 0), None
#     Edge 50, Type (0, 0), None
#     Edge 51, Type (0, 0), None
#     Edge 52, Type (0, 0), None
#     Edge 53, Type (0, 0), None
#     Edge 54, Type (0, 0), None
#     Edge 55, Type (0, 0), None
# Relax obj value: 0.068
# Max RMSD: 0.113
# Mean RMSD: 0.094
data_MOF--net-gan--node1-XOMCOT_clean_sbu_1--edge1-none
_symmetry_space_group_name_H-M    P1
_symmetry_Int_Tables_number       1
_symmetry_cell_setting            triclinic
loop_
_symmetry_equiv_pos_as_xyz
'x, y, z'
_cell_length_a     22.366998
_cell_length_b     21.743749
_cell_length_c     21.106597
_cell_angle_alpha  92.763469
_cell_angle_beta   90.557392
_cell_angle_gamma 91.281455
loop_
_atom_site_label
_atom_site_type_symbol
_atom_site_fract_x
_atom_site_fract_y
_atom_site_fract_z
_atom_type_partial_charge
C0 C 1.01309 0.11083 0.18697 0.0
C1 C 0.96653 0.08233 0.15307 0.0
N2 N 0.97874 0.08673 0.09147 0.0
N3 N 0.05578 0.13028 0.14694 0.0
C4 C 0.03189 0.11698 0.08849 0.0
H5 H 1.01429 0.1196 0.23786 0.0
Co6 Co 0.12173 0.18078 0.17397 0.0
C7 C 0.17254 0.13921 0.04619 0.0
O8 O 0.16004 0.08117 0.05612 0.0
N9 N 0.18427 0.23357 0.20196 0.0
C10 C 0.25006 0.31184 0.20649 0.0
C11 C 0.20473 0.28282 0.17131 0.0
C12 C 0.2175 0.23341 0.25585 0.0
N13 N 0.25819 0.28002 0.25878 0.0
O14 O 0.07268 0.2513 0.16365 0.0
H15 H 0.18716 0.29718 0.12658 0.0
H16 H 0.21151 0.20048 0.29225 0.0
O17 O 0.15481 0.18196 0.08579 0.0
C18 C 0.05271 0.28406 0.21089 0.0
O19 O 0.06787 0.2719 0.26913 0.0
N20 N 0.16936 0.11246 0.19048 0.0
C21 C 0.24823 0.04447 0.25944 0.0
C22 C 0.26929 0.07975 0.2103 0.0
C23 C 0.22896 0.11324 0.17596 0.0
C24 C 0.14795 0.07182 0.23236 0.0
C25 C 0.18659 1.03598 0.26583 0.0
H26 H 0.24722 0.14633 0.14442 0.0
H27 H 0.10199 0.07131 0.24608 0.0
H28 H 0.05115 0.13142 0.04474 0.0
H29 H 0.92555 0.06337 0.17177 0.0
H30 H 0.27496 0.35299 0.19493 0.0
H31 H 0.31676 0.08661 0.20268 0.0
H32 H 0.16801 1.00714 0.30083 0.0
C33 C 0.21452 0.87409 0.25743 0.0
C34 C 0.24805 0.83 0.22682 0.0
N35 N 0.29074 0.81333 0.26744 0.0
N36 N 0.23588 0.88519 0.31696 0.0
C37 C 0.28272 0.84729 0.322 0.0
H38 H 0.17712 0.89742 0.23736 0.0
Co39 Co 0.20217 0.94618 0.36861 0.0
C40 C 0.2268 0.92551 0.50069 0.0
O41 O 0.17159 0.9383 0.51625 0.0
N42 N 0.16697 1.01178 0.41919 0.0
C43 C 0.15722 0.09257 0.48852 0.0
C44 C 0.19711 0.05546 0.45585 0.0
C45 C 0.10877 1.02524 0.42874 0.0
N46 N 0.10198 0.07309 0.47088 0.0
O47 O 0.27193 0.99644 0.3561 0.0
H48 H 0.24528 0.05885 0.46048 0.0
H49 H 0.07142 1.00012 0.40707 0.0
O50 O 0.24292 0.92114 0.44284 0.0
C51 C 0.28942 1.02801 0.31043 0.0
O52 O 0.34365 0.05261 0.31352 0.0
N53 N 0.1366 0.89112 0.38014 0.0
C54 C 0.04462 0.80251 0.38423 0.0
C55 C 0.09969 0.79296 0.41322 0.0
C56 C 0.14527 0.83735 0.40997 0.0
C57 C 0.08497 0.89827 0.3466 0.0
C58 C 0.03744 0.85559 0.34993 0.0
H59 H 0.1882 0.82672 0.42975 0.0
H60 H 0.08048 0.93734 0.31723 0.0
H61 H 0.31098 0.84581 0.36377 0.0
H62 H 0.24164 0.81189 0.17852 0.0
H63 H 0.16782 0.13053 0.52209 0.0
H64 H 0.1073 0.75181 0.43885 0.0
H65 H 0.99578 0.86354 0.32537 0.0
C66 C 0.30725 0.86963 0.74691 0.0
C67 C 0.27631 0.82378 0.77562 0.0
N68 N 0.31179 0.77501 0.77808 0.0
N69 N 0.36296 0.85101 0.7318 0.0
C70 C 0.36404 0.79196 0.75093 0.0
H71 H 0.29013 0.91473 0.73945 0.0
Co72 Co 0.4217 0.9029 0.69332 0.0
C73 C 0.37963 0.98675 0.80914 0.0
O74 O 0.36915 0.94241 0.8479 0.0
N75 N 0.48049 0.95607 0.65596 0.0
C76 C 0.56581 1.01107 0.64732 0.0
C77 C 0.53121 0.97647 0.68661 0.0
C78 C 0.48473 0.98076 0.59806 0.0
N79 N 0.53647 1.01366 0.59189 0.0
O80 O 0.48426 0.86656 0.74184 0.0
H81 H 0.54253 0.96712 0.73507 0.0
H82 H 0.45095 0.97472 0.56111 0.0
O83 O 0.40229 0.97422 0.75426 0.0
C84 C 0.50702 0.82998 0.69893 0.0
O85 O 0.4863 0.83053 0.64065 0.0
N86 N 0.36442 0.92605 0.6374 0.0
C87 C 0.27287 0.92547 0.54942 0.0
C88 C 0.27901 0.97419 0.59536 0.0
C89 C 0.32644 0.97424 0.63899 0.0
C90 C 0.35933 0.87966 0.59186 0.0
C91 C 0.31428 0.87885 0.54674 0.0
H92 H 0.33092 1.01104 0.67507 0.0
H93 H 0.38918 0.8415 0.59195 0.0
H94 H 0.40242 0.76271 0.74654 0.0
H95 H 0.2312 0.82614 0.79357 0.0
H96 H 0.60802 1.03431 0.65922 0.0
H97 H 0.24803 1.01183 0.5969 0.0
H98 H 0.31093 0.84132 0.51106 0.0
C99 C 0.34729 0.04481 1.02233 0.0
C100 C 0.38622 1.01884 0.06363 0.0
N101 N 0.43317 0.05761 0.07378 0.0
N102 N 0.36842 0.10047 1.00521 0.0
C103 C 0.42164 0.10706 0.03811 0.0
H104 H 0.30694 1.02229 1.00343 0.0
Co105 Co 0.3265 0.14183 0.93776 0.0
C106 C 0.36191 0.05127 0.82781 0.0
O107 O 0.37245 0.09549 0.78888 0.0
N108 N 0.28195 0.18065 0.86857 0.0
C109 C 0.20404 0.19176 0.80146 0.0
C110 C 0.23246 0.15281 0.84155 0.0
C111 C 0.28293 0.23707 0.8417 0.0
N112 N 0.23576 0.24481 0.80159 0.0
O113 O 0.24998 0.11188 0.9707 0.0
H114 H 0.21678 0.10691 0.85151 0.0
H115 H 0.31608 0.27299 0.85217 0.0
O116 O 0.3407 0.06456 0.88319 0.0
C117 C 0.22057 0.15403 1.00084 0.0
O118 O 0.24081 0.21119 1.00063 0.0
N119 N 0.39802 0.17965 0.91427 0.0
C120 C 0.49419 0.25915 0.89311 0.0
C121 C 0.4988 0.19546 0.87963 0.0
C122 C 0.44998 0.15603 0.8912 0.0
C123 C 0.3954 0.24036 0.93279 0.0
C124 C 0.44202 0.28129 0.92077 0.0
H125 H 0.45483 0.107 0.88348 0.0
H126 H 0.35585 0.25734 0.95629 0.0
H127 H 0.4526 0.1455 1.03352 0.0
H128 H 0.38096 0.97408 0.08342 0.0
H129 H 0.16372 0.18155 0.77382 0.0
H130 H 0.53973 0.1765 0.86086 0.0
H131 H 0.43793 0.32964 0.93462 0.0
C132 C 0.71491 0.37458 0.75731 0.0
C133 C 0.74844 0.33052 0.72665 0.0
N134 N 0.79099 0.31364 0.76733 0.0
N135 N 0.73612 0.38545 0.81692 0.0
C136 C 0.78288 0.34745 0.82197 0.0
H137 H 0.67759 0.39803 0.73722 0.0
Co138 Co 0.70234 0.44629 0.86871 0.0
C139 C 0.72694 0.42531 1.00072 0.0
O140 O 0.67169 0.43797 1.01627 0.0
N141 N 0.66705 0.51174 0.91944 0.0
C142 C 0.65723 0.59239 0.98891 0.0
C143 C 0.69716 0.55533 0.95625 0.0
C144 C 0.60885 0.5252 0.92892 0.0
N145 N 0.60201 0.57298 0.97114 0.0
O146 O 0.77203 0.49668 0.85633 0.0
H147 H 0.74533 0.5587 0.96095 0.0
H148 H 0.57152 0.50015 0.90711 0.0
O149 O 0.7431 0.42111 0.94288 0.0
C150 C 0.78947 0.52834 0.81071 0.0
O151 O 0.84365 0.55307 0.81386 0.0
N152 N 0.63681 0.39112 0.8801 0.0
C153 C 0.54483 0.30249 0.88411 0.0
C154 C 0.59994 0.29288 0.91301 0.0
C155 C 0.64552 0.33728 0.90979 0.0
C156 C 0.58517 0.39831 0.8466 0.0
C157 C 0.53764 0.35562 0.84989 0.0
H158 H 0.68846 0.32663 0.92952 0.0
H159 H 0.58066 0.43743 0.81731 0.0
H160 H 0.811 0.34575 0.86383 0.0
H161 H 0.74211 0.31257 0.67829 0.0
H162 H 0.6678 0.63029 1.02257 0.0
H163 H 0.60757 0.25169 0.93856 0.0
H164 H 0.49596 0.36363 0.8254 0.0
C165 C 0.80736 0.36952 0.24694 0.0
C166 C 0.77642 0.32365 0.27562 0.0
N167 N 0.81191 0.27489 0.27808 0.0
N168 N 0.86308 0.35092 0.23185 0.0
C169 C 0.86418 0.29187 0.25097 0.0
H170 H 0.79022 0.41461 0.23948 0.0
Co171 Co 0.9218 0.40286 0.1934 0.0
C172 C 0.87963 0.48668 0.30921 0.0
O173 O 0.86917 0.44233 0.34797 0.0
N174 N 0.98056 0.45607 0.15607 0.0
C175 C 0.06586 0.51113 0.14743 0.0
C176 C 0.03129 0.47648 0.18671 0.0
C177 C 0.98477 0.4808 0.09818 0.0
N178 N 0.0365 0.51373 0.09201 0.0
O179 O 0.98438 0.36655 0.24193 0.0
H180 H 0.04263 0.46711 0.23516 0.0
H181 H 0.95099 0.47476 0.06124 0.0
O182 O 0.90232 0.47416 0.25434 0.0
C183 C 1.00715 0.33 0.19901 0.0
O184 O 0.98647 0.33058 0.14072 0.0
N185 N 0.86452 0.42596 0.13746 0.0
C186 C 0.77299 0.42529 0.04947 0.0
C187 C 0.77909 0.47403 0.09539 0.0
C188 C 0.82651 0.47413 0.13903 0.0
C189 C 0.85947 0.37956 0.09193 0.0
C190 C 0.81442 0.37871 0.0468 0.0
H191 H 0.83097 0.51093 0.1751 0.0
H192 H 0.88934 0.34141 0.09204 0.0
H193 H 0.90257 0.26263 0.24659 0.0
H194 H 0.7313 0.32598 0.29354 0.0
H195 H 0.10807 0.53437 0.15932 0.0
H196 H 0.74809 0.51165 0.09692 0.0
H197 H 0.8111 0.34116 1.01113 0.0
C198 C 0.84716 0.54477 0.52242 0.0
C199 C 0.88609 0.51883 0.56374 0.0
N200 N 0.93304 0.5576 0.57385 0.0
N201 N 0.86829 0.60041 0.50526 0.0
C202 C 0.92151 0.60703 0.53815 0.0
H203 H 0.80681 0.52223 0.50354 0.0
Co204 Co 0.82637 0.64174 0.43779 0.0
C205 C 0.86186 0.55119 0.32787 0.0
O206 O 0.87237 0.5954 0.28893 0.0
N207 N 0.78183 0.68053 0.36857 0.0
C208 C 0.7039 0.69168 0.30149 0.0
C209 C 0.73228 0.65274 0.34162 0.0
C210 C 0.78288 0.73691 0.3416 0.0
N211 N 0.7357 0.74467 0.30152 0.0
O212 O 0.74987 0.61178 0.47072 0.0
H213 H 0.71653 0.60688 0.35166 0.0
H214 H 0.81609 0.77278 0.35198 0.0
O215 O 0.84062 0.56447 0.38324 0.0
C216 C 0.72049 0.65395 0.50088 0.0
O217 O 0.74077 0.71109 0.50066 0.0
N218 N 0.89788 0.67959 0.41432 0.0
C219 C 0.994 0.75914 0.39321 0.0
C220 C 0.99865 0.69547 0.37971 0.0
C221 C 0.94985 0.656 0.39126 0.0
C222 C 0.89521 0.7403 0.43284 0.0
C223 C 0.94181 0.78125 0.42084 0.0
H224 H 0.95473 0.60697 0.38354 0.0
H225 H 0.85564 0.75725 0.45632 0.0
H226 H 0.95247 0.64546 0.53353 0.0
H227 H 0.88084 0.47408 0.58356 0.0
H228 H 0.66353 0.6815 0.2739 0.0
H229 H 0.0396 0.67653 0.36096 0.0
H230 H 0.93769 0.8296 0.4347 0.0
C231 C 0.86396 0.79588 0.88667 0.0
C232 C 0.83006 0.75902 0.84397 0.0
N233 N 0.79803 0.79654 0.80887 0.0
N234 N 0.85259 0.85592 0.87796 0.0
C235 C 0.81186 0.85414 0.83015 0.0
H236 H 0.89294 0.77938 0.92306 0.0
Co237 Co 0.87264 0.93071 0.92485 0.0
C238 C 0.90251 0.9535 0.79204 0.0
O239 O 0.93027 0.90094 0.78583 0.0
N240 N 0.89194 1.0052 0.96971 0.0
C241 C 0.9292 0.10037 0.9891 0.0
C242 C 0.89833 0.06174 0.94599 0.0
C243 C 0.91711 1.01126 1.02828 0.0
N244 N 0.94055 0.06826 0.04039 0.0
O245 O 0.79045 0.94761 0.93 0.0
H246 H 0.88541 0.07346 0.89867 0.0
H247 H 0.92305 0.9734 0.05899 0.0
O248 O 0.87971 0.97083 0.84502 0.0
C249 C 0.77122 0.90834 0.96837 0.0
O250 O 0.80953 0.87202 0.99448 0.0
N251 N 0.95188 0.91174 0.92898 0.0
C252 C 0.06326 0.87025 0.95997 0.0
C253 C 0.05755 0.91559 0.91511 0.0
C254 C 1.00079 0.93734 0.90145 0.0
C255 C 0.95825 0.87452 0.97841 0.0
C256 C 1.01366 0.85382 0.99545 0.0
H257 H 0.99629 0.97313 0.86815 0.0
H258 H 0.91952 0.85959 1.00408 0.0
H259 H 0.79081 0.89443 0.81269 0.0
H260 H 0.82884 0.70922 0.83922 0.0
H261 H 0.94436 0.1472 0.98237 0.0
H262 H 0.09554 0.92997 0.88756 0.0
H263 H 1.01614 0.81934 1.03074 0.0
C264 C 0.90835 0.20429 0.76006 0.0
C265 C 0.87146 0.24312 0.79476 0.0
N266 N 0.8361 0.27082 0.75343 0.0
N267 N 0.89581 0.20786 0.6975 0.0
C268 C 0.8517 0.24907 0.69516 0.0
H269 H 0.94245 0.17563 0.77905 0.0
Co270 Co 0.93423 0.16947 0.62747 0.0
C271 C 0.81863 0.13482 0.5541 0.0
O272 O 0.82283 0.07558 0.56213 0.0
N273 N 0.97438 0.13323 0.55552 0.0
C274 C 0.99511 0.09101 0.4597 0.0
C275 C 0.95114 0.11411 0.49811 0.0
C276 C 0.03395 0.12336 0.54923 0.0
N277 N 0.04696 0.09676 0.49186 0.0
O278 O 0.95998 0.2492 0.60261 0.0
H279 H 0.90549 0.11707 0.48285 0.0
H280 H 0.06662 0.13359 0.58664 0.0
O281 O 0.85919 0.17302 0.57642 0.0
C282 C 0.99839 0.27446 0.64152 0.0
O283 O 1.01713 0.24368 0.68963 0.0
N284 N 0.91394 0.0916 0.65796 0.0
C285 C 0.9035 0.99601 0.74033 0.0
C286 C 0.85517 1.03416 0.73031 0.0
C287 C 0.86108 0.08146 0.68835 0.0
C288 C 0.96038 0.05284 0.66571 0.0
C289 C 0.95553 1.00373 0.70541 0.0
H290 H 0.82478 0.11311 0.68451 0.0
H291 H 1.00355 0.06265 0.64618 0.0
H292 H 0.83241 0.26395 0.65146 0.0
H293 H 0.87056 0.25016 0.84584 0.0
H294 H 0.98945 0.07177 0.4117 0.0
H295 H 0.81427 1.02932 0.7569 0.0
H296 H 0.99414 0.97568 0.71311 0.0
C297 C 0.55225 0.1166 0.46589 0.0
C298 C 0.51738 0.08498 0.50757 0.0
N299 N 0.55361 0.05002 0.54098 0.0
N300 N 0.61024 0.101 0.47217 0.0
C301 C 0.60968 0.06075 0.51947 0.0
H302 H 0.53601 0.14786 0.43165 0.0
Co303 Co 0.67241 0.12783 0.41759 0.0
C304 C 0.77446 0.15553 0.50806 0.0
O305 O 0.78077 0.21121 0.48751 0.0
N306 N 0.73597 0.15595 0.36153 0.0
C307 C 0.80309 0.16174 0.28285 0.0
C308 C 0.76653 0.12298 0.31678 0.0
C309 C 0.75685 0.21457 0.35432 0.0
N310 N 0.79642 0.21935 0.30694 0.0
O311 O 0.68078 0.04453 0.38479 0.0
H312 H 0.76128 0.074 0.30722 0.0
H313 H 0.74261 0.25452 0.38202 0.0
O314 O 0.73318 0.11861 0.48514 0.0
C315 C 0.63552 1.0211 0.35346 0.0
O316 O 0.58522 0.05089 0.35307 0.0
N317 N 0.65625 0.20751 0.44182 0.0
C318 C 0.60925 0.3237 0.45267 0.0
C319 C 0.63437 0.29728 0.50608 0.0
C320 C 0.65713 0.23797 0.49978 0.0
C321 C 0.63063 0.23218 0.39048 0.0
C322 C 0.60988 0.29132 0.39395 0.0
H323 H 0.67209 0.21544 0.54144 0.0
H324 H 0.62646 0.20509 0.34622 0.0
H325 H 0.64914 1.03868 0.53672 0.0
H326 H 0.46953 0.08811 0.5136 0.0
H327 H 0.82916 0.14912 0.24148 0.0
H328 H 0.63132 0.31987 0.55279 0.0
H329 H 0.58802 0.30846 0.35248 0.0
C330 C 0.73471 0.87394 0.20114 0.0
C331 C 0.76446 0.8298 0.23372 0.0
N332 N 0.72373 0.79609 0.26408 0.0
N333 N 0.67504 0.86943 0.21122 0.0
C334 C 0.66983 0.82041 0.24944 0.0
H335 H 0.75567 0.90887 0.17343 0.0
Co336 Co 0.61639 0.92962 0.18402 0.0
C337 C 0.52568 0.83488 0.1316 0.0
O338 O 0.52722 0.85455 0.07379 0.0
N339 N 0.55771 0.99093 0.15862 0.0
C340 C 0.52429 0.08534 0.13811 0.0
C341 C 0.56763 0.05247 0.16866 0.0
C342 C 0.50555 0.98829 0.12403 0.0
N343 N 0.48537 0.04471 0.10982 0.0
O344 O 0.59982 0.95007 0.27131 0.0
H345 H 0.60601 0.07246 0.19431 0.0
H346 H 0.48236 0.94642 0.10873 0.0
O347 O 0.55612 0.8623 0.17701 0.0
C348 C 0.64468 0.97625 0.30093 0.0
O349 O 0.69643 0.97917 0.27253 0.0
N350 N 0.63916 0.9168 0.10006 0.0
C351 C 0.71192 0.91043 0.99554 0.0
C352 C 0.68851 0.85629 1.02016 0.0
C353 C 0.65291 0.86047 0.07368 0.0
C354 C 0.65651 0.96942 0.07176 0.0
C355 C 0.69155 0.96721 1.01797 0.0
H356 H 0.64188 0.81892 0.0976 0.0
H357 H 0.65022 1.0139 0.09481 0.0
H358 H 0.62768 0.80432 0.26803 0.0
H359 H 0.81221 0.82287 0.23475 0.0
H360 H 0.52167 0.1349 0.13694 0.0
H361 H 0.70442 0.81157 1.00392 0.0
H362 H 0.71027 1.00974 1.00108 0.0
C363 C 0.40828 0.7042 0.26013 0.0
C364 C 0.37135 0.74297 0.29484 0.0
N365 N 0.33593 0.77062 0.25352 0.0
N366 N 0.39573 0.70776 0.19757 0.0
C367 C 0.35155 0.7489 0.19525 0.0
H368 H 0.44243 0.67558 0.27911 0.0
Co369 Co 0.43417 0.66939 0.12756 0.0
C370 C 0.31858 0.63481 0.05411 0.0
O371 O 0.32274 0.57556 0.06214 0.0
N372 N 0.47435 0.63315 0.05563 0.0
C373 C 0.49514 0.59087 0.95986 0.0
C374 C 0.45114 0.61398 0.99822 0.0
C375 C 0.53392 0.62329 0.04939 0.0
N376 N 0.54697 0.59664 0.99206 0.0
O377 O 0.45994 0.74912 0.10272 0.0
H378 H 0.4055 0.61691 0.98293 0.0
H379 H 0.56656 0.63354 0.08683 0.0
O380 O 0.35916 0.67298 0.07645 0.0
C381 C 0.49835 0.77441 0.14162 0.0
O382 O 0.51706 0.74368 0.18978 0.0
N383 N 0.41384 0.59151 0.158 0.0
C384 C 0.40333 0.49584 0.24027 0.0
C385 C 0.35502 0.53402 0.23027 0.0
C386 C 0.36096 0.58137 0.18836 0.0
C387 C 0.46027 0.55273 0.16574 0.0
C388 C 0.45538 0.50358 0.20538 0.0
H389 H 0.32468 0.61304 0.18453 0.0
H390 H 0.50345 0.56254 0.14625 0.0
H391 H 0.33222 0.76375 0.15155 0.0
H392 H 0.37044 0.74999 0.34592 0.0
H393 H 0.48951 0.57159 0.91187 0.0
H394 H 0.31411 0.52918 0.25684 0.0
H395 H 0.49398 0.47551 0.21308 0.0
C396 C 0.0522 0.61675 0.96607 0.0
C397 C 1.01736 0.58512 1.00777 0.0
N398 N 0.0536 0.55012 0.04112 0.0
N399 N 0.11019 0.60113 0.97228 0.0
C400 C 0.10966 0.56084 1.01956 0.0
H401 H 0.03594 0.64804 0.93187 0.0
Co402 Co 0.17233 0.62796 0.91767 0.0
C403 C 0.27443 0.65556 1.00808 0.0
O404 O 0.28077 0.71126 0.98755 0.0
N405 N 0.23587 0.65609 0.86158 0.0
C406 C 0.30296 0.66187 0.78288 0.0
C407 C 0.26642 0.62311 0.81683 0.0
C408 C 0.25674 0.71471 0.85435 0.0
N409 N 0.29629 0.71948 0.80695 0.0
O410 O 0.18066 0.54467 0.88482 0.0
H411 H 0.26118 0.57413 0.80729 0.0
H412 H 0.24252 0.75466 0.88206 0.0
O413 O 0.23313 0.61868 0.98517 0.0
C414 C 0.13539 0.5212 0.85355 0.0
O415 O 0.08503 0.55091 0.85328 0.0
N416 N 0.15621 0.70764 0.94195 0.0
C417 C 0.10928 0.82383 0.95285 0.0
C418 C 0.13437 0.79741 1.00626 0.0
C419 C 0.15712 0.73809 0.99993 0.0
C420 C 0.13057 0.73233 0.89063 0.0
C421 C 0.10987 0.79149 0.89412 0.0
H422 H 0.17209 0.71554 0.04157 0.0
H423 H 0.12636 0.70524 0.84637 0.0
H424 H 0.14912 0.53875 1.03676 0.0
H425 H 0.96951 0.58825 1.01385 0.0
H426 H 0.32902 0.64924 0.7415 0.0
H427 H 0.13131 0.81998 0.05297 0.0
H428 H 0.088 0.80865 0.85266 0.0
C429 C 0.23467 0.37417 0.70134 0.0
C430 C 0.26446 0.33004 0.73391 0.0
N431 N 0.22375 0.29625 0.76421 0.0
N432 N 0.17501 0.36956 0.71136 0.0
C433 C 0.16983 0.32051 0.74954 0.0
H434 H 0.25562 0.40913 0.67367 0.0
Co435 Co 0.11633 0.42971 0.68411 0.0
C436 C 0.02567 0.33497 0.6316 0.0
O437 O 0.02722 0.3547 0.57381 0.0
N438 N 0.05763 0.49099 0.65867 0.0
C439 C 1.02422 0.58538 0.63808 0.0
C440 C 0.06758 0.55253 0.66863 0.0
C441 C 1.00544 0.48833 0.62415 0.0
N442 N 0.98525 0.54473 0.60989 0.0
O443 O 0.0997 0.45016 0.77138 0.0
H444 H 0.10599 0.57254 0.69421 0.0
H445 H 0.98221 0.44645 0.60895 0.0
O446 O 0.05609 0.36235 0.67705 0.0
C447 C 0.14454 0.47643 0.80094 0.0
O448 O 0.19623 0.47948 0.77245 0.0
N449 N 0.13915 0.41688 0.60018 0.0
C450 C 0.21202 0.41045 0.49573 0.0
C451 C 0.18858 0.35633 0.52037 0.0
C452 C 0.15293 0.36054 0.57385 0.0
C453 C 0.15651 0.46948 0.57184 0.0
C454 C 0.19159 0.46723 0.51809 0.0
H455 H 0.14188 0.319 0.59779 0.0
H456 H 0.15018 0.51398 0.59484 0.0
H457 H 0.12768 0.30434 0.76807 0.0
H458 H 0.31222 0.32318 0.73497 0.0
H459 H 1.02161 0.63494 0.63684 0.0
H460 H 0.20449 0.3116 0.50418 0.0
H461 H 0.21031 0.50975 0.50117 0.0
C462 C 0.51309 0.6107 0.68697 0.0
C463 C 0.46657 0.58217 0.65302 0.0
N464 N 0.47879 0.58666 0.59144 0.0
N465 N 0.55577 0.63025 0.64698 0.0
C466 C 0.5319 0.61697 0.58851 0.0
H467 H 0.51424 0.61944 0.73786 0.0
Co468 Co 0.62167 0.68082 0.67401 0.0
C469 C 0.6725 0.63915 0.54628 0.0
O470 O 0.66002 0.58112 0.55626 0.0
N471 N 0.68416 0.73369 0.70198 0.0
C472 C 0.7499 0.81201 0.70646 0.0
C473 C 0.70458 0.78295 0.6713 0.0
C474 C 0.71741 0.73358 0.75586 0.0
N475 N 0.75805 0.78024 0.75877 0.0
O476 O 0.57256 0.75129 0.6636 0.0
H477 H 0.68699 0.79726 0.62656 0.0
H478 H 0.71148 0.70064 0.79226 0.0
O479 O 0.65478 0.68195 0.58585 0.0
C480 C 0.55258 0.78406 0.71083 0.0
O481 O 0.56776 0.77194 0.76907 0.0
N482 N 0.66936 0.61257 0.69061 0.0
C483 C 0.74827 0.54475 0.75971 0.0
C484 C 0.76931 0.57998 0.71052 0.0
C485 C 0.72896 0.61337 0.6761 0.0
C486 C 0.64798 0.572 0.73259 0.0
C487 C 0.68663 0.53625 0.76612 0.0
H488 H 0.74719 0.64642 0.64451 0.0
H489 H 0.60202 0.5715 0.74631 0.0
H490 H 0.55116 0.6315 0.54479 0.0
H491 H 0.4256 0.56315 0.67169 0.0
H492 H 0.77479 0.85316 0.69485 0.0
H493 H 0.81678 0.58685 0.70289 0.0
H494 H 0.66807 0.50746 0.80117 0.0
C495 C 0.36403 0.2958 0.38673 0.0
C496 C 0.33017 0.2589 0.34403 0.0
N497 N 0.29805 0.29637 0.30897 0.0
N498 N 0.35256 0.35582 0.37805 0.0
C499 C 0.31178 0.35398 0.33028 0.0
H500 H 0.3931 0.27934 0.42306 0.0
Co501 Co 0.37266 0.43064 0.42485 0.0
C502 C 0.40233 0.45332 0.29196 0.0
O503 O 0.43006 0.40074 0.28572 0.0
N504 N 0.39201 0.50515 0.46964 0.0
C505 C 0.42944 0.60027 0.48896 0.0
C506 C 0.39857 0.56165 0.44584 0.0
C507 C 0.4171 0.51124 0.52824 0.0
N508 N 0.44063 0.5682 0.54032 0.0
O509 O 0.29048 0.44757 0.43009 0.0
H510 H 0.38577 0.57334 0.39848 0.0
H511 H 0.42292 0.4734 0.55901 0.0
O512 O 0.37963 0.47069 0.34498 0.0
C513 C 0.2713 0.40833 0.46851 0.0
O514 O 0.30961 0.372 0.4946 0.0
N515 N 0.45189 0.41167 0.42889 0.0
C516 C 0.56327 0.37016 0.45977 0.0
C517 C 0.55754 0.4154 0.41482 0.0
C518 C 0.50078 0.43717 0.40122 0.0
C519 C 0.45831 0.37453 0.47838 0.0
C520 C 0.51373 0.35381 0.49538 0.0
H521 H 0.49625 0.4729 0.36785 0.0
H522 H 0.41961 0.35967 0.50413 0.0
H523 H 0.29068 0.39425 0.31282 0.0
H524 H 0.32907 0.20909 0.33922 0.0
H525 H 0.44471 0.64706 0.48219 0.0
H526 H 0.5955 0.4297 0.38717 0.0
H527 H 0.51624 0.31939 0.53072 0.0
loop_
_geom_bond_atom_site_label_1
_geom_bond_atom_site_label_2
_geom_bond_distance
_geom_bond_site_symmetry_2
_ccdc_geom_bond_type
C0 C1 1.351 . S
C0 N3 1.368 1_655 S
C0 H5 0.931 . S
C1 C0 1.351 . S
C1 N2 1.373 1_554 S
C1 H29 0.930 . S
N2 C1 1.373 1_556 S
N2 C4 1.340 1_656 S
N3 C0 1.368 1_455 S
N3 C4 1.321 . S
N3 Co6 2.135 . S
C4 N2 1.340 1_454 S
C4 N3 1.321 . S
C4 H28 0.930 1_554 S
H5 C0 0.931 . S
Co6 N3 2.135 . S
Co6 N9 2.121 . S
Co6 O14 2.055 . S
Co6 O17 2.039 . S
Co6 N20 2.140 . S
C7 O8 1.227 . S
C7 O17 1.265 . S
O8 C7 1.227 . S
N9 Co6 2.121 . S
N9 C11 1.375 . S
N9 C12 1.313 . S
C10 C11 1.338 . S
C10 N13 1.377 . S
C10 H30 0.930 . S
C11 N9 1.375 . S
C11 C10 1.338 . S
C11 H15 0.931 . S
C12 N9 1.313 . S
C12 N13 1.344 . S
C12 H16 0.930 . S
N13 C10 1.377 . S
N13 C12 1.344 . S
O14 Co6 2.055 . S
O14 C18 1.253 . S
H15 C11 0.931 . S
H16 C12 0.930 . S
O17 Co6 2.039 . S
O17 C7 1.265 . S
C18 O14 1.253 . S
C18 O19 1.227 . S
O19 C18 1.227 . S
N20 Co6 2.140 . S
N20 C23 1.346 . S
N20 C24 1.345 . S
C21 C22 1.387 . S
C21 C25 1.391 . S
C22 C21 1.387 . S
C22 C23 1.369 . S
C22 H31 0.929 1_545 S
C23 N20 1.346 . S
C23 C22 1.369 . S
C23 H26 0.928 . S
C24 N20 1.345 . S
C24 C25 1.371 . S
C24 H27 0.931 . S
C25 C21 1.391 . S
C25 C24 1.371 . S
C25 H32 0.930 . S
H26 C23 0.928 . S
H27 C24 0.931 . S
H28 C4 0.930 1_556 S
H29 C1 0.930 . S
H30 C10 0.930 . S
H31 C22 0.929 1_565 S
H32 C25 0.930 . S
C33 C34 1.351 . S
C33 N36 1.368 . S
C33 H38 0.931 . S
C34 C33 1.351 . S
C34 N35 1.373 . S
C34 H62 0.930 . S
N35 C34 1.373 . S
N35 C37 1.340 . S
N36 C33 1.368 . S
N36 C37 1.321 . S
N36 Co39 2.135 . S
C37 N35 1.340 . S
C37 N36 1.321 . S
C37 H61 0.930 . S
H38 C33 0.931 . S
Co39 N36 2.135 . S
Co39 N42 2.121 . S
Co39 O47 2.055 . S
Co39 O50 2.039 . S
Co39 N53 2.140 . S
C40 O41 1.227 . S
C40 O50 1.265 . S
O41 C40 1.227 . S
N42 Co39 2.121 . S
N42 C44 1.375 . S
N42 C45 1.313 . S
C43 C44 1.338 . S
C43 N46 1.377 1_565 S
C43 H63 0.930 . S
C44 N42 1.375 . S
C44 C43 1.338 . S
C44 H48 0.931 . S
C45 N42 1.313 . S
C45 N46 1.344 1_565 S
C45 H49 0.930 1_565 S
N46 C43 1.377 1_545 S
N46 C45 1.344 1_545 S
O47 Co39 2.055 . S
O47 C51 1.253 . S
H48 C44 0.931 . S
H49 C45 0.930 1_545 S
O50 Co39 2.039 . S
O50 C40 1.265 . S
C51 O47 1.253 . S
C51 O52 1.227 . S
O52 C51 1.227 . S
N53 Co39 2.140 . S
N53 C56 1.346 . S
N53 C57 1.345 . S
C54 C55 1.387 . S
C54 C58 1.391 1_455 S
C55 C54 1.387 . S
C55 C56 1.369 . S
C55 H64 0.929 . S
C56 N53 1.346 . S
C56 C55 1.369 . S
C56 H59 0.928 . S
C57 N53 1.345 . S
C57 C58 1.371 1_455 S
C57 H60 0.931 . S
C58 C54 1.391 1_655 S
C58 C57 1.371 1_655 S
C58 H65 0.930 . S
H59 C56 0.928 . S
H60 C57 0.931 . S
H61 C37 0.930 . S
H62 C34 0.930 . S
H63 C43 0.930 . S
H64 C55 0.929 . S
H65 C58 0.930 . S
C66 C67 1.351 . S
C66 N69 1.368 . S
C66 H71 0.931 . S
C67 C66 1.351 . S
C67 N68 1.373 . S
C67 H95 0.930 . S
N68 C67 1.373 . S
N68 C70 1.340 . S
N69 C66 1.368 . S
N69 C70 1.321 . S
N69 Co72 2.135 . S
C70 N68 1.340 . S
C70 N69 1.321 . S
C70 H94 0.930 . S
H71 C66 0.931 . S
Co72 N69 2.135 . S
Co72 N75 2.121 . S
Co72 O80 2.055 . S
Co72 O83 2.039 . S
Co72 N86 2.140 . S
C73 O74 1.227 . S
C73 O83 1.265 . S
O74 C73 1.227 . S
N75 Co72 2.121 . S
N75 C77 1.375 . S
N75 C78 1.313 . S
C76 C77 1.338 1_545 S
C76 N79 1.377 1_545 S
C76 H96 0.930 . S
C77 N75 1.375 . S
C77 C76 1.338 1_565 S
C77 H81 0.927 1_565 S
C78 N75 1.313 . S
C78 N79 1.344 . S
C78 H82 0.930 . S
N79 C76 1.377 1_565 S
N79 C78 1.344 . S
O80 Co72 2.055 . S
O80 C84 1.253 . S
H81 C77 0.927 1_545 S
H82 C78 0.930 . S
O83 Co72 2.039 . S
O83 C73 1.265 . S
C84 O80 1.253 . S
C84 O85 1.227 . S
O85 C84 1.227 . S
N86 Co72 2.140 . S
N86 C89 1.346 . S
N86 C90 1.345 . S
C87 C88 1.387 . S
C87 C91 1.391 . S
C88 C87 1.387 . S
C88 C89 1.369 . S
C88 H97 0.929 . S
C89 N86 1.346 . S
C89 C88 1.369 . S
C89 H92 0.928 . S
C90 N86 1.345 . S
C90 C91 1.371 . S
C90 H93 0.931 . S
C91 C87 1.391 . S
C91 C90 1.371 . S
C91 H98 0.930 . S
H92 C89 0.928 . S
H93 C90 0.931 . S
H94 C70 0.930 . S
H95 C67 0.930 . S
H96 C76 0.930 . S
H97 C88 0.929 . S
H98 C91 0.930 . S
C99 C100 1.351 . S
C99 N102 1.368 1_554 S
C99 H104 0.931 . S
C100 C99 1.351 . S
C100 N101 1.373 1_544 S
C100 H128 0.930 . S
N101 C100 1.373 1_566 S
N101 C103 1.340 . S
N102 C99 1.368 1_556 S
N102 C103 1.321 1_545 S
N102 Co105 2.135 . S
C103 N101 1.340 . S
C103 N102 1.321 1_565 S
C103 H127 0.930 . S
H104 C99 0.931 . S
Co105 N102 2.135 . S
Co105 N108 2.121 . S
Co105 O113 2.055 . S
Co105 O116 2.039 . S
Co105 N119 2.140 . S
C106 O107 1.227 . S
C106 O116 1.265 . S
O107 C106 1.227 . S
N108 Co105 2.121 . S
N108 C110 1.375 . S
N108 C111 1.313 . S
C109 C110 1.338 . S
C109 N112 1.377 . S
C109 H129 0.930 . S
C110 N108 1.375 . S
C110 C109 1.338 . S
C110 H114 0.931 . S
C111 N108 1.313 . S
C111 N112 1.344 . S
C111 H115 0.930 . S
N112 C109 1.377 . S
N112 C111 1.344 . S
O113 Co105 2.055 . S
O113 C117 1.253 . S
H114 C110 0.931 . S
H115 C111 0.930 . S
O116 Co105 2.039 . S
O116 C106 1.265 . S
C117 O113 1.253 . S
C117 O118 1.227 . S
O118 C117 1.227 . S
N119 Co105 2.140 . S
N119 C122 1.346 . S
N119 C123 1.345 . S
C120 C121 1.387 . S
C120 C124 1.391 . S
C121 C120 1.387 . S
C121 C122 1.369 . S
C121 H130 0.929 . S
C122 N119 1.346 . S
C122 C121 1.369 . S
C122 H125 0.928 . S
C123 N119 1.345 . S
C123 C124 1.371 . S
C123 H126 0.931 . S
C124 C120 1.391 . S
C124 C123 1.371 . S
C124 H131 0.930 . S
H125 C122 0.928 . S
H126 C123 0.931 . S
H127 C103 0.930 . S
H128 C100 0.930 . S
H129 C109 0.930 . S
H130 C121 0.929 . S
H131 C124 0.930 . S
C132 C133 1.351 . S
C132 N135 1.368 . S
C132 H137 0.931 . S
C133 C132 1.351 . S
C133 N134 1.373 . S
C133 H161 0.930 . S
N134 C133 1.373 . S
N134 C136 1.340 . S
N135 C132 1.368 . S
N135 C136 1.321 . S
N135 Co138 2.135 . S
C136 N134 1.340 . S
C136 N135 1.321 . S
C136 H160 0.930 . S
H137 C132 0.931 . S
Co138 N135 2.135 . S
Co138 N141 2.121 . S
Co138 O146 2.055 . S
Co138 O149 2.039 . S
Co138 N152 2.140 . S
C139 O140 1.227 . S
C139 O149 1.265 . S
O140 C139 1.227 . S
N141 Co138 2.121 . S
N141 C143 1.375 . S
N141 C144 1.313 . S
C142 C143 1.338 1_554 S
C142 N145 1.377 1_554 S
C142 H162 0.930 . S
C143 N141 1.375 . S
C143 C142 1.338 1_556 S
C143 H147 0.931 1_556 S
C144 N141 1.313 . S
C144 N145 1.344 . S
C144 H148 0.930 . S
N145 C142 1.377 1_556 S
N145 C144 1.344 . S
O146 Co138 2.055 . S
O146 C150 1.253 . S
H147 C143 0.931 1_554 S
H148 C144 0.930 . S
O149 Co138 2.039 . S
O149 C139 1.265 . S
C150 O146 1.253 . S
C150 O151 1.227 . S
O151 C150 1.227 . S
N152 Co138 2.140 . S
N152 C155 1.346 . S
N152 C156 1.345 . S
C153 C154 1.387 . S
C153 C157 1.391 . S
C154 C153 1.387 . S
C154 C155 1.369 . S
C154 H163 0.929 . S
C155 N152 1.346 . S
C155 C154 1.369 . S
C155 H158 0.928 . S
C156 N152 1.345 . S
C156 C157 1.371 . S
C156 H159 0.931 . S
C157 C153 1.391 . S
C157 C156 1.371 . S
C157 H164 0.930 . S
H158 C155 0.928 . S
H159 C156 0.931 . S
H160 C136 0.930 . S
H161 C133 0.930 . S
H162 C142 0.930 . S
H163 C154 0.929 . S
H164 C157 0.930 . S
C165 C166 1.351 . S
C165 N168 1.368 . S
C165 H170 0.931 . S
C166 C165 1.351 . S
C166 N167 1.373 . S
C166 H194 0.930 . S
N167 C166 1.373 . S
N167 C169 1.340 . S
N168 C165 1.368 . S
N168 C169 1.321 . S
N168 Co171 2.135 . S
C169 N167 1.340 . S
C169 N168 1.321 . S
C169 H193 0.930 . S
H170 C165 0.931 . S
Co171 N168 2.135 . S
Co171 N174 2.121 . S
Co171 O179 2.055 . S
Co171 O182 2.039 . S
Co171 N185 2.140 . S
C172 O173 1.227 . S
C172 O182 1.265 . S
O173 C172 1.227 . S
N174 Co171 2.121 . S
N174 C176 1.375 . S
N174 C177 1.313 1_655 S
C175 C176 1.338 . S
C175 N178 1.377 1_655 S
C175 H195 0.930 . S
C176 N174 1.375 . S
C176 C175 1.338 . S
C176 H180 0.931 . S
C177 N174 1.313 1_455 S
C177 N178 1.344 . S
C177 H181 0.930 . S
N178 C175 1.377 1_455 S
N178 C177 1.344 . S
O179 Co171 2.055 . S
O179 C183 1.253 . S
H180 C176 0.931 . S
H181 C177 0.930 . S
O182 Co171 2.039 . S
O182 C172 1.265 . S
C183 O179 1.253 . S
C183 O184 1.227 . S
O184 C183 1.227 . S
N185 Co171 2.140 . S
N185 C188 1.346 . S
N185 C189 1.345 . S
C186 C187 1.387 . S
C186 C190 1.391 1_554 S
C187 C186 1.387 . S
C187 C188 1.369 . S
C187 H196 0.929 . S
C188 N185 1.346 . S
C188 C187 1.369 . S
C188 H191 0.928 . S
C189 N185 1.345 . S
C189 C190 1.371 1_554 S
C189 H192 0.931 . S
C190 C186 1.391 1_556 S
C190 C189 1.371 1_556 S
C190 H197 0.930 . S
H191 C188 0.928 . S
H192 C189 0.931 . S
H193 C169 0.930 . S
H194 C166 0.930 . S
H195 C175 0.930 . S
H196 C187 0.929 . S
H197 C190 0.930 . S
C198 C199 1.351 . S
C198 N201 1.368 . S
C198 H203 0.931 . S
C199 C198 1.351 . S
C199 N200 1.373 . S
C199 H227 0.930 . S
N200 C199 1.373 . S
N200 C202 1.340 . S
N201 C198 1.368 . S
N201 C202 1.321 . S
N201 Co204 2.135 . S
C202 N200 1.340 . S
C202 N201 1.321 . S
C202 H226 0.930 . S
H203 C198 0.931 . S
Co204 N201 2.135 . S
Co204 N207 2.121 . S
Co204 O212 2.055 . S
Co204 O215 2.039 . S
Co204 N218 2.140 . S
C205 O206 1.227 . S
C205 O215 1.265 . S
O206 C205 1.227 . S
N207 Co204 2.121 . S
N207 C209 1.375 . S
N207 C210 1.313 . S
C208 C209 1.338 . S
C208 N211 1.377 . S
C208 H228 0.930 . S
C209 N207 1.375 . S
C209 C208 1.338 . S
C209 H213 0.931 . S
C210 N207 1.313 . S
C210 N211 1.344 . S
C210 H214 0.930 . S
N211 C208 1.377 . S
N211 C210 1.344 . S
O212 Co204 2.055 . S
O212 C216 1.253 . S
H213 C209 0.931 . S
H214 C210 0.930 . S
O215 Co204 2.039 . S
O215 C205 1.265 . S
C216 O212 1.253 . S
C216 O217 1.227 . S
O217 C216 1.227 . S
N218 Co204 2.140 . S
N218 C221 1.346 . S
N218 C222 1.345 . S
C219 C220 1.387 . S
C219 C223 1.391 . S
C220 C219 1.387 . S
C220 C221 1.369 . S
C220 H229 0.929 1_655 S
C221 N218 1.346 . S
C221 C220 1.369 . S
C221 H224 0.928 . S
C222 N218 1.345 . S
C222 C223 1.371 . S
C222 H225 0.931 . S
C223 C219 1.391 . S
C223 C222 1.371 . S
C223 H230 0.930 . S
H224 C221 0.928 . S
H225 C222 0.931 . S
H226 C202 0.930 . S
H227 C199 0.930 . S
H228 C208 0.930 . S
H229 C220 0.929 1_455 S
H230 C223 0.930 . S
C231 C232 1.351 . S
C231 N234 1.368 . S
C231 H236 0.931 . S
C232 C231 1.351 . S
C232 N233 1.373 . S
C232 H260 0.930 . S
N233 C232 1.373 . S
N233 C235 1.340 . S
N234 C231 1.368 . S
N234 C235 1.321 . S
N234 Co237 2.135 . S
C235 N233 1.340 . S
C235 N234 1.321 . S
C235 H259 0.930 . S
H236 C231 0.931 . S
Co237 N234 2.135 . S
Co237 N240 2.121 . S
Co237 O245 2.055 . S
Co237 O248 2.039 . S
Co237 N251 2.140 . S
C238 O239 1.227 . S
C238 O248 1.265 . S
O239 C238 1.227 . S
N240 Co237 2.121 . S
N240 C242 1.375 . S
N240 C243 1.313 . S
C241 C242 1.338 1_545 S
C241 N244 1.377 . S
C241 H261 0.930 1_655 S
C242 N240 1.375 . S
C242 C241 1.338 1_565 S
C242 H246 0.931 . S
C243 N240 1.313 . S
C243 N244 1.344 1_565 S
C243 H247 0.930 1_556 S
N244 C241 1.377 . S
N244 C243 1.344 1_545 S
O245 Co237 2.055 . S
O245 C249 1.253 . S
H246 C242 0.931 . S
H247 C243 0.930 1_554 S
O248 Co237 2.039 . S
O248 C238 1.265 . S
C249 O245 1.253 . S
C249 O250 1.227 . S
O250 C249 1.227 . S
N251 Co237 2.140 . S
N251 C254 1.346 . S
N251 C255 1.345 . S
C252 C253 1.387 . S
C252 C256 1.391 . S
C253 C252 1.387 . S
C253 C254 1.369 . S
C253 H262 0.929 . S
C254 N251 1.346 . S
C254 C253 1.369 . S
C254 H257 0.928 . S
C255 N251 1.345 . S
C255 C256 1.371 . S
C255 H258 0.931 . S
C256 C252 1.391 . S
C256 C255 1.371 . S
C256 H263 0.930 1_655 S
H257 C254 0.928 . S
H258 C255 0.931 . S
H259 C235 0.930 . S
H260 C232 0.930 . S
H261 C241 0.930 1_455 S
H262 C253 0.929 . S
H263 C256 0.930 1_455 S
C264 C265 1.351 . S
C264 N267 1.368 . S
C264 H269 0.931 . S
C265 C264 1.351 . S
C265 N266 1.373 . S
C265 H293 0.930 . S
N266 C265 1.373 . S
N266 C268 1.340 . S
N267 C264 1.368 . S
N267 C268 1.321 . S
N267 Co270 2.135 . S
C268 N266 1.340 . S
C268 N267 1.321 . S
C268 H292 0.930 . S
H269 C264 0.931 . S
Co270 N267 2.135 . S
Co270 N273 2.121 . S
Co270 O278 2.055 . S
Co270 O281 2.039 . S
Co270 N284 2.140 . S
C271 O272 1.227 . S
C271 O281 1.265 . S
O272 C271 1.227 . S
N273 Co270 2.121 . S
N273 C275 1.375 . S
N273 C276 1.313 . S
C274 C275 1.338 . S
C274 N277 1.377 . S
C274 H294 0.930 1_545 S
C275 N273 1.375 . S
C275 C274 1.338 . S
C275 H279 0.931 . S
C276 N273 1.313 . S
C276 N277 1.344 . S
C276 H280 0.930 1_655 S
N277 C274 1.377 . S
N277 C276 1.344 . S
O278 Co270 2.055 . S
O278 C282 1.253 . S
H279 C275 0.931 . S
H280 C276 0.930 1_455 S
O281 Co270 2.039 . S
O281 C271 1.265 . S
C282 O278 1.253 . S
C282 O283 1.227 . S
O283 C282 1.227 . S
N284 Co270 2.140 . S
N284 C287 1.346 . S
N284 C288 1.345 . S
C285 C286 1.387 . S
C285 C289 1.391 . S
C286 C285 1.387 . S
C286 C287 1.369 . S
C286 H295 0.929 . S
C287 N284 1.346 . S
C287 C286 1.369 . S
C287 H290 0.928 . S
C288 N284 1.345 . S
C288 C289 1.371 . S
C288 H291 0.931 . S
C289 C285 1.391 . S
C289 C288 1.371 . S
C289 H296 0.930 1_545 S
H290 C287 0.928 . S
H291 C288 0.931 . S
H292 C268 0.930 . S
H293 C265 0.930 . S
H294 C274 0.930 1_565 S
H295 C286 0.929 . S
H296 C289 0.930 1_565 S
C297 C298 1.351 1_545 S
C297 N300 1.368 . S
C297 H302 0.931 . S
C298 C297 1.351 1_565 S
C298 N299 1.373 . S
C298 H326 0.930 . S
N299 C298 1.373 . S
N299 C301 1.340 1_565 S
N300 C297 1.368 . S
N300 C301 1.321 . S
N300 Co303 2.135 . S
C301 N299 1.340 1_545 S
C301 N300 1.321 . S
C301 H325 0.930 . S
H302 C297 0.931 . S
Co303 N300 2.135 . S
Co303 N306 2.121 . S
Co303 O311 2.055 . S
Co303 O314 2.039 . S
Co303 N317 2.140 . S
C304 O305 1.227 . S
C304 O314 1.265 . S
O305 C304 1.227 . S
N306 Co303 2.121 . S
N306 C308 1.375 . S
N306 C309 1.313 . S
C307 C308 1.338 . S
C307 N310 1.377 . S
C307 H327 0.930 . S
C308 N306 1.375 . S
C308 C307 1.338 . S
C308 H312 0.931 . S
C309 N306 1.313 . S
C309 N310 1.344 . S
C309 H313 0.930 . S
N310 C307 1.377 . S
N310 C309 1.344 . S
O311 Co303 2.055 . S
O311 C315 1.253 . S
H312 C308 0.931 . S
H313 C309 0.930 . S
O314 Co303 2.039 . S
O314 C304 1.265 . S
C315 O311 1.253 . S
C315 O316 1.227 . S
O316 C315 1.227 . S
N317 Co303 2.140 . S
N317 C320 1.346 . S
N317 C321 1.345 . S
C318 C319 1.387 . S
C318 C322 1.391 . S
C319 C318 1.387 . S
C319 C320 1.369 . S
C319 H328 0.929 . S
C320 N317 1.346 . S
C320 C319 1.369 . S
C320 H323 0.928 . S
C321 N317 1.345 . S
C321 C322 1.371 . S
C321 H324 0.931 . S
C322 C318 1.391 . S
C322 C321 1.371 . S
C322 H329 0.930 . S
H323 C320 0.928 . S
H324 C321 0.931 . S
H325 C301 0.930 . S
H326 C298 0.930 . S
H327 C307 0.930 . S
H328 C319 0.929 . S
H329 C322 0.930 . S
C330 C331 1.351 . S
C330 N333 1.368 . S
C330 H335 0.931 . S
C331 C330 1.351 . S
C331 N332 1.373 . S
C331 H359 0.930 . S
N332 C331 1.373 . S
N332 C334 1.340 . S
N333 C330 1.368 . S
N333 C334 1.321 . S
N333 Co336 2.135 . S
C334 N332 1.340 . S
C334 N333 1.321 . S
C334 H358 0.930 . S
H335 C330 0.931 . S
Co336 N333 2.135 . S
Co336 N339 2.121 . S
Co336 O344 2.055 . S
Co336 O347 2.039 . S
Co336 N350 2.140 . S
C337 O338 1.227 . S
C337 O347 1.265 . S
O338 C337 1.227 . S
N339 Co336 2.121 . S
N339 C341 1.375 . S
N339 C342 1.313 . S
C340 C341 1.338 . S
C340 N343 1.377 . S
C340 H360 0.930 1_554 S
C341 N339 1.375 . S
C341 C340 1.338 . S
C341 H345 0.931 . S
C342 N339 1.313 . S
C342 N343 1.344 . S
C342 H346 0.930 . S
N343 C340 1.377 . S
N343 C342 1.344 . S
O344 Co336 2.055 . S
O344 C348 1.253 . S
H345 C341 0.931 . S
H346 C342 0.930 . S
O347 Co336 2.039 . S
O347 C337 1.265 . S
C348 O344 1.253 . S
C348 O349 1.227 . S
O349 C348 1.227 . S
N350 Co336 2.140 . S
N350 C353 1.346 . S
N350 C354 1.345 . S
C351 C352 1.387 1_556 S
C351 C355 1.391 1_556 S
C352 C351 1.387 1_554 S
C352 C353 1.369 . S
C352 H361 0.929 . S
C353 N350 1.346 . S
C353 C352 1.369 . S
C353 H356 0.928 . S
C354 N350 1.345 . S
C354 C355 1.371 . S
C354 H357 0.931 . S
C355 C351 1.391 1_554 S
C355 C354 1.371 . S
C355 H362 0.930 1_554 S
H356 C353 0.928 . S
H357 C354 0.931 . S
H358 C334 0.930 . S
H359 C331 0.930 . S
H360 C340 0.930 1_556 S
H361 C352 0.929 . S
H362 C355 0.930 1_556 S
C363 C364 1.351 . S
C363 N366 1.368 . S
C363 H368 0.931 . S
C364 C363 1.351 . S
C364 N365 1.373 . S
C364 H392 0.930 . S
N365 C364 1.373 . S
N365 C367 1.340 . S
N366 C363 1.368 . S
N366 C367 1.321 . S
N366 Co369 2.135 . S
C367 N365 1.340 . S
C367 N366 1.321 . S
C367 H391 0.930 . S
H368 C363 0.931 . S
Co369 N366 2.135 . S
Co369 N372 2.121 . S
Co369 O377 2.055 . S
Co369 O380 2.039 . S
Co369 N383 2.140 . S
C370 O371 1.227 . S
C370 O380 1.265 . S
O371 C370 1.227 . S
N372 Co369 2.121 . S
N372 C374 1.375 . S
N372 C375 1.313 . S
C373 C374 1.338 1_556 S
C373 N376 1.377 . S
C373 H393 0.930 . S
C374 N372 1.375 . S
C374 C373 1.338 1_554 S
C374 H378 0.931 . S
C375 N372 1.313 . S
C375 N376 1.344 1_554 S
C375 H379 0.930 . S
N376 C373 1.377 . S
N376 C375 1.344 1_556 S
O377 Co369 2.055 . S
O377 C381 1.253 . S
H378 C374 0.931 . S
H379 C375 0.930 . S
O380 Co369 2.039 . S
O380 C370 1.265 . S
C381 O377 1.253 . S
C381 O382 1.227 . S
O382 C381 1.227 . S
N383 Co369 2.140 . S
N383 C386 1.346 . S
N383 C387 1.345 . S
C384 C385 1.387 . S
C384 C388 1.391 . S
C385 C384 1.387 . S
C385 C386 1.369 . S
C385 H394 0.929 . S
C386 N383 1.346 . S
C386 C385 1.369 . S
C386 H389 0.928 . S
C387 N383 1.345 . S
C387 C388 1.371 . S
C387 H390 0.931 . S
C388 C384 1.391 . S
C388 C387 1.371 . S
C388 H395 0.930 . S
H389 C386 0.928 . S
H390 C387 0.931 . S
H391 C367 0.930 . S
H392 C364 0.930 . S
H393 C373 0.930 . S
H394 C385 0.929 . S
H395 C388 0.930 . S
C396 C397 1.351 . S
C396 N399 1.368 . S
C396 H401 0.931 . S
C397 C396 1.351 . S
C397 N398 1.373 . S
C397 H425 0.930 1_455 S
N398 C397 1.373 . S
N398 C400 1.340 . S
N399 C396 1.368 . S
N399 C400 1.321 . S
N399 Co402 2.135 . S
C400 N398 1.340 . S
C400 N399 1.321 . S
C400 H424 0.930 1_556 S
H401 C396 0.931 . S
Co402 N399 2.135 . S
Co402 N405 2.121 . S
Co402 O410 2.055 . S
Co402 O413 2.039 . S
Co402 N416 2.140 . S
C403 O404 1.227 . S
C403 O413 1.265 . S
O404 C403 1.227 . S
N405 Co402 2.121 . S
N405 C407 1.375 . S
N405 C408 1.313 . S
C406 C407 1.338 . S
C406 N409 1.377 . S
C406 H426 0.930 . S
C407 N405 1.375 . S
C407 C406 1.338 . S
C407 H411 0.931 . S
C408 N405 1.313 . S
C408 N409 1.344 . S
C408 H412 0.930 . S
N409 C406 1.377 . S
N409 C408 1.344 . S
O410 Co402 2.055 . S
O410 C414 1.253 . S
H411 C407 0.931 . S
H412 C408 0.930 . S
O413 Co402 2.039 . S
O413 C403 1.265 . S
C414 O410 1.253 . S
C414 O415 1.227 . S
O415 C414 1.227 . S
N416 Co402 2.140 . S
N416 C419 1.346 . S
N416 C420 1.345 . S
C417 C418 1.387 . S
C417 C421 1.391 . S
C418 C417 1.387 . S
C418 C419 1.369 . S
C418 H427 0.929 . S
C419 N416 1.346 . S
C419 C418 1.369 . S
C419 H422 0.928 . S
C420 N416 1.345 . S
C420 C421 1.371 . S
C420 H423 0.931 . S
C421 C417 1.391 . S
C421 C420 1.371 . S
C421 H428 0.930 . S
H422 C419 0.928 . S
H423 C420 0.931 . S
H424 C400 0.930 1_554 S
H425 C397 0.930 1_655 S
H426 C406 0.930 . S
H427 C418 0.929 . S
H428 C421 0.930 . S
C429 C430 1.351 . S
C429 N432 1.368 . S
C429 H434 0.931 . S
C430 C429 1.351 . S
C430 N431 1.373 . S
C430 H458 0.930 . S
N431 C430 1.373 . S
N431 C433 1.340 . S
N432 C429 1.368 . S
N432 C433 1.321 . S
N432 Co435 2.135 . S
C433 N431 1.340 . S
C433 N432 1.321 . S
C433 H457 0.930 . S
H434 C429 0.931 . S
Co435 N432 2.135 . S
Co435 N438 2.121 . S
Co435 O443 2.055 . S
Co435 O446 2.039 . S
Co435 N449 2.140 . S
C436 O437 1.227 . S
C436 O446 1.265 . S
O437 C436 1.227 . S
N438 Co435 2.121 . S
N438 C440 1.375 . S
N438 C441 1.313 . S
C439 C440 1.338 1_655 S
C439 N442 1.377 . S
C439 H459 0.930 . S
C440 N438 1.375 . S
C440 C439 1.338 1_455 S
C440 H444 0.931 . S
C441 N438 1.313 . S
C441 N442 1.344 1_455 S
C441 H445 0.930 . S
N442 C439 1.377 . S
N442 C441 1.344 1_655 S
O443 Co435 2.055 . S
O443 C447 1.253 . S
H444 C440 0.931 . S
H445 C441 0.930 . S
O446 Co435 2.039 . S
O446 C436 1.265 . S
C447 O443 1.253 . S
C447 O448 1.227 . S
O448 C447 1.227 . S
N449 Co435 2.140 . S
N449 C452 1.346 . S
N449 C453 1.345 . S
C450 C451 1.387 . S
C450 C454 1.391 . S
C451 C450 1.387 . S
C451 C452 1.369 . S
C451 H460 0.929 . S
C452 N449 1.346 . S
C452 C451 1.369 . S
C452 H455 0.928 . S
C453 N449 1.345 . S
C453 C454 1.371 . S
C453 H456 0.931 . S
C454 C450 1.391 . S
C454 C453 1.371 . S
C454 H461 0.930 . S
H455 C452 0.928 . S
H456 C453 0.931 . S
H457 C433 0.930 . S
H458 C430 0.930 . S
H459 C439 0.930 . S
H460 C451 0.929 . S
H461 C454 0.930 . S
C462 C463 1.351 . S
C462 N465 1.368 . S
C462 H467 0.931 . S
C463 C462 1.351 . S
C463 N464 1.373 . S
C463 H491 0.930 . S
N464 C463 1.373 . S
N464 C466 1.340 . S
N465 C462 1.368 . S
N465 C466 1.321 . S
N465 Co468 2.135 . S
C466 N464 1.340 . S
C466 N465 1.321 . S
C466 H490 0.930 . S
H467 C462 0.931 . S
Co468 N465 2.135 . S
Co468 N471 2.121 . S
Co468 O476 2.055 . S
Co468 O479 2.039 . S
Co468 N482 2.140 . S
C469 O470 1.227 . S
C469 O479 1.265 . S
O470 C469 1.227 . S
N471 Co468 2.121 . S
N471 C473 1.375 . S
N471 C474 1.313 . S
C472 C473 1.338 . S
C472 N475 1.377 . S
C472 H492 0.930 . S
C473 N471 1.375 . S
C473 C472 1.338 . S
C473 H477 0.931 . S
C474 N471 1.313 . S
C474 N475 1.344 . S
C474 H478 0.930 . S
N475 C472 1.377 . S
N475 C474 1.344 . S
O476 Co468 2.055 . S
O476 C480 1.253 . S
H477 C473 0.931 . S
H478 C474 0.930 . S
O479 Co468 2.039 . S
O479 C469 1.265 . S
C480 O476 1.253 . S
C480 O481 1.227 . S
O481 C480 1.227 . S
N482 Co468 2.140 . S
N482 C485 1.346 . S
N482 C486 1.345 . S
C483 C484 1.387 . S
C483 C487 1.391 . S
C484 C483 1.387 . S
C484 C485 1.369 . S
C484 H493 0.929 . S
C485 N482 1.346 . S
C485 C484 1.369 . S
C485 H488 0.928 . S
C486 N482 1.345 . S
C486 C487 1.371 . S
C486 H489 0.931 . S
C487 C483 1.391 . S
C487 C486 1.371 . S
C487 H494 0.930 . S
H488 C485 0.928 . S
H489 C486 0.931 . S
H490 C466 0.930 . S
H491 C463 0.930 . S
H492 C472 0.930 . S
H493 C484 0.929 . S
H494 C487 0.930 . S
C495 C496 1.351 . S
C495 N498 1.368 . S
C495 H500 0.931 . S
C496 C495 1.351 . S
C496 N497 1.373 . S
C496 H524 0.930 . S
N497 C496 1.373 . S
N497 C499 1.340 . S
N498 C495 1.368 . S
N498 C499 1.321 . S
N498 Co501 2.135 . S
C499 N497 1.340 . S
C499 N498 1.321 . S
C499 H523 0.930 . S
H500 C495 0.931 . S
Co501 N498 2.135 . S
Co501 N504 2.121 . S
Co501 O509 2.055 . S
Co501 O512 2.039 . S
Co501 N515 2.140 . S
C502 O503 1.227 . S
C502 O512 1.265 . S
O503 C502 1.227 . S
N504 Co501 2.121 . S
N504 C506 1.375 . S
N504 C507 1.313 . S
C505 C506 1.338 . S
C505 N508 1.377 . S
C505 H525 0.930 . S
C506 N504 1.375 . S
C506 C505 1.338 . S
C506 H510 0.931 . S
C507 N504 1.313 . S
C507 N508 1.344 . S
C507 H511 0.930 . S
N508 C505 1.377 . S
N508 C507 1.344 . S
O509 Co501 2.055 . S
O509 C513 1.253 . S
H510 C506 0.931 . S
H511 C507 0.930 . S
O512 Co501 2.039 . S
O512 C502 1.265 . S
C513 O509 1.253 . S
C513 O514 1.227 . S
O514 C513 1.227 . S
N515 Co501 2.140 . S
N515 C518 1.346 . S
N515 C519 1.345 . S
C516 C517 1.387 . S
C516 C520 1.391 . S
C517 C516 1.387 . S
C517 C518 1.369 . S
C517 H526 0.929 . S
C518 N515 1.346 . S
C518 C517 1.369 . S
C518 H521 0.928 . S
C519 N515 1.345 . S
C519 C520 1.371 . S
C519 H522 0.931 . S
C520 C516 1.391 . S
C520 C519 1.371 . S
C520 H527 0.930 . S
H521 C518 0.928 . S
H522 C519 0.931 . S
H523 C499 0.930 . S
H524 C496 0.930 . S
H525 C505 0.930 . S
H526 C517 0.929 . S
H527 C520 0.930 . S
N13 N497 1.356 . S
N277 N46 1.804 1_655 S
N409 N68 1.598 . S
N101 N343 1.936 1_556 S
N365 N35 1.702 . S
N79 N299 1.738 . S
N112 N431 2.071 . S
N2 N244 1.353 . S
N266 N134 1.702 . S
N398 N178 1.738 1_556 S
N211 N332 2.071 . S
N200 N442 1.936 . S
N145 N376 1.804 . S
N475 N233 1.356 . S
N310 N167 1.598 . S
N508 N464 1.353 . S
C21 C51 1.325 1_545 S
C40 C87 1.383 . S
C73 C106 1.923 1_565 S
C117 C7 1.898 1_556 S
C18 C183 1.362 1_455 S
C153 C120 0.861 . S
C219 C54 0.861 1_655 S
C480 C84 1.362 . S
C285 C238 1.059 1_545 S
C271 C304 1.723 . S
C315 C348 2.000 1_545 S
C351 C249 1.342 . S
C417 C252 1.070 1_455 S
C381 C337 1.750 . S
C282 C436 1.750 1_655 S
C516 C318 1.070 . S
C150 C483 1.325 . S
C139 C186 1.383 1_556 S
C172 C205 1.923 . S
C469 C216 1.898 . S
C384 C502 1.059 . S
C403 C370 1.723 1_556 S
C414 C447 2.000 . S
C513 C450 1.342 . S
