# Generated by pormake.
# Topology yfb, (5)-cn, num edge types: 1
# Building blocks:
#     Node 0, Type 0, BuildingBlock: BEQFEK_clean_sbu_0, # of connection points: 5
#     Node 1, Type 0, BuildingBlock: BEQFEK_clean_sbu_0, # of connection points: 5
#     Node 2, Type 0, BuildingBlock: BEQFEK_clean_sbu_0, # of connection points: 5
#     Node 3, Type 0, BuildingBlock: BEQFEK_clean_sbu_0, # of connection points: 5
#     Node 4, Type 0, BuildingBlock: BEQFEK_clean_sbu_0, # of connection points: 5
#     Node 5, Type 0, BuildingBlock: BEQFEK_clean_sbu_0, # of connection points: 5
#     Node 6, Type 0, BuildingBlock: BEQFEK_clean_sbu_0, # of connection points: 5
#     Node 7, Type 0, BuildingBlock: BEQFEK_clean_sbu_0, # of connection points: 5
#     Node 8, Type 0, BuildingBlock: BEQFEK_clean_sbu_0, # of connection points: 5
#     Node 9, Type 0, BuildingBlock: BEQFEK_clean_sbu_0, # of connection points: 5
#     Node 10, Type 0, BuildingBlock: BEQFEK_clean_sbu_0, # of connection points: 5
#     Node 11, Type 0, BuildingBlock: BEQFEK_clean_sbu_0, # of connection points: 5
#     Node 12, Type 0, BuildingBlock: BEQFEK_clean_sbu_0, # of connection points: 5
#     Node 13, Type 0, BuildingBlock: BEQFEK_clean_sbu_0, # of connection points: 5
#     Node 14, Type 0, BuildingBlock: BEQFEK_clean_sbu_0, # of connection points: 5
#     Node 15, Type 0, BuildingBlock: BEQFEK_clean_sbu_0, # of connection points: 5
#     Edge 16, Type (0, 0), BuildingBlock: UVAHIK_clean_linker_0, # of connection points: 2
#     Edge 17, Type (0, 0), BuildingBlock: UVAHIK_clean_linker_0, # of connection points: 2
#     Edge 18, Type (0, 0), BuildingBlock: UVAHIK_clean_linker_0, # of connection points: 2
#     Edge 19, Type (0, 0), BuildingBlock: UVAHIK_clean_linker_0, # of connection points: 2
#     Edge 20, Type (0, 0), BuildingBlock: UVAHIK_clean_linker_0, # of connection points: 2
#     Edge 21, Type (0, 0), BuildingBlock: UVAHIK_clean_linker_0, # of connection points: 2
#     Edge 22, Type (0, 0), BuildingBlock: UVAHIK_clean_linker_0, # of connection points: 2
#     Edge 23, Type (0, 0), BuildingBlock: UVAHIK_clean_linker_0, # of connection points: 2
#     Edge 24, Type (0, 0), BuildingBlock: UVAHIK_clean_linker_0, # of connection points: 2
#     Edge 25, Type (0, 0), BuildingBlock: UVAHIK_clean_linker_0, # of connection points: 2
#     Edge 26, Type (0, 0), BuildingBlock: UVAHIK_clean_linker_0, # of connection points: 2
#     Edge 27, Type (0, 0), BuildingBlock: UVAHIK_clean_linker_0, # of connection points: 2
#     Edge 28, Type (0, 0), BuildingBlock: UVAHIK_clean_linker_0, # of connection points: 2
#     Edge 29, Type (0, 0), BuildingBlock: UVAHIK_clean_linker_0, # of connection points: 2
#     Edge 30, Type (0, 0), BuildingBlock: UVAHIK_clean_linker_0, # of connection points: 2
#     Edge 31, Type (0, 0), BuildingBlock: UVAHIK_clean_linker_0, # of connection points: 2
#     Edge 32, Type (0, 0), BuildingBlock: UVAHIK_clean_linker_0, # of connection points: 2
#     Edge 33, Type (0, 0), BuildingBlock: UVAHIK_clean_linker_0, # of connection points: 2
#     Edge 34, Type (0, 0), BuildingBlock: UVAHIK_clean_linker_0, # of connection points: 2
#     Edge 35, Type (0, 0), BuildingBlock: UVAHIK_clean_linker_0, # of connection points: 2
#     Edge 36, Type (0, 0), BuildingBlock: UVAHIK_clean_linker_0, # of connection points: 2
#     Edge 37, Type (0, 0), BuildingBlock: UVAHIK_clean_linker_0, # of connection points: 2
#     Edge 38, Type (0, 0), BuildingBlock: UVAHIK_clean_linker_0, # of connection points: 2
#     Edge 39, Type (0, 0), BuildingBlock: UVAHIK_clean_linker_0, # of connection points: 2
#     Edge 40, Type (0, 0), BuildingBlock: UVAHIK_clean_linker_0, # of connection points: 2
#     Edge 41, Type (0, 0), BuildingBlock: UVAHIK_clean_linker_0, # of connection points: 2
#     Edge 42, Type (0, 0), BuildingBlock: UVAHIK_clean_linker_0, # of connection points: 2
#     Edge 43, Type (0, 0), BuildingBlock: UVAHIK_clean_linker_0, # of connection points: 2
#     Edge 44, Type (0, 0), BuildingBlock: UVAHIK_clean_linker_0, # of connection points: 2
#     Edge 45, Type (0, 0), BuildingBlock: UVAHIK_clean_linker_0, # of connection points: 2
#     Edge 46, Type (0, 0), BuildingBlock: UVAHIK_clean_linker_0, # of connection points: 2
#     Edge 47, Type (0, 0), BuildingBlock: UVAHIK_clean_linker_0, # of connection points: 2
#     Edge 48, Type (0, 0), BuildingBlock: UVAHIK_clean_linker_0, # of connection points: 2
#     Edge 49, Type (0, 0), BuildingBlock: UVAHIK_clean_linker_0, # of connection points: 2
#     Edge 50, Type (0, 0), BuildingBlock: UVAHIK_clean_linker_0, # of connection points: 2
#     Edge 51, Type (0, 0), BuildingBlock: UVAHIK_clean_linker_0, # of connection points: 2
#     Edge 52, Type (0, 0), BuildingBlock: UVAHIK_clean_linker_0, # of connection points: 2
#     Edge 53, Type (0, 0), BuildingBlock: UVAHIK_clean_linker_0, # of connection points: 2
#     Edge 54, Type (0, 0), BuildingBlock: UVAHIK_clean_linker_0, # of connection points: 2
#     Edge 55, Type (0, 0), BuildingBlock: UVAHIK_clean_linker_0, # of connection points: 2
# Relax obj value: 0.640
# Max RMSD: 0.195
# Mean RMSD: 0.195
data_MOF--net-yfb--node1-BEQFEK_clean_sbu_0--edge1-UVAHIK_clean_linker_0
_symmetry_space_group_name_H-M    P1
_symmetry_Int_Tables_number       1
_symmetry_cell_setting            triclinic
loop_
_symmetry_equiv_pos_as_xyz
'x, y, z'
_cell_length_a     57.676026
_cell_length_b     57.594912
_cell_length_c     56.964225
_cell_angle_alpha  90.026682
_cell_angle_beta   89.944699
_cell_angle_gamma 89.948424
loop_
_atom_site_label
_atom_site_type_symbol
_atom_site_fract_x
_atom_site_fract_y
_atom_site_fract_z
_atom_type_partial_charge
Co0 Co 0.67577 0.10062 0.1116 0.0
Co1 Co 0.65351 0.05706 0.08763 0.0
C2 C 0.63388 0.10648 0.08362 0.0
O3 O 0.64812 0.11511 0.09815 0.0
O4 O 0.63491 0.08509 0.07804 0.0
C5 C 0.68308 0.14099 0.14072 0.0
O6 O 0.66049 0.14066 0.14367 0.0
C7 C 0.61229 0.03012 0.07492 0.0
C8 C 0.62729 0.00106 0.05474 0.0
C9 C 0.60635 0.01145 0.0606 0.0
N10 N 0.63556 0.03082 0.0771 0.0
N11 N 0.64436 0.01306 0.06541 0.0
C12 C 0.59659 0.04906 0.08343 0.0
H13 H 0.59265 0.06098 0.06865 0.0
H14 H 0.605 0.05895 0.09779 0.0
H15 H 0.58001 0.04195 0.09002 0.0
C16 C 0.67617 0.07003 0.15246 0.0
N17 N 0.66893 0.07478 0.13056 0.0
N18 N 0.66054 0.05584 0.1208 0.0
C19 C 0.66261 0.03818 0.13633 0.0
C20 C 0.67239 0.04667 0.15706 0.0
C21 C 0.69025 0.08661 0.16688 0.0
H22 H 0.70538 0.09255 0.15647 0.0
H23 H 0.67949 0.10198 0.17123 0.0
H24 H 0.69673 0.0788 0.18337 0.0
O25 O 0.69673 0.09091 0.08597 0.0
O26 O 0.68319 0.05872 0.06946 0.0
H27 H 0.66975 0.00752 0.11658 0.0
H28 H 0.65944 0.00206 0.14615 0.0
C29 C 0.65761 0.01339 0.1305 0.0
H30 H 0.63976 0.01196 0.12339 0.0
H31 H 0.66209 0.0101 0.0633 0.0
O32 O 0.6927 0.12512 0.12865 0.0
C33 C 0.69858 0.07457 0.07099 0.0
Co34 Co 0.39451 0.68475 0.10994 0.0
Co35 Co 0.43432 0.65539 0.08673 0.0
C36 C 0.38393 0.64038 0.08578 0.0
O37 O 0.37766 0.65778 0.09788 0.0
O38 O 0.40508 0.63755 0.08003 0.0
C39 C 0.35687 0.69381 0.14123 0.0
O40 O 0.35863 0.67151 0.14576 0.0
C41 C 0.45929 0.61258 0.07373 0.0
C42 C 0.48991 0.62649 0.05526 0.0
C43 C 0.47834 0.60598 0.06024 0.0
N44 N 0.45957 0.63586 0.07636 0.0
N45 N 0.47822 0.64397 0.06566 0.0
C46 C 0.43936 0.5976 0.08107 0.0
H47 H 0.42657 0.59684 0.06655 0.0
H48 H 0.43084 0.60504 0.09684 0.0
H49 H 0.445 0.57966 0.08499 0.0
C50 C 0.42587 0.68407 0.1501 0.0
N51 N 0.41989 0.67627 0.12872 0.0
N52 N 0.43732 0.66472 0.11935 0.0
C53 C 0.45522 0.66512 0.13472 0.0
C54 C 0.44839 0.67718 0.15486 0.0
C55 C 0.41165 0.70107 0.16393 0.0
H56 H 0.40553 0.71517 0.15223 0.0
H57 H 0.3963 0.69203 0.17126 0.0
H58 H 0.4215 0.70898 0.17858 0.0
O59 O 0.40562 0.70422 0.0838 0.0
O60 O 0.43361 0.68388 0.06638 0.0
H61 H 0.48656 0.6664 0.11486 0.0
H62 H 0.49036 0.6569 0.14494 0.0
C63 C 0.4789 0.65602 0.12932 0.0
H64 H 0.47757 0.6378 0.12313 0.0
H65 H 0.48215 0.66159 0.06415 0.0
O66 O 0.37122 0.70317 0.1272 0.0
C67 C 0.42098 0.70205 0.06787 0.0
Co68 Co 0.81018 0.39476 0.10749 0.0
Co69 Co 0.83775 0.43697 0.0866 0.0
C70 C 0.85349 0.38689 0.08088 0.0
O71 O 0.83696 0.37906 0.09326 0.0
O72 O 0.85537 0.40854 0.07689 0.0
C73 C 0.80152 0.35496 0.13647 0.0
O74 O 0.82372 0.35649 0.14138 0.0
C75 C 0.88042 0.46254 0.07558 0.0
C76 C 0.86684 0.49322 0.05692 0.0
C77 C 0.88725 0.48162 0.06227 0.0
N78 N 0.85712 0.46278 0.07768 0.0
N79 N 0.8492 0.4815 0.06693 0.0
C80 C 0.89527 0.44257 0.0831 0.0
H81 H 0.88667 0.43274 0.09741 0.0
H82 H 0.91239 0.44861 0.08936 0.0
H83 H 0.89816 0.43086 0.06789 0.0
C84 C 0.81113 0.42341 0.14983 0.0
N85 N 0.81874 0.41893 0.12799 0.0
N86 N 0.82949 0.43732 0.11956 0.0
C87 C 0.82877 0.45428 0.13601 0.0
C88 C 0.81733 0.44588 0.15588 0.0
C89 C 0.7946 0.40798 0.16286 0.0
H90 H 0.78054 0.40233 0.15091 0.0
H91 H 0.80403 0.39237 0.16908 0.0
H92 H 0.78659 0.41672 0.17818 0.0
O93 O 0.78981 0.40778 0.083 0.0
O94 O 0.80874 0.43769 0.06725 0.0
H95 H 0.82602 0.48655 0.11785 0.0
H96 H 0.83555 0.48922 0.14805 0.0
C97 C 0.83679 0.47859 0.13184 0.0
H98 H 0.85498 0.47832 0.12549 0.0
H99 H 0.83163 0.48535 0.06495 0.0
O100 O 0.79226 0.37008 0.1232 0.0
C101 C 0.79101 0.42449 0.06842 0.0
Co102 Co 0.10133 0.81156 0.11003 0.0
Co103 Co 0.05928 0.83625 0.08592 0.0
C104 C 0.10887 0.85534 0.08549 0.0
O105 O 0.11661 0.83998 0.09935 0.0
O106 O 0.08784 0.85499 0.07875 0.0
C107 C 0.13918 0.80328 0.14155 0.0
O108 O 0.13696 0.82547 0.14646 0.0
C109 C 0.03466 0.87855 0.07261 0.0
C110 C 0.00373 0.86538 0.05423 0.0
C111 C 0.0159 0.88561 0.05903 0.0
N112 N 0.03395 0.85531 0.07514 0.0
N113 N 0.0152 0.84757 0.06437 0.0
C114 C 0.05285 0.89363 0.08347 0.0
H115 H 0.0594 0.88555 0.09987 0.0
H116 H 0.04578 0.91114 0.0874 0.0
H117 H 0.06759 0.89555 0.07111 0.0
C118 C 0.06892 0.80934 0.14962 0.0
N119 N 0.07474 0.81756 0.12833 0.0
N120 N 0.05655 0.82742 0.11852 0.0
C121 C 0.03836 0.82544 0.13341 0.0
C122 C 0.0457 0.81412 0.15376 0.0
C123 C 0.0843 0.79377 0.16384 0.0
H124 H 0.09149 0.77992 0.15244 0.0
H125 H 0.09893 0.80408 0.17094 0.0
H126 H 0.07502 0.78544 0.17864 0.0
O127 O 0.09279 0.79233 0.08253 0.0
O128 O 0.06117 0.80752 0.06633 0.0
H129 H 0.00772 0.82083 0.113 0.0
H130 H 0.0024 0.83081 0.1427 0.0
C131 C 0.01411 0.83226 0.12729 0.0
H132 H 0.01397 0.85035 0.12059 0.0
H133 H 0.01087 0.83005 0.06287 0.0
O134 O 0.12511 0.79386 0.12729 0.0
C135 C 0.07681 0.79184 0.06709 0.0
Co136 Co 0.68295 0.39241 0.39536 0.0
Co137 Co 0.65342 0.43285 0.41761 0.0
C138 C 0.63924 0.3824 0.42121 0.0
O139 O 0.65668 0.37591 0.4093 0.0
O140 O 0.63591 0.40378 0.42577 0.0
C141 C 0.69063 0.35206 0.36765 0.0
O142 O 0.66786 0.35139 0.36782 0.0
C143 C 0.61068 0.45813 0.42986 0.0
C144 C 0.62448 0.48891 0.44818 0.0
C145 C 0.60402 0.4773 0.44315 0.0
N146 N 0.63395 0.45835 0.42741 0.0
N147 N 0.642 0.4771 0.438 0.0
C148 C 0.59575 0.43815 0.42259 0.0
H149 H 0.59411 0.42588 0.43752 0.0
H150 H 0.60368 0.42894 0.40747 0.0
H151 H 0.57813 0.44398 0.41768 0.0
C152 C 0.68074 0.4221 0.3541 0.0
N153 N 0.67347 0.41694 0.37588 0.0
N154 N 0.66207 0.43471 0.3848 0.0
C155 C 0.66217 0.45207 0.36877 0.0
C156 C 0.67381 0.4445 0.34866 0.0
C157 C 0.6973 0.40721 0.34046 0.0
H158 H 0.71255 0.40309 0.35156 0.0
H159 H 0.68862 0.39067 0.33578 0.0
H160 H 0.70349 0.4157 0.32417 0.0
O161 O 0.70296 0.40484 0.42047 0.0
O162 O 0.68224 0.43294 0.43734 0.0
H163 H 0.66369 0.48397 0.38774 0.0
H164 H 0.65419 0.48703 0.35757 0.0
C165 C 0.65327 0.47599 0.37351 0.0
H166 H 0.63507 0.47495 0.37976 0.0
H167 H 0.65959 0.481 0.43962 0.0
O168 O 0.70096 0.36873 0.37786 0.0
C169 C 0.70064 0.42066 0.43594 0.0
Co170 Co 0.09752 0.68607 0.39243 0.0
Co171 Co 0.0585 0.65534 0.41512 0.0
C172 C 0.10947 0.6431 0.41858 0.0
O173 O 0.11527 0.66054 0.40633 0.0
O174 O 0.08827 0.63917 0.42333 0.0
C175 C 0.13584 0.69577 0.36235 0.0
O176 O 0.13493 0.67332 0.35832 0.0
C177 C 0.03625 0.61154 0.42843 0.0
C178 C 0.0032 0.62309 0.44403 0.0
C179 C 0.01697 0.60358 0.44075 0.0
N180 N 0.03422 0.63462 0.42519 0.0
N181 N 0.01424 0.64136 0.4343 0.0
C182 C 0.05609 0.59744 0.41925 0.0
H183 H 0.0632 0.60554 0.4031 0.0
H184 H 0.0505 0.57941 0.41536 0.0
H185 H 0.07005 0.59686 0.43262 0.0
C186 C 0.06767 0.68261 0.35129 0.0
N187 N 0.07338 0.6756 0.37302 0.0
N188 N 0.05622 0.66351 0.38217 0.0
C189 C 0.03878 0.66272 0.36629 0.0
C190 C 0.04562 0.67459 0.34606 0.0
C191 C 0.08139 0.7001 0.33761 0.0
H192 H 0.09739 0.69173 0.33087 0.0
H193 H 0.07157 0.70731 0.32257 0.0
H194 H 0.08644 0.71464 0.34927 0.0
O195 O 0.08422 0.70578 0.41729 0.0
O196 O 0.05702 0.68435 0.43467 0.0
H197 H 0.00674 0.6634 0.385 0.0
H198 H 0.00444 0.65248 0.35526 0.0
C199 C 0.01537 0.65278 0.37128 0.0
H200 H 0.01731 0.63491 0.37829 0.0
H201 H 0.00863 0.65858 0.43485 0.0
O202 O 0.12064 0.70502 0.37554 0.0
C203 C 0.06854 0.70318 0.43282 0.0
Co204 Co 0.81435 0.10195 0.39392 0.0
Co205 Co 0.83731 0.05837 0.41751 0.0
C206 C 0.85645 0.10739 0.42248 0.0
O207 O 0.8417 0.11592 0.40845 0.0
O208 O 0.85604 0.08596 0.42782 0.0
C209 C 0.81163 0.14229 0.36527 0.0
O210 O 0.83429 0.13992 0.36501 0.0
C211 C 0.87825 0.03089 0.42984 0.0
C212 C 0.86319 0.00252 0.45088 0.0
C213 C 0.88417 0.01246 0.44448 0.0
N214 N 0.85496 0.0319 0.42801 0.0
N215 N 0.84611 0.01453 0.44021 0.0
C216 C 0.89406 0.04941 0.4207 0.0
H217 H 0.88523 0.05977 0.40694 0.0
H218 H 0.90997 0.04175 0.41306 0.0
H219 H 0.89926 0.06097 0.43538 0.0
C220 C 0.81464 0.07175 0.35282 0.0
N221 N 0.82189 0.07642 0.37474 0.0
N222 N 0.83079 0.05757 0.38423 0.0
C223 C 0.8291 0.04006 0.36847 0.0
C224 C 0.81902 0.04855 0.3479 0.0
C225 C 0.79987 0.0881 0.33882 0.0
H226 H 0.78525 0.09427 0.34983 0.0
H227 H 0.81041 0.10337 0.33367 0.0
H228 H 0.79262 0.07999 0.3228 0.0
O229 O 0.7923 0.0917 0.41853 0.0
O230 O 0.80718 0.05991 0.43486 0.0
H231 H 0.82247 0.00896 0.38766 0.0
H232 H 0.8333 0.00417 0.35816 0.0
C233 C 0.83465 0.01531 0.374 0.0
H234 H 0.85243 0.01419 0.38133 0.0
H235 H 0.82837 0.01191 0.4427 0.0
O236 O 0.79938 0.12732 0.376 0.0
C237 C 0.79102 0.07501 0.4332 0.0
Co238 Co 0.39415 0.81097 0.39539 0.0
Co239 Co 0.43618 0.83814 0.41706 0.0
C240 C 0.38626 0.85441 0.42193 0.0
O241 O 0.37853 0.838 0.40933 0.0
O242 O 0.40782 0.85605 0.42633 0.0
C243 C 0.35502 0.80367 0.36556 0.0
O244 O 0.35765 0.82584 0.36083 0.0
C245 C 0.46202 0.8805 0.42895 0.0
C246 C 0.49232 0.86635 0.44774 0.0
C247 C 0.48102 0.88698 0.44251 0.0
N248 N 0.46202 0.8572 0.42658 0.0
N249 N 0.48051 0.84893 0.43742 0.0
C250 C 0.4423 0.89567 0.42141 0.0
H251 H 0.43269 0.88742 0.40676 0.0
H252 H 0.44852 0.91292 0.41563 0.0
H253 H 0.43037 0.8983 0.43647 0.0
C254 C 0.42382 0.81132 0.35368 0.0
N255 N 0.41885 0.81918 0.37535 0.0
N256 N 0.43708 0.82988 0.38413 0.0
C257 C 0.45441 0.8289 0.36812 0.0
C258 C 0.44647 0.81729 0.34815 0.0
C259 C 0.40862 0.79473 0.34048 0.0
H260 H 0.40237 0.78097 0.35251 0.0
H261 H 0.39338 0.80426 0.33356 0.0
H262 H 0.41776 0.78632 0.32562 0.0
O263 O 0.40624 0.79041 0.42034 0.0
O264 O 0.43616 0.80902 0.43627 0.0
H265 H 0.48636 0.82563 0.38666 0.0
H266 H 0.48949 0.83591 0.35677 0.0
C267 C 0.47864 0.83678 0.37285 0.0
H268 H 0.47831 0.85484 0.37963 0.0
H269 H 0.48415 0.83127 0.43923 0.0
O270 O 0.36942 0.79367 0.37906 0.0
C271 C 0.42275 0.79143 0.43515 0.0
Co272 Co 0.30727 0.89418 0.89723 0.0
Co273 Co 0.33608 0.9353 0.91861 0.0
C274 C 0.35135 0.88487 0.92191 0.0
O275 O 0.33439 0.87774 0.90973 0.0
O276 O 0.35361 0.9063 0.92684 0.0
C277 C 0.29811 0.85561 0.86719 0.0
O278 O 0.32037 0.85718 0.86253 0.0
C279 C 0.3791 0.96018 0.93041 0.0
C280 C 0.36568 0.99145 0.94822 0.0
C281 C 0.38599 0.97943 0.94344 0.0
N282 N 0.35585 0.96075 0.92788 0.0
N283 N 0.34804 0.97979 0.93815 0.0
C284 C 0.39377 0.93982 0.92355 0.0
H285 H 0.39471 0.92752 0.93851 0.0
H286 H 0.38603 0.9308 0.90823 0.0
H287 H 0.41165 0.94517 0.91907 0.0
C288 C 0.30784 0.92388 0.85564 0.0
N289 N 0.31551 0.9189 0.87733 0.0
N290 N 0.32698 0.93679 0.88586 0.0
C291 C 0.32672 0.95394 0.86958 0.0
C292 C 0.31481 0.94614 0.84976 0.0
C293 C 0.29101 0.90901 0.84237 0.0
H294 H 0.27701 0.90315 0.85432 0.0
H295 H 0.3002 0.89353 0.83549 0.0
H296 H 0.28295 0.91834 0.82744 0.0
O297 O 0.28786 0.90634 0.92303 0.0
O298 O 0.30757 0.93566 0.93882 0.0
H299 H 0.32576 0.98621 0.88795 0.0
H300 H 0.33499 0.98856 0.85761 0.0
C301 C 0.33595 0.97781 0.87375 0.0
H302 H 0.3542 0.97664 0.87982 0.0
H303 H 0.3305 0.984 0.93969 0.0
O304 O 0.28883 0.8703 0.88095 0.0
C305 C 0.28969 0.92262 0.93806 0.0
Co306 Co 0.60149 0.31252 0.89383 0.0
Co307 Co 0.55893 0.33769 0.91723 0.0
C308 C 0.60836 0.35503 0.9223 0.0
O309 O 0.61644 0.33911 0.90924 0.0
O310 O 0.58678 0.35613 0.92678 0.0
C311 C 0.64257 0.30817 0.86634 0.0
O312 O 0.64265 0.33091 0.8681 0.0
C313 C 0.53197 0.37911 0.92972 0.0
C314 C 0.50285 0.36419 0.94978 0.0
C315 C 0.51322 0.38512 0.9439 0.0
N316 N 0.53272 0.3558 0.92764 0.0
N317 N 0.51493 0.34704 0.93926 0.0
C318 C 0.55088 0.3948 0.92123 0.0
H319 H 0.56266 0.39891 0.93606 0.0
H320 H 0.5609 0.38629 0.90699 0.0
H321 H 0.54374 0.41133 0.91448 0.0
C322 C 0.57156 0.31393 0.85272 0.0
N323 N 0.57645 0.32125 0.87457 0.0
N324 N 0.55789 0.33075 0.88405 0.0
C325 C 0.54035 0.32943 0.86834 0.0
C326 C 0.54849 0.31887 0.84783 0.0
C327 C 0.58742 0.29846 0.83888 0.0
H328 H 0.59231 0.28326 0.84976 0.0
H329 H 0.60346 0.30814 0.83448 0.0
H330 H 0.57946 0.292 0.82245 0.0
O331 O 0.58995 0.29035 0.91766 0.0
O332 O 0.56008 0.30781 0.93522 0.0
H333 H 0.50903 0.32374 0.88744 0.0
H334 H 0.5047 0.3349 0.85802 0.0
C335 C 0.51582 0.33579 0.87388 0.0
H336 H 0.51527 0.35359 0.88133 0.0
H337 H 0.51198 0.32929 0.9414 0.0
O338 O 0.62613 0.2967 0.87561 0.0
C339 C 0.5737 0.29047 0.93286 0.0
Co340 Co 0.18005 0.59996 0.89401 0.0
Co341 Co 0.1554 0.55789 0.91832 0.0
C342 C 0.13571 0.60723 0.91797 0.0
O343 O 0.15145 0.61472 0.90442 0.0
O344 O 0.13582 0.58626 0.92506 0.0
C345 C 0.18785 0.63819 0.86273 0.0
O346 O 0.16568 0.63593 0.85793 0.0
C347 C 0.11403 0.531 0.93118 0.0
C348 C 0.12908 0.50215 0.95159 0.0
C349 C 0.10812 0.51237 0.94558 0.0
N350 N 0.13731 0.53181 0.92909 0.0
N351 N 0.14614 0.51417 0.94092 0.0
C352 C 0.09826 0.54977 0.92249 0.0
H353 H 0.09547 0.56264 0.93673 0.0
H354 H 0.10611 0.55862 0.90713 0.0
H355 H 0.08115 0.54279 0.91732 0.0
C356 C 0.18239 0.56771 0.8545 0.0
N357 N 0.17449 0.57328 0.87596 0.0
N358 N 0.16463 0.55504 0.88569 0.0
C359 C 0.16628 0.53702 0.87048 0.0
C360 C 0.17735 0.54461 0.85006 0.0
C361 C 0.19751 0.58333 0.84005 0.0
H362 H 0.2114 0.59068 0.85124 0.0
H363 H 0.1869 0.59785 0.83313 0.0
H364 H 0.20575 0.57415 0.82511 0.0
O365 O 0.19907 0.59198 0.92158 0.0
O366 O 0.1839 0.56067 0.93837 0.0
H367 H 0.16972 0.50619 0.89094 0.0
H368 H 0.16107 0.50111 0.86077 0.0
C369 C 0.15904 0.51277 0.87617 0.0
H370 H 0.14069 0.51279 0.88206 0.0
H371 H 0.16387 0.5113 0.94309 0.0
O372 O 0.19741 0.62397 0.87676 0.0
C373 C 0.19947 0.57639 0.93742 0.0
Co374 Co 0.89096 0.1841 0.89208 0.0
Co375 Co 0.93086 0.1554 0.91594 0.0
C376 C 0.88052 0.14111 0.91897 0.0
O377 O 0.87419 0.15822 0.90653 0.0
O378 O 0.90179 0.13803 0.92394 0.0
C379 C 0.8526 0.18945 0.8618 0.0
O380 O 0.85469 0.16676 0.86066 0.0
C381 C 0.95441 0.11243 0.92917 0.0
C382 C 0.98598 0.12481 0.94699 0.0
C383 C 0.97324 0.10488 0.94239 0.0
N384 N 0.95564 0.13565 0.92668 0.0
N385 N 0.97476 0.14291 0.93712 0.0
C386 C 0.9357 0.09786 0.91851 0.0
H387 H 0.92905 0.10623 0.90231 0.0
H388 H 0.9423 0.08023 0.91431 0.0
H389 H 0.92113 0.0962 0.93111 0.0
C390 C 0.92178 0.18137 0.85166 0.0
N391 N 0.91587 0.17418 0.87329 0.0
N392 N 0.93341 0.16307 0.88295 0.0
C393 C 0.9513 0.16315 0.86755 0.0
C394 C 0.94439 0.17455 0.84707 0.0
C395 C 0.90754 0.19819 0.83766 0.0
H396 H 0.90203 0.21278 0.84908 0.0
H397 H 0.89178 0.18926 0.83115 0.0
H398 H 0.9171 0.20544 0.82248 0.0
O399 O 0.90305 0.20508 0.91657 0.0
O400 O 0.93068 0.18487 0.93483 0.0
H401 H 0.98259 0.16585 0.8873 0.0
H402 H 0.9866 0.15508 0.85767 0.0
C403 C 0.97512 0.15471 0.87332 0.0
H404 H 0.9741 0.13676 0.88031 0.0
H405 H 0.97958 0.16031 0.93849 0.0
O406 O 0.8672 0.20098 0.87375 0.0
C407 C 0.91854 0.20328 0.9324 0.0
Co408 Co 0.31702 0.60501 0.61256 0.0
Co409 Co 0.33833 0.56153 0.58728 0.0
C410 C 0.35948 0.61011 0.58473 0.0
O411 O 0.34518 0.61865 0.59928 0.0
O412 O 0.35807 0.58897 0.57839 0.0
C413 C 0.31368 0.64498 0.64214 0.0
O414 O 0.3364 0.64335 0.64236 0.0
C415 C 0.37839 0.53312 0.574 0.0
C416 C 0.36237 0.50544 0.55272 0.0
C417 C 0.38367 0.51463 0.55915 0.0
N418 N 0.35515 0.53485 0.57594 0.0
N419 N 0.34571 0.5179 0.56358 0.0
C420 C 0.39479 0.55103 0.58329 0.0
H421 H 0.38654 0.561 0.59773 0.0
H422 H 0.41083 0.54293 0.59007 0.0
H423 H 0.39966 0.56307 0.5689 0.0
C424 C 0.31594 0.57323 0.65248 0.0
N425 N 0.32315 0.5784 0.63066 0.0
N426 N 0.33135 0.5596 0.62042 0.0
C427 C 0.32922 0.54163 0.63557 0.0
C428 C 0.31958 0.54975 0.65653 0.0
C429 C 0.30216 0.5897 0.66738 0.0
H430 H 0.28732 0.59646 0.65707 0.0
H431 H 0.31328 0.6046 0.67236 0.0
H432 H 0.29529 0.58147 0.68352 0.0
O433 O 0.29545 0.5969 0.58681 0.0
O434 O 0.30864 0.56492 0.56945 0.0
H435 H 0.32209 0.51136 0.61523 0.0
H436 H 0.33245 0.50532 0.64465 0.0
C437 C 0.33424 0.51695 0.62923 0.0
H438 H 0.35208 0.51565 0.62203 0.0
H439 H 0.32789 0.51585 0.56121 0.0
O440 O 0.30193 0.62983 0.63114 0.0
C441 C 0.29348 0.58099 0.57137 0.0
Co442 Co 0.88918 0.31068 0.61268 0.0
Co443 Co 0.93049 0.33743 0.58893 0.0
C444 C 0.88046 0.35364 0.58575 0.0
O445 O 0.87309 0.33746 0.59885 0.0
O446 O 0.90183 0.35512 0.58048 0.0
C447 C 0.85032 0.30526 0.64278 0.0
O448 O 0.85192 0.32799 0.64387 0.0
C449 C 0.95461 0.37975 0.57467 0.0
C450 C 0.98657 0.36655 0.55811 0.0
C451 C 0.97379 0.38669 0.56162 0.0
N452 N 0.95569 0.35664 0.57813 0.0
N453 N 0.97504 0.3489 0.56844 0.0
C454 C 0.93568 0.39486 0.5842 0.0
H455 H 0.92869 0.38732 0.60068 0.0
H456 H 0.94218 0.41267 0.58763 0.0
H457 H 0.92138 0.3959 0.57123 0.0
C458 C 0.92019 0.31185 0.65311 0.0
N459 N 0.91455 0.31942 0.63154 0.0
N460 N 0.93254 0.3298 0.6219 0.0
C461 C 0.95044 0.32881 0.63721 0.0
C462 C 0.94312 0.31758 0.65763 0.0
C463 C 0.90526 0.29561 0.66706 0.0
H464 H 0.89961 0.28103 0.65571 0.0
H465 H 0.88961 0.30505 0.67316 0.0
H466 H 0.91433 0.28828 0.6825 0.0
O467 O 0.90047 0.28959 0.58763 0.0
O468 O 0.92988 0.30799 0.57039 0.0
H469 H 0.98169 0.32439 0.61765 0.0
H470 H 0.98598 0.33562 0.64703 0.0
C471 C 0.97461 0.33614 0.63133 0.0
H472 H 0.97434 0.35397 0.62396 0.0
H473 H 0.97982 0.33143 0.56786 0.0
O474 O 0.8652 0.29396 0.63089 0.0
C475 C 0.91654 0.2904 0.57226 0.0
Co476 Co 0.18066 0.89228 0.60777 0.0
Co477 Co 0.15426 0.93467 0.58539 0.0
C478 C 0.13781 0.88478 0.58026 0.0
O479 O 0.15411 0.87682 0.59286 0.0
O480 O 0.13624 0.90641 0.57607 0.0
C481 C 0.18736 0.85074 0.63437 0.0
O482 O 0.16469 0.84932 0.63279 0.0
C483 C 0.11209 0.96083 0.57372 0.0
C484 C 0.12615 0.99049 0.5538 0.0
C485 C 0.10554 0.97956 0.55976 0.0
N486 N 0.1354 0.96061 0.5756 0.0
N487 N 0.14363 0.97873 0.56408 0.0
C488 C 0.0969 0.94149 0.58215 0.0
H489 H 0.09306 0.92966 0.56728 0.0
H490 H 0.10567 0.93161 0.59631 0.0
H491 H 0.08023 0.94823 0.58897 0.0
C492 C 0.17883 0.92151 0.64948 0.0
N493 N 0.17172 0.91695 0.6275 0.0
N494 N 0.16185 0.93554 0.61846 0.0
C495 C 0.16284 0.9528 0.63457 0.0
C496 C 0.17345 0.94438 0.6549 0.0
C497 C 0.19418 0.9055 0.66324 0.0
H498 H 0.20986 0.9014 0.65273 0.0
H499 H 0.18478 0.88906 0.66667 0.0
H500 H 0.1998 0.91304 0.68019 0.0
O501 O 0.20197 0.90453 0.58355 0.0
O502 O 0.18368 0.93424 0.56661 0.0
H503 H 0.16731 0.98447 0.61568 0.0
H504 H 0.15733 0.9883 0.64564 0.0
C505 C 0.15595 0.97734 0.62966 0.0
H506 H 0.13789 0.97771 0.62298 0.0
H507 H 0.16126 0.98212 0.56179 0.0
O508 O 0.19774 0.86802 0.62532 0.0
C509 C 0.20125 0.92087 0.5685 0.0
Co510 Co 0.60331 0.17577 0.6144 0.0
Co511 Co 0.56044 0.15308 0.58933 0.0
C512 C 0.60957 0.13355 0.58591 0.0
O513 O 0.61772 0.14854 0.59997 0.0
O514 O 0.5882 0.13378 0.58033 0.0
C515 C 0.64447 0.18028 0.64215 0.0
O516 O 0.64546 0.15761 0.63973 0.0
C517 C 0.5324 0.11264 0.5762 0.0
C518 C 0.50575 0.12844 0.55351 0.0
C519 C 0.51464 0.10716 0.56058 0.0
N520 N 0.53409 0.13594 0.57785 0.0
N521 N 0.5177 0.14524 0.56467 0.0
C522 C 0.54956 0.09624 0.58686 0.0
H523 H 0.55992 0.08784 0.57277 0.0
H524 H 0.56117 0.10546 0.59923 0.0
H525 H 0.54047 0.08245 0.59678 0.0
C526 C 0.57179 0.17588 0.65437 0.0
N527 N 0.57711 0.16842 0.63266 0.0
N528 N 0.55847 0.15993 0.62247 0.0
C529 C 0.54043 0.1622 0.6375 0.0
C530 C 0.54831 0.17225 0.65835 0.0
C531 C 0.58799 0.19027 0.66892 0.0
H532 H 0.60377 0.17997 0.67286 0.0
H533 H 0.58014 0.19619 0.68562 0.0
H534 H 0.5933 0.20579 0.65874 0.0
O535 O 0.59421 0.19761 0.58932 0.0
O536 O 0.56309 0.18304 0.57165 0.0
H537 H 0.51027 0.16978 0.61724 0.0
H538 H 0.50414 0.15878 0.64639 0.0
C539 C 0.51582 0.1573 0.63097 0.0
H540 H 0.51457 0.1396 0.62339 0.0
H541 H 0.51581 0.16305 0.56188 0.0
O542 O 0.62758 0.19138 0.63323 0.0
C543 C 0.57833 0.19898 0.57384 0.0
C544 C 0.67601 0.04066 0.20012 0.0
C545 C 0.68237 0.03395 0.17731 0.0
C546 C 0.69019 0.03521 0.21924 0.0
C547 C 0.73821 0.00122 0.24317 0.0
H548 H 0.75893 0.06004 0.26893 0.0
C549 C 0.79055 0.02046 0.3306 0.0
C550 C 0.80924 0.03582 0.32754 0.0
C551 C 0.77646 0.01438 0.31145 0.0
C552 C 0.75333 0.04348 0.26191 0.0
H553 H 0.70729 0.01451 0.15679 0.0
H554 H 0.73185 0.00428 0.1905 0.0
H555 H 0.72922 0.05956 0.23845 0.0
H556 H 0.82906 0.05527 0.30203 0.0
H557 H 0.80441 0.04488 0.26871 0.0
H558 H 0.7622 0.98523 0.2673 0.0
C559 C 0.71597 0.01389 0.19351 0.0
C560 C 0.73621 0.04319 0.24461 0.0
C561 C 0.70187 0.01961 0.17426 0.0
C562 C 0.81486 0.04326 0.30477 0.0
C563 C 0.80068 0.03746 0.28577 0.0
C564 C 0.75508 0.00149 0.26102 0.0
C565 C 0.71085 0.02266 0.21597 0.0
C566 C 0.7285 0.02212 0.23498 0.0
C567 C 0.78079 0.02379 0.28909 0.0
C568 C 0.76293 0.02269 0.27034 0.0
H569 H 0.66118 0.0519 0.20286 0.0
H570 H 0.68579 0.04209 0.23638 0.0
H571 H 0.73259 0.98476 0.23596 0.0
H572 H 0.78568 0.01477 0.34804 0.0
H573 H 0.76115 0.00392 0.31448 0.0
C574 C 0.4515 0.81238 0.30502 0.0
C575 C 0.4596 0.80797 0.3278 0.0
C576 C 0.45904 0.79888 0.28607 0.0
C577 C 0.48104 0.73966 0.2747 0.0
H578 H 0.47949 0.76097 0.21022 0.0
C579 C 0.45492 0.68065 0.19781 0.0
C580 C 0.46226 0.68584 0.17492 0.0
C581 C 0.46215 0.69424 0.2168 0.0
C582 C 0.48049 0.75462 0.22807 0.0
H583 H 0.48305 0.78705 0.34851 0.0
H584 H 0.49693 0.76382 0.31527 0.0
H585 H 0.47934 0.78914 0.242 0.0
H586 H 0.48416 0.70819 0.15403 0.0
H587 H 0.49757 0.73157 0.18731 0.0
H588 H 0.48212 0.70513 0.26077 0.0
C589 C 0.48437 0.77742 0.31203 0.0
C590 C 0.48005 0.77086 0.2464 0.0
C591 C 0.47674 0.79096 0.33104 0.0
C592 C 0.47852 0.70365 0.17158 0.0
C593 C 0.48583 0.71728 0.19063 0.0
C594 C 0.48163 0.72342 0.25638 0.0
C595 C 0.47494 0.7806 0.28942 0.0
C596 C 0.47954 0.76362 0.27 0.0
C597 C 0.47693 0.7134 0.21337 0.0
C598 C 0.48058 0.73061 0.23278 0.0
H599 H 0.43803 0.8252 0.30216 0.0
H600 H 0.4511 0.80181 0.26911 0.0
H601 H 0.48053 0.73327 0.29257 0.0
H602 H 0.44204 0.66727 0.20074 0.0
H603 H 0.45464 0.69073 0.23386 0.0
C604 C 0.67632 0.44982 0.30552 0.0
C605 C 0.68226 0.45769 0.32804 0.0
C606 C 0.69006 0.45555 0.28614 0.0
C607 C 0.73697 0.49131 0.26164 0.0
H608 H 0.75878 0.43286 0.23585 0.0
C609 C 0.79034 0.4746 0.17451 0.0
C610 C 0.8084 0.45836 0.17679 0.0
C611 C 0.77636 0.48023 0.19392 0.0
C612 C 0.75291 0.44933 0.24289 0.0
H613 H 0.70593 0.47929 0.34776 0.0
H614 H 0.72974 0.4899 0.3136 0.0
H615 H 0.72905 0.43282 0.26627 0.0
H616 H 0.82725 0.43676 0.20125 0.0
H617 H 0.80298 0.44654 0.23505 0.0
H618 H 0.76081 0.50772 0.23765 0.0
C619 C 0.71447 0.47927 0.31098 0.0
C620 C 0.73572 0.44933 0.26014 0.0
C621 C 0.70078 0.47335 0.33049 0.0
C622 C 0.8136 0.44953 0.19913 0.0
C623 C 0.79957 0.45494 0.21839 0.0
C624 C 0.75394 0.49134 0.24385 0.0
C625 C 0.70993 0.4694 0.28886 0.0
C626 C 0.72757 0.47025 0.26979 0.0
C627 C 0.78017 0.46949 0.21575 0.0
C628 C 0.76224 0.47028 0.23453 0.0
H629 H 0.66232 0.43748 0.30327 0.0
H630 H 0.68605 0.44784 0.26927 0.0
H631 H 0.73103 0.50768 0.26884 0.0
H632 H 0.78576 0.48133 0.15737 0.0
H633 H 0.76146 0.49141 0.19139 0.0
C634 C 0.04007 0.67767 0.30293 0.0
C635 C 0.03179 0.68237 0.3256 0.0
C636 C 0.03241 0.6907 0.28374 0.0
C637 C 0.01003 0.74964 0.27197 0.0
H638 H 0.01404 0.7285 0.20751 0.0
C639 C 0.03841 0.80928 0.19653 0.0
C640 C 0.03194 0.80424 0.17336 0.0
C641 C 0.03075 0.79539 0.2151 0.0
C642 C 0.01235 0.7348 0.22534 0.0
H643 H 0.00774 0.70309 0.34586 0.0
H644 H 0.99356 0.72542 0.31218 0.0
H645 H 0.01319 0.70026 0.23918 0.0
H646 H 0.01109 0.78181 0.15147 0.0
H647 H -0.00309 0.75787 0.18401 0.0
H648 H 0.00921 0.78419 0.25813 0.0
C649 C 0.0064 0.71201 0.30922 0.0
C650 C 0.0122 0.71851 0.24361 0.0
C651 C 0.01418 0.69896 0.32848 0.0
C652 C 0.01613 0.78619 0.16924 0.0
C653 C 0.00835 0.77226 0.18787 0.0
C654 C 0.00998 0.76592 0.25369 0.0
C655 C 0.01619 0.70878 0.28674 0.0
C656 C 0.01188 0.72571 0.26724 0.0
C657 C 0.01632 0.77609 0.21096 0.0
C658 C 0.01199 0.7588 0.23013 0.0
H659 H 0.05394 0.66522 0.30037 0.0
H660 H 0.04061 0.68773 0.2669 0.0
H661 H 0.0099 0.75601 0.28985 0.0
H662 H 0.05085 0.82293 0.20007 0.0
H663 H 0.03755 0.79886 0.23245 0.0
C664 C 0.31246 0.94975 0.80646 0.0
C665 C 0.30675 0.95879 0.82862 0.0
C666 C 0.29889 0.95501 0.78685 0.0
C667 C 0.25373 0.99108 0.76012 0.0
H668 H 0.22936 0.93231 0.73778 0.0
C669 C 0.20151 0.97234 0.67299 0.0
C670 C 0.18268 0.95706 0.67554 0.0
C671 C 0.21525 0.9782 0.69247 0.0
C672 C 0.23592 0.94888 0.74386 0.0
H673 H 0.28365 0.98189 0.84735 0.0
H674 H 0.26017 0.99171 0.81272 0.0
H675 H 0.25855 0.93269 0.76869 0.0
H676 H 0.16229 0.93748 0.70047 0.0
H677 H 0.18619 0.94763 0.7344 0.0
H678 H 0.23123 0.00713 0.73462 0.0
C679 C 0.27514 0.98052 0.8106 0.0
C680 C 0.25279 0.94909 0.76141 0.0
C681 C 0.28866 0.97506 0.83036 0.0
C682 C 0.17658 0.94946 0.69812 0.0
C683 C 0.19038 0.95509 0.71747 0.0
C684 C 0.23709 0.99085 0.74204 0.0
C685 C 0.27943 0.96956 0.78894 0.0
C686 C 0.26189 0.97013 0.76978 0.0
C687 C 0.21045 0.96865 0.71468 0.0
C688 C 0.22789 0.9697 0.73391 0.0
H689 H 0.3261 0.93691 0.80476 0.0
H690 H 0.30266 0.94643 0.77035 0.0
H691 H 0.26043 0.00753 0.76632 0.0
H692 H 0.20675 0.97813 0.65569 0.0
H693 H 0.23066 0.98861 0.68981 0.0
C694 C 0.54268 0.31371 0.80481 0.0
C695 C 0.53532 0.30901 0.8278 0.0
C696 C 0.53543 0.29976 0.7861 0.0
C697 C 0.5147 0.23956 0.77584 0.0
H698 H 0.51758 0.25961 0.71101 0.0
C699 C 0.54086 0.17776 0.7011 0.0
C700 C 0.53489 0.18293 0.67782 0.0
C701 C 0.53362 0.19216 0.7195 0.0
C702 C 0.5162 0.25357 0.72894 0.0
H703 H 0.51308 0.28734 0.84908 0.0
H704 H 0.49936 0.26358 0.81629 0.0
H705 H 0.51674 0.28835 0.74211 0.0
H706 H 0.51503 0.20597 0.65561 0.0
H707 H 0.5013 0.23055 0.68781 0.0
H708 H 0.51373 0.20479 0.76265 0.0
C709 C 0.5114 0.27754 0.81269 0.0
C710 C 0.51612 0.27018 0.74693 0.0
C711 C 0.5189 0.29142 0.83147 0.0
C712 C 0.51977 0.20154 0.67345 0.0
C713 C 0.51228 0.21585 0.69192 0.0
C714 C 0.51443 0.22296 0.75784 0.0
C715 C 0.52037 0.28085 0.78987 0.0
C716 C 0.51623 0.26344 0.77069 0.0
C717 C 0.51996 0.21199 0.71511 0.0
C718 C 0.51603 0.22965 0.73411 0.0
H719 H 0.55551 0.32706 0.80159 0.0
H720 H 0.54301 0.3029 0.76902 0.0
H721 H 0.51489 0.23347 0.7938 0.0
H722 H 0.55267 0.16361 0.70486 0.0
H723 H 0.54019 0.18853 0.7369 0.0
C724 C 0.2909 0.52178 0.67373 0.0
C725 C 0.30996 0.53667 0.67675 0.0
C726 C 0.27728 0.51524 0.6931 0.0
C727 C 0.25728 0.54252 0.74574 0.0
H728 H 0.23296 0.48316 0.76651 0.0
C729 C 0.17972 0.53877 0.807 0.0
C730 C 0.1862 0.53145 0.82956 0.0
C731 C 0.19355 0.53346 0.78756 0.0
C732 C 0.23963 0.4998 0.76078 0.0
H733 H 0.33092 0.55478 0.70231 0.0
H734 H 0.30717 0.54353 0.73603 0.0
H735 H 0.26193 0.48458 0.73453 0.0
H736 H 0.21099 0.51113 0.84929 0.0
H737 H 0.23495 0.50114 0.81497 0.0
H738 H 0.23472 0.55788 0.77126 0.0
C739 C 0.3027 0.53689 0.71882 0.0
C740 C 0.25612 0.50061 0.74256 0.0
C741 C 0.31639 0.54318 0.69958 0.0
C742 C 0.20541 0.51662 0.83201 0.0
C743 C 0.21919 0.51106 0.81243 0.0
C744 C 0.24054 0.54174 0.76343 0.0
C745 C 0.28246 0.5237 0.71566 0.0
C746 C 0.26522 0.52203 0.73503 0.0
C747 C 0.21398 0.52045 0.79026 0.0
C748 C 0.23154 0.52043 0.77117 0.0
H749 H 0.28543 0.51679 0.65626 0.0
H750 H 0.26171 0.50515 0.69016 0.0
H751 H 0.26377 0.55927 0.74014 0.0
H752 H 0.16519 0.5505 0.80474 0.0
H753 H 0.18918 0.5409 0.77067 0.0
C754 C 0.97511 0.20071 0.83088 0.0
C755 C 0.95846 0.18334 0.82718 0.0
C756 C 0.98287 0.21442 0.81208 0.0
C757 C 0.97864 0.22181 0.7464 0.0
H758 H 0.97864 0.28726 0.7622 0.0
C759 C 0.97344 0.29047 0.67314 0.0
C760 C 0.95698 0.30797 0.67728 0.0
C761 C 0.98142 0.27656 0.69168 0.0
C762 C 0.97869 0.26907 0.75739 0.0
H763 H 0.93812 0.16549 0.80097 0.0
H764 H 0.95134 0.18919 0.76832 0.0
H765 H 0.97825 0.25851 0.79335 0.0
H766 H 0.93717 0.32577 0.704 0.0
H767 H 0.95074 0.30166 0.73621 0.0
H768 H 0.97725 0.23238 0.71047 0.0
C769 C 0.95884 0.19229 0.78544 0.0
C770 C 0.97883 0.25246 0.77536 0.0
C771 C 0.95123 0.17858 0.80418 0.0
C772 C 0.95009 0.31255 0.70044 0.0
C773 C 0.95791 0.29863 0.71892 0.0
C774 C 0.97825 0.23842 0.72844 0.0
C775 C 0.974 0.2111 0.78925 0.0
C776 C 0.97808 0.22856 0.77016 0.0
C777 C 0.97298 0.2798 0.7147 0.0
C778 C 0.97753 0.26232 0.73366 0.0
H779 H 0.98075 0.20488 0.84852 0.0
H780 H 0.99493 0.22836 0.81567 0.0
H781 H 0.97854 0.20362 0.7416 0.0
H782 H 0.97884 0.28646 0.65537 0.0
H783 H 0.99338 0.26258 0.68776 0.0
C784 C 0.40973 0.98758 0.97922 0.0
C785 C 0.40873 0.9836 0.9549 0.0
C786 C 0.43106 0.9905 0.99054 0.0
C787 C 0.49275 0.00549 0.98002 0.0
H788 H 0.50238 0.97537 0.0401 0.0
C789 C 0.58285 0.00343 0.02459 0.0
C790 C 0.58373 0.00678 0.04901 0.0
C791 C 0.56162 0.00021 0.01316 0.0
C792 C 0.49994 0.98414 0.02348 0.0
H793 H 0.42923 0.98108 0.92315 0.0
H794 H 0.46659 0.98573 0.94291 0.0
H795 H 0.46533 0.97113 0.02001 0.0
H796 H 0.56312 0.00758 0.08079 0.0
H797 H 0.52597 0.00277 0.06086 0.0
H798 H 0.5273 0.01861 0.98353 0.0
C799 C 0.45088 0.98641 0.95332 0.0
C800 C 0.47864 0.9817 0.01193 0.0
C801 C 0.4295 0.9834 0.94201 0.0
C802 C 0.56296 0.00597 0.06187 0.0
C803 C 0.54167 0.00276 0.05044 0.0
C804 C 0.51403 0.00798 0.9916 0.0
C805 C 0.45197 0.98976 0.97779 0.0
C806 C 0.47474 0.99234 0.99004 0.0
C807 C 0.54067 9e-05 0.02586 0.0
C808 C 0.51795 -0.00266 0.01351 0.0
H809 H 0.39398 0.98799 0.98959 0.0
H810 H 0.43116 0.99347 0.00931 0.0
H811 H 0.49029 0.01422 0.96338 0.0
H812 H 0.5986 0.00377 0.01422 0.0
H813 H 0.56165 -0.00228 0.99431 0.0
C814 C 0.50502 0.40886 0.97975 0.0
C815 C 0.50842 0.40783 0.95535 0.0
C816 C 0.50161 0.43018 0.99106 0.0
C817 C 0.48477 0.49162 0.98044 0.0
H818 H 0.51491 0.50211 0.04034 0.0
C819 C 0.4865 0.58221 0.02442 0.0
C820 C 0.48278 0.58323 0.04878 0.0
C821 C 0.48978 0.56086 0.01313 0.0
C822 C 0.50615 0.49941 0.02376 0.0
H823 H 0.50918 0.42824 0.92345 0.0
H824 H 0.50394 0.46557 0.94316 0.0
H825 H 0.51983 0.46499 0.02035 0.0
H826 H 0.48114 0.56281 0.08062 0.0
H827 H 0.48634 0.52542 0.06092 0.0
H828 H 0.47115 0.52607 0.98384 0.0
C829 C 0.50406 0.4499 0.95367 0.0
C830 C 0.50896 0.47807 0.01227 0.0
C831 C 0.50749 0.42853 0.94237 0.0
C832 C 0.48321 0.5625 0.06174 0.0
C833 C 0.48656 0.54111 0.05046 0.0
C834 C 0.48199 0.51297 0.99192 0.0
C835 C 0.50132 0.45105 0.97823 0.0
C836 C 0.49829 0.47386 0.99045 0.0
C837 C 0.48965 0.53997 0.02594 0.0
C838 C 0.49264 0.51717 0.01374 0.0
H839 H 0.50546 0.39316 0.99022 0.0
H840 H 0.49908 0.43027 0.0099 0.0
H841 H 0.47599 0.48893 0.96387 0.0
H842 H 0.48646 0.59794 0.014 0.0
H843 H 0.49256 0.56075 0.99432 0.0
C844 C 0.06484 0.50632 0.94408 0.0
C845 C 0.08547 0.50763 0.95708 0.0
C846 C 0.04348 0.50318 0.95543 0.0
C847 C 0.01695 0.48319 0.01136 0.0
H848 H 0.96451 0.52018 0.99101 0.0
C849 C 0.93074 0.48571 0.06385 0.0
C850 C 0.91005 0.48572 0.05087 0.0
C851 C 0.95218 0.4886 0.05258 0.0
C852 C 0.97887 0.50949 0.99678 0.0
H853 H 0.10004 0.50565 0.99206 0.0
H854 H 0.06289 0.50012 0.01186 0.0
H855 H 0.00156 0.52379 0.97075 0.0
H856 H 0.89551 0.48941 0.01605 0.0
H857 H 0.93275 0.49421 0.99634 0.0
H858 H 0.99425 0.4688 0.03732 0.0
C859 C 0.0631 0.50157 0.9929 0.0
C860 C 0.00016 0.51156 0.98512 0.0
C861 C 0.08441 0.50478 0.98156 0.0
C862 C 0.91119 0.48934 0.02651 0.0
C863 C 0.93257 0.49216 0.01523 0.0
C864 C 0.99563 0.48106 0.02298 0.0
C865 C 0.0423 0.501 0.98003 0.0
C866 C 0.0195 0.49846 0.99225 0.0
C867 C 0.95341 0.49168 0.02807 0.0
C868 C 0.97627 0.49418 0.01587 0.0
H869 H 0.06519 0.50745 0.92513 0.0
H870 H 0.02789 0.50225 0.94489 0.0
H871 H 0.03137 0.47259 0.01715 0.0
H872 H 0.93036 0.48378 0.08274 0.0
H873 H 0.96778 0.48868 0.06314 0.0
C874 C 0.00038 0.07377 0.95655 0.0
C875 C 0.97759 0.08158 0.95282 0.0
C876 C 0.0046 0.05249 0.96773 0.0
C877 C 0.9763 0.99672 0.98422 0.0
H878 H 0.02628 0.99276 0.02948 0.0
C879 C 0.98855 0.91636 0.04443 0.0
C880 C 0.01138 0.90875 0.04832 0.0
C881 C 0.98423 0.93757 0.03314 0.0
C882 C 0.01239 0.99346 0.01672 0.0
H883 H 0.94139 0.07356 0.9593 0.0
H884 H 0.94866 0.03655 0.97828 0.0
H885 H 0.01956 0.02902 0.00852 0.0
H886 H 0.04754 0.91696 0.04192 0.0
H887 H 0.04012 0.95381 0.02273 0.0
H888 H 0.96914 0.96115 0.99242 0.0
C889 C 0.96333 0.04647 0.97193 0.0
C890 C 0.00856 0.01429 0.00464 0.0
C891 C 0.95913 0.06771 0.96079 0.0
C892 C 0.02977 0.92269 0.04032 0.0
C893 C 0.02548 0.94384 0.02907 0.0
C894 C 0.98014 0.97588 0.99629 0.0
C895 C 0.98611 0.03857 0.97564 0.0
C896 C 0.99047 0.01622 0.98822 0.0
C897 C 0.00267 0.95159 0.02526 0.0
C898 C -0.00175 0.97395 0.01271 0.0
H899 H 0.01499 0.08415 0.95083 0.0
H900 H 0.02238 0.04691 0.9701 0.0
H901 H 0.96241 -0.00257 0.97147 0.0
H902 H 0.974 0.9059 0.05015 0.0
H903 H 0.96642 0.94303 0.03069 0.0
C904 C 0.40729 0.50629 0.52322 0.0
C905 C 0.40622 0.5092 0.5477 0.0
C906 C 0.42852 0.50241 0.51195 0.0
C907 C 0.49169 0.5105 0.51987 0.0
H908 H 0.49656 0.46726 0.46792 0.0
C909 C 0.58017 0.4856 0.47885 0.0
C910 C 0.58127 0.48179 0.45452 0.0
C911 C 0.55883 0.48902 0.49007 0.0
C912 C 0.49548 0.47964 0.48218 0.0
H913 H 0.42643 0.50837 0.57971 0.0
H914 H 0.4636 0.50207 0.56006 0.0
H915 H 0.45949 0.47231 0.48792 0.0
H916 H 0.561 0.48008 0.42262 0.0
H917 H 0.52366 0.48605 0.44209 0.0
H918 H 0.52758 0.51801 0.51406 0.0
C919 C 0.44807 0.50347 0.54948 0.0
C920 C 0.47419 0.4825 0.49371 0.0
C921 C 0.42678 0.50727 0.56076 0.0
C922 C 0.56061 0.48216 0.4415 0.0
C923 C 0.53922 0.48566 0.4527 0.0
C924 C 0.51295 0.50771 0.5083 0.0
C925 C 0.44926 0.50122 0.52488 0.0
C926 C 0.47201 0.49794 0.51274 0.0
C927 C 0.538 0.48896 0.47719 0.0
C928 C 0.51519 0.49221 0.4893 0.0
H929 H 0.39172 0.50762 0.51267 0.0
H930 H 0.42875 0.50092 0.49299 0.0
H931 H 0.49058 0.52284 0.53418 0.0
H932 H 0.59582 0.48541 0.48934 0.0
H933 H 0.55865 0.49122 0.50894 0.0
C934 C 0.00121 0.41746 0.54724 0.0
C935 C 0.97837 0.40955 0.55034 0.0
C936 C 0.00565 0.4384 0.53551 0.0
C937 C 0.97715 0.49325 0.51618 0.0
H938 H 0.02925 0.4971 0.47331 0.0
C939 C 0.9901 0.57201 0.45427 0.0
C940 C 0.01282 0.58038 0.45149 0.0
C941 C 0.98591 0.55093 0.46582 0.0
C942 C 0.01474 0.49642 0.48538 0.0
H943 H 0.94239 0.41687 0.54207 0.0
H944 H 0.95001 0.45327 0.52207 0.0
H945 H 0.02228 0.46125 0.49496 0.0
H946 H 0.04886 0.57354 0.45998 0.0
H947 H 0.04166 0.53683 0.47959 0.0
H948 H 0.96959 0.52839 0.50659 0.0
C949 C 0.96452 0.44377 0.52937 0.0
C950 C 0.01077 0.47584 0.49786 0.0
C951 C 0.96011 0.42288 0.54108 0.0
C952 C 0.03124 0.56723 0.46074 0.0
C953 C 0.02707 0.54617 0.47224 0.0
C954 C 0.98111 0.51381 0.50369 0.0
C955 C 0.98734 0.45184 0.52638 0.0
C956 C 0.9919 0.47394 0.51342 0.0
C957 C 0.00435 0.53776 0.47506 0.0
C958 C -5e-05 0.51569 0.4881 0.0
H959 H 0.01568 0.40746 0.55395 0.0
H960 H 0.02344 0.44413 0.53371 0.0
H961 H 0.96266 0.4926 0.52826 0.0
H962 H 0.97551 0.58182 0.44755 0.0
H963 H 0.9682 0.54493 0.46745 0.0
C964 C 0.92753 0.00661 0.44283 0.0
C965 C 0.90689 0.00776 0.45589 0.0
C966 C 0.94891 0.00334 0.45408 0.0
C967 C 0.97727 0.00913 0.51247 0.0
H968 H 0.02515 0.97098 0.48423 0.0
C969 C 0.06209 0.98447 0.56163 0.0
C970 C 0.0827 0.98387 0.54848 0.0
C971 C 0.04062 0.98756 0.55049 0.0
C972 C 0.01209 0.98192 0.49226 0.0
H973 H 0.89238 0.00536 0.49088 0.0
H974 H 0.9295 -0.00074 0.51047 0.0
H975 H 0.98796 0.97544 0.46446 0.0
H976 H 0.09705 0.98695 0.51348 0.0
H977 H 0.05976 0.99263 0.49409 0.0
H978 H 0.00141 0.01557 0.5403 0.0
C979 C 0.92934 0.00148 0.49159 0.0
C980 C 0.9907 0.98449 0.48089 0.0
C981 C 0.90801 0.00474 0.48034 0.0
C982 C 0.08144 0.98716 0.52407 0.0
C983 C 0.06002 0.99019 0.51293 0.0
C984 C -0.00135 0.00654 0.52386 0.0
C985 C 0.95015 0.00098 0.47867 0.0
C986 C 0.97298 -0.00186 0.49081 0.0
C987 C 0.03927 0.99022 0.52594 0.0
C988 C 0.01638 0.99292 0.5139 0.0
H989 H 0.92719 0.008 0.4239 0.0
H990 H 0.96451 0.00305 0.44349 0.0
H991 H 0.96423 0.0201 0.5205 0.0
H992 H 0.06253 0.98279 0.58054 0.0
H993 H 0.02504 0.9875 0.56111 0.0
C994 C 0.48893 0.91057 0.47849 0.0
C995 C 0.48536 0.90967 0.45411 0.0
C996 C 0.49201 0.93186 0.48993 0.0
C997 C 0.50814 0.99342 0.4798 0.0
H998 H 0.47753 0.00341 0.53961 0.0
C999 C 0.50666 0.08361 0.52452 0.0
C1000 C 0.50982 0.0845 0.54898 0.0
C1001 C 0.50332 0.06239 0.51303 0.0
C1002 C 0.48644 0.00086 0.52307 0.0
H1003 H 0.48377 0.93031 0.42239 0.0
H1004 H 0.48863 0.96759 0.44236 0.0
H1005 H 0.47295 0.96641 0.51934 0.0
H1006 H 0.51017 0.06376 0.58069 0.0
H1007 H 0.50515 0.02666 0.56068 0.0
H1008 H 0.52171 0.02781 0.48355 0.0
C1009 C 0.48888 0.95183 0.45272 0.0
C1010 C 0.4838 0.97959 0.51141 0.0
C1011 C 0.48572 0.93049 0.44129 0.0
C1012 C 0.50874 0.06368 0.56178 0.0
C1013 C 0.5054 0.0424 0.55029 0.0
C1014 C 0.51081 0.01467 0.49148 0.0
C1015 C 0.49183 0.95283 0.47725 0.0
C1016 C 0.49462 0.97556 0.48962 0.0
C1017 C 0.5029 0.04142 0.5257 0.0
C1018 C 0.5 0.01871 0.51328 0.0
H1019 H 0.48891 0.89478 0.48882 0.0
H1020 H 0.49467 0.93187 0.50875 0.0
H1021 H 0.51702 0.99085 0.46325 0.0
H1022 H 0.50723 0.09935 0.51413 0.0
H1023 H 0.50098 0.06245 0.49417 0.0
C1024 C 0.56746 0.27254 0.97245 0.0
C1025 C 0.57135 0.27002 0.94826 0.0
C1026 C 0.5688 0.25322 0.98736 0.0
C1027 C 0.5941 0.19353 0.98794 0.0
H1028 H 0.56334 0.18964 0.04835 0.0
C1029 C 0.6145 0.14516 0.07871 0.0
C1030 C 0.61811 0.12231 0.07073 0.0
C1031 C 0.60335 0.16149 0.06446 0.0
C1032 C 0.57192 0.19049 0.03145 0.0
H1033 H 0.57781 0.24533 0.92037 0.0
H1034 H 0.57857 0.21153 0.94589 0.0
H1035 H 0.55355 0.22125 0.02143 0.0
H1036 H 0.61143 0.09832 0.04214 0.0
H1037 H 0.59237 0.127 0.01713 0.0
H1038 H 0.61227 0.1627 0.99792 0.0
C1039 C 0.57576 0.22841 0.95377 0.0
C1040 C 0.56648 0.20869 0.01606 0.0
C1041 C 0.57507 0.24775 0.93904 0.0
C1042 C 0.60898 0.11577 0.04882 0.0
C1043 C 0.59816 0.13219 0.03444 0.0
C1044 C 0.59915 0.17518 0.00308 0.0
C1045 C 0.57352 0.23091 0.97827 0.0
C1046 C 0.57775 0.21066 0.99417 0.0
C1047 C 0.59587 0.15537 0.04184 0.0
C1048 C 0.58837 0.17361 0.0251 0.0
H1049 H 0.56469 0.28959 0.97998 0.0
H1050 H 0.56718 0.25603 0.00607 0.0
H1051 H 0.60372 0.19461 0.97166 0.0
H1052 H 0.62121 0.15073 0.09554 0.0
H1053 H 0.60189 0.17925 0.07056 0.0
C1054 C 0.2312 0.59814 0.95736 0.0
C1055 C 0.21807 0.57766 0.95538 0.0
C1056 C 0.24833 0.60027 0.97442 0.0
C1057 C 0.28959 0.56966 0.01067 0.0
H1058 H 0.288 0.62651 0.04716 0.0
C1059 C 0.3695 0.61169 0.05587 0.0
C1060 C 0.36572 0.6248 0.07635 0.0
C1061 C 0.35091 0.60078 0.0445 0.0
C1062 C 0.2886 0.61033 0.03748 0.0
H1063 H 0.21312 0.54309 0.96961 0.0
H1064 H 0.24375 0.54678 0.99949 0.0
H1065 H 0.25618 0.61749 0.0208 0.0
H1066 H 0.33995 0.63477 0.10223 0.0
H1067 H 0.30779 0.61545 0.08274 0.0
H1068 H 0.32253 0.56294 0.02693 0.0
C1069 C 0.24041 0.56117 0.98773 0.0
C1070 C 0.27042 0.60528 0.02222 0.0
C1071 C 0.22286 0.55912 0.97074 0.0
C1072 C 0.34339 0.62514 0.08626 0.0
C1073 C 0.32492 0.61413 0.07504 0.0
C1074 C 0.30801 0.57483 0.02589 0.0
C1075 C 0.25305 0.58193 0.98988 0.0
C1076 C 0.27093 0.58518 0.00829 0.0
C1077 C 0.32824 0.60268 0.05349 0.0
C1078 C 0.30787 0.59544 0.0392 0.0
H1079 H 0.22806 0.61282 0.94592 0.0
H1080 H 0.25799 0.61636 0.97549 0.0
H1081 H 0.29042 0.55409 1.00003 0.0
H1082 H 0.3865 0.6111 0.04779 0.0
H1083 H 0.35407 0.59217 0.02789 0.0
C1084 C 0.92149 0.24571 0.93966 0.0
C1085 C 0.92159 0.22303 0.94858 0.0
C1086 C 0.92074 0.26475 0.95481 0.0
C1087 C 0.92229 0.28224 0.01849 0.0
H1088 H 0.8832 0.33212 0.99556 0.0
C1089 C 0.88158 0.37687 0.04879 0.0
C1090 C 0.8692 0.37024 0.06898 0.0
C1091 C 0.89316 0.36022 0.03525 0.0
C1092 C 0.89447 0.31853 1.00212 0.0
H1093 H 0.92183 0.20228 0.9802 0.0
H1094 H 0.91919 0.23543 0.00684 0.0
H1095 H 0.89341 0.30046 0.96956 0.0
H1096 H 0.8608 0.34124 0.09176 0.0
H1097 H 0.88137 0.31231 0.06828 0.0
H1098 H 0.92177 0.30001 0.05168 0.0
C1099 C 0.92051 0.23875 0.98819 0.0
C1100 C 0.90048 0.30032 0.98715 0.0
C1101 C 0.92194 0.21967 0.97295 0.0
C1102 C 0.87005 0.3469 0.07622 0.0
C1103 C 0.88194 0.33033 0.06286 0.0
C1104 C 0.91586 0.30034 0.03364 0.0
C1105 C 0.91922 0.26158 0.97929 0.0
C1106 C 0.91436 0.28177 0.99509 0.0
C1107 C 0.89294 0.33671 0.04184 0.0
C1108 C 0.90176 0.31858 0.0256 0.0
H1109 H 0.92146 0.24871 0.92088 0.0
H1110 H 0.92065 0.28197 0.9472 0.0
H1111 H 0.93328 0.26855 0.02524 0.0
H1112 H 0.88128 0.39469 0.04272 0.0
H1113 H 0.90166 0.36561 0.01918 0.0
C1114 C 0.24789 0.91997 0.94879 0.0
C1115 C 0.27072 0.92556 0.95527 0.0
C1116 C 0.23015 0.91978 0.96547 0.0
C1117 C 0.22103 0.90572 0.02594 0.0
H1118 H 0.15922 0.93044 0.01629 0.0
C1119 C 0.1466 0.8768 0.08604 0.0
C1120 C 0.12538 0.87206 0.07497 0.0
C1121 C 0.16385 0.88943 0.07443 0.0
C1122 C 0.17631 0.92323 0.01922 0.0
H1123 H 0.29279 0.93605 0.98413 0.0
H1124 H 0.2617 0.93492 0.01367 0.0
H1125 H 0.19058 0.94159 0.98978 0.0
H1126 H 0.10513 0.87784 0.04349 0.0
H1127 H 0.13539 0.89886 0.02283 0.0
H1128 H 0.2068 0.88598 0.05411 0.0
C1129 C 0.2576 0.93106 0.99553 0.0
C1130 C 0.1943 0.92982 0.00413 0.0
C1131 C 0.27532 0.93179 0.97866 0.0
C1132 C 0.12128 0.88128 0.05254 0.0
C1133 C 0.1387 0.89349 0.04072 0.0
C1134 C 0.20299 0.89878 0.04075 0.0
C1135 C 0.23493 0.9247 0.98911 0.0
C1136 C 0.21673 0.92077 0.00708 0.0
C1137 C 0.16051 0.89717 0.05123 0.0
C1138 C 0.18021 0.90702 0.03732 0.0
H1139 H 0.24384 0.91518 0.93086 0.0
H1140 H 0.2129 0.91461 0.96008 0.0
H1141 H 0.23809 0.89823 0.02842 0.0
H1142 H 0.15017 0.87015 0.10346 0.0
H1143 H 0.18006 0.89248 0.08347 0.0
C1144 C 0.6261 0.34121 0.42402 0.0
C1145 C 0.62427 0.36431 0.43182 0.0
C1146 C 0.61574 0.32321 0.43659 0.0
C1147 C 0.57507 0.30767 0.48446 0.0
H1148 H 0.62127 0.26048 0.49777 0.0
C1149 C 0.56172 0.2221 0.54004 0.0
C1150 C 0.57878 0.21902 0.55745 0.0
C1151 C 0.56364 0.24022 0.52366 0.0
C1152 C 0.60813 0.27344 0.4941 0.0
H1153 H 0.60847 0.38678 0.45788 0.0
H1154 H 0.59045 0.35515 0.48003 0.0
H1155 H 0.63005 0.29113 0.46981 0.0
H1156 H 0.61072 0.23323 0.57171 0.0
H1157 H 0.6141 0.26422 0.54312 0.0
H1158 H 0.55336 0.28984 0.50936 0.0
C1159 C 0.59988 0.35106 0.4641 0.0
C1160 C 0.61307 0.29091 0.47795 0.0
C1161 C 0.61025 0.36918 0.45144 0.0
C1162 C 0.59731 0.23487 0.55852 0.0
C1163 C 0.59932 0.25266 0.54211 0.0
C1164 C 0.56999 0.28989 0.5005 0.0
C1165 C 0.60334 0.32783 0.45731 0.0
C1166 C 0.59676 0.3084 0.47313 0.0
C1167 C 0.58279 0.25529 0.52428 0.0
C1168 C 0.5867 0.2729 0.50575 0.0
H1169 H 0.63646 0.33685 0.40877 0.0
H1170 H 0.61831 0.30552 0.43066 0.0
H1171 H 0.56217 0.32092 0.48104 0.0
H1172 H 0.54718 0.21028 0.53878 0.0
H1173 H 0.55068 0.24193 0.51002 0.0
C1174 C 0.15114 0.63164 0.42195 0.0
C1175 C 0.12805 0.62884 0.42937 0.0
C1176 C 0.16932 0.62165 0.43456 0.0
C1177 C 0.18532 0.58011 0.48159 0.0
H1178 H 0.23194 0.62652 0.49584 0.0
C1179 C 0.26992 0.56518 0.53752 0.0
C1180 C 0.27363 0.58225 0.55481 0.0
C1181 C 0.25193 0.56769 0.52111 0.0
C1182 C 0.21912 0.61333 0.49196 0.0
H1183 H 0.1059 0.61188 0.45492 0.0
H1184 H 0.1378 0.5945 0.47708 0.0
H1185 H 0.20125 0.63558 0.4681 0.0
H1186 H 0.26071 0.61494 0.5688 0.0
H1187 H 0.22988 0.61928 0.54023 0.0
H1188 H 0.20329 0.55808 0.50607 0.0
C1189 C 0.14175 0.60438 0.46141 0.0
C1190 C 0.20164 0.61843 0.47589 0.0
C1191 C 0.12347 0.61438 0.44873 0.0
C1192 C 0.25858 0.60148 0.55569 0.0
C1193 C 0.24089 0.60406 0.53926 0.0
C1194 C 0.20309 0.57489 0.49757 0.0
C1195 C 0.1649 0.60866 0.45494 0.0
C1196 C 0.18435 0.60203 0.4707 0.0
C1197 C 0.2376 0.58744 0.52158 0.0
C1198 C 0.21989 0.59166 0.5032 0.0
H1199 H 0.1553 0.64238 0.40692 0.0
H1200 H 0.18695 0.62487 0.42886 0.0
H1201 H 0.17227 0.56711 0.47787 0.0
H1202 H 0.28113 0.55012 0.5364 0.0
H1203 H 0.24973 0.55463 0.50761 0.0
C1204 C 0.87911 0.11928 0.4579 0.0
C1205 C 0.87252 0.12338 0.43456 0.0
C1206 C 0.8904 0.13657 0.47083 0.0
C1207 C 0.89729 0.20081 0.47037 0.0
H1208 H 0.93387 0.18851 0.52606 0.0
C1209 C 0.92739 0.27392 0.53293 0.0
C1210 C 0.91902 0.27062 0.55587 0.0
C1211 C 0.92711 0.25559 0.51676 0.0
C1212 C 0.92383 0.19217 0.51043 0.0
H1213 H 0.87443 0.14781 0.40574 0.0
H1214 H 0.89534 0.17736 0.4277 0.0
H1215 H 0.92467 0.15673 0.49924 0.0
H1216 H 0.9051 0.2453 0.58026 0.0
H1217 H 0.90518 0.21325 0.55221 0.0
H1218 H 0.8966 0.23628 0.48167 0.0
C1219 C 0.89083 0.16136 0.43655 0.0
C1220 C 0.91836 0.17396 0.49513 0.0
C1221 C 0.87905 0.14432 0.42383 0.0
C1222 C 0.91152 0.24839 0.56266 0.0
C1223 C 0.91172 0.23001 0.54668 0.0
C1224 C 0.90316 0.21904 0.48541 0.0
C1225 C 0.89579 0.15817 0.46054 0.0
C1226 C 0.90445 0.17789 0.47519 0.0
C1227 C 0.91899 0.23355 0.52344 0.0
C1228 C 0.91596 0.2148 0.50588 0.0
H1229 H 0.87419 0.10334 0.46666 0.0
H1230 H 0.89364 0.13338 0.48926 0.0
H1231 H 0.88617 0.20466 0.45559 0.0
H1232 H 0.93321 0.29087 0.52721 0.0
H1233 H 0.9328 0.25872 0.49891 0.0
C1234 C 0.34639 0.87133 0.42604 0.0
C1235 C 0.36954 0.87015 0.43371 0.0
C1236 C 0.32969 0.88315 0.43928 0.0
C1237 C 0.31675 0.89461 0.49995 0.0
H1238 H 0.26819 0.93516 0.47686 0.0
C1239 C 0.24379 0.92239 0.56188 0.0
C1240 C 0.2213 0.92354 0.55266 0.0
C1241 C 0.26299 0.92127 0.54699 0.0
C1242 C 0.28146 0.92367 0.48359 0.0
H1243 H 0.39354 0.88158 0.46064 0.0
H1244 H 0.36422 0.90182 0.48397 0.0
H1245 H 0.2998 0.92348 0.45071 0.0
H1246 H 0.20107 0.92518 0.52077 0.0
H1247 H 0.23445 0.92188 0.49454 0.0
H1248 H 0.29809 0.89324 0.53215 0.0
C1249 C 0.35909 0.89365 0.46765 0.0
C1250 C 0.29965 0.91714 0.46862 0.0
C1251 C 0.37587 0.88215 0.45423 0.0
C1252 C 0.21832 0.9245 0.52826 0.0
C1253 C 0.23753 0.92268 0.51326 0.0
C1254 C 0.29843 0.90072 0.51473 0.0
C1255 C 0.33574 0.89375 0.46061 0.0
C1256 C 0.31741 0.90247 0.47667 0.0
C1257 C 0.26014 0.9204 0.52244 0.0
C1258 C 0.28039 0.91526 0.50681 0.0
H1259 H 0.34097 0.86237 0.41024 0.0
H1260 H 0.3118 0.88286 0.43351 0.0
H1261 H 0.32996 0.8829 0.5065 0.0
H1262 H 0.2465 0.92185 0.5807 0.0
H1263 H 0.28005 0.92042 0.55485 0.0
C1264 C 0.4277 0.71613 0.0267 0.0
C1265 C 0.42322 0.72094 0.05046 0.0
C1266 C 0.42618 0.73384 0.00988 0.0
C1267 C 0.42594 0.79713 1.00103 0.0
H1268 H 0.37841 0.78565 0.95446 0.0
C1269 C 0.37791 0.87166 0.95401 0.0
C1270 C 0.36728 0.86751 0.93225 0.0
C1271 C 0.38973 0.85383 0.96566 0.0
C1272 C 0.3922 0.78916 0.96683 0.0
H1273 H 0.41515 0.74815 0.07548 0.0
H1274 H 0.41325 0.77908 0.04628 0.0
H1275 H 0.39136 0.75418 0.97959 0.0
H1276 H 0.36231 0.84206 0.90471 0.0
H1277 H 0.384 0.81141 0.92425 0.0
H1278 H 0.42695 0.83207 0.98838 0.0
C1279 C 0.41764 0.76167 0.04059 0.0
C1280 C 0.39954 0.77102 0.98133 0.0
C1281 C 0.41861 0.74395 0.05727 0.0
C1282 C 0.37008 0.84568 0.92163 0.0
C1283 C 0.38235 0.82802 0.933 0.0
C1284 C 0.41895 0.81521 0.98621 0.0
C1285 C 0.42077 0.75671 0.01667 0.0
C1286 C 0.41602 0.77497 0.99897 0.0
C1287 C 0.39163 0.83153 0.95558 0.0
C1288 C 0.40147 0.81168 0.96931 0.0
H1289 H 0.43116 0.69853 0.02099 0.0
H1290 H 0.42866 0.7296 0.99152 0.0
H1291 H 0.4388 0.80057 0.01444 0.0
H1292 H 0.37594 0.88829 0.9627 0.0
H1293 H 0.39631 0.85732 0.98309 0.0
C1294 C 0.74871 0.42792 0.06152 0.0
C1295 C 0.77128 0.42784 0.05241 0.0
C1296 C 0.72959 0.42686 0.04656 0.0
C1297 C 0.71161 0.42681 0.98308 0.0
H1298 H 0.66284 0.38713 0.00727 0.0
C1299 C 0.61793 0.38327 0.95441 0.0
C1300 C 0.62471 0.37103 0.93416 0.0
C1301 C 0.63433 0.39539 0.9677 0.0
C1302 C 0.67609 0.39857 1.00035 0.0
H1303 H 0.79181 0.42744 0.02064 0.0
H1304 H 0.75851 0.42433 0.99432 0.0
H1305 H 0.69439 0.39854 0.03277 0.0
H1306 H 0.65368 0.36341 0.91105 0.0
H1307 H 0.68216 0.38484 0.93412 0.0
H1308 H 0.69364 0.42531 0.95008 0.0
C1309 C 0.75534 0.42603 0.01297 0.0
C1310 C 0.69424 0.40527 0.01503 0.0
C1311 C 0.77449 0.42775 0.02801 0.0
C1312 C 0.64791 0.37251 0.92665 0.0
C1313 C 0.66422 0.38491 0.93977 0.0
C1314 C 0.69356 0.41973 0.96824 0.0
C1315 C 0.73261 0.42483 0.0221 0.0
C1316 C 0.71241 0.41936 0.00662 0.0
C1317 C 0.65774 0.39584 0.96081 0.0
C1318 C 0.67573 0.40539 0.97672 0.0
H1319 H 0.74586 0.42813 0.08033 0.0
H1320 H 0.71245 0.42683 0.05431 0.0
H1321 H 0.72501 0.43793 0.97598 0.0
H1322 H 0.6002 0.38252 0.96066 0.0
H1323 H 0.62885 0.40383 0.98377 0.0
C1324 C 0.09788 0.76022 0.04607 0.0
C1325 C 0.07732 0.77294 0.0494 0.0
C1326 C 0.09909 0.7427 0.02926 0.0
C1327 C 0.06691 0.69962 0.99701 0.0
H1328 H 0.11947 0.70227 0.95458 0.0
C1329 C 0.10845 0.6204 0.94976 0.0
C1330 C 0.1191 0.62427 0.92789 0.0
C1331 C 0.09743 0.63868 0.96162 0.0
C1332 C 0.10445 0.70137 0.96597 0.0
H1333 H 0.04168 0.77682 0.03792 0.0
H1334 H 0.04376 0.74549 0.00856 0.0
H1335 H 0.11207 0.73444 0.9812 0.0
H1336 H 0.12421 0.64955 0.90015 0.0
H1337 H 0.10473 0.68114 0.92059 0.0
H1338 H 0.05988 0.66599 0.98227 0.0
C1339 C 0.05892 0.74946 0.01901 0.0
C1340 C 0.10035 0.71974 0.98135 0.0
C1341 C 0.05779 0.7674 0.03569 0.0
C1342 C 0.11653 0.64609 0.91716 0.0
C1343 C 0.10544 0.66424 0.92891 0.0
C1344 C 0.07118 0.68099 0.98171 0.0
C1345 C 0.07971 0.73718 0.0155 0.0
C1346 C 0.08185 0.71889 0.99732 0.0
C1347 C 0.09678 0.66106 0.95174 0.0
C1348 C 0.09022 0.68155 0.96624 0.0
H1349 H 0.11328 0.76401 0.05625 0.0
H1350 H 0.11527 0.73336 0.02705 0.0
H1351 H 0.05258 0.69854 0.00927 0.0
H1352 H 0.1101 0.60377 0.95848 0.0
H1353 H 0.09095 0.63566 0.97921 0.0
C1354 C 0.72128 0.05881 0.0364 0.0
C1355 C 0.71854 0.07525 0.05451 0.0
C1356 C 0.7392 0.06124 0.01985 0.0
C1357 C 0.77184 0.10678 0.99152 0.0
H1358 H 0.81987 0.06195 0.97655 0.0
C1359 C 0.83929 0.12811 0.92193 0.0
C1360 C 0.8624 0.1261 0.92951 0.0
C1361 C 0.82141 0.11724 0.93423 0.0
C1362 C 0.80646 0.07454 0.9805 0.0
H1363 H 0.7333 0.10646 0.06995 0.0
H1364 H 0.7639 0.1107 0.04111 0.0
H1365 H 0.78909 0.05171 0.00471 0.0
H1366 H 0.88499 0.10959 0.95497 0.0
H1367 H 0.85358 0.09069 0.97662 0.0
H1368 H 0.78909 0.12983 0.96799 0.0
C1369 C 0.7522 0.09606 0.03964 0.0
C1370 C 0.78884 0.06863 0.99644 0.0
C1371 C 0.73461 0.09356 0.05618 0.0
C1372 C 0.86738 0.11154 0.94869 0.0
C1373 C 0.8494 0.10064 0.96105 0.0
C1374 C 0.78914 0.11255 0.97548 0.0
C1375 C 0.75441 0.08025 0.02106 0.0
C1376 C 0.77167 0.08493 0.0024 0.0
C1377 C 0.82616 0.10412 0.95445 0.0
C1378 C 0.80685 0.09666 0.97 0.0
H1379 H 0.70928 0.04446 0.03466 0.0
H1380 H 0.7406 0.04883 0.00562 0.0
H1381 H 0.75874 0.11961 0.99578 0.0
H1382 H 0.83484 0.13889 0.90702 0.0
H1383 H 0.80372 0.11988 0.92845 0.0
C1384 C 0.43353 0.77558 0.47475 0.0
C1385 C 0.42556 0.77189 0.45174 0.0
C1386 C 0.43312 0.75746 0.49117 0.0
C1387 C 0.4298 0.69399 0.49817 0.0
H1388 H 0.39107 0.70709 0.55218 0.0
C1389 C 0.38308 0.62179 0.5498 0.0
C1390 C 0.37606 0.62593 0.57303 0.0
C1391 C 0.39486 0.63894 0.53712 0.0
C1392 C 0.40248 0.70307 0.53764 0.0
H1393 H 0.41231 0.74611 0.42747 0.0
H1394 H 0.41222 0.71444 0.4559 0.0
H1395 H 0.40226 0.73847 0.52611 0.0
H1396 H 0.37769 0.65035 0.60192 0.0
H1397 H 0.39935 0.67968 0.58037 0.0
H1398 H 0.4301 0.65861 0.50955 0.0
C1399 C 0.41853 0.73132 0.46133 0.0
C1400 C 0.40879 0.72117 0.52261 0.0
C1401 C 0.41844 0.74949 0.44512 0.0
C1402 C 0.38264 0.64679 0.58391 0.0
C1403 C 0.39486 0.66372 0.57143 0.0
C1404 C 0.42385 0.67591 0.51345 0.0
C1405 C 0.42531 0.73525 0.48466 0.0
C1406 C 0.42198 0.71671 0.5024 0.0
C1407 C 0.4003 0.66046 0.54754 0.0
C1408 C 0.40952 0.68006 0.53306 0.0
H1409 H 0.43902 0.79269 0.48034 0.0
H1410 H 0.43844 0.7609 0.50907 0.0
H1411 H 0.44013 0.69014 0.48276 0.0
H1412 H 0.37816 0.60592 0.5409 0.0
H1413 H 0.39845 0.63571 0.51876 0.0
C1414 C 0.71451 0.42918 0.47678 0.0
C1415 C 0.71946 0.42361 0.45328 0.0
C1416 C 0.73202 0.42821 0.4938 0.0
C1417 C 0.79508 0.42737 0.5034 0.0
H1418 H 0.78221 0.38161 0.5515 0.0
C1419 C 0.868 0.37939 0.55269 0.0
C1420 C 0.86346 0.36951 0.57474 0.0
C1421 C 0.85055 0.39124 0.54054 0.0
C1422 C 0.78611 0.39492 0.5387 0.0
H1423 H 0.74676 0.41425 0.42886 0.0
H1424 H 0.77738 0.41327 0.4584 0.0
H1425 H 0.75134 0.39422 0.52554 0.0
H1426 H 0.83775 0.36593 0.60225 0.0
H1427 H 0.80776 0.38769 0.58177 0.0
H1428 H 0.82981 0.42823 0.51646 0.0
C1429 C 0.75999 0.4181 0.46373 0.0
C1430 C 0.76831 0.40207 0.52372 0.0
C1431 C 0.74245 0.41853 0.44687 0.0
C1432 C 0.84165 0.3731 0.58511 0.0
C1433 C 0.82437 0.38541 0.57322 0.0
C1434 C 0.81282 0.42058 0.5187 0.0
C1435 C 0.75484 0.42226 0.48745 0.0
C1436 C 0.77276 0.41787 0.50554 0.0
C1437 C 0.82827 0.39393 0.55038 0.0
C1438 C 0.80877 0.40372 0.53615 0.0
H1439 H 0.69692 0.43304 0.48221 0.0
H1440 H 0.72764 0.43149 0.512 0.0
H1441 H 0.7989 0.4397 0.48957 0.0
H1442 H 0.88462 0.37682 0.54419 0.0
H1443 H 0.85431 0.39721 0.52293 0.0
C1444 C 0.0659 0.71877 0.47369 0.0
C1445 C 0.06477 0.72245 0.44939 0.0
C1446 C 0.06745 0.7377 0.48909 0.0
C1447 C 0.08608 0.79951 0.48752 0.0
H1448 H 0.06881 0.79821 0.55328 0.0
C1449 C 0.12105 0.84488 0.57567 0.0
C1450 C 0.12183 0.86827 0.56859 0.0
C1451 C 0.10858 0.82853 0.56266 0.0
C1452 C 0.07361 0.79882 0.5349 0.0
H1453 H 0.06234 0.74843 0.4221 0.0
H1454 H 0.06334 0.78139 0.44883 0.0
H1455 H 0.056 0.76699 0.52722 0.0
H1456 H 0.10903 0.89302 0.54297 0.0
H1457 H 0.08754 0.86434 0.52007 0.0
H1458 H 0.10367 0.83127 0.49521 0.0
C1459 C 0.06427 0.76408 0.45617 0.0
C1460 C 0.06642 0.78087 0.51997 0.0
C1461 C 0.06338 0.74521 0.44082 0.0
C1462 C 0.10884 0.87515 0.5489 0.0
C1463 C 0.09661 0.85873 0.53572 0.0
C1464 C 0.0929 0.81755 0.50231 0.0
C1465 C 0.06743 0.76066 0.48043 0.0
C1466 C 0.07289 0.78076 0.49611 0.0
C1467 C 0.09684 0.83516 0.54214 0.0
C1468 C 0.0871 0.81724 0.52623 0.0
H1469 H 0.06724 0.70131 0.48065 0.0
H1470 H 0.07002 0.73423 0.50757 0.0
H1471 H 0.09204 0.79991 0.4695 0.0
H1472 H 0.13075 0.83902 0.59084 0.0
H1473 H 0.10918 0.81047 0.56796 0.0
C1474 C 0.61841 0.10304 0.55551 0.0
C1475 C 0.6259 0.11754 0.57386 0.0
C1476 C 0.63455 0.09104 0.54165 0.0
C1477 C 0.69777 0.07618 0.53652 0.0
H1478 H 0.68597 0.08287 0.46991 0.0
C1479 C 0.75247 0.09016 0.44633 0.0
C1480 C 0.77038 0.07374 0.44877 0.0
C1481 C 0.7334 0.08997 0.46139 0.0
C1482 C 0.68956 0.08083 0.48845 0.0
H1483 H 0.65617 0.1294 0.59306 0.0
H1484 H 0.68405 0.10908 0.56881 0.0
H1485 H 0.65544 0.09185 0.49786 0.0
H1486 H 0.7819 0.04386 0.46879 0.0
H1487 H 0.74833 0.04346 0.49514 0.0
H1488 H 0.73243 0.06666 0.52704 0.0
C1489 C 0.6658 0.10664 0.56513 0.0
C1490 C 0.67189 0.08567 0.50453 0.0
C1491 C 0.64973 0.11851 0.579 0.0
C1492 C 0.76846 0.0568 0.46645 0.0
C1493 C 0.74927 0.05663 0.48161 0.0
C1494 C 0.71551 0.07148 0.52041 0.0
C1495 C 0.65851 0.09332 0.54581 0.0
C1496 C 0.67597 0.08413 0.52882 0.0
C1497 C 0.73157 0.07333 0.47933 0.0
C1498 C 0.71184 0.07452 0.49621 0.0
H1499 H 0.60018 0.10172 0.55117 0.0
H1500 H 0.62827 0.08058 0.5272 0.0
H1501 H 0.70141 0.07436 0.55507 0.0
H1502 H 0.75328 0.1035 0.43297 0.0
H1503 H 0.7204 0.1034 0.45936 0.0
C1504 C 0.79715 0.31835 0.15993 0.0
C1505 C 0.78793 0.33454 0.14398 0.0
C1506 C 0.78535 0.29764 0.16464 0.0
C1507 C 0.75112 0.25646 0.13417 0.0
H1508 H 0.72993 0.23158 0.19375 0.0
C1509 C 0.72032 0.163 0.1417 0.0
C1510 C 0.69695 0.16114 0.14851 0.0
C1511 C 0.73253 0.18351 0.14552 0.0
C1512 C 0.73589 0.23838 0.17708 0.0
H1513 H 0.75856 0.34228 0.12144 0.0
H1514 H 0.73842 0.30592 0.12925 0.0
H1515 H 0.74843 0.27016 0.19236 0.0
H1516 H 0.6687 0.17865 0.16644 0.0
H1517 H 0.69034 0.2146 0.17333 0.0
H1518 H 0.739 0.22488 0.11881 0.0
C1519 C 0.75465 0.30937 0.13817 0.0
C1520 C 0.74644 0.26028 0.1763 0.0
C1521 C 0.7662 0.33015 0.13374 0.0
C1522 C 0.68662 0.17962 0.16083 0.0
C1523 C 0.69899 0.20012 0.16489 0.0
C1524 C 0.74108 0.23452 0.13501 0.0
C1525 C 0.76437 0.29277 0.15322 0.0
C1526 C 0.75385 0.26952 0.15476 0.0
C1527 C 0.72176 0.20247 0.1565 0.0
C1528 C 0.73326 0.22534 0.15641 0.0
H1529 H 0.81379 0.32133 0.16819 0.0
H1530 H 0.79316 0.28495 0.17623 0.0
H1531 H 0.75686 0.26325 0.1174 0.0
H1532 H 0.7289 0.14903 0.13236 0.0
H1533 H 0.75016 0.18492 0.13906 0.0
C1534 C 0.16387 0.7677 0.14096 0.0
C1535 C 0.15958 0.79009 0.14981 0.0
C1536 C 0.18491 0.75666 0.14539 0.0
C1537 C 0.23693 0.75341 0.18102 0.0
H1538 H 0.26806 0.74148 0.12178 0.0
C1539 C 0.32002 0.69698 0.16442 0.0
C1540 C 0.33664 0.70722 0.14961 0.0
C1541 C 0.29912 0.70841 0.16915 0.0
C1542 C 0.2596 0.7448 0.13844 0.0
H1543 H 0.17316 0.81758 0.17194 0.0
H1544 H 0.21005 0.79795 0.17987 0.0
H1545 H 0.22876 0.75708 0.1218 0.0
H1546 H 0.34514 0.73819 0.12964 0.0
H1547 H 0.30852 0.75778 0.13755 0.0
H1548 H 0.26791 0.74053 0.19756 0.0
C1549 C 0.19707 0.78918 0.16937 0.0
C1550 C 0.23711 0.75352 0.13845 0.0
C1551 C 0.17605 0.80041 0.16472 0.0
C1552 C 0.33263 0.72971 0.14094 0.0
C1553 C 0.3117 0.74096 0.14545 0.0
C1554 C 0.25943 0.74418 0.18101 0.0
C1555 C 0.20194 0.76762 0.15901 0.0
C1556 C 0.22559 0.75791 0.15969 0.0
C1557 C 0.29451 0.7301 0.15896 0.0
C1558 C 0.27094 0.74001 0.15967 0.0
H1559 H 0.15149 0.75915 0.12959 0.0
H1560 H 0.1883 0.73993 0.13737 0.0
H1561 H 0.2283 0.75674 0.19758 0.0
H1562 H 0.32269 0.67974 0.1715 0.0
H1563 H 0.28602 0.69971 0.17957 0.0
C1564 C 0.72815 0.33438 0.35462 0.0
C1565 C 0.70409 0.33247 0.3579 0.0
C1566 C 0.74125 0.31501 0.34805 0.0
C1567 C 0.73668 0.25329 0.32789 0.0
H1568 H 0.79305 0.24625 0.36424 0.0
C1569 C 0.77642 0.16546 0.35473 0.0
C1570 C 0.80069 0.16343 0.35561 0.0
C1571 C 0.76607 0.18652 0.34859 0.0
C1572 C 0.77761 0.24809 0.35358 0.0
H1573 H 0.67471 0.3091 0.35577 0.0
H1574 H 0.69753 0.27523 0.34513 0.0
H1575 H 0.77228 0.28289 0.3652 0.0
H1576 H 0.83313 0.18148 0.34933 0.0
H1577 H 0.81497 0.21832 0.33881 0.0
H1578 H 0.74153 0.21784 0.31743 0.0
C1579 C 0.70635 0.2917 0.34709 0.0
C1580 C 0.76568 0.26917 0.35407 0.0
C1581 C 0.69324 0.31113 0.35338 0.0
C1582 C 0.81438 0.18251 0.34896 0.0
C1583 C 0.80401 0.20363 0.343 0.0
C1584 C 0.74853 0.2321 0.32761 0.0
C1585 C 0.7306 0.29326 0.34491 0.0
C1586 C 0.74479 0.2719 0.34166 0.0
C1587 C 0.77977 0.20601 0.34335 0.0
C1588 C 0.76885 0.22917 0.34084 0.0
H1589 H 0.73696 0.35071 0.35767 0.0
H1590 H 0.75981 0.31698 0.34601 0.0
H1591 H 0.72089 0.25491 0.31776 0.0
H1592 H 0.7654 0.15102 0.3596 0.0
H1593 H 0.74734 0.18788 0.34917 0.0
C1594 C 0.31808 0.80163 0.34242 0.0
C1595 C 0.33397 0.79119 0.35789 0.0
C1596 C 0.29668 0.7911 0.33788 0.0
C1597 C 0.25454 0.7577 0.36862 0.0
H1598 H 0.22626 0.74214 0.30886 0.0
C1599 C 0.15943 0.73208 0.36334 0.0
C1600 C 0.1561 0.70949 0.35462 0.0
C1601 C 0.18033 0.74363 0.35952 0.0
C1602 C 0.23401 0.74655 0.32559 0.0
H1603 H 0.34048 0.76086 0.37956 0.0
H1604 H 0.303 0.74289 0.372 0.0
H1605 H 0.26587 0.75817 0.30985 0.0
H1606 H 0.17127 0.68212 0.33338 0.0
H1607 H 0.20783 0.70258 0.32652 0.0
H1608 H 0.2229 0.74643 0.38446 0.0
C1609 C 0.30716 0.75914 0.36339 0.0
C1610 C 0.25651 0.75569 0.32615 0.0
C1611 C 0.3286 0.76945 0.36767 0.0
C1612 C 0.1734 0.69944 0.34047 0.0
C1613 C 0.19426 0.71116 0.33643 0.0
C1614 C 0.23202 0.74906 0.36804 0.0
C1615 C 0.29083 0.77017 0.34897 0.0
C1616 C 0.26698 0.76104 0.34773 0.0
C1617 C 0.19817 0.73297 0.34667 0.0
C1618 C 0.2216 0.74328 0.34657 0.0
H1619 H 0.32179 0.81832 0.33451 0.0
H1620 H 0.28426 0.79991 0.32674 0.0
H1621 H 0.26224 0.76189 0.38544 0.0
H1622 H 0.1464 0.74041 0.37416 0.0
H1623 H 0.18293 0.76055 0.36743 0.0
C1624 C 0.29451 0.81884 0.8439 0.0
C1625 C 0.28449 0.83555 0.85879 0.0
C1626 C 0.2827 0.79824 0.83883 0.0
C1627 C 0.24444 0.75931 0.8684 0.0
H1628 H 0.23501 0.72834 0.80863 0.0
C1629 C 0.22306 0.66325 0.86384 0.0
C1630 C 0.2008 0.65888 0.85483 0.0
C1631 C 0.23381 0.68454 0.85988 0.0
C1632 C 0.2376 0.73691 0.82536 0.0
H1633 H 0.25357 0.84455 0.87862 0.0
H1634 H 0.23328 0.80846 0.87008 0.0
H1635 H 0.25149 0.76784 0.80957 0.0
H1636 H 0.17325 0.67262 0.83292 0.0
H1637 H 0.19242 0.70993 0.82576 0.0
H1638 H 0.23125 0.72841 0.8843 0.0
C1639 C 0.25024 0.81131 0.8624 0.0
C1640 C 0.24699 0.75933 0.8259 0.0
C1641 C 0.26189 0.83194 0.86727 0.0
C1642 C 0.19033 0.67555 0.84023 0.0
C1643 C 0.20128 0.69682 0.83603 0.0
C1644 C 0.23555 0.73688 0.86788 0.0
C1645 C 0.26083 0.79402 0.84874 0.0
C1646 C 0.25036 0.77069 0.84747 0.0
C1647 C 0.22271 0.70171 0.84656 0.0
C1648 C 0.23211 0.72548 0.84641 0.0
H1649 H 0.31184 0.82121 0.83696 0.0
H1650 H 0.29122 0.78506 0.82831 0.0
H1651 H 0.24714 0.76762 0.88525 0.0
H1652 H 0.23171 0.65074 0.87499 0.0
H1653 H 0.25042 0.68798 0.86805 0.0
C1654 C 0.81341 0.18786 0.84313 0.0
C1655 C 0.83201 0.20108 0.85179 0.0
C1656 C 0.79257 0.19859 0.83698 0.0
C1657 C 0.76421 0.25508 0.82517 0.0
H1658 H 0.71243 0.22777 0.85864 0.0
C1659 C 0.68383 0.30734 0.85298 0.0
C1660 C 0.66254 0.29588 0.85589 0.0
C1661 C 0.70356 0.29501 0.84611 0.0
C1662 C 0.72644 0.23541 0.84863 0.0
H1663 H 0.84395 0.23605 0.85912 0.0
H1664 H 0.80754 0.25475 0.84839 0.0
H1665 H 0.74921 0.20742 0.85726 0.0
H1666 H 0.64474 0.26296 0.8521 0.0
H1667 H 0.679 0.24155 0.83938 0.0
H1668 H 0.7415 0.28334 0.81694 0.0
C1669 C 0.80907 0.23611 0.84636 0.0
C1670 C 0.7476 0.22372 0.8479 0.0
C1671 C 0.82988 0.22537 0.85267 0.0
C1672 C 0.66102 0.27217 0.85035 0.0
C1673 C 0.68068 0.2599 0.84316 0.0
C1674 C 0.74292 0.26671 0.82569 0.0
C1675 C 0.78998 0.22274 0.83918 0.0
C1676 C 0.76686 0.23369 0.83669 0.0
C1677 C 0.70236 0.271 0.84171 0.0
C1678 C 0.72394 0.2573 0.83799 0.0
H1679 H 0.81455 0.16912 0.84209 0.0
H1680 H 0.77819 0.18791 0.83124 0.0
H1681 H 0.77874 0.26304 0.8162 0.0
H1682 H 0.68554 0.32561 0.85713 0.0
H1683 H 0.71995 0.30413 0.84546 0.0
C1684 C 0.27769 0.66702 0.65242 0.0
C1685 C 0.30202 0.6657 0.65192 0.0
C1686 C 0.26662 0.68778 0.65834 0.0
C1687 C 0.27674 0.74965 0.65328 0.0
H1688 H 0.21816 0.7549 0.68632 0.0
C1689 C 0.22464 0.83426 0.64942 0.0
C1690 C 0.20089 0.83153 0.64472 0.0
C1691 C 0.23799 0.81536 0.65674 0.0
C1692 C 0.23449 0.75371 0.67699 0.0
H1693 H 0.3338 0.68466 0.65881 0.0
H1694 H 0.31439 0.72097 0.66904 0.0
H1695 H 0.23999 0.71855 0.68803 0.0
H1696 H 0.17226 0.80715 0.64511 0.0
H1697 H 0.19559 0.77407 0.65714 0.0
H1698 H 0.27084 0.78416 0.64113 0.0
C1699 C 0.30393 0.70597 0.66465 0.0
C1700 C 0.247 0.73293 0.67806 0.0
C1701 C 0.31502 0.68515 0.65887 0.0
C1702 C 0.19053 0.80981 0.64858 0.0
C1703 C 0.20392 0.79085 0.65566 0.0
C1704 C 0.26418 0.77031 0.65206 0.0
C1705 C 0.27964 0.70766 0.66377 0.0
C1706 C 0.268 0.73054 0.66577 0.0
C1707 C 0.22792 0.79326 0.65928 0.0
C1708 C 0.24262 0.77243 0.66343 0.0
H1709 H 0.26718 0.65228 0.64733 0.0
H1710 H 0.24788 0.68858 0.65734 0.0
H1711 H 0.29269 0.74823 0.64332 0.0
H1712 H 0.23305 0.85089 0.64692 0.0
H1713 H 0.25632 0.81795 0.65985 0.0
C1714 C 0.82871 0.26884 0.65249 0.0
C1715 C 0.83011 0.2932 0.65306 0.0
C1716 C 0.80836 0.25758 0.65929 0.0
C1717 C 0.74643 0.26809 0.65912 0.0
H1718 H 0.74312 0.20838 0.69034 0.0
C1719 C 0.6617 0.21666 0.65852 0.0
C1720 C 0.66405 0.19309 0.65266 0.0
C1721 C 0.68099 0.22958 0.66548 0.0
C1722 C 0.74375 0.22503 0.68154 0.0
H1723 H 0.81181 0.32475 0.66266 0.0
H1724 H 0.77621 0.30502 0.67439 0.0
H1725 H 0.77961 0.22995 0.69016 0.0
H1726 H 0.68814 0.16422 0.65074 0.0
H1727 H 0.72187 0.18684 0.66206 0.0
H1728 H 0.71118 0.26282 0.64927 0.0
C1729 C 0.79082 0.2947 0.66851 0.0
C1730 C 0.76462 0.23739 0.68152 0.0
C1731 C 0.81123 0.30597 0.66185 0.0
C1732 C 0.68578 0.18237 0.65513 0.0
C1733 C 0.70513 0.19536 0.6618 0.0
C1734 C 0.72568 0.25569 0.65895 0.0
C1735 C 0.78897 0.27044 0.66669 0.0
C1736 C 0.76627 0.25881 0.66986 0.0
C1737 C 0.7031 0.21928 0.66641 0.0
C1738 C 0.7242 0.23375 0.66968 0.0
H1739 H 0.84303 0.2585 0.64596 0.0
H1740 H 0.80739 0.23887 0.65752 0.0
H1741 H 0.74725 0.28439 0.64967 0.0
H1742 H 0.64506 0.2253 0.65712 0.0
H1743 H 0.67868 0.24783 0.66944 0.0
loop_
_geom_bond_atom_site_label_1
_geom_bond_atom_site_label_2
_geom_bond_distance
_geom_bond_site_symmetry_2
_ccdc_geom_bond_type
Co0 O3 1.970 . S
Co0 N17 1.989 . S
Co0 O25 1.967 . S
Co0 O32 1.920 . S
Co1 O4 1.966 . S
Co1 N10 2.022 . S
Co1 N18 1.993 . S
Co1 O26 1.941 . S
C2 O3 1.258 . S
C2 O4 1.263 . S
O3 Co0 1.970 . S
O3 C2 1.258 . S
O4 Co1 1.966 . S
O4 C2 1.263 . S
C5 O6 1.235 . S
C5 O32 1.289 . S
O6 C5 1.235 . S
C7 C9 1.400 . S
C7 N10 1.351 . S
C7 C12 1.501 . S
C8 C9 1.387 . S
C8 N11 1.341 . S
C9 C7 1.400 . S
C9 C8 1.387 . S
N10 Co1 2.022 . S
N10 C7 1.351 . S
N10 N11 1.365 . S
N11 C8 1.341 . S
N11 N10 1.365 . S
N11 H31 0.862 . S
C12 C7 1.501 . S
C12 H13 0.961 . S
C12 H14 0.961 . S
C12 H15 0.960 . S
H13 C12 0.961 . S
H14 C12 0.961 . S
H15 C12 0.960 . S
C16 N17 1.342 . S
C16 C20 1.401 . S
C16 C21 1.499 . S
N17 Co0 1.989 . S
N17 C16 1.342 . S
N17 N18 1.388 . S
N18 Co1 1.993 . S
N18 N17 1.388 . S
N18 C19 1.346 . S
C19 N18 1.346 . S
C19 C20 1.396 . S
C19 C29 1.510 . S
C20 C16 1.401 . S
C20 C19 1.396 . S
C21 C16 1.499 . S
C21 H22 0.959 . S
C21 H23 0.960 . S
C21 H24 0.961 . S
H22 C21 0.959 . S
H23 C21 0.960 . S
H24 C21 0.961 . S
O25 Co0 1.967 . S
O25 C33 1.258 . S
O26 Co1 1.941 . S
O26 C33 1.266 . S
H27 C29 0.959 . S
H28 C29 0.961 . S
C29 C19 1.510 . S
C29 H27 0.959 . S
C29 H28 0.961 . S
C29 H30 0.960 . S
H30 C29 0.960 . S
H31 N11 0.862 . S
O32 Co0 1.920 . S
O32 C5 1.289 . S
C33 O25 1.258 . S
C33 O26 1.266 . S
Co34 O37 1.970 . S
Co34 N51 1.989 . S
Co34 O59 1.967 . S
Co34 O66 1.920 . S
Co35 O38 1.966 . S
Co35 N44 2.022 . S
Co35 N52 1.993 . S
Co35 O60 1.941 . S
C36 O37 1.258 . S
C36 O38 1.263 . S
O37 Co34 1.970 . S
O37 C36 1.258 . S
O38 Co35 1.966 . S
O38 C36 1.263 . S
C39 O40 1.235 . S
C39 O66 1.289 . S
O40 C39 1.235 . S
C41 C43 1.400 . S
C41 N44 1.351 . S
C41 C46 1.501 . S
C42 C43 1.387 . S
C42 N45 1.341 . S
C43 C41 1.400 . S
C43 C42 1.387 . S
N44 Co35 2.022 . S
N44 C41 1.351 . S
N44 N45 1.365 . S
N45 C42 1.341 . S
N45 N44 1.365 . S
N45 H65 0.862 . S
C46 C41 1.501 . S
C46 H47 0.961 . S
C46 H48 0.961 . S
C46 H49 0.960 . S
H47 C46 0.961 . S
H48 C46 0.961 . S
H49 C46 0.960 . S
C50 N51 1.342 . S
C50 C54 1.401 . S
C50 C55 1.499 . S
N51 Co34 1.989 . S
N51 C50 1.342 . S
N51 N52 1.388 . S
N52 Co35 1.993 . S
N52 N51 1.388 . S
N52 C53 1.346 . S
C53 N52 1.346 . S
C53 C54 1.396 . S
C53 C63 1.510 . S
C54 C50 1.401 . S
C54 C53 1.396 . S
C55 C50 1.499 . S
C55 H56 0.959 . S
C55 H57 0.960 . S
C55 H58 0.961 . S
H56 C55 0.959 . S
H57 C55 0.960 . S
H58 C55 0.961 . S
O59 Co34 1.967 . S
O59 C67 1.258 . S
O60 Co35 1.941 . S
O60 C67 1.266 . S
H61 C63 0.959 . S
H62 C63 0.961 . S
C63 C53 1.510 . S
C63 H61 0.959 . S
C63 H62 0.961 . S
C63 H64 0.960 . S
H64 C63 0.960 . S
H65 N45 0.862 . S
O66 Co34 1.920 . S
O66 C39 1.289 . S
C67 O59 1.258 . S
C67 O60 1.266 . S
Co68 O71 1.970 . S
Co68 N85 1.989 . S
Co68 O93 1.967 . S
Co68 O100 1.920 . S
Co69 O72 1.966 . S
Co69 N78 2.022 . S
Co69 N86 1.993 . S
Co69 O94 1.941 . S
C70 O71 1.258 . S
C70 O72 1.263 . S
O71 Co68 1.970 . S
O71 C70 1.258 . S
O72 Co69 1.966 . S
O72 C70 1.263 . S
C73 O74 1.235 . S
C73 O100 1.289 . S
O74 C73 1.235 . S
C75 C77 1.400 . S
C75 N78 1.351 . S
C75 C80 1.501 . S
C76 C77 1.387 . S
C76 N79 1.341 . S
C77 C75 1.400 . S
C77 C76 1.387 . S
N78 Co69 2.022 . S
N78 C75 1.351 . S
N78 N79 1.365 . S
N79 C76 1.341 . S
N79 N78 1.365 . S
N79 H99 0.862 . S
C80 C75 1.501 . S
C80 H81 0.961 . S
C80 H82 0.961 . S
C80 H83 0.960 . S
H81 C80 0.961 . S
H82 C80 0.961 . S
H83 C80 0.960 . S
C84 N85 1.342 . S
C84 C88 1.401 . S
C84 C89 1.499 . S
N85 Co68 1.989 . S
N85 C84 1.342 . S
N85 N86 1.388 . S
N86 Co69 1.993 . S
N86 N85 1.388 . S
N86 C87 1.346 . S
C87 N86 1.346 . S
C87 C88 1.396 . S
C87 C97 1.510 . S
C88 C84 1.401 . S
C88 C87 1.396 . S
C89 C84 1.499 . S
C89 H90 0.959 . S
C89 H91 0.960 . S
C89 H92 0.961 . S
H90 C89 0.959 . S
H91 C89 0.960 . S
H92 C89 0.961 . S
O93 Co68 1.967 . S
O93 C101 1.258 . S
O94 Co69 1.941 . S
O94 C101 1.266 . S
H95 C97 0.959 . S
H96 C97 0.961 . S
C97 C87 1.510 . S
C97 H95 0.959 . S
C97 H96 0.961 . S
C97 H98 0.960 . S
H98 C97 0.960 . S
H99 N79 0.862 . S
O100 Co68 1.920 . S
O100 C73 1.289 . S
C101 O93 1.258 . S
C101 O94 1.266 . S
Co102 O105 1.970 . S
Co102 N119 1.989 . S
Co102 O127 1.967 . S
Co102 O134 1.920 . S
Co103 O106 1.966 . S
Co103 N112 2.022 . S
Co103 N120 1.993 . S
Co103 O128 1.941 . S
C104 O105 1.258 . S
C104 O106 1.263 . S
O105 Co102 1.970 . S
O105 C104 1.258 . S
O106 Co103 1.966 . S
O106 C104 1.263 . S
C107 O108 1.235 . S
C107 O134 1.289 . S
O108 C107 1.235 . S
C109 C111 1.400 . S
C109 N112 1.351 . S
C109 C114 1.501 . S
C110 C111 1.387 . S
C110 N113 1.341 . S
C111 C109 1.400 . S
C111 C110 1.387 . S
N112 Co103 2.022 . S
N112 C109 1.351 . S
N112 N113 1.365 . S
N113 C110 1.341 . S
N113 N112 1.365 . S
N113 H133 0.862 . S
C114 C109 1.501 . S
C114 H115 0.961 . S
C114 H116 0.961 . S
C114 H117 0.960 . S
H115 C114 0.961 . S
H116 C114 0.961 . S
H117 C114 0.960 . S
C118 N119 1.342 . S
C118 C122 1.401 . S
C118 C123 1.499 . S
N119 Co102 1.989 . S
N119 C118 1.342 . S
N119 N120 1.388 . S
N120 Co103 1.993 . S
N120 N119 1.388 . S
N120 C121 1.346 . S
C121 N120 1.346 . S
C121 C122 1.396 . S
C121 C131 1.510 . S
C122 C118 1.401 . S
C122 C121 1.396 . S
C123 C118 1.499 . S
C123 H124 0.959 . S
C123 H125 0.960 . S
C123 H126 0.961 . S
H124 C123 0.959 . S
H125 C123 0.960 . S
H126 C123 0.961 . S
O127 Co102 1.967 . S
O127 C135 1.258 . S
O128 Co103 1.941 . S
O128 C135 1.266 . S
H129 C131 0.959 . S
H130 C131 0.961 . S
C131 C121 1.510 . S
C131 H129 0.959 . S
C131 H130 0.961 . S
C131 H132 0.960 . S
H132 C131 0.960 . S
H133 N113 0.862 . S
O134 Co102 1.920 . S
O134 C107 1.289 . S
C135 O127 1.258 . S
C135 O128 1.266 . S
Co136 O139 1.970 . S
Co136 N153 1.989 . S
Co136 O161 1.967 . S
Co136 O168 1.920 . S
Co137 O140 1.966 . S
Co137 N146 2.022 . S
Co137 N154 1.993 . S
Co137 O162 1.941 . S
C138 O139 1.258 . S
C138 O140 1.263 . S
O139 Co136 1.970 . S
O139 C138 1.258 . S
O140 Co137 1.966 . S
O140 C138 1.263 . S
C141 O142 1.235 . S
C141 O168 1.289 . S
O142 C141 1.235 . S
C143 C145 1.400 . S
C143 N146 1.351 . S
C143 C148 1.501 . S
C144 C145 1.387 . S
C144 N147 1.341 . S
C145 C143 1.400 . S
C145 C144 1.387 . S
N146 Co137 2.022 . S
N146 C143 1.351 . S
N146 N147 1.365 . S
N147 C144 1.341 . S
N147 N146 1.365 . S
N147 H167 0.862 . S
C148 C143 1.501 . S
C148 H149 0.961 . S
C148 H150 0.961 . S
C148 H151 0.960 . S
H149 C148 0.961 . S
H150 C148 0.961 . S
H151 C148 0.960 . S
C152 N153 1.342 . S
C152 C156 1.401 . S
C152 C157 1.499 . S
N153 Co136 1.989 . S
N153 C152 1.342 . S
N153 N154 1.388 . S
N154 Co137 1.993 . S
N154 N153 1.388 . S
N154 C155 1.346 . S
C155 N154 1.346 . S
C155 C156 1.396 . S
C155 C165 1.510 . S
C156 C152 1.401 . S
C156 C155 1.396 . S
C157 C152 1.499 . S
C157 H158 0.959 . S
C157 H159 0.960 . S
C157 H160 0.961 . S
H158 C157 0.959 . S
H159 C157 0.960 . S
H160 C157 0.961 . S
O161 Co136 1.967 . S
O161 C169 1.258 . S
O162 Co137 1.941 . S
O162 C169 1.266 . S
H163 C165 0.959 . S
H164 C165 0.961 . S
C165 C155 1.510 . S
C165 H163 0.959 . S
C165 H164 0.961 . S
C165 H166 0.960 . S
H166 C165 0.960 . S
H167 N147 0.862 . S
O168 Co136 1.920 . S
O168 C141 1.289 . S
C169 O161 1.258 . S
C169 O162 1.266 . S
Co170 O173 1.970 . S
Co170 N187 1.989 . S
Co170 O195 1.967 . S
Co170 O202 1.920 . S
Co171 O174 1.966 . S
Co171 N180 2.022 . S
Co171 N188 1.993 . S
Co171 O196 1.941 . S
C172 O173 1.258 . S
C172 O174 1.263 . S
O173 Co170 1.970 . S
O173 C172 1.258 . S
O174 Co171 1.966 . S
O174 C172 1.263 . S
C175 O176 1.235 . S
C175 O202 1.289 . S
O176 C175 1.235 . S
C177 C179 1.400 . S
C177 N180 1.351 . S
C177 C182 1.501 . S
C178 C179 1.387 . S
C178 N181 1.341 . S
C179 C177 1.400 . S
C179 C178 1.387 . S
N180 Co171 2.022 . S
N180 C177 1.351 . S
N180 N181 1.365 . S
N181 C178 1.341 . S
N181 N180 1.365 . S
N181 H201 0.862 . S
C182 C177 1.501 . S
C182 H183 0.961 . S
C182 H184 0.961 . S
C182 H185 0.960 . S
H183 C182 0.961 . S
H184 C182 0.961 . S
H185 C182 0.960 . S
C186 N187 1.342 . S
C186 C190 1.401 . S
C186 C191 1.499 . S
N187 Co170 1.989 . S
N187 C186 1.342 . S
N187 N188 1.388 . S
N188 Co171 1.993 . S
N188 N187 1.388 . S
N188 C189 1.346 . S
C189 N188 1.346 . S
C189 C190 1.396 . S
C189 C199 1.510 . S
C190 C186 1.401 . S
C190 C189 1.396 . S
C191 C186 1.499 . S
C191 H192 0.959 . S
C191 H193 0.960 . S
C191 H194 0.961 . S
H192 C191 0.959 . S
H193 C191 0.960 . S
H194 C191 0.961 . S
O195 Co170 1.967 . S
O195 C203 1.258 . S
O196 Co171 1.941 . S
O196 C203 1.266 . S
H197 C199 0.959 . S
H198 C199 0.961 . S
C199 C189 1.510 . S
C199 H197 0.959 . S
C199 H198 0.961 . S
C199 H200 0.960 . S
H200 C199 0.960 . S
H201 N181 0.862 . S
O202 Co170 1.920 . S
O202 C175 1.289 . S
C203 O195 1.258 . S
C203 O196 1.266 . S
Co204 O207 1.970 . S
Co204 N221 1.989 . S
Co204 O229 1.967 . S
Co204 O236 1.920 . S
Co205 O208 1.966 . S
Co205 N214 2.022 . S
Co205 N222 1.993 . S
Co205 O230 1.941 . S
C206 O207 1.258 . S
C206 O208 1.263 . S
O207 Co204 1.970 . S
O207 C206 1.258 . S
O208 Co205 1.966 . S
O208 C206 1.263 . S
C209 O210 1.235 . S
C209 O236 1.289 . S
O210 C209 1.235 . S
C211 C213 1.400 . S
C211 N214 1.351 . S
C211 C216 1.501 . S
C212 C213 1.387 . S
C212 N215 1.341 . S
C213 C211 1.400 . S
C213 C212 1.387 . S
N214 Co205 2.022 . S
N214 C211 1.351 . S
N214 N215 1.365 . S
N215 C212 1.341 . S
N215 N214 1.365 . S
N215 H235 0.862 . S
C216 C211 1.501 . S
C216 H217 0.961 . S
C216 H218 0.961 . S
C216 H219 0.960 . S
H217 C216 0.961 . S
H218 C216 0.961 . S
H219 C216 0.960 . S
C220 N221 1.342 . S
C220 C224 1.401 . S
C220 C225 1.499 . S
N221 Co204 1.989 . S
N221 C220 1.342 . S
N221 N222 1.388 . S
N222 Co205 1.993 . S
N222 N221 1.388 . S
N222 C223 1.346 . S
C223 N222 1.346 . S
C223 C224 1.396 . S
C223 C233 1.510 . S
C224 C220 1.401 . S
C224 C223 1.396 . S
C225 C220 1.499 . S
C225 H226 0.959 . S
C225 H227 0.960 . S
C225 H228 0.961 . S
H226 C225 0.959 . S
H227 C225 0.960 . S
H228 C225 0.961 . S
O229 Co204 1.967 . S
O229 C237 1.258 . S
O230 Co205 1.941 . S
O230 C237 1.266 . S
H231 C233 0.959 . S
H232 C233 0.961 . S
C233 C223 1.510 . S
C233 H231 0.959 . S
C233 H232 0.961 . S
C233 H234 0.960 . S
H234 C233 0.960 . S
H235 N215 0.862 . S
O236 Co204 1.920 . S
O236 C209 1.289 . S
C237 O229 1.258 . S
C237 O230 1.266 . S
Co238 O241 1.970 . S
Co238 N255 1.989 . S
Co238 O263 1.967 . S
Co238 O270 1.920 . S
Co239 O242 1.966 . S
Co239 N248 2.022 . S
Co239 N256 1.993 . S
Co239 O264 1.941 . S
C240 O241 1.258 . S
C240 O242 1.263 . S
O241 Co238 1.970 . S
O241 C240 1.258 . S
O242 Co239 1.966 . S
O242 C240 1.263 . S
C243 O244 1.235 . S
C243 O270 1.289 . S
O244 C243 1.235 . S
C245 C247 1.400 . S
C245 N248 1.351 . S
C245 C250 1.501 . S
C246 C247 1.387 . S
C246 N249 1.341 . S
C247 C245 1.400 . S
C247 C246 1.387 . S
N248 Co239 2.022 . S
N248 C245 1.351 . S
N248 N249 1.365 . S
N249 C246 1.341 . S
N249 N248 1.365 . S
N249 H269 0.862 . S
C250 C245 1.501 . S
C250 H251 0.961 . S
C250 H252 0.961 . S
C250 H253 0.960 . S
H251 C250 0.961 . S
H252 C250 0.961 . S
H253 C250 0.960 . S
C254 N255 1.342 . S
C254 C258 1.401 . S
C254 C259 1.499 . S
N255 Co238 1.989 . S
N255 C254 1.342 . S
N255 N256 1.388 . S
N256 Co239 1.993 . S
N256 N255 1.388 . S
N256 C257 1.346 . S
C257 N256 1.346 . S
C257 C258 1.396 . S
C257 C267 1.510 . S
C258 C254 1.401 . S
C258 C257 1.396 . S
C259 C254 1.499 . S
C259 H260 0.959 . S
C259 H261 0.960 . S
C259 H262 0.961 . S
H260 C259 0.959 . S
H261 C259 0.960 . S
H262 C259 0.961 . S
O263 Co238 1.967 . S
O263 C271 1.258 . S
O264 Co239 1.941 . S
O264 C271 1.266 . S
H265 C267 0.959 . S
H266 C267 0.961 . S
C267 C257 1.510 . S
C267 H265 0.959 . S
C267 H266 0.961 . S
C267 H268 0.960 . S
H268 C267 0.960 . S
H269 N249 0.862 . S
O270 Co238 1.920 . S
O270 C243 1.289 . S
C271 O263 1.258 . S
C271 O264 1.266 . S
Co272 O275 1.970 . S
Co272 N289 1.989 . S
Co272 O297 1.967 . S
Co272 O304 1.920 . S
Co273 O276 1.966 . S
Co273 N282 2.022 . S
Co273 N290 1.993 . S
Co273 O298 1.941 . S
C274 O275 1.258 . S
C274 O276 1.263 . S
O275 Co272 1.970 . S
O275 C274 1.258 . S
O276 Co273 1.966 . S
O276 C274 1.263 . S
C277 O278 1.235 . S
C277 O304 1.289 . S
O278 C277 1.235 . S
C279 C281 1.400 . S
C279 N282 1.351 . S
C279 C284 1.501 . S
C280 C281 1.387 . S
C280 N283 1.341 . S
C281 C279 1.400 . S
C281 C280 1.387 . S
N282 Co273 2.022 . S
N282 C279 1.351 . S
N282 N283 1.365 . S
N283 C280 1.341 . S
N283 N282 1.365 . S
N283 H303 0.862 . S
C284 C279 1.501 . S
C284 H285 0.961 . S
C284 H286 0.961 . S
C284 H287 0.960 . S
H285 C284 0.961 . S
H286 C284 0.961 . S
H287 C284 0.960 . S
C288 N289 1.342 . S
C288 C292 1.401 . S
C288 C293 1.499 . S
N289 Co272 1.989 . S
N289 C288 1.342 . S
N289 N290 1.388 . S
N290 Co273 1.993 . S
N290 N289 1.388 . S
N290 C291 1.346 . S
C291 N290 1.346 . S
C291 C292 1.396 . S
C291 C301 1.510 . S
C292 C288 1.401 . S
C292 C291 1.396 . S
C293 C288 1.499 . S
C293 H294 0.959 . S
C293 H295 0.960 . S
C293 H296 0.961 . S
H294 C293 0.959 . S
H295 C293 0.960 . S
H296 C293 0.961 . S
O297 Co272 1.967 . S
O297 C305 1.258 . S
O298 Co273 1.941 . S
O298 C305 1.266 . S
H299 C301 0.959 . S
H300 C301 0.961 . S
C301 C291 1.510 . S
C301 H299 0.959 . S
C301 H300 0.961 . S
C301 H302 0.960 . S
H302 C301 0.960 . S
H303 N283 0.862 . S
O304 Co272 1.920 . S
O304 C277 1.289 . S
C305 O297 1.258 . S
C305 O298 1.266 . S
Co306 O309 1.970 . S
Co306 N323 1.989 . S
Co306 O331 1.967 . S
Co306 O338 1.920 . S
Co307 O310 1.966 . S
Co307 N316 2.022 . S
Co307 N324 1.993 . S
Co307 O332 1.941 . S
C308 O309 1.258 . S
C308 O310 1.263 . S
O309 Co306 1.970 . S
O309 C308 1.258 . S
O310 Co307 1.966 . S
O310 C308 1.263 . S
C311 O312 1.235 . S
C311 O338 1.289 . S
O312 C311 1.235 . S
C313 C315 1.400 . S
C313 N316 1.351 . S
C313 C318 1.501 . S
C314 C315 1.387 . S
C314 N317 1.341 . S
C315 C313 1.400 . S
C315 C314 1.387 . S
N316 Co307 2.022 . S
N316 C313 1.351 . S
N316 N317 1.365 . S
N317 C314 1.341 . S
N317 N316 1.365 . S
N317 H337 0.862 . S
C318 C313 1.501 . S
C318 H319 0.961 . S
C318 H320 0.961 . S
C318 H321 0.960 . S
H319 C318 0.961 . S
H320 C318 0.961 . S
H321 C318 0.960 . S
C322 N323 1.342 . S
C322 C326 1.401 . S
C322 C327 1.499 . S
N323 Co306 1.989 . S
N323 C322 1.342 . S
N323 N324 1.388 . S
N324 Co307 1.993 . S
N324 N323 1.388 . S
N324 C325 1.346 . S
C325 N324 1.346 . S
C325 C326 1.396 . S
C325 C335 1.510 . S
C326 C322 1.401 . S
C326 C325 1.396 . S
C327 C322 1.499 . S
C327 H328 0.959 . S
C327 H329 0.960 . S
C327 H330 0.961 . S
H328 C327 0.959 . S
H329 C327 0.960 . S
H330 C327 0.961 . S
O331 Co306 1.967 . S
O331 C339 1.258 . S
O332 Co307 1.941 . S
O332 C339 1.266 . S
H333 C335 0.959 . S
H334 C335 0.961 . S
C335 C325 1.510 . S
C335 H333 0.959 . S
C335 H334 0.961 . S
C335 H336 0.960 . S
H336 C335 0.960 . S
H337 N317 0.862 . S
O338 Co306 1.920 . S
O338 C311 1.289 . S
C339 O331 1.258 . S
C339 O332 1.266 . S
Co340 O343 1.970 . S
Co340 N357 1.989 . S
Co340 O365 1.967 . S
Co340 O372 1.920 . S
Co341 O344 1.966 . S
Co341 N350 2.022 . S
Co341 N358 1.993 . S
Co341 O366 1.941 . S
C342 O343 1.258 . S
C342 O344 1.263 . S
O343 Co340 1.970 . S
O343 C342 1.258 . S
O344 Co341 1.966 . S
O344 C342 1.263 . S
C345 O346 1.235 . S
C345 O372 1.289 . S
O346 C345 1.235 . S
C347 C349 1.400 . S
C347 N350 1.351 . S
C347 C352 1.501 . S
C348 C349 1.387 . S
C348 N351 1.341 . S
C349 C347 1.400 . S
C349 C348 1.387 . S
N350 Co341 2.022 . S
N350 C347 1.351 . S
N350 N351 1.365 . S
N351 C348 1.341 . S
N351 N350 1.365 . S
N351 H371 0.862 . S
C352 C347 1.501 . S
C352 H353 0.961 . S
C352 H354 0.961 . S
C352 H355 0.960 . S
H353 C352 0.961 . S
H354 C352 0.961 . S
H355 C352 0.960 . S
C356 N357 1.342 . S
C356 C360 1.401 . S
C356 C361 1.499 . S
N357 Co340 1.989 . S
N357 C356 1.342 . S
N357 N358 1.388 . S
N358 Co341 1.993 . S
N358 N357 1.388 . S
N358 C359 1.346 . S
C359 N358 1.346 . S
C359 C360 1.396 . S
C359 C369 1.510 . S
C360 C356 1.401 . S
C360 C359 1.396 . S
C361 C356 1.499 . S
C361 H362 0.959 . S
C361 H363 0.960 . S
C361 H364 0.961 . S
H362 C361 0.959 . S
H363 C361 0.960 . S
H364 C361 0.961 . S
O365 Co340 1.967 . S
O365 C373 1.258 . S
O366 Co341 1.941 . S
O366 C373 1.266 . S
H367 C369 0.959 . S
H368 C369 0.961 . S
C369 C359 1.510 . S
C369 H367 0.959 . S
C369 H368 0.961 . S
C369 H370 0.960 . S
H370 C369 0.960 . S
H371 N351 0.862 . S
O372 Co340 1.920 . S
O372 C345 1.289 . S
C373 O365 1.258 . S
C373 O366 1.266 . S
Co374 O377 1.970 . S
Co374 N391 1.989 . S
Co374 O399 1.967 . S
Co374 O406 1.920 . S
Co375 O378 1.966 . S
Co375 N384 2.022 . S
Co375 N392 1.993 . S
Co375 O400 1.941 . S
C376 O377 1.258 . S
C376 O378 1.263 . S
O377 Co374 1.970 . S
O377 C376 1.258 . S
O378 Co375 1.966 . S
O378 C376 1.263 . S
C379 O380 1.235 . S
C379 O406 1.289 . S
O380 C379 1.235 . S
C381 C383 1.400 . S
C381 N384 1.351 . S
C381 C386 1.501 . S
C382 C383 1.387 . S
C382 N385 1.341 . S
C383 C381 1.400 . S
C383 C382 1.387 . S
N384 Co375 2.022 . S
N384 C381 1.351 . S
N384 N385 1.365 . S
N385 C382 1.341 . S
N385 N384 1.365 . S
N385 H405 0.862 . S
C386 C381 1.501 . S
C386 H387 0.961 . S
C386 H388 0.961 . S
C386 H389 0.960 . S
H387 C386 0.961 . S
H388 C386 0.961 . S
H389 C386 0.960 . S
C390 N391 1.342 . S
C390 C394 1.401 . S
C390 C395 1.499 . S
N391 Co374 1.989 . S
N391 C390 1.342 . S
N391 N392 1.388 . S
N392 Co375 1.993 . S
N392 N391 1.388 . S
N392 C393 1.346 . S
C393 N392 1.346 . S
C393 C394 1.396 . S
C393 C403 1.510 . S
C394 C390 1.401 . S
C394 C393 1.396 . S
C395 C390 1.499 . S
C395 H396 0.959 . S
C395 H397 0.960 . S
C395 H398 0.961 . S
H396 C395 0.959 . S
H397 C395 0.960 . S
H398 C395 0.961 . S
O399 Co374 1.967 . S
O399 C407 1.258 . S
O400 Co375 1.941 . S
O400 C407 1.266 . S
H401 C403 0.959 . S
H402 C403 0.961 . S
C403 C393 1.510 . S
C403 H401 0.959 . S
C403 H402 0.961 . S
C403 H404 0.960 . S
H404 C403 0.960 . S
H405 N385 0.862 . S
O406 Co374 1.920 . S
O406 C379 1.289 . S
C407 O399 1.258 . S
C407 O400 1.266 . S
Co408 O411 1.970 . S
Co408 N425 1.989 . S
Co408 O433 1.967 . S
Co408 O440 1.920 . S
Co409 O412 1.966 . S
Co409 N418 2.022 . S
Co409 N426 1.993 . S
Co409 O434 1.941 . S
C410 O411 1.258 . S
C410 O412 1.263 . S
O411 Co408 1.970 . S
O411 C410 1.258 . S
O412 Co409 1.966 . S
O412 C410 1.263 . S
C413 O414 1.235 . S
C413 O440 1.289 . S
O414 C413 1.235 . S
C415 C417 1.400 . S
C415 N418 1.351 . S
C415 C420 1.501 . S
C416 C417 1.387 . S
C416 N419 1.341 . S
C417 C415 1.400 . S
C417 C416 1.387 . S
N418 Co409 2.022 . S
N418 C415 1.351 . S
N418 N419 1.365 . S
N419 C416 1.341 . S
N419 N418 1.365 . S
N419 H439 0.862 . S
C420 C415 1.501 . S
C420 H421 0.961 . S
C420 H422 0.961 . S
C420 H423 0.960 . S
H421 C420 0.961 . S
H422 C420 0.961 . S
H423 C420 0.960 . S
C424 N425 1.342 . S
C424 C428 1.401 . S
C424 C429 1.499 . S
N425 Co408 1.989 . S
N425 C424 1.342 . S
N425 N426 1.388 . S
N426 Co409 1.993 . S
N426 N425 1.388 . S
N426 C427 1.346 . S
C427 N426 1.346 . S
C427 C428 1.396 . S
C427 C437 1.510 . S
C428 C424 1.401 . S
C428 C427 1.396 . S
C429 C424 1.499 . S
C429 H430 0.959 . S
C429 H431 0.960 . S
C429 H432 0.961 . S
H430 C429 0.959 . S
H431 C429 0.960 . S
H432 C429 0.961 . S
O433 Co408 1.967 . S
O433 C441 1.258 . S
O434 Co409 1.941 . S
O434 C441 1.266 . S
H435 C437 0.959 . S
H436 C437 0.961 . S
C437 C427 1.510 . S
C437 H435 0.959 . S
C437 H436 0.961 . S
C437 H438 0.960 . S
H438 C437 0.960 . S
H439 N419 0.862 . S
O440 Co408 1.920 . S
O440 C413 1.289 . S
C441 O433 1.258 . S
C441 O434 1.266 . S
Co442 O445 1.970 . S
Co442 N459 1.989 . S
Co442 O467 1.967 . S
Co442 O474 1.920 . S
Co443 O446 1.966 . S
Co443 N452 2.022 . S
Co443 N460 1.993 . S
Co443 O468 1.941 . S
C444 O445 1.258 . S
C444 O446 1.263 . S
O445 Co442 1.970 . S
O445 C444 1.258 . S
O446 Co443 1.966 . S
O446 C444 1.263 . S
C447 O448 1.235 . S
C447 O474 1.289 . S
O448 C447 1.235 . S
C449 C451 1.400 . S
C449 N452 1.351 . S
C449 C454 1.501 . S
C450 C451 1.387 . S
C450 N453 1.341 . S
C451 C449 1.400 . S
C451 C450 1.387 . S
N452 Co443 2.022 . S
N452 C449 1.351 . S
N452 N453 1.365 . S
N453 C450 1.341 . S
N453 N452 1.365 . S
N453 H473 0.862 . S
C454 C449 1.501 . S
C454 H455 0.961 . S
C454 H456 0.961 . S
C454 H457 0.960 . S
H455 C454 0.961 . S
H456 C454 0.961 . S
H457 C454 0.960 . S
C458 N459 1.342 . S
C458 C462 1.401 . S
C458 C463 1.499 . S
N459 Co442 1.989 . S
N459 C458 1.342 . S
N459 N460 1.388 . S
N460 Co443 1.993 . S
N460 N459 1.388 . S
N460 C461 1.346 . S
C461 N460 1.346 . S
C461 C462 1.396 . S
C461 C471 1.510 . S
C462 C458 1.401 . S
C462 C461 1.396 . S
C463 C458 1.499 . S
C463 H464 0.959 . S
C463 H465 0.960 . S
C463 H466 0.961 . S
H464 C463 0.959 . S
H465 C463 0.960 . S
H466 C463 0.961 . S
O467 Co442 1.967 . S
O467 C475 1.258 . S
O468 Co443 1.941 . S
O468 C475 1.266 . S
H469 C471 0.959 . S
H470 C471 0.961 . S
C471 C461 1.510 . S
C471 H469 0.959 . S
C471 H470 0.961 . S
C471 H472 0.960 . S
H472 C471 0.960 . S
H473 N453 0.862 . S
O474 Co442 1.920 . S
O474 C447 1.289 . S
C475 O467 1.258 . S
C475 O468 1.266 . S
Co476 O479 1.970 . S
Co476 N493 1.989 . S
Co476 O501 1.967 . S
Co476 O508 1.920 . S
Co477 O480 1.966 . S
Co477 N486 2.022 . S
Co477 N494 1.993 . S
Co477 O502 1.941 . S
C478 O479 1.258 . S
C478 O480 1.263 . S
O479 Co476 1.970 . S
O479 C478 1.258 . S
O480 Co477 1.966 . S
O480 C478 1.263 . S
C481 O482 1.235 . S
C481 O508 1.289 . S
O482 C481 1.235 . S
C483 C485 1.400 . S
C483 N486 1.351 . S
C483 C488 1.501 . S
C484 C485 1.387 . S
C484 N487 1.341 . S
C485 C483 1.400 . S
C485 C484 1.387 . S
N486 Co477 2.022 . S
N486 C483 1.351 . S
N486 N487 1.365 . S
N487 C484 1.341 . S
N487 N486 1.365 . S
N487 H507 0.862 . S
C488 C483 1.501 . S
C488 H489 0.961 . S
C488 H490 0.961 . S
C488 H491 0.960 . S
H489 C488 0.961 . S
H490 C488 0.961 . S
H491 C488 0.960 . S
C492 N493 1.342 . S
C492 C496 1.401 . S
C492 C497 1.499 . S
N493 Co476 1.989 . S
N493 C492 1.342 . S
N493 N494 1.388 . S
N494 Co477 1.993 . S
N494 N493 1.388 . S
N494 C495 1.346 . S
C495 N494 1.346 . S
C495 C496 1.396 . S
C495 C505 1.510 . S
C496 C492 1.401 . S
C496 C495 1.396 . S
C497 C492 1.499 . S
C497 H498 0.959 . S
C497 H499 0.960 . S
C497 H500 0.961 . S
H498 C497 0.959 . S
H499 C497 0.960 . S
H500 C497 0.961 . S
O501 Co476 1.967 . S
O501 C509 1.258 . S
O502 Co477 1.941 . S
O502 C509 1.266 . S
H503 C505 0.959 . S
H504 C505 0.961 . S
C505 C495 1.510 . S
C505 H503 0.959 . S
C505 H504 0.961 . S
C505 H506 0.960 . S
H506 C505 0.960 . S
H507 N487 0.862 . S
O508 Co476 1.920 . S
O508 C481 1.289 . S
C509 O501 1.258 . S
C509 O502 1.266 . S
Co510 O513 1.970 . S
Co510 N527 1.989 . S
Co510 O535 1.967 . S
Co510 O542 1.920 . S
Co511 O514 1.966 . S
Co511 N520 2.022 . S
Co511 N528 1.993 . S
Co511 O536 1.941 . S
C512 O513 1.258 . S
C512 O514 1.263 . S
O513 Co510 1.970 . S
O513 C512 1.258 . S
O514 Co511 1.966 . S
O514 C512 1.263 . S
C515 O516 1.235 . S
C515 O542 1.289 . S
O516 C515 1.235 . S
C517 C519 1.400 . S
C517 N520 1.351 . S
C517 C522 1.501 . S
C518 C519 1.387 . S
C518 N521 1.341 . S
C519 C517 1.400 . S
C519 C518 1.387 . S
N520 Co511 2.022 . S
N520 C517 1.351 . S
N520 N521 1.365 . S
N521 C518 1.341 . S
N521 N520 1.365 . S
N521 H541 0.862 . S
C522 C517 1.501 . S
C522 H523 0.961 . S
C522 H524 0.961 . S
C522 H525 0.960 . S
H523 C522 0.961 . S
H524 C522 0.961 . S
H525 C522 0.960 . S
C526 N527 1.342 . S
C526 C530 1.401 . S
C526 C531 1.499 . S
N527 Co510 1.989 . S
N527 C526 1.342 . S
N527 N528 1.388 . S
N528 Co511 1.993 . S
N528 N527 1.388 . S
N528 C529 1.346 . S
C529 N528 1.346 . S
C529 C530 1.396 . S
C529 C539 1.510 . S
C530 C526 1.401 . S
C530 C529 1.396 . S
C531 C526 1.499 . S
C531 H532 0.959 . S
C531 H533 0.960 . S
C531 H534 0.961 . S
H532 C531 0.959 . S
H533 C531 0.960 . S
H534 C531 0.961 . S
O535 Co510 1.967 . S
O535 C543 1.258 . S
O536 Co511 1.941 . S
O536 C543 1.266 . S
H537 C539 0.959 . S
H538 C539 0.961 . S
C539 C529 1.510 . S
C539 H537 0.959 . S
C539 H538 0.961 . S
C539 H540 0.960 . S
H540 C539 0.960 . S
H541 N521 0.862 . S
O542 Co510 1.920 . S
O542 C515 1.289 . S
C543 O535 1.258 . S
C543 O536 1.266 . S
C544 C545 1.349 . S
C544 C546 1.327 . S
C544 H569 0.950 . S
C545 C544 1.349 . S
C545 C561 1.349 . S
C546 C544 1.327 . S
C546 C565 1.429 . S
C546 H570 0.950 . S
C547 C564 1.574 . S
C547 C566 1.368 . S
C547 H571 0.949 . S
H548 C552 0.949 . S
C549 C550 1.349 . S
C549 C551 1.327 . S
C549 H572 0.950 . S
C550 C549 1.349 . S
C550 C562 1.349 . S
C551 C549 1.327 . S
C551 C567 1.429 . S
C551 H573 0.950 . S
C552 H548 0.949 . S
C552 C560 1.574 . S
C552 C568 1.368 . S
H553 C561 0.950 . S
H554 C559 0.950 . S
H555 C560 0.949 . S
H556 C562 0.950 . S
H557 C563 0.950 . S
H558 C564 0.949 . S
C559 H554 0.950 . S
C559 C561 1.327 . S
C559 C565 1.429 . S
C560 C552 1.574 . S
C560 H555 0.949 . S
C560 C566 1.368 . S
C561 C545 1.349 . S
C561 H553 0.950 . S
C561 C559 1.327 . S
C562 C550 1.349 . S
C562 H556 0.950 . S
C562 C563 1.327 . S
C563 H557 0.950 . S
C563 C562 1.327 . S
C563 C567 1.429 . S
C564 C547 1.574 . S
C564 H558 0.949 . S
C564 C568 1.368 . S
C565 C546 1.429 . S
C565 C559 1.429 . S
C565 C566 1.523 . S
C566 C547 1.368 . S
C566 C560 1.368 . S
C566 C565 1.523 . S
C567 C551 1.429 . S
C567 C563 1.429 . S
C567 C568 1.523 . S
C568 C552 1.368 . S
C568 C564 1.368 . S
C568 C567 1.523 . S
H569 C544 0.950 . S
H570 C546 0.950 . S
H571 C547 0.949 . S
H572 C549 0.950 . S
H573 C551 0.950 . S
C574 C575 1.349 . S
C574 C576 1.327 . S
C574 H599 0.950 . S
C575 C574 1.349 . S
C575 C591 1.349 . S
C576 C574 1.327 . S
C576 C595 1.429 . S
C576 H600 0.950 . S
C577 C594 1.574 . S
C577 C596 1.368 . S
C577 H601 0.949 . S
H578 C582 0.949 . S
C579 C580 1.349 . S
C579 C581 1.327 . S
C579 H602 0.950 . S
C580 C579 1.349 . S
C580 C592 1.349 . S
C581 C579 1.327 . S
C581 C597 1.429 . S
C581 H603 0.950 . S
C582 H578 0.949 . S
C582 C590 1.574 . S
C582 C598 1.368 . S
H583 C591 0.950 . S
H584 C589 0.950 . S
H585 C590 0.949 . S
H586 C592 0.950 . S
H587 C593 0.950 . S
H588 C594 0.949 . S
C589 H584 0.950 . S
C589 C591 1.327 . S
C589 C595 1.429 . S
C590 C582 1.574 . S
C590 H585 0.949 . S
C590 C596 1.368 . S
C591 C575 1.349 . S
C591 H583 0.950 . S
C591 C589 1.327 . S
C592 C580 1.349 . S
C592 H586 0.950 . S
C592 C593 1.327 . S
C593 H587 0.950 . S
C593 C592 1.327 . S
C593 C597 1.429 . S
C594 C577 1.574 . S
C594 H588 0.949 . S
C594 C598 1.368 . S
C595 C576 1.429 . S
C595 C589 1.429 . S
C595 C596 1.523 . S
C596 C577 1.368 . S
C596 C590 1.368 . S
C596 C595 1.523 . S
C597 C581 1.429 . S
C597 C593 1.429 . S
C597 C598 1.523 . S
C598 C582 1.368 . S
C598 C594 1.368 . S
C598 C597 1.523 . S
H599 C574 0.950 . S
H600 C576 0.950 . S
H601 C577 0.949 . S
H602 C579 0.950 . S
H603 C581 0.950 . S
C604 C605 1.349 . S
C604 C606 1.327 . S
C604 H629 0.950 . S
C605 C604 1.349 . S
C605 C621 1.349 . S
C606 C604 1.327 . S
C606 C625 1.429 . S
C606 H630 0.950 . S
C607 C624 1.574 . S
C607 C626 1.368 . S
C607 H631 0.949 . S
H608 C612 0.949 . S
C609 C610 1.349 . S
C609 C611 1.327 . S
C609 H632 0.950 . S
C610 C609 1.349 . S
C610 C622 1.349 . S
C611 C609 1.327 . S
C611 C627 1.429 . S
C611 H633 0.950 . S
C612 H608 0.949 . S
C612 C620 1.574 . S
C612 C628 1.368 . S
H613 C621 0.950 . S
H614 C619 0.950 . S
H615 C620 0.949 . S
H616 C622 0.950 . S
H617 C623 0.950 . S
H618 C624 0.949 . S
C619 H614 0.950 . S
C619 C621 1.327 . S
C619 C625 1.429 . S
C620 C612 1.574 . S
C620 H615 0.949 . S
C620 C626 1.368 . S
C621 C605 1.349 . S
C621 H613 0.950 . S
C621 C619 1.327 . S
C622 C610 1.349 . S
C622 H616 0.950 . S
C622 C623 1.327 . S
C623 H617 0.950 . S
C623 C622 1.327 . S
C623 C627 1.429 . S
C624 C607 1.574 . S
C624 H618 0.949 . S
C624 C628 1.368 . S
C625 C606 1.429 . S
C625 C619 1.429 . S
C625 C626 1.523 . S
C626 C607 1.368 . S
C626 C620 1.368 . S
C626 C625 1.523 . S
C627 C611 1.429 . S
C627 C623 1.429 . S
C627 C628 1.523 . S
C628 C612 1.368 . S
C628 C624 1.368 . S
C628 C627 1.523 . S
H629 C604 0.950 . S
H630 C606 0.950 . S
H631 C607 0.949 . S
H632 C609 0.950 . S
H633 C611 0.950 . S
C634 C635 1.349 . S
C634 C636 1.327 . S
C634 H659 0.950 . S
C635 C634 1.349 . S
C635 C651 1.349 . S
C636 C634 1.327 . S
C636 C655 1.429 . S
C636 H660 0.950 . S
C637 C654 1.574 . S
C637 C656 1.368 . S
C637 H661 0.949 . S
H638 C642 0.949 . S
C639 C640 1.349 . S
C639 C641 1.327 . S
C639 H662 0.950 . S
C640 C639 1.349 . S
C640 C652 1.349 . S
C641 C639 1.327 . S
C641 C657 1.429 . S
C641 H663 0.950 . S
C642 H638 0.949 . S
C642 C650 1.574 . S
C642 C658 1.368 . S
H643 C651 0.950 . S
H644 C649 0.950 . S
H645 C650 0.949 . S
H646 C652 0.950 . S
H647 C653 0.950 . S
H648 C654 0.949 . S
C649 H644 0.950 . S
C649 C651 1.327 . S
C649 C655 1.429 . S
C650 C642 1.574 . S
C650 H645 0.949 . S
C650 C656 1.368 . S
C651 C635 1.349 . S
C651 H643 0.950 . S
C651 C649 1.327 . S
C652 C640 1.349 . S
C652 H646 0.950 . S
C652 C653 1.327 . S
C653 H647 0.950 . S
C653 C652 1.327 . S
C653 C657 1.429 . S
C654 C637 1.574 . S
C654 H648 0.949 . S
C654 C658 1.368 . S
C655 C636 1.429 . S
C655 C649 1.429 . S
C655 C656 1.523 . S
C656 C637 1.368 . S
C656 C650 1.368 . S
C656 C655 1.523 . S
C657 C641 1.429 . S
C657 C653 1.429 . S
C657 C658 1.523 . S
C658 C642 1.368 . S
C658 C654 1.368 . S
C658 C657 1.523 . S
H659 C634 0.950 . S
H660 C636 0.950 . S
H661 C637 0.949 . S
H662 C639 0.950 . S
H663 C641 0.950 . S
C664 C665 1.349 . S
C664 C666 1.327 . S
C664 H689 0.950 . S
C665 C664 1.349 . S
C665 C681 1.349 . S
C666 C664 1.327 . S
C666 C685 1.429 . S
C666 H690 0.950 . S
C667 C684 1.574 . S
C667 C686 1.368 . S
C667 H691 0.949 . S
H668 C672 0.949 . S
C669 C670 1.349 . S
C669 C671 1.327 . S
C669 H692 0.950 . S
C670 C669 1.349 . S
C670 C682 1.349 . S
C671 C669 1.327 . S
C671 C687 1.429 . S
C671 H693 0.950 . S
C672 H668 0.949 . S
C672 C680 1.574 . S
C672 C688 1.368 . S
H673 C681 0.950 . S
H674 C679 0.950 . S
H675 C680 0.949 . S
H676 C682 0.950 . S
H677 C683 0.950 . S
H678 C684 0.949 . S
C679 H674 0.950 . S
C679 C681 1.327 . S
C679 C685 1.429 . S
C680 C672 1.574 . S
C680 H675 0.949 . S
C680 C686 1.368 . S
C681 C665 1.349 . S
C681 H673 0.950 . S
C681 C679 1.327 . S
C682 C670 1.349 . S
C682 H676 0.950 . S
C682 C683 1.327 . S
C683 H677 0.950 . S
C683 C682 1.327 . S
C683 C687 1.429 . S
C684 C667 1.574 . S
C684 H678 0.949 . S
C684 C688 1.368 . S
C685 C666 1.429 . S
C685 C679 1.429 . S
C685 C686 1.523 . S
C686 C667 1.368 . S
C686 C680 1.368 . S
C686 C685 1.523 . S
C687 C671 1.429 . S
C687 C683 1.429 . S
C687 C688 1.523 . S
C688 C672 1.368 . S
C688 C684 1.368 . S
C688 C687 1.523 . S
H689 C664 0.950 . S
H690 C666 0.950 . S
H691 C667 0.949 . S
H692 C669 0.950 . S
H693 C671 0.950 . S
C694 C695 1.349 . S
C694 C696 1.327 . S
C694 H719 0.950 . S
C695 C694 1.349 . S
C695 C711 1.349 . S
C696 C694 1.327 . S
C696 C715 1.429 . S
C696 H720 0.950 . S
C697 C714 1.574 . S
C697 C716 1.368 . S
C697 H721 0.949 . S
H698 C702 0.949 . S
C699 C700 1.349 . S
C699 C701 1.327 . S
C699 H722 0.950 . S
C700 C699 1.349 . S
C700 C712 1.349 . S
C701 C699 1.327 . S
C701 C717 1.429 . S
C701 H723 0.950 . S
C702 H698 0.949 . S
C702 C710 1.574 . S
C702 C718 1.368 . S
H703 C711 0.950 . S
H704 C709 0.950 . S
H705 C710 0.949 . S
H706 C712 0.950 . S
H707 C713 0.950 . S
H708 C714 0.949 . S
C709 H704 0.950 . S
C709 C711 1.327 . S
C709 C715 1.429 . S
C710 C702 1.574 . S
C710 H705 0.949 . S
C710 C716 1.368 . S
C711 C695 1.349 . S
C711 H703 0.950 . S
C711 C709 1.327 . S
C712 C700 1.349 . S
C712 H706 0.950 . S
C712 C713 1.327 . S
C713 H707 0.950 . S
C713 C712 1.327 . S
C713 C717 1.429 . S
C714 C697 1.574 . S
C714 H708 0.949 . S
C714 C718 1.368 . S
C715 C696 1.429 . S
C715 C709 1.429 . S
C715 C716 1.523 . S
C716 C697 1.368 . S
C716 C710 1.368 . S
C716 C715 1.523 . S
C717 C701 1.429 . S
C717 C713 1.429 . S
C717 C718 1.523 . S
C718 C702 1.368 . S
C718 C714 1.368 . S
C718 C717 1.523 . S
H719 C694 0.950 . S
H720 C696 0.950 . S
H721 C697 0.949 . S
H722 C699 0.950 . S
H723 C701 0.950 . S
C724 C725 1.349 . S
C724 C726 1.327 . S
C724 H749 0.950 . S
C725 C724 1.349 . S
C725 C741 1.349 . S
C726 C724 1.327 . S
C726 C745 1.429 . S
C726 H750 0.950 . S
C727 C744 1.574 . S
C727 C746 1.368 . S
C727 H751 0.949 . S
H728 C732 0.949 . S
C729 C730 1.349 . S
C729 C731 1.327 . S
C729 H752 0.950 . S
C730 C729 1.349 . S
C730 C742 1.349 . S
C731 C729 1.327 . S
C731 C747 1.429 . S
C731 H753 0.950 . S
C732 H728 0.949 . S
C732 C740 1.574 . S
C732 C748 1.368 . S
H733 C741 0.950 . S
H734 C739 0.950 . S
H735 C740 0.949 . S
H736 C742 0.950 . S
H737 C743 0.950 . S
H738 C744 0.949 . S
C739 H734 0.950 . S
C739 C741 1.327 . S
C739 C745 1.429 . S
C740 C732 1.574 . S
C740 H735 0.949 . S
C740 C746 1.368 . S
C741 C725 1.349 . S
C741 H733 0.950 . S
C741 C739 1.327 . S
C742 C730 1.349 . S
C742 H736 0.950 . S
C742 C743 1.327 . S
C743 H737 0.950 . S
C743 C742 1.327 . S
C743 C747 1.429 . S
C744 C727 1.574 . S
C744 H738 0.949 . S
C744 C748 1.368 . S
C745 C726 1.429 . S
C745 C739 1.429 . S
C745 C746 1.523 . S
C746 C727 1.368 . S
C746 C740 1.368 . S
C746 C745 1.523 . S
C747 C731 1.429 . S
C747 C743 1.429 . S
C747 C748 1.523 . S
C748 C732 1.368 . S
C748 C744 1.368 . S
C748 C747 1.523 . S
H749 C724 0.950 . S
H750 C726 0.950 . S
H751 C727 0.949 . S
H752 C729 0.950 . S
H753 C731 0.950 . S
C754 C755 1.349 . S
C754 C756 1.327 . S
C754 H779 0.950 . S
C755 C754 1.349 . S
C755 C771 1.349 . S
C756 C754 1.327 . S
C756 C775 1.429 . S
C756 H780 0.950 . S
C757 C774 1.574 . S
C757 C776 1.368 . S
C757 H781 0.949 . S
H758 C762 0.949 . S
C759 C760 1.349 . S
C759 C761 1.327 . S
C759 H782 0.950 . S
C760 C759 1.349 . S
C760 C772 1.349 . S
C761 C759 1.327 . S
C761 C777 1.429 . S
C761 H783 0.950 . S
C762 H758 0.949 . S
C762 C770 1.574 . S
C762 C778 1.368 . S
H763 C771 0.950 . S
H764 C769 0.950 . S
H765 C770 0.949 . S
H766 C772 0.950 . S
H767 C773 0.950 . S
H768 C774 0.949 . S
C769 H764 0.950 . S
C769 C771 1.327 . S
C769 C775 1.429 . S
C770 C762 1.574 . S
C770 H765 0.949 . S
C770 C776 1.368 . S
C771 C755 1.349 . S
C771 H763 0.950 . S
C771 C769 1.327 . S
C772 C760 1.349 . S
C772 H766 0.950 . S
C772 C773 1.327 . S
C773 H767 0.950 . S
C773 C772 1.327 . S
C773 C777 1.429 . S
C774 C757 1.574 . S
C774 H768 0.949 . S
C774 C778 1.368 . S
C775 C756 1.429 . S
C775 C769 1.429 . S
C775 C776 1.523 . S
C776 C757 1.368 . S
C776 C770 1.368 . S
C776 C775 1.523 . S
C777 C761 1.429 . S
C777 C773 1.429 . S
C777 C778 1.523 . S
C778 C762 1.368 . S
C778 C774 1.368 . S
C778 C777 1.523 . S
H779 C754 0.950 . S
H780 C756 0.950 . S
H781 C757 0.949 . S
H782 C759 0.950 . S
H783 C761 0.950 . S
C784 C785 1.349 . S
C784 C786 1.327 . S
C784 H809 0.950 . S
C785 C784 1.349 . S
C785 C801 1.349 . S
C786 C784 1.327 . S
C786 C805 1.429 . S
C786 H810 0.951 . S
C787 C804 1.574 . S
C787 C806 1.368 . S
C787 H811 0.949 . S
H788 C792 0.949 . S
C789 C790 1.349 . S
C789 C791 1.327 . S
C789 H812 0.950 . S
C790 C789 1.349 . S
C790 C802 1.349 . S
C791 C789 1.327 . S
C791 C807 1.429 . S
C791 H813 0.951 . S
C792 H788 0.949 . S
C792 C800 1.574 . S
C792 C808 1.368 . S
H793 C801 0.950 . S
H794 C799 0.950 . S
H795 C800 0.949 . S
H796 C802 0.950 . S
H797 C803 0.950 . S
H798 C804 0.949 . S
C799 H794 0.950 . S
C799 C801 1.327 . S
C799 C805 1.429 . S
C800 C792 1.574 . S
C800 H795 0.949 . S
C800 C806 1.368 1_544 S
C801 C785 1.349 . S
C801 H793 0.950 . S
C801 C799 1.327 . S
C802 C790 1.349 . S
C802 H796 0.950 . S
C802 C803 1.327 . S
C803 H797 0.950 . S
C803 C802 1.327 . S
C803 C807 1.429 . S
C804 C787 1.574 . S
C804 H798 0.949 . S
C804 C808 1.368 1_566 S
C805 C786 1.429 . S
C805 C799 1.429 . S
C805 C806 1.523 . S
C806 C787 1.368 . S
C806 C800 1.368 1_566 S
C806 C805 1.523 . S
C807 C791 1.429 . S
C807 C803 1.429 . S
C807 C808 1.523 . S
C808 C792 1.368 . S
C808 C804 1.368 1_544 S
C808 C807 1.523 . S
H809 C784 0.950 . S
H810 C786 0.951 . S
H811 C787 0.949 . S
H812 C789 0.950 . S
H813 C791 0.951 . S
C814 C815 1.349 . S
C814 C816 1.327 . S
C814 H839 0.950 . S
C815 C814 1.349 . S
C815 C831 1.349 . S
C816 C814 1.327 . S
C816 C835 1.429 . S
C816 H840 0.950 . S
C817 C834 1.574 . S
C817 C836 1.368 . S
C817 H841 0.949 . S
H818 C822 0.949 . S
C819 C820 1.349 . S
C819 C821 1.327 . S
C819 H842 0.950 . S
C820 C819 1.349 . S
C820 C832 1.349 . S
C821 C819 1.327 . S
C821 C837 1.429 . S
C821 H843 0.950 . S
C822 H818 0.949 . S
C822 C830 1.574 . S
C822 C838 1.368 . S
H823 C831 0.950 . S
H824 C829 0.950 . S
H825 C830 0.949 . S
H826 C832 0.950 . S
H827 C833 0.950 . S
H828 C834 0.949 . S
C829 H824 0.950 . S
C829 C831 1.327 . S
C829 C835 1.429 . S
C830 C822 1.574 . S
C830 H825 0.949 . S
C830 C836 1.368 1_554 S
C831 C815 1.349 . S
C831 H823 0.950 . S
C831 C829 1.327 . S
C832 C820 1.349 . S
C832 H826 0.950 . S
C832 C833 1.327 . S
C833 H827 0.950 . S
C833 C832 1.327 . S
C833 C837 1.429 . S
C834 C817 1.574 . S
C834 H828 0.949 . S
C834 C838 1.368 1_556 S
C835 C816 1.429 . S
C835 C829 1.429 . S
C835 C836 1.523 . S
C836 C817 1.368 . S
C836 C830 1.368 1_556 S
C836 C835 1.523 . S
C837 C821 1.429 . S
C837 C833 1.429 . S
C837 C838 1.523 . S
C838 C822 1.368 . S
C838 C834 1.368 1_554 S
C838 C837 1.523 . S
H839 C814 0.950 . S
H840 C816 0.950 . S
H841 C817 0.949 . S
H842 C819 0.950 . S
H843 C821 0.950 . S
C844 C845 1.349 . S
C844 C846 1.327 . S
C844 H869 0.950 . S
C845 C844 1.349 . S
C845 C861 1.349 . S
C846 C844 1.327 . S
C846 C865 1.429 . S
C846 H870 0.950 . S
C847 C864 1.574 1_455 S
C847 C866 1.368 1_554 S
C847 H871 0.949 . S
H848 C852 0.949 . S
C849 C850 1.349 . S
C849 C851 1.327 . S
C849 H872 0.950 . S
C850 C849 1.349 . S
C850 C862 1.349 . S
C851 C849 1.327 . S
C851 C867 1.429 . S
C851 H873 0.950 . S
C852 H848 0.949 . S
C852 C860 1.574 1_655 S
C852 C868 1.368 1_556 S
H853 C861 0.950 . S
H854 C859 0.950 . S
H855 C860 0.949 . S
H856 C862 0.950 . S
H857 C863 0.950 . S
H858 C864 0.949 . S
C859 H854 0.950 . S
C859 C861 1.327 . S
C859 C865 1.429 . S
C860 C852 1.574 1_455 S
C860 H855 0.949 . S
C860 C866 1.368 . S
C861 C845 1.349 . S
C861 H853 0.950 . S
C861 C859 1.327 . S
C862 C850 1.349 . S
C862 H856 0.950 . S
C862 C863 1.327 . S
C863 H857 0.950 . S
C863 C862 1.327 . S
C863 C867 1.429 . S
C864 C847 1.574 1_655 S
C864 H858 0.949 . S
C864 C868 1.368 . S
C865 C846 1.429 . S
C865 C859 1.429 . S
C865 C866 1.523 . S
C866 C847 1.368 1_556 S
C866 C860 1.368 . S
C866 C865 1.523 . S
C867 C851 1.429 . S
C867 C863 1.429 . S
C867 C868 1.523 . S
C868 C852 1.368 1_554 S
C868 C864 1.368 . S
C868 C867 1.523 . S
H869 C844 0.950 . S
H870 C846 0.950 . S
H871 C847 0.949 . S
H872 C849 0.950 . S
H873 C851 0.950 . S
C874 C875 1.349 1_455 S
C874 C876 1.327 . S
C874 H899 0.950 . S
C875 C874 1.349 1_655 S
C875 C891 1.349 . S
C876 C874 1.327 . S
C876 C895 1.429 1_455 S
C876 H900 0.950 . S
C877 C894 1.574 1_545 S
C877 C896 1.368 1_554 S
C877 H901 0.949 . S
H878 C882 0.949 . S
C879 C880 1.349 1_655 S
C879 C881 1.327 . S
C879 H902 0.950 . S
C880 C879 1.349 1_455 S
C880 C892 1.349 . S
C881 C879 1.327 . S
C881 C897 1.429 1_655 S
C881 H903 0.950 . S
C882 H878 0.949 . S
C882 C890 1.574 1_565 S
C882 C898 1.368 1_556 S
H883 C891 0.950 . S
H884 C889 0.950 . S
H885 C890 0.949 . S
H886 C892 0.950 . S
H887 C893 0.950 . S
H888 C894 0.949 . S
C889 H884 0.950 . S
C889 C891 1.327 . S
C889 C895 1.429 . S
C890 C882 1.574 1_545 S
C890 H885 0.949 . S
C890 C896 1.368 1_455 S
C891 C875 1.349 . S
C891 H883 0.950 . S
C891 C889 1.327 . S
C892 C880 1.349 . S
C892 H886 0.950 . S
C892 C893 1.327 . S
C893 H887 0.950 . S
C893 C892 1.327 . S
C893 C897 1.429 . S
C894 C877 1.574 1_565 S
C894 H888 0.949 . S
C894 C898 1.368 1_655 S
C895 C876 1.429 1_655 S
C895 C889 1.429 . S
C895 C896 1.523 . S
C896 C877 1.368 1_556 S
C896 C890 1.368 1_655 S
C896 C895 1.523 . S
C897 C881 1.429 1_455 S
C897 C893 1.429 . S
C897 C898 1.523 . S
C898 C882 1.368 1_554 S
C898 C894 1.368 1_455 S
C898 C897 1.523 . S
H899 C874 0.950 . S
H900 C876 0.950 . S
H901 C877 0.949 . S
H902 C879 0.950 . S
H903 C881 0.950 . S
C904 C905 1.349 . S
C904 C906 1.327 . S
C904 H929 0.950 . S
C905 C904 1.349 . S
C905 C921 1.349 . S
C906 C904 1.327 . S
C906 C925 1.429 . S
C906 H930 0.950 . S
C907 C924 1.574 . S
C907 C926 1.368 . S
C907 H931 0.949 . S
H908 C912 0.949 . S
C909 C910 1.349 . S
C909 C911 1.327 . S
C909 H932 0.950 . S
C910 C909 1.349 . S
C910 C922 1.349 . S
C911 C909 1.327 . S
C911 C927 1.429 . S
C911 H933 0.950 . S
C912 H908 0.949 . S
C912 C920 1.574 . S
C912 C928 1.368 . S
H913 C921 0.950 . S
H914 C919 0.950 . S
H915 C920 0.949 . S
H916 C922 0.950 . S
H917 C923 0.950 . S
H918 C924 0.949 . S
C919 H914 0.950 . S
C919 C921 1.327 . S
C919 C925 1.429 . S
C920 C912 1.574 . S
C920 H915 0.949 . S
C920 C926 1.368 . S
C921 C905 1.349 . S
C921 H913 0.950 . S
C921 C919 1.327 . S
C922 C910 1.349 . S
C922 H916 0.950 . S
C922 C923 1.327 . S
C923 H917 0.950 . S
C923 C922 1.327 . S
C923 C927 1.429 . S
C924 C907 1.574 . S
C924 H918 0.949 . S
C924 C928 1.368 . S
C925 C906 1.429 . S
C925 C919 1.429 . S
C925 C926 1.523 . S
C926 C907 1.368 . S
C926 C920 1.368 . S
C926 C925 1.523 . S
C927 C911 1.429 . S
C927 C923 1.429 . S
C927 C928 1.523 . S
C928 C912 1.368 . S
C928 C924 1.368 . S
C928 C927 1.523 . S
H929 C904 0.950 . S
H930 C906 0.950 . S
H931 C907 0.949 . S
H932 C909 0.950 . S
H933 C911 0.950 . S
C934 C935 1.349 1_455 S
C934 C936 1.327 . S
C934 H959 0.950 . S
C935 C934 1.349 1_655 S
C935 C951 1.349 . S
C936 C934 1.327 . S
C936 C955 1.429 1_455 S
C936 H960 0.950 . S
C937 C954 1.574 . S
C937 C956 1.368 . S
C937 H961 0.949 . S
H938 C942 0.949 . S
C939 C940 1.349 1_655 S
C939 C941 1.327 . S
C939 H962 0.950 . S
C940 C939 1.349 1_455 S
C940 C952 1.349 . S
C941 C939 1.327 . S
C941 C957 1.429 1_655 S
C941 H963 0.950 . S
C942 H938 0.949 . S
C942 C950 1.574 . S
C942 C958 1.368 . S
H943 C951 0.950 . S
H944 C949 0.950 . S
H945 C950 0.949 . S
H946 C952 0.950 . S
H947 C953 0.950 . S
H948 C954 0.949 . S
C949 H944 0.950 . S
C949 C951 1.327 . S
C949 C955 1.429 . S
C950 C942 1.574 . S
C950 H945 0.949 . S
C950 C956 1.368 1_455 S
C951 C935 1.349 . S
C951 H943 0.950 . S
C951 C949 1.327 . S
C952 C940 1.349 . S
C952 H946 0.950 . S
C952 C953 1.327 . S
C953 H947 0.950 . S
C953 C952 1.327 . S
C953 C957 1.429 . S
C954 C937 1.574 . S
C954 H948 0.949 . S
C954 C958 1.368 1_655 S
C955 C936 1.429 1_655 S
C955 C949 1.429 . S
C955 C956 1.523 . S
C956 C937 1.368 . S
C956 C950 1.368 1_655 S
C956 C955 1.523 . S
C957 C941 1.429 1_455 S
C957 C953 1.429 . S
C957 C958 1.523 . S
C958 C942 1.368 . S
C958 C954 1.368 1_455 S
C958 C957 1.523 . S
H959 C934 0.950 . S
H960 C936 0.950 . S
H961 C937 0.949 . S
H962 C939 0.950 . S
H963 C941 0.950 . S
C964 C965 1.349 . S
C964 C966 1.327 . S
C964 H989 0.950 . S
C965 C964 1.349 . S
C965 C981 1.349 . S
C966 C964 1.327 . S
C966 C985 1.429 . S
C966 H990 0.950 1_545 S
C967 C984 1.574 1_655 S
C967 C986 1.368 . S
C967 H991 0.949 . S
H968 C972 0.949 . S
C969 C970 1.349 . S
C969 C971 1.327 . S
C969 H992 0.950 . S
C970 C969 1.349 . S
C970 C982 1.349 . S
C971 C969 1.327 . S
C971 C987 1.429 . S
C971 H993 0.950 1_565 S
C972 H968 0.949 . S
C972 C980 1.574 1_455 S
C972 C988 1.368 . S
H973 C981 0.950 . S
H974 C979 0.950 . S
H975 C980 0.949 . S
H976 C982 0.950 . S
H977 C983 0.950 . S
H978 C984 0.949 . S
C979 H974 0.950 . S
C979 C981 1.327 . S
C979 C985 1.429 . S
C980 C972 1.574 1_655 S
C980 H975 0.949 . S
C980 C986 1.368 1_565 S
C981 C965 1.349 . S
C981 H973 0.950 . S
C981 C979 1.327 . S
C982 C970 1.349 . S
C982 H976 0.950 . S
C982 C983 1.327 . S
C983 H977 0.950 . S
C983 C982 1.327 . S
C983 C987 1.429 . S
C984 C967 1.574 1_455 S
C984 H978 0.949 . S
C984 C988 1.368 1_545 S
C985 C966 1.429 . S
C985 C979 1.429 . S
C985 C986 1.523 . S
C986 C967 1.368 . S
C986 C980 1.368 1_545 S
C986 C985 1.523 . S
C987 C971 1.429 . S
C987 C983 1.429 . S
C987 C988 1.523 . S
C988 C972 1.368 . S
C988 C984 1.368 1_565 S
C988 C987 1.523 . S
H989 C964 0.950 . S
H990 C966 0.950 1_565 S
H991 C967 0.949 . S
H992 C969 0.950 . S
H993 C971 0.950 1_545 S
C994 C995 1.349 . S
C994 C996 1.327 . S
C994 H1019 0.950 . S
C995 C994 1.349 . S
C995 C1011 1.349 . S
C996 C994 1.327 . S
C996 C1015 1.429 . S
C996 H1020 0.950 . S
C997 C1014 1.588 . S
C997 C1016 1.354 1_545 S
C997 H1021 0.949 . S
H998 C1002 0.949 . S
C999 C1000 1.349 . S
C999 C1001 1.327 . S
C999 H1022 0.950 . S
C1000 C999 1.349 . S
C1000 C1012 1.349 . S
C1001 C999 1.327 . S
C1001 C1017 1.429 . S
C1001 H1023 0.950 . S
C1002 H998 0.949 . S
C1002 C1010 1.588 . S
C1002 C1018 1.354 1_565 S
H1003 C1011 0.950 . S
H1004 C1009 0.950 . S
H1005 C1010 0.949 . S
H1006 C1012 0.950 . S
H1007 C1013 0.950 . S
H1008 C1014 0.949 . S
C1009 H1004 0.950 . S
C1009 C1011 1.327 . S
C1009 C1015 1.429 . S
C1010 C1002 1.588 . S
C1010 H1005 0.949 . S
C1010 C1016 1.368 . S
C1011 C995 1.349 . S
C1011 H1003 0.950 . S
C1011 C1009 1.327 . S
C1012 C1000 1.349 . S
C1012 H1006 0.950 . S
C1012 C1013 1.327 . S
C1013 H1007 0.950 . S
C1013 C1012 1.327 . S
C1013 C1017 1.429 . S
C1014 C997 1.588 . S
C1014 H1008 0.949 . S
C1014 C1018 1.368 . S
C1015 C996 1.429 . S
C1015 C1009 1.429 . S
C1015 C1016 1.523 . S
C1016 C997 1.354 1_565 S
C1016 C1010 1.368 . S
C1016 C1015 1.523 . S
C1017 C1001 1.429 . S
C1017 C1013 1.429 . S
C1017 C1018 1.523 . S
C1018 C1002 1.354 1_545 S
C1018 C1014 1.368 . S
C1018 C1017 1.523 . S
H1019 C994 0.950 . S
H1020 C996 0.950 . S
H1021 C997 0.949 . S
H1022 C999 0.950 . S
H1023 C1001 0.950 . S
C1024 C1025 1.349 . S
C1024 C1026 1.327 . S
C1024 H1049 0.950 . S
C1025 C1024 1.349 . S
C1025 C1041 1.349 . S
C1026 C1024 1.327 . S
C1026 C1045 1.429 . S
C1026 H1050 0.950 1_556 S
C1027 C1044 1.574 . S
C1027 C1046 1.368 . S
C1027 H1051 0.949 . S
H1028 C1032 0.949 . S
C1029 C1030 1.349 . S
C1029 C1031 1.327 . S
C1029 H1052 0.950 . S
C1030 C1029 1.349 . S
C1030 C1042 1.349 . S
C1031 C1029 1.327 . S
C1031 C1047 1.429 . S
C1031 H1053 0.950 . S
C1032 H1028 0.949 . S
C1032 C1040 1.574 . S
C1032 C1048 1.368 . S
H1033 C1041 0.950 . S
H1034 C1039 0.950 . S
H1035 C1040 0.949 . S
H1036 C1042 0.950 . S
H1037 C1043 0.950 . S
H1038 C1044 0.949 . S
C1039 H1034 0.950 . S
C1039 C1041 1.327 . S
C1039 C1045 1.429 . S
C1040 C1032 1.574 . S
C1040 H1035 0.949 . S
C1040 C1046 1.368 1_554 S
C1041 C1025 1.349 . S
C1041 H1033 0.950 . S
C1041 C1039 1.327 . S
C1042 C1030 1.349 . S
C1042 H1036 0.950 . S
C1042 C1043 1.327 . S
C1043 H1037 0.950 . S
C1043 C1042 1.327 . S
C1043 C1047 1.429 . S
C1044 C1027 1.574 . S
C1044 H1038 0.949 . S
C1044 C1048 1.368 1_556 S
C1045 C1026 1.429 . S
C1045 C1039 1.429 . S
C1045 C1046 1.523 . S
C1046 C1027 1.368 . S
C1046 C1040 1.368 1_556 S
C1046 C1045 1.523 . S
C1047 C1031 1.429 . S
C1047 C1043 1.429 . S
C1047 C1048 1.523 . S
C1048 C1032 1.368 . S
C1048 C1044 1.368 1_554 S
C1048 C1047 1.523 . S
H1049 C1024 0.950 . S
H1050 C1026 0.950 1_554 S
H1051 C1027 0.949 . S
H1052 C1029 0.950 . S
H1053 C1031 0.950 . S
C1054 C1055 1.349 . S
C1054 C1056 1.327 . S
C1054 H1079 0.950 . S
C1055 C1054 1.349 . S
C1055 C1071 1.349 . S
C1056 C1054 1.327 . S
C1056 C1075 1.429 . S
C1056 H1080 0.950 1_556 S
C1057 C1074 1.574 . S
C1057 C1076 1.368 . S
C1057 H1081 0.949 . S
H1058 C1062 0.949 . S
C1059 C1060 1.349 . S
C1059 C1061 1.327 . S
C1059 H1082 0.950 . S
C1060 C1059 1.349 . S
C1060 C1072 1.349 . S
C1061 C1059 1.327 . S
C1061 C1077 1.429 . S
C1061 H1083 0.985 . S
C1062 H1058 0.949 . S
C1062 C1070 1.574 . S
C1062 C1078 1.368 . S
H1063 C1071 0.950 . S
H1064 C1069 0.950 . S
H1065 C1070 0.949 . S
H1066 C1072 0.950 . S
H1067 C1073 0.950 . S
H1068 C1074 0.949 . S
C1069 H1064 0.950 . S
C1069 C1071 1.327 . S
C1069 C1075 1.429 . S
C1070 C1062 1.574 . S
C1070 H1065 0.949 . S
C1070 C1076 1.368 1_554 S
C1071 C1055 1.349 . S
C1071 H1063 0.950 . S
C1071 C1069 1.327 . S
C1072 C1060 1.349 . S
C1072 H1066 0.950 . S
C1072 C1073 1.327 . S
C1073 H1067 0.950 . S
C1073 C1072 1.327 . S
C1073 C1077 1.429 . S
C1074 C1057 1.574 . S
C1074 H1068 0.949 . S
C1074 C1078 1.368 1_556 S
C1075 C1056 1.429 . S
C1075 C1069 1.429 . S
C1075 C1076 1.523 . S
C1076 C1057 1.368 . S
C1076 C1070 1.368 1_556 S
C1076 C1075 1.523 . S
C1077 C1061 1.429 . S
C1077 C1073 1.429 . S
C1077 C1078 1.523 . S
C1078 C1062 1.368 . S
C1078 C1074 1.368 1_554 S
C1078 C1077 1.523 . S
H1079 C1054 0.950 . S
H1080 C1056 0.950 1_554 S
H1081 C1057 0.949 . S
H1082 C1059 0.950 . S
H1083 C1061 0.985 . S
C1084 C1085 1.349 . S
C1084 C1086 1.327 . S
C1084 H1109 0.950 . S
C1085 C1084 1.349 . S
C1085 C1101 1.349 . S
C1086 C1084 1.327 . S
C1086 C1105 1.429 . S
C1086 H1110 0.950 . S
C1087 C1104 1.574 . S
C1087 C1106 1.368 1_554 S
C1087 H1111 0.949 . S
H1088 C1092 0.949 . S
C1089 C1090 1.349 . S
C1089 C1091 1.327 . S
C1089 H1112 0.950 . S
C1090 C1089 1.349 . S
C1090 C1102 1.349 . S
C1091 C1089 1.327 . S
C1091 C1107 1.429 . S
C1091 H1113 0.950 . S
C1092 H1088 0.949 . S
C1092 C1100 1.574 . S
C1092 C1108 1.368 1_556 S
H1093 C1101 0.950 . S
H1094 C1099 0.950 1_554 S
H1095 C1100 0.949 . S
H1096 C1102 0.950 . S
H1097 C1103 0.950 . S
H1098 C1104 0.949 . S
C1099 H1094 0.950 1_556 S
C1099 C1101 1.327 . S
C1099 C1105 1.429 . S
C1100 C1092 1.574 . S
C1100 H1095 0.949 . S
C1100 C1106 1.368 . S
C1101 C1085 1.349 . S
C1101 H1093 0.950 . S
C1101 C1099 1.327 . S
C1102 C1090 1.349 . S
C1102 H1096 0.950 . S
C1102 C1103 1.327 . S
C1103 H1097 0.950 . S
C1103 C1102 1.327 . S
C1103 C1107 1.429 . S
C1104 C1087 1.574 . S
C1104 H1098 0.949 . S
C1104 C1108 1.368 . S
C1105 C1086 1.429 . S
C1105 C1099 1.429 . S
C1105 C1106 1.523 . S
C1106 C1087 1.368 1_556 S
C1106 C1100 1.368 . S
C1106 C1105 1.523 . S
C1107 C1091 1.429 . S
C1107 C1103 1.429 . S
C1107 C1108 1.523 . S
C1108 C1092 1.368 1_554 S
C1108 C1104 1.368 . S
C1108 C1107 1.523 . S
H1109 C1084 0.950 . S
H1110 C1086 0.950 . S
H1111 C1087 0.949 . S
H1112 C1089 0.950 . S
H1113 C1091 0.950 . S
C1114 C1115 1.349 . S
C1114 C1116 1.327 . S
C1114 H1139 0.950 . S
C1115 C1114 1.349 . S
C1115 C1131 1.349 . S
C1116 C1114 1.327 . S
C1116 C1135 1.429 . S
C1116 H1140 0.950 . S
C1117 C1134 1.574 1_556 S
C1117 C1136 1.368 . S
C1117 H1141 0.949 . S
H1118 C1122 0.949 . S
C1119 C1120 1.349 . S
C1119 C1121 1.327 . S
C1119 H1142 0.950 . S
C1120 C1119 1.349 . S
C1120 C1132 1.349 . S
C1121 C1119 1.327 . S
C1121 C1137 1.429 . S
C1121 H1143 0.950 . S
C1122 H1118 0.949 . S
C1122 C1130 1.574 1_554 S
C1122 C1138 1.368 . S
H1123 C1131 0.950 . S
H1124 C1129 0.950 . S
H1125 C1130 0.949 . S
H1126 C1132 0.950 . S
H1127 C1133 0.950 . S
H1128 C1134 0.949 . S
C1129 H1124 0.950 . S
C1129 C1131 1.327 . S
C1129 C1135 1.429 . S
C1130 C1122 1.574 1_556 S
C1130 H1125 0.949 . S
C1130 C1136 1.368 . S
C1131 C1115 1.349 . S
C1131 H1123 0.950 . S
C1131 C1129 1.327 . S
C1132 C1120 1.349 . S
C1132 H1126 0.950 . S
C1132 C1133 1.327 . S
C1133 H1127 0.950 . S
C1133 C1132 1.327 . S
C1133 C1137 1.429 . S
C1134 C1117 1.574 1_554 S
C1134 H1128 0.949 . S
C1134 C1138 1.368 . S
C1135 C1116 1.429 . S
C1135 C1129 1.429 . S
C1135 C1136 1.523 . S
C1136 C1117 1.368 . S
C1136 C1130 1.368 . S
C1136 C1135 1.523 . S
C1137 C1121 1.429 . S
C1137 C1133 1.429 . S
C1137 C1138 1.523 . S
C1138 C1122 1.368 . S
C1138 C1134 1.368 . S
C1138 C1137 1.523 . S
H1139 C1114 0.950 . S
H1140 C1116 0.950 . S
H1141 C1117 0.949 . S
H1142 C1119 0.950 . S
H1143 C1121 0.950 . S
C1144 C1145 1.349 . S
C1144 C1146 1.327 . S
C1144 H1169 0.950 . S
C1145 C1144 1.349 . S
C1145 C1161 1.349 . S
C1146 C1144 1.327 . S
C1146 C1165 1.429 . S
C1146 H1170 0.950 . S
C1147 C1164 1.574 . S
C1147 C1166 1.368 . S
C1147 H1171 0.949 . S
H1148 C1152 0.949 . S
C1149 C1150 1.349 . S
C1149 C1151 1.327 . S
C1149 H1172 0.950 . S
C1150 C1149 1.349 . S
C1150 C1162 1.349 . S
C1151 C1149 1.327 . S
C1151 C1167 1.429 . S
C1151 H1173 0.950 . S
C1152 H1148 0.949 . S
C1152 C1160 1.574 . S
C1152 C1168 1.368 . S
H1153 C1161 0.950 . S
H1154 C1159 0.950 . S
H1155 C1160 0.949 . S
H1156 C1162 0.950 . S
H1157 C1163 0.950 . S
H1158 C1164 0.949 . S
C1159 H1154 0.950 . S
C1159 C1161 1.327 . S
C1159 C1165 1.429 . S
C1160 C1152 1.574 . S
C1160 H1155 0.949 . S
C1160 C1166 1.368 . S
C1161 C1145 1.349 . S
C1161 H1153 0.950 . S
C1161 C1159 1.327 . S
C1162 C1150 1.349 . S
C1162 H1156 0.950 . S
C1162 C1163 1.327 . S
C1163 H1157 0.950 . S
C1163 C1162 1.327 . S
C1163 C1167 1.429 . S
C1164 C1147 1.574 . S
C1164 H1158 0.949 . S
C1164 C1168 1.368 . S
C1165 C1146 1.429 . S
C1165 C1159 1.429 . S
C1165 C1166 1.523 . S
C1166 C1147 1.368 . S
C1166 C1160 1.368 . S
C1166 C1165 1.523 . S
C1167 C1151 1.429 . S
C1167 C1163 1.429 . S
C1167 C1168 1.523 . S
C1168 C1152 1.368 . S
C1168 C1164 1.368 . S
C1168 C1167 1.523 . S
H1169 C1144 0.950 . S
H1170 C1146 0.950 . S
H1171 C1147 0.949 . S
H1172 C1149 0.950 . S
H1173 C1151 0.950 . S
C1174 C1175 1.349 . S
C1174 C1176 1.327 . S
C1174 H1199 0.950 . S
C1175 C1174 1.349 . S
C1175 C1191 1.349 . S
C1176 C1174 1.327 . S
C1176 C1195 1.429 . S
C1176 H1200 0.950 . S
C1177 C1194 1.574 . S
C1177 C1196 1.368 . S
C1177 H1201 0.949 . S
H1178 C1182 0.949 . S
C1179 C1180 1.349 . S
C1179 C1181 1.327 . S
C1179 H1202 0.950 . S
C1180 C1179 1.349 . S
C1180 C1192 1.349 . S
C1181 C1179 1.327 . S
C1181 C1197 1.429 . S
C1181 H1203 0.950 . S
C1182 H1178 0.949 . S
C1182 C1190 1.574 . S
C1182 C1198 1.368 . S
H1183 C1191 0.950 . S
H1184 C1189 0.950 . S
H1185 C1190 0.949 . S
H1186 C1192 0.950 . S
H1187 C1193 0.950 . S
H1188 C1194 0.949 . S
C1189 H1184 0.950 . S
C1189 C1191 1.327 . S
C1189 C1195 1.429 . S
C1190 C1182 1.574 . S
C1190 H1185 0.949 . S
C1190 C1196 1.368 . S
C1191 C1175 1.349 . S
C1191 H1183 0.950 . S
C1191 C1189 1.327 . S
C1192 C1180 1.349 . S
C1192 H1186 0.950 . S
C1192 C1193 1.327 . S
C1193 H1187 0.950 . S
C1193 C1192 1.327 . S
C1193 C1197 1.429 . S
C1194 C1177 1.574 . S
C1194 H1188 0.949 . S
C1194 C1198 1.368 . S
C1195 C1176 1.429 . S
C1195 C1189 1.429 . S
C1195 C1196 1.523 . S
C1196 C1177 1.368 . S
C1196 C1190 1.368 . S
C1196 C1195 1.523 . S
C1197 C1181 1.429 . S
C1197 C1193 1.429 . S
C1197 C1198 1.523 . S
C1198 C1182 1.368 . S
C1198 C1194 1.368 . S
C1198 C1197 1.523 . S
H1199 C1174 0.950 . S
H1200 C1176 0.950 . S
H1201 C1177 0.949 . S
H1202 C1179 0.950 . S
H1203 C1181 0.950 . S
C1204 C1205 1.349 . S
C1204 C1206 1.327 . S
C1204 H1229 0.950 . S
C1205 C1204 1.349 . S
C1205 C1221 1.349 . S
C1206 C1204 1.327 . S
C1206 C1225 1.429 . S
C1206 H1230 0.950 . S
C1207 C1224 1.574 . S
C1207 C1226 1.368 . S
C1207 H1231 0.949 . S
H1208 C1212 0.949 . S
C1209 C1210 1.349 . S
C1209 C1211 1.327 . S
C1209 H1232 0.950 . S
C1210 C1209 1.349 . S
C1210 C1222 1.349 . S
C1211 C1209 1.327 . S
C1211 C1227 1.429 . S
C1211 H1233 0.950 . S
C1212 H1208 0.949 . S
C1212 C1220 1.574 . S
C1212 C1228 1.368 . S
H1213 C1221 0.950 . S
H1214 C1219 0.950 . S
H1215 C1220 0.949 . S
H1216 C1222 0.950 . S
H1217 C1223 0.950 . S
H1218 C1224 0.949 . S
C1219 H1214 0.950 . S
C1219 C1221 1.327 . S
C1219 C1225 1.429 . S
C1220 C1212 1.574 . S
C1220 H1215 0.949 . S
C1220 C1226 1.368 . S
C1221 C1205 1.349 . S
C1221 H1213 0.950 . S
C1221 C1219 1.327 . S
C1222 C1210 1.349 . S
C1222 H1216 0.950 . S
C1222 C1223 1.327 . S
C1223 H1217 0.950 . S
C1223 C1222 1.327 . S
C1223 C1227 1.429 . S
C1224 C1207 1.574 . S
C1224 H1218 0.949 . S
C1224 C1228 1.368 . S
C1225 C1206 1.429 . S
C1225 C1219 1.429 . S
C1225 C1226 1.523 . S
C1226 C1207 1.368 . S
C1226 C1220 1.368 . S
C1226 C1225 1.523 . S
C1227 C1211 1.429 . S
C1227 C1223 1.429 . S
C1227 C1228 1.523 . S
C1228 C1212 1.368 . S
C1228 C1224 1.368 . S
C1228 C1227 1.523 . S
H1229 C1204 0.950 . S
H1230 C1206 0.950 . S
H1231 C1207 0.949 . S
H1232 C1209 0.950 . S
H1233 C1211 0.950 . S
C1234 C1235 1.349 . S
C1234 C1236 1.327 . S
C1234 H1259 0.950 . S
C1235 C1234 1.349 . S
C1235 C1251 1.349 . S
C1236 C1234 1.327 . S
C1236 C1255 1.429 . S
C1236 H1260 0.950 . S
C1237 C1254 1.574 . S
C1237 C1256 1.368 . S
C1237 H1261 0.949 . S
H1238 C1242 0.949 . S
C1239 C1240 1.349 . S
C1239 C1241 1.327 . S
C1239 H1262 0.950 . S
C1240 C1239 1.349 . S
C1240 C1252 1.349 . S
C1241 C1239 1.327 . S
C1241 C1257 1.429 . S
C1241 H1263 0.950 . S
C1242 H1238 0.949 . S
C1242 C1250 1.574 . S
C1242 C1258 1.368 . S
H1243 C1251 0.950 . S
H1244 C1249 0.950 . S
H1245 C1250 0.949 . S
H1246 C1252 0.950 . S
H1247 C1253 0.950 . S
H1248 C1254 0.949 . S
C1249 H1244 0.950 . S
C1249 C1251 1.327 . S
C1249 C1255 1.429 . S
C1250 C1242 1.574 . S
C1250 H1245 0.949 . S
C1250 C1256 1.368 . S
C1251 C1235 1.349 . S
C1251 H1243 0.950 . S
C1251 C1249 1.327 . S
C1252 C1240 1.349 . S
C1252 H1246 0.950 . S
C1252 C1253 1.327 . S
C1253 H1247 0.950 . S
C1253 C1252 1.327 . S
C1253 C1257 1.429 . S
C1254 C1237 1.574 . S
C1254 H1248 0.949 . S
C1254 C1258 1.368 . S
C1255 C1236 1.429 . S
C1255 C1249 1.429 . S
C1255 C1256 1.523 . S
C1256 C1237 1.368 . S
C1256 C1250 1.368 . S
C1256 C1255 1.523 . S
C1257 C1241 1.429 . S
C1257 C1253 1.429 . S
C1257 C1258 1.523 . S
C1258 C1242 1.368 . S
C1258 C1254 1.368 . S
C1258 C1257 1.523 . S
H1259 C1234 0.950 . S
H1260 C1236 0.950 . S
H1261 C1237 0.949 . S
H1262 C1239 0.950 . S
H1263 C1241 0.950 . S
C1264 C1265 1.349 . S
C1264 C1266 1.327 . S
C1264 H1289 0.950 . S
C1265 C1264 1.349 . S
C1265 C1281 1.349 . S
C1266 C1264 1.327 . S
C1266 C1285 1.429 . S
C1266 H1290 0.976 . S
C1267 C1284 1.574 . S
C1267 C1286 1.368 . S
C1267 H1291 0.949 . S
H1268 C1272 0.949 . S
C1269 C1270 1.349 . S
C1269 C1271 1.327 . S
C1269 H1292 0.950 . S
C1270 C1269 1.349 . S
C1270 C1282 1.349 . S
C1271 C1269 1.327 . S
C1271 C1287 1.429 . S
C1271 H1293 0.950 . S
C1272 H1268 0.949 . S
C1272 C1280 1.574 . S
C1272 C1288 1.368 . S
H1273 C1281 0.950 . S
H1274 C1279 0.950 . S
H1275 C1280 0.949 . S
H1276 C1282 0.950 . S
H1277 C1283 0.950 . S
H1278 C1284 0.949 . S
C1279 H1274 0.950 . S
C1279 C1281 1.327 . S
C1279 C1285 1.429 . S
C1280 C1272 1.574 . S
C1280 H1275 0.949 . S
C1280 C1286 1.368 1_556 S
C1281 C1265 1.349 . S
C1281 H1273 0.950 . S
C1281 C1279 1.327 . S
C1282 C1270 1.349 . S
C1282 H1276 0.950 . S
C1282 C1283 1.327 . S
C1283 H1277 0.950 . S
C1283 C1282 1.327 . S
C1283 C1287 1.429 . S
C1284 C1267 1.574 . S
C1284 H1278 0.949 . S
C1284 C1288 1.368 1_554 S
C1285 C1266 1.429 . S
C1285 C1279 1.429 . S
C1285 C1286 1.523 . S
C1286 C1267 1.368 . S
C1286 C1280 1.368 1_554 S
C1286 C1285 1.523 . S
C1287 C1271 1.429 . S
C1287 C1283 1.429 . S
C1287 C1288 1.523 . S
C1288 C1272 1.368 . S
C1288 C1284 1.368 1_556 S
C1288 C1287 1.523 . S
H1289 C1264 0.950 . S
H1290 C1266 0.976 . S
H1291 C1267 0.949 . S
H1292 C1269 0.950 . S
H1293 C1271 0.950 . S
C1294 C1295 1.349 . S
C1294 C1296 1.327 . S
C1294 H1319 0.950 . S
C1295 C1294 1.349 . S
C1295 C1311 1.349 . S
C1296 C1294 1.327 . S
C1296 C1315 1.429 . S
C1296 H1320 0.950 . S
C1297 C1314 1.574 . S
C1297 C1316 1.368 1_556 S
C1297 H1321 0.949 . S
H1298 C1302 0.949 . S
C1299 C1300 1.349 . S
C1299 C1301 1.327 . S
C1299 H1322 0.950 . S
C1300 C1299 1.349 . S
C1300 C1312 1.349 . S
C1301 C1299 1.327 . S
C1301 C1317 1.429 . S
C1301 H1323 0.950 . S
C1302 H1298 0.949 . S
C1302 C1310 1.574 . S
C1302 C1318 1.368 1_554 S
H1303 C1311 0.950 . S
H1304 C1309 0.950 . S
H1305 C1310 0.949 . S
H1306 C1312 0.950 . S
H1307 C1313 0.950 . S
H1308 C1314 0.949 . S
C1309 H1304 0.950 . S
C1309 C1311 1.327 . S
C1309 C1315 1.429 . S
C1310 C1302 1.574 . S
C1310 H1305 0.949 . S
C1310 C1316 1.368 . S
C1311 C1295 1.349 . S
C1311 H1303 0.950 . S
C1311 C1309 1.327 . S
C1312 C1300 1.349 . S
C1312 H1306 0.950 . S
C1312 C1313 1.327 . S
C1313 H1307 0.950 . S
C1313 C1312 1.327 . S
C1313 C1317 1.429 . S
C1314 C1297 1.574 . S
C1314 H1308 0.949 . S
C1314 C1318 1.368 . S
C1315 C1296 1.429 . S
C1315 C1309 1.429 . S
C1315 C1316 1.523 . S
C1316 C1297 1.368 1_554 S
C1316 C1310 1.368 . S
C1316 C1315 1.523 . S
C1317 C1301 1.429 . S
C1317 C1313 1.429 . S
C1317 C1318 1.523 . S
C1318 C1302 1.368 1_556 S
C1318 C1314 1.368 . S
C1318 C1317 1.523 . S
H1319 C1294 0.950 . S
H1320 C1296 0.950 . S
H1321 C1297 0.949 . S
H1322 C1299 0.950 . S
H1323 C1301 0.950 . S
C1324 C1325 1.349 . S
C1324 C1326 1.327 . S
C1324 H1349 0.950 . S
C1325 C1324 1.349 . S
C1325 C1341 1.349 . S
C1326 C1324 1.327 . S
C1326 C1345 1.429 . S
C1326 H1350 0.950 1_554 S
C1327 C1344 1.574 . S
C1327 C1346 1.368 . S
C1327 H1351 0.949 . S
H1328 C1332 0.949 . S
C1329 C1330 1.349 . S
C1329 C1331 1.327 . S
C1329 H1352 0.950 . S
C1330 C1329 1.349 . S
C1330 C1342 1.349 . S
C1331 C1329 1.327 . S
C1331 C1347 1.429 . S
C1331 H1353 0.950 . S
C1332 H1328 0.949 . S
C1332 C1340 1.574 . S
C1332 C1348 1.368 . S
H1333 C1341 0.950 . S
H1334 C1339 0.950 . S
H1335 C1340 0.949 . S
H1336 C1342 0.950 . S
H1337 C1343 0.950 . S
H1338 C1344 0.949 . S
C1339 H1334 0.950 . S
C1339 C1341 1.327 . S
C1339 C1345 1.429 . S
C1340 C1332 1.574 . S
C1340 H1335 0.949 . S
C1340 C1346 1.368 1_556 S
C1341 C1325 1.349 . S
C1341 H1333 0.950 . S
C1341 C1339 1.327 . S
C1342 C1330 1.349 . S
C1342 H1336 0.950 . S
C1342 C1343 1.327 . S
C1343 H1337 0.950 . S
C1343 C1342 1.327 . S
C1343 C1347 1.429 . S
C1344 C1327 1.574 . S
C1344 H1338 0.949 . S
C1344 C1348 1.368 1_554 S
C1345 C1326 1.429 . S
C1345 C1339 1.429 . S
C1345 C1346 1.523 . S
C1346 C1327 1.368 . S
C1346 C1340 1.368 1_554 S
C1346 C1345 1.523 . S
C1347 C1331 1.429 . S
C1347 C1343 1.429 . S
C1347 C1348 1.523 . S
C1348 C1332 1.368 . S
C1348 C1344 1.368 1_556 S
C1348 C1347 1.523 . S
H1349 C1324 0.950 . S
H1350 C1326 0.950 1_556 S
H1351 C1327 0.949 . S
H1352 C1329 0.950 . S
H1353 C1331 0.950 . S
C1354 C1355 1.349 . S
C1354 C1356 1.327 . S
C1354 H1379 0.950 . S
C1355 C1354 1.349 . S
C1355 C1371 1.349 . S
C1356 C1354 1.327 . S
C1356 C1375 1.429 . S
C1356 H1380 0.950 1_554 S
C1357 C1374 1.574 . S
C1357 C1376 1.368 . S
C1357 H1381 0.949 . S
H1358 C1362 0.949 . S
C1359 C1360 1.349 . S
C1359 C1361 1.327 . S
C1359 H1382 0.950 . S
C1360 C1359 1.349 . S
C1360 C1372 1.349 . S
C1361 C1359 1.327 . S
C1361 C1377 1.429 . S
C1361 H1383 0.950 . S
C1362 H1358 0.949 . S
C1362 C1370 1.574 . S
C1362 C1378 1.368 . S
H1363 C1371 0.950 . S
H1364 C1369 0.950 . S
H1365 C1370 0.949 . S
H1366 C1372 0.950 . S
H1367 C1373 0.950 . S
H1368 C1374 0.949 . S
C1369 H1364 0.950 . S
C1369 C1371 1.327 . S
C1369 C1375 1.429 . S
C1370 C1362 1.574 . S
C1370 H1365 0.949 . S
C1370 C1376 1.368 1_556 S
C1371 C1355 1.349 . S
C1371 H1363 0.950 . S
C1371 C1369 1.327 . S
C1372 C1360 1.349 . S
C1372 H1366 0.950 . S
C1372 C1373 1.327 . S
C1373 H1367 0.950 . S
C1373 C1372 1.327 . S
C1373 C1377 1.429 . S
C1374 C1357 1.574 . S
C1374 H1368 0.949 . S
C1374 C1378 1.368 1_554 S
C1375 C1356 1.429 . S
C1375 C1369 1.429 . S
C1375 C1376 1.523 . S
C1376 C1357 1.368 . S
C1376 C1370 1.368 1_554 S
C1376 C1375 1.523 . S
C1377 C1361 1.429 . S
C1377 C1373 1.429 . S
C1377 C1378 1.523 . S
C1378 C1362 1.368 . S
C1378 C1374 1.368 1_556 S
C1378 C1377 1.523 . S
H1379 C1354 0.950 . S
H1380 C1356 0.950 1_556 S
H1381 C1357 0.949 . S
H1382 C1359 0.950 . S
H1383 C1361 0.950 . S
C1384 C1385 1.349 . S
C1384 C1386 1.327 . S
C1384 H1409 0.950 . S
C1385 C1384 1.349 . S
C1385 C1401 1.349 . S
C1386 C1384 1.327 . S
C1386 C1405 1.429 . S
C1386 H1410 0.950 . S
C1387 C1404 1.574 . S
C1387 C1406 1.368 . S
C1387 H1411 0.949 . S
H1388 C1392 0.949 . S
C1389 C1390 1.349 . S
C1389 C1391 1.327 . S
C1389 H1412 0.950 . S
C1390 C1389 1.349 . S
C1390 C1402 1.349 . S
C1391 C1389 1.327 . S
C1391 C1407 1.429 . S
C1391 H1413 0.950 . S
C1392 H1388 0.949 . S
C1392 C1400 1.574 . S
C1392 C1408 1.368 . S
H1393 C1401 0.950 . S
H1394 C1399 0.950 . S
H1395 C1400 0.949 . S
H1396 C1402 0.950 . S
H1397 C1403 0.950 . S
H1398 C1404 0.949 . S
C1399 H1394 0.950 . S
C1399 C1401 1.327 . S
C1399 C1405 1.429 . S
C1400 C1392 1.574 . S
C1400 H1395 0.949 . S
C1400 C1406 1.368 . S
C1401 C1385 1.349 . S
C1401 H1393 0.950 . S
C1401 C1399 1.327 . S
C1402 C1390 1.349 . S
C1402 H1396 0.950 . S
C1402 C1403 1.327 . S
C1403 H1397 0.950 . S
C1403 C1402 1.327 . S
C1403 C1407 1.429 . S
C1404 C1387 1.574 . S
C1404 H1398 0.949 . S
C1404 C1408 1.368 . S
C1405 C1386 1.429 . S
C1405 C1399 1.429 . S
C1405 C1406 1.523 . S
C1406 C1387 1.368 . S
C1406 C1400 1.368 . S
C1406 C1405 1.523 . S
C1407 C1391 1.429 . S
C1407 C1403 1.429 . S
C1407 C1408 1.523 . S
C1408 C1392 1.368 . S
C1408 C1404 1.368 . S
C1408 C1407 1.523 . S
H1409 C1384 0.950 . S
H1410 C1386 0.950 . S
H1411 C1387 0.949 . S
H1412 C1389 0.950 . S
H1413 C1391 0.950 . S
C1414 C1415 1.349 . S
C1414 C1416 1.327 . S
C1414 H1439 0.950 . S
C1415 C1414 1.349 . S
C1415 C1431 1.349 . S
C1416 C1414 1.327 . S
C1416 C1435 1.429 . S
C1416 H1440 0.950 . S
C1417 C1434 1.574 . S
C1417 C1436 1.368 . S
C1417 H1441 0.949 . S
H1418 C1422 0.949 . S
C1419 C1420 1.349 . S
C1419 C1421 1.327 . S
C1419 H1442 0.950 . S
C1420 C1419 1.349 . S
C1420 C1432 1.349 . S
C1421 C1419 1.327 . S
C1421 C1437 1.429 . S
C1421 H1443 0.950 . S
C1422 H1418 0.949 . S
C1422 C1430 1.574 . S
C1422 C1438 1.368 . S
H1423 C1431 0.950 . S
H1424 C1429 0.950 . S
H1425 C1430 0.949 . S
H1426 C1432 0.950 . S
H1427 C1433 0.950 . S
H1428 C1434 0.949 . S
C1429 H1424 0.950 . S
C1429 C1431 1.327 . S
C1429 C1435 1.429 . S
C1430 C1422 1.574 . S
C1430 H1425 0.949 . S
C1430 C1436 1.368 . S
C1431 C1415 1.349 . S
C1431 H1423 0.950 . S
C1431 C1429 1.327 . S
C1432 C1420 1.349 . S
C1432 H1426 0.950 . S
C1432 C1433 1.327 . S
C1433 H1427 0.950 . S
C1433 C1432 1.327 . S
C1433 C1437 1.429 . S
C1434 C1417 1.574 . S
C1434 H1428 0.949 . S
C1434 C1438 1.368 . S
C1435 C1416 1.429 . S
C1435 C1429 1.429 . S
C1435 C1436 1.523 . S
C1436 C1417 1.368 . S
C1436 C1430 1.368 . S
C1436 C1435 1.523 . S
C1437 C1421 1.429 . S
C1437 C1433 1.429 . S
C1437 C1438 1.523 . S
C1438 C1422 1.368 . S
C1438 C1434 1.368 . S
C1438 C1437 1.523 . S
H1439 C1414 0.950 . S
H1440 C1416 0.950 . S
H1441 C1417 0.949 . S
H1442 C1419 0.950 . S
H1443 C1421 0.950 . S
C1444 C1445 1.349 . S
C1444 C1446 1.327 . S
C1444 H1469 0.950 . S
C1445 C1444 1.349 . S
C1445 C1461 1.349 . S
C1446 C1444 1.327 . S
C1446 C1465 1.429 . S
C1446 H1470 0.950 . S
C1447 C1464 1.574 . S
C1447 C1466 1.368 . S
C1447 H1471 0.949 . S
H1448 C1452 0.949 . S
C1449 C1450 1.349 . S
C1449 C1451 1.327 . S
C1449 H1472 0.950 . S
C1450 C1449 1.349 . S
C1450 C1462 1.349 . S
C1451 C1449 1.327 . S
C1451 C1467 1.429 . S
C1451 H1473 0.950 . S
C1452 H1448 0.949 . S
C1452 C1460 1.574 . S
C1452 C1468 1.368 . S
H1453 C1461 0.950 . S
H1454 C1459 0.950 . S
H1455 C1460 0.949 . S
H1456 C1462 0.950 . S
H1457 C1463 0.950 . S
H1458 C1464 0.949 . S
C1459 H1454 0.950 . S
C1459 C1461 1.327 . S
C1459 C1465 1.429 . S
C1460 C1452 1.574 . S
C1460 H1455 0.949 . S
C1460 C1466 1.368 . S
C1461 C1445 1.349 . S
C1461 H1453 0.950 . S
C1461 C1459 1.327 . S
C1462 C1450 1.349 . S
C1462 H1456 0.950 . S
C1462 C1463 1.327 . S
C1463 H1457 0.950 . S
C1463 C1462 1.327 . S
C1463 C1467 1.429 . S
C1464 C1447 1.574 . S
C1464 H1458 0.949 . S
C1464 C1468 1.368 . S
C1465 C1446 1.429 . S
C1465 C1459 1.429 . S
C1465 C1466 1.523 . S
C1466 C1447 1.368 . S
C1466 C1460 1.368 . S
C1466 C1465 1.523 . S
C1467 C1451 1.429 . S
C1467 C1463 1.429 . S
C1467 C1468 1.523 . S
C1468 C1452 1.368 . S
C1468 C1464 1.368 . S
C1468 C1467 1.523 . S
H1469 C1444 0.950 . S
H1470 C1446 0.950 . S
H1471 C1447 0.949 . S
H1472 C1449 0.950 . S
H1473 C1451 0.950 . S
C1474 C1475 1.349 . S
C1474 C1476 1.327 . S
C1474 H1499 0.950 . S
C1475 C1474 1.349 . S
C1475 C1491 1.349 . S
C1476 C1474 1.327 . S
C1476 C1495 1.429 . S
C1476 H1500 0.950 . S
C1477 C1494 1.574 . S
C1477 C1496 1.368 . S
C1477 H1501 0.949 . S
H1478 C1482 0.949 . S
C1479 C1480 1.349 . S
C1479 C1481 1.327 . S
C1479 H1502 0.950 . S
C1480 C1479 1.349 . S
C1480 C1492 1.349 . S
C1481 C1479 1.327 . S
C1481 C1497 1.429 . S
C1481 H1503 0.950 . S
C1482 H1478 0.949 . S
C1482 C1490 1.574 . S
C1482 C1498 1.368 . S
H1483 C1491 0.950 . S
H1484 C1489 0.950 . S
H1485 C1490 0.949 . S
H1486 C1492 0.950 . S
H1487 C1493 0.950 . S
H1488 C1494 0.949 . S
C1489 H1484 0.950 . S
C1489 C1491 1.327 . S
C1489 C1495 1.429 . S
C1490 C1482 1.574 . S
C1490 H1485 0.949 . S
C1490 C1496 1.368 . S
C1491 C1475 1.349 . S
C1491 H1483 0.950 . S
C1491 C1489 1.327 . S
C1492 C1480 1.349 . S
C1492 H1486 0.950 . S
C1492 C1493 1.327 . S
C1493 H1487 0.950 . S
C1493 C1492 1.327 . S
C1493 C1497 1.429 . S
C1494 C1477 1.574 . S
C1494 H1488 0.949 . S
C1494 C1498 1.368 . S
C1495 C1476 1.429 . S
C1495 C1489 1.429 . S
C1495 C1496 1.523 . S
C1496 C1477 1.368 . S
C1496 C1490 1.368 . S
C1496 C1495 1.523 . S
C1497 C1481 1.429 . S
C1497 C1493 1.429 . S
C1497 C1498 1.523 . S
C1498 C1482 1.368 . S
C1498 C1494 1.368 . S
C1498 C1497 1.523 . S
H1499 C1474 0.950 . S
H1500 C1476 0.950 . S
H1501 C1477 0.949 . S
H1502 C1479 0.950 . S
H1503 C1481 0.950 . S
C1504 C1505 1.349 . S
C1504 C1506 1.327 . S
C1504 H1529 0.950 . S
C1505 C1504 1.349 . S
C1505 C1521 1.349 . S
C1506 C1504 1.327 . S
C1506 C1525 1.429 . S
C1506 H1530 0.950 . S
C1507 C1524 1.574 . S
C1507 C1526 1.368 . S
C1507 H1531 0.949 . S
H1508 C1512 0.949 . S
C1509 C1510 1.349 . S
C1509 C1511 1.327 . S
C1509 H1532 0.950 . S
C1510 C1509 1.349 . S
C1510 C1522 1.349 . S
C1511 C1509 1.327 . S
C1511 C1527 1.429 . S
C1511 H1533 0.950 . S
C1512 H1508 0.949 . S
C1512 C1520 1.574 . S
C1512 C1528 1.368 . S
H1513 C1521 0.950 . S
H1514 C1519 0.950 . S
H1515 C1520 0.949 . S
H1516 C1522 0.950 . S
H1517 C1523 0.950 . S
H1518 C1524 0.949 . S
C1519 H1514 0.950 . S
C1519 C1521 1.327 . S
C1519 C1525 1.429 . S
C1520 C1512 1.574 . S
C1520 H1515 0.949 . S
C1520 C1526 1.368 . S
C1521 C1505 1.349 . S
C1521 H1513 0.950 . S
C1521 C1519 1.327 . S
C1522 C1510 1.349 . S
C1522 H1516 0.950 . S
C1522 C1523 1.327 . S
C1523 H1517 0.950 . S
C1523 C1522 1.327 . S
C1523 C1527 1.429 . S
C1524 C1507 1.574 . S
C1524 H1518 0.949 . S
C1524 C1528 1.368 . S
C1525 C1506 1.429 . S
C1525 C1519 1.429 . S
C1525 C1526 1.523 . S
C1526 C1507 1.368 . S
C1526 C1520 1.368 . S
C1526 C1525 1.523 . S
C1527 C1511 1.429 . S
C1527 C1523 1.429 . S
C1527 C1528 1.523 . S
C1528 C1512 1.368 . S
C1528 C1524 1.368 . S
C1528 C1527 1.523 . S
H1529 C1504 0.950 . S
H1530 C1506 0.950 . S
H1531 C1507 0.949 . S
H1532 C1509 0.950 . S
H1533 C1511 0.950 . S
C1534 C1535 1.349 . S
C1534 C1536 1.327 . S
C1534 H1559 0.950 . S
C1535 C1534 1.349 . S
C1535 C1551 1.349 . S
C1536 C1534 1.327 . S
C1536 C1555 1.429 . S
C1536 H1560 0.950 . S
C1537 C1554 1.574 . S
C1537 C1556 1.368 . S
C1537 H1561 0.949 . S
H1538 C1542 0.949 . S
C1539 C1540 1.349 . S
C1539 C1541 1.327 . S
C1539 H1562 0.950 . S
C1540 C1539 1.349 . S
C1540 C1552 1.349 . S
C1541 C1539 1.327 . S
C1541 C1557 1.429 . S
C1541 H1563 0.950 . S
C1542 H1538 0.949 . S
C1542 C1550 1.574 . S
C1542 C1558 1.368 . S
H1543 C1551 0.950 . S
H1544 C1549 0.950 . S
H1545 C1550 0.949 . S
H1546 C1552 0.950 . S
H1547 C1553 0.950 . S
H1548 C1554 0.949 . S
C1549 H1544 0.950 . S
C1549 C1551 1.327 . S
C1549 C1555 1.429 . S
C1550 C1542 1.574 . S
C1550 H1545 0.949 . S
C1550 C1556 1.368 . S
C1551 C1535 1.349 . S
C1551 H1543 0.950 . S
C1551 C1549 1.327 . S
C1552 C1540 1.349 . S
C1552 H1546 0.950 . S
C1552 C1553 1.327 . S
C1553 H1547 0.950 . S
C1553 C1552 1.327 . S
C1553 C1557 1.429 . S
C1554 C1537 1.574 . S
C1554 H1548 0.949 . S
C1554 C1558 1.368 . S
C1555 C1536 1.429 . S
C1555 C1549 1.429 . S
C1555 C1556 1.523 . S
C1556 C1537 1.368 . S
C1556 C1550 1.368 . S
C1556 C1555 1.523 . S
C1557 C1541 1.429 . S
C1557 C1553 1.429 . S
C1557 C1558 1.523 . S
C1558 C1542 1.368 . S
C1558 C1554 1.368 . S
C1558 C1557 1.523 . S
H1559 C1534 0.950 . S
H1560 C1536 0.950 . S
H1561 C1537 0.949 . S
H1562 C1539 0.950 . S
H1563 C1541 0.950 . S
C1564 C1565 1.349 . S
C1564 C1566 1.327 . S
C1564 H1589 0.950 . S
C1565 C1564 1.349 . S
C1565 C1581 1.349 . S
C1566 C1564 1.327 . S
C1566 C1585 1.429 . S
C1566 H1590 0.950 . S
C1567 C1584 1.574 . S
C1567 C1586 1.368 . S
C1567 H1591 0.949 . S
H1568 C1572 0.949 . S
C1569 C1570 1.349 . S
C1569 C1571 1.327 . S
C1569 H1592 0.950 . S
C1570 C1569 1.349 . S
C1570 C1582 1.349 . S
C1571 C1569 1.327 . S
C1571 C1587 1.429 . S
C1571 H1593 0.950 . S
C1572 H1568 0.949 . S
C1572 C1580 1.574 . S
C1572 C1588 1.368 . S
H1573 C1581 0.950 . S
H1574 C1579 0.950 . S
H1575 C1580 0.949 . S
H1576 C1582 0.950 . S
H1577 C1583 0.950 . S
H1578 C1584 0.949 . S
C1579 H1574 0.950 . S
C1579 C1581 1.327 . S
C1579 C1585 1.429 . S
C1580 C1572 1.574 . S
C1580 H1575 0.949 . S
C1580 C1586 1.368 . S
C1581 C1565 1.349 . S
C1581 H1573 0.950 . S
C1581 C1579 1.327 . S
C1582 C1570 1.349 . S
C1582 H1576 0.950 . S
C1582 C1583 1.327 . S
C1583 H1577 0.950 . S
C1583 C1582 1.327 . S
C1583 C1587 1.429 . S
C1584 C1567 1.574 . S
C1584 H1578 0.949 . S
C1584 C1588 1.368 . S
C1585 C1566 1.429 . S
C1585 C1579 1.429 . S
C1585 C1586 1.523 . S
C1586 C1567 1.368 . S
C1586 C1580 1.368 . S
C1586 C1585 1.523 . S
C1587 C1571 1.429 . S
C1587 C1583 1.429 . S
C1587 C1588 1.523 . S
C1588 C1572 1.368 . S
C1588 C1584 1.368 . S
C1588 C1587 1.523 . S
H1589 C1564 0.950 . S
H1590 C1566 0.950 . S
H1591 C1567 0.949 . S
H1592 C1569 0.950 . S
H1593 C1571 0.950 . S
C1594 C1595 1.349 . S
C1594 C1596 1.327 . S
C1594 H1619 0.950 . S
C1595 C1594 1.349 . S
C1595 C1611 1.349 . S
C1596 C1594 1.327 . S
C1596 C1615 1.429 . S
C1596 H1620 0.950 . S
C1597 C1614 1.574 . S
C1597 C1616 1.368 . S
C1597 H1621 0.949 . S
H1598 C1602 0.949 . S
C1599 C1600 1.349 . S
C1599 C1601 1.327 . S
C1599 H1622 0.950 . S
C1600 C1599 1.349 . S
C1600 C1612 1.349 . S
C1601 C1599 1.327 . S
C1601 C1617 1.429 . S
C1601 H1623 0.950 . S
C1602 H1598 0.949 . S
C1602 C1610 1.574 . S
C1602 C1618 1.368 . S
H1603 C1611 0.950 . S
H1604 C1609 0.950 . S
H1605 C1610 0.949 . S
H1606 C1612 0.950 . S
H1607 C1613 0.950 . S
H1608 C1614 0.949 . S
C1609 H1604 0.950 . S
C1609 C1611 1.327 . S
C1609 C1615 1.429 . S
C1610 C1602 1.574 . S
C1610 H1605 0.949 . S
C1610 C1616 1.368 . S
C1611 C1595 1.349 . S
C1611 H1603 0.950 . S
C1611 C1609 1.327 . S
C1612 C1600 1.349 . S
C1612 H1606 0.950 . S
C1612 C1613 1.327 . S
C1613 H1607 0.950 . S
C1613 C1612 1.327 . S
C1613 C1617 1.429 . S
C1614 C1597 1.574 . S
C1614 H1608 0.949 . S
C1614 C1618 1.368 . S
C1615 C1596 1.429 . S
C1615 C1609 1.429 . S
C1615 C1616 1.523 . S
C1616 C1597 1.368 . S
C1616 C1610 1.368 . S
C1616 C1615 1.523 . S
C1617 C1601 1.429 . S
C1617 C1613 1.429 . S
C1617 C1618 1.523 . S
C1618 C1602 1.368 . S
C1618 C1614 1.368 . S
C1618 C1617 1.523 . S
H1619 C1594 0.950 . S
H1620 C1596 0.950 . S
H1621 C1597 0.949 . S
H1622 C1599 0.950 . S
H1623 C1601 0.950 . S
C1624 C1625 1.349 . S
C1624 C1626 1.327 . S
C1624 H1649 0.950 . S
C1625 C1624 1.349 . S
C1625 C1641 1.349 . S
C1626 C1624 1.327 . S
C1626 C1645 1.429 . S
C1626 H1650 0.950 . S
C1627 C1644 1.574 . S
C1627 C1646 1.368 . S
C1627 H1651 0.949 . S
H1628 C1632 0.949 . S
C1629 C1630 1.349 . S
C1629 C1631 1.327 . S
C1629 H1652 0.950 . S
C1630 C1629 1.349 . S
C1630 C1642 1.349 . S
C1631 C1629 1.327 . S
C1631 C1647 1.429 . S
C1631 H1653 0.950 . S
C1632 H1628 0.949 . S
C1632 C1640 1.574 . S
C1632 C1648 1.368 . S
H1633 C1641 0.950 . S
H1634 C1639 0.950 . S
H1635 C1640 0.949 . S
H1636 C1642 0.950 . S
H1637 C1643 0.950 . S
H1638 C1644 0.949 . S
C1639 H1634 0.950 . S
C1639 C1641 1.327 . S
C1639 C1645 1.429 . S
C1640 C1632 1.574 . S
C1640 H1635 0.949 . S
C1640 C1646 1.368 . S
C1641 C1625 1.349 . S
C1641 H1633 0.950 . S
C1641 C1639 1.327 . S
C1642 C1630 1.349 . S
C1642 H1636 0.950 . S
C1642 C1643 1.327 . S
C1643 H1637 0.950 . S
C1643 C1642 1.327 . S
C1643 C1647 1.429 . S
C1644 C1627 1.574 . S
C1644 H1638 0.949 . S
C1644 C1648 1.368 . S
C1645 C1626 1.429 . S
C1645 C1639 1.429 . S
C1645 C1646 1.523 . S
C1646 C1627 1.368 . S
C1646 C1640 1.368 . S
C1646 C1645 1.523 . S
C1647 C1631 1.429 . S
C1647 C1643 1.429 . S
C1647 C1648 1.523 . S
C1648 C1632 1.368 . S
C1648 C1644 1.368 . S
C1648 C1647 1.523 . S
H1649 C1624 0.950 . S
H1650 C1626 0.950 . S
H1651 C1627 0.949 . S
H1652 C1629 0.950 . S
H1653 C1631 0.950 . S
C1654 C1655 1.349 . S
C1654 C1656 1.327 . S
C1654 H1679 0.950 . S
C1655 C1654 1.349 . S
C1655 C1671 1.349 . S
C1656 C1654 1.327 . S
C1656 C1675 1.429 . S
C1656 H1680 0.950 . S
C1657 C1674 1.574 . S
C1657 C1676 1.368 . S
C1657 H1681 0.949 . S
H1658 C1662 0.949 . S
C1659 C1660 1.349 . S
C1659 C1661 1.327 . S
C1659 H1682 0.950 . S
C1660 C1659 1.349 . S
C1660 C1672 1.349 . S
C1661 C1659 1.327 . S
C1661 C1677 1.429 . S
C1661 H1683 0.950 . S
C1662 H1658 0.949 . S
C1662 C1670 1.574 . S
C1662 C1678 1.368 . S
H1663 C1671 0.950 . S
H1664 C1669 0.950 . S
H1665 C1670 0.949 . S
H1666 C1672 0.950 . S
H1667 C1673 0.950 . S
H1668 C1674 0.949 . S
C1669 H1664 0.950 . S
C1669 C1671 1.327 . S
C1669 C1675 1.429 . S
C1670 C1662 1.574 . S
C1670 H1665 0.949 . S
C1670 C1676 1.368 . S
C1671 C1655 1.349 . S
C1671 H1663 0.950 . S
C1671 C1669 1.327 . S
C1672 C1660 1.349 . S
C1672 H1666 0.950 . S
C1672 C1673 1.327 . S
C1673 H1667 0.950 . S
C1673 C1672 1.327 . S
C1673 C1677 1.429 . S
C1674 C1657 1.574 . S
C1674 H1668 0.949 . S
C1674 C1678 1.368 . S
C1675 C1656 1.429 . S
C1675 C1669 1.429 . S
C1675 C1676 1.523 . S
C1676 C1657 1.368 . S
C1676 C1670 1.368 . S
C1676 C1675 1.523 . S
C1677 C1661 1.429 . S
C1677 C1673 1.429 . S
C1677 C1678 1.523 . S
C1678 C1662 1.368 . S
C1678 C1674 1.368 . S
C1678 C1677 1.523 . S
H1679 C1654 0.950 . S
H1680 C1656 0.950 . S
H1681 C1657 0.949 . S
H1682 C1659 0.950 . S
H1683 C1661 0.950 . S
C1684 C1685 1.349 . S
C1684 C1686 1.327 . S
C1684 H1709 0.950 . S
C1685 C1684 1.349 . S
C1685 C1701 1.349 . S
C1686 C1684 1.327 . S
C1686 C1705 1.429 . S
C1686 H1710 0.950 . S
C1687 C1704 1.574 . S
C1687 C1706 1.368 . S
C1687 H1711 0.949 . S
H1688 C1692 0.949 . S
C1689 C1690 1.349 . S
C1689 C1691 1.327 . S
C1689 H1712 0.950 . S
C1690 C1689 1.349 . S
C1690 C1702 1.349 . S
C1691 C1689 1.327 . S
C1691 C1707 1.429 . S
C1691 H1713 0.950 . S
C1692 H1688 0.949 . S
C1692 C1700 1.574 . S
C1692 C1708 1.368 . S
H1693 C1701 0.950 . S
H1694 C1699 0.950 . S
H1695 C1700 0.949 . S
H1696 C1702 0.950 . S
H1697 C1703 0.950 . S
H1698 C1704 0.949 . S
C1699 H1694 0.950 . S
C1699 C1701 1.327 . S
C1699 C1705 1.429 . S
C1700 C1692 1.574 . S
C1700 H1695 0.949 . S
C1700 C1706 1.368 . S
C1701 C1685 1.349 . S
C1701 H1693 0.950 . S
C1701 C1699 1.327 . S
C1702 C1690 1.349 . S
C1702 H1696 0.950 . S
C1702 C1703 1.327 . S
C1703 H1697 0.950 . S
C1703 C1702 1.327 . S
C1703 C1707 1.429 . S
C1704 C1687 1.574 . S
C1704 H1698 0.949 . S
C1704 C1708 1.368 . S
C1705 C1686 1.429 . S
C1705 C1699 1.429 . S
C1705 C1706 1.523 . S
C1706 C1687 1.368 . S
C1706 C1700 1.368 . S
C1706 C1705 1.523 . S
C1707 C1691 1.429 . S
C1707 C1703 1.429 . S
C1707 C1708 1.523 . S
C1708 C1692 1.368 . S
C1708 C1704 1.368 . S
C1708 C1707 1.523 . S
H1709 C1684 0.950 . S
H1710 C1686 0.950 . S
H1711 C1687 0.949 . S
H1712 C1689 0.950 . S
H1713 C1691 0.950 . S
C1714 C1715 1.349 . S
C1714 C1716 1.327 . S
C1714 H1739 0.950 . S
C1715 C1714 1.349 . S
C1715 C1731 1.349 . S
C1716 C1714 1.327 . S
C1716 C1735 1.429 . S
C1716 H1740 0.950 . S
C1717 C1734 1.574 . S
C1717 C1736 1.368 . S
C1717 H1741 0.949 . S
H1718 C1722 0.949 . S
C1719 C1720 1.349 . S
C1719 C1721 1.327 . S
C1719 H1742 0.950 . S
C1720 C1719 1.349 . S
C1720 C1732 1.349 . S
C1721 C1719 1.327 . S
C1721 C1737 1.429 . S
C1721 H1743 0.950 . S
C1722 H1718 0.949 . S
C1722 C1730 1.574 . S
C1722 C1738 1.368 . S
H1723 C1731 0.950 . S
H1724 C1729 0.950 . S
H1725 C1730 0.949 . S
H1726 C1732 0.950 . S
H1727 C1733 0.950 . S
H1728 C1734 0.949 . S
C1729 H1724 0.950 . S
C1729 C1731 1.327 . S
C1729 C1735 1.429 . S
C1730 C1722 1.574 . S
C1730 H1725 0.949 . S
C1730 C1736 1.368 . S
C1731 C1715 1.349 . S
C1731 H1723 0.950 . S
C1731 C1729 1.327 . S
C1732 C1720 1.349 . S
C1732 H1726 0.950 . S
C1732 C1733 1.327 . S
C1733 H1727 0.950 . S
C1733 C1732 1.327 . S
C1733 C1737 1.429 . S
C1734 C1717 1.574 . S
C1734 H1728 0.949 . S
C1734 C1738 1.368 . S
C1735 C1716 1.429 . S
C1735 C1729 1.429 . S
C1735 C1736 1.523 . S
C1736 C1717 1.368 . S
C1736 C1730 1.368 . S
C1736 C1735 1.523 . S
C1737 C1721 1.429 . S
C1737 C1733 1.429 . S
C1737 C1738 1.523 . S
C1738 C1722 1.368 . S
C1738 C1734 1.368 . S
C1738 C1737 1.523 . S
H1739 C1714 0.950 . S
H1740 C1716 0.950 . S
H1741 C1717 0.949 . S
H1742 C1719 0.950 . S
H1743 C1721 0.950 . S
C545 C20 1.581 . S
C550 C224 1.581 . S
C575 C258 1.581 . S
C580 C54 1.581 . S
C605 C156 1.581 . S
C610 C88 1.581 . S
C635 C190 1.581 . S
C640 C122 1.581 . S
C665 C292 1.581 . S
C670 C496 1.581 . S
C695 C326 1.581 . S
C700 C530 1.581 . S
C725 C428 1.581 . S
C730 C360 1.581 . S
C755 C394 1.581 . S
C760 C462 1.581 . S
C785 C281 2.491 . S
C790 C9 2.491 . S
C815 C315 2.491 . S
C820 C43 2.491 . S
C845 C349 2.491 . S
C850 C77 2.491 . S
C875 C383 2.491 . S
C880 C111 2.491 . S
C905 C417 2.491 . S
C910 C145 2.491 . S
C935 C451 2.491 . S
C940 C179 2.491 . S
C965 C213 2.491 . S
C970 C485 2.491 . S
C995 C247 2.491 . S
C1000 C519 2.491 . S
C1025 C339 0.493 . S
C1030 C2 0.440 . S
C1055 C373 0.493 . S
C1060 C36 0.440 . S
C1085 C407 0.493 . S
C1090 C70 0.440 . S
C1115 C305 0.493 . S
C1120 C104 0.440 . S
C1145 C138 0.440 . S
C1150 C543 0.493 . S
C1175 C172 0.440 . S
C1180 C441 0.493 . S
C1205 C206 0.440 . S
C1210 C475 0.493 . S
C1235 C240 0.440 . S
C1240 C509 0.493 . S
C1265 C67 0.493 . S
C1270 C274 0.440 . S
C1295 C101 0.493 . S
C1300 C308 0.440 . S
C1325 C135 0.493 . S
C1330 C342 0.440 . S
C1355 C33 0.493 . S
C1360 C376 0.440 . S
C1385 C271 0.493 . S
C1390 C410 0.440 . S
C1415 C169 0.493 . S
C1420 C444 0.440 . S
C1445 C203 0.493 . S
C1450 C478 0.440 . S
C1475 C512 0.440 . S
C1480 C237 0.493 . S
C1505 C73 0.373 . S
C1510 C5 0.373 . S
C1535 C107 0.373 . S
C1540 C39 0.373 . S
C1565 C141 0.373 . S
C1570 C209 0.373 . S
C1595 C243 0.373 . S
C1600 C175 0.373 . S
C1625 C277 0.373 . S
C1630 C345 0.373 . S
C1655 C379 0.373 . S
C1660 C311 0.373 . S
C1685 C413 0.373 . S
C1690 C481 0.373 . S
C1715 C447 0.373 . S
C1720 C515 0.373 . S
