# Generated by pormake.
# Topology umu, (4)-cn, num edge types: 1
# Building blocks:
#     Node 0, Type 0, BuildingBlock: QUQFOY_clean_sbu_3, # of connection points: 4
#     Node 1, Type 0, BuildingBlock: QUQFOY_clean_sbu_3, # of connection points: 4
#     Node 2, Type 0, BuildingBlock: QUQFOY_clean_sbu_3, # of connection points: 4
#     Node 3, Type 0, BuildingBlock: QUQFOY_clean_sbu_3, # of connection points: 4
#     Node 4, Type 0, BuildingBlock: QUQFOY_clean_sbu_3, # of connection points: 4
#     Node 5, Type 0, BuildingBlock: QUQFOY_clean_sbu_3, # of connection points: 4
#     Node 6, Type 0, BuildingBlock: QUQFOY_clean_sbu_3, # of connection points: 4
#     Node 7, Type 0, BuildingBlock: QUQFOY_clean_sbu_3, # of connection points: 4
#     Node 8, Type 0, BuildingBlock: QUQFOY_clean_sbu_3, # of connection points: 4
#     Node 9, Type 0, BuildingBlock: QUQFOY_clean_sbu_3, # of connection points: 4
#     Node 10, Type 0, BuildingBlock: QUQFOY_clean_sbu_3, # of connection points: 4
#     Node 11, Type 0, BuildingBlock: QUQFOY_clean_sbu_3, # of connection points: 4
#     Node 12, Type 0, BuildingBlock: QUQFOY_clean_sbu_3, # of connection points: 4
#     Node 13, Type 0, BuildingBlock: QUQFOY_clean_sbu_3, # of connection points: 4
#     Node 14, Type 0, BuildingBlock: QUQFOY_clean_sbu_3, # of connection points: 4
#     Node 15, Type 0, BuildingBlock: QUQFOY_clean_sbu_3, # of connection points: 4
#     Node 16, Type 0, BuildingBlock: QUQFOY_clean_sbu_3, # of connection points: 4
#     Node 17, Type 0, BuildingBlock: QUQFOY_clean_sbu_3, # of connection points: 4
#     Node 18, Type 0, BuildingBlock: QUQFOY_clean_sbu_3, # of connection points: 4
#     Node 19, Type 0, BuildingBlock: QUQFOY_clean_sbu_3, # of connection points: 4
#     Node 20, Type 0, BuildingBlock: QUQFOY_clean_sbu_3, # of connection points: 4
#     Node 21, Type 0, BuildingBlock: QUQFOY_clean_sbu_3, # of connection points: 4
#     Node 22, Type 0, BuildingBlock: QUQFOY_clean_sbu_3, # of connection points: 4
#     Node 23, Type 0, BuildingBlock: QUQFOY_clean_sbu_3, # of connection points: 4
#     Node 24, Type 0, BuildingBlock: QUQFOY_clean_sbu_3, # of connection points: 4
#     Node 25, Type 0, BuildingBlock: QUQFOY_clean_sbu_3, # of connection points: 4
#     Node 26, Type 0, BuildingBlock: QUQFOY_clean_sbu_3, # of connection points: 4
#     Node 27, Type 0, BuildingBlock: QUQFOY_clean_sbu_3, # of connection points: 4
#     Node 28, Type 0, BuildingBlock: QUQFOY_clean_sbu_3, # of connection points: 4
#     Node 29, Type 0, BuildingBlock: QUQFOY_clean_sbu_3, # of connection points: 4
#     Node 30, Type 0, BuildingBlock: QUQFOY_clean_sbu_3, # of connection points: 4
#     Node 31, Type 0, BuildingBlock: QUQFOY_clean_sbu_3, # of connection points: 4
#     Edge 32, Type (0, 0), BuildingBlock: TEMPAE_clean_linker_10, # of connection points: 2
#     Edge 33, Type (0, 0), BuildingBlock: TEMPAE_clean_linker_10, # of connection points: 2
#     Edge 34, Type (0, 0), BuildingBlock: TEMPAE_clean_linker_10, # of connection points: 2
#     Edge 35, Type (0, 0), BuildingBlock: TEMPAE_clean_linker_10, # of connection points: 2
#     Edge 36, Type (0, 0), BuildingBlock: TEMPAE_clean_linker_10, # of connection points: 2
#     Edge 37, Type (0, 0), BuildingBlock: TEMPAE_clean_linker_10, # of connection points: 2
#     Edge 38, Type (0, 0), BuildingBlock: TEMPAE_clean_linker_10, # of connection points: 2
#     Edge 39, Type (0, 0), BuildingBlock: TEMPAE_clean_linker_10, # of connection points: 2
#     Edge 40, Type (0, 0), BuildingBlock: TEMPAE_clean_linker_10, # of connection points: 2
#     Edge 41, Type (0, 0), BuildingBlock: TEMPAE_clean_linker_10, # of connection points: 2
#     Edge 42, Type (0, 0), BuildingBlock: TEMPAE_clean_linker_10, # of connection points: 2
#     Edge 43, Type (0, 0), BuildingBlock: TEMPAE_clean_linker_10, # of connection points: 2
#     Edge 44, Type (0, 0), BuildingBlock: TEMPAE_clean_linker_10, # of connection points: 2
#     Edge 45, Type (0, 0), BuildingBlock: TEMPAE_clean_linker_10, # of connection points: 2
#     Edge 46, Type (0, 0), BuildingBlock: TEMPAE_clean_linker_10, # of connection points: 2
#     Edge 47, Type (0, 0), BuildingBlock: TEMPAE_clean_linker_10, # of connection points: 2
#     Edge 48, Type (0, 0), BuildingBlock: TEMPAE_clean_linker_10, # of connection points: 2
#     Edge 49, Type (0, 0), BuildingBlock: TEMPAE_clean_linker_10, # of connection points: 2
#     Edge 50, Type (0, 0), BuildingBlock: TEMPAE_clean_linker_10, # of connection points: 2
#     Edge 51, Type (0, 0), BuildingBlock: TEMPAE_clean_linker_10, # of connection points: 2
#     Edge 52, Type (0, 0), BuildingBlock: TEMPAE_clean_linker_10, # of connection points: 2
#     Edge 53, Type (0, 0), BuildingBlock: TEMPAE_clean_linker_10, # of connection points: 2
#     Edge 54, Type (0, 0), BuildingBlock: TEMPAE_clean_linker_10, # of connection points: 2
#     Edge 55, Type (0, 0), BuildingBlock: TEMPAE_clean_linker_10, # of connection points: 2
#     Edge 56, Type (0, 0), BuildingBlock: TEMPAE_clean_linker_10, # of connection points: 2
#     Edge 57, Type (0, 0), BuildingBlock: TEMPAE_clean_linker_10, # of connection points: 2
#     Edge 58, Type (0, 0), BuildingBlock: TEMPAE_clean_linker_10, # of connection points: 2
#     Edge 59, Type (0, 0), BuildingBlock: TEMPAE_clean_linker_10, # of connection points: 2
#     Edge 60, Type (0, 0), BuildingBlock: TEMPAE_clean_linker_10, # of connection points: 2
#     Edge 61, Type (0, 0), BuildingBlock: TEMPAE_clean_linker_10, # of connection points: 2
#     Edge 62, Type (0, 0), BuildingBlock: TEMPAE_clean_linker_10, # of connection points: 2
#     Edge 63, Type (0, 0), BuildingBlock: TEMPAE_clean_linker_10, # of connection points: 2
#     Edge 64, Type (0, 0), BuildingBlock: TEMPAE_clean_linker_10, # of connection points: 2
#     Edge 65, Type (0, 0), BuildingBlock: TEMPAE_clean_linker_10, # of connection points: 2
#     Edge 66, Type (0, 0), BuildingBlock: TEMPAE_clean_linker_10, # of connection points: 2
#     Edge 67, Type (0, 0), BuildingBlock: TEMPAE_clean_linker_10, # of connection points: 2
#     Edge 68, Type (0, 0), BuildingBlock: TEMPAE_clean_linker_10, # of connection points: 2
#     Edge 69, Type (0, 0), BuildingBlock: TEMPAE_clean_linker_10, # of connection points: 2
#     Edge 70, Type (0, 0), BuildingBlock: TEMPAE_clean_linker_10, # of connection points: 2
#     Edge 71, Type (0, 0), BuildingBlock: TEMPAE_clean_linker_10, # of connection points: 2
#     Edge 72, Type (0, 0), BuildingBlock: TEMPAE_clean_linker_10, # of connection points: 2
#     Edge 73, Type (0, 0), BuildingBlock: TEMPAE_clean_linker_10, # of connection points: 2
#     Edge 74, Type (0, 0), BuildingBlock: TEMPAE_clean_linker_10, # of connection points: 2
#     Edge 75, Type (0, 0), BuildingBlock: TEMPAE_clean_linker_10, # of connection points: 2
#     Edge 76, Type (0, 0), BuildingBlock: TEMPAE_clean_linker_10, # of connection points: 2
#     Edge 77, Type (0, 0), BuildingBlock: TEMPAE_clean_linker_10, # of connection points: 2
#     Edge 78, Type (0, 0), BuildingBlock: TEMPAE_clean_linker_10, # of connection points: 2
#     Edge 79, Type (0, 0), BuildingBlock: TEMPAE_clean_linker_10, # of connection points: 2
#     Edge 80, Type (0, 0), BuildingBlock: TEMPAE_clean_linker_10, # of connection points: 2
#     Edge 81, Type (0, 0), BuildingBlock: TEMPAE_clean_linker_10, # of connection points: 2
#     Edge 82, Type (0, 0), BuildingBlock: TEMPAE_clean_linker_10, # of connection points: 2
#     Edge 83, Type (0, 0), BuildingBlock: TEMPAE_clean_linker_10, # of connection points: 2
#     Edge 84, Type (0, 0), BuildingBlock: TEMPAE_clean_linker_10, # of connection points: 2
#     Edge 85, Type (0, 0), BuildingBlock: TEMPAE_clean_linker_10, # of connection points: 2
#     Edge 86, Type (0, 0), BuildingBlock: TEMPAE_clean_linker_10, # of connection points: 2
#     Edge 87, Type (0, 0), BuildingBlock: TEMPAE_clean_linker_10, # of connection points: 2
#     Edge 88, Type (0, 0), BuildingBlock: TEMPAE_clean_linker_10, # of connection points: 2
#     Edge 89, Type (0, 0), BuildingBlock: TEMPAE_clean_linker_10, # of connection points: 2
#     Edge 90, Type (0, 0), BuildingBlock: TEMPAE_clean_linker_10, # of connection points: 2
#     Edge 91, Type (0, 0), BuildingBlock: TEMPAE_clean_linker_10, # of connection points: 2
#     Edge 92, Type (0, 0), BuildingBlock: TEMPAE_clean_linker_10, # of connection points: 2
#     Edge 93, Type (0, 0), BuildingBlock: TEMPAE_clean_linker_10, # of connection points: 2
#     Edge 94, Type (0, 0), BuildingBlock: TEMPAE_clean_linker_10, # of connection points: 2
#     Edge 95, Type (0, 0), BuildingBlock: TEMPAE_clean_linker_10, # of connection points: 2
# Relax obj value: 0.122
# Max RMSD: 0.093
# Mean RMSD: 0.093
data_MOF--net-umu--node1-QUQFOY_clean_sbu_3--edge1-TEMPAE_clean_linker_10
_symmetry_space_group_name_H-M    P1
_symmetry_Int_Tables_number       1
_symmetry_cell_setting            triclinic
loop_
_symmetry_equiv_pos_as_xyz
'x, y, z'
_cell_length_a     85.768316
_cell_length_b     85.774243
_cell_length_c     26.514151
_cell_angle_alpha  90.005115
_cell_angle_beta   89.966913
_cell_angle_gamma 90.040865
loop_
_atom_site_label
_atom_site_type_symbol
_atom_site_fract_x
_atom_site_fract_y
_atom_site_fract_z
_atom_type_partial_charge
C0 C 0.22592 0.15425 0.14044 0.0
O1 O 0.2367 0.15656 0.10854 0.0
Cd2 Cd 0.23404 0.16598 0.02612 0.0
O3 O 0.21157 0.15655 0.12948 0.0
Cd4 Cd 0.19711 0.1635 0.04969 0.0
C5 C 0.21277 0.19961 0.04751 0.0
O6 O 0.21443 0.14859 -0.00145 0.0
O7 O 0.1998 0.16391 0.95624 0.0
O8 O 0.1769 0.14401 0.06459 0.0
C9 C 0.2097 0.15298 0.95595 0.0
O10 O 0.22555 0.19314 0.03484 0.0
C11 C 0.16583 0.15243 0.0482 0.0
O12 O 0.20066 0.19153 0.05686 0.0
O13 O 0.1691 0.16653 0.03815 0.0
C14 C 0.10204 0.98472 0.37799 0.0
O15 O 0.09946 0.99412 0.34201 0.0
Cd16 Cd 0.08989 0.98787 0.26123 0.0
O17 O 0.09985 0.97005 0.37275 0.0
Cd18 Cd 0.09161 0.95328 0.29966 0.0
C19 C 0.05609 0.96943 0.29721 0.0
O20 O 0.10645 0.96715 0.23744 0.0
O21 O 0.08761 0.95372 0.20741 0.0
O22 O 0.11021 0.93227 0.31379 0.0
C23 C 0.09988 0.96151 0.19904 0.0
O24 O 0.06243 0.98048 0.27246 0.0
C25 C 0.10074 0.92156 0.30094 0.0
O26 O 0.06426 0.95849 0.31583 0.0
O27 O 0.08658 0.9255 0.29555 0.0
C28 C 0.27232 0.84198 0.66514 0.0
O29 O 0.26097 0.83607 0.64116 0.0
Cd30 Cd 0.25877 0.83305 0.55258 0.0
O31 O 0.28511 0.84538 0.64307 0.0
Cd32 Cd 0.29391 0.83976 0.55522 0.0
C33 C 0.2823 0.80227 0.54614 0.0
O34 O 0.27268 0.8548 0.52014 0.0
O35 O 0.28545 0.84117 0.46651 0.0
O36 O 0.31478 0.85929 0.55868 0.0
C37 C 0.27556 0.85184 0.47454 0.0
O38 O 0.26926 0.80762 0.53143 0.0
C39 C 0.32442 0.85117 0.53341 0.0
O40 O 0.29275 0.81129 0.56372 0.0
O41 O 0.32035 0.83732 0.52305 0.0
C42 C 0.40313 0.02435 0.90523 0.0
O43 O 0.40546 0.01338 0.87402 0.0
Cd44 Cd 0.40742 0.01442 0.78571 0.0
O45 O 0.40189 0.03854 0.89088 0.0
Cd46 Cd 0.40443 0.05137 0.80586 0.0
C47 C 0.44058 0.0364 0.7843 0.0
O48 O 0.38773 0.03279 0.7646 0.0
O49 O 0.40058 0.04754 0.71456 0.0
O50 O 0.38612 0.07283 0.81956 0.0
C51 C 0.39004 0.03734 0.72004 0.0
O52 O 0.43414 0.02336 0.77483 0.0
C53 C 0.39509 0.08311 0.80065 0.0
O54 O 0.43258 0.0481 0.79844 0.0
O55 O 0.40889 0.07885 0.7904 0.0
C56 C 0.23111 0.86061 0.01002 0.0
O57 O 0.23983 0.85874 0.04821 0.0
Cd58 Cd 0.23297 0.85393 0.13316 0.0
O59 O 0.21626 0.86003 0.01425 0.0
Cd60 Cd 0.19877 0.85467 0.08813 0.0
C61 C 0.21491 0.81936 0.10934 0.0
O62 O 0.21196 0.87113 0.14847 0.0
O63 O 0.19721 0.85369 0.18067 0.0
O64 O 0.17692 0.87186 0.06868 0.0
C65 C 0.2056 0.86566 0.18756 0.0
O66 O 0.22543 0.82641 0.13441 0.0
C67 C 0.16665 0.86173 0.07997 0.0
O68 O 0.20466 0.82694 0.08478 0.0
O69 O 0.17141 0.84788 0.08665 0.0
C70 C 0.39939 0.98435 0.26023 0.0
O71 O 0.40081 0.99419 0.29569 0.0
Cd72 Cd 0.40359 0.98969 0.38251 0.0
O73 O 0.39921 0.96968 0.26903 0.0
Cd74 Cd 0.40182 0.9536 0.3483 0.0
C75 C 0.43759 0.96882 0.37261 0.0
O76 O 0.38485 0.96985 0.39738 0.0
O77 O 0.3988 0.95419 0.44084 0.0
O78 O 0.38327 0.93314 0.3255 0.0
C79 C 0.38779 0.964 0.43993 0.0
O80 O 0.43069 0.9812 0.3868 0.0
C81 C 0.39183 0.92208 0.34134 0.0
O82 O 0.42998 0.95726 0.35524 0.0
O83 O 0.40566 0.92561 0.35388 0.0
C84 C 0.27101 0.14738 0.48177 0.0
O85 O 0.25982 0.14914 0.51258 0.0
Cd86 Cd 0.26094 0.15811 0.59638 0.0
O87 O 0.28514 0.14997 0.49467 0.0
Cd88 Cd 0.29793 0.15717 0.57653 0.0
C89 C 0.28092 0.19241 0.5747 0.0
O90 O 0.28076 0.1421 0.62877 0.0
O91 O 0.29321 0.15992 0.6681 0.0
O92 O 0.31947 0.13875 0.56975 0.0
C93 C 0.28418 0.14826 0.67043 0.0
O94 O 0.26875 0.18561 0.59141 0.0
C95 C 0.32959 0.14814 0.5873 0.0
O96 O 0.29296 0.18466 0.56204 0.0
O97 O 0.32531 0.16217 0.59356 0.0
C98 C 0.101 0.02997 0.71677 0.0
O99 O 0.09874 0.01729 0.74035 0.0
Cd100 Cd 0.08906 0.01344 0.8224 0.0
O101 O 0.09848 0.04324 0.73712 0.0
Cd102 Cd 0.09103 0.0518 0.82463 0.0
C103 C 0.05521 0.03525 0.81616 0.0
O104 O 0.10517 0.03121 0.86561 0.0
O105 O 0.09004 0.04416 0.9142 0.0
O106 O 0.10994 0.07305 0.82612 0.0
C107 C 0.10021 0.03358 0.90966 0.0
O108 O 0.06184 0.02202 0.82018 0.0
C109 C 0.10071 0.08282 0.84629 0.0
O110 O 0.06314 0.0478 0.81466 0.0
O111 O 0.08663 0.07858 0.85168 0.0
C112 C 0.77483 0.85224 0.9659 0.0
O113 O 0.76243 0.84833 0.98872 0.0
Cd114 Cd 0.75995 0.83767 0.06985 0.0
O115 O 0.78827 0.85085 0.98626 0.0
Cd116 Cd 0.79753 0.84276 0.07248 0.0
C117 C 0.7843 0.80573 0.06037 0.0
O118 O 0.77605 0.85543 0.11359 0.0
O119 O 0.78973 0.84099 0.16229 0.0
O120 O 0.817 0.86354 0.07267 0.0
C121 C 0.77878 0.85077 0.15772 0.0
O122 O 0.77062 0.8113 0.06514 0.0
C123 C 0.82756 0.85545 0.0937 0.0
O124 O 0.79619 0.81462 0.0596 0.0
O125 O 0.82459 0.84111 0.10047 0.0
C126 C 0.8923 0.02311 0.77002 0.0
O127 O 0.89453 0.01374 0.80631 0.0
Cd128 Cd 0.9042 0.02008 0.88696 0.0
O129 O 0.89488 0.03772 0.77495 0.0
Cd130 Cd 0.90341 0.05451 0.8474 0.0
C131 C 0.93846 0.0374 0.85044 0.0
O132 O 0.88823 0.04136 0.91047 0.0
O133 O 0.90741 0.05441 0.9399 0.0
O134 O 0.88548 0.07596 0.83128 0.0
C135 C 0.89501 0.04686 0.9487 0.0
O136 O 0.93186 0.02661 0.87567 0.0
C137 C 0.89525 0.08651 0.84307 0.0
O138 O 0.93056 0.04849 0.83149 0.0
O139 O 0.90926 0.08219 0.84947 0.0
C140 C 0.72348 0.1564 0.47119 0.0
O141 O 0.73593 0.15869 0.49588 0.0
Cd142 Cd 0.73845 0.16663 0.58025 0.0
O143 O 0.71003 0.15801 0.49132 0.0
Cd144 Cd 0.70098 0.16381 0.57967 0.0
C145 C 0.71638 0.20018 0.5796 0.0
O146 O 0.72125 0.14844 0.61796 0.0
O147 O 0.70853 0.16282 0.66951 0.0
O148 O 0.68006 0.14454 0.57534 0.0
C149 C 0.71856 0.15219 0.66304 0.0
O150 O 0.72971 0.19376 0.58343 0.0
C151 C 0.67011 0.15296 0.59806 0.0
O152 O 0.70406 0.192 0.57543 0.0
O153 O 0.67406 0.16693 0.60736 0.0
C154 C 0.59452 0.98548 0.26418 0.0
O155 O 0.59194 0.99463 0.30088 0.0
Cd156 Cd 0.58868 0.9885 0.3872 0.0
O157 O 0.59504 0.97072 0.27081 0.0
Cd158 Cd 0.59056 0.95427 0.34759 0.0
C159 C 0.55485 0.9686 0.37279 0.0
O160 O 0.60785 0.96904 0.40085 0.0
O161 O 0.59178 0.95449 0.44067 0.0
O162 O 0.60815 0.93284 0.32658 0.0
C163 C 0.60383 0.96302 0.44222 0.0
O164 O 0.56174 0.97952 0.39647 0.0
C165 C 0.59882 0.92232 0.34195 0.0
O166 O 0.56253 0.95879 0.34678 0.0
O167 O 0.58505 0.92664 0.35248 0.0
C168 C 0.76692 0.14858 0.12696 0.0
O169 O 0.75753 0.14935 0.09003 0.0
Cd170 Cd 0.76334 0.15561 0.00521 0.0
O171 O 0.78154 0.15085 0.12093 0.0
Cd172 Cd 0.79828 0.15669 0.04582 0.0
C173 C 0.78023 0.19109 0.02816 0.0
O174 O 0.78513 0.13962 0.98765 0.0
O175 O 0.79896 0.15736 0.95297 0.0
O176 O 0.82044 0.14011 0.06637 0.0
C177 C 0.79088 0.14511 0.94763 0.0
O178 O 0.76949 0.18356 0.00559 0.0
C179 C 0.83055 0.15018 0.05318 0.0
O180 O 0.7914 0.18403 0.04987 0.0
O181 O 0.82559 0.16384 0.04426 0.0
C182 C 0.59329 0.02652 0.91102 0.0
O183 O 0.58933 0.01561 0.88128 0.0
Cd184 Cd 0.58883 0.01541 0.79185 0.0
O185 O 0.59649 0.04017 0.89482 0.0
Cd186 Cd 0.594 0.05162 0.80874 0.0
C187 C 0.55739 0.03862 0.78475 0.0
O188 O 0.60993 0.03184 0.76923 0.0
O189 O 0.59736 0.04641 0.71804 0.0
O190 O 0.6129 0.07275 0.82044 0.0
C191 C 0.60749 0.03586 0.72419 0.0
O192 O 0.5635 0.02599 0.76927 0.0
C193 C 0.60434 0.08304 0.79987 0.0
O194 O 0.56557 0.04904 0.8064 0.0
O195 O 0.59053 0.07899 0.78876 0.0
C196 C 0.72856 0.86223 0.63107 0.0
O197 O 0.73824 0.86008 0.59556 0.0
Cd198 Cd 0.73302 0.85014 0.51437 0.0
O199 O 0.714 0.8596 0.62485 0.0
Cd200 Cd 0.6978 0.85125 0.55077 0.0
C201 C 0.71476 0.81611 0.55002 0.0
O202 O 0.71186 0.86555 0.48729 0.0
O203 O 0.69855 0.84635 0.45914 0.0
O204 O 0.67639 0.86954 0.5628 0.0
C205 C 0.7067 0.8583 0.44943 0.0
O206 O 0.72594 0.82266 0.52644 0.0
C207 C 0.66586 0.85969 0.55156 0.0
O208 O 0.70344 0.82405 0.56738 0.0
O209 O 0.67011 0.84559 0.54725 0.0
C210 C 0.8936 0.97807 0.431 0.0
O211 O 0.89617 0.99072 0.40762 0.0
Cd212 Cd 0.90608 0.99434 0.32575 0.0
O213 O 0.89584 0.96477 0.41049 0.0
Cd214 Cd 0.90312 0.95603 0.32306 0.0
C215 C 0.93936 0.9716 0.33224 0.0
O216 O 0.88959 0.97702 0.28219 0.0
O217 O 0.90433 0.96368 0.23341 0.0
O218 O 0.8834 0.93551 0.32219 0.0
C219 C 0.89448 0.97456 0.2381 0.0
O220 O 0.93303 0.98499 0.32846 0.0
C221 C 0.89222 0.92532 0.3023 0.0
O222 O 0.93116 0.95922 0.33325 0.0
O223 O 0.90644 0.92901 0.29652 0.0
C224 C 0.72383 0.65317 0.67775 0.0
O225 O 0.73724 0.65704 0.662 0.0
Cd226 Cd 0.74423 0.66743 0.58297 0.0
O227 O 0.71171 0.65445 0.65013 0.0
Cd228 Cd 0.70764 0.66276 0.56032 0.0
C229 C 0.72022 0.69953 0.58139 0.0
O230 O 0.73103 0.65036 0.52731 0.0
O231 O 0.71941 0.66626 0.47725 0.0
O232 O 0.68823 0.64235 0.54636 0.0
C233 C 0.72994 0.65613 0.48365 0.0
O234 O 0.73396 0.69394 0.58257 0.0
C235 C 0.67893 0.65098 0.52169 0.0
O236 O 0.70839 0.69069 0.57642 0.0
O237 O 0.68236 0.66535 0.51892 0.0
C238 C 0.59119 0.47608 0.89268 0.0
O239 O 0.58794 0.48838 0.8683 0.0
Cd240 Cd 0.58058 0.49033 0.78273 0.0
O241 O 0.59026 0.46259 0.87251 0.0
Cd242 Cd 0.58275 0.45384 0.78568 0.0
C243 C 0.54684 0.46942 0.78692 0.0
O244 O 0.59903 0.47325 0.7461 0.0
O245 O 0.58281 0.46216 0.69625 0.0
O246 O 0.60095 0.43195 0.78849 0.0
C247 C 0.59466 0.47082 0.70145 0.0
O248 O 0.55339 0.48215 0.77439 0.0
C249 C 0.59225 0.42276 0.76351 0.0
O250 O 0.55483 0.45751 0.79897 0.0
O251 O 0.57855 0.42749 0.75403 0.0
C252 C 0.77167 0.35022 0.1653 0.0
O253 O 0.75844 0.34742 0.14598 0.0
Cd254 Cd 0.75219 0.34143 0.06151 0.0
O255 O 0.78418 0.34989 0.13918 0.0
Cd256 Cd 0.78946 0.34436 0.04792 0.0
C257 C 0.77366 0.30804 0.05026 0.0
O258 O 0.76765 0.35968 0.01648 0.0
O259 O 0.77942 0.34536 0.96205 0.0
O260 O 0.81098 0.36298 0.04254 0.0
C261 C 0.76934 0.35577 0.97091 0.0
O262 O 0.76027 0.31442 0.05072 0.0
C263 C 0.81984 0.35391 0.0177 0.0
O264 O 0.78604 0.3162 0.05199 0.0
O265 O 0.81512 0.34003 0.01149 0.0
C266 C 0.90311 0.53024 0.42539 0.0
O267 O 0.90752 0.51686 0.41085 0.0
Cd268 Cd 0.91743 0.50962 0.33142 0.0
O269 O 0.90385 0.54214 0.39659 0.0
Cd270 Cd 0.91282 0.54585 0.30724 0.0
C271 C 0.94964 0.53329 0.32872 0.0
O272 O 0.89996 0.52247 0.27587 0.0
O273 O 0.91571 0.53371 0.22434 0.0
O274 O 0.89276 0.56566 0.29383 0.0
C275 C 0.90538 0.52343 0.23171 0.0
O276 O 0.944 0.51956 0.32985 0.0
C277 C 0.90142 0.57465 0.26799 0.0
O278 O 0.94081 0.54512 0.32386 0.0
O279 O 0.91565 0.57084 0.26405 0.0
C280 C 0.72933 0.35978 0.50807 0.0
O281 O 0.7377 0.35802 0.54711 0.0
Cd282 Cd 0.72923 0.35193 0.62989 0.0
O283 O 0.71448 0.3585 0.51053 0.0
Cd284 Cd 0.69565 0.35276 0.58034 0.0
C285 C 0.71149 0.31734 0.60089 0.0
O286 O 0.70783 0.36898 0.64324 0.0
O287 O 0.69226 0.35173 0.6726 0.0
O288 O 0.67519 0.37077 0.55431 0.0
C289 C 0.70055 0.36368 0.6809 0.0
O290 O 0.72187 0.32432 0.6268 0.0
C291 C 0.66413 0.36128 0.56332 0.0
O292 O 0.70128 0.32499 0.57637 0.0
O293 O 0.66796 0.34731 0.57295 0.0
C294 C 0.88641 0.48732 0.75869 0.0
O295 O 0.88894 0.49567 0.79737 0.0
Cd296 Cd 0.89754 0.48685 0.87746 0.0
O297 O 0.88782 0.47249 0.7606 0.0
Cd298 Cd 0.89444 0.45314 0.82792 0.0
C299 C 0.93069 0.4676 0.83873 0.0
O300 O 0.88099 0.46564 0.89699 0.0
O301 O 0.89844 0.44915 0.91881 0.0
O302 O 0.87446 0.43419 0.80577 0.0
C303 C 0.88746 0.45811 0.93214 0.0
O304 O 0.92457 0.47838 0.86524 0.0
C305 C 0.88334 0.42244 0.81113 0.0
O306 O 0.92226 0.45746 0.81668 0.0
O307 O 0.89775 0.42522 0.81729 0.0
C308 C 0.76792 0.64458 0.01288 0.0
O309 O 0.75964 0.64734 0.05153 0.0
Cd310 Cd 0.76892 0.6562 0.13061 0.0
O311 O 0.78277 0.64593 0.01447 0.0
Cd312 Cd 0.80233 0.65254 0.08136 0.0
C313 C 0.78854 0.68903 0.09051 0.0
O314 O 0.78965 0.63901 0.14959 0.0
O315 O 0.80597 0.65647 0.17283 0.0
O316 O 0.82053 0.63197 0.05817 0.0
C317 C 0.79714 0.64526 0.18522 0.0
O318 O 0.77773 0.6831 0.11738 0.0
C319 C 0.83263 0.64028 0.06478 0.0
O320 O 0.79856 0.68041 0.06864 0.0
O321 O 0.83046 0.65473 0.07223 0.0
C322 C 0.60984 0.51891 0.23401 0.0
O323 O 0.60822 0.50944 0.27044 0.0
Cd324 Cd 0.60296 0.51504 0.35628 0.0
O325 O 0.6093 0.53366 0.24102 0.0
Cd326 Cd 0.60605 0.55079 0.31681 0.0
C327 C 0.56977 0.53677 0.33664 0.0
O328 O 0.62079 0.5351 0.37492 0.0
O329 O 0.60557 0.55164 0.40957 0.0
O330 O 0.62561 0.5705 0.29665 0.0
C331 C 0.61598 0.54133 0.41512 0.0
O332 O 0.57614 0.52493 0.3571 0.0
C333 C 0.61681 0.58194 0.30759 0.0
O334 O 0.57792 0.54728 0.3153 0.0
O335 O 0.60257 0.57883 0.31606 0.0
C336 C 0.27354 0.35574 0.45931 0.0
O337 O 0.26001 0.35241 0.47536 0.0
Cd338 Cd 0.25296 0.34173 0.55385 0.0
O339 O 0.28566 0.3539 0.48661 0.0
Cd340 Cd 0.28957 0.34584 0.57687 0.0
C341 C 0.27667 0.3093 0.55475 0.0
O342 O 0.26633 0.35853 0.60986 0.0
O343 O 0.27761 0.34231 0.65962 0.0
O344 O 0.3092 0.36605 0.59081 0.0
C345 C 0.26727 0.35264 0.65338 0.0
O346 O 0.26301 0.31507 0.55299 0.0
C347 C 0.31831 0.35735 0.61597 0.0
O348 O 0.28858 0.31796 0.56072 0.0
O349 O 0.3147 0.34304 0.61897 0.0
C350 C 0.40847 0.5328 0.21948 0.0
O351 O 0.41238 0.51964 0.23717 0.0
Cd352 Cd 0.41964 0.51351 0.32041 0.0
O353 O 0.40855 0.54512 0.24654 0.0
Cd354 Cd 0.41595 0.55022 0.33667 0.0
C355 C 0.45262 0.53582 0.32673 0.0
O356 O 0.40119 0.52808 0.36791 0.0
O357 O 0.41616 0.53926 0.42187 0.0
O358 O 0.39656 0.57099 0.34375 0.0
C359 C 0.4054 0.52951 0.41326 0.0
O360 O 0.44647 0.52231 0.32689 0.0
C361 C 0.40516 0.57997 0.36978 0.0
O362 O 0.4442 0.54803 0.32715 0.0
O363 O 0.41919 0.57574 0.3761 0.0
C364 C 0.2271 0.65681 -0.00489 0.0
O365 O 0.23958 0.65976 0.01888 0.0
Cd366 Cd 0.24196 0.66881 0.1019 0.0
O367 O 0.21369 0.65847 0.01549 0.0
Cd368 Cd 0.20514 0.66577 0.10339 0.0
C369 C 0.21992 0.70218 0.09705 0.0
O370 O 0.22538 0.65055 0.14256 0.0
O371 O 0.21355 0.66615 0.19262 0.0
O372 O 0.18394 0.6467 0.10275 0.0
C373 C 0.22297 0.65492 0.1872 0.0
O374 O 0.2333 0.69595 0.10185 0.0
C375 C 0.17445 0.6553 0.12681 0.0
O376 O 0.2077 0.69383 0.0941 0.0
O377 O 0.17869 0.66925 0.13489 0.0
C378 C 0.0943 0.47459 0.7191 0.0
O379 O 0.09002 0.48786 0.73493 0.0
Cd380 Cd 0.07994 0.49441 0.81471 0.0
O381 O 0.09335 0.4624 0.74661 0.0
Cd382 Cd 0.08433 0.45783 0.83564 0.0
C383 C 0.0476 0.47082 0.81516 0.0
O384 O 0.09736 0.48085 0.86851 0.0
O385 O 0.08172 0.46935 0.91976 0.0
O386 O 0.10428 0.43779 0.84727 0.0
C387 C 0.09207 0.47965 0.91275 0.0
O388 O 0.05332 0.48451 0.81504 0.0
C389 C 0.09559 0.42867 0.8725 0.0
O390 O 0.05635 0.4589 0.81924 0.0
O391 O 0.08138 0.43252 0.87679 0.0
C392 C 0.27128 0.64339 0.65446 0.0
O393 O 0.26166 0.64409 0.61818 0.0
Cd394 Cd 0.26663 0.65082 0.53363 0.0
O395 O 0.28591 0.64553 0.64745 0.0
Cd396 Cd 0.30313 0.64998 0.57163 0.0
C397 C 0.28661 0.68537 0.55397 0.0
O398 O 0.28797 0.63452 0.51441 0.0
O399 O 0.30437 0.64974 0.47887 0.0
O400 O 0.32355 0.63124 0.59184 0.0
C401 C 0.29422 0.63913 0.47401 0.0
O402 O 0.2744 0.6783 0.53887 0.0
C403 C 0.33468 0.64052 0.58149 0.0
O404 O 0.29854 0.67792 0.56927 0.0
O405 O 0.33104 0.65464 0.5734 0.0
C406 C 0.11086 0.5184 0.38588 0.0
O407 O 0.10844 0.50984 0.34761 0.0
Cd408 Cd 0.09983 0.51797 0.26687 0.0
O409 O 0.10932 0.53321 0.38323 0.0
Cd410 Cd 0.1026 0.55206 0.31435 0.0
C411 C 0.0665 0.53712 0.30437 0.0
O412 O 0.11616 0.53921 0.24623 0.0
O413 O 0.09846 0.55526 0.22319 0.0
O414 O 0.12219 0.57169 0.33437 0.0
C415 C 0.10955 0.54634 0.2105 0.0
O416 O 0.07271 0.52625 0.27849 0.0
C417 C 0.11298 0.58315 0.3284 0.0
O418 O 0.07484 0.54747 0.32577 0.0
O419 O 0.09863 0.57995 0.32289 0.0
C420 C 0.23007 0.36077 0.12191 0.0
O421 O 0.23828 0.35873 0.08262 0.0
Cd422 Cd 0.22898 0.35086 0.00233 0.0
O423 O 0.21526 0.35906 0.12069 0.0
Cd424 Cd 0.19565 0.3527 0.05385 0.0
C425 C 0.21061 0.31688 0.03755 0.0
O426 O 0.20755 0.36754 0.98696 0.0
O427 O 0.19154 0.35 0.96224 0.0
O428 O 0.17678 0.37224 0.0804 0.0
C429 C 0.20003 0.36157 0.95091 0.0
O430 O 0.22101 0.32353 0.01073 0.0
C431 C 0.16498 0.36354 0.07326 0.0
O432 O 0.20056 0.32482 0.06183 0.0
O433 O 0.16768 0.34926 0.06417 0.0
C434 C 0.38772 0.49101 0.88244 0.0
O435 O 0.38943 0.49963 0.84393 0.0
Cd436 Cd 0.39648 0.49191 0.76169 0.0
O437 O 0.38888 0.47616 0.879 0.0
Cd438 Cd 0.39326 0.45697 0.80839 0.0
C439 C 0.42973 0.47109 0.79162 0.0
O440 O 0.37919 0.47105 0.74441 0.0
O441 O 0.39436 0.45321 0.71666 0.0
O442 O 0.373 0.43839 0.8318 0.0
C443 C 0.3841 0.46337 0.70701 0.0
O444 O 0.42347 0.48315 0.7723 0.0
C445 C 0.38157 0.42647 0.82519 0.0
O446 O 0.42151 0.45996 0.80904 0.0
O447 O 0.39599 0.42896 0.81789 0.0
C448 C 0.12209 0.1019 0.86222 0.0
C449 C 0.10668 0.09715 0.87058 0.0
C450 C 0.12913 0.1131 0.89327 0.0
C451 C 0.12059 0.11957 0.934 0.0
C452 C 0.10468 0.11569 0.94028 0.0
C453 C 0.09787 0.10457 0.90826 0.0
C454 C 0.14605 0.1172 0.88456 0.0
C455 C 0.09517 0.12235 0.98306 0.0
C456 C 0.14808 0.12954 0.04033 0.0
C457 C 0.1511 0.14531 0.03056 0.0
C458 C 0.13704 0.12129 0.01189 0.0
C459 C 0.12895 0.12899 0.97256 0.0
C460 C 0.13075 0.14526 0.96614 0.0
C461 C 0.14177 0.15327 -0.00449 0.0
C462 C 0.13513 0.10401 0.02089 0.0
C463 C 0.12222 0.15394 0.92505 0.0
H464 H 0.12891 0.0963 0.83295 0.0
H465 H 0.08594 0.10093 0.91503 0.0
H466 H 0.14763 0.13003 0.88425 0.0
H467 H 0.15323 0.11247 0.91583 0.0
H468 H 0.15054 0.11239 0.84845 0.0
H469 H 0.08247 0.12055 0.9772 0.0
H470 H 0.09855 0.11653 0.01877 0.0
H471 H 0.09743 0.13501 0.98768 0.0
H472 H 0.15512 0.12336 0.06776 0.0
H473 H 0.14396 0.16549 0.98787 0.0
H474 H 0.14073 0.09746 0.98966 0.0
H475 H 0.1226 0.10078 0.0214 0.0
H476 H 0.14053 0.10026 0.05698 0.0
H477 H 0.12783 0.15141 0.88822 0.0
H478 H 0.12251 0.16675 0.93124 0.0
H479 H 0.1099 0.15009 0.92253 0.0
C480 C 0.09748 0.89903 0.24274 0.0
C481 C 0.10659 0.90686 0.27878 0.0
C482 C 0.10433 0.88882 0.2078 0.0
C483 C 0.12059 0.88618 0.20978 0.0
C484 C 0.12944 0.89252 0.25003 0.0
C485 C 0.12234 0.90288 0.2839 0.0
C486 C 0.09444 0.88222 0.16585 0.0
C487 C 0.14673 0.88953 0.25459 0.0
C488 C 0.14322 0.8567 0.13302 0.0
C489 C 0.15125 0.86659 0.09964 0.0
C490 C 0.13216 0.86265 0.16696 0.0
C491 C 0.12885 0.87879 0.16661 0.0
C492 C 0.13539 0.8884 0.12854 0.0
C493 C 0.1466 0.88219 0.09566 0.0
C494 C 0.12537 0.85196 0.20649 0.0
C495 C 0.13171 0.90559 0.12567 0.0
H496 H 0.08526 0.90198 0.23854 0.0
H497 H 0.1294 0.90877 0.31196 0.0
H498 H 0.09605 0.88942 0.13147 0.0
H499 H 0.09795 0.87012 0.15643 0.0
H500 H 0.08186 0.8823 0.17582 0.0
H501 H 0.15144 0.89351 0.29143 0.0
H502 H 0.14927 0.87692 0.25018 0.0
H503 H 0.15298 0.89582 0.22409 0.0
H504 H 0.14665 0.84457 0.13622 0.0
H505 H 0.15262 0.88987 0.0696 0.0
H506 H 0.113 0.85483 0.21428 0.0
H507 H 0.13195 0.85345 0.24221 0.0
H508 H 0.12618 0.83953 0.195 0.0
H509 H 0.11896 0.90755 0.1287 0.0
H510 H 0.13595 0.9109 0.08998 0.0
H511 H 0.13735 0.91172 0.15771 0.0
C512 C 0.36921 0.90385 0.34656 0.0
C513 C 0.38495 0.90695 0.3565 0.0
C514 C 0.36117 0.89225 0.37339 0.0
C515 C 0.36905 0.88367 0.41124 0.0
C516 C 0.3853 0.88567 0.41776 0.0
C517 C 0.39309 0.89723 0.39001 0.0
C518 C 0.34391 0.89017 0.3643 0.0
C519 C 0.39418 0.87667 0.45734 0.0
C520 C 0.34245 0.8737 0.52066 0.0
C521 C 0.33828 0.8583 0.50942 0.0
C522 C 0.35323 0.88178 0.49061 0.0
C523 C 0.35988 0.87431 0.44802 0.0
C524 C 0.35655 0.85843 0.43859 0.0
C525 C 0.34584 0.85058 0.46959 0.0
C526 C 0.35675 0.89863 0.50265 0.0
C527 C 0.36341 0.85004 0.39372 0.0
H528 H 0.36287 0.9112 0.32041 0.0
H529 H 0.40529 0.89948 0.39779 0.0
H530 H 0.34093 0.87762 0.36148 0.0
H531 H 0.33731 0.89506 0.39664 0.0
H532 H 0.34 0.89614 0.32935 0.0
H533 H 0.40698 0.87742 0.45145 0.0
H534 H 0.39144 0.88153 0.49512 0.0
H535 H 0.39068 0.86422 0.45751 0.0
H536 H 0.33673 0.87971 0.55151 0.0
H537 H 0.34269 0.83866 0.46058 0.0
H538 H 0.35176 0.90623 0.47289 0.0
H539 H 0.36953 0.90064 0.50319 0.0
H540 H 0.35183 0.90225 0.53962 0.0
H541 H 0.35763 0.85419 0.3588 0.0
H542 H 0.36178 0.83721 0.39637 0.0
H543 H 0.37604 0.85258 0.38996 0.0
C544 C 0.37306 0.10163 0.7872 0.0
C545 C 0.38881 0.09788 0.78021 0.0
C546 C 0.36569 0.11261 0.75611 0.0
C547 C 0.37427 0.1199 0.71696 0.0
C548 C 0.39052 0.11737 0.71321 0.0
C549 C 0.39763 0.10645 0.74517 0.0
C550 C 0.3484 0.11533 0.76231 0.0
C551 C 0.40013 0.12503 0.67244 0.0
C552 C 0.34853 0.12669 0.60343 0.0
C553 C 0.34414 0.14226 0.6104 0.0
C554 C 0.35934 0.11959 0.63575 0.0
C555 C 0.36577 0.12825 0.67625 0.0
C556 C 0.36249 0.14435 0.68057 0.0
C557 C 0.35177 0.15121 0.6473 0.0
C558 C 0.36289 0.10247 0.62897 0.0
C559 C 0.36916 0.15403 0.72293 0.0
H560 H 0.36621 0.09518 0.81454 0.0
H561 H 0.40986 0.10372 0.73969 0.0
H562 H 0.34575 0.12798 0.7612 0.0
H563 H 0.34206 0.10974 0.73063 0.0
H564 H 0.3439 0.11044 0.79827 0.0
H565 H 0.41281 0.1244 0.68073 0.0
H566 H 0.39796 0.11901 0.63606 0.0
H567 H 0.3968 0.13743 0.66755 0.0
H568 H 0.34278 0.11976 0.57474 0.0
H569 H 0.34845 0.16328 0.65296 0.0
H570 H 0.35741 0.09573 0.66002 0.0
H571 H 0.37564 0.1004 0.63077 0.0
H572 H 0.35843 0.0979 0.59252 0.0
H573 H 0.36273 0.15142 0.75826 0.0
H574 H 0.36812 0.16672 0.71521 0.0
H575 H 0.38161 0.15118 0.7295 0.0
C576 C 0.84448 0.8787 0.10793 0.0
C577 C 0.8413 0.86293 0.11717 0.0
C578 C 0.85502 0.88697 0.13823 0.0
C579 C 0.86244 0.87931 0.17904 0.0
C580 C 0.86019 0.86312 0.18611 0.0
C581 C 0.84969 0.85509 0.15486 0.0
C582 C 0.85737 0.90417 0.12872 0.0
C583 C 0.8679 0.85452 0.22903 0.0
C584 C 0.89428 0.90297 0.24229 0.0
C585 C 0.88569 0.91108 0.27895 0.0
C586 C 0.8871 0.89185 0.21109 0.0
C587 C 0.87102 0.88869 0.21718 0.0
C588 C 0.86264 0.89588 0.25696 0.0
C589 C 0.87006 0.90705 0.28721 0.0
C590 C 0.89644 0.88442 0.16925 0.0
C591 C 0.84554 0.89257 0.2654 0.0
H592 H 0.83812 0.8848 0.07863 0.0
H593 H 0.84729 0.84289 0.16226 0.0
H594 H 0.85188 0.91097 0.1596 0.0
H595 H 0.86998 0.90707 0.12847 0.0
H596 H 0.85218 0.90796 0.09236 0.0
H597 H 0.86701 0.84167 0.22453 0.0
H598 H 0.88039 0.85777 0.23209 0.0
H599 H 0.86218 0.85782 0.26503 0.0
H600 H 0.90637 0.90602 0.23563 0.0
H601 H 0.8634 0.91319 0.31571 0.0
H602 H 0.89308 0.88974 0.13269 0.0
H603 H 0.89395 0.87176 0.16669 0.0
H604 H 0.90918 0.88609 0.1746 0.0
H605 H 0.83866 0.89744 0.23365 0.0
H606 H 0.84118 0.89778 0.30109 0.0
H607 H 0.84339 0.87982 0.26638 0.0
C608 C 0.89925 0.11007 0.89645 0.0
C609 C 0.88984 0.10175 0.86238 0.0
C610 C 0.89272 0.1211 0.92939 0.0
C611 C 0.87651 0.124 0.92747 0.0
C612 C 0.86741 0.11713 0.88876 0.0
C613 C 0.87418 0.10601 0.85679 0.0
C614 C 0.9029 0.12832 0.9695 0.0
C615 C 0.85015 0.12033 0.88427 0.0
C616 C 0.85083 0.12974 0.04134 0.0
C617 C 0.84603 0.1452 0.03453 0.0
C618 C 0.86207 0.12308 0.0095 0.0
C619 C 0.8685 0.13209 0.96977 0.0
C620 C 0.86511 0.14819 0.96675 0.0
C621 C 0.85399 0.15461 -0.00043 0.0
C622 C 0.8658 0.10597 0.01517 0.0
C623 C 0.87188 0.15828 0.92556 0.0
H624 H 0.91141 0.10693 0.90087 0.0
H625 H 0.8669 0.09977 0.83013 0.0
H626 H 0.89949 0.14057 0.97712 0.0
H627 H 0.90152 0.12168 0.00512 0.0
H628 H 0.91541 0.12803 0.95864 0.0
H629 H 0.84524 0.11576 0.84843 0.0
H630 H 0.84392 0.1147 0.91614 0.0
H631 H 0.84783 0.13304 0.88636 0.0
H632 H 0.84489 0.12246 0.06871 0.0
H633 H 0.85046 0.16663 -0.00573 0.0
H634 H 0.87855 0.10399 0.01228 0.0
H635 H 0.86012 0.09933 0.98428 0.0
H636 H 0.86163 0.10122 0.05175 0.0
H637 H 0.88419 0.15518 0.91768 0.0
H638 H 0.87125 0.17085 0.93544 0.0
H639 H 0.86514 0.15644 0.89034 0.0
C640 C 0.65206 0.1305 0.61079 0.0
C641 C 0.65604 0.14601 0.62126 0.0
C642 C 0.64139 0.12244 0.64124 0.0
C643 C 0.63465 0.13005 0.68338 0.0
C644 C 0.63763 0.14606 0.69165 0.0
C645 C 0.64826 0.15389 0.66028 0.0
C646 C 0.63822 0.10544 0.63042 0.0
C647 C 0.6306 0.15462 0.73589 0.0
C648 C 0.60243 0.10675 0.74565 0.0
C649 C 0.61098 0.09777 0.78023 0.0
C650 C 0.60975 0.11815 0.71593 0.0
C651 C 0.62595 0.1207 0.72136 0.0
C652 C 0.6343 0.11276 0.75965 0.0
C653 C 0.62671 0.10134 0.78856 0.0
C654 C 0.60041 0.12645 0.67589 0.0
C655 C 0.65154 0.11541 0.7674 0.0
H656 H 0.65793 0.12438 0.58047 0.0
H657 H 0.65126 0.1659 0.66863 0.0
H658 H 0.64358 0.09815 0.66033 0.0
H659 H 0.6255 0.1031 0.63077 0.0
H660 H 0.64303 0.10173 0.5934 0.0
H661 H 0.63182 0.16746 0.732 0.0
H662 H 0.61807 0.15171 0.7402 0.0
H663 H 0.6366 0.15097 0.77102 0.0
H664 H 0.59023 0.10413 0.7391 0.0
H665 H 0.63337 0.09455 0.81548 0.0
H666 H 0.60314 0.12133 0.63849 0.0
H667 H 0.60349 0.139 0.67432 0.0
H668 H 0.58766 0.12535 0.68247 0.0
H669 H 0.65808 0.11057 0.73484 0.0
H670 H 0.65588 0.10975 0.80236 0.0
H671 H 0.65414 0.12806 0.76938 0.0
C672 C 0.62043 0.90321 0.35279 0.0
C673 C 0.60479 0.90722 0.36069 0.0
C674 C 0.62786 0.89232 0.38409 0.0
C675 C 0.61945 0.88547 0.42447 0.0
C676 C 0.60324 0.88809 0.42879 0.0
C677 C 0.59604 0.89884 0.39643 0.0
C678 C 0.64507 0.88938 0.37704 0.0
C679 C 0.5938 0.88089 0.47085 0.0
C680 C 0.64266 0.85535 0.4969 0.0
C681 C 0.65071 0.86493 0.53111 0.0
C682 C 0.63151 0.86161 0.4639 0.0
C683 C 0.62818 0.87774 0.46595 0.0
C684 C 0.63492 0.88703 0.50442 0.0
C685 C 0.6462 0.88053 0.53636 0.0
C686 C 0.62453 0.85126 0.42378 0.0
C687 C 0.63127 0.9042 0.509 0.0
H688 H 0.62721 0.90948 0.32484 0.0
H689 H 0.58389 0.90176 0.40259 0.0
H690 H 0.65168 0.8954 0.40732 0.0
H691 H 0.64766 0.87674 0.37988 0.0
H692 H 0.64934 0.89372 0.34003 0.0
H693 H 0.58111 0.8812 0.46254 0.0
H694 H 0.59733 0.86864 0.47775 0.0
H695 H 0.59588 0.88753 0.50615 0.0
H696 H 0.64605 0.84325 0.49261 0.0
H697 H 0.65228 0.88795 0.56301 0.0
H698 H 0.63095 0.85303 0.38788 0.0
H699 H 0.61213 0.85419 0.41684 0.0
H700 H 0.62537 0.83874 0.43413 0.0
H701 H 0.63655 0.91056 0.47678 0.0
H702 H 0.63588 0.90927 0.54455 0.0
H703 H 0.61849 0.90616 0.50763 0.0
C704 C 0.66029 0.65239 0.44951 0.0
C705 C 0.66619 0.64421 0.49121 0.0
C706 C 0.65061 0.645 0.41408 0.0
C707 C 0.64662 0.62914 0.42101 0.0
C708 C 0.65164 0.62119 0.46497 0.0
C709 C 0.66146 0.62879 0.49933 0.0
C710 C 0.64556 0.65386 0.36771 0.0
C711 C 0.64732 0.60436 0.47442 0.0
C712 C 0.61464 0.60725 0.35316 0.0
C713 C 0.62349 0.59714 0.32284 0.0
C714 C 0.62189 0.61874 0.38264 0.0
C715 C 0.6383 0.6203 0.38094 0.0
C716 C 0.64701 0.61146 0.34566 0.0
C717 C 0.63949 0.59991 0.31715 0.0
C718 C 0.61215 0.62801 0.41939 0.0
C719 C 0.66448 0.61313 0.34155 0.0
H720 H 0.66397 0.66431 0.44285 0.0
H721 H 0.66593 0.62246 0.53162 0.0
H722 H 0.65244 0.6498 0.33479 0.0
H723 H 0.63309 0.65165 0.35918 0.0
H724 H 0.64736 0.66662 0.37196 0.0
H725 H 0.651 0.60032 0.51239 0.0
H726 H 0.63453 0.60275 0.47089 0.0
H727 H 0.65296 0.59683 0.44568 0.0
H728 H 0.60223 0.60528 0.35755 0.0
H729 H 0.64637 0.59227 0.29335 0.0
H730 H 0.61604 0.64033 0.42093 0.0
H731 H 0.61355 0.62302 0.45774 0.0
H732 H 0.59957 0.62769 0.40944 0.0
H733 H 0.66788 0.62561 0.3406 0.0
H734 H 0.66915 0.60729 0.30733 0.0
H735 H 0.67006 0.60781 0.37517 0.0
C736 C 0.61397 0.40401 0.74872 0.0
C737 C 0.59878 0.40891 0.73781 0.0
C738 C 0.62191 0.39382 0.71629 0.0
C739 C 0.6145 0.38853 0.67167 0.0
C740 C 0.5987 0.39234 0.66278 0.0
C741 C 0.59098 0.40245 0.69616 0.0
C742 C 0.63865 0.3897 0.72788 0.0
C743 C 0.59033 0.38685 0.61598 0.0
C744 C 0.6449 0.38294 0.57044 0.0
C745 C 0.64836 0.36708 0.57617 0.0
C746 C 0.63277 0.38985 0.598 0.0
C747 C 0.62399 0.38066 0.63219 0.0
C748 C 0.62621 0.36433 0.63348 0.0
C749 C 0.63833 0.3577 0.60509 0.0
C750 C 0.63044 0.40726 0.59433 0.0
C751 C 0.61695 0.35408 0.66876 0.0
H752 H 0.62001 0.40885 0.78104 0.0
H753 H 0.57921 0.40617 0.68743 0.0
H754 H 0.6405 0.37695 0.72422 0.0
H755 H 0.64646 0.39554 0.70034 0.0
H756 H 0.64214 0.39335 0.76646 0.0
H757 H 0.57748 0.38796 0.61983 0.0
H758 H 0.59411 0.39403 0.58338 0.0
H759 H 0.59322 0.37454 0.6073 0.0
H760 H 0.65246 0.39023 0.54766 0.0
H761 H 0.64081 0.34538 0.60945 0.0
H762 H 0.63505 0.41292 0.62891 0.0
H763 H 0.61786 0.41012 0.59168 0.0
H764 H 0.63655 0.41232 0.56118 0.0
H765 H 0.62171 0.35523 0.70749 0.0
H766 H 0.61761 0.34161 0.65761 0.0
H767 H 0.60453 0.35766 0.66997 0.0
C768 C 0.88568 0.39648 0.85236 0.0
C769 C 0.87673 0.40702 0.824 0.0
C770 C 0.87851 0.38477 0.88117 0.0
C771 C 0.86207 0.38346 0.88072 0.0
C772 C 0.85323 0.39269 0.8469 0.0
C773 C 0.86068 0.40444 0.81906 0.0
C774 C 0.88838 0.37504 0.91617 0.0
C775 C 0.83571 0.3913 0.84401 0.0
C776 C 0.83915 0.35177 0.9476 0.0
C777 C 0.83342 0.35999 0.98951 0.0
C778 C 0.84928 0.35892 0.91296 0.0
C779 C 0.85388 0.37456 0.92091 0.0
C780 C 0.84923 0.3824 0.96552 0.0
C781 C 0.83896 0.37505 -0.00088 0.0
C782 C 0.85399 0.35013 0.86605 0.0
C783 C 0.85423 0.39897 0.9761 0.0
H784 H 0.89814 0.3983 0.85613 0.0
H785 H 0.85373 0.41241 0.79669 0.0
H786 H 0.88764 0.37992 0.95486 0.0
H787 H 0.88414 0.36283 0.91774 0.0
H788 H 0.90083 0.37502 0.90449 0.0
H789 H 0.83088 0.39751 0.81074 0.0
H790 H 0.83214 0.37888 0.8421 0.0
H791 H 0.83045 0.39638 0.87855 0.0
H792 H 0.83489 0.34011 0.93985 0.0
H793 H 0.83466 0.3814 0.03163 0.0
H794 H 0.86638 0.35235 0.85641 0.0
H795 H 0.84681 0.3542 0.83384 0.0
H796 H 0.85222 0.33737 0.87035 0.0
H797 H 0.86704 0.40017 0.97167 0.0
H798 H 0.85096 0.4028 0.01471 0.0
H799 H 0.84865 0.40694 0.94852 0.0
C800 C 0.84968 0.61682 0.07041 0.0
C801 C 0.84775 0.63291 0.07709 0.0
C802 C 0.86123 0.60866 0.09696 0.0
C803 C 0.87091 0.6168 0.13134 0.0
C804 C 0.87017 0.63325 0.1338 0.0
C805 C 0.85867 0.64115 0.10619 0.0
C806 C 0.86199 0.59115 0.09199 0.0
C807 C 0.88034 0.64239 0.16965 0.0
C808 C 0.87964 0.59289 0.248 0.0
C809 C 0.89476 0.58757 0.23804 0.0
C810 C 0.8721 0.60311 0.21475 0.0
C811 C 0.87978 0.60791 0.16999 0.0
C812 C 0.89535 0.60324 0.16104 0.0
C813 C 0.90271 0.59319 0.19542 0.0
C814 C 0.8556 0.60813 0.22633 0.0
C815 C 0.9039 0.60801 0.11372 0.0
H816 H 0.8414 0.6104 0.04752 0.0
H817 H 0.85733 0.65362 0.11139 0.0
H818 H 0.87427 0.58717 0.08948 0.0
H819 H 0.85675 0.58569 0.12596 0.0
H820 H 0.85557 0.58692 0.05827 0.0
H821 H 0.88052 0.65501 0.16017 0.0
H822 H 0.87574 0.64109 0.20857 0.0
H823 H 0.89247 0.63792 0.16949 0.0
H824 H 0.87349 0.58864 0.281 0.0
H825 H 0.91438 0.58904 0.18733 0.0
H826 H 0.84751 0.60295 0.19831 0.0
H827 H 0.85455 0.621 0.22344 0.0
H828 H 0.85181 0.60449 0.26463 0.0
H829 H 0.89908 0.60148 0.08113 0.0
H830 H 0.91659 0.60555 0.11621 0.0
H831 H 0.90224 0.62061 0.10591 0.0
C832 C 0.33623 0.37925 0.63767 0.0
C833 C 0.33106 0.36402 0.64667 0.0
C834 C 0.34613 0.38682 0.6719 0.0
C835 C 0.35074 0.37905 0.71668 0.0
C836 C 0.34624 0.36337 0.72464 0.0
C837 C 0.33653 0.35599 0.68928 0.0
C838 C 0.351 0.40343 0.66134 0.0
C839 C 0.3508 0.35472 0.77196 0.0
C840 C 0.38317 0.4005 0.78362 0.0
C841 C 0.37455 0.41122 0.81234 0.0
C842 C 0.37566 0.38893 0.75514 0.0
C843 C 0.3592 0.38792 0.75635 0.0
C844 C 0.35067 0.39736 0.79042 0.0
C845 C 0.35845 0.40899 0.81785 0.0
C846 C 0.38521 0.37903 0.71966 0.0
C847 C 0.33314 0.39628 0.79411 0.0
H848 H 0.33209 0.38547 0.60469 0.0
H849 H 0.33248 0.34424 0.69665 0.0
H850 H 0.34548 0.41134 0.68923 0.0
H851 H 0.36382 0.40468 0.6653 0.0
H852 H 0.34759 0.4073 0.62291 0.0
H853 H 0.34864 0.34199 0.76862 0.0
H854 H 0.36329 0.35663 0.78098 0.0
H855 H 0.34388 0.35923 0.80417 0.0
H856 H 0.39564 0.40206 0.77937 0.0
H857 H 0.35174 0.41711 0.84045 0.0
H858 H 0.38413 0.38373 0.68082 0.0
H859 H 0.38091 0.36683 0.71905 0.0
H860 H 0.39775 0.379 0.73013 0.0
H861 H 0.32783 0.40154 0.75996 0.0
H862 H 0.32857 0.40251 0.82776 0.0
H863 H 0.32934 0.38393 0.79586 0.0
C864 C 0.35339 0.61852 0.57127 0.0
C865 C 0.35014 0.63446 0.56634 0.0
C866 C 0.36521 0.61152 0.54257 0.0
C867 C 0.37387 0.62068 0.50798 0.0
C868 C 0.37184 0.63703 0.50719 0.0
C869 C 0.36004 0.64377 0.53673 0.0
C870 C 0.36734 0.59407 0.54564 0.0
C871 C 0.38095 0.64725 0.4714 0.0
C872 C 0.40646 0.59921 0.44045 0.0
C873 C 0.39846 0.59313 0.39862 0.0
C874 C 0.3989 0.60896 0.47528 0.0
C875 C 0.38304 0.61281 0.46772 0.0
C876 C 0.37533 0.60776 0.42334 0.0
C877 C 0.38311 0.59791 0.38946 0.0
C878 C 0.40756 0.61415 0.52191 0.0
C879 C 0.3585 0.61191 0.41323 0.0
H880 H 0.34592 0.61129 0.59453 0.0
H881 H 0.3577 0.65613 0.53294 0.0
H882 H 0.36239 0.58856 0.51133 0.0
H883 H 0.3799 0.59104 0.54716 0.0
H884 H 0.36144 0.58902 0.57917 0.0
H885 H 0.38038 0.65973 0.48246 0.0
H886 H 0.39335 0.64363 0.46964 0.0
H887 H 0.37602 0.64607 0.43289 0.0
H888 H 0.41834 0.59554 0.44786 0.0
H889 H 0.37691 0.59335 0.35703 0.0
H890 H 0.40372 0.60699 0.55449 0.0
H891 H 0.40494 0.6265 0.53097 0.0
H892 H 0.42037 0.61278 0.51762 0.0
H893 H 0.35091 0.60603 0.44129 0.0
H894 H 0.3547 0.60834 0.37487 0.0
H895 H 0.35671 0.62465 0.4173 0.0
C896 C 0.10975 0.60892 0.2864 0.0
C897 C 0.11909 0.59872 0.31473 0.0
C898 C 0.11646 0.62095 0.25781 0.0
C899 C 0.13283 0.62294 0.25843 0.0
C900 C 0.14203 0.61394 0.29187 0.0
C901 C 0.13505 0.60185 0.31945 0.0
C902 C 0.10621 0.63038 0.22308 0.0
C903 C 0.15949 0.61604 0.29487 0.0
C904 C 0.15591 0.63338 0.14169 0.0
C905 C 0.16079 0.64856 0.15296 0.0
C906 C 0.14581 0.62531 0.1741 0.0
C907 C 0.14065 0.63255 0.21918 0.0
C908 C 0.14451 0.64832 0.22864 0.0
C909 C 0.15447 0.65619 0.19516 0.0
C910 C 0.14159 0.60863 0.16187 0.0
C911 C 0.13923 0.65648 0.2761 0.0
H912 H 0.09737 0.60664 0.28269 0.0
H913 H 0.14231 0.59412 0.34171 0.0
H914 H 0.10988 0.64278 0.22222 0.0
H915 H 0.10725 0.62574 0.18416 0.0
H916 H 0.09375 0.62977 0.23446 0.0
H917 H 0.16459 0.60978 0.32761 0.0
H918 H 0.16495 0.61147 0.25991 0.0
H919 H 0.16252 0.62858 0.29782 0.0
H920 H 0.16067 0.62748 0.10895 0.0
H921 H 0.1582 0.66794 0.20419 0.0
H922 H 0.12885 0.60678 0.16608 0.0
H923 H 0.14754 0.60069 0.18871 0.0
H924 H 0.14506 0.60533 0.12294 0.0
H925 H 0.1269 0.65369 0.28485 0.0
H926 H 0.14053 0.66933 0.27312 0.0
H927 H 0.14641 0.65239 0.3083 0.0
C928 C 0.09416 0.40959 0.9436 0.0
C929 C 0.10221 0.41556 0.9017 0.0
C930 C 0.10151 0.39943 0.97769 0.0
C931 C 0.11718 0.39503 0.96921 0.0
C932 C 0.12496 0.40016 0.92502 0.0
C933 C 0.11742 0.41045 0.89201 0.0
C934 C 0.09282 0.39428 0.02433 0.0
C935 C 0.14159 0.39544 0.91392 0.0
C936 C 0.14717 0.38645 0.06934 0.0
C937 C 0.14959 0.37047 0.06175 0.0
C938 C 0.13545 0.39442 0.04298 0.0
C939 C 0.12607 0.38619 0.00796 0.0
C940 C 0.12723 0.36977 0.00478 0.0
C941 C 0.13892 0.36206 0.03215 0.0
C942 C 0.13423 0.41188 0.04874 0.0
C943 C 0.11736 0.36053 0.96836 0.0
H944 H 0.08241 0.41356 0.95147 0.0
H945 H 0.12366 0.41496 0.85955 0.0
H946 H 0.09483 0.38173 0.03205 0.0
H947 H 0.0972 0.40091 0.05735 0.0
H948 H 0.08007 0.39634 0.02098 0.0
H949 H 0.14547 0.39931 0.87595 0.0
H950 H 0.14948 0.40063 0.9425 0.0
H951 H 0.14283 0.38258 0.91629 0.0
H952 H 0.15524 0.39299 0.09266 0.0
H953 H 0.14061 0.34967 0.02631 0.0
H954 H 0.12184 0.41554 0.05101 0.0
H955 H 0.13943 0.41762 0.01519 0.0
H956 H 0.14043 0.41612 0.08286 0.0
H957 H 0.10515 0.36477 0.96818 0.0
H958 H 0.11738 0.34789 0.97757 0.0
H959 H 0.12207 0.362 0.92965 0.0
C960 C 0.2301 0.13724 0.91353 0.0
C961 C 0.2186 0.14882 0.91051 0.0
C962 C 0.24062 0.13491 0.87401 0.0
C963 C 0.23953 0.14436 0.83058 0.0
C964 C 0.22725 0.15529 0.82575 0.0
C965 C 0.21686 0.15739 0.86594 0.0
C966 C 0.25349 0.12304 0.88016 0.0
C967 C 0.22567 0.16543 0.77947 0.0
C968 C 0.27594 0.15477 0.75796 0.0
C969 C 0.27422 0.14556 0.71475 0.0
C970 C 0.26495 0.15407 0.79692 0.0
C971 C 0.25202 0.1439 0.79229 0.0
C972 C 0.2507 0.13394 0.75011 0.0
C973 C 0.26188 0.13485 0.7118 0.0
C974 C 0.26681 0.16471 0.84192 0.0
C975 C 0.23709 0.12289 0.74425 0.0
H976 H 0.23133 0.13044 0.94778 0.0
H977 H 0.2079 0.16626 0.86339 0.0
H978 H 0.25453 0.11569 0.84591 0.0
H979 H 0.26479 0.12916 0.88521 0.0
H980 H 0.25155 0.11535 0.91328 0.0
H981 H 0.21465 0.17224 0.77958 0.0
H982 H 0.23561 0.17371 0.77767 0.0
H983 H 0.22606 0.1582 0.7448 0.0
H984 H 0.28553 0.16297 0.76049 0.0
H985 H 0.26056 0.12761 0.67854 0.0
H986 H 0.26623 0.15788 0.8774 0.0
H987 H 0.2571 0.17325 0.84277 0.0
H988 H 0.27801 0.17122 0.84113 0.0
H989 H 0.23548 0.11587 0.77898 0.0
H990 H 0.23862 0.11485 0.71176 0.0
H991 H 0.22623 0.12968 0.73842 0.0
C992 C 0.11646 0.97755 0.14263 0.0
C993 C 0.10331 0.96804 0.14897 0.0
C994 C 0.11813 0.98685 0.09968 0.0
C995 C 0.10637 0.98651 0.06242 0.0
C996 C 0.09389 0.97576 0.06622 0.0
C997 C 0.09252 0.96657 0.10965 0.0
C998 C 0.1317 0.99804 0.09653 0.0
C999 C 0.08126 0.97496 0.02667 0.0
C1000 C 0.09641 0.0244 -0.0023 0.0
C1001 C 0.10303 0.02218 0.95001 0.0
C1002 C 0.0977 0.01293 0.03493 0.0
C1003 C 0.10579 -0.00105 0.02397 0.0
C1004 C 0.11293 0.99683 0.97644 0.0
C1005 C 0.11148 0.00852 0.93992 0.0
C1006 C 0.09008 0.01563 0.08559 0.0
C1007 C 0.12166 0.98206 0.96372 0.0
H1008 H 0.125 0.97848 0.17267 0.0
H1009 H 0.08244 0.95907 0.11417 0.0
H1010 H 0.13672 0.99818 0.05797 0.0
H1011 H 0.12757 0.01001 0.10501 0.0
H1012 H 0.14106 0.99503 0.12379 0.0
H1013 H 0.07379 0.96447 0.03127 0.0
H1014 H 0.07376 0.98546 0.02962 0.0
H1015 H 0.08638 0.97485 0.98825 0.0
H1016 H 0.08994 0.03498 0.00564 0.0
H1017 H 0.11663 0.00677 0.903 0.0
H1018 H 0.09882 0.01447 0.11617 0.0
H1019 H 0.08096 0.00668 0.09219 0.0
H1020 H 0.08461 0.02734 0.0884 0.0
H1021 H 0.13057 0.97957 -0.00708 0.0
H1022 H 0.1275 0.98274 0.92638 0.0
H1023 H 0.11345 0.97206 0.96331 0.0
C1024 C 0.22384 0.88044 0.24252 0.0
C1025 C 0.21228 0.86898 0.23752 0.0
C1026 C 0.23336 0.88091 0.28535 0.0
C1027 C 0.23119 0.86963 0.32356 0.0
C1028 C 0.21836 0.85927 0.32133 0.0
C1029 C 0.20896 0.85912 0.27824 0.0
C1030 C 0.24667 0.89242 0.28718 0.0
C1031 C 0.21556 0.8472 0.36182 0.0
C1032 C 0.26648 0.85179 0.38551 0.0
C1033 C 0.26544 0.85789 0.43432 0.0
C1034 C 0.25569 0.85604 0.3485 0.0
C1035 C 0.24369 0.86675 0.36069 0.0
C1036 C 0.24311 0.87364 0.40902 0.0
C1037 C 0.254 0.86906 0.44547 0.0
C1038 C 0.2567 0.84851 0.29706 0.0
C1039 C 0.23063 0.88527 0.42297 0.0
H1040 H 0.22622 0.88832 0.21149 0.0
H1041 H 0.19983 0.85044 0.27491 0.0
H1042 H 0.24822 0.89713 0.32582 0.0
H1043 H 0.25765 0.88642 0.27651 0.0
H1044 H 0.24483 0.90228 0.26069 0.0
H1045 H 0.20392 0.84162 0.35813 0.0
H1046 H 0.22459 0.83798 0.35903 0.0
H1047 H 0.21649 0.85249 0.39985 0.0
H1048 H 0.27538 0.84324 0.37669 0.0
H1049 H 0.25327 0.87394 0.48313 0.0
H1050 H 0.25704 0.85757 0.26722 0.0
H1051 H 0.24618 0.84126 0.29038 0.0
H1052 H 0.26717 0.84099 0.29306 0.0
H1053 H 0.2291 0.89404 0.39264 0.0
H1054 H 0.23334 0.89142 0.45879 0.0
H1055 H 0.21933 0.87912 0.42759 0.0
C1056 C 0.37322 0.01632 0.68511 0.0
C1057 C 0.38445 0.02798 0.67729 0.0
C1058 C 0.36994 0.00535 0.64749 0.0
C1059 C 0.37827 0.00602 0.60157 0.0
C1060 C 0.38869 0.0185 0.59205 0.0
C1061 C 0.39157 0.02943 0.63003 0.0
C1062 C 0.35842 0.99247 0.65829 0.0
C1063 C 0.39774 0.01964 0.54325 0.0
C1064 C 0.39108 0.97032 0.53074 0.0
C1065 C 0.38263 0.97203 0.48596 0.0
C1066 C 0.38886 0.98069 0.5708 0.0
C1067 C 0.37777 0.99281 0.56589 0.0
C1068 C 0.368 0.99347 0.52307 0.0
C1069 C 0.37063 0.98309 0.48326 0.0
C1070 C 0.39944 0.97957 0.6162 0.0
C1071 C 0.35572 0.00594 0.51733 0.0
H1072 H 0.3675 0.01534 0.72146 0.0
H1073 H 0.40013 0.03853 0.62371 0.0
H1074 H 0.35113 0.98997 0.62468 0.0
H1075 H 0.36483 0.98164 0.66785 0.0
H1076 H 0.35066 0.99542 0.69047 0.0
H1077 H 0.40447 0.03067 0.5404 0.0
H1078 H 0.40601 0.00973 0.54054 0.0
H1079 H 0.38974 0.01887 0.5105 0.0
H1080 H 0.40025 0.96166 0.53314 0.0
H1081 H 0.36387 0.98422 0.44891 0.0
H1082 H 0.39258 0.98031 0.65157 0.0
H1083 H 0.40774 0.98951 0.61597 0.0
H1084 H 0.40625 0.96856 0.61659 0.0
H1085 H 0.34952 0.00796 0.55347 0.0
H1086 H 0.34704 0.00284 0.48787 0.0
H1087 H 0.36137 0.01706 0.50627 0.0
C1088 C 0.76996 0.84742 0.24657 0.0
C1089 C 0.76779 0.85408 0.19893 0.0
C1090 C 0.75895 0.84963 0.28486 0.0
C1091 C 0.74551 0.85872 0.27503 0.0
C1092 C 0.74345 0.86581 0.22745 0.0
C1093 C 0.75465 0.86342 0.18988 0.0
C1094 C 0.76153 0.84198 0.33551 0.0
C1095 C 0.72926 0.87561 0.2159 0.0
C1096 C 0.71206 0.84913 0.36202 0.0
C1097 C 0.71422 0.86028 0.39997 0.0
C1098 C 0.72162 0.84905 0.31922 0.0
C1099 C 0.73349 0.86042 0.31456 0.0
C1100 C 0.73484 0.87247 0.35065 0.0
C1101 C 0.72513 0.87227 0.39302 0.0
C1102 C 0.71976 0.83613 0.28097 0.0
C1103 C 0.74727 0.88488 0.34652 0.0
H1104 H 0.78013 0.84025 0.25369 0.0
H1105 H 0.75296 0.86865 0.15306 0.0
H1106 H 0.76133 0.85089 0.36584 0.0
H1107 H 0.75197 0.83361 0.34334 0.0
H1108 H 0.77281 0.83564 0.33736 0.0
H1109 H 0.72982 0.88094 0.17776 0.0
H1110 H 0.71861 0.86829 0.21824 0.0
H1111 H 0.72802 0.88504 0.24424 0.0
H1112 H 0.70352 0.83993 0.36703 0.0
H1113 H 0.72668 0.88105 0.42202 0.0
H1114 H 0.72981 0.82803 0.28376 0.0
H1115 H 0.7197 0.84094 0.24214 0.0
H1116 H 0.70887 0.82936 0.28693 0.0
H1117 H 0.75886 0.87961 0.35393 0.0
H1118 H 0.74542 0.89451 0.37389 0.0
H1119 H 0.74758 0.88984 0.3079 0.0
C1120 C 0.90267 0.04162 0.03772 0.0
C1121 C 0.89172 0.04029 -0.0012 0.0
C1122 C 0.90139 0.0324 0.08109 0.0
C1123 C 0.88886 0.02173 0.08526 0.0
C1124 C 0.87697 0.0215 0.04841 0.0
C1125 C 0.87853 0.03084 0.00551 0.0
C1126 C 0.91417 0.03309 0.12018 0.0
C1127 C 0.86333 0.0104 0.05194 0.0
C1128 C 0.89848 0.98375 0.15009 0.0
C1129 C 0.89191 0.98606 0.19782 0.0
C1130 C 0.89731 0.99523 0.11286 0.0
C1131 C 0.88941 0.00933 0.12385 0.0
C1132 C 0.88238 0.01156 0.17147 0.0
C1133 C 0.88368 -0.00015 0.20799 0.0
C1134 C 0.90484 0.99242 0.06211 0.0
C1135 C 0.87385 0.02645 0.18424 0.0
H1136 H 0.91277 0.04907 0.03291 0.0
H1137 H 0.86989 0.03 0.9758 0.0
H1138 H 0.90918 0.03324 0.15877 0.0
H1139 H 0.92156 0.02251 0.11698 0.0
H1140 H 0.92172 0.04351 0.1153 0.0
H1141 H 0.85394 0.01342 0.02481 0.0
H1142 H 0.86738 -0.00161 0.04357 0.0
H1143 H 0.85838 0.01034 0.09059 0.0
H1144 H 0.90478 0.97308 0.1421 0.0
H1145 H 0.87858 0.00167 0.24493 0.0
H1146 H 0.91402 0.00129 0.05525 0.0
H1147 H 0.89605 0.99363 0.03166 0.0
H1148 H 0.9102 0.98066 0.05933 0.0
H1149 H 0.88215 0.03638 0.18383 0.0
H1150 H 0.86821 0.02593 0.22193 0.0
H1151 H 0.8648 0.02892 0.15549 0.0
C1152 C 0.77283 0.12915 0.8956 0.0
C1153 C 0.78385 0.1412 0.89864 0.0
C1154 C 0.76302 0.12784 0.85367 0.0
C1155 C 0.76436 0.13885 0.81427 0.0
C1156 C 0.77662 0.1499 0.81463 0.0
C1157 C 0.78631 0.1509 0.85693 0.0
C1158 C 0.7503 0.11566 0.85395 0.0
C1159 C 0.77853 0.16169 0.77278 0.0
C1160 C 0.74109 0.13654 0.69354 0.0
C1161 C 0.72909 0.14721 0.70368 0.0
C1162 C 0.75237 0.13309 0.73001 0.0
C1163 C 0.75159 0.14058 0.77738 0.0
C1164 C 0.73905 0.15074 0.78869 0.0
C1165 C 0.7279 0.1539 0.75164 0.0
C1166 C 0.76547 0.12204 0.71702 0.0
C1167 C 0.7378 0.15884 0.83915 0.0
H1168 H 0.77111 0.1214 0.92745 0.0
H1169 H 0.79501 0.16006 0.85879 0.0
H1170 H 0.73908 0.12123 0.86437 0.0
H1171 H 0.74884 0.11041 0.81601 0.0
H1172 H 0.75273 0.10623 0.88156 0.0
H1173 H 0.78984 0.16797 0.77524 0.0
H1174 H 0.77773 0.15597 0.73538 0.0
H1175 H 0.76899 0.1704 0.77509 0.0
H1176 H 0.74196 0.13122 0.65655 0.0
H1177 H 0.71857 0.16204 0.75969 0.0
H1178 H 0.76749 0.11366 0.74819 0.0
H1179 H 0.77641 0.12875 0.7117 0.0
H1180 H 0.76307 0.11541 0.68187 0.0
H1181 H 0.73814 0.15017 0.87016 0.0
H1182 H 0.7269 0.16576 0.8427 0.0
H1183 H 0.74788 0.1668 0.8443 0.0
C1184 C 0.62163 0.01258 0.69164 0.0
C1185 C 0.61208 0.02555 0.68241 0.0
C1186 C 0.62373 0.00109 0.65472 0.0
C1187 C 0.61599 0.00263 0.60799 0.0
C1188 C 0.60728 0.01626 0.59724 0.0
C1189 C 0.60551 0.02762 0.6346 0.0
C1190 C 0.63339 0.98688 0.667 0.0
C1191 C 0.59894 0.01837 0.54751 0.0
C1192 C 0.62262 0.97944 0.48967 0.0
C1193 C 0.60931 0.96993 0.48975 0.0
C1194 C 0.6259 0.98921 0.53058 0.0
C1195 C 0.61551 0.98951 0.57192 0.0
C1196 C 0.603 0.97875 0.57441 0.0
C1197 C 0.60011 0.96896 0.53323 0.0
C1198 C 0.63963 0.00019 0.52737 0.0
C1199 C 0.59174 0.97865 0.61823 0.0
H1200 H 0.62689 0.01104 0.72838 0.0
H1201 H 0.59825 0.03773 0.62714 0.0
H1202 H 0.62554 0.97695 0.67558 0.0
H1203 H 0.64074 0.98347 0.63438 0.0
H1204 H 0.64103 0.98887 0.70021 0.0
H1205 H 0.59348 0.03007 0.54406 0.0
H1206 H 0.60717 0.01676 0.51568 0.0
H1207 H 0.58967 0.0094 0.54372 0.0
H1208 H 0.62995 0.97996 0.45636 0.0
H1209 H 0.58992 0.96148 0.53363 0.0
H1210 H 0.64556 0.00123 0.56439 0.0
H1211 H 0.63546 0.01197 0.51662 0.0
H1212 H 0.64825 0.9963 0.49872 0.0
H1213 H 0.59813 0.9787 0.65458 0.0
H1214 H 0.58389 0.96835 0.61738 0.0
H1215 H 0.58448 0.98934 0.61697 0.0
C1216 C 0.74002 0.65946 0.39649 0.0
C1217 C 0.74161 0.65282 0.44441 0.0
C1218 C 0.75109 0.65667 0.35887 0.0
C1219 C 0.76407 0.64702 0.36959 0.0
C1220 C 0.76577 0.64027 0.41789 0.0
C1221 C 0.75446 0.64323 0.45485 0.0
C1222 C 0.74885 0.66402 0.30756 0.0
C1223 C 0.77949 0.62996 0.43041 0.0
C1224 C 0.78088 0.6316 0.2488 0.0
C1225 C 0.79181 0.64324 0.23757 0.0
C1226 C 0.77267 0.6318 0.29437 0.0
C1227 C 0.77556 0.64392 0.32928 0.0
C1228 C 0.78779 0.65467 0.32055 0.0
C1229 C 0.79584 0.65419 0.27459 0.0
C1230 C 0.75983 0.62002 0.30265 0.0
C1231 C 0.79134 0.66762 0.35734 0.0
H1232 H 0.73009 0.66685 0.38829 0.0
H1233 H 0.75573 0.6381 0.49198 0.0
H1234 H 0.75904 0.67145 0.29815 0.0
H1235 H 0.74807 0.65481 0.27827 0.0
H1236 H 0.73816 0.67129 0.30562 0.0
H1237 H 0.77918 0.62576 0.47002 0.0
H1238 H 0.77968 0.61972 0.40488 0.0
H1239 H 0.79055 0.63642 0.42431 0.0
H1240 H 0.77795 0.62293 0.22058 0.0
H1241 H 0.80446 0.66308 0.26633 0.0
H1242 H 0.74838 0.62566 0.29591 0.0
H1243 H 0.75988 0.6157 0.34207 0.0
H1244 H 0.76089 0.6099 0.27671 0.0
H1245 H 0.78223 0.67676 0.3542 0.0
H1246 H 0.80285 0.67309 0.34974 0.0
H1247 H 0.79118 0.66325 0.39671 0.0
C1248 C 0.62674 0.51948 0.46599 0.0
C1249 C 0.61762 0.53303 0.46343 0.0
C1250 C 0.62551 0.50935 0.50716 0.0
C1251 C 0.61496 0.51294 0.54643 0.0
C1252 C 0.60685 0.5273 0.54627 0.0
C1253 C 0.60833 0.53724 0.50471 0.0
C1254 C 0.63455 0.49424 0.50657 0.0
C1255 C 0.59562 0.53158 0.58793 0.0
C1256 C 0.59357 0.48033 0.61273 0.0
C1257 C 0.60088 0.48034 0.65988 0.0
C1258 C 0.59843 0.49059 0.57479 0.0
C1259 C 0.61093 0.50098 0.58438 0.0
C1260 C 0.61884 0.50051 0.63105 0.0
C1261 C 0.61369 0.49018 0.66838 0.0
C1262 C 0.58978 0.49074 0.52516 0.0
C1263 C 0.63232 0.51131 0.64224 0.0
H1264 H 0.63411 0.51629 0.43442 0.0
H1265 H 0.60142 0.5478 0.50318 0.0
H1266 H 0.63969 0.49183 0.54414 0.0
H1267 H 0.62653 0.48449 0.49752 0.0
H1268 H 0.64404 0.49439 0.47803 0.0
H1269 H 0.59165 0.54387 0.58508 0.0
H1270 H 0.58525 0.52387 0.58599 0.0
H1271 H 0.60109 0.52982 0.62539 0.0
H1272 H 0.58373 0.47266 0.60598 0.0
H1273 H 0.61948 0.49011 0.70471 0.0
H1274 H 0.59807 0.48928 0.49339 0.0
H1275 H 0.58391 0.50217 0.52008 0.0
H1276 H 0.58084 0.48139 0.52288 0.0
H1277 H 0.641 0.51093 0.61124 0.0
H1278 H 0.63825 0.50831 0.6782 0.0
H1279 H 0.62802 0.52348 0.64485 0.0
C1280 C 0.71603 0.38013 0.7395 0.0
C1281 C 0.7058 0.36758 0.73217 0.0
C1282 C 0.7246 0.38148 0.78419 0.0
C1283 C 0.72288 0.36992 0.82179 0.0
C1284 C 0.71112 0.35843 0.81718 0.0
C1285 C 0.70262 0.35743 0.77226 0.0
C1286 C 0.7367 0.39418 0.78849 0.0
C1287 C 0.70879 0.34604 0.85693 0.0
C1288 C 0.75957 0.35488 0.88289 0.0
C1289 C 0.75818 0.36072 0.93194 0.0
C1290 C 0.74831 0.3582 0.84643 0.0
C1291 C 0.73541 0.36769 0.85936 0.0
C1292 C 0.73428 0.37423 0.90815 0.0
C1293 C 0.74569 0.3706 0.94411 0.0
C1294 C 0.74999 0.35109 0.7945 0.0
C1295 C 0.72078 0.38454 0.92295 0.0
H1296 H 0.71822 0.38824 0.70896 0.0
H1297 H 0.69448 0.34789 0.76707 0.0
H1298 H 0.73729 0.39878 0.82755 0.0
H1299 H 0.74833 0.38932 0.77901 0.0
H1300 H 0.73427 0.40398 0.76226 0.0
H1301 H 0.69757 0.33975 0.85194 0.0
H1302 H 0.71842 0.33743 0.85443 0.0
H1303 H 0.70909 0.3512 0.89525 0.0
H1304 H 0.76929 0.34735 0.87323 0.0
H1305 H 0.74463 0.3752 0.982 0.0
H1306 H 0.74985 0.36037 0.76535 0.0
H1307 H 0.73999 0.34322 0.78684 0.0
H1308 H 0.76094 0.34431 0.79034 0.0
H1309 H 0.71816 0.39311 0.89278 0.0
H1310 H 0.7231 0.39094 0.9586 0.0
H1311 H 0.7102 0.37728 0.9284 0.0
C1312 C 0.89055 0.50001 0.20299 0.0
C1313 C 0.90106 0.51212 0.19238 0.0
C1314 C 0.88643 0.48916 0.16576 0.0
C1315 C 0.89297 0.49056 0.11704 0.0
C1316 C 0.90359 0.50276 0.10619 0.0
C1317 C 0.9075 0.5134 0.14406 0.0
C1318 C 0.87509 0.47626 0.17842 0.0
C1319 C 0.91078 0.50463 0.05448 0.0
C1320 C 0.89696 0.45857 0.02091 0.0
C1321 C 0.88616 0.46353 0.98466 0.0
C1322 C 0.89838 0.46646 0.06692 0.0
C1323 C 0.88873 0.4795 0.07655 0.0
C1324 C 0.87669 0.48343 0.04247 0.0
C1325 C 0.87553 0.47536 -0.00321 0.0
C1326 C 0.91123 0.46181 0.10276 0.0
C1327 C 0.86604 0.49714 0.0518 0.0
H1328 H 0.88555 0.49898 0.2404 0.0
H1329 H 0.91561 0.52276 0.13573 0.0
H1330 H 0.86469 0.47706 0.1537 0.0
H1331 H 0.88056 0.46475 0.17127 0.0
H1332 H 0.8712 0.47671 0.21836 0.0
H1333 H 0.91889 0.51472 0.05246 0.0
H1334 H 0.9173 0.49393 0.04415 0.0
H1335 H 0.9015 0.50628 0.02586 0.0
H1336 H 0.90504 0.44926 0.01201 0.0
H1337 H 0.86696 0.47903 0.96919 0.0
H1338 H 0.90711 0.46215 0.1424 0.0
H1339 H 0.92103 0.4702 0.09933 0.0
H1340 H 0.91574 0.44994 0.09447 0.0
H1341 H 0.86195 0.49732 0.09148 0.0
H1342 H 0.85572 0.49697 0.02648 0.0
H1343 H 0.87256 0.50812 0.04498 0.0
C1344 C 0.25697 0.34917 0.74018 0.0
C1345 C 0.25556 0.35598 0.69245 0.0
C1346 C 0.24582 0.3519 0.77756 0.0
C1347 C 0.23293 0.36166 0.7668 0.0
C1348 C 0.23142 0.36862 0.71875 0.0
C1349 C 0.24282 0.36571 0.68201 0.0
C1350 C 0.24784 0.34432 0.82861 0.0
C1351 C 0.21779 0.37905 0.70621 0.0
C1352 C 0.20106 0.3537 0.86051 0.0
C1353 C 0.2051 0.36427 0.89861 0.0
C1354 C 0.20906 0.3537 0.81446 0.0
C1355 C 0.22126 0.36455 0.80677 0.0
C1356 C 0.22407 0.37639 0.84272 0.0
C1357 C 0.21591 0.37612 0.88837 0.0
C1358 C 0.20558 0.34103 0.77655 0.0
C1359 C 0.23686 0.3883 0.83554 0.0
H1360 H 0.26682 0.34168 0.74839 0.0
H1361 H 0.24168 0.37098 0.64503 0.0
H1362 H 0.2485 0.35338 0.85838 0.0
H1363 H 0.23763 0.33683 0.8372 0.0
H1364 H 0.25854 0.33704 0.83067 0.0
H1365 H 0.2184 0.38362 0.66704 0.0
H1366 H 0.20671 0.37254 0.71083 0.0
H1367 H 0.21741 0.38906 0.73268 0.0
H1368 H 0.19251 0.34468 0.86797 0.0
H1369 H 0.21883 0.38453 0.91743 0.0
H1370 H 0.21462 0.33182 0.77938 0.0
H1371 H 0.2059 0.34568 0.73753 0.0
H1372 H 0.19401 0.33559 0.78333 0.0
H1373 H 0.24832 0.3827 0.84261 0.0
H1374 H 0.2356 0.39829 0.86189 0.0
H1375 H 0.23697 0.39279 0.79632 0.0
C1376 C 0.40594 0.51945 0.50109 0.0
C1377 C 0.39954 0.51894 0.4526 0.0
C1378 C 0.40097 0.50906 0.53839 0.0
C1379 C 0.38925 0.49798 0.52684 0.0
C1380 C 0.38247 0.49762 0.47832 0.0
C1381 C 0.38775 0.50811 0.44156 0.0
C1382 C 0.40847 0.50978 0.58992 0.0
C1383 C 0.36985 0.48604 0.46508 0.0
C1384 C 0.392 0.4643 0.61677 0.0
C1385 C 0.38223 0.46954 0.6556 0.0
C1386 C 0.39335 0.47275 0.57185 0.0
C1387 C 0.38458 0.4866 0.56584 0.0
C1388 C 0.37334 0.49085 0.60235 0.0
C1389 C 0.37232 0.48225 0.64705 0.0
C1390 C 0.40536 0.46778 0.53343 0.0
C1391 C 0.36356 0.50537 0.59668 0.0
H1392 H 0.41501 0.52784 0.50978 0.0
H1393 H 0.38272 0.50775 0.40409 0.0
H1394 H 0.39946 0.51175 0.61925 0.0
H1395 H 0.41424 0.49851 0.5985 0.0
H1396 H 0.41731 0.51922 0.59276 0.0
H1397 H 0.36502 0.48805 0.42677 0.0
H1398 H 0.37461 0.47403 0.46674 0.0
H1399 H 0.36021 0.4867 0.4929 0.0
H1400 H 0.3995 0.45431 0.62291 0.0
H1401 H 0.3645 0.48613 0.67665 0.0
H1402 H 0.41572 0.47549 0.53643 0.0
H1403 H 0.40072 0.46892 0.49458 0.0
H1404 H 0.4092 0.45555 0.53941 0.0
H1405 H 0.37081 0.51575 0.60531 0.0
H1406 H 0.35341 0.50532 0.62274 0.0
H1407 H 0.35926 0.50661 0.55744 0.0
C1408 C 0.27335 0.62666 0.42307 0.0
C1409 C 0.28626 0.63667 0.42554 0.0
C1410 C 0.26334 0.62695 0.38144 0.0
C1411 C 0.26639 0.63751 0.34174 0.0
C1412 C 0.28022 0.64652 0.34185 0.0
C1413 C 0.29007 0.64594 0.38383 0.0
C1414 C 0.24885 0.61695 0.38205 0.0
C1415 C 0.28391 0.65781 0.29978 0.0
C1416 C 0.24356 0.63722 0.21996 0.0
C1417 C 0.23296 0.64939 0.22851 0.0
C1418 C 0.25421 0.63276 0.25724 0.0
C1419 C 0.25423 0.64075 0.3038 0.0
C1420 C 0.24313 0.65261 0.31338 0.0
C1421 C 0.23256 0.65676 0.27555 0.0
C1422 C 0.26576 0.61994 0.24613 0.0
C1423 C 0.24281 0.66133 0.36289 0.0
H1424 H 0.27051 0.61928 0.45498 0.0
H1425 H 0.30016 0.65355 0.38534 0.0
H1426 H 0.23859 0.62433 0.39097 0.0
H1427 H 0.24679 0.6116 0.34454 0.0
H1428 H 0.24958 0.60753 0.41073 0.0
H1429 H 0.29597 0.66247 0.30252 0.0
H1430 H 0.28246 0.65213 0.26251 0.0
H1431 H 0.27565 0.66776 0.30137 0.0
H1432 H 0.24379 0.63139 0.18369 0.0
H1433 H 0.22431 0.6661 0.28232 0.0
H1434 H 0.26595 0.61132 0.27731 0.0
H1435 H 0.27766 0.62495 0.24322 0.0
H1436 H 0.26307 0.61376 0.21035 0.0
H1437 H 0.24176 0.65302 0.39477 0.0
H1438 H 0.233 0.66976 0.36504 0.0
H1439 H 0.2539 0.66782 0.36792 0.0
C1440 C 0.09991 0.54498 0.122 0.0
C1441 C 0.11079 0.54042 0.15854 0.0
C1442 C 0.09851 0.53672 0.07669 0.0
C1443 C 0.10828 0.52371 0.06802 0.0
C1444 C 0.12034 0.5201 0.1024 0.0
C1445 C 0.12147 0.52854 0.14739 0.0
C1446 C 0.08563 0.54101 0.04048 0.0
C1447 C 0.13111 0.50641 0.09407 0.0
C1448 C 0.08994 0.48952 0.00065 0.0
C1449 C 0.09639 0.49086 0.95236 0.0
C1450 C 0.09376 0.50019 0.03855 0.0
C1451 C 0.10429 0.51247 0.02776 0.0
C1452 C 0.11091 0.51388 0.97916 0.0
C1453 C 0.10688 0.50301 0.94191 0.0
C1454 C 0.0865 0.49832 0.09016 0.0
C1455 C 0.12217 0.52684 0.96658 0.0
H1456 H 0.09177 0.55432 0.13015 0.0
H1457 H 0.13008 0.52515 0.17522 0.0
H1458 H 0.08984 0.54065 0.00095 0.0
H1459 H 0.076 0.53242 0.04393 0.0
H1460 H 0.08085 0.5528 0.04832 0.0
H1461 H 0.14135 0.50677 0.11965 0.0
H1462 H 0.12464 0.49542 0.1012 0.0
H1463 H 0.1353 0.50608 0.05451 0.0
H1464 H 0.08186 0.48013 0.00886 0.0
H1465 H 0.1119 0.50407 0.90454 0.0
H1466 H 0.0798 0.50895 0.10011 0.0
H1467 H 0.09575 0.49687 0.119 0.0
H1468 H 0.07853 0.48812 0.09224 0.0
H1469 H 0.11651 0.53831 0.97265 0.0
H1470 H 0.12634 0.52623 0.92695 0.0
H1471 H 0.13241 0.52632 -0.00792 0.0
C1472 C 0.22517 0.22553 0.06218 0.0
C1473 C 0.21191 0.21678 0.04986 0.0
C1474 C 0.22466 0.24188 0.06286 0.0
C1475 C 0.2107 0.24961 0.04936 0.0
C1476 C 0.19725 0.24081 0.03706 0.0
C1477 C 0.19796 0.22447 0.03819 0.0
C1478 C 0.23912 0.25086 0.07752 0.0
C1479 C 0.18227 0.24864 0.02119 0.0
C1480 C 0.20527 0.29221 0.08451 0.0
C1481 C 0.21031 0.29971 0.04047 0.0
C1482 C 0.20546 0.27588 0.08818 0.0
C1483 C 0.21035 0.2669 0.04623 0.0
C1484 C 0.2151 0.27444 0.00128 0.0
C1485 C 0.21525 0.29078 -0.00078 0.0
C1486 C 0.20072 0.26825 0.13717 0.0
C1487 C 0.21999 0.26527 0.9553 0.0
H1488 H 0.23593 0.21958 0.07162 0.0
H1489 H 0.18773 0.2177 0.02825 0.0
H1490 H 0.24339 0.25771 0.04482 0.0
H1491 H 0.23635 0.25926 0.10807 0.0
H1492 H 0.24866 0.2431 0.09052 0.0
H1493 H 0.17282 0.24011 0.01341 0.0
H1494 H 0.17826 0.25677 0.05101 0.0
H1495 H 0.18433 0.25566 0.98666 0.0
H1496 H 0.20156 0.29912 0.11656 0.0
H1497 H 0.21902 0.29658 0.96498 0.0
H1498 H 0.21049 0.26107 0.15179 0.0
H1499 H 0.19072 0.2603 0.13083 0.0
H1500 H 0.19741 0.27691 0.16644 0.0
H1501 H 0.23051 0.25825 0.96399 0.0
H1502 H 0.22263 0.2729 0.92254 0.0
H1503 H 0.21061 0.25701 0.9444 0.0
C1504 C 0.03246 0.9622 0.34704 0.0
C1505 C 0.03903 0.96935 0.3045 0.0
C1506 C 0.01627 0.96228 0.35479 0.0
C1507 C 0.00646 0.9693 0.3184 0.0
C1508 C 0.01304 0.97633 0.27501 0.0
C1509 C 0.02928 0.97646 0.26893 0.0
C1510 C 0.00969 0.95502 0.40213 0.0
C1511 C 0.00292 0.98362 0.2348 0.0
C1512 C 0.96391 0.95734 0.31194 0.0
C1513 C 0.95652 0.97045 0.33255 0.0
C1514 C 0.9802 0.95672 0.30759 0.0
C1515 C 0.98929 0.96934 0.32555 0.0
C1516 C 0.98191 0.98231 0.34833 0.0
C1517 C 0.96558 0.98281 0.3509 0.0
C1518 C 0.98763 0.94285 0.28207 0.0
C1519 C 0.99124 0.99579 0.36912 0.0
H1520 H 0.04 0.95681 0.3748 0.0
H1521 H 0.03434 0.98189 0.23582 0.0
H1522 H 0.00284 0.96381 0.42337 0.0
H1523 H 0.00162 0.94539 0.39222 0.0
H1524 H 0.01895 0.95035 0.42723 0.0
H1525 H 0.00986 0.98812 0.20253 0.0
H1526 H 0.99444 0.97491 0.22043 0.0
H1527 H 0.99612 0.99339 0.25106 0.0
H1528 H 0.95691 0.94783 0.29733 0.0
H1529 H 0.95989 0.99291 0.36721 0.0
H1530 H 0.99642 0.93746 0.30727 0.0
H1531 H 0.99384 0.94673 0.24753 0.0
H1532 H 0.97894 0.93383 0.27136 0.0
H1533 H 0.00029 0.99146 0.3955 0.0
H1534 H 0.98381 0.00438 0.38926 0.0
H1535 H 0.99735 0.00188 0.33793 0.0
C1536 C 0.27946 0.77644 0.50454 0.0
C1537 C 0.28486 0.78532 0.54524 0.0
C1538 C 0.28085 0.76016 0.50465 0.0
C1539 C 0.28722 0.75261 0.54742 0.0
C1540 C 0.29283 0.76157 0.58847 0.0
C1541 C 0.29183 0.77789 0.58645 0.0
C1542 C 0.27525 0.75104 0.45944 0.0
C1543 C 0.29922 0.75392 0.63538 0.0
C1544 C 0.27372 0.71098 0.56779 0.0
C1545 C 0.28694 0.70252 0.55335 0.0
C1546 C 0.27383 0.72732 0.56736 0.0
C1547 C 0.28728 0.73532 0.55019 0.0
C1548 C 0.3006 0.72679 0.53496 0.0
C1549 C 0.30037 0.71045 0.53766 0.0
C1550 C 0.25957 0.73602 0.58543 0.0
C1551 C 0.31493 0.7349 0.51477 0.0
H1552 H 0.27415 0.78227 0.47257 0.0
H1553 H 0.29585 0.7848 0.61813 0.0
H1554 H 0.28443 0.74281 0.4467 0.0
H1555 H 0.26489 0.744 0.46989 0.0
H1556 H 0.27205 0.75874 0.42739 0.0
H1557 H 0.30342 0.76256 0.66345 0.0
H1558 H 0.29001 0.74668 0.65319 0.0
H1559 H 0.30899 0.74602 0.62556 0.0
H1560 H 0.26339 0.70479 0.58029 0.0
H1561 H 0.31053 0.70384 0.52607 0.0
H1562 H 0.25446 0.74279 0.5539 0.0
H1563 H 0.26287 0.74445 0.61532 0.0
H1564 H 0.25048 0.72806 0.60061 0.0
H1565 H 0.31179 0.74198 0.48126 0.0
H1566 H 0.32423 0.72654 0.50386 0.0
H1567 H 0.31969 0.74301 0.54347 0.0
C1568 C 0.46467 0.05158 0.76464 0.0
C1569 C 0.45766 0.03773 0.78111 0.0
C1570 C 0.48097 0.0529 0.76195 0.0
C1571 C 0.49037 0.04027 0.77791 0.0
C1572 C 0.4833 0.02634 0.79518 0.0
C1573 C 0.46701 0.02514 0.79571 0.0
C1574 C 0.48811 0.06773 0.74173 0.0
C1575 C 0.49292 0.01278 0.81392 0.0
C1576 C 0.53246 0.03488 0.73827 0.0
C1577 C 0.54041 0.04064 0.78046 0.0
C1578 C 0.51615 0.03554 0.73564 0.0
C1579 C 0.50763 0.04154 0.77707 0.0
C1580 C 0.51565 0.04767 0.81935 0.0
C1581 C 0.532 0.04738 0.82014 0.0
C1582 C 0.50802 0.02939 0.68922 0.0
C1583 C 0.50698 0.05373 0.86488 0.0
H1584 H 0.45739 0.06127 0.75306 0.0
H1585 H 0.46156 0.01449 0.80896 0.0
H1586 H 0.49535 0.07335 0.77124 0.0
H1587 H 0.49593 0.065 0.70957 0.0
H1588 H 0.47916 0.0762 0.72892 0.0
H1589 H 0.48558 0.00302 0.82796 0.0
H1590 H 0.50047 0.00833 0.78316 0.0
H1591 H 0.5007 0.01668 0.84492 0.0
H1592 H 0.53902 0.02979 0.70743 0.0
H1593 H 0.53819 0.0517 0.85295 0.0
H1594 H 0.49925 0.03792 0.67564 0.0
H1595 H 0.5017 0.01848 0.6986 0.0
H1596 H 0.51633 0.02688 0.6581 0.0
H1597 H 0.49849 0.06281 0.85355 0.0
H1598 H 0.51495 0.05873 0.89369 0.0
H1599 H 0.50026 0.04409 0.88243 0.0
C1600 C 0.20871 0.79436 0.06564 0.0
C1601 C 0.21485 0.80217 0.10762 0.0
C1602 C 0.20921 0.77804 0.06244 0.0
C1603 C 0.21562 0.76936 0.10279 0.0
C1604 C 0.22149 0.77718 0.14581 0.0
C1605 C 0.22123 0.79352 0.14741 0.0
C1606 C 0.20317 0.77012 0.01547 0.0
C1607 C 0.22809 0.76829 0.19009 0.0
C1608 C 0.20491 0.72656 0.11379 0.0
C1609 C 0.21857 0.71933 0.09653 0.0
C1610 C 0.20379 0.74286 0.11616 0.0
C1611 C 0.21649 0.7521 0.09965 0.0
C1612 C 0.23014 0.74486 0.08093 0.0
C1613 C 0.23109 0.72854 0.08023 0.0
C1614 C 0.18919 0.75017 0.1374 0.0
C1615 C 0.24376 0.75434 0.06185 0.0
H1616 H 0.20389 0.80103 0.03463 0.0
H1617 H 0.22587 0.79954 0.18008 0.0
H1618 H 0.21267 0.76328 -0.00241 0.0
H1619 H 0.19374 0.76181 0.02536 0.0
H1620 H 0.19858 0.77857 0.98742 0.0
H1621 H 0.23147 0.7761 0.22169 0.0
H1622 H 0.21938 0.75975 0.20413 0.0
H1623 H 0.23851 0.76161 0.17807 0.0
H1624 H 0.19526 0.71945 0.12682 0.0
H1625 H 0.24162 0.72297 0.06652 0.0
H1626 H 0.18388 0.75809 0.10916 0.0
H1627 H 0.19216 0.75734 0.1709 0.0
H1628 H 0.18037 0.74133 0.14862 0.0
H1629 H 0.23981 0.76254 0.03212 0.0
H1630 H 0.25319 0.74691 0.04612 0.0
H1631 H 0.24868 0.76144 0.09299 0.0
C1632 C 0.46347 0.98167 0.36451 0.0
C1633 C 0.45475 0.96819 0.37436 0.0
C1634 C 0.4798 0.98127 0.36424 0.0
C1635 C 0.48758 0.96716 0.37583 0.0
C1636 C 0.47882 0.95357 0.38683 0.0
C1637 C 0.46246 0.95419 0.38506 0.0
C1638 C 0.48873 0.99588 0.35078 0.0
C1639 C 0.48671 0.93846 0.40084 0.0
C1640 C 0.52943 0.9626 0.33181 0.0
C1641 C 0.53771 0.96757 0.3744 0.0
C1642 C 0.51308 0.96235 0.33179 0.0
C1643 C 0.50489 0.96668 0.37601 0.0
C1644 C 0.51324 0.97119 0.41969 0.0
C1645 C 0.52958 0.97185 0.41807 0.0
C1646 C 0.50458 0.95794 0.28399 0.0
C1647 C 0.50493 0.97544 0.46798 0.0
H1648 H 0.45749 0.99246 0.35569 0.0
H1649 H 0.45569 0.94379 0.39298 0.0
H1650 H 0.49621 -0.00053 0.38283 0.0
H1651 H 0.49653 0.99356 0.31822 0.0
H1652 H 0.4809 0.00573 0.341 0.0
H1653 H 0.4782 0.92913 0.41033 0.0
H1654 H 0.4941 0.93436 0.36918 0.0
H1655 H 0.4945 0.94032 0.43371 0.0
H1656 H 0.53574 0.9594 0.29791 0.0
H1657 H 0.53602 0.97555 0.45116 0.0
H1658 H 0.4972 0.96783 0.27139 0.0
H1659 H 0.4967 0.94793 0.29109 0.0
H1660 H 0.51269 0.95481 0.25294 0.0
H1661 H 0.49791 0.98615 0.46224 0.0
H1662 H 0.51316 0.9775 0.49964 0.0
H1663 H 0.49674 0.966 0.47889 0.0
C1664 C 0.29016 0.21681 0.53287 0.0
C1665 C 0.28102 0.20954 0.56989 0.0
C1666 C 0.29005 0.23307 0.52727 0.0
C1667 C 0.28093 0.24224 0.56043 0.0
C1668 C 0.2719 0.23496 0.59845 0.0
C1669 C 0.27189 0.21866 0.60225 0.0
C1670 C 0.2995 0.24043 0.48548 0.0
C1671 C 0.26232 0.24437 0.63528 0.0
C1672 C 0.29075 0.28499 0.57883 0.0
C1673 C 0.27858 0.29223 0.55251 0.0
C1674 C 0.29181 0.26869 0.58114 0.0
C1675 C 0.28067 0.25948 0.55534 0.0
C1676 C 0.26878 0.26675 0.52682 0.0
C1677 C 0.26773 0.28306 0.52637 0.0
C1678 C 0.30444 0.26134 0.61288 0.0
C1679 C 0.25695 0.25731 0.4977 0.0
H1680 H 0.29713 0.20974 0.50755 0.0
H1681 H 0.26492 0.21305 0.63117 0.0
H1682 H 0.29172 0.24725 0.46034 0.0
H1683 H 0.30814 0.24867 0.5015 0.0
H1684 H 0.30579 0.23162 0.46244 0.0
H1685 H 0.25647 0.23694 0.66392 0.0
H1686 H 0.26987 0.25293 0.65504 0.0
H1687 H 0.25327 0.25108 0.61475 0.0
H1688 H 0.29907 0.29208 0.5994 0.0
H1689 H 0.25839 0.28866 0.50564 0.0
H1690 H 0.31132 0.25299 0.59001 0.0
H1691 H 0.29906 0.25465 0.64422 0.0
H1692 H 0.3125 0.27015 0.62916 0.0
H1693 H 0.26294 0.24871 0.47316 0.0
H1694 H 0.24933 0.26474 0.47388 0.0
H1695 H 0.24949 0.25066 0.52428 0.0
C1696 C 0.96219 0.04391 0.80022 0.0
C1697 C 0.9555 0.03707 0.84309 0.0
C1698 C 0.97838 0.04363 0.79266 0.0
C1699 C 0.98807 0.03673 0.82958 0.0
C1700 C 0.98137 0.02992 0.87316 0.0
C1701 C 0.96513 0.02998 0.87905 0.0
C1702 C 0.98508 0.05064 0.74512 0.0
C1703 C 0.99138 0.02277 0.91392 0.0
C1704 C 0.02916 0.0235 0.79842 0.0
C1705 C 0.03803 0.03607 0.81618 0.0
C1706 C 0.01282 0.02378 0.80094 0.0
C1707 C 0.00527 0.03676 0.82307 0.0
C1708 C 0.01418 0.04956 0.84062 0.0
C1709 C 0.03047 0.04914 0.83632 0.0
C1710 C 0.00367 0.01012 0.78058 0.0
C1711 C 0.00655 0.06344 0.86545 0.0
H1712 H 0.95474 0.04928 0.77215 0.0
H1713 H 0.95997 0.02478 0.9124 0.0
H1714 H 0.99297 0.06045 0.75475 0.0
H1715 H 0.99216 0.04181 0.72483 0.0
H1716 H 0.97589 0.05502 0.71926 0.0
H1717 H 0.98435 0.01826 0.94597 0.0
H1718 H -0.00166 0.01303 0.89814 0.0
H1719 H -0.00028 0.03158 0.92851 0.0
H1720 H 0.035 0.01343 0.78249 0.0
H1721 H 0.03732 0.05882 0.85049 0.0
H1722 H 0.9947 0.01424 0.75356 0.0
H1723 H 0.99746 0.00417 0.81185 0.0
H1724 H 0.01124 0.00147 0.76127 0.0
H1725 H 0.99788 0.06875 0.83963 0.0
H1726 H 0.01514 0.07253 0.87647 0.0
H1727 H 0.00017 0.05961 0.89971 0.0
C1728 C 0.78287 0.7159 0.12131 0.0
C1729 C 0.78925 0.70613 0.08431 0.0
C1730 C 0.78309 0.73214 0.11566 0.0
C1731 C 0.78952 0.73876 0.07136 0.0
C1732 C 0.79604 0.72896 0.03391 0.0
C1733 C 0.796 0.71274 0.04113 0.0
C1734 C 0.77632 0.74222 0.15696 0.0
C1735 C 0.80268 0.73559 0.98572 0.0
C1736 C 0.77417 0.77912 0.04122 0.0
C1737 C 0.78633 0.78864 0.05848 0.0
C1738 C 0.77537 0.76282 0.04305 0.0
C1739 C 0.7889 0.75592 0.06382 0.0
C1740 C 0.80138 0.76547 0.08023 0.0
C1741 C 0.80001 0.78174 0.0768 0.0
C1742 C 0.76196 0.75302 0.02408 0.0
C1743 C 0.81587 0.75853 0.1035 0.0
H1744 H 0.77777 0.71083 0.15496 0.0
H1745 H 0.80086 0.70521 0.01231 0.0
H1746 H 0.78504 0.75099 0.16933 0.0
H1747 H 0.76607 0.74868 0.14243 0.0
H1748 H 0.77261 0.73529 0.19027 0.0
H1749 H 0.80759 0.72641 0.96078 0.0
H1750 H 0.79342 0.7419 0.96481 0.0
H1751 H 0.81199 0.74416 -0.00561 0.0
H1752 H 0.76362 0.78442 0.02661 0.0
H1753 H 0.8094 0.78908 0.0905 0.0
H1754 H 0.75642 0.74683 0.05614 0.0
H1755 H 0.76627 0.74403 -0.00261 0.0
H1756 H 0.75293 0.76013 0.00482 0.0
H1757 H 0.81276 0.75253 0.1392 0.0
H1758 H 0.82486 0.7675 0.1118 0.0
H1759 H 0.821 0.74966 0.07801 0.0
C1760 C 0.70159 0.22451 0.59915 0.0
C1761 C 0.7152 0.21735 0.58129 0.0
C1762 C 0.70057 0.24079 0.6031 0.0
C1763 C 0.71334 0.2501 0.58755 0.0
C1764 C 0.72698 0.24293 0.56847 0.0
C1765 C 0.72783 0.22662 0.56619 0.0
C1766 C 0.68597 0.24801 0.62471 0.0
C1767 C 0.74069 0.2525 0.55042 0.0
C1768 C 0.70555 0.29253 0.55564 0.0
C1769 C 0.71156 0.30015 0.59818 0.0
C1770 C 0.70611 0.27623 0.55156 0.0
C1771 C 0.71248 0.26736 0.59157 0.0
C1772 C 0.71825 0.27498 0.63511 0.0
C1773 C 0.71791 0.29132 0.63759 0.0
C1774 C 0.70019 0.26853 0.50406 0.0
C1775 C 0.72478 0.26588 0.67903 0.0
H1776 H 0.69185 0.21736 0.61129 0.0
H1777 H 0.73833 0.22111 0.55205 0.0
H1778 H 0.68895 0.25506 0.65846 0.0
H1779 H 0.68064 0.25601 0.59677 0.0
H1780 H 0.67718 0.23912 0.63564 0.0
H1781 H 0.75018 0.24514 0.53473 0.0
H1782 H 0.73684 0.26082 0.52092 0.0
H1783 H 0.74548 0.25946 0.58207 0.0
H1784 H 0.70075 0.29934 0.52491 0.0
H1785 H 0.72246 0.29718 0.67069 0.0
H1786 H 0.69071 0.26021 0.51332 0.0
H1787 H 0.70971 0.26174 0.48614 0.0
H1788 H 0.6957 0.27712 0.47627 0.0
H1789 H 0.71605 0.25729 0.69255 0.0
H1790 H 0.72813 0.27354 0.71104 0.0
H1791 H 0.73521 0.25924 0.66682 0.0
C1792 C 0.78793 0.28395 0.0248 0.0
C1793 C 0.77481 0.29091 0.04682 0.0
C1794 C 0.78898 0.2677 0.02005 0.0
C1795 C 0.77679 0.25823 0.039 0.0
C1796 C 0.7636 0.2652 0.06185 0.0
C1797 C 0.76268 0.28149 0.06489 0.0
C1798 C 0.80305 0.26068 -0.00557 0.0
C1799 C 0.75055 0.25546 0.08354 0.0
C1800 C 0.77194 0.2167 -0.00768 0.0
C1801 C 0.77954 0.20826 0.03027 0.0
C1802 C 0.77122 0.23303 -0.00587 0.0
C1803 C 0.7779 0.24101 0.03557 0.0
C1804 C 0.78549 0.23252 0.07417 0.0
C1805 C 0.7864 0.21625 0.0707 0.0
C1806 C 0.76336 0.24174 0.95169 0.0
C1807 C 0.79244 0.24061 0.11951 0.0
H1808 H 0.79726 0.29123 0.01034 0.0
H1809 H 0.75257 0.28686 0.08221 0.0
H1810 H 0.80939 0.25301 0.02113 0.0
H1811 H 0.79928 0.25331 0.96225 0.0
H1812 H 0.81125 0.2697 0.98024 0.0
H1813 H 0.74126 0.2627 0.10098 0.0
H1814 H 0.74524 0.24818 0.05353 0.0
H1815 H 0.75523 0.2474 0.11257 0.0
H1816 H 0.76674 0.21054 0.96082 0.0
H1817 H 0.79218 0.20973 0.10032 0.0
H1818 H 0.77154 0.25039 0.93526 0.0
H1819 H 0.75318 0.24829 0.96639 0.0
H1820 H 0.7593 0.23382 0.92122 0.0
H1821 H 0.80153 0.24901 0.10731 0.0
H1822 H 0.79774 0.23228 0.14659 0.0
H1823 H 0.78328 0.24737 0.13942 0.0
C1824 C 0.7053 0.72353 0.55911 0.0
C1825 C 0.71814 0.7166 0.58289 0.0
C1826 C 0.70405 0.7398 0.55561 0.0
C1827 C 0.71574 0.7493 0.57745 0.0
C1828 C 0.72834 0.74236 0.60357 0.0
C1829 C 0.72949 0.72607 0.60543 0.0
C1830 C 0.69061 0.74679 0.52665 0.0
C1831 C 0.74082 0.75213 0.62839 0.0
C1832 C 0.72314 0.78953 0.52335 0.0
C1833 C 0.71492 0.79904 0.5571 0.0
C1834 C 0.72327 0.77329 0.52916 0.0
C1835 C 0.71531 0.76646 0.57041 0.0
C1836 C 0.70712 0.77602 0.60491 0.0
C1837 C 0.70686 0.79221 0.59748 0.0
C1838 C 0.73188 0.76344 0.491 0.0
C1839 C 0.6988 0.76915 0.64995 0.0
H1840 H 0.69656 0.71623 0.54136 0.0
H1841 H 0.73935 0.72073 0.62424 0.0
H1842 H 0.68437 0.75544 0.55026 0.0
H1843 H 0.69512 0.75305 0.49305 0.0
H1844 H 0.68213 0.73781 0.51389 0.0
H1845 H 0.74904 0.74498 0.65099 0.0
H1846 H 0.74757 0.75848 0.59917 0.0
H1847 H 0.73544 0.761 0.65339 0.0
H1848 H 0.72927 0.79477 0.49185 0.0
H1849 H 0.70059 0.79956 0.62384 0.0
H1850 H 0.72385 0.75472 0.47428 0.0
H1851 H 0.74141 0.75692 0.50983 0.0
H1852 H 0.737 0.77054 0.46009 0.0
H1853 H 0.68979 0.76074 0.6373 0.0
H1854 H 0.69311 0.77822 0.67355 0.0
H1855 H 0.7072 0.76261 0.6737 0.0
C1856 C 0.52197 0.46194 0.82891 0.0
C1857 C 0.52972 0.46857 0.78768 0.0
C1858 C 0.50562 0.4619 0.83133 0.0
C1859 C 0.49692 0.46807 0.79055 0.0
C1860 C 0.50476 0.47426 0.74801 0.0
C1861 C 0.52111 0.47474 0.74759 0.0
C1862 C 0.49768 0.45572 0.87807 0.0
C1863 C 0.49591 0.48043 0.70302 0.0
C1864 C 0.45437 0.45633 0.77823 0.0
C1865 C 0.44683 0.47003 0.79337 0.0
C1866 C 0.47071 0.45553 0.77683 0.0
C1867 C 0.47962 0.46853 0.79291 0.0
C1868 C 0.47198 0.48219 0.80992 0.0
C1869 C 0.45565 0.48289 0.80891 0.0
C1870 C 0.47843 0.44099 0.7567 0.0
C1871 C 0.48105 0.49608 0.82902 0.0
H1872 H 0.52871 0.45729 0.86005 0.0
H1873 H 0.52718 0.47974 0.71557 0.0
H1874 H 0.49054 0.46508 0.8955 0.0
H1875 H 0.48964 0.44608 0.86809 0.0
H1876 H 0.50614 0.4514 0.90651 0.0
H1877 H 0.50377 0.48368 0.67139 0.0
H1878 H 0.4875 0.47155 0.68941 0.0
H1879 H 0.4891 0.49087 0.71406 0.0
H1880 H 0.44747 0.44646 0.76579 0.0
H1881 H 0.44974 0.49342 0.82095 0.0
H1882 H 0.48633 0.43597 0.78553 0.0
H1883 H 0.48569 0.44397 0.72339 0.0
H1884 H 0.46982 0.43195 0.74549 0.0
H1885 H 0.48934 0.49238 0.85884 0.0
H1886 H 0.47333 0.50529 0.84462 0.0
H1887 H 0.48802 0.5012 0.79792 0.0
C1888 C 0.97378 0.54841 0.30876 0.0
C1889 C 0.96672 0.53532 0.33076 0.0
C1890 C 0.99008 0.54967 0.30604 0.0
C1891 C -0.00053 0.5377 0.32675 0.0
C1892 C 0.99238 0.52483 0.35105 0.0
C1893 C 0.97609 0.52371 0.35228 0.0
C1894 C 0.99722 0.56344 0.27913 0.0
C1895 C 0.00202 0.512 0.37451 0.0
C1896 C 0.03985 0.53028 0.2739 0.0
C1897 C 0.04936 0.53767 0.30963 0.0
C1898 C 0.02357 0.53055 0.27846 0.0
C1899 C 0.01666 0.53811 0.32033 0.0
C1900 C 0.02619 0.54562 0.35653 0.0
C1901 C 0.04244 0.54545 0.35045 0.0
C1902 C 0.01377 0.52265 0.23859 0.0
C1903 C 0.01922 0.55353 0.40215 0.0
H1904 H 0.96657 0.55737 0.29185 0.0
H1905 H 0.97066 0.51365 0.36976 0.0
H1906 H 0.00591 0.56928 0.3037 0.0
H1907 H 0.00349 0.55936 0.24497 0.0
H1908 H 0.98834 0.57215 0.26752 0.0
H1909 H 0.99474 0.50351 0.39569 0.0
H1910 H 0.00845 0.50563 0.34464 0.0
H1911 H 0.0108 0.51702 0.40058 0.0
H1912 H 0.04513 0.52439 0.24203 0.0
H1913 H 0.04976 0.5511 0.37831 0.0
H1914 H 0.00517 0.53101 0.22293 0.0
H1915 H 0.00711 0.51289 0.25563 0.0
H1916 H 0.02093 0.51798 0.20711 0.0
H1917 H 0.0108 0.56261 0.39019 0.0
H1918 H 0.02824 0.55904 0.42639 0.0
H1919 H 0.01267 0.54489 0.42502 0.0
C1920 C 0.95738 0.47399 0.86982 0.0
C1921 C 0.94783 0.46693 0.83351 0.0
C1922 C 0.97366 0.47364 0.8653 0.0
C1923 C 0.98053 0.46634 0.82288 0.0
C1924 C 0.97096 0.45916 0.7861 0.0
C1925 C 0.9547 0.4594 0.79214 0.0
C1926 C 0.9835 0.48117 0.90579 0.0
C1927 C 0.97789 0.45154 0.73991 0.0
C1928 C 0.02121 0.48072 0.79222 0.0
C1929 C 0.0305 0.4689 0.81288 0.0
C1930 C 0.00491 0.47969 0.79327 0.0
C1931 C 0.99773 0.46668 0.81653 0.0
C1932 C 0.00704 0.45452 0.83637 0.0
C1933 C 0.02335 0.4557 0.83383 0.0
C1934 C 0.99536 0.49275 0.77076 0.0
C1935 C -0.0002 0.44059 0.86218 0.0
H1936 H 0.95213 0.47969 0.90211 0.0
H1937 H 0.94735 0.454 0.76384 0.0
H1938 H 0.99205 0.47265 0.92081 0.0
H1939 H 0.99022 0.49102 0.88953 0.0
H1940 H 0.97636 0.48566 0.93761 0.0
H1941 H 0.96885 0.44625 0.71525 0.0
H1942 H 0.98449 0.4603 0.7177 0.0
H1943 H 0.98625 0.44232 0.75118 0.0
H1944 H 0.0267 0.49088 0.77554 0.0
H1945 H 0.0305 0.44657 0.85008 0.0
H1946 H 0.98896 0.49894 0.8011 0.0
H1947 H 0.98655 0.48797 0.7443 0.0
H1948 H 0.00269 0.50135 0.75026 0.0
H1949 H 0.99355 0.44446 0.89663 0.0
H1950 H 0.00863 0.43174 0.87313 0.0
H1951 H 0.99109 0.435 0.83714 0.0
C1952 C 0.4771 0.55008 0.3488 0.0
C1953 C 0.46976 0.53718 0.32667 0.0
C1954 C 0.49343 0.55096 0.35148 0.0
C1955 C 0.50254 0.53884 0.33036 0.0
C1956 C 0.49516 0.52602 0.3067 0.0
C1957 C 0.47885 0.52525 0.30572 0.0
C1958 C 0.50091 0.56463 0.37798 0.0
C1959 C 0.50449 0.51305 0.28274 0.0
C1960 C 0.54499 0.54618 0.29788 0.0
C1961 C 0.55262 0.53808 0.33658 0.0
C1962 C 0.52866 0.54672 0.2957 0.0
C1963 C 0.51981 0.5393 0.33385 0.0
C1964 C 0.52746 0.53159 0.37402 0.0
C1965 C 0.54379 0.5309 0.37454 0.0
C1966 C 0.5209 0.55474 0.25169 0.0
C1967 C 0.5184 0.52385 0.416 0.0
H1968 H 0.47008 0.55925 0.36536 0.0
H1969 H 0.47319 0.51533 0.2882 0.0
H1970 H 0.50787 0.56041 0.41051 0.0
H1971 H 0.50905 0.57071 0.35211 0.0
H1972 H 0.49217 0.57316 0.39192 0.0
H1973 H 0.49696 0.50435 0.26345 0.0
H1974 H 0.51281 0.51793 0.25482 0.0
H1975 H 0.51144 0.50694 0.31192 0.0
H1976 H 0.5518 0.55167 0.26833 0.0
H1977 H 0.54968 0.52476 0.40479 0.0
H1978 H 0.51263 0.56373 0.2654 0.0
H1979 H 0.51403 0.54612 0.22974 0.0
H1980 H 0.52945 0.56038 0.22604 0.0
H1981 H 0.50997 0.5322 0.43264 0.0
H1982 H 0.52612 0.51943 0.44643 0.0
H1983 H 0.51159 0.51392 0.4007 0.0
C1984 C 0.22495 0.15688 0.23374 0.0
C1985 C 0.23063 0.14922 0.19103 0.0
C1986 C 0.23195 0.15448 0.28093 0.0
C1987 C 0.24458 0.14389 0.28516 0.0
C1988 C 0.24952 0.13528 0.24266 0.0
C1989 C 0.24261 0.13823 0.19584 0.0
C1990 C 0.22649 0.16399 0.32549 0.0
C1991 C 0.26258 0.12353 0.24606 0.0
C1992 C 0.27305 0.15292 0.39026 0.0
C1993 C 0.26693 0.14384 0.42932 0.0
C1994 C 0.26622 0.15261 0.34223 0.0
C1995 C 0.25328 0.14269 0.33325 0.0
C1996 C 0.24799 0.13252 0.37153 0.0
C1997 C 0.25475 0.13339 0.41947 0.0
C1998 C 0.27209 0.16373 0.30233 0.0
C1999 C 0.23461 0.12139 0.3628 0.0
H2000 H 0.21579 0.16549 0.22965 0.0
H2001 H 0.24692 0.13227 0.16254 0.0
H2002 H 0.22355 0.15623 0.35759 0.0
H2003 H 0.23602 0.17182 0.33814 0.0
H2004 H 0.21611 0.1712 0.31638 0.0
H2005 H 0.26356 0.11636 0.2113 0.0
H2006 H 0.27381 0.12968 0.252 0.0
H2007 H 0.26078 0.11565 0.27875 0.0
H2008 H 0.28234 0.16114 0.39827 0.0
H2009 H 0.25007 0.12636 0.44995 0.0
H2010 H 0.26292 0.17246 0.29377 0.0
H2011 H 0.27463 0.15737 0.26686 0.0
H2012 H 0.28279 0.17 0.31439 0.0
H2013 H 0.22355 0.12805 0.36015 0.0
H2014 H 0.23346 0.11275 0.3938 0.0
H2015 H 0.23615 0.11505 0.32667 0.0
C2016 C 0.11431 0.00569 0.42906 0.0
C2017 C 0.10634 0.99141 0.42719 0.0
C2018 C 0.11621 0.0137 0.47469 0.0
C2019 C 0.10965 0.00741 0.51912 0.0
C2020 C 0.10226 0.99261 0.51787 0.0
C2021 C 0.10085 0.98469 0.47183 0.0
C2022 C 0.1246 0.02918 0.47489 0.0
C2023 C 0.09505 0.98556 0.5646 0.0
C2024 C 0.11892 0.0198 0.65216 0.0
C2025 C 0.1057 0.02864 0.66395 0.0
C2026 C 0.12114 0.01392 0.60343 0.0
C2027 C 0.10957 0.01659 0.56647 0.0
C2028 C 0.09683 0.02658 0.57727 0.0
C2029 C 0.09512 0.03263 0.6261 0.0
C2030 C 0.13513 0.00376 0.59291 0.0
C2031 C 0.08421 0.02963 0.53885 0.0
H2032 H 0.1187 0.01084 0.39448 0.0
H2033 H 0.0946 0.9737 0.47032 0.0
H2034 H 0.11607 0.03872 0.48095 0.0
H2035 H 0.13313 0.02969 0.50629 0.0
H2036 H 0.13082 0.03139 0.43884 0.0
H2037 H 0.09016 0.97376 0.5575 0.0
H2038 H 0.10387 0.98468 0.59504 0.0
H2039 H 0.08555 0.99321 0.57854 0.0
H2040 H 0.12701 0.01666 0.68191 0.0
H2041 H 0.08477 0.03926 0.6358 0.0
H2042 H 0.14017 0.00645 0.55535 0.0
H2043 H 0.1315 0.99135 0.59259 0.0
H2044 H 0.14433 0.00523 0.622 0.0
H2045 H 0.08937 0.03312 0.5022 0.0
H2046 H 0.07601 0.03888 0.55136 0.0
H2047 H 0.07747 0.01875 0.5324 0.0
C2048 C 0.2298 0.86434 0.91618 0.0
C2049 C 0.23861 0.86174 0.95986 0.0
C2050 C 0.23669 0.86318 0.86826 0.0
C2051 C 0.25264 0.85905 0.86417 0.0
C2052 C 0.26176 0.85731 0.90811 0.0
C2053 C 0.25467 0.85883 0.95538 0.0
C2054 C 0.2267 0.86551 0.82202 0.0
C2055 C 0.27873 0.85267 0.90539 0.0
C2056 C 0.26238 0.83486 0.74935 0.0
C2057 C 0.26984 0.84577 0.71844 0.0
C2058 C 0.25724 0.83895 0.79761 0.0
C2059 C 0.25921 0.85447 0.81461 0.0
C2060 C 0.26715 0.86545 0.78404 0.0
C2061 C 0.27257 0.86088 0.73626 0.0
C2062 C 0.24926 0.82676 0.82971 0.0
C2063 C 0.2692 0.88216 0.80064 0.0
H2064 H 0.21743 0.86677 0.91932 0.0
H2065 H 0.26165 0.85688 0.98886 0.0
H2066 H 0.23279 0.87303 0.79422 0.0
H2067 H 0.22455 0.85408 0.80367 0.0
H2068 H 0.21526 0.87085 0.83136 0.0
H2069 H 0.28463 0.85358 0.94258 0.0
H2070 H 0.27962 0.84042 0.89218 0.0
H2071 H 0.2851 0.86004 0.87786 0.0
H2072 H 0.26025 0.82319 0.73516 0.0
H2073 H 0.27809 0.86936 0.71169 0.0
H2074 H 0.23688 0.83002 0.83559 0.0
H2075 H 0.25484 0.82614 0.8674 0.0
H2076 H 0.24964 0.815 0.81222 0.0
H2077 H 0.25762 0.88789 0.80272 0.0
H2078 H 0.2767 0.88889 0.77431 0.0
H2079 H 0.27437 0.88268 0.83892 0.0
C2080 C 0.41283 0.00895 0.9771 0.0
C2081 C 0.40238 0.02013 0.9588 0.0
C2082 C 0.41165 0.00332 0.02638 0.0
C2083 C 0.39945 0.00873 0.05768 0.0
C2084 C 0.38887 0.02011 0.0395 0.0
C2085 C 0.3906 0.02587 0.99017 0.0
C2086 C 0.42348 0.99158 0.04489 0.0
C2087 C 0.37558 0.02591 0.07174 0.0
C2088 C 0.391 0.98252 0.16983 0.0
C2089 C 0.3989 0.99043 0.20828 0.0
C2090 C 0.39044 0.98872 0.1208 0.0
C2091 C 0.39834 0.00288 0.11013 0.0
C2092 C 0.40632 0.01085 0.14893 0.0
C2093 C 0.40636 0.00461 0.19759 0.0
C2094 C 0.38158 0.98008 0.08033 0.0
C2095 C 0.41529 0.0257 0.13874 0.0
H2096 H 0.42197 0.00456 0.9526 0.0
H2097 H 0.3824 0.03435 0.97551 0.0
H2098 H 0.42942 0.99609 0.07908 0.0
H2099 H 0.41754 0.98058 0.05563 0.0
H2100 H 0.43246 0.98887 0.01598 0.0
H2101 H 0.36817 0.0345 0.05159 0.0
H2102 H 0.36819 0.01594 0.08367 0.0
H2103 H 0.38018 0.03144 0.1065 0.0
H2104 H 0.38512 0.97163 0.17822 0.0
H2105 H 0.4126 0.0107 0.2272 0.0
H2106 H 0.38982 0.97571 0.05133 0.0
H2107 H 0.37334 0.98808 0.06113 0.0
H2108 H 0.37495 0.97002 0.09571 0.0
H2109 H 0.42483 0.02333 0.11152 0.0
H2110 H 0.42046 0.03072 0.17356 0.0
H2111 H 0.40756 0.03455 0.12139 0.0
C2112 C 0.77625 0.84874 0.8737 0.0
C2113 C 0.77305 0.85837 0.91485 0.0
C2114 C 0.76986 0.85204 0.82622 0.0
C2115 C 0.76024 0.86536 0.82025 0.0
C2116 C 0.75824 0.87587 0.86081 0.0
C2117 C 0.76451 0.87211 0.90801 0.0
C2118 C 0.77222 0.84052 0.78383 0.0
C2119 C 0.74843 0.89038 0.85557 0.0
C2120 C 0.74918 0.87386 0.68505 0.0
C2121 C 0.73487 0.86601 0.68123 0.0
C2122 C 0.75718 0.87466 0.73103 0.0
C2123 C 0.75082 0.86714 0.77375 0.0
C2124 C 0.73589 0.86008 0.77086 0.0
C2125 C 0.72799 0.85974 0.72457 0.0
C2126 C 0.77282 0.88271 0.73307 0.0
C2127 C 0.72873 0.85192 0.81574 0.0
H2128 H 0.78261 0.83797 0.87962 0.0
H2129 H 0.76193 0.87941 0.94036 0.0
H2130 H 0.76104 0.83449 0.77578 0.0
H2131 H 0.77582 0.84664 0.74886 0.0
H2132 H 0.78114 0.8316 0.79317 0.0
H2133 H 0.75043 0.89865 0.88718 0.0
H2134 H 0.75096 0.89642 0.81946 0.0
H2135 H 0.73591 0.88712 0.85537 0.0
H2136 H 0.75445 0.87885 0.65153 0.0
H2137 H 0.71698 0.8536 0.72158 0.0
H2138 H 0.7822 0.87385 0.73548 0.0
H2139 H 0.77369 0.89017 0.76714 0.0
H2140 H 0.77495 0.89002 0.69916 0.0
H2141 H 0.73598 0.8417 0.82616 0.0
H2142 H 0.71668 0.84781 0.80803 0.0
H2143 H 0.72845 0.85984 0.84879 0.0
C2144 C 0.89367 0.02314 0.67623 0.0
C2145 C 0.88804 0.01645 0.72074 0.0
C2146 C 0.89227 0.01525 0.63014 0.0
C2147 C 0.88474 0.00053 0.62867 0.0
C2148 C 0.87805 0.99427 0.67296 0.0
C2149 C 0.87994 0.00223 0.71867 0.0
C2150 C 0.89963 0.02226 0.58358 0.0
C2151 C 0.86952 0.97886 0.67251 0.0
C2152 C 0.87565 0.98836 0.49531 0.0
C2153 C 0.88881 0.97942 0.48372 0.0
C2154 C 0.87337 0.99419 0.54407 0.0
C2155 C 0.88482 0.99137 0.58127 0.0
C2156 C 0.89751 0.98129 0.57063 0.0
C2157 C 0.89928 0.97529 0.52176 0.0
C2158 C 0.85944 0.00446 0.5544 0.0
C2159 C 0.91002 0.97809 0.60929 0.0
H2160 H 0.90001 0.03407 0.67788 0.0
H2161 H 0.87545 0.99712 0.75314 0.0
H2162 H 0.90907 0.01452 0.56975 0.0
H2163 H 0.89087 0.02324 0.55299 0.0
H2164 H 0.90462 0.034 0.59083 0.0
H2165 H 0.86321 0.9767 0.70843 0.0
H2166 H 0.86105 0.97846 0.64094 0.0
H2167 H 0.87797 0.96926 0.66657 0.0
H2168 H 0.86766 0.99161 0.46541 0.0
H2169 H 0.90958 0.96858 0.51221 0.0
H2170 H 0.86318 0.01684 0.55492 0.0
H2171 H 0.8543 0.00178 0.59183 0.0
H2172 H 0.85028 0.00309 0.5251 0.0
H2173 H 0.91684 0.98889 0.61598 0.0
H2174 H 0.91815 0.96877 0.59687 0.0
H2175 H 0.90475 0.97461 0.64579 0.0
C2176 C 0.76752 0.15294 0.21991 0.0
C2177 C 0.76028 0.14634 0.17772 0.0
C2178 C 0.76001 0.15306 0.26689 0.0
C2179 C 0.74507 0.14613 0.27175 0.0
C2180 C 0.73809 0.13872 0.22988 0.0
C2181 C 0.74572 0.13904 0.18318 0.0
C2182 C 0.76777 0.16115 0.3108 0.0
C2183 C 0.72237 0.13087 0.23403 0.0
C2184 C 0.734 0.1385 0.40724 0.0
C2185 C 0.7252 0.15179 0.41842 0.0
C2186 C 0.7396 0.13587 0.35841 0.0
C2187 C 0.73666 0.14708 0.32051 0.0
C2188 C 0.72691 0.16004 0.33096 0.0
C2189 C 0.72117 0.16219 0.38005 0.0
C2190 C 0.74961 0.12173 0.34843 0.0
C2191 C 0.72361 0.17228 0.29151 0.0
H2192 H 0.77871 0.15869 0.21566 0.0
H2193 H 0.74014 0.13383 0.1506 0.0
H2194 H 0.76039 0.17099 0.32382 0.0
H2195 H 0.76902 0.15297 0.34293 0.0
H2196 H 0.77949 0.16577 0.3009 0.0
H2197 H 0.71916 0.12453 0.19899 0.0
H2198 H 0.72232 0.12251 0.26597 0.0
H2199 H 0.71326 0.13972 0.2419 0.0
H2200 H 0.73717 0.13057 0.43741 0.0
H2201 H 0.71459 0.1726 0.38929 0.0
H2202 H 0.76197 0.12537 0.34456 0.0
H2203 H 0.74616 0.11602 0.31258 0.0
H2204 H 0.74881 0.11305 0.37943 0.0
H2205 H 0.73451 0.17874 0.28286 0.0
H2206 H 0.71466 0.18078 0.30419 0.0
H2207 H 0.7196 0.16678 0.25597 0.0
C2208 C 0.60186 0.98347 0.17273 0.0
C2209 C 0.59631 0.99233 0.21333 0.0
C2210 C 0.60286 0.98995 0.12418 0.0
C2211 C 0.59792 0.00551 0.11615 0.0
C2212 C 0.59272 0.01462 0.15722 0.0
C2213 C 0.59208 0.00796 0.20531 0.0
C2214 C 0.60872 0.97999 0.08122 0.0
C2215 C 0.58709 0.03116 0.15002 0.0
C2216 C 0.60741 0.0262 -0.00689 0.0
C2217 C 0.59402 0.02289 0.96496 0.0
C2218 C 0.60896 0.02053 0.04257 0.0
C2219 C 0.59664 0.01177 0.06422 0.0
C2220 C 0.58284 0.00902 0.03637 0.0
C2221 C 0.58182 0.01441 0.98675 0.0
C2222 C 0.62394 0.02341 0.07095 0.0
C2223 C 0.56925 0.00015 0.05865 0.0
H2224 H 0.60529 0.97146 0.17878 0.0
H2225 H 0.58776 0.01492 0.23643 0.0
H2226 H 0.59899 0.9774 0.05498 0.0
H2227 H 0.61776 0.98636 0.05947 0.0
H2228 H 0.61371 0.96878 0.09458 0.0
H2229 H 0.58448 0.03703 0.18641 0.0
H2230 H 0.59594 0.03814 0.12951 0.0
H2231 H 0.57634 0.03113 0.12673 0.0
H2232 H 0.61691 0.03256 0.97565 0.0
H2233 H 0.57148 0.01189 0.96463 0.0
H2234 H 0.62964 0.01212 0.07956 0.0
H2235 H 0.62146 0.0292 0.10751 0.0
H2236 H 0.63223 0.03077 0.04923 0.0
H2237 H 0.57285 0.98805 0.06763 0.0
H2238 H 0.55911 -0.00033 0.03267 0.0
H2239 H 0.56549 0.00569 0.09446 0.0
C2240 C 0.76713 0.64478 0.91888 0.0
C2241 C 0.75991 0.64123 0.96481 0.0
C2242 C 0.7587 0.64426 0.87363 0.0
C2243 C 0.74277 0.6398 0.8744 0.0
C2244 C 0.73576 0.63511 0.92018 0.0
C2245 C 0.74438 0.63603 0.965 0.0
C2246 C 0.7666 0.64938 0.82545 0.0
C2247 C 0.71896 0.62989 0.92226 0.0
C2248 C 0.72116 0.65911 0.76779 0.0
C2249 C 0.7228 0.6479 0.72999 0.0
C2250 C 0.72638 0.6561 0.81689 0.0
C2251 C 0.7333 0.6415 0.82792 0.0
C2252 C 0.73332 0.62956 0.7911 0.0
C2253 C 0.72823 0.63299 0.7421 0.0
C2254 C 0.72611 0.66916 0.8551 0.0
C2255 C 0.7402 0.61371 0.80182 0.0
H2256 H 0.77911 0.64881 0.91857 0.0
H2257 H 0.7388 0.63309 0.00044 0.0
H2258 H 0.76534 0.64028 0.79602 0.0
H2259 H 0.76093 0.66012 0.81105 0.0
H2260 H 0.77922 0.6518 0.83093 0.0
H2261 H 0.71608 0.62419 0.95872 0.0
H2262 H 0.71121 0.64013 0.91752 0.0
H2263 H 0.71636 0.62165 0.89111 0.0
H2264 H 0.71723 0.67073 0.75781 0.0
H2265 H 0.72971 0.62444 0.71234 0.0
H2266 H 0.73814 0.67364 0.86057 0.0
H2267 H 0.7219 0.66488 0.89213 0.0
H2268 H 0.71859 0.67899 0.84283 0.0
H2269 H 0.75311 0.61447 0.80032 0.0
H2270 H 0.73634 0.60492 0.77369 0.0
H2271 H 0.73692 0.60963 0.84009 0.0
C2272 C 0.61619 0.49709 0.17565 0.0
C2273 C 0.61081 0.51239 0.18265 0.0
C2274 C 0.6149 0.48969 0.12875 0.0
C2275 C 0.60783 0.49771 0.08823 0.0
C2276 C 0.603 0.51339 0.09445 0.0
C2277 C 0.60469 0.52062 0.1416 0.0
C2278 C 0.62053 0.4731 0.12314 0.0
C2279 C 0.59533 0.52229 0.05204 0.0
C2280 C 0.6113 0.4851 0.95208 0.0
C2281 C 0.5968 0.47802 0.94431 0.0
C2282 C 0.6155 0.49072 -0.00024 0.0
C2283 C 0.60473 0.48953 0.03999 0.0
C2284 C 0.59038 0.48162 0.03278 0.0
C2285 C 0.58659 0.47588 0.98476 0.0
C2286 C 0.63101 0.49881 0.0062 0.0
C2287 C 0.57857 0.48018 0.07479 0.0
H2288 H 0.62105 0.49074 0.20731 0.0
H2289 H 0.60044 0.5324 0.14701 0.0
H2290 H 0.61041 0.46523 0.1176 0.0
H2291 H 0.62809 0.47198 0.08936 0.0
H2292 H 0.62714 0.46908 0.15671 0.0
H2293 H 0.59278 0.53457 0.06247 0.0
H2294 H 0.60293 0.52226 0.01817 0.0
H2295 H 0.58423 0.51649 0.04147 0.0
H2296 H 0.61903 0.48689 0.92022 0.0
H2297 H 0.57525 0.47066 0.97808 0.0
H2298 H 0.63696 0.49464 0.04081 0.0
H2299 H 0.62912 0.51153 0.01052 0.0
H2300 H 0.63884 0.49689 0.97337 0.0
H2301 H 0.5841 0.47529 0.10911 0.0
H2302 H 0.56855 0.47267 0.06413 0.0
H2303 H 0.57408 0.49193 0.08468 0.0
C2304 C 0.75344 0.36427 0.45724 0.0
C2305 C 0.73722 0.36199 0.45894 0.0
C2306 C 0.76153 0.36424 0.41131 0.0
C2307 C 0.7532 0.36184 0.36605 0.0
C2308 C 0.73674 0.3604 0.3672 0.0
C2309 C 0.72893 0.36053 0.41369 0.0
C2310 C 0.77905 0.36598 0.41149 0.0
C2311 C 0.72744 0.35792 0.3195 0.0
C2312 C 0.76925 0.36903 0.23515 0.0
C2313 C 0.77198 0.35373 0.21916 0.0
C2314 C 0.76419 0.37206 0.28452 0.0
C2315 C 0.76167 0.35942 0.3179 0.0
C2316 C 0.76563 0.34408 0.30284 0.0
C2317 C 0.77069 0.34142 0.25335 0.0
C2318 C 0.76026 0.38858 0.29938 0.0
C2319 C 0.76322 0.3303 0.33744 0.0
H2320 H 0.75996 0.36559 0.49201 0.0
H2321 H 0.71641 0.35882 0.41464 0.0
H2322 H 0.78451 0.35467 0.40151 0.0
H2323 H 0.7828 0.37461 0.38278 0.0
H2324 H 0.78355 0.36968 0.44892 0.0
H2325 H 0.71467 0.35813 0.32647 0.0
H2326 H 0.73033 0.36704 0.29135 0.0
H2327 H 0.73053 0.34649 0.30264 0.0
H2328 H 0.76994 0.37847 0.20803 0.0
H2329 H 0.77251 0.32957 0.24027 0.0
H2330 H 0.76452 0.39118 0.33797 0.0
H2331 H 0.74741 0.39006 0.29956 0.0
H2332 H 0.76534 0.39721 0.27276 0.0
H2333 H 0.76834 0.33264 0.37508 0.0
H2334 H 0.76848 0.31946 0.32205 0.0
H2335 H 0.75054 0.3283 0.34285 0.0
C2336 C 0.87973 0.51118 0.70922 0.0
C2337 C 0.8836 0.49526 0.71006 0.0
C2338 C 0.87995 0.51967 0.66405 0.0
C2339 C 0.88432 0.51209 0.61891 0.0
C2340 C 0.88711 0.4958 0.61894 0.0
C2341 C 0.88661 0.48755 0.66455 0.0
C2342 C 0.87652 0.53692 0.66531 0.0
C2343 C 0.89174 0.48726 0.5714 0.0
C2344 C 0.88152 0.52784 0.48623 0.0
C2345 C 0.89718 0.53139 0.47688 0.0
C2346 C 0.8767 0.5229 0.53422 0.0
C2347 C 0.88794 0.52128 0.57294 0.0
C2348 C 0.90346 0.52633 0.56467 0.0
C2349 C 0.90791 0.5313 0.51646 0.0
C2350 C 0.85999 0.51794 0.54187 0.0
C2351 C 0.91579 0.52492 0.60507 0.0
H2352 H 0.87716 0.51718 0.74423 0.0
H2353 H 0.88955 0.47526 0.66489 0.0
H2354 H 0.88761 0.54353 0.66265 0.0
H2355 H 0.86918 0.54038 0.63272 0.0
H2356 H 0.87051 0.5404 0.7007 0.0
H2357 H 0.89228 0.47444 0.57702 0.0
H2358 H 0.88336 0.48979 0.54064 0.0
H2359 H 0.90339 0.49136 0.55881 0.0
H2360 H 0.87333 0.52766 0.45507 0.0
H2361 H 0.92008 0.53378 0.50861 0.0
H2362 H 0.85571 0.52144 0.57971 0.0
H2363 H 0.85919 0.50505 0.5394 0.0
H2364 H 0.85219 0.52301 0.51272 0.0
H2365 H 0.9115 0.52973 0.64132 0.0
H2366 H 0.92673 0.53106 0.5946 0.0
H2367 H 0.91853 0.51242 0.61127 0.0
C2368 C 0.25337 0.36994 0.16991 0.0
C2369 C 0.23813 0.36394 0.17001 0.0
C2370 C 0.26194 0.37124 0.21475 0.0
C2371 C 0.2552 0.3661 0.26045 0.0
C2372 C 0.23961 0.36057 0.26103 0.0
C2373 C 0.2312 0.35971 0.21581 0.0
C2374 C 0.27835 0.37759 0.21292 0.0
C2375 C 0.23202 0.35489 0.3091 0.0
C2376 C 0.27766 0.34944 0.36997 0.0
C2377 C 0.27468 0.36071 0.40676 0.0
C2378 C 0.27259 0.35165 0.32023 0.0
C2379 C 0.26454 0.36553 0.30749 0.0
C2380 C 0.26322 0.37768 0.34332 0.0
C2381 C 0.26813 0.37502 0.39298 0.0
C2382 C 0.27421 0.33839 0.28316 0.0
C2383 C 0.25514 0.39282 0.33081 0.0
H2384 H 0.25872 0.37337 0.13456 0.0
H2385 H 0.21946 0.35502 0.21602 0.0
H2386 H 0.28014 0.38637 0.24312 0.0
H2387 H 0.28677 0.368 0.21957 0.0
H2388 H 0.28107 0.38304 0.17594 0.0
H2389 H 0.21973 0.35122 0.30321 0.0
H2390 H 0.23865 0.34483 0.32435 0.0
H2391 H 0.23224 0.36421 0.33808 0.0
H2392 H 0.28246 0.33827 0.38119 0.0
H2393 H 0.26566 0.38362 0.42191 0.0
H2394 H 0.27806 0.34273 0.2458 0.0
H2395 H 0.26268 0.33272 0.27795 0.0
H2396 H 0.28262 0.32944 0.29643 0.0
H2397 H 0.25842 0.39692 0.29256 0.0
H2398 H 0.25798 0.40208 0.35861 0.0
H2399 H 0.24233 0.39098 0.33118 0.0
C2400 C 0.38444 0.51499 0.93468 0.0
C2401 C 0.38614 0.4987 0.93216 0.0
C2402 C 0.38586 0.52296 0.98054 0.0
C2403 C 0.38898 0.51444 0.02495 0.0
C2404 C 0.38948 0.49793 0.02337 0.0
C2405 C 0.38806 0.49023 0.97688 0.0
C2406 C 0.38513 0.54055 0.98077 0.0
C2407 C 0.39256 0.48843 0.07026 0.0
C2408 C 0.41425 0.53057 0.12909 0.0
C2409 C 0.40326 0.5331 0.16709 0.0
C2410 C 0.40959 0.52554 0.0812 0.0
C2411 C 0.39358 0.52272 0.07177 0.0
C2412 C 0.38234 0.52638 0.10904 0.0
C2413 C 0.38735 0.53155 0.15658 0.0
C2414 C 0.42193 0.52201 0.04216 0.0
C2415 C 0.36518 0.52358 0.10033 0.0
H2416 H 0.38272 0.52165 0.90039 0.0
H2417 H 0.38927 0.47766 0.97535 0.0
H2418 H 0.37785 0.54479 0.01252 0.0
H2419 H 0.39704 0.54534 0.98615 0.0
H2420 H 0.38035 0.54526 0.94494 0.0
H2421 H 0.39094 0.47574 0.06369 0.0
H2422 H 0.40471 0.49043 0.08306 0.0
H2423 H 0.3847 0.49213 0.10126 0.0
H2424 H 0.42656 0.53151 0.13793 0.0
H2425 H 0.37893 0.53317 0.18667 0.0
H2426 H 0.41878 0.5273 0.00538 0.0
H2427 H 0.42271 0.50921 0.0365 0.0
H2428 H 0.4336 0.52639 0.05354 0.0
H2429 H 0.36161 0.52773 0.06243 0.0
H2430 H 0.35787 0.52947 0.12924 0.0
H2431 H 0.36278 0.51088 0.102 0.0
C2432 C 0.2252 0.6609 0.90295 0.0
C2433 C 0.2288 0.65113 0.94342 0.0
C2434 C 0.23119 0.65778 0.85472 0.0
C2435 C 0.24081 0.64453 0.84735 0.0
C2436 C 0.24332 0.63396 0.88743 0.0
C2437 C 0.23742 0.63751 0.93529 0.0
C2438 C 0.22829 0.66933 0.8128 0.0
C2439 C 0.2532 0.61954 0.88081 0.0
C2440 C 0.25031 0.63421 0.71201 0.0
C2441 C 0.26484 0.64149 0.70565 0.0
C2442 C 0.24258 0.63456 0.75853 0.0
C2443 C 0.24947 0.64259 0.79934 0.0
C2444 C 0.26447 0.64936 0.79382 0.0
C2445 C 0.27206 0.6486 0.747 0.0
C2446 C 0.2268 0.62689 0.76339 0.0
C2447 C 0.27216 0.65804 0.83666 0.0
H2448 H 0.21877 0.67157 0.90983 0.0
H2449 H 0.2403 0.6301 0.96709 0.0
H2450 H 0.23933 0.67544 0.80351 0.0
H2451 H 0.22435 0.66323 0.77819 0.0
H2452 H 0.21941 0.67818 0.82333 0.0
H2453 H 0.25206 0.61143 0.91326 0.0
H2454 H 0.24994 0.61327 0.84578 0.0
H2455 H 0.26563 0.62296 0.87728 0.0
H2456 H 0.24475 0.62859 0.68009 0.0
H2457 H 0.28323 0.65432 0.74205 0.0
H2458 H 0.2177 0.63594 0.76851 0.0
H2459 H 0.22647 0.61925 0.79715 0.0
H2460 H 0.22379 0.61982 0.72966 0.0
H2461 H 0.26494 0.66826 0.84728 0.0
H2462 H 0.28404 0.6622 0.82668 0.0
H2463 H 0.27302 0.65043 0.87036 0.0
C2464 C 0.10999 0.51832 0.47999 0.0
C2465 C 0.11365 0.51067 0.43487 0.0
C2466 C 0.10945 0.5101 0.52569 0.0
C2467 C 0.11287 0.49393 0.52619 0.0
C2468 C 0.11785 0.48647 0.48151 0.0
C2469 C 0.11809 0.49491 0.43625 0.0
C2470 C 0.10415 0.51851 0.57273 0.0
C2471 C 0.12195 0.46936 0.4808 0.0
C2472 C 0.11587 0.47827 0.65899 0.0
C2473 C 0.10038 0.47391 0.66771 0.0
C2474 C 0.12061 0.48355 0.61129 0.0
C2475 C 0.10944 0.48467 0.57218 0.0
C2476 C 0.09414 0.47888 0.57983 0.0
C2477 C 0.08978 0.47359 0.62778 0.0
C2478 C 0.13709 0.48931 0.60433 0.0
C2479 C 0.08191 0.47978 0.53899 0.0
H2480 H 0.10657 0.53048 0.47919 0.0
H2481 H 0.12115 0.48898 0.40153 0.0
H2482 H 0.09261 0.51393 0.58463 0.0
H2483 H 0.11243 0.51639 0.6041 0.0
H2484 H 0.1031 0.53129 0.56683 0.0
H2485 H 0.12815 0.46602 0.44563 0.0
H2486 H 0.12935 0.46629 0.51363 0.0
H2487 H 0.11111 0.46233 0.48348 0.0
H2488 H 0.12395 0.47878 0.69043 0.0
H2489 H 0.07773 0.47049 0.63515 0.0
H2490 H 0.13724 0.50222 0.60643 0.0
H2491 H 0.14171 0.48592 0.5668 0.0
H2492 H 0.145 0.4847 0.63399 0.0
H2493 H 0.07866 0.49215 0.53269 0.0
H2494 H 0.0712 0.47317 0.54905 0.0
H2495 H 0.08653 0.47517 0.5029 0.0
loop_
_geom_bond_atom_site_label_1
_geom_bond_atom_site_label_2
_geom_bond_distance
_geom_bond_site_symmetry_2
_ccdc_geom_bond_type
C0 O1 1.306 . S
C0 O3 1.160 . S
O1 C0 1.306 . S
O1 Cd2 2.228 . S
Cd2 O1 2.228 . S
Cd2 O6 2.273 . S
Cd2 O10 2.277 . S
O3 C0 1.160 . S
O3 Cd4 2.203 . S
Cd4 O3 2.203 . S
Cd4 O6 2.411 . S
Cd4 O7 2.333 1_554 S
Cd4 O8 2.352 . S
Cd4 O12 2.277 . S
Cd4 O13 2.356 . S
C5 O10 1.209 . S
C5 O12 1.226 . S
O6 Cd2 2.273 . S
O6 Cd4 2.411 . S
O6 C9 1.320 1_554 S
O7 Cd4 2.333 1_556 S
O7 C9 1.214 . S
O8 Cd4 2.352 . S
O8 C11 1.258 . S
C9 O6 1.320 1_556 S
C9 O7 1.214 . S
O10 Cd2 2.277 . S
O10 C5 1.209 . S
C11 O8 1.258 . S
C11 O13 1.282 . S
O12 Cd4 2.277 . S
O12 C5 1.226 . S
O13 Cd4 2.356 . S
O13 C11 1.282 . S
C14 O15 1.306 . S
C14 O17 1.160 . S
O15 C14 1.306 . S
O15 Cd16 2.228 1_565 S
Cd16 O15 2.228 1_545 S
Cd16 O20 2.273 1_545 S
Cd16 O24 2.277 1_545 S
O17 C14 1.160 . S
O17 Cd18 2.203 . S
Cd18 O17 2.203 . S
Cd18 O20 2.411 . S
Cd18 O21 2.333 . S
Cd18 O22 2.352 . S
Cd18 O26 2.277 . S
Cd18 O27 2.356 . S
C19 O24 1.209 . S
C19 O26 1.226 . S
O20 Cd16 2.273 1_565 S
O20 Cd18 2.411 . S
O20 C23 1.320 . S
O21 Cd18 2.333 . S
O21 C23 1.214 . S
O22 Cd18 2.352 . S
O22 C25 1.258 . S
C23 O20 1.320 . S
C23 O21 1.214 . S
O24 Cd16 2.277 1_565 S
O24 C19 1.209 . S
C25 O22 1.258 . S
C25 O27 1.282 . S
O26 Cd18 2.277 . S
O26 C19 1.226 . S
O27 Cd18 2.356 . S
O27 C25 1.282 . S
C28 O29 1.306 . S
C28 O31 1.160 . S
O29 C28 1.306 . S
O29 Cd30 2.228 . S
Cd30 O29 2.228 . S
Cd30 O34 2.273 . S
Cd30 O38 2.277 . S
O31 C28 1.160 . S
O31 Cd32 2.203 . S
Cd32 O31 2.203 . S
Cd32 O34 2.411 . S
Cd32 O35 2.333 . S
Cd32 O36 2.352 . S
Cd32 O40 2.277 . S
Cd32 O41 2.356 . S
C33 O38 1.209 . S
C33 O40 1.226 . S
O34 Cd30 2.273 . S
O34 Cd32 2.411 . S
O34 C37 1.320 . S
O35 Cd32 2.333 . S
O35 C37 1.214 . S
O36 Cd32 2.352 . S
O36 C39 1.258 . S
C37 O34 1.320 . S
C37 O35 1.214 . S
O38 Cd30 2.277 . S
O38 C33 1.209 . S
C39 O36 1.258 . S
C39 O41 1.282 . S
O40 Cd32 2.277 . S
O40 C33 1.226 . S
O41 Cd32 2.356 . S
O41 C39 1.282 . S
C42 O43 1.306 . S
C42 O45 1.160 . S
O43 C42 1.306 . S
O43 Cd44 2.228 . S
Cd44 O43 2.228 . S
Cd44 O48 2.273 . S
Cd44 O52 2.277 . S
O45 C42 1.160 . S
O45 Cd46 2.203 . S
Cd46 O45 2.203 . S
Cd46 O48 2.411 . S
Cd46 O49 2.333 . S
Cd46 O50 2.352 . S
Cd46 O54 2.277 . S
Cd46 O55 2.356 . S
C47 O52 1.209 . S
C47 O54 1.226 . S
O48 Cd44 2.273 . S
O48 Cd46 2.411 . S
O48 C51 1.320 . S
O49 Cd46 2.333 . S
O49 C51 1.214 . S
O50 Cd46 2.352 . S
O50 C53 1.258 . S
C51 O48 1.320 . S
C51 O49 1.214 . S
O52 Cd44 2.277 . S
O52 C47 1.209 . S
C53 O50 1.258 . S
C53 O55 1.282 . S
O54 Cd46 2.277 . S
O54 C47 1.226 . S
O55 Cd46 2.356 . S
O55 C53 1.282 . S
C56 O57 1.306 . S
C56 O59 1.160 . S
O57 C56 1.306 . S
O57 Cd58 2.228 . S
Cd58 O57 2.228 . S
Cd58 O62 2.273 . S
Cd58 O66 2.277 . S
O59 C56 1.160 . S
O59 Cd60 2.203 . S
Cd60 O59 2.203 . S
Cd60 O62 2.411 . S
Cd60 O63 2.333 . S
Cd60 O64 2.352 . S
Cd60 O68 2.277 . S
Cd60 O69 2.356 . S
C61 O66 1.209 . S
C61 O68 1.226 . S
O62 Cd58 2.273 . S
O62 Cd60 2.411 . S
O62 C65 1.320 . S
O63 Cd60 2.333 . S
O63 C65 1.214 . S
O64 Cd60 2.352 . S
O64 C67 1.258 . S
C65 O62 1.320 . S
C65 O63 1.214 . S
O66 Cd58 2.277 . S
O66 C61 1.209 . S
C67 O64 1.258 . S
C67 O69 1.282 . S
O68 Cd60 2.277 . S
O68 C61 1.226 . S
O69 Cd60 2.356 . S
O69 C67 1.282 . S
C70 O71 1.306 . S
C70 O73 1.160 . S
O71 C70 1.306 . S
O71 Cd72 2.228 1_565 S
Cd72 O71 2.228 1_545 S
Cd72 O76 2.273 1_545 S
Cd72 O80 2.277 1_545 S
O73 C70 1.160 . S
O73 Cd74 2.203 . S
Cd74 O73 2.203 . S
Cd74 O76 2.411 . S
Cd74 O77 2.333 . S
Cd74 O78 2.352 . S
Cd74 O82 2.277 . S
Cd74 O83 2.356 . S
C75 O80 1.209 . S
C75 O82 1.226 . S
O76 Cd72 2.273 1_565 S
O76 Cd74 2.411 . S
O76 C79 1.320 . S
O77 Cd74 2.333 . S
O77 C79 1.214 . S
O78 Cd74 2.352 . S
O78 C81 1.258 . S
C79 O76 1.320 . S
C79 O77 1.214 . S
O80 Cd72 2.277 1_565 S
O80 C75 1.209 . S
C81 O78 1.258 . S
C81 O83 1.282 . S
O82 Cd74 2.277 . S
O82 C75 1.226 . S
O83 Cd74 2.356 . S
O83 C81 1.282 . S
C84 O85 1.306 . S
C84 O87 1.160 . S
O85 C84 1.306 . S
O85 Cd86 2.228 . S
Cd86 O85 2.228 . S
Cd86 O90 2.273 . S
Cd86 O94 2.277 . S
O87 C84 1.160 . S
O87 Cd88 2.203 . S
Cd88 O87 2.203 . S
Cd88 O90 2.411 . S
Cd88 O91 2.333 . S
Cd88 O92 2.352 . S
Cd88 O96 2.277 . S
Cd88 O97 2.356 . S
C89 O94 1.209 . S
C89 O96 1.226 . S
O90 Cd86 2.273 . S
O90 Cd88 2.411 . S
O90 C93 1.320 . S
O91 Cd88 2.333 . S
O91 C93 1.214 . S
O92 Cd88 2.352 . S
O92 C95 1.258 . S
C93 O90 1.320 . S
C93 O91 1.214 . S
O94 Cd86 2.277 . S
O94 C89 1.209 . S
C95 O92 1.258 . S
C95 O97 1.282 . S
O96 Cd88 2.277 . S
O96 C89 1.226 . S
O97 Cd88 2.356 . S
O97 C95 1.282 . S
C98 O99 1.306 . S
C98 O101 1.160 . S
O99 C98 1.306 . S
O99 Cd100 2.228 . S
Cd100 O99 2.228 . S
Cd100 O104 2.273 . S
Cd100 O108 2.277 . S
O101 C98 1.160 . S
O101 Cd102 2.203 . S
Cd102 O101 2.203 . S
Cd102 O104 2.411 . S
Cd102 O105 2.333 . S
Cd102 O106 2.352 . S
Cd102 O110 2.277 . S
Cd102 O111 2.356 . S
C103 O108 1.209 . S
C103 O110 1.226 . S
O104 Cd100 2.273 . S
O104 Cd102 2.411 . S
O104 C107 1.320 . S
O105 Cd102 2.333 . S
O105 C107 1.214 . S
O106 Cd102 2.352 . S
O106 C109 1.258 . S
C107 O104 1.320 . S
C107 O105 1.214 . S
O108 Cd100 2.277 . S
O108 C103 1.209 . S
C109 O106 1.258 . S
C109 O111 1.282 . S
O110 Cd102 2.277 . S
O110 C103 1.226 . S
O111 Cd102 2.356 . S
O111 C109 1.282 . S
C112 O113 1.306 . S
C112 O115 1.160 . S
O113 C112 1.306 . S
O113 Cd114 2.228 . S
Cd114 O113 2.228 . S
Cd114 O118 2.273 . S
Cd114 O122 2.277 . S
O115 C112 1.160 . S
O115 Cd116 2.203 . S
Cd116 O115 2.203 . S
Cd116 O118 2.411 . S
Cd116 O119 2.333 . S
Cd116 O120 2.352 . S
Cd116 O124 2.277 . S
Cd116 O125 2.356 . S
C117 O122 1.209 . S
C117 O124 1.226 . S
O118 Cd114 2.273 . S
O118 Cd116 2.411 . S
O118 C121 1.320 . S
O119 Cd116 2.333 . S
O119 C121 1.214 . S
O120 Cd116 2.352 . S
O120 C123 1.258 . S
C121 O118 1.320 . S
C121 O119 1.214 . S
O122 Cd114 2.277 . S
O122 C117 1.209 . S
C123 O120 1.258 . S
C123 O125 1.282 . S
O124 Cd116 2.277 . S
O124 C117 1.226 . S
O125 Cd116 2.356 . S
O125 C123 1.282 . S
C126 O127 1.306 . S
C126 O129 1.160 . S
O127 C126 1.306 . S
O127 Cd128 2.228 . S
Cd128 O127 2.228 . S
Cd128 O132 2.273 . S
Cd128 O136 2.277 . S
O129 C126 1.160 . S
O129 Cd130 2.203 . S
Cd130 O129 2.203 . S
Cd130 O132 2.411 . S
Cd130 O133 2.333 . S
Cd130 O134 2.352 . S
Cd130 O138 2.277 . S
Cd130 O139 2.356 . S
C131 O136 1.209 . S
C131 O138 1.226 . S
O132 Cd128 2.273 . S
O132 Cd130 2.411 . S
O132 C135 1.320 . S
O133 Cd130 2.333 . S
O133 C135 1.214 . S
O134 Cd130 2.352 . S
O134 C137 1.258 . S
C135 O132 1.320 . S
C135 O133 1.214 . S
O136 Cd128 2.277 . S
O136 C131 1.209 . S
C137 O134 1.258 . S
C137 O139 1.282 . S
O138 Cd130 2.277 . S
O138 C131 1.226 . S
O139 Cd130 2.356 . S
O139 C137 1.282 . S
C140 O141 1.306 . S
C140 O143 1.160 . S
O141 C140 1.306 . S
O141 Cd142 2.228 . S
Cd142 O141 2.228 . S
Cd142 O146 2.273 . S
Cd142 O150 2.277 . S
O143 C140 1.160 . S
O143 Cd144 2.203 . S
Cd144 O143 2.203 . S
Cd144 O146 2.411 . S
Cd144 O147 2.333 . S
Cd144 O148 2.352 . S
Cd144 O152 2.277 . S
Cd144 O153 2.356 . S
C145 O150 1.209 . S
C145 O152 1.226 . S
O146 Cd142 2.273 . S
O146 Cd144 2.411 . S
O146 C149 1.320 . S
O147 Cd144 2.333 . S
O147 C149 1.214 . S
O148 Cd144 2.352 . S
O148 C151 1.258 . S
C149 O146 1.320 . S
C149 O147 1.214 . S
O150 Cd142 2.277 . S
O150 C145 1.209 . S
C151 O148 1.258 . S
C151 O153 1.282 . S
O152 Cd144 2.277 . S
O152 C145 1.226 . S
O153 Cd144 2.356 . S
O153 C151 1.282 . S
C154 O155 1.306 . S
C154 O157 1.160 . S
O155 C154 1.306 . S
O155 Cd156 2.228 1_565 S
Cd156 O155 2.228 1_545 S
Cd156 O160 2.273 1_545 S
Cd156 O164 2.277 1_545 S
O157 C154 1.160 . S
O157 Cd158 2.203 . S
Cd158 O157 2.203 . S
Cd158 O160 2.411 . S
Cd158 O161 2.333 . S
Cd158 O162 2.352 . S
Cd158 O166 2.277 . S
Cd158 O167 2.356 . S
C159 O164 1.209 . S
C159 O166 1.226 . S
O160 Cd156 2.273 1_565 S
O160 Cd158 2.411 . S
O160 C163 1.320 . S
O161 Cd158 2.333 . S
O161 C163 1.214 . S
O162 Cd158 2.352 . S
O162 C165 1.258 . S
C163 O160 1.320 . S
C163 O161 1.214 . S
O164 Cd156 2.277 1_565 S
O164 C159 1.209 . S
C165 O162 1.258 . S
C165 O167 1.282 . S
O166 Cd158 2.277 . S
O166 C159 1.226 . S
O167 Cd158 2.356 . S
O167 C165 1.282 . S
C168 O169 1.306 . S
C168 O171 1.160 . S
O169 C168 1.306 . S
O169 Cd170 2.228 . S
Cd170 O169 2.228 . S
Cd170 O174 2.273 . S
Cd170 O178 2.277 . S
O171 C168 1.160 . S
O171 Cd172 2.203 . S
Cd172 O171 2.203 . S
Cd172 O174 2.411 . S
Cd172 O175 2.333 1_554 S
Cd172 O176 2.352 . S
Cd172 O180 2.277 . S
Cd172 O181 2.356 . S
C173 O178 1.209 . S
C173 O180 1.226 . S
O174 Cd170 2.273 . S
O174 Cd172 2.411 . S
O174 C177 1.320 1_554 S
O175 Cd172 2.333 1_556 S
O175 C177 1.214 . S
O176 Cd172 2.352 . S
O176 C179 1.258 . S
C177 O174 1.320 1_556 S
C177 O175 1.214 . S
O178 Cd170 2.277 . S
O178 C173 1.209 . S
C179 O176 1.258 . S
C179 O181 1.282 . S
O180 Cd172 2.277 . S
O180 C173 1.226 . S
O181 Cd172 2.356 . S
O181 C179 1.282 . S
C182 O183 1.306 . S
C182 O185 1.160 . S
O183 C182 1.306 . S
O183 Cd184 2.228 . S
Cd184 O183 2.228 . S
Cd184 O188 2.273 . S
Cd184 O192 2.277 . S
O185 C182 1.160 . S
O185 Cd186 2.203 . S
Cd186 O185 2.203 . S
Cd186 O188 2.411 . S
Cd186 O189 2.333 . S
Cd186 O190 2.352 . S
Cd186 O194 2.277 . S
Cd186 O195 2.356 . S
C187 O192 1.209 . S
C187 O194 1.226 . S
O188 Cd184 2.273 . S
O188 Cd186 2.411 . S
O188 C191 1.320 . S
O189 Cd186 2.333 . S
O189 C191 1.214 . S
O190 Cd186 2.352 . S
O190 C193 1.258 . S
C191 O188 1.320 . S
C191 O189 1.214 . S
O192 Cd184 2.277 . S
O192 C187 1.209 . S
C193 O190 1.258 . S
C193 O195 1.282 . S
O194 Cd186 2.277 . S
O194 C187 1.226 . S
O195 Cd186 2.356 . S
O195 C193 1.282 . S
C196 O197 1.306 . S
C196 O199 1.160 . S
O197 C196 1.306 . S
O197 Cd198 2.228 . S
Cd198 O197 2.228 . S
Cd198 O202 2.273 . S
Cd198 O206 2.277 . S
O199 C196 1.160 . S
O199 Cd200 2.203 . S
Cd200 O199 2.203 . S
Cd200 O202 2.411 . S
Cd200 O203 2.333 . S
Cd200 O204 2.352 . S
Cd200 O208 2.277 . S
Cd200 O209 2.356 . S
C201 O206 1.209 . S
C201 O208 1.226 . S
O202 Cd198 2.273 . S
O202 Cd200 2.411 . S
O202 C205 1.320 . S
O203 Cd200 2.333 . S
O203 C205 1.214 . S
O204 Cd200 2.352 . S
O204 C207 1.258 . S
C205 O202 1.320 . S
C205 O203 1.214 . S
O206 Cd198 2.277 . S
O206 C201 1.209 . S
C207 O204 1.258 . S
C207 O209 1.282 . S
O208 Cd200 2.277 . S
O208 C201 1.226 . S
O209 Cd200 2.356 . S
O209 C207 1.282 . S
C210 O211 1.306 . S
C210 O213 1.160 . S
O211 C210 1.306 . S
O211 Cd212 2.228 1_565 S
Cd212 O211 2.228 1_545 S
Cd212 O216 2.273 1_545 S
Cd212 O220 2.277 1_545 S
O213 C210 1.160 . S
O213 Cd214 2.203 . S
Cd214 O213 2.203 . S
Cd214 O216 2.411 . S
Cd214 O217 2.333 . S
Cd214 O218 2.352 . S
Cd214 O222 2.277 . S
Cd214 O223 2.356 . S
C215 O220 1.209 . S
C215 O222 1.226 . S
O216 Cd212 2.273 1_565 S
O216 Cd214 2.411 . S
O216 C219 1.320 . S
O217 Cd214 2.333 . S
O217 C219 1.214 . S
O218 Cd214 2.352 . S
O218 C221 1.258 . S
C219 O216 1.320 . S
C219 O217 1.214 . S
O220 Cd212 2.277 1_565 S
O220 C215 1.209 . S
C221 O218 1.258 . S
C221 O223 1.282 . S
O222 Cd214 2.277 . S
O222 C215 1.226 . S
O223 Cd214 2.356 . S
O223 C221 1.282 . S
C224 O225 1.306 . S
C224 O227 1.160 . S
O225 C224 1.306 . S
O225 Cd226 2.228 . S
Cd226 O225 2.228 . S
Cd226 O230 2.273 . S
Cd226 O234 2.277 . S
O227 C224 1.160 . S
O227 Cd228 2.203 . S
Cd228 O227 2.203 . S
Cd228 O230 2.411 . S
Cd228 O231 2.333 . S
Cd228 O232 2.352 . S
Cd228 O236 2.277 . S
Cd228 O237 2.356 . S
C229 O234 1.209 . S
C229 O236 1.226 . S
O230 Cd226 2.273 . S
O230 Cd228 2.411 . S
O230 C233 1.320 . S
O231 Cd228 2.333 . S
O231 C233 1.214 . S
O232 Cd228 2.352 . S
O232 C235 1.258 . S
C233 O230 1.320 . S
C233 O231 1.214 . S
O234 Cd226 2.277 . S
O234 C229 1.209 . S
C235 O232 1.258 . S
C235 O237 1.282 . S
O236 Cd228 2.277 . S
O236 C229 1.226 . S
O237 Cd228 2.356 . S
O237 C235 1.282 . S
C238 O239 1.306 . S
C238 O241 1.160 . S
O239 C238 1.306 . S
O239 Cd240 2.228 . S
Cd240 O239 2.228 . S
Cd240 O244 2.273 . S
Cd240 O248 2.277 . S
O241 C238 1.160 . S
O241 Cd242 2.203 . S
Cd242 O241 2.203 . S
Cd242 O244 2.411 . S
Cd242 O245 2.333 . S
Cd242 O246 2.352 . S
Cd242 O250 2.277 . S
Cd242 O251 2.356 . S
C243 O248 1.209 . S
C243 O250 1.226 . S
O244 Cd240 2.273 . S
O244 Cd242 2.411 . S
O244 C247 1.320 . S
O245 Cd242 2.333 . S
O245 C247 1.214 . S
O246 Cd242 2.352 . S
O246 C249 1.258 . S
C247 O244 1.320 . S
C247 O245 1.214 . S
O248 Cd240 2.277 . S
O248 C243 1.209 . S
C249 O246 1.258 . S
C249 O251 1.282 . S
O250 Cd242 2.277 . S
O250 C243 1.226 . S
O251 Cd242 2.356 . S
O251 C249 1.282 . S
C252 O253 1.306 . S
C252 O255 1.160 . S
O253 C252 1.306 . S
O253 Cd254 2.228 . S
Cd254 O253 2.228 . S
Cd254 O258 2.273 . S
Cd254 O262 2.277 . S
O255 C252 1.160 . S
O255 Cd256 2.203 . S
Cd256 O255 2.203 . S
Cd256 O258 2.411 . S
Cd256 O259 2.333 1_554 S
Cd256 O260 2.352 . S
Cd256 O264 2.277 . S
Cd256 O265 2.356 . S
C257 O262 1.209 . S
C257 O264 1.226 . S
O258 Cd254 2.273 . S
O258 Cd256 2.411 . S
O258 C261 1.320 1_554 S
O259 Cd256 2.333 1_556 S
O259 C261 1.214 . S
O260 Cd256 2.352 . S
O260 C263 1.258 . S
C261 O258 1.320 1_556 S
C261 O259 1.214 . S
O262 Cd254 2.277 . S
O262 C257 1.209 . S
C263 O260 1.258 . S
C263 O265 1.282 . S
O264 Cd256 2.277 . S
O264 C257 1.226 . S
O265 Cd256 2.356 . S
O265 C263 1.282 . S
C266 O267 1.306 . S
C266 O269 1.160 . S
O267 C266 1.306 . S
O267 Cd268 2.228 . S
Cd268 O267 2.228 . S
Cd268 O272 2.273 . S
Cd268 O276 2.277 . S
O269 C266 1.160 . S
O269 Cd270 2.203 . S
Cd270 O269 2.203 . S
Cd270 O272 2.411 . S
Cd270 O273 2.333 . S
Cd270 O274 2.352 . S
Cd270 O278 2.277 . S
Cd270 O279 2.356 . S
C271 O276 1.209 . S
C271 O278 1.226 . S
O272 Cd268 2.273 . S
O272 Cd270 2.411 . S
O272 C275 1.320 . S
O273 Cd270 2.333 . S
O273 C275 1.214 . S
O274 Cd270 2.352 . S
O274 C277 1.258 . S
C275 O272 1.320 . S
C275 O273 1.214 . S
O276 Cd268 2.277 . S
O276 C271 1.209 . S
C277 O274 1.258 . S
C277 O279 1.282 . S
O278 Cd270 2.277 . S
O278 C271 1.226 . S
O279 Cd270 2.356 . S
O279 C277 1.282 . S
C280 O281 1.306 . S
C280 O283 1.160 . S
O281 C280 1.306 . S
O281 Cd282 2.228 . S
Cd282 O281 2.228 . S
Cd282 O286 2.273 . S
Cd282 O290 2.277 . S
O283 C280 1.160 . S
O283 Cd284 2.203 . S
Cd284 O283 2.203 . S
Cd284 O286 2.411 . S
Cd284 O287 2.333 . S
Cd284 O288 2.352 . S
Cd284 O292 2.277 . S
Cd284 O293 2.356 . S
C285 O290 1.209 . S
C285 O292 1.226 . S
O286 Cd282 2.273 . S
O286 Cd284 2.411 . S
O286 C289 1.320 . S
O287 Cd284 2.333 . S
O287 C289 1.214 . S
O288 Cd284 2.352 . S
O288 C291 1.258 . S
C289 O286 1.320 . S
C289 O287 1.214 . S
O290 Cd282 2.277 . S
O290 C285 1.209 . S
C291 O288 1.258 . S
C291 O293 1.282 . S
O292 Cd284 2.277 . S
O292 C285 1.226 . S
O293 Cd284 2.356 . S
O293 C291 1.282 . S
C294 O295 1.306 . S
C294 O297 1.160 . S
O295 C294 1.306 . S
O295 Cd296 2.228 . S
Cd296 O295 2.228 . S
Cd296 O300 2.273 . S
Cd296 O304 2.277 . S
O297 C294 1.160 . S
O297 Cd298 2.203 . S
Cd298 O297 2.203 . S
Cd298 O300 2.411 . S
Cd298 O301 2.333 . S
Cd298 O302 2.352 . S
Cd298 O306 2.277 . S
Cd298 O307 2.356 . S
C299 O304 1.209 . S
C299 O306 1.226 . S
O300 Cd296 2.273 . S
O300 Cd298 2.411 . S
O300 C303 1.320 . S
O301 Cd298 2.333 . S
O301 C303 1.214 . S
O302 Cd298 2.352 . S
O302 C305 1.258 . S
C303 O300 1.320 . S
C303 O301 1.214 . S
O304 Cd296 2.277 . S
O304 C299 1.209 . S
C305 O302 1.258 . S
C305 O307 1.282 . S
O306 Cd298 2.277 . S
O306 C299 1.226 . S
O307 Cd298 2.356 . S
O307 C305 1.282 . S
C308 O309 1.306 . S
C308 O311 1.160 . S
O309 C308 1.306 . S
O309 Cd310 2.228 . S
Cd310 O309 2.228 . S
Cd310 O314 2.273 . S
Cd310 O318 2.277 . S
O311 C308 1.160 . S
O311 Cd312 2.203 . S
Cd312 O311 2.203 . S
Cd312 O314 2.411 . S
Cd312 O315 2.333 . S
Cd312 O316 2.352 . S
Cd312 O320 2.277 . S
Cd312 O321 2.356 . S
C313 O318 1.209 . S
C313 O320 1.226 . S
O314 Cd310 2.273 . S
O314 Cd312 2.411 . S
O314 C317 1.320 . S
O315 Cd312 2.333 . S
O315 C317 1.214 . S
O316 Cd312 2.352 . S
O316 C319 1.258 . S
C317 O314 1.320 . S
C317 O315 1.214 . S
O318 Cd310 2.277 . S
O318 C313 1.209 . S
C319 O316 1.258 . S
C319 O321 1.282 . S
O320 Cd312 2.277 . S
O320 C313 1.226 . S
O321 Cd312 2.356 . S
O321 C319 1.282 . S
C322 O323 1.306 . S
C322 O325 1.160 . S
O323 C322 1.306 . S
O323 Cd324 2.228 . S
Cd324 O323 2.228 . S
Cd324 O328 2.273 . S
Cd324 O332 2.277 . S
O325 C322 1.160 . S
O325 Cd326 2.203 . S
Cd326 O325 2.203 . S
Cd326 O328 2.411 . S
Cd326 O329 2.333 . S
Cd326 O330 2.352 . S
Cd326 O334 2.277 . S
Cd326 O335 2.356 . S
C327 O332 1.209 . S
C327 O334 1.226 . S
O328 Cd324 2.273 . S
O328 Cd326 2.411 . S
O328 C331 1.320 . S
O329 Cd326 2.333 . S
O329 C331 1.214 . S
O330 Cd326 2.352 . S
O330 C333 1.258 . S
C331 O328 1.320 . S
C331 O329 1.214 . S
O332 Cd324 2.277 . S
O332 C327 1.209 . S
C333 O330 1.258 . S
C333 O335 1.282 . S
O334 Cd326 2.277 . S
O334 C327 1.226 . S
O335 Cd326 2.356 . S
O335 C333 1.282 . S
C336 O337 1.306 . S
C336 O339 1.160 . S
O337 C336 1.306 . S
O337 Cd338 2.228 . S
Cd338 O337 2.228 . S
Cd338 O342 2.273 . S
Cd338 O346 2.277 . S
O339 C336 1.160 . S
O339 Cd340 2.203 . S
Cd340 O339 2.203 . S
Cd340 O342 2.411 . S
Cd340 O343 2.333 . S
Cd340 O344 2.352 . S
Cd340 O348 2.277 . S
Cd340 O349 2.356 . S
C341 O346 1.209 . S
C341 O348 1.226 . S
O342 Cd338 2.273 . S
O342 Cd340 2.411 . S
O342 C345 1.320 . S
O343 Cd340 2.333 . S
O343 C345 1.214 . S
O344 Cd340 2.352 . S
O344 C347 1.258 . S
C345 O342 1.320 . S
C345 O343 1.214 . S
O346 Cd338 2.277 . S
O346 C341 1.209 . S
C347 O344 1.258 . S
C347 O349 1.282 . S
O348 Cd340 2.277 . S
O348 C341 1.226 . S
O349 Cd340 2.356 . S
O349 C347 1.282 . S
C350 O351 1.306 . S
C350 O353 1.160 . S
O351 C350 1.306 . S
O351 Cd352 2.228 . S
Cd352 O351 2.228 . S
Cd352 O356 2.273 . S
Cd352 O360 2.277 . S
O353 C350 1.160 . S
O353 Cd354 2.203 . S
Cd354 O353 2.203 . S
Cd354 O356 2.411 . S
Cd354 O357 2.333 . S
Cd354 O358 2.352 . S
Cd354 O362 2.277 . S
Cd354 O363 2.356 . S
C355 O360 1.209 . S
C355 O362 1.226 . S
O356 Cd352 2.273 . S
O356 Cd354 2.411 . S
O356 C359 1.320 . S
O357 Cd354 2.333 . S
O357 C359 1.214 . S
O358 Cd354 2.352 . S
O358 C361 1.258 . S
C359 O356 1.320 . S
C359 O357 1.214 . S
O360 Cd352 2.277 . S
O360 C355 1.209 . S
C361 O358 1.258 . S
C361 O363 1.282 . S
O362 Cd354 2.277 . S
O362 C355 1.226 . S
O363 Cd354 2.356 . S
O363 C361 1.282 . S
C364 O365 1.306 . S
C364 O367 1.160 . S
O365 C364 1.306 . S
O365 Cd366 2.228 . S
Cd366 O365 2.228 . S
Cd366 O370 2.273 . S
Cd366 O374 2.277 . S
O367 C364 1.160 . S
O367 Cd368 2.203 . S
Cd368 O367 2.203 . S
Cd368 O370 2.411 . S
Cd368 O371 2.333 . S
Cd368 O372 2.352 . S
Cd368 O376 2.277 . S
Cd368 O377 2.356 . S
C369 O374 1.209 . S
C369 O376 1.226 . S
O370 Cd366 2.273 . S
O370 Cd368 2.411 . S
O370 C373 1.320 . S
O371 Cd368 2.333 . S
O371 C373 1.214 . S
O372 Cd368 2.352 . S
O372 C375 1.258 . S
C373 O370 1.320 . S
C373 O371 1.214 . S
O374 Cd366 2.277 . S
O374 C369 1.209 . S
C375 O372 1.258 . S
C375 O377 1.282 . S
O376 Cd368 2.277 . S
O376 C369 1.226 . S
O377 Cd368 2.356 . S
O377 C375 1.282 . S
C378 O379 1.306 . S
C378 O381 1.160 . S
O379 C378 1.306 . S
O379 Cd380 2.228 . S
Cd380 O379 2.228 . S
Cd380 O384 2.273 . S
Cd380 O388 2.277 . S
O381 C378 1.160 . S
O381 Cd382 2.203 . S
Cd382 O381 2.203 . S
Cd382 O384 2.411 . S
Cd382 O385 2.333 . S
Cd382 O386 2.352 . S
Cd382 O390 2.277 . S
Cd382 O391 2.356 . S
C383 O388 1.209 . S
C383 O390 1.226 . S
O384 Cd380 2.273 . S
O384 Cd382 2.411 . S
O384 C387 1.320 . S
O385 Cd382 2.333 . S
O385 C387 1.214 . S
O386 Cd382 2.352 . S
O386 C389 1.258 . S
C387 O384 1.320 . S
C387 O385 1.214 . S
O388 Cd380 2.277 . S
O388 C383 1.209 . S
C389 O386 1.258 . S
C389 O391 1.282 . S
O390 Cd382 2.277 . S
O390 C383 1.226 . S
O391 Cd382 2.356 . S
O391 C389 1.282 . S
C392 O393 1.306 . S
C392 O395 1.160 . S
O393 C392 1.306 . S
O393 Cd394 2.228 . S
Cd394 O393 2.228 . S
Cd394 O398 2.273 . S
Cd394 O402 2.277 . S
O395 C392 1.160 . S
O395 Cd396 2.203 . S
Cd396 O395 2.203 . S
Cd396 O398 2.411 . S
Cd396 O399 2.333 . S
Cd396 O400 2.352 . S
Cd396 O404 2.277 . S
Cd396 O405 2.356 . S
C397 O402 1.209 . S
C397 O404 1.226 . S
O398 Cd394 2.273 . S
O398 Cd396 2.411 . S
O398 C401 1.320 . S
O399 Cd396 2.333 . S
O399 C401 1.214 . S
O400 Cd396 2.352 . S
O400 C403 1.258 . S
C401 O398 1.320 . S
C401 O399 1.214 . S
O402 Cd394 2.277 . S
O402 C397 1.209 . S
C403 O400 1.258 . S
C403 O405 1.282 . S
O404 Cd396 2.277 . S
O404 C397 1.226 . S
O405 Cd396 2.356 . S
O405 C403 1.282 . S
C406 O407 1.306 . S
C406 O409 1.160 . S
O407 C406 1.306 . S
O407 Cd408 2.228 . S
Cd408 O407 2.228 . S
Cd408 O412 2.273 . S
Cd408 O416 2.277 . S
O409 C406 1.160 . S
O409 Cd410 2.203 . S
Cd410 O409 2.203 . S
Cd410 O412 2.411 . S
Cd410 O413 2.333 . S
Cd410 O414 2.352 . S
Cd410 O418 2.277 . S
Cd410 O419 2.356 . S
C411 O416 1.209 . S
C411 O418 1.226 . S
O412 Cd408 2.273 . S
O412 Cd410 2.411 . S
O412 C415 1.320 . S
O413 Cd410 2.333 . S
O413 C415 1.214 . S
O414 Cd410 2.352 . S
O414 C417 1.258 . S
C415 O412 1.320 . S
C415 O413 1.214 . S
O416 Cd408 2.277 . S
O416 C411 1.209 . S
C417 O414 1.258 . S
C417 O419 1.282 . S
O418 Cd410 2.277 . S
O418 C411 1.226 . S
O419 Cd410 2.356 . S
O419 C417 1.282 . S
C420 O421 1.306 . S
C420 O423 1.160 . S
O421 C420 1.306 . S
O421 Cd422 2.228 . S
Cd422 O421 2.228 . S
Cd422 O426 2.273 . S
Cd422 O430 2.277 . S
O423 C420 1.160 . S
O423 Cd424 2.203 . S
Cd424 O423 2.203 . S
Cd424 O426 2.411 . S
Cd424 O427 2.333 1_554 S
Cd424 O428 2.352 . S
Cd424 O432 2.277 . S
Cd424 O433 2.356 . S
C425 O430 1.209 . S
C425 O432 1.226 . S
O426 Cd422 2.273 . S
O426 Cd424 2.411 . S
O426 C429 1.320 1_554 S
O427 Cd424 2.333 1_556 S
O427 C429 1.214 . S
O428 Cd424 2.352 . S
O428 C431 1.258 . S
C429 O426 1.320 1_556 S
C429 O427 1.214 . S
O430 Cd422 2.277 . S
O430 C425 1.209 . S
C431 O428 1.258 . S
C431 O433 1.282 . S
O432 Cd424 2.277 . S
O432 C425 1.226 . S
O433 Cd424 2.356 . S
O433 C431 1.282 . S
C434 O435 1.306 . S
C434 O437 1.160 . S
O435 C434 1.306 . S
O435 Cd436 2.228 . S
Cd436 O435 2.228 . S
Cd436 O440 2.273 . S
Cd436 O444 2.277 . S
O437 C434 1.160 . S
O437 Cd438 2.203 . S
Cd438 O437 2.203 . S
Cd438 O440 2.411 . S
Cd438 O441 2.333 . S
Cd438 O442 2.352 . S
Cd438 O446 2.277 . S
Cd438 O447 2.356 . S
C439 O444 1.209 . S
C439 O446 1.226 . S
O440 Cd436 2.273 . S
O440 Cd438 2.411 . S
O440 C443 1.320 . S
O441 Cd438 2.333 . S
O441 C443 1.214 . S
O442 Cd438 2.352 . S
O442 C445 1.258 . S
C443 O440 1.320 . S
C443 O441 1.214 . S
O444 Cd436 2.277 . S
O444 C439 1.209 . S
C445 O442 1.258 . S
C445 O447 1.282 . S
O446 Cd438 2.277 . S
O446 C439 1.226 . S
O447 Cd438 2.356 . S
O447 C445 1.282 . S
C448 C449 1.391 . S
C448 C450 1.394 . S
C448 H464 0.931 . S
C449 C448 1.391 . S
C449 C453 1.376 . S
C450 C448 1.394 . S
C450 C451 1.369 . S
C450 C454 1.531 . S
C451 C450 1.369 . S
C451 C452 1.410 . S
C451 C459 1.503 . S
C452 C451 1.410 . S
C452 C453 1.392 . S
C452 C455 1.511 1_556 S
C453 C449 1.376 . S
C453 C452 1.392 . S
C453 H465 0.929 . S
C454 C450 1.531 . S
C454 H466 0.960 . S
C454 H467 0.962 . S
C454 H468 0.960 . S
C455 C452 1.511 1_554 S
C455 H469 0.961 . S
C455 H470 0.961 . S
C455 H471 0.961 . S
C456 C457 1.370 . S
C456 C458 1.363 1_554 S
C456 H472 0.931 . S
C457 C456 1.370 . S
C457 C461 1.410 . S
C458 C456 1.363 1_556 S
C458 C459 1.370 . S
C458 C462 1.524 . S
C459 C451 1.503 . S
C459 C458 1.370 . S
C459 C460 1.403 . S
C460 C459 1.403 . S
C460 C461 1.402 1_556 S
C460 C463 1.539 . S
C461 C457 1.410 . S
C461 C460 1.402 1_554 S
C461 H473 0.930 . S
C462 C458 1.524 . S
C462 H474 0.956 . S
C462 H475 0.961 . S
C462 H476 0.961 . S
C463 C460 1.539 . S
C463 H477 0.958 . S
C463 H478 0.961 . S
C463 H479 0.960 . S
H464 C448 0.931 . S
H465 C453 0.929 . S
H466 C454 0.960 . S
H467 C454 0.962 . S
H468 C454 0.960 . S
H469 C455 0.961 . S
H470 C455 0.961 . S
H471 C455 0.961 . S
H472 C456 0.931 . S
H473 C461 0.930 . S
H474 C462 0.956 . S
H475 C462 0.961 . S
H476 C462 0.961 . S
H477 C463 0.958 . S
H478 C463 0.961 . S
H479 C463 0.960 . S
C480 C481 1.391 . S
C480 C482 1.394 . S
C480 H496 0.931 . S
C481 C480 1.391 . S
C481 C485 1.376 . S
C482 C480 1.394 . S
C482 C483 1.369 . S
C482 C486 1.531 . S
C483 C482 1.369 . S
C483 C484 1.410 . S
C483 C491 1.503 . S
C484 C483 1.410 . S
C484 C485 1.392 . S
C484 C487 1.511 . S
C485 C481 1.376 . S
C485 C484 1.392 . S
C485 H497 0.929 . S
C486 C482 1.531 . S
C486 H498 0.960 . S
C486 H499 0.962 . S
C486 H500 0.960 . S
C487 C484 1.511 . S
C487 H501 0.961 . S
C487 H502 0.961 . S
C487 H503 0.961 . S
C488 C489 1.370 . S
C488 C490 1.363 . S
C488 H504 0.931 . S
C489 C488 1.370 . S
C489 C493 1.408 . S
C490 C488 1.363 . S
C490 C491 1.370 . S
C490 C494 1.524 . S
C491 C483 1.503 . S
C491 C490 1.370 . S
C491 C492 1.403 . S
C492 C491 1.403 . S
C492 C493 1.404 . S
C492 C495 1.539 . S
C493 C489 1.408 . S
C493 C492 1.404 . S
C493 H505 0.930 . S
C494 C490 1.524 . S
C494 H506 0.956 . S
C494 H507 0.961 . S
C494 H508 0.961 . S
C495 C492 1.539 . S
C495 H509 0.958 . S
C495 H510 0.961 . S
C495 H511 0.960 . S
H496 C480 0.931 . S
H497 C485 0.929 . S
H498 C486 0.960 . S
H499 C486 0.962 . S
H500 C486 0.960 . S
H501 C487 0.961 . S
H502 C487 0.961 . S
H503 C487 0.961 . S
H504 C488 0.931 . S
H505 C493 0.930 . S
H506 C494 0.956 . S
H507 C494 0.961 . S
H508 C494 0.961 . S
H509 C495 0.958 . S
H510 C495 0.961 . S
H511 C495 0.960 . S
C512 C513 1.391 . S
C512 C514 1.394 . S
C512 H528 0.931 . S
C513 C512 1.391 . S
C513 C517 1.376 . S
C514 C512 1.394 . S
C514 C515 1.369 . S
C514 C518 1.531 . S
C515 C514 1.369 . S
C515 C516 1.410 . S
C515 C523 1.503 . S
C516 C515 1.410 . S
C516 C517 1.392 . S
C516 C519 1.511 . S
C517 C513 1.376 . S
C517 C516 1.392 . S
C517 H529 0.929 . S
C518 C514 1.531 . S
C518 H530 0.960 . S
C518 H531 0.962 . S
C518 H532 0.960 . S
C519 C516 1.511 . S
C519 H533 0.961 . S
C519 H534 0.961 . S
C519 H535 0.961 . S
C520 C521 1.370 . S
C520 C522 1.363 . S
C520 H536 0.931 . S
C521 C520 1.370 . S
C521 C525 1.408 . S
C522 C520 1.363 . S
C522 C523 1.370 . S
C522 C526 1.524 . S
C523 C515 1.503 . S
C523 C522 1.370 . S
C523 C524 1.403 . S
C524 C523 1.403 . S
C524 C525 1.404 . S
C524 C527 1.539 . S
C525 C521 1.408 . S
C525 C524 1.404 . S
C525 H537 0.930 . S
C526 C522 1.524 . S
C526 H538 0.956 . S
C526 H539 0.961 . S
C526 H540 0.961 . S
C527 C524 1.539 . S
C527 H541 0.958 . S
C527 H542 0.961 . S
C527 H543 0.960 . S
H528 C512 0.931 . S
H529 C517 0.929 . S
H530 C518 0.960 . S
H531 C518 0.962 . S
H532 C518 0.960 . S
H533 C519 0.961 . S
H534 C519 0.961 . S
H535 C519 0.961 . S
H536 C520 0.931 . S
H537 C525 0.930 . S
H538 C526 0.956 . S
H539 C526 0.961 . S
H540 C526 0.961 . S
H541 C527 0.958 . S
H542 C527 0.961 . S
H543 C527 0.960 . S
C544 C545 1.391 . S
C544 C546 1.394 . S
C544 H560 0.931 . S
C545 C544 1.391 . S
C545 C549 1.376 . S
C546 C544 1.394 . S
C546 C547 1.369 . S
C546 C550 1.531 . S
C547 C546 1.369 . S
C547 C548 1.410 . S
C547 C555 1.503 . S
C548 C547 1.410 . S
C548 C549 1.392 . S
C548 C551 1.511 . S
C549 C545 1.376 . S
C549 C548 1.392 . S
C549 H561 0.929 . S
C550 C546 1.531 . S
C550 H562 0.960 . S
C550 H563 0.962 . S
C550 H564 0.960 . S
C551 C548 1.511 . S
C551 H565 0.961 . S
C551 H566 0.961 . S
C551 H567 0.961 . S
C552 C553 1.370 . S
C552 C554 1.363 . S
C552 H568 0.931 . S
C553 C552 1.370 . S
C553 C557 1.408 . S
C554 C552 1.363 . S
C554 C555 1.370 . S
C554 C558 1.524 . S
C555 C547 1.503 . S
C555 C554 1.370 . S
C555 C556 1.403 . S
C556 C555 1.403 . S
C556 C557 1.404 . S
C556 C559 1.539 . S
C557 C553 1.408 . S
C557 C556 1.404 . S
C557 H569 0.930 . S
C558 C554 1.524 . S
C558 H570 0.956 . S
C558 H571 0.961 . S
C558 H572 0.961 . S
C559 C556 1.539 . S
C559 H573 0.958 . S
C559 H574 0.961 . S
C559 H575 0.960 . S
H560 C544 0.931 . S
H561 C549 0.929 . S
H562 C550 0.960 . S
H563 C550 0.962 . S
H564 C550 0.960 . S
H565 C551 0.961 . S
H566 C551 0.961 . S
H567 C551 0.961 . S
H568 C552 0.931 . S
H569 C557 0.930 . S
H570 C558 0.956 . S
H571 C558 0.961 . S
H572 C558 0.961 . S
H573 C559 0.958 . S
H574 C559 0.961 . S
H575 C559 0.960 . S
C576 C577 1.391 . S
C576 C578 1.394 . S
C576 H592 0.931 . S
C577 C576 1.391 . S
C577 C581 1.376 . S
C578 C576 1.394 . S
C578 C579 1.369 . S
C578 C582 1.531 . S
C579 C578 1.369 . S
C579 C580 1.410 . S
C579 C587 1.503 . S
C580 C579 1.410 . S
C580 C581 1.392 . S
C580 C583 1.511 . S
C581 C577 1.376 . S
C581 C580 1.392 . S
C581 H593 0.929 . S
C582 C578 1.531 . S
C582 H594 0.960 . S
C582 H595 0.962 . S
C582 H596 0.960 . S
C583 C580 1.511 . S
C583 H597 0.961 . S
C583 H598 0.961 . S
C583 H599 0.961 . S
C584 C585 1.370 . S
C584 C586 1.363 . S
C584 H600 0.931 . S
C585 C584 1.370 . S
C585 C589 1.408 . S
C586 C584 1.363 . S
C586 C587 1.370 . S
C586 C590 1.524 . S
C587 C579 1.503 . S
C587 C586 1.370 . S
C587 C588 1.403 . S
C588 C587 1.403 . S
C588 C589 1.404 . S
C588 C591 1.539 . S
C589 C585 1.408 . S
C589 C588 1.404 . S
C589 H601 0.930 . S
C590 C586 1.524 . S
C590 H602 0.956 . S
C590 H603 0.961 . S
C590 H604 0.961 . S
C591 C588 1.539 . S
C591 H605 0.958 . S
C591 H606 0.961 . S
C591 H607 0.960 . S
H592 C576 0.931 . S
H593 C581 0.929 . S
H594 C582 0.960 . S
H595 C582 0.962 . S
H596 C582 0.960 . S
H597 C583 0.961 . S
H598 C583 0.961 . S
H599 C583 0.961 . S
H600 C584 0.931 . S
H601 C589 0.930 . S
H602 C590 0.956 . S
H603 C590 0.961 . S
H604 C590 0.961 . S
H605 C591 0.958 . S
H606 C591 0.961 . S
H607 C591 0.960 . S
C608 C609 1.391 . S
C608 C610 1.394 . S
C608 H624 0.931 . S
C609 C608 1.391 . S
C609 C613 1.376 . S
C610 C608 1.394 . S
C610 C611 1.369 . S
C610 C614 1.531 . S
C611 C610 1.369 . S
C611 C612 1.410 . S
C611 C619 1.503 . S
C612 C611 1.410 . S
C612 C613 1.392 . S
C612 C615 1.511 . S
C613 C609 1.376 . S
C613 C612 1.392 . S
C613 H625 0.929 . S
C614 C610 1.531 . S
C614 H626 0.960 . S
C614 H627 0.962 . S
C614 H628 0.960 . S
C615 C612 1.511 . S
C615 H629 0.961 . S
C615 H630 0.961 . S
C615 H631 0.961 . S
C616 C617 1.370 . S
C616 C618 1.363 . S
C616 H632 0.931 . S
C617 C616 1.370 . S
C617 C621 1.408 1_554 S
C618 C616 1.363 . S
C618 C619 1.370 1_554 S
C618 C622 1.524 . S
C619 C611 1.503 . S
C619 C618 1.370 1_556 S
C619 C620 1.403 . S
C620 C619 1.403 . S
C620 C621 1.404 . S
C620 C623 1.539 . S
C621 C617 1.408 1_556 S
C621 C620 1.404 . S
C621 H633 0.930 . S
C622 C618 1.524 . S
C622 H634 0.956 . S
C622 H635 0.961 . S
C622 H636 0.961 . S
C623 C620 1.539 . S
C623 H637 0.958 . S
C623 H638 0.961 . S
C623 H639 0.960 . S
H624 C608 0.931 . S
H625 C613 0.929 . S
H626 C614 0.960 . S
H627 C614 0.962 . S
H628 C614 0.960 . S
H629 C615 0.961 . S
H630 C615 0.961 . S
H631 C615 0.961 . S
H632 C616 0.931 . S
H633 C621 0.930 . S
H634 C622 0.956 . S
H635 C622 0.961 . S
H636 C622 0.961 . S
H637 C623 0.958 . S
H638 C623 0.961 . S
H639 C623 0.960 . S
C640 C641 1.391 . S
C640 C642 1.394 . S
C640 H656 0.931 . S
C641 C640 1.391 . S
C641 C645 1.376 . S
C642 C640 1.394 . S
C642 C643 1.369 . S
C642 C646 1.531 . S
C643 C642 1.369 . S
C643 C644 1.410 . S
C643 C651 1.503 . S
C644 C643 1.410 . S
C644 C645 1.392 . S
C644 C647 1.511 . S
C645 C641 1.376 . S
C645 C644 1.392 . S
C645 H657 0.929 . S
C646 C642 1.531 . S
C646 H658 0.960 . S
C646 H659 0.962 . S
C646 H660 0.960 . S
C647 C644 1.511 . S
C647 H661 0.961 . S
C647 H662 0.961 . S
C647 H663 0.961 . S
C648 C649 1.370 . S
C648 C650 1.363 . S
C648 H664 0.931 . S
C649 C648 1.370 . S
C649 C653 1.408 . S
C650 C648 1.363 . S
C650 C651 1.370 . S
C650 C654 1.524 . S
C651 C643 1.503 . S
C651 C650 1.370 . S
C651 C652 1.403 . S
C652 C651 1.403 . S
C652 C653 1.404 . S
C652 C655 1.539 . S
C653 C649 1.408 . S
C653 C652 1.404 . S
C653 H665 0.930 . S
C654 C650 1.524 . S
C654 H666 0.956 . S
C654 H667 0.961 . S
C654 H668 0.961 . S
C655 C652 1.539 . S
C655 H669 0.958 . S
C655 H670 0.961 . S
C655 H671 0.960 . S
H656 C640 0.931 . S
H657 C645 0.929 . S
H658 C646 0.960 . S
H659 C646 0.962 . S
H660 C646 0.960 . S
H661 C647 0.961 . S
H662 C647 0.961 . S
H663 C647 0.961 . S
H664 C648 0.931 . S
H665 C653 0.930 . S
H666 C654 0.956 . S
H667 C654 0.961 . S
H668 C654 0.961 . S
H669 C655 0.958 . S
H670 C655 0.961 . S
H671 C655 0.960 . S
C672 C673 1.391 . S
C672 C674 1.394 . S
C672 H688 0.931 . S
C673 C672 1.391 . S
C673 C677 1.376 . S
C674 C672 1.394 . S
C674 C675 1.369 . S
C674 C678 1.531 . S
C675 C674 1.369 . S
C675 C676 1.410 . S
C675 C683 1.503 . S
C676 C675 1.410 . S
C676 C677 1.392 . S
C676 C679 1.511 . S
C677 C673 1.376 . S
C677 C676 1.392 . S
C677 H689 0.929 . S
C678 C674 1.531 . S
C678 H690 0.960 . S
C678 H691 0.962 . S
C678 H692 0.960 . S
C679 C676 1.511 . S
C679 H693 0.961 . S
C679 H694 0.961 . S
C679 H695 0.961 . S
C680 C681 1.370 . S
C680 C682 1.363 . S
C680 H696 0.931 . S
C681 C680 1.370 . S
C681 C685 1.408 . S
C682 C680 1.363 . S
C682 C683 1.370 . S
C682 C686 1.524 . S
C683 C675 1.503 . S
C683 C682 1.370 . S
C683 C684 1.403 . S
C684 C683 1.403 . S
C684 C685 1.404 . S
C684 C687 1.539 . S
C685 C681 1.408 . S
C685 C684 1.404 . S
C685 H697 0.930 . S
C686 C682 1.524 . S
C686 H698 0.956 . S
C686 H699 0.961 . S
C686 H700 0.961 . S
C687 C684 1.539 . S
C687 H701 0.958 . S
C687 H702 0.961 . S
C687 H703 0.960 . S
H688 C672 0.931 . S
H689 C677 0.929 . S
H690 C678 0.960 . S
H691 C678 0.962 . S
H692 C678 0.960 . S
H693 C679 0.961 . S
H694 C679 0.961 . S
H695 C679 0.961 . S
H696 C680 0.931 . S
H697 C685 0.930 . S
H698 C686 0.956 . S
H699 C686 0.961 . S
H700 C686 0.961 . S
H701 C687 0.958 . S
H702 C687 0.961 . S
H703 C687 0.960 . S
C704 C705 1.391 . S
C704 C706 1.394 . S
C704 H720 0.931 . S
C705 C704 1.391 . S
C705 C709 1.376 . S
C706 C704 1.394 . S
C706 C707 1.369 . S
C706 C710 1.531 . S
C707 C706 1.369 . S
C707 C708 1.410 . S
C707 C715 1.503 . S
C708 C707 1.410 . S
C708 C709 1.392 . S
C708 C711 1.511 . S
C709 C705 1.376 . S
C709 C708 1.392 . S
C709 H721 0.929 . S
C710 C706 1.531 . S
C710 H722 0.960 . S
C710 H723 0.962 . S
C710 H724 0.960 . S
C711 C708 1.511 . S
C711 H725 0.961 . S
C711 H726 0.961 . S
C711 H727 0.961 . S
C712 C713 1.370 . S
C712 C714 1.363 . S
C712 H728 0.931 . S
C713 C712 1.370 . S
C713 C717 1.408 . S
C714 C712 1.363 . S
C714 C715 1.370 . S
C714 C718 1.524 . S
C715 C707 1.503 . S
C715 C714 1.370 . S
C715 C716 1.403 . S
C716 C715 1.403 . S
C716 C717 1.404 . S
C716 C719 1.539 . S
C717 C713 1.408 . S
C717 C716 1.404 . S
C717 H729 0.930 . S
C718 C714 1.524 . S
C718 H730 0.956 . S
C718 H731 0.961 . S
C718 H732 0.961 . S
C719 C716 1.539 . S
C719 H733 0.958 . S
C719 H734 0.961 . S
C719 H735 0.960 . S
H720 C704 0.931 . S
H721 C709 0.929 . S
H722 C710 0.960 . S
H723 C710 0.962 . S
H724 C710 0.960 . S
H725 C711 0.961 . S
H726 C711 0.961 . S
H727 C711 0.961 . S
H728 C712 0.931 . S
H729 C717 0.930 . S
H730 C718 0.956 . S
H731 C718 0.961 . S
H732 C718 0.961 . S
H733 C719 0.958 . S
H734 C719 0.961 . S
H735 C719 0.960 . S
C736 C737 1.391 . S
C736 C738 1.394 . S
C736 H752 0.931 . S
C737 C736 1.391 . S
C737 C741 1.376 . S
C738 C736 1.394 . S
C738 C739 1.369 . S
C738 C742 1.531 . S
C739 C738 1.369 . S
C739 C740 1.410 . S
C739 C747 1.503 . S
C740 C739 1.410 . S
C740 C741 1.392 . S
C740 C743 1.511 . S
C741 C737 1.376 . S
C741 C740 1.392 . S
C741 H753 0.929 . S
C742 C738 1.531 . S
C742 H754 0.960 . S
C742 H755 0.962 . S
C742 H756 0.960 . S
C743 C740 1.511 . S
C743 H757 0.961 . S
C743 H758 0.961 . S
C743 H759 0.961 . S
C744 C745 1.370 . S
C744 C746 1.363 . S
C744 H760 0.931 . S
C745 C744 1.370 . S
C745 C749 1.408 . S
C746 C744 1.363 . S
C746 C747 1.370 . S
C746 C750 1.524 . S
C747 C739 1.503 . S
C747 C746 1.370 . S
C747 C748 1.403 . S
C748 C747 1.403 . S
C748 C749 1.404 . S
C748 C751 1.539 . S
C749 C745 1.408 . S
C749 C748 1.404 . S
C749 H761 0.930 . S
C750 C746 1.524 . S
C750 H762 0.956 . S
C750 H763 0.961 . S
C750 H764 0.961 . S
C751 C748 1.539 . S
C751 H765 0.958 . S
C751 H766 0.961 . S
C751 H767 0.960 . S
H752 C736 0.931 . S
H753 C741 0.929 . S
H754 C742 0.960 . S
H755 C742 0.962 . S
H756 C742 0.960 . S
H757 C743 0.961 . S
H758 C743 0.961 . S
H759 C743 0.961 . S
H760 C744 0.931 . S
H761 C749 0.930 . S
H762 C750 0.956 . S
H763 C750 0.961 . S
H764 C750 0.961 . S
H765 C751 0.958 . S
H766 C751 0.961 . S
H767 C751 0.960 . S
C768 C769 1.391 . S
C768 C770 1.394 . S
C768 H784 0.931 . S
C769 C768 1.391 . S
C769 C773 1.376 . S
C770 C768 1.394 . S
C770 C771 1.369 . S
C770 C774 1.531 . S
C771 C770 1.369 . S
C771 C772 1.410 . S
C771 C779 1.503 . S
C772 C771 1.410 . S
C772 C773 1.392 . S
C772 C775 1.511 . S
C773 C769 1.376 . S
C773 C772 1.392 . S
C773 H785 0.929 . S
C774 C770 1.531 . S
C774 H786 0.960 1_556 S
C774 H787 0.962 . S
C774 H788 0.960 . S
C775 C772 1.511 . S
C775 H789 0.961 . S
C775 H790 0.961 . S
C775 H791 0.961 . S
C776 C777 1.370 1_556 S
C776 C778 1.363 . S
C776 H792 0.931 . S
C777 C776 1.370 1_554 S
C777 C781 1.408 . S
C778 C776 1.363 . S
C778 C779 1.370 . S
C778 C782 1.524 . S
C779 C771 1.503 . S
C779 C778 1.370 . S
C779 C780 1.403 1_556 S
C780 C779 1.403 1_554 S
C780 C781 1.404 . S
C780 C783 1.539 . S
C781 C777 1.408 . S
C781 C780 1.404 . S
C781 H793 0.930 . S
C782 C778 1.524 . S
C782 H794 0.956 . S
C782 H795 0.961 . S
C782 H796 0.961 . S
C783 C780 1.539 . S
C783 H797 0.958 . S
C783 H798 0.961 . S
C783 H799 0.960 . S
H784 C768 0.931 . S
H785 C773 0.929 . S
H786 C774 0.960 1_554 S
H787 C774 0.962 . S
H788 C774 0.960 . S
H789 C775 0.961 . S
H790 C775 0.961 . S
H791 C775 0.961 . S
H792 C776 0.931 . S
H793 C781 0.930 . S
H794 C782 0.956 . S
H795 C782 0.961 . S
H796 C782 0.961 . S
H797 C783 0.958 . S
H798 C783 0.961 . S
H799 C783 0.960 . S
C800 C801 1.391 . S
C800 C802 1.394 . S
C800 H816 0.931 . S
C801 C800 1.391 . S
C801 C805 1.376 . S
C802 C800 1.394 . S
C802 C803 1.369 . S
C802 C806 1.531 . S
C803 C802 1.369 . S
C803 C804 1.410 . S
C803 C811 1.503 . S
C804 C803 1.410 . S
C804 C805 1.392 . S
C804 C807 1.511 . S
C805 C801 1.376 . S
C805 C804 1.392 . S
C805 H817 0.929 . S
C806 C802 1.531 . S
C806 H818 0.960 . S
C806 H819 0.962 . S
C806 H820 0.960 . S
C807 C804 1.511 . S
C807 H821 0.961 . S
C807 H822 0.961 . S
C807 H823 0.961 . S
C808 C809 1.370 . S
C808 C810 1.363 . S
C808 H824 0.931 . S
C809 C808 1.370 . S
C809 C813 1.408 . S
C810 C808 1.363 . S
C810 C811 1.370 . S
C810 C814 1.524 . S
C811 C803 1.503 . S
C811 C810 1.370 . S
C811 C812 1.403 . S
C812 C811 1.403 . S
C812 C813 1.404 . S
C812 C815 1.539 . S
C813 C809 1.408 . S
C813 C812 1.404 . S
C813 H825 0.930 . S
C814 C810 1.524 . S
C814 H826 0.956 . S
C814 H827 0.961 . S
C814 H828 0.961 . S
C815 C812 1.539 . S
C815 H829 0.958 . S
C815 H830 0.961 . S
C815 H831 0.960 . S
H816 C800 0.931 . S
H817 C805 0.929 . S
H818 C806 0.960 . S
H819 C806 0.962 . S
H820 C806 0.960 . S
H821 C807 0.961 . S
H822 C807 0.961 . S
H823 C807 0.961 . S
H824 C808 0.931 . S
H825 C813 0.930 . S
H826 C814 0.956 . S
H827 C814 0.961 . S
H828 C814 0.961 . S
H829 C815 0.958 . S
H830 C815 0.961 . S
H831 C815 0.960 . S
C832 C833 1.391 . S
C832 C834 1.394 . S
C832 H848 0.931 . S
C833 C832 1.391 . S
C833 C837 1.376 . S
C834 C832 1.394 . S
C834 C835 1.369 . S
C834 C838 1.531 . S
C835 C834 1.369 . S
C835 C836 1.410 . S
C835 C843 1.503 . S
C836 C835 1.410 . S
C836 C837 1.392 . S
C836 C839 1.511 . S
C837 C833 1.376 . S
C837 C836 1.392 . S
C837 H849 0.929 . S
C838 C834 1.531 . S
C838 H850 0.960 . S
C838 H851 0.962 . S
C838 H852 0.960 . S
C839 C836 1.511 . S
C839 H853 0.961 . S
C839 H854 0.961 . S
C839 H855 0.961 . S
C840 C841 1.370 . S
C840 C842 1.363 . S
C840 H856 0.931 . S
C841 C840 1.370 . S
C841 C845 1.408 . S
C842 C840 1.363 . S
C842 C843 1.370 . S
C842 C846 1.524 . S
C843 C835 1.503 . S
C843 C842 1.370 . S
C843 C844 1.403 . S
C844 C843 1.403 . S
C844 C845 1.404 . S
C844 C847 1.539 . S
C845 C841 1.408 . S
C845 C844 1.404 . S
C845 H857 0.930 . S
C846 C842 1.524 . S
C846 H858 0.956 . S
C846 H859 0.961 . S
C846 H860 0.961 . S
C847 C844 1.539 . S
C847 H861 0.958 . S
C847 H862 0.961 . S
C847 H863 0.960 . S
H848 C832 0.931 . S
H849 C837 0.929 . S
H850 C838 0.960 . S
H851 C838 0.962 . S
H852 C838 0.960 . S
H853 C839 0.961 . S
H854 C839 0.961 . S
H855 C839 0.961 . S
H856 C840 0.931 . S
H857 C845 0.930 . S
H858 C846 0.956 . S
H859 C846 0.961 . S
H860 C846 0.961 . S
H861 C847 0.958 . S
H862 C847 0.961 . S
H863 C847 0.960 . S
C864 C865 1.391 . S
C864 C866 1.394 . S
C864 H880 0.931 . S
C865 C864 1.391 . S
C865 C869 1.376 . S
C866 C864 1.394 . S
C866 C867 1.369 . S
C866 C870 1.531 . S
C867 C866 1.369 . S
C867 C868 1.410 . S
C867 C875 1.503 . S
C868 C867 1.410 . S
C868 C869 1.392 . S
C868 C871 1.511 . S
C869 C865 1.376 . S
C869 C868 1.392 . S
C869 H881 0.929 . S
C870 C866 1.531 . S
C870 H882 0.960 . S
C870 H883 0.962 . S
C870 H884 0.960 . S
C871 C868 1.511 . S
C871 H885 0.961 . S
C871 H886 0.961 . S
C871 H887 0.961 . S
C872 C873 1.370 . S
C872 C874 1.363 . S
C872 H888 0.931 . S
C873 C872 1.370 . S
C873 C877 1.408 . S
C874 C872 1.363 . S
C874 C875 1.370 . S
C874 C878 1.524 . S
C875 C867 1.503 . S
C875 C874 1.370 . S
C875 C876 1.403 . S
C876 C875 1.403 . S
C876 C877 1.404 . S
C876 C879 1.539 . S
C877 C873 1.408 . S
C877 C876 1.404 . S
C877 H889 0.930 . S
C878 C874 1.524 . S
C878 H890 0.956 . S
C878 H891 0.961 . S
C878 H892 0.961 . S
C879 C876 1.539 . S
C879 H893 0.958 . S
C879 H894 0.961 . S
C879 H895 0.960 . S
H880 C864 0.931 . S
H881 C869 0.929 . S
H882 C870 0.960 . S
H883 C870 0.962 . S
H884 C870 0.960 . S
H885 C871 0.961 . S
H886 C871 0.961 . S
H887 C871 0.961 . S
H888 C872 0.931 . S
H889 C877 0.930 . S
H890 C878 0.956 . S
H891 C878 0.961 . S
H892 C878 0.961 . S
H893 C879 0.958 . S
H894 C879 0.961 . S
H895 C879 0.960 . S
C896 C897 1.391 . S
C896 C898 1.394 . S
C896 H912 0.931 . S
C897 C896 1.391 . S
C897 C901 1.376 . S
C898 C896 1.394 . S
C898 C899 1.369 . S
C898 C902 1.531 . S
C899 C898 1.369 . S
C899 C900 1.410 . S
C899 C907 1.503 . S
C900 C899 1.410 . S
C900 C901 1.392 . S
C900 C903 1.511 . S
C901 C897 1.376 . S
C901 C900 1.392 . S
C901 H913 0.929 . S
C902 C898 1.531 . S
C902 H914 0.960 . S
C902 H915 0.962 . S
C902 H916 0.960 . S
C903 C900 1.511 . S
C903 H917 0.961 . S
C903 H918 0.961 . S
C903 H919 0.961 . S
C904 C905 1.370 . S
C904 C906 1.363 . S
C904 H920 0.931 . S
C905 C904 1.370 . S
C905 C909 1.408 . S
C906 C904 1.363 . S
C906 C907 1.370 . S
C906 C910 1.524 . S
C907 C899 1.503 . S
C907 C906 1.370 . S
C907 C908 1.403 . S
C908 C907 1.403 . S
C908 C909 1.404 . S
C908 C911 1.539 . S
C909 C905 1.408 . S
C909 C908 1.404 . S
C909 H921 0.930 . S
C910 C906 1.524 . S
C910 H922 0.956 . S
C910 H923 0.961 . S
C910 H924 0.961 . S
C911 C908 1.539 . S
C911 H925 0.958 . S
C911 H926 0.961 . S
C911 H927 0.960 . S
H912 C896 0.931 . S
H913 C901 0.929 . S
H914 C902 0.960 . S
H915 C902 0.962 . S
H916 C902 0.960 . S
H917 C903 0.961 . S
H918 C903 0.961 . S
H919 C903 0.961 . S
H920 C904 0.931 . S
H921 C909 0.930 . S
H922 C910 0.956 . S
H923 C910 0.961 . S
H924 C910 0.961 . S
H925 C911 0.958 . S
H926 C911 0.961 . S
H927 C911 0.960 . S
C928 C929 1.391 . S
C928 C930 1.394 . S
C928 H944 0.931 . S
C929 C928 1.391 . S
C929 C933 1.376 . S
C930 C928 1.394 . S
C930 C931 1.369 . S
C930 C934 1.531 . S
C931 C930 1.369 . S
C931 C932 1.410 . S
C931 C939 1.503 . S
C932 C931 1.410 . S
C932 C933 1.392 . S
C932 C935 1.511 . S
C933 C929 1.376 . S
C933 C932 1.392 . S
C933 H945 0.929 . S
C934 C930 1.531 . S
C934 H946 0.960 . S
C934 H947 0.962 1_556 S
C934 H948 0.960 . S
C935 C932 1.511 . S
C935 H949 0.961 . S
C935 H950 0.961 . S
C935 H951 0.961 . S
C936 C937 1.370 . S
C936 C938 1.363 . S
C936 H952 0.931 . S
C937 C936 1.370 . S
C937 C941 1.408 1_554 S
C938 C936 1.363 . S
C938 C939 1.370 1_554 S
C938 C942 1.524 . S
C939 C931 1.503 . S
C939 C938 1.370 1_556 S
C939 C940 1.403 . S
C940 C939 1.403 . S
C940 C941 1.404 . S
C940 C943 1.539 . S
C941 C937 1.408 1_556 S
C941 C940 1.404 . S
C941 H953 0.930 . S
C942 C938 1.524 . S
C942 H954 0.956 . S
C942 H955 0.961 . S
C942 H956 0.961 . S
C943 C940 1.539 . S
C943 H957 0.958 . S
C943 H958 0.961 . S
C943 H959 0.960 . S
H944 C928 0.931 . S
H945 C933 0.929 . S
H946 C934 0.960 . S
H947 C934 0.962 1_554 S
H948 C934 0.960 . S
H949 C935 0.961 . S
H950 C935 0.961 . S
H951 C935 0.961 . S
H952 C936 0.931 . S
H953 C941 0.930 . S
H954 C942 0.956 . S
H955 C942 0.961 . S
H956 C942 0.961 . S
H957 C943 0.958 . S
H958 C943 0.961 . S
H959 C943 0.960 . S
C960 C961 1.391 . S
C960 C962 1.394 . S
C960 H976 0.931 . S
C961 C960 1.391 . S
C961 C965 1.376 . S
C962 C960 1.394 . S
C962 C963 1.369 . S
C962 C966 1.531 . S
C963 C962 1.369 . S
C963 C964 1.410 . S
C963 C971 1.503 . S
C964 C963 1.410 . S
C964 C965 1.392 . S
C964 C967 1.511 . S
C965 C961 1.376 . S
C965 C964 1.392 . S
C965 H977 0.929 . S
C966 C962 1.531 . S
C966 H978 0.960 . S
C966 H979 0.962 . S
C966 H980 0.960 . S
C967 C964 1.511 . S
C967 H981 0.961 . S
C967 H982 0.961 . S
C967 H983 0.961 . S
C968 C969 1.370 . S
C968 C970 1.363 . S
C968 H984 0.931 . S
C969 C968 1.370 . S
C969 C973 1.408 . S
C970 C968 1.363 . S
C970 C971 1.370 . S
C970 C974 1.524 . S
C971 C963 1.503 . S
C971 C970 1.370 . S
C971 C972 1.403 . S
C972 C971 1.403 . S
C972 C973 1.404 . S
C972 C975 1.539 . S
C973 C969 1.408 . S
C973 C972 1.404 . S
C973 H985 0.930 . S
C974 C970 1.524 . S
C974 H986 0.956 . S
C974 H987 0.961 . S
C974 H988 0.961 . S
C975 C972 1.539 . S
C975 H989 0.958 . S
C975 H990 0.961 . S
C975 H991 0.960 . S
H976 C960 0.931 . S
H977 C965 0.929 . S
H978 C966 0.960 . S
H979 C966 0.962 . S
H980 C966 0.960 . S
H981 C967 0.961 . S
H982 C967 0.961 . S
H983 C967 0.961 . S
H984 C968 0.931 . S
H985 C973 0.930 . S
H986 C974 0.956 . S
H987 C974 0.961 . S
H988 C974 0.961 . S
H989 C975 0.958 . S
H990 C975 0.961 . S
H991 C975 0.960 . S
C992 C993 1.391 . S
C992 C994 1.394 . S
C992 H1008 0.931 . S
C993 C992 1.391 . S
C993 C997 1.376 . S
C994 C992 1.394 . S
C994 C995 1.369 . S
C994 C998 1.531 1_565 S
C995 C994 1.369 . S
C995 C996 1.410 . S
C995 C1003 1.503 1_565 S
C996 C995 1.410 . S
C996 C997 1.392 . S
C996 C999 1.511 . S
C997 C993 1.376 . S
C997 C996 1.392 . S
C997 H1009 0.929 . S
C998 C994 1.531 1_545 S
C998 H1010 0.960 . S
C998 H1011 0.962 . S
C998 H1012 0.960 1_545 S
C999 C996 1.511 . S
C999 H1013 0.961 . S
C999 H1014 0.984 . S
C999 H1015 0.961 . S
C1000 C1001 1.370 . S
C1000 C1002 1.363 1_556 S
C1000 H1016 0.931 . S
C1001 C1000 1.370 . S
C1001 C1005 1.408 . S
C1002 C1000 1.363 1_554 S
C1002 C1003 1.370 . S
C1002 C1006 1.524 . S
C1003 C995 1.503 1_545 S
C1003 C1002 1.370 . S
C1003 C1004 1.403 1_545 S
C1004 C1003 1.403 1_565 S
C1004 C1005 1.404 1_564 S
C1004 C1007 1.539 . S
C1005 C1001 1.408 . S
C1005 C1004 1.404 1_546 S
C1005 H1017 0.930 1_545 S
C1006 C1002 1.524 . S
C1006 H1018 0.956 . S
C1006 H1019 0.961 . S
C1006 H1020 0.961 . S
C1007 C1004 1.539 . S
C1007 H1021 0.958 . S
C1007 H1022 0.961 1_554 S
C1007 H1023 0.960 . S
H1008 C992 0.931 . S
H1009 C997 0.929 . S
H1010 C998 0.960 . S
H1011 C998 0.962 . S
H1012 C998 0.960 1_565 S
H1013 C999 0.961 . S
H1014 C999 0.984 . S
H1015 C999 0.961 . S
H1016 C1000 0.931 . S
H1017 C1005 0.930 1_565 S
H1018 C1006 0.956 . S
H1019 C1006 0.961 . S
H1020 C1006 0.961 . S
H1021 C1007 0.958 . S
H1022 C1007 0.961 1_556 S
H1023 C1007 0.960 . S
C1024 C1025 1.391 . S
C1024 C1026 1.394 . S
C1024 H1040 0.931 . S
C1025 C1024 1.391 . S
C1025 C1029 1.376 . S
C1026 C1024 1.394 . S
C1026 C1027 1.369 . S
C1026 C1030 1.531 . S
C1027 C1026 1.369 . S
C1027 C1028 1.410 . S
C1027 C1035 1.503 . S
C1028 C1027 1.410 . S
C1028 C1029 1.392 . S
C1028 C1031 1.511 . S
C1029 C1025 1.376 . S
C1029 C1028 1.392 . S
C1029 H1041 0.929 . S
C1030 C1026 1.531 . S
C1030 H1042 0.960 . S
C1030 H1043 0.962 . S
C1030 H1044 0.960 . S
C1031 C1028 1.511 . S
C1031 H1045 0.961 . S
C1031 H1046 0.961 . S
C1031 H1047 0.961 . S
C1032 C1033 1.370 . S
C1032 C1034 1.363 . S
C1032 H1048 0.931 . S
C1033 C1032 1.370 . S
C1033 C1037 1.408 . S
C1034 C1032 1.363 . S
C1034 C1035 1.370 . S
C1034 C1038 1.524 . S
C1035 C1027 1.503 . S
C1035 C1034 1.370 . S
C1035 C1036 1.403 . S
C1036 C1035 1.403 . S
C1036 C1037 1.404 . S
C1036 C1039 1.539 . S
C1037 C1033 1.408 . S
C1037 C1036 1.404 . S
C1037 H1049 0.930 . S
C1038 C1034 1.524 . S
C1038 H1050 0.956 . S
C1038 H1051 0.961 . S
C1038 H1052 0.961 . S
C1039 C1036 1.539 . S
C1039 H1053 0.958 . S
C1039 H1054 0.961 . S
C1039 H1055 0.960 . S
H1040 C1024 0.931 . S
H1041 C1029 0.929 . S
H1042 C1030 0.960 . S
H1043 C1030 0.962 . S
H1044 C1030 0.960 . S
H1045 C1031 0.961 . S
H1046 C1031 0.961 . S
H1047 C1031 0.961 . S
H1048 C1032 0.931 . S
H1049 C1037 0.930 . S
H1050 C1038 0.956 . S
H1051 C1038 0.961 . S
H1052 C1038 0.961 . S
H1053 C1039 0.958 . S
H1054 C1039 0.961 . S
H1055 C1039 0.960 . S
C1056 C1057 1.391 . S
C1056 C1058 1.375 1_545 S
C1056 H1072 0.901 1_545 S
C1057 C1056 1.391 . S
C1057 C1061 1.376 . S
C1058 C1056 1.375 1_565 S
C1058 C1059 1.341 1_565 S
C1058 C1062 1.579 . S
C1059 C1058 1.341 1_545 S
C1059 C1060 1.410 . S
C1059 C1067 1.503 . S
C1060 C1059 1.410 . S
C1060 C1061 1.392 . S
C1060 C1063 1.511 . S
C1061 C1057 1.376 . S
C1061 C1060 1.392 . S
C1061 H1073 0.929 . S
C1062 C1058 1.579 . S
C1062 H1074 0.960 . S
C1062 H1075 0.962 . S
C1062 H1076 0.960 . S
C1063 C1060 1.511 . S
C1063 H1077 0.961 . S
C1063 H1078 0.961 . S
C1063 H1079 0.961 . S
C1064 C1065 1.370 . S
C1064 C1066 1.363 . S
C1064 H1080 0.931 . S
C1065 C1064 1.370 . S
C1065 C1069 1.408 . S
C1066 C1064 1.363 . S
C1066 C1067 1.370 1_565 S
C1066 C1070 1.524 . S
C1067 C1059 1.503 . S
C1067 C1066 1.370 1_545 S
C1067 C1068 1.403 1_545 S
C1068 C1067 1.403 1_565 S
C1068 C1069 1.401 . S
C1068 C1071 1.542 1_565 S
C1069 C1065 1.408 . S
C1069 C1068 1.401 . S
C1069 H1081 0.930 . S
C1070 C1066 1.524 . S
C1070 H1082 0.956 . S
C1070 H1083 0.961 1_565 S
C1070 H1084 0.961 . S
C1071 C1068 1.542 1_545 S
C1071 H1085 0.958 1_545 S
C1071 H1086 0.961 . S
C1071 H1087 0.960 . S
H1072 C1056 0.901 1_565 S
H1073 C1061 0.929 . S
H1074 C1062 0.960 . S
H1075 C1062 0.962 . S
H1076 C1062 0.960 . S
H1077 C1063 0.961 . S
H1078 C1063 0.961 . S
H1079 C1063 0.961 . S
H1080 C1064 0.931 . S
H1081 C1069 0.930 . S
H1082 C1070 0.956 . S
H1083 C1070 0.961 1_545 S
H1084 C1070 0.961 . S
H1085 C1071 0.958 1_565 S
H1086 C1071 0.961 . S
H1087 C1071 0.960 . S
C1088 C1089 1.391 . S
C1088 C1090 1.394 . S
C1088 H1104 0.931 . S
C1089 C1088 1.391 . S
C1089 C1093 1.376 . S
C1090 C1088 1.394 . S
C1090 C1091 1.369 . S
C1090 C1094 1.531 . S
C1091 C1090 1.369 . S
C1091 C1092 1.410 . S
C1091 C1099 1.503 . S
C1092 C1091 1.410 . S
C1092 C1093 1.392 . S
C1092 C1095 1.511 . S
C1093 C1089 1.376 . S
C1093 C1092 1.392 . S
C1093 H1105 0.929 . S
C1094 C1090 1.531 . S
C1094 H1106 0.960 . S
C1094 H1107 0.962 . S
C1094 H1108 0.960 . S
C1095 C1092 1.511 . S
C1095 H1109 0.961 . S
C1095 H1110 0.961 . S
C1095 H1111 0.961 . S
C1096 C1097 1.370 . S
C1096 C1098 1.363 . S
C1096 H1112 0.931 . S
C1097 C1096 1.370 . S
C1097 C1101 1.408 . S
C1098 C1096 1.363 . S
C1098 C1099 1.370 . S
C1098 C1102 1.524 . S
C1099 C1091 1.503 . S
C1099 C1098 1.370 . S
C1099 C1100 1.403 . S
C1100 C1099 1.403 . S
C1100 C1101 1.404 . S
C1100 C1103 1.539 . S
C1101 C1097 1.408 . S
C1101 C1100 1.404 . S
C1101 H1113 0.930 . S
C1102 C1098 1.524 . S
C1102 H1114 0.956 . S
C1102 H1115 0.961 . S
C1102 H1116 0.961 . S
C1103 C1100 1.539 . S
C1103 H1117 0.958 . S
C1103 H1118 0.961 . S
C1103 H1119 0.960 . S
H1104 C1088 0.931 . S
H1105 C1093 0.929 . S
H1106 C1094 0.960 . S
H1107 C1094 0.962 . S
H1108 C1094 0.960 . S
H1109 C1095 0.961 . S
H1110 C1095 0.961 . S
H1111 C1095 0.961 . S
H1112 C1096 0.931 . S
H1113 C1101 0.930 . S
H1114 C1102 0.956 . S
H1115 C1102 0.961 . S
H1116 C1102 0.961 . S
H1117 C1103 0.958 . S
H1118 C1103 0.961 . S
H1119 C1103 0.960 . S
C1120 C1121 1.391 . S
C1120 C1122 1.394 1_556 S
C1120 H1136 0.931 . S
C1121 C1120 1.391 . S
C1121 C1125 1.376 . S
C1122 C1120 1.394 1_554 S
C1122 C1123 1.369 . S
C1122 C1126 1.531 . S
C1123 C1122 1.369 . S
C1123 C1124 1.410 . S
C1123 C1131 1.503 . S
C1124 C1123 1.410 . S
C1124 C1125 1.392 1_554 S
C1124 C1127 1.511 . S
C1125 C1121 1.376 . S
C1125 C1124 1.392 1_556 S
C1125 H1137 0.929 . S
C1126 C1122 1.531 . S
C1126 H1138 0.960 . S
C1126 H1139 0.962 1_545 S
C1126 H1140 0.960 . S
C1127 C1124 1.511 . S
C1127 H1141 0.961 . S
C1127 H1142 0.961 . S
C1127 H1143 0.961 . S
C1128 C1129 1.370 . S
C1128 C1130 1.363 . S
C1128 H1144 0.931 . S
C1129 C1128 1.370 . S
C1129 C1133 1.408 1_565 S
C1130 C1128 1.363 . S
C1130 C1131 1.370 1_565 S
C1130 C1134 1.524 . S
C1131 C1123 1.503 . S
C1131 C1130 1.370 1_545 S
C1131 C1132 1.403 . S
C1132 C1131 1.403 . S
C1132 C1133 1.404 . S
C1132 C1135 1.539 . S
C1133 C1129 1.408 1_545 S
C1133 C1132 1.404 . S
C1133 H1145 0.930 . S
C1134 C1130 1.524 . S
C1134 H1146 0.956 . S
C1134 H1147 0.961 . S
C1134 H1148 0.961 . S
C1135 C1132 1.539 . S
C1135 H1149 0.958 . S
C1135 H1150 0.961 . S
C1135 H1151 0.960 . S
H1136 C1120 0.931 . S
H1137 C1125 0.929 . S
H1138 C1126 0.960 . S
H1139 C1126 0.962 1_565 S
H1140 C1126 0.960 . S
H1141 C1127 0.961 . S
H1142 C1127 0.961 . S
H1143 C1127 0.961 . S
H1144 C1128 0.931 . S
H1145 C1133 0.930 . S
H1146 C1134 0.956 . S
H1147 C1134 0.961 . S
H1148 C1134 0.961 . S
H1149 C1135 0.958 . S
H1150 C1135 0.961 . S
H1151 C1135 0.960 . S
C1152 C1153 1.391 . S
C1152 C1154 1.394 . S
C1152 H1168 0.931 . S
C1153 C1152 1.391 . S
C1153 C1157 1.376 . S
C1154 C1152 1.394 . S
C1154 C1155 1.369 . S
C1154 C1158 1.531 . S
C1155 C1154 1.369 . S
C1155 C1156 1.410 . S
C1155 C1163 1.503 . S
C1156 C1155 1.410 . S
C1156 C1157 1.392 . S
C1156 C1159 1.511 . S
C1157 C1153 1.376 . S
C1157 C1156 1.392 . S
C1157 H1169 0.929 . S
C1158 C1154 1.531 . S
C1158 H1170 0.960 . S
C1158 H1171 0.962 . S
C1158 H1172 0.960 . S
C1159 C1156 1.511 . S
C1159 H1173 0.961 . S
C1159 H1174 0.961 . S
C1159 H1175 0.961 . S
C1160 C1161 1.370 . S
C1160 C1162 1.363 . S
C1160 H1176 0.931 . S
C1161 C1160 1.370 . S
C1161 C1165 1.408 . S
C1162 C1160 1.363 . S
C1162 C1163 1.370 . S
C1162 C1166 1.524 . S
C1163 C1155 1.503 . S
C1163 C1162 1.370 . S
C1163 C1164 1.403 . S
C1164 C1163 1.403 . S
C1164 C1165 1.404 . S
C1164 C1167 1.539 . S
C1165 C1161 1.408 . S
C1165 C1164 1.404 . S
C1165 H1177 0.930 . S
C1166 C1162 1.524 . S
C1166 H1178 0.956 . S
C1166 H1179 0.961 . S
C1166 H1180 0.961 . S
C1167 C1164 1.539 . S
C1167 H1181 0.958 . S
C1167 H1182 0.961 . S
C1167 H1183 0.960 . S
H1168 C1152 0.931 . S
H1169 C1157 0.929 . S
H1170 C1158 0.960 . S
H1171 C1158 0.962 . S
H1172 C1158 0.960 . S
H1173 C1159 0.961 . S
H1174 C1159 0.961 . S
H1175 C1159 0.961 . S
H1176 C1160 0.931 . S
H1177 C1165 0.930 . S
H1178 C1166 0.956 . S
H1179 C1166 0.961 . S
H1180 C1166 0.961 . S
H1181 C1167 0.958 . S
H1182 C1167 0.961 . S
H1183 C1167 0.960 . S
C1184 C1185 1.391 . S
C1184 C1186 1.394 . S
C1184 H1200 0.931 . S
C1185 C1184 1.391 . S
C1185 C1189 1.376 . S
C1186 C1184 1.394 . S
C1186 C1187 1.369 . S
C1186 C1190 1.531 1_545 S
C1187 C1186 1.369 . S
C1187 C1188 1.410 . S
C1187 C1195 1.503 . S
C1188 C1187 1.410 . S
C1188 C1189 1.392 . S
C1188 C1191 1.511 . S
C1189 C1185 1.376 . S
C1189 C1188 1.392 . S
C1189 H1201 0.929 . S
C1190 C1186 1.531 1_565 S
C1190 H1202 0.960 . S
C1190 H1203 0.962 . S
C1190 H1204 0.960 . S
C1191 C1188 1.511 . S
C1191 H1205 0.961 . S
C1191 H1206 0.961 . S
C1191 H1207 0.961 . S
C1192 C1193 1.370 . S
C1192 C1194 1.363 . S
C1192 H1208 0.931 . S
C1193 C1192 1.370 . S
C1193 C1197 1.408 . S
C1194 C1192 1.363 . S
C1194 C1195 1.370 1_565 S
C1194 C1198 1.524 . S
C1195 C1187 1.503 . S
C1195 C1194 1.370 1_545 S
C1195 C1196 1.403 . S
C1196 C1195 1.403 . S
C1196 C1197 1.404 1_545 S
C1196 C1199 1.539 . S
C1197 C1193 1.408 . S
C1197 C1196 1.404 1_565 S
C1197 H1209 0.930 1_565 S
C1198 C1194 1.524 . S
C1198 H1210 0.956 . S
C1198 H1211 0.961 . S
C1198 H1212 0.961 . S
C1199 C1196 1.539 . S
C1199 H1213 0.958 . S
C1199 H1214 0.961 . S
C1199 H1215 0.960 . S
H1200 C1184 0.931 . S
H1201 C1189 0.929 . S
H1202 C1190 0.960 . S
H1203 C1190 0.962 . S
H1204 C1190 0.960 . S
H1205 C1191 0.961 . S
H1206 C1191 0.961 . S
H1207 C1191 0.961 . S
H1208 C1192 0.931 . S
H1209 C1197 0.930 1_545 S
H1210 C1198 0.956 . S
H1211 C1198 0.961 . S
H1212 C1198 0.961 . S
H1213 C1199 0.958 . S
H1214 C1199 0.961 . S
H1215 C1199 0.960 . S
C1216 C1217 1.391 . S
C1216 C1218 1.394 . S
C1216 H1232 0.931 . S
C1217 C1216 1.391 . S
C1217 C1221 1.376 . S
C1218 C1216 1.394 . S
C1218 C1219 1.369 . S
C1218 C1222 1.531 . S
C1219 C1218 1.369 . S
C1219 C1220 1.410 . S
C1219 C1227 1.503 . S
C1220 C1219 1.410 . S
C1220 C1221 1.392 . S
C1220 C1223 1.511 . S
C1221 C1217 1.376 . S
C1221 C1220 1.392 . S
C1221 H1233 0.929 . S
C1222 C1218 1.531 . S
C1222 H1234 0.960 . S
C1222 H1235 0.962 . S
C1222 H1236 0.960 . S
C1223 C1220 1.511 . S
C1223 H1237 0.961 . S
C1223 H1238 0.961 . S
C1223 H1239 0.961 . S
C1224 C1225 1.370 . S
C1224 C1226 1.363 . S
C1224 H1240 0.931 . S
C1225 C1224 1.370 . S
C1225 C1229 1.408 . S
C1226 C1224 1.363 . S
C1226 C1227 1.370 . S
C1226 C1230 1.524 . S
C1227 C1219 1.503 . S
C1227 C1226 1.370 . S
C1227 C1228 1.403 . S
C1228 C1227 1.403 . S
C1228 C1229 1.404 . S
C1228 C1231 1.539 . S
C1229 C1225 1.408 . S
C1229 C1228 1.404 . S
C1229 H1241 0.930 . S
C1230 C1226 1.524 . S
C1230 H1242 0.956 . S
C1230 H1243 0.961 . S
C1230 H1244 0.961 . S
C1231 C1228 1.539 . S
C1231 H1245 0.958 . S
C1231 H1246 0.961 . S
C1231 H1247 0.960 . S
H1232 C1216 0.931 . S
H1233 C1221 0.929 . S
H1234 C1222 0.960 . S
H1235 C1222 0.962 . S
H1236 C1222 0.960 . S
H1237 C1223 0.961 . S
H1238 C1223 0.961 . S
H1239 C1223 0.961 . S
H1240 C1224 0.931 . S
H1241 C1229 0.930 . S
H1242 C1230 0.956 . S
H1243 C1230 0.961 . S
H1244 C1230 0.961 . S
H1245 C1231 0.958 . S
H1246 C1231 0.961 . S
H1247 C1231 0.960 . S
C1248 C1249 1.391 . S
C1248 C1250 1.394 . S
C1248 H1264 0.931 . S
C1249 C1248 1.391 . S
C1249 C1253 1.376 . S
C1250 C1248 1.394 . S
C1250 C1251 1.369 . S
C1250 C1254 1.531 . S
C1251 C1250 1.369 . S
C1251 C1252 1.410 . S
C1251 C1259 1.503 . S
C1252 C1251 1.410 . S
C1252 C1253 1.392 . S
C1252 C1255 1.511 . S
C1253 C1249 1.376 . S
C1253 C1252 1.392 . S
C1253 H1265 0.929 . S
C1254 C1250 1.531 . S
C1254 H1266 0.960 . S
C1254 H1267 0.962 . S
C1254 H1268 0.960 . S
C1255 C1252 1.511 . S
C1255 H1269 0.961 . S
C1255 H1270 0.961 . S
C1255 H1271 0.961 . S
C1256 C1257 1.370 . S
C1256 C1258 1.363 . S
C1256 H1272 0.931 . S
C1257 C1256 1.370 . S
C1257 C1261 1.408 . S
C1258 C1256 1.363 . S
C1258 C1259 1.370 . S
C1258 C1262 1.524 . S
C1259 C1251 1.503 . S
C1259 C1258 1.370 . S
C1259 C1260 1.403 . S
C1260 C1259 1.403 . S
C1260 C1261 1.404 . S
C1260 C1263 1.539 . S
C1261 C1257 1.408 . S
C1261 C1260 1.404 . S
C1261 H1273 0.930 . S
C1262 C1258 1.524 . S
C1262 H1274 0.956 . S
C1262 H1275 0.961 . S
C1262 H1276 0.961 . S
C1263 C1260 1.539 . S
C1263 H1277 0.958 . S
C1263 H1278 0.961 . S
C1263 H1279 0.960 . S
H1264 C1248 0.931 . S
H1265 C1253 0.929 . S
H1266 C1254 0.960 . S
H1267 C1254 0.962 . S
H1268 C1254 0.960 . S
H1269 C1255 0.961 . S
H1270 C1255 0.961 . S
H1271 C1255 0.961 . S
H1272 C1256 0.931 . S
H1273 C1261 0.930 . S
H1274 C1262 0.956 . S
H1275 C1262 0.961 . S
H1276 C1262 0.961 . S
H1277 C1263 0.958 . S
H1278 C1263 0.961 . S
H1279 C1263 0.960 . S
C1280 C1281 1.391 . S
C1280 C1282 1.394 . S
C1280 H1296 0.931 . S
C1281 C1280 1.391 . S
C1281 C1285 1.376 . S
C1282 C1280 1.394 . S
C1282 C1283 1.369 . S
C1282 C1286 1.531 . S
C1283 C1282 1.369 . S
C1283 C1284 1.410 . S
C1283 C1291 1.503 . S
C1284 C1283 1.410 . S
C1284 C1285 1.392 . S
C1284 C1287 1.511 . S
C1285 C1281 1.376 . S
C1285 C1284 1.392 . S
C1285 H1297 0.929 . S
C1286 C1282 1.531 . S
C1286 H1298 0.960 . S
C1286 H1299 0.962 . S
C1286 H1300 0.960 . S
C1287 C1284 1.511 . S
C1287 H1301 0.961 . S
C1287 H1302 0.961 . S
C1287 H1303 0.961 . S
C1288 C1289 1.370 . S
C1288 C1290 1.363 . S
C1288 H1304 0.931 . S
C1289 C1288 1.370 . S
C1289 C1293 1.408 . S
C1290 C1288 1.363 . S
C1290 C1291 1.370 . S
C1290 C1294 1.524 . S
C1291 C1283 1.503 . S
C1291 C1290 1.370 . S
C1291 C1292 1.403 . S
C1292 C1291 1.403 . S
C1292 C1293 1.404 . S
C1292 C1295 1.539 . S
C1293 C1289 1.408 . S
C1293 C1292 1.404 . S
C1293 H1305 0.930 . S
C1294 C1290 1.524 . S
C1294 H1306 0.956 . S
C1294 H1307 0.961 . S
C1294 H1308 0.961 . S
C1295 C1292 1.539 . S
C1295 H1309 0.958 . S
C1295 H1310 0.961 . S
C1295 H1311 0.960 . S
H1296 C1280 0.931 . S
H1297 C1285 0.929 . S
H1298 C1286 0.960 . S
H1299 C1286 0.962 . S
H1300 C1286 0.960 . S
H1301 C1287 0.961 . S
H1302 C1287 0.961 . S
H1303 C1287 0.961 . S
H1304 C1288 0.931 . S
H1305 C1293 0.930 . S
H1306 C1294 0.956 . S
H1307 C1294 0.961 . S
H1308 C1294 0.961 . S
H1309 C1295 0.958 . S
H1310 C1295 0.961 . S
H1311 C1295 0.960 . S
C1312 C1313 1.391 . S
C1312 C1314 1.394 . S
C1312 H1328 0.931 . S
C1313 C1312 1.391 . S
C1313 C1317 1.376 . S
C1314 C1312 1.394 . S
C1314 C1315 1.369 . S
C1314 C1318 1.531 . S
C1315 C1314 1.369 . S
C1315 C1316 1.410 . S
C1315 C1323 1.503 . S
C1316 C1315 1.410 . S
C1316 C1317 1.392 . S
C1316 C1319 1.511 . S
C1317 C1313 1.376 . S
C1317 C1316 1.392 . S
C1317 H1329 0.929 . S
C1318 C1314 1.531 . S
C1318 H1330 0.960 . S
C1318 H1331 0.962 . S
C1318 H1332 0.960 . S
C1319 C1316 1.511 . S
C1319 H1333 0.961 . S
C1319 H1334 0.961 . S
C1319 H1335 0.961 . S
C1320 C1321 1.370 . S
C1320 C1322 1.363 1_556 S
C1320 H1336 0.931 . S
C1321 C1320 1.370 . S
C1321 C1325 1.408 . S
C1322 C1320 1.363 1_554 S
C1322 C1323 1.370 . S
C1322 C1326 1.524 . S
C1323 C1315 1.503 . S
C1323 C1322 1.370 . S
C1323 C1324 1.403 . S
C1324 C1323 1.403 . S
C1324 C1325 1.404 1_554 S
C1324 C1327 1.539 . S
C1325 C1321 1.408 . S
C1325 C1324 1.404 1_556 S
C1325 H1337 0.930 . S
C1326 C1322 1.524 . S
C1326 H1338 0.956 . S
C1326 H1339 0.961 . S
C1326 H1340 0.961 . S
C1327 C1324 1.539 . S
C1327 H1341 0.958 . S
C1327 H1342 0.961 . S
C1327 H1343 0.960 . S
H1328 C1312 0.931 . S
H1329 C1317 0.929 . S
H1330 C1318 0.960 . S
H1331 C1318 0.962 . S
H1332 C1318 0.960 . S
H1333 C1319 0.961 . S
H1334 C1319 0.961 . S
H1335 C1319 0.961 . S
H1336 C1320 0.931 . S
H1337 C1325 0.930 . S
H1338 C1326 0.956 . S
H1339 C1326 0.961 . S
H1340 C1326 0.961 . S
H1341 C1327 0.958 . S
H1342 C1327 0.961 . S
H1343 C1327 0.960 . S
C1344 C1345 1.391 . S
C1344 C1346 1.394 . S
C1344 H1360 0.931 . S
C1345 C1344 1.391 . S
C1345 C1349 1.376 . S
C1346 C1344 1.394 . S
C1346 C1347 1.369 . S
C1346 C1350 1.531 . S
C1347 C1346 1.369 . S
C1347 C1348 1.410 . S
C1347 C1355 1.503 . S
C1348 C1347 1.410 . S
C1348 C1349 1.392 . S
C1348 C1351 1.511 . S
C1349 C1345 1.376 . S
C1349 C1348 1.392 . S
C1349 H1361 0.929 . S
C1350 C1346 1.531 . S
C1350 H1362 0.960 . S
C1350 H1363 0.962 . S
C1350 H1364 0.960 . S
C1351 C1348 1.511 . S
C1351 H1365 0.961 . S
C1351 H1366 0.961 . S
C1351 H1367 0.961 . S
C1352 C1353 1.370 . S
C1352 C1354 1.363 . S
C1352 H1368 0.931 . S
C1353 C1352 1.370 . S
C1353 C1357 1.408 . S
C1354 C1352 1.363 . S
C1354 C1355 1.370 . S
C1354 C1358 1.524 . S
C1355 C1347 1.503 . S
C1355 C1354 1.370 . S
C1355 C1356 1.403 . S
C1356 C1355 1.403 . S
C1356 C1357 1.404 . S
C1356 C1359 1.539 . S
C1357 C1353 1.408 . S
C1357 C1356 1.404 . S
C1357 H1369 0.930 . S
C1358 C1354 1.524 . S
C1358 H1370 0.956 . S
C1358 H1371 0.961 . S
C1358 H1372 0.961 . S
C1359 C1356 1.539 . S
C1359 H1373 0.958 . S
C1359 H1374 0.961 . S
C1359 H1375 0.960 . S
H1360 C1344 0.931 . S
H1361 C1349 0.929 . S
H1362 C1350 0.960 . S
H1363 C1350 0.962 . S
H1364 C1350 0.960 . S
H1365 C1351 0.961 . S
H1366 C1351 0.961 . S
H1367 C1351 0.961 . S
H1368 C1352 0.931 . S
H1369 C1357 0.930 . S
H1370 C1358 0.956 . S
H1371 C1358 0.961 . S
H1372 C1358 0.961 . S
H1373 C1359 0.958 . S
H1374 C1359 0.961 . S
H1375 C1359 0.960 . S
C1376 C1377 1.391 . S
C1376 C1378 1.394 . S
C1376 H1392 0.931 . S
C1377 C1376 1.391 . S
C1377 C1381 1.376 . S
C1378 C1376 1.394 . S
C1378 C1379 1.369 . S
C1378 C1382 1.531 . S
C1379 C1378 1.369 . S
C1379 C1380 1.410 . S
C1379 C1387 1.503 . S
C1380 C1379 1.410 . S
C1380 C1381 1.392 . S
C1380 C1383 1.511 . S
C1381 C1377 1.376 . S
C1381 C1380 1.392 . S
C1381 H1393 0.929 . S
C1382 C1378 1.531 . S
C1382 H1394 0.960 . S
C1382 H1395 0.962 . S
C1382 H1396 0.960 . S
C1383 C1380 1.511 . S
C1383 H1397 0.961 . S
C1383 H1398 0.961 . S
C1383 H1399 0.961 . S
C1384 C1385 1.370 . S
C1384 C1386 1.363 . S
C1384 H1400 0.931 . S
C1385 C1384 1.370 . S
C1385 C1389 1.408 . S
C1386 C1384 1.363 . S
C1386 C1387 1.370 . S
C1386 C1390 1.524 . S
C1387 C1379 1.503 . S
C1387 C1386 1.370 . S
C1387 C1388 1.403 . S
C1388 C1387 1.403 . S
C1388 C1389 1.404 . S
C1388 C1391 1.539 . S
C1389 C1385 1.408 . S
C1389 C1388 1.404 . S
C1389 H1401 0.930 . S
C1390 C1386 1.524 . S
C1390 H1402 0.956 . S
C1390 H1403 0.961 . S
C1390 H1404 0.961 . S
C1391 C1388 1.539 . S
C1391 H1405 0.958 . S
C1391 H1406 0.961 . S
C1391 H1407 0.960 . S
H1392 C1376 0.931 . S
H1393 C1381 0.929 . S
H1394 C1382 0.960 . S
H1395 C1382 0.962 . S
H1396 C1382 0.960 . S
H1397 C1383 0.961 . S
H1398 C1383 0.961 . S
H1399 C1383 0.961 . S
H1400 C1384 0.931 . S
H1401 C1389 0.930 . S
H1402 C1390 0.956 . S
H1403 C1390 0.961 . S
H1404 C1390 0.961 . S
H1405 C1391 0.958 . S
H1406 C1391 0.961 . S
H1407 C1391 0.960 . S
C1408 C1409 1.391 . S
C1408 C1410 1.394 . S
C1408 H1424 0.931 . S
C1409 C1408 1.391 . S
C1409 C1413 1.376 . S
C1410 C1408 1.394 . S
C1410 C1411 1.369 . S
C1410 C1414 1.531 . S
C1411 C1410 1.369 . S
C1411 C1412 1.410 . S
C1411 C1419 1.503 . S
C1412 C1411 1.410 . S
C1412 C1413 1.392 . S
C1412 C1415 1.511 . S
C1413 C1409 1.376 . S
C1413 C1412 1.392 . S
C1413 H1425 0.929 . S
C1414 C1410 1.531 . S
C1414 H1426 0.960 . S
C1414 H1427 0.962 . S
C1414 H1428 0.960 . S
C1415 C1412 1.511 . S
C1415 H1429 0.961 . S
C1415 H1430 0.961 . S
C1415 H1431 0.961 . S
C1416 C1417 1.370 . S
C1416 C1418 1.363 . S
C1416 H1432 0.931 . S
C1417 C1416 1.370 . S
C1417 C1421 1.408 . S
C1418 C1416 1.363 . S
C1418 C1419 1.370 . S
C1418 C1422 1.524 . S
C1419 C1411 1.503 . S
C1419 C1418 1.370 . S
C1419 C1420 1.403 . S
C1420 C1419 1.403 . S
C1420 C1421 1.404 . S
C1420 C1423 1.539 . S
C1421 C1417 1.408 . S
C1421 C1420 1.404 . S
C1421 H1433 0.930 . S
C1422 C1418 1.524 . S
C1422 H1434 0.956 . S
C1422 H1435 0.961 . S
C1422 H1436 0.961 . S
C1423 C1420 1.539 . S
C1423 H1437 0.958 . S
C1423 H1438 0.961 . S
C1423 H1439 0.960 . S
H1424 C1408 0.931 . S
H1425 C1413 0.929 . S
H1426 C1414 0.960 . S
H1427 C1414 0.962 . S
H1428 C1414 0.960 . S
H1429 C1415 0.961 . S
H1430 C1415 0.961 . S
H1431 C1415 0.961 . S
H1432 C1416 0.931 . S
H1433 C1421 0.930 . S
H1434 C1422 0.956 . S
H1435 C1422 0.961 . S
H1436 C1422 0.961 . S
H1437 C1423 0.958 . S
H1438 C1423 0.961 . S
H1439 C1423 0.960 . S
C1440 C1441 1.391 . S
C1440 C1442 1.394 . S
C1440 H1456 0.931 . S
C1441 C1440 1.391 . S
C1441 C1445 1.376 . S
C1442 C1440 1.394 . S
C1442 C1443 1.369 . S
C1442 C1446 1.531 . S
C1443 C1442 1.369 . S
C1443 C1444 1.410 . S
C1443 C1451 1.503 . S
C1444 C1443 1.410 . S
C1444 C1445 1.392 . S
C1444 C1447 1.511 . S
C1445 C1441 1.376 . S
C1445 C1444 1.392 . S
C1445 H1457 0.929 . S
C1446 C1442 1.531 . S
C1446 H1458 0.960 . S
C1446 H1459 0.962 . S
C1446 H1460 0.960 . S
C1447 C1444 1.511 . S
C1447 H1461 0.961 . S
C1447 H1462 0.961 . S
C1447 H1463 0.961 . S
C1448 C1449 1.370 . S
C1448 C1450 1.363 1_556 S
C1448 H1464 0.931 . S
C1449 C1448 1.370 . S
C1449 C1453 1.408 . S
C1450 C1448 1.363 1_554 S
C1450 C1451 1.370 . S
C1450 C1454 1.524 . S
C1451 C1443 1.503 . S
C1451 C1450 1.370 . S
C1451 C1452 1.403 . S
C1452 C1451 1.403 . S
C1452 C1453 1.404 1_554 S
C1452 C1455 1.539 . S
C1453 C1449 1.408 . S
C1453 C1452 1.404 1_556 S
C1453 H1465 0.930 . S
C1454 C1450 1.524 . S
C1454 H1466 0.956 . S
C1454 H1467 0.961 . S
C1454 H1468 0.961 . S
C1455 C1452 1.539 . S
C1455 H1469 0.958 . S
C1455 H1470 0.972 . S
C1455 H1471 0.960 . S
H1456 C1440 0.931 . S
H1457 C1445 0.929 . S
H1458 C1446 0.960 . S
H1459 C1446 0.962 . S
H1460 C1446 0.960 . S
H1461 C1447 0.961 . S
H1462 C1447 0.961 . S
H1463 C1447 0.961 . S
H1464 C1448 0.931 . S
H1465 C1453 0.930 . S
H1466 C1454 0.956 . S
H1467 C1454 0.961 . S
H1468 C1454 0.961 . S
H1469 C1455 0.958 . S
H1470 C1455 0.972 . S
H1471 C1455 0.960 . S
C1472 C1473 1.391 . S
C1472 C1474 1.394 . S
C1472 H1488 0.931 . S
C1473 C1472 1.391 . S
C1473 C1477 1.376 . S
C1474 C1472 1.394 . S
C1474 C1475 1.369 . S
C1474 C1478 1.531 . S
C1475 C1474 1.369 . S
C1475 C1476 1.410 . S
C1475 C1483 1.503 . S
C1476 C1475 1.410 . S
C1476 C1477 1.392 . S
C1476 C1479 1.511 1_554 S
C1477 C1473 1.376 . S
C1477 C1476 1.392 . S
C1477 H1489 0.929 1_554 S
C1478 C1474 1.531 . S
C1478 H1490 0.960 . S
C1478 H1491 0.962 . S
C1478 H1492 0.960 . S
C1479 C1476 1.511 1_556 S
C1479 H1493 0.961 . S
C1479 H1494 0.961 . S
C1479 H1495 0.961 . S
C1480 C1481 1.370 . S
C1480 C1482 1.363 . S
C1480 H1496 0.931 . S
C1481 C1480 1.370 . S
C1481 C1485 1.408 . S
C1482 C1480 1.363 . S
C1482 C1483 1.370 . S
C1482 C1486 1.524 . S
C1483 C1475 1.503 . S
C1483 C1482 1.370 . S
C1483 C1484 1.403 . S
C1484 C1483 1.403 . S
C1484 C1485 1.404 . S
C1484 C1487 1.539 1_554 S
C1485 C1481 1.408 . S
C1485 C1484 1.404 . S
C1485 H1497 0.930 . S
C1486 C1482 1.524 . S
C1486 H1498 0.956 . S
C1486 H1499 0.961 . S
C1486 H1500 0.961 . S
C1487 C1484 1.539 1_556 S
C1487 H1501 0.958 1_556 S
C1487 H1502 0.961 . S
C1487 H1503 0.960 . S
H1488 C1472 0.931 . S
H1489 C1477 0.929 1_556 S
H1490 C1478 0.960 . S
H1491 C1478 0.962 . S
H1492 C1478 0.960 . S
H1493 C1479 0.961 . S
H1494 C1479 0.961 . S
H1495 C1479 0.961 . S
H1496 C1480 0.931 . S
H1497 C1485 0.930 . S
H1498 C1486 0.956 . S
H1499 C1486 0.961 . S
H1500 C1486 0.961 . S
H1501 C1487 0.958 1_554 S
H1502 C1487 0.961 . S
H1503 C1487 0.960 . S
C1504 C1505 1.391 . S
C1504 C1506 1.394 . S
C1504 H1520 0.931 . S
C1505 C1504 1.391 . S
C1505 C1509 1.376 . S
C1506 C1504 1.394 . S
C1506 C1507 1.369 . S
C1506 C1510 1.531 . S
C1507 C1506 1.369 . S
C1507 C1508 1.410 . S
C1507 C1515 1.503 1_455 S
C1508 C1507 1.410 . S
C1508 C1509 1.392 . S
C1508 C1511 1.511 . S
C1509 C1505 1.376 . S
C1509 C1508 1.392 . S
C1509 H1521 0.929 . S
C1510 C1506 1.531 . S
C1510 H1522 0.960 1_455 S
C1510 H1523 0.962 . S
C1510 H1524 0.960 . S
C1511 C1508 1.511 . S
C1511 H1525 0.961 . S
C1511 H1526 0.961 1_455 S
C1511 H1527 0.961 . S
C1512 C1513 1.370 . S
C1512 C1514 1.363 . S
C1512 H1528 0.931 . S
C1513 C1512 1.370 . S
C1513 C1517 1.408 . S
C1514 C1512 1.363 . S
C1514 C1515 1.370 . S
C1514 C1518 1.524 . S
C1515 C1507 1.503 1_655 S
C1515 C1514 1.370 . S
C1515 C1516 1.403 . S
C1516 C1515 1.403 . S
C1516 C1517 1.404 . S
C1516 C1519 1.539 . S
C1517 C1513 1.408 . S
C1517 C1516 1.404 . S
C1517 H1529 0.930 . S
C1518 C1514 1.524 . S
C1518 H1530 0.983 . S
C1518 H1531 0.918 1_655 S
C1518 H1532 0.961 . S
C1519 C1516 1.539 . S
C1519 H1533 0.958 . S
C1519 H1534 0.961 1_565 S
C1519 H1535 0.968 . S
H1520 C1504 0.931 . S
H1521 C1509 0.929 . S
H1522 C1510 0.960 1_655 S
H1523 C1510 0.962 . S
H1524 C1510 0.960 . S
H1525 C1511 0.961 . S
H1526 C1511 0.961 1_655 S
H1527 C1511 0.961 . S
H1528 C1512 0.931 . S
H1529 C1517 0.930 . S
H1530 C1518 0.983 . S
H1531 C1518 0.918 1_455 S
H1532 C1518 0.961 . S
H1533 C1519 0.958 . S
H1534 C1519 0.961 1_545 S
H1535 C1519 0.968 . S
C1536 C1537 1.391 . S
C1536 C1538 1.394 . S
C1536 H1552 0.931 . S
C1537 C1536 1.391 . S
C1537 C1541 1.376 . S
C1538 C1536 1.394 . S
C1538 C1539 1.369 . S
C1538 C1542 1.531 . S
C1539 C1538 1.369 . S
C1539 C1540 1.410 . S
C1539 C1547 1.503 . S
C1540 C1539 1.410 . S
C1540 C1541 1.392 . S
C1540 C1543 1.511 . S
C1541 C1537 1.376 . S
C1541 C1540 1.392 . S
C1541 H1553 0.929 . S
C1542 C1538 1.531 . S
C1542 H1554 0.960 . S
C1542 H1555 0.962 . S
C1542 H1556 0.960 . S
C1543 C1540 1.511 . S
C1543 H1557 0.961 . S
C1543 H1558 0.961 . S
C1543 H1559 0.961 . S
C1544 C1545 1.370 . S
C1544 C1546 1.363 . S
C1544 H1560 0.931 . S
C1545 C1544 1.370 . S
C1545 C1549 1.408 . S
C1546 C1544 1.363 . S
C1546 C1547 1.370 . S
C1546 C1550 1.524 . S
C1547 C1539 1.503 . S
C1547 C1546 1.370 . S
C1547 C1548 1.403 . S
C1548 C1547 1.403 . S
C1548 C1549 1.404 . S
C1548 C1551 1.539 . S
C1549 C1545 1.408 . S
C1549 C1548 1.404 . S
C1549 H1561 0.930 . S
C1550 C1546 1.524 . S
C1550 H1562 0.956 . S
C1550 H1563 0.961 . S
C1550 H1564 0.961 . S
C1551 C1548 1.539 . S
C1551 H1565 0.958 . S
C1551 H1566 0.961 . S
C1551 H1567 0.960 . S
H1552 C1536 0.931 . S
H1553 C1541 0.929 . S
H1554 C1542 0.960 . S
H1555 C1542 0.962 . S
H1556 C1542 0.960 . S
H1557 C1543 0.961 . S
H1558 C1543 0.961 . S
H1559 C1543 0.961 . S
H1560 C1544 0.931 . S
H1561 C1549 0.930 . S
H1562 C1550 0.956 . S
H1563 C1550 0.961 . S
H1564 C1550 0.961 . S
H1565 C1551 0.958 . S
H1566 C1551 0.961 . S
H1567 C1551 0.960 . S
C1568 C1569 1.391 . S
C1568 C1570 1.394 . S
C1568 H1584 0.931 . S
C1569 C1568 1.391 . S
C1569 C1573 1.376 . S
C1570 C1568 1.394 . S
C1570 C1571 1.369 . S
C1570 C1574 1.531 . S
C1571 C1570 1.369 . S
C1571 C1572 1.410 . S
C1571 C1579 1.503 . S
C1572 C1571 1.410 . S
C1572 C1573 1.392 . S
C1572 C1575 1.511 . S
C1573 C1569 1.376 . S
C1573 C1572 1.392 . S
C1573 H1585 0.929 . S
C1574 C1570 1.531 . S
C1574 H1586 0.960 . S
C1574 H1587 0.962 . S
C1574 H1588 0.960 . S
C1575 C1572 1.511 . S
C1575 H1589 0.961 . S
C1575 H1590 0.961 . S
C1575 H1591 0.961 . S
C1576 C1577 1.370 . S
C1576 C1578 1.363 . S
C1576 H1592 0.931 . S
C1577 C1576 1.370 . S
C1577 C1581 1.408 . S
C1578 C1576 1.363 . S
C1578 C1579 1.370 . S
C1578 C1582 1.524 . S
C1579 C1571 1.503 . S
C1579 C1578 1.370 . S
C1579 C1580 1.403 . S
C1580 C1579 1.403 . S
C1580 C1581 1.404 . S
C1580 C1583 1.539 . S
C1581 C1577 1.408 . S
C1581 C1580 1.404 . S
C1581 H1593 0.930 . S
C1582 C1578 1.524 . S
C1582 H1594 0.956 . S
C1582 H1595 0.961 . S
C1582 H1596 0.961 . S
C1583 C1580 1.539 . S
C1583 H1597 0.958 . S
C1583 H1598 0.961 . S
C1583 H1599 0.960 . S
H1584 C1568 0.931 . S
H1585 C1573 0.929 . S
H1586 C1574 0.960 . S
H1587 C1574 0.962 . S
H1588 C1574 0.960 . S
H1589 C1575 0.961 . S
H1590 C1575 0.961 . S
H1591 C1575 0.961 . S
H1592 C1576 0.931 . S
H1593 C1581 0.930 . S
H1594 C1582 0.956 . S
H1595 C1582 0.961 . S
H1596 C1582 0.961 . S
H1597 C1583 0.958 . S
H1598 C1583 0.961 . S
H1599 C1583 0.960 . S
C1600 C1601 1.391 . S
C1600 C1602 1.394 . S
C1600 H1616 0.931 . S
C1601 C1600 1.391 . S
C1601 C1605 1.376 . S
C1602 C1600 1.394 . S
C1602 C1603 1.369 . S
C1602 C1606 1.531 . S
C1603 C1602 1.369 . S
C1603 C1604 1.410 . S
C1603 C1611 1.503 . S
C1604 C1603 1.410 . S
C1604 C1605 1.392 . S
C1604 C1607 1.511 . S
C1605 C1601 1.376 . S
C1605 C1604 1.392 . S
C1605 H1617 0.929 . S
C1606 C1602 1.531 . S
C1606 H1618 0.960 . S
C1606 H1619 0.962 . S
C1606 H1620 0.960 1_554 S
C1607 C1604 1.511 . S
C1607 H1621 0.961 . S
C1607 H1622 0.961 . S
C1607 H1623 0.961 . S
C1608 C1609 1.370 . S
C1608 C1610 1.363 . S
C1608 H1624 0.931 . S
C1609 C1608 1.370 . S
C1609 C1613 1.408 . S
C1610 C1608 1.363 . S
C1610 C1611 1.370 . S
C1610 C1614 1.524 . S
C1611 C1603 1.503 . S
C1611 C1610 1.370 . S
C1611 C1612 1.403 . S
C1612 C1611 1.403 . S
C1612 C1613 1.404 . S
C1612 C1615 1.539 . S
C1613 C1609 1.408 . S
C1613 C1612 1.404 . S
C1613 H1625 0.930 . S
C1614 C1610 1.524 . S
C1614 H1626 0.956 . S
C1614 H1627 0.961 . S
C1614 H1628 0.961 . S
C1615 C1612 1.539 . S
C1615 H1629 0.958 1_554 S
C1615 H1630 0.961 . S
C1615 H1631 0.960 . S
H1616 C1600 0.931 . S
H1617 C1605 0.929 . S
H1618 C1606 0.960 . S
H1619 C1606 0.962 . S
H1620 C1606 0.960 1_556 S
H1621 C1607 0.961 . S
H1622 C1607 0.961 . S
H1623 C1607 0.961 . S
H1624 C1608 0.931 . S
H1625 C1613 0.930 . S
H1626 C1614 0.956 . S
H1627 C1614 0.961 . S
H1628 C1614 0.961 . S
H1629 C1615 0.958 1_556 S
H1630 C1615 0.961 . S
H1631 C1615 0.960 . S
C1632 C1633 1.391 . S
C1632 C1634 1.394 . S
C1632 H1648 0.931 . S
C1633 C1632 1.391 . S
C1633 C1637 1.376 . S
C1634 C1632 1.394 . S
C1634 C1635 1.369 . S
C1634 C1638 1.531 . S
C1635 C1634 1.369 . S
C1635 C1636 1.410 . S
C1635 C1643 1.503 . S
C1636 C1635 1.410 . S
C1636 C1637 1.392 . S
C1636 C1639 1.511 . S
C1637 C1633 1.376 . S
C1637 C1636 1.392 . S
C1637 H1649 0.929 . S
C1638 C1634 1.531 . S
C1638 H1650 0.960 . S
C1638 H1651 0.962 . S
C1638 H1652 0.960 1_565 S
C1639 C1636 1.511 . S
C1639 H1653 0.961 . S
C1639 H1654 0.961 . S
C1639 H1655 0.961 . S
C1640 C1641 1.370 . S
C1640 C1642 1.363 . S
C1640 H1656 0.931 . S
C1641 C1640 1.370 . S
C1641 C1645 1.408 . S
C1642 C1640 1.363 . S
C1642 C1643 1.370 . S
C1642 C1646 1.524 . S
C1643 C1635 1.503 . S
C1643 C1642 1.370 . S
C1643 C1644 1.403 . S
C1644 C1643 1.403 . S
C1644 C1645 1.404 . S
C1644 C1647 1.539 . S
C1645 C1641 1.408 . S
C1645 C1644 1.404 . S
C1645 H1657 0.930 . S
C1646 C1642 1.524 . S
C1646 H1658 0.956 . S
C1646 H1659 0.961 . S
C1646 H1660 0.961 . S
C1647 C1644 1.539 . S
C1647 H1661 0.958 . S
C1647 H1662 0.961 . S
C1647 H1663 0.960 . S
H1648 C1632 0.931 . S
H1649 C1637 0.929 . S
H1650 C1638 0.960 . S
H1651 C1638 0.962 . S
H1652 C1638 0.960 1_545 S
H1653 C1639 0.961 . S
H1654 C1639 0.961 . S
H1655 C1639 0.961 . S
H1656 C1640 0.931 . S
H1657 C1645 0.930 . S
H1658 C1646 0.956 . S
H1659 C1646 0.961 . S
H1660 C1646 0.961 . S
H1661 C1647 0.958 . S
H1662 C1647 0.961 . S
H1663 C1647 0.960 . S
C1664 C1665 1.391 . S
C1664 C1666 1.394 . S
C1664 H1680 0.931 . S
C1665 C1664 1.391 . S
C1665 C1669 1.376 . S
C1666 C1664 1.394 . S
C1666 C1667 1.369 . S
C1666 C1670 1.531 . S
C1667 C1666 1.369 . S
C1667 C1668 1.410 . S
C1667 C1675 1.503 . S
C1668 C1667 1.410 . S
C1668 C1669 1.392 . S
C1668 C1671 1.511 . S
C1669 C1665 1.376 . S
C1669 C1668 1.392 . S
C1669 H1681 0.929 . S
C1670 C1666 1.531 . S
C1670 H1682 0.960 . S
C1670 H1683 0.962 . S
C1670 H1684 0.960 . S
C1671 C1668 1.511 . S
C1671 H1685 0.961 . S
C1671 H1686 0.961 . S
C1671 H1687 0.961 . S
C1672 C1673 1.370 . S
C1672 C1674 1.363 . S
C1672 H1688 0.931 . S
C1673 C1672 1.370 . S
C1673 C1677 1.408 . S
C1674 C1672 1.363 . S
C1674 C1675 1.370 . S
C1674 C1678 1.524 . S
C1675 C1667 1.503 . S
C1675 C1674 1.370 . S
C1675 C1676 1.403 . S
C1676 C1675 1.403 . S
C1676 C1677 1.404 . S
C1676 C1679 1.539 . S
C1677 C1673 1.408 . S
C1677 C1676 1.404 . S
C1677 H1689 0.930 . S
C1678 C1674 1.524 . S
C1678 H1690 0.956 . S
C1678 H1691 0.961 . S
C1678 H1692 0.961 . S
C1679 C1676 1.539 . S
C1679 H1693 0.958 . S
C1679 H1694 0.961 . S
C1679 H1695 0.960 . S
H1680 C1664 0.931 . S
H1681 C1669 0.929 . S
H1682 C1670 0.960 . S
H1683 C1670 0.962 . S
H1684 C1670 0.960 . S
H1685 C1671 0.961 . S
H1686 C1671 0.961 . S
H1687 C1671 0.961 . S
H1688 C1672 0.931 . S
H1689 C1677 0.930 . S
H1690 C1678 0.956 . S
H1691 C1678 0.961 . S
H1692 C1678 0.961 . S
H1693 C1679 0.958 . S
H1694 C1679 0.961 . S
H1695 C1679 0.960 . S
C1696 C1697 1.391 . S
C1696 C1698 1.394 . S
C1696 H1712 0.931 . S
C1697 C1696 1.391 . S
C1697 C1701 1.376 . S
C1698 C1696 1.394 . S
C1698 C1699 1.369 . S
C1698 C1702 1.531 . S
C1699 C1698 1.369 . S
C1699 C1700 1.410 . S
C1699 C1707 1.503 1_655 S
C1700 C1699 1.410 . S
C1700 C1701 1.392 . S
C1700 C1703 1.511 . S
C1701 C1697 1.376 . S
C1701 C1700 1.392 . S
C1701 H1713 0.929 . S
C1702 C1698 1.531 . S
C1702 H1714 0.960 1_655 S
C1702 H1715 0.962 . S
C1702 H1716 0.960 . S
C1703 C1700 1.511 . S
C1703 H1717 0.961 . S
C1703 H1718 0.961 1_655 S
C1703 H1719 0.961 . S
C1704 C1705 1.370 . S
C1704 C1706 1.363 . S
C1704 H1720 0.931 . S
C1705 C1704 1.370 . S
C1705 C1709 1.408 . S
C1706 C1704 1.363 . S
C1706 C1707 1.370 . S
C1706 C1710 1.524 . S
C1707 C1699 1.503 1_455 S
C1707 C1706 1.370 . S
C1707 C1708 1.403 . S
C1708 C1707 1.403 . S
C1708 C1709 1.404 . S
C1708 C1711 1.539 . S
C1709 C1705 1.408 . S
C1709 C1708 1.404 . S
C1709 H1721 0.930 . S
C1710 C1706 1.524 . S
C1710 H1722 0.983 . S
C1710 H1723 0.918 1_455 S
C1710 H1724 0.961 . S
C1711 C1708 1.539 . S
C1711 H1725 0.958 . S
C1711 H1726 0.961 . S
C1711 H1727 0.968 . S
H1712 C1696 0.931 . S
H1713 C1701 0.929 . S
H1714 C1702 0.960 1_455 S
H1715 C1702 0.962 . S
H1716 C1702 0.960 . S
H1717 C1703 0.961 . S
H1718 C1703 0.961 1_455 S
H1719 C1703 0.961 . S
H1720 C1704 0.931 . S
H1721 C1709 0.930 . S
H1722 C1710 0.983 . S
H1723 C1710 0.918 1_655 S
H1724 C1710 0.961 . S
H1725 C1711 0.958 . S
H1726 C1711 0.961 . S
H1727 C1711 0.968 . S
C1728 C1729 1.391 . S
C1728 C1730 1.394 . S
C1728 H1744 0.931 . S
C1729 C1728 1.391 . S
C1729 C1733 1.376 . S
C1730 C1728 1.394 . S
C1730 C1731 1.369 . S
C1730 C1734 1.531 . S
C1731 C1730 1.369 . S
C1731 C1732 1.410 . S
C1731 C1739 1.503 . S
C1732 C1731 1.410 . S
C1732 C1733 1.392 . S
C1732 C1735 1.511 . S
C1733 C1729 1.376 . S
C1733 C1732 1.392 . S
C1733 H1745 0.929 . S
C1734 C1730 1.531 . S
C1734 H1746 0.960 . S
C1734 H1747 0.962 . S
C1734 H1748 0.960 . S
C1735 C1732 1.511 . S
C1735 H1749 0.961 1_554 S
C1735 H1750 0.961 . S
C1735 H1751 0.961 . S
C1736 C1737 1.370 . S
C1736 C1738 1.363 . S
C1736 H1752 0.931 . S
C1737 C1736 1.370 . S
C1737 C1741 1.408 . S
C1738 C1736 1.363 . S
C1738 C1739 1.370 . S
C1738 C1742 1.524 . S
C1739 C1731 1.503 . S
C1739 C1738 1.370 . S
C1739 C1740 1.403 . S
C1740 C1739 1.403 . S
C1740 C1741 1.404 . S
C1740 C1743 1.539 . S
C1741 C1737 1.408 . S
C1741 C1740 1.404 . S
C1741 H1753 0.930 . S
C1742 C1738 1.524 . S
C1742 H1754 0.956 . S
C1742 H1755 0.961 . S
C1742 H1756 0.961 . S
C1743 C1740 1.539 . S
C1743 H1757 0.958 . S
C1743 H1758 0.961 . S
C1743 H1759 0.960 . S
H1744 C1728 0.931 . S
H1745 C1733 0.929 . S
H1746 C1734 0.960 . S
H1747 C1734 0.962 . S
H1748 C1734 0.960 . S
H1749 C1735 0.961 1_556 S
H1750 C1735 0.961 . S
H1751 C1735 0.961 . S
H1752 C1736 0.931 . S
H1753 C1741 0.930 . S
H1754 C1742 0.956 . S
H1755 C1742 0.961 . S
H1756 C1742 0.961 . S
H1757 C1743 0.958 . S
H1758 C1743 0.961 . S
H1759 C1743 0.960 . S
C1760 C1761 1.391 . S
C1760 C1762 1.394 . S
C1760 H1776 0.931 . S
C1761 C1760 1.391 . S
C1761 C1765 1.376 . S
C1762 C1760 1.394 . S
C1762 C1763 1.369 . S
C1762 C1766 1.531 . S
C1763 C1762 1.369 . S
C1763 C1764 1.410 . S
C1763 C1771 1.503 . S
C1764 C1763 1.410 . S
C1764 C1765 1.392 . S
C1764 C1767 1.511 . S
C1765 C1761 1.376 . S
C1765 C1764 1.392 . S
C1765 H1777 0.929 . S
C1766 C1762 1.531 . S
C1766 H1778 0.960 . S
C1766 H1779 0.962 . S
C1766 H1780 0.960 . S
C1767 C1764 1.511 . S
C1767 H1781 0.961 . S
C1767 H1782 0.961 . S
C1767 H1783 0.961 . S
C1768 C1769 1.370 . S
C1768 C1770 1.363 . S
C1768 H1784 0.931 . S
C1769 C1768 1.370 . S
C1769 C1773 1.408 . S
C1770 C1768 1.363 . S
C1770 C1771 1.370 . S
C1770 C1774 1.524 . S
C1771 C1763 1.503 . S
C1771 C1770 1.370 . S
C1771 C1772 1.403 . S
C1772 C1771 1.403 . S
C1772 C1773 1.404 . S
C1772 C1775 1.539 . S
C1773 C1769 1.408 . S
C1773 C1772 1.404 . S
C1773 H1785 0.930 . S
C1774 C1770 1.524 . S
C1774 H1786 0.956 . S
C1774 H1787 0.961 . S
C1774 H1788 0.961 . S
C1775 C1772 1.539 . S
C1775 H1789 0.958 . S
C1775 H1790 0.961 . S
C1775 H1791 0.960 . S
H1776 C1760 0.931 . S
H1777 C1765 0.929 . S
H1778 C1766 0.960 . S
H1779 C1766 0.962 . S
H1780 C1766 0.960 . S
H1781 C1767 0.961 . S
H1782 C1767 0.961 . S
H1783 C1767 0.961 . S
H1784 C1768 0.931 . S
H1785 C1773 0.930 . S
H1786 C1774 0.956 . S
H1787 C1774 0.961 . S
H1788 C1774 0.961 . S
H1789 C1775 0.958 . S
H1790 C1775 0.961 . S
H1791 C1775 0.960 . S
C1792 C1793 1.391 . S
C1792 C1794 1.394 . S
C1792 H1808 0.931 . S
C1793 C1792 1.391 . S
C1793 C1797 1.376 . S
C1794 C1792 1.394 . S
C1794 C1795 1.369 . S
C1794 C1798 1.531 . S
C1795 C1794 1.369 . S
C1795 C1796 1.410 . S
C1795 C1803 1.503 . S
C1796 C1795 1.410 . S
C1796 C1797 1.392 . S
C1796 C1799 1.511 . S
C1797 C1793 1.376 . S
C1797 C1796 1.392 . S
C1797 H1809 0.929 . S
C1798 C1794 1.531 . S
C1798 H1810 0.960 . S
C1798 H1811 0.962 . S
C1798 H1812 0.960 . S
C1799 C1796 1.511 . S
C1799 H1813 0.961 . S
C1799 H1814 0.961 . S
C1799 H1815 0.961 . S
C1800 C1801 1.370 . S
C1800 C1802 1.363 . S
C1800 H1816 0.931 1_554 S
C1801 C1800 1.370 . S
C1801 C1805 1.408 . S
C1802 C1800 1.363 . S
C1802 C1803 1.370 . S
C1802 C1806 1.524 1_554 S
C1803 C1795 1.503 . S
C1803 C1802 1.370 . S
C1803 C1804 1.403 . S
C1804 C1803 1.403 . S
C1804 C1805 1.404 . S
C1804 C1807 1.539 . S
C1805 C1801 1.408 . S
C1805 C1804 1.404 . S
C1805 H1817 0.930 . S
C1806 C1802 1.524 1_556 S
C1806 H1818 0.956 . S
C1806 H1819 0.961 . S
C1806 H1820 0.961 . S
C1807 C1804 1.539 . S
C1807 H1821 0.958 . S
C1807 H1822 0.961 . S
C1807 H1823 0.960 . S
H1808 C1792 0.931 . S
H1809 C1797 0.929 . S
H1810 C1798 0.960 . S
H1811 C1798 0.962 . S
H1812 C1798 0.960 . S
H1813 C1799 0.961 . S
H1814 C1799 0.961 . S
H1815 C1799 0.961 . S
H1816 C1800 0.931 1_556 S
H1817 C1805 0.930 . S
H1818 C1806 0.956 . S
H1819 C1806 0.961 . S
H1820 C1806 0.961 . S
H1821 C1807 0.958 . S
H1822 C1807 0.961 . S
H1823 C1807 0.960 . S
C1824 C1825 1.391 . S
C1824 C1826 1.394 . S
C1824 H1840 0.931 . S
C1825 C1824 1.391 . S
C1825 C1829 1.376 . S
C1826 C1824 1.394 . S
C1826 C1827 1.369 . S
C1826 C1830 1.531 . S
C1827 C1826 1.369 . S
C1827 C1828 1.410 . S
C1827 C1835 1.503 . S
C1828 C1827 1.410 . S
C1828 C1829 1.392 . S
C1828 C1831 1.511 . S
C1829 C1825 1.376 . S
C1829 C1828 1.392 . S
C1829 H1841 0.929 . S
C1830 C1826 1.531 . S
C1830 H1842 0.960 . S
C1830 H1843 0.962 . S
C1830 H1844 0.960 . S
C1831 C1828 1.511 . S
C1831 H1845 0.961 . S
C1831 H1846 0.961 . S
C1831 H1847 0.961 . S
C1832 C1833 1.370 . S
C1832 C1834 1.363 . S
C1832 H1848 0.931 . S
C1833 C1832 1.370 . S
C1833 C1837 1.408 . S
C1834 C1832 1.363 . S
C1834 C1835 1.370 . S
C1834 C1838 1.524 . S
C1835 C1827 1.503 . S
C1835 C1834 1.370 . S
C1835 C1836 1.403 . S
C1836 C1835 1.403 . S
C1836 C1837 1.404 . S
C1836 C1839 1.539 . S
C1837 C1833 1.408 . S
C1837 C1836 1.404 . S
C1837 H1849 0.930 . S
C1838 C1834 1.524 . S
C1838 H1850 0.956 . S
C1838 H1851 0.961 . S
C1838 H1852 0.961 . S
C1839 C1836 1.539 . S
C1839 H1853 0.958 . S
C1839 H1854 0.961 . S
C1839 H1855 0.960 . S
H1840 C1824 0.931 . S
H1841 C1829 0.929 . S
H1842 C1830 0.960 . S
H1843 C1830 0.962 . S
H1844 C1830 0.960 . S
H1845 C1831 0.961 . S
H1846 C1831 0.961 . S
H1847 C1831 0.961 . S
H1848 C1832 0.931 . S
H1849 C1837 0.930 . S
H1850 C1838 0.956 . S
H1851 C1838 0.961 . S
H1852 C1838 0.961 . S
H1853 C1839 0.958 . S
H1854 C1839 0.961 . S
H1855 C1839 0.960 . S
C1856 C1857 1.391 . S
C1856 C1858 1.394 . S
C1856 H1872 0.931 . S
C1857 C1856 1.391 . S
C1857 C1861 1.376 . S
C1858 C1856 1.394 . S
C1858 C1859 1.369 . S
C1858 C1862 1.531 . S
C1859 C1858 1.369 . S
C1859 C1860 1.410 . S
C1859 C1867 1.503 . S
C1860 C1859 1.410 . S
C1860 C1861 1.392 . S
C1860 C1863 1.511 . S
C1861 C1857 1.376 . S
C1861 C1860 1.392 . S
C1861 H1873 0.929 . S
C1862 C1858 1.531 . S
C1862 H1874 0.960 . S
C1862 H1875 0.962 . S
C1862 H1876 0.960 . S
C1863 C1860 1.511 . S
C1863 H1877 0.961 . S
C1863 H1878 0.961 . S
C1863 H1879 0.961 . S
C1864 C1865 1.370 . S
C1864 C1866 1.363 . S
C1864 H1880 0.931 . S
C1865 C1864 1.370 . S
C1865 C1869 1.408 . S
C1866 C1864 1.363 . S
C1866 C1867 1.370 . S
C1866 C1870 1.524 . S
C1867 C1859 1.503 . S
C1867 C1866 1.370 . S
C1867 C1868 1.403 . S
C1868 C1867 1.403 . S
C1868 C1869 1.404 . S
C1868 C1871 1.539 . S
C1869 C1865 1.408 . S
C1869 C1868 1.404 . S
C1869 H1881 0.930 . S
C1870 C1866 1.524 . S
C1870 H1882 0.956 . S
C1870 H1883 0.961 . S
C1870 H1884 0.961 . S
C1871 C1868 1.539 . S
C1871 H1885 0.958 . S
C1871 H1886 0.961 . S
C1871 H1887 0.960 . S
H1872 C1856 0.931 . S
H1873 C1861 0.929 . S
H1874 C1862 0.960 . S
H1875 C1862 0.962 . S
H1876 C1862 0.960 . S
H1877 C1863 0.961 . S
H1878 C1863 0.961 . S
H1879 C1863 0.961 . S
H1880 C1864 0.931 . S
H1881 C1869 0.930 . S
H1882 C1870 0.956 . S
H1883 C1870 0.961 . S
H1884 C1870 0.961 . S
H1885 C1871 0.958 . S
H1886 C1871 0.961 . S
H1887 C1871 0.960 . S
C1888 C1889 1.391 . S
C1888 C1890 1.394 . S
C1888 H1904 0.931 . S
C1889 C1888 1.391 . S
C1889 C1893 1.376 . S
C1890 C1888 1.394 . S
C1890 C1891 1.369 . S
C1890 C1894 1.531 . S
C1891 C1890 1.369 . S
C1891 C1892 1.410 . S
C1891 C1899 1.503 1_655 S
C1892 C1891 1.410 . S
C1892 C1893 1.392 . S
C1892 C1895 1.511 . S
C1893 C1889 1.376 . S
C1893 C1892 1.392 . S
C1893 H1905 0.929 . S
C1894 C1890 1.531 . S
C1894 H1906 0.960 1_655 S
C1894 H1907 0.962 . S
C1894 H1908 0.960 . S
C1895 C1892 1.511 . S
C1895 H1909 0.961 . S
C1895 H1910 0.961 1_655 S
C1895 H1911 0.961 . S
C1896 C1897 1.370 . S
C1896 C1898 1.363 . S
C1896 H1912 0.931 . S
C1897 C1896 1.370 . S
C1897 C1901 1.408 . S
C1898 C1896 1.363 . S
C1898 C1899 1.370 . S
C1898 C1902 1.524 . S
C1899 C1891 1.503 1_455 S
C1899 C1898 1.370 . S
C1899 C1900 1.403 . S
C1900 C1899 1.403 . S
C1900 C1901 1.404 . S
C1900 C1903 1.539 . S
C1901 C1897 1.408 . S
C1901 C1900 1.404 . S
C1901 H1913 0.930 . S
C1902 C1898 1.524 . S
C1902 H1914 0.983 . S
C1902 H1915 0.918 1_455 S
C1902 H1916 0.961 . S
C1903 C1900 1.539 . S
C1903 H1917 0.958 . S
C1903 H1918 0.961 . S
C1903 H1919 0.968 . S
H1904 C1888 0.931 . S
H1905 C1893 0.929 . S
H1906 C1894 0.960 1_455 S
H1907 C1894 0.962 . S
H1908 C1894 0.960 . S
H1909 C1895 0.961 . S
H1910 C1895 0.961 1_455 S
H1911 C1895 0.961 . S
H1912 C1896 0.931 . S
H1913 C1901 0.930 . S
H1914 C1902 0.983 . S
H1915 C1902 0.918 1_655 S
H1916 C1902 0.961 . S
H1917 C1903 0.958 . S
H1918 C1903 0.961 . S
H1919 C1903 0.968 . S
C1920 C1921 1.391 . S
C1920 C1922 1.394 . S
C1920 H1936 0.931 . S
C1921 C1920 1.391 . S
C1921 C1925 1.376 . S
C1922 C1920 1.394 . S
C1922 C1923 1.369 . S
C1922 C1926 1.531 . S
C1923 C1922 1.369 . S
C1923 C1924 1.410 . S
C1923 C1931 1.503 1_655 S
C1924 C1923 1.410 . S
C1924 C1925 1.392 . S
C1924 C1927 1.511 . S
C1925 C1921 1.376 . S
C1925 C1924 1.392 . S
C1925 H1937 0.929 . S
C1926 C1922 1.531 . S
C1926 H1938 0.960 1_655 S
C1926 H1939 0.962 . S
C1926 H1940 0.960 . S
C1927 C1924 1.511 . S
C1927 H1941 0.961 . S
C1927 H1942 0.961 1_655 S
C1927 H1943 0.961 . S
C1928 C1929 1.370 . S
C1928 C1930 1.363 . S
C1928 H1944 0.931 . S
C1929 C1928 1.370 . S
C1929 C1933 1.408 . S
C1930 C1928 1.363 . S
C1930 C1931 1.370 . S
C1930 C1934 1.524 . S
C1931 C1923 1.503 1_455 S
C1931 C1930 1.370 . S
C1931 C1932 1.403 . S
C1932 C1931 1.403 . S
C1932 C1933 1.404 . S
C1932 C1935 1.539 . S
C1933 C1929 1.408 . S
C1933 C1932 1.404 . S
C1933 H1945 0.930 . S
C1934 C1930 1.524 . S
C1934 H1946 0.983 . S
C1934 H1947 0.918 1_455 S
C1934 H1948 0.961 . S
C1935 C1932 1.539 . S
C1935 H1949 0.958 . S
C1935 H1950 0.961 . S
C1935 H1951 0.968 . S
H1936 C1920 0.931 . S
H1937 C1925 0.929 . S
H1938 C1926 0.960 1_455 S
H1939 C1926 0.962 . S
H1940 C1926 0.960 . S
H1941 C1927 0.961 . S
H1942 C1927 0.961 1_455 S
H1943 C1927 0.961 . S
H1944 C1928 0.931 . S
H1945 C1933 0.930 . S
H1946 C1934 0.983 . S
H1947 C1934 0.918 1_655 S
H1948 C1934 0.961 . S
H1949 C1935 0.958 . S
H1950 C1935 0.961 . S
H1951 C1935 0.968 . S
C1952 C1953 1.391 . S
C1952 C1954 1.394 . S
C1952 H1968 0.931 . S
C1953 C1952 1.391 . S
C1953 C1957 1.376 . S
C1954 C1952 1.394 . S
C1954 C1955 1.369 . S
C1954 C1958 1.531 . S
C1955 C1954 1.369 . S
C1955 C1956 1.410 . S
C1955 C1963 1.503 . S
C1956 C1955 1.410 . S
C1956 C1957 1.392 . S
C1956 C1959 1.511 . S
C1957 C1953 1.376 . S
C1957 C1956 1.392 . S
C1957 H1969 0.929 . S
C1958 C1954 1.531 . S
C1958 H1970 0.960 . S
C1958 H1971 0.962 . S
C1958 H1972 0.960 . S
C1959 C1956 1.511 . S
C1959 H1973 0.961 . S
C1959 H1974 0.961 . S
C1959 H1975 0.961 . S
C1960 C1961 1.370 . S
C1960 C1962 1.363 . S
C1960 H1976 0.931 . S
C1961 C1960 1.370 . S
C1961 C1965 1.408 . S
C1962 C1960 1.363 . S
C1962 C1963 1.370 . S
C1962 C1966 1.524 . S
C1963 C1955 1.503 . S
C1963 C1962 1.370 . S
C1963 C1964 1.403 . S
C1964 C1963 1.403 . S
C1964 C1965 1.404 . S
C1964 C1967 1.539 . S
C1965 C1961 1.408 . S
C1965 C1964 1.404 . S
C1965 H1977 0.930 . S
C1966 C1962 1.524 . S
C1966 H1978 0.956 . S
C1966 H1979 0.961 . S
C1966 H1980 0.961 . S
C1967 C1964 1.539 . S
C1967 H1981 0.958 . S
C1967 H1982 0.961 . S
C1967 H1983 0.960 . S
H1968 C1952 0.931 . S
H1969 C1957 0.929 . S
H1970 C1958 0.960 . S
H1971 C1958 0.962 . S
H1972 C1958 0.960 . S
H1973 C1959 0.961 . S
H1974 C1959 0.961 . S
H1975 C1959 0.961 . S
H1976 C1960 0.931 . S
H1977 C1965 0.930 . S
H1978 C1966 0.956 . S
H1979 C1966 0.961 . S
H1980 C1966 0.961 . S
H1981 C1967 0.958 . S
H1982 C1967 0.961 . S
H1983 C1967 0.960 . S
C1984 C1985 1.391 . S
C1984 C1986 1.394 . S
C1984 H2000 0.931 . S
C1985 C1984 1.391 . S
C1985 C1989 1.376 . S
C1986 C1984 1.394 . S
C1986 C1987 1.369 . S
C1986 C1990 1.531 . S
C1987 C1986 1.369 . S
C1987 C1988 1.410 . S
C1987 C1995 1.503 . S
C1988 C1987 1.410 . S
C1988 C1989 1.392 . S
C1988 C1991 1.511 . S
C1989 C1985 1.376 . S
C1989 C1988 1.392 . S
C1989 H2001 0.929 . S
C1990 C1986 1.531 . S
C1990 H2002 0.960 . S
C1990 H2003 0.962 . S
C1990 H2004 0.960 . S
C1991 C1988 1.511 . S
C1991 H2005 0.961 . S
C1991 H2006 0.961 . S
C1991 H2007 0.961 . S
C1992 C1993 1.370 . S
C1992 C1994 1.363 . S
C1992 H2008 0.931 . S
C1993 C1992 1.370 . S
C1993 C1997 1.408 . S
C1994 C1992 1.363 . S
C1994 C1995 1.370 . S
C1994 C1998 1.524 . S
C1995 C1987 1.503 . S
C1995 C1994 1.370 . S
C1995 C1996 1.403 . S
C1996 C1995 1.403 . S
C1996 C1997 1.404 . S
C1996 C1999 1.539 . S
C1997 C1993 1.408 . S
C1997 C1996 1.404 . S
C1997 H2009 0.930 . S
C1998 C1994 1.524 . S
C1998 H2010 0.956 . S
C1998 H2011 0.961 . S
C1998 H2012 0.961 . S
C1999 C1996 1.539 . S
C1999 H2013 0.958 . S
C1999 H2014 0.961 . S
C1999 H2015 0.960 . S
H2000 C1984 0.931 . S
H2001 C1989 0.929 . S
H2002 C1990 0.960 . S
H2003 C1990 0.962 . S
H2004 C1990 0.960 . S
H2005 C1991 0.961 . S
H2006 C1991 0.961 . S
H2007 C1991 0.961 . S
H2008 C1992 0.931 . S
H2009 C1997 0.930 . S
H2010 C1998 0.956 . S
H2011 C1998 0.961 . S
H2012 C1998 0.961 . S
H2013 C1999 0.958 . S
H2014 C1999 0.961 . S
H2015 C1999 0.960 . S
C2016 C2017 1.391 1_545 S
C2016 C2018 1.394 . S
C2016 H2032 0.931 . S
C2017 C2016 1.391 1_565 S
C2017 C2021 1.376 . S
C2018 C2016 1.394 . S
C2018 C2019 1.369 . S
C2018 C2022 1.531 . S
C2019 C2018 1.369 . S
C2019 C2020 1.410 1_545 S
C2019 C2027 1.503 . S
C2020 C2019 1.410 1_565 S
C2020 C2021 1.392 . S
C2020 C2023 1.511 . S
C2021 C2017 1.376 . S
C2021 C2020 1.392 . S
C2021 H2033 0.929 . S
C2022 C2018 1.531 . S
C2022 H2034 0.960 . S
C2022 H2035 0.962 . S
C2022 H2036 0.960 . S
C2023 C2020 1.511 . S
C2023 H2037 0.961 . S
C2023 H2038 0.961 . S
C2023 H2039 0.961 . S
C2024 C2025 1.370 . S
C2024 C2026 1.363 . S
C2024 H2040 0.931 . S
C2025 C2024 1.370 . S
C2025 C2029 1.408 . S
C2026 C2024 1.363 . S
C2026 C2027 1.370 . S
C2026 C2030 1.524 1_545 S
C2027 C2019 1.503 . S
C2027 C2026 1.370 . S
C2027 C2028 1.403 . S
C2028 C2027 1.403 . S
C2028 C2029 1.404 . S
C2028 C2031 1.539 . S
C2029 C2025 1.408 . S
C2029 C2028 1.404 . S
C2029 H2041 0.930 . S
C2030 C2026 1.524 1_565 S
C2030 H2042 0.956 1_565 S
C2030 H2043 0.961 . S
C2030 H2044 0.961 . S
C2031 C2028 1.539 . S
C2031 H2045 0.958 . S
C2031 H2046 0.961 . S
C2031 H2047 0.960 . S
H2032 C2016 0.931 . S
H2033 C2021 0.929 . S
H2034 C2022 0.960 . S
H2035 C2022 0.962 . S
H2036 C2022 0.960 . S
H2037 C2023 0.961 . S
H2038 C2023 0.961 . S
H2039 C2023 0.961 . S
H2040 C2024 0.931 . S
H2041 C2029 0.930 . S
H2042 C2030 0.956 1_545 S
H2043 C2030 0.961 . S
H2044 C2030 0.961 . S
H2045 C2031 0.958 . S
H2046 C2031 0.961 . S
H2047 C2031 0.960 . S
C2048 C2049 1.391 . S
C2048 C2050 1.394 . S
C2048 H2064 0.931 . S
C2049 C2048 1.391 . S
C2049 C2053 1.376 . S
C2050 C2048 1.394 . S
C2050 C2051 1.369 . S
C2050 C2054 1.531 . S
C2051 C2050 1.369 . S
C2051 C2052 1.410 . S
C2051 C2059 1.503 . S
C2052 C2051 1.410 . S
C2052 C2053 1.392 . S
C2052 C2055 1.511 . S
C2053 C2049 1.376 . S
C2053 C2052 1.392 . S
C2053 H2065 0.929 . S
C2054 C2050 1.531 . S
C2054 H2066 0.960 . S
C2054 H2067 0.962 . S
C2054 H2068 0.960 . S
C2055 C2052 1.511 . S
C2055 H2069 0.961 . S
C2055 H2070 0.961 . S
C2055 H2071 0.961 . S
C2056 C2057 1.370 . S
C2056 C2058 1.363 . S
C2056 H2072 0.931 . S
C2057 C2056 1.370 . S
C2057 C2061 1.408 . S
C2058 C2056 1.363 . S
C2058 C2059 1.370 . S
C2058 C2062 1.524 . S
C2059 C2051 1.503 . S
C2059 C2058 1.370 . S
C2059 C2060 1.403 . S
C2060 C2059 1.403 . S
C2060 C2061 1.404 . S
C2060 C2063 1.539 . S
C2061 C2057 1.408 . S
C2061 C2060 1.404 . S
C2061 H2073 0.930 . S
C2062 C2058 1.524 . S
C2062 H2074 0.956 . S
C2062 H2075 0.961 . S
C2062 H2076 0.961 . S
C2063 C2060 1.539 . S
C2063 H2077 0.958 . S
C2063 H2078 0.961 . S
C2063 H2079 0.960 . S
H2064 C2048 0.931 . S
H2065 C2053 0.929 . S
H2066 C2054 0.960 . S
H2067 C2054 0.962 . S
H2068 C2054 0.960 . S
H2069 C2055 0.961 . S
H2070 C2055 0.961 . S
H2071 C2055 0.961 . S
H2072 C2056 0.931 . S
H2073 C2061 0.930 . S
H2074 C2062 0.956 . S
H2075 C2062 0.961 . S
H2076 C2062 0.961 . S
H2077 C2063 0.958 . S
H2078 C2063 0.961 . S
H2079 C2063 0.960 . S
C2080 C2081 1.391 . S
C2080 C2082 1.421 1_556 S
C2080 H2096 0.931 . S
C2081 C2080 1.391 . S
C2081 C2085 1.369 1_556 S
C2082 C2080 1.421 1_554 S
C2082 C2083 1.402 . S
C2082 C2086 1.471 1_545 S
C2083 C2082 1.402 . S
C2083 C2084 1.410 . S
C2083 C2091 1.503 . S
C2084 C2083 1.410 . S
C2084 C2085 1.400 . S
C2084 C2087 1.511 . S
C2085 C2081 1.369 1_554 S
C2085 C2084 1.400 . S
C2085 H2097 0.928 1_554 S
C2086 C2082 1.471 1_565 S
C2086 H2098 0.960 . S
C2086 H2099 0.962 . S
C2086 H2100 0.960 1_554 S
C2087 C2084 1.511 . S
C2087 H2101 0.961 . S
C2087 H2102 0.961 . S
C2087 H2103 0.961 . S
C2088 C2089 1.370 . S
C2088 C2090 1.363 . S
C2088 H2104 0.931 . S
C2089 C2088 1.370 . S
C2089 C2093 1.408 . S
C2090 C2088 1.363 . S
C2090 C2091 1.370 1_565 S
C2090 C2094 1.524 . S
C2091 C2083 1.503 . S
C2091 C2090 1.370 1_545 S
C2091 C2092 1.404 . S
C2092 C2091 1.404 . S
C2092 C2093 1.393 1_545 S
C2092 C2095 1.551 . S
C2093 C2089 1.408 . S
C2093 C2092 1.393 1_565 S
C2093 H2105 0.930 . S
C2094 C2090 1.524 . S
C2094 H2106 0.956 . S
C2094 H2107 0.961 1_565 S
C2094 H2108 0.961 . S
C2095 C2092 1.551 . S
C2095 H2109 0.958 . S
C2095 H2110 0.961 . S
C2095 H2111 0.960 . S
H2096 C2080 0.931 . S
H2097 C2085 0.928 1_556 S
H2098 C2086 0.960 . S
H2099 C2086 0.962 . S
H2100 C2086 0.960 1_556 S
H2101 C2087 0.961 . S
H2102 C2087 0.961 . S
H2103 C2087 0.961 . S
H2104 C2088 0.931 . S
H2105 C2093 0.930 . S
H2106 C2094 0.956 . S
H2107 C2094 0.961 1_545 S
H2108 C2094 0.961 . S
H2109 C2095 0.958 . S
H2110 C2095 0.961 . S
H2111 C2095 0.960 . S
C2112 C2113 1.391 . S
C2112 C2114 1.394 . S
C2112 H2128 0.931 . S
C2113 C2112 1.391 . S
C2113 C2117 1.376 . S
C2114 C2112 1.394 . S
C2114 C2115 1.369 . S
C2114 C2118 1.531 . S
C2115 C2114 1.369 . S
C2115 C2116 1.410 . S
C2115 C2123 1.503 . S
C2116 C2115 1.410 . S
C2116 C2117 1.392 . S
C2116 C2119 1.511 . S
C2117 C2113 1.376 . S
C2117 C2116 1.392 . S
C2117 H2129 0.929 . S
C2118 C2114 1.531 . S
C2118 H2130 0.960 . S
C2118 H2131 0.962 . S
C2118 H2132 0.960 . S
C2119 C2116 1.511 . S
C2119 H2133 0.961 . S
C2119 H2134 0.961 . S
C2119 H2135 0.961 . S
C2120 C2121 1.370 . S
C2120 C2122 1.363 . S
C2120 H2136 0.931 . S
C2121 C2120 1.370 . S
C2121 C2125 1.408 . S
C2122 C2120 1.363 . S
C2122 C2123 1.370 . S
C2122 C2126 1.524 . S
C2123 C2115 1.503 . S
C2123 C2122 1.370 . S
C2123 C2124 1.403 . S
C2124 C2123 1.403 . S
C2124 C2125 1.404 . S
C2124 C2127 1.539 . S
C2125 C2121 1.408 . S
C2125 C2124 1.404 . S
C2125 H2137 0.930 . S
C2126 C2122 1.524 . S
C2126 H2138 0.956 . S
C2126 H2139 0.961 . S
C2126 H2140 0.961 . S
C2127 C2124 1.539 . S
C2127 H2141 0.958 . S
C2127 H2142 0.961 . S
C2127 H2143 0.960 . S
H2128 C2112 0.931 . S
H2129 C2117 0.929 . S
H2130 C2118 0.960 . S
H2131 C2118 0.962 . S
H2132 C2118 0.960 . S
H2133 C2119 0.961 . S
H2134 C2119 0.961 . S
H2135 C2119 0.961 . S
H2136 C2120 0.931 . S
H2137 C2125 0.930 . S
H2138 C2126 0.956 . S
H2139 C2126 0.961 . S
H2140 C2126 0.961 . S
H2141 C2127 0.958 . S
H2142 C2127 0.961 . S
H2143 C2127 0.960 . S
C2144 C2145 1.391 . S
C2144 C2146 1.394 . S
C2144 H2160 0.931 . S
C2145 C2144 1.391 . S
C2145 C2149 1.376 . S
C2146 C2144 1.394 . S
C2146 C2147 1.369 . S
C2146 C2150 1.531 . S
C2147 C2146 1.369 . S
C2147 C2148 1.410 . S
C2147 C2155 1.503 . S
C2148 C2147 1.410 . S
C2148 C2149 1.392 . S
C2148 C2151 1.511 1_545 S
C2149 C2145 1.376 . S
C2149 C2148 1.392 . S
C2149 H2161 0.929 . S
C2150 C2146 1.531 . S
C2150 H2162 0.960 . S
C2150 H2163 0.962 . S
C2150 H2164 0.960 . S
C2151 C2148 1.511 1_565 S
C2151 H2165 0.961 . S
C2151 H2166 0.961 . S
C2151 H2167 0.961 1_565 S
C2152 C2153 1.370 . S
C2152 C2154 1.363 . S
C2152 H2168 0.931 . S
C2153 C2152 1.370 . S
C2153 C2157 1.374 1_565 S
C2154 C2152 1.363 . S
C2154 C2155 1.370 1_565 S
C2154 C2158 1.524 . S
C2155 C2147 1.503 . S
C2155 C2154 1.370 1_545 S
C2155 C2156 1.403 . S
C2156 C2155 1.403 . S
C2156 C2157 1.424 . S
C2156 C2159 1.539 . S
C2157 C2153 1.374 1_545 S
C2157 C2156 1.424 . S
C2157 H2169 0.945 . S
C2158 C2154 1.524 . S
C2158 H2170 0.956 . S
C2158 H2171 0.961 . S
C2158 H2172 0.961 . S
C2159 C2156 1.539 . S
C2159 H2173 0.958 . S
C2159 H2174 0.961 . S
C2159 H2175 0.960 . S
H2160 C2144 0.931 . S
H2161 C2149 0.929 . S
H2162 C2150 0.960 . S
H2163 C2150 0.962 . S
H2164 C2150 0.960 . S
H2165 C2151 0.961 . S
H2166 C2151 0.961 . S
H2167 C2151 0.961 1_545 S
H2168 C2152 0.931 . S
H2169 C2157 0.945 . S
H2170 C2158 0.956 . S
H2171 C2158 0.961 . S
H2172 C2158 0.961 . S
H2173 C2159 0.958 . S
H2174 C2159 0.961 . S
H2175 C2159 0.960 . S
C2176 C2177 1.391 . S
C2176 C2178 1.394 . S
C2176 H2192 0.931 . S
C2177 C2176 1.391 . S
C2177 C2181 1.376 . S
C2178 C2176 1.394 . S
C2178 C2179 1.369 . S
C2178 C2182 1.531 . S
C2179 C2178 1.369 . S
C2179 C2180 1.410 . S
C2179 C2187 1.503 . S
C2180 C2179 1.410 . S
C2180 C2181 1.392 . S
C2180 C2183 1.511 . S
C2181 C2177 1.376 . S
C2181 C2180 1.392 . S
C2181 H2193 0.929 . S
C2182 C2178 1.531 . S
C2182 H2194 0.960 . S
C2182 H2195 0.962 . S
C2182 H2196 0.960 . S
C2183 C2180 1.511 . S
C2183 H2197 0.961 . S
C2183 H2198 0.961 . S
C2183 H2199 0.961 . S
C2184 C2185 1.370 . S
C2184 C2186 1.363 . S
C2184 H2200 0.931 . S
C2185 C2184 1.370 . S
C2185 C2189 1.408 . S
C2186 C2184 1.363 . S
C2186 C2187 1.370 . S
C2186 C2190 1.524 . S
C2187 C2179 1.503 . S
C2187 C2186 1.370 . S
C2187 C2188 1.403 . S
C2188 C2187 1.403 . S
C2188 C2189 1.404 . S
C2188 C2191 1.539 . S
C2189 C2185 1.408 . S
C2189 C2188 1.404 . S
C2189 H2201 0.930 . S
C2190 C2186 1.524 . S
C2190 H2202 0.956 . S
C2190 H2203 0.961 . S
C2190 H2204 0.961 . S
C2191 C2188 1.539 . S
C2191 H2205 0.958 . S
C2191 H2206 0.961 . S
C2191 H2207 0.960 . S
H2192 C2176 0.931 . S
H2193 C2181 0.929 . S
H2194 C2182 0.960 . S
H2195 C2182 0.962 . S
H2196 C2182 0.960 . S
H2197 C2183 0.961 . S
H2198 C2183 0.961 . S
H2199 C2183 0.961 . S
H2200 C2184 0.931 . S
H2201 C2189 0.930 . S
H2202 C2190 0.956 . S
H2203 C2190 0.961 . S
H2204 C2190 0.961 . S
H2205 C2191 0.958 . S
H2206 C2191 0.961 . S
H2207 C2191 0.960 . S
C2208 C2209 1.391 . S
C2208 C2210 1.394 . S
C2208 H2224 0.931 . S
C2209 C2208 1.391 . S
C2209 C2213 1.376 1_565 S
C2210 C2208 1.394 . S
C2210 C2211 1.382 . S
C2210 C2214 1.531 . S
C2211 C2210 1.382 . S
C2211 C2212 1.402 1_565 S
C2211 C2219 1.497 1_565 S
C2212 C2211 1.402 1_545 S
C2212 C2213 1.392 . S
C2212 C2215 1.511 . S
C2213 C2209 1.376 1_545 S
C2213 C2212 1.392 . S
C2213 H2225 0.929 . S
C2214 C2210 1.531 . S
C2214 H2226 0.960 . S
C2214 H2227 0.962 . S
C2214 H2228 0.960 . S
C2215 C2212 1.511 . S
C2215 H2229 0.961 . S
C2215 H2230 0.961 . S
C2215 H2231 0.961 . S
C2216 C2217 1.370 . S
C2216 C2218 1.363 1_556 S
C2216 H2232 0.931 . S
C2217 C2216 1.370 . S
C2217 C2221 1.408 . S
C2218 C2216 1.363 1_554 S
C2218 C2219 1.370 . S
C2218 C2222 1.524 . S
C2219 C2211 1.497 1_545 S
C2219 C2218 1.370 . S
C2219 C2220 1.403 . S
C2220 C2219 1.403 . S
C2220 C2221 1.404 1_554 S
C2220 C2223 1.539 . S
C2221 C2217 1.408 . S
C2221 C2220 1.404 1_556 S
C2221 H2233 0.930 . S
C2222 C2218 1.524 . S
C2222 H2234 1.030 . S
C2222 H2235 0.961 . S
C2222 H2236 0.961 . S
C2223 C2220 1.539 . S
C2223 H2237 0.958 1_545 S
C2223 H2238 0.961 . S
C2223 H2239 0.960 . S
H2224 C2208 0.931 . S
H2225 C2213 0.929 . S
H2226 C2214 0.960 . S
H2227 C2214 0.962 . S
H2228 C2214 0.960 . S
H2229 C2215 0.961 . S
H2230 C2215 0.961 . S
H2231 C2215 0.961 . S
H2232 C2216 0.931 . S
H2233 C2221 0.930 . S
H2234 C2222 1.030 . S
H2235 C2222 0.961 . S
H2236 C2222 0.961 . S
H2237 C2223 0.958 1_565 S
H2238 C2223 0.961 . S
H2239 C2223 0.960 . S
C2240 C2241 1.391 . S
C2240 C2242 1.394 . S
C2240 H2256 0.931 . S
C2241 C2240 1.391 . S
C2241 C2245 1.376 . S
C2242 C2240 1.394 . S
C2242 C2243 1.369 . S
C2242 C2246 1.531 . S
C2243 C2242 1.369 . S
C2243 C2244 1.410 . S
C2243 C2251 1.503 . S
C2244 C2243 1.410 . S
C2244 C2245 1.392 . S
C2244 C2247 1.511 . S
C2245 C2241 1.376 . S
C2245 C2244 1.392 . S
C2245 H2257 0.929 . S
C2246 C2242 1.531 . S
C2246 H2258 0.960 . S
C2246 H2259 0.962 . S
C2246 H2260 0.960 . S
C2247 C2244 1.511 . S
C2247 H2261 0.961 . S
C2247 H2262 0.961 . S
C2247 H2263 0.961 . S
C2248 C2249 1.370 . S
C2248 C2250 1.363 . S
C2248 H2264 0.931 . S
C2249 C2248 1.370 . S
C2249 C2253 1.408 . S
C2250 C2248 1.363 . S
C2250 C2251 1.370 . S
C2250 C2254 1.524 . S
C2251 C2243 1.503 . S
C2251 C2250 1.370 . S
C2251 C2252 1.403 . S
C2252 C2251 1.403 . S
C2252 C2253 1.404 . S
C2252 C2255 1.539 . S
C2253 C2249 1.408 . S
C2253 C2252 1.404 . S
C2253 H2265 0.930 . S
C2254 C2250 1.524 . S
C2254 H2266 0.956 . S
C2254 H2267 0.961 . S
C2254 H2268 0.961 . S
C2255 C2252 1.539 . S
C2255 H2269 0.958 . S
C2255 H2270 0.961 . S
C2255 H2271 0.960 . S
H2256 C2240 0.931 . S
H2257 C2245 0.929 . S
H2258 C2246 0.960 . S
H2259 C2246 0.962 . S
H2260 C2246 0.960 . S
H2261 C2247 0.961 . S
H2262 C2247 0.961 . S
H2263 C2247 0.961 . S
H2264 C2248 0.931 . S
H2265 C2253 0.930 . S
H2266 C2254 0.956 . S
H2267 C2254 0.961 . S
H2268 C2254 0.961 . S
H2269 C2255 0.958 . S
H2270 C2255 0.961 . S
H2271 C2255 0.960 . S
C2272 C2273 1.391 . S
C2272 C2274 1.394 . S
C2272 H2288 0.931 . S
C2273 C2272 1.391 . S
C2273 C2277 1.376 . S
C2274 C2272 1.394 . S
C2274 C2275 1.369 . S
C2274 C2278 1.531 . S
C2275 C2274 1.369 . S
C2275 C2276 1.410 . S
C2275 C2283 1.503 . S
C2276 C2275 1.410 . S
C2276 C2277 1.392 . S
C2276 C2279 1.511 . S
C2277 C2273 1.376 . S
C2277 C2276 1.392 . S
C2277 H2289 0.929 . S
C2278 C2274 1.531 . S
C2278 H2290 0.960 . S
C2278 H2291 0.962 . S
C2278 H2292 0.960 . S
C2279 C2276 1.511 . S
C2279 H2293 0.961 . S
C2279 H2294 0.961 . S
C2279 H2295 0.961 . S
C2280 C2281 1.370 . S
C2280 C2282 1.363 1_556 S
C2280 H2296 0.931 . S
C2281 C2280 1.370 . S
C2281 C2285 1.408 . S
C2282 C2280 1.363 1_554 S
C2282 C2283 1.370 . S
C2282 C2286 1.524 . S
C2283 C2275 1.503 . S
C2283 C2282 1.370 . S
C2283 C2284 1.403 . S
C2284 C2283 1.403 . S
C2284 C2285 1.404 1_554 S
C2284 C2287 1.539 . S
C2285 C2281 1.408 . S
C2285 C2284 1.404 1_556 S
C2285 H2297 0.930 . S
C2286 C2282 1.524 . S
C2286 H2298 0.956 . S
C2286 H2299 0.961 . S
C2286 H2300 0.961 1_554 S
C2287 C2284 1.539 . S
C2287 H2301 0.958 . S
C2287 H2302 0.961 . S
C2287 H2303 0.960 . S
H2288 C2272 0.931 . S
H2289 C2277 0.929 . S
H2290 C2278 0.960 . S
H2291 C2278 0.962 . S
H2292 C2278 0.960 . S
H2293 C2279 0.961 . S
H2294 C2279 0.961 . S
H2295 C2279 0.961 . S
H2296 C2280 0.931 . S
H2297 C2285 0.930 . S
H2298 C2286 0.956 . S
H2299 C2286 0.961 . S
H2300 C2286 0.961 1_556 S
H2301 C2287 0.958 . S
H2302 C2287 0.961 . S
H2303 C2287 0.960 . S
C2304 C2305 1.391 . S
C2304 C2306 1.394 . S
C2304 H2320 0.931 . S
C2305 C2304 1.391 . S
C2305 C2309 1.376 . S
C2306 C2304 1.394 . S
C2306 C2307 1.369 . S
C2306 C2310 1.531 . S
C2307 C2306 1.369 . S
C2307 C2308 1.410 . S
C2307 C2315 1.503 . S
C2308 C2307 1.410 . S
C2308 C2309 1.392 . S
C2308 C2311 1.511 . S
C2309 C2305 1.376 . S
C2309 C2308 1.392 . S
C2309 H2321 0.929 . S
C2310 C2306 1.531 . S
C2310 H2322 0.960 . S
C2310 H2323 0.962 . S
C2310 H2324 0.960 . S
C2311 C2308 1.511 . S
C2311 H2325 0.961 . S
C2311 H2326 0.961 . S
C2311 H2327 0.961 . S
C2312 C2313 1.370 . S
C2312 C2314 1.363 . S
C2312 H2328 0.931 . S
C2313 C2312 1.370 . S
C2313 C2317 1.408 . S
C2314 C2312 1.363 . S
C2314 C2315 1.370 . S
C2314 C2318 1.524 . S
C2315 C2307 1.503 . S
C2315 C2314 1.370 . S
C2315 C2316 1.403 . S
C2316 C2315 1.403 . S
C2316 C2317 1.404 . S
C2316 C2319 1.539 . S
C2317 C2313 1.408 . S
C2317 C2316 1.404 . S
C2317 H2329 0.930 . S
C2318 C2314 1.524 . S
C2318 H2330 0.956 . S
C2318 H2331 0.961 . S
C2318 H2332 0.961 . S
C2319 C2316 1.539 . S
C2319 H2333 0.958 . S
C2319 H2334 0.961 . S
C2319 H2335 0.960 . S
H2320 C2304 0.931 . S
H2321 C2309 0.929 . S
H2322 C2310 0.960 . S
H2323 C2310 0.962 . S
H2324 C2310 0.960 . S
H2325 C2311 0.961 . S
H2326 C2311 0.961 . S
H2327 C2311 0.961 . S
H2328 C2312 0.931 . S
H2329 C2317 0.930 . S
H2330 C2318 0.956 . S
H2331 C2318 0.961 . S
H2332 C2318 0.961 . S
H2333 C2319 0.958 . S
H2334 C2319 0.961 . S
H2335 C2319 0.960 . S
C2336 C2337 1.391 . S
C2336 C2338 1.394 . S
C2336 H2352 0.931 . S
C2337 C2336 1.391 . S
C2337 C2341 1.376 . S
C2338 C2336 1.394 . S
C2338 C2339 1.369 . S
C2338 C2342 1.531 . S
C2339 C2338 1.369 . S
C2339 C2340 1.410 . S
C2339 C2347 1.503 . S
C2340 C2339 1.410 . S
C2340 C2341 1.392 . S
C2340 C2343 1.511 . S
C2341 C2337 1.376 . S
C2341 C2340 1.392 . S
C2341 H2353 0.929 . S
C2342 C2338 1.531 . S
C2342 H2354 0.960 . S
C2342 H2355 0.962 . S
C2342 H2356 0.960 . S
C2343 C2340 1.511 . S
C2343 H2357 0.961 . S
C2343 H2358 0.961 . S
C2343 H2359 0.961 . S
C2344 C2345 1.370 . S
C2344 C2346 1.363 . S
C2344 H2360 0.931 . S
C2345 C2344 1.370 . S
C2345 C2349 1.408 . S
C2346 C2344 1.363 . S
C2346 C2347 1.370 . S
C2346 C2350 1.524 . S
C2347 C2339 1.503 . S
C2347 C2346 1.370 . S
C2347 C2348 1.403 . S
C2348 C2347 1.403 . S
C2348 C2349 1.404 . S
C2348 C2351 1.539 . S
C2349 C2345 1.408 . S
C2349 C2348 1.404 . S
C2349 H2361 0.930 . S
C2350 C2346 1.524 . S
C2350 H2362 0.956 . S
C2350 H2363 0.961 . S
C2350 H2364 0.961 . S
C2351 C2348 1.539 . S
C2351 H2365 0.958 . S
C2351 H2366 0.961 . S
C2351 H2367 0.960 . S
H2352 C2336 0.931 . S
H2353 C2341 0.929 . S
H2354 C2342 0.960 . S
H2355 C2342 0.962 . S
H2356 C2342 0.960 . S
H2357 C2343 0.961 . S
H2358 C2343 0.961 . S
H2359 C2343 0.961 . S
H2360 C2344 0.931 . S
H2361 C2349 0.930 . S
H2362 C2350 0.956 . S
H2363 C2350 0.961 . S
H2364 C2350 0.961 . S
H2365 C2351 0.958 . S
H2366 C2351 0.961 . S
H2367 C2351 0.960 . S
C2368 C2369 1.391 . S
C2368 C2370 1.394 . S
C2368 H2384 0.931 . S
C2369 C2368 1.391 . S
C2369 C2373 1.376 . S
C2370 C2368 1.394 . S
C2370 C2371 1.369 . S
C2370 C2374 1.531 . S
C2371 C2370 1.369 . S
C2371 C2372 1.410 . S
C2371 C2379 1.503 . S
C2372 C2371 1.410 . S
C2372 C2373 1.392 . S
C2372 C2375 1.511 . S
C2373 C2369 1.376 . S
C2373 C2372 1.392 . S
C2373 H2385 0.929 . S
C2374 C2370 1.531 . S
C2374 H2386 0.960 . S
C2374 H2387 0.962 . S
C2374 H2388 0.960 . S
C2375 C2372 1.511 . S
C2375 H2389 0.961 . S
C2375 H2390 0.961 . S
C2375 H2391 0.961 . S
C2376 C2377 1.370 . S
C2376 C2378 1.363 . S
C2376 H2392 0.931 . S
C2377 C2376 1.370 . S
C2377 C2381 1.408 . S
C2378 C2376 1.363 . S
C2378 C2379 1.370 . S
C2378 C2382 1.524 . S
C2379 C2371 1.503 . S
C2379 C2378 1.370 . S
C2379 C2380 1.403 . S
C2380 C2379 1.403 . S
C2380 C2381 1.404 . S
C2380 C2383 1.539 . S
C2381 C2377 1.408 . S
C2381 C2380 1.404 . S
C2381 H2393 0.930 . S
C2382 C2378 1.524 . S
C2382 H2394 0.956 . S
C2382 H2395 0.961 . S
C2382 H2396 0.961 . S
C2383 C2380 1.539 . S
C2383 H2397 0.958 . S
C2383 H2398 0.961 . S
C2383 H2399 0.960 . S
H2384 C2368 0.931 . S
H2385 C2373 0.929 . S
H2386 C2374 0.960 . S
H2387 C2374 0.962 . S
H2388 C2374 0.960 . S
H2389 C2375 0.961 . S
H2390 C2375 0.961 . S
H2391 C2375 0.961 . S
H2392 C2376 0.931 . S
H2393 C2381 0.930 . S
H2394 C2382 0.956 . S
H2395 C2382 0.961 . S
H2396 C2382 0.961 . S
H2397 C2383 0.958 . S
H2398 C2383 0.961 . S
H2399 C2383 0.960 . S
C2400 C2401 1.391 . S
C2400 C2402 1.394 1_556 S
C2400 H2416 0.931 . S
C2401 C2400 1.391 . S
C2401 C2405 1.376 . S
C2402 C2400 1.394 1_554 S
C2402 C2403 1.369 . S
C2402 C2406 1.531 . S
C2403 C2402 1.369 . S
C2403 C2404 1.410 . S
C2403 C2411 1.503 . S
C2404 C2403 1.410 . S
C2404 C2405 1.392 1_554 S
C2404 C2407 1.511 . S
C2405 C2401 1.376 . S
C2405 C2404 1.392 1_556 S
C2405 H2417 0.929 . S
C2406 C2402 1.531 . S
C2406 H2418 0.960 . S
C2406 H2419 0.962 . S
C2406 H2420 0.960 1_554 S
C2407 C2404 1.511 . S
C2407 H2421 0.961 . S
C2407 H2422 0.961 . S
C2407 H2423 0.961 . S
C2408 C2409 1.370 . S
C2408 C2410 1.363 . S
C2408 H2424 0.931 . S
C2409 C2408 1.370 . S
C2409 C2413 1.408 . S
C2410 C2408 1.363 . S
C2410 C2411 1.370 . S
C2410 C2414 1.524 . S
C2411 C2403 1.503 . S
C2411 C2410 1.370 . S
C2411 C2412 1.403 . S
C2412 C2411 1.403 . S
C2412 C2413 1.404 . S
C2412 C2415 1.539 . S
C2413 C2409 1.408 . S
C2413 C2412 1.404 . S
C2413 H2425 0.930 . S
C2414 C2410 1.524 . S
C2414 H2426 0.956 . S
C2414 H2427 0.961 . S
C2414 H2428 0.961 . S
C2415 C2412 1.539 . S
C2415 H2429 0.958 . S
C2415 H2430 0.961 . S
C2415 H2431 0.960 . S
H2416 C2400 0.931 . S
H2417 C2405 0.929 . S
H2418 C2406 0.960 . S
H2419 C2406 0.962 . S
H2420 C2406 0.960 1_556 S
H2421 C2407 0.961 . S
H2422 C2407 0.961 . S
H2423 C2407 0.961 . S
H2424 C2408 0.931 . S
H2425 C2413 0.930 . S
H2426 C2414 0.956 . S
H2427 C2414 0.961 . S
H2428 C2414 0.961 . S
H2429 C2415 0.958 . S
H2430 C2415 0.961 . S
H2431 C2415 0.960 . S
C2432 C2433 1.391 . S
C2432 C2434 1.394 . S
C2432 H2448 0.931 . S
C2433 C2432 1.391 . S
C2433 C2437 1.376 . S
C2434 C2432 1.394 . S
C2434 C2435 1.369 . S
C2434 C2438 1.531 . S
C2435 C2434 1.369 . S
C2435 C2436 1.410 . S
C2435 C2443 1.503 . S
C2436 C2435 1.410 . S
C2436 C2437 1.392 . S
C2436 C2439 1.511 . S
C2437 C2433 1.376 . S
C2437 C2436 1.392 . S
C2437 H2449 0.929 . S
C2438 C2434 1.531 . S
C2438 H2450 0.960 . S
C2438 H2451 0.962 . S
C2438 H2452 0.960 . S
C2439 C2436 1.511 . S
C2439 H2453 0.961 . S
C2439 H2454 0.961 . S
C2439 H2455 0.961 . S
C2440 C2441 1.370 . S
C2440 C2442 1.363 . S
C2440 H2456 0.931 . S
C2441 C2440 1.370 . S
C2441 C2445 1.408 . S
C2442 C2440 1.363 . S
C2442 C2443 1.370 . S
C2442 C2446 1.524 . S
C2443 C2435 1.503 . S
C2443 C2442 1.370 . S
C2443 C2444 1.403 . S
C2444 C2443 1.403 . S
C2444 C2445 1.404 . S
C2444 C2447 1.539 . S
C2445 C2441 1.408 . S
C2445 C2444 1.404 . S
C2445 H2457 0.930 . S
C2446 C2442 1.524 . S
C2446 H2458 0.956 . S
C2446 H2459 0.961 . S
C2446 H2460 0.961 . S
C2447 C2444 1.539 . S
C2447 H2461 0.958 . S
C2447 H2462 0.961 . S
C2447 H2463 0.960 . S
H2448 C2432 0.931 . S
H2449 C2437 0.929 . S
H2450 C2438 0.960 . S
H2451 C2438 0.962 . S
H2452 C2438 0.960 . S
H2453 C2439 0.961 . S
H2454 C2439 0.961 . S
H2455 C2439 0.961 . S
H2456 C2440 0.931 . S
H2457 C2445 0.930 . S
H2458 C2446 0.956 . S
H2459 C2446 0.961 . S
H2460 C2446 0.961 . S
H2461 C2447 0.958 . S
H2462 C2447 0.961 . S
H2463 C2447 0.960 . S
C2464 C2465 1.391 . S
C2464 C2466 1.394 . S
C2464 H2480 0.931 . S
C2465 C2464 1.391 . S
C2465 C2469 1.376 . S
C2466 C2464 1.394 . S
C2466 C2467 1.369 . S
C2466 C2470 1.531 . S
C2467 C2466 1.369 . S
C2467 C2468 1.410 . S
C2467 C2475 1.503 . S
C2468 C2467 1.410 . S
C2468 C2469 1.392 . S
C2468 C2471 1.511 . S
C2469 C2465 1.376 . S
C2469 C2468 1.392 . S
C2469 H2481 0.929 . S
C2470 C2466 1.531 . S
C2470 H2482 0.960 . S
C2470 H2483 0.962 . S
C2470 H2484 0.960 . S
C2471 C2468 1.511 . S
C2471 H2485 0.961 . S
C2471 H2486 0.961 . S
C2471 H2487 0.961 . S
C2472 C2473 1.370 . S
C2472 C2474 1.363 . S
C2472 H2488 0.931 . S
C2473 C2472 1.370 . S
C2473 C2477 1.408 . S
C2474 C2472 1.363 . S
C2474 C2475 1.370 . S
C2474 C2478 1.524 . S
C2475 C2467 1.503 . S
C2475 C2474 1.370 . S
C2475 C2476 1.403 . S
C2476 C2475 1.403 . S
C2476 C2477 1.404 . S
C2476 C2479 1.539 . S
C2477 C2473 1.408 . S
C2477 C2476 1.404 . S
C2477 H2489 0.930 . S
C2478 C2474 1.524 . S
C2478 H2490 0.956 . S
C2478 H2491 0.961 . S
C2478 H2492 0.961 . S
C2479 C2476 1.539 . S
C2479 H2493 0.958 . S
C2479 H2494 0.961 . S
C2479 H2495 0.960 . S
H2480 C2464 0.931 . S
H2481 C2469 0.929 . S
H2482 C2470 0.960 . S
H2483 C2470 0.962 . S
H2484 C2470 0.960 . S
H2485 C2471 0.961 . S
H2486 C2471 0.961 . S
H2487 C2471 0.961 . S
H2488 C2472 0.931 . S
H2489 C2477 0.930 . S
H2490 C2478 0.956 . S
H2491 C2478 0.961 . S
H2492 C2478 0.961 . S
H2493 C2479 0.958 . S
H2494 C2479 0.961 . S
H2495 C2479 0.960 . S
C449 C109 1.519 . S
C457 C11 1.523 . S
C481 C25 1.515 . S
C489 C67 1.531 . S
C513 C81 1.523 . S
C521 C39 1.521 . S
C545 C53 1.523 . S
C553 C95 1.521 . S
C577 C123 1.496 . S
C585 C221 1.535 . S
C609 C137 1.543 . S
C617 C179 1.514 . S
C641 C151 1.511 . S
C649 C193 1.534 . S
C673 C165 1.505 . S
C681 C207 1.536 . S
C705 C235 1.525 . S
C713 C333 1.527 . S
C737 C249 1.531 . S
C745 C291 1.518 . S
C769 C305 1.499 . S
C777 C263 1.535 . S
C801 C319 1.547 . S
C809 C277 1.515 . S
C833 C347 1.539 . S
C841 C445 1.524 . S
C865 C403 1.524 . S
C873 C361 1.531 . S
C897 C417 1.547 . S
C905 C375 1.516 . S
C929 C389 1.540 . S
C937 C431 1.514 . S
C961 C9 0.571 . S
C969 C93 0.616 . S
C993 C23 0.564 . S
C1001 C107 0.617 . S
C1025 C65 0.586 . S
C1033 C37 0.613 . S
C1057 C51 0.600 . S
C1065 C79 0.608 . S
C1089 C121 0.637 . S
C1097 C205 0.586 . S
C1121 C135 0.561 . S
C1129 C219 0.616 . S
C1153 C177 0.641 . S
C1161 C149 0.583 . S
C1185 C191 0.574 . S
C1193 C163 0.610 . S
C1217 C233 0.625 . S
C1225 C317 0.586 . S
C1249 C331 0.619 . S
C1257 C247 0.600 . S
C1281 C289 0.578 . S
C1289 C261 0.615 . S
C1313 C275 0.632 . S
C1321 C303 0.594 . S
C1345 C345 0.630 . S
C1353 C429 0.590 . S
C1377 C359 0.584 . S
C1385 C443 0.609 . S
C1409 C401 0.642 . S
C1417 C373 0.583 . S
C1441 C415 0.582 . S
C1449 C387 0.610 . S
C1473 C5 1.510 . S
C1481 C425 1.518 . S
C1505 C19 1.512 . S
C1513 C215 1.519 . S
C1537 C33 1.519 . S
C1545 C397 1.522 . S
C1569 C47 1.522 . S
C1577 C187 1.523 . S
C1601 C61 1.514 . S
C1609 C369 1.519 . S
C1633 C75 1.514 . S
C1641 C159 1.520 . S
C1665 C89 1.517 . S
C1673 C341 1.520 . S
C1697 C131 1.516 . S
C1705 C103 1.520 . S
C1729 C313 1.520 . S
C1737 C117 1.523 . S
C1761 C145 1.516 . S
C1769 C285 1.520 . S
C1793 C257 1.521 . S
C1801 C173 1.522 . S
C1825 C229 1.522 . S
C1833 C201 1.523 . S
C1857 C243 1.514 . S
C1865 C439 1.519 . S
C1889 C271 1.521 . S
C1897 C411 1.522 . S
C1921 C299 1.516 . S
C1929 C383 1.521 . S
C1953 C355 1.513 . S
C1961 C327 1.519 . S
C1985 C0 1.612 . S
C1993 C84 1.612 . S
C2017 C14 1.579 . S
C2025 C98 1.599 . S
C2049 C56 1.611 1_556 S
C2057 C28 1.612 . S
C2081 C42 1.589 . S
C2089 C70 1.595 . S
C2113 C112 1.578 1_556 S
C2121 C196 1.605 . S
C2145 C126 1.602 . S
C2153 C210 1.595 . S
C2177 C168 1.579 . S
C2185 C140 1.603 . S
C2209 C154 1.587 . S
C2217 C182 1.597 . S
C2241 C308 1.606 1_556 S
C2249 C224 1.613 . S
C2273 C322 1.579 . S
C2281 C238 1.603 . S
C2305 C280 1.600 . S
C2313 C252 1.595 . S
C2337 C294 1.584 . S
C2345 C266 1.596 . S
C2369 C420 1.607 . S
C2377 C336 1.612 . S
C2401 C434 1.605 . S
C2409 C350 1.612 . S
C2433 C364 1.578 1_556 S
C2441 C392 1.603 . S
C2465 C406 1.579 . S
C2473 C378 1.602 . S
