# Generated by pormake.
# Topology uos, (4)-cn, num edge types: 1
# Building blocks:
#     Node 0, Type 0, BuildingBlock: AZAVOO_clean_sbu_0, # of connection points: 4
#     Node 1, Type 0, BuildingBlock: AZAVOO_clean_sbu_0, # of connection points: 4
#     Node 2, Type 0, BuildingBlock: AZAVOO_clean_sbu_0, # of connection points: 4
#     Node 3, Type 0, BuildingBlock: AZAVOO_clean_sbu_0, # of connection points: 4
#     Node 4, Type 0, BuildingBlock: AZAVOO_clean_sbu_0, # of connection points: 4
#     Node 5, Type 0, BuildingBlock: AZAVOO_clean_sbu_0, # of connection points: 4
#     Node 6, Type 0, BuildingBlock: AZAVOO_clean_sbu_0, # of connection points: 4
#     Node 7, Type 0, BuildingBlock: AZAVOO_clean_sbu_0, # of connection points: 4
#     Node 8, Type 0, BuildingBlock: AZAVOO_clean_sbu_0, # of connection points: 4
#     Node 9, Type 0, BuildingBlock: AZAVOO_clean_sbu_0, # of connection points: 4
#     Node 10, Type 0, BuildingBlock: AZAVOO_clean_sbu_0, # of connection points: 4
#     Node 11, Type 0, BuildingBlock: AZAVOO_clean_sbu_0, # of connection points: 4
#     Node 12, Type 0, BuildingBlock: AZAVOO_clean_sbu_0, # of connection points: 4
#     Node 13, Type 0, BuildingBlock: AZAVOO_clean_sbu_0, # of connection points: 4
#     Node 14, Type 0, BuildingBlock: AZAVOO_clean_sbu_0, # of connection points: 4
#     Node 15, Type 0, BuildingBlock: AZAVOO_clean_sbu_0, # of connection points: 4
#     Node 16, Type 0, BuildingBlock: AZAVOO_clean_sbu_0, # of connection points: 4
#     Node 17, Type 0, BuildingBlock: AZAVOO_clean_sbu_0, # of connection points: 4
#     Node 18, Type 0, BuildingBlock: AZAVOO_clean_sbu_0, # of connection points: 4
#     Node 19, Type 0, BuildingBlock: AZAVOO_clean_sbu_0, # of connection points: 4
#     Node 20, Type 0, BuildingBlock: AZAVOO_clean_sbu_0, # of connection points: 4
#     Node 21, Type 0, BuildingBlock: AZAVOO_clean_sbu_0, # of connection points: 4
#     Node 22, Type 0, BuildingBlock: AZAVOO_clean_sbu_0, # of connection points: 4
#     Node 23, Type 0, BuildingBlock: AZAVOO_clean_sbu_0, # of connection points: 4
#     Node 24, Type 0, BuildingBlock: AZAVOO_clean_sbu_0, # of connection points: 4
#     Node 25, Type 0, BuildingBlock: AZAVOO_clean_sbu_0, # of connection points: 4
#     Node 26, Type 0, BuildingBlock: AZAVOO_clean_sbu_0, # of connection points: 4
#     Node 27, Type 0, BuildingBlock: AZAVOO_clean_sbu_0, # of connection points: 4
#     Node 28, Type 0, BuildingBlock: AZAVOO_clean_sbu_0, # of connection points: 4
#     Node 29, Type 0, BuildingBlock: AZAVOO_clean_sbu_0, # of connection points: 4
#     Node 30, Type 0, BuildingBlock: AZAVOO_clean_sbu_0, # of connection points: 4
#     Node 31, Type 0, BuildingBlock: AZAVOO_clean_sbu_0, # of connection points: 4
#     Edge 32, Type (0, 0), BuildingBlock: ZUJKAS_clean_linker_0, # of connection points: 2
#     Edge 33, Type (0, 0), BuildingBlock: ZUJKAS_clean_linker_0, # of connection points: 2
#     Edge 34, Type (0, 0), BuildingBlock: ZUJKAS_clean_linker_0, # of connection points: 2
#     Edge 35, Type (0, 0), BuildingBlock: ZUJKAS_clean_linker_0, # of connection points: 2
#     Edge 36, Type (0, 0), BuildingBlock: ZUJKAS_clean_linker_0, # of connection points: 2
#     Edge 37, Type (0, 0), BuildingBlock: ZUJKAS_clean_linker_0, # of connection points: 2
#     Edge 38, Type (0, 0), BuildingBlock: ZUJKAS_clean_linker_0, # of connection points: 2
#     Edge 39, Type (0, 0), BuildingBlock: ZUJKAS_clean_linker_0, # of connection points: 2
#     Edge 40, Type (0, 0), BuildingBlock: ZUJKAS_clean_linker_0, # of connection points: 2
#     Edge 41, Type (0, 0), BuildingBlock: ZUJKAS_clean_linker_0, # of connection points: 2
#     Edge 42, Type (0, 0), BuildingBlock: ZUJKAS_clean_linker_0, # of connection points: 2
#     Edge 43, Type (0, 0), BuildingBlock: ZUJKAS_clean_linker_0, # of connection points: 2
#     Edge 44, Type (0, 0), BuildingBlock: ZUJKAS_clean_linker_0, # of connection points: 2
#     Edge 45, Type (0, 0), BuildingBlock: ZUJKAS_clean_linker_0, # of connection points: 2
#     Edge 46, Type (0, 0), BuildingBlock: ZUJKAS_clean_linker_0, # of connection points: 2
#     Edge 47, Type (0, 0), BuildingBlock: ZUJKAS_clean_linker_0, # of connection points: 2
#     Edge 48, Type (0, 0), BuildingBlock: ZUJKAS_clean_linker_0, # of connection points: 2
#     Edge 49, Type (0, 0), BuildingBlock: ZUJKAS_clean_linker_0, # of connection points: 2
#     Edge 50, Type (0, 0), BuildingBlock: ZUJKAS_clean_linker_0, # of connection points: 2
#     Edge 51, Type (0, 0), BuildingBlock: ZUJKAS_clean_linker_0, # of connection points: 2
#     Edge 52, Type (0, 0), BuildingBlock: ZUJKAS_clean_linker_0, # of connection points: 2
#     Edge 53, Type (0, 0), BuildingBlock: ZUJKAS_clean_linker_0, # of connection points: 2
#     Edge 54, Type (0, 0), BuildingBlock: ZUJKAS_clean_linker_0, # of connection points: 2
#     Edge 55, Type (0, 0), BuildingBlock: ZUJKAS_clean_linker_0, # of connection points: 2
#     Edge 56, Type (0, 0), BuildingBlock: ZUJKAS_clean_linker_0, # of connection points: 2
#     Edge 57, Type (0, 0), BuildingBlock: ZUJKAS_clean_linker_0, # of connection points: 2
#     Edge 58, Type (0, 0), BuildingBlock: ZUJKAS_clean_linker_0, # of connection points: 2
#     Edge 59, Type (0, 0), BuildingBlock: ZUJKAS_clean_linker_0, # of connection points: 2
#     Edge 60, Type (0, 0), BuildingBlock: ZUJKAS_clean_linker_0, # of connection points: 2
#     Edge 61, Type (0, 0), BuildingBlock: ZUJKAS_clean_linker_0, # of connection points: 2
#     Edge 62, Type (0, 0), BuildingBlock: ZUJKAS_clean_linker_0, # of connection points: 2
#     Edge 63, Type (0, 0), BuildingBlock: ZUJKAS_clean_linker_0, # of connection points: 2
#     Edge 64, Type (0, 0), BuildingBlock: ZUJKAS_clean_linker_0, # of connection points: 2
#     Edge 65, Type (0, 0), BuildingBlock: ZUJKAS_clean_linker_0, # of connection points: 2
#     Edge 66, Type (0, 0), BuildingBlock: ZUJKAS_clean_linker_0, # of connection points: 2
#     Edge 67, Type (0, 0), BuildingBlock: ZUJKAS_clean_linker_0, # of connection points: 2
#     Edge 68, Type (0, 0), BuildingBlock: ZUJKAS_clean_linker_0, # of connection points: 2
#     Edge 69, Type (0, 0), BuildingBlock: ZUJKAS_clean_linker_0, # of connection points: 2
#     Edge 70, Type (0, 0), BuildingBlock: ZUJKAS_clean_linker_0, # of connection points: 2
#     Edge 71, Type (0, 0), BuildingBlock: ZUJKAS_clean_linker_0, # of connection points: 2
#     Edge 72, Type (0, 0), BuildingBlock: ZUJKAS_clean_linker_0, # of connection points: 2
#     Edge 73, Type (0, 0), BuildingBlock: ZUJKAS_clean_linker_0, # of connection points: 2
#     Edge 74, Type (0, 0), BuildingBlock: ZUJKAS_clean_linker_0, # of connection points: 2
#     Edge 75, Type (0, 0), BuildingBlock: ZUJKAS_clean_linker_0, # of connection points: 2
#     Edge 76, Type (0, 0), BuildingBlock: ZUJKAS_clean_linker_0, # of connection points: 2
#     Edge 77, Type (0, 0), BuildingBlock: ZUJKAS_clean_linker_0, # of connection points: 2
#     Edge 78, Type (0, 0), BuildingBlock: ZUJKAS_clean_linker_0, # of connection points: 2
#     Edge 79, Type (0, 0), BuildingBlock: ZUJKAS_clean_linker_0, # of connection points: 2
#     Edge 80, Type (0, 0), BuildingBlock: ZUJKAS_clean_linker_0, # of connection points: 2
#     Edge 81, Type (0, 0), BuildingBlock: ZUJKAS_clean_linker_0, # of connection points: 2
#     Edge 82, Type (0, 0), BuildingBlock: ZUJKAS_clean_linker_0, # of connection points: 2
#     Edge 83, Type (0, 0), BuildingBlock: ZUJKAS_clean_linker_0, # of connection points: 2
#     Edge 84, Type (0, 0), BuildingBlock: ZUJKAS_clean_linker_0, # of connection points: 2
#     Edge 85, Type (0, 0), BuildingBlock: ZUJKAS_clean_linker_0, # of connection points: 2
#     Edge 86, Type (0, 0), BuildingBlock: ZUJKAS_clean_linker_0, # of connection points: 2
#     Edge 87, Type (0, 0), BuildingBlock: ZUJKAS_clean_linker_0, # of connection points: 2
#     Edge 88, Type (0, 0), BuildingBlock: ZUJKAS_clean_linker_0, # of connection points: 2
#     Edge 89, Type (0, 0), BuildingBlock: ZUJKAS_clean_linker_0, # of connection points: 2
#     Edge 90, Type (0, 0), BuildingBlock: ZUJKAS_clean_linker_0, # of connection points: 2
#     Edge 91, Type (0, 0), BuildingBlock: ZUJKAS_clean_linker_0, # of connection points: 2
#     Edge 92, Type (0, 0), BuildingBlock: ZUJKAS_clean_linker_0, # of connection points: 2
#     Edge 93, Type (0, 0), BuildingBlock: ZUJKAS_clean_linker_0, # of connection points: 2
#     Edge 94, Type (0, 0), BuildingBlock: ZUJKAS_clean_linker_0, # of connection points: 2
#     Edge 95, Type (0, 0), BuildingBlock: ZUJKAS_clean_linker_0, # of connection points: 2
# Relax obj value: 0.089
# Max RMSD: 0.115
# Mean RMSD: 0.115
data_MOF--net-uos--node1-AZAVOO_clean_sbu_0--edge1-ZUJKAS_clean_linker_0
_symmetry_space_group_name_H-M    P1
_symmetry_Int_Tables_number       1
_symmetry_cell_setting            triclinic
loop_
_symmetry_equiv_pos_as_xyz
'x, y, z'
_cell_length_a     108.96929
_cell_length_b     109.01469
_cell_length_c     30.337015
_cell_angle_alpha  89.986271
_cell_angle_beta   90.002552
_cell_angle_gamma 90.003034
loop_
_atom_site_label
_atom_site_type_symbol
_atom_site_fract_x
_atom_site_fract_y
_atom_site_fract_z
_atom_type_partial_charge
Mg0 Mg 0.17005 0.16323 0.10996 0.0
O1 O 0.16164 0.15701 0.17596 0.0
O2 O 0.17282 0.16534 0.23005 0.0
Mg3 Mg 0.18775 0.17717 0.19924 0.0
C4 C 0.16394 0.15863 0.21689 0.0
C5 C 0.14954 0.14556 0.07485 0.0
O6 O 0.15466 0.13806 0.10331 0.0
O7 O 0.16132 0.18202 0.11836 0.0
O8 O 0.17272 0.18999 0.17248 0.0
O9 O 0.18293 0.14731 0.1117 0.0
O10 O 0.18691 0.16552 0.14029 0.0
C11 C 0.16396 0.19077 0.1446 0.0
C12 C 0.19017 0.15428 0.13443 0.0
O13 O 0.15351 0.15647 0.07168 0.0
Mg14 Mg 0.08699 0.91892 0.38706 0.0
O15 O 0.09559 0.90856 0.44577 0.0
O16 O 0.08708 0.91662 0.50636 0.0
Mg17 Mg 0.07382 0.9319 0.48759 0.0
C18 C 0.09434 0.90903 0.4877 0.0
C19 C 0.09225 0.90862 0.29785 0.0
O20 O 0.0873 0.91946 0.29122 0.0
O21 O 0.06916 0.9084 0.3963 0.0
O22 O 0.0612 0.91756 0.45559 0.0
O23 O 0.10173 0.93315 0.38899 0.0
O24 O 0.08443 0.93416 0.42673 0.0
C25 C 0.06054 0.90972 0.42436 0.0
C26 C 0.09498 0.93884 0.41753 0.0
O27 O 0.09369 0.90494 0.33726 0.0
Mg28 Mg 0.32056 0.83771 0.61362 0.0
O29 O 0.331 0.84506 0.67438 0.0
O30 O 0.32246 0.8362 0.73343 0.0
Mg31 Mg 0.30733 0.82321 0.71145 0.0
C32 C 0.33029 0.84346 0.7161 0.0
C33 C 0.33082 0.84553 0.52656 0.0
O34 O 0.31956 0.8418 0.51874 0.0
O35 O 0.33085 0.81958 0.6189 0.0
O36 O 0.32195 0.81122 0.67806 0.0
O37 O 0.30667 0.85269 0.62056 0.0
O38 O 0.30523 0.8345 0.6522 0.0
C39 C 0.32969 0.81081 0.64646 0.0
C40 C 0.3009 0.8454 0.64711 0.0
O41 O 0.33477 0.84522 0.56597 0.0
Mg42 Mg 0.41229 0.07658 0.87546 0.0
O43 O 0.40457 0.0866 0.93648 0.0
O44 O 0.41336 0.07802 0.99564 0.0
Mg45 Mg 0.42642 0.06293 0.97355 0.0
C46 C 0.40605 0.0858 0.97824 0.0
C47 C 0.39398 0.09486 0.83003 0.0
O48 O 0.38664 0.09066 0.86091 0.0
O49 O 0.43038 0.08684 0.88269 0.0
O50 O 0.43864 0.07756 0.94125 0.0
O51 O 0.39733 0.06254 0.87948 0.0
O52 O 0.41514 0.06123 0.91415 0.0
C53 C 0.43913 0.08546 0.91019 0.0
C54 C 0.40432 0.05689 0.90737 0.0
O55 O 0.40501 0.09113 0.82866 0.0
Mg56 Mg 0.1714 0.83254 0.89963 0.0
O57 O 0.16288 0.83902 0.83411 0.0
O58 O 0.17387 0.83076 0.77939 0.0
Mg59 Mg 0.18877 0.8187 0.80932 0.0
C60 C 0.16509 0.83751 0.79306 0.0
C61 C 0.15105 0.85026 0.93579 0.0
O62 O 0.1561 0.85778 0.90722 0.0
O63 O 0.1625 0.81385 0.89091 0.0
O64 O 0.17369 0.80594 0.83611 0.0
O65 O 0.18439 0.84838 0.89784 0.0
O66 O 0.18816 0.83019 0.8687 0.0
C67 C 0.165 0.80515 0.86427 0.0
C68 C 0.19151 0.84139 0.87466 0.0
O69 O 0.15501 0.83933 0.93866 0.0
Mg70 Mg 0.41343 0.9182 0.12174 0.0
O71 O 0.40539 0.90916 0.05932 0.0
O72 O 0.41451 0.91807 0.00149 0.0
Mg73 Mg 0.42809 0.9324 0.02591 0.0
C74 C 0.40693 0.91036 0.01772 0.0
C75 C 0.39428 0.90049 0.1652 0.0
O76 O 0.3871 0.90564 0.13575 0.0
O77 O 0.43115 0.90738 0.11324 0.0
O78 O 0.43973 0.91701 0.05605 0.0
O79 O 0.39899 0.93275 0.11995 0.0
O80 O 0.41683 0.93403 0.08567 0.0
C81 C 0.43994 0.90875 0.08592 0.0
C82 C 0.40618 0.93867 0.09349 0.0
O83 O 0.40556 0.90339 0.16626 0.0
Mg84 Mg 0.32086 0.15842 0.38318 0.0
O85 O 0.33118 0.15166 0.32132 0.0
O86 O 0.32219 0.16071 0.26349 0.0
Mg87 Mg 0.30677 0.17311 0.28729 0.0
C88 C 0.33027 0.15354 0.27978 0.0
C89 C 0.33223 0.15203 0.46968 0.0
O90 O 0.32149 0.15691 0.4786 0.0
O91 O 0.33068 0.17681 0.37848 0.0
O92 O 0.32117 0.18531 0.32083 0.0
O93 O 0.30729 0.14313 0.37621 0.0
O94 O 0.30527 0.16142 0.34575 0.0
C95 C 0.32909 0.18574 0.35186 0.0
C96 C 0.3012 0.15041 0.35052 0.0
O97 O 0.33546 0.15106 0.42958 0.0
Mg98 Mg 0.08541 0.0776 0.62279 0.0
O99 O 0.09365 0.08864 0.56483 0.0
O100 O 0.08535 0.0807 0.5036 0.0
Mg101 Mg 0.07245 0.06502 0.52111 0.0
C102 C 0.09241 0.08837 0.52285 0.0
C103 C 0.0901 0.08772 0.71304 0.0
O104 O 0.08502 0.07692 0.71926 0.0
O105 O 0.06729 0.08767 0.61485 0.0
O106 O 0.05957 0.07896 0.55426 0.0
O107 O 0.10061 0.06388 0.61903 0.0
O108 O 0.08329 0.06273 0.58129 0.0
C109 C 0.05874 0.08648 0.58643 0.0
C110 C 0.09405 0.05841 0.58941 0.0
O111 O 0.0918 0.09141 0.67377 0.0
Mg112 Mg 0.82185 0.83929 0.87304 0.0
O113 O 0.83267 0.84637 0.81279 0.0
O114 O 0.82424 0.8375 0.75357 0.0
Mg115 Mg 0.80857 0.82505 0.7749 0.0
C116 C 0.83215 0.84464 0.7711 0.0
C117 C 0.8321 0.84645 0.96069 0.0
O118 O 0.8208 0.84276 0.96804 0.0
O119 O 0.83165 0.8209 0.86836 0.0
O120 O 0.82255 0.81258 0.80956 0.0
O121 O 0.80838 0.85463 0.86576 0.0
O122 O 0.80657 0.83653 0.83378 0.0
C123 C 0.83021 0.81203 0.8414 0.0
C124 C 0.80248 0.84751 0.83898 0.0
O125 O 0.83609 0.84637 0.92134 0.0
Mg126 Mg 0.9101 0.07397 0.62369 0.0
O127 O 0.90215 0.0849 0.56499 0.0
O128 O 0.91074 0.07696 0.50437 0.0
Mg129 Mg 0.9238 0.06156 0.52305 0.0
C130 C 0.90354 0.08459 0.5231 0.0
C131 C 0.90548 0.08453 0.71327 0.0
O132 O 0.91183 0.07443 0.71964 0.0
O133 O 0.92819 0.08431 0.61751 0.0
O134 O 0.93617 0.0757 0.5572 0.0
O135 O 0.89509 0.06012 0.61757 0.0
O136 O 0.91287 0.05893 0.58296 0.0
C137 C 0.93683 0.08322 0.58939 0.0
C138 C 0.90205 0.05453 0.58942 0.0
O139 O 0.90298 0.08768 0.67395 0.0
Mg140 Mg 0.67308 0.15829 0.37348 0.0
O141 O 0.66357 0.15105 0.31082 0.0
O142 O 0.67329 0.1594 0.25322 0.0
Mg143 Mg 0.68851 0.17187 0.2783 0.0
C144 C 0.66498 0.15245 0.26926 0.0
C145 C 0.6538 0.14061 0.41677 0.0
O146 O 0.65875 0.13279 0.38905 0.0
O147 O 0.66366 0.17673 0.36477 0.0
O148 O 0.6739 0.18468 0.3078 0.0
O149 O 0.68631 0.14269 0.37098 0.0
O150 O 0.68925 0.16057 0.3383 0.0
C151 C 0.66563 0.18543 0.33756 0.0
C152 C 0.69289 0.14948 0.34509 0.0
O153 O 0.65748 0.15167 0.41685 0.0
Mg154 Mg 0.58786 0.92026 0.12572 0.0
O155 O 0.59578 0.90983 0.066 0.0
O156 O 0.58755 0.91849 0.006 0.0
Mg157 Mg 0.57473 0.93396 0.02638 0.0
C158 C 0.59454 0.91055 0.02413 0.0
C159 C 0.58811 0.90502 0.20903 0.0
O160 O 0.57829 0.91192 0.21297 0.0
O161 O 0.56966 0.91036 0.11714 0.0
O162 O 0.56188 0.91968 0.05784 0.0
O163 O 0.60319 0.93381 0.12203 0.0
O164 O 0.5855 0.93574 0.08713 0.0
C165 C 0.56108 0.91184 0.08904 0.0
C166 C 0.5964 0.93983 0.09445 0.0
O167 O 0.59443 0.90579 0.17392 0.0
Mg168 Mg 0.82399 0.15915 0.11234 0.0
O169 O 0.83314 0.15299 0.17723 0.0
O170 O 0.82241 0.16126 0.2326 0.0
Mg171 Mg 0.80699 0.17285 0.20401 0.0
C172 C 0.83122 0.15463 0.21842 0.0
C173 C 0.8444 0.14167 0.0756 0.0
O174 O 0.83984 0.13443 0.1061 0.0
O175 O 0.8326 0.1781 0.11976 0.0
O176 O 0.82141 0.18584 0.17483 0.0
O177 O 0.81125 0.14309 0.11553 0.0
O178 O 0.8074 0.16119 0.14506 0.0
C179 C 0.82993 0.18683 0.14611 0.0
C180 C 0.80418 0.14994 0.13941 0.0
O181 O 0.84017 0.15247 0.07159 0.0
Mg182 Mg 0.58762 0.0726 0.86137 0.0
O183 O 0.59501 0.08218 0.92367 0.0
O184 O 0.58658 0.07266 0.98157 0.0
Mg185 Mg 0.57396 0.05748 0.9571 0.0
C186 C 0.59359 0.08088 0.96528 0.0
C187 C 0.58898 0.08887 0.78043 0.0
O188 O 0.57944 0.0818 0.77284 0.0
O189 O 0.56929 0.0823 0.86997 0.0
O190 O 0.56132 0.07219 0.92726 0.0
O191 O 0.603 0.05911 0.86419 0.0
O192 O 0.58505 0.05658 0.89683 0.0
C193 C 0.56061 0.08042 0.89737 0.0
C194 C 0.59604 0.05268 0.88997 0.0
O195 O 0.5946 0.08781 0.81693 0.0
Mg196 Mg 0.67021 0.834 0.60904 0.0
O197 O 0.6621 0.84065 0.67493 0.0
O198 O 0.67343 0.83266 0.72927 0.0
Mg199 Mg 0.68823 0.82062 0.69865 0.0
C200 C 0.66453 0.8393 0.71588 0.0
C201 C 0.64939 0.85145 0.57567 0.0
O202 O 0.65452 0.85885 0.60449 0.0
O203 O 0.66148 0.81529 0.61949 0.0
O204 O 0.67309 0.80766 0.6737 0.0
O205 O 0.68311 0.8499 0.60874 0.0
O206 O 0.6872 0.83187 0.63868 0.0
C207 C 0.66422 0.8067 0.64634 0.0
C208 C 0.69044 0.84306 0.63169 0.0
O209 O 0.6535 0.84062 0.57141 0.0
Mg210 Mg 0.91289 0.92049 0.36325 0.0
O211 O 0.90501 0.91199 0.42688 0.0
O212 O 0.91332 0.92211 0.48363 0.0
Mg213 Mg 0.9266 0.93642 0.45723 0.0
C214 C 0.90619 0.91385 0.4683 0.0
C215 C 0.89435 0.90173 0.32262 0.0
O216 O 0.88699 0.90714 0.35086 0.0
O217 O 0.93088 0.91038 0.37438 0.0
O218 O 0.93877 0.92082 0.43105 0.0
O219 O 0.89789 0.93441 0.36301 0.0
O220 O 0.91577 0.93693 0.39621 0.0
C221 C 0.93939 0.91223 0.40247 0.0
C222 C 0.90488 0.94097 0.38824 0.0
O223 O 0.90558 0.90485 0.32143 0.0
Mg224 Mg 0.67296 0.65765 0.63434 0.0
O225 O 0.66315 0.65038 0.6963 0.0
O226 O 0.6722 0.65915 0.75447 0.0
Mg227 Mg 0.68744 0.67177 0.73048 0.0
C228 C 0.66417 0.65197 0.7379 0.0
C229 C 0.65667 0.65592 0.55302 0.0
O230 O 0.664 0.66514 0.5438 0.0
O231 O 0.66315 0.67595 0.64139 0.0
O232 O 0.67297 0.68426 0.69867 0.0
O233 O 0.68662 0.64239 0.63859 0.0
O234 O 0.68883 0.66043 0.67078 0.0
C235 C 0.66489 0.6848 0.66818 0.0
C236 C 0.69287 0.64946 0.66452 0.0
O237 O 0.65778 0.65054 0.58998 0.0
Mg238 Mg 0.58708 0.42379 0.86971 0.0
O239 O 0.59508 0.41329 0.92929 0.0
O240 O 0.58633 0.42144 0.98926 0.0
Mg241 Mg 0.57301 0.43649 0.96921 0.0
C242 C 0.59366 0.41382 0.97114 0.0
C243 C 0.59458 0.41435 0.78157 0.0
O244 O 0.59048 0.42556 0.77545 0.0
O245 O 0.56915 0.41317 0.87607 0.0
O246 O 0.56098 0.42192 0.93581 0.0
O247 O 0.60186 0.43792 0.87565 0.0
O248 O 0.58391 0.43896 0.90925 0.0
C249 C 0.56048 0.41423 0.90408 0.0
C250 C 0.59468 0.44351 0.90312 0.0
O251 O 0.59457 0.41001 0.82045 0.0
Mg252 Mg 0.82356 0.33708 0.12121 0.0
O253 O 0.83366 0.34412 0.18309 0.0
O254 O 0.82416 0.33579 0.24129 0.0
Mg255 Mg 0.80834 0.32384 0.21779 0.0
C256 C 0.83251 0.3426 0.22473 0.0
C257 C 0.84103 0.35461 0.06937 0.0
O258 O 0.83463 0.36284 0.09114 0.0
O259 O 0.83256 0.31841 0.12934 0.0
O260 O 0.82241 0.31064 0.18694 0.0
O261 O 0.81053 0.35293 0.12446 0.0
O262 O 0.80778 0.33512 0.15815 0.0
C263 C 0.83049 0.30973 0.15654 0.0
C264 C 0.80425 0.34621 0.15144 0.0
O265 O 0.83897 0.34331 0.07616 0.0
Mg266 Mg 0.90712 0.57403 0.37626 0.0
O267 O 0.89979 0.58511 0.43551 0.0
O268 O 0.90838 0.5769 0.49567 0.0
Mg269 Mg 0.92079 0.56106 0.476 0.0
C270 C 0.90136 0.58477 0.4773 0.0
C271 C 0.90619 0.58841 0.2908 0.0
O272 O 0.9157 0.58112 0.28595 0.0
O273 O 0.92554 0.58372 0.38188 0.0
O274 O 0.93354 0.57486 0.44169 0.0
O275 O 0.89168 0.56068 0.38269 0.0
O276 O 0.90953 0.55885 0.41653 0.0
C277 C 0.93426 0.58238 0.40949 0.0
C278 C 0.89856 0.5548 0.41036 0.0
O279 O 0.90035 0.58819 0.32707 0.0
Mg280 Mg 0.66927 0.33339 0.38 0.0
O281 O 0.66124 0.34136 0.31579 0.0
O282 O 0.67136 0.33279 0.25957 0.0
Mg283 Mg 0.68541 0.31935 0.28697 0.0
C284 C 0.6632 0.34009 0.27447 0.0
C285 C 0.65083 0.35253 0.41825 0.0
O286 O 0.65649 0.35949 0.38934 0.0
O287 O 0.65888 0.31554 0.36863 0.0
O288 O 0.66962 0.30743 0.31303 0.0
O289 O 0.68369 0.34798 0.38108 0.0
O290 O 0.6858 0.33002 0.34831 0.0
C291 C 0.66087 0.30692 0.34103 0.0
C292 C 0.69023 0.3407 0.35688 0.0
O293 O 0.65364 0.34124 0.42075 0.0
Mg294 Mg 0.91133 0.42115 0.63151 0.0
O295 O 0.90403 0.41156 0.56914 0.0
O296 O 0.9122 0.42129 0.51122 0.0
Mg297 Mg 0.92456 0.43666 0.53581 0.0
C298 C 0.90536 0.41293 0.52753 0.0
C299 C 0.89345 0.4034 0.6801 0.0
O300 O 0.88547 0.40972 0.65687 0.0
O301 O 0.92982 0.41189 0.62244 0.0
O302 O 0.93756 0.42217 0.56512 0.0
O303 O 0.89568 0.43431 0.62958 0.0
O304 O 0.91345 0.43733 0.59625 0.0
C305 C 0.93844 0.41393 0.59495 0.0
C306 C 0.90238 0.44095 0.60362 0.0
O307 O 0.90482 0.40557 0.67525 0.0
Mg308 Mg 0.82603 0.66258 0.88948 0.0
O309 O 0.83467 0.65618 0.82404 0.0
O310 O 0.82388 0.66467 0.76924 0.0
Mg311 Mg 0.80896 0.6767 0.79889 0.0
C312 C 0.83258 0.65782 0.78297 0.0
C313 C 0.84589 0.64448 0.92515 0.0
O314 O 0.84053 0.63728 0.89623 0.0
O315 O 0.835 0.68129 0.88169 0.0
O316 O 0.82392 0.68934 0.82689 0.0
O317 O 0.81304 0.64678 0.88723 0.0
O318 O 0.8093 0.66495 0.85779 0.0
C319 C 0.83254 0.69007 0.85533 0.0
C320 C 0.80597 0.65372 0.86363 0.0
O321 O 0.8423 0.65553 0.92871 0.0
Mg322 Mg 0.58378 0.57563 0.14563 0.0
O323 O 0.59142 0.5843 0.08213 0.0
O324 O 0.58314 0.57428 0.02511 0.0
Mg325 Mg 0.57013 0.55968 0.05159 0.0
C326 C 0.59019 0.58257 0.04068 0.0
C327 C 0.58872 0.59062 0.22785 0.0
O328 O 0.58212 0.58135 0.24212 0.0
O329 O 0.56561 0.58553 0.13529 0.0
O330 O 0.55776 0.57497 0.07884 0.0
O331 O 0.59893 0.56183 0.14481 0.0
O332 O 0.58093 0.55923 0.11262 0.0
C333 C 0.55704 0.58352 0.10756 0.0
C334 C 0.59187 0.55525 0.11995 0.0
O335 O 0.59111 0.59133 0.18696 0.0
Mg336 Mg 0.32675 0.3348 0.38778 0.0
O337 O 0.33577 0.34126 0.3231 0.0
O338 O 0.32535 0.33273 0.26747 0.0
Mg339 Mg 0.31024 0.3207 0.29591 0.0
C340 C 0.33394 0.33961 0.28187 0.0
C341 C 0.34676 0.3526 0.42532 0.0
O342 O 0.34173 0.36008 0.39655 0.0
O343 O 0.33574 0.3161 0.38048 0.0
O344 O 0.32497 0.30797 0.32507 0.0
O345 O 0.31373 0.35056 0.38484 0.0
O346 O 0.31021 0.33242 0.35493 0.0
C347 C 0.33343 0.30728 0.35415 0.0
C348 C 0.30679 0.34362 0.36079 0.0
O349 O 0.34286 0.34166 0.42816 0.0
Mg350 Mg 0.40957 0.57593 0.1193 0.0
O351 O 0.40142 0.58625 0.05961 0.0
O352 O 0.41035 0.5782 0.99982 0.0
Mg353 Mg 0.42372 0.5632 0.02012 0.0
C354 C 0.40291 0.58575 0.0178 0.0
C355 C 0.40775 0.59002 0.20463 0.0
O356 O 0.41736 0.58287 0.20974 0.0
O357 O 0.42736 0.58663 0.11237 0.0
O358 O 0.43581 0.57786 0.05316 0.0
O359 O 0.39493 0.5617 0.11456 0.0
O360 O 0.41276 0.56068 0.08015 0.0
C361 C 0.43613 0.5856 0.08477 0.0
C362 C 0.40207 0.55604 0.08717 0.0
O363 O 0.40213 0.58988 0.16792 0.0
Mg364 Mg 0.17362 0.65627 0.87638 0.0
O365 O 0.16273 0.64908 0.81653 0.0
O366 O 0.17101 0.65786 0.75687 0.0
Mg367 Mg 0.18667 0.67041 0.77763 0.0
C368 C 0.16316 0.65073 0.7748 0.0
C369 C 0.16373 0.64819 0.96372 0.0
O370 O 0.17527 0.6511 0.97066 0.0
O371 O 0.16372 0.67459 0.87152 0.0
O372 O 0.1727 0.68287 0.81238 0.0
O373 O 0.18717 0.641 0.86916 0.0
O374 O 0.18884 0.65907 0.8368 0.0
C375 C 0.16508 0.68343 0.84436 0.0
C376 C 0.19301 0.64812 0.84219 0.0
O377 O 0.15947 0.64914 0.92488 0.0
Mg378 Mg 0.08758 0.4245 0.6385 0.0
O379 O 0.09472 0.41518 0.57537 0.0
O380 O 0.08642 0.42506 0.51804 0.0
Mg381 Mg 0.07395 0.44019 0.54379 0.0
C382 C 0.09333 0.41669 0.53385 0.0
C383 C 0.10551 0.40525 0.68034 0.0
O384 O 0.11316 0.41031 0.65221 0.0
O385 O 0.06912 0.41504 0.62971 0.0
O386 O 0.06127 0.42546 0.57292 0.0
O387 O 0.10311 0.43788 0.63598 0.0
O388 O 0.08513 0.44074 0.604 0.0
C389 C 0.06047 0.41711 0.60235 0.0
C390 C 0.09619 0.44447 0.61064 0.0
O391 O 0.09443 0.40883 0.68119 0.0
Mg392 Mg 0.32479 0.66147 0.60528 0.0
O393 O 0.33346 0.65501 0.67046 0.0
O394 O 0.32271 0.6633 0.72571 0.0
Mg395 Mg 0.30766 0.67528 0.69626 0.0
C396 C 0.33143 0.65653 0.71161 0.0
C397 C 0.34476 0.64355 0.56937 0.0
O398 O 0.33936 0.63622 0.59779 0.0
O399 O 0.33364 0.68023 0.61352 0.0
O400 O 0.32242 0.68817 0.66812 0.0
O401 O 0.31184 0.64562 0.60731 0.0
O402 O 0.30807 0.66377 0.63681 0.0
C403 C 0.33105 0.68901 0.63973 0.0
C404 C 0.30475 0.65256 0.63078 0.0
O405 O 0.34114 0.65458 0.56616 0.0
Mg406 Mg 0.08429 0.57394 0.36701 0.0
O407 O 0.09058 0.58354 0.43082 0.0
O408 O 0.0822 0.57335 0.4873 0.0
Mg409 Mg 0.07046 0.55781 0.46032 0.0
C410 C 0.08894 0.58196 0.47219 0.0
C411 C 0.10182 0.59387 0.32776 0.0
O412 O 0.10919 0.58931 0.3579 0.0
O413 O 0.06542 0.58268 0.37351 0.0
O414 O 0.05749 0.57207 0.42967 0.0
O415 O 0.10033 0.56128 0.37131 0.0
O416 O 0.08224 0.55762 0.40153 0.0
C417 C 0.05663 0.58033 0.39995 0.0
C418 C 0.09353 0.55443 0.3962 0.0
O419 O 0.09094 0.58979 0.3248 0.0
Mg420 Mg 0.17398 0.33936 0.12728 0.0
O421 O 0.1639 0.34676 0.18867 0.0
O422 O 0.17266 0.33778 0.24706 0.0
Mg423 Mg 0.18784 0.32496 0.22411 0.0
C424 C 0.16477 0.34507 0.2303 0.0
C425 C 0.15858 0.34122 0.04424 0.0
O426 O 0.16562 0.33163 0.03719 0.0
O427 O 0.16384 0.3212 0.13358 0.0
O428 O 0.17332 0.31274 0.19132 0.0
O429 O 0.18778 0.35444 0.13244 0.0
O430 O 0.1896 0.33639 0.16487 0.0
C431 C 0.16535 0.31232 0.16044 0.0
C432 C 0.1938 0.34731 0.15888 0.0
O433 O 0.15936 0.34674 0.08103 0.0
Mg434 Mg 0.41249 0.41925 0.874 0.0
O435 O 0.40464 0.409 0.9343 0.0
O436 O 0.41325 0.41755 0.99378 0.0
Mg437 Mg 0.42621 0.43282 0.97256 0.0
C438 C 0.40606 0.40972 0.9761 0.0
C439 C 0.41122 0.40429 0.79009 0.0
O440 O 0.42094 0.41126 0.78468 0.0
O441 O 0.43059 0.40912 0.88157 0.0
O442 O 0.43871 0.41834 0.9405 0.0
O443 O 0.39744 0.43304 0.87791 0.0
O444 O 0.41523 0.43478 0.91227 0.0
C445 C 0.43929 0.41049 0.90927 0.0
C446 C 0.40439 0.43904 0.905 0.0
O447 O 0.40542 0.40487 0.82637 0.0
H448 H 0.28618 0.16421 0.29887 0.0
H449 H 0.26784 0.15774 0.25978 0.0
H450 H 0.27249 0.12088 0.30849 0.0
H451 H 0.2912 0.12727 0.34768 0.0
H452 H 0.26537 0.13667 0.19471 0.0
H453 H 0.23682 0.13369 0.34708 0.0
H454 H 0.2507 0.14274 0.34629 0.0
H455 H 0.25163 0.12633 0.34476 0.0
C456 C 0.28349 0.15468 0.30087 0.0
C457 C 0.29023 0.14624 0.32613 0.0
C458 C 0.27297 0.151 0.27852 0.0
C459 C 0.26887 0.13885 0.28124 0.0
C460 C 0.27556 0.13031 0.30609 0.0
H461 H 0.19816 0.1304 0.13809 0.0
H462 H 0.21713 0.12277 0.17264 0.0
C463 C 0.2862 0.13398 0.32841 0.0
C464 C 0.25724 0.13561 0.25926 0.0
H465 H 0.22645 0.13537 0.27938 0.0
C466 C 0.25686 0.13592 0.21305 0.0
C467 C 0.2462 0.13469 0.28348 0.0
C468 C 0.24623 0.13434 0.33318 0.0
C469 C 0.24563 0.13634 0.19054 0.0
C470 C 0.23462 0.13652 0.21498 0.0
C471 C 0.23497 0.13517 0.26091 0.0
C472 C 0.22308 0.14067 0.19457 0.0
C473 C 0.24556 0.13767 0.14107 0.0
C474 C 0.2203 0.1532 0.19562 0.0
C475 C 0.20961 0.15757 0.17598 0.0
C476 C 0.20146 0.14946 0.15507 0.0
C477 C 0.20427 0.13686 0.15404 0.0
C478 C 0.21504 0.13248 0.17375 0.0
H479 H 0.25476 0.13598 0.12648 0.0
H480 H 0.23887 0.13118 0.12629 0.0
H481 H 0.24261 0.14711 0.13224 0.0
H482 H 0.22648 0.15963 0.21138 0.0
H483 H 0.20783 0.16733 0.17689 0.0
H484 H 0.08723 0.94906 0.4948 0.0
H485 H 0.09113 0.96983 0.5209 0.0
H486 H 0.11534 0.97615 0.41082 0.0
H487 H 0.11164 0.95516 0.38478 0.0
H488 H 0.12318 0.98746 0.49157 0.0
H489 H 0.07465 0.99764 0.45073 0.0
H490 H 0.0763 0.98494 0.48791 0.0
H491 H 0.08226 0.98382 0.43273 0.0
C492 C 0.09348 0.95478 0.47635 0.0
C493 C 0.09891 0.95057 0.43723 0.0
C494 C 0.09573 0.96665 0.49138 0.0
C495 C 0.10327 0.97458 0.46715 0.0
C496 C 0.10942 0.97016 0.42977 0.0
H497 H 0.09037 0.05229 0.50348 0.0
H498 H 0.09515 0.03274 0.46819 0.0
C499 C 0.10728 0.95819 0.41496 0.0
C500 C 0.10374 0.98774 0.47878 0.0
H501 H 0.08518 0.01252 0.49359 0.0
C502 C 0.11493 0.99302 0.49167 0.0
C503 C 0.09301 0.99502 0.47773 0.0
C504 C 0.0809 0.99011 0.46109 0.0
C505 C 0.11553 0.00533 0.50544 0.0
C506 C 0.10461 0.01236 0.50711 0.0
C507 C 0.09356 0.00714 0.49257 0.0
C508 C 0.10411 0.02496 0.52549 0.0
C509 C 0.12783 0.01064 0.5178 0.0
C510 C 0.10792 0.02727 0.56895 0.0
C511 C 0.10533 0.03854 0.58892 0.0
C512 C 0.09861 0.04749 0.56611 0.0
C513 C 0.09533 0.04542 0.52204 0.0
C514 C 0.09814 0.03429 0.50179 0.0
H515 H 0.13541 0.00585 0.50036 0.0
H516 H 0.12833 0.02058 0.51005 0.0
H517 H 0.12932 0.00942 0.55372 0.0
H518 H 0.11225 0.02015 0.58833 0.0
H519 H 0.1079 0.03993 0.62306 0.0
H520 H 0.2092 0.82821 0.83301 0.0
H521 H 0.22766 0.83584 0.79703 0.0
H522 H 0.21804 0.87289 0.83254 0.0
H523 H 0.19928 0.86532 0.86873 0.0
H524 H 0.22665 0.86056 0.72728 0.0
H525 H 0.25645 0.85924 0.8763 0.0
H526 H 0.24449 0.84789 0.8714 0.0
H527 H 0.24048 0.86371 0.87877 0.0
C528 C 0.2109 0.838 0.83297 0.0
C529 C 0.20272 0.84617 0.85342 0.0
C530 C 0.22147 0.84232 0.8125 0.0
C531 C 0.22412 0.85489 0.81215 0.0
C532 C 0.21607 0.86315 0.83254 0.0
H533 H 0.29072 0.86845 0.65086 0.0
H534 H 0.27232 0.87471 0.69216 0.0
C535 C 0.20541 0.85881 0.85319 0.0
C536 C 0.23547 0.85902 0.79045 0.0
H537 H 0.2664 0.85846 0.80663 0.0
C538 C 0.23536 0.86058 0.74459 0.0
C539 C 0.24673 0.85897 0.81342 0.0
C540 C 0.24715 0.85743 0.86278 0.0
C541 C 0.24636 0.86104 0.72057 0.0
C542 C 0.25763 0.85989 0.74325 0.0
C543 C 0.25772 0.85938 0.78946 0.0
C544 C 0.26902 0.85669 0.7196 0.0
C545 C 0.24588 0.86161 0.67092 0.0
C546 C 0.2732 0.84456 0.72169 0.0
C547 C 0.28355 0.84096 0.69819 0.0
C548 C 0.29004 0.84947 0.67234 0.0
C549 C 0.28591 0.8617 0.67054 0.0
C550 C 0.27544 0.86529 0.69406 0.0
H551 H 0.23633 0.86228 0.65831 0.0
H552 H 0.25112 0.86969 0.65913 0.0
H553 H 0.25024 0.85329 0.65672 0.0
H554 H 0.26827 0.83778 0.74096 0.0
H555 H 0.28633 0.83145 0.69985 0.0
H556 H 0.39149 0.03753 0.87473 0.0
H557 H 0.38772 0.01789 0.91168 0.0
H558 H 0.40345 0.03237 0.03148 0.0
H559 H 0.40762 0.05176 0.99409 0.0
H560 H 0.41447 0.01231 0.00914 0.0
H561 H 0.36455 0.00362 0.00021 0.0
H562 H 0.37087 0.00692 0.94694 0.0
H563 H 0.37111 0.01852 0.98921 0.0
C564 C 0.39387 0.03656 0.90923 0.0
C565 C 0.40005 0.046 0.93145 0.0
C566 C 0.39163 0.02538 0.93045 0.0
C567 C 0.39524 0.02366 0.9745 0.0
C568 C 0.40064 0.03346 0.99745 0.0
H569 H 0.38938 0.95509 0.12474 0.0
H570 H 0.38535 0.97583 0.09652 0.0
C571 C 0.4031 0.0445 0.97602 0.0
C572 C 0.39513 0.01125 0.99461 0.0
H573 H 0.3774 0.98592 0.01343 0.0
C574 C 0.4063 0.00664 0.01061 0.0
C575 C 0.38447 0.00385 0.99686 0.0
C576 C 0.37205 0.00854 0.9828 0.0
C577 C 0.40721 0.99475 0.02758 0.0
C578 C 0.39675 0.98709 0.0273 0.0
C579 C 0.38545 0.99178 0.01285 0.0
C580 C 0.39765 0.9741 0.04091 0.0
C581 C 0.41942 0.9905 0.04556 0.0
C582 C 0.4055 0.96617 0.01795 0.0
C583 C 0.40792 0.95447 0.0342 0.0
C584 C 0.40239 0.9504 0.07335 0.0
C585 C 0.39382 0.95802 0.09459 0.0
C586 C 0.3915 0.96984 0.07853 0.0
H587 H 0.42535 -0.00163 0.05495 0.0
H588 H 0.41817 0.98452 0.07485 0.0
H589 H 0.4243 0.98517 0.01982 0.0
H590 H 0.41011 0.96921 0.98824 0.0
H591 H 0.41427 0.94873 0.01636 0.0
H592 H 0.79205 0.87046 0.83946 0.0
H593 H 0.77321 0.87692 0.80133 0.0
H594 H 0.76957 0.84073 0.74556 0.0
H595 H 0.78807 0.83419 0.78351 0.0
H596 H 0.76576 0.86209 0.68479 0.0
H597 H 0.73846 0.86288 0.84047 0.0
H598 H 0.75282 0.87105 0.83736 0.0
H599 H 0.75278 0.85461 0.8373 0.0
C600 C 0.78727 0.86393 0.81876 0.0
C601 C 0.79159 0.85182 0.81438 0.0
C602 C 0.77654 0.86764 0.79705 0.0
C603 C 0.77006 0.85929 0.77068 0.0
C604 C 0.77453 0.84733 0.76551 0.0
H605 H 0.70809 0.83036 0.67559 0.0
H606 H 0.72685 0.83829 0.70855 0.0
C607 C 0.78514 0.84361 0.78725 0.0
C608 C 0.75818 0.86244 0.7503 0.0
H609 H 0.72758 0.86181 0.77383 0.0
C610 C 0.7574 0.86249 0.70413 0.0
C611 C 0.74734 0.86291 0.77581 0.0
C612 C 0.74777 0.86285 0.82552 0.0
C613 C 0.74599 0.86198 0.68283 0.0
C614 C 0.7352 0.86135 0.70847 0.0
C615 C 0.73593 0.86235 0.75446 0.0
C616 C 0.72357 0.85708 0.68904 0.0
C617 C 0.74551 0.861 0.63328 0.0
C618 C 0.71556 0.86509 0.6672 0.0
C619 C 0.70471 0.86058 0.64843 0.0
C620 C 0.7018 0.84802 0.65137 0.0
C621 C 0.70994 0.84009 0.67325 0.0
C622 C 0.72068 0.84459 0.69202 0.0
H623 H 0.75463 0.86259 0.6179 0.0
H624 H 0.74225 0.85171 0.62385 0.0
H625 H 0.73889 0.86777 0.61983 0.0
H626 H 0.71772 0.87476 0.66459 0.0
H627 H 0.69863 0.86691 0.63168 0.0
H628 H 0.91751 0.95643 0.44235 0.0
H629 H 0.91026 0.97526 0.47652 0.0
H630 H 0.875 0.97072 0.41423 0.0
H631 H 0.88212 0.95151 0.38037 0.0
H632 H 0.88761 0.99486 0.40393 0.0
H633 H 0.88393 0.97947 0.57747 0.0
H634 H 0.89775 0.97446 0.55061 0.0
H635 H 0.88314 0.96901 0.53127 0.0
C636 C 0.90814 0.95924 0.43645 0.0
C637 C 0.90035 0.95236 0.40911 0.0
C638 C 0.90401 0.97003 0.45605 0.0
C639 C 0.89204 0.97422 0.44847 0.0
C640 C 0.88422 0.9675 0.42084 0.0
H641 H 0.88004 0.04254 0.59767 0.0
H642 H 0.8737 0.02356 0.56046 0.0
C643 C 0.88832 0.95658 0.40151 0.0
C644 C 0.88825 0.98608 0.4675 0.0
H645 H 0.88749 0.00111 0.56596 0.0
C646 C 0.88721 0.99622 0.43932 0.0
C647 C 0.88756 0.98778 0.51359 0.0
C648 C 0.88803 0.97708 0.54505 0.0
C649 C 0.88669 0.00818 0.4563 0.0
C650 C 0.88731 0.00993 0.50241 0.0
C651 C 0.88712 -0.00027 0.53057 0.0
C652 C 0.89027 0.02203 0.5216 0.0
C653 C 0.88617 0.01886 0.42478 0.0
C654 C 0.9017 0.02732 0.51229 0.0
C655 C 0.9054 0.03798 0.53379 0.0
C656 C 0.89771 0.04364 0.56491 0.0
C657 C 0.88614 0.03844 0.57366 0.0
C658 C 0.88249 0.02764 0.55241 0.0
H659 H 0.88182 0.01619 0.39308 0.0
H660 H 0.881 0.02667 0.4392 0.0
H661 H 0.89565 0.02199 0.41755 0.0
H662 H 0.90797 0.02295 0.48947 0.0
H663 H 0.91443 0.04156 0.52673 0.0
H664 H 0.70777 0.16137 0.2868 0.0
H665 H 0.726 0.15356 0.25033 0.0
H666 H 0.72177 0.11889 0.31692 0.0
H667 H 0.70308 0.12655 0.35302 0.0
H668 H 0.74608 0.13196 0.32336 0.0
H669 H 0.72951 0.12612 0.15207 0.0
H670 H 0.72421 0.14001 0.17771 0.0
H671 H 0.71944 0.12542 0.19944 0.0
C672 C 0.71047 0.152 0.29313 0.0
C673 C 0.70384 0.14455 0.32242 0.0
C674 C 0.72092 0.14754 0.27217 0.0
C675 C 0.72506 0.13559 0.28036 0.0
C676 C 0.71857 0.12808 0.30976 0.0
H677 H 0.79531 0.12633 0.13723 0.0
H678 H 0.77663 0.11852 0.17318 0.0
C679 C 0.70795 0.1325 0.33038 0.0
C680 C 0.7368 0.13165 0.26069 0.0
H681 H 0.75111 0.131 0.16081 0.0
C682 C 0.74719 0.13128 0.28791 0.0
C683 C 0.73818 0.13066 0.21452 0.0
C684 C 0.72722 0.13045 0.1842 0.0
C685 C 0.75901 0.13131 0.26972 0.0
C686 C 0.76037 0.13174 0.22345 0.0
C687 C 0.75001 0.13074 0.19634 0.0
C688 C 0.77197 0.13588 0.20328 0.0
C689 C 0.76998 0.1319 0.29996 0.0
C690 C 0.7753 0.14821 0.20787 0.0
C691 C 0.78574 0.15272 0.18701 0.0
C692 C 0.79316 0.14495 0.16148 0.0
C693 C 0.78982 0.13253 0.15693 0.0
C694 C 0.7792 0.12804 0.17747 0.0
H695 H 0.76778 0.1282 0.33318 0.0
H696 H 0.77782 0.12669 0.28597 0.0
H697 H 0.77285 0.14161 0.3038 0.0
H698 H 0.76966 0.15444 0.22697 0.0
H699 H 0.78783 0.16236 0.19048 0.0
H700 H 0.61922 0.04281 0.88695 0.0
H701 H 0.62627 0.02372 0.92189 0.0
H702 H 0.59023 0.0183 0.9772 0.0
H703 H 0.5831 0.03707 0.94234 0.0
H704 H 0.61212 0.015 0.03731 0.0
H705 H 0.61317 0.98865 0.87968 0.0
H706 H 0.62064 0.00338 0.88335 0.0
H707 H 0.60422 0.00252 0.88457 0.0
C708 C 0.61283 0.03757 0.90677 0.0
C709 C 0.60061 0.0415 0.91207 0.0
C710 C 0.61688 0.0267 0.92666 0.0
C711 C 0.60875 0.01967 0.95209 0.0
C712 C 0.59665 0.02368 0.95794 0.0
H713 H 0.58383 0.95449 0.03751 0.0
H714 H 0.59088 0.9732 0.00207 0.0
C715 C 0.5926 0.03444 0.938 0.0
C716 C 0.61237 0.00779 0.97133 0.0
H717 H 0.61293 0.97736 0.94556 0.0
C718 C 0.61273 0.00676 0.0174 0.0
C719 C 0.61312 0.99713 0.945 0.0
C720 C 0.61276 0.99785 0.89536 0.0
C721 C 0.6128 0.99523 0.03795 0.0
C722 C 0.61252 0.98456 0.01157 0.0
C723 C 0.61318 0.9856 0.96554 0.0
C724 C 0.60907 0.97258 0.03054 0.0
C725 C 0.61208 0.99453 0.08755 0.0
C726 C 0.61705 0.96596 0.05792 0.0
C727 C 0.61304 0.95513 0.07819 0.0
C728 C 0.60101 0.95083 0.07134 0.0
C729 C 0.59318 0.95742 0.04318 0.0
C730 C 0.59719 0.96814 0.02287 0.0
H731 H 0.61188 0.00374 0.10315 0.0
H732 H 0.60371 0.98942 0.09757 0.0
H733 H 0.62014 0.98944 0.10042 0.0
H734 H 0.62626 0.96926 0.06409 0.0
H735 H 0.61929 0.95025 0.09972 0.0
H736 H 0.70435 0.62716 0.65594 0.0
H737 H 0.7236 0.62061 0.69109 0.0
H738 H 0.72577 0.65527 0.759 0.0
H739 H 0.70698 0.66199 0.72351 0.0
H740 H 0.74682 0.6351 0.6834 0.0
H741 H 0.73182 0.62817 0.85602 0.0
H742 H 0.72146 0.62699 0.80959 0.0
H743 H 0.72559 0.64178 0.83121 0.0
C744 C 0.70887 0.63332 0.67875 0.0
C745 C 0.70404 0.64507 0.68726 0.0
C746 C 0.71983 0.62955 0.69882 0.0
C747 C 0.72592 0.63738 0.72823 0.0
C748 C 0.72102 0.64899 0.73716 0.0
H749 H 0.78972 0.66606 0.81163 0.0
H750 H 0.77135 0.65812 0.77625 0.0
C751 C 0.71025 0.65282 0.71675 0.0
C752 C 0.73801 0.63421 0.74687 0.0
H753 H 0.75305 0.63414 0.84541 0.0
C754 C 0.74821 0.63445 0.71873 0.0
C755 C 0.73977 0.63327 0.79289 0.0
C756 C 0.72907 0.63241 0.82422 0.0
C757 C 0.76015 0.63507 0.73582 0.0
C758 C 0.76182 0.63547 0.78197 0.0
C759 C 0.75171 0.63393 0.80999 0.0
C760 C 0.7735 0.63968 0.80137 0.0
C761 C 0.77085 0.63614 0.70453 0.0
C762 C 0.78069 0.63194 0.82769 0.0
C763 C 0.79138 0.63643 0.84765 0.0
C764 C 0.79486 0.64878 0.84206 0.0
C765 C 0.78749 0.65648 0.81599 0.0
C766 C 0.77696 0.65195 0.79571 0.0
H767 H 0.76858 0.63231 0.67159 0.0
H768 H 0.77322 0.64597 0.70027 0.0
H769 H 0.77904 0.63133 0.71778 0.0
H770 H 0.77803 0.62247 0.83283 0.0
H771 H 0.79682 0.63029 0.86776 0.0
H772 H 0.58109 0.45747 0.95922 0.0
H773 H 0.5873 0.47599 0.99783 0.0
H774 H 0.62344 0.47341 0.94076 0.0
H775 H 0.61733 0.45457 0.90199 0.0
H776 H 0.60876 0.47984 0.05819 0.0
H777 H 0.60862 0.50809 0.9047 0.0
H778 H 0.6006 0.49361 0.90728 0.0
H779 H 0.61704 0.49386 0.90611 0.0
C780 C 0.59043 0.46066 0.9553 0.0
C781 C 0.59873 0.45448 0.92769 0.0
C782 C 0.59395 0.47128 0.9774 0.0
C783 C 0.60581 0.47602 0.97211 0.0
C784 C 0.61424 0.46985 0.94512 0.0
H785 H 0.61516 0.54557 0.12114 0.0
H786 H 0.62214 0.52654 0.08557 0.0
C787 C 0.61072 0.45912 0.92305 0.0
C788 C 0.60881 0.48783 0.99331 0.0
H789 H 0.60826 0.51855 0.97223 0.0
C790 C 0.60907 0.48832 0.03951 0.0
C791 C 0.60915 0.49882 0.96862 0.0
C792 C 0.60882 0.49869 0.91891 0.0
C793 C 0.60875 0.4996 0.06177 0.0
C794 C 0.60813 0.51055 0.03703 0.0
C795 C 0.6088 0.51008 0.99091 0.0
C796 C 0.6044 0.52219 0.05781 0.0
C797 C 0.60805 0.49975 0.11141 0.0
C798 C 0.59216 0.52593 0.05381 0.0
C799 C 0.58814 0.53665 0.07412 0.0
C800 C 0.59632 0.54391 0.09857 0.0
C801 C 0.60864 0.54017 0.10245 0.0
C802 C 0.61266 0.52934 0.08217 0.0
H803 H 0.60891 0.49042 0.12584 0.0
H804 H 0.61548 0.50562 0.12491 0.0
H805 H 0.59916 0.50377 0.12194 0.0
H806 H 0.58565 0.52043 0.03538 0.0
H807 H 0.57857 0.53913 0.07099 0.0
H808 H 0.70583 0.32709 0.30665 0.0
H809 H 0.72595 0.33284 0.27918 0.0
H810 H 0.72251 0.36838 0.34033 0.0
H811 H 0.70196 0.36282 0.36697 0.0
H812 H 0.7326 0.36956 0.25604 0.0
H813 H 0.75635 0.33461 0.3562 0.0
H814 H 0.74432 0.32778 0.32426 0.0
H815 H 0.7406 0.33893 0.36605 0.0
C816 C 0.70921 0.33619 0.31392 0.0
C817 C 0.70226 0.3445 0.33897 0.0
C818 C 0.72081 0.33942 0.29855 0.0
C819 C 0.72582 0.35093 0.30858 0.0
C820 C 0.71882 0.35941 0.3326 0.0
H821 H 0.80323 0.35074 0.23894 0.0
H822 H 0.78493 0.35586 0.2821 0.0
C823 C 0.70711 0.35621 0.3478 0.0
C824 C 0.73842 0.35385 0.29377 0.0
H825 H 0.7671 0.34155 0.29123 0.0
C826 C 0.74024 0.36361 0.26432 0.0
C827 C 0.74845 0.34634 0.30568 0.0
C828 C 0.74736 0.33642 0.34019 0.0
C829 C 0.75166 0.36545 0.24382 0.0
C830 C 0.76133 0.35707 0.25214 0.0
C831 C 0.75969 0.3479 0.28416 0.0
C832 C 0.77278 0.35677 0.2256 0.0
C833 C 0.75315 0.37624 0.21317 0.0
C834 C 0.77217 0.35596 0.17937 0.0
C835 C 0.78268 0.35336 0.15475 0.0
C836 C 0.79386 0.3512 0.17612 0.0
C837 C 0.79464 0.35242 0.22199 0.0
C838 C 0.7842 0.35533 0.24653 0.0
H839 H 0.74739 0.38408 0.22409 0.0
H840 H 0.76285 0.37931 0.21125 0.0
H841 H 0.75002 0.3736 0.17968 0.0
H842 H 0.76345 0.3566 0.16242 0.0
H843 H 0.78192 0.35226 0.11935 0.0
H844 H 0.8795 0.45106 0.61332 0.0
H845 H 0.8718 0.47009 0.57993 0.0
H846 H 0.90631 0.47487 0.51258 0.0
H847 H 0.91412 0.45619 0.54613 0.0
H848 H 0.88364 0.49388 0.58996 0.0
H849 H 0.87975 0.47995 0.41517 0.0
H850 H 0.87961 0.46904 0.4601 0.0
H851 H 0.89391 0.47509 0.43992 0.0
C852 C 0.88539 0.45611 0.59102 0.0
C853 C 0.8974 0.45204 0.58205 0.0
C854 C 0.88097 0.46694 0.57197 0.0
C855 C 0.88841 0.47371 0.54318 0.0
C856 C 0.90032 0.4696 0.5339 0.0
H857 H 0.91053 0.54154 0.47335 0.0
H858 H 0.90384 0.52273 0.50876 0.0
C859 C 0.90479 0.4589 0.55322 0.0
C860 C 0.8844 0.48566 0.52543 0.0
H861 H 0.88352 0.50155 0.42873 0.0
C862 C 0.88323 0.49554 0.55473 0.0
C863 C 0.88367 0.48777 0.47955 0.0
C864 C 0.88417 0.47737 0.44684 0.0
C865 C 0.88261 0.50763 0.53912 0.0
C866 C 0.88327 0.50981 0.49325 0.0
C867 C 0.88315 0.49986 0.46394 0.0
C868 C 0.88629 0.52206 0.47552 0.0
C869 C 0.88197 0.51802 0.57185 0.0
C870 C 0.87865 0.5279 0.44477 0.0
C871 C 0.88244 0.53881 0.42455 0.0
C872 C 0.894 0.54389 0.43427 0.0
C873 C 0.90151 0.53804 0.46549 0.0
C874 C 0.89768 0.52728 0.48597 0.0
H875 H 0.87749 0.51505 0.60297 0.0
H876 H 0.89142 0.52107 0.57997 0.0
H877 H 0.87686 0.52597 0.55812 0.0
H878 H 0.8699 0.52389 0.43585 0.0
H879 H 0.87647 0.54306 0.40044 0.0
H880 H 0.29093 0.33124 0.30739 0.0
H881 H 0.27244 0.33897 0.27224 0.0
H882 H 0.27828 0.37445 0.33131 0.0
H883 H 0.2972 0.36685 0.36605 0.0
H884 H 0.25354 0.36209 0.3428 0.0
H885 H 0.2692 0.36532 0.16937 0.0
H886 H 0.27413 0.35161 0.19717 0.0
H887 H 0.27959 0.36628 0.21579 0.0
C888 C 0.2885 0.34076 0.31234 0.0
C889 C 0.29566 0.34847 0.33907 0.0
C890 C 0.2779 0.34516 0.29219 0.0
C891 C 0.27415 0.35731 0.29865 0.0
C892 C 0.28116 0.36507 0.32557 0.0
H893 H 0.20536 0.36958 0.15147 0.0
H894 H 0.22445 0.37603 0.18787 0.0
C895 C 0.29191 0.3607 0.3454 0.0
C896 C 0.2624 0.36136 0.27941 0.0
H897 H 0.2475 0.36203 0.18066 0.0
C898 C 0.25223 0.36249 0.30738 0.0
C899 C 0.26077 0.362 0.23327 0.0
C900 C 0.27152 0.36135 0.20207 0.0
C901 C 0.2403 0.36302 0.29017 0.0
C902 C 0.23861 0.36233 0.24405 0.0
C903 C 0.24884 0.36247 0.21606 0.0
C904 C 0.22656 0.35921 0.22485 0.0
C905 C 0.22955 0.3635 0.32142 0.0
C906 C 0.2216 0.34759 0.2333 0.0
C907 C 0.2109 0.34382 0.2122 0.0
C908 C 0.20486 0.35163 0.18245 0.0
C909 C 0.20976 0.36337 0.17444 0.0
C910 C 0.22062 0.36709 0.19523 0.0
H911 H 0.23219 0.36768 0.35345 0.0
H912 H 0.22183 0.36881 0.30701 0.0
H913 H 0.22629 0.35403 0.32795 0.0
H914 H 0.22623 0.34126 0.25525 0.0
H915 H 0.20757 0.33466 0.21861 0.0
H916 H 0.4149 0.54258 0.02693 0.0
H917 H 0.40915 0.52306 0.99418 0.0
H918 H 0.37483 0.52374 0.06483 0.0
H919 H 0.38047 0.54352 0.09768 0.0
H920 H 0.38879 0.50197 0.07562 0.0
H921 H 0.38364 0.5138 0.89929 0.0
H922 H 0.39745 0.51999 0.9227 0.0
H923 H 0.38278 0.52514 0.94268 0.0
C924 C 0.40601 0.53878 0.03486 0.0
C925 C 0.39811 0.54467 0.06472 0.0
C926 C 0.40271 0.52761 0.01593 0.0
C927 C 0.39148 0.52208 0.02652 0.0
C928 C 0.38347 0.52796 0.05589 0.0
H929 H 0.38233 0.45072 0.89421 0.0
H930 H 0.37594 0.47032 0.92659 0.0
C931 C 0.38672 0.53924 0.07462 0.0
C932 C 0.38886 0.50959 0.01008 0.0
H933 H 0.38904 0.49271 0.91548 0.0
C934 C 0.38852 0.49993 0.04062 0.0
C935 C 0.38833 0.50698 0.96449 0.0
C936 C 0.38794 0.51705 0.9304 0.0
C937 C 0.38873 0.48768 0.02661 0.0
C938 C 0.38941 0.4851 0.98103 0.0
C939 C 0.38866 0.49473 0.95047 0.0
C940 C 0.39255 0.47273 0.96463 0.0
C941 C 0.38877 0.47761 0.06069 0.0
C942 C 0.40401 0.46768 0.97519 0.0
C943 C 0.40773 0.45661 0.95653 0.0
C944 C 0.40004 0.45034 0.92699 0.0
C945 C 0.38844 0.4553 0.91704 0.0
C946 C 0.38476 0.46647 0.9355 0.0
H947 H 0.38436 0.48067 0.09184 0.0
H948 H 0.38393 0.46932 0.04842 0.0
H949 H 0.3984 0.47505 0.06831 0.0
H950 H 0.41027 0.47253 0.99678 0.0
H951 H 0.41677 0.45317 0.96447 0.0
H952 H 0.2963 0.62882 0.63132 0.0
H953 H 0.27741 0.62112 0.66609 0.0
H954 H 0.26916 0.65758 0.71229 0.0
H955 H 0.2877 0.66536 0.67744 0.0
H956 H 0.2681 0.63489 0.77719 0.0
H957 H 0.24082 0.63277 0.62182 0.0
H958 H 0.25637 0.62708 0.62404 0.0
H959 H 0.25357 0.64327 0.62627 0.0
C960 C 0.29046 0.63517 0.64899 0.0
C961 C 0.29354 0.64769 0.65192 0.0
C962 C 0.27972 0.63075 0.66882 0.0
C963 C 0.272 0.6388 0.69179 0.0
C964 C 0.27509 0.65124 0.69491 0.0
H965 H 0.20718 0.66142 0.78588 0.0
H966 H 0.22578 0.65501 0.74823 0.0
C967 C 0.28572 0.65566 0.67504 0.0
C968 C 0.26041 0.63464 0.7119 0.0
H969 H 0.22984 0.63317 0.68879 0.0
C970 C 0.25974 0.63405 0.758 0.0
C971 C 0.24961 0.63362 0.6865 0.0
C972 C 0.25001 0.63419 0.63685 0.0
C973 C 0.24837 0.63347 0.77957 0.0
C974 C 0.2375 0.63351 0.75417 0.0
C975 C 0.23824 0.63309 0.70803 0.0
C976 C 0.22557 0.63656 0.77441 0.0
C977 C 0.24798 0.63394 0.82925 0.0
C978 C 0.21924 0.62822 0.80126 0.0
C979 C 0.20845 0.63185 0.82276 0.0
C980 C 0.20394 0.64388 0.81772 0.0
C981 C 0.21026 0.65207 0.79013 0.0
C982 C 0.22093 0.64843 0.76856 0.0
H983 H 0.2573 0.63414 0.84408 0.0
H984 H 0.24289 0.64223 0.84016 0.0
H985 H 0.24303 0.62579 0.84206 0.0
H986 H 0.22272 0.61902 0.80608 0.0
H987 H 0.20378 0.62534 0.84385 0.0
H988 H 0.0836 0.45981 0.55611 0.0
H989 H 0.09105 0.47808 0.51908 0.0
H990 H 0.12662 0.47328 0.57876 0.0
H991 H 0.11931 0.45449 0.61532 0.0
H992 H 0.11258 0.49821 0.58693 0.0
H993 H 0.11855 0.4806 0.41685 0.0
H994 H 0.1051 0.47495 0.44461 0.0
H995 H 0.12005 0.47099 0.46521 0.0
C996 C 0.09308 0.46239 0.5608 0.0
C997 C 0.1009 0.45555 0.58817 0.0
C998 C 0.09732 0.47289 0.53961 0.0
C999 C 0.10942 0.47686 0.5457 0.0
C1000 C 0.11729 0.4702 0.57331 0.0
H1001 H 0.11712 0.5456 0.39355 0.0
H1002 H 0.12525 0.52746 0.43188 0.0
C1003 C 0.11308 0.45953 0.59419 0.0
C1004 C 0.1132 0.48852 0.52515 0.0
H1005 H 0.1135 0.5021 0.42397 0.0
C1006 C 0.11326 0.49909 0.55139 0.0
C1007 C 0.11416 0.48959 0.47889 0.0
C1008 C 0.11458 0.47842 0.44965 0.0
C1009 C 0.11291 0.51078 0.53211 0.0
C1010 C 0.11246 0.51179 0.48571 0.0
C1011 C 0.11378 0.50127 0.45959 0.0
C1012 C 0.10813 0.52314 0.46435 0.0
C1013 C 0.11206 0.52192 0.56135 0.0
C1014 C 0.0958 0.5265 0.46947 0.0
C1015 C 0.09111 0.53664 0.44725 0.0
C1016 C 0.09867 0.54372 0.41976 0.0
C1017 C 0.11108 0.54036 0.41473 0.0
C1018 C 0.11575 0.53006 0.43663 0.0
H1019 H 0.11594 0.52009 0.59457 0.0
H1020 H 0.11694 0.52984 0.54643 0.0
H1021 H 0.10226 0.52449 0.56543 0.0
H1022 H 0.08973 0.52109 0.49 0.0
H1023 H 0.08148 0.53876 0.45125 0.0
H1024 H 0.13999 0.12239 0.06827 0.0
H1025 H 0.12734 0.11423 0.00828 0.0
H1026 H 0.12616 0.15001 0.94797 0.0
H1027 H 0.13874 0.1583 0.00766 0.0
H1028 H 0.10241 0.12482 0.96755 0.0
H1029 H 0.14401 0.12378 0.86059 0.0
H1030 H 0.14505 0.12344 0.92001 0.0
H1031 H 0.141 0.1374 0.89241 0.0
C1032 C 0.13687 0.12858 0.04267 0.0
C1033 C 0.14049 0.14096 0.04247 0.0
C1034 C 0.12963 0.1239 0.00853 0.0
C1035 C 0.12595 0.13153 0.97376 0.0
C1036 C 0.12899 0.144 0.97457 0.0
H1037 H 0.0994 0.11109 0.71293 0.0
H1038 H 0.1068 0.12282 0.77645 0.0
C1039 C 0.13618 0.1487 0.00871 0.0
C1040 C 0.11985 0.12624 0.93477 0.0
H1041 H 0.12556 0.1168 0.82964 0.0
C1042 C 0.10741 0.12308 0.93727 0.0
C1043 C 0.12644 0.12412 0.89543 0.0
C1044 C 0.13989 0.12728 0.89162 0.0
C1045 C 0.10135 0.11778 0.90113 0.0
C1046 C 0.10804 0.11532 0.86209 0.0
C1047 C 0.12045 0.1187 0.85953 0.0
C1048 C 0.1026 0.10868 0.82424 0.0
C1049 C 0.08783 0.115 0.90499 0.0
C1050 C 0.09784 0.09684 0.83003 0.0
C1051 C 0.09356 0.09016 0.79395 0.0
C1052 C 0.09413 0.09512 0.75121 0.0
C1053 C 0.09884 0.10701 0.74544 0.0
C1054 C 0.10305 0.11373 0.78167 0.0
H1055 H 0.08335 0.12094 0.93 0.0
H1056 H 0.08306 0.11624 0.87295 0.0
H1057 H 0.08663 0.10533 0.91563 0.0
H1058 H 0.09772 0.09261 0.86234 0.0
H1059 H 0.09005 0.08099 0.79952 0.0
H1060 H 0.14148 0.8734 0.94282 0.0
H1061 H 0.12897 0.88152 0.00325 0.0
H1062 H 0.12804 0.84572 0.06349 0.0
H1063 H 0.14048 0.83748 0.00336 0.0
H1064 H 0.1043 0.87132 0.0439 0.0
H1065 H 0.1458 0.87143 0.15142 0.0
H1066 H 0.14689 0.87165 0.09201 0.0
H1067 H 0.14253 0.85782 0.1199 0.0
C1068 C 0.13845 0.8672 0.96851 0.0
C1069 C 0.14209 0.85483 0.96854 0.0
C1070 C 0.13129 0.87185 0.00291 0.0
C1071 C 0.12772 0.86421 0.0378 0.0
C1072 C 0.13079 0.85174 0.03684 0.0
H1073 H 0.10116 0.88509 0.29856 0.0
H1074 H 0.10847 0.87315 0.23536 0.0
C1075 C 0.1379 0.84707 0.00244 0.0
C1076 C 0.12167 0.86948 0.07693 0.0
H1077 H 0.12744 0.87864 0.18236 0.0
C1078 C 0.1093 0.87289 0.0743 0.0
C1079 C 0.12826 0.87139 0.11645 0.0
C1080 C 0.14163 0.86796 0.12043 0.0
C1081 C 0.10331 0.87827 0.11044 0.0
C1082 C 0.11 0.88055 0.14962 0.0
C1083 C 0.12232 0.87688 0.15235 0.0
C1084 C 0.10468 0.88735 0.18732 0.0
C1085 C 0.08986 0.88134 0.10639 0.0
C1086 C 0.1002 0.89929 0.18129 0.0
C1087 C 0.09598 0.90608 0.21717 0.0
C1088 C 0.09632 0.90113 0.25996 0.0
C1089 C 0.10078 0.88915 0.266 0.0
C1090 C 0.10494 0.88232 0.22995 0.0
H1091 H 0.08528 0.87548 0.08136 0.0
H1092 H 0.08503 0.88022 0.13837 0.0
H1093 H 0.08888 0.89103 0.09563 0.0
H1094 H 0.10025 0.90349 0.14894 0.0
H1095 H 0.09268 0.91531 0.21139 0.0
H1096 H 0.37061 0.8924 0.17318 0.0
H1097 H 0.36162 0.88116 0.23516 0.0
H1098 H 0.39704 0.87949 0.29816 0.0
H1099 H 0.40615 0.89069 0.23644 0.0
H1100 H 0.36937 0.85704 0.27602 0.0
H1101 H 0.37298 0.89777 0.3862 0.0
H1102 H 0.37351 0.89906 0.32688 0.0
H1103 H 0.38654 0.89327 0.35641 0.0
C1104 C 0.37653 0.88953 0.19996 0.0
C1105 C 0.38907 0.89254 0.20006 0.0
C1106 C 0.37137 0.8831 0.23528 0.0
C1107 C 0.37866 0.87966 0.27131 0.0
C1108 C 0.39126 0.8822 0.27077 0.0
H1109 H 0.35505 0.85241 0.52926 0.0
H1110 H 0.36771 0.85964 0.46766 0.0
C1111 C 0.39644 0.88857 0.2354 0.0
C1112 C 0.37294 0.87393 0.31035 0.0
H1113 H 0.36432 0.8799 0.41633 0.0
C1114 C 0.3683 0.86198 0.30682 0.0
C1115 C 0.37168 0.88042 0.35044 0.0
C1116 C 0.37636 0.89337 0.35548 0.0
C1117 C 0.36232 0.85634 0.34243 0.0
C1118 C 0.36067 0.86299 0.3821 0.0
C1119 C 0.36559 0.87483 0.3859 0.0
C1120 C 0.35324 0.85813 0.41908 0.0
C1121 C 0.35788 0.84331 0.33727 0.0
C1122 C 0.34088 0.85506 0.41229 0.0
C1123 C 0.33367 0.85092 0.44722 0.0
C1124 C 0.33862 0.8499 0.48987 0.0
C1125 C 0.35098 0.85309 0.49678 0.0
C1126 C 0.35822 0.85719 0.46165 0.0
H1127 H 0.36323 0.83833 0.31172 0.0
H1128 H 0.35855 0.83818 0.3688 0.0
H1129 H 0.34814 0.8434 0.3267 0.0
H1130 H 0.33675 0.85605 0.38001 0.0
H1131 H 0.32417 0.84863 0.44079 0.0
H1132 H 0.37103 0.10487 0.82307 0.0
H1133 H 0.36259 0.11636 0.76066 0.0
H1134 H 0.39747 0.11424 0.69413 0.0
H1135 H 0.40603 0.10279 0.75628 0.0
H1136 H 0.37271 0.13949 0.71611 0.0
H1137 H 0.37062 0.0976 0.61106 0.0
H1138 H 0.37134 0.09678 0.67047 0.0
H1139 H 0.38477 0.10078 0.63948 0.0
C1140 C 0.37695 0.10695 0.79539 0.0
C1141 C 0.38917 0.10283 0.79449 0.0
C1142 C 0.37211 0.11352 0.75984 0.0
C1143 C 0.37939 0.116 0.72279 0.0
C1144 C 0.3917 0.1123 0.72238 0.0
H1145 H 0.35558 0.14268 0.46429 0.0
H1146 H 0.3683 0.13501 0.52504 0.0
C1147 C 0.39657 0.10579 0.75797 0.0
C1148 C 0.37393 0.12197 0.68376 0.0
H1149 H 0.36348 0.11599 0.57997 0.0
C1150 C 0.37074 0.1344 0.6862 0.0
C1151 C 0.3715 0.11529 0.64482 0.0
C1152 C 0.37465 0.10185 0.64102 0.0
C1153 C 0.36503 0.14034 0.65063 0.0
C1154 C 0.36217 0.13354 0.6122 0.0
C1155 C 0.36568 0.12118 0.60944 0.0
C1156 C 0.35484 0.13882 0.57568 0.0
C1157 C 0.36219 0.15384 0.65451 0.0
C1158 C 0.34303 0.14338 0.58397 0.0
C1159 C 0.3358 0.1478 0.54953 0.0
C1160 C 0.34015 0.14759 0.50591 0.0
C1161 C 0.35198 0.14297 0.49755 0.0
C1162 C 0.35925 0.1386 0.53218 0.0
H1163 H 0.36845 0.15843 0.67828 0.0
H1164 H 0.36296 0.15854 0.62213 0.0
H1165 H 0.35267 0.15499 0.66684 0.0
H1166 H 0.33929 0.14331 0.61705 0.0
H1167 H 0.3267 0.1512 0.55712 0.0
H1168 H 0.85643 0.85295 0.95904 0.0
H1169 H 0.86901 0.85987 0.02125 0.0
H1170 H 0.83777 0.85652 0.10773 0.0
H1171 H 0.82526 0.84938 0.04635 0.0
H1172 H 0.86575 0.88007 0.07211 0.0
H1173 H 0.86379 0.83868 0.17746 0.0
H1174 H 0.85923 0.83851 0.12025 0.0
H1175 H 0.84879 0.84391 0.16198 0.0
C1176 C 0.85228 0.85359 0.9914 0.0
C1177 C 0.83986 0.85057 0.99781 0.0
C1178 C 0.85948 0.85753 0.02688 0.0
C1179 C 0.85439 0.85846 0.06929 0.0
C1180 C 0.84199 0.85552 0.0756 0.0
H1181 H 0.87076 0.89349 0.31407 0.0
H1182 H 0.86211 0.88182 0.25253 0.0
C1183 C 0.83482 0.85154 0.04031 0.0
C1184 C 0.86176 0.86326 0.10653 0.0
H1185 H 0.86991 0.85741 0.21325 0.0
C1186 C 0.86683 0.87504 0.10271 0.0
C1187 C 0.86316 0.85667 0.14644 0.0
C1188 C 0.85856 0.84369 0.15167 0.0
C1189 C 0.87282 0.88062 0.13837 0.0
C1190 C 0.87382 0.8742 0.17869 0.0
C1191 C 0.86905 0.8623 0.18226 0.0
C1192 C 0.87936 0.87998 0.21794 0.0
C1193 C 0.87766 0.89352 0.13328 0.0
C1194 C 0.89197 0.88244 0.21929 0.0
C1195 C 0.89696 0.88907 0.2544 0.0
C1196 C 0.88938 0.89337 0.28864 0.0
C1197 C 0.87683 0.89037 0.28812 0.0
C1198 C 0.87187 0.88369 0.25306 0.0
H1199 H 0.87451 0.89788 0.10216 0.0
H1200 H 0.87469 0.8993 0.16146 0.0
H1201 H 0.88784 0.89332 0.13314 0.0
H1202 H 0.89789 0.87953 0.1926 0.0
H1203 H 0.90667 0.89116 0.25388 0.0
H1204 H 0.85541 0.11912 0.07419 0.0
H1205 H 0.86802 0.11042 0.0153 0.0
H1206 H 0.86542 0.14438 0.94294 0.0
H1207 H 0.85307 0.15324 0.00195 0.0
H1208 H 0.86025 0.10699 0.93144 0.0
H1209 H 0.90155 0.13668 0.93077 0.0
H1210 H 0.89082 0.13644 0.97611 0.0
H1211 H 0.88748 0.14518 0.92724 0.0
C1212 C 0.85771 0.12482 0.04613 0.0
C1213 C 0.8532 0.13686 0.04272 0.0
C1214 C 0.86491 0.11983 0.0125 0.0
C1215 C 0.86776 0.12679 0.97492 0.0
C1216 C 0.86358 0.13893 0.97203 0.0
H1217 H 0.8925 0.10611 0.71286 0.0
H1218 H 0.8838 0.11686 0.77676 0.0
C1219 C 0.85644 0.14395 0.00574 0.0
C1220 C 0.87411 0.121 0.93706 0.0
H1221 H 0.89872 0.12375 0.86784 0.0
C1222 C 0.86871 0.1106 0.91781 0.0
C1223 C 0.88513 0.12576 0.91918 0.0
C1224 C 0.89166 0.13656 0.93963 0.0
C1225 C 0.87394 0.10495 0.88082 0.0
C1226 C 0.88483 0.1098 0.8627 0.0
C1227 C 0.89029 0.12015 0.88182 0.0
C1228 C 0.8908 0.10392 0.82455 0.0
C1229 C 0.86777 0.09386 0.86098 0.0
C1230 C 0.89771 0.09323 0.83067 0.0
C1231 C 0.90269 0.0871 0.79448 0.0
C1232 C 0.9008 0.09155 0.75146 0.0
C1233 C 0.89409 0.10245 0.74555 0.0
C1234 C 0.88914 0.10861 0.78192 0.0
H1235 H 0.85866 0.09201 0.87603 0.0
H1236 H 0.86658 0.09514 0.82491 0.0
H1237 H 0.87367 0.08567 0.86593 0.0
H1238 H 0.89906 0.08951 0.86344 0.0
H1239 H 0.90783 0.07875 0.80024 0.0
H1240 H 0.60896 0.10407 0.78383 0.0
H1241 H 0.61841 0.11514 0.72245 0.0
H1242 H 0.58995 0.10217 0.63532 0.0
H1243 H 0.58032 0.0913 0.69648 0.0
H1244 H 0.62752 0.10405 0.64938 0.0
H1245 H 0.59222 0.13805 0.6009 0.0
H1246 H 0.59184 0.13008 0.65308 0.0
H1247 H 0.58636 0.12269 0.60386 0.0
C1248 C 0.60458 0.10377 0.7518 0.0
C1249 C 0.59392 0.09676 0.74499 0.0
C1250 C 0.61 0.11009 0.71677 0.0
C1251 C 0.60482 0.10957 0.67443 0.0
C1252 C 0.59396 0.10292 0.66788 0.0
H1253 H 0.6448 0.11743 0.42925 0.0
H1254 H 0.63222 0.11015 0.49072 0.0
C1255 C 0.58851 0.09663 0.70289 0.0
C1256 C 0.61142 0.11492 0.63634 0.0
H1257 H 0.6083 0.13435 0.54874 0.0
C1258 C 0.62335 0.11075 0.62758 0.0
C1259 C 0.60599 0.12371 0.60812 0.0
C1260 C 0.59344 0.12899 0.61715 0.0
C1261 C 0.62993 0.11494 0.59088 0.0
C1262 C 0.62432 0.12334 0.56163 0.0
C1263 C 0.61249 0.12775 0.57087 0.0
C1264 C 0.63079 0.12792 0.52206 0.0
C1265 C 0.6429 0.11046 0.58408 0.0
C1266 C 0.63366 0.14041 0.51837 0.0
C1267 C 0.64077 0.14461 0.48318 0.0
C1268 C 0.64511 0.13639 0.45101 0.0
C1269 C 0.6417 0.12397 0.45368 0.0
C1270 C 0.63457 0.11979 0.48887 0.0
H1271 H 0.64685 0.10658 0.61485 0.0
H1272 H 0.64292 0.10313 0.55873 0.0
H1273 H 0.64894 0.118 0.57243 0.0
H1274 H 0.63076 0.14684 0.54354 0.0
H1275 H 0.64316 0.15425 0.48197 0.0
H1276 H 0.63931 0.87443 0.57234 0.0
H1277 H 0.62606 0.88279 0.5146 0.0
H1278 H 0.6256 0.84758 0.44976 0.0
H1279 H 0.6386 0.83909 0.5076 0.0
H1280 H 0.63298 0.88418 0.42892 0.0
H1281 H 0.58982 0.8576 0.44191 0.0
H1282 H 0.60109 0.858 0.48555 0.0
H1283 H 0.60317 0.848 0.43896 0.0
C1284 C 0.63618 0.8684 0.54629 0.0
C1285 C 0.64007 0.85612 0.54441 0.0
C1286 C 0.62861 0.87319 0.51334 0.0
C1287 C 0.62476 0.86578 0.4781 0.0
C1288 C 0.62824 0.8534 0.4771 0.0
H1289 H 0.6087 0.89067 0.21392 0.0
H1290 H 0.61699 0.88053 0.27944 0.0
C1291 C 0.63576 0.84859 0.51008 0.0
C1292 C 0.61831 0.87129 0.43999 0.0
H1293 H 0.59304 0.86852 0.3742 0.0
C1294 C 0.62419 0.88083 0.41721 0.0
C1295 C 0.60682 0.86695 0.42494 0.0
C1296 C 0.59979 0.85716 0.44937 0.0
C1297 C 0.61903 0.88597 0.37918 0.0
C1298 C 0.60781 0.88126 0.36297 0.0
C1299 C 0.60175 0.87195 0.38635 0.0
C1300 C 0.60215 0.88616 0.32233 0.0
C1301 C 0.62558 0.89649 0.35693 0.0
C1302 C 0.5908 0.89217 0.32441 0.0
C1303 C 0.586 0.8979 0.28702 0.0
C1304 C 0.59247 0.89768 0.2469 0.0
C1305 C 0.60354 0.8911 0.24441 0.0
C1306 C 0.60832 0.88535 0.28183 0.0
H1307 H 0.63227 0.90098 0.37938 0.0
H1308 H 0.6307 0.89297 0.32797 0.0
H1309 H 0.61895 0.90351 0.3452 0.0
H1310 H 0.58587 0.89282 0.35534 0.0
H1311 H 0.5774 0.90282 0.28999 0.0
H1312 H 0.65387 0.66392 0.46833 0.0
H1313 H 0.64053 0.65533 0.41135 0.0
H1314 H 0.62643 0.62902 0.50463 0.0
H1315 H 0.63973 0.63754 0.56196 0.0
H1316 H 0.64173 0.6302 0.3844 0.0
H1317 H 0.59529 0.64313 0.44366 0.0
H1318 H 0.60907 0.65085 0.46182 0.0
H1319 H 0.60503 0.63617 0.48442 0.0
C1320 C 0.64782 0.6564 0.47694 0.0
C1321 C 0.64789 0.65137 0.51964 0.0
C1322 C 0.64021 0.65153 0.44433 0.0
C1323 C 0.63243 0.64165 0.45397 0.0
C1324 C 0.63223 0.63679 0.49679 0.0
H1325 H 0.58755 0.58985 0.31759 0.0
H1326 H 0.59778 0.6034 0.37001 0.0
C1327 C 0.63989 0.64162 0.5294 0.0
C1328 C 0.62531 0.63572 0.4184 0.0
H1329 H 0.59625 0.62824 0.38629 0.0
C1330 C 0.63178 0.62988 0.38441 0.0
C1331 C 0.61235 0.63531 0.41882 0.0
C1332 C 0.60499 0.64178 0.4539 0.0
C1333 C 0.62566 0.62321 0.35161 0.0
C1334 C 0.61268 0.62264 0.3523 0.0
C1335 C 0.60619 0.62873 0.3858 0.0
C1336 C 0.60575 0.61514 0.32014 0.0
C1337 C 0.63316 0.61639 0.31771 0.0
C1338 C 0.60658 0.61744 0.27471 0.0
C1339 C 0.60084 0.60963 0.24456 0.0
C1340 C 0.59403 0.59948 0.25943 0.0
C1341 C 0.59277 0.59754 0.30502 0.0
C1342 C 0.59858 0.6053 0.33507 0.0
H1343 H 0.64289 0.61539 0.32804 0.0
H1344 H 0.62932 0.60712 0.31159 0.0
H1345 H 0.63301 0.62155 0.28618 0.0
H1346 H 0.61185 0.62516 0.26256 0.0
H1347 H 0.60187 0.61144 0.20965 0.0
H1348 H 0.6024 0.39039 0.78049 0.0
H1349 H 0.61064 0.37898 0.71727 0.0
H1350 H 0.60558 0.41071 0.63444 0.0
H1351 H 0.59735 0.42215 0.69691 0.0
H1352 H 0.59852 0.37571 0.62616 0.0
H1353 H 0.64324 0.40037 0.62714 0.0
H1354 H 0.63346 0.39949 0.67514 0.0
H1355 H 0.62966 0.40971 0.63081 0.0
C1356 C 0.60302 0.39492 0.74878 0.0
C1357 C 0.59928 0.40719 0.74376 0.0
C1358 C 0.60768 0.38838 0.71277 0.0
C1359 C 0.60877 0.39407 0.67147 0.0
C1360 C 0.60488 0.40622 0.66622 0.0
H1361 H 0.64282 0.37626 0.42256 0.0
H1362 H 0.6313 0.3859 0.48242 0.0
C1363 C 0.60017 0.41273 0.70199 0.0
C1364 C 0.61424 0.38747 0.63378 0.0
H1365 H 0.63942 0.38715 0.56712 0.0
C1366 C 0.60748 0.37813 0.61327 0.0
C1367 C 0.62588 0.39075 0.61711 0.0
C1368 C 0.63357 0.40057 0.63874 0.0
C1369 C 0.61201 0.37211 0.57567 0.0
C1370 C 0.62368 0.3754 0.55895 0.0
C1371 C 0.63044 0.3847 0.57982 0.0
C1372 C 0.62927 0.36921 0.52038 0.0
C1373 C 0.60413 0.36253 0.5536 0.0
C1374 C 0.63178 0.35659 0.52155 0.0
C1375 C 0.63829 0.35104 0.48727 0.0
C1376 C 0.64256 0.35805 0.45145 0.0
C1377 C 0.63969 0.37061 0.4497 0.0
C1378 C 0.63312 0.37614 0.48389 0.0
H1379 H 0.59429 0.36363 0.56235 0.0
H1380 H 0.60506 0.36296 0.51718 0.0
H1381 H 0.6071 0.3533 0.56468 0.0
H1382 H 0.62913 0.35112 0.54978 0.0
H1383 H 0.64039 0.34136 0.48975 0.0
H1384 H 0.90759 0.38941 0.73509 0.0
H1385 H 0.90085 0.37809 0.80033 0.0
H1386 H 0.86331 0.38794 0.77254 0.0
H1387 H 0.86991 0.39909 0.70693 0.0
H1388 H 0.88951 0.38853 0.87088 0.0
H1389 H 0.86022 0.35178 0.80201 0.0
H1390 H 0.87084 0.36046 0.76858 0.0
H1391 H 0.85598 0.36666 0.78187 0.0
C1392 C 0.89787 0.38897 0.74236 0.0
C1393 C 0.88928 0.3952 0.71591 0.0
C1394 C 0.89405 0.38251 0.77969 0.0
C1395 C 0.88158 0.38209 0.79107 0.0
C1396 C 0.87295 0.38793 0.76388 0.0
H1397 H 0.84539 0.37783 0.03911 0.0
H1398 H 0.85699 0.3837 0.97356 0.0
C1399 C 0.87675 0.39437 0.72649 0.0
C1400 C 0.87769 0.37659 0.83344 0.0
H1401 H 0.8572 0.35657 0.87866 0.0
C1402 C 0.88258 0.38141 0.8726 0.0
C1403 C 0.86877 0.36719 0.83563 0.0
C1404 C 0.86374 0.36113 0.79474 0.0
C1405 C 0.87837 0.37748 0.91395 0.0
C1406 C 0.86886 0.36868 0.91606 0.0
C1407 C 0.8644 0.36343 0.87696 0.0
C1408 C 0.86294 0.36524 0.9582 0.0
C1409 C 0.88406 0.38287 0.95492 0.0
C1410 C 0.86241 0.35291 0.97126 0.0
C1411 C 0.85571 0.34951 0.00856 0.0
C1412 C 0.84934 0.35838 0.03328 0.0
C1413 C 0.85023 0.37077 0.02092 0.0
C1414 C 0.85691 0.37416 0.98357 0.0
H1415 H 0.8935 0.38629 0.9484 0.0
H1416 H 0.87845 0.39077 0.96616 0.0
H1417 H 0.88445 0.37603 0.982 0.0
H1418 H 0.86697 0.34589 0.95203 0.0
H1419 H 0.85523 0.33988 0.01721 0.0
H1420 H 0.88614 0.60355 0.28791 0.0
H1421 H 0.87769 0.61398 0.22322 0.0
H1422 H 0.90739 0.60007 0.1437 0.0
H1423 H 0.91601 0.58977 0.20817 0.0
H1424 H 0.90151 0.62473 0.12601 0.0
H1425 H 0.86033 0.59473 0.12475 0.0
H1426 H 0.86284 0.6026 0.17597 0.0
H1427 H 0.87374 0.59135 0.15745 0.0
C1428 C 0.89094 0.60281 0.25676 0.0
C1429 C 0.90167 0.59572 0.25307 0.0
C1430 C 0.88607 0.60872 0.21982 0.0
C1431 C 0.8918 0.60759 0.17859 0.0
C1432 C 0.9028 0.60099 0.17521 0.0
H1433 H 0.85466 0.62101 0.92992 0.0
H1434 H 0.86732 0.61213 0.98835 0.0
C1435 C 0.90769 0.59509 0.2121 0.0
C1436 C 0.8861 0.61287 0.13862 0.0
H1437 H 0.86036 0.61145 0.07484 0.0
C1438 C 0.89253 0.62182 0.11467 0.0
C1439 C 0.8745 0.60886 0.1235 0.0
C1440 C 0.86748 0.59877 0.14645 0.0
C1441 C 0.88751 0.6271 0.07649 0.0
C1442 C 0.87569 0.62343 0.0624 0.0
C1443 C 0.8694 0.61429 0.08584 0.0
C1444 C 0.86944 0.62915 0.02425 0.0
C1445 C 0.89493 0.63645 0.05135 0.0
C1446 C 0.8666 0.6417 0.02475 0.0
C1447 C 0.85941 0.64681 0.99138 0.0
C1448 C 0.8548 0.63943 0.95712 0.0
C1449 C 0.85803 0.62695 0.95587 0.0
C1450 C 0.86526 0.62185 0.98923 0.0
H1451 H 0.90489 0.63559 0.05855 0.0
H1452 H 0.89352 0.63551 0.01526 0.0
H1453 H 0.89199 0.6458 0.06127 0.0
H1454 H 0.86952 0.64745 0.0519 0.0
H1455 H 0.85707 0.65645 0.99339 0.0
H1456 H 0.3563 0.37576 0.43182 0.0
H1457 H 0.36957 0.38377 0.49014 0.0
H1458 H 0.37071 0.34798 0.55065 0.0
H1459 H 0.35766 0.33985 0.49225 0.0
H1460 H 0.36331 0.3842 0.57721 0.0
H1461 H 0.40657 0.35822 0.55496 0.0
H1462 H 0.3949 0.35905 0.5128 0.0
H1463 H 0.39327 0.34855 0.55816 0.0
C1464 C 0.35955 0.36954 0.45709 0.0
C1465 C 0.35588 0.35718 0.45748 0.0
C1466 C 0.36713 0.37413 0.49039 0.0
C1467 C 0.37122 0.36644 0.52447 0.0
C1468 C 0.36788 0.35402 0.52419 0.0
H1469 H 0.39066 0.38983 0.78828 0.0
H1470 H 0.38144 0.37997 0.72383 0.0
C1471 C 0.36033 0.34941 0.4909 0.0
C1472 C 0.37798 0.37162 0.56247 0.0
H1473 H 0.40411 0.3687 0.6237 0.0
C1474 C 0.37227 0.38088 0.58718 0.0
C1475 C 0.3897 0.36732 0.57522 0.0
C1476 C 0.39653 0.35782 0.54866 0.0
C1477 C 0.37786 0.38581 0.62483 0.0
C1478 C 0.38935 0.38116 0.63862 0.0
C1479 C 0.39521 0.37209 0.61339 0.0
C1480 C 0.39556 0.38592 0.67845 0.0
C1481 C 0.37147 0.39606 0.64916 0.0
C1482 C 0.40683 0.39203 0.67456 0.0
C1483 C 0.41216 0.39759 0.71132 0.0
C1484 C 0.40632 0.39711 0.75264 0.0
C1485 C 0.39534 0.39045 0.75685 0.0
C1486 C 0.39002 0.38487 0.72005 0.0
H1487 H 0.36439 0.40058 0.62838 0.0
H1488 H 0.36683 0.39226 0.67872 0.0
H1489 H 0.37814 0.40311 0.66025 0.0
H1490 H 0.41128 0.39287 0.64276 0.0
H1491 H 0.42067 0.40258 0.70699 0.0
H1492 H 0.35358 0.62011 0.56354 0.0
H1493 H 0.3666 0.61158 0.50546 0.0
H1494 H 0.36906 0.64725 0.44454 0.0
H1495 H 0.35625 0.65589 0.5027 0.0
H1496 H 0.36022 0.61137 0.41823 0.0
H1497 H 0.40453 0.63556 0.44038 0.0
H1498 H 0.39286 0.63517 0.48262 0.0
H1499 H 0.39161 0.64574 0.43733 0.0
C1500 C 0.35708 0.62619 0.53826 0.0
C1501 C 0.35383 0.63867 0.53763 0.0
C1502 C 0.36451 0.6213 0.50509 0.0
C1503 C 0.36888 0.62881 0.47092 0.0
C1504 C 0.366 0.64134 0.47105 0.0
H1505 H 0.38751 0.60491 0.20691 0.0
H1506 H 0.3785 0.61484 0.27165 0.0
C1507 C 0.35859 0.64625 0.50422 0.0
C1508 C 0.37541 0.62333 0.43295 0.0
H1509 H 0.40164 0.62514 0.37176 0.0
C1510 C 0.36932 0.61431 0.40826 0.0
C1511 C 0.3873 0.62714 0.42022 0.0
C1512 C 0.39452 0.63635 0.44676 0.0
C1513 C 0.37469 0.60915 0.37063 0.0
C1514 C 0.38637 0.61331 0.35685 0.0
C1515 C 0.3926 0.62212 0.38207 0.0
C1516 C 0.39238 0.60831 0.31699 0.0
C1517 C 0.36788 0.59918 0.34629 0.0
C1518 C 0.40342 0.60181 0.32082 0.0
C1519 C 0.40863 0.59621 0.28392 0.0
C1520 C 0.40289 0.59704 0.24249 0.0
C1521 C 0.3921 0.60402 0.23841 0.0
C1522 C 0.38691 0.60964 0.27537 0.0
H1523 H 0.36062 0.59495 0.36707 0.0
H1524 H 0.3634 0.60317 0.31674 0.0
H1525 H 0.37425 0.59186 0.33518 0.0
H1526 H 0.40781 0.60075 0.35265 0.0
H1527 H 0.41699 0.59096 0.28816 0.0
H1528 H 0.17094 0.64348 0.04797 0.0
H1529 H 0.15836 0.63628 0.10922 0.0
H1530 H 0.12639 0.63647 0.02539 0.0
H1531 H 0.139 0.64347 0.96337 0.0
H1532 H 0.13815 0.64682 0.14919 0.0
H1533 H 0.12635 0.60171 0.07469 0.0
H1534 H 0.13823 0.61146 0.05261 0.0
H1535 H 0.12237 0.61484 0.04192 0.0
C1536 C 0.16124 0.64198 0.04242 0.0
C1537 C 0.15598 0.64395 0.0007 0.0
C1538 C 0.15406 0.63789 0.07754 0.0
C1539 C 0.14149 0.63571 0.07171 0.0
C1540 C 0.13613 0.63789 0.03034 0.0
H1541 H 0.08956 0.6032 0.25664 0.0
H1542 H 0.09816 0.61505 0.19564 0.0
C1543 C 0.14333 0.64192 0.99501 0.0
C1544 C 0.13412 0.63101 0.10909 0.0
H1545 H 0.11779 0.60615 0.14413 0.0
C1546 C 0.13364 0.63795 0.14805 0.0
C1547 C 0.12825 0.61945 0.10744 0.0
C1548 C 0.12888 0.61136 0.06711 0.0
C1549 C 0.12754 0.63357 0.18563 0.0
C1550 C 0.12191 0.62191 0.18422 0.0
C1551 C 0.1221 0.61512 0.14495 0.0
C1552 C 0.11637 0.61619 0.22369 0.0
C1553 C 0.1272 0.64142 0.22655 0.0
C1554 C 0.12374 0.61307 0.25991 0.0
C1555 C 0.11888 0.60626 0.29481 0.0
C1556 C 0.10656 0.60241 0.29392 0.0
C1557 C 0.09909 0.60599 0.25835 0.0
C1558 C 0.10397 0.61276 0.22344 0.0
H1559 H 0.12894 0.65123 0.21884 0.0
H1560 H 0.1182 0.64062 0.24349 0.0
H1561 H 0.13444 0.63828 0.24969 0.0
H1562 H 0.13339 0.61545 0.26036 0.0
H1563 H 0.12488 0.60365 0.32168 0.0
H1564 H 0.09236 0.39453 0.74669 0.0
H1565 H 0.10026 0.38224 0.80775 0.0
H1566 H 0.13661 0.38392 0.75187 0.0
H1567 H 0.12884 0.3964 0.6909 0.0
H1568 H 0.11298 0.35989 0.81232 0.0
H1569 H 0.14087 0.39875 0.87536 0.0
H1570 H 0.12917 0.40068 0.83385 0.0
H1571 H 0.14399 0.39472 0.81907 0.0
C1572 C 0.10202 0.3922 0.74711 0.0
C1573 C 0.11001 0.39659 0.71423 0.0
C1574 C 0.10651 0.38516 0.78202 0.0
C1575 C 0.11905 0.38239 0.78471 0.0
C1576 C 0.12694 0.38619 0.7508 0.0
H1577 H 0.15649 0.33252 0.96023 0.0
H1578 H 0.14573 0.34202 0.8985 0.0
C1579 C 0.12247 0.39327 0.71589 0.0
C1580 C 0.12393 0.37601 0.82404 0.0
H1581 H 0.14361 0.37956 0.91054 0.0
C1582 C 0.11966 0.36417 0.8339 0.0
C1583 C 0.13244 0.38174 0.85255 0.0
C1584 C 0.13682 0.39472 0.84504 0.0
C1585 C 0.12391 0.35779 0.87112 0.0
C1586 C 0.13278 0.36336 0.89869 0.0
C1587 C 0.13685 0.37529 0.88923 0.0
C1588 C 0.13823 0.35695 0.937 0.0
C1589 C 0.11876 0.34524 0.88088 0.0
C1590 C 0.13765 0.36223 0.97915 0.0
C1591 C 0.1439 0.35689 0.01451 0.0
C1592 C 0.1509 0.3462 0.00823 0.0
C1593 C 0.15116 0.34074 0.96624 0.0
C1594 C 0.14494 0.3461 0.93091 0.0
H1595 H 0.1097 0.34386 0.86482 0.0
H1596 H 0.12513 0.33817 0.86792 0.0
H1597 H 0.11772 0.34378 0.91691 0.0
H1598 H 0.13256 0.37064 0.98447 0.0
H1599 H 0.14351 0.36132 0.04643 0.0
H1600 H 0.16462 0.2926 0.21549 0.0
H1601 H 0.1557 0.27258 0.20104 0.0
H1602 H 0.14096 0.28576 0.07789 0.0
H1603 H 0.15014 0.30596 0.09167 0.0
H1604 H 0.13195 0.26351 0.1822 0.0
H1605 H 0.16418 0.25805 0.04042 0.0
H1606 H 0.16583 0.27047 0.07919 0.0
H1607 H 0.15356 0.27067 0.03973 0.0
C1608 C 0.15938 0.29135 0.18549 0.0
C1609 C 0.15831 0.30083 0.15432 0.0
C1610 C 0.1542 0.27989 0.17744 0.0
C1611 C 0.14783 0.27764 0.13811 0.0
C1612 C 0.14601 0.28728 0.10814 0.0
H1613 H 0.14981 0.19925 0.07616 0.0
H1614 H 0.14095 0.21984 0.06844 0.0
C1615 C 0.15123 0.29881 0.11616 0.0
C1616 C 0.14447 0.26483 0.12745 0.0
H1617 H 0.15563 0.24034 0.07021 0.0
C1618 C 0.13683 0.25846 0.15685 0.0
C1619 C 0.15073 0.25828 0.09401 0.0
C1620 C 0.15908 0.26464 0.06151 0.0
C1621 C 0.13621 0.24562 0.15637 0.0
C1622 C 0.14355 0.23903 0.12612 0.0
C1623 C 0.15008 0.24543 0.09358 0.0
C1624 C 0.14664 0.22596 0.13312 0.0
C1625 C 0.12832 0.23919 0.18999 0.0
C1626 C 0.15267 0.22258 0.17212 0.0
C1627 C 0.15784 0.21096 0.17642 0.0
C1628 C 0.1571 0.20245 0.14175 0.0
C1629 C 0.15052 0.20561 0.10348 0.0
C1630 C 0.14543 0.21734 0.09903 0.0
H1631 H 0.12011 0.24478 0.19824 0.0
H1632 H 0.12527 0.23005 0.17802 0.0
H1633 H 0.13366 0.23789 0.22079 0.0
H1634 H 0.154 0.22917 0.19841 0.0
H1635 H 0.16278 0.2088 0.20642 0.0
H1636 H 0.94778 0.89785 0.3345 0.0
H1637 H 0.968 0.8881 0.32871 0.0
H1638 H 0.97671 0.90018 0.46043 0.0
H1639 H 0.95668 0.9098 0.46658 0.0
H1640 H 0.98878 0.90183 0.33267 0.0
H1641 H 0.99148 0.86611 0.46043 0.0
H1642 H 0.977 0.87184 0.43979 0.0
H1643 H 0.98502 0.87984 0.48315 0.0
C1644 C 0.95389 0.89814 0.36262 0.0
C1645 C 0.95069 0.90472 0.40084 0.0
C1646 C 0.96542 0.89254 0.35928 0.0
C1647 C 0.97379 0.89325 0.39437 0.0
C1648 C 0.97031 0.89923 0.43334 0.0
H1649 H 0.0409 0.90923 0.48 0.0
H1650 H 0.02066 0.90078 0.46554 0.0
C1651 C 0.95888 0.90489 0.43659 0.0
C1652 C 0.98682 0.88978 0.38842 0.0
H1653 H 0.01067 0.87746 0.44612 0.0
C1654 C 0.99359 0.89614 0.35638 0.0
C1655 C 0.99303 0.88227 0.41913 0.0
C1656 C 0.9862 0.87453 0.45223 0.0
C1657 C 0.00645 0.8964 0.35766 0.0
C1658 C 0.01264 0.88993 0.39147 0.0
C1659 C 0.0059 0.8825 0.42048 0.0
C1660 C 0.02555 0.8928 0.40261 0.0
C1661 C 0.01321 0.90458 0.32562 0.0
C1662 C 0.03516 0.89071 0.37277 0.0
C1663 C 0.04681 0.89567 0.38077 0.0
C1664 C 0.04898 0.90274 0.41882 0.0
C1665 C 0.03953 0.90399 0.45008 0.0
C1666 C 0.02795 0.89908 0.44201 0.0
H1667 H 0.00686 0.90997 0.30447 0.0
H1668 H 0.01925 0.91106 0.34366 0.0
H1669 H 0.01907 0.89887 0.30385 0.0
H1670 H 0.03353 0.8857 0.3425 0.0
H1671 H 0.05392 0.89442 0.35623 0.0
H1672 H 0.33297 0.7925 0.70624 0.0
H1673 H 0.34201 0.77246 0.69377 0.0
H1674 H 0.35194 0.78306 0.56148 0.0
H1675 H 0.34267 0.80329 0.57357 0.0
H1676 H 0.33839 0.76252 0.56308 0.0
H1677 H 0.37543 0.75708 0.68442 0.0
H1678 H 0.36212 0.76313 0.71137 0.0
H1679 H 0.36957 0.77198 0.66881 0.0
C1680 C 0.33729 0.79071 0.67472 0.0
C1681 C 0.33696 0.79945 0.64071 0.0
C1682 C 0.34263 0.77926 0.66784 0.0
C1683 C 0.34785 0.7763 0.62693 0.0
C1684 C 0.34809 0.78521 0.59349 0.0
H1685 H 0.34635 0.6967 0.57308 0.0
H1686 H 0.35479 0.71737 0.56271 0.0
C1687 C 0.34277 0.79675 0.60043 0.0
C1688 C 0.351 0.76334 0.61764 0.0
H1689 H 0.36336 0.73833 0.66853 0.0
C1690 C 0.34422 0.75724 0.58498 0.0
C1691 C 0.3587 0.75648 0.64593 0.0
C1692 C 0.36696 0.76257 0.67924 0.0
C1693 C 0.34377 0.74439 0.5834 0.0
C1694 C 0.35039 0.73753 0.61504 0.0
C1695 C 0.3582 0.74363 0.64459 0.0
C1696 C 0.34736 0.72453 0.6236 0.0
C1697 C 0.33527 0.73829 0.55078 0.0
C1698 C 0.34083 0.72164 0.66204 0.0
C1699 C 0.33601 0.70993 0.66804 0.0
C1700 C 0.33764 0.70083 0.63574 0.0
C1701 C 0.34485 0.70352 0.59845 0.0
C1702 C 0.34967 0.71532 0.59239 0.0
H1703 H 0.33008 0.74504 0.53065 0.0
H1704 H 0.34069 0.73241 0.52814 0.0
H1705 H 0.32861 0.73232 0.56832 0.0
H1706 H 0.33895 0.72863 0.68651 0.0
H1707 H 0.33063 0.70814 0.69739 0.0
H1708 H 0.45763 0.08822 0.96963 0.0
H1709 H 0.47804 0.09631 0.95613 0.0
H1710 H 0.46743 0.10661 0.8242 0.0
H1711 H 0.44684 0.0983 0.83733 0.0
H1712 H 0.48705 0.09182 0.82485 0.0
H1713 H 0.49549 0.12862 0.94481 0.0
H1714 H 0.48877 0.11576 0.97253 0.0
H1715 H 0.48016 0.12369 0.93044 0.0
C1716 C 0.4595 0.09246 0.93803 0.0
C1717 C 0.45065 0.09247 0.90436 0.0
C1718 C 0.47117 0.09725 0.93054 0.0
C1719 C 0.47424 0.10224 0.88935 0.0
C1720 C 0.46521 0.10292 0.8564 0.0
H1721 H 0.55333 0.09566 0.82992 0.0
H1722 H 0.53311 0.10521 0.82047 0.0
C1723 C 0.45346 0.09815 0.86395 0.0
C1724 C 0.48733 0.10454 0.87911 0.0
H1725 H 0.51336 0.11539 0.92783 0.0
C1726 C 0.49281 0.09734 0.84621 0.0
C1727 C 0.49482 0.11183 0.9067 0.0
C1728 C 0.48945 0.12051 0.94025 0.0
C1729 C 0.5056 0.09607 0.84373 0.0
C1730 C 0.51304 0.1023 0.87467 0.0
C1731 C 0.50761 0.11053 0.90444 0.0
C1732 C 0.52588 0.09849 0.88235 0.0
C1733 C 0.51097 0.08714 0.81094 0.0
C1734 C 0.52862 0.09198 0.92095 0.0
C1735 C 0.54007 0.08653 0.92645 0.0
C1736 C 0.54907 0.08751 0.89344 0.0
C1737 C 0.54657 0.09466 0.85583 0.0
C1738 C 0.53503 0.10011 0.85031 0.0
H1739 H 0.50378 0.0823 0.79161 0.0
H1740 H 0.51699 0.09214 0.78757 0.0
H1741 H 0.51665 0.08019 0.82822 0.0
H1742 H 0.52167 0.09062 0.94606 0.0
H1743 H 0.54172 0.08122 0.95606 0.0
H1744 H 0.16348 0.78731 0.80185 0.0
H1745 H 0.1546 0.76697 0.80952 0.0
H1746 H 0.14206 0.77602 0.9404 0.0
H1747 H 0.15103 0.79657 0.93301 0.0
H1748 H 0.15666 0.75544 0.93713 0.0
H1749 H 0.12059 0.75157 0.81079 0.0
H1750 H 0.13411 0.75844 0.78787 0.0
H1751 H 0.12592 0.76621 0.83131 0.0
C1752 C 0.15863 0.7851 0.83199 0.0
C1753 C 0.15807 0.79351 0.86699 0.0
C1754 C 0.15341 0.77349 0.83611 0.0
C1755 C 0.14749 0.77004 0.87526 0.0
C1756 C 0.14645 0.77857 0.9097 0.0
H1757 H 0.15036 0.68992 0.91437 0.0
H1758 H 0.14155 0.71021 0.92918 0.0
C1759 C 0.1516 0.79029 0.90543 0.0
C1760 C 0.14435 0.75697 0.88194 0.0
H1761 H 0.13232 0.73272 0.82574 0.0
C1762 C 0.15098 0.75044 0.9139 0.0
C1763 C 0.13684 0.75052 0.85186 0.0
C1764 C 0.12886 0.75709 0.81885 0.0
C1765 C 0.15152 0.73759 0.91305 0.0
C1766 C 0.14506 0.73117 0.87977 0.0
C1767 C 0.13735 0.73767 0.85097 0.0
C1768 C 0.14822 0.71834 0.86867 0.0
C1769 C 0.15996 0.73109 0.94487 0.0
C1770 C 0.15435 0.71607 0.82889 0.0
C1771 C 0.15932 0.70455 0.82024 0.0
C1772 C 0.15828 0.69503 0.85128 0.0
C1773 C 0.15144 0.69709 0.88997 0.0
C1774 C 0.14643 0.70868 0.89857 0.0
H1775 H 0.16524 0.7376 0.96575 0.0
H1776 H 0.15448 0.7251 0.96691 0.0
H1777 H 0.16656 0.72521 0.92667 0.0
H1778 H 0.15583 0.7234 0.80533 0.0
H1779 H 0.16439 0.70328 0.78986 0.0
H1780 H 0.45792 0.90542 0.02493 0.0
H1781 H 0.47818 0.89678 0.03682 0.0
H1782 H 0.46808 0.8867 0.16947 0.0
H1783 H 0.44763 0.89554 0.15792 0.0
H1784 H 0.48793 0.9012 0.1673 0.0
H1785 H 0.49517 0.86418 0.0472 0.0
H1786 H 0.48846 0.87711 0.01983 0.0
H1787 H 0.48 0.86934 0.06266 0.0
C1788 C 0.45986 0.9011 0.05633 0.0
C1789 C 0.45122 0.90132 0.09068 0.0
C1790 C 0.47143 0.89599 0.0629 0.0
C1791 C 0.47462 0.89093 0.10386 0.0
C1792 C 0.46576 0.89044 0.13745 0.0
H1793 H 0.554 0.8969 0.15756 0.0
H1794 H 0.53378 0.8875 0.16859 0.0
C1795 C 0.4541 0.89551 0.1308 0.0
C1796 C 0.48772 0.88842 0.11321 0.0
H1797 H 0.51331 0.87722 0.06257 0.0
C1798 C 0.49349 0.89559 0.14557 0.0
C1799 C 0.49495 0.88101 0.08513 0.0
C1800 C 0.48927 0.87238 0.05211 0.0
C1801 C 0.5063 0.89673 0.14697 0.0
C1802 C 0.51347 0.89038 0.11552 0.0
C1803 C 0.50777 0.88218 0.08634 0.0
C1804 C 0.52632 0.89402 0.10679 0.0
C1805 C 0.51196 0.90566 0.17914 0.0
C1806 C 0.52893 0.90034 0.06766 0.0
C1807 C 0.5404 0.90569 0.06122 0.0
C1808 C 0.54953 0.90481 0.09382 0.0
C1809 C 0.54714 0.89783 0.13195 0.0
C1810 C 0.5356 0.89247 0.13838 0.0
H1811 H 0.50495 0.91067 0.19868 0.0
H1812 H 0.51799 0.90061 0.20238 0.0
H1813 H 0.5177 0.91246 0.16133 0.0
H1814 H 0.52189 0.90164 0.04288 0.0
H1815 H 0.54195 0.91086 0.03125 0.0
H1816 H 0.34399 0.19234 0.42128 0.0
H1817 H 0.35351 0.21245 0.43388 0.0
H1818 H 0.33947 0.22512 0.30898 0.0
H1819 H 0.33019 0.2052 0.29579 0.0
H1820 H 0.36373 0.23342 0.32832 0.0
H1821 H 0.33089 0.24133 0.46676 0.0
H1822 H 0.34096 0.22828 0.46924 0.0
H1823 H 0.32889 0.22871 0.42901 0.0
C1824 C 0.34311 0.19936 0.39622 0.0
C1825 C 0.33615 0.19723 0.35786 0.0
C1826 C 0.34853 0.21084 0.40354 0.0
C1827 C 0.34704 0.2203 0.37261 0.0
C1828 C 0.34073 0.21794 0.33328 0.0
H1829 H 0.33501 0.28883 0.29407 0.0
H1830 H 0.34323 0.26834 0.30535 0.0
C1831 C 0.33534 0.20655 0.32596 0.0
C1832 C 0.3508 0.23307 0.38203 0.0
H1833 H 0.34009 0.25847 0.4351 0.0
C1834 C 0.35886 0.23888 0.35257 0.0
C1835 C 0.34455 0.24015 0.41406 0.0
C1836 C 0.3358 0.23438 0.4466 0.0
C1837 C 0.35991 0.2517 0.35151 0.0
C1838 C 0.35259 0.25882 0.38019 0.0
C1839 C 0.34562 0.25297 0.4129 0.0
C1840 C 0.34999 0.27191 0.37124 0.0
C1841 C 0.36828 0.25751 0.31792 0.0
C1842 C 0.35108 0.2808 0.40451 0.0
C1843 C 0.34631 0.29259 0.39818 0.0
C1844 C 0.34017 0.29557 0.35878 0.0
C1845 C 0.33962 0.28681 0.32489 0.0
C1846 C 0.34446 0.27512 0.33109 0.0
H1847 H 0.37639 0.2516 0.3115 0.0
H1848 H 0.36326 0.25858 0.28633 0.0
H1849 H 0.37149 0.26669 0.32887 0.0
H1850 H 0.35518 0.27845 0.43594 0.0
H1851 H 0.34686 0.29914 0.42495 0.0
H1852 H 0.95567 0.08537 0.53097 0.0
H1853 H 0.97582 0.09422 0.54388 0.0
H1854 H 0.96443 0.10609 0.67316 0.0
H1855 H 0.94412 0.097 0.66083 0.0
H1856 H 0.98492 0.11775 0.56795 0.0
H1857 H 0.99294 0.08232 0.69778 0.0
H1858 H 0.97999 0.08139 0.66092 0.0
H1859 H 0.98017 0.09262 0.70417 0.0
C1860 C 0.95735 0.08997 0.56204 0.0
C1861 C 0.94834 0.09026 0.59521 0.0
C1862 C 0.96887 0.09512 0.56922 0.0
C1863 C 0.97167 0.10065 0.60968 0.0
C1864 C 0.96249 0.1017 0.64192 0.0
H1865 H 0.05057 0.09858 0.66018 0.0
H1866 H 0.02995 0.10684 0.67273 0.0
C1867 C 0.95089 0.09653 0.63475 0.0
C1868 C 0.9846 0.10394 0.61875 0.0
H1869 H 0.01005 0.09203 0.66811 0.0
C1870 C 0.99041 0.11239 0.59076 0.0
C1871 C 0.99172 0.09704 0.64888 0.0
C1872 C 0.98597 0.08779 0.67963 0.0
C1873 C 0.00324 0.11333 0.58937 0.0
C1874 C 0.01038 0.10548 0.61615 0.0
C1875 C 0.00455 0.09799 0.64739 0.0
C1876 C 0.02349 0.10305 0.60668 0.0
C1877 C 0.00904 0.12223 0.55754 0.0
C1878 C 0.02675 0.09836 0.56523 0.0
C1879 C 0.03843 0.09357 0.55806 0.0
C1880 C 0.04712 0.09331 0.5923 0.0
C1881 C 0.04409 0.09865 0.63311 0.0
C1882 C 0.03232 0.10339 0.64035 0.0
H1883 H 0.00318 0.13049 0.55324 0.0
H1884 H 0.01828 0.12516 0.56882 0.0
H1885 H 0.00996 0.11777 0.52482 0.0
H1886 H 0.02001 0.0977 0.53907 0.0
H1887 H 0.04047 0.0896 0.52617 0.0
H1888 H 0.83428 0.70804 0.79349 0.0
H1889 H 0.84265 0.72855 0.8027 0.0
H1890 H 0.85441 0.71939 0.93443 0.0
H1891 H 0.84595 0.69867 0.92549 0.0
H1892 H 0.83943 0.73958 0.93086 0.0
H1893 H 0.87609 0.74489 0.80754 0.0
H1894 H 0.86291 0.73781 0.78304 0.0
H1895 H 0.871 0.73002 0.8267 0.0
C1896 C 0.83887 0.71027 0.82414 0.0
C1897 C 0.83934 0.70177 0.85892 0.0
C1898 C 0.8438 0.72197 0.82916 0.0
C1899 C 0.84933 0.72545 0.869 0.0
C1900 C 0.85032 0.71683 0.90321 0.0
H1901 H 0.84473 0.80542 0.91182 0.0
H1902 H 0.85371 0.78516 0.92612 0.0
C1903 C 0.84547 0.70502 0.89806 0.0
C1904 C 0.85207 0.73858 0.8765 0.0
H1905 H 0.86375 0.76336 0.8223 0.0
C1906 C 0.8451 0.74481 0.90827 0.0
C1907 C 0.85956 0.74535 0.84725 0.0
C1908 C 0.86791 0.73913 0.81455 0.0
C1909 C 0.84424 0.75765 0.90802 0.0
C1910 C 0.8507 0.76436 0.87553 0.0
C1911 C 0.85871 0.75819 0.84692 0.0
C1912 C 0.84731 0.77718 0.86502 0.0
C1913 C 0.83548 0.76381 0.93961 0.0
C1914 C 0.84123 0.77951 0.82517 0.0
C1915 C 0.83615 0.79099 0.81684 0.0
C1916 C 0.83703 0.80043 0.84825 0.0
C1917 C 0.84379 0.79831 0.88711 0.0
C1918 C 0.8489 0.78675 0.89542 0.0
H1919 H 0.83029 0.75709 0.95992 0.0
H1920 H 0.8407 0.76988 0.96217 0.0
H1921 H 0.82881 0.76957 0.92123 0.0
H1922 H 0.8399 0.77224 0.80125 0.0
H1923 H 0.83115 0.79232 0.78634 0.0
H1924 H 0.66579 0.20488 0.28109 0.0
H1925 H 0.65633 0.22488 0.2917 0.0
H1926 H 0.63997 0.2124 0.41312 0.0
H1927 H 0.64958 0.19225 0.40312 0.0
H1928 H 0.63135 0.23308 0.30614 0.0
H1929 H 0.66237 0.24139 0.44959 0.0
H1930 H 0.66499 0.22884 0.412 0.0
H1931 H 0.6525 0.22816 0.45042 0.0
C1932 C 0.66009 0.20629 0.30989 0.0
C1933 C 0.65862 0.19701 0.34164 0.0
C1934 C 0.65461 0.21772 0.31573 0.0
C1935 C 0.64756 0.22014 0.35339 0.0
C1936 C 0.64549 0.21073 0.38406 0.0
H1937 H 0.64669 0.29855 0.40959 0.0
H1938 H 0.63814 0.27786 0.4178 0.0
C1939 C 0.65098 0.19923 0.37822 0.0
C1940 C 0.64362 0.2329 0.36182 0.0
H1941 H 0.65309 0.25838 0.41726 0.0
C1942 C 0.63582 0.23859 0.33122 0.0
C1943 C 0.64932 0.24004 0.39494 0.0
C1944 C 0.65781 0.23438 0.42864 0.0
C1945 C 0.63441 0.25138 0.33052 0.0
C1946 C 0.64119 0.25861 0.36059 0.0
C1947 C 0.64795 0.25283 0.39404 0.0
C1948 C 0.64353 0.27182 0.35269 0.0
C1949 C 0.62621 0.25705 0.29609 0.0
C1950 C 0.64915 0.27536 0.31306 0.0
C1951 C 0.65408 0.28707 0.30839 0.0
C1952 C 0.65358 0.2955 0.34338 0.0
C1953 C 0.64722 0.29225 0.38203 0.0
C1954 C 0.64232 0.28045 0.38677 0.0
H1955 H 0.61823 0.25102 0.2891 0.0
H1956 H 0.62281 0.2662 0.30652 0.0
H1957 H 0.63143 0.25811 0.2649 0.0
H1958 H 0.6505 0.2688 0.28669 0.0
H1959 H 0.65884 0.2893 0.27807 0.0
H1960 H 0.83158 0.29089 0.21543 0.0
H1961 H 0.83988 0.27046 0.20358 0.0
H1962 H 0.85258 0.28119 0.07455 0.0
H1963 H 0.84415 0.30179 0.08601 0.0
H1964 H 0.83789 0.26094 0.07305 0.0
H1965 H 0.87341 0.25442 0.19997 0.0
H1966 H 0.85987 0.2609 0.22401 0.0
H1967 H 0.86825 0.26946 0.183 0.0
C1968 C 0.83634 0.28902 0.18482 0.0
C1969 C 0.83709 0.29795 0.15151 0.0
C1970 C 0.84123 0.27735 0.1783 0.0
C1971 C 0.84704 0.27435 0.13846 0.0
C1972 C 0.84827 0.28337 0.10574 0.0
H1973 H 0.84515 0.19492 0.07968 0.0
H1974 H 0.85358 0.21567 0.07076 0.0
C1975 C 0.84342 0.29512 0.11235 0.0
C1976 C 0.84996 0.26134 0.1292 0.0
H1977 H 0.86165 0.23598 0.17982 0.0
C1978 C 0.84344 0.25548 0.09533 0.0
C1979 C 0.8573 0.25428 0.15804 0.0
C1980 C 0.8652 0.26014 0.19298 0.0
C1981 C 0.8429 0.24264 0.09281 0.0
C1982 C 0.8492 0.23556 0.12468 0.0
C1983 C 0.85675 0.24144 0.15565 0.0
C1984 C 0.84605 0.22253 0.13198 0.0
C1985 C 0.83465 0.23679 0.0588 0.0
C1986 C 0.83947 0.21943 0.17008 0.0
C1987 C 0.83468 0.20768 0.17528 0.0
C1988 C 0.83639 0.19874 0.14248 0.0
C1989 C 0.84361 0.20163 0.1054 0.0
C1990 C 0.8484 0.21347 0.10017 0.0
H1991 H 0.82958 0.2437 0.03895 0.0
H1992 H 0.84025 0.23113 0.03603 0.0
H1993 H 0.82789 0.23066 0.07507 0.0
H1994 H 0.83756 0.22629 0.19501 0.0
H1995 H 0.82931 0.20575 0.20452 0.0
H1996 H 0.64936 0.69126 0.60047 0.0
H1997 H 0.64044 0.71157 0.58677 0.0
H1998 H 0.65615 0.72479 0.70828 0.0
H1999 H 0.66484 0.70466 0.72267 0.0
H2000 H 0.63237 0.73414 0.69097 0.0
H2001 H 0.66387 0.73887 0.54675 0.0
H2002 H 0.65311 0.72636 0.54717 0.0
H2003 H 0.66558 0.72653 0.58585 0.0
C2004 C 0.65073 0.69844 0.62464 0.0
C2005 C 0.65801 0.69639 0.6623 0.0
C2006 C 0.64565 0.71004 0.61666 0.0
C2007 C 0.64781 0.71971 0.64617 0.0
C2008 C 0.65439 0.71745 0.68505 0.0
H2009 H 0.66338 0.78902 0.70951 0.0
H2010 H 0.6546 0.76859 0.70354 0.0
C2011 C 0.65943 0.70593 0.69307 0.0
C2012 C 0.64456 0.73254 0.63535 0.0
H2013 H 0.65552 0.75674 0.576 0.0
C2014 C 0.63714 0.73906 0.66502 0.0
C2015 C 0.65067 0.73892 0.60115 0.0
C2016 C 0.6588 0.73239 0.56839 0.0
C2017 C 0.63659 0.75191 0.66388 0.0
C2018 C 0.64376 0.75833 0.63269 0.0
C2019 C 0.65009 0.75177 0.60008 0.0
C2020 C 0.64689 0.77144 0.63855 0.0
C2021 C 0.62891 0.75852 0.69772 0.0
C2022 C 0.64548 0.77988 0.60395 0.0
C2023 C 0.65058 0.79163 0.60721 0.0
C2024 C 0.65736 0.79501 0.6448 0.0
C2025 C 0.65829 0.78669 0.68001 0.0
C2026 C 0.65312 0.77504 0.67688 0.0
H2027 H 0.62074 0.75298 0.70693 0.0
H2028 H 0.63444 0.75994 0.72801 0.0
H2029 H 0.62581 0.7676 0.68544 0.0
H2030 H 0.64084 0.77721 0.57386 0.0
H2031 H 0.64971 0.79784 0.5795 0.0
H2032 H 0.5535 0.39992 0.83356 0.0
H2033 H 0.53336 0.39038 0.82174 0.0
H2034 H 0.52168 0.40275 0.95008 0.0
H2035 H 0.54165 0.41203 0.96251 0.0
H2036 H 0.51293 0.37901 0.92769 0.0
H2037 H 0.50453 0.4135 0.79493 0.0
H2038 H 0.51741 0.4033 0.78953 0.0
H2039 H 0.51746 0.41485 0.83171 0.0
C2040 C 0.5467 0.4004 0.85956 0.0
C2041 C 0.54911 0.40694 0.89866 0.0
C2042 C 0.5352 0.39498 0.85268 0.0
C2043 C 0.52598 0.39604 0.88476 0.0
C2044 C 0.52866 0.40184 0.92485 0.0
H2045 H 0.4577 0.40753 0.96904 0.0
H2046 H 0.47803 0.39914 0.95594 0.0
C2047 C 0.54008 0.40723 0.93176 0.0
C2048 C 0.51311 0.39251 0.87582 0.0
H2049 H 0.48752 0.40395 0.82596 0.0
C2050 C 0.50739 0.38418 0.90453 0.0
C2051 C 0.50591 0.39916 0.8452 0.0
C2052 C 0.51156 0.40825 0.81359 0.0
C2053 C 0.49456 0.38319 0.90624 0.0
C2054 C 0.48734 0.39085 0.87905 0.0
C2055 C 0.49309 0.39815 0.84702 0.0
C2056 C 0.47427 0.39339 0.88894 0.0
C2057 C 0.48886 0.37447 0.93892 0.0
C2058 C 0.46532 0.39291 0.85571 0.0
C2059 C 0.45363 0.39782 0.86306 0.0
C2060 C 0.4508 0.40347 0.90353 0.0
C2061 C 0.45959 0.40333 0.93741 0.0
C2062 C 0.4712 0.39837 0.93015 0.0
H2063 H 0.49473 0.36623 0.94355 0.0
H2064 H 0.48804 0.3791 0.97136 0.0
H2065 H 0.47958 0.37148 0.92822 0.0
H2066 H 0.46756 0.38924 0.82351 0.0
H2067 H 0.44705 0.39779 0.83627 0.0
H2068 H 0.95286 0.58519 0.4685 0.0
H2069 H 0.97324 0.59334 0.45474 0.0
H2070 H 0.96269 0.60296 0.3221 0.0
H2071 H 0.94212 0.59462 0.3355 0.0
H2072 H 0.98275 0.58852 0.32441 0.0
H2073 H 0.98973 0.62622 0.44217 0.0
H2074 H 0.98323 0.6133 0.47022 0.0
H2075 H 0.97461 0.62081 0.4272 0.0
C2076 C 0.95475 0.58926 0.43664 0.0
C2077 C 0.9459 0.58913 0.40295 0.0
C2078 C 0.96639 0.59408 0.42899 0.0
C2079 C 0.96945 0.59895 0.38761 0.0
C2080 C 0.96047 0.59938 0.35444 0.0
H2081 H 0.04896 0.59502 0.33148 0.0
H2082 H 0.02837 0.60366 0.32065 0.0
C2083 C 0.94874 0.59459 0.36215 0.0
C2084 C 0.9825 0.60156 0.3777 0.0
H2085 H 0.00803 0.61354 0.42638 0.0
C2086 C 0.98828 0.59435 0.34552 0.0
C2087 C 0.98967 0.60925 0.40498 0.0
C2088 C 0.98394 0.61792 0.43772 0.0
C2089 C 0.00111 0.59349 0.3435 0.0
C2090 C 0.00827 0.60015 0.37418 0.0
C2091 C 0.0025 0.60835 0.40319 0.0
C2092 C 0.02121 0.59683 0.38247 0.0
C2093 C 0.00687 0.58458 0.31153 0.0
C2094 C 0.02407 0.59054 0.42144 0.0
C2095 C 0.03572 0.5856 0.42769 0.0
C2096 C 0.0448 0.58688 0.39511 0.0
C2097 C 0.04214 0.5938 0.35709 0.0
C2098 C 0.03039 0.59873 0.35078 0.0
H2099 H -0.0001 0.57944 0.29216 0.0
H2100 H 0.01285 0.58964 0.28818 0.0
H2101 H 0.01269 0.57788 0.32953 0.0
H2102 H 0.01709 0.58898 0.44627 0.0
H2103 H 0.03748 0.58046 0.45759 0.0
H2104 H 0.95704 0.4128 0.53511 0.0
H2105 H 0.97748 0.40444 0.546 0.0
H2106 H 0.96706 0.3914 0.67493 0.0
H2107 H 0.94645 0.3999 0.66445 0.0
H2108 H 0.98701 0.4062 0.67687 0.0
H2109 H 0.99418 0.37134 0.54832 0.0
H2110 H 0.98747 0.38482 0.52458 0.0
H2111 H 0.97903 0.3762 0.5653 0.0
C2112 C 0.95897 0.40794 0.56547 0.0
C2113 C 0.95015 0.40715 0.59911 0.0
C2114 C 0.97065 0.403 0.57142 0.0
C2115 C 0.97375 0.39711 0.61101 0.0
C2116 C 0.9648 0.39578 0.64392 0.0
H2117 H 0.05311 0.40133 0.66813 0.0
H2118 H 0.03275 0.39202 0.67701 0.0
C2119 C 0.95304 0.40067 0.63789 0.0
C2120 C 0.98682 0.39437 0.62005 0.0
H2121 H 0.01239 0.38362 0.56813 0.0
C2122 C 0.99257 0.40089 0.65416 0.0
C2123 C 0.99402 0.38735 0.59066 0.0
C2124 C 0.98831 0.37943 0.55548 0.0
C2125 C 0.0054 0.40179 0.65635 0.0
C2126 C 0.01258 0.39586 0.62389 0.0
C2127 C 0.00685 0.38826 0.59273 0.0
C2128 C 0.02549 0.39947 0.61627 0.0
C2129 C 0.01108 0.41007 0.69064 0.0
C2130 C 0.02825 0.40629 0.57837 0.0
C2131 C 0.03979 0.41157 0.57316 0.0
C2132 C 0.04884 0.41015 0.60579 0.0
C2133 C 0.0463 0.40269 0.64258 0.0
C2134 C 0.03468 0.39738 0.64778 0.0
H2135 H 0.00408 0.41486 0.71093 0.0
H2136 H 0.01695 0.40455 0.71299 0.0
H2137 H 0.01698 0.41707 0.67458 0.0
H2138 H 0.02128 0.40801 0.55367 0.0
H2139 H 0.04145 0.41712 0.54414 0.0
H2140 H 0.44302 0.599 0.15737 0.0
H2141 H 0.46321 0.60807 0.17152 0.0
H2142 H 0.47504 0.59738 0.04136 0.0
H2143 H 0.455 0.58852 0.0268 0.0
H2144 H 0.48332 0.59402 0.17372 0.0
H2145 H 0.49124 0.63039 0.05155 0.0
H2146 H 0.47601 0.62499 0.06506 0.0
H2147 H 0.48518 0.61713 0.02435 0.0
C2148 C 0.44982 0.5989 0.13132 0.0
C2149 C 0.44745 0.5929 0.09111 0.0
C2150 C 0.46134 0.60411 0.13946 0.0
C2151 C 0.47059 0.60356 0.10731 0.0
C2152 C 0.46797 0.59822 0.06629 0.0
H2153 H 0.53867 0.58425 0.04683 0.0
H2154 H 0.51851 0.59353 0.05471 0.0
C2155 C 0.45652 0.59299 0.05821 0.0
C2156 C 0.48352 0.60642 0.11846 0.0
H2157 H 0.50946 0.61791 0.07107 0.0
C2158 C 0.48902 0.59962 0.15242 0.0
C2159 C 0.49093 0.61382 0.09096 0.0
C2160 C 0.48547 0.62209 0.05628 0.0
C2161 C 0.50183 0.59881 0.15605 0.0
C2162 C 0.50925 0.60511 0.1252 0.0
C2163 C 0.50374 0.61299 0.0944 0.0
C2164 C 0.52222 0.60159 0.1185 0.0
C2165 C 0.50727 0.59025 0.18994 0.0
C2166 C 0.53116 0.6034 0.15119 0.0
C2167 C 0.54277 0.59801 0.1469 0.0
C2168 C 0.54555 0.59073 0.10988 0.0
C2169 C 0.5368 0.58964 0.07605 0.0
C2170 C 0.52528 0.59503 0.08033 0.0
H2171 H 0.50013 0.58528 0.20902 0.0
H2172 H 0.5133 0.58339 0.17367 0.0
H2173 H 0.51297 0.59557 0.21344 0.0
H2174 H 0.529 0.60856 0.18068 0.0
H2175 H 0.54934 0.5991 0.17339 0.0
H2176 H 0.14437 0.14324 0.20331 0.0
H2177 H 0.13197 0.13283 0.25916 0.0
H2178 H 0.15349 0.14965 0.36198 0.0
H2179 H 0.16602 0.15999 0.30663 0.0
H2180 H 0.15027 0.12446 0.37287 0.0
H2181 H 0.1059 0.14774 0.34072 0.0
H2182 H 0.11281 0.14113 0.29252 0.0
H2183 H 0.12034 0.15358 0.32043 0.0
C2184 C 0.14643 0.14479 0.23778 0.0
C2185 C 0.15619 0.15248 0.25041 0.0
C2186 C 0.13929 0.13889 0.26966 0.0
C2187 C 0.14171 0.14063 0.31467 0.0
C2188 C 0.15143 0.14826 0.3274 0.0
H2189 H 0.10954 0.10548 0.54877 0.0
H2190 H 0.12163 0.11909 0.50121 0.0
C2191 C 0.15858 0.15416 0.29563 0.0
C2192 C 0.13442 0.1341 0.3485 0.0
H2193 H 0.10526 0.13003 0.38677 0.0
C2194 C 0.14045 0.12575 0.3763 0.0
C2195 C 0.12163 0.13587 0.3529 0.0
C2196 C 0.11478 0.14515 0.32536 0.0
C2197 C 0.13393 0.11875 0.40728 0.0
C2198 C 0.12109 0.12032 0.41094 0.0
C2199 C 0.11511 0.12887 0.38385 0.0
C2200 C 0.11357 0.11254 0.44041 0.0
C2201 C 0.14075 0.1094 0.43459 0.0
C2202 C 0.10484 0.10462 0.42201 0.0
C2203 C 0.09792 0.09691 0.44892 0.0
C2204 C 0.09952 0.09698 0.49497 0.0
C2205 C 0.10811 0.10514 0.51347 0.0
C2206 C 0.11506 0.11287 0.48636 0.0
H2207 H 0.15013 0.10765 0.42167 0.0
H2208 H 0.14162 0.11282 0.4689 0.0
H2209 H 0.13566 0.10058 0.43557 0.0
H2210 H 0.10353 0.10425 0.38662 0.0
H2211 H 0.09137 0.09081 0.43341 0.0
H2212 H 0.09362 0.90727 0.57743 0.0
H2213 H 0.10568 0.89389 0.62487 0.0
H2214 H 0.12335 0.87821 0.5109 0.0
H2215 H 0.11137 0.89173 0.46271 0.0
H2216 H 0.10676 0.86803 0.62565 0.0
H2217 H 0.15217 0.88918 0.58992 0.0
H2218 H 0.13788 0.89659 0.57589 0.0
H2219 H 0.14353 0.88415 0.54281 0.0
C2220 C 0.10007 0.90101 0.56221 0.0
C2221 C 0.10156 0.90064 0.51613 0.0
C2222 C 0.10694 0.89334 0.58949 0.0
C2223 C 0.11549 0.88518 0.57143 0.0
C2224 C 0.11692 0.88461 0.52549 0.0
H2225 H 0.16684 0.83625 0.70321 0.0
H2226 H 0.15445 0.84706 0.64862 0.0
C2227 C 0.11003 0.8923 0.49802 0.0
C2228 C 0.12283 0.8773 0.60115 0.0
H2229 H 0.15195 0.87231 0.63851 0.0
C2230 C 0.11665 0.86892 0.6284 0.0
C2231 C 0.13571 0.8785 0.60455 0.0
C2232 C 0.14275 0.88765 0.57704 0.0
C2233 C 0.12302 0.86172 0.65915 0.0
C2234 C 0.13587 0.86311 0.66321 0.0
C2235 C 0.14208 0.87131 0.63535 0.0
C2236 C 0.14305 0.85629 0.6966 0.0
C2237 C 0.11596 0.85262 0.68675 0.0
C2238 C 0.14078 0.85797 0.74175 0.0
C2239 C 0.14785 0.85179 0.7732 0.0
C2240 C 0.15736 0.84388 0.76 0.0
C2241 C 0.15959 0.84225 0.71465 0.0
C2242 C 0.15252 0.84842 0.68331 0.0
H2243 H 0.10696 0.85032 0.67163 0.0
H2244 H 0.12127 0.84402 0.69138 0.0
H2245 H 0.11418 0.85666 0.71971 0.0
H2246 H 0.13367 0.8642 0.75269 0.0
H2247 H 0.14592 0.85332 0.80779 0.0
H2248 H 0.3891 0.8934 0.03756 0.0
H2249 H 0.37657 0.88159 0.98569 0.0
H2250 H 0.3955 0.89844 0.87654 0.0
H2251 H 0.40796 0.91033 0.92773 0.0
H2252 H 0.36984 0.89888 0.86901 0.0
H2253 H 0.38706 0.85221 0.90906 0.0
H2254 H 0.38185 0.86098 0.95558 0.0
H2255 H 0.39509 0.86599 0.92524 0.0
C2256 C 0.39066 0.89453 0.00253 0.0
C2257 C 0.39956 0.90281 0.98688 0.0
C2258 C 0.38353 0.88774 0.97296 0.0
C2259 C 0.38522 0.88905 0.92733 0.0
C2260 C 0.39409 0.89727 0.91165 0.0
H2261 H 0.34873 0.85954 0.69384 0.0
H2262 H 0.36237 0.87069 0.74399 0.0
C2263 C 0.40121 0.90405 0.94106 0.0
C2264 C 0.37747 0.88223 0.89568 0.0
H2265 H 0.36997 0.85343 0.86087 0.0
C2266 C 0.3699 0.88894 0.86702 0.0
C2267 C 0.3776 0.86929 0.89326 0.0
C2268 C 0.38591 0.86166 0.92213 0.0
C2269 C 0.36224 0.88302 0.83654 0.0
C2270 C 0.36234 0.87007 0.83419 0.0
C2271 C 0.36995 0.86337 0.86273 0.0
C2272 C 0.35428 0.86326 0.80345 0.0
C2273 C 0.35386 0.89067 0.80797 0.0
C2274 C 0.34544 0.8552 0.82027 0.0
C2275 C 0.33771 0.84878 0.79183 0.0
C2276 C 0.33868 0.85025 0.74585 0.0
C2277 C 0.34767 0.85825 0.72903 0.0
C2278 C 0.35543 0.86467 0.75763 0.0
H2279 H 0.3528 0.90014 0.82095 0.0
H2280 H 0.3578 0.8913 0.77431 0.0
H2281 H 0.34464 0.88639 0.80536 0.0
H2282 H 0.34444 0.85396 0.85553 0.0
H2283 H 0.33092 0.84269 0.80607 0.0
H2284 H 0.40671 0.08644 0.06823 0.0
H2285 H 0.39413 0.09877 0.11763 0.0
H2286 H 0.37656 0.1158 0.00593 0.0
H2287 H 0.389 0.10332 0.95583 0.0
H2288 H 0.39198 0.12417 0.12555 0.0
H2289 H 0.34765 0.1026 0.07845 0.0
H2290 H 0.3623 0.09606 0.06366 0.0
H2291 H 0.3563 0.1089 0.03341 0.0
C2292 C 0.40019 0.09281 0.05395 0.0
C2293 C 0.39881 0.09381 0.00794 0.0
C2294 C 0.39302 0.09986 0.08235 0.0
C2295 C 0.3843 0.10805 0.06545 0.0
C2296 C 0.38309 0.10935 0.0196 0.0
H2297 H 0.33086 0.15532 0.18998 0.0
H2298 H 0.34441 0.14466 0.13888 0.0
C2299 C 0.39026 0.10226 0.99105 0.0
C2300 C 0.37645 0.11511 0.09612 0.0
H2301 H 0.34673 0.11919 0.12847 0.0
C2302 C 0.38208 0.1231 0.12625 0.0
C2303 C 0.36356 0.11362 0.097 0.0
C2304 C 0.35707 0.10476 0.0667 0.0
C2305 C 0.37514 0.12977 0.15695 0.0
C2306 C 0.36226 0.12825 0.15788 0.0
C2307 C 0.35662 0.12031 0.12763 0.0
C2308 C 0.3544 0.13493 0.18957 0.0
C2309 C 0.38161 0.13854 0.18762 0.0
C2310 C 0.35549 0.13293 0.23512 0.0
C2311 C 0.34774 0.13902 0.26466 0.0
C2312 C 0.33872 0.14717 0.24905 0.0
C2313 C 0.33769 0.14912 0.2033 0.0
C2314 C 0.34543 0.14304 0.17393 0.0
H2315 H 0.39099 0.1408 0.17585 0.0
H2316 H 0.37632 0.14719 0.19122 0.0
H2317 H 0.38243 0.13426 0.22068 0.0
H2318 H 0.36223 0.12653 0.24777 0.0
H2319 H 0.34875 0.13726 0.29961 0.0
H2320 H 0.88962 0.89552 0.45022 0.0
H2321 H 0.8776 0.88356 0.50324 0.0
H2322 H 0.89463 0.9031 0.61057 0.0
H2323 H 0.90657 0.91515 0.55825 0.0
H2324 H 0.8862 0.86843 0.57378 0.0
H2325 H 0.85764 0.90716 0.63414 0.0
H2326 H 0.86639 0.90797 0.58367 0.0
H2327 H 0.8739 0.90984 0.63597 0.0
C2328 C 0.8908 0.89729 0.48509 0.0
C2329 C 0.89902 0.90636 0.4999 0.0
C2330 C 0.88393 0.89044 0.5153 0.0
C2331 C 0.88511 0.8926 0.56072 0.0
C2332 C 0.89342 0.90147 0.57561 0.0
H2333 H 0.8495 0.86189 0.79333 0.0
H2334 H 0.86313 0.87313 0.74332 0.0
C2335 C 0.90028 0.90831 0.54556 0.0
C2336 C 0.87775 0.88548 0.59273 0.0
H2337 H 0.85591 0.88835 0.67274 0.0
C2338 C 0.87955 0.87276 0.59534 0.0
C2339 C 0.86914 0.8912 0.62093 0.0
C2340 C 0.86654 0.90478 0.61844 0.0
C2341 C 0.87303 0.86559 0.62581 0.0
C2342 C 0.86435 0.8713 0.65378 0.0
C2343 C 0.86262 0.88403 0.65138 0.0
C2344 C 0.85654 0.86414 0.68431 0.0
C2345 C 0.8756 0.85201 0.62822 0.0
C2346 C 0.84829 0.85546 0.66758 0.0
C2347 C 0.84051 0.84905 0.69589 0.0
C2348 C 0.84076 0.85124 0.74163 0.0
C2349 C 0.84908 0.85994 0.75835 0.0
C2350 C 0.85687 0.86638 0.72986 0.0
H2351 H 0.88472 0.84971 0.61403 0.0
H2352 H 0.87527 0.84868 0.6628 0.0
H2353 H 0.86853 0.847 0.60905 0.0
H2354 H 0.84771 0.85379 0.63244 0.0
H2355 H 0.83421 0.84245 0.68173 0.0
H2356 H 0.82999 0.15617 0.30826 0.0
H2357 H 0.84284 0.14575 0.36237 0.0
H2358 H 0.86339 0.12867 0.25758 0.0
H2359 H 0.85065 0.13916 0.20289 0.0
H2360 H 0.84568 0.12048 0.37255 0.0
H2361 H 0.89023 0.14312 0.33725 0.0
H2362 H 0.87576 0.14921 0.31821 0.0
H2363 H 0.88287 0.13662 0.2897 0.0
C2364 C 0.83729 0.15027 0.29653 0.0
C2365 C 0.83929 0.14853 0.2511 0.0
C2366 C 0.84462 0.14432 0.3276 0.0
C2367 C 0.85415 0.13658 0.31398 0.0
C2368 C 0.85622 0.13481 0.26875 0.0
H2369 H 0.90462 0.08667 0.43352 0.0
H2370 H 0.8925 0.09996 0.38599 0.0
C2371 C 0.84888 0.14076 0.23755 0.0
C2372 C 0.86154 0.12992 0.3472 0.0
H2373 H 0.89079 0.12563 0.38424 0.0
C2374 C 0.85553 0.12167 0.37545 0.0
C2375 C 0.87436 0.13154 0.35086 0.0
C2376 C 0.8812 0.14068 0.3227 0.0
C2377 C 0.86208 0.11468 0.40633 0.0
C2378 C 0.87494 0.11615 0.40947 0.0
C2379 C 0.88092 0.12455 0.38176 0.0
C2380 C 0.88247 0.10848 0.43931 0.0
C2381 C 0.85525 0.10545 0.43418 0.0
C2382 C 0.88096 0.109 0.48524 0.0
C2383 C 0.88788 0.10135 0.51277 0.0
C2384 C 0.89645 0.0931 0.49472 0.0
C2385 C 0.89808 0.09285 0.44869 0.0
C2386 C 0.89118 0.10047 0.42135 0.0
H2387 H 0.84588 0.10365 0.42131 0.0
H2388 H 0.86034 0.09663 0.43574 0.0
H2389 H 0.85437 0.10904 0.46825 0.0
H2390 H 0.87442 0.11529 0.49976 0.0
H2391 H 0.88644 0.10183 0.54805 0.0
H2392 H 0.6469 0.13574 0.2889 0.0
H2393 H 0.63438 0.12396 0.23684 0.0
H2394 H 0.65228 0.14202 0.12798 0.0
H2395 H 0.66488 0.15372 0.17931 0.0
H2396 H 0.61823 0.1325 0.16943 0.0
H2397 H 0.65691 0.10533 0.10109 0.0
H2398 H 0.6581 0.11382 0.15199 0.0
H2399 H 0.65925 0.12163 0.09997 0.0
C2400 C 0.64817 0.13722 0.25389 0.0
C2401 C 0.65698 0.14562 0.23833 0.0
C2402 C 0.64101 0.13049 0.22423 0.0
C2403 C 0.64258 0.13199 0.17864 0.0
C2404 C 0.65112 0.14056 0.16305 0.0
H2405 H 0.61039 0.09883 0.94516 0.0
H2406 H 0.62183 0.11178 0.99677 0.0
C2407 C 0.65828 0.14727 0.19254 0.0
C2408 C 0.63526 0.12465 0.14715 0.0
H2409 H 0.63779 0.10364 0.06425 0.0
C2410 C 0.62248 0.12615 0.14655 0.0
C2411 C 0.64087 0.11641 0.11731 0.0
C2412 C 0.65452 0.11409 0.11773 0.0
C2413 C 0.61514 0.11974 0.11629 0.0
C2414 C 0.62076 0.1115 0.08643 0.0
C2415 C 0.63354 0.11002 0.08704 0.0
C2416 C 0.6135 0.10402 0.05519 0.0
C2417 C 0.60148 0.12199 0.116 0.0
C2418 C 0.60513 0.09532 0.07106 0.0
C2419 C 0.5986 0.08792 0.0418 0.0
C2420 C 0.60036 0.08901 0.99598 0.0
C2421 C 0.60877 0.09776 0.98018 0.0
C2422 C 0.61532 0.10516 0.00958 0.0
H2423 H 0.59908 0.13079 0.13236 0.0
H2424 H 0.59786 0.12214 0.08179 0.0
H2425 H 0.59682 0.11447 0.13412 0.0
H2426 H 0.60378 0.09413 0.10618 0.0
H2427 H 0.59224 0.08126 0.05524 0.0
H2428 H 0.66654 0.83817 0.80569 0.0
H2429 H 0.65421 0.84894 0.86052 0.0
H2430 H 0.63311 0.8659 0.75685 0.0
H2431 H 0.64528 0.85504 0.70155 0.0
H2432 H 0.65158 0.8741 0.87075 0.0
H2433 H 0.60662 0.85198 0.83837 0.0
H2434 H 0.62091 0.84577 0.81812 0.0
H2435 H 0.6137 0.85841 0.79018 0.0
C2436 C 0.65924 0.84413 0.7944 0.0
C2437 C 0.65689 0.8457 0.74911 0.0
C2438 C 0.6522 0.85028 0.82587 0.0
C2439 C 0.64265 0.85807 0.81276 0.0
C2440 C 0.64028 0.85972 0.76766 0.0
H2441 H 0.59347 0.90896 0.93438 0.0
H2442 H 0.60533 0.89563 0.88609 0.0
C2443 C 0.6473 0.85355 0.73609 0.0
C2444 C 0.6355 0.86486 0.84629 0.0
H2445 H 0.60643 0.86967 0.88448 0.0
C2446 C 0.64173 0.87306 0.8741 0.0
C2447 C 0.62265 0.86344 0.85057 0.0
C2448 C 0.61557 0.85434 0.82303 0.0
C2449 C 0.63539 0.8802 0.90512 0.0
C2450 C 0.62251 0.87894 0.90879 0.0
C2451 C 0.61631 0.87059 0.88153 0.0
C2452 C 0.61522 0.88672 0.93895 0.0
C2453 C 0.64244 0.88932 0.93262 0.0
C2454 C 0.61674 0.886 0.98482 0.0
C2455 C 0.60997 0.89365 0.01275 0.0
C2456 C 0.60153 0.90212 0.99518 0.0
C2457 C 0.59991 0.90261 0.94917 0.0
C2458 C 0.60666 0.89497 0.92142 0.0
H2459 H 0.65184 0.89091 0.91957 0.0
H2460 H 0.63754 0.89825 0.93402 0.0
H2461 H 0.64328 0.88579 0.96679 0.0
H2462 H 0.62318 0.87954 0.99899 0.0
H2463 H 0.6114 0.89299 0.048 0.0
H2464 H 0.60692 0.60063 0.05974 0.0
H2465 H 0.61883 0.61293 0.00751 0.0
H2466 H 0.60161 0.59409 0.89895 0.0
H2467 H 0.58959 0.58186 0.95057 0.0
H2468 H 0.6353 0.60399 0.94293 0.0
H2469 H 0.59721 0.6305 0.86727 0.0
H2470 H 0.59557 0.6224 0.91888 0.0
H2471 H 0.59499 0.61417 0.86759 0.0
C2472 C 0.60559 0.59916 0.02477 0.0
C2473 C 0.59726 0.59027 0.00941 0.0
C2474 C 0.61241 0.60619 0.995 0.0
C2475 C 0.61096 0.60453 0.94944 0.0
C2476 C 0.60268 0.59568 0.93399 0.0
H2477 H 0.6464 0.63504 0.7171 0.0
H2478 H 0.6335 0.62338 0.76827 0.0
C2479 C 0.59587 0.58864 0.96364 0.0
C2480 C 0.61848 0.61167 0.91799 0.0
H2481 H 0.61672 0.63209 0.83288 0.0
C2482 C 0.63126 0.61019 0.91903 0.0
C2483 C 0.61314 0.61967 0.88668 0.0
C2484 C 0.59948 0.62189 0.88512 0.0
C2485 C 0.63887 0.61639 0.88913 0.0
C2486 C 0.63354 0.62444 0.85796 0.0
C2487 C 0.62076 0.62589 0.8568 0.0
C2488 C 0.64115 0.63165 0.82698 0.0
C2489 C 0.65252 0.61409 0.89061 0.0
C2490 C 0.64952 0.64031 0.84311 0.0
C2491 C 0.6569 0.64696 0.81412 0.0
C2492 C 0.65599 0.64515 0.76828 0.0
C2493 C 0.64738 0.63664 0.75216 0.0
C2494 C 0.63999 0.62998 0.78131 0.0
H2495 H 0.65475 0.60541 0.90802 0.0
H2496 H 0.65645 0.61369 0.85686 0.0
H2497 H 0.65705 0.62172 0.90858 0.0
H2498 H 0.65036 0.64192 0.87822 0.0
H2499 H 0.66335 0.65349 0.82777 0.0
H2500 H 0.645 0.35685 0.29181 0.0
H2501 H 0.63306 0.3687 0.2384 0.0
H2502 H 0.65267 0.35146 0.13167 0.0
H2503 H 0.66475 0.33969 0.18451 0.0
H2504 H 0.65092 0.37696 0.12371 0.0
H2505 H 0.60553 0.35589 0.15813 0.0
H2506 H 0.61325 0.36181 0.20592 0.0
H2507 H 0.61976 0.3491 0.17634 0.0
C2508 C 0.64676 0.35554 0.25699 0.0
C2509 C 0.65582 0.34727 0.24252 0.0
C2510 C 0.63987 0.36227 0.22652 0.0
C2511 C 0.64187 0.36081 0.1811 0.0
C2512 C 0.65095 0.35267 0.16658 0.0
H2513 H 0.61074 0.39643 0.94743 0.0
H2514 H 0.6226 0.38307 0.99656 0.0
C2515 C 0.65784 0.34594 0.19693 0.0
C2516 C 0.63473 0.36801 0.14862 0.0
H2517 H 0.60566 0.37342 0.1116 0.0
C2518 C 0.64103 0.37615 0.1208 0.0
C2519 C 0.62185 0.36686 0.1449 0.0
C2520 C 0.61468 0.35787 0.1726 0.0
C2521 C 0.63474 0.38345 0.09013 0.0
C2522 C 0.62184 0.38241 0.08679 0.0
C2523 C 0.61556 0.37417 0.11425 0.0
C2524 C 0.6146 0.39024 0.05656 0.0
C2525 C 0.64189 0.39249 0.06257 0.0
C2526 C 0.60599 0.39846 0.074 0.0
C2527 C 0.59919 0.40602 0.04617 0.0
C2528 C 0.60079 0.40551 0.00015 0.0
C2529 C 0.60931 0.39712 0.98267 0.0
C2530 C 0.61614 0.38952 0.01068 0.0
H2531 H 0.65127 0.39403 0.07579 0.0
H2532 H 0.64277 0.38889 0.02852 0.0
H2533 H 0.63705 0.40145 0.06084 0.0
H2534 H 0.60464 0.39912 0.10931 0.0
H2535 H 0.5927 0.41233 0.06092 0.0
H2536 H 0.88874 0.39484 0.54777 0.0
H2537 H 0.87723 0.38194 0.49621 0.0
H2538 H 0.89503 0.39979 0.38668 0.0
H2539 H 0.90664 0.4126 0.43757 0.0
H2540 H 0.86112 0.39028 0.42996 0.0
H2541 H 0.89945 0.36325 0.35862 0.0
H2542 H 0.90092 0.37175 0.40943 0.0
H2543 H 0.90176 0.37955 0.3573 0.0
C2544 C 0.8903 0.39595 0.51273 0.0
C2545 C 0.89864 0.40476 0.49687 0.0
C2546 C 0.88371 0.38857 0.48335 0.0
C2547 C 0.88543 0.3898 0.43771 0.0
C2548 C 0.89376 0.39853 0.4218 0.0
H2549 H 0.85063 0.35923 0.20447 0.0
H2550 H 0.86359 0.37067 0.25617 0.0
C2551 C 0.90033 0.4059 0.45104 0.0
C2552 C 0.87803 0.38244 0.40652 0.0
H2553 H 0.88014 0.36176 0.32232 0.0
C2554 C 0.86526 0.38397 0.40664 0.0
C2555 C 0.8835 0.37431 0.37595 0.0
C2556 C 0.89715 0.37201 0.37542 0.0
C2557 C 0.85778 0.37773 0.37645 0.0
C2558 C 0.86324 0.36958 0.3459 0.0
C2559 C 0.87602 0.36805 0.34574 0.0
C2560 C 0.85575 0.36238 0.31454 0.0
C2561 C 0.84413 0.38009 0.37689 0.0
C2562 C 0.84728 0.35378 0.33032 0.0
C2563 C 0.83988 0.34726 0.30105 0.0
C2564 C 0.84085 0.34916 0.25527 0.0
C2565 C 0.84961 0.35757 0.23948 0.0
C2566 C 0.85702 0.36411 0.26892 0.0
H2567 H 0.84184 0.38879 0.39412 0.0
H2568 H 0.84042 0.38051 0.34284 0.0
H2569 H 0.83946 0.37249 0.39449 0.0
H2570 H 0.84634 0.35214 0.36539 0.0
H2571 H 0.83332 0.3408 0.31447 0.0
H2572 H 0.83109 0.65944 0.69318 0.0
H2573 H 0.84314 0.64831 0.63852 0.0
H2574 H 0.86339 0.63043 0.74234 0.0
H2575 H 0.85145 0.64162 0.79763 0.0
H2576 H 0.87807 0.6398 0.67148 0.0
H2577 H 0.83905 0.61145 0.61166 0.0
H2578 H 0.83641 0.62772 0.61176 0.0
H2579 H 0.83854 0.61977 0.66308 0.0
C2580 C 0.83811 0.65316 0.70458 0.0
C2581 C 0.84024 0.65137 0.74991 0.0
C2582 C 0.84495 0.64677 0.6732 0.0
C2583 C 0.854 0.63842 0.68645 0.0
C2584 C 0.85638 0.6368 0.73154 0.0
H2585 H 0.90352 0.58741 0.56644 0.0
H2586 H 0.8923 0.60135 0.61441 0.0
C2587 C 0.84954 0.6432 0.76305 0.0
C2588 C 0.86096 0.63135 0.65321 0.0
H2589 H 0.85782 0.60955 0.57325 0.0
C2590 C 0.87366 0.63318 0.64997 0.0
C2591 C 0.85513 0.6228 0.62506 0.0
C2592 C 0.84155 0.6202 0.62813 0.0
C2593 C 0.88073 0.62666 0.61922 0.0
C2594 C 0.87494 0.61795 0.59163 0.0
C2595 C 0.8622 0.61628 0.59435 0.0
C2596 C 0.88203 0.60991 0.56173 0.0
C2597 C 0.89432 0.62922 0.61634 0.0
C2598 C 0.87979 0.60993 0.51616 0.0
C2599 C 0.88617 0.60189 0.48841 0.0
C2600 C 0.89479 0.59362 0.50593 0.0
C2601 C 0.89698 0.59367 0.55167 0.0
C2602 C 0.89064 0.6017 0.57923 0.0
H2603 H 0.89663 0.63841 0.62978 0.0
H2604 H 0.89935 0.62226 0.636 0.0
H2605 H 0.8976 0.62868 0.58173 0.0
H2606 H 0.87309 0.61615 0.50212 0.0
H2607 H 0.88423 0.60207 0.4534 0.0
H2608 H 0.35281 0.3557 0.29801 0.0
H2609 H 0.36524 0.36673 0.24366 0.0
H2610 H 0.34549 0.34901 0.13829 0.0
H2611 H 0.33297 0.33804 0.19198 0.0
H2612 H 0.38031 0.35708 0.17487 0.0
H2613 H 0.34228 0.38579 0.10959 0.0
H2614 H 0.34118 0.37759 0.16115 0.0
H2615 H 0.33933 0.36958 0.10982 0.0
C2616 C 0.35111 0.35414 0.26328 0.0
C2617 C 0.34182 0.34604 0.24942 0.0
C2618 C 0.35822 0.36044 0.23231 0.0
C2619 C 0.35614 0.35881 0.18704 0.0
C2620 C 0.34708 0.35057 0.1731 0.0
H2621 H 0.38863 0.39259 0.9534 0.0
H2622 H 0.37685 0.37935 0.00319 0.0
C2623 C 0.33996 0.34427 0.20393 0.0
C2624 C 0.36348 0.36569 0.1543 0.0
H2625 H 0.3613 0.38704 0.07231 0.0
C2626 C 0.37618 0.36365 0.15247 0.0
C2627 C 0.35802 0.37418 0.12499 0.0
C2628 C 0.34447 0.37703 0.12656 0.0
C2629 C 0.38358 0.36985 0.12188 0.0
C2630 C 0.37814 0.37846 0.09295 0.0
C2631 C 0.36542 0.38039 0.09442 0.0
C2632 C 0.38557 0.38605 0.06257 0.0
C2633 C 0.39713 0.36705 0.12047 0.0
C2634 C 0.39427 0.39425 0.07957 0.0
C2635 C 0.40098 0.40181 0.05139 0.0
C2636 C 0.39909 0.40138 0.0055 0.0
C2637 C 0.39035 0.39313 0.98851 0.0
C2638 C 0.38361 0.38557 0.01687 0.0
H2639 H 0.39921 0.35796 0.1353 0.0
H2640 H 0.40063 0.36718 0.0861 0.0
H2641 H 0.40217 0.37412 0.13959 0.0
H2642 H 0.39573 0.39495 0.1148 0.0
H2643 H 0.40758 0.40806 0.06576 0.0
H2644 H 0.40434 0.58762 0.92822 0.0
H2645 H 0.39219 0.60057 0.87956 0.0
H2646 H 0.37286 0.61535 0.99161 0.0
H2647 H 0.38511 0.60245 0.04107 0.0
H2648 H 0.36653 0.60019 0.87113 0.0
H2649 H 0.3836 0.64612 0.9223 0.0
H2650 H 0.39163 0.63211 0.93563 0.0
H2651 H 0.37815 0.6364 0.96599 0.0
C2652 C 0.39757 0.59366 0.94278 0.0
C2653 C 0.39572 0.59398 0.98869 0.0
C2654 C 0.39063 0.60106 0.9148 0.0
C2655 C 0.38172 0.60898 0.932 0.0
C2656 C 0.37985 0.60943 0.97776 0.0
H2657 H 0.3299 0.6575 0.80161 0.0
H2658 H 0.34202 0.64601 0.85527 0.0
C2659 C 0.38681 0.60201 0.00593 0.0
C2660 C 0.37411 0.61636 0.9015 0.0
H2661 H 0.36756 0.64569 0.8698 0.0
C2662 C 0.36675 0.61014 0.8708 0.0
C2663 C 0.3744 0.62932 0.90134 0.0
C2664 C 0.38243 0.63643 0.9328 0.0
C2665 C 0.35965 0.61655 0.8399 0.0
C2666 C 0.3601 0.62951 0.83921 0.0
C2667 C 0.36731 0.63574 0.87033 0.0
C2668 C 0.3531 0.63674 0.80645 0.0
C2669 C 0.35159 0.60939 0.80867 0.0
C2670 C 0.35549 0.63548 0.76122 0.0
C2671 C 0.34857 0.64202 0.73032 0.0
C2672 C 0.33917 0.64998 0.74419 0.0
C2673 C 0.33703 0.65142 0.78967 0.0
C2674 C 0.34395 0.64488 0.82047 0.0
H2675 H 0.34989 0.59991 0.82072 0.0
H2676 H 0.34261 0.61404 0.8039 0.0
H2677 H 0.35619 0.60874 0.77612 0.0
H2678 H 0.36268 0.62941 0.7498 0.0
H2679 H 0.35052 0.64074 0.69562 0.0
H2680 H 0.14496 0.63455 0.79853 0.0
H2681 H 0.13103 0.62337 0.7495 0.0
H2682 H 0.1478 0.64062 0.63667 0.0
H2683 H 0.1616 0.65192 0.68503 0.0
H2684 H 0.12209 0.64048 0.63375 0.0
H2685 H 0.14105 0.59428 0.67127 0.0
H2686 H 0.13609 0.60298 0.71832 0.0
H2687 H 0.1489 0.60825 0.6862 0.0
C2688 C 0.14568 0.63598 0.7633 0.0
C2689 C 0.15447 0.64409 0.74577 0.0
C2690 C 0.13775 0.62954 0.73534 0.0
C2691 C 0.13852 0.63106 0.68947 0.0
C2692 C 0.1471 0.6393 0.67198 0.0
H2693 H 0.1053 0.6005 0.45466 0.0
H2694 H 0.11666 0.61291 0.50806 0.0
C2695 C 0.155 0.64573 0.69977 0.0
C2696 C 0.13046 0.62406 0.65932 0.0
H2697 H 0.12399 0.59511 0.62346 0.0
C2698 C 0.12247 0.63056 0.6315 0.0
C2699 C 0.13103 0.61112 0.65648 0.0
C2700 C 0.13979 0.60372 0.68434 0.0
C2701 C 0.11497 0.62445 0.60099 0.0
C2702 C 0.11564 0.61153 0.59785 0.0
C2703 C 0.12351 0.60502 0.62601 0.0
C2704 C 0.10831 0.60453 0.56537 0.0
C2705 C 0.1063 0.63184 0.57276 0.0
C2706 C 0.09997 0.59563 0.57994 0.0
C2707 C 0.09352 0.58848 0.54962 0.0
C2708 C 0.09534 0.59005 0.50401 0.0
C2709 C 0.10363 0.59909 0.48949 0.0
C2710 C 0.11009 0.60624 0.51995 0.0
H2711 H 0.10461 0.6411 0.58685 0.0
H2712 H 0.11037 0.63304 0.53951 0.0
H2713 H 0.09736 0.62706 0.56893 0.0
H2714 H 0.09852 0.59414 0.61487 0.0
H2715 H 0.08722 0.58163 0.56207 0.0
H2716 H 0.14741 0.36246 0.2096 0.0
H2717 H 0.13476 0.37436 0.26097 0.0
H2718 H 0.15097 0.3551 0.37058 0.0
H2719 H 0.16368 0.34328 0.32001 0.0
H2720 H 0.1177 0.36591 0.32647 0.0
H2721 H 0.15668 0.39158 0.39996 0.0
H2722 H 0.15796 0.38334 0.34853 0.0
H2723 H 0.15854 0.37521 0.40003 0.0
C2724 C 0.14828 0.36074 0.24462 0.0
C2725 C 0.15665 0.35198 0.26063 0.0
C2726 C 0.14104 0.36754 0.27388 0.0
C2727 C 0.14211 0.36573 0.31952 0.0
C2728 C 0.1502 0.35679 0.3355 0.0
H2729 H 0.10967 0.39828 0.55316 0.0
H2730 H 0.12101 0.38542 0.50098 0.0
C2731 C 0.15742 0.35001 0.30642 0.0
C2732 C 0.13479 0.37315 0.3507 0.0
H2733 H 0.13739 0.39358 0.43543 0.0
C2734 C 0.12197 0.37202 0.35015 0.0
C2735 C 0.14044 0.38106 0.3816 0.0
C2736 C 0.15415 0.38299 0.38247 0.0
C2737 C 0.11463 0.37844 0.38037 0.0
C2738 C 0.12028 0.38632 0.41135 0.0
C2739 C 0.1331 0.38747 0.41179 0.0
C2740 C 0.11306 0.39374 0.44286 0.0
C2741 C 0.10092 0.37654 0.37949 0.0
C2742 C 0.10493 0.40272 0.42737 0.0
C2743 C 0.09845 0.41007 0.45696 0.0
C2744 C 0.10003 0.40863 0.50274 0.0
C2745 C 0.1082 0.39961 0.51817 0.0
C2746 C 0.11469 0.39226 0.48844 0.0
H2747 H 0.09839 0.36791 0.36223 0.0
H2748 H 0.09709 0.37627 0.41341 0.0
H2749 H 0.09655 0.38428 0.36166 0.0
H2750 H 0.10374 0.40418 0.39231 0.0
H2751 H 0.09229 0.41695 0.44382 0.0
loop_
_geom_bond_atom_site_label_1
_geom_bond_atom_site_label_2
_geom_bond_distance
_geom_bond_site_symmetry_2
_ccdc_geom_bond_type
Mg0 O1 2.028 . S
Mg0 O7 1.986 . S
Mg0 O9 2.114 . S
Mg0 O10 2.251 . S
Mg0 O13 2.010 . S
O1 Mg0 2.028 . S
O1 C4 1.250 . S
O2 Mg3 2.028 . S
O2 C4 1.248 . S
Mg3 O2 2.028 . S
Mg3 O8 2.032 . S
Mg3 O10 2.079 . S
C4 O1 1.250 . S
C4 O2 1.248 . S
C5 O6 1.264 . S
C5 O13 1.249 . S
O6 C5 1.264 . S
O7 Mg0 1.986 . S
O7 C11 1.246 . S
O8 Mg3 2.032 . S
O8 C11 1.259 . S
O9 Mg0 2.114 . S
O9 C12 1.252 . S
O10 Mg0 2.251 . S
O10 Mg3 2.079 . S
O10 C12 1.273 . S
C11 O7 1.246 . S
C11 O8 1.259 . S
C12 O9 1.252 . S
C12 O10 1.273 . S
O13 Mg0 2.010 . S
O13 C5 1.249 . S
Mg14 O15 2.028 . S
Mg14 O21 1.986 . S
Mg14 O23 2.114 . S
Mg14 O24 2.251 . S
Mg14 O27 2.010 . S
O15 Mg14 2.028 . S
O15 C18 1.250 . S
O16 Mg17 2.028 . S
O16 C18 1.248 . S
Mg17 O16 2.028 . S
Mg17 O22 2.032 . S
Mg17 O24 2.079 . S
C18 O15 1.250 . S
C18 O16 1.248 . S
C19 O20 1.264 . S
C19 O27 1.249 . S
O20 C19 1.264 . S
O21 Mg14 1.986 . S
O21 C25 1.246 . S
O22 Mg17 2.032 . S
O22 C25 1.259 . S
O23 Mg14 2.114 . S
O23 C26 1.252 . S
O24 Mg14 2.251 . S
O24 Mg17 2.079 . S
O24 C26 1.273 . S
C25 O21 1.246 . S
C25 O22 1.259 . S
C26 O23 1.252 . S
C26 O24 1.273 . S
O27 Mg14 2.010 . S
O27 C19 1.249 . S
Mg28 O29 2.028 . S
Mg28 O35 1.986 . S
Mg28 O37 2.114 . S
Mg28 O38 2.251 . S
Mg28 O41 2.010 . S
O29 Mg28 2.028 . S
O29 C32 1.250 . S
O30 Mg31 2.028 . S
O30 C32 1.248 . S
Mg31 O30 2.028 . S
Mg31 O36 2.032 . S
Mg31 O38 2.079 . S
C32 O29 1.250 . S
C32 O30 1.248 . S
C33 O34 1.264 . S
C33 O41 1.249 . S
O34 C33 1.264 . S
O35 Mg28 1.986 . S
O35 C39 1.246 . S
O36 Mg31 2.032 . S
O36 C39 1.259 . S
O37 Mg28 2.114 . S
O37 C40 1.252 . S
O38 Mg28 2.251 . S
O38 Mg31 2.079 . S
O38 C40 1.273 . S
C39 O35 1.246 . S
C39 O36 1.259 . S
C40 O37 1.252 . S
C40 O38 1.273 . S
O41 Mg28 2.010 . S
O41 C33 1.249 . S
Mg42 O43 2.028 . S
Mg42 O49 1.986 . S
Mg42 O51 2.114 . S
Mg42 O52 2.251 . S
Mg42 O55 2.010 . S
O43 Mg42 2.028 . S
O43 C46 1.250 . S
O44 Mg45 2.028 . S
O44 C46 1.248 . S
Mg45 O44 2.028 . S
Mg45 O50 2.032 . S
Mg45 O52 2.079 . S
C46 O43 1.250 . S
C46 O44 1.248 . S
C47 O48 1.264 . S
C47 O55 1.249 . S
O48 C47 1.264 . S
O49 Mg42 1.986 . S
O49 C53 1.246 . S
O50 Mg45 2.032 . S
O50 C53 1.259 . S
O51 Mg42 2.114 . S
O51 C54 1.252 . S
O52 Mg42 2.251 . S
O52 Mg45 2.079 . S
O52 C54 1.273 . S
C53 O49 1.246 . S
C53 O50 1.259 . S
C54 O51 1.252 . S
C54 O52 1.273 . S
O55 Mg42 2.010 . S
O55 C47 1.249 . S
Mg56 O57 2.028 . S
Mg56 O63 1.986 . S
Mg56 O65 2.114 . S
Mg56 O66 2.251 . S
Mg56 O69 2.010 . S
O57 Mg56 2.028 . S
O57 C60 1.250 . S
O58 Mg59 2.028 . S
O58 C60 1.248 . S
Mg59 O58 2.028 . S
Mg59 O64 2.032 . S
Mg59 O66 2.079 . S
C60 O57 1.250 . S
C60 O58 1.248 . S
C61 O62 1.264 . S
C61 O69 1.249 . S
O62 C61 1.264 . S
O63 Mg56 1.986 . S
O63 C67 1.246 . S
O64 Mg59 2.032 . S
O64 C67 1.259 . S
O65 Mg56 2.114 . S
O65 C68 1.252 . S
O66 Mg56 2.251 . S
O66 Mg59 2.079 . S
O66 C68 1.273 . S
C67 O63 1.246 . S
C67 O64 1.259 . S
C68 O65 1.252 . S
C68 O66 1.273 . S
O69 Mg56 2.010 . S
O69 C61 1.249 . S
Mg70 O71 2.028 . S
Mg70 O77 1.986 . S
Mg70 O79 2.114 . S
Mg70 O80 2.251 . S
Mg70 O83 2.010 . S
O71 Mg70 2.028 . S
O71 C74 1.250 . S
O72 Mg73 2.028 . S
O72 C74 1.248 . S
Mg73 O72 2.028 . S
Mg73 O78 2.032 . S
Mg73 O80 2.079 . S
C74 O71 1.250 . S
C74 O72 1.248 . S
C75 O76 1.264 . S
C75 O83 1.249 . S
O76 C75 1.264 . S
O77 Mg70 1.986 . S
O77 C81 1.246 . S
O78 Mg73 2.032 . S
O78 C81 1.259 . S
O79 Mg70 2.114 . S
O79 C82 1.252 . S
O80 Mg70 2.251 . S
O80 Mg73 2.079 . S
O80 C82 1.273 . S
C81 O77 1.246 . S
C81 O78 1.259 . S
C82 O79 1.252 . S
C82 O80 1.273 . S
O83 Mg70 2.010 . S
O83 C75 1.249 . S
Mg84 O85 2.028 . S
Mg84 O91 1.986 . S
Mg84 O93 2.114 . S
Mg84 O94 2.251 . S
Mg84 O97 2.010 . S
O85 Mg84 2.028 . S
O85 C88 1.250 . S
O86 Mg87 2.028 . S
O86 C88 1.248 . S
Mg87 O86 2.028 . S
Mg87 O92 2.032 . S
Mg87 O94 2.079 . S
C88 O85 1.250 . S
C88 O86 1.248 . S
C89 O90 1.264 . S
C89 O97 1.249 . S
O90 C89 1.264 . S
O91 Mg84 1.986 . S
O91 C95 1.246 . S
O92 Mg87 2.032 . S
O92 C95 1.259 . S
O93 Mg84 2.114 . S
O93 C96 1.252 . S
O94 Mg84 2.251 . S
O94 Mg87 2.079 . S
O94 C96 1.273 . S
C95 O91 1.246 . S
C95 O92 1.259 . S
C96 O93 1.252 . S
C96 O94 1.273 . S
O97 Mg84 2.010 . S
O97 C89 1.249 . S
Mg98 O99 2.028 . S
Mg98 O105 1.986 . S
Mg98 O107 2.114 . S
Mg98 O108 2.251 . S
Mg98 O111 2.010 . S
O99 Mg98 2.028 . S
O99 C102 1.250 . S
O100 Mg101 2.028 . S
O100 C102 1.248 . S
Mg101 O100 2.028 . S
Mg101 O106 2.032 . S
Mg101 O108 2.079 . S
C102 O99 1.250 . S
C102 O100 1.248 . S
C103 O104 1.264 . S
C103 O111 1.249 . S
O104 C103 1.264 . S
O105 Mg98 1.986 . S
O105 C109 1.246 . S
O106 Mg101 2.032 . S
O106 C109 1.259 . S
O107 Mg98 2.114 . S
O107 C110 1.252 . S
O108 Mg98 2.251 . S
O108 Mg101 2.079 . S
O108 C110 1.273 . S
C109 O105 1.246 . S
C109 O106 1.259 . S
C110 O107 1.252 . S
C110 O108 1.273 . S
O111 Mg98 2.010 . S
O111 C103 1.249 . S
Mg112 O113 2.028 . S
Mg112 O119 1.986 . S
Mg112 O121 2.114 . S
Mg112 O122 2.251 . S
Mg112 O125 2.010 . S
O113 Mg112 2.028 . S
O113 C116 1.250 . S
O114 Mg115 2.028 . S
O114 C116 1.248 . S
Mg115 O114 2.028 . S
Mg115 O120 2.032 . S
Mg115 O122 2.079 . S
C116 O113 1.250 . S
C116 O114 1.248 . S
C117 O118 1.264 . S
C117 O125 1.249 . S
O118 C117 1.264 . S
O119 Mg112 1.986 . S
O119 C123 1.246 . S
O120 Mg115 2.032 . S
O120 C123 1.259 . S
O121 Mg112 2.114 . S
O121 C124 1.252 . S
O122 Mg112 2.251 . S
O122 Mg115 2.079 . S
O122 C124 1.273 . S
C123 O119 1.246 . S
C123 O120 1.259 . S
C124 O121 1.252 . S
C124 O122 1.273 . S
O125 Mg112 2.010 . S
O125 C117 1.249 . S
Mg126 O127 2.028 . S
Mg126 O133 1.986 . S
Mg126 O135 2.114 . S
Mg126 O136 2.251 . S
Mg126 O139 2.010 . S
O127 Mg126 2.028 . S
O127 C130 1.250 . S
O128 Mg129 2.028 . S
O128 C130 1.248 . S
Mg129 O128 2.028 . S
Mg129 O134 2.032 . S
Mg129 O136 2.079 . S
C130 O127 1.250 . S
C130 O128 1.248 . S
C131 O132 1.264 . S
C131 O139 1.249 . S
O132 C131 1.264 . S
O133 Mg126 1.986 . S
O133 C137 1.246 . S
O134 Mg129 2.032 . S
O134 C137 1.259 . S
O135 Mg126 2.114 . S
O135 C138 1.252 . S
O136 Mg126 2.251 . S
O136 Mg129 2.079 . S
O136 C138 1.273 . S
C137 O133 1.246 . S
C137 O134 1.259 . S
C138 O135 1.252 . S
C138 O136 1.273 . S
O139 Mg126 2.010 . S
O139 C131 1.249 . S
Mg140 O141 2.028 . S
Mg140 O147 1.986 . S
Mg140 O149 2.114 . S
Mg140 O150 2.251 . S
Mg140 O153 2.010 . S
O141 Mg140 2.028 . S
O141 C144 1.250 . S
O142 Mg143 2.028 . S
O142 C144 1.248 . S
Mg143 O142 2.028 . S
Mg143 O148 2.032 . S
Mg143 O150 2.079 . S
C144 O141 1.250 . S
C144 O142 1.248 . S
C145 O146 1.264 . S
C145 O153 1.249 . S
O146 C145 1.264 . S
O147 Mg140 1.986 . S
O147 C151 1.246 . S
O148 Mg143 2.032 . S
O148 C151 1.259 . S
O149 Mg140 2.114 . S
O149 C152 1.252 . S
O150 Mg140 2.251 . S
O150 Mg143 2.079 . S
O150 C152 1.273 . S
C151 O147 1.246 . S
C151 O148 1.259 . S
C152 O149 1.252 . S
C152 O150 1.273 . S
O153 Mg140 2.010 . S
O153 C145 1.249 . S
Mg154 O155 2.028 . S
Mg154 O161 1.986 . S
Mg154 O163 2.114 . S
Mg154 O164 2.251 . S
Mg154 O167 2.010 . S
O155 Mg154 2.028 . S
O155 C158 1.250 . S
O156 Mg157 2.028 . S
O156 C158 1.248 . S
Mg157 O156 2.028 . S
Mg157 O162 2.032 . S
Mg157 O164 2.079 . S
C158 O155 1.250 . S
C158 O156 1.248 . S
C159 O160 1.264 . S
C159 O167 1.249 . S
O160 C159 1.264 . S
O161 Mg154 1.986 . S
O161 C165 1.246 . S
O162 Mg157 2.032 . S
O162 C165 1.259 . S
O163 Mg154 2.114 . S
O163 C166 1.252 . S
O164 Mg154 2.251 . S
O164 Mg157 2.079 . S
O164 C166 1.273 . S
C165 O161 1.246 . S
C165 O162 1.259 . S
C166 O163 1.252 . S
C166 O164 1.273 . S
O167 Mg154 2.010 . S
O167 C159 1.249 . S
Mg168 O169 2.028 . S
Mg168 O175 1.986 . S
Mg168 O177 2.114 . S
Mg168 O178 2.251 . S
Mg168 O181 2.010 . S
O169 Mg168 2.028 . S
O169 C172 1.250 . S
O170 Mg171 2.028 . S
O170 C172 1.248 . S
Mg171 O170 2.028 . S
Mg171 O176 2.032 . S
Mg171 O178 2.079 . S
C172 O169 1.250 . S
C172 O170 1.248 . S
C173 O174 1.264 . S
C173 O181 1.249 . S
O174 C173 1.264 . S
O175 Mg168 1.986 . S
O175 C179 1.246 . S
O176 Mg171 2.032 . S
O176 C179 1.259 . S
O177 Mg168 2.114 . S
O177 C180 1.252 . S
O178 Mg168 2.251 . S
O178 Mg171 2.079 . S
O178 C180 1.273 . S
C179 O175 1.246 . S
C179 O176 1.259 . S
C180 O177 1.252 . S
C180 O178 1.273 . S
O181 Mg168 2.010 . S
O181 C173 1.249 . S
Mg182 O183 2.028 . S
Mg182 O189 1.986 . S
Mg182 O191 2.114 . S
Mg182 O192 2.251 . S
Mg182 O195 2.010 . S
O183 Mg182 2.028 . S
O183 C186 1.250 . S
O184 Mg185 2.028 . S
O184 C186 1.248 . S
Mg185 O184 2.028 . S
Mg185 O190 2.032 . S
Mg185 O192 2.079 . S
C186 O183 1.250 . S
C186 O184 1.248 . S
C187 O188 1.264 . S
C187 O195 1.249 . S
O188 C187 1.264 . S
O189 Mg182 1.986 . S
O189 C193 1.246 . S
O190 Mg185 2.032 . S
O190 C193 1.259 . S
O191 Mg182 2.114 . S
O191 C194 1.252 . S
O192 Mg182 2.251 . S
O192 Mg185 2.079 . S
O192 C194 1.273 . S
C193 O189 1.246 . S
C193 O190 1.259 . S
C194 O191 1.252 . S
C194 O192 1.273 . S
O195 Mg182 2.010 . S
O195 C187 1.249 . S
Mg196 O197 2.028 . S
Mg196 O203 1.986 . S
Mg196 O205 2.114 . S
Mg196 O206 2.251 . S
Mg196 O209 2.010 . S
O197 Mg196 2.028 . S
O197 C200 1.250 . S
O198 Mg199 2.028 . S
O198 C200 1.248 . S
Mg199 O198 2.028 . S
Mg199 O204 2.032 . S
Mg199 O206 2.079 . S
C200 O197 1.250 . S
C200 O198 1.248 . S
C201 O202 1.264 . S
C201 O209 1.249 . S
O202 C201 1.264 . S
O203 Mg196 1.986 . S
O203 C207 1.246 . S
O204 Mg199 2.032 . S
O204 C207 1.259 . S
O205 Mg196 2.114 . S
O205 C208 1.252 . S
O206 Mg196 2.251 . S
O206 Mg199 2.079 . S
O206 C208 1.273 . S
C207 O203 1.246 . S
C207 O204 1.259 . S
C208 O205 1.252 . S
C208 O206 1.273 . S
O209 Mg196 2.010 . S
O209 C201 1.249 . S
Mg210 O211 2.028 . S
Mg210 O217 1.986 . S
Mg210 O219 2.114 . S
Mg210 O220 2.251 . S
Mg210 O223 2.010 . S
O211 Mg210 2.028 . S
O211 C214 1.250 . S
O212 Mg213 2.028 . S
O212 C214 1.248 . S
Mg213 O212 2.028 . S
Mg213 O218 2.032 . S
Mg213 O220 2.079 . S
C214 O211 1.250 . S
C214 O212 1.248 . S
C215 O216 1.264 . S
C215 O223 1.249 . S
O216 C215 1.264 . S
O217 Mg210 1.986 . S
O217 C221 1.246 . S
O218 Mg213 2.032 . S
O218 C221 1.259 . S
O219 Mg210 2.114 . S
O219 C222 1.252 . S
O220 Mg210 2.251 . S
O220 Mg213 2.079 . S
O220 C222 1.273 . S
C221 O217 1.246 . S
C221 O218 1.259 . S
C222 O219 1.252 . S
C222 O220 1.273 . S
O223 Mg210 2.010 . S
O223 C215 1.249 . S
Mg224 O225 2.028 . S
Mg224 O231 1.986 . S
Mg224 O233 2.114 . S
Mg224 O234 2.251 . S
Mg224 O237 2.010 . S
O225 Mg224 2.028 . S
O225 C228 1.250 . S
O226 Mg227 2.028 . S
O226 C228 1.248 . S
Mg227 O226 2.028 . S
Mg227 O232 2.032 . S
Mg227 O234 2.079 . S
C228 O225 1.250 . S
C228 O226 1.248 . S
C229 O230 1.264 . S
C229 O237 1.249 . S
O230 C229 1.264 . S
O231 Mg224 1.986 . S
O231 C235 1.246 . S
O232 Mg227 2.032 . S
O232 C235 1.259 . S
O233 Mg224 2.114 . S
O233 C236 1.252 . S
O234 Mg224 2.251 . S
O234 Mg227 2.079 . S
O234 C236 1.273 . S
C235 O231 1.246 . S
C235 O232 1.259 . S
C236 O233 1.252 . S
C236 O234 1.273 . S
O237 Mg224 2.010 . S
O237 C229 1.249 . S
Mg238 O239 2.028 . S
Mg238 O245 1.986 . S
Mg238 O247 2.114 . S
Mg238 O248 2.251 . S
Mg238 O251 2.010 . S
O239 Mg238 2.028 . S
O239 C242 1.250 . S
O240 Mg241 2.028 . S
O240 C242 1.248 . S
Mg241 O240 2.028 . S
Mg241 O246 2.032 . S
Mg241 O248 2.079 . S
C242 O239 1.250 . S
C242 O240 1.248 . S
C243 O244 1.264 . S
C243 O251 1.249 . S
O244 C243 1.264 . S
O245 Mg238 1.986 . S
O245 C249 1.246 . S
O246 Mg241 2.032 . S
O246 C249 1.259 . S
O247 Mg238 2.114 . S
O247 C250 1.252 . S
O248 Mg238 2.251 . S
O248 Mg241 2.079 . S
O248 C250 1.273 . S
C249 O245 1.246 . S
C249 O246 1.259 . S
C250 O247 1.252 . S
C250 O248 1.273 . S
O251 Mg238 2.010 . S
O251 C243 1.249 . S
Mg252 O253 2.028 . S
Mg252 O259 1.986 . S
Mg252 O261 2.114 . S
Mg252 O262 2.251 . S
Mg252 O265 2.010 . S
O253 Mg252 2.028 . S
O253 C256 1.250 . S
O254 Mg255 2.028 . S
O254 C256 1.248 . S
Mg255 O254 2.028 . S
Mg255 O260 2.032 . S
Mg255 O262 2.079 . S
C256 O253 1.250 . S
C256 O254 1.248 . S
C257 O258 1.264 . S
C257 O265 1.249 . S
O258 C257 1.264 . S
O259 Mg252 1.986 . S
O259 C263 1.246 . S
O260 Mg255 2.032 . S
O260 C263 1.259 . S
O261 Mg252 2.114 . S
O261 C264 1.252 . S
O262 Mg252 2.251 . S
O262 Mg255 2.079 . S
O262 C264 1.273 . S
C263 O259 1.246 . S
C263 O260 1.259 . S
C264 O261 1.252 . S
C264 O262 1.273 . S
O265 Mg252 2.010 . S
O265 C257 1.249 . S
Mg266 O267 2.028 . S
Mg266 O273 1.986 . S
Mg266 O275 2.114 . S
Mg266 O276 2.251 . S
Mg266 O279 2.010 . S
O267 Mg266 2.028 . S
O267 C270 1.250 . S
O268 Mg269 2.028 . S
O268 C270 1.248 . S
Mg269 O268 2.028 . S
Mg269 O274 2.032 . S
Mg269 O276 2.079 . S
C270 O267 1.250 . S
C270 O268 1.248 . S
C271 O272 1.264 . S
C271 O279 1.249 . S
O272 C271 1.264 . S
O273 Mg266 1.986 . S
O273 C277 1.246 . S
O274 Mg269 2.032 . S
O274 C277 1.259 . S
O275 Mg266 2.114 . S
O275 C278 1.252 . S
O276 Mg266 2.251 . S
O276 Mg269 2.079 . S
O276 C278 1.273 . S
C277 O273 1.246 . S
C277 O274 1.259 . S
C278 O275 1.252 . S
C278 O276 1.273 . S
O279 Mg266 2.010 . S
O279 C271 1.249 . S
Mg280 O281 2.028 . S
Mg280 O287 1.986 . S
Mg280 O289 2.114 . S
Mg280 O290 2.251 . S
Mg280 O293 2.010 . S
O281 Mg280 2.028 . S
O281 C284 1.250 . S
O282 Mg283 2.028 . S
O282 C284 1.248 . S
Mg283 O282 2.028 . S
Mg283 O288 2.032 . S
Mg283 O290 2.079 . S
C284 O281 1.250 . S
C284 O282 1.248 . S
C285 O286 1.264 . S
C285 O293 1.249 . S
O286 C285 1.264 . S
O287 Mg280 1.986 . S
O287 C291 1.246 . S
O288 Mg283 2.032 . S
O288 C291 1.259 . S
O289 Mg280 2.114 . S
O289 C292 1.252 . S
O290 Mg280 2.251 . S
O290 Mg283 2.079 . S
O290 C292 1.273 . S
C291 O287 1.246 . S
C291 O288 1.259 . S
C292 O289 1.252 . S
C292 O290 1.273 . S
O293 Mg280 2.010 . S
O293 C285 1.249 . S
Mg294 O295 2.028 . S
Mg294 O301 1.986 . S
Mg294 O303 2.114 . S
Mg294 O304 2.251 . S
Mg294 O307 2.010 . S
O295 Mg294 2.028 . S
O295 C298 1.250 . S
O296 Mg297 2.028 . S
O296 C298 1.248 . S
Mg297 O296 2.028 . S
Mg297 O302 2.032 . S
Mg297 O304 2.079 . S
C298 O295 1.250 . S
C298 O296 1.248 . S
C299 O300 1.264 . S
C299 O307 1.249 . S
O300 C299 1.264 . S
O301 Mg294 1.986 . S
O301 C305 1.246 . S
O302 Mg297 2.032 . S
O302 C305 1.259 . S
O303 Mg294 2.114 . S
O303 C306 1.252 . S
O304 Mg294 2.251 . S
O304 Mg297 2.079 . S
O304 C306 1.273 . S
C305 O301 1.246 . S
C305 O302 1.259 . S
C306 O303 1.252 . S
C306 O304 1.273 . S
O307 Mg294 2.010 . S
O307 C299 1.249 . S
Mg308 O309 2.028 . S
Mg308 O315 1.986 . S
Mg308 O317 2.114 . S
Mg308 O318 2.251 . S
Mg308 O321 2.010 . S
O309 Mg308 2.028 . S
O309 C312 1.250 . S
O310 Mg311 2.028 . S
O310 C312 1.248 . S
Mg311 O310 2.028 . S
Mg311 O316 2.032 . S
Mg311 O318 2.079 . S
C312 O309 1.250 . S
C312 O310 1.248 . S
C313 O314 1.264 . S
C313 O321 1.249 . S
O314 C313 1.264 . S
O315 Mg308 1.986 . S
O315 C319 1.246 . S
O316 Mg311 2.032 . S
O316 C319 1.259 . S
O317 Mg308 2.114 . S
O317 C320 1.252 . S
O318 Mg308 2.251 . S
O318 Mg311 2.079 . S
O318 C320 1.273 . S
C319 O315 1.246 . S
C319 O316 1.259 . S
C320 O317 1.252 . S
C320 O318 1.273 . S
O321 Mg308 2.010 . S
O321 C313 1.249 . S
Mg322 O323 2.028 . S
Mg322 O329 1.986 . S
Mg322 O331 2.114 . S
Mg322 O332 2.251 . S
Mg322 O335 2.010 . S
O323 Mg322 2.028 . S
O323 C326 1.250 . S
O324 Mg325 2.028 . S
O324 C326 1.248 . S
Mg325 O324 2.028 . S
Mg325 O330 2.032 . S
Mg325 O332 2.079 . S
C326 O323 1.250 . S
C326 O324 1.248 . S
C327 O328 1.264 . S
C327 O335 1.249 . S
O328 C327 1.264 . S
O329 Mg322 1.986 . S
O329 C333 1.246 . S
O330 Mg325 2.032 . S
O330 C333 1.259 . S
O331 Mg322 2.114 . S
O331 C334 1.252 . S
O332 Mg322 2.251 . S
O332 Mg325 2.079 . S
O332 C334 1.273 . S
C333 O329 1.246 . S
C333 O330 1.259 . S
C334 O331 1.252 . S
C334 O332 1.273 . S
O335 Mg322 2.010 . S
O335 C327 1.249 . S
Mg336 O337 2.028 . S
Mg336 O343 1.986 . S
Mg336 O345 2.114 . S
Mg336 O346 2.251 . S
Mg336 O349 2.010 . S
O337 Mg336 2.028 . S
O337 C340 1.250 . S
O338 Mg339 2.028 . S
O338 C340 1.248 . S
Mg339 O338 2.028 . S
Mg339 O344 2.032 . S
Mg339 O346 2.079 . S
C340 O337 1.250 . S
C340 O338 1.248 . S
C341 O342 1.264 . S
C341 O349 1.249 . S
O342 C341 1.264 . S
O343 Mg336 1.986 . S
O343 C347 1.246 . S
O344 Mg339 2.032 . S
O344 C347 1.259 . S
O345 Mg336 2.114 . S
O345 C348 1.252 . S
O346 Mg336 2.251 . S
O346 Mg339 2.079 . S
O346 C348 1.273 . S
C347 O343 1.246 . S
C347 O344 1.259 . S
C348 O345 1.252 . S
C348 O346 1.273 . S
O349 Mg336 2.010 . S
O349 C341 1.249 . S
Mg350 O351 2.028 . S
Mg350 O357 1.986 . S
Mg350 O359 2.114 . S
Mg350 O360 2.251 . S
Mg350 O363 2.010 . S
O351 Mg350 2.028 . S
O351 C354 1.250 . S
O352 Mg353 2.028 . S
O352 C354 1.248 . S
Mg353 O352 2.028 . S
Mg353 O358 2.032 . S
Mg353 O360 2.079 . S
C354 O351 1.250 . S
C354 O352 1.248 . S
C355 O356 1.264 . S
C355 O363 1.249 . S
O356 C355 1.264 . S
O357 Mg350 1.986 . S
O357 C361 1.246 . S
O358 Mg353 2.032 . S
O358 C361 1.259 . S
O359 Mg350 2.114 . S
O359 C362 1.252 . S
O360 Mg350 2.251 . S
O360 Mg353 2.079 . S
O360 C362 1.273 . S
C361 O357 1.246 . S
C361 O358 1.259 . S
C362 O359 1.252 . S
C362 O360 1.273 . S
O363 Mg350 2.010 . S
O363 C355 1.249 . S
Mg364 O365 2.028 . S
Mg364 O371 1.986 . S
Mg364 O373 2.114 . S
Mg364 O374 2.251 . S
Mg364 O377 2.010 . S
O365 Mg364 2.028 . S
O365 C368 1.250 . S
O366 Mg367 2.028 . S
O366 C368 1.248 . S
Mg367 O366 2.028 . S
Mg367 O372 2.032 . S
Mg367 O374 2.079 . S
C368 O365 1.250 . S
C368 O366 1.248 . S
C369 O370 1.264 . S
C369 O377 1.249 . S
O370 C369 1.264 . S
O371 Mg364 1.986 . S
O371 C375 1.246 . S
O372 Mg367 2.032 . S
O372 C375 1.259 . S
O373 Mg364 2.114 . S
O373 C376 1.252 . S
O374 Mg364 2.251 . S
O374 Mg367 2.079 . S
O374 C376 1.273 . S
C375 O371 1.246 . S
C375 O372 1.259 . S
C376 O373 1.252 . S
C376 O374 1.273 . S
O377 Mg364 2.010 . S
O377 C369 1.249 . S
Mg378 O379 2.028 . S
Mg378 O385 1.986 . S
Mg378 O387 2.114 . S
Mg378 O388 2.251 . S
Mg378 O391 2.010 . S
O379 Mg378 2.028 . S
O379 C382 1.250 . S
O380 Mg381 2.028 . S
O380 C382 1.248 . S
Mg381 O380 2.028 . S
Mg381 O386 2.032 . S
Mg381 O388 2.079 . S
C382 O379 1.250 . S
C382 O380 1.248 . S
C383 O384 1.264 . S
C383 O391 1.249 . S
O384 C383 1.264 . S
O385 Mg378 1.986 . S
O385 C389 1.246 . S
O386 Mg381 2.032 . S
O386 C389 1.259 . S
O387 Mg378 2.114 . S
O387 C390 1.252 . S
O388 Mg378 2.251 . S
O388 Mg381 2.079 . S
O388 C390 1.273 . S
C389 O385 1.246 . S
C389 O386 1.259 . S
C390 O387 1.252 . S
C390 O388 1.273 . S
O391 Mg378 2.010 . S
O391 C383 1.249 . S
Mg392 O393 2.028 . S
Mg392 O399 1.986 . S
Mg392 O401 2.114 . S
Mg392 O402 2.251 . S
Mg392 O405 2.010 . S
O393 Mg392 2.028 . S
O393 C396 1.250 . S
O394 Mg395 2.028 . S
O394 C396 1.248 . S
Mg395 O394 2.028 . S
Mg395 O400 2.032 . S
Mg395 O402 2.079 . S
C396 O393 1.250 . S
C396 O394 1.248 . S
C397 O398 1.264 . S
C397 O405 1.249 . S
O398 C397 1.264 . S
O399 Mg392 1.986 . S
O399 C403 1.246 . S
O400 Mg395 2.032 . S
O400 C403 1.259 . S
O401 Mg392 2.114 . S
O401 C404 1.252 . S
O402 Mg392 2.251 . S
O402 Mg395 2.079 . S
O402 C404 1.273 . S
C403 O399 1.246 . S
C403 O400 1.259 . S
C404 O401 1.252 . S
C404 O402 1.273 . S
O405 Mg392 2.010 . S
O405 C397 1.249 . S
Mg406 O407 2.028 . S
Mg406 O413 1.986 . S
Mg406 O415 2.114 . S
Mg406 O416 2.251 . S
Mg406 O419 2.010 . S
O407 Mg406 2.028 . S
O407 C410 1.250 . S
O408 Mg409 2.028 . S
O408 C410 1.248 . S
Mg409 O408 2.028 . S
Mg409 O414 2.032 . S
Mg409 O416 2.079 . S
C410 O407 1.250 . S
C410 O408 1.248 . S
C411 O412 1.264 . S
C411 O419 1.249 . S
O412 C411 1.264 . S
O413 Mg406 1.986 . S
O413 C417 1.246 . S
O414 Mg409 2.032 . S
O414 C417 1.259 . S
O415 Mg406 2.114 . S
O415 C418 1.252 . S
O416 Mg406 2.251 . S
O416 Mg409 2.079 . S
O416 C418 1.273 . S
C417 O413 1.246 . S
C417 O414 1.259 . S
C418 O415 1.252 . S
C418 O416 1.273 . S
O419 Mg406 2.010 . S
O419 C411 1.249 . S
Mg420 O421 2.028 . S
Mg420 O427 1.986 . S
Mg420 O429 2.114 . S
Mg420 O430 2.251 . S
Mg420 O433 2.010 . S
O421 Mg420 2.028 . S
O421 C424 1.250 . S
O422 Mg423 2.028 . S
O422 C424 1.248 . S
Mg423 O422 2.028 . S
Mg423 O428 2.032 . S
Mg423 O430 2.079 . S
C424 O421 1.250 . S
C424 O422 1.248 . S
C425 O426 1.264 . S
C425 O433 1.249 . S
O426 C425 1.264 . S
O427 Mg420 1.986 . S
O427 C431 1.246 . S
O428 Mg423 2.032 . S
O428 C431 1.259 . S
O429 Mg420 2.114 . S
O429 C432 1.252 . S
O430 Mg420 2.251 . S
O430 Mg423 2.079 . S
O430 C432 1.273 . S
C431 O427 1.246 . S
C431 O428 1.259 . S
C432 O429 1.252 . S
C432 O430 1.273 . S
O433 Mg420 2.010 . S
O433 C425 1.249 . S
Mg434 O435 2.028 . S
Mg434 O441 1.986 . S
Mg434 O443 2.114 . S
Mg434 O444 2.251 . S
Mg434 O447 2.010 . S
O435 Mg434 2.028 . S
O435 C438 1.250 . S
O436 Mg437 2.028 . S
O436 C438 1.248 . S
Mg437 O436 2.028 . S
Mg437 O442 2.032 . S
Mg437 O444 2.079 . S
C438 O435 1.250 . S
C438 O436 1.248 . S
C439 O440 1.264 . S
C439 O447 1.249 . S
O440 C439 1.264 . S
O441 Mg434 1.986 . S
O441 C445 1.246 . S
O442 Mg437 2.032 . S
O442 C445 1.259 . S
O443 Mg434 2.114 . S
O443 C446 1.252 . S
O444 Mg434 2.251 . S
O444 Mg437 2.079 . S
O444 C446 1.273 . S
C445 O441 1.246 . S
C445 O442 1.259 . S
C446 O443 1.252 . S
C446 O444 1.273 . S
O447 Mg434 2.010 . S
O447 C439 1.249 . S
H448 C456 0.929 . S
H449 C458 0.930 . S
H450 C460 0.930 . S
H451 C463 0.929 . S
H452 C466 0.930 . S
H453 C468 0.960 . S
H454 C468 0.960 . S
H455 C468 0.960 . S
C456 H448 0.929 . S
C456 C457 1.377 . S
C456 C458 1.384 . S
C457 C456 1.377 . S
C457 C463 1.390 . S
C458 H449 0.930 . S
C458 C456 1.384 . S
C458 C459 1.372 . S
C459 C458 1.372 . S
C459 C460 1.400 . S
C459 C464 1.490 . S
C460 H450 0.930 . S
C460 C459 1.400 . S
C460 C463 1.386 . S
H461 C477 0.930 . S
H462 C478 0.931 . S
C463 H451 0.929 . S
C463 C457 1.390 . S
C463 C460 1.386 . S
C464 C459 1.490 . S
C464 C466 1.395 . S
C464 C467 1.403 . S
H465 C471 0.930 . S
C466 H452 0.930 . S
C466 C464 1.395 . S
C466 C469 1.403 . S
C467 C464 1.403 . S
C467 C468 1.524 . S
C467 C471 1.400 . S
C468 H453 0.960 . S
C468 H454 0.960 . S
C468 H455 0.960 . S
C468 C467 1.524 . S
C469 C466 1.403 . S
C469 C470 1.392 . S
C469 C473 1.495 . S
C470 C469 1.392 . S
C470 C471 1.385 . S
C470 C472 1.478 . S
C471 H465 0.930 . S
C471 C467 1.400 . S
C471 C470 1.385 . S
C472 C470 1.478 . S
C472 C474 1.381 . S
C472 C478 1.383 . S
C473 C469 1.495 . S
C473 H479 0.959 . S
C473 H480 0.961 . S
C473 H481 0.960 . S
C474 C472 1.381 . S
C474 C475 1.394 . S
C474 H482 0.930 . S
C475 C474 1.394 . S
C475 C476 1.383 . S
C475 H483 0.929 . S
C476 C475 1.383 . S
C476 C477 1.377 . S
C477 H461 0.930 . S
C477 C476 1.377 . S
C477 C478 1.379 . S
C478 H462 0.931 . S
C478 C472 1.383 . S
C478 C477 1.379 . S
H479 C473 0.959 . S
H480 C473 0.961 . S
H481 C473 0.960 . S
H482 C474 0.930 . S
H483 C475 0.929 . S
H484 C492 0.929 . S
H485 C494 0.930 . S
H486 C496 0.930 . S
H487 C499 0.929 . S
H488 C502 0.930 . S
H489 C504 0.960 . S
H490 C504 0.960 . S
H491 C504 0.960 . S
C492 H484 0.929 . S
C492 C493 1.377 . S
C492 C494 1.384 . S
C493 C492 1.377 . S
C493 C499 1.390 . S
C494 H485 0.930 . S
C494 C492 1.384 . S
C494 C495 1.372 . S
C495 C494 1.372 . S
C495 C496 1.400 . S
C495 C500 1.490 . S
C496 H486 0.930 . S
C496 C495 1.400 . S
C496 C499 1.386 . S
H497 C513 0.930 . S
H498 C514 0.931 . S
C499 H487 0.929 . S
C499 C493 1.390 . S
C499 C496 1.386 . S
C500 C495 1.490 . S
C500 C502 1.395 . S
C500 C503 1.403 . S
H501 C507 0.930 . S
C502 H488 0.930 . S
C502 C500 1.395 . S
C502 C505 1.403 1_565 S
C503 C500 1.403 . S
C503 C504 1.524 . S
C503 C507 1.400 1_565 S
C504 H489 0.960 . S
C504 H490 0.960 . S
C504 H491 0.960 . S
C504 C503 1.524 . S
C505 C502 1.403 1_545 S
C505 C506 1.392 . S
C505 C509 1.495 . S
C506 C505 1.392 . S
C506 C507 1.385 . S
C506 C508 1.478 . S
C507 H501 0.930 . S
C507 C503 1.400 1_545 S
C507 C506 1.385 . S
C508 C506 1.478 . S
C508 C510 1.381 . S
C508 C514 1.383 . S
C509 C505 1.495 . S
C509 H515 0.959 . S
C509 H516 0.961 . S
C509 H517 0.960 . S
C510 C508 1.381 . S
C510 C511 1.394 . S
C510 H518 0.930 . S
C511 C510 1.394 . S
C511 C512 1.383 . S
C511 H519 0.929 . S
C512 C511 1.383 . S
C512 C513 1.377 . S
C513 H497 0.930 . S
C513 C512 1.377 . S
C513 C514 1.379 . S
C514 H498 0.931 . S
C514 C508 1.383 . S
C514 C513 1.379 . S
H515 C509 0.959 . S
H516 C509 0.961 . S
H517 C509 0.960 . S
H518 C510 0.930 . S
H519 C511 0.929 . S
H520 C528 0.929 . S
H521 C530 0.930 . S
H522 C532 0.930 . S
H523 C535 0.929 . S
H524 C538 0.930 . S
H525 C540 0.960 . S
H526 C540 0.960 . S
H527 C540 0.960 . S
C528 H520 0.929 . S
C528 C529 1.377 . S
C528 C530 1.384 . S
C529 C528 1.377 . S
C529 C535 1.390 . S
C530 H521 0.930 . S
C530 C528 1.384 . S
C530 C531 1.372 . S
C531 C530 1.372 . S
C531 C532 1.400 . S
C531 C536 1.490 . S
C532 H522 0.930 . S
C532 C531 1.400 . S
C532 C535 1.386 . S
H533 C549 0.930 . S
H534 C550 0.931 . S
C535 H523 0.929 . S
C535 C529 1.390 . S
C535 C532 1.386 . S
C536 C531 1.490 . S
C536 C538 1.395 . S
C536 C539 1.403 . S
H537 C543 0.930 . S
C538 H524 0.930 . S
C538 C536 1.395 . S
C538 C541 1.403 . S
C539 C536 1.403 . S
C539 C540 1.524 . S
C539 C543 1.400 . S
C540 H525 0.960 . S
C540 H526 0.960 . S
C540 H527 0.960 . S
C540 C539 1.524 . S
C541 C538 1.403 . S
C541 C542 1.392 . S
C541 C545 1.495 . S
C542 C541 1.392 . S
C542 C543 1.385 . S
C542 C544 1.478 . S
C543 H537 0.930 . S
C543 C539 1.400 . S
C543 C542 1.385 . S
C544 C542 1.478 . S
C544 C546 1.381 . S
C544 C550 1.383 . S
C545 C541 1.495 . S
C545 H551 0.959 . S
C545 H552 0.961 . S
C545 H553 0.960 . S
C546 C544 1.381 . S
C546 C547 1.394 . S
C546 H554 0.930 . S
C547 C546 1.394 . S
C547 C548 1.383 . S
C547 H555 0.929 . S
C548 C547 1.383 . S
C548 C549 1.377 . S
C549 H533 0.930 . S
C549 C548 1.377 . S
C549 C550 1.379 . S
C550 H534 0.931 . S
C550 C544 1.383 . S
C550 C549 1.379 . S
H551 C545 0.959 . S
H552 C545 0.961 . S
H553 C545 0.960 . S
H554 C546 0.930 . S
H555 C547 0.929 . S
H556 C564 0.929 . S
H557 C566 0.930 . S
H558 C568 0.930 1_554 S
H559 C571 0.919 1_554 S
H560 C574 0.930 . S
H561 C576 0.960 . S
H562 C576 0.960 1_556 S
H563 C576 0.960 . S
C564 H556 0.929 . S
C564 C565 1.377 . S
C564 C566 1.384 . S
C565 C564 1.377 . S
C565 C571 1.390 . S
C566 H557 0.930 . S
C566 C564 1.384 . S
C566 C567 1.372 . S
C567 C566 1.372 . S
C567 C568 1.400 . S
C567 C572 1.490 . S
C568 H558 0.930 1_556 S
C568 C567 1.400 . S
C568 C571 1.386 . S
H569 C585 0.930 . S
H570 C586 0.931 . S
C571 H559 0.919 1_556 S
C571 C565 1.390 . S
C571 C568 1.386 . S
C572 C567 1.490 . S
C572 C574 1.395 . S
C572 C575 1.403 1_556 S
H573 C579 0.930 . S
C574 H560 0.930 . S
C574 C572 1.395 . S
C574 C577 1.403 1_545 S
C575 C572 1.403 1_554 S
C575 C576 1.524 . S
C575 C579 1.400 1_545 S
C576 H561 0.960 . S
C576 H562 0.960 1_554 S
C576 H563 0.960 . S
C576 C575 1.524 . S
C577 C574 1.403 1_565 S
C577 C578 1.392 1_556 S
C577 C581 1.495 . S
C578 C577 1.392 1_554 S
C578 C579 1.385 . S
C578 C580 1.478 . S
C579 H573 0.930 . S
C579 C575 1.400 1_565 S
C579 C578 1.385 . S
C580 C578 1.478 . S
C580 C582 1.381 . S
C580 C586 1.383 . S
C581 C577 1.495 . S
C581 H587 0.959 . S
C581 H588 0.961 1_556 S
C581 H589 0.960 . S
C582 C580 1.381 . S
C582 C583 1.394 . S
C582 H590 0.930 1_554 S
C583 C582 1.394 . S
C583 C584 1.383 . S
C583 H591 0.929 1_554 S
C584 C583 1.383 . S
C584 C585 1.377 . S
C585 H569 0.930 . S
C585 C584 1.377 . S
C585 C586 1.379 . S
C586 H570 0.931 . S
C586 C580 1.383 . S
C586 C585 1.379 . S
H587 C581 0.959 . S
H588 C581 0.961 1_554 S
H589 C581 0.960 . S
H590 C582 0.930 1_556 S
H591 C583 0.929 1_556 S
H592 C600 0.929 . S
H593 C602 0.930 . S
H594 C604 0.930 . S
H595 C607 0.929 . S
H596 C610 0.930 . S
H597 C612 0.960 . S
H598 C612 0.960 . S
H599 C612 0.960 . S
C600 H592 0.929 . S
C600 C601 1.377 . S
C600 C602 1.384 . S
C601 C600 1.377 . S
C601 C607 1.390 . S
C602 H593 0.930 . S
C602 C600 1.384 . S
C602 C603 1.372 . S
C603 C602 1.372 . S
C603 C604 1.400 . S
C603 C608 1.490 . S
C604 H594 0.930 . S
C604 C603 1.400 . S
C604 C607 1.386 . S
H605 C621 0.930 . S
H606 C622 0.931 . S
C607 H595 0.929 . S
C607 C601 1.390 . S
C607 C604 1.386 . S
C608 C603 1.490 . S
C608 C610 1.395 . S
C608 C611 1.403 . S
H609 C615 0.930 . S
C610 H596 0.930 . S
C610 C608 1.395 . S
C610 C613 1.403 . S
C611 C608 1.403 . S
C611 C612 1.524 . S
C611 C615 1.400 . S
C612 H597 0.960 . S
C612 H598 0.960 . S
C612 H599 0.960 . S
C612 C611 1.524 . S
C613 C610 1.403 . S
C613 C614 1.392 . S
C613 C617 1.495 . S
C614 C613 1.392 . S
C614 C615 1.385 . S
C614 C616 1.478 . S
C615 H609 0.930 . S
C615 C611 1.400 . S
C615 C614 1.385 . S
C616 C614 1.478 . S
C616 C618 1.381 . S
C616 C622 1.383 . S
C617 C613 1.495 . S
C617 H623 0.959 . S
C617 H624 0.961 . S
C617 H625 0.960 . S
C618 C616 1.381 . S
C618 C619 1.394 . S
C618 H626 0.930 . S
C619 C618 1.394 . S
C619 C620 1.383 . S
C619 H627 0.929 . S
C620 C619 1.383 . S
C620 C621 1.377 . S
C621 H605 0.930 . S
C621 C620 1.377 . S
C621 C622 1.379 . S
C622 H606 0.931 . S
C622 C616 1.383 . S
C622 C621 1.379 . S
H623 C617 0.959 . S
H624 C617 0.961 . S
H625 C617 0.960 . S
H626 C618 0.930 . S
H627 C619 0.929 . S
H628 C636 0.929 . S
H629 C638 0.930 . S
H630 C640 0.930 . S
H631 C643 0.929 . S
H632 C646 0.930 . S
H633 C648 0.960 . S
H634 C648 0.960 . S
H635 C648 0.960 . S
C636 H628 0.929 . S
C636 C637 1.377 . S
C636 C638 1.384 . S
C637 C636 1.377 . S
C637 C643 1.390 . S
C638 H629 0.930 . S
C638 C636 1.384 . S
C638 C639 1.372 . S
C639 C638 1.372 . S
C639 C640 1.400 . S
C639 C644 1.490 . S
C640 H630 0.930 . S
C640 C639 1.400 . S
C640 C643 1.386 . S
H641 C657 0.930 . S
H642 C658 0.931 . S
C643 H631 0.929 . S
C643 C637 1.390 . S
C643 C640 1.386 . S
C644 C639 1.490 . S
C644 C646 1.395 . S
C644 C647 1.403 . S
H645 C651 0.930 . S
C646 H632 0.930 . S
C646 C644 1.395 . S
C646 C649 1.403 1_565 S
C647 C644 1.403 . S
C647 C648 1.524 . S
C647 C651 1.400 1_565 S
C648 H633 0.960 . S
C648 H634 0.960 . S
C648 H635 0.960 . S
C648 C647 1.524 . S
C649 C646 1.403 1_545 S
C649 C650 1.392 . S
C649 C653 1.495 . S
C650 C649 1.392 . S
C650 C651 1.385 . S
C650 C652 1.478 . S
C651 H645 0.930 . S
C651 C647 1.400 1_545 S
C651 C650 1.385 . S
C652 C650 1.478 . S
C652 C654 1.381 . S
C652 C658 1.383 . S
C653 C649 1.495 . S
C653 H659 0.959 . S
C653 H660 0.961 . S
C653 H661 0.960 . S
C654 C652 1.381 . S
C654 C655 1.394 . S
C654 H662 0.930 . S
C655 C654 1.394 . S
C655 C656 1.383 . S
C655 H663 0.929 . S
C656 C655 1.383 . S
C656 C657 1.377 . S
C657 H641 0.930 . S
C657 C656 1.377 . S
C657 C658 1.379 . S
C658 H642 0.931 . S
C658 C652 1.383 . S
C658 C657 1.379 . S
H659 C653 0.959 . S
H660 C653 0.961 . S
H661 C653 0.960 . S
H662 C654 0.930 . S
H663 C655 0.929 . S
H664 C672 0.929 . S
H665 C674 0.930 . S
H666 C676 0.930 . S
H667 C679 0.929 . S
H668 C682 0.930 . S
H669 C684 0.960 . S
H670 C684 0.960 . S
H671 C684 0.960 . S
C672 H664 0.929 . S
C672 C673 1.377 . S
C672 C674 1.384 . S
C673 C672 1.377 . S
C673 C679 1.390 . S
C674 H665 0.930 . S
C674 C672 1.384 . S
C674 C675 1.372 . S
C675 C674 1.372 . S
C675 C676 1.400 . S
C675 C680 1.490 . S
C676 H666 0.930 . S
C676 C675 1.400 . S
C676 C679 1.386 . S
H677 C693 0.930 . S
H678 C694 0.931 . S
C679 H667 0.929 . S
C679 C673 1.390 . S
C679 C676 1.386 . S
C680 C675 1.490 . S
C680 C682 1.395 . S
C680 C683 1.403 . S
H681 C687 0.930 . S
C682 H668 0.930 . S
C682 C680 1.395 . S
C682 C685 1.403 . S
C683 C680 1.403 . S
C683 C684 1.524 . S
C683 C687 1.400 . S
C684 H669 0.960 . S
C684 H670 0.960 . S
C684 H671 0.960 . S
C684 C683 1.524 . S
C685 C682 1.403 . S
C685 C686 1.392 . S
C685 C689 1.495 . S
C686 C685 1.392 . S
C686 C687 1.385 . S
C686 C688 1.478 . S
C687 H681 0.930 . S
C687 C683 1.400 . S
C687 C686 1.385 . S
C688 C686 1.478 . S
C688 C690 1.381 . S
C688 C694 1.383 . S
C689 C685 1.495 . S
C689 H695 0.959 . S
C689 H696 0.961 . S
C689 H697 0.960 . S
C690 C688 1.381 . S
C690 C691 1.394 . S
C690 H698 0.930 . S
C691 C690 1.394 . S
C691 C692 1.383 . S
C691 H699 0.929 . S
C692 C691 1.383 . S
C692 C693 1.377 . S
C693 H677 0.930 . S
C693 C692 1.377 . S
C693 C694 1.379 . S
C694 H678 0.931 . S
C694 C688 1.383 . S
C694 C693 1.379 . S
H695 C689 0.959 . S
H696 C689 0.961 . S
H697 C689 0.960 . S
H698 C690 0.930 . S
H699 C691 0.929 . S
H700 C708 0.929 . S
H701 C710 0.930 . S
H702 C712 0.930 . S
H703 C715 0.929 . S
H704 C718 0.930 . S
H705 C720 0.960 1_565 S
H706 C720 0.960 . S
H707 C720 0.960 . S
C708 H700 0.929 . S
C708 C709 1.377 . S
C708 C710 1.384 . S
C709 C708 1.377 . S
C709 C715 1.390 . S
C710 H701 0.930 . S
C710 C708 1.384 . S
C710 C711 1.372 . S
C711 C710 1.372 . S
C711 C712 1.400 . S
C711 C716 1.490 . S
C712 H702 0.930 . S
C712 C711 1.400 . S
C712 C715 1.386 . S
H713 C729 0.930 . S
H714 C730 0.931 . S
C715 H703 0.929 . S
C715 C709 1.390 . S
C715 C712 1.386 . S
C716 C711 1.490 . S
C716 C718 1.395 1_556 S
C716 C719 1.403 . S
H717 C723 0.930 . S
C718 H704 0.930 . S
C718 C716 1.395 1_554 S
C718 C721 1.403 1_545 S
C719 C716 1.403 . S
C719 C720 1.524 . S
C719 C723 1.400 1_545 S
C720 H705 0.960 1_545 S
C720 H706 0.960 . S
C720 H707 0.960 . S
C720 C719 1.524 . S
C721 C718 1.403 1_565 S
C721 C722 1.392 . S
C721 C725 1.495 . S
C722 C721 1.392 . S
C722 C723 1.385 1_554 S
C722 C724 1.478 . S
C723 H717 0.930 . S
C723 C719 1.400 1_565 S
C723 C722 1.385 1_556 S
C724 C722 1.478 . S
C724 C726 1.381 . S
C724 C730 1.383 . S
C725 C721 1.495 . S
C725 H731 0.959 1_565 S
C725 H732 0.961 . S
C725 H733 0.960 . S
C726 C724 1.381 . S
C726 C727 1.394 . S
C726 H734 0.930 . S
C727 C726 1.394 . S
C727 C728 1.383 . S
C727 H735 0.929 . S
C728 C727 1.383 . S
C728 C729 1.377 . S
C729 H713 0.930 . S
C729 C728 1.377 . S
C729 C730 1.379 . S
C730 H714 0.931 . S
C730 C724 1.383 . S
C730 C729 1.379 . S
H731 C725 0.959 1_545 S
H732 C725 0.961 . S
H733 C725 0.960 . S
H734 C726 0.930 . S
H735 C727 0.929 . S
H736 C744 0.929 . S
H737 C746 0.930 . S
H738 C748 0.930 . S
H739 C751 0.929 . S
H740 C754 0.930 . S
H741 C756 0.960 . S
H742 C756 0.960 . S
H743 C756 0.960 . S
C744 H736 0.929 . S
C744 C745 1.377 . S
C744 C746 1.384 . S
C745 C744 1.377 . S
C745 C751 1.390 . S
C746 H737 0.930 . S
C746 C744 1.384 . S
C746 C747 1.372 . S
C747 C746 1.372 . S
C747 C748 1.400 . S
C747 C752 1.490 . S
C748 H738 0.930 . S
C748 C747 1.400 . S
C748 C751 1.386 . S
H749 C765 0.930 . S
H750 C766 0.931 . S
C751 H739 0.929 . S
C751 C745 1.390 . S
C751 C748 1.386 . S
C752 C747 1.490 . S
C752 C754 1.395 . S
C752 C755 1.403 . S
H753 C759 0.930 . S
C754 H740 0.930 . S
C754 C752 1.395 . S
C754 C757 1.403 . S
C755 C752 1.403 . S
C755 C756 1.524 . S
C755 C759 1.400 . S
C756 H741 0.960 . S
C756 H742 0.960 . S
C756 H743 0.960 . S
C756 C755 1.524 . S
C757 C754 1.403 . S
C757 C758 1.392 . S
C757 C761 1.495 . S
C758 C757 1.392 . S
C758 C759 1.385 . S
C758 C760 1.478 . S
C759 H753 0.930 . S
C759 C755 1.400 . S
C759 C758 1.385 . S
C760 C758 1.478 . S
C760 C762 1.381 . S
C760 C766 1.383 . S
C761 C757 1.495 . S
C761 H767 0.959 . S
C761 H768 0.961 . S
C761 H769 0.960 . S
C762 C760 1.381 . S
C762 C763 1.394 . S
C762 H770 0.930 . S
C763 C762 1.394 . S
C763 C764 1.383 . S
C763 H771 0.929 . S
C764 C763 1.383 . S
C764 C765 1.377 . S
C765 H749 0.930 . S
C765 C764 1.377 . S
C765 C766 1.379 . S
C766 H750 0.931 . S
C766 C760 1.383 . S
C766 C765 1.379 . S
H767 C761 0.959 . S
H768 C761 0.961 . S
H769 C761 0.960 . S
H770 C762 0.930 . S
H771 C763 0.929 . S
H772 C780 0.929 . S
H773 C782 0.930 . S
H774 C784 0.930 . S
H775 C787 0.929 . S
H776 C790 0.930 . S
H777 C792 0.960 . S
H778 C792 0.960 . S
H779 C792 0.960 . S
C780 H772 0.929 . S
C780 C781 1.377 . S
C780 C782 1.384 . S
C781 C780 1.377 . S
C781 C787 1.390 . S
C782 H773 0.930 . S
C782 C780 1.384 . S
C782 C783 1.372 . S
C783 C782 1.372 . S
C783 C784 1.400 . S
C783 C788 1.490 . S
C784 H774 0.930 . S
C784 C783 1.400 . S
C784 C787 1.386 . S
H785 C801 0.930 . S
H786 C802 0.931 . S
C787 H775 0.929 . S
C787 C781 1.390 . S
C787 C784 1.386 . S
C788 C783 1.490 . S
C788 C790 1.395 1_556 S
C788 C791 1.403 . S
H789 C795 0.930 . S
C790 H776 0.930 . S
C790 C788 1.395 1_554 S
C790 C793 1.403 . S
C791 C788 1.403 . S
C791 C792 1.524 . S
C791 C795 1.400 . S
C792 H777 0.960 . S
C792 H778 0.960 . S
C792 H779 0.960 . S
C792 C791 1.524 . S
C793 C790 1.403 . S
C793 C794 1.392 . S
C793 C797 1.495 . S
C794 C793 1.392 . S
C794 C795 1.385 1_554 S
C794 C796 1.478 . S
C795 H789 0.930 . S
C795 C791 1.400 . S
C795 C794 1.385 1_556 S
C796 C794 1.478 . S
C796 C798 1.381 . S
C796 C802 1.383 . S
C797 C793 1.495 . S
C797 H803 0.959 . S
C797 H804 0.961 . S
C797 H805 0.960 . S
C798 C796 1.381 . S
C798 C799 1.394 . S
C798 H806 0.930 . S
C799 C798 1.394 . S
C799 C800 1.383 . S
C799 H807 0.929 . S
C800 C799 1.383 . S
C800 C801 1.377 . S
C801 H785 0.930 . S
C801 C800 1.377 . S
C801 C802 1.379 . S
C802 H786 0.931 . S
C802 C796 1.383 . S
C802 C801 1.379 . S
H803 C797 0.959 . S
H804 C797 0.961 . S
H805 C797 0.960 . S
H806 C798 0.930 . S
H807 C799 0.929 . S
H808 C816 0.929 . S
H809 C818 0.930 . S
H810 C820 0.930 . S
H811 C823 0.929 . S
H812 C826 0.930 . S
H813 C828 0.960 . S
H814 C828 0.960 . S
H815 C828 0.960 . S
C816 H808 0.929 . S
C816 C817 1.377 . S
C816 C818 1.384 . S
C817 C816 1.377 . S
C817 C823 1.390 . S
C818 H809 0.930 . S
C818 C816 1.384 . S
C818 C819 1.372 . S
C819 C818 1.372 . S
C819 C820 1.400 . S
C819 C824 1.490 . S
C820 H810 0.930 . S
C820 C819 1.400 . S
C820 C823 1.386 . S
H821 C837 0.930 . S
H822 C838 0.931 . S
C823 H811 0.929 . S
C823 C817 1.390 . S
C823 C820 1.386 . S
C824 C819 1.490 . S
C824 C826 1.395 . S
C824 C827 1.403 . S
H825 C831 0.930 . S
C826 H812 0.930 . S
C826 C824 1.395 . S
C826 C829 1.403 . S
C827 C824 1.403 . S
C827 C828 1.524 . S
C827 C831 1.400 . S
C828 H813 0.960 . S
C828 H814 0.960 . S
C828 H815 0.960 . S
C828 C827 1.524 . S
C829 C826 1.403 . S
C829 C830 1.392 . S
C829 C833 1.495 . S
C830 C829 1.392 . S
C830 C831 1.385 . S
C830 C832 1.478 . S
C831 H825 0.930 . S
C831 C827 1.400 . S
C831 C830 1.385 . S
C832 C830 1.478 . S
C832 C834 1.381 . S
C832 C838 1.383 . S
C833 C829 1.495 . S
C833 H839 0.959 . S
C833 H840 0.961 . S
C833 H841 0.960 . S
C834 C832 1.381 . S
C834 C835 1.394 . S
C834 H842 0.930 . S
C835 C834 1.394 . S
C835 C836 1.383 . S
C835 H843 0.929 . S
C836 C835 1.383 . S
C836 C837 1.377 . S
C837 H821 0.930 . S
C837 C836 1.377 . S
C837 C838 1.379 . S
C838 H822 0.931 . S
C838 C832 1.383 . S
C838 C837 1.379 . S
H839 C833 0.959 . S
H840 C833 0.961 . S
H841 C833 0.960 . S
H842 C834 0.930 . S
H843 C835 0.929 . S
H844 C852 0.929 . S
H845 C854 0.930 . S
H846 C856 0.930 . S
H847 C859 0.929 . S
H848 C862 0.930 . S
H849 C864 0.960 . S
H850 C864 0.960 . S
H851 C864 0.960 . S
C852 H844 0.929 . S
C852 C853 1.377 . S
C852 C854 1.384 . S
C853 C852 1.377 . S
C853 C859 1.390 . S
C854 H845 0.930 . S
C854 C852 1.384 . S
C854 C855 1.372 . S
C855 C854 1.372 . S
C855 C856 1.400 . S
C855 C860 1.490 . S
C856 H846 0.930 . S
C856 C855 1.400 . S
C856 C859 1.386 . S
H857 C873 0.930 . S
H858 C874 0.931 . S
C859 H847 0.929 . S
C859 C853 1.390 . S
C859 C856 1.386 . S
C860 C855 1.490 . S
C860 C862 1.395 . S
C860 C863 1.403 . S
H861 C867 0.930 . S
C862 H848 0.930 . S
C862 C860 1.395 . S
C862 C865 1.403 . S
C863 C860 1.403 . S
C863 C864 1.524 . S
C863 C867 1.400 . S
C864 H849 0.960 . S
C864 H850 0.960 . S
C864 H851 0.960 . S
C864 C863 1.524 . S
C865 C862 1.403 . S
C865 C866 1.392 . S
C865 C869 1.495 . S
C866 C865 1.392 . S
C866 C867 1.385 . S
C866 C868 1.478 . S
C867 H861 0.930 . S
C867 C863 1.400 . S
C867 C866 1.385 . S
C868 C866 1.478 . S
C868 C870 1.381 . S
C868 C874 1.383 . S
C869 C865 1.495 . S
C869 H875 0.959 . S
C869 H876 0.961 . S
C869 H877 0.960 . S
C870 C868 1.381 . S
C870 C871 1.394 . S
C870 H878 0.930 . S
C871 C870 1.394 . S
C871 C872 1.383 . S
C871 H879 0.929 . S
C872 C871 1.383 . S
C872 C873 1.377 . S
C873 H857 0.930 . S
C873 C872 1.377 . S
C873 C874 1.379 . S
C874 H858 0.931 . S
C874 C868 1.383 . S
C874 C873 1.379 . S
H875 C869 0.959 . S
H876 C869 0.961 . S
H877 C869 0.960 . S
H878 C870 0.930 . S
H879 C871 0.929 . S
H880 C888 0.929 . S
H881 C890 0.930 . S
H882 C892 0.930 . S
H883 C895 0.929 . S
H884 C898 0.930 . S
H885 C900 0.960 . S
H886 C900 0.960 . S
H887 C900 0.960 . S
C888 H880 0.929 . S
C888 C889 1.377 . S
C888 C890 1.384 . S
C889 C888 1.377 . S
C889 C895 1.390 . S
C890 H881 0.930 . S
C890 C888 1.384 . S
C890 C891 1.372 . S
C891 C890 1.372 . S
C891 C892 1.400 . S
C891 C896 1.490 . S
C892 H882 0.930 . S
C892 C891 1.400 . S
C892 C895 1.386 . S
H893 C909 0.930 . S
H894 C910 0.931 . S
C895 H883 0.929 . S
C895 C889 1.390 . S
C895 C892 1.386 . S
C896 C891 1.490 . S
C896 C898 1.395 . S
C896 C899 1.403 . S
H897 C903 0.930 . S
C898 H884 0.930 . S
C898 C896 1.395 . S
C898 C901 1.403 . S
C899 C896 1.403 . S
C899 C900 1.524 . S
C899 C903 1.400 . S
C900 H885 0.960 . S
C900 H886 0.960 . S
C900 H887 0.960 . S
C900 C899 1.524 . S
C901 C898 1.403 . S
C901 C902 1.392 . S
C901 C905 1.495 . S
C902 C901 1.392 . S
C902 C903 1.385 . S
C902 C904 1.478 . S
C903 H897 0.930 . S
C903 C899 1.400 . S
C903 C902 1.385 . S
C904 C902 1.478 . S
C904 C906 1.381 . S
C904 C910 1.383 . S
C905 C901 1.495 . S
C905 H911 0.959 . S
C905 H912 0.961 . S
C905 H913 0.960 . S
C906 C904 1.381 . S
C906 C907 1.394 . S
C906 H914 0.930 . S
C907 C906 1.394 . S
C907 C908 1.383 . S
C907 H915 0.929 . S
C908 C907 1.383 . S
C908 C909 1.377 . S
C909 H893 0.930 . S
C909 C908 1.377 . S
C909 C910 1.379 . S
C910 H894 0.931 . S
C910 C904 1.383 . S
C910 C909 1.379 . S
H911 C905 0.959 . S
H912 C905 0.961 . S
H913 C905 0.960 . S
H914 C906 0.930 . S
H915 C907 0.929 . S
H916 C924 0.929 . S
H917 C926 0.930 . S
H918 C928 0.930 . S
H919 C931 0.929 . S
H920 C934 0.930 . S
H921 C936 0.960 . S
H922 C936 0.960 . S
H923 C936 0.960 . S
C924 H916 0.929 . S
C924 C925 1.377 . S
C924 C926 1.384 . S
C925 C924 1.377 . S
C925 C931 1.390 . S
C926 H917 0.930 . S
C926 C924 1.384 . S
C926 C927 1.372 . S
C927 C926 1.372 . S
C927 C928 1.400 . S
C927 C932 1.490 . S
C928 H918 0.930 . S
C928 C927 1.400 . S
C928 C931 1.386 . S
H929 C945 0.930 . S
H930 C946 0.931 . S
C931 H919 0.929 . S
C931 C925 1.390 . S
C931 C928 1.386 . S
C932 C927 1.490 . S
C932 C934 1.395 . S
C932 C935 1.403 1_554 S
H933 C939 0.930 . S
C934 H920 0.930 . S
C934 C932 1.395 . S
C934 C937 1.403 . S
C935 C932 1.403 1_556 S
C935 C936 1.524 . S
C935 C939 1.400 . S
C936 H921 0.960 . S
C936 H922 0.960 . S
C936 H923 0.960 . S
C936 C935 1.524 . S
C937 C934 1.403 . S
C937 C938 1.392 1_554 S
C937 C941 1.495 . S
C938 C937 1.392 1_556 S
C938 C939 1.385 . S
C938 C940 1.478 . S
C939 H933 0.930 . S
C939 C935 1.400 . S
C939 C938 1.385 . S
C940 C938 1.478 . S
C940 C942 1.381 . S
C940 C946 1.383 . S
C941 C937 1.495 . S
C941 H947 0.959 . S
C941 H948 0.961 . S
C941 H949 0.960 . S
C942 C940 1.381 . S
C942 C943 1.394 . S
C942 H950 0.930 . S
C943 C942 1.394 . S
C943 C944 1.383 . S
C943 H951 0.929 . S
C944 C943 1.383 . S
C944 C945 1.377 . S
C945 H929 0.930 . S
C945 C944 1.377 . S
C945 C946 1.379 . S
C946 H930 0.931 . S
C946 C940 1.383 . S
C946 C945 1.379 . S
H947 C941 0.959 . S
H948 C941 0.961 . S
H949 C941 0.960 . S
H950 C942 0.930 . S
H951 C943 0.929 . S
H952 C960 0.929 . S
H953 C962 0.930 . S
H954 C964 0.930 . S
H955 C967 0.929 . S
H956 C970 0.930 . S
H957 C972 0.960 . S
H958 C972 0.960 . S
H959 C972 0.960 . S
C960 H952 0.929 . S
C960 C961 1.377 . S
C960 C962 1.384 . S
C961 C960 1.377 . S
C961 C967 1.390 . S
C962 H953 0.930 . S
C962 C960 1.384 . S
C962 C963 1.372 . S
C963 C962 1.372 . S
C963 C964 1.400 . S
C963 C968 1.490 . S
C964 H954 0.930 . S
C964 C963 1.400 . S
C964 C967 1.386 . S
H965 C981 0.930 . S
H966 C982 0.931 . S
C967 H955 0.929 . S
C967 C961 1.390 . S
C967 C964 1.386 . S
C968 C963 1.490 . S
C968 C970 1.395 . S
C968 C971 1.403 . S
H969 C975 0.930 . S
C970 H956 0.930 . S
C970 C968 1.395 . S
C970 C973 1.403 . S
C971 C968 1.403 . S
C971 C972 1.524 . S
C971 C975 1.400 . S
C972 H957 0.960 . S
C972 H958 0.960 . S
C972 H959 0.960 . S
C972 C971 1.524 . S
C973 C970 1.403 . S
C973 C974 1.392 . S
C973 C977 1.495 . S
C974 C973 1.392 . S
C974 C975 1.385 . S
C974 C976 1.478 . S
C975 H969 0.930 . S
C975 C971 1.400 . S
C975 C974 1.385 . S
C976 C974 1.478 . S
C976 C978 1.381 . S
C976 C982 1.383 . S
C977 C973 1.495 . S
C977 H983 0.959 . S
C977 H984 0.961 . S
C977 H985 0.960 . S
C978 C976 1.381 . S
C978 C979 1.394 . S
C978 H986 0.930 . S
C979 C978 1.394 . S
C979 C980 1.383 . S
C979 H987 0.929 . S
C980 C979 1.383 . S
C980 C981 1.377 . S
C981 H965 0.930 . S
C981 C980 1.377 . S
C981 C982 1.379 . S
C982 H966 0.931 . S
C982 C976 1.383 . S
C982 C981 1.379 . S
H983 C977 0.959 . S
H984 C977 0.961 . S
H985 C977 0.960 . S
H986 C978 0.930 . S
H987 C979 0.929 . S
H988 C996 0.929 . S
H989 C998 0.930 . S
H990 C1000 0.930 . S
H991 C1003 0.929 . S
H992 C1006 0.930 . S
H993 C1008 0.960 . S
H994 C1008 0.960 . S
H995 C1008 0.960 . S
C996 H988 0.929 . S
C996 C997 1.377 . S
C996 C998 1.384 . S
C997 C996 1.377 . S
C997 C1003 1.390 . S
C998 H989 0.930 . S
C998 C996 1.384 . S
C998 C999 1.372 . S
C999 C998 1.372 . S
C999 C1000 1.400 . S
C999 C1004 1.490 . S
C1000 H990 0.930 . S
C1000 C999 1.400 . S
C1000 C1003 1.386 . S
H1001 C1017 0.930 . S
H1002 C1018 0.931 . S
C1003 H991 0.929 . S
C1003 C997 1.390 . S
C1003 C1000 1.386 . S
C1004 C999 1.490 . S
C1004 C1006 1.395 . S
C1004 C1007 1.403 . S
H1005 C1011 0.930 . S
C1006 H992 0.930 . S
C1006 C1004 1.395 . S
C1006 C1009 1.403 . S
C1007 C1004 1.403 . S
C1007 C1008 1.524 . S
C1007 C1011 1.400 . S
C1008 H993 0.960 . S
C1008 H994 0.960 . S
C1008 H995 0.960 . S
C1008 C1007 1.524 . S
C1009 C1006 1.403 . S
C1009 C1010 1.392 . S
C1009 C1013 1.495 . S
C1010 C1009 1.392 . S
C1010 C1011 1.385 . S
C1010 C1012 1.478 . S
C1011 H1005 0.930 . S
C1011 C1007 1.400 . S
C1011 C1010 1.385 . S
C1012 C1010 1.478 . S
C1012 C1014 1.381 . S
C1012 C1018 1.383 . S
C1013 C1009 1.495 . S
C1013 H1019 0.959 . S
C1013 H1020 0.961 . S
C1013 H1021 0.960 . S
C1014 C1012 1.381 . S
C1014 C1015 1.394 . S
C1014 H1022 0.930 . S
C1015 C1014 1.394 . S
C1015 C1016 1.383 . S
C1015 H1023 0.929 . S
C1016 C1015 1.383 . S
C1016 C1017 1.377 . S
C1017 H1001 0.930 . S
C1017 C1016 1.377 . S
C1017 C1018 1.379 . S
C1018 H1002 0.931 . S
C1018 C1012 1.383 . S
C1018 C1017 1.379 . S
H1019 C1013 0.959 . S
H1020 C1013 0.961 . S
H1021 C1013 0.960 . S
H1022 C1014 0.930 . S
H1023 C1015 0.929 . S
H1024 C1032 0.929 . S
H1025 C1034 0.930 . S
H1026 C1036 0.930 . S
H1027 C1039 0.929 . S
H1028 C1042 0.930 . S
H1029 C1044 0.960 . S
H1030 C1044 0.960 . S
H1031 C1044 0.960 . S
C1032 H1024 0.929 . S
C1032 C1033 1.377 . S
C1032 C1034 1.384 1_554 S
C1033 C1032 1.377 . S
C1033 C1039 1.390 1_554 S
C1034 H1025 0.930 . S
C1034 C1032 1.384 1_556 S
C1034 C1035 1.372 . S
C1035 C1034 1.372 . S
C1035 C1036 1.400 . S
C1035 C1040 1.490 . S
C1036 H1026 0.930 . S
C1036 C1035 1.400 . S
C1036 C1039 1.386 . S
H1037 C1053 0.930 . S
H1038 C1054 0.931 . S
C1039 H1027 0.929 . S
C1039 C1033 1.390 1_556 S
C1039 C1036 1.386 . S
C1040 C1035 1.490 . S
C1040 C1042 1.395 . S
C1040 C1043 1.403 . S
H1041 C1047 0.930 . S
C1042 H1028 0.930 . S
C1042 C1040 1.395 . S
C1042 C1045 1.403 . S
C1043 C1040 1.403 . S
C1043 C1044 1.524 . S
C1043 C1047 1.400 . S
C1044 H1029 0.960 . S
C1044 H1030 0.960 . S
C1044 H1031 0.960 . S
C1044 C1043 1.524 . S
C1045 C1042 1.403 . S
C1045 C1046 1.392 . S
C1045 C1049 1.495 . S
C1046 C1045 1.392 . S
C1046 C1047 1.385 . S
C1046 C1048 1.478 . S
C1047 H1041 0.930 . S
C1047 C1043 1.400 . S
C1047 C1046 1.385 . S
C1048 C1046 1.478 . S
C1048 C1050 1.381 . S
C1048 C1054 1.383 . S
C1049 C1045 1.495 . S
C1049 H1055 0.959 . S
C1049 H1056 0.961 . S
C1049 H1057 0.960 . S
C1050 C1048 1.381 . S
C1050 C1051 1.394 . S
C1050 H1058 0.930 . S
C1051 C1050 1.394 . S
C1051 C1052 1.383 . S
C1051 H1059 0.929 . S
C1052 C1051 1.383 . S
C1052 C1053 1.377 . S
C1053 H1037 0.930 . S
C1053 C1052 1.377 . S
C1053 C1054 1.379 . S
C1054 H1038 0.931 . S
C1054 C1048 1.383 . S
C1054 C1053 1.379 . S
H1055 C1049 0.959 . S
H1056 C1049 0.961 . S
H1057 C1049 0.960 . S
H1058 C1050 0.930 . S
H1059 C1051 0.929 . S
H1060 C1068 0.929 . S
H1061 C1070 0.930 . S
H1062 C1072 0.930 . S
H1063 C1075 0.929 . S
H1064 C1078 0.930 . S
H1065 C1080 0.960 . S
H1066 C1080 0.960 . S
H1067 C1080 0.960 . S
C1068 H1060 0.929 . S
C1068 C1069 1.377 . S
C1068 C1070 1.384 1_556 S
C1069 C1068 1.377 . S
C1069 C1075 1.390 1_556 S
C1070 H1061 0.930 . S
C1070 C1068 1.384 1_554 S
C1070 C1071 1.372 . S
C1071 C1070 1.372 . S
C1071 C1072 1.400 . S
C1071 C1076 1.490 . S
C1072 H1062 0.930 . S
C1072 C1071 1.400 . S
C1072 C1075 1.386 . S
H1073 C1089 0.930 . S
H1074 C1090 0.931 . S
C1075 H1063 0.929 . S
C1075 C1069 1.390 1_554 S
C1075 C1072 1.386 . S
C1076 C1071 1.490 . S
C1076 C1078 1.395 . S
C1076 C1079 1.403 . S
H1077 C1083 0.930 . S
C1078 H1064 0.930 . S
C1078 C1076 1.395 . S
C1078 C1081 1.403 . S
C1079 C1076 1.403 . S
C1079 C1080 1.524 . S
C1079 C1083 1.400 . S
C1080 H1065 0.960 . S
C1080 H1066 0.960 . S
C1080 H1067 0.960 . S
C1080 C1079 1.524 . S
C1081 C1078 1.403 . S
C1081 C1082 1.392 . S
C1081 C1085 1.495 . S
C1082 C1081 1.392 . S
C1082 C1083 1.385 . S
C1082 C1084 1.478 . S
C1083 H1077 0.930 . S
C1083 C1079 1.400 . S
C1083 C1082 1.385 . S
C1084 C1082 1.478 . S
C1084 C1086 1.381 . S
C1084 C1090 1.383 . S
C1085 C1081 1.495 . S
C1085 H1091 0.959 . S
C1085 H1092 0.961 . S
C1085 H1093 0.960 . S
C1086 C1084 1.381 . S
C1086 C1087 1.394 . S
C1086 H1094 0.930 . S
C1087 C1086 1.394 . S
C1087 C1088 1.383 . S
C1087 H1095 0.929 . S
C1088 C1087 1.383 . S
C1088 C1089 1.377 . S
C1089 H1073 0.930 . S
C1089 C1088 1.377 . S
C1089 C1090 1.379 . S
C1090 H1074 0.931 . S
C1090 C1084 1.383 . S
C1090 C1089 1.379 . S
H1091 C1085 0.959 . S
H1092 C1085 0.961 . S
H1093 C1085 0.960 . S
H1094 C1086 0.930 . S
H1095 C1087 0.929 . S
H1096 C1104 0.929 . S
H1097 C1106 0.930 . S
H1098 C1108 0.930 . S
H1099 C1111 0.929 . S
H1100 C1114 0.930 . S
H1101 C1116 0.960 . S
H1102 C1116 0.960 . S
H1103 C1116 0.960 . S
C1104 H1096 0.929 . S
C1104 C1105 1.377 . S
C1104 C1106 1.384 . S
C1105 C1104 1.377 . S
C1105 C1111 1.390 . S
C1106 H1097 0.930 . S
C1106 C1104 1.384 . S
C1106 C1107 1.372 . S
C1107 C1106 1.372 . S
C1107 C1108 1.400 . S
C1107 C1112 1.490 . S
C1108 H1098 0.930 . S
C1108 C1107 1.400 . S
C1108 C1111 1.386 . S
H1109 C1125 0.930 . S
H1110 C1126 0.931 . S
C1111 H1099 0.929 . S
C1111 C1105 1.390 . S
C1111 C1108 1.386 . S
C1112 C1107 1.490 . S
C1112 C1114 1.395 . S
C1112 C1115 1.403 . S
H1113 C1119 0.930 . S
C1114 H1100 0.930 . S
C1114 C1112 1.395 . S
C1114 C1117 1.403 . S
C1115 C1112 1.403 . S
C1115 C1116 1.524 . S
C1115 C1119 1.400 . S
C1116 H1101 0.960 . S
C1116 H1102 0.960 . S
C1116 H1103 0.960 . S
C1116 C1115 1.524 . S
C1117 C1114 1.403 . S
C1117 C1118 1.392 . S
C1117 C1121 1.495 . S
C1118 C1117 1.392 . S
C1118 C1119 1.385 . S
C1118 C1120 1.478 . S
C1119 H1113 0.930 . S
C1119 C1115 1.400 . S
C1119 C1118 1.385 . S
C1120 C1118 1.478 . S
C1120 C1122 1.381 . S
C1120 C1126 1.383 . S
C1121 C1117 1.495 . S
C1121 H1127 0.959 . S
C1121 H1128 0.961 . S
C1121 H1129 0.960 . S
C1122 C1120 1.381 . S
C1122 C1123 1.394 . S
C1122 H1130 0.930 . S
C1123 C1122 1.394 . S
C1123 C1124 1.383 . S
C1123 H1131 0.929 . S
C1124 C1123 1.383 . S
C1124 C1125 1.377 . S
C1125 H1109 0.930 . S
C1125 C1124 1.377 . S
C1125 C1126 1.379 . S
C1126 H1110 0.931 . S
C1126 C1120 1.383 . S
C1126 C1125 1.379 . S
H1127 C1121 0.959 . S
H1128 C1121 0.961 . S
H1129 C1121 0.960 . S
H1130 C1122 0.930 . S
H1131 C1123 0.929 . S
H1132 C1140 0.929 . S
H1133 C1142 0.930 . S
H1134 C1144 0.930 . S
H1135 C1147 0.929 . S
H1136 C1150 0.930 . S
H1137 C1152 0.960 . S
H1138 C1152 0.960 . S
H1139 C1152 0.960 . S
C1140 H1132 0.929 . S
C1140 C1141 1.377 . S
C1140 C1142 1.384 . S
C1141 C1140 1.377 . S
C1141 C1147 1.390 . S
C1142 H1133 0.930 . S
C1142 C1140 1.384 . S
C1142 C1143 1.372 . S
C1143 C1142 1.372 . S
C1143 C1144 1.400 . S
C1143 C1148 1.490 . S
C1144 H1134 0.930 . S
C1144 C1143 1.400 . S
C1144 C1147 1.386 . S
H1145 C1161 0.930 . S
H1146 C1162 0.931 . S
C1147 H1135 0.929 . S
C1147 C1141 1.390 . S
C1147 C1144 1.386 . S
C1148 C1143 1.490 . S
C1148 C1150 1.395 . S
C1148 C1151 1.403 . S
H1149 C1155 0.930 . S
C1150 H1136 0.930 . S
C1150 C1148 1.395 . S
C1150 C1153 1.403 . S
C1151 C1148 1.403 . S
C1151 C1152 1.524 . S
C1151 C1155 1.400 . S
C1152 H1137 0.960 . S
C1152 H1138 0.960 . S
C1152 H1139 0.960 . S
C1152 C1151 1.524 . S
C1153 C1150 1.403 . S
C1153 C1154 1.392 . S
C1153 C1157 1.495 . S
C1154 C1153 1.392 . S
C1154 C1155 1.385 . S
C1154 C1156 1.478 . S
C1155 H1149 0.930 . S
C1155 C1151 1.400 . S
C1155 C1154 1.385 . S
C1156 C1154 1.478 . S
C1156 C1158 1.381 . S
C1156 C1162 1.383 . S
C1157 C1153 1.495 . S
C1157 H1163 0.959 . S
C1157 H1164 0.961 . S
C1157 H1165 0.960 . S
C1158 C1156 1.381 . S
C1158 C1159 1.394 . S
C1158 H1166 0.930 . S
C1159 C1158 1.394 . S
C1159 C1160 1.383 . S
C1159 H1167 0.929 . S
C1160 C1159 1.383 . S
C1160 C1161 1.377 . S
C1161 H1145 0.930 . S
C1161 C1160 1.377 . S
C1161 C1162 1.379 . S
C1162 H1146 0.931 . S
C1162 C1156 1.383 . S
C1162 C1161 1.379 . S
H1163 C1157 0.959 . S
H1164 C1157 0.961 . S
H1165 C1157 0.960 . S
H1166 C1158 0.930 . S
H1167 C1159 0.929 . S
H1168 C1176 0.929 . S
H1169 C1178 0.930 . S
H1170 C1180 0.930 . S
H1171 C1183 0.929 . S
H1172 C1186 0.930 . S
H1173 C1188 0.960 . S
H1174 C1188 0.960 . S
H1175 C1188 0.960 . S
C1176 H1168 0.929 . S
C1176 C1177 1.377 . S
C1176 C1178 1.384 1_556 S
C1177 C1176 1.377 . S
C1177 C1183 1.390 . S
C1178 H1169 0.930 . S
C1178 C1176 1.384 1_554 S
C1178 C1179 1.372 . S
C1179 C1178 1.372 . S
C1179 C1180 1.400 . S
C1179 C1184 1.490 . S
C1180 H1170 0.930 . S
C1180 C1179 1.400 . S
C1180 C1183 1.386 1_554 S
H1181 C1197 0.930 . S
H1182 C1198 0.931 . S
C1183 H1171 0.929 . S
C1183 C1177 1.390 . S
C1183 C1180 1.386 1_556 S
C1184 C1179 1.490 . S
C1184 C1186 1.395 . S
C1184 C1187 1.403 . S
H1185 C1191 0.930 . S
C1186 H1172 0.930 . S
C1186 C1184 1.395 . S
C1186 C1189 1.403 . S
C1187 C1184 1.403 . S
C1187 C1188 1.524 . S
C1187 C1191 1.400 . S
C1188 H1173 0.960 . S
C1188 H1174 0.960 . S
C1188 H1175 0.960 . S
C1188 C1187 1.524 . S
C1189 C1186 1.403 . S
C1189 C1190 1.392 . S
C1189 C1193 1.495 . S
C1190 C1189 1.392 . S
C1190 C1191 1.385 . S
C1190 C1192 1.478 . S
C1191 H1185 0.930 . S
C1191 C1187 1.400 . S
C1191 C1190 1.385 . S
C1192 C1190 1.478 . S
C1192 C1194 1.381 . S
C1192 C1198 1.383 . S
C1193 C1189 1.495 . S
C1193 H1199 0.959 . S
C1193 H1200 0.961 . S
C1193 H1201 0.960 . S
C1194 C1192 1.381 . S
C1194 C1195 1.394 . S
C1194 H1202 0.930 . S
C1195 C1194 1.394 . S
C1195 C1196 1.383 . S
C1195 H1203 0.929 . S
C1196 C1195 1.383 . S
C1196 C1197 1.377 . S
C1197 H1181 0.930 . S
C1197 C1196 1.377 . S
C1197 C1198 1.379 . S
C1198 H1182 0.931 . S
C1198 C1192 1.383 . S
C1198 C1197 1.379 . S
H1199 C1193 0.959 . S
H1200 C1193 0.961 . S
H1201 C1193 0.960 . S
H1202 C1194 0.930 . S
H1203 C1195 0.929 . S
H1204 C1212 0.929 . S
H1205 C1214 0.930 . S
H1206 C1216 0.930 . S
H1207 C1219 0.931 . S
H1208 C1222 0.930 . S
H1209 C1224 0.960 . S
H1210 C1224 0.960 . S
H1211 C1224 0.960 . S
C1212 H1204 0.929 . S
C1212 C1213 1.377 . S
C1212 C1214 1.384 1_554 S
C1213 C1212 1.377 . S
C1213 C1219 1.397 . S
C1214 H1205 0.930 . S
C1214 C1212 1.384 1_556 S
C1214 C1215 1.372 . S
C1215 C1214 1.372 . S
C1215 C1216 1.400 . S
C1215 C1220 1.490 . S
C1216 H1206 0.930 . S
C1216 C1215 1.400 . S
C1216 C1219 1.377 1_556 S
H1217 C1233 0.930 . S
H1218 C1234 0.931 . S
C1219 H1207 0.931 . S
C1219 C1213 1.397 . S
C1219 C1216 1.377 1_554 S
C1220 C1215 1.490 . S
C1220 C1222 1.395 . S
C1220 C1223 1.403 . S
H1221 C1227 0.930 . S
C1222 H1208 0.930 . S
C1222 C1220 1.395 . S
C1222 C1225 1.403 . S
C1223 C1220 1.403 . S
C1223 C1224 1.524 . S
C1223 C1227 1.400 . S
C1224 H1209 0.960 . S
C1224 H1210 0.960 . S
C1224 H1211 0.960 . S
C1224 C1223 1.524 . S
C1225 C1222 1.403 . S
C1225 C1226 1.392 . S
C1225 C1229 1.495 . S
C1226 C1225 1.392 . S
C1226 C1227 1.385 . S
C1226 C1228 1.478 . S
C1227 H1221 0.930 . S
C1227 C1223 1.400 . S
C1227 C1226 1.385 . S
C1228 C1226 1.478 . S
C1228 C1230 1.381 . S
C1228 C1234 1.383 . S
C1229 C1225 1.495 . S
C1229 H1235 0.959 . S
C1229 H1236 0.961 . S
C1229 H1237 0.960 . S
C1230 C1228 1.381 . S
C1230 C1231 1.394 . S
C1230 H1238 0.930 . S
C1231 C1230 1.394 . S
C1231 C1232 1.383 . S
C1231 H1239 0.929 . S
C1232 C1231 1.383 . S
C1232 C1233 1.377 . S
C1233 H1217 0.930 . S
C1233 C1232 1.377 . S
C1233 C1234 1.379 . S
C1234 H1218 0.931 . S
C1234 C1228 1.383 . S
C1234 C1233 1.379 . S
H1235 C1229 0.959 . S
H1236 C1229 0.961 . S
H1237 C1229 0.960 . S
H1238 C1230 0.930 . S
H1239 C1231 0.929 . S
H1240 C1248 0.929 . S
H1241 C1250 0.930 . S
H1242 C1252 0.930 . S
H1243 C1255 0.929 . S
H1244 C1258 0.930 . S
H1245 C1260 0.960 . S
H1246 C1260 0.960 . S
H1247 C1260 0.960 . S
C1248 H1240 0.929 . S
C1248 C1249 1.377 . S
C1248 C1250 1.384 . S
C1249 C1248 1.377 . S
C1249 C1255 1.390 . S
C1250 H1241 0.930 . S
C1250 C1248 1.384 . S
C1250 C1251 1.372 . S
C1251 C1250 1.372 . S
C1251 C1252 1.400 . S
C1251 C1256 1.490 . S
C1252 H1242 0.930 . S
C1252 C1251 1.400 . S
C1252 C1255 1.386 . S
H1253 C1269 0.930 . S
H1254 C1270 0.931 . S
C1255 H1243 0.929 . S
C1255 C1249 1.390 . S
C1255 C1252 1.386 . S
C1256 C1251 1.490 . S
C1256 C1258 1.395 . S
C1256 C1259 1.403 . S
H1257 C1263 0.930 . S
C1258 H1244 0.930 . S
C1258 C1256 1.395 . S
C1258 C1261 1.403 . S
C1259 C1256 1.403 . S
C1259 C1260 1.524 . S
C1259 C1263 1.400 . S
C1260 H1245 0.960 . S
C1260 H1246 0.960 . S
C1260 H1247 0.960 . S
C1260 C1259 1.524 . S
C1261 C1258 1.403 . S
C1261 C1262 1.392 . S
C1261 C1265 1.495 . S
C1262 C1261 1.392 . S
C1262 C1263 1.385 . S
C1262 C1264 1.478 . S
C1263 H1257 0.930 . S
C1263 C1259 1.400 . S
C1263 C1262 1.385 . S
C1264 C1262 1.478 . S
C1264 C1266 1.381 . S
C1264 C1270 1.383 . S
C1265 C1261 1.495 . S
C1265 H1271 0.959 . S
C1265 H1272 0.961 . S
C1265 H1273 0.960 . S
C1266 C1264 1.381 . S
C1266 C1267 1.394 . S
C1266 H1274 0.930 . S
C1267 C1266 1.394 . S
C1267 C1268 1.383 . S
C1267 H1275 0.929 . S
C1268 C1267 1.383 . S
C1268 C1269 1.377 . S
C1269 H1253 0.930 . S
C1269 C1268 1.377 . S
C1269 C1270 1.379 . S
C1270 H1254 0.931 . S
C1270 C1264 1.383 . S
C1270 C1269 1.379 . S
H1271 C1265 0.959 . S
H1272 C1265 0.961 . S
H1273 C1265 0.960 . S
H1274 C1266 0.930 . S
H1275 C1267 0.929 . S
H1276 C1284 0.929 . S
H1277 C1286 0.930 . S
H1278 C1288 0.930 . S
H1279 C1291 0.929 . S
H1280 C1294 0.930 . S
H1281 C1296 0.960 . S
H1282 C1296 0.960 . S
H1283 C1296 0.960 . S
C1284 H1276 0.929 . S
C1284 C1285 1.377 . S
C1284 C1286 1.384 . S
C1285 C1284 1.377 . S
C1285 C1291 1.390 . S
C1286 H1277 0.930 . S
C1286 C1284 1.384 . S
C1286 C1287 1.372 . S
C1287 C1286 1.372 . S
C1287 C1288 1.400 . S
C1287 C1292 1.490 . S
C1288 H1278 0.930 . S
C1288 C1287 1.400 . S
C1288 C1291 1.386 . S
H1289 C1305 0.930 . S
H1290 C1306 0.931 . S
C1291 H1279 0.929 . S
C1291 C1285 1.390 . S
C1291 C1288 1.386 . S
C1292 C1287 1.490 . S
C1292 C1294 1.395 . S
C1292 C1295 1.403 . S
H1293 C1299 0.930 . S
C1294 H1280 0.930 . S
C1294 C1292 1.395 . S
C1294 C1297 1.403 . S
C1295 C1292 1.403 . S
C1295 C1296 1.524 . S
C1295 C1299 1.400 . S
C1296 H1281 0.960 . S
C1296 H1282 0.960 . S
C1296 H1283 0.960 . S
C1296 C1295 1.524 . S
C1297 C1294 1.403 . S
C1297 C1298 1.392 . S
C1297 C1301 1.495 . S
C1298 C1297 1.392 . S
C1298 C1299 1.385 . S
C1298 C1300 1.478 . S
C1299 H1293 0.930 . S
C1299 C1295 1.400 . S
C1299 C1298 1.385 . S
C1300 C1298 1.478 . S
C1300 C1302 1.381 . S
C1300 C1306 1.383 . S
C1301 C1297 1.495 . S
C1301 H1307 0.959 . S
C1301 H1308 0.961 . S
C1301 H1309 0.960 . S
C1302 C1300 1.381 . S
C1302 C1303 1.394 . S
C1302 H1310 0.930 . S
C1303 C1302 1.394 . S
C1303 C1304 1.383 . S
C1303 H1311 0.929 . S
C1304 C1303 1.383 . S
C1304 C1305 1.377 . S
C1305 H1289 0.930 . S
C1305 C1304 1.377 . S
C1305 C1306 1.379 . S
C1306 H1290 0.931 . S
C1306 C1300 1.383 . S
C1306 C1305 1.379 . S
H1307 C1301 0.959 . S
H1308 C1301 0.961 . S
H1309 C1301 0.960 . S
H1310 C1302 0.930 . S
H1311 C1303 0.929 . S
H1312 C1320 0.929 . S
H1313 C1322 0.930 . S
H1314 C1324 0.930 . S
H1315 C1327 0.929 . S
H1316 C1330 0.930 . S
H1317 C1332 0.960 . S
H1318 C1332 0.960 . S
H1319 C1332 0.960 . S
C1320 H1312 0.929 . S
C1320 C1321 1.377 . S
C1320 C1322 1.384 . S
C1321 C1320 1.377 . S
C1321 C1327 1.390 . S
C1322 H1313 0.930 . S
C1322 C1320 1.384 . S
C1322 C1323 1.372 . S
C1323 C1322 1.372 . S
C1323 C1324 1.400 . S
C1323 C1328 1.490 . S
C1324 H1314 0.930 . S
C1324 C1323 1.400 . S
C1324 C1327 1.386 . S
H1325 C1341 0.930 . S
H1326 C1342 0.931 . S
C1327 H1315 0.929 . S
C1327 C1321 1.390 . S
C1327 C1324 1.386 . S
C1328 C1323 1.490 . S
C1328 C1330 1.395 . S
C1328 C1331 1.403 . S
H1329 C1335 0.930 . S
C1330 H1316 0.930 . S
C1330 C1328 1.395 . S
C1330 C1333 1.403 . S
C1331 C1328 1.403 . S
C1331 C1332 1.524 . S
C1331 C1335 1.400 . S
C1332 H1317 0.960 . S
C1332 H1318 0.960 . S
C1332 H1319 0.960 . S
C1332 C1331 1.524 . S
C1333 C1330 1.403 . S
C1333 C1334 1.392 . S
C1333 C1337 1.495 . S
C1334 C1333 1.392 . S
C1334 C1335 1.385 . S
C1334 C1336 1.478 . S
C1335 H1329 0.930 . S
C1335 C1331 1.400 . S
C1335 C1334 1.385 . S
C1336 C1334 1.478 . S
C1336 C1338 1.381 . S
C1336 C1342 1.383 . S
C1337 C1333 1.495 . S
C1337 H1343 0.959 . S
C1337 H1344 0.961 . S
C1337 H1345 0.960 . S
C1338 C1336 1.381 . S
C1338 C1339 1.394 . S
C1338 H1346 0.930 . S
C1339 C1338 1.394 . S
C1339 C1340 1.383 . S
C1339 H1347 0.929 . S
C1340 C1339 1.383 . S
C1340 C1341 1.377 . S
C1341 H1325 0.930 . S
C1341 C1340 1.377 . S
C1341 C1342 1.379 . S
C1342 H1326 0.931 . S
C1342 C1336 1.383 . S
C1342 C1341 1.379 . S
H1343 C1337 0.959 . S
H1344 C1337 0.961 . S
H1345 C1337 0.960 . S
H1346 C1338 0.930 . S
H1347 C1339 0.929 . S
H1348 C1356 0.929 . S
H1349 C1358 0.930 . S
H1350 C1360 0.930 . S
H1351 C1363 0.929 . S
H1352 C1366 0.930 . S
H1353 C1368 0.960 . S
H1354 C1368 0.960 . S
H1355 C1368 0.960 . S
C1356 H1348 0.929 . S
C1356 C1357 1.377 . S
C1356 C1358 1.384 . S
C1357 C1356 1.377 . S
C1357 C1363 1.390 . S
C1358 H1349 0.930 . S
C1358 C1356 1.384 . S
C1358 C1359 1.372 . S
C1359 C1358 1.372 . S
C1359 C1360 1.400 . S
C1359 C1364 1.490 . S
C1360 H1350 0.930 . S
C1360 C1359 1.400 . S
C1360 C1363 1.386 . S
H1361 C1377 0.930 . S
H1362 C1378 0.931 . S
C1363 H1351 0.929 . S
C1363 C1357 1.390 . S
C1363 C1360 1.386 . S
C1364 C1359 1.490 . S
C1364 C1366 1.395 . S
C1364 C1367 1.403 . S
H1365 C1371 0.930 . S
C1366 H1352 0.930 . S
C1366 C1364 1.395 . S
C1366 C1369 1.403 . S
C1367 C1364 1.403 . S
C1367 C1368 1.524 . S
C1367 C1371 1.400 . S
C1368 H1353 0.960 . S
C1368 H1354 0.960 . S
C1368 H1355 0.960 . S
C1368 C1367 1.524 . S
C1369 C1366 1.403 . S
C1369 C1370 1.392 . S
C1369 C1373 1.495 . S
C1370 C1369 1.392 . S
C1370 C1371 1.385 . S
C1370 C1372 1.478 . S
C1371 H1365 0.930 . S
C1371 C1367 1.400 . S
C1371 C1370 1.385 . S
C1372 C1370 1.478 . S
C1372 C1374 1.381 . S
C1372 C1378 1.383 . S
C1373 C1369 1.495 . S
C1373 H1379 0.959 . S
C1373 H1380 0.961 . S
C1373 H1381 0.960 . S
C1374 C1372 1.381 . S
C1374 C1375 1.394 . S
C1374 H1382 0.930 . S
C1375 C1374 1.394 . S
C1375 C1376 1.383 . S
C1375 H1383 0.929 . S
C1376 C1375 1.383 . S
C1376 C1377 1.377 . S
C1377 H1361 0.930 . S
C1377 C1376 1.377 . S
C1377 C1378 1.379 . S
C1378 H1362 0.931 . S
C1378 C1372 1.383 . S
C1378 C1377 1.379 . S
H1379 C1373 0.959 . S
H1380 C1373 0.961 . S
H1381 C1373 0.960 . S
H1382 C1374 0.930 . S
H1383 C1375 0.929 . S
H1384 C1392 0.929 . S
H1385 C1394 0.930 . S
H1386 C1396 0.930 . S
H1387 C1399 0.929 . S
H1388 C1402 0.930 . S
H1389 C1404 0.960 . S
H1390 C1404 0.960 . S
H1391 C1404 0.960 . S
C1392 H1384 0.929 . S
C1392 C1393 1.377 . S
C1392 C1394 1.384 . S
C1393 C1392 1.377 . S
C1393 C1399 1.390 . S
C1394 H1385 0.930 . S
C1394 C1392 1.384 . S
C1394 C1395 1.372 . S
C1395 C1394 1.372 . S
C1395 C1396 1.400 . S
C1395 C1400 1.490 . S
C1396 H1386 0.930 . S
C1396 C1395 1.400 . S
C1396 C1399 1.386 . S
H1397 C1413 0.930 . S
H1398 C1414 0.931 . S
C1399 H1387 0.929 . S
C1399 C1393 1.390 . S
C1399 C1396 1.386 . S
C1400 C1395 1.490 . S
C1400 C1402 1.395 . S
C1400 C1403 1.403 . S
H1401 C1407 0.930 . S
C1402 H1388 0.930 . S
C1402 C1400 1.395 . S
C1402 C1405 1.403 . S
C1403 C1400 1.403 . S
C1403 C1404 1.524 . S
C1403 C1407 1.400 . S
C1404 H1389 0.960 . S
C1404 H1390 0.960 . S
C1404 H1391 0.960 . S
C1404 C1403 1.524 . S
C1405 C1402 1.403 . S
C1405 C1406 1.392 . S
C1405 C1409 1.495 . S
C1406 C1405 1.392 . S
C1406 C1407 1.385 . S
C1406 C1408 1.478 . S
C1407 H1401 0.930 . S
C1407 C1403 1.400 . S
C1407 C1406 1.385 . S
C1408 C1406 1.478 . S
C1408 C1410 1.381 . S
C1408 C1414 1.383 . S
C1409 C1405 1.495 . S
C1409 H1415 0.959 . S
C1409 H1416 0.961 . S
C1409 H1417 0.960 . S
C1410 C1408 1.381 . S
C1410 C1411 1.394 1_556 S
C1410 H1418 0.930 . S
C1411 C1410 1.394 1_554 S
C1411 C1412 1.383 . S
C1411 H1419 0.929 . S
C1412 C1411 1.383 . S
C1412 C1413 1.377 . S
C1413 H1397 0.930 . S
C1413 C1412 1.377 . S
C1413 C1414 1.379 1_554 S
C1414 H1398 0.931 . S
C1414 C1408 1.383 . S
C1414 C1413 1.379 1_556 S
H1415 C1409 0.959 . S
H1416 C1409 0.961 . S
H1417 C1409 0.960 . S
H1418 C1410 0.930 . S
H1419 C1411 0.929 . S
H1420 C1428 0.929 . S
H1421 C1430 0.930 . S
H1422 C1432 0.930 . S
H1423 C1435 0.929 . S
H1424 C1438 0.930 . S
H1425 C1440 0.960 . S
H1426 C1440 0.960 . S
H1427 C1440 0.960 . S
C1428 H1420 0.929 . S
C1428 C1429 1.377 . S
C1428 C1430 1.384 . S
C1429 C1428 1.377 . S
C1429 C1435 1.390 . S
C1430 H1421 0.930 . S
C1430 C1428 1.384 . S
C1430 C1431 1.372 . S
C1431 C1430 1.372 . S
C1431 C1432 1.400 . S
C1431 C1436 1.490 . S
C1432 H1422 0.930 . S
C1432 C1431 1.400 . S
C1432 C1435 1.386 . S
H1433 C1449 0.930 . S
H1434 C1450 0.931 . S
C1435 H1423 0.929 . S
C1435 C1429 1.390 . S
C1435 C1432 1.386 . S
C1436 C1431 1.490 . S
C1436 C1438 1.395 . S
C1436 C1439 1.403 . S
H1437 C1443 0.930 . S
C1438 H1424 0.930 . S
C1438 C1436 1.395 . S
C1438 C1441 1.403 . S
C1439 C1436 1.403 . S
C1439 C1440 1.524 . S
C1439 C1443 1.400 . S
C1440 H1425 0.960 . S
C1440 H1426 0.960 . S
C1440 H1427 0.960 . S
C1440 C1439 1.524 . S
C1441 C1438 1.403 . S
C1441 C1442 1.392 . S
C1441 C1445 1.495 . S
C1442 C1441 1.392 . S
C1442 C1443 1.385 . S
C1442 C1444 1.478 . S
C1443 H1437 0.930 . S
C1443 C1439 1.400 . S
C1443 C1442 1.385 . S
C1444 C1442 1.478 . S
C1444 C1446 1.381 . S
C1444 C1450 1.383 . S
C1445 C1441 1.495 . S
C1445 H1451 0.959 . S
C1445 H1452 0.961 . S
C1445 H1453 0.960 . S
C1446 C1444 1.381 . S
C1446 C1447 1.394 1_554 S
C1446 H1454 0.930 . S
C1447 C1446 1.394 1_556 S
C1447 C1448 1.383 . S
C1447 H1455 0.929 . S
C1448 C1447 1.383 . S
C1448 C1449 1.377 . S
C1449 H1433 0.930 . S
C1449 C1448 1.377 . S
C1449 C1450 1.379 1_556 S
C1450 H1434 0.931 . S
C1450 C1444 1.383 . S
C1450 C1449 1.379 1_554 S
H1451 C1445 0.959 . S
H1452 C1445 0.961 . S
H1453 C1445 0.960 . S
H1454 C1446 0.930 . S
H1455 C1447 0.929 . S
H1456 C1464 0.929 . S
H1457 C1466 0.930 . S
H1458 C1468 0.930 . S
H1459 C1471 0.929 . S
H1460 C1474 0.930 . S
H1461 C1476 0.960 . S
H1462 C1476 0.960 . S
H1463 C1476 0.960 . S
C1464 H1456 0.929 . S
C1464 C1465 1.377 . S
C1464 C1466 1.384 . S
C1465 C1464 1.377 . S
C1465 C1471 1.390 . S
C1466 H1457 0.930 . S
C1466 C1464 1.384 . S
C1466 C1467 1.372 . S
C1467 C1466 1.372 . S
C1467 C1468 1.400 . S
C1467 C1472 1.490 . S
C1468 H1458 0.930 . S
C1468 C1467 1.400 . S
C1468 C1471 1.386 . S
H1469 C1485 0.930 . S
H1470 C1486 0.931 . S
C1471 H1459 0.929 . S
C1471 C1465 1.390 . S
C1471 C1468 1.386 . S
C1472 C1467 1.490 . S
C1472 C1474 1.395 . S
C1472 C1475 1.403 . S
H1473 C1479 0.930 . S
C1474 H1460 0.930 . S
C1474 C1472 1.395 . S
C1474 C1477 1.403 . S
C1475 C1472 1.403 . S
C1475 C1476 1.524 . S
C1475 C1479 1.400 . S
C1476 H1461 0.960 . S
C1476 H1462 0.960 . S
C1476 H1463 0.960 . S
C1476 C1475 1.524 . S
C1477 C1474 1.403 . S
C1477 C1478 1.392 . S
C1477 C1481 1.495 . S
C1478 C1477 1.392 . S
C1478 C1479 1.385 . S
C1478 C1480 1.478 . S
C1479 H1473 0.930 . S
C1479 C1475 1.400 . S
C1479 C1478 1.385 . S
C1480 C1478 1.478 . S
C1480 C1482 1.381 . S
C1480 C1486 1.383 . S
C1481 C1477 1.495 . S
C1481 H1487 0.959 . S
C1481 H1488 0.961 . S
C1481 H1489 0.960 . S
C1482 C1480 1.381 . S
C1482 C1483 1.394 . S
C1482 H1490 0.930 . S
C1483 C1482 1.394 . S
C1483 C1484 1.383 . S
C1483 H1491 0.929 . S
C1484 C1483 1.383 . S
C1484 C1485 1.377 . S
C1485 H1469 0.930 . S
C1485 C1484 1.377 . S
C1485 C1486 1.379 . S
C1486 H1470 0.931 . S
C1486 C1480 1.383 . S
C1486 C1485 1.379 . S
H1487 C1481 0.959 . S
H1488 C1481 0.961 . S
H1489 C1481 0.960 . S
H1490 C1482 0.930 . S
H1491 C1483 0.929 . S
H1492 C1500 0.929 . S
H1493 C1502 0.930 . S
H1494 C1504 0.930 . S
H1495 C1507 0.929 . S
H1496 C1510 0.930 . S
H1497 C1512 0.960 . S
H1498 C1512 0.960 . S
H1499 C1512 0.960 . S
C1500 H1492 0.929 . S
C1500 C1501 1.377 . S
C1500 C1502 1.384 . S
C1501 C1500 1.377 . S
C1501 C1507 1.390 . S
C1502 H1493 0.930 . S
C1502 C1500 1.384 . S
C1502 C1503 1.372 . S
C1503 C1502 1.372 . S
C1503 C1504 1.400 . S
C1503 C1508 1.490 . S
C1504 H1494 0.930 . S
C1504 C1503 1.400 . S
C1504 C1507 1.386 . S
H1505 C1521 0.930 . S
H1506 C1522 0.931 . S
C1507 H1495 0.929 . S
C1507 C1501 1.390 . S
C1507 C1504 1.386 . S
C1508 C1503 1.490 . S
C1508 C1510 1.395 . S
C1508 C1511 1.403 . S
H1509 C1515 0.930 . S
C1510 H1496 0.930 . S
C1510 C1508 1.395 . S
C1510 C1513 1.403 . S
C1511 C1508 1.403 . S
C1511 C1512 1.524 . S
C1511 C1515 1.400 . S
C1512 H1497 0.960 . S
C1512 H1498 0.960 . S
C1512 H1499 0.960 . S
C1512 C1511 1.524 . S
C1513 C1510 1.403 . S
C1513 C1514 1.392 . S
C1513 C1517 1.495 . S
C1514 C1513 1.392 . S
C1514 C1515 1.385 . S
C1514 C1516 1.478 . S
C1515 H1509 0.930 . S
C1515 C1511 1.400 . S
C1515 C1514 1.385 . S
C1516 C1514 1.478 . S
C1516 C1518 1.381 . S
C1516 C1522 1.383 . S
C1517 C1513 1.495 . S
C1517 H1523 0.959 . S
C1517 H1524 0.961 . S
C1517 H1525 0.960 . S
C1518 C1516 1.381 . S
C1518 C1519 1.394 . S
C1518 H1526 0.930 . S
C1519 C1518 1.394 . S
C1519 C1520 1.383 . S
C1519 H1527 0.929 . S
C1520 C1519 1.383 . S
C1520 C1521 1.377 . S
C1521 H1505 0.930 . S
C1521 C1520 1.377 . S
C1521 C1522 1.379 . S
C1522 H1506 0.931 . S
C1522 C1516 1.383 . S
C1522 C1521 1.379 . S
H1523 C1517 0.959 . S
H1524 C1517 0.961 . S
H1525 C1517 0.960 . S
H1526 C1518 0.930 . S
H1527 C1519 0.929 . S
H1528 C1536 0.929 . S
H1529 C1538 0.930 . S
H1530 C1540 0.930 . S
H1531 C1543 0.929 . S
H1532 C1546 0.930 . S
H1533 C1548 0.960 . S
H1534 C1548 0.960 . S
H1535 C1548 0.960 . S
C1536 H1528 0.929 . S
C1536 C1537 1.377 1_554 S
C1536 C1538 1.384 . S
C1537 C1536 1.377 1_556 S
C1537 C1543 1.390 . S
C1538 H1529 0.930 . S
C1538 C1536 1.384 . S
C1538 C1539 1.372 . S
C1539 C1538 1.372 . S
C1539 C1540 1.400 . S
C1539 C1544 1.490 . S
C1540 H1530 0.930 . S
C1540 C1539 1.400 . S
C1540 C1543 1.386 1_554 S
H1541 C1557 0.930 . S
H1542 C1558 0.931 . S
C1543 H1531 0.929 . S
C1543 C1537 1.390 . S
C1543 C1540 1.386 1_556 S
C1544 C1539 1.490 . S
C1544 C1546 1.395 . S
C1544 C1547 1.403 . S
H1545 C1551 0.930 . S
C1546 H1532 0.930 . S
C1546 C1544 1.395 . S
C1546 C1549 1.403 . S
C1547 C1544 1.403 . S
C1547 C1548 1.524 . S
C1547 C1551 1.400 . S
C1548 H1533 0.960 . S
C1548 H1534 0.960 . S
C1548 H1535 0.960 . S
C1548 C1547 1.524 . S
C1549 C1546 1.403 . S
C1549 C1550 1.392 . S
C1549 C1553 1.495 . S
C1550 C1549 1.392 . S
C1550 C1551 1.385 . S
C1550 C1552 1.478 . S
C1551 H1545 0.930 . S
C1551 C1547 1.400 . S
C1551 C1550 1.385 . S
C1552 C1550 1.478 . S
C1552 C1554 1.381 . S
C1552 C1558 1.383 . S
C1553 C1549 1.495 . S
C1553 H1559 0.959 . S
C1553 H1560 0.961 . S
C1553 H1561 0.960 . S
C1554 C1552 1.381 . S
C1554 C1555 1.394 . S
C1554 H1562 0.930 . S
C1555 C1554 1.394 . S
C1555 C1556 1.383 . S
C1555 H1563 0.929 . S
C1556 C1555 1.383 . S
C1556 C1557 1.377 . S
C1557 H1541 0.930 . S
C1557 C1556 1.377 . S
C1557 C1558 1.379 . S
C1558 H1542 0.931 . S
C1558 C1552 1.383 . S
C1558 C1557 1.379 . S
H1559 C1553 0.959 . S
H1560 C1553 0.961 . S
H1561 C1553 0.960 . S
H1562 C1554 0.930 . S
H1563 C1555 0.929 . S
H1564 C1572 0.929 . S
H1565 C1574 0.930 . S
H1566 C1576 0.930 . S
H1567 C1579 0.929 . S
H1568 C1582 0.930 . S
H1569 C1584 0.960 . S
H1570 C1584 0.960 . S
H1571 C1584 0.960 . S
C1572 H1564 0.929 . S
C1572 C1573 1.377 . S
C1572 C1574 1.384 . S
C1573 C1572 1.377 . S
C1573 C1579 1.390 . S
C1574 H1565 0.930 . S
C1574 C1572 1.384 . S
C1574 C1575 1.372 . S
C1575 C1574 1.372 . S
C1575 C1576 1.400 . S
C1575 C1580 1.490 . S
C1576 H1566 0.930 . S
C1576 C1575 1.400 . S
C1576 C1579 1.386 . S
H1577 C1593 0.930 . S
H1578 C1594 0.931 . S
C1579 H1567 0.929 . S
C1579 C1573 1.390 . S
C1579 C1576 1.386 . S
C1580 C1575 1.490 . S
C1580 C1582 1.395 . S
C1580 C1583 1.403 . S
H1581 C1587 0.930 . S
C1582 H1568 0.930 . S
C1582 C1580 1.395 . S
C1582 C1585 1.403 . S
C1583 C1580 1.403 . S
C1583 C1584 1.524 . S
C1583 C1587 1.400 . S
C1584 H1569 0.960 . S
C1584 H1570 0.960 . S
C1584 H1571 0.960 . S
C1584 C1583 1.524 . S
C1585 C1582 1.403 . S
C1585 C1586 1.392 . S
C1585 C1589 1.495 . S
C1586 C1585 1.392 . S
C1586 C1587 1.385 . S
C1586 C1588 1.478 . S
C1587 H1581 0.930 . S
C1587 C1583 1.400 . S
C1587 C1586 1.385 . S
C1588 C1586 1.478 . S
C1588 C1590 1.381 . S
C1588 C1594 1.383 . S
C1589 C1585 1.495 . S
C1589 H1595 0.959 . S
C1589 H1596 0.961 . S
C1589 H1597 0.960 . S
C1590 C1588 1.381 . S
C1590 C1591 1.394 1_556 S
C1590 H1598 0.930 . S
C1591 C1590 1.394 1_554 S
C1591 C1592 1.383 . S
C1591 H1599 0.929 . S
C1592 C1591 1.383 . S
C1592 C1593 1.377 1_554 S
C1593 H1577 0.930 . S
C1593 C1592 1.377 1_556 S
C1593 C1594 1.379 . S
C1594 H1578 0.931 . S
C1594 C1588 1.383 . S
C1594 C1593 1.379 . S
H1595 C1589 0.959 . S
H1596 C1589 0.961 . S
H1597 C1589 0.960 . S
H1598 C1590 0.930 . S
H1599 C1591 0.929 . S
H1600 C1608 0.929 . S
H1601 C1610 0.930 . S
H1602 C1612 0.930 . S
H1603 C1615 0.929 . S
H1604 C1618 0.930 . S
H1605 C1620 0.960 . S
H1606 C1620 0.960 . S
H1607 C1620 0.960 . S
C1608 H1600 0.929 . S
C1608 C1609 1.377 . S
C1608 C1610 1.384 . S
C1609 C1608 1.377 . S
C1609 C1615 1.390 . S
C1610 H1601 0.930 . S
C1610 C1608 1.384 . S
C1610 C1611 1.372 . S
C1611 C1610 1.372 . S
C1611 C1612 1.400 . S
C1611 C1616 1.490 . S
C1612 H1602 0.930 . S
C1612 C1611 1.400 . S
C1612 C1615 1.386 . S
H1613 C1629 0.930 . S
H1614 C1630 0.931 . S
C1615 H1603 0.929 . S
C1615 C1609 1.390 . S
C1615 C1612 1.386 . S
C1616 C1611 1.490 . S
C1616 C1618 1.395 . S
C1616 C1619 1.403 . S
H1617 C1623 0.930 . S
C1618 H1604 0.930 . S
C1618 C1616 1.395 . S
C1618 C1621 1.403 . S
C1619 C1616 1.403 . S
C1619 C1620 1.524 . S
C1619 C1623 1.400 . S
C1620 H1605 0.960 . S
C1620 H1606 0.960 . S
C1620 H1607 0.960 . S
C1620 C1619 1.524 . S
C1621 C1618 1.403 . S
C1621 C1622 1.392 . S
C1621 C1625 1.495 . S
C1622 C1621 1.392 . S
C1622 C1623 1.385 . S
C1622 C1624 1.478 . S
C1623 H1617 0.930 . S
C1623 C1619 1.400 . S
C1623 C1622 1.385 . S
C1624 C1622 1.478 . S
C1624 C1626 1.381 . S
C1624 C1630 1.383 . S
C1625 C1621 1.495 . S
C1625 H1631 0.959 . S
C1625 H1632 0.961 . S
C1625 H1633 0.960 . S
C1626 C1624 1.381 . S
C1626 C1627 1.394 . S
C1626 H1634 0.930 . S
C1627 C1626 1.394 . S
C1627 C1628 1.383 . S
C1627 H1635 0.929 . S
C1628 C1627 1.383 . S
C1628 C1629 1.377 . S
C1629 H1613 0.930 . S
C1629 C1628 1.377 . S
C1629 C1630 1.379 . S
C1630 H1614 0.931 . S
C1630 C1624 1.383 . S
C1630 C1629 1.379 . S
H1631 C1625 0.959 . S
H1632 C1625 0.961 . S
H1633 C1625 0.960 . S
H1634 C1626 0.930 . S
H1635 C1627 0.929 . S
H1636 C1644 0.929 . S
H1637 C1646 0.930 . S
H1638 C1648 0.930 . S
H1639 C1651 0.929 . S
H1640 C1654 0.930 . S
H1641 C1656 0.960 . S
H1642 C1656 0.960 . S
H1643 C1656 0.960 . S
C1644 H1636 0.929 . S
C1644 C1645 1.377 . S
C1644 C1646 1.384 . S
C1645 C1644 1.377 . S
C1645 C1651 1.390 . S
C1646 H1637 0.930 . S
C1646 C1644 1.384 . S
C1646 C1647 1.372 . S
C1647 C1646 1.372 . S
C1647 C1648 1.400 . S
C1647 C1652 1.490 . S
C1648 H1638 0.930 . S
C1648 C1647 1.400 . S
C1648 C1651 1.386 . S
H1649 C1665 0.930 . S
H1650 C1666 0.931 . S
C1651 H1639 0.929 . S
C1651 C1645 1.390 . S
C1651 C1648 1.386 . S
C1652 C1647 1.490 . S
C1652 C1654 1.395 . S
C1652 C1655 1.403 . S
H1653 C1659 0.930 . S
C1654 H1640 0.930 . S
C1654 C1652 1.395 . S
C1654 C1657 1.403 1_655 S
C1655 C1652 1.403 . S
C1655 C1656 1.524 . S
C1655 C1659 1.400 1_655 S
C1656 H1641 0.960 . S
C1656 H1642 0.960 . S
C1656 H1643 0.960 . S
C1656 C1655 1.524 . S
C1657 C1654 1.403 1_455 S
C1657 C1658 1.392 . S
C1657 C1661 1.495 . S
C1658 C1657 1.392 . S
C1658 C1659 1.385 . S
C1658 C1660 1.478 . S
C1659 H1653 0.930 . S
C1659 C1655 1.400 1_455 S
C1659 C1658 1.385 . S
C1660 C1658 1.478 . S
C1660 C1662 1.381 . S
C1660 C1666 1.383 . S
C1661 C1657 1.495 . S
C1661 H1667 0.959 . S
C1661 H1668 0.961 . S
C1661 H1669 0.960 . S
C1662 C1660 1.381 . S
C1662 C1663 1.394 . S
C1662 H1670 0.930 . S
C1663 C1662 1.394 . S
C1663 C1664 1.383 . S
C1663 H1671 0.929 . S
C1664 C1663 1.383 . S
C1664 C1665 1.377 . S
C1665 H1649 0.930 . S
C1665 C1664 1.377 . S
C1665 C1666 1.379 . S
C1666 H1650 0.931 . S
C1666 C1660 1.383 . S
C1666 C1665 1.379 . S
H1667 C1661 0.959 . S
H1668 C1661 0.961 . S
H1669 C1661 0.960 . S
H1670 C1662 0.930 . S
H1671 C1663 0.929 . S
H1672 C1680 0.929 . S
H1673 C1682 0.930 . S
H1674 C1684 0.930 . S
H1675 C1687 0.929 . S
H1676 C1690 0.930 . S
H1677 C1692 0.960 . S
H1678 C1692 0.960 . S
H1679 C1692 0.960 . S
C1680 H1672 0.929 . S
C1680 C1681 1.377 . S
C1680 C1682 1.384 . S
C1681 C1680 1.377 . S
C1681 C1687 1.390 . S
C1682 H1673 0.930 . S
C1682 C1680 1.384 . S
C1682 C1683 1.372 . S
C1683 C1682 1.372 . S
C1683 C1684 1.400 . S
C1683 C1688 1.490 . S
C1684 H1674 0.930 . S
C1684 C1683 1.400 . S
C1684 C1687 1.386 . S
H1685 C1701 0.930 . S
H1686 C1702 0.931 . S
C1687 H1675 0.929 . S
C1687 C1681 1.390 . S
C1687 C1684 1.386 . S
C1688 C1683 1.490 . S
C1688 C1690 1.395 . S
C1688 C1691 1.403 . S
H1689 C1695 0.930 . S
C1690 H1676 0.930 . S
C1690 C1688 1.395 . S
C1690 C1693 1.403 . S
C1691 C1688 1.403 . S
C1691 C1692 1.524 . S
C1691 C1695 1.400 . S
C1692 H1677 0.960 . S
C1692 H1678 0.960 . S
C1692 H1679 0.960 . S
C1692 C1691 1.524 . S
C1693 C1690 1.403 . S
C1693 C1694 1.392 . S
C1693 C1697 1.495 . S
C1694 C1693 1.392 . S
C1694 C1695 1.385 . S
C1694 C1696 1.478 . S
C1695 H1689 0.930 . S
C1695 C1691 1.400 . S
C1695 C1694 1.385 . S
C1696 C1694 1.478 . S
C1696 C1698 1.381 . S
C1696 C1702 1.383 . S
C1697 C1693 1.495 . S
C1697 H1703 0.959 . S
C1697 H1704 0.961 . S
C1697 H1705 0.960 . S
C1698 C1696 1.381 . S
C1698 C1699 1.394 . S
C1698 H1706 0.930 . S
C1699 C1698 1.394 . S
C1699 C1700 1.383 . S
C1699 H1707 0.929 . S
C1700 C1699 1.383 . S
C1700 C1701 1.377 . S
C1701 H1685 0.930 . S
C1701 C1700 1.377 . S
C1701 C1702 1.379 . S
C1702 H1686 0.931 . S
C1702 C1696 1.383 . S
C1702 C1701 1.379 . S
H1703 C1697 0.959 . S
H1704 C1697 0.961 . S
H1705 C1697 0.960 . S
H1706 C1698 0.930 . S
H1707 C1699 0.929 . S
H1708 C1716 0.929 . S
H1709 C1718 0.930 . S
H1710 C1720 0.930 . S
H1711 C1723 0.929 . S
H1712 C1726 0.930 . S
H1713 C1728 0.960 . S
H1714 C1728 0.960 . S
H1715 C1728 0.960 . S
C1716 H1708 0.929 . S
C1716 C1717 1.377 . S
C1716 C1718 1.384 . S
C1717 C1716 1.377 . S
C1717 C1723 1.390 . S
C1718 H1709 0.930 . S
C1718 C1716 1.384 . S
C1718 C1719 1.372 . S
C1719 C1718 1.372 . S
C1719 C1720 1.400 . S
C1719 C1724 1.490 . S
C1720 H1710 0.930 . S
C1720 C1719 1.400 . S
C1720 C1723 1.386 . S
H1721 C1737 0.930 . S
H1722 C1738 0.931 . S
C1723 H1711 0.929 . S
C1723 C1717 1.390 . S
C1723 C1720 1.386 . S
C1724 C1719 1.490 . S
C1724 C1726 1.395 . S
C1724 C1727 1.403 . S
H1725 C1731 0.930 . S
C1726 H1712 0.930 . S
C1726 C1724 1.395 . S
C1726 C1729 1.403 . S
C1727 C1724 1.403 . S
C1727 C1728 1.524 . S
C1727 C1731 1.400 . S
C1728 H1713 0.960 . S
C1728 H1714 0.960 . S
C1728 H1715 0.960 . S
C1728 C1727 1.524 . S
C1729 C1726 1.403 . S
C1729 C1730 1.392 . S
C1729 C1733 1.495 . S
C1730 C1729 1.392 . S
C1730 C1731 1.385 . S
C1730 C1732 1.478 . S
C1731 H1725 0.930 . S
C1731 C1727 1.400 . S
C1731 C1730 1.385 . S
C1732 C1730 1.478 . S
C1732 C1734 1.381 . S
C1732 C1738 1.383 . S
C1733 C1729 1.495 . S
C1733 H1739 0.959 . S
C1733 H1740 0.961 . S
C1733 H1741 0.960 . S
C1734 C1732 1.381 . S
C1734 C1735 1.394 . S
C1734 H1742 0.930 . S
C1735 C1734 1.394 . S
C1735 C1736 1.383 . S
C1735 H1743 0.929 . S
C1736 C1735 1.383 . S
C1736 C1737 1.377 . S
C1737 H1721 0.930 . S
C1737 C1736 1.377 . S
C1737 C1738 1.379 . S
C1738 H1722 0.931 . S
C1738 C1732 1.383 . S
C1738 C1737 1.379 . S
H1739 C1733 0.959 . S
H1740 C1733 0.961 . S
H1741 C1733 0.960 . S
H1742 C1734 0.930 . S
H1743 C1735 0.929 . S
H1744 C1752 0.929 . S
H1745 C1754 0.930 . S
H1746 C1756 0.930 . S
H1747 C1759 0.929 . S
H1748 C1762 0.930 . S
H1749 C1764 0.960 . S
H1750 C1764 0.960 . S
H1751 C1764 0.960 . S
C1752 H1744 0.929 . S
C1752 C1753 1.377 . S
C1752 C1754 1.384 . S
C1753 C1752 1.377 . S
C1753 C1759 1.390 . S
C1754 H1745 0.930 . S
C1754 C1752 1.384 . S
C1754 C1755 1.372 . S
C1755 C1754 1.372 . S
C1755 C1756 1.400 . S
C1755 C1760 1.490 . S
C1756 H1746 0.930 . S
C1756 C1755 1.400 . S
C1756 C1759 1.386 . S
H1757 C1773 0.930 . S
H1758 C1774 0.931 . S
C1759 H1747 0.929 . S
C1759 C1753 1.390 . S
C1759 C1756 1.386 . S
C1760 C1755 1.490 . S
C1760 C1762 1.395 . S
C1760 C1763 1.403 . S
H1761 C1767 0.930 . S
C1762 H1748 0.930 . S
C1762 C1760 1.395 . S
C1762 C1765 1.403 . S
C1763 C1760 1.403 . S
C1763 C1764 1.524 . S
C1763 C1767 1.400 . S
C1764 H1749 0.960 . S
C1764 H1750 0.960 . S
C1764 H1751 0.960 . S
C1764 C1763 1.524 . S
C1765 C1762 1.403 . S
C1765 C1766 1.392 . S
C1765 C1769 1.495 . S
C1766 C1765 1.392 . S
C1766 C1767 1.385 . S
C1766 C1768 1.478 . S
C1767 H1761 0.930 . S
C1767 C1763 1.400 . S
C1767 C1766 1.385 . S
C1768 C1766 1.478 . S
C1768 C1770 1.381 . S
C1768 C1774 1.383 . S
C1769 C1765 1.495 . S
C1769 H1775 0.959 . S
C1769 H1776 0.961 . S
C1769 H1777 0.960 . S
C1770 C1768 1.381 . S
C1770 C1771 1.394 . S
C1770 H1778 0.930 . S
C1771 C1770 1.394 . S
C1771 C1772 1.383 . S
C1771 H1779 0.929 . S
C1772 C1771 1.383 . S
C1772 C1773 1.377 . S
C1773 H1757 0.930 . S
C1773 C1772 1.377 . S
C1773 C1774 1.379 . S
C1774 H1758 0.931 . S
C1774 C1768 1.383 . S
C1774 C1773 1.379 . S
H1775 C1769 0.959 . S
H1776 C1769 0.961 . S
H1777 C1769 0.960 . S
H1778 C1770 0.930 . S
H1779 C1771 0.929 . S
H1780 C1788 0.929 . S
H1781 C1790 0.930 . S
H1782 C1792 0.930 . S
H1783 C1795 0.929 . S
H1784 C1798 0.930 . S
H1785 C1800 0.960 . S
H1786 C1800 0.960 . S
H1787 C1800 0.960 . S
C1788 H1780 0.929 . S
C1788 C1789 1.377 . S
C1788 C1790 1.384 . S
C1789 C1788 1.377 . S
C1789 C1795 1.390 . S
C1790 H1781 0.930 . S
C1790 C1788 1.384 . S
C1790 C1791 1.372 . S
C1791 C1790 1.372 . S
C1791 C1792 1.400 . S
C1791 C1796 1.490 . S
C1792 H1782 0.930 . S
C1792 C1791 1.400 . S
C1792 C1795 1.386 . S
H1793 C1809 0.930 . S
H1794 C1810 0.931 . S
C1795 H1783 0.929 . S
C1795 C1789 1.390 . S
C1795 C1792 1.386 . S
C1796 C1791 1.490 . S
C1796 C1798 1.395 . S
C1796 C1799 1.403 . S
H1797 C1803 0.930 . S
C1798 H1784 0.930 . S
C1798 C1796 1.395 . S
C1798 C1801 1.403 . S
C1799 C1796 1.403 . S
C1799 C1800 1.524 . S
C1799 C1803 1.400 . S
C1800 H1785 0.960 . S
C1800 H1786 0.960 . S
C1800 H1787 0.960 . S
C1800 C1799 1.524 . S
C1801 C1798 1.403 . S
C1801 C1802 1.392 . S
C1801 C1805 1.495 . S
C1802 C1801 1.392 . S
C1802 C1803 1.385 . S
C1802 C1804 1.478 . S
C1803 H1797 0.930 . S
C1803 C1799 1.400 . S
C1803 C1802 1.385 . S
C1804 C1802 1.478 . S
C1804 C1806 1.381 . S
C1804 C1810 1.383 . S
C1805 C1801 1.495 . S
C1805 H1811 0.959 . S
C1805 H1812 0.961 . S
C1805 H1813 0.960 . S
C1806 C1804 1.381 . S
C1806 C1807 1.394 . S
C1806 H1814 0.930 . S
C1807 C1806 1.394 . S
C1807 C1808 1.383 . S
C1807 H1815 0.929 . S
C1808 C1807 1.383 . S
C1808 C1809 1.377 . S
C1809 H1793 0.930 . S
C1809 C1808 1.377 . S
C1809 C1810 1.379 . S
C1810 H1794 0.931 . S
C1810 C1804 1.383 . S
C1810 C1809 1.379 . S
H1811 C1805 0.959 . S
H1812 C1805 0.961 . S
H1813 C1805 0.960 . S
H1814 C1806 0.930 . S
H1815 C1807 0.929 . S
H1816 C1824 0.929 . S
H1817 C1826 0.930 . S
H1818 C1828 0.930 . S
H1819 C1831 0.929 . S
H1820 C1834 0.930 . S
H1821 C1836 0.960 . S
H1822 C1836 0.960 . S
H1823 C1836 0.960 . S
C1824 H1816 0.929 . S
C1824 C1825 1.377 . S
C1824 C1826 1.384 . S
C1825 C1824 1.377 . S
C1825 C1831 1.390 . S
C1826 H1817 0.930 . S
C1826 C1824 1.384 . S
C1826 C1827 1.372 . S
C1827 C1826 1.372 . S
C1827 C1828 1.400 . S
C1827 C1832 1.490 . S
C1828 H1818 0.930 . S
C1828 C1827 1.400 . S
C1828 C1831 1.386 . S
H1829 C1845 0.930 . S
H1830 C1846 0.931 . S
C1831 H1819 0.929 . S
C1831 C1825 1.390 . S
C1831 C1828 1.386 . S
C1832 C1827 1.490 . S
C1832 C1834 1.395 . S
C1832 C1835 1.403 . S
H1833 C1839 0.930 . S
C1834 H1820 0.930 . S
C1834 C1832 1.395 . S
C1834 C1837 1.403 . S
C1835 C1832 1.403 . S
C1835 C1836 1.524 . S
C1835 C1839 1.400 . S
C1836 H1821 0.960 . S
C1836 H1822 0.960 . S
C1836 H1823 0.960 . S
C1836 C1835 1.524 . S
C1837 C1834 1.403 . S
C1837 C1838 1.392 . S
C1837 C1841 1.495 . S
C1838 C1837 1.392 . S
C1838 C1839 1.385 . S
C1838 C1840 1.478 . S
C1839 H1833 0.930 . S
C1839 C1835 1.400 . S
C1839 C1838 1.385 . S
C1840 C1838 1.478 . S
C1840 C1842 1.381 . S
C1840 C1846 1.383 . S
C1841 C1837 1.495 . S
C1841 H1847 0.959 . S
C1841 H1848 0.961 . S
C1841 H1849 0.960 . S
C1842 C1840 1.381 . S
C1842 C1843 1.394 . S
C1842 H1850 0.930 . S
C1843 C1842 1.394 . S
C1843 C1844 1.383 . S
C1843 H1851 0.929 . S
C1844 C1843 1.383 . S
C1844 C1845 1.377 . S
C1845 H1829 0.930 . S
C1845 C1844 1.377 . S
C1845 C1846 1.379 . S
C1846 H1830 0.931 . S
C1846 C1840 1.383 . S
C1846 C1845 1.379 . S
H1847 C1841 0.959 . S
H1848 C1841 0.961 . S
H1849 C1841 0.960 . S
H1850 C1842 0.930 . S
H1851 C1843 0.929 . S
H1852 C1860 0.929 . S
H1853 C1862 0.930 . S
H1854 C1864 0.930 . S
H1855 C1867 0.929 . S
H1856 C1870 0.930 . S
H1857 C1872 0.960 . S
H1858 C1872 0.960 . S
H1859 C1872 0.960 . S
C1860 H1852 0.929 . S
C1860 C1861 1.377 . S
C1860 C1862 1.384 . S
C1861 C1860 1.377 . S
C1861 C1867 1.390 . S
C1862 H1853 0.930 . S
C1862 C1860 1.384 . S
C1862 C1863 1.372 . S
C1863 C1862 1.372 . S
C1863 C1864 1.400 . S
C1863 C1868 1.490 . S
C1864 H1854 0.930 . S
C1864 C1863 1.400 . S
C1864 C1867 1.386 . S
H1865 C1881 0.930 . S
H1866 C1882 0.931 . S
C1867 H1855 0.929 . S
C1867 C1861 1.390 . S
C1867 C1864 1.386 . S
C1868 C1863 1.490 . S
C1868 C1870 1.395 . S
C1868 C1871 1.403 . S
H1869 C1875 0.930 . S
C1870 H1856 0.930 . S
C1870 C1868 1.395 . S
C1870 C1873 1.403 1_655 S
C1871 C1868 1.403 . S
C1871 C1872 1.524 . S
C1871 C1875 1.400 1_655 S
C1872 H1857 0.960 . S
C1872 H1858 0.960 . S
C1872 H1859 0.960 . S
C1872 C1871 1.524 . S
C1873 C1870 1.403 1_455 S
C1873 C1874 1.392 . S
C1873 C1877 1.495 . S
C1874 C1873 1.392 . S
C1874 C1875 1.385 . S
C1874 C1876 1.478 . S
C1875 H1869 0.930 . S
C1875 C1871 1.400 1_455 S
C1875 C1874 1.385 . S
C1876 C1874 1.478 . S
C1876 C1878 1.381 . S
C1876 C1882 1.383 . S
C1877 C1873 1.495 . S
C1877 H1883 0.959 . S
C1877 H1884 0.961 . S
C1877 H1885 0.960 . S
C1878 C1876 1.381 . S
C1878 C1879 1.394 . S
C1878 H1886 0.930 . S
C1879 C1878 1.394 . S
C1879 C1880 1.383 . S
C1879 H1887 0.929 . S
C1880 C1879 1.383 . S
C1880 C1881 1.377 . S
C1881 H1865 0.930 . S
C1881 C1880 1.377 . S
C1881 C1882 1.379 . S
C1882 H1866 0.931 . S
C1882 C1876 1.383 . S
C1882 C1881 1.379 . S
H1883 C1877 0.959 . S
H1884 C1877 0.961 . S
H1885 C1877 0.960 . S
H1886 C1878 0.930 . S
H1887 C1879 0.929 . S
H1888 C1896 0.929 . S
H1889 C1898 0.930 . S
H1890 C1900 0.930 . S
H1891 C1903 0.929 . S
H1892 C1906 0.930 . S
H1893 C1908 0.960 . S
H1894 C1908 0.960 . S
H1895 C1908 0.960 . S
C1896 H1888 0.929 . S
C1896 C1897 1.377 . S
C1896 C1898 1.384 . S
C1897 C1896 1.377 . S
C1897 C1903 1.390 . S
C1898 H1889 0.930 . S
C1898 C1896 1.384 . S
C1898 C1899 1.372 . S
C1899 C1898 1.372 . S
C1899 C1900 1.400 . S
C1899 C1904 1.490 . S
C1900 H1890 0.930 . S
C1900 C1899 1.400 . S
C1900 C1903 1.386 . S
H1901 C1917 0.930 . S
H1902 C1918 0.931 . S
C1903 H1891 0.929 . S
C1903 C1897 1.390 . S
C1903 C1900 1.386 . S
C1904 C1899 1.490 . S
C1904 C1906 1.395 . S
C1904 C1907 1.403 . S
H1905 C1911 0.930 . S
C1906 H1892 0.930 . S
C1906 C1904 1.395 . S
C1906 C1909 1.403 . S
C1907 C1904 1.403 . S
C1907 C1908 1.524 . S
C1907 C1911 1.400 . S
C1908 H1893 0.960 . S
C1908 H1894 0.960 . S
C1908 H1895 0.960 . S
C1908 C1907 1.524 . S
C1909 C1906 1.403 . S
C1909 C1910 1.392 . S
C1909 C1913 1.495 . S
C1910 C1909 1.392 . S
C1910 C1911 1.385 . S
C1910 C1912 1.478 . S
C1911 H1905 0.930 . S
C1911 C1907 1.400 . S
C1911 C1910 1.385 . S
C1912 C1910 1.478 . S
C1912 C1914 1.381 . S
C1912 C1918 1.383 . S
C1913 C1909 1.495 . S
C1913 H1919 0.959 . S
C1913 H1920 0.961 . S
C1913 H1921 0.960 . S
C1914 C1912 1.381 . S
C1914 C1915 1.394 . S
C1914 H1922 0.930 . S
C1915 C1914 1.394 . S
C1915 C1916 1.383 . S
C1915 H1923 0.929 . S
C1916 C1915 1.383 . S
C1916 C1917 1.377 . S
C1917 H1901 0.930 . S
C1917 C1916 1.377 . S
C1917 C1918 1.379 . S
C1918 H1902 0.931 . S
C1918 C1912 1.383 . S
C1918 C1917 1.379 . S
H1919 C1913 0.959 . S
H1920 C1913 0.961 . S
H1921 C1913 0.960 . S
H1922 C1914 0.930 . S
H1923 C1915 0.929 . S
H1924 C1932 0.929 . S
H1925 C1934 0.930 . S
H1926 C1936 0.930 . S
H1927 C1939 0.929 . S
H1928 C1942 0.930 . S
H1929 C1944 0.960 . S
H1930 C1944 0.960 . S
H1931 C1944 0.960 . S
C1932 H1924 0.929 . S
C1932 C1933 1.377 . S
C1932 C1934 1.384 . S
C1933 C1932 1.377 . S
C1933 C1939 1.390 . S
C1934 H1925 0.930 . S
C1934 C1932 1.384 . S
C1934 C1935 1.372 . S
C1935 C1934 1.372 . S
C1935 C1936 1.400 . S
C1935 C1940 1.490 . S
C1936 H1926 0.930 . S
C1936 C1935 1.400 . S
C1936 C1939 1.386 . S
H1937 C1953 0.930 . S
H1938 C1954 0.931 . S
C1939 H1927 0.929 . S
C1939 C1933 1.390 . S
C1939 C1936 1.386 . S
C1940 C1935 1.490 . S
C1940 C1942 1.395 . S
C1940 C1943 1.403 . S
H1941 C1947 0.930 . S
C1942 H1928 0.930 . S
C1942 C1940 1.395 . S
C1942 C1945 1.403 . S
C1943 C1940 1.403 . S
C1943 C1944 1.524 . S
C1943 C1947 1.400 . S
C1944 H1929 0.960 . S
C1944 H1930 0.960 . S
C1944 H1931 0.960 . S
C1944 C1943 1.524 . S
C1945 C1942 1.403 . S
C1945 C1946 1.392 . S
C1945 C1949 1.495 . S
C1946 C1945 1.392 . S
C1946 C1947 1.385 . S
C1946 C1948 1.478 . S
C1947 H1941 0.930 . S
C1947 C1943 1.400 . S
C1947 C1946 1.385 . S
C1948 C1946 1.478 . S
C1948 C1950 1.381 . S
C1948 C1954 1.383 . S
C1949 C1945 1.495 . S
C1949 H1955 0.959 . S
C1949 H1956 0.961 . S
C1949 H1957 0.960 . S
C1950 C1948 1.381 . S
C1950 C1951 1.394 . S
C1950 H1958 0.930 . S
C1951 C1950 1.394 . S
C1951 C1952 1.383 . S
C1951 H1959 0.929 . S
C1952 C1951 1.383 . S
C1952 C1953 1.377 . S
C1953 H1937 0.930 . S
C1953 C1952 1.377 . S
C1953 C1954 1.379 . S
C1954 H1938 0.931 . S
C1954 C1948 1.383 . S
C1954 C1953 1.379 . S
H1955 C1949 0.959 . S
H1956 C1949 0.961 . S
H1957 C1949 0.960 . S
H1958 C1950 0.930 . S
H1959 C1951 0.929 . S
H1960 C1968 0.929 . S
H1961 C1970 0.930 . S
H1962 C1972 0.930 . S
H1963 C1975 0.929 . S
H1964 C1978 0.930 . S
H1965 C1980 0.960 . S
H1966 C1980 0.960 . S
H1967 C1980 0.960 . S
C1968 H1960 0.929 . S
C1968 C1969 1.377 . S
C1968 C1970 1.384 . S
C1969 C1968 1.377 . S
C1969 C1975 1.390 . S
C1970 H1961 0.930 . S
C1970 C1968 1.384 . S
C1970 C1971 1.372 . S
C1971 C1970 1.372 . S
C1971 C1972 1.400 . S
C1971 C1976 1.490 . S
C1972 H1962 0.930 . S
C1972 C1971 1.400 . S
C1972 C1975 1.386 . S
H1973 C1989 0.930 . S
H1974 C1990 0.931 . S
C1975 H1963 0.929 . S
C1975 C1969 1.390 . S
C1975 C1972 1.386 . S
C1976 C1971 1.490 . S
C1976 C1978 1.395 . S
C1976 C1979 1.403 . S
H1977 C1983 0.930 . S
C1978 H1964 0.930 . S
C1978 C1976 1.395 . S
C1978 C1981 1.403 . S
C1979 C1976 1.403 . S
C1979 C1980 1.524 . S
C1979 C1983 1.400 . S
C1980 H1965 0.960 . S
C1980 H1966 0.960 . S
C1980 H1967 0.960 . S
C1980 C1979 1.524 . S
C1981 C1978 1.403 . S
C1981 C1982 1.392 . S
C1981 C1985 1.495 . S
C1982 C1981 1.392 . S
C1982 C1983 1.385 . S
C1982 C1984 1.478 . S
C1983 H1977 0.930 . S
C1983 C1979 1.400 . S
C1983 C1982 1.385 . S
C1984 C1982 1.478 . S
C1984 C1986 1.381 . S
C1984 C1990 1.383 . S
C1985 C1981 1.495 . S
C1985 H1991 0.959 . S
C1985 H1992 0.961 . S
C1985 H1993 0.960 . S
C1986 C1984 1.381 . S
C1986 C1987 1.394 . S
C1986 H1994 0.930 . S
C1987 C1986 1.394 . S
C1987 C1988 1.383 . S
C1987 H1995 0.929 . S
C1988 C1987 1.383 . S
C1988 C1989 1.377 . S
C1989 H1973 0.930 . S
C1989 C1988 1.377 . S
C1989 C1990 1.379 . S
C1990 H1974 0.931 . S
C1990 C1984 1.383 . S
C1990 C1989 1.379 . S
H1991 C1985 0.959 . S
H1992 C1985 0.961 . S
H1993 C1985 0.960 . S
H1994 C1986 0.930 . S
H1995 C1987 0.929 . S
H1996 C2004 0.929 . S
H1997 C2006 0.930 . S
H1998 C2008 0.930 . S
H1999 C2011 0.929 . S
H2000 C2014 0.930 . S
H2001 C2016 0.960 . S
H2002 C2016 0.960 . S
H2003 C2016 0.960 . S
C2004 H1996 0.929 . S
C2004 C2005 1.377 . S
C2004 C2006 1.384 . S
C2005 C2004 1.377 . S
C2005 C2011 1.390 . S
C2006 H1997 0.930 . S
C2006 C2004 1.384 . S
C2006 C2007 1.372 . S
C2007 C2006 1.372 . S
C2007 C2008 1.400 . S
C2007 C2012 1.490 . S
C2008 H1998 0.930 . S
C2008 C2007 1.400 . S
C2008 C2011 1.386 . S
H2009 C2025 0.930 . S
H2010 C2026 0.931 . S
C2011 H1999 0.929 . S
C2011 C2005 1.390 . S
C2011 C2008 1.386 . S
C2012 C2007 1.490 . S
C2012 C2014 1.395 . S
C2012 C2015 1.403 . S
H2013 C2019 0.930 . S
C2014 H2000 0.930 . S
C2014 C2012 1.395 . S
C2014 C2017 1.403 . S
C2015 C2012 1.403 . S
C2015 C2016 1.524 . S
C2015 C2019 1.400 . S
C2016 H2001 0.960 . S
C2016 H2002 0.960 . S
C2016 H2003 0.960 . S
C2016 C2015 1.524 . S
C2017 C2014 1.403 . S
C2017 C2018 1.392 . S
C2017 C2021 1.495 . S
C2018 C2017 1.392 . S
C2018 C2019 1.385 . S
C2018 C2020 1.478 . S
C2019 H2013 0.930 . S
C2019 C2015 1.400 . S
C2019 C2018 1.385 . S
C2020 C2018 1.478 . S
C2020 C2022 1.381 . S
C2020 C2026 1.383 . S
C2021 C2017 1.495 . S
C2021 H2027 0.959 . S
C2021 H2028 0.961 . S
C2021 H2029 0.960 . S
C2022 C2020 1.381 . S
C2022 C2023 1.394 . S
C2022 H2030 0.930 . S
C2023 C2022 1.394 . S
C2023 C2024 1.383 . S
C2023 H2031 0.929 . S
C2024 C2023 1.383 . S
C2024 C2025 1.377 . S
C2025 H2009 0.930 . S
C2025 C2024 1.377 . S
C2025 C2026 1.379 . S
C2026 H2010 0.931 . S
C2026 C2020 1.383 . S
C2026 C2025 1.379 . S
H2027 C2021 0.959 . S
H2028 C2021 0.961 . S
H2029 C2021 0.960 . S
H2030 C2022 0.930 . S
H2031 C2023 0.929 . S
H2032 C2040 0.929 . S
H2033 C2042 0.930 . S
H2034 C2044 0.930 . S
H2035 C2047 0.929 . S
H2036 C2050 0.930 . S
H2037 C2052 0.960 . S
H2038 C2052 0.960 . S
H2039 C2052 0.960 . S
C2040 H2032 0.929 . S
C2040 C2041 1.377 . S
C2040 C2042 1.384 . S
C2041 C2040 1.377 . S
C2041 C2047 1.390 . S
C2042 H2033 0.930 . S
C2042 C2040 1.384 . S
C2042 C2043 1.372 . S
C2043 C2042 1.372 . S
C2043 C2044 1.400 . S
C2043 C2048 1.490 . S
C2044 H2034 0.930 . S
C2044 C2043 1.400 . S
C2044 C2047 1.386 . S
H2045 C2061 0.930 . S
H2046 C2062 0.931 . S
C2047 H2035 0.929 . S
C2047 C2041 1.390 . S
C2047 C2044 1.386 . S
C2048 C2043 1.490 . S
C2048 C2050 1.395 . S
C2048 C2051 1.403 . S
H2049 C2055 0.930 . S
C2050 H2036 0.930 . S
C2050 C2048 1.395 . S
C2050 C2053 1.403 . S
C2051 C2048 1.403 . S
C2051 C2052 1.524 . S
C2051 C2055 1.400 . S
C2052 H2037 0.960 . S
C2052 H2038 0.960 . S
C2052 H2039 0.960 . S
C2052 C2051 1.524 . S
C2053 C2050 1.403 . S
C2053 C2054 1.392 . S
C2053 C2057 1.495 . S
C2054 C2053 1.392 . S
C2054 C2055 1.385 . S
C2054 C2056 1.478 . S
C2055 H2049 0.930 . S
C2055 C2051 1.400 . S
C2055 C2054 1.385 . S
C2056 C2054 1.478 . S
C2056 C2058 1.381 . S
C2056 C2062 1.383 . S
C2057 C2053 1.495 . S
C2057 H2063 0.959 . S
C2057 H2064 0.961 . S
C2057 H2065 0.960 . S
C2058 C2056 1.381 . S
C2058 C2059 1.394 . S
C2058 H2066 0.930 . S
C2059 C2058 1.394 . S
C2059 C2060 1.383 . S
C2059 H2067 0.929 . S
C2060 C2059 1.383 . S
C2060 C2061 1.377 . S
C2061 H2045 0.930 . S
C2061 C2060 1.377 . S
C2061 C2062 1.379 . S
C2062 H2046 0.931 . S
C2062 C2056 1.383 . S
C2062 C2061 1.379 . S
H2063 C2057 0.959 . S
H2064 C2057 0.961 . S
H2065 C2057 0.960 . S
H2066 C2058 0.930 . S
H2067 C2059 0.929 . S
H2068 C2076 0.929 . S
H2069 C2078 0.930 . S
H2070 C2080 0.930 . S
H2071 C2083 0.929 . S
H2072 C2086 0.930 . S
H2073 C2088 0.960 . S
H2074 C2088 0.960 . S
H2075 C2088 0.960 . S
C2076 H2068 0.929 . S
C2076 C2077 1.377 . S
C2076 C2078 1.384 . S
C2077 C2076 1.377 . S
C2077 C2083 1.390 . S
C2078 H2069 0.930 . S
C2078 C2076 1.384 . S
C2078 C2079 1.372 . S
C2079 C2078 1.372 . S
C2079 C2080 1.400 . S
C2079 C2084 1.490 . S
C2080 H2070 0.930 . S
C2080 C2079 1.400 . S
C2080 C2083 1.386 . S
H2081 C2097 0.930 . S
H2082 C2098 0.931 . S
C2083 H2071 0.929 . S
C2083 C2077 1.390 . S
C2083 C2080 1.386 . S
C2084 C2079 1.490 . S
C2084 C2086 1.395 . S
C2084 C2087 1.403 . S
H2085 C2091 0.930 . S
C2086 H2072 0.930 . S
C2086 C2084 1.395 . S
C2086 C2089 1.403 1_655 S
C2087 C2084 1.403 . S
C2087 C2088 1.524 . S
C2087 C2091 1.400 1_655 S
C2088 H2073 0.960 . S
C2088 H2074 0.960 . S
C2088 H2075 0.960 . S
C2088 C2087 1.524 . S
C2089 C2086 1.403 1_455 S
C2089 C2090 1.392 . S
C2089 C2093 1.495 . S
C2090 C2089 1.392 . S
C2090 C2091 1.385 . S
C2090 C2092 1.478 . S
C2091 H2085 0.930 . S
C2091 C2087 1.400 1_455 S
C2091 C2090 1.385 . S
C2092 C2090 1.478 . S
C2092 C2094 1.381 . S
C2092 C2098 1.383 . S
C2093 C2089 1.495 . S
C2093 H2099 0.959 . S
C2093 H2100 0.961 . S
C2093 H2101 0.960 . S
C2094 C2092 1.381 . S
C2094 C2095 1.394 . S
C2094 H2102 0.930 . S
C2095 C2094 1.394 . S
C2095 C2096 1.383 . S
C2095 H2103 0.929 . S
C2096 C2095 1.383 . S
C2096 C2097 1.377 . S
C2097 H2081 0.930 . S
C2097 C2096 1.377 . S
C2097 C2098 1.379 . S
C2098 H2082 0.931 . S
C2098 C2092 1.383 . S
C2098 C2097 1.379 . S
H2099 C2093 0.959 . S
H2100 C2093 0.961 . S
H2101 C2093 0.960 . S
H2102 C2094 0.930 . S
H2103 C2095 0.929 . S
H2104 C2112 0.929 . S
H2105 C2114 0.930 . S
H2106 C2116 0.930 . S
H2107 C2119 0.929 . S
H2108 C2122 0.930 . S
H2109 C2124 0.960 . S
H2110 C2124 0.960 . S
H2111 C2124 0.960 . S
C2112 H2104 0.929 . S
C2112 C2113 1.377 . S
C2112 C2114 1.384 . S
C2113 C2112 1.377 . S
C2113 C2119 1.390 . S
C2114 H2105 0.930 . S
C2114 C2112 1.384 . S
C2114 C2115 1.372 . S
C2115 C2114 1.372 . S
C2115 C2116 1.400 . S
C2115 C2120 1.490 . S
C2116 H2106 0.930 . S
C2116 C2115 1.400 . S
C2116 C2119 1.386 . S
H2117 C2133 0.930 . S
H2118 C2134 0.931 . S
C2119 H2107 0.929 . S
C2119 C2113 1.390 . S
C2119 C2116 1.386 . S
C2120 C2115 1.490 . S
C2120 C2122 1.395 . S
C2120 C2123 1.403 . S
H2121 C2127 0.930 . S
C2122 H2108 0.930 . S
C2122 C2120 1.395 . S
C2122 C2125 1.403 1_655 S
C2123 C2120 1.403 . S
C2123 C2124 1.524 . S
C2123 C2127 1.400 1_655 S
C2124 H2109 0.960 . S
C2124 H2110 0.960 . S
C2124 H2111 0.960 . S
C2124 C2123 1.524 . S
C2125 C2122 1.403 1_455 S
C2125 C2126 1.392 . S
C2125 C2129 1.495 . S
C2126 C2125 1.392 . S
C2126 C2127 1.385 . S
C2126 C2128 1.478 . S
C2127 H2121 0.930 . S
C2127 C2123 1.400 1_455 S
C2127 C2126 1.385 . S
C2128 C2126 1.478 . S
C2128 C2130 1.381 . S
C2128 C2134 1.383 . S
C2129 C2125 1.495 . S
C2129 H2135 0.959 . S
C2129 H2136 0.961 . S
C2129 H2137 0.960 . S
C2130 C2128 1.381 . S
C2130 C2131 1.394 . S
C2130 H2138 0.930 . S
C2131 C2130 1.394 . S
C2131 C2132 1.383 . S
C2131 H2139 0.929 . S
C2132 C2131 1.383 . S
C2132 C2133 1.377 . S
C2133 H2117 0.930 . S
C2133 C2132 1.377 . S
C2133 C2134 1.379 . S
C2134 H2118 0.931 . S
C2134 C2128 1.383 . S
C2134 C2133 1.379 . S
H2135 C2129 0.959 . S
H2136 C2129 0.961 . S
H2137 C2129 0.960 . S
H2138 C2130 0.930 . S
H2139 C2131 0.929 . S
H2140 C2148 0.929 . S
H2141 C2150 0.930 . S
H2142 C2152 0.930 . S
H2143 C2155 0.929 . S
H2144 C2158 0.930 . S
H2145 C2160 0.960 . S
H2146 C2160 0.960 . S
H2147 C2160 0.960 . S
C2148 H2140 0.929 . S
C2148 C2149 1.377 . S
C2148 C2150 1.384 . S
C2149 C2148 1.377 . S
C2149 C2155 1.390 . S
C2150 H2141 0.930 . S
C2150 C2148 1.384 . S
C2150 C2151 1.372 . S
C2151 C2150 1.372 . S
C2151 C2152 1.400 . S
C2151 C2156 1.490 . S
C2152 H2142 0.930 . S
C2152 C2151 1.400 . S
C2152 C2155 1.386 . S
H2153 C2169 0.930 . S
H2154 C2170 0.931 . S
C2155 H2143 0.929 . S
C2155 C2149 1.390 . S
C2155 C2152 1.386 . S
C2156 C2151 1.490 . S
C2156 C2158 1.395 . S
C2156 C2159 1.403 . S
H2157 C2163 0.930 . S
C2158 H2144 0.930 . S
C2158 C2156 1.395 . S
C2158 C2161 1.403 . S
C2159 C2156 1.403 . S
C2159 C2160 1.524 . S
C2159 C2163 1.400 . S
C2160 H2145 0.960 . S
C2160 H2146 0.960 . S
C2160 H2147 0.960 . S
C2160 C2159 1.524 . S
C2161 C2158 1.403 . S
C2161 C2162 1.392 . S
C2161 C2165 1.495 . S
C2162 C2161 1.392 . S
C2162 C2163 1.385 . S
C2162 C2164 1.478 . S
C2163 H2157 0.930 . S
C2163 C2159 1.400 . S
C2163 C2162 1.385 . S
C2164 C2162 1.478 . S
C2164 C2166 1.381 . S
C2164 C2170 1.383 . S
C2165 C2161 1.495 . S
C2165 H2171 0.959 . S
C2165 H2172 0.961 . S
C2165 H2173 0.960 . S
C2166 C2164 1.381 . S
C2166 C2167 1.394 . S
C2166 H2174 0.930 . S
C2167 C2166 1.394 . S
C2167 C2168 1.383 . S
C2167 H2175 0.929 . S
C2168 C2167 1.383 . S
C2168 C2169 1.377 . S
C2169 H2153 0.930 . S
C2169 C2168 1.377 . S
C2169 C2170 1.379 . S
C2170 H2154 0.931 . S
C2170 C2164 1.383 . S
C2170 C2169 1.379 . S
H2171 C2165 0.959 . S
H2172 C2165 0.961 . S
H2173 C2165 0.960 . S
H2174 C2166 0.930 . S
H2175 C2167 0.929 . S
H2176 C2184 0.929 . S
H2177 C2186 0.930 . S
H2178 C2188 0.930 . S
H2179 C2191 0.929 . S
H2180 C2194 0.930 . S
H2181 C2196 0.960 . S
H2182 C2196 0.960 . S
H2183 C2196 0.960 . S
C2184 H2176 0.929 . S
C2184 C2185 1.377 . S
C2184 C2186 1.384 . S
C2185 C2184 1.377 . S
C2185 C2191 1.390 . S
C2186 H2177 0.930 . S
C2186 C2184 1.384 . S
C2186 C2187 1.372 . S
C2187 C2186 1.372 . S
C2187 C2188 1.400 . S
C2187 C2192 1.490 . S
C2188 H2178 0.930 . S
C2188 C2187 1.400 . S
C2188 C2191 1.386 . S
H2189 C2205 0.930 . S
H2190 C2206 0.931 . S
C2191 H2179 0.929 . S
C2191 C2185 1.390 . S
C2191 C2188 1.386 . S
C2192 C2187 1.490 . S
C2192 C2194 1.395 . S
C2192 C2195 1.403 . S
H2193 C2199 0.930 . S
C2194 H2180 0.930 . S
C2194 C2192 1.395 . S
C2194 C2197 1.403 . S
C2195 C2192 1.403 . S
C2195 C2196 1.524 . S
C2195 C2199 1.400 . S
C2196 H2181 0.960 . S
C2196 H2182 0.960 . S
C2196 H2183 0.960 . S
C2196 C2195 1.524 . S
C2197 C2194 1.403 . S
C2197 C2198 1.392 . S
C2197 C2201 1.495 . S
C2198 C2197 1.392 . S
C2198 C2199 1.385 . S
C2198 C2200 1.478 . S
C2199 H2193 0.930 . S
C2199 C2195 1.400 . S
C2199 C2198 1.385 . S
C2200 C2198 1.478 . S
C2200 C2202 1.381 . S
C2200 C2206 1.383 . S
C2201 C2197 1.495 . S
C2201 H2207 0.959 . S
C2201 H2208 0.961 . S
C2201 H2209 0.960 . S
C2202 C2200 1.381 . S
C2202 C2203 1.394 . S
C2202 H2210 0.930 . S
C2203 C2202 1.394 . S
C2203 C2204 1.383 . S
C2203 H2211 0.929 . S
C2204 C2203 1.383 . S
C2204 C2205 1.377 . S
C2205 H2189 0.930 . S
C2205 C2204 1.377 . S
C2205 C2206 1.379 . S
C2206 H2190 0.931 . S
C2206 C2200 1.383 . S
C2206 C2205 1.379 . S
H2207 C2201 0.959 . S
H2208 C2201 0.961 . S
H2209 C2201 0.960 . S
H2210 C2202 0.930 . S
H2211 C2203 0.929 . S
H2212 C2220 0.929 . S
H2213 C2222 0.930 . S
H2214 C2224 0.930 . S
H2215 C2227 0.929 . S
H2216 C2230 0.930 . S
H2217 C2232 0.960 . S
H2218 C2232 0.960 . S
H2219 C2232 0.960 . S
C2220 H2212 0.929 . S
C2220 C2221 1.377 . S
C2220 C2222 1.384 . S
C2221 C2220 1.377 . S
C2221 C2227 1.390 . S
C2222 H2213 0.930 . S
C2222 C2220 1.384 . S
C2222 C2223 1.372 . S
C2223 C2222 1.372 . S
C2223 C2224 1.400 . S
C2223 C2228 1.490 . S
C2224 H2214 0.930 . S
C2224 C2223 1.400 . S
C2224 C2227 1.386 . S
H2225 C2241 0.930 . S
H2226 C2242 0.931 . S
C2227 H2215 0.929 . S
C2227 C2221 1.390 . S
C2227 C2224 1.386 . S
C2228 C2223 1.490 . S
C2228 C2230 1.395 . S
C2228 C2231 1.403 . S
H2229 C2235 0.930 . S
C2230 H2216 0.930 . S
C2230 C2228 1.395 . S
C2230 C2233 1.403 . S
C2231 C2228 1.403 . S
C2231 C2232 1.524 . S
C2231 C2235 1.400 . S
C2232 H2217 0.960 . S
C2232 H2218 0.960 . S
C2232 H2219 0.960 . S
C2232 C2231 1.524 . S
C2233 C2230 1.403 . S
C2233 C2234 1.392 . S
C2233 C2237 1.495 . S
C2234 C2233 1.392 . S
C2234 C2235 1.385 . S
C2234 C2236 1.478 . S
C2235 H2229 0.930 . S
C2235 C2231 1.400 . S
C2235 C2234 1.385 . S
C2236 C2234 1.478 . S
C2236 C2238 1.381 . S
C2236 C2242 1.383 . S
C2237 C2233 1.495 . S
C2237 H2243 0.959 . S
C2237 H2244 0.961 . S
C2237 H2245 0.960 . S
C2238 C2236 1.381 . S
C2238 C2239 1.394 . S
C2238 H2246 0.930 . S
C2239 C2238 1.394 . S
C2239 C2240 1.383 . S
C2239 H2247 0.929 . S
C2240 C2239 1.383 . S
C2240 C2241 1.377 . S
C2241 H2225 0.930 . S
C2241 C2240 1.377 . S
C2241 C2242 1.379 . S
C2242 H2226 0.931 . S
C2242 C2236 1.383 . S
C2242 C2241 1.379 . S
H2243 C2237 0.959 . S
H2244 C2237 0.961 . S
H2245 C2237 0.960 . S
H2246 C2238 0.930 . S
H2247 C2239 0.929 . S
H2248 C2256 0.929 . S
H2249 C2258 0.930 . S
H2250 C2260 0.930 . S
H2251 C2263 0.929 1_554 S
H2252 C2266 0.930 . S
H2253 C2268 0.960 . S
H2254 C2268 0.960 . S
H2255 C2268 0.960 . S
C2256 H2248 0.929 . S
C2256 C2257 1.377 . S
C2256 C2258 1.384 1_554 S
C2257 C2256 1.377 . S
C2257 C2263 1.390 1_554 S
C2258 H2249 0.930 . S
C2258 C2256 1.384 1_556 S
C2258 C2259 1.372 . S
C2259 C2258 1.372 . S
C2259 C2260 1.400 . S
C2259 C2264 1.490 . S
C2260 H2250 0.930 . S
C2260 C2259 1.400 . S
C2260 C2263 1.386 . S
H2261 C2277 0.930 . S
H2262 C2278 0.931 . S
C2263 H2251 0.929 1_556 S
C2263 C2257 1.390 1_556 S
C2263 C2260 1.386 . S
C2264 C2259 1.490 . S
C2264 C2266 1.395 . S
C2264 C2267 1.403 . S
H2265 C2271 0.930 . S
C2266 H2252 0.930 . S
C2266 C2264 1.395 . S
C2266 C2269 1.403 . S
C2267 C2264 1.403 . S
C2267 C2268 1.524 . S
C2267 C2271 1.400 . S
C2268 H2253 0.960 . S
C2268 H2254 0.960 . S
C2268 H2255 0.960 . S
C2268 C2267 1.524 . S
C2269 C2266 1.403 . S
C2269 C2270 1.392 . S
C2269 C2273 1.495 . S
C2270 C2269 1.392 . S
C2270 C2271 1.385 . S
C2270 C2272 1.478 . S
C2271 H2265 0.930 . S
C2271 C2267 1.400 . S
C2271 C2270 1.385 . S
C2272 C2270 1.478 . S
C2272 C2274 1.381 . S
C2272 C2278 1.383 . S
C2273 C2269 1.495 . S
C2273 H2279 0.959 . S
C2273 H2280 0.961 . S
C2273 H2281 0.960 . S
C2274 C2272 1.381 . S
C2274 C2275 1.394 . S
C2274 H2282 0.930 . S
C2275 C2274 1.394 . S
C2275 C2276 1.383 . S
C2275 H2283 0.929 . S
C2276 C2275 1.383 . S
C2276 C2277 1.377 . S
C2277 H2261 0.930 . S
C2277 C2276 1.377 . S
C2277 C2278 1.379 . S
C2278 H2262 0.931 . S
C2278 C2272 1.383 . S
C2278 C2277 1.379 . S
H2279 C2273 0.959 . S
H2280 C2273 0.961 . S
H2281 C2273 0.960 . S
H2282 C2274 0.930 . S
H2283 C2275 0.929 . S
H2284 C2292 0.929 . S
H2285 C2294 0.930 . S
H2286 C2296 0.930 . S
H2287 C2299 0.929 . S
H2288 C2302 0.930 . S
H2289 C2304 0.960 . S
H2290 C2304 0.960 . S
H2291 C2304 0.960 . S
C2292 H2284 0.929 . S
C2292 C2293 1.377 1_554 S
C2292 C2294 1.384 . S
C2293 C2292 1.377 1_556 S
C2293 C2299 1.390 . S
C2294 H2285 0.930 . S
C2294 C2292 1.384 . S
C2294 C2295 1.372 . S
C2295 C2294 1.372 . S
C2295 C2296 1.400 . S
C2295 C2300 1.490 . S
C2296 H2286 0.930 . S
C2296 C2295 1.400 . S
C2296 C2299 1.386 1_554 S
H2297 C2313 0.930 . S
H2298 C2314 0.931 . S
C2299 H2287 0.929 . S
C2299 C2293 1.390 . S
C2299 C2296 1.386 1_556 S
C2300 C2295 1.490 . S
C2300 C2302 1.395 . S
C2300 C2303 1.403 . S
H2301 C2307 0.930 . S
C2302 H2288 0.930 . S
C2302 C2300 1.395 . S
C2302 C2305 1.403 . S
C2303 C2300 1.403 . S
C2303 C2304 1.524 . S
C2303 C2307 1.400 . S
C2304 H2289 0.960 . S
C2304 H2290 0.960 . S
C2304 H2291 0.960 . S
C2304 C2303 1.524 . S
C2305 C2302 1.403 . S
C2305 C2306 1.392 . S
C2305 C2309 1.495 . S
C2306 C2305 1.392 . S
C2306 C2307 1.385 . S
C2306 C2308 1.478 . S
C2307 H2301 0.930 . S
C2307 C2303 1.400 . S
C2307 C2306 1.385 . S
C2308 C2306 1.478 . S
C2308 C2310 1.381 . S
C2308 C2314 1.383 . S
C2309 C2305 1.495 . S
C2309 H2315 0.959 . S
C2309 H2316 0.961 . S
C2309 H2317 0.960 . S
C2310 C2308 1.381 . S
C2310 C2311 1.394 . S
C2310 H2318 0.930 . S
C2311 C2310 1.394 . S
C2311 C2312 1.383 . S
C2311 H2319 0.929 . S
C2312 C2311 1.383 . S
C2312 C2313 1.377 . S
C2313 H2297 0.930 . S
C2313 C2312 1.377 . S
C2313 C2314 1.379 . S
C2314 H2298 0.931 . S
C2314 C2308 1.383 . S
C2314 C2313 1.379 . S
H2315 C2309 0.959 . S
H2316 C2309 0.961 . S
H2317 C2309 0.960 . S
H2318 C2310 0.930 . S
H2319 C2311 0.929 . S
H2320 C2328 0.929 . S
H2321 C2330 0.930 . S
H2322 C2332 0.930 . S
H2323 C2335 0.929 . S
H2324 C2338 0.930 . S
H2325 C2340 0.960 . S
H2326 C2340 0.960 . S
H2327 C2340 0.960 . S
C2328 H2320 0.929 . S
C2328 C2329 1.377 . S
C2328 C2330 1.384 . S
C2329 C2328 1.377 . S
C2329 C2335 1.390 . S
C2330 H2321 0.930 . S
C2330 C2328 1.384 . S
C2330 C2331 1.372 . S
C2331 C2330 1.372 . S
C2331 C2332 1.400 . S
C2331 C2336 1.490 . S
C2332 H2322 0.930 . S
C2332 C2331 1.400 . S
C2332 C2335 1.386 . S
H2333 C2349 0.930 . S
H2334 C2350 0.931 . S
C2335 H2323 0.929 . S
C2335 C2329 1.390 . S
C2335 C2332 1.386 . S
C2336 C2331 1.490 . S
C2336 C2338 1.395 . S
C2336 C2339 1.403 . S
H2337 C2343 0.930 . S
C2338 H2324 0.930 . S
C2338 C2336 1.395 . S
C2338 C2341 1.403 . S
C2339 C2336 1.403 . S
C2339 C2340 1.524 . S
C2339 C2343 1.400 . S
C2340 H2325 0.960 . S
C2340 H2326 0.960 . S
C2340 H2327 0.960 . S
C2340 C2339 1.524 . S
C2341 C2338 1.403 . S
C2341 C2342 1.392 . S
C2341 C2345 1.495 . S
C2342 C2341 1.392 . S
C2342 C2343 1.385 . S
C2342 C2344 1.478 . S
C2343 H2337 0.930 . S
C2343 C2339 1.400 . S
C2343 C2342 1.385 . S
C2344 C2342 1.478 . S
C2344 C2346 1.381 . S
C2344 C2350 1.383 . S
C2345 C2341 1.495 . S
C2345 H2351 0.959 . S
C2345 H2352 0.961 . S
C2345 H2353 0.960 . S
C2346 C2344 1.381 . S
C2346 C2347 1.394 . S
C2346 H2354 0.930 . S
C2347 C2346 1.394 . S
C2347 C2348 1.383 . S
C2347 H2355 0.929 . S
C2348 C2347 1.383 . S
C2348 C2349 1.377 . S
C2349 H2333 0.930 . S
C2349 C2348 1.377 . S
C2349 C2350 1.379 . S
C2350 H2334 0.931 . S
C2350 C2344 1.383 . S
C2350 C2349 1.379 . S
H2351 C2345 0.959 . S
H2352 C2345 0.961 . S
H2353 C2345 0.960 . S
H2354 C2346 0.930 . S
H2355 C2347 0.929 . S
H2356 C2364 0.929 . S
H2357 C2366 0.930 . S
H2358 C2368 0.930 . S
H2359 C2371 0.929 . S
H2360 C2374 0.930 . S
H2361 C2376 0.960 . S
H2362 C2376 0.960 . S
H2363 C2376 0.960 . S
C2364 H2356 0.929 . S
C2364 C2365 1.377 . S
C2364 C2366 1.384 . S
C2365 C2364 1.377 . S
C2365 C2371 1.390 . S
C2366 H2357 0.930 . S
C2366 C2364 1.384 . S
C2366 C2367 1.372 . S
C2367 C2366 1.372 . S
C2367 C2368 1.400 . S
C2367 C2372 1.490 . S
C2368 H2358 0.930 . S
C2368 C2367 1.400 . S
C2368 C2371 1.386 . S
H2369 C2385 0.930 . S
H2370 C2386 0.931 . S
C2371 H2359 0.929 . S
C2371 C2365 1.390 . S
C2371 C2368 1.386 . S
C2372 C2367 1.490 . S
C2372 C2374 1.395 . S
C2372 C2375 1.403 . S
H2373 C2379 0.930 . S
C2374 H2360 0.930 . S
C2374 C2372 1.395 . S
C2374 C2377 1.403 . S
C2375 C2372 1.403 . S
C2375 C2376 1.524 . S
C2375 C2379 1.400 . S
C2376 H2361 0.960 . S
C2376 H2362 0.960 . S
C2376 H2363 0.960 . S
C2376 C2375 1.524 . S
C2377 C2374 1.403 . S
C2377 C2378 1.392 . S
C2377 C2381 1.495 . S
C2378 C2377 1.392 . S
C2378 C2379 1.385 . S
C2378 C2380 1.478 . S
C2379 H2373 0.930 . S
C2379 C2375 1.400 . S
C2379 C2378 1.385 . S
C2380 C2378 1.478 . S
C2380 C2382 1.381 . S
C2380 C2386 1.383 . S
C2381 C2377 1.495 . S
C2381 H2387 0.959 . S
C2381 H2388 0.961 . S
C2381 H2389 0.960 . S
C2382 C2380 1.381 . S
C2382 C2383 1.394 . S
C2382 H2390 0.930 . S
C2383 C2382 1.394 . S
C2383 C2384 1.383 . S
C2383 H2391 0.929 . S
C2384 C2383 1.383 . S
C2384 C2385 1.377 . S
C2385 H2369 0.930 . S
C2385 C2384 1.377 . S
C2385 C2386 1.379 . S
C2386 H2370 0.931 . S
C2386 C2380 1.383 . S
C2386 C2385 1.379 . S
H2387 C2381 0.959 . S
H2388 C2381 0.961 . S
H2389 C2381 0.960 . S
H2390 C2382 0.930 . S
H2391 C2383 0.929 . S
H2392 C2400 0.929 . S
H2393 C2402 0.930 . S
H2394 C2404 0.930 . S
H2395 C2407 0.929 . S
H2396 C2410 0.930 . S
H2397 C2412 0.960 . S
H2398 C2412 0.960 . S
H2399 C2412 0.960 . S
C2400 H2392 0.929 . S
C2400 C2401 1.377 . S
C2400 C2402 1.384 . S
C2401 C2400 1.377 . S
C2401 C2407 1.390 . S
C2402 H2393 0.930 . S
C2402 C2400 1.384 . S
C2402 C2403 1.372 . S
C2403 C2402 1.372 . S
C2403 C2404 1.400 . S
C2403 C2408 1.490 . S
C2404 H2394 0.930 . S
C2404 C2403 1.400 . S
C2404 C2407 1.386 . S
H2405 C2421 0.930 . S
H2406 C2422 0.931 . S
C2407 H2395 0.929 . S
C2407 C2401 1.390 . S
C2407 C2404 1.386 . S
C2408 C2403 1.490 . S
C2408 C2410 1.395 . S
C2408 C2411 1.403 . S
H2409 C2415 0.930 . S
C2410 H2396 0.930 . S
C2410 C2408 1.395 . S
C2410 C2413 1.403 . S
C2411 C2408 1.403 . S
C2411 C2412 1.524 . S
C2411 C2415 1.400 . S
C2412 H2397 0.960 . S
C2412 H2398 0.960 . S
C2412 H2399 0.960 . S
C2412 C2411 1.524 . S
C2413 C2410 1.403 . S
C2413 C2414 1.392 . S
C2413 C2417 1.495 . S
C2414 C2413 1.392 . S
C2414 C2415 1.385 . S
C2414 C2416 1.478 . S
C2415 H2409 0.930 . S
C2415 C2411 1.400 . S
C2415 C2414 1.385 . S
C2416 C2414 1.478 . S
C2416 C2418 1.381 . S
C2416 C2422 1.383 . S
C2417 C2413 1.495 . S
C2417 H2423 0.959 . S
C2417 H2424 0.961 . S
C2417 H2425 0.960 . S
C2418 C2416 1.381 . S
C2418 C2419 1.394 . S
C2418 H2426 0.930 . S
C2419 C2418 1.394 . S
C2419 C2420 1.383 1_554 S
C2419 H2427 0.929 . S
C2420 C2419 1.383 1_556 S
C2420 C2421 1.377 . S
C2421 H2405 0.930 . S
C2421 C2420 1.377 . S
C2421 C2422 1.379 1_556 S
C2422 H2406 0.931 . S
C2422 C2416 1.383 . S
C2422 C2421 1.379 1_554 S
H2423 C2417 0.959 . S
H2424 C2417 0.961 . S
H2425 C2417 0.960 . S
H2426 C2418 0.930 . S
H2427 C2419 0.929 . S
H2428 C2436 0.929 . S
H2429 C2438 0.930 . S
H2430 C2440 0.930 . S
H2431 C2443 0.929 . S
H2432 C2446 0.930 . S
H2433 C2448 0.960 . S
H2434 C2448 0.960 . S
H2435 C2448 0.960 . S
C2436 H2428 0.929 . S
C2436 C2437 1.377 . S
C2436 C2438 1.384 . S
C2437 C2436 1.377 . S
C2437 C2443 1.390 . S
C2438 H2429 0.930 . S
C2438 C2436 1.384 . S
C2438 C2439 1.372 . S
C2439 C2438 1.372 . S
C2439 C2440 1.400 . S
C2439 C2444 1.490 . S
C2440 H2430 0.930 . S
C2440 C2439 1.400 . S
C2440 C2443 1.386 . S
H2441 C2457 0.930 1_554 S
H2442 C2458 0.931 . S
C2443 H2431 0.929 . S
C2443 C2437 1.390 . S
C2443 C2440 1.386 . S
C2444 C2439 1.490 . S
C2444 C2446 1.395 . S
C2444 C2447 1.403 . S
H2445 C2451 0.930 . S
C2446 H2432 0.930 . S
C2446 C2444 1.395 . S
C2446 C2449 1.403 . S
C2447 C2444 1.403 . S
C2447 C2448 1.524 . S
C2447 C2451 1.400 . S
C2448 H2433 0.960 . S
C2448 H2434 0.960 . S
C2448 H2435 0.960 . S
C2448 C2447 1.524 . S
C2449 C2446 1.403 . S
C2449 C2450 1.392 . S
C2449 C2453 1.495 . S
C2450 C2449 1.392 . S
C2450 C2451 1.385 . S
C2450 C2452 1.478 . S
C2451 H2445 0.930 . S
C2451 C2447 1.400 . S
C2451 C2450 1.385 . S
C2452 C2450 1.478 . S
C2452 C2454 1.381 . S
C2452 C2458 1.383 . S
C2453 C2449 1.495 . S
C2453 H2459 0.959 . S
C2453 H2460 0.961 . S
C2453 H2461 0.960 . S
C2454 C2452 1.381 . S
C2454 C2455 1.394 1_556 S
C2454 H2462 0.930 . S
C2455 C2454 1.394 1_554 S
C2455 C2456 1.383 . S
C2455 H2463 0.929 . S
C2456 C2455 1.383 . S
C2456 C2457 1.377 1_554 S
C2457 H2441 0.930 1_556 S
C2457 C2456 1.377 1_556 S
C2457 C2458 1.379 . S
C2458 H2442 0.931 . S
C2458 C2452 1.383 . S
C2458 C2457 1.379 . S
H2459 C2453 0.959 . S
H2460 C2453 0.961 . S
H2461 C2453 0.960 . S
H2462 C2454 0.930 . S
H2463 C2455 0.929 . S
H2464 C2472 0.929 . S
H2465 C2474 0.930 . S
H2466 C2476 0.930 . S
H2467 C2479 0.929 . S
H2468 C2482 0.930 . S
H2469 C2484 0.960 . S
H2470 C2484 0.960 . S
H2471 C2484 0.960 . S
C2472 H2464 0.929 . S
C2472 C2473 1.377 . S
C2472 C2474 1.384 1_554 S
C2473 C2472 1.377 . S
C2473 C2479 1.390 1_554 S
C2474 H2465 0.930 . S
C2474 C2472 1.384 1_556 S
C2474 C2475 1.372 . S
C2475 C2474 1.372 . S
C2475 C2476 1.400 . S
C2475 C2480 1.490 . S
C2476 H2466 0.930 . S
C2476 C2475 1.400 . S
C2476 C2479 1.386 . S
H2477 C2493 0.930 . S
H2478 C2494 0.931 . S
C2479 H2467 0.929 . S
C2479 C2473 1.390 1_556 S
C2479 C2476 1.386 . S
C2480 C2475 1.490 . S
C2480 C2482 1.395 . S
C2480 C2483 1.403 . S
H2481 C2487 0.930 . S
C2482 H2468 0.930 . S
C2482 C2480 1.395 . S
C2482 C2485 1.403 . S
C2483 C2480 1.403 . S
C2483 C2484 1.524 . S
C2483 C2487 1.400 . S
C2484 H2469 0.960 . S
C2484 H2470 0.960 . S
C2484 H2471 0.960 . S
C2484 C2483 1.524 . S
C2485 C2482 1.403 . S
C2485 C2486 1.392 . S
C2485 C2489 1.495 . S
C2486 C2485 1.392 . S
C2486 C2487 1.385 . S
C2486 C2488 1.478 . S
C2487 H2481 0.930 . S
C2487 C2483 1.400 . S
C2487 C2486 1.385 . S
C2488 C2486 1.478 . S
C2488 C2490 1.381 . S
C2488 C2494 1.383 . S
C2489 C2485 1.495 . S
C2489 H2495 0.959 . S
C2489 H2496 0.961 . S
C2489 H2497 0.960 . S
C2490 C2488 1.381 . S
C2490 C2491 1.394 . S
C2490 H2498 0.930 . S
C2491 C2490 1.394 . S
C2491 C2492 1.383 . S
C2491 H2499 0.929 . S
C2492 C2491 1.383 . S
C2492 C2493 1.377 . S
C2493 H2477 0.930 . S
C2493 C2492 1.377 . S
C2493 C2494 1.379 . S
C2494 H2478 0.931 . S
C2494 C2488 1.383 . S
C2494 C2493 1.379 . S
H2495 C2489 0.959 . S
H2496 C2489 0.961 . S
H2497 C2489 0.960 . S
H2498 C2490 0.930 . S
H2499 C2491 0.929 . S
H2500 C2508 0.929 . S
H2501 C2510 0.930 . S
H2502 C2512 0.930 . S
H2503 C2515 0.929 . S
H2504 C2518 0.930 . S
H2505 C2520 0.960 . S
H2506 C2520 0.960 . S
H2507 C2520 0.960 . S
C2508 H2500 0.929 . S
C2508 C2509 1.377 . S
C2508 C2510 1.384 . S
C2509 C2508 1.377 . S
C2509 C2515 1.390 . S
C2510 H2501 0.930 . S
C2510 C2508 1.384 . S
C2510 C2511 1.372 . S
C2511 C2510 1.372 . S
C2511 C2512 1.400 . S
C2511 C2516 1.490 . S
C2512 H2502 0.930 . S
C2512 C2511 1.400 . S
C2512 C2515 1.386 . S
H2513 C2529 0.930 . S
H2514 C2530 0.931 . S
C2515 H2503 0.929 . S
C2515 C2509 1.390 . S
C2515 C2512 1.386 . S
C2516 C2511 1.490 . S
C2516 C2518 1.395 . S
C2516 C2519 1.403 . S
H2517 C2523 0.930 . S
C2518 H2504 0.930 . S
C2518 C2516 1.395 . S
C2518 C2521 1.403 . S
C2519 C2516 1.403 . S
C2519 C2520 1.524 . S
C2519 C2523 1.400 . S
C2520 H2505 0.960 . S
C2520 H2506 0.960 . S
C2520 H2507 0.960 . S
C2520 C2519 1.524 . S
C2521 C2518 1.403 . S
C2521 C2522 1.392 . S
C2521 C2525 1.495 . S
C2522 C2521 1.392 . S
C2522 C2523 1.385 . S
C2522 C2524 1.478 . S
C2523 H2517 0.930 . S
C2523 C2519 1.400 . S
C2523 C2522 1.385 . S
C2524 C2522 1.478 . S
C2524 C2526 1.381 . S
C2524 C2530 1.383 . S
C2525 C2521 1.495 . S
C2525 H2531 0.959 . S
C2525 H2532 0.961 . S
C2525 H2533 0.960 . S
C2526 C2524 1.381 . S
C2526 C2527 1.394 . S
C2526 H2534 0.930 . S
C2527 C2526 1.394 . S
C2527 C2528 1.383 1_554 S
C2527 H2535 0.929 . S
C2528 C2527 1.383 1_556 S
C2528 C2529 1.377 . S
C2529 H2513 0.930 . S
C2529 C2528 1.377 . S
C2529 C2530 1.379 1_556 S
C2530 H2514 0.931 . S
C2530 C2524 1.383 . S
C2530 C2529 1.379 1_554 S
H2531 C2525 0.959 . S
H2532 C2525 0.961 . S
H2533 C2525 0.960 . S
H2534 C2526 0.930 . S
H2535 C2527 0.929 . S
H2536 C2544 0.929 . S
H2537 C2546 0.930 . S
H2538 C2548 0.930 . S
H2539 C2551 0.929 . S
H2540 C2554 0.930 . S
H2541 C2556 0.960 . S
H2542 C2556 0.960 . S
H2543 C2556 0.960 . S
C2544 H2536 0.929 . S
C2544 C2545 1.377 . S
C2544 C2546 1.384 . S
C2545 C2544 1.377 . S
C2545 C2551 1.390 . S
C2546 H2537 0.930 . S
C2546 C2544 1.384 . S
C2546 C2547 1.372 . S
C2547 C2546 1.372 . S
C2547 C2548 1.400 . S
C2547 C2552 1.490 . S
C2548 H2538 0.930 . S
C2548 C2547 1.400 . S
C2548 C2551 1.386 . S
H2549 C2565 0.930 . S
H2550 C2566 0.931 . S
C2551 H2539 0.929 . S
C2551 C2545 1.390 . S
C2551 C2548 1.386 . S
C2552 C2547 1.490 . S
C2552 C2554 1.395 . S
C2552 C2555 1.403 . S
H2553 C2559 0.930 . S
C2554 H2540 0.930 . S
C2554 C2552 1.395 . S
C2554 C2557 1.403 . S
C2555 C2552 1.403 . S
C2555 C2556 1.524 . S
C2555 C2559 1.400 . S
C2556 H2541 0.960 . S
C2556 H2542 0.960 . S
C2556 H2543 0.960 . S
C2556 C2555 1.524 . S
C2557 C2554 1.403 . S
C2557 C2558 1.392 . S
C2557 C2561 1.495 . S
C2558 C2557 1.392 . S
C2558 C2559 1.385 . S
C2558 C2560 1.478 . S
C2559 H2553 0.930 . S
C2559 C2555 1.400 . S
C2559 C2558 1.385 . S
C2560 C2558 1.478 . S
C2560 C2562 1.381 . S
C2560 C2566 1.383 . S
C2561 C2557 1.495 . S
C2561 H2567 0.959 . S
C2561 H2568 0.961 . S
C2561 H2569 0.960 . S
C2562 C2560 1.381 . S
C2562 C2563 1.394 . S
C2562 H2570 0.930 . S
C2563 C2562 1.394 . S
C2563 C2564 1.383 . S
C2563 H2571 0.929 . S
C2564 C2563 1.383 . S
C2564 C2565 1.377 . S
C2565 H2549 0.930 . S
C2565 C2564 1.377 . S
C2565 C2566 1.379 . S
C2566 H2550 0.931 . S
C2566 C2560 1.383 . S
C2566 C2565 1.379 . S
H2567 C2561 0.959 . S
H2568 C2561 0.961 . S
H2569 C2561 0.960 . S
H2570 C2562 0.930 . S
H2571 C2563 0.929 . S
H2572 C2580 0.929 . S
H2573 C2582 0.930 . S
H2574 C2584 0.930 . S
H2575 C2587 0.929 . S
H2576 C2590 0.930 . S
H2577 C2592 0.960 . S
H2578 C2592 0.960 . S
H2579 C2592 0.960 . S
C2580 H2572 0.929 . S
C2580 C2581 1.377 . S
C2580 C2582 1.384 . S
C2581 C2580 1.377 . S
C2581 C2587 1.390 . S
C2582 H2573 0.930 . S
C2582 C2580 1.384 . S
C2582 C2583 1.372 . S
C2583 C2582 1.372 . S
C2583 C2584 1.400 . S
C2583 C2588 1.490 . S
C2584 H2574 0.930 . S
C2584 C2583 1.400 . S
C2584 C2587 1.386 . S
H2585 C2601 0.930 . S
H2586 C2602 0.931 . S
C2587 H2575 0.929 . S
C2587 C2581 1.390 . S
C2587 C2584 1.386 . S
C2588 C2583 1.490 . S
C2588 C2590 1.395 . S
C2588 C2591 1.403 . S
H2589 C2595 0.930 . S
C2590 H2576 0.930 . S
C2590 C2588 1.395 . S
C2590 C2593 1.403 . S
C2591 C2588 1.403 . S
C2591 C2592 1.524 . S
C2591 C2595 1.400 . S
C2592 H2577 0.960 . S
C2592 H2578 0.960 . S
C2592 H2579 0.960 . S
C2592 C2591 1.524 . S
C2593 C2590 1.403 . S
C2593 C2594 1.392 . S
C2593 C2597 1.495 . S
C2594 C2593 1.392 . S
C2594 C2595 1.385 . S
C2594 C2596 1.478 . S
C2595 H2589 0.930 . S
C2595 C2591 1.400 . S
C2595 C2594 1.385 . S
C2596 C2594 1.478 . S
C2596 C2598 1.381 . S
C2596 C2602 1.383 . S
C2597 C2593 1.495 . S
C2597 H2603 0.959 . S
C2597 H2604 0.961 . S
C2597 H2605 0.960 . S
C2598 C2596 1.381 . S
C2598 C2599 1.394 . S
C2598 H2606 0.930 . S
C2599 C2598 1.394 . S
C2599 C2600 1.383 . S
C2599 H2607 0.929 . S
C2600 C2599 1.383 . S
C2600 C2601 1.377 . S
C2601 H2585 0.930 . S
C2601 C2600 1.377 . S
C2601 C2602 1.379 . S
C2602 H2586 0.931 . S
C2602 C2596 1.383 . S
C2602 C2601 1.379 . S
H2603 C2597 0.959 . S
H2604 C2597 0.961 . S
H2605 C2597 0.960 . S
H2606 C2598 0.930 . S
H2607 C2599 0.929 . S
H2608 C2616 0.929 . S
H2609 C2618 0.930 . S
H2610 C2620 0.930 . S
H2611 C2623 0.929 . S
H2612 C2626 0.930 . S
H2613 C2628 0.960 . S
H2614 C2628 0.960 . S
H2615 C2628 0.960 . S
C2616 H2608 0.929 . S
C2616 C2617 1.377 . S
C2616 C2618 1.384 . S
C2617 C2616 1.377 . S
C2617 C2623 1.390 . S
C2618 H2609 0.930 . S
C2618 C2616 1.384 . S
C2618 C2619 1.372 . S
C2619 C2618 1.372 . S
C2619 C2620 1.400 . S
C2619 C2624 1.490 . S
C2620 H2610 0.930 . S
C2620 C2619 1.400 . S
C2620 C2623 1.386 . S
H2621 C2637 0.930 . S
H2622 C2638 0.931 . S
C2623 H2611 0.929 . S
C2623 C2617 1.390 . S
C2623 C2620 1.386 . S
C2624 C2619 1.490 . S
C2624 C2626 1.395 . S
C2624 C2627 1.403 . S
H2625 C2631 0.930 . S
C2626 H2612 0.930 . S
C2626 C2624 1.395 . S
C2626 C2629 1.403 . S
C2627 C2624 1.403 . S
C2627 C2628 1.524 . S
C2627 C2631 1.400 . S
C2628 H2613 0.960 . S
C2628 H2614 0.960 . S
C2628 H2615 0.960 . S
C2628 C2627 1.524 . S
C2629 C2626 1.403 . S
C2629 C2630 1.392 . S
C2629 C2633 1.495 . S
C2630 C2629 1.392 . S
C2630 C2631 1.385 . S
C2630 C2632 1.478 . S
C2631 H2625 0.930 . S
C2631 C2627 1.400 . S
C2631 C2630 1.385 . S
C2632 C2630 1.478 . S
C2632 C2634 1.381 . S
C2632 C2638 1.383 . S
C2633 C2629 1.495 . S
C2633 H2639 0.959 . S
C2633 H2640 0.961 . S
C2633 H2641 0.960 . S
C2634 C2632 1.381 . S
C2634 C2635 1.394 . S
C2634 H2642 0.930 . S
C2635 C2634 1.394 . S
C2635 C2636 1.383 1_554 S
C2635 H2643 0.929 . S
C2636 C2635 1.383 1_556 S
C2636 C2637 1.377 . S
C2637 H2621 0.930 . S
C2637 C2636 1.377 . S
C2637 C2638 1.379 1_556 S
C2638 H2622 0.931 . S
C2638 C2632 1.383 . S
C2638 C2637 1.379 1_554 S
H2639 C2633 0.959 . S
H2640 C2633 0.961 . S
H2641 C2633 0.960 . S
H2642 C2634 0.930 . S
H2643 C2635 0.929 . S
H2644 C2652 0.929 . S
H2645 C2654 0.930 . S
H2646 C2656 0.930 . S
H2647 C2659 0.929 . S
H2648 C2662 0.930 . S
H2649 C2664 0.960 . S
H2650 C2664 0.960 . S
H2651 C2664 0.960 . S
C2652 H2644 0.929 . S
C2652 C2653 1.377 1_556 S
C2652 C2654 1.384 . S
C2653 C2652 1.377 1_554 S
C2653 C2659 1.390 . S
C2654 H2645 0.930 . S
C2654 C2652 1.384 . S
C2654 C2655 1.372 . S
C2655 C2654 1.372 . S
C2655 C2656 1.400 . S
C2655 C2660 1.490 . S
C2656 H2646 0.930 . S
C2656 C2655 1.400 . S
C2656 C2659 1.386 1_556 S
H2657 C2673 0.930 . S
H2658 C2674 0.931 . S
C2659 H2647 0.929 . S
C2659 C2653 1.390 . S
C2659 C2656 1.386 1_554 S
C2660 C2655 1.490 . S
C2660 C2662 1.395 . S
C2660 C2663 1.403 . S
H2661 C2667 0.930 . S
C2662 H2648 0.930 . S
C2662 C2660 1.395 . S
C2662 C2665 1.403 . S
C2663 C2660 1.403 . S
C2663 C2664 1.524 . S
C2663 C2667 1.400 . S
C2664 H2649 0.960 . S
C2664 H2650 0.960 . S
C2664 H2651 0.960 . S
C2664 C2663 1.524 . S
C2665 C2662 1.403 . S
C2665 C2666 1.392 . S
C2665 C2669 1.495 . S
C2666 C2665 1.392 . S
C2666 C2667 1.385 . S
C2666 C2668 1.478 . S
C2667 H2661 0.930 . S
C2667 C2663 1.400 . S
C2667 C2666 1.385 . S
C2668 C2666 1.478 . S
C2668 C2670 1.381 . S
C2668 C2674 1.383 . S
C2669 C2665 1.495 . S
C2669 H2675 0.959 . S
C2669 H2676 0.961 . S
C2669 H2677 0.960 . S
C2670 C2668 1.381 . S
C2670 C2671 1.394 . S
C2670 H2678 0.930 . S
C2671 C2670 1.394 . S
C2671 C2672 1.383 . S
C2671 H2679 0.929 . S
C2672 C2671 1.383 . S
C2672 C2673 1.377 . S
C2673 H2657 0.930 . S
C2673 C2672 1.377 . S
C2673 C2674 1.379 . S
C2674 H2658 0.931 . S
C2674 C2668 1.383 . S
C2674 C2673 1.379 . S
H2675 C2669 0.959 . S
H2676 C2669 0.961 . S
H2677 C2669 0.960 . S
H2678 C2670 0.930 . S
H2679 C2671 0.929 . S
H2680 C2688 0.929 . S
H2681 C2690 0.930 . S
H2682 C2692 0.930 . S
H2683 C2695 0.929 . S
H2684 C2698 0.930 . S
H2685 C2700 0.960 . S
H2686 C2700 0.960 . S
H2687 C2700 0.960 . S
C2688 H2680 0.929 . S
C2688 C2689 1.377 . S
C2688 C2690 1.384 . S
C2689 C2688 1.377 . S
C2689 C2695 1.390 . S
C2690 H2681 0.930 . S
C2690 C2688 1.384 . S
C2690 C2691 1.372 . S
C2691 C2690 1.372 . S
C2691 C2692 1.400 . S
C2691 C2696 1.490 . S
C2692 H2682 0.930 . S
C2692 C2691 1.400 . S
C2692 C2695 1.386 . S
H2693 C2709 0.930 . S
H2694 C2710 0.931 . S
C2695 H2683 0.929 . S
C2695 C2689 1.390 . S
C2695 C2692 1.386 . S
C2696 C2691 1.490 . S
C2696 C2698 1.395 . S
C2696 C2699 1.403 . S
H2697 C2703 0.930 . S
C2698 H2684 0.930 . S
C2698 C2696 1.395 . S
C2698 C2701 1.403 . S
C2699 C2696 1.403 . S
C2699 C2700 1.524 . S
C2699 C2703 1.400 . S
C2700 H2685 0.960 . S
C2700 H2686 0.960 . S
C2700 H2687 0.960 . S
C2700 C2699 1.524 . S
C2701 C2698 1.403 . S
C2701 C2702 1.392 . S
C2701 C2705 1.495 . S
C2702 C2701 1.392 . S
C2702 C2703 1.385 . S
C2702 C2704 1.478 . S
C2703 H2697 0.930 . S
C2703 C2699 1.400 . S
C2703 C2702 1.385 . S
C2704 C2702 1.478 . S
C2704 C2706 1.381 . S
C2704 C2710 1.383 . S
C2705 C2701 1.495 . S
C2705 H2711 0.959 . S
C2705 H2712 0.961 . S
C2705 H2713 0.960 . S
C2706 C2704 1.381 . S
C2706 C2707 1.394 . S
C2706 H2714 0.930 . S
C2707 C2706 1.394 . S
C2707 C2708 1.383 . S
C2707 H2715 0.929 . S
C2708 C2707 1.383 . S
C2708 C2709 1.377 . S
C2709 H2693 0.930 . S
C2709 C2708 1.377 . S
C2709 C2710 1.379 . S
C2710 H2694 0.931 . S
C2710 C2704 1.383 . S
C2710 C2709 1.379 . S
H2711 C2705 0.959 . S
H2712 C2705 0.961 . S
H2713 C2705 0.960 . S
H2714 C2706 0.930 . S
H2715 C2707 0.929 . S
H2716 C2724 0.929 . S
H2717 C2726 0.930 . S
H2718 C2728 0.930 . S
H2719 C2731 0.929 . S
H2720 C2734 0.930 . S
H2721 C2736 0.960 . S
H2722 C2736 0.960 . S
H2723 C2736 0.960 . S
C2724 H2716 0.929 . S
C2724 C2725 1.377 . S
C2724 C2726 1.384 . S
C2725 C2724 1.377 . S
C2725 C2731 1.390 . S
C2726 H2717 0.930 . S
C2726 C2724 1.384 . S
C2726 C2727 1.372 . S
C2727 C2726 1.372 . S
C2727 C2728 1.400 . S
C2727 C2732 1.490 . S
C2728 H2718 0.930 . S
C2728 C2727 1.400 . S
C2728 C2731 1.386 . S
H2729 C2745 0.930 . S
H2730 C2746 0.931 . S
C2731 H2719 0.929 . S
C2731 C2725 1.390 . S
C2731 C2728 1.386 . S
C2732 C2727 1.490 . S
C2732 C2734 1.395 . S
C2732 C2735 1.403 . S
H2733 C2739 0.930 . S
C2734 H2720 0.930 . S
C2734 C2732 1.395 . S
C2734 C2737 1.403 . S
C2735 C2732 1.403 . S
C2735 C2736 1.524 . S
C2735 C2739 1.400 . S
C2736 H2721 0.960 . S
C2736 H2722 0.960 . S
C2736 H2723 0.960 . S
C2736 C2735 1.524 . S
C2737 C2734 1.403 . S
C2737 C2738 1.392 . S
C2737 C2741 1.495 . S
C2738 C2737 1.392 . S
C2738 C2739 1.385 . S
C2738 C2740 1.478 . S
C2739 H2733 0.930 . S
C2739 C2735 1.400 . S
C2739 C2738 1.385 . S
C2740 C2738 1.478 . S
C2740 C2742 1.381 . S
C2740 C2746 1.383 . S
C2741 C2737 1.495 . S
C2741 H2747 0.959 . S
C2741 H2748 0.961 . S
C2741 H2749 0.960 . S
C2742 C2740 1.381 . S
C2742 C2743 1.394 . S
C2742 H2750 0.930 . S
C2743 C2742 1.394 . S
C2743 C2744 1.383 . S
C2743 H2751 0.929 . S
C2744 C2743 1.383 . S
C2744 C2745 1.377 . S
C2745 H2729 0.930 . S
C2745 C2744 1.377 . S
C2745 C2746 1.379 . S
C2746 H2730 0.931 . S
C2746 C2740 1.383 . S
C2746 C2745 1.379 . S
H2747 C2741 0.959 . S
H2748 C2741 0.961 . S
H2749 C2741 0.960 . S
H2750 C2742 0.930 . S
H2751 C2743 0.929 . S
C457 C96 1.414 . S
C476 C12 1.414 . S
C493 C26 1.412 . S
C512 C110 1.422 . S
C529 C68 1.414 . S
C548 C40 1.412 . S
C565 C54 1.416 . S
C584 C82 1.401 . S
C601 C124 1.416 . S
C620 C208 1.414 . S
C637 C222 1.412 . S
C656 C138 1.403 . S
C673 C152 1.413 . S
C692 C180 1.401 . S
C709 C194 1.416 . S
C728 C166 1.421 . S
C745 C236 1.414 . S
C764 C320 1.414 . S
C781 C250 1.413 . S
C800 C334 1.417 . S
C817 C292 1.412 . S
C836 C264 1.422 . S
C853 C306 1.413 . S
C872 C278 1.417 . S
C889 C348 1.412 . S
C908 C432 1.410 . S
C925 C362 1.412 . S
C944 C446 1.403 . S
C961 C404 1.416 . S
C980 C376 1.421 . S
C997 C390 1.413 . S
C1016 C418 1.401 . S
C1033 C5 1.249 . S
C1052 C103 1.202 . S
C1069 C61 1.248 . S
C1088 C19 1.199 . S
C1105 C75 1.244 . S
C1124 C33 1.192 . S
C1141 C47 1.249 . S
C1160 C89 1.201 . S
C1177 C117 1.244 . S
C1196 C215 1.191 . S
C1213 C173 1.260 . S
C1232 C131 1.275 . S
C1249 C187 1.252 . S
C1268 C145 1.201 . S
C1285 C201 1.259 . S
C1304 C159 1.242 . S
C1321 C229 1.242 . S
C1340 C327 1.266 . S
C1357 C243 1.260 . S
C1376 C285 1.278 . S
C1393 C299 1.258 . S
C1412 C257 1.299 . S
C1429 C271 1.260 . S
C1448 C313 1.290 . S
C1465 C341 1.259 . S
C1484 C439 1.241 . S
C1501 C397 1.259 . S
C1520 C355 1.286 . S
C1537 C369 1.247 . S
C1556 C411 1.294 . S
C1573 C383 1.238 . S
C1592 C425 1.240 . S
C1609 C431 1.443 . S
C1628 C11 1.461 . S
C1645 C221 1.452 . S
C1664 C25 1.429 . S
C1681 C39 1.445 . S
C1700 C403 1.433 . S
C1717 C53 1.444 . S
C1736 C193 1.438 . S
C1753 C67 1.443 . S
C1772 C375 1.459 . S
C1789 C81 1.449 . S
C1808 C165 1.423 . S
C1825 C95 1.449 . S
C1844 C347 1.460 . S
C1861 C137 1.446 . S
C1880 C109 1.466 . S
C1897 C319 1.445 . S
C1916 C123 1.434 . S
C1933 C151 1.445 . S
C1952 C291 1.465 . S
C1969 C263 1.443 . S
C1988 C179 1.453 . S
C2005 C235 1.447 . S
C2024 C207 1.464 . S
C2041 C249 1.450 . S
C2060 C445 1.455 . S
C2077 C277 1.447 . S
C2096 C417 1.425 . S
C2113 C305 1.444 . S
C2132 C389 1.443 . S
C2149 C361 1.452 . S
C2168 C333 1.437 . S
C2185 C4 0.865 . S
C2204 C102 0.873 . S
C2221 C18 0.848 . S
C2240 C60 0.855 . S
C2257 C74 0.864 . S
C2276 C32 0.886 . S
C2293 C46 0.854 . S
C2312 C88 0.890 . S
C2329 C214 0.854 . S
C2348 C116 0.817 . S
C2365 C172 0.853 . S
C2384 C130 0.873 . S
C2401 C144 0.855 . S
C2420 C186 0.820 . S
C2437 C200 0.862 . S
C2456 C158 0.897 . S
C2473 C326 0.858 . S
C2492 C228 0.818 . S
C2509 C284 0.865 . S
C2528 C242 0.880 . S
C2545 C298 0.857 . S
C2564 C256 0.817 . S
C2581 C312 0.848 . S
C2600 C270 0.834 . S
C2617 C340 0.859 . S
C2636 C438 0.831 . S
C2653 C354 0.852 . S
C2672 C396 0.868 . S
C2689 C368 0.865 . S
C2708 C410 0.876 . S
C2725 C424 0.859 . S
C2744 C382 0.833 . S
