# Generated by pormake.
# Topology ukt, (4)-cn, num edge types: 1
# Building blocks:
#     Node 0, Type 0, BuildingBlock: QUQFOY_clean_sbu_1, # of connection points: 4
#     Node 1, Type 0, BuildingBlock: QUQFOY_clean_sbu_1, # of connection points: 4
#     Node 2, Type 0, BuildingBlock: QUQFOY_clean_sbu_1, # of connection points: 4
#     Node 3, Type 0, BuildingBlock: QUQFOY_clean_sbu_1, # of connection points: 4
#     Node 4, Type 0, BuildingBlock: QUQFOY_clean_sbu_1, # of connection points: 4
#     Node 5, Type 0, BuildingBlock: QUQFOY_clean_sbu_1, # of connection points: 4
#     Node 6, Type 0, BuildingBlock: QUQFOY_clean_sbu_1, # of connection points: 4
#     Node 7, Type 0, BuildingBlock: QUQFOY_clean_sbu_1, # of connection points: 4
#     Node 8, Type 0, BuildingBlock: QUQFOY_clean_sbu_1, # of connection points: 4
#     Node 9, Type 0, BuildingBlock: QUQFOY_clean_sbu_1, # of connection points: 4
#     Node 10, Type 0, BuildingBlock: QUQFOY_clean_sbu_1, # of connection points: 4
#     Node 11, Type 0, BuildingBlock: QUQFOY_clean_sbu_1, # of connection points: 4
#     Node 12, Type 0, BuildingBlock: QUQFOY_clean_sbu_1, # of connection points: 4
#     Node 13, Type 0, BuildingBlock: QUQFOY_clean_sbu_1, # of connection points: 4
#     Node 14, Type 0, BuildingBlock: QUQFOY_clean_sbu_1, # of connection points: 4
#     Node 15, Type 0, BuildingBlock: QUQFOY_clean_sbu_1, # of connection points: 4
#     Edge 16, Type (0, 0), BuildingBlock: EZIPEK_clean_linker_0, # of connection points: 2
#     Edge 17, Type (0, 0), BuildingBlock: EZIPEK_clean_linker_0, # of connection points: 2
#     Edge 18, Type (0, 0), BuildingBlock: EZIPEK_clean_linker_0, # of connection points: 2
#     Edge 19, Type (0, 0), BuildingBlock: EZIPEK_clean_linker_0, # of connection points: 2
#     Edge 20, Type (0, 0), BuildingBlock: EZIPEK_clean_linker_0, # of connection points: 2
#     Edge 21, Type (0, 0), BuildingBlock: EZIPEK_clean_linker_0, # of connection points: 2
#     Edge 22, Type (0, 0), BuildingBlock: EZIPEK_clean_linker_0, # of connection points: 2
#     Edge 23, Type (0, 0), BuildingBlock: EZIPEK_clean_linker_0, # of connection points: 2
#     Edge 24, Type (0, 0), BuildingBlock: EZIPEK_clean_linker_0, # of connection points: 2
#     Edge 25, Type (0, 0), BuildingBlock: EZIPEK_clean_linker_0, # of connection points: 2
#     Edge 26, Type (0, 0), BuildingBlock: EZIPEK_clean_linker_0, # of connection points: 2
#     Edge 27, Type (0, 0), BuildingBlock: EZIPEK_clean_linker_0, # of connection points: 2
#     Edge 28, Type (0, 0), BuildingBlock: EZIPEK_clean_linker_0, # of connection points: 2
#     Edge 29, Type (0, 0), BuildingBlock: EZIPEK_clean_linker_0, # of connection points: 2
#     Edge 30, Type (0, 0), BuildingBlock: EZIPEK_clean_linker_0, # of connection points: 2
#     Edge 31, Type (0, 0), BuildingBlock: EZIPEK_clean_linker_0, # of connection points: 2
#     Edge 32, Type (0, 0), BuildingBlock: EZIPEK_clean_linker_0, # of connection points: 2
#     Edge 33, Type (0, 0), BuildingBlock: EZIPEK_clean_linker_0, # of connection points: 2
#     Edge 34, Type (0, 0), BuildingBlock: EZIPEK_clean_linker_0, # of connection points: 2
#     Edge 35, Type (0, 0), BuildingBlock: EZIPEK_clean_linker_0, # of connection points: 2
#     Edge 36, Type (0, 0), BuildingBlock: EZIPEK_clean_linker_0, # of connection points: 2
#     Edge 37, Type (0, 0), BuildingBlock: EZIPEK_clean_linker_0, # of connection points: 2
#     Edge 38, Type (0, 0), BuildingBlock: EZIPEK_clean_linker_0, # of connection points: 2
#     Edge 39, Type (0, 0), BuildingBlock: EZIPEK_clean_linker_0, # of connection points: 2
#     Edge 40, Type (0, 0), BuildingBlock: EZIPEK_clean_linker_0, # of connection points: 2
#     Edge 41, Type (0, 0), BuildingBlock: EZIPEK_clean_linker_0, # of connection points: 2
#     Edge 42, Type (0, 0), BuildingBlock: EZIPEK_clean_linker_0, # of connection points: 2
#     Edge 43, Type (0, 0), BuildingBlock: EZIPEK_clean_linker_0, # of connection points: 2
#     Edge 44, Type (0, 0), BuildingBlock: EZIPEK_clean_linker_0, # of connection points: 2
#     Edge 45, Type (0, 0), BuildingBlock: EZIPEK_clean_linker_0, # of connection points: 2
#     Edge 46, Type (0, 0), BuildingBlock: EZIPEK_clean_linker_0, # of connection points: 2
#     Edge 47, Type (0, 0), BuildingBlock: EZIPEK_clean_linker_0, # of connection points: 2
# Relax obj value: 0.109
# Max RMSD: 0.078
# Mean RMSD: 0.078
data_MOF--net-ukt--node1-QUQFOY_clean_sbu_1--edge1-EZIPEK_clean_linker_0
_symmetry_space_group_name_H-M    P1
_symmetry_Int_Tables_number       1
_symmetry_cell_setting            triclinic
loop_
_symmetry_equiv_pos_as_xyz
'x, y, z'
_cell_length_a     33.369522
_cell_length_b     33.385181
_cell_length_c     30.571361
_cell_angle_alpha  89.941721
_cell_angle_beta   90.085472
_cell_angle_gamma 90.458327
loop_
_atom_site_label
_atom_site_type_symbol
_atom_site_fract_x
_atom_site_fract_y
_atom_site_fract_z
_atom_type_partial_charge
O0 O 0.60155 0.07065 0.10006 0.0
Cd1 Cd 0.55546 0.09891 0.06858 0.0
Cd2 Cd 0.58112 0.15684 0.14655 0.0
O3 O 0.61884 0.10882 0.15591 0.0
O4 O 0.54869 0.06109 0.01854 0.0
O5 O 0.50119 0.07159 0.06738 0.0
C6 C 0.51352 0.05279 0.03314 0.0
C7 C 0.56723 0.19451 0.20973 0.0
C8 C 0.62294 0.07691 0.13379 0.0
C9 C 0.58082 0.18471 0.04992 0.0
O10 O 0.58795 0.19044 0.09029 0.0
O11 O 0.56696 0.15169 0.0356 0.0
O12 O 0.60183 0.19557 0.19137 0.0
O13 O 0.53986 0.17207 0.19237 0.0
O14 O 0.35682 0.62168 0.97784 0.0
Cd15 Cd 0.35665 0.56048 0.9828 0.0
Cd16 Cd 0.27843 0.57825 0.0204 0.0
O17 O 0.29326 0.63323 0.99345 0.0
O18 O 0.40975 0.54856 0.95668 0.0
O19 O 0.3932 0.53101 0.02416 0.0
C20 C 0.4191 0.53141 0.99285 0.0
C21 C 0.2458 0.58172 0.08805 0.0
C22 C 0.3273 0.64531 0.98008 0.0
C23 C 0.28316 0.5192 0.94595 0.0
O24 O 0.26292 0.53305 0.97769 0.0
O25 O 0.3197 0.52891 0.94117 0.0
O26 O 0.22761 0.59055 0.05222 0.0
O27 O 0.28238 0.56953 0.08556 0.0
O28 O 0.8744 0.39122 0.10377 0.0
Cd29 Cd 0.93279 0.37303 0.10781 0.0
Cd30 Cd 0.89252 0.33903 0.18501 0.0
O31 O 0.85362 0.38538 0.17208 0.0
O32 O 0.95514 0.4012 0.0557 0.0
O33 O 0.97631 0.41327 0.12304 0.0
C34 C 0.97769 0.42141 0.0818 0.0
C35 C 0.89561 0.31123 0.25578 0.0
C36 C 0.84805 0.3969 0.13292 0.0
C37 C 0.91691 0.28768 0.10592 0.0
O38 O 0.89436 0.29449 0.13848 0.0
O39 O 0.94164 0.31393 0.09236 0.0
O40 O 0.86383 0.30847 0.23217 0.0
O41 O 0.92536 0.33181 0.24051 0.0
O42 O 0.1272 0.8415 0.02719 0.0
Cd43 Cd 0.12343 0.90257 0.02931 0.0
Cd44 Cd 0.20513 0.8925 0.056 0.0
O45 O 0.19291 0.83519 0.03316 0.0
O46 O 0.06846 0.90876 0.00489 0.0
O47 O 0.08587 0.93185 0.06995 0.0
C48 C 0.05907 0.92764 0.03985 0.0
C49 C 0.23747 0.89948 0.12375 0.0
C50 C 0.15854 0.82033 0.02484 0.0
C51 C 0.18982 0.94467 0.97833 0.0
O52 O 0.21498 0.93452 0.00756 0.0
O53 O 0.15364 0.9332 0.98102 0.0
O54 O 0.25657 0.88802 0.08942 0.0
O55 O 0.19984 0.90762 0.11967 0.0
O56 O 0.62456 0.37401 0.50856 0.0
Cd57 Cd 0.56358 0.36895 0.51208 0.0
Cd58 Cd 0.58138 0.31298 0.43955 0.0
O59 O 0.63709 0.3401 0.44792 0.0
O60 O 0.5486 0.41489 0.54966 0.0
O61 O 0.52982 0.40866 0.4802 0.0
C62 C 0.53048 0.42924 0.51597 0.0
C63 C 0.56923 0.28423 0.37035 0.0
C64 C 0.64883 0.36176 0.47972 0.0
C65 C 0.54255 0.28437 0.52752 0.0
O66 O 0.55839 0.27866 0.49018 0.0
O67 O 0.54045 0.31955 0.54272 0.0
O68 O 0.59453 0.26919 0.39734 0.0
O69 O 0.55075 0.31631 0.38198 0.0
O70 O 0.07348 0.64784 0.38911 0.0
Cd71 Cd 0.10516 0.59589 0.39359 0.0
Cd72 Cd 0.13748 0.63625 0.31791 0.0
O73 O 0.08737 0.6718 0.32384 0.0
O74 O 0.07878 0.57454 0.44709 0.0
O75 O 0.07397 0.54474 0.3827 0.0
C76 C 0.0633 0.54683 0.4232 0.0
C77 C 0.16272 0.61694 0.24985 0.0
C78 C 0.06711 0.67309 0.35891 0.0
C79 C 0.18919 0.62506 0.39857 0.0
O80 O 0.18213 0.64458 0.36374 0.0
O81 O 0.16408 0.5997 0.41342 0.0
O82 O 0.16419 0.65367 0.26266 0.0
O83 O 0.14467 0.59115 0.27462 0.0
O84 O 0.87762 0.11558 0.54862 0.0
Cd85 Cd 0.93656 0.13095 0.54012 0.0
Cd86 Cd 0.89295 0.19239 0.4885 0.0
O87 O 0.84374 0.15907 0.50865 0.0
O88 O 0.96099 0.08753 0.57543 0.0
O89 O 0.97034 0.09389 0.50405 0.0
C90 C 0.97575 0.0739 0.5397 0.0
C91 C 0.89467 0.22292 0.41936 0.0
C92 C 0.84466 0.12936 0.53474 0.0
C93 C 0.94569 0.2165 0.56644 0.0
O94 O 0.92085 0.22519 0.53648 0.0
O95 O 0.95781 0.18097 0.57223 0.0
O96 O 0.8711 0.23542 0.44962 0.0
O97 O 0.91634 0.1919 0.4275 0.0
O98 O 0.44095 0.868 0.41295 0.0
Cd99 Cd 0.40664 0.90823 0.44688 0.0
Cd100 Cd 0.36299 0.88279 0.35119 0.0
O101 O 0.41679 0.85332 0.34747 0.0
O102 O 0.43219 0.90136 0.50574 0.0
O103 O 0.43502 0.95803 0.46851 0.0
C104 C 0.44548 0.93743 0.50233 0.0
C105 C 0.32858 0.89458 0.28511 0.0
C106 C 0.44385 0.85 0.37649 0.0
C107 C 0.32036 0.87781 0.44149 0.0
O108 O 0.32412 0.86887 0.4013 0.0
O109 O 0.3476 0.89646 0.46246 0.0
O110 O 0.3327 0.8591 0.30075 0.0
O111 O 0.34509 0.92388 0.30617 0.0
O112 O 0.32207 0.9211 0.89605 0.0
Cd113 Cd 0.37361 0.89013 0.90798 0.0
Cd114 Cd 0.33869 0.85534 0.82506 0.0
O115 O 0.30021 0.90331 0.83074 0.0
O116 O 0.38916 0.91611 0.96429 0.0
O117 O 0.42546 0.92156 0.90409 0.0
C118 C 0.41947 0.93145 0.94433 0.0
C119 C 0.35886 0.83165 0.75652 0.0
C120 C 0.29749 0.92508 0.86463 0.0
C121 C 0.34864 0.80368 0.907 0.0
O122 O 0.33281 0.80946 0.86973 0.0
O123 O 0.36925 0.83073 0.92594 0.0
O124 O 0.32246 0.82771 0.76984 0.0
O125 O 0.38375 0.85121 0.78102 0.0
O126 O 0.62176 0.35693 0.99724 0.0
Cd127 Cd 0.63166 0.41767 0.99555 0.0
Cd128 Cd 0.69096 0.39028 0.93719 0.0
O129 O 0.65816 0.33754 0.9409 0.0
O130 O 0.5852 0.43705 0.0299 0.0
O131 O 0.5949 0.45252 0.96019 0.0
C132 C 0.57305 0.45459 0.99491 0.0
C133 C 0.71943 0.40724 0.8695 0.0
C134 C 0.63356 0.32968 0.97149 0.0
C135 C 0.71462 0.42535 0.026 0.0
O136 O 0.72387 0.40481 0.99255 0.0
O137 O 0.67938 0.43834 0.03124 0.0
O138 O 0.73342 0.37861 0.89306 0.0
O139 O 0.689 0.42672 0.88416 0.0
O140 O 0.14172 0.54834 0.90486 0.0
Cd141 Cd 0.10091 0.58284 0.93762 0.0
Cd142 Cd 0.12764 0.62823 0.84652 0.0
O143 O 0.15849 0.57526 0.84139 0.0
O144 O 0.10087 0.55434 0.99523 0.0
O145 O 0.04819 0.55559 0.95136 0.0
C146 C 0.06495 0.54257 0.98664 0.0
C147 C 0.11153 0.66145 0.78116 0.0
C148 C 0.1607 0.54685 0.86889 0.0
C149 C 0.13195 0.66913 0.93738 0.0
O150 O 0.14057 0.66721 0.89694 0.0
O151 O 0.1142 0.64062 0.9572 0.0
O152 O 0.14778 0.65975 0.79534 0.0
O153 O 0.08395 0.64344 0.8035 0.0
O154 O 0.87191 0.10561 0.04911 0.0
Cd155 Cd 0.85122 0.04785 0.04436 0.0
Cd156 Cd 0.7892 0.09601 0.99463 0.0
O157 O 0.82718 0.14192 0.01358 0.0
O158 O 0.89494 0.02122 0.07747 0.0
O159 O 0.88281 0.00946 0.00744 0.0
C160 C 0.90495 0.00404 0.04158 0.0
C161 C 0.75626 0.10103 0.9269 0.0
C162 C 0.85898 0.13926 0.03631 0.0
C163 C 0.76565 0.045 0.07441 0.0
O164 O 0.75685 0.06901 0.04366 0.0
O165 O 0.80097 0.03199 0.07976 0.0
O166 O 0.74668 0.12348 0.95938 0.0
O167 O 0.78512 0.07596 0.93239 0.0
O168 O 0.36981 0.6386 0.47528 0.0
Cd169 Cd 0.42948 0.64491 0.49009 0.0
Cd170 Cd 0.3985 0.71846 0.5258 0.0
O171 O 0.34563 0.6954 0.5009 0.0
O172 O 0.45462 0.61171 0.53779 0.0
O173 O 0.44932 0.59275 0.46857 0.0
C174 C 0.46044 0.58513 0.50791 0.0
C175 C 0.39435 0.75048 0.59381 0.0
C176 C 0.34074 0.66222 0.48124 0.0
C177 C 0.46094 0.72209 0.45333 0.0
O178 O 0.43865 0.74029 0.48042 0.0
O179 O 0.46248 0.68418 0.45255 0.0
O180 O 0.38072 0.76688 0.55877 0.0
O181 O 0.41132 0.71598 0.59034 0.0
O182 O 0.91991 0.37975 0.58659 0.0
Cd183 Cd 0.89121 0.42486 0.55406 0.0
Cd184 Cd 0.83709 0.40275 0.63976 0.0
O185 O 0.88561 0.36522 0.64624 0.0
O186 O 0.92537 0.42652 0.5005 0.0
O187 O 0.92132 0.47707 0.54699 0.0
C188 C 0.93682 0.46171 0.51225 0.0
C189 C 0.80273 0.41525 0.70539 0.0
C190 C 0.91592 0.36003 0.62187 0.0
C191 C 0.80291 0.40335 0.54497 0.0
O192 O 0.80008 0.39714 0.58587 0.0
O193 O 0.83525 0.41527 0.52719 0.0
O194 O 0.80069 0.38109 0.6862 0.0
O195 O 0.82429 0.44302 0.68749 0.0
O196 O 0.14078 0.8618 0.51538 0.0
Cd197 Cd 0.07988 0.85757 0.52094 0.0
Cd198 Cd 0.1032 0.77972 0.55008 0.0
O199 O 0.15913 0.79984 0.53049 0.0
O200 O 0.06675 0.91134 0.49742 0.0
O201 O 0.04964 0.89182 0.564 0.0
C202 C 0.04984 0.91907 0.53406 0.0
C203 C 0.09795 0.74856 0.61842 0.0
C204 C 0.16758 0.8352 0.51799 0.0
C205 C 0.048 0.78527 0.4721 0.0
O206 O 0.06521 0.76286 0.49997 0.0
O207 O 0.05042 0.82305 0.47526 0.0
O208 O 0.11335 0.73038 0.58537 0.0
O209 O 0.08473 0.78447 0.61266 0.0
O210 O 0.58277 0.11901 0.62008 0.0
Cd211 Cd 0.6101 0.06504 0.62981 0.0
Cd212 Cd 0.64852 0.12373 0.69001 0.0
O213 O 0.60704 0.16366 0.66651 0.0
O214 O 0.58371 0.03835 0.57913 0.0
O215 O 0.57321 0.01883 0.64712 0.0
C216 C 0.56481 0.01573 0.60609 0.0
C217 C 0.67133 0.11908 0.76213 0.0
C218 C 0.5843 0.15455 0.63457 0.0
C219 C 0.69674 0.08587 0.61681 0.0
O220 O 0.69259 0.11262 0.64583 0.0
O221 O 0.66907 0.06048 0.60883 0.0
O222 O 0.67889 0.15024 0.73854 0.0
O223 O 0.64802 0.0917 0.74607 0.0
C224 C 0.56417 0.24636 0.00698 0.0
C225 C 0.59221 0.21668 0.01889 0.0
C226 C 0.64744 0.25767 0.99064 0.0
C227 C 0.61955 0.28814 0.97975 0.0
N228 N 0.55124 0.30712 0.96576 0.0
N229 N 0.65763 0.18802 0.01016 0.0
C230 C 0.57775 0.28091 0.98401 0.0
C231 C 0.63289 0.2203 0.00641 0.0
N232 N 0.52499 0.24218 0.01922 0.0
N233 N 0.68775 0.26533 0.98948 0.0
H234 H 0.64773 0.16037 0.02201 0.0
H235 H 0.68662 0.18752 0.99756 0.0
H236 H 0.70016 0.2923 0.97891 0.0
H237 H 0.70905 0.24586 1.00225 0.0
H238 H 0.50391 0.26488 0.01618 0.0
H239 H 0.51397 0.21642 0.03449 0.0
H240 H 0.52042 0.30211 0.96463 0.0
H241 H 0.56057 0.3322 0.94802 0.0
C242 C 0.19086 0.48406 0.89577 0.0
C243 C 0.19173 0.51527 0.86455 0.0
C244 C 0.26455 0.51516 0.86733 0.0
C245 C 0.26095 0.49901 0.91003 0.0
N246 N 0.22539 0.45436 0.95782 0.0
N247 N 0.22907 0.54417 0.80517 0.0
C248 C 0.22579 0.47748 0.92106 0.0
C249 C 0.22873 0.52488 0.84447 0.0
N250 N 0.15596 0.46363 0.90277 0.0
N251 N 0.30161 0.52174 0.84994 0.0
H252 H 0.20283 0.5477 0.78698 0.0
H253 H 0.25483 0.5553 0.7902 0.0
H254 H 0.32746 0.51179 0.86567 0.0
H255 H 0.30659 0.53347 0.81887 0.0
H256 H 0.15338 0.43934 0.924 0.0
H257 H 0.13041 0.4698 0.88422 0.0
H258 H 0.19969 0.44077 0.97041 0.0
H259 H 0.2516 0.44955 0.97577 0.0
C260 C 0.88988 0.1799 0.09686 0.0
C261 C 0.87959 0.17608 0.05187 0.0
C262 C 0.90034 0.24573 0.03943 0.0
C263 C 0.91245 0.24845 0.08394 0.0
N264 N 0.93157 0.21413 0.14988 0.0
N265 N 0.88599 0.20171 0.9783 0.0
C266 C 0.91177 0.21398 0.11075 0.0
C267 C 0.88836 0.20785 0.0224 0.0
N268 N 0.87605 0.15299 0.12716 0.0
N269 N 0.8978 0.27934 0.01408 0.0
H270 H 0.87846 0.174 0.9647 0.0
H271 H 0.89558 0.22284 0.95541 0.0
H272 H 0.90613 0.30777 0.02491 0.0
H273 H 0.88457 0.27938 0.98318 0.0
H274 H 0.87993 0.15702 0.16072 0.0
H275 H 0.8566 0.12941 0.1197 0.0
H276 H 0.93473 0.18855 0.16913 0.0
H277 H 0.94839 0.23878 0.16052 0.0
C278 C 0.26825 0.98256 0.90339 0.0
C279 C 0.26252 0.95147 0.87259 0.0
C280 C 0.19311 0.94528 0.8965 0.0
C281 C 0.20514 0.96252 0.93689 0.0
N282 N 0.24811 0.00951 0.9738 0.0
N283 N 0.21505 0.91444 0.82872 0.0
C284 C 0.24044 0.98614 0.93816 0.0
C285 C 0.22313 0.93705 0.86482 0.0
N286 N 0.30148 0.00635 0.90029 0.0
N287 N 0.15359 0.93739 0.88864 0.0
H288 H 0.23515 0.91244 0.80277 0.0
H289 H 0.18846 0.89843 0.82429 0.0
H290 H 0.13118 0.94698 0.90983 0.0
H291 H 0.14275 0.92621 0.85909 0.0
H292 H 0.30686 0.03098 0.92038 0.0
H293 H 0.32194 0.0027 0.87477 0.0
H294 H 0.2752 0.02444 0.97907 0.0
H295 H 0.22676 0.01323 0.99839 0.0
C296 C 0.5422 0.21087 0.53741 0.0
C297 C 0.53439 0.24856 0.55588 0.0
C298 C 0.54383 0.21849 0.62863 0.0
C299 C 0.56424 0.18617 0.60839 0.0
N300 N 0.58941 0.15757 0.54037 0.0
N301 N 0.51526 0.28495 0.62062 0.0
C302 C 0.56465 0.18338 0.56186 0.0
C303 C 0.53106 0.25143 0.60219 0.0
N304 N 0.52974 0.20217 0.49597 0.0
N305 N 0.53551 0.21698 0.67234 0.0
H306 H 0.49905 0.30569 0.60237 0.0
H307 H 0.51729 0.29158 0.65381 0.0
H308 H 0.54293 0.19248 0.69184 0.0
H309 H 0.51821 0.2381 0.68851 0.0
H310 H 0.5334 0.17394 0.48197 0.0
H311 H 0.51163 0.22184 0.47834 0.0
H312 H 0.59177 0.15721 0.50635 0.0
H313 H 0.61163 0.14096 0.55581 0.0
C314 C 0.29997 0.64322 0.41571 0.0
C315 C 0.30158 0.65229 0.46106 0.0
C316 C 0.22854 0.64532 0.46552 0.0
C317 C 0.22774 0.63197 0.42139 0.0
N318 N 0.26394 0.60896 0.35805 0.0
N319 N 0.26837 0.65482 0.5311 0.0
C320 C 0.26387 0.62813 0.39755 0.0
C321 C 0.26612 0.65131 0.48662 0.0
N322 N 0.33225 0.65091 0.38939 0.0
N323 N 0.19362 0.65408 0.48666 0.0
H324 H 0.2954 0.65864 0.5478 0.0
H325 H 0.24389 0.65021 0.55166 0.0
H326 H 0.16547 0.65079 0.47222 0.0
H327 H 0.19276 0.66803 0.5171 0.0
H328 H 0.33107 0.64853 0.35542 0.0
H329 H 0.3588 0.66393 0.40074 0.0
H330 H 0.29014 0.60206 0.34126 0.0
H331 H 0.23822 0.59613 0.34436 0.0
C332 C 0.92886 0.29193 0.65345 0.0
C333 C 0.94273 0.32501 0.62881 0.0
C334 C 0.98074 0.28067 0.58152 0.0
C335 C 0.95684 0.24858 0.59718 0.0
N336 N 0.91444 0.22055 0.65331 0.0
N337 N -0.00156 0.35133 0.58828 0.0
C338 C 0.93391 0.25294 0.6359 0.0
C339 C 0.97483 0.31938 0.59936 0.0
N340 N 0.91139 0.2981 0.69314 0.0
N341 N 0.00646 0.27435 0.54759 0.0
H342 H -0.00555 0.37929 0.60293 0.0
H343 H 0.02348 0.34947 0.56817 0.0
H344 H 0.01166 0.24565 0.53537 0.0
H345 H 0.02192 0.29711 0.53138 0.0
H346 H 0.90229 0.27506 0.71393 0.0
H347 H 0.91045 0.32659 0.70715 0.0
H348 H 0.89338 0.2225 0.67828 0.0
H349 H 0.91886 0.19155 0.6417 0.0
C350 C 0.24302 0.83928 0.52397 0.0
C351 C 0.20742 0.8446 0.49933 0.0
C352 C 0.24564 0.87772 0.44144 0.0
C353 C 0.28183 0.86802 0.46319 0.0
N354 N 0.31523 0.83276 0.52189 0.0
N355 N 0.17681 0.85854 0.42917 0.0
C356 C 0.28072 0.84699 0.50372 0.0
C357 C 0.20928 0.8608 0.45645 0.0
N358 N 0.24088 0.82803 0.5669 0.0
N359 N 0.24561 0.90436 0.40743 0.0
H360 H 0.15002 0.84431 0.43779 0.0
H361 H 0.17813 0.8666 0.39624 0.0
H362 H 0.27133 0.91942 0.39683 0.0
H363 H 0.21934 0.91497 0.39319 0.0
H364 H 0.26566 0.8278 0.58767 0.0
H365 H 0.21379 0.82231 0.58278 0.0
H366 H 0.31551 0.81405 0.54916 0.0
H367 H 0.34331 0.83644 0.50749 0.0
C368 C 0.35776 0.72972 0.90399 0.0
C369 C 0.34429 0.76369 0.92731 0.0
C370 C 0.32206 0.72033 0.98754 0.0
C371 C 0.33191 0.68625 0.96208 0.0
N372 N 0.34909 0.65885 0.89138 0.0
N373 N 0.30696 0.79125 0.98766 0.0
C374 C 0.34697 0.69101 0.91896 0.0
C375 C 0.3246 0.75906 0.96819 0.0
N376 N 0.38191 0.73434 0.86821 0.0
N377 N 0.31163 0.7159 0.03051 0.0
H378 H 0.30801 0.82004 0.9744 0.0
H379 H 0.28836 0.78879 0.01489 0.0
H380 H 0.30997 0.68811 0.04603 0.0
H381 H 0.30806 0.73997 0.05177 0.0
H382 H 0.39577 0.71041 0.85266 0.0
H383 H 0.39145 0.76228 0.85677 0.0
H384 H 0.35604 0.66155 0.85828 0.0
H385 H 0.33951 0.63012 0.90007 0.0
C386 C 0.7771 0.4526 0.06089 0.0
C387 C 0.74322 0.42694 0.06277 0.0
C388 C 0.77398 0.38767 0.12124 0.0
C389 C 0.80882 0.41237 0.11824 0.0
N390 N 0.83917 0.47449 0.09535 0.0
N391 N 0.70389 0.37842 0.10301 0.0
C392 C 0.80869 0.44714 0.0915 0.0
C393 C 0.73968 0.39766 0.09617 0.0
N394 N 0.7796 0.48104 0.02883 0.0
N395 N 0.77462 0.3526 0.14443 0.0
H396 H 0.67839 0.38368 0.08421 0.0
H397 H 0.69842 0.36 0.1299 0.0
H398 H 0.79857 0.34345 0.16366 0.0
H399 H 0.75218 0.33083 0.14227 0.0
H400 H 0.80541 0.49773 0.02239 0.0
H401 H 0.756 0.48671 0.00729 0.0
H402 H 0.83969 0.50193 0.07914 0.0
H403 H 0.86224 0.4711 0.11814 0.0
C404 C 0.16337 0.70834 0.99943 0.0
C405 C 0.13979 0.7073 0.96062 0.0
C406 C 0.13704 0.78032 0.96041 0.0
C407 C 0.15509 0.78119 1.00245 0.0
N408 N 0.1828 0.74595 0.06419 0.0
N409 N 0.09686 0.74215 0.9096 0.0
C410 C 0.16776 0.74517 0.02262 0.0
C411 C 0.1246 0.74325 0.94258 0.0
N412 N 0.18276 0.67468 0.01315 0.0
N413 N 0.13311 0.81482 0.93664 0.0
H414 H 0.0853 0.71557 0.89665 0.0
H415 H 0.08207 0.76757 0.89841 0.0
H416 H 0.14362 0.8426 0.9475 0.0
H417 H 0.12372 0.81508 0.90411 0.0
H418 H 0.20362 0.67467 0.03853 0.0
H419 H 0.18073 0.64742 0.99664 0.0
H420 H 0.18867 0.7202 0.08229 0.0
H421 H 0.18666 0.77245 0.08181 0.0
C422 C 0.66355 0.01744 0.11284 0.0
C423 C 0.65859 0.05086 0.14065 0.0
C424 C 0.73082 0.06083 0.14395 0.0
C425 C 0.73409 0.03591 0.10658 0.0
N426 N 0.70704 0.98368 0.0611 0.0
N427 N 0.68752 0.08574 0.20172 0.0
C428 C 0.70168 0.01103 0.09369 0.0
C429 C 0.69243 0.06634 0.16289 0.0
N430 N 0.63153 0.99292 0.10465 0.0
N431 N 0.76358 0.08153 0.15874 0.0
H432 H 0.65954 0.08711 0.21687 0.0
H433 H 0.7112 0.09611 0.22092 0.0
H434 H 0.79221 0.07691 0.14611 0.0
H435 H 0.76226 0.10382 0.18246 0.0
H436 H 0.633 0.96693 0.08599 0.0
H437 H 0.60408 -0.00271 0.12027 0.0
H438 H 0.68386 0.96726 0.0468 0.0
H439 H 0.73533 0.97808 0.04798 0.0
C440 C 0.46396 0.74547 0.37599 0.0
C441 C 0.48051 0.74628 0.41887 0.0
C442 C 0.5025 0.81516 0.40743 0.0
C443 C 0.47397 0.8175 0.37347 0.0
N444 N 0.44989 0.78365 0.30965 0.0
N445 N 0.52566 0.77696 0.47025 0.0
C446 C 0.46263 0.78189 0.35197 0.0
C447 C 0.50445 0.77927 0.43217 0.0
N448 N 0.44656 0.71127 0.36026 0.0
N449 N 0.52499 0.8482 0.41716 0.0
H450 H 0.52745 0.75017 0.48782 0.0
H451 H 0.54087 0.80107 0.48429 0.0
H452 H 0.52211 0.87451 0.39889 0.0
H453 H 0.54773 0.8486 0.44049 0.0
H454 H 0.4297 0.71007 0.33162 0.0
H455 H 0.44906 0.68381 0.37621 0.0
H456 H 0.44265 0.75856 0.29097 0.0
H457 H 0.45048 0.81063 0.29231 0.0
C458 C 0.7394 0.42453 0.50828 0.0
C459 C 0.76764 0.39424 0.51748 0.0
C460 C 0.72054 0.34241 0.4929 0.0
C461 C 0.69166 0.37261 0.48489 0.0
N462 N 0.67666 0.44223 0.47316 0.0
N463 N 0.79026 0.32667 0.50715 0.0
C464 C 0.70222 0.41372 0.48868 0.0
C465 C 0.75991 0.35391 0.50571 0.0
N466 N 0.74751 0.46326 0.51997 0.0
N467 N 0.70972 0.30283 0.49157 0.0
H468 H 0.81934 0.33433 0.51678 0.0
H469 H 0.78764 0.29766 0.49492 0.0
H470 H 0.68124 0.29284 0.48256 0.0
H471 H 0.72815 0.27982 0.50238 0.0
H472 H 0.72639 0.48602 0.51904 0.0
H473 H 0.77516 0.47228 0.53275 0.0
H474 H 0.6838 0.47261 0.47161 0.0
H475 H 0.64953 0.43495 0.45797 0.0
C476 C 0.01226 0.70063 0.40367 0.0
C477 C 0.04022 0.70714 0.36961 0.0
C478 C 0.04481 0.77757 0.39049 0.0
C479 C 0.03036 0.76629 0.43247 0.0
N480 N 0.98906 0.72208 0.4752 0.0
N481 N 0.06997 0.75485 0.3201 0.0
C482 C 0.00936 0.72963 0.43733 0.0
C483 C 0.05165 0.74692 0.35904 0.0
N484 N 0.99075 0.66573 0.40444 0.0
N485 N 0.05167 0.81698 0.38098 0.0
H486 H 0.06991 0.73417 0.29457 0.0
H487 H 0.0841 0.78189 0.31262 0.0
H488 H 0.04332 0.83992 0.40205 0.0
H489 H 0.06112 0.82735 0.35058 0.0
H490 H 0.96862 0.65921 0.42739 0.0
H491 H 0.99333 0.64475 0.37927 0.0
H492 H 0.97633 0.69443 0.48305 0.0
H493 H 0.98559 0.74414 0.49908 0.0
C494 C 0.77055 0.08798 0.61759 0.0
C495 C 0.73504 0.08586 0.59253 0.0
C496 C 0.77377 0.10298 0.52688 0.0
C497 C 0.80705 0.11307 0.55383 0.0
N498 N 0.83292 0.12336 0.62731 0.0
N499 N 0.70169 0.09472 0.52293 0.0
C500 C 0.80459 0.10737 0.59988 0.0
C501 C 0.73627 0.09373 0.54685 0.0
N502 N 0.77135 0.07216 0.6588 0.0
N503 N 0.77807 0.10141 0.4825 0.0
H504 H 0.67366 0.08778 0.53596 0.0
H505 H 0.70056 0.10507 0.49079 0.0
H506 H 0.80533 0.10699 0.4669 0.0
H507 H 0.7557 0.09068 0.46167 0.0
H508 H 0.79755 0.07012 0.67727 0.0
H509 H 0.74666 0.05724 0.6723 0.0
H510 H 0.83011 0.12284 0.66126 0.0
H511 H 0.85649 0.14154 0.61665 0.0
C512 C 0.42715 0.00096 0.97383 0.0
C513 C 0.44403 0.96264 0.96615 0.0
C514 C 0.5042 0.98219 0.00707 0.0
C515 C 0.4888 0.02157 0.01144 0.0
N516 N 0.43884 0.07055 0.9928 0.0
N517 N 0.50014 0.91786 0.97032 0.0
C518 C 0.45101 0.03152 0.99339 0.0
C519 C 0.48314 0.95365 0.98104 0.0
N520 N 0.38819 0.00815 0.96254 0.0
N521 N 0.53792 0.9715 0.02961 0.0
H522 H 0.48493 0.8956 0.95287 0.0
H523 H 0.53016 0.9113 0.97594 0.0
H524 H 0.55351 0.99116 0.05008 0.0
H525 H 0.54839 0.94226 0.03142 0.0
H526 H 0.37265 0.03351 0.97236 0.0
H527 H 0.37041 0.98756 0.94561 0.0
H528 H 0.41378 0.0804 0.97568 0.0
H529 H 0.45565 0.09394 0.00627 0.0
C530 C 0.4937 0.53558 0.99657 0.0
C531 C 0.45833 0.51174 0.99708 0.0
C532 C 0.49835 0.45055 0.99822 0.0
C533 C 0.53366 0.47438 0.99444 0.0
N534 N 0.56575 0.53887 0.98599 0.0
N535 N 0.42586 0.44708 0.99286 0.0
C536 C 0.53157 0.51674 0.99231 0.0
C537 C 0.4603 0.46933 0.99682 0.0
N538 N 0.49099 0.57618 1.00172 0.0
N539 N 0.50121 0.4099 1.00297 0.0
H540 H 0.39737 0.45966 0.9923 0.0
H541 H 0.42537 0.41636 0.9871 0.0
H542 H 0.52817 0.39449 1.00053 0.0
H543 H 0.47719 0.39145 0.01158 0.0
H544 H 0.51561 0.59509 0.00603 0.0
H545 H 0.46369 0.59083 0.00534 0.0
H546 H 0.5659 0.56941 0.97915 0.0
H547 H 0.59422 0.52625 0.98487 0.0
C548 C 0.06061 0.47319 0.01789 0.0
C549 C 0.04476 0.51257 0.01502 0.0
C550 C 0.99018 0.49372 0.06498 0.0
C551 C 0.0037 0.45354 0.06401 0.0
N552 N 0.05038 0.40382 0.03961 0.0
N553 N -0.00493 0.56113 0.03509 0.0
C554 C 0.03882 0.44305 0.04087 0.0
C555 C 0.00976 0.52312 0.03856 0.0
N556 N 0.09639 0.46451 0.99837 0.0
N557 N 0.95865 0.50358 0.09133 0.0
H558 H 0.00998 0.58399 0.01828 0.0
H559 H 0.96741 0.56997 0.04722 0.0
H560 H 0.94333 0.48258 0.11042 0.0
H561 H 0.94914 0.53273 0.09681 0.0
H562 H 0.1121 0.43816 1.00372 0.0
H563 H 0.11186 0.48451 0.97828 0.0
H564 H 0.07247 0.39286 0.01894 0.0
H565 H 0.03649 0.38144 0.05815 0.0
C566 C 0.01509 0.98485 0.02115 0.0
C567 C 0.01987 0.94748 0.0425 0.0
C568 C 0.94884 0.94657 0.06283 0.0
C569 C 0.94351 0.98275 0.03913 0.0
N570 N 0.97 0.03496 0.99234 0.0
N571 N 0.9919 0.89019 0.07967 0.0
C572 C 0.97617 0.00138 0.0171 0.0
C573 C 0.98691 0.92762 0.06238 0.0
N574 N 0.04813 0.00512 0.00606 0.0
N575 N 0.91754 0.93062 0.08605 0.0
H576 H 0.0197 0.87614 0.08109 0.0
H577 H 0.96839 0.87202 0.09038 0.0
H578 H 0.88865 0.94229 0.08484 0.0
H579 H 0.9204 0.90705 0.1081 0.0
H580 H 0.04757 0.03444 0.99454 0.0
H581 H 0.07712 0.99378 0.00814 0.0
H582 H 0.99126 0.04705 0.97113 0.0
H583 H 0.94267 0.04977 0.99069 0.0
C584 C 0.45379 0.51235 0.52367 0.0
C585 C 0.47896 0.54628 0.51767 0.0
C586 C 0.53828 0.50364 0.51683 0.0
C587 C 0.5127 0.46944 0.51789 0.0
N588 N 0.4466 0.43995 0.52081 0.0
N589 N 0.54431 0.57562 0.50676 0.0
C590 C 0.47054 0.47341 0.5211 0.0
C591 C 0.52107 0.54238 0.51428 0.0
N592 N 0.41399 0.51763 0.53244 0.0
N593 N 0.57898 0.49899 0.51812 0.0
H594 H 0.5328 0.60459 0.50663 0.0
H595 H 0.57454 0.57464 0.49857 0.0
H596 H 0.59282 0.4711 0.51755 0.0
H597 H 0.59922 0.52256 0.52231 0.0
H598 H 0.39444 0.49454 0.5411 0.0
H599 H 0.40101 0.5459 0.53451 0.0
H600 H 0.41553 0.44066 0.51819 0.0
H601 H 0.45799 0.41094 0.52083 0.0
C602 C 0.99147 0.5244 0.42698 0.0
C603 C 0.03167 0.52068 0.44178 0.0
C604 C 0.00916 0.47985 0.50385 0.0
C605 C 0.96923 0.4823 0.48808 0.0
N606 N 0.92285 0.50011 0.43092 0.0
N607 N 0.08004 0.48904 0.48861 0.0
C608 C 0.96057 0.50232 0.44833 0.0
C609 C 0.04087 0.49664 0.47863 0.0
N610 N 0.98239 0.55086 0.39431 0.0
N611 N 0.01666 0.46191 0.54325 0.0
H612 H 0.10385 0.50045 0.4702 0.0
H613 H 0.089 0.46868 0.51243 0.0
H614 H -0.00559 0.448 0.56193 0.0
H615 H 0.04434 0.46301 0.55893 0.0
H616 H 0.95321 0.5586 0.38591 0.0
H617 H 0.00396 0.56756 0.37752 0.0
H618 H 0.9158 0.51008 0.39957 0.0
H619 H 0.89905 0.48565 0.44661 0.0
C620 C 0.05544 0.9934 0.53863 0.0
C621 C 0.03105 0.95842 0.54053 0.0
C622 C 0.97083 -0.0005 0.54559 0.0
C623 C -0.00503 0.03432 0.53944 0.0
N624 N 0.05937 0.06519 0.52649 0.0
N625 N 0.96564 0.92717 0.54062 0.0
C626 C 0.03707 0.0315 0.53485 0.0
C627 C 0.98876 0.96114 0.54312 0.0
N628 N 0.09617 0.99007 0.54194 0.0
N629 N 0.93067 0.00309 0.5536 0.0
H630 H 0.97759 0.89844 0.5392 0.0
H631 H 0.93464 0.92736 0.53682 0.0
H632 H 0.9156 0.0303 0.55234 0.0
H633 H 0.91255 0.97941 0.56398 0.0
H634 H 0.11559 0.01446 0.54505 0.0
H635 H 0.11049 0.96259 0.54551 0.0
H636 H 0.08954 0.06468 0.51791 0.0
H637 H 0.04708 0.0938 0.52536 0.0
C638 C 0.49323 0.00916 0.58372 0.0
C639 C 0.53115 0.99102 0.58975 0.0
C640 C 0.51156 0.93553 0.54196 0.0
C641 C 0.4737 0.95397 0.53528 0.0
N642 N 0.42465 0.00216 0.55809 0.0
N643 N 0.57324 0.93333 0.58434 0.0
C644 C 0.46332 0.98893 0.5588 0.0
C645 C 0.53912 0.9528 0.5722 0.0
N646 N 0.48647 0.04651 0.60036 0.0
N647 N 0.52226 0.90314 0.51737 0.0
H648 H 0.59385 0.94573 0.60631 0.0
H649 H 0.57929 0.90375 0.57606 0.0
H650 H 0.50339 0.88982 0.49435 0.0
H651 H 0.55096 0.89117 0.51722 0.0
H652 H 0.46155 0.06364 0.59246 0.0
H653 H 0.50694 0.06129 0.62067 0.0
H654 H 0.4142 0.02519 0.57785 0.0
H655 H 0.40198 0.98767 0.54051 0.0
C656 C 0.57052 0.28274 0.28777 0.0
C657 C 0.56116 0.26373 0.32806 0.0
C658 C 0.55107 0.19962 0.29008 0.0
C659 C 0.55997 0.2187 0.24969 0.0
N660 N 0.56779 0.2798 0.20848 0.0
N661 N 0.53208 0.20739 0.36614 0.0
C662 C 0.56636 0.26078 0.24808 0.0
C663 C 0.54805 0.22318 0.32868 0.0
N664 N 0.58554 0.32095 0.2875 0.0
N665 N 0.54786 0.15882 0.29217 0.0
H666 H 0.52884 0.22408 0.39474 0.0
H667 H 0.51841 0.17927 0.36763 0.0
H668 H 0.5499 0.14036 0.26481 0.0
H669 H 0.54626 0.14297 0.32148 0.0
H670 H 0.5974 0.33465 0.25972 0.0
H671 H 0.58888 0.33812 0.31575 0.0
H672 H 0.56849 0.31083 0.20507 0.0
H673 H 0.56425 0.26461 0.17888 0.0
C674 C 0.16462 0.58327 0.17571 0.0
C675 C 0.18443 0.6047 0.20962 0.0
C676 C 0.24401 0.61203 0.16331 0.0
C677 C 0.2256 0.58771 0.13084 0.0
N678 N 0.17157 0.54307 0.11015 0.0
N679 N 0.24676 0.62967 0.23986 0.0
C680 C 0.18679 0.57118 0.13823 0.0
C681 C 0.22528 0.6161 0.20468 0.0
N682 N 0.12432 0.57605 0.1782 0.0
N683 N 0.27817 0.63329 0.15407 0.0
H684 H 0.23469 0.63193 0.27118 0.0
H685 H 0.27765 0.63446 0.23895 0.0
H686 H 0.2922 0.63281 0.12365 0.0
H687 H 0.29019 0.65475 0.17517 0.0
H688 H 0.10756 0.56444 0.15231 0.0
H689 H 0.10689 0.58499 0.20466 0.0
H690 H 0.14514 0.52718 0.11611 0.0
H691 H 0.18735 0.53269 0.08307 0.0
C692 C 0.89272 0.24628 0.29706 0.0
C693 C 0.89844 0.28853 0.29755 0.0
C694 C 0.90844 0.28616 0.37706 0.0
C695 C 0.89761 0.24487 0.3771 0.0
N696 N 0.87378 0.18677 0.33775 0.0
N697 N 0.90661 0.3497 0.33857 0.0
C698 C 0.88843 0.22513 0.33723 0.0
C699 C 0.90514 0.30878 0.33769 0.0
N700 N 0.89272 0.22609 0.25816 0.0
N701 N 0.92323 0.30348 0.41431 0.0
H702 H 0.90422 0.3673 0.31051 0.0
H703 H 0.90681 0.3663 0.36741 0.0
H704 H 0.92696 0.28777 0.44353 0.0
H705 H 0.93544 0.33228 0.4152 0.0
H706 H 0.89299 0.19496 0.25593 0.0
H707 H 0.89641 0.24033 0.22806 0.0
H708 H 0.86224 0.17248 0.31015 0.0
H709 H 0.86979 0.17033 0.36645 0.0
C710 C 0.31961 0.92002 0.2077 0.0
C711 C 0.30359 0.90091 0.24537 0.0
C712 C 0.24358 0.88138 0.20372 0.0
C713 C 0.25851 0.9024 0.16667 0.0
N714 N 0.30587 0.95024 0.13716 0.0
N715 N 0.2457 0.87359 0.28243 0.0
C716 C 0.29508 0.92435 0.16982 0.0
C717 C 0.26409 0.88478 0.24435 0.0
N718 N 0.35879 0.93224 0.20712 0.0
N719 N 0.21126 0.85622 0.19977 0.0
H720 H 0.25928 0.87674 0.31301 0.0
H721 H 0.21556 0.86534 0.28413 0.0
H722 H 0.19599 0.85158 0.17044 0.0
H723 H 0.20201 0.8369 0.22464 0.0
H724 H 0.37325 0.94219 0.1789 0.0
H725 H 0.37793 0.92926 0.23387 0.0
H726 H 0.33017 0.9699 0.13956 0.0
H727 H 0.28813 0.95508 0.10956 0.0
C728 C 0.38909 0.8322 0.68067 0.0
C729 C 0.37199 0.8107 0.71618 0.0
C730 C 0.36935 0.74973 0.6715 0.0
C731 C 0.38897 0.77039 0.6369 0.0
N732 N 0.4254 0.82888 0.61209 0.0
N733 N 0.35607 0.74679 0.74919 0.0
C734 C 0.40121 0.81097 0.64254 0.0
C735 C 0.36528 0.76877 0.71274 0.0
N736 N 0.39216 0.873 0.68248 0.0
N737 N 0.35237 0.71288 0.66448 0.0
H738 H 0.35376 0.75937 0.78028 0.0
H739 H 0.35497 0.71558 0.74935 0.0
H740 H 0.35314 0.69821 0.63443 0.0
H741 H 0.33395 0.69862 0.68727 0.0
H742 H 0.40019 0.89065 0.65572 0.0
H743 H 0.38348 0.88958 0.7097 0.0
H744 H 0.43841 0.85707 0.61639 0.0
H745 H 0.43575 0.81398 0.5844 0.0
C746 C 0.80149 0.42754 0.78666 0.0
C747 C 0.78047 0.4216 0.74678 0.0
C748 C 0.71768 0.41107 0.78716 0.0
C749 C 0.73867 0.4172 0.82704 0.0
N750 N 0.79761 0.44142 0.86445 0.0
N751 N 0.71763 0.41807 0.7081 0.0
C752 C 0.7797 0.42873 0.82662 0.0
C753 C 0.73818 0.41673 0.74679 0.0
N754 N 0.84242 0.42969 0.78672 0.0
N755 N 0.67889 0.39759 0.78776 0.0
H756 H 0.73182 0.42262 0.67808 0.0
H757 H 0.68648 0.4186 0.70609 0.0
H758 H 0.66271 0.39328 0.81655 0.0
H759 H 0.66358 0.38795 0.75995 0.0
H760 H 0.85964 0.42906 0.81514 0.0
H761 H 0.85952 0.42925 0.75822 0.0
H762 H 0.82627 0.45392 0.86563 0.0
H763 H 0.78229 0.44306 0.89413 0.0
C764 C 0.11554 0.74622 0.69867 0.0
C765 C 0.09643 0.72848 0.66186 0.0
C766 C 0.08483 0.66674 0.70401 0.0
C767 C 0.10235 0.68518 0.74128 0.0
N768 N 0.12419 0.74576 0.77738 0.0
N769 N 0.0541 0.67598 0.63281 0.0
C770 C 0.11448 0.72601 0.73961 0.0
C771 C 0.07833 0.68997 0.66558 0.0
N772 N 0.1368 0.78116 0.69417 0.0
N773 N 0.07631 0.62663 0.70436 0.0
H774 H 0.04795 0.69256 0.60467 0.0
H775 H 0.03696 0.64989 0.63545 0.0
H776 H 0.08079 0.60848 0.73167 0.0
H777 H 0.06787 0.61069 0.67651 0.0
H778 H 0.15505 0.79289 0.71877 0.0
H779 H 0.13931 0.79664 0.66468 0.0
H780 H 0.12942 0.77654 0.77873 0.0
H781 H 0.12286 0.73217 0.80811 0.0
C782 C 0.73523 0.11308 0.80492 0.0
C783 C 0.69262 0.11317 0.80441 0.0
C784 C 0.69207 0.09963 0.88335 0.0
C785 C 0.73449 0.10422 0.88454 0.0
N786 N 0.7957 0.12289 0.8475 0.0
N787 N 0.63022 0.1123 0.84399 0.0
C788 C 0.75591 0.11291 0.84559 0.0
C789 C 0.67091 0.10791 0.84387 0.0
N790 N 0.75608 0.11158 0.76648 0.0
N791 N 0.67211 0.08585 0.91946 0.0
H792 H 0.61378 0.11848 0.81577 0.0
H793 H 0.61321 0.11325 0.8725 0.0
H794 H 0.68655 0.07849 0.94862 0.0
H795 H 0.64183 0.07804 0.91926 0.0
H796 H 0.7869 0.10703 0.765 0.0
H797 H 0.74224 0.11082 0.7359 0.0
H798 H 0.81169 0.13385 0.82074 0.0
H799 H 0.81191 0.12403 0.87666 0.0
loop_
_geom_bond_atom_site_label_1
_geom_bond_atom_site_label_2
_geom_bond_distance
_geom_bond_site_symmetry_2
_ccdc_geom_bond_type
O0 Cd1 2.223 1_556 S
O0 C8 1.315 1_556 S
Cd1 O0 2.223 1_554 S
Cd1 O4 2.297 1_554 S
Cd1 O5 2.439 . S
Cd1 O11 2.240 . S
Cd2 O3 2.240 . S
Cd2 O10 2.223 . S
Cd2 O12 2.297 . S
Cd2 O13 2.439 . S
O3 Cd2 2.240 . S
O3 C8 1.279 . S
O4 Cd1 2.297 1_556 S
O4 C6 1.247 1_556 S
O5 Cd1 2.439 . S
O5 C6 1.208 . S
C6 O4 1.247 1_554 S
C6 O5 1.208 . S
C7 O12 1.247 . S
C7 O13 1.208 . S
C8 O0 1.315 1_554 S
C8 O3 1.279 . S
C9 O10 1.315 . S
C9 O11 1.279 . S
O10 Cd2 2.223 . S
O10 C9 1.315 . S
O11 Cd1 2.240 . S
O11 C9 1.279 . S
O12 Cd2 2.297 . S
O12 C7 1.247 . S
O13 Cd2 2.439 . S
O13 C7 1.208 . S
O14 Cd15 2.223 1_556 S
O14 C22 1.315 1_556 S
Cd15 O14 2.223 1_554 S
Cd15 O18 2.297 1_554 S
Cd15 O19 2.439 . S
Cd15 O25 2.240 . S
Cd16 O17 2.240 . S
Cd16 O24 2.223 . S
Cd16 O26 2.297 . S
Cd16 O27 2.439 . S
O17 Cd16 2.240 . S
O17 C22 1.279 . S
O18 Cd15 2.297 1_556 S
O18 C20 1.247 1_556 S
O19 Cd15 2.439 . S
O19 C20 1.208 . S
C20 O18 1.247 1_554 S
C20 O19 1.208 . S
C21 O26 1.247 . S
C21 O27 1.208 . S
C22 O14 1.315 1_554 S
C22 O17 1.279 . S
C23 O24 1.315 . S
C23 O25 1.279 . S
O24 Cd16 2.223 . S
O24 C23 1.315 . S
O25 Cd15 2.240 . S
O25 C23 1.279 . S
O26 Cd16 2.297 . S
O26 C21 1.247 . S
O27 Cd16 2.439 . S
O27 C21 1.208 . S
O28 Cd29 2.223 1_556 S
O28 C36 1.315 1_556 S
Cd29 O28 2.223 1_554 S
Cd29 O32 2.297 1_554 S
Cd29 O33 2.439 . S
Cd29 O39 2.240 . S
Cd30 O31 2.240 . S
Cd30 O38 2.223 . S
Cd30 O40 2.297 . S
Cd30 O41 2.439 . S
O31 Cd30 2.240 . S
O31 C36 1.279 . S
O32 Cd29 2.297 1_556 S
O32 C34 1.247 1_556 S
O33 Cd29 2.439 . S
O33 C34 1.208 . S
C34 O32 1.247 1_554 S
C34 O33 1.208 . S
C35 O40 1.247 . S
C35 O41 1.208 . S
C36 O28 1.315 1_554 S
C36 O31 1.279 . S
C37 O38 1.315 . S
C37 O39 1.279 . S
O38 Cd30 2.223 . S
O38 C37 1.315 . S
O39 Cd29 2.240 . S
O39 C37 1.279 . S
O40 Cd30 2.297 . S
O40 C35 1.247 . S
O41 Cd30 2.439 . S
O41 C35 1.208 . S
O42 Cd43 2.223 1_556 S
O42 C50 1.315 1_556 S
Cd43 O42 2.223 1_554 S
Cd43 O46 2.297 1_554 S
Cd43 O47 2.439 . S
Cd43 O53 2.240 . S
Cd44 O45 2.240 . S
Cd44 O52 2.223 . S
Cd44 O54 2.297 . S
Cd44 O55 2.439 . S
O45 Cd44 2.240 . S
O45 C50 1.279 . S
O46 Cd43 2.297 1_556 S
O46 C48 1.247 1_556 S
O47 Cd43 2.439 . S
O47 C48 1.208 . S
C48 O46 1.247 1_554 S
C48 O47 1.208 . S
C49 O54 1.247 . S
C49 O55 1.208 . S
C50 O42 1.315 1_554 S
C50 O45 1.279 . S
C51 O52 1.315 . S
C51 O53 1.279 . S
O52 Cd44 2.223 . S
O52 C51 1.315 . S
O53 Cd43 2.240 . S
O53 C51 1.279 . S
O54 Cd44 2.297 . S
O54 C49 1.247 . S
O55 Cd44 2.439 . S
O55 C49 1.208 . S
O56 Cd57 2.223 . S
O56 C64 1.315 . S
Cd57 O56 2.223 . S
Cd57 O60 2.297 . S
Cd57 O61 2.439 . S
Cd57 O67 2.240 . S
Cd58 O59 2.240 . S
Cd58 O66 2.223 . S
Cd58 O68 2.297 . S
Cd58 O69 2.439 . S
O59 Cd58 2.240 . S
O59 C64 1.279 . S
O60 Cd57 2.297 . S
O60 C62 1.247 . S
O61 Cd57 2.439 . S
O61 C62 1.208 . S
C62 O60 1.247 . S
C62 O61 1.208 . S
C63 O68 1.247 . S
C63 O69 1.208 . S
C64 O56 1.315 . S
C64 O59 1.279 . S
C65 O66 1.315 . S
C65 O67 1.279 . S
O66 Cd58 2.223 . S
O66 C65 1.315 . S
O67 Cd57 2.240 . S
O67 C65 1.279 . S
O68 Cd58 2.297 . S
O68 C63 1.247 . S
O69 Cd58 2.439 . S
O69 C63 1.208 . S
O70 Cd71 2.223 . S
O70 C78 1.315 . S
Cd71 O70 2.223 . S
Cd71 O74 2.297 . S
Cd71 O75 2.439 . S
Cd71 O81 2.240 . S
Cd72 O73 2.240 . S
Cd72 O80 2.223 . S
Cd72 O82 2.297 . S
Cd72 O83 2.439 . S
O73 Cd72 2.240 . S
O73 C78 1.279 . S
O74 Cd71 2.297 . S
O74 C76 1.247 . S
O75 Cd71 2.439 . S
O75 C76 1.208 . S
C76 O74 1.247 . S
C76 O75 1.208 . S
C77 O82 1.247 . S
C77 O83 1.208 . S
C78 O70 1.315 . S
C78 O73 1.279 . S
C79 O80 1.315 . S
C79 O81 1.279 . S
O80 Cd72 2.223 . S
O80 C79 1.315 . S
O81 Cd71 2.240 . S
O81 C79 1.279 . S
O82 Cd72 2.297 . S
O82 C77 1.247 . S
O83 Cd72 2.439 . S
O83 C77 1.208 . S
O84 Cd85 2.223 . S
O84 C92 1.315 . S
Cd85 O84 2.223 . S
Cd85 O88 2.297 . S
Cd85 O89 2.439 . S
Cd85 O95 2.240 . S
Cd86 O87 2.240 . S
Cd86 O94 2.223 . S
Cd86 O96 2.297 . S
Cd86 O97 2.439 . S
O87 Cd86 2.240 . S
O87 C92 1.279 . S
O88 Cd85 2.297 . S
O88 C90 1.247 . S
O89 Cd85 2.439 . S
O89 C90 1.208 . S
C90 O88 1.247 . S
C90 O89 1.208 . S
C91 O96 1.247 . S
C91 O97 1.208 . S
C92 O84 1.315 . S
C92 O87 1.279 . S
C93 O94 1.315 . S
C93 O95 1.279 . S
O94 Cd86 2.223 . S
O94 C93 1.315 . S
O95 Cd85 2.240 . S
O95 C93 1.279 . S
O96 Cd86 2.297 . S
O96 C91 1.247 . S
O97 Cd86 2.439 . S
O97 C91 1.208 . S
O98 Cd99 2.223 . S
O98 C106 1.315 . S
Cd99 O98 2.223 . S
Cd99 O102 2.297 . S
Cd99 O103 2.439 . S
Cd99 O109 2.240 . S
Cd100 O101 2.240 . S
Cd100 O108 2.223 . S
Cd100 O110 2.297 . S
Cd100 O111 2.439 . S
O101 Cd100 2.240 . S
O101 C106 1.279 . S
O102 Cd99 2.297 . S
O102 C104 1.247 . S
O103 Cd99 2.439 . S
O103 C104 1.208 . S
C104 O102 1.247 . S
C104 O103 1.208 . S
C105 O110 1.247 . S
C105 O111 1.208 . S
C106 O98 1.315 . S
C106 O101 1.279 . S
C107 O108 1.315 . S
C107 O109 1.279 . S
O108 Cd100 2.223 . S
O108 C107 1.315 . S
O109 Cd99 2.240 . S
O109 C107 1.279 . S
O110 Cd100 2.297 . S
O110 C105 1.247 . S
O111 Cd100 2.439 . S
O111 C105 1.208 . S
O112 Cd113 2.223 1_554 S
O112 C120 1.315 1_554 S
Cd113 O112 2.223 1_556 S
Cd113 O116 2.297 1_556 S
Cd113 O117 2.439 . S
Cd113 O123 2.240 . S
Cd114 O115 2.240 . S
Cd114 O122 2.223 . S
Cd114 O124 2.297 . S
Cd114 O125 2.439 . S
O115 Cd114 2.240 . S
O115 C120 1.279 . S
O116 Cd113 2.297 1_554 S
O116 C118 1.247 1_554 S
O117 Cd113 2.439 . S
O117 C118 1.208 . S
C118 O116 1.247 1_556 S
C118 O117 1.208 . S
C119 O124 1.247 . S
C119 O125 1.208 . S
C120 O112 1.315 1_556 S
C120 O115 1.279 . S
C121 O122 1.315 . S
C121 O123 1.279 . S
O122 Cd114 2.223 . S
O122 C121 1.315 . S
O123 Cd113 2.240 . S
O123 C121 1.279 . S
O124 Cd114 2.297 . S
O124 C119 1.247 . S
O125 Cd114 2.439 . S
O125 C119 1.208 . S
O126 Cd127 2.223 1_554 S
O126 C134 1.315 1_554 S
Cd127 O126 2.223 1_556 S
Cd127 O130 2.297 1_556 S
Cd127 O131 2.439 . S
Cd127 O137 2.240 . S
Cd128 O129 2.240 . S
Cd128 O136 2.223 . S
Cd128 O138 2.297 . S
Cd128 O139 2.439 . S
O129 Cd128 2.240 . S
O129 C134 1.279 . S
O130 Cd127 2.297 1_554 S
O130 C132 1.247 1_554 S
O131 Cd127 2.439 . S
O131 C132 1.208 . S
C132 O130 1.247 1_556 S
C132 O131 1.208 . S
C133 O138 1.247 . S
C133 O139 1.208 . S
C134 O126 1.315 1_556 S
C134 O129 1.279 . S
C135 O136 1.315 . S
C135 O137 1.279 . S
O136 Cd128 2.223 . S
O136 C135 1.315 . S
O137 Cd127 2.240 . S
O137 C135 1.279 . S
O138 Cd128 2.297 . S
O138 C133 1.247 . S
O139 Cd128 2.439 . S
O139 C133 1.208 . S
O140 Cd141 2.223 1_554 S
O140 C148 1.315 1_554 S
Cd141 O140 2.223 1_556 S
Cd141 O144 2.297 1_556 S
Cd141 O145 2.439 . S
Cd141 O151 2.240 . S
Cd142 O143 2.240 . S
Cd142 O150 2.223 . S
Cd142 O152 2.297 . S
Cd142 O153 2.439 . S
O143 Cd142 2.240 . S
O143 C148 1.279 . S
O144 Cd141 2.297 1_554 S
O144 C146 1.247 1_554 S
O145 Cd141 2.439 . S
O145 C146 1.208 . S
C146 O144 1.247 1_556 S
C146 O145 1.208 . S
C147 O152 1.247 . S
C147 O153 1.208 . S
C148 O140 1.315 1_556 S
C148 O143 1.279 . S
C149 O150 1.315 . S
C149 O151 1.279 . S
O150 Cd142 2.223 . S
O150 C149 1.315 . S
O151 Cd141 2.240 . S
O151 C149 1.279 . S
O152 Cd142 2.297 . S
O152 C147 1.247 . S
O153 Cd142 2.439 . S
O153 C147 1.208 . S
O154 Cd155 2.223 1_554 S
O154 C162 1.315 1_554 S
Cd155 O154 2.223 1_556 S
Cd155 O158 2.297 1_556 S
Cd155 O159 2.439 . S
Cd155 O165 2.240 . S
Cd156 O157 2.240 . S
Cd156 O164 2.223 . S
Cd156 O166 2.297 . S
Cd156 O167 2.439 . S
O157 Cd156 2.240 . S
O157 C162 1.279 . S
O158 Cd155 2.297 1_554 S
O158 C160 1.247 1_554 S
O159 Cd155 2.439 . S
O159 C160 1.208 . S
C160 O158 1.247 1_556 S
C160 O159 1.208 . S
C161 O166 1.247 . S
C161 O167 1.208 . S
C162 O154 1.315 1_556 S
C162 O157 1.279 . S
C163 O164 1.315 . S
C163 O165 1.279 . S
O164 Cd156 2.223 . S
O164 C163 1.315 . S
O165 Cd155 2.240 . S
O165 C163 1.279 . S
O166 Cd156 2.297 . S
O166 C161 1.247 . S
O167 Cd156 2.439 . S
O167 C161 1.208 . S
O168 Cd169 2.223 . S
O168 C176 1.315 . S
Cd169 O168 2.223 . S
Cd169 O172 2.297 . S
Cd169 O173 2.439 . S
Cd169 O179 2.240 . S
Cd170 O171 2.240 . S
Cd170 O178 2.223 . S
Cd170 O180 2.297 . S
Cd170 O181 2.439 . S
O171 Cd170 2.240 . S
O171 C176 1.279 . S
O172 Cd169 2.297 . S
O172 C174 1.247 . S
O173 Cd169 2.439 . S
O173 C174 1.208 . S
C174 O172 1.247 . S
C174 O173 1.208 . S
C175 O180 1.247 . S
C175 O181 1.208 . S
C176 O168 1.315 . S
C176 O171 1.279 . S
C177 O178 1.315 . S
C177 O179 1.279 . S
O178 Cd170 2.223 . S
O178 C177 1.315 . S
O179 Cd169 2.240 . S
O179 C177 1.279 . S
O180 Cd170 2.297 . S
O180 C175 1.247 . S
O181 Cd170 2.439 . S
O181 C175 1.208 . S
O182 Cd183 2.223 . S
O182 C190 1.315 . S
Cd183 O182 2.223 . S
Cd183 O186 2.297 . S
Cd183 O187 2.439 . S
Cd183 O193 2.240 . S
Cd184 O185 2.240 . S
Cd184 O192 2.223 . S
Cd184 O194 2.297 . S
Cd184 O195 2.439 . S
O185 Cd184 2.240 . S
O185 C190 1.279 . S
O186 Cd183 2.297 . S
O186 C188 1.247 . S
O187 Cd183 2.439 . S
O187 C188 1.208 . S
C188 O186 1.247 . S
C188 O187 1.208 . S
C189 O194 1.247 . S
C189 O195 1.208 . S
C190 O182 1.315 . S
C190 O185 1.279 . S
C191 O192 1.315 . S
C191 O193 1.279 . S
O192 Cd184 2.223 . S
O192 C191 1.315 . S
O193 Cd183 2.240 . S
O193 C191 1.279 . S
O194 Cd184 2.297 . S
O194 C189 1.247 . S
O195 Cd184 2.439 . S
O195 C189 1.208 . S
O196 Cd197 2.223 . S
O196 C204 1.315 . S
Cd197 O196 2.223 . S
Cd197 O200 2.297 . S
Cd197 O201 2.439 . S
Cd197 O207 2.240 . S
Cd198 O199 2.240 . S
Cd198 O206 2.223 . S
Cd198 O208 2.297 . S
Cd198 O209 2.439 . S
O199 Cd198 2.240 . S
O199 C204 1.279 . S
O200 Cd197 2.297 . S
O200 C202 1.247 . S
O201 Cd197 2.439 . S
O201 C202 1.208 . S
C202 O200 1.247 . S
C202 O201 1.208 . S
C203 O208 1.247 . S
C203 O209 1.208 . S
C204 O196 1.315 . S
C204 O199 1.279 . S
C205 O206 1.315 . S
C205 O207 1.279 . S
O206 Cd198 2.223 . S
O206 C205 1.315 . S
O207 Cd197 2.240 . S
O207 C205 1.279 . S
O208 Cd198 2.297 . S
O208 C203 1.247 . S
O209 Cd198 2.439 . S
O209 C203 1.208 . S
O210 Cd211 2.223 . S
O210 C218 1.315 . S
Cd211 O210 2.223 . S
Cd211 O214 2.297 . S
Cd211 O215 2.439 . S
Cd211 O221 2.240 . S
Cd212 O213 2.240 . S
Cd212 O220 2.223 . S
Cd212 O222 2.297 . S
Cd212 O223 2.439 . S
O213 Cd212 2.240 . S
O213 C218 1.279 . S
O214 Cd211 2.297 . S
O214 C216 1.247 . S
O215 Cd211 2.439 . S
O215 C216 1.208 . S
C216 O214 1.247 . S
C216 O215 1.208 . S
C217 O222 1.247 . S
C217 O223 1.208 . S
C218 O210 1.315 . S
C218 O213 1.279 . S
C219 O220 1.315 . S
C219 O221 1.279 . S
O220 Cd212 2.223 . S
O220 C219 1.315 . S
O221 Cd211 2.240 . S
O221 C219 1.279 . S
O222 Cd212 2.297 . S
O222 C217 1.247 . S
O223 Cd212 2.439 . S
O223 C217 1.208 . S
C224 C225 1.363 1_556 S
C224 C230 1.379 . S
C224 N232 1.356 . S
C225 C224 1.363 1_554 S
C225 C231 1.363 . S
C226 C227 1.363 1_554 S
C226 C231 1.379 . S
C226 N233 1.356 . S
C227 C226 1.363 1_556 S
C227 C230 1.363 . S
N228 C230 1.356 . S
N228 H240 0.984 . S
N228 H241 0.985 . S
N229 C231 1.356 . S
N229 H234 0.984 . S
N229 H235 0.985 . S
C230 C224 1.379 . S
C230 C227 1.363 . S
C230 N228 1.356 . S
C231 C225 1.363 . S
C231 C226 1.379 . S
C231 N229 1.356 . S
N232 C224 1.356 . S
N232 H238 0.984 . S
N232 H239 0.984 . S
N233 C226 1.356 . S
N233 H236 0.984 . S
N233 H237 0.985 . S
H234 N229 0.984 . S
H235 N229 0.985 . S
H236 N233 0.984 . S
H237 N233 0.985 . S
H238 N232 0.984 . S
H239 N232 0.984 . S
H240 N228 0.984 . S
H241 N228 0.985 . S
C242 C243 1.363 . S
C242 C248 1.379 . S
C242 N250 1.356 . S
C243 C242 1.363 . S
C243 C249 1.363 1_556 S
C244 C245 1.363 . S
C244 C249 1.379 . S
C244 N251 1.356 . S
C245 C244 1.363 . S
C245 C248 1.363 1_554 S
N246 C248 1.356 . S
N246 H258 0.984 . S
N246 H259 0.985 . S
N247 C249 1.356 . S
N247 H252 0.984 . S
N247 H253 0.985 . S
C248 C242 1.379 . S
C248 C245 1.363 1_556 S
C248 N246 1.356 . S
C249 C243 1.363 1_554 S
C249 C244 1.379 . S
C249 N247 1.356 . S
N250 C242 1.356 . S
N250 H256 0.984 . S
N250 H257 0.984 . S
N251 C244 1.356 . S
N251 H254 0.984 . S
N251 H255 0.985 . S
H252 N247 0.984 . S
H253 N247 0.985 . S
H254 N251 0.984 . S
H255 N251 0.985 . S
H256 N250 0.984 . S
H257 N250 0.984 . S
H258 N246 0.984 . S
H259 N246 0.985 . S
C260 C261 1.363 1_554 S
C260 C266 1.379 . S
C260 N268 1.356 . S
C261 C260 1.363 1_556 S
C261 C267 1.363 . S
C262 C263 1.363 1_556 S
C262 C267 1.379 . S
C262 N269 1.356 . S
C263 C262 1.363 1_554 S
C263 C266 1.363 . S
N264 C266 1.356 . S
N264 H276 0.984 . S
N264 H277 0.985 . S
N265 C267 1.356 . S
N265 H270 0.984 . S
N265 H271 0.985 . S
C266 C260 1.379 . S
C266 C263 1.363 . S
C266 N264 1.356 . S
C267 C261 1.363 . S
C267 C262 1.379 . S
C267 N265 1.356 . S
N268 C260 1.356 . S
N268 H274 0.984 . S
N268 H275 0.984 . S
N269 C262 1.356 . S
N269 H272 0.984 . S
N269 H273 0.985 . S
H270 N265 0.984 . S
H271 N265 0.985 . S
H272 N269 0.984 . S
H273 N269 0.985 . S
H274 N268 0.984 . S
H275 N268 0.984 . S
H276 N264 0.984 . S
H277 N264 0.985 . S
C278 C279 1.363 . S
C278 C284 1.379 . S
C278 N286 1.356 . S
C279 C278 1.363 . S
C279 C285 1.363 1_556 S
C280 C281 1.363 . S
C280 C285 1.379 . S
C280 N287 1.356 . S
C281 C280 1.363 . S
C281 C284 1.363 1_554 S
N282 C284 1.356 . S
N282 H294 0.984 . S
N282 H295 0.985 . S
N283 C285 1.356 . S
N283 H288 0.984 . S
N283 H289 0.985 . S
C284 C278 1.379 . S
C284 C281 1.363 1_556 S
C284 N282 1.356 . S
C285 C279 1.363 1_554 S
C285 C280 1.379 . S
C285 N283 1.356 . S
N286 C278 1.356 . S
N286 H292 0.984 . S
N286 H293 0.984 . S
N287 C280 1.356 . S
N287 H290 0.984 . S
N287 H291 0.985 . S
H288 N283 0.984 . S
H289 N283 0.985 . S
H290 N287 0.984 . S
H291 N287 0.985 . S
H292 N286 0.984 . S
H293 N286 0.984 . S
H294 N282 0.984 . S
H295 N282 0.985 . S
C296 C297 1.363 . S
C296 C302 1.379 . S
C296 N304 1.356 . S
C297 C296 1.363 . S
C297 C303 1.363 . S
C298 C299 1.363 . S
C298 C303 1.379 . S
C298 N305 1.356 . S
C299 C298 1.363 . S
C299 C302 1.363 . S
N300 C302 1.356 . S
N300 H312 0.984 . S
N300 H313 0.985 . S
N301 C303 1.356 . S
N301 H306 0.984 . S
N301 H307 0.985 . S
C302 C296 1.379 . S
C302 C299 1.363 . S
C302 N300 1.356 . S
C303 C297 1.363 . S
C303 C298 1.379 . S
C303 N301 1.356 . S
N304 C296 1.356 . S
N304 H310 0.984 . S
N304 H311 0.984 . S
N305 C298 1.356 . S
N305 H308 0.984 . S
N305 H309 0.985 . S
H306 N301 0.984 . S
H307 N301 0.985 . S
H308 N305 0.984 . S
H309 N305 0.985 . S
H310 N304 0.984 . S
H311 N304 0.984 . S
H312 N300 0.984 . S
H313 N300 0.985 . S
C314 C315 1.363 . S
C314 C320 1.379 . S
C314 N322 1.356 . S
C315 C314 1.363 . S
C315 C321 1.363 . S
C316 C317 1.363 . S
C316 C321 1.379 . S
C316 N323 1.356 . S
C317 C316 1.363 . S
C317 C320 1.363 . S
N318 C320 1.356 . S
N318 H330 0.984 . S
N318 H331 0.985 . S
N319 C321 1.356 . S
N319 H324 0.984 . S
N319 H325 0.985 . S
C320 C314 1.379 . S
C320 C317 1.363 . S
C320 N318 1.356 . S
C321 C315 1.363 . S
C321 C316 1.379 . S
C321 N319 1.356 . S
N322 C314 1.356 . S
N322 H328 0.984 . S
N322 H329 0.984 . S
N323 C316 1.356 . S
N323 H326 0.984 . S
N323 H327 0.985 . S
H324 N319 0.984 . S
H325 N319 0.985 . S
H326 N323 0.984 . S
H327 N323 0.985 . S
H328 N322 0.984 . S
H329 N322 0.984 . S
H330 N318 0.984 . S
H331 N318 0.985 . S
C332 C333 1.363 . S
C332 C338 1.379 . S
C332 N340 1.356 . S
C333 C332 1.363 . S
C333 C339 1.363 . S
C334 C335 1.363 . S
C334 C339 1.379 . S
C334 N341 1.356 . S
C335 C334 1.363 . S
C335 C338 1.363 . S
N336 C338 1.356 . S
N336 H348 0.984 . S
N336 H349 0.985 . S
N337 C339 1.356 . S
N337 H342 0.984 . S
N337 H343 0.985 . S
C338 C332 1.379 . S
C338 C335 1.363 . S
C338 N336 1.356 . S
C339 C333 1.363 . S
C339 C334 1.379 . S
C339 N337 1.356 . S
N340 C332 1.356 . S
N340 H346 0.984 . S
N340 H347 0.984 . S
N341 C334 1.356 . S
N341 H344 0.984 . S
N341 H345 0.985 . S
H342 N337 0.984 . S
H343 N337 0.985 . S
H344 N341 0.984 . S
H345 N341 0.985 . S
H346 N340 0.984 . S
H347 N340 0.984 . S
H348 N336 0.984 . S
H349 N336 0.985 . S
C350 C351 1.363 . S
C350 C356 1.379 . S
C350 N358 1.356 . S
C351 C350 1.363 . S
C351 C357 1.363 . S
C352 C353 1.363 . S
C352 C357 1.379 . S
C352 N359 1.356 . S
C353 C352 1.363 . S
C353 C356 1.363 . S
N354 C356 1.356 . S
N354 H366 0.984 . S
N354 H367 0.985 . S
N355 C357 1.356 . S
N355 H360 0.984 . S
N355 H361 0.985 . S
C356 C350 1.379 . S
C356 C353 1.363 . S
C356 N354 1.356 . S
C357 C351 1.363 . S
C357 C352 1.379 . S
C357 N355 1.356 . S
N358 C350 1.356 . S
N358 H364 0.984 . S
N358 H365 0.984 . S
N359 C352 1.356 . S
N359 H362 0.984 . S
N359 H363 0.985 . S
H360 N355 0.984 . S
H361 N355 0.985 . S
H362 N359 0.984 . S
H363 N359 0.985 . S
H364 N358 0.984 . S
H365 N358 0.984 . S
H366 N354 0.984 . S
H367 N354 0.985 . S
C368 C369 1.363 . S
C368 C374 1.379 . S
C368 N376 1.356 . S
C369 C368 1.363 . S
C369 C375 1.363 1_556 S
C370 C371 1.363 . S
C370 C375 1.379 . S
C370 N377 1.356 . S
C371 C370 1.363 . S
C371 C374 1.363 1_554 S
N372 C374 1.356 . S
N372 H384 0.984 . S
N372 H385 0.985 . S
N373 C375 1.356 . S
N373 H378 0.984 . S
N373 H379 0.985 . S
C374 C368 1.379 . S
C374 C371 1.363 1_556 S
C374 N372 1.356 . S
C375 C369 1.363 1_554 S
C375 C370 1.379 . S
C375 N373 1.356 . S
N376 C368 1.356 . S
N376 H382 0.984 . S
N376 H383 0.984 . S
N377 C370 1.356 . S
N377 H380 0.984 . S
N377 H381 0.985 . S
H378 N373 0.984 . S
H379 N373 0.985 . S
H380 N377 0.984 . S
H381 N377 0.985 . S
H382 N376 0.984 . S
H383 N376 0.984 . S
H384 N372 0.984 . S
H385 N372 0.985 . S
C386 C387 1.363 . S
C386 C392 1.379 . S
C386 N394 1.356 . S
C387 C386 1.363 . S
C387 C393 1.363 1_556 S
C388 C389 1.363 . S
C388 C393 1.379 . S
C388 N395 1.356 . S
C389 C388 1.363 . S
C389 C392 1.363 1_554 S
N390 C392 1.356 . S
N390 H402 0.984 . S
N390 H403 0.985 . S
N391 C393 1.356 . S
N391 H396 0.984 . S
N391 H397 0.985 . S
C392 C386 1.379 . S
C392 C389 1.363 1_556 S
C392 N390 1.356 . S
C393 C387 1.363 1_554 S
C393 C388 1.379 . S
C393 N391 1.356 . S
N394 C386 1.356 . S
N394 H400 0.984 . S
N394 H401 0.984 . S
N395 C388 1.356 . S
N395 H398 0.984 . S
N395 H399 0.985 . S
H396 N391 0.984 . S
H397 N391 0.985 . S
H398 N395 0.984 . S
H399 N395 0.985 . S
H400 N394 0.984 . S
H401 N394 0.984 . S
H402 N390 0.984 . S
H403 N390 0.985 . S
C404 C405 1.363 1_554 S
C404 C410 1.379 . S
C404 N412 1.356 . S
C405 C404 1.363 1_556 S
C405 C411 1.363 . S
C406 C407 1.363 1_556 S
C406 C411 1.379 . S
C406 N413 1.356 . S
C407 C406 1.363 1_554 S
C407 C410 1.363 . S
N408 C410 1.356 . S
N408 H420 0.984 . S
N408 H421 0.985 . S
N409 C411 1.356 . S
N409 H414 0.984 . S
N409 H415 0.985 . S
C410 C404 1.379 . S
C410 C407 1.363 . S
C410 N408 1.356 . S
C411 C405 1.363 . S
C411 C406 1.379 . S
C411 N409 1.356 . S
N412 C404 1.356 . S
N412 H418 0.984 . S
N412 H419 0.984 . S
N413 C406 1.356 . S
N413 H416 0.984 . S
N413 H417 0.985 . S
H414 N409 0.984 . S
H415 N409 0.985 . S
H416 N413 0.984 . S
H417 N413 0.985 . S
H418 N412 0.984 . S
H419 N412 0.984 . S
H420 N408 0.984 . S
H421 N408 0.985 . S
C422 C423 1.363 1_556 S
C422 C428 1.379 . S
C422 N430 1.356 . S
C423 C422 1.363 1_554 S
C423 C429 1.363 . S
C424 C425 1.363 1_554 S
C424 C429 1.379 . S
C424 N431 1.356 . S
C425 C424 1.363 1_556 S
C425 C428 1.363 . S
N426 C428 1.356 . S
N426 H438 0.984 . S
N426 H439 0.985 . S
N427 C429 1.356 . S
N427 H432 0.984 . S
N427 H433 0.985 . S
C428 C422 1.379 . S
C428 C425 1.363 . S
C428 N426 1.356 . S
C429 C423 1.363 . S
C429 C424 1.379 . S
C429 N427 1.356 . S
N430 C422 1.356 . S
N430 H436 0.984 . S
N430 H437 0.984 . S
N431 C424 1.356 . S
N431 H434 0.984 . S
N431 H435 0.985 . S
H432 N427 0.984 . S
H433 N427 0.985 . S
H434 N431 0.984 . S
H435 N431 0.985 . S
H436 N430 0.984 . S
H437 N430 0.984 . S
H438 N426 0.984 . S
H439 N426 0.985 . S
C440 C441 1.363 . S
C440 C446 1.379 . S
C440 N448 1.356 . S
C441 C440 1.363 . S
C441 C447 1.363 . S
C442 C443 1.363 . S
C442 C447 1.379 . S
C442 N449 1.356 . S
C443 C442 1.363 . S
C443 C446 1.363 . S
N444 C446 1.356 . S
N444 H456 0.984 . S
N444 H457 0.985 . S
N445 C447 1.356 . S
N445 H450 0.984 . S
N445 H451 0.985 . S
C446 C440 1.379 . S
C446 C443 1.363 . S
C446 N444 1.356 . S
C447 C441 1.363 . S
C447 C442 1.379 . S
C447 N445 1.356 . S
N448 C440 1.356 . S
N448 H454 0.984 . S
N448 H455 0.984 . S
N449 C442 1.356 . S
N449 H452 0.984 . S
N449 H453 0.985 . S
H450 N445 0.984 . S
H451 N445 0.985 . S
H452 N449 0.984 . S
H453 N449 0.985 . S
H454 N448 0.984 . S
H455 N448 0.984 . S
H456 N444 0.984 . S
H457 N444 0.985 . S
C458 C459 1.363 . S
C458 C464 1.379 . S
C458 N466 1.356 . S
C459 C458 1.363 . S
C459 C465 1.363 . S
C460 C461 1.363 . S
C460 C465 1.379 . S
C460 N467 1.356 . S
C461 C460 1.363 . S
C461 C464 1.363 . S
N462 C464 1.356 . S
N462 H474 0.984 . S
N462 H475 0.985 . S
N463 C465 1.356 . S
N463 H468 0.984 . S
N463 H469 0.985 . S
C464 C458 1.379 . S
C464 C461 1.363 . S
C464 N462 1.356 . S
C465 C459 1.363 . S
C465 C460 1.379 . S
C465 N463 1.356 . S
N466 C458 1.356 . S
N466 H472 0.984 . S
N466 H473 0.984 . S
N467 C460 1.356 . S
N467 H470 0.984 . S
N467 H471 0.985 . S
H468 N463 0.984 . S
H469 N463 0.985 . S
H470 N467 0.984 . S
H471 N467 0.985 . S
H472 N466 0.984 . S
H473 N466 0.984 . S
H474 N462 0.984 . S
H475 N462 0.985 . S
C476 C477 1.363 . S
C476 C482 1.379 . S
C476 N484 1.356 . S
C477 C476 1.363 . S
C477 C483 1.363 . S
C478 C479 1.363 . S
C478 C483 1.379 . S
C478 N485 1.356 . S
C479 C478 1.363 . S
C479 C482 1.363 . S
N480 C482 1.356 . S
N480 H492 0.984 . S
N480 H493 0.985 . S
N481 C483 1.356 . S
N481 H486 0.984 . S
N481 H487 0.985 . S
C482 C476 1.379 . S
C482 C479 1.363 . S
C482 N480 1.356 . S
C483 C477 1.363 . S
C483 C478 1.379 . S
C483 N481 1.356 . S
N484 C476 1.356 . S
N484 H490 0.984 . S
N484 H491 0.984 . S
N485 C478 1.356 . S
N485 H488 0.984 . S
N485 H489 0.985 . S
H486 N481 0.984 . S
H487 N481 0.985 . S
H488 N485 0.984 . S
H489 N485 0.985 . S
H490 N484 0.984 . S
H491 N484 0.984 . S
H492 N480 0.984 . S
H493 N480 0.985 . S
C494 C495 1.363 . S
C494 C500 1.379 . S
C494 N502 1.356 . S
C495 C494 1.363 . S
C495 C501 1.363 . S
C496 C497 1.363 . S
C496 C501 1.379 . S
C496 N503 1.356 . S
C497 C496 1.363 . S
C497 C500 1.363 . S
N498 C500 1.356 . S
N498 H510 0.984 . S
N498 H511 0.985 . S
N499 C501 1.356 . S
N499 H504 0.984 . S
N499 H505 0.985 . S
C500 C494 1.379 . S
C500 C497 1.363 . S
C500 N498 1.356 . S
C501 C495 1.363 . S
C501 C496 1.379 . S
C501 N499 1.356 . S
N502 C494 1.356 . S
N502 H508 0.984 . S
N502 H509 0.984 . S
N503 C496 1.356 . S
N503 H506 0.984 . S
N503 H507 0.985 . S
H504 N499 0.984 . S
H505 N499 0.985 . S
H506 N503 0.984 . S
H507 N503 0.985 . S
H508 N502 0.984 . S
H509 N502 0.984 . S
H510 N498 0.984 . S
H511 N498 0.985 . S
C512 C513 1.363 1_554 S
C512 C518 1.379 1_565 S
C512 N520 1.356 . S
C513 C512 1.363 1_556 S
C513 C519 1.363 . S
C514 C515 1.363 1_556 S
C514 C519 1.379 1_545 S
C514 N521 1.356 . S
C515 C514 1.363 1_554 S
C515 C518 1.363 . S
N516 C518 1.356 . S
N516 H528 0.984 . S
N516 H529 0.985 . S
N517 C519 1.356 . S
N517 H522 0.984 . S
N517 H523 0.985 . S
C518 C512 1.379 1_545 S
C518 C515 1.363 . S
C518 N516 1.356 . S
C519 C513 1.363 . S
C519 C514 1.379 1_565 S
C519 N517 1.356 . S
N520 C512 1.356 . S
N520 H526 0.984 . S
N520 H527 0.984 . S
N521 C514 1.356 . S
N521 H524 0.984 . S
N521 H525 0.985 . S
H522 N517 0.984 . S
H523 N517 0.985 . S
H524 N521 0.984 . S
H525 N521 0.985 . S
H526 N520 0.984 . S
H527 N520 0.984 . S
H528 N516 0.984 . S
H529 N516 0.985 . S
C530 C531 1.363 1_556 S
C530 C536 1.379 . S
C530 N538 1.356 . S
C531 C530 1.363 1_554 S
C531 C537 1.363 . S
C532 C533 1.363 1_554 S
C532 C537 1.379 . S
C532 N539 1.356 . S
C533 C532 1.363 1_556 S
C533 C536 1.363 . S
N534 C536 1.356 . S
N534 H546 0.984 . S
N534 H547 0.985 . S
N535 C537 1.356 . S
N535 H540 0.984 . S
N535 H541 0.985 . S
C536 C530 1.379 . S
C536 C533 1.363 . S
C536 N534 1.356 . S
C537 C531 1.363 . S
C537 C532 1.379 . S
C537 N535 1.356 . S
N538 C530 1.356 . S
N538 H544 0.984 . S
N538 H545 0.984 1_556 S
N539 C532 1.356 . S
N539 H542 0.984 1_554 S
N539 H543 0.985 . S
H540 N535 0.984 . S
H541 N535 0.985 . S
H542 N539 0.984 1_556 S
H543 N539 0.985 . S
H544 N538 0.984 . S
H545 N538 0.984 1_554 S
H546 N534 0.984 . S
H547 N534 0.985 . S
C548 C549 1.363 1_455 S
C548 C554 1.379 1_556 S
C548 N556 1.356 . S
C549 C548 1.363 1_655 S
C549 C555 1.363 . S
C550 C551 1.363 1_655 S
C550 C555 1.379 1_554 S
C550 N557 1.356 . S
C551 C550 1.363 1_455 S
C551 C554 1.363 . S
N552 C554 1.356 . S
N552 H564 0.984 . S
N552 H565 0.985 . S
N553 C555 1.356 . S
N553 H558 0.984 . S
N553 H559 0.985 . S
C554 C548 1.379 1_554 S
C554 C551 1.363 . S
C554 N552 1.356 . S
C555 C549 1.363 . S
C555 C550 1.379 1_556 S
C555 N553 1.356 . S
N556 C548 1.356 . S
N556 H562 0.984 . S
N556 H563 0.984 . S
N557 C550 1.356 . S
N557 H560 0.984 . S
N557 H561 0.985 . S
H558 N553 0.984 . S
H559 N553 0.985 . S
H560 N557 0.984 . S
H561 N557 0.985 . S
H562 N556 0.984 . S
H563 N556 0.984 . S
H564 N552 0.984 . S
H565 N552 0.985 . S
C566 C567 1.363 . S
C566 C572 1.379 1_455 S
C566 N574 1.356 . S
C567 C566 1.363 . S
C567 C573 1.363 1_544 S
C568 C569 1.363 . S
C568 C573 1.379 1_655 S
C568 N575 1.356 . S
C569 C568 1.363 . S
C569 C572 1.363 1_566 S
N570 C572 1.356 . S
N570 H582 0.984 . S
N570 H583 0.985 . S
N571 C573 1.356 . S
N571 H576 0.984 . S
N571 H577 0.985 . S
C572 C566 1.379 1_655 S
C572 C569 1.363 1_544 S
C572 N570 1.356 . S
C573 C567 1.363 1_566 S
C573 C568 1.379 1_455 S
C573 N571 1.356 . S
N574 C566 1.356 . S
N574 H580 0.984 . S
N574 H581 0.984 . S
N575 C568 1.356 . S
N575 H578 0.984 . S
N575 H579 0.985 . S
H576 N571 0.984 . S
H577 N571 0.985 . S
H578 N575 0.984 . S
H579 N575 0.985 . S
H580 N574 0.984 . S
H581 N574 0.984 . S
H582 N570 0.984 . S
H583 N570 0.985 . S
C584 C585 1.363 . S
C584 C590 1.379 . S
C584 N592 1.356 . S
C585 C584 1.363 . S
C585 C591 1.363 . S
C586 C587 1.363 . S
C586 C591 1.379 . S
C586 N593 1.356 . S
C587 C586 1.363 . S
C587 C590 1.363 . S
N588 C590 1.356 . S
N588 H600 0.984 . S
N588 H601 0.985 . S
N589 C591 1.356 . S
N589 H594 0.984 . S
N589 H595 0.985 . S
C590 C584 1.379 . S
C590 C587 1.363 . S
C590 N588 1.356 . S
C591 C585 1.363 . S
C591 C586 1.379 . S
C591 N589 1.356 . S
N592 C584 1.356 . S
N592 H598 0.984 . S
N592 H599 0.984 . S
N593 C586 1.356 . S
N593 H596 0.984 . S
N593 H597 0.985 . S
H594 N589 0.984 . S
H595 N589 0.985 . S
H596 N593 0.984 . S
H597 N593 0.985 . S
H598 N592 0.984 . S
H599 N592 0.984 . S
H600 N588 0.984 . S
H601 N588 0.985 . S
C602 C603 1.363 . S
C602 C608 1.379 1_455 S
C602 N610 1.356 . S
C603 C602 1.363 . S
C603 C609 1.363 . S
C604 C605 1.363 . S
C604 C609 1.379 1_655 S
C604 N611 1.356 . S
C605 C604 1.363 . S
C605 C608 1.363 . S
N606 C608 1.356 . S
N606 H618 0.984 . S
N606 H619 0.985 . S
N607 C609 1.356 . S
N607 H612 0.984 . S
N607 H613 0.985 . S
C608 C602 1.379 1_655 S
C608 C605 1.363 . S
C608 N606 1.356 . S
C609 C603 1.363 . S
C609 C604 1.379 1_455 S
C609 N607 1.356 . S
N610 C602 1.356 . S
N610 H616 0.984 . S
N610 H617 0.984 . S
N611 C604 1.356 . S
N611 H614 0.984 . S
N611 H615 0.985 . S
H612 N607 0.984 . S
H613 N607 0.985 . S
H614 N611 0.984 . S
H615 N611 0.985 . S
H616 N610 0.984 . S
H617 N610 0.984 . S
H618 N606 0.984 . S
H619 N606 0.985 . S
C620 C621 1.363 1_455 S
C620 C626 1.379 1_565 S
C620 N628 1.356 . S
C621 C620 1.363 1_655 S
C621 C627 1.363 . S
C622 C623 1.363 1_655 S
C622 C627 1.379 1_545 S
C622 N629 1.356 . S
C623 C622 1.363 1_455 S
C623 C626 1.363 . S
N624 C626 1.356 . S
N624 H636 0.984 . S
N624 H637 0.985 . S
N625 C627 1.356 . S
N625 H630 0.984 . S
N625 H631 0.985 . S
C626 C620 1.379 1_545 S
C626 C623 1.363 . S
C626 N624 1.356 . S
C627 C621 1.363 . S
C627 C622 1.379 1_565 S
C627 N625 1.356 . S
N628 C620 1.356 . S
N628 H634 0.984 . S
N628 H635 0.984 . S
N629 C622 1.356 . S
N629 H632 0.984 . S
N629 H633 0.985 . S
H630 N625 0.984 . S
H631 N625 0.985 . S
H632 N629 0.984 . S
H633 N629 0.985 . S
H634 N628 0.984 . S
H635 N628 0.984 . S
H636 N624 0.984 . S
H637 N624 0.985 . S
C638 C639 1.363 1_545 S
C638 C644 1.379 . S
C638 N646 1.356 . S
C639 C638 1.363 1_565 S
C639 C645 1.363 . S
C640 C641 1.363 1_565 S
C640 C645 1.379 . S
C640 N647 1.356 . S
C641 C640 1.363 1_545 S
C641 C644 1.363 . S
N642 C644 1.356 . S
N642 H654 0.984 . S
N642 H655 0.985 . S
N643 C645 1.356 . S
N643 H648 0.984 . S
N643 H649 0.985 . S
C644 C638 1.379 . S
C644 C641 1.363 . S
C644 N642 1.356 . S
C645 C639 1.363 . S
C645 C640 1.379 . S
C645 N643 1.356 . S
N646 C638 1.356 . S
N646 H652 0.984 . S
N646 H653 0.984 . S
N647 C640 1.356 . S
N647 H650 0.984 . S
N647 H651 0.985 . S
H648 N643 0.984 . S
H649 N643 0.985 . S
H650 N647 0.984 . S
H651 N647 0.985 . S
H652 N646 0.984 . S
H653 N646 0.984 . S
H654 N642 0.984 . S
H655 N642 0.985 . S
C656 C657 1.363 . S
C656 C662 1.379 . S
C656 N664 1.356 . S
C657 C656 1.363 . S
C657 C663 1.363 . S
C658 C659 1.363 . S
C658 C663 1.379 . S
C658 N665 1.356 . S
C659 C658 1.363 . S
C659 C662 1.363 . S
N660 C662 1.356 . S
N660 H672 0.984 . S
N660 H673 0.985 . S
N661 C663 1.356 . S
N661 H666 0.984 . S
N661 H667 0.985 . S
C662 C656 1.379 . S
C662 C659 1.363 . S
C662 N660 1.356 . S
C663 C657 1.363 . S
C663 C658 1.379 . S
C663 N661 1.356 . S
N664 C656 1.356 . S
N664 H670 0.984 . S
N664 H671 0.984 . S
N665 C658 1.356 . S
N665 H668 0.984 . S
N665 H669 0.985 . S
H666 N661 0.984 . S
H667 N661 0.985 . S
H668 N665 0.984 . S
H669 N665 0.985 . S
H670 N664 0.984 . S
H671 N664 0.984 . S
H672 N660 0.984 . S
H673 N660 0.985 . S
C674 C675 1.363 . S
C674 C680 1.379 . S
C674 N682 1.356 . S
C675 C674 1.363 . S
C675 C681 1.363 . S
C676 C677 1.363 . S
C676 C681 1.379 . S
C676 N683 1.356 . S
C677 C676 1.363 . S
C677 C680 1.363 . S
N678 C680 1.356 . S
N678 H690 0.984 . S
N678 H691 0.985 . S
N679 C681 1.356 . S
N679 H684 0.984 . S
N679 H685 0.985 . S
C680 C674 1.379 . S
C680 C677 1.363 . S
C680 N678 1.356 . S
C681 C675 1.363 . S
C681 C676 1.379 . S
C681 N679 1.356 . S
N682 C674 1.356 . S
N682 H688 0.984 . S
N682 H689 0.984 . S
N683 C676 1.356 . S
N683 H686 0.984 . S
N683 H687 0.985 . S
H684 N679 0.984 . S
H685 N679 0.985 . S
H686 N683 0.984 . S
H687 N683 0.985 . S
H688 N682 0.984 . S
H689 N682 0.984 . S
H690 N678 0.984 . S
H691 N678 0.985 . S
C692 C693 1.363 . S
C692 C698 1.379 . S
C692 N700 1.356 . S
C693 C692 1.363 . S
C693 C699 1.363 . S
C694 C695 1.363 . S
C694 C699 1.379 . S
C694 N701 1.356 1_655 S
C695 C694 1.363 . S
C695 C698 1.363 . S
N696 C698 1.356 . S
N696 H708 0.984 . S
N696 H709 0.985 . S
N697 C699 1.356 1_455 S
N697 H702 0.984 . S
N697 H703 0.985 . S
C698 C692 1.379 . S
C698 C695 1.363 . S
C698 N696 1.356 . S
C699 C693 1.363 . S
C699 C694 1.379 . S
C699 N697 1.356 1_655 S
N700 C692 1.356 . S
N700 H706 0.984 . S
N700 H707 0.984 . S
N701 C694 1.356 1_455 S
N701 H704 0.984 . S
N701 H705 0.985 . S
H702 N697 0.984 . S
H703 N697 0.985 . S
H704 N701 0.984 . S
H705 N701 0.985 . S
H706 N700 0.984 . S
H707 N700 0.984 . S
H708 N696 0.984 . S
H709 N696 0.985 . S
C710 C711 1.363 . S
C710 C716 1.379 . S
C710 N718 1.356 . S
C711 C710 1.363 . S
C711 C717 1.363 . S
C712 C713 1.363 . S
C712 C717 1.379 . S
C712 N719 1.356 1_565 S
C713 C712 1.363 . S
C713 C716 1.363 . S
N714 C716 1.356 . S
N714 H726 0.984 . S
N714 H727 0.985 . S
N715 C717 1.356 1_545 S
N715 H720 0.984 . S
N715 H721 0.985 . S
C716 C710 1.379 . S
C716 C713 1.363 . S
C716 N714 1.356 . S
C717 C711 1.363 . S
C717 C712 1.379 . S
C717 N715 1.356 1_565 S
N718 C710 1.356 . S
N718 H724 0.984 . S
N718 H725 0.984 . S
N719 C712 1.356 1_545 S
N719 H722 0.984 . S
N719 H723 0.985 . S
H720 N715 0.984 . S
H721 N715 0.985 . S
H722 N719 0.984 . S
H723 N719 0.985 . S
H724 N718 0.984 . S
H725 N718 0.984 . S
H726 N714 0.984 . S
H727 N714 0.985 . S
C728 C729 1.363 . S
C728 C734 1.379 . S
C728 N736 1.356 . S
C729 C728 1.363 . S
C729 C735 1.363 . S
C730 C731 1.363 . S
C730 C735 1.379 . S
C730 N737 1.356 . S
C731 C730 1.363 . S
C731 C734 1.363 . S
N732 C734 1.356 . S
N732 H744 0.984 . S
N732 H745 0.985 . S
N733 C735 1.356 . S
N733 H738 0.984 . S
N733 H739 0.985 . S
C734 C728 1.379 . S
C734 C731 1.363 . S
C734 N732 1.356 . S
C735 C729 1.363 . S
C735 C730 1.379 . S
C735 N733 1.356 . S
N736 C728 1.356 . S
N736 H742 0.984 . S
N736 H743 0.984 . S
N737 C730 1.356 . S
N737 H740 0.984 . S
N737 H741 0.985 . S
H738 N733 0.984 . S
H739 N733 0.985 . S
H740 N737 0.984 . S
H741 N737 0.985 . S
H742 N736 0.984 . S
H743 N736 0.984 . S
H744 N732 0.984 . S
H745 N732 0.985 . S
C746 C747 1.363 . S
C746 C752 1.379 . S
C746 N754 1.356 . S
C747 C746 1.363 . S
C747 C753 1.363 . S
C748 C749 1.363 . S
C748 C753 1.379 . S
C748 N755 1.356 . S
C749 C748 1.363 . S
C749 C752 1.363 . S
N750 C752 1.356 . S
N750 H762 0.984 . S
N750 H763 0.985 . S
N751 C753 1.356 . S
N751 H756 0.984 . S
N751 H757 0.985 . S
C752 C746 1.379 . S
C752 C749 1.363 . S
C752 N750 1.356 . S
C753 C747 1.363 . S
C753 C748 1.379 . S
C753 N751 1.356 . S
N754 C746 1.356 . S
N754 H760 0.984 . S
N754 H761 0.984 . S
N755 C748 1.356 . S
N755 H758 0.984 . S
N755 H759 0.985 . S
H756 N751 0.984 . S
H757 N751 0.985 . S
H758 N755 0.984 . S
H759 N755 0.985 . S
H760 N754 0.984 . S
H761 N754 0.984 . S
H762 N750 0.984 . S
H763 N750 0.985 . S
C764 C765 1.363 . S
C764 C770 1.379 . S
C764 N772 1.356 . S
C765 C764 1.363 . S
C765 C771 1.363 . S
C766 C767 1.363 . S
C766 C771 1.379 . S
C766 N773 1.356 . S
C767 C766 1.363 . S
C767 C770 1.363 . S
N768 C770 1.356 . S
N768 H780 0.984 . S
N768 H781 0.985 . S
N769 C771 1.356 . S
N769 H774 0.984 . S
N769 H775 0.985 1_455 S
C770 C764 1.379 . S
C770 C767 1.363 . S
C770 N768 1.356 . S
C771 C765 1.363 . S
C771 C766 1.379 . S
C771 N769 1.356 . S
N772 C764 1.356 . S
N772 H778 0.984 . S
N772 H779 0.984 . S
N773 C766 1.356 . S
N773 H776 0.984 . S
N773 H777 0.985 1_455 S
H774 N769 0.984 . S
H775 N769 0.985 1_655 S
H776 N773 0.984 . S
H777 N773 0.985 1_655 S
H778 N772 0.984 . S
H779 N772 0.984 . S
H780 N768 0.984 . S
H781 N768 0.985 . S
C782 C783 1.363 . S
C782 C788 1.379 . S
C782 N790 1.356 . S
C783 C782 1.363 . S
C783 C789 1.363 . S
C784 C785 1.363 . S
C784 C789 1.379 . S
C784 N791 1.356 1_545 S
C785 C784 1.363 . S
C785 C788 1.363 . S
N786 C788 1.356 . S
N786 H798 0.984 . S
N786 H799 0.985 . S
N787 C789 1.356 1_565 S
N787 H792 0.984 . S
N787 H793 0.985 . S
C788 C782 1.379 . S
C788 C785 1.363 . S
C788 N786 1.356 . S
C789 C783 1.363 . S
C789 C784 1.379 . S
C789 N787 1.356 1_545 S
N790 C782 1.356 . S
N790 H796 0.984 . S
N790 H797 0.984 . S
N791 C784 1.356 1_565 S
N791 H794 0.984 . S
N791 H795 0.985 . S
H792 N787 0.984 . S
H793 N787 0.985 . S
H794 N791 0.984 . S
H795 N791 0.985 . S
H796 N790 0.984 . S
H797 N790 0.984 . S
H798 N786 0.984 . S
H799 N786 0.985 . S
C225 C9 1.220 . S
C227 C134 1.277 . S
C243 C148 1.277 . S
C245 C23 1.220 . S
C261 C162 1.277 . S
C263 C37 1.220 . S
C279 C120 1.276 . S
C281 C51 1.220 . S
C297 C65 1.220 . S
C299 C218 1.277 . S
C315 C176 1.277 . S
C317 C79 1.220 . S
C333 C190 1.276 . S
C335 C93 1.220 . S
C351 C204 1.277 . S
C353 C107 1.220 . S
C369 C121 1.220 . S
C371 C22 1.277 . S
C387 C135 1.220 . S
C389 C36 1.277 . S
C405 C149 1.220 . S
C407 C50 1.277 . S
C423 C8 1.276 . S
C425 C163 1.220 . S
C441 C177 1.220 . S
C443 C106 1.277 . S
C459 C191 1.220 . S
C461 C64 1.277 . S
C477 C78 1.276 . S
C479 C205 1.220 . S
C495 C219 1.220 . S
C497 C92 1.277 . S
C513 C118 1.640 . S
C515 C6 1.640 . S
C531 C20 1.640 . S
C533 C132 1.640 . S
C549 C146 1.640 1_655 S
C551 C34 1.640 1_455 S
C567 C48 1.640 1_545 S
C569 C160 1.640 1_565 S
C585 C174 1.640 . S
C587 C62 1.640 . S
C603 C76 1.640 . S
C605 C188 1.640 . S
C621 C202 1.640 1_655 S
C623 C90 1.640 1_455 S
C639 C216 1.640 1_565 S
C641 C104 1.640 1_545 S
C657 C63 1.554 . S
C659 C7 1.554 . S
C675 C77 1.554 . S
C677 C21 1.554 . S
C693 C35 1.554 . S
C695 C91 1.554 . S
C711 C105 1.554 . S
C713 C49 1.554 . S
C729 C119 1.554 . S
C731 C175 1.554 . S
C747 C189 1.554 . S
C749 C133 1.554 . S
C765 C203 1.554 . S
C767 C147 1.554 . S
C783 C217 1.554 . S
C785 C161 1.554 . S
