# Generated by pormake.
# Topology fna, (5)-cn, num edge types: 1
# Building blocks:
#     Node 0, Type 0, BuildingBlock: BEQFEK_clean_sbu_0, # of connection points: 5
#     Node 1, Type 0, BuildingBlock: BEQFEK_clean_sbu_0, # of connection points: 5
#     Node 2, Type 0, BuildingBlock: BEQFEK_clean_sbu_0, # of connection points: 5
#     Node 3, Type 0, BuildingBlock: BEQFEK_clean_sbu_0, # of connection points: 5
#     Node 4, Type 0, BuildingBlock: BEQFEK_clean_sbu_0, # of connection points: 5
#     Node 5, Type 0, BuildingBlock: BEQFEK_clean_sbu_0, # of connection points: 5
#     Node 6, Type 0, BuildingBlock: BEQFEK_clean_sbu_0, # of connection points: 5
#     Node 7, Type 0, BuildingBlock: BEQFEK_clean_sbu_0, # of connection points: 5
#     Node 8, Type 0, BuildingBlock: BEQFEK_clean_sbu_0, # of connection points: 5
#     Node 9, Type 0, BuildingBlock: BEQFEK_clean_sbu_0, # of connection points: 5
#     Node 10, Type 0, BuildingBlock: BEQFEK_clean_sbu_0, # of connection points: 5
#     Node 11, Type 0, BuildingBlock: BEQFEK_clean_sbu_0, # of connection points: 5
#     Edge 12, Type (0, 0), BuildingBlock: OJICUG_clean_linker_0, # of connection points: 2
#     Edge 13, Type (0, 0), BuildingBlock: OJICUG_clean_linker_0, # of connection points: 2
#     Edge 14, Type (0, 0), BuildingBlock: OJICUG_clean_linker_0, # of connection points: 2
#     Edge 15, Type (0, 0), BuildingBlock: OJICUG_clean_linker_0, # of connection points: 2
#     Edge 16, Type (0, 0), BuildingBlock: OJICUG_clean_linker_0, # of connection points: 2
#     Edge 17, Type (0, 0), BuildingBlock: OJICUG_clean_linker_0, # of connection points: 2
#     Edge 18, Type (0, 0), BuildingBlock: OJICUG_clean_linker_0, # of connection points: 2
#     Edge 19, Type (0, 0), BuildingBlock: OJICUG_clean_linker_0, # of connection points: 2
#     Edge 20, Type (0, 0), BuildingBlock: OJICUG_clean_linker_0, # of connection points: 2
#     Edge 21, Type (0, 0), BuildingBlock: OJICUG_clean_linker_0, # of connection points: 2
#     Edge 22, Type (0, 0), BuildingBlock: OJICUG_clean_linker_0, # of connection points: 2
#     Edge 23, Type (0, 0), BuildingBlock: OJICUG_clean_linker_0, # of connection points: 2
#     Edge 24, Type (0, 0), BuildingBlock: OJICUG_clean_linker_0, # of connection points: 2
#     Edge 25, Type (0, 0), BuildingBlock: OJICUG_clean_linker_0, # of connection points: 2
#     Edge 26, Type (0, 0), BuildingBlock: OJICUG_clean_linker_0, # of connection points: 2
#     Edge 27, Type (0, 0), BuildingBlock: OJICUG_clean_linker_0, # of connection points: 2
#     Edge 28, Type (0, 0), BuildingBlock: OJICUG_clean_linker_0, # of connection points: 2
#     Edge 29, Type (0, 0), BuildingBlock: OJICUG_clean_linker_0, # of connection points: 2
#     Edge 30, Type (0, 0), BuildingBlock: OJICUG_clean_linker_0, # of connection points: 2
#     Edge 31, Type (0, 0), BuildingBlock: OJICUG_clean_linker_0, # of connection points: 2
#     Edge 32, Type (0, 0), BuildingBlock: OJICUG_clean_linker_0, # of connection points: 2
#     Edge 33, Type (0, 0), BuildingBlock: OJICUG_clean_linker_0, # of connection points: 2
#     Edge 34, Type (0, 0), BuildingBlock: OJICUG_clean_linker_0, # of connection points: 2
#     Edge 35, Type (0, 0), BuildingBlock: OJICUG_clean_linker_0, # of connection points: 2
#     Edge 36, Type (0, 0), BuildingBlock: OJICUG_clean_linker_0, # of connection points: 2
#     Edge 37, Type (0, 0), BuildingBlock: OJICUG_clean_linker_0, # of connection points: 2
#     Edge 38, Type (0, 0), BuildingBlock: OJICUG_clean_linker_0, # of connection points: 2
#     Edge 39, Type (0, 0), BuildingBlock: OJICUG_clean_linker_0, # of connection points: 2
#     Edge 40, Type (0, 0), BuildingBlock: OJICUG_clean_linker_0, # of connection points: 2
#     Edge 41, Type (0, 0), BuildingBlock: OJICUG_clean_linker_0, # of connection points: 2
# Relax obj value: 0.687
# Max RMSD: 0.274
# Mean RMSD: 0.274
data_MOF--net-fna--node1-BEQFEK_clean_sbu_0--edge1-OJICUG_clean_linker_0
_symmetry_space_group_name_H-M    P1
_symmetry_Int_Tables_number       1
_symmetry_cell_setting            triclinic
loop_
_symmetry_equiv_pos_as_xyz
'x, y, z'
_cell_length_a     33.295499
_cell_length_b     33.261367
_cell_length_c     32.846458
_cell_angle_alpha  89.842598
_cell_angle_beta   90.240416
_cell_angle_gamma 120.07333
loop_
_atom_site_label
_atom_site_type_symbol
_atom_site_fract_x
_atom_site_fract_y
_atom_site_fract_z
_atom_type_partial_charge
Co0 Co 0.36823 0.38396 0.48572 0.0
Co1 Co 0.34788 0.32301 0.40777 0.0
C2 C 0.43344 0.41608 0.41547 0.0
O3 O 0.42071 0.42066 0.45053 0.0
O4 O 0.40821 0.38026 0.39387 0.0
C5 C 0.428 0.42676 0.55003 0.0
O6 O 0.45309 0.41501 0.52761 0.0
C7 C 0.36093 0.26775 0.34451 0.0
C8 C 0.28875 0.21208 0.3336 0.0
C9 C 0.33438 0.22579 0.32411 0.0
N10 N 0.33234 0.27717 0.36606 0.0
N11 N 0.28917 0.2444 0.35845 0.0
C12 C 0.41258 0.29865 0.34383 0.0
H13 H 0.42122 0.33496 0.3381 0.0
H14 H 0.4273 0.29768 0.37394 0.0
H15 H 0.42875 0.28834 0.3196 0.0
C16 C 0.35553 0.29826 0.52531 0.0
N17 N 0.35812 0.32303 0.4919 0.0
N18 N 0.35248 0.29793 0.45918 0.0
C19 C 0.34731 0.25661 0.47091 0.0
C20 C 0.34909 0.25553 0.51327 0.0
C21 C 0.35491 0.31343 0.56808 0.0
H22 H 0.33962 0.33632 0.56901 0.0
H23 H 0.39096 0.33278 0.5799 0.0
H24 H 0.33454 0.28304 0.5882 0.0
O25 O 0.31185 0.38198 0.46536 0.0
O26 O 0.29486 0.3357 0.41143 0.0
H27 H 0.30817 0.20388 0.42693 0.0
H28 H 0.34627 0.19216 0.45777 0.0
C29 C 0.34257 0.21969 0.4421 0.0
H30 H 0.36975 0.23543 0.41849 0.0
H31 H 0.26007 0.2427 0.37208 0.0
O32 O 0.38775 0.41666 0.53781 0.0
C33 C 0.28553 0.36001 0.43548 0.0
Co34 Co 0.01703 0.37658 0.65167 0.0
Co35 Co 0.03656 0.34998 0.56675 0.0
C36 C 0.03542 0.43916 0.58253 0.0
O37 O 0.02681 0.42856 0.6196 0.0
O38 O 0.03946 0.41197 0.55765 0.0
C39 C 0.99528 0.41903 0.71601 0.0
O40 O 0.96932 0.42521 0.68939 0.0
C41 C 0.10256 0.36304 0.50316 0.0
C42 C 0.0662 0.29779 0.46815 0.0
C43 C 0.10865 0.33875 0.47138 0.0
N44 N 0.0594 0.33715 0.51801 0.0
N45 N 0.03744 0.29865 0.49639 0.0
C46 C 0.1376 0.40818 0.52209 0.0
H47 H 0.1244 0.41411 0.55108 0.0
H48 H 0.17072 0.40878 0.52794 0.0
H49 H 0.14448 0.43703 0.50101 0.0
C50 C 0.09407 0.36399 0.67623 0.0
N51 N 0.06619 0.36523 0.64723 0.0
N52 N 0.07463 0.35192 0.61217 0.0
C53 C 0.10817 0.34077 0.61838 0.0
C54 C 0.12149 0.34845 0.65906 0.0
C55 C 0.0947 0.37816 0.71954 0.0
H56 H 0.06027 0.35529 0.73348 0.0
H57 H 0.1014 0.41431 0.7201 0.0
H58 H 0.12181 0.37633 0.73784 0.0
O59 O 0.9589 0.3204 0.63806 0.0
O60 O 0.97085 0.29848 0.57754 0.0
H61 H 0.0967 0.29907 0.56489 0.0
H62 H 0.13414 0.2952 0.60285 0.0
C63 C 0.12427 0.31887 0.58765 0.0
H64 H 0.15553 0.34625 0.57208 0.0
H65 H 1.00364 0.27196 0.5022 0.0
O66 O 0.01518 0.39637 0.70649 0.0
C67 C 0.94487 0.29204 0.60833 0.0
Co68 Co 0.6385 0.01151 0.81068 0.0
Co69 Co 0.68853 0.03173 0.72766 0.0
C70 C 0.59472 0.02739 0.74203 0.0
O71 O 0.59462 0.01819 0.77938 0.0
O72 O 0.62748 0.0324 0.71837 0.0
C73 C 0.58541 1.001 0.88475 0.0
O74 O 0.5502 0.99628 0.86286 0.0
C75 C 0.74553 0.10383 0.67013 0.0
C76 C 0.78317 0.07475 0.63781 0.0
C77 C 0.78174 0.11545 0.64291 0.0
N78 N 0.72782 0.05928 0.68139 0.0
N79 N 0.74971 0.04169 0.66126 0.0
C80 C 0.72799 0.13425 0.68626 0.0
H81 H 0.74425 0.1485 0.71628 0.0
H82 H 0.73593 0.16327 0.66499 0.0
H83 H 0.68997 0.11356 0.69098 0.0
C84 C 0.72267 0.09514 0.83439 0.0
N85 N 0.69653 0.06462 0.80565 0.0
N86 N 0.72198 0.06866 0.77397 0.0
C87 C 0.76681 0.09937 0.78324 0.0
C88 C 0.76883 0.11713 0.82234 0.0
C89 C 0.70254 0.10748 0.86964 0.0
H90 H 0.66618 0.09818 0.86299 0.0
H91 H 0.72338 0.14522 0.87632 0.0
H92 H 0.70277 0.08824 0.89693 0.0
O93 O 0.6414 0.95549 0.79646 0.0
O94 O 0.67728 0.96747 0.7371 0.0
H95 H 0.83678 0.11289 0.77595 0.0
H96 H 0.81767 0.13917 0.7383 0.0
C97 C 0.80684 0.10758 0.75699 0.0
H98 H 0.79674 0.07764 0.73639 0.0
H99 H 0.74392 1.00804 0.66552 0.0
O100 O 0.62162 1.00586 0.86754 0.0
C101 C 0.65738 0.94174 0.76792 0.0
Co102 Co 0.65612 0.64443 -0.01433 0.0
Co103 Co 0.67655 0.70033 0.90472 0.0
C104 C 0.58996 0.60753 0.9169 0.0
O105 O 0.60207 0.60513 0.95297 0.0
O106 O 0.61593 0.64166 0.89384 0.0
C107 C 0.6171 0.57575 0.04993 0.0
O108 O 0.60869 0.54333 0.02302 0.0
C109 C 0.65983 0.7531 0.84161 0.0
C110 C 0.73083 0.8017 0.82027 0.0
C111 C 0.68517 0.7915 0.81654 0.0
N112 N 0.68938 0.74233 0.86007 0.0
N113 N 0.73162 0.77082 0.8464 0.0
C114 C 0.60834 0.7263 0.8477 0.0
H115 H 0.59575 0.68862 0.84516 0.0
H116 H 0.59985 0.73275 0.87874 0.0
H117 H 0.58991 0.73562 0.82466 0.0
C118 C 0.66822 0.73129 0.01989 0.0
N119 N 0.66667 0.70547 -0.01218 0.0
N120 N 0.6735 0.72937 0.95402 0.0
C121 C 0.67913 0.77139 0.96381 0.0
C122 C 0.67599 0.77375 0.00582 0.0
C123 C 0.66038 0.7147 0.06309 0.0
H124 H 0.62413 0.68592 0.06624 0.0
H125 H 0.66612 0.74256 0.0848 0.0
H126 H 0.68395 0.70127 0.07089 0.0
O127 O 0.71183 0.64424 0.96638 0.0
O128 O 0.72962 0.68787 0.91042 0.0
H129 H 0.71756 0.81427 0.91345 0.0
H130 H 0.69949 0.84268 0.94985 0.0
C131 C 0.68924 0.80942 0.93408 0.0
H132 H 0.65783 0.79975 0.91553 0.0
H133 H 0.76136 0.77076 0.85654 0.0
O134 O 0.63876 0.61833 0.04 0.0
C135 C 0.73835 0.66437 0.9362 0.0
Co136 Co 0.01496 0.64571 0.1495 0.0
Co137 Co 0.99149 0.67296 0.06644 0.0
C138 C 0.99252 0.58239 0.0819 0.0
O139 O 1.00315 0.59216 0.11894 0.0
O140 O 0.98814 0.61055 0.05817 0.0
C141 C 0.01865 0.59742 0.22172 0.0
O142 O 1.00897 0.56111 0.19918 0.0
C143 C 0.92187 0.65871 0.00504 0.0
C144 C 0.95723 0.72289 0.96845 0.0
C145 C 0.91462 0.68245 -0.02678 0.0
N146 N 0.96582 0.6845 0.01844 0.0
N147 N 0.98709 0.72233 -0.00412 0.0
C148 C 0.88754 0.61404 0.02504 0.0
H149 H 0.9023 0.60814 0.05324 0.0
H150 H 0.85518 0.61418 0.03253 0.0
H151 H 0.87886 0.5848 0.00393 0.0
C152 C 0.9359 0.6548 0.17647 0.0
N153 N 0.96441 0.65595 0.14705 0.0
N154 N 0.95541 0.67072 0.11289 0.0
C155 C 0.92159 0.68109 0.12029 0.0
C156 C 0.90831 0.67107 0.16074 0.0
C157 C 0.93436 0.6377 0.21889 0.0
H158 H 0.96343 0.66547 0.23647 0.0
H159 H 0.93797 0.60637 0.21839 0.0
H160 H 0.9014 0.62902 0.23433 0.0
O161 O 0.07199 0.70154 0.13324 0.0
O162 O 0.05709 0.72582 0.07518 0.0
H163 H 0.89686 0.72829 0.10725 0.0
H164 H 0.87248 0.67738 0.0762 0.0
C165 C 0.90497 0.70405 0.0909 0.0
H166 H 0.93152 0.72345 0.06737 0.0
H167 H 0.02133 0.7488 0.00044 0.0
O168 O 0.0239 0.63435 0.20538 0.0
C169 C 0.08463 0.73102 0.10451 0.0
Co170 Co 0.38839 0.01312 0.33134 0.0
Co171 Co 0.32921 0.979 0.2517 0.0
C172 C 0.42264 0.98661 0.25873 0.0
O173 O 0.42578 1.00023 0.29508 0.0
O174 O 0.38748 0.97781 0.23676 0.0
C175 C 0.42651 0.98947 0.39598 0.0
O176 O 0.41763 0.95492 0.37133 0.0
C177 C 0.27441 0.91521 0.18445 0.0
C178 C 0.22185 0.9359 0.17339 0.0
C179 C 0.23424 0.90344 0.16215 0.0
N180 N 0.28419 0.95187 0.20839 0.0
N181 N 0.25315 0.96462 0.20088 0.0
C182 C 0.30348 0.89251 0.18304 0.0
H183 H 0.29759 0.87148 0.21099 0.0
H184 H 0.2954 0.87012 0.15575 0.0
H185 H 0.3407 0.91943 0.18217 0.0
C186 C 0.30125 0.942 0.36781 0.0
N187 N 0.32727 0.9634 0.33494 0.0
N188 N 0.30258 0.94567 0.30165 0.0
C189 C 0.26017 0.9106 0.31253 0.0
C190 C 0.25809 0.90711 0.35498 0.0
C191 C 0.31494 0.9591 0.41061 0.0
H192 H 0.33924 0.99711 0.41094 0.0
H193 H 0.33197 0.94125 0.42488 0.0
H194 H 0.28407 0.95147 0.42909 0.0
O195 O 0.38711 0.06873 0.31527 0.0
O196 O 0.34254 0.04508 0.25983 0.0
H197 H 0.20712 0.90094 0.27027 0.0
H198 H 0.1953 0.84869 0.29733 0.0
C199 C 0.22276 0.88091 0.28287 0.0
H200 H 0.23785 0.87119 0.25741 0.0
H201 H 0.25212 0.99172 0.21589 0.0
O202 O 0.41836 0.02111 0.38406 0.0
C203 C 0.3662 0.07632 0.28637 0.0
Co204 Co 0.63197 0.63773 0.28322 0.0
Co205 Co 0.69104 0.66261 0.36317 0.0
C206 C 0.59851 0.57604 0.35587 0.0
O207 O 0.59503 0.58684 0.31963 0.0
O208 O 0.63349 0.60259 0.3779 0.0
C209 C 0.59421 0.57542 0.21904 0.0
O210 O 0.60406 0.55059 0.24398 0.0
C211 C 0.74462 0.65363 0.43153 0.0
C212 C 0.79905 0.72668 0.44085 0.0
C213 C 0.78514 0.68178 0.45349 0.0
N214 N 0.73605 0.68064 0.40648 0.0
N215 N 0.76821 0.72435 0.41295 0.0
C216 C 0.71403 0.602 0.43437 0.0
H217 H 0.71801 0.58555 0.4065 0.0
H218 H 0.72223 0.58775 0.46171 0.0
H219 H 0.67728 0.59311 0.43626 0.0
C220 C 0.71911 0.65375 0.2472 0.0
N221 N 0.6932 0.64968 0.27991 0.0
N222 N 0.71767 0.65632 0.31331 0.0
C223 C 0.75973 0.66276 0.3027 0.0
C224 C 0.76189 0.66124 0.2603 0.0
C225 C 0.70551 0.65679 0.20423 0.0
H226 H 0.6817 0.67101 0.20349 0.0
H227 H 0.68785 0.62165 0.19048 0.0
H228 H 0.73649 0.67946 0.18557 0.0
O229 O 0.63286 0.69446 0.29942 0.0
O230 O 0.67702 0.71486 0.35512 0.0
H231 H 0.81368 0.70507 0.34466 0.0
H232 H 0.82284 0.66255 0.31851 0.0
C233 C 0.79645 0.66908 0.33262 0.0
H234 H 0.7804 0.64476 0.35843 0.0
H235 H 0.77029 0.75251 0.39696 0.0
O236 O 0.60204 0.61528 0.23033 0.0
C237 C 0.65348 0.72265 0.32857 0.0
Co238 Co 1.00136 0.64203 0.46595 0.0
Co239 Co 0.02575 0.69091 0.54955 0.0
C240 C 0.02523 0.60016 0.53234 0.0
O241 O 0.01395 0.60023 0.4956 0.0
O242 O 0.02964 0.63186 0.557 0.0
C243 C 0.99028 0.58676 0.39425 0.0
O244 O 0.99115 0.55504 0.41752 0.0
C245 C 0.09451 0.74488 0.61196 0.0
C246 C 0.05855 0.77264 0.64869 0.0
C247 C 0.10118 0.77496 0.64426 0.0
N248 N 0.05083 0.72705 0.59799 0.0
N249 N 0.02918 0.74294 0.62063 0.0
C250 C 0.12918 0.7352 0.59204 0.0
H251 H 0.11508 0.7157 0.56325 0.0
H252 H 0.16186 0.76797 0.5856 0.0
H253 H 0.13714 0.71369 0.61275 0.0
C254 C 0.08078 0.73046 0.43936 0.0
N255 N 0.05205 0.70285 0.46867 0.0
N256 N 0.06185 0.72596 0.50318 0.0
C257 C 0.09646 0.77006 0.49609 0.0
C258 C 0.10935 0.77391 0.45547 0.0
C259 C 0.08204 0.71536 0.3968 0.0
H260 H 0.07595 0.67942 0.39671 0.0
H261 H 0.1159 0.73855 0.38206 0.0
H262 H 0.05456 0.71685 0.3789 0.0
O263 O 0.94445 0.64006 0.48286 0.0
O264 O 0.96008 0.67816 0.54137 0.0
H265 H 0.12304 0.84201 0.51035 0.0
H266 H 0.14713 0.81395 0.5398 0.0
C267 C 0.11456 0.80909 0.52605 0.0
H268 H 0.08874 0.80195 0.55023 0.0
H269 H 0.99504 0.73522 0.61574 0.0
O270 O 0.99212 0.62246 0.40995 0.0
C271 C 0.93221 0.65636 0.51212 0.0
Co272 Co 0.35627 0.99535 0.62743 0.0
Co273 Co 0.34162 0.03034 0.7108 0.0
C274 C 0.42634 0.02291 0.69269 0.0
O275 O 0.41157 1.00859 0.65714 0.0
O276 O 0.40252 0.03169 0.71773 0.0
C277 C 0.39189 0.96453 0.5635 0.0
O278 O 0.3995 0.9407 0.59134 0.0
C279 C 0.36251 0.09807 0.7763 0.0
C280 C 0.29233 0.08043 0.79613 0.0
C281 C 0.33886 0.11357 0.80075 0.0
N282 N 0.3313 0.05908 0.75705 0.0
N283 N 0.28949 0.04793 0.77005 0.0
C284 C 0.41388 0.1193 0.77118 0.0
H285 H 0.42327 0.09176 0.77261 0.0
H286 H 0.42427 0.13608 0.74083 0.0
H287 H 0.43331 0.14498 0.79548 0.0
C288 C 0.34613 0.07292 0.59686 0.0
N289 N 0.34746 0.04698 0.62776 0.0
N290 N 0.34285 0.06368 0.66259 0.0
C291 C 0.3388 0.10145 0.6547 0.0
C292 C 0.34061 0.10833 0.6128 0.0
C293 C 0.3532 0.06547 0.55315 0.0
H294 H 0.38826 0.06989 0.54971 0.0
H295 H 0.35032 0.0903 0.5325 0.0
H296 H 0.32736 0.02943 0.54414 0.0
O297 O 0.30147 0.93966 0.64811 0.0
O298 O 0.28771 0.96499 0.70619 0.0
H299 H 0.32433 0.15562 0.67234 0.0
H300 H 0.36367 0.14812 0.70519 0.0
C301 C 0.33187 0.12969 0.6863 0.0
H302 H 0.30262 0.10645 0.70631 0.0
H303 H 0.25877 0.01984 0.75904 0.0
O304 O 0.37078 0.98619 0.5724 0.0
C305 C 0.27709 0.93301 0.67982 0.0
Co306 Co 0.39628 0.38013 0.78706 0.0
Co307 Co 0.33507 0.35681 0.86498 0.0
C308 C 0.42728 0.44412 0.858 0.0
O309 O 0.4318 0.43263 0.82239 0.0
O310 O 0.39204 0.41761 0.87965 0.0
C311 C 0.4372 0.43851 0.72093 0.0
O312 O 0.42624 0.46474 0.74262 0.0
C313 C 0.27767 0.36857 0.92697 0.0
C314 C 0.22535 0.29571 0.94032 0.0
C315 C 0.23661 0.34112 0.94818 0.0
N316 N 0.28901 0.34058 0.90661 0.0
N317 N 0.25817 0.29709 0.9156 0.0
C318 C 0.30603 0.42053 0.92594 0.0
H319 H 0.30368 0.43332 0.89531 0.0
H320 H 0.29459 0.43653 0.9494 0.0
H321 H 0.34298 0.43159 0.9316 0.0
C322 C 0.30984 0.36291 0.74723 0.0
N323 N 0.33499 0.36767 0.78089 0.0
N324 N 0.30947 0.36106 0.81343 0.0
C325 C 0.26739 0.35356 0.80121 0.0
C326 C 0.26643 0.35463 0.75876 0.0
C327 C 0.32499 0.36077 0.7048 0.0
H328 H 0.34901 0.34682 0.70494 0.0
H329 H 0.34284 0.39618 0.6916 0.0
H330 H 0.29471 0.33838 0.68515 0.0
O331 O 0.39515 0.32447 0.8066 0.0
O332 O 0.34911 0.30428 0.8607 0.0
H333 H 0.21556 0.31281 0.84521 0.0
H334 H 0.20089 0.34827 0.81361 0.0
C335 C 0.22948 0.34682 0.82963 0.0
H336 H 0.24371 0.37446 0.85296 0.0
H337 H 0.25818 0.26824 0.90313 0.0
O338 O 0.42823 0.3992 0.73482 0.0
C339 C 0.37381 0.29655 0.83566 0.0
Co340 Co 0.01619 0.38713 0.94864 0.0
Co341 Co 0.98927 0.32707 0.02738 0.0
C342 C 0.99093 0.41947 0.02117 0.0
O343 O 1.00424 0.42433 -0.01532 0.0
O344 O 0.98438 0.38428 0.04217 0.0
C345 C 1.00943 0.44146 0.88456 0.0
O346 O 0.98124 0.44656 0.90904 0.0
C347 C 0.91825 0.2639 0.0853 0.0
C348 C 0.95616 0.23804 0.12216 0.0
C349 C 0.91279 0.23401 0.11757 0.0
N350 N 0.96232 0.28406 0.07196 0.0
N351 N 0.9849 0.26878 0.0944 0.0
C352 C 0.88224 0.27175 0.06536 0.0
H353 H 0.84988 0.23817 0.06013 0.0
H354 H 0.8744 0.29373 0.08537 0.0
H355 H 0.89507 0.29022 0.03596 0.0
C356 C 0.93809 0.30238 0.9145 0.0
N357 N 0.96503 0.32661 0.94612 0.0
N358 N 0.95694 0.29884 -0.02267 0.0
C359 C 0.92691 0.25488 0.96539 0.0
C360 C 0.91361 0.25552 0.92492 0.0
C361 C 0.93261 0.325 0.87703 0.0
H362 H 0.93352 0.35755 0.8856 0.0
H363 H 0.89897 0.30281 0.86153 0.0
H364 H 0.96157 0.3334 0.85574 0.0
O365 O 0.07238 0.38482 0.96362 0.0
O366 O 0.05525 0.34241 0.01999 0.0
H367 H 0.91008 0.18352 -0.02864 0.0
H368 H 0.88344 0.20276 0.00828 0.0
C369 C 0.9156 0.21311 -0.00919 0.0
H370 H 0.94413 0.22118 0.01268 0.0
H371 H 0.01974 0.27874 0.09033 0.0
O372 O 0.02736 0.4173 0.89574 0.0
C373 C 0.08369 0.3659 -0.00827 0.0
Co374 Co 0.65258 0.02286 0.12803 0.0
Co375 Co 0.67601 0.98881 0.20812 0.0
C376 C 0.58943 0.99626 0.19799 0.0
O377 O 0.59996 0.00983 0.16155 0.0
O378 O 0.61632 0.98859 0.22042 0.0
C379 C 0.59868 0.02213 0.05844 0.0
O380 O 0.56168 1.00142 0.08155 0.0
C381 C 0.66019 0.92103 0.27264 0.0
C382 C 0.73173 0.93811 0.28737 0.0
C383 C 0.68563 0.90535 0.29457 0.0
N384 N 0.68989 0.95983 0.25232 0.0
N385 N 0.73261 0.97062 0.26228 0.0
C386 C 0.60851 0.89962 0.27044 0.0
H387 H 0.59599 0.88443 0.23978 0.0
H388 H 0.59092 0.87258 0.29416 0.0
H389 H 0.59913 0.92689 0.27496 0.0
C390 C 0.66138 0.94602 0.0936 0.0
N391 N 0.66109 0.97093 0.12565 0.0
N392 N 0.66898 0.95437 0.15925 0.0
C393 C 0.67379 0.91749 0.14942 0.0
C394 C 0.66885 0.91096 0.10741 0.0
C395 C 0.66001 0.95903 0.05024 0.0
H396 H 0.68374 0.99687 0.04664 0.0
H397 H 0.6242 0.95061 0.04239 0.0
H398 H 0.67109 0.94072 0.02888 0.0
O399 O 0.70983 0.07788 0.14559 0.0
O400 O 0.73131 0.05335 0.20002 0.0
H401 H 0.71519 0.91059 0.19582 0.0
H402 H 0.68281 0.859 0.16508 0.0
C403 C 0.68196 0.88857 0.17963 0.0
H404 H 0.65363 0.87437 0.20225 0.0
H405 H 0.76243 0.99849 0.24981 0.0
O406 O 0.63852 0.03511 0.07353 0.0
C407 C 0.73887 0.08476 0.17374 0.0
C408 C 0.30714 0.13632 0.55906 0.0
C409 C 0.34022 0.14637 0.58984 0.0
H410 H 0.28367 0.16327 0.51088 0.0
C411 C 0.37504 0.19254 0.59641 0.0
H412 H 0.27985 0.10085 0.55369 0.0
C413 C 0.37769 0.22801 0.5716 0.0
C414 C 0.34537 0.21788 0.54003 0.0
H415 H 0.40108 0.20092 0.61983 0.0
H416 H 0.40571 0.26324 0.57647 0.0
C417 C 0.30959 0.17183 0.53443 0.0
C418 C 0.20493 0.379 0.6734 0.0
C419 C 0.15868 0.34478 0.67992 0.0
H420 H 0.27506 0.40986 0.69444 0.0
C421 C 0.14787 0.31211 0.71119 0.0
H422 H 0.2137 0.40501 0.64991 0.0
C423 C 0.18293 0.31444 0.7364 0.0
C424 C 0.22907 0.35008 0.73117 0.0
H425 H 0.11213 0.28579 0.71687 0.0
H426 H 0.17389 0.2889 0.76035 0.0
C427 C 0.23983 0.38182 0.69899 0.0
C428 C 0.80739 0.144 0.89054 0.0
C429 C 0.80968 0.14897 0.84788 0.0
H430 H 0.83548 0.1749 0.94805 0.0
C431 C 0.85004 0.18565 0.83083 0.0
H432 H 0.77875 0.11443 0.90502 0.0
C433 C 0.88568 0.21787 0.856 0.0
C434 C 0.88031 0.21621 0.89865 0.0
H435 H 0.85368 0.19063 0.79823 0.0
H436 H 0.91666 0.24517 0.84177 0.0
C437 C 0.8412 0.17802 0.91556 0.0
C438 C 0.71072 0.83499 0.05947 0.0
C439 C 0.67588 0.81069 0.03033 0.0
H440 H 0.73619 0.88662 0.10662 0.0
C441 C 0.63872 0.81898 0.02698 0.0
H442 H 0.73952 0.8287 0.06254 0.0
C443 C 0.63605 0.85078 0.05285 0.0
C444 C 0.67089 0.87534 0.08202 0.0
H445 H 0.61125 0.80004 0.00501 0.0
H446 H 0.60669 0.85623 0.05008 0.0
C447 C 0.70845 0.86744 0.08495 0.0
C448 C 0.8248 0.63981 0.17478 0.0
C449 C 0.87101 0.6733 0.18262 0.0
H450 H 0.75441 0.60832 0.19461 0.0
C451 C 0.88163 0.70363 0.21573 0.0
H452 H 0.81616 0.61536 0.14999 0.0
C453 C 0.84627 0.70028 0.24092 0.0
C454 C 0.79999 0.66577 0.23389 0.0
H455 H 0.91736 0.72921 0.22254 0.0
H456 H 0.85516 0.72446 0.26593 0.0
C457 C 0.78964 0.63576 0.20044 0.0
C458 C 0.17369 0.86444 0.37479 0.0
C459 C 0.21949 0.87463 0.38174 0.0
H460 H 0.10245 0.82437 0.39345 0.0
C461 C 0.22893 0.85457 0.41557 0.0
H462 H 0.16552 0.88014 0.34955 0.0
C463 C 0.19332 0.82446 0.44155 0.0
C464 C 0.14751 0.81315 0.43372 0.0
H465 H 0.26377 0.86126 0.42144 0.0
H466 H 0.20121 0.80816 0.46653 0.0
C467 C 0.13787 0.83344 0.40032 0.0
C468 C 0.32187 0.16095 0.27739 0.0
C469 C 0.34926 0.19413 0.30693 0.0
H470 H 0.30619 0.09775 0.24678 0.0
C471 C 0.38618 0.19142 0.32488 0.0
H472 H 0.29287 0.16192 0.26333 0.0
C473 C 0.39411 0.15525 0.31512 0.0
C474 C 0.36469 0.1201 0.28787 0.0
H475 H 0.40686 0.21489 0.34895 0.0
H476 H 0.42151 0.1532 0.3312 0.0
C477 C 0.32961 0.12432 0.26778 0.0
C478 C 0.19957 0.31378 0.42923 0.0
C479 C 0.23998 0.35719 0.43329 0.0
H480 H 0.12637 0.27392 0.43857 0.0
C481 C 0.23599 0.39617 0.44262 0.0
H482 H 0.20174 0.28314 0.42204 0.0
C483 C 0.19258 0.3912 0.45098 0.0
C484 C 0.15269 0.34684 0.45232 0.0
H485 H 0.2667 0.43021 0.44514 0.0
H486 H 0.191 0.42206 0.45793 0.0
C487 C 0.15635 0.30858 0.43891 0.0
C488 C 0.84481 0.16831 0.59447 0.0
C489 C 0.81911 0.16237 0.63018 0.0
H490 H 0.90462 0.2142 0.55887 0.0
C491 C 0.83332 0.20059 0.65621 0.0
H492 H 0.8351 0.13936 0.574 0.0
C493 C 0.87224 0.2432 0.64731 0.0
C494 C 0.89925 0.24882 0.61267 0.0
H495 H 0.81647 0.19742 0.68497 0.0
H496 H 0.88245 0.27115 0.66903 0.0
C497 C 0.88451 0.21118 0.58572 0.0
C498 C 0.68723 0.88726 0.75208 0.0
C499 C 0.6575 0.89761 0.77424 0.0
H500 H 0.71896 0.84488 0.74806 0.0
C501 C 0.63242 0.86861 0.80698 0.0
H502 H 0.70727 0.90903 0.72685 0.0
C503 C 0.63945 0.83247 0.81928 0.0
C504 C 0.671 0.82355 0.79864 0.0
H505 H 0.60925 0.87551 0.82486 0.0
H506 H 0.62248 0.81389 0.84678 0.0
C507 C 0.69406 0.85066 0.76432 0.0
C508 C 0.78619 0.62675 0.94717 0.0
C509 C 0.78331 0.66576 0.93524 0.0
H510 H 0.82982 0.59984 0.96453 0.0
C511 C 0.82437 0.70812 0.92917 0.0
H512 H 0.75494 0.59341 0.95126 0.0
C513 C 0.8673 0.71254 0.93912 0.0
C514 C 0.87009 0.67449 0.95482 0.0
H515 H 0.8231 0.73878 0.91995 0.0
H516 H 0.89793 0.74663 0.93688 0.0
C517 C 0.82925 0.63082 0.95583 0.0
C518 C 0.17296 0.85936 0.10923 0.0
C519 C 0.20316 0.85987 0.13968 0.0
H520 H 0.11197 0.81786 0.07305 0.0
C521 C 0.19792 0.81734 0.15294 0.0
H522 H 0.17592 0.89159 0.09859 0.0
C523 C 0.16197 0.77545 0.13796 0.0
C524 C 0.12951 0.77475 0.10998 0.0
H525 H 0.21897 0.81584 0.17738 0.0
H526 H 0.15758 0.74341 0.15072 0.0
C527 C 0.13655 0.81716 0.09434 0.0
C528 C 0.88181 0.69201 0.52197 0.0
C529 C 0.88756 0.65561 0.5072 0.0
H530 H 0.84414 0.72861 0.51652 0.0
C531 C 0.85434 0.62353 0.47993 0.0
H532 H 0.90705 0.71756 0.54266 0.0
C533 C 0.81903 0.63021 0.46454 0.0
C534 C 0.8152 0.66857 0.47674 0.0
H535 H 0.85781 0.59515 0.46784 0.0
H536 H 0.79749 0.60739 0.44048 0.0
C537 C 0.84601 0.69853 0.5067 0.0
C538 C 0.22922 0.8473 0.67097 0.0
C539 C 0.23227 0.88942 0.68216 0.0
H540 H 0.18528 0.7765 0.6543 0.0
C541 C 0.19138 0.89089 0.68804 0.0
H542 H 0.2604 0.84519 0.66699 0.0
C543 C 0.14837 0.85228 0.67836 0.0
C544 C 0.14545 0.81128 0.66313 0.0
H545 H 0.19287 0.92304 0.69665 0.0
H546 H 0.11784 0.85586 0.68021 0.0
C547 C 0.18608 0.80823 0.66262 0.0
C548 C 0.33848 0.21271 0.85697 0.0
C549 C 0.37245 0.25128 0.83536 0.0
H550 H 0.30188 0.13848 0.86337 0.0
C551 C 0.40032 0.24447 0.80736 0.0
H552 H 0.31631 0.21668 0.87867 0.0
C553 C 0.39138 0.19997 0.79796 0.0
C554 C 0.3554 0.16088 0.81736 0.0
H555 H 0.42689 0.2733 0.79012 0.0
H556 H 0.41038 0.19662 0.77291 0.0
C557 C 0.33008 0.16789 0.84803 0.0
C558 C 0.16024 0.39464 0.9576 0.0
C559 C 0.12829 0.36632 -0.01255 0.0
H560 H 0.21844 0.40823 0.9211 0.0
C561 C 0.13636 0.33401 0.00827 0.0
H562 H 0.15515 0.41983 0.94082 0.0
C563 C 0.17362 0.32791 -0.00273 0.0
C564 C 0.20379 0.35432 0.96564 0.0
H565 H 0.11233 0.31145 0.03125 0.0
H566 H 0.17758 0.30101 0.01221 0.0
C567 C 0.19723 0.38846 0.94661 0.0
C568 C 0.82531 0.12379 0.17231 0.0
C569 C 0.78495 0.12707 0.17035 0.0
H570 H 0.89701 0.15466 0.15646 0.0
C571 C 0.78833 0.16859 0.1564 0.0
H572 H 0.82364 0.09201 0.1826 0.0
C573 C 0.83049 0.20486 0.14193 0.0
C574 C 0.86985 0.19972 0.13954 0.0
H575 H 0.75776 0.17219 0.15498 0.0
H576 H 0.8314 0.23614 0.13173 0.0
C577 C 0.86728 0.15965 0.15689 0.0
C578 C 0.63452 0.81891 0.29075 0.0
C579 C 0.67019 0.858 0.31052 0.0
H580 H 0.60025 0.74563 0.28205 0.0
C581 C 0.69623 0.85118 0.3408 0.0
H582 H 0.61489 0.82246 0.26613 0.0
C583 C 0.68852 0.80651 0.34937 0.0
C584 C 0.65479 0.7679 0.32753 0.0
H585 H 0.72426 0.88067 0.3563 0.0
H586 H 0.71096 0.80271 0.3711 0.0
C587 C 0.6266 0.7745 0.29947 0.0
C588 C 0.48852 0.45907 0.35871 0.0
C589 C 0.47828 0.45398 0.40034 0.0
H590 H 0.5349 0.50183 0.3121 0.0
C591 C 0.51048 0.4871 0.42782 0.0
H592 H 0.46465 0.43403 0.3369 0.0
C593 C 0.55099 0.52576 0.41375 0.0
C594 C 0.55975 0.53232 0.37191 0.0
H595 H 0.50389 0.48375 0.46027 0.0
H596 H 0.57431 0.55144 0.43544 0.0
C597 C 0.52872 0.49802 0.34461 0.0
C598 C 0.03734 0.49288 0.52783 0.0
C599 C 0.03819 0.48299 0.56915 0.0
H600 H 0.03291 0.53781 0.48393 0.0
C601 C 0.03852 0.51417 0.59847 0.0
H602 H 0.03732 0.46984 0.50458 0.0
C603 C 0.03581 0.55314 0.58677 0.0
C604 C 0.03256 0.56171 0.54551 0.0
H605 H 0.03972 0.50792 0.63071 0.0
H606 H 0.03484 0.57565 0.61004 0.0
C607 C 0.03451 0.53178 0.51615 0.0
C608 C 0.52895 0.04074 0.75593 0.0
C609 C 0.55509 0.03177 0.72744 0.0
H610 H 0.46804 0.04502 0.7675 0.0
C611 C 0.54048 0.02352 0.68679 0.0
H612 H 0.5397 0.04795 0.78751 0.0
C613 C 0.49906 0.0217 0.6754 0.0
C614 C 0.47177 0.02845 0.70442 0.0
H615 H 0.55991 0.0166 0.66425 0.0
H616 H 0.48795 0.01394 0.64394 0.0
C617 C 0.48782 0.03915 0.74456 0.0
C618 C 0.53551 0.56242 0.86021 0.0
C619 C 0.54544 0.5687 0.90195 0.0
H620 H 0.49005 0.51805 0.81372 0.0
C621 C 0.51342 0.53583 0.92961 0.0
H622 H 0.5592 0.58721 0.83821 0.0
C623 C 0.47348 0.49629 0.91565 0.0
C624 C 0.46515 0.48865 0.87379 0.0
H625 H 0.51978 0.54 0.96211 0.0
H626 H 0.45034 0.47081 0.9375 0.0
C627 C 0.49591 0.52269 0.84627 0.0
C628 C 0.98853 0.46635 0.07991 0.0
C629 C 0.98458 0.45698 0.03816 0.0
H630 H 0.99425 0.51354 0.12649 0.0
C631 C 0.97877 0.48689 0.01129 0.0
H632 H 0.99288 0.44396 0.10129 0.0
C633 C 0.97977 0.52683 0.02545 0.0
C634 C 0.98661 0.53784 0.06689 0.0
H635 H 0.97474 0.48019 -0.02109 0.0
H636 H 0.97666 0.54973 0.00377 0.0
C637 C 0.98964 0.50649 0.09415 0.0
C638 C 0.49451 0.98205 0.26967 0.0
C639 C 0.46224 0.98336 0.24251 0.0
H640 H 0.55983 0.98483 0.27707 0.0
C641 C 0.47054 0.98538 0.20062 0.0
H642 H 0.48883 0.97996 0.30225 0.0
C643 C 0.51152 0.98861 0.18632 0.0
C644 C 0.54478 0.98938 0.21359 0.0
H645 H 0.44636 0.98634 0.17901 0.0
H646 H 0.51744 0.99134 0.1538 0.0
C647 C 0.53524 0.9848 0.25535 0.0
C648 C 0.46856 0.42704 0.65641 0.0
C649 C 0.44677 0.44753 0.67734 0.0
H650 H 0.48077 0.40562 0.59876 0.0
C651 C 0.42646 0.46906 0.65533 0.0
H652 H 0.48463 0.41046 0.67287 0.0
C653 C 0.423 0.46507 0.61307 0.0
C654 C 0.44118 0.44092 0.59243 0.0
H655 H 0.40936 0.48504 0.67085 0.0
H656 H 0.40379 0.47846 0.59681 0.0
C657 C 0.46636 0.42433 0.61409 0.0
C658 C 0.04468 0.45181 0.77663 0.0
C659 C 1.00216 0.4379 0.75716 0.0
H660 H 0.08062 0.46527 0.83331 0.0
C661 C 0.96541 0.43647 0.779 0.0
H662 H 0.07394 0.45461 0.75997 0.0
C663 C 0.96945 0.4432 0.82113 0.0
C664 C 1.01023 0.45129 0.84115 0.0
H665 H 0.93247 0.42617 0.76429 0.0
H666 H 0.9393 0.43746 0.83828 0.0
C667 C 0.04869 0.45841 0.81841 0.0
C668 C 0.62897 0.02108 0.94942 0.0
C669 C 0.58676 1.00667 0.92921 0.0
H670 H 0.66691 0.04225 0.00439 0.0
C671 C 0.54795 0.99962 0.95175 0.0
H672 H 0.65923 0.02532 0.93359 0.0
C673 C 0.55149 1.00583 -0.00588 0.0
C674 C 0.59429 0.02083 0.01383 0.0
H675 H 0.51492 0.98845 0.93689 0.0
H676 H 0.52089 0.99845 0.01137 0.0
C677 C 0.63318 0.03002 -0.00938 0.0
C678 C 0.57882 0.58851 0.10824 0.0
C679 C 0.59899 0.56417 0.09135 0.0
H680 H 0.56034 0.61026 0.16258 0.0
C681 C 0.60797 0.53519 0.11605 0.0
H682 H 0.57036 0.60997 0.08931 0.0
C683 C 0.60181 0.53494 0.15816 0.0
C684 C 0.58683 0.56384 0.17552 0.0
H685 H 0.62339 0.51604 0.10337 0.0
H686 H 0.61271 0.51549 0.1772 0.0
C687 C 0.57278 0.5884 0.15004 0.0
C688 C 0.01421 0.63026 0.28734 0.0
C689 C 0.01394 0.59363 0.26617 0.0
H690 H 1.00177 0.65435 0.34239 0.0
C691 C 1.00508 0.55326 0.28742 0.0
H692 H 0.02166 0.66227 0.27236 0.0
C693 C 0.9967 0.55004 0.32944 0.0
C694 C 0.99563 0.58654 0.34994 0.0
H695 H 1.00456 0.52442 0.27171 0.0
H696 H 0.99093 0.51922 0.3457 0.0
C697 C 1.00337 0.62599 0.32807 0.0
C698 C 0.40573 0.9341 0.49902 0.0
C699 C 0.41228 0.97164 0.52302 0.0
H700 H 0.4062 0.9106 0.43852 0.0
C701 C 0.43376 0.01649 0.50641 0.0
H702 H 0.38957 0.89933 0.51161 0.0
C703 C 0.44354 0.02311 0.46512 0.0
C704 C 0.43167 0.98485 0.43986 0.0
H705 H 0.44051 0.04611 0.52494 0.0
H706 H 0.45687 0.05762 0.4525 0.0
C707 C 0.41547 0.9407 0.45738 0.0
loop_
_geom_bond_atom_site_label_1
_geom_bond_atom_site_label_2
_geom_bond_distance
_geom_bond_site_symmetry_2
_ccdc_geom_bond_type
Co0 O3 1.970 . S
Co0 N17 1.989 . S
Co0 O25 1.967 . S
Co0 O32 1.920 . S
Co1 O4 1.966 . S
Co1 N10 2.022 . S
Co1 N18 1.993 . S
Co1 O26 1.941 . S
C2 O3 1.258 . S
C2 O4 1.263 . S
O3 Co0 1.970 . S
O3 C2 1.258 . S
O4 Co1 1.966 . S
O4 C2 1.263 . S
C5 O6 1.235 . S
C5 O32 1.289 . S
O6 C5 1.235 . S
C7 C9 1.400 . S
C7 N10 1.351 . S
C7 C12 1.501 . S
C8 C9 1.387 . S
C8 N11 1.341 . S
C9 C7 1.400 . S
C9 C8 1.387 . S
N10 Co1 2.022 . S
N10 C7 1.351 . S
N10 N11 1.365 . S
N11 C8 1.341 . S
N11 N10 1.365 . S
N11 H31 0.862 . S
C12 C7 1.501 . S
C12 H13 0.961 . S
C12 H14 0.961 . S
C12 H15 0.960 . S
H13 C12 0.961 . S
H14 C12 0.961 . S
H15 C12 0.960 . S
C16 N17 1.342 . S
C16 C20 1.401 . S
C16 C21 1.499 . S
N17 Co0 1.989 . S
N17 C16 1.342 . S
N17 N18 1.388 . S
N18 Co1 1.993 . S
N18 N17 1.388 . S
N18 C19 1.346 . S
C19 N18 1.346 . S
C19 C20 1.396 . S
C19 C29 1.510 . S
C20 C16 1.401 . S
C20 C19 1.396 . S
C21 C16 1.499 . S
C21 H22 0.959 . S
C21 H23 0.960 . S
C21 H24 0.961 . S
H22 C21 0.959 . S
H23 C21 0.960 . S
H24 C21 0.961 . S
O25 Co0 1.967 . S
O25 C33 1.258 . S
O26 Co1 1.941 . S
O26 C33 1.266 . S
H27 C29 0.959 . S
H28 C29 0.961 . S
C29 C19 1.510 . S
C29 H27 0.959 . S
C29 H28 0.961 . S
C29 H30 0.960 . S
H30 C29 0.960 . S
H31 N11 0.862 . S
O32 Co0 1.920 . S
O32 C5 1.289 . S
C33 O25 1.258 . S
C33 O26 1.266 . S
Co34 O37 1.970 . S
Co34 N51 1.989 . S
Co34 O59 1.967 1_455 S
Co34 O66 1.921 . S
Co35 O38 1.966 . S
Co35 N44 2.022 . S
Co35 N52 1.993 . S
Co35 O60 1.941 1_455 S
C36 O37 1.258 . S
C36 O38 1.263 . S
O37 Co34 1.970 . S
O37 C36 1.258 . S
O38 Co35 1.966 . S
O38 C36 1.263 . S
C39 O40 1.235 . S
C39 O66 1.289 . S
O40 C39 1.235 . S
C41 C43 1.400 . S
C41 N44 1.351 . S
C41 C46 1.501 . S
C42 C43 1.387 . S
C42 N45 1.341 . S
C43 C41 1.400 . S
C43 C42 1.387 . S
N44 Co35 2.022 . S
N44 C41 1.351 . S
N44 N45 1.365 . S
N45 C42 1.341 . S
N45 N44 1.365 . S
N45 H65 0.862 . S
C46 C41 1.501 . S
C46 H47 0.961 . S
C46 H48 0.961 . S
C46 H49 0.960 . S
H47 C46 0.961 . S
H48 C46 0.961 . S
H49 C46 0.960 . S
C50 N51 1.342 . S
C50 C54 1.401 . S
C50 C55 1.499 . S
N51 Co34 1.989 . S
N51 C50 1.342 . S
N51 N52 1.388 . S
N52 Co35 1.993 . S
N52 N51 1.388 . S
N52 C53 1.346 . S
C53 N52 1.346 . S
C53 C54 1.396 . S
C53 C63 1.510 . S
C54 C50 1.401 . S
C54 C53 1.396 . S
C55 C50 1.499 . S
C55 H56 0.959 . S
C55 H57 0.960 . S
C55 H58 0.961 . S
H56 C55 0.959 . S
H57 C55 0.960 . S
H58 C55 0.961 . S
O59 Co34 1.967 1_655 S
O59 C67 1.258 . S
O60 Co35 1.941 1_655 S
O60 C67 1.266 . S
H61 C63 0.959 . S
H62 C63 0.961 . S
C63 C53 1.510 . S
C63 H61 0.959 . S
C63 H62 0.961 . S
C63 H64 0.960 . S
H64 C63 0.960 . S
H65 N45 0.862 . S
O66 Co34 1.921 . S
O66 C39 1.289 . S
C67 O59 1.258 . S
C67 O60 1.266 . S
Co68 O71 1.970 . S
Co68 N85 1.989 . S
Co68 O93 1.967 1_545 S
Co68 O100 1.920 . S
Co69 O72 1.966 . S
Co69 N78 2.022 . S
Co69 N86 1.993 . S
Co69 O94 1.971 . S
C70 O71 1.258 . S
C70 O72 1.263 . S
O71 Co68 1.970 . S
O71 C70 1.258 . S
O72 Co69 1.966 . S
O72 C70 1.263 . S
C73 O74 1.235 . S
C73 O100 1.289 . S
O74 C73 1.235 . S
C75 C77 1.400 . S
C75 N78 1.351 . S
C75 C80 1.501 . S
C76 C77 1.387 . S
C76 N79 1.341 . S
C77 C75 1.400 . S
C77 C76 1.387 . S
N78 Co69 2.022 . S
N78 C75 1.351 . S
N78 N79 1.365 . S
N79 C76 1.341 . S
N79 N78 1.365 . S
N79 H99 0.862 . S
C80 C75 1.501 . S
C80 H81 0.961 . S
C80 H82 0.961 . S
C80 H83 0.960 . S
H81 C80 0.961 . S
H82 C80 0.961 . S
H83 C80 0.960 . S
C84 N85 1.342 . S
C84 C88 1.401 . S
C84 C89 1.499 . S
N85 Co68 1.989 . S
N85 C84 1.342 . S
N85 N86 1.388 . S
N86 Co69 1.993 . S
N86 N85 1.388 . S
N86 C87 1.346 . S
C87 N86 1.346 . S
C87 C88 1.396 . S
C87 C97 1.510 . S
C88 C84 1.401 . S
C88 C87 1.396 . S
C89 C84 1.499 . S
C89 H90 0.959 . S
C89 H91 0.960 . S
C89 H92 0.961 . S
H90 C89 0.959 . S
H91 C89 0.960 . S
H92 C89 0.961 . S
O93 Co68 1.967 1_565 S
O93 C101 1.258 . S
O94 Co69 1.971 . S
O94 C101 1.254 1_545 S
H95 C97 0.959 . S
H96 C97 0.961 . S
C97 C87 1.510 . S
C97 H95 0.959 . S
C97 H96 0.961 . S
C97 H98 0.960 . S
H98 C97 0.960 . S
H99 N79 0.862 . S
O100 Co68 1.920 . S
O100 C73 1.289 . S
C101 O93 1.258 . S
C101 O94 1.254 1_565 S
Co102 O105 1.970 1_554 S
Co102 N119 1.989 . S
Co102 O127 1.967 1_554 S
Co102 O134 1.920 . S
Co103 O106 1.966 . S
Co103 N112 2.022 . S
Co103 N120 1.993 . S
Co103 O128 1.941 . S
C104 O105 1.258 . S
C104 O106 1.263 . S
O105 Co102 1.970 1_556 S
O105 C104 1.258 . S
O106 Co103 1.966 . S
O106 C104 1.263 . S
C107 O108 1.235 . S
C107 O134 1.289 . S
O108 C107 1.235 . S
C109 C111 1.400 . S
C109 N112 1.351 . S
C109 C114 1.501 . S
C110 C111 1.387 . S
C110 N113 1.341 . S
C111 C109 1.400 . S
C111 C110 1.387 . S
N112 Co103 2.022 . S
N112 C109 1.351 . S
N112 N113 1.365 . S
N113 C110 1.341 . S
N113 N112 1.365 . S
N113 H133 0.862 . S
C114 C109 1.501 . S
C114 H115 0.961 . S
C114 H116 0.961 . S
C114 H117 0.960 . S
H115 C114 0.961 . S
H116 C114 0.961 . S
H117 C114 0.960 . S
C118 N119 1.342 . S
C118 C122 1.401 . S
C118 C123 1.499 . S
N119 Co102 1.989 . S
N119 C118 1.342 . S
N119 N120 1.388 1_554 S
N120 Co103 1.993 . S
N120 N119 1.388 1_556 S
N120 C121 1.346 . S
C121 N120 1.346 . S
C121 C122 1.396 1_556 S
C121 C131 1.510 . S
C122 C118 1.401 . S
C122 C121 1.396 1_554 S
C123 C118 1.499 . S
C123 H124 0.959 . S
C123 H125 0.960 . S
C123 H126 0.961 . S
H124 C123 0.959 . S
H125 C123 0.960 . S
H126 C123 0.961 . S
O127 Co102 1.967 1_556 S
O127 C135 1.258 . S
O128 Co103 1.941 . S
O128 C135 1.266 . S
H129 C131 0.959 . S
H130 C131 0.961 . S
C131 C121 1.510 . S
C131 H129 0.959 . S
C131 H130 0.961 . S
C131 H132 0.960 . S
H132 C131 0.960 . S
H133 N113 0.862 . S
O134 Co102 1.920 . S
O134 C107 1.289 . S
C135 O127 1.258 . S
C135 O128 1.266 . S
Co136 O139 1.970 . S
Co136 N153 1.989 . S
Co136 O161 1.967 1_655 S
Co136 O168 1.920 . S
Co137 O140 1.966 . S
Co137 N146 2.022 . S
Co137 N154 1.993 . S
Co137 O162 1.941 . S
C138 O139 1.258 . S
C138 O140 1.263 . S
O139 Co136 1.970 . S
O139 C138 1.258 . S
O140 Co137 1.966 . S
O140 C138 1.263 . S
C141 O142 1.235 . S
C141 O168 1.289 . S
O142 C141 1.235 . S
C143 C145 1.400 1_554 S
C143 N146 1.351 . S
C143 C148 1.501 1_554 S
C144 C145 1.387 . S
C144 N147 1.341 1_556 S
C145 C143 1.400 1_556 S
C145 C144 1.387 . S
N146 Co137 2.022 . S
N146 C143 1.351 . S
N146 N147 1.365 . S
N147 C144 1.341 1_554 S
N147 N146 1.365 . S
N147 H167 0.862 . S
C148 C143 1.501 1_556 S
C148 H149 0.961 1_556 S
C148 H150 0.961 1_556 S
C148 H151 0.960 . S
H149 C148 0.961 1_554 S
H150 C148 0.961 1_554 S
H151 C148 0.960 . S
C152 N153 1.342 . S
C152 C156 1.401 . S
C152 C157 1.499 . S
N153 Co136 1.989 . S
N153 C152 1.342 . S
N153 N154 1.388 . S
N154 Co137 1.993 . S
N154 N153 1.388 . S
N154 C155 1.346 . S
C155 N154 1.346 . S
C155 C156 1.396 . S
C155 C165 1.510 . S
C156 C152 1.401 . S
C156 C155 1.396 . S
C157 C152 1.499 . S
C157 H158 0.959 . S
C157 H159 0.960 . S
C157 H160 0.961 . S
H158 C157 0.959 . S
H159 C157 0.960 . S
H160 C157 0.961 . S
O161 Co136 1.967 1_455 S
O161 C169 1.258 . S
O162 Co137 1.941 . S
O162 C169 1.266 1_655 S
H163 C165 0.959 . S
H164 C165 0.961 . S
C165 C155 1.510 . S
C165 H163 0.959 . S
C165 H164 0.961 . S
C165 H166 0.960 . S
H166 C165 0.960 . S
H167 N147 0.862 . S
O168 Co136 1.920 . S
O168 C141 1.289 . S
C169 O161 1.258 . S
C169 O162 1.266 1_455 S
Co170 O173 1.970 . S
Co170 N187 1.989 . S
Co170 O195 1.967 1_565 S
Co170 O202 1.920 . S
Co171 O174 1.966 . S
Co171 N180 2.022 . S
Co171 N188 1.993 . S
Co171 O196 1.971 . S
C172 O173 1.258 . S
C172 O174 1.263 . S
O173 Co170 1.970 . S
O173 C172 1.258 . S
O174 Co171 1.966 . S
O174 C172 1.263 . S
C175 O176 1.235 . S
C175 O202 1.289 . S
O176 C175 1.235 . S
C177 C179 1.400 . S
C177 N180 1.351 . S
C177 C182 1.501 . S
C178 C179 1.387 . S
C178 N181 1.341 . S
C179 C177 1.400 . S
C179 C178 1.387 . S
N180 Co171 2.022 . S
N180 C177 1.351 . S
N180 N181 1.365 . S
N181 C178 1.341 . S
N181 N180 1.365 . S
N181 H201 0.862 . S
C182 C177 1.501 . S
C182 H183 0.961 . S
C182 H184 0.961 . S
C182 H185 0.960 . S
H183 C182 0.961 . S
H184 C182 0.961 . S
H185 C182 0.960 . S
C186 N187 1.342 . S
C186 C190 1.401 . S
C186 C191 1.499 . S
N187 Co170 1.989 . S
N187 C186 1.342 . S
N187 N188 1.388 . S
N188 Co171 1.993 . S
N188 N187 1.388 . S
N188 C189 1.346 . S
C189 N188 1.346 . S
C189 C190 1.396 . S
C189 C199 1.510 . S
C190 C186 1.401 . S
C190 C189 1.396 . S
C191 C186 1.499 . S
C191 H192 0.959 . S
C191 H193 0.960 . S
C191 H194 0.961 . S
H192 C191 0.959 . S
H193 C191 0.960 . S
H194 C191 0.961 . S
O195 Co170 1.967 1_545 S
O195 C203 1.258 . S
O196 Co171 1.971 . S
O196 C203 1.254 1_565 S
H197 C199 0.959 . S
H198 C199 0.961 . S
C199 C189 1.510 . S
C199 H197 0.959 . S
C199 H198 0.961 . S
C199 H200 0.960 . S
H200 C199 0.960 . S
H201 N181 0.862 . S
O202 Co170 1.920 . S
O202 C175 1.289 . S
C203 O195 1.258 . S
C203 O196 1.254 1_545 S
Co204 O207 1.970 . S
Co204 N221 1.989 . S
Co204 O229 1.967 . S
Co204 O236 1.920 . S
Co205 O208 1.966 . S
Co205 N214 2.022 . S
Co205 N222 1.993 . S
Co205 O230 1.941 . S
C206 O207 1.258 . S
C206 O208 1.263 . S
O207 Co204 1.970 . S
O207 C206 1.258 . S
O208 Co205 1.966 . S
O208 C206 1.263 . S
C209 O210 1.235 . S
C209 O236 1.289 . S
O210 C209 1.235 . S
C211 C213 1.400 . S
C211 N214 1.351 . S
C211 C216 1.501 . S
C212 C213 1.387 . S
C212 N215 1.341 . S
C213 C211 1.400 . S
C213 C212 1.387 . S
N214 Co205 2.022 . S
N214 C211 1.351 . S
N214 N215 1.365 . S
N215 C212 1.341 . S
N215 N214 1.365 . S
N215 H235 0.862 . S
C216 C211 1.501 . S
C216 H217 0.961 . S
C216 H218 0.961 . S
C216 H219 0.960 . S
H217 C216 0.961 . S
H218 C216 0.961 . S
H219 C216 0.960 . S
C220 N221 1.342 . S
C220 C224 1.401 . S
C220 C225 1.499 . S
N221 Co204 1.989 . S
N221 C220 1.342 . S
N221 N222 1.388 . S
N222 Co205 1.993 . S
N222 N221 1.388 . S
N222 C223 1.346 . S
C223 N222 1.346 . S
C223 C224 1.396 . S
C223 C233 1.510 . S
C224 C220 1.401 . S
C224 C223 1.396 . S
C225 C220 1.499 . S
C225 H226 0.959 . S
C225 H227 0.960 . S
C225 H228 0.961 . S
H226 C225 0.959 . S
H227 C225 0.960 . S
H228 C225 0.961 . S
O229 Co204 1.967 . S
O229 C237 1.258 . S
O230 Co205 1.941 . S
O230 C237 1.266 . S
H231 C233 0.959 . S
H232 C233 0.961 . S
C233 C223 1.510 . S
C233 H231 0.959 . S
C233 H232 0.961 . S
C233 H234 0.960 . S
H234 C233 0.960 . S
H235 N215 0.862 . S
O236 Co204 1.920 . S
O236 C209 1.289 . S
C237 O229 1.258 . S
C237 O230 1.266 . S
Co238 O241 1.970 . S
Co238 N255 1.989 . S
Co238 O263 1.967 1_455 S
Co238 O270 1.921 . S
Co239 O242 1.966 . S
Co239 N248 2.022 . S
Co239 N256 1.993 . S
Co239 O264 1.941 1_455 S
C240 O241 1.258 . S
C240 O242 1.263 . S
O241 Co238 1.970 . S
O241 C240 1.258 . S
O242 Co239 1.966 . S
O242 C240 1.263 . S
C243 O244 1.235 . S
C243 O270 1.290 . S
O244 C243 1.235 . S
C245 C247 1.400 . S
C245 N248 1.351 . S
C245 C250 1.501 . S
C246 C247 1.387 . S
C246 N249 1.341 . S
C247 C245 1.400 . S
C247 C246 1.387 . S
N248 Co239 2.022 . S
N248 C245 1.351 . S
N248 N249 1.365 . S
N249 C246 1.341 . S
N249 N248 1.365 . S
N249 H269 0.862 . S
C250 C245 1.501 . S
C250 H251 0.961 . S
C250 H252 0.961 . S
C250 H253 0.960 . S
H251 C250 0.961 . S
H252 C250 0.961 . S
H253 C250 0.960 . S
C254 N255 1.342 . S
C254 C258 1.401 . S
C254 C259 1.499 . S
N255 Co238 1.989 . S
N255 C254 1.342 . S
N255 N256 1.388 . S
N256 Co239 1.993 . S
N256 N255 1.388 . S
N256 C257 1.346 . S
C257 N256 1.346 . S
C257 C258 1.396 . S
C257 C267 1.510 . S
C258 C254 1.401 . S
C258 C257 1.396 . S
C259 C254 1.499 . S
C259 H260 0.959 . S
C259 H261 0.960 . S
C259 H262 0.961 . S
H260 C259 0.959 . S
H261 C259 0.960 . S
H262 C259 0.961 . S
O263 Co238 1.967 1_655 S
O263 C271 1.258 . S
O264 Co239 1.941 1_655 S
O264 C271 1.266 . S
H265 C267 0.959 . S
H266 C267 0.961 . S
C267 C257 1.510 . S
C267 H265 0.959 . S
C267 H266 0.961 . S
C267 H268 0.960 . S
H268 C267 0.960 . S
H269 N249 0.862 . S
O270 Co238 1.921 . S
O270 C243 1.290 . S
C271 O263 1.258 . S
C271 O264 1.266 . S
Co272 O275 1.970 . S
Co272 N289 1.989 . S
Co272 O297 1.967 1_545 S
Co272 O304 1.920 . S
Co273 O276 1.966 . S
Co273 N282 2.022 . S
Co273 N290 1.993 . S
Co273 O298 1.960 . S
C274 O275 1.258 . S
C274 O276 1.263 . S
O275 Co272 1.970 . S
O275 C274 1.258 . S
O276 Co273 1.966 . S
O276 C274 1.263 . S
C277 O278 1.235 . S
C277 O304 1.289 . S
O278 C277 1.235 . S
C279 C281 1.400 . S
C279 N282 1.351 . S
C279 C284 1.501 . S
C280 C281 1.387 . S
C280 N283 1.341 . S
C281 C279 1.400 . S
C281 C280 1.387 . S
N282 Co273 2.022 . S
N282 C279 1.351 . S
N282 N283 1.365 . S
N283 C280 1.341 . S
N283 N282 1.365 . S
N283 H303 0.862 . S
C284 C279 1.501 . S
C284 H285 0.961 . S
C284 H286 0.961 . S
C284 H287 0.960 . S
H285 C284 0.961 . S
H286 C284 0.961 . S
H287 C284 0.960 . S
C288 N289 1.342 . S
C288 C292 1.401 . S
C288 C293 1.499 . S
N289 Co272 1.989 . S
N289 C288 1.342 . S
N289 N290 1.388 . S
N290 Co273 1.993 . S
N290 N289 1.388 . S
N290 C291 1.346 . S
C291 N290 1.346 . S
C291 C292 1.396 . S
C291 C301 1.510 . S
C292 C288 1.401 . S
C292 C291 1.396 . S
C293 C288 1.499 . S
C293 H294 0.959 . S
C293 H295 0.960 . S
C293 H296 0.961 . S
H294 C293 0.959 . S
H295 C293 0.960 . S
H296 C293 0.961 . S
O297 Co272 1.967 1_565 S
O297 C305 1.258 . S
O298 Co273 1.960 . S
O298 C305 1.244 1_545 S
H299 C301 0.959 . S
H300 C301 0.961 . S
C301 C291 1.510 . S
C301 H299 0.959 . S
C301 H300 0.961 . S
C301 H302 0.960 . S
H302 C301 0.960 . S
H303 N283 0.862 . S
O304 Co272 1.920 . S
O304 C277 1.289 . S
C305 O297 1.258 . S
C305 O298 1.244 1_565 S
Co306 O309 1.970 . S
Co306 N323 1.989 . S
Co306 O331 1.967 . S
Co306 O338 1.920 . S
Co307 O310 1.966 . S
Co307 N316 2.022 . S
Co307 N324 1.993 . S
Co307 O332 1.941 . S
C308 O309 1.258 . S
C308 O310 1.263 . S
O309 Co306 1.970 . S
O309 C308 1.258 . S
O310 Co307 1.966 . S
O310 C308 1.263 . S
C311 O312 1.235 . S
C311 O338 1.289 . S
O312 C311 1.235 . S
C313 C315 1.400 1_556 S
C313 N316 1.351 . S
C313 C318 1.501 1_556 S
C314 C315 1.387 . S
C314 N317 1.341 1_554 S
C315 C313 1.400 1_554 S
C315 C314 1.387 . S
N316 Co307 2.022 . S
N316 C313 1.351 . S
N316 N317 1.365 . S
N317 C314 1.341 1_556 S
N317 N316 1.365 . S
N317 H337 0.862 . S
C318 C313 1.501 1_554 S
C318 H319 0.961 1_554 S
C318 H320 0.961 1_554 S
C318 H321 0.960 . S
H319 C318 0.961 1_556 S
H320 C318 0.961 1_556 S
H321 C318 0.960 . S
C322 N323 1.342 . S
C322 C326 1.401 . S
C322 C327 1.499 . S
N323 Co306 1.989 . S
N323 C322 1.342 . S
N323 N324 1.388 . S
N324 Co307 1.993 . S
N324 N323 1.388 . S
N324 C325 1.346 . S
C325 N324 1.346 . S
C325 C326 1.396 . S
C325 C335 1.510 . S
C326 C322 1.401 . S
C326 C325 1.396 . S
C327 C322 1.499 . S
C327 H328 0.959 . S
C327 H329 0.960 . S
C327 H330 0.961 . S
H328 C327 0.959 . S
H329 C327 0.960 . S
H330 C327 0.961 . S
O331 Co306 1.967 . S
O331 C339 1.258 . S
O332 Co307 1.941 . S
O332 C339 1.266 . S
H333 C335 0.959 . S
H334 C335 0.961 . S
C335 C325 1.510 . S
C335 H333 0.959 . S
C335 H334 0.961 . S
C335 H336 0.960 . S
H336 C335 0.960 . S
H337 N317 0.862 . S
O338 Co306 1.920 . S
O338 C311 1.289 . S
C339 O331 1.258 . S
C339 O332 1.266 . S
Co340 O343 1.970 1_556 S
Co340 N357 1.989 . S
Co340 O365 1.967 1_656 S
Co340 O372 1.920 . S
Co341 O344 1.966 . S
Co341 N350 2.022 . S
Co341 N358 1.993 . S
Co341 O366 1.941 . S
C342 O343 1.258 . S
C342 O344 1.263 . S
O343 Co340 1.970 1_554 S
O343 C342 1.258 . S
O344 Co341 1.966 . S
O344 C342 1.263 . S
C345 O346 1.235 . S
C345 O372 1.289 . S
O346 C345 1.235 . S
C347 C349 1.400 . S
C347 N350 1.351 . S
C347 C352 1.501 . S
C348 C349 1.387 . S
C348 N351 1.341 . S
C349 C347 1.400 . S
C349 C348 1.387 . S
N350 Co341 2.022 . S
N350 C347 1.351 . S
N350 N351 1.365 . S
N351 C348 1.341 . S
N351 N350 1.365 . S
N351 H371 0.862 . S
C352 C347 1.501 . S
C352 H353 0.961 . S
C352 H354 0.961 . S
C352 H355 0.960 . S
H353 C352 0.961 . S
H354 C352 0.961 . S
H355 C352 0.960 . S
C356 N357 1.342 . S
C356 C360 1.401 . S
C356 C361 1.499 . S
N357 Co340 1.989 . S
N357 C356 1.342 . S
N357 N358 1.388 1_556 S
N358 Co341 1.993 . S
N358 N357 1.388 1_554 S
N358 C359 1.346 . S
C359 N358 1.346 . S
C359 C360 1.396 1_554 S
C359 C369 1.510 . S
C360 C356 1.401 . S
C360 C359 1.396 1_556 S
C361 C356 1.499 . S
C361 H362 0.959 . S
C361 H363 0.960 . S
C361 H364 0.961 . S
H362 C361 0.959 . S
H363 C361 0.960 . S
H364 C361 0.961 . S
O365 Co340 1.967 1_454 S
O365 C373 1.258 . S
O366 Co341 1.941 . S
O366 C373 1.266 1_655 S
H367 C369 0.959 . S
H368 C369 0.961 . S
C369 C359 1.510 . S
C369 H367 0.959 . S
C369 H368 0.961 . S
C369 H370 0.960 . S
H370 C369 0.960 . S
H371 N351 0.862 . S
O372 Co340 1.920 . S
O372 C345 1.289 . S
C373 O365 1.258 . S
C373 O366 1.266 1_455 S
Co374 O377 1.970 . S
Co374 N391 1.989 . S
Co374 O399 1.967 1_565 S
Co374 O406 1.920 . S
Co375 O378 1.966 . S
Co375 N384 2.022 . S
Co375 N392 1.993 . S
Co375 O400 1.960 . S
C376 O377 1.258 . S
C376 O378 1.263 . S
O377 Co374 1.970 . S
O377 C376 1.258 . S
O378 Co375 1.966 . S
O378 C376 1.263 . S
C379 O380 1.235 . S
C379 O406 1.289 . S
O380 C379 1.235 . S
C381 C383 1.400 . S
C381 N384 1.351 . S
C381 C386 1.501 . S
C382 C383 1.387 . S
C382 N385 1.341 . S
C383 C381 1.400 . S
C383 C382 1.387 . S
N384 Co375 2.022 . S
N384 C381 1.351 . S
N384 N385 1.365 . S
N385 C382 1.341 . S
N385 N384 1.365 . S
N385 H405 0.862 . S
C386 C381 1.501 . S
C386 H387 0.961 . S
C386 H388 0.961 . S
C386 H389 0.960 . S
H387 C386 0.961 . S
H388 C386 0.961 . S
H389 C386 0.960 . S
C390 N391 1.342 . S
C390 C394 1.401 . S
C390 C395 1.499 . S
N391 Co374 1.989 . S
N391 C390 1.342 . S
N391 N392 1.388 . S
N392 Co375 1.993 . S
N392 N391 1.388 . S
N392 C393 1.346 . S
C393 N392 1.346 . S
C393 C394 1.396 . S
C393 C403 1.510 . S
C394 C390 1.401 . S
C394 C393 1.396 . S
C395 C390 1.499 . S
C395 H396 0.959 . S
C395 H397 0.960 . S
C395 H398 0.961 . S
H396 C395 0.959 . S
H397 C395 0.960 . S
H398 C395 0.961 . S
O399 Co374 1.967 1_545 S
O399 C407 1.258 . S
O400 Co375 1.960 . S
O400 C407 1.244 1_565 S
H401 C403 0.959 . S
H402 C403 0.961 . S
C403 C393 1.510 . S
C403 H401 0.959 . S
C403 H402 0.961 . S
C403 H404 0.960 . S
H404 C403 0.960 . S
H405 N385 0.862 . S
O406 Co374 1.920 . S
O406 C379 1.289 . S
C407 O399 1.258 . S
C407 O400 1.244 1_545 S
C408 C409 1.387 . S
C408 H412 0.950 . S
C408 C417 1.390 . S
C409 C408 1.387 . S
C409 C411 1.387 . S
H410 C417 0.950 . S
C411 C409 1.387 . S
C411 C413 1.390 . S
C411 H415 0.950 . S
H412 C408 0.950 . S
C413 C411 1.390 . S
C413 C414 1.387 . S
C413 H416 0.950 . S
C414 C413 1.387 . S
C414 C417 1.387 . S
H415 C411 0.950 . S
H416 C413 0.950 . S
C417 C408 1.390 . S
C417 H410 0.950 . S
C417 C414 1.387 . S
C418 C419 1.387 . S
C418 H422 0.950 . S
C418 C427 1.390 . S
C419 C418 1.387 . S
C419 C421 1.387 . S
H420 C427 0.950 . S
C421 C419 1.387 . S
C421 C423 1.390 . S
C421 H425 0.950 . S
H422 C418 0.950 . S
C423 C421 1.390 . S
C423 C424 1.387 . S
C423 H426 0.950 . S
C424 C423 1.387 . S
C424 C427 1.387 . S
H425 C421 0.950 . S
H426 C423 0.950 . S
C427 C418 1.390 . S
C427 H420 0.950 . S
C427 C424 1.387 . S
C428 C429 1.387 . S
C428 H432 0.950 . S
C428 C437 1.390 . S
C429 C428 1.387 . S
C429 C431 1.387 . S
H430 C437 0.950 . S
C431 C429 1.387 . S
C431 C433 1.390 . S
C431 H435 0.950 . S
H432 C428 0.950 . S
C433 C431 1.390 . S
C433 C434 1.387 . S
C433 H436 0.950 . S
C434 C433 1.387 . S
C434 C437 1.387 . S
H435 C431 0.950 . S
H436 C433 0.950 . S
C437 C428 1.390 . S
C437 H430 0.950 . S
C437 C434 1.387 . S
C438 C439 1.387 . S
C438 H442 0.950 . S
C438 C447 1.390 . S
C439 C438 1.387 . S
C439 C441 1.387 . S
H440 C447 0.950 . S
C441 C439 1.387 . S
C441 C443 1.390 . S
C441 H445 0.950 . S
H442 C438 0.950 . S
C443 C441 1.390 . S
C443 C444 1.387 . S
C443 H446 0.950 . S
C444 C443 1.387 . S
C444 C447 1.387 . S
H445 C441 0.950 . S
H446 C443 0.950 . S
C447 C438 1.390 . S
C447 H440 0.950 . S
C447 C444 1.387 . S
C448 C449 1.387 . S
C448 H452 0.950 . S
C448 C457 1.390 . S
C449 C448 1.387 . S
C449 C451 1.387 . S
H450 C457 0.950 . S
C451 C449 1.387 . S
C451 C453 1.390 . S
C451 H455 0.950 . S
H452 C448 0.950 . S
C453 C451 1.390 . S
C453 C454 1.387 . S
C453 H456 0.950 . S
C454 C453 1.387 . S
C454 C457 1.387 . S
H455 C451 0.950 . S
H456 C453 0.950 . S
C457 C448 1.390 . S
C457 H450 0.950 . S
C457 C454 1.387 . S
C458 C459 1.387 . S
C458 H462 0.950 . S
C458 C467 1.390 . S
C459 C458 1.387 . S
C459 C461 1.387 . S
H460 C467 0.950 . S
C461 C459 1.387 . S
C461 C463 1.390 . S
C461 H465 0.950 . S
H462 C458 0.950 . S
C463 C461 1.390 . S
C463 C464 1.387 . S
C463 H466 0.950 . S
C464 C463 1.387 . S
C464 C467 1.387 . S
H465 C461 0.950 . S
H466 C463 0.950 . S
C467 C458 1.390 . S
C467 H460 0.950 . S
C467 C464 1.387 . S
C468 C469 1.387 . S
C468 H472 0.950 . S
C468 C477 1.390 . S
C469 C468 1.387 . S
C469 C471 1.387 . S
H470 C477 0.950 . S
C471 C469 1.387 . S
C471 C473 1.390 . S
C471 H475 0.950 . S
H472 C468 0.950 . S
C473 C471 1.390 . S
C473 C474 1.387 . S
C473 H476 0.950 . S
C474 C473 1.387 . S
C474 C477 1.387 . S
H475 C471 0.950 . S
H476 C473 0.950 . S
C477 C468 1.390 . S
C477 H470 0.950 . S
C477 C474 1.387 . S
C478 C479 1.387 . S
C478 H482 0.950 . S
C478 C487 1.390 . S
C479 C478 1.387 . S
C479 C481 1.387 . S
H480 C487 0.950 . S
C481 C479 1.387 . S
C481 C483 1.390 . S
C481 H485 0.950 . S
H482 C478 0.950 . S
C483 C481 1.390 . S
C483 C484 1.387 . S
C483 H486 0.950 . S
C484 C483 1.387 . S
C484 C487 1.387 . S
H485 C481 0.950 . S
H486 C483 0.950 . S
C487 C478 1.390 . S
C487 H480 0.950 . S
C487 C484 1.387 . S
C488 C489 1.387 . S
C488 H492 0.950 . S
C488 C497 1.390 . S
C489 C488 1.387 . S
C489 C491 1.387 . S
H490 C497 0.950 . S
C491 C489 1.387 . S
C491 C493 1.390 . S
C491 H495 0.950 . S
H492 C488 0.950 . S
C493 C491 1.390 . S
C493 C494 1.387 . S
C493 H496 0.950 . S
C494 C493 1.387 . S
C494 C497 1.387 . S
H495 C491 0.950 . S
H496 C493 0.950 . S
C497 C488 1.390 . S
C497 H490 0.950 . S
C497 C494 1.387 . S
C498 C499 1.387 . S
C498 H502 0.950 . S
C498 C507 1.390 . S
C499 C498 1.387 . S
C499 C501 1.387 . S
H500 C507 0.950 . S
C501 C499 1.387 . S
C501 C503 1.390 . S
C501 H505 0.950 . S
H502 C498 0.950 . S
C503 C501 1.390 . S
C503 C504 1.387 . S
C503 H506 0.950 . S
C504 C503 1.387 . S
C504 C507 1.387 . S
H505 C501 0.950 . S
H506 C503 0.950 . S
C507 C498 1.390 . S
C507 H500 0.950 . S
C507 C504 1.387 . S
C508 C509 1.387 . S
C508 H512 0.950 . S
C508 C517 1.390 . S
C509 C508 1.387 . S
C509 C511 1.387 . S
H510 C517 0.950 . S
C511 C509 1.387 . S
C511 C513 1.390 . S
C511 H515 0.950 . S
H512 C508 0.950 . S
C513 C511 1.390 . S
C513 C514 1.387 . S
C513 H516 0.950 1_556 S
C514 C513 1.387 . S
C514 C517 1.387 . S
H515 C511 0.950 . S
H516 C513 0.950 1_554 S
C517 C508 1.390 . S
C517 H510 0.950 . S
C517 C514 1.387 . S
C518 C519 1.387 . S
C518 H522 0.950 . S
C518 C527 1.390 . S
C519 C518 1.387 . S
C519 C521 1.387 . S
H520 C527 0.950 . S
C521 C519 1.387 . S
C521 C523 1.390 . S
C521 H525 0.950 . S
H522 C518 0.950 . S
C523 C521 1.390 . S
C523 C524 1.387 . S
C523 H526 0.950 . S
C524 C523 1.387 . S
C524 C527 1.387 . S
H525 C521 0.950 . S
H526 C523 0.950 . S
C527 C518 1.390 . S
C527 H520 0.950 . S
C527 C524 1.387 . S
C528 C529 1.387 . S
C528 H532 0.950 . S
C528 C537 1.390 . S
C529 C528 1.387 . S
C529 C531 1.387 . S
H530 C537 0.950 . S
C531 C529 1.387 . S
C531 C533 1.390 . S
C531 H535 0.950 . S
H532 C528 0.950 . S
C533 C531 1.390 . S
C533 C534 1.387 . S
C533 H536 0.950 . S
C534 C533 1.387 . S
C534 C537 1.387 . S
H535 C531 0.950 . S
H536 C533 0.950 . S
C537 C528 1.390 . S
C537 H530 0.950 . S
C537 C534 1.387 . S
C538 C539 1.387 . S
C538 H542 0.950 . S
C538 C547 1.390 . S
C539 C538 1.387 . S
C539 C541 1.387 . S
H540 C547 0.950 . S
C541 C539 1.387 . S
C541 C543 1.390 . S
C541 H545 0.950 . S
H542 C538 0.950 . S
C543 C541 1.390 . S
C543 C544 1.387 . S
C543 H546 0.950 . S
C544 C543 1.387 . S
C544 C547 1.387 . S
H545 C541 0.950 . S
H546 C543 0.950 . S
C547 C538 1.390 . S
C547 H540 0.950 . S
C547 C544 1.387 . S
C548 C549 1.387 . S
C548 H552 0.950 . S
C548 C557 1.390 . S
C549 C548 1.387 . S
C549 C551 1.387 . S
H550 C557 0.950 . S
C551 C549 1.387 . S
C551 C553 1.390 . S
C551 H555 0.950 . S
H552 C548 0.950 . S
C553 C551 1.390 . S
C553 C554 1.387 . S
C553 H556 0.950 . S
C554 C553 1.387 . S
C554 C557 1.387 . S
H555 C551 0.950 . S
H556 C553 0.950 . S
C557 C548 1.390 . S
C557 H550 0.950 . S
C557 C554 1.387 . S
C558 C559 1.387 . S
C558 H562 0.950 1_554 S
C558 C567 1.390 . S
C559 C558 1.387 . S
C559 C561 1.387 . S
H560 C567 0.950 1_556 S
C561 C559 1.387 . S
C561 C563 1.390 . S
C561 H565 0.950 . S
H562 C558 0.950 1_556 S
C563 C561 1.390 . S
C563 C564 1.387 . S
C563 H566 0.950 . S
C564 C563 1.387 . S
C564 C567 1.387 . S
H565 C561 0.950 . S
H566 C563 0.950 . S
C567 C558 1.390 . S
C567 H560 0.950 1_554 S
C567 C564 1.387 . S
C568 C569 1.387 . S
C568 H572 0.950 . S
C568 C577 1.390 . S
C569 C568 1.387 . S
C569 C571 1.387 . S
H570 C577 0.950 . S
C571 C569 1.387 . S
C571 C573 1.390 . S
C571 H575 0.950 . S
H572 C568 0.950 . S
C573 C571 1.390 . S
C573 C574 1.387 . S
C573 H576 0.950 . S
C574 C573 1.387 . S
C574 C577 1.387 . S
H575 C571 0.950 . S
H576 C573 0.950 . S
C577 C568 1.390 . S
C577 H570 0.950 . S
C577 C574 1.387 . S
C578 C579 1.387 . S
C578 H582 0.950 . S
C578 C587 1.390 . S
C579 C578 1.387 . S
C579 C581 1.387 . S
H580 C587 0.950 . S
C581 C579 1.387 . S
C581 C583 1.390 . S
C581 H585 0.950 . S
H582 C578 0.950 . S
C583 C581 1.390 . S
C583 C584 1.387 . S
C583 H586 0.950 . S
C584 C583 1.387 . S
C584 C587 1.387 . S
H585 C581 0.950 . S
H586 C583 0.950 . S
C587 C578 1.390 . S
C587 H580 0.950 . S
C587 C584 1.387 . S
C588 C589 1.387 . S
C588 H592 0.950 . S
C588 C597 1.390 . S
C589 C588 1.387 . S
C589 C591 1.387 . S
H590 C597 0.950 . S
C591 C589 1.387 . S
C591 C593 1.390 . S
C591 H595 0.950 . S
H592 C588 0.950 . S
C593 C591 1.390 . S
C593 C594 1.387 . S
C593 H596 0.950 . S
C594 C593 1.387 . S
C594 C597 1.387 . S
H595 C591 0.950 . S
H596 C593 0.950 . S
C597 C588 1.390 . S
C597 H590 0.950 . S
C597 C594 1.387 . S
C598 C599 1.387 . S
C598 H602 0.950 . S
C598 C607 1.390 . S
C599 C598 1.387 . S
C599 C601 1.387 . S
H600 C607 0.950 . S
C601 C599 1.387 . S
C601 C603 1.390 . S
C601 H605 0.950 . S
H602 C598 0.950 . S
C603 C601 1.390 . S
C603 C604 1.387 . S
C603 H606 0.950 . S
C604 C603 1.387 . S
C604 C607 1.387 . S
H605 C601 0.950 . S
H606 C603 0.950 . S
C607 C598 1.390 . S
C607 H600 0.950 . S
C607 C604 1.387 . S
C608 C609 1.387 . S
C608 H612 0.950 . S
C608 C617 1.390 . S
C609 C608 1.387 . S
C609 C611 1.387 1_545 S
H610 C617 0.950 . S
C611 C609 1.387 1_565 S
C611 C613 1.390 . S
C611 H615 0.950 . S
H612 C608 0.950 . S
C613 C611 1.390 . S
C613 C614 1.387 1_565 S
C613 H616 0.950 . S
C614 C613 1.387 1_545 S
C614 C617 1.387 . S
H615 C611 0.950 . S
H616 C613 0.950 . S
C617 C608 1.390 . S
C617 H610 0.950 . S
C617 C614 1.387 . S
C618 C619 1.387 . S
C618 H622 0.950 . S
C618 C627 1.390 . S
C619 C618 1.387 . S
C619 C621 1.387 . S
H620 C627 0.950 . S
C621 C619 1.387 . S
C621 C623 1.390 . S
C621 H625 0.950 . S
H622 C618 0.950 . S
C623 C621 1.390 . S
C623 C624 1.387 . S
C623 H626 0.950 . S
C624 C623 1.387 . S
C624 C627 1.387 . S
H625 C621 0.950 . S
H626 C623 0.950 . S
C627 C618 1.390 . S
C627 H620 0.950 . S
C627 C624 1.387 . S
C628 C629 1.387 . S
C628 H632 0.950 . S
C628 C637 1.390 . S
C629 C628 1.387 . S
C629 C631 1.387 . S
H630 C637 0.950 . S
C631 C629 1.387 . S
C631 C633 1.390 . S
C631 H635 0.949 . S
H632 C628 0.950 . S
C633 C631 1.390 . S
C633 C634 1.387 . S
C633 H636 0.946 1_655 S
C634 C633 1.387 . S
C634 C637 1.387 . S
H635 C631 0.949 . S
H636 C633 0.946 1_455 S
C637 C628 1.390 . S
C637 H630 0.950 . S
C637 C634 1.387 . S
C638 C639 1.387 . S
C638 H642 0.950 . S
C638 C647 1.390 . S
C639 C638 1.387 . S
C639 C641 1.387 1_565 S
H640 C647 0.950 . S
C641 C639 1.387 1_545 S
C641 C643 1.390 . S
C641 H645 0.950 . S
H642 C638 0.950 . S
C643 C641 1.390 . S
C643 C644 1.387 1_545 S
C643 H646 0.950 . S
C644 C643 1.387 1_565 S
C644 C647 1.387 . S
H645 C641 0.950 . S
H646 C643 0.950 . S
C647 C638 1.390 . S
C647 H640 0.950 . S
C647 C644 1.387 . S
C648 C649 1.387 . S
C648 H652 0.950 . S
C648 C657 1.390 . S
C649 C648 1.387 . S
C649 C651 1.387 . S
H650 C657 0.950 . S
C651 C649 1.387 . S
C651 C653 1.390 . S
C651 H655 0.950 . S
H652 C648 0.950 . S
C653 C651 1.390 . S
C653 C654 1.387 . S
C653 H656 0.950 . S
C654 C653 1.387 . S
C654 C657 1.387 . S
H655 C651 0.950 . S
H656 C653 0.950 . S
C657 C648 1.390 . S
C657 H650 0.950 . S
C657 C654 1.387 . S
C658 C659 1.387 . S
C658 H662 0.950 . S
C658 C667 1.390 . S
C659 C658 1.387 . S
C659 C661 1.387 1_455 S
H660 C667 0.950 . S
C661 C659 1.387 1_655 S
C661 C663 1.390 . S
C661 H665 0.950 . S
H662 C658 0.950 . S
C663 C661 1.390 . S
C663 C664 1.387 . S
C663 H666 0.950 . S
C664 C663 1.387 . S
C664 C667 1.387 1_655 S
H665 C661 0.950 . S
H666 C663 0.950 . S
C667 C658 1.390 . S
C667 H660 0.950 . S
C667 C664 1.387 1_455 S
C668 C669 1.387 . S
C668 H672 0.950 . S
C668 C677 1.390 1_546 S
C669 C668 1.387 . S
C669 C671 1.387 . S
H670 C677 0.950 . S
C671 C669 1.387 . S
C671 C673 1.390 1_546 S
C671 H675 0.950 . S
H672 C668 0.950 . S
C673 C671 1.390 1_564 S
C673 C674 1.387 . S
C673 H676 0.950 . S
C674 C673 1.387 . S
C674 C677 1.387 . S
H675 C671 0.950 . S
H676 C673 0.950 . S
C677 C668 1.390 1_564 S
C677 H670 0.950 . S
C677 C674 1.387 . S
C678 C679 1.387 . S
C678 H682 0.950 . S
C678 C687 1.390 . S
C679 C678 1.387 . S
C679 C681 1.387 . S
H680 C687 0.950 . S
C681 C679 1.387 . S
C681 C683 1.390 . S
C681 H685 0.950 . S
H682 C678 0.950 . S
C683 C681 1.390 . S
C683 C684 1.387 . S
C683 H686 0.950 . S
C684 C683 1.387 . S
C684 C687 1.387 . S
H685 C681 0.950 . S
H686 C683 0.950 . S
C687 C678 1.390 . S
C687 H680 0.950 . S
C687 C684 1.387 . S
C688 C689 1.387 1_455 S
C688 H692 0.950 . S
C688 C697 1.390 . S
C689 C688 1.387 1_655 S
C689 C691 1.387 . S
H690 C697 0.950 . S
C691 C689 1.387 . S
C691 C693 1.390 . S
C691 H695 0.950 . S
H692 C688 0.950 . S
C693 C691 1.390 . S
C693 C694 1.387 1_655 S
C693 H696 0.950 . S
C694 C693 1.387 1_455 S
C694 C697 1.387 . S
H695 C691 0.950 . S
H696 C693 0.950 . S
C697 C688 1.390 . S
C697 H690 0.950 . S
C697 C694 1.387 . S
C698 C699 1.387 . S
C698 H702 0.950 . S
C698 C707 1.390 1_545 S
C699 C698 1.387 . S
C699 C701 1.387 . S
H700 C707 0.950 . S
C701 C699 1.387 . S
C701 C703 1.390 1_545 S
C701 H705 0.950 . S
H702 C698 0.950 . S
C703 C701 1.390 1_565 S
C703 C704 1.387 . S
C703 H706 0.950 . S
C704 C703 1.387 . S
C704 C707 1.387 . S
H705 C701 0.950 . S
H706 C703 0.950 . S
C707 C698 1.390 1_565 S
C707 H700 0.950 . S
C707 C704 1.387 . S
C409 C292 1.116 . S
C414 C20 1.118 . S
C419 C54 1.119 . S
C424 C326 1.119 . S
C429 C88 1.117 . S
C434 C360 1.118 . S
C439 C122 1.116 . S
C444 C394 1.117 . S
C449 C156 1.119 . S
C454 C224 1.119 . S
C459 C190 1.118 . S
C464 C258 1.116 . S
C469 C9 1.693 . S
C474 C203 1.935 . S
C479 C33 1.935 . S
C484 C43 1.696 . S
C489 C77 1.694 . S
C494 C67 1.934 . S
C499 C101 1.934 . S
C504 C111 1.693 . S
C509 C135 1.934 . S
C514 C145 1.696 . S
C519 C179 1.694 . S
C524 C169 1.935 . S
C529 C271 1.934 . S
C534 C213 1.694 . S
C539 C305 1.934 . S
C544 C247 1.696 . S
C549 C339 1.935 . S
C554 C281 1.694 . S
C559 C373 1.935 . S
C564 C315 1.697 . S
C569 C407 1.934 . S
C574 C349 1.694 . S
C579 C383 1.697 . S
C584 C237 1.935 . S
C589 C2 1.225 . S
C594 C206 1.225 . S
C599 C36 1.223 . S
C604 C240 1.224 . S
C609 C70 1.221 . S
C614 C274 1.221 . S
C619 C104 1.223 . S
C624 C308 1.224 . S
C629 C342 1.222 . S
C634 C138 1.222 . S
C639 C172 1.221 . S
C644 C376 1.221 . S
C649 C311 1.453 . S
C654 C5 1.452 . S
C659 C39 1.452 . S
C664 C345 1.453 . S
C669 C73 1.453 . S
C674 C379 1.453 . S
C679 C107 1.452 . S
C684 C209 1.453 . S
C689 C141 1.453 . S
C694 C243 1.452 . S
C699 C277 1.451 . S
C704 C175 1.451 . S
