# Generated by pormake.
# Topology yfb, (5)-cn, num edge types: 1
# Building blocks:
#     Node 0, Type 0, BuildingBlock: XOMCOT_clean_sbu_0, # of connection points: 5
#     Node 1, Type 0, BuildingBlock: XOMCOT_clean_sbu_0, # of connection points: 5
#     Node 2, Type 0, BuildingBlock: XOMCOT_clean_sbu_0, # of connection points: 5
#     Node 3, Type 0, BuildingBlock: XOMCOT_clean_sbu_0, # of connection points: 5
#     Node 4, Type 0, BuildingBlock: XOMCOT_clean_sbu_0, # of connection points: 5
#     Node 5, Type 0, BuildingBlock: XOMCOT_clean_sbu_0, # of connection points: 5
#     Node 6, Type 0, BuildingBlock: XOMCOT_clean_sbu_0, # of connection points: 5
#     Node 7, Type 0, BuildingBlock: XOMCOT_clean_sbu_0, # of connection points: 5
#     Node 8, Type 0, BuildingBlock: XOMCOT_clean_sbu_0, # of connection points: 5
#     Node 9, Type 0, BuildingBlock: XOMCOT_clean_sbu_0, # of connection points: 5
#     Node 10, Type 0, BuildingBlock: XOMCOT_clean_sbu_0, # of connection points: 5
#     Node 11, Type 0, BuildingBlock: XOMCOT_clean_sbu_0, # of connection points: 5
#     Node 12, Type 0, BuildingBlock: XOMCOT_clean_sbu_0, # of connection points: 5
#     Node 13, Type 0, BuildingBlock: XOMCOT_clean_sbu_0, # of connection points: 5
#     Node 14, Type 0, BuildingBlock: XOMCOT_clean_sbu_0, # of connection points: 5
#     Node 15, Type 0, BuildingBlock: XOMCOT_clean_sbu_0, # of connection points: 5
#     Edge 16, Type (0, 0), BuildingBlock: AJUNOK_clean_linker_0, # of connection points: 2
#     Edge 17, Type (0, 0), BuildingBlock: AJUNOK_clean_linker_0, # of connection points: 2
#     Edge 18, Type (0, 0), BuildingBlock: AJUNOK_clean_linker_0, # of connection points: 2
#     Edge 19, Type (0, 0), BuildingBlock: AJUNOK_clean_linker_0, # of connection points: 2
#     Edge 20, Type (0, 0), BuildingBlock: AJUNOK_clean_linker_0, # of connection points: 2
#     Edge 21, Type (0, 0), BuildingBlock: AJUNOK_clean_linker_0, # of connection points: 2
#     Edge 22, Type (0, 0), BuildingBlock: AJUNOK_clean_linker_0, # of connection points: 2
#     Edge 23, Type (0, 0), BuildingBlock: AJUNOK_clean_linker_0, # of connection points: 2
#     Edge 24, Type (0, 0), BuildingBlock: AJUNOK_clean_linker_0, # of connection points: 2
#     Edge 25, Type (0, 0), BuildingBlock: AJUNOK_clean_linker_0, # of connection points: 2
#     Edge 26, Type (0, 0), BuildingBlock: AJUNOK_clean_linker_0, # of connection points: 2
#     Edge 27, Type (0, 0), BuildingBlock: AJUNOK_clean_linker_0, # of connection points: 2
#     Edge 28, Type (0, 0), BuildingBlock: AJUNOK_clean_linker_0, # of connection points: 2
#     Edge 29, Type (0, 0), BuildingBlock: AJUNOK_clean_linker_0, # of connection points: 2
#     Edge 30, Type (0, 0), BuildingBlock: AJUNOK_clean_linker_0, # of connection points: 2
#     Edge 31, Type (0, 0), BuildingBlock: AJUNOK_clean_linker_0, # of connection points: 2
#     Edge 32, Type (0, 0), BuildingBlock: AJUNOK_clean_linker_0, # of connection points: 2
#     Edge 33, Type (0, 0), BuildingBlock: AJUNOK_clean_linker_0, # of connection points: 2
#     Edge 34, Type (0, 0), BuildingBlock: AJUNOK_clean_linker_0, # of connection points: 2
#     Edge 35, Type (0, 0), BuildingBlock: AJUNOK_clean_linker_0, # of connection points: 2
#     Edge 36, Type (0, 0), BuildingBlock: AJUNOK_clean_linker_0, # of connection points: 2
#     Edge 37, Type (0, 0), BuildingBlock: AJUNOK_clean_linker_0, # of connection points: 2
#     Edge 38, Type (0, 0), BuildingBlock: AJUNOK_clean_linker_0, # of connection points: 2
#     Edge 39, Type (0, 0), BuildingBlock: AJUNOK_clean_linker_0, # of connection points: 2
#     Edge 40, Type (0, 0), BuildingBlock: AJUNOK_clean_linker_0, # of connection points: 2
#     Edge 41, Type (0, 0), BuildingBlock: AJUNOK_clean_linker_0, # of connection points: 2
#     Edge 42, Type (0, 0), BuildingBlock: AJUNOK_clean_linker_0, # of connection points: 2
#     Edge 43, Type (0, 0), BuildingBlock: AJUNOK_clean_linker_0, # of connection points: 2
#     Edge 44, Type (0, 0), BuildingBlock: AJUNOK_clean_linker_0, # of connection points: 2
#     Edge 45, Type (0, 0), BuildingBlock: AJUNOK_clean_linker_0, # of connection points: 2
#     Edge 46, Type (0, 0), BuildingBlock: AJUNOK_clean_linker_0, # of connection points: 2
#     Edge 47, Type (0, 0), BuildingBlock: AJUNOK_clean_linker_0, # of connection points: 2
#     Edge 48, Type (0, 0), BuildingBlock: AJUNOK_clean_linker_0, # of connection points: 2
#     Edge 49, Type (0, 0), BuildingBlock: AJUNOK_clean_linker_0, # of connection points: 2
#     Edge 50, Type (0, 0), BuildingBlock: AJUNOK_clean_linker_0, # of connection points: 2
#     Edge 51, Type (0, 0), BuildingBlock: AJUNOK_clean_linker_0, # of connection points: 2
#     Edge 52, Type (0, 0), BuildingBlock: AJUNOK_clean_linker_0, # of connection points: 2
#     Edge 53, Type (0, 0), BuildingBlock: AJUNOK_clean_linker_0, # of connection points: 2
#     Edge 54, Type (0, 0), BuildingBlock: AJUNOK_clean_linker_0, # of connection points: 2
#     Edge 55, Type (0, 0), BuildingBlock: AJUNOK_clean_linker_0, # of connection points: 2
# Relax obj value: 0.757
# Max RMSD: 0.297
# Mean RMSD: 0.297
data_MOF--net-yfb--node1-XOMCOT_clean_sbu_0--edge1-AJUNOK_clean_linker_0
_symmetry_space_group_name_H-M    P1
_symmetry_Int_Tables_number       1
_symmetry_cell_setting            triclinic
loop_
_symmetry_equiv_pos_as_xyz
'x, y, z'
_cell_length_a     33.182732
_cell_length_b     33.23403
_cell_length_c     31.014057
_cell_angle_alpha  89.767536
_cell_angle_beta   89.972304
_cell_angle_gamma 89.912591
loop_
_atom_site_label
_atom_site_type_symbol
_atom_site_fract_x
_atom_site_fract_y
_atom_site_fract_z
_atom_type_partial_charge
Co0 Co 0.67237 0.07348 0.12877 0.0
C1 C 0.60894 0.02724 0.08419 0.0
C2 C 0.60208 0.02297 0.15249 0.0
C3 C 0.56653 0.01081 0.13288 0.0
N4 N 0.6291 0.03346 0.12193 0.0
N5 N 0.57084 0.01376 0.08971 0.0
H6 H 0.61929 0.03794 0.05328 0.0
H7 H 0.60601 0.02823 0.18661 0.0
C8 C 0.69497 0.02529 0.21022 0.0
O9 O 0.68981 0.99115 0.18974 0.0
N10 N 0.71333 0.11484 0.13333 0.0
C11 C 0.74321 0.12172 0.10476 0.0
C12 C 0.76175 0.1573 0.11466 0.0
C13 C 0.7132 0.14736 0.15936 0.0
N14 N 0.74269 0.17366 0.14867 0.0
C15 C 0.7109 0.02813 0.06277 0.0
C16 C 0.78455 0.02451 0.10338 0.0
C17 C 0.78348 0.02606 0.05817 0.0
C18 C 0.74578 0.02345 0.03811 0.0
C19 C 0.74921 0.03155 0.12661 0.0
N20 N 0.71318 0.03666 0.10576 0.0
H21 H 0.6832 0.03198 0.0455 0.0
H22 H 0.75287 0.04005 0.15979 0.0
H23 H 0.74908 0.10407 0.07634 0.0
H24 H 0.69028 0.15305 0.18343 0.0
O25 O 0.65593 0.0977 0.07534 0.0
O26 O 0.63081 0.11366 0.13918 0.0
O27 O 0.68522 0.05836 0.19142 0.0
C28 C 0.63068 0.11912 0.09754 0.0
H29 H 0.53874 1.0033 0.1493 0.0
H30 H 0.78472 0.1721 0.09552 0.0
H31 H 0.81307 0.02542 0.12036 0.0
H32 H 0.74292 0.02436 1.00337 0.0
Co33 Co 0.43768 0.66709 0.11856 0.0
C34 C 0.48649 0.60484 0.07582 0.0
C35 C 0.50204 0.60734 0.14249 0.0
C36 C 0.51936 0.57329 0.12428 0.0
N37 N 0.48142 0.62752 0.11184 0.0
N38 N 0.50884 0.57136 0.08216 0.0
H39 H 0.47042 0.61009 0.04615 0.0
H40 H 0.50205 0.61486 0.17636 0.0
C41 C 0.49038 0.70159 0.19002 0.0
O42 O 0.52214 0.69883 0.1649 0.0
N43 N 0.39296 0.70462 0.12231 0.0
C44 C 0.3808 0.72861 0.08961 0.0
C45 C 0.3469 0.749 0.10195 0.0
C46 C 0.36501 0.70947 0.15364 0.0
N47 N 0.33695 0.73712 0.1421 0.0
C48 C 0.48012 0.7026 0.04662 0.0
C49 C 0.47396 0.77993 0.07796 0.0
C50 C 0.48072 0.77443 0.03371 0.0
C51 C 0.48707 0.73512 1.01894 0.0
C52 C 0.46849 0.74674 0.10473 0.0
N53 N 0.46857 0.70859 0.08839 0.0
H54 H 0.47956 0.67319 0.03265 0.0
H55 H 0.45738 0.75251 0.13681 0.0
H56 H 0.39478 0.73005 0.05814 0.0
H57 H 0.3642 0.69205 0.18319 0.0
O58 O 0.41087 0.64285 0.07009 0.0
O59 O 0.40278 0.62436 0.13855 0.0
O60 O 0.45671 0.68698 0.17731 0.0
C61 C 0.39393 0.61907 0.09813 0.0
H62 H 0.53692 0.55111 0.1416 0.0
H63 H 0.3291 0.76887 0.08174 0.0
H64 H 0.46735 0.80925 0.09125 0.0
H65 H 0.49295 0.72932 0.98517 0.0
Co66 Co 0.83738 0.44094 0.12335 0.0
C67 C 0.89976 0.49245 0.08457 0.0
C68 C 0.90484 0.49214 0.15307 0.0
C69 C 0.94083 0.50576 0.13532 0.0
N70 N 0.87867 0.48345 0.12112 0.0
N71 N 0.93752 0.50574 0.09197 0.0
H72 H 0.89078 0.48313 0.0528 0.0
H73 H 0.90024 0.48422 0.18657 0.0
C74 C 0.80584 0.48662 0.20148 0.0
O75 O 0.80991 0.52035 0.17968 0.0
N76 N 0.79888 0.39712 0.12288 0.0
C77 C 0.77518 0.38765 0.08912 0.0
C78 C 0.75485 0.35284 0.09835 0.0
C79 C 0.79391 0.36684 0.1516 0.0
N80 N 0.7665 0.33975 0.13758 0.0
C81 C 0.80058 0.49309 0.05955 0.0
C82 C 0.72386 0.47653 0.08872 0.0
C83 C 0.72983 0.48501 0.0449 0.0
C84 C 0.76785 0.49857 0.03194 0.0
C85 C 0.75724 0.47279 0.11572 0.0
N86 N 0.79547 0.47621 0.09941 0.0
H87 H 0.8298 0.49758 0.04609 0.0
H88 H 0.75214 0.45926 0.14693 0.0
H89 H 0.77411 0.40405 0.05897 0.0
H90 H 0.81136 0.3636 0.18088 0.0
O91 O 0.85942 0.41979 0.0704 0.0
O92 O 0.87977 0.40253 0.13615 0.0
O93 O 0.81934 0.45382 0.18509 0.0
C94 C 0.88365 0.39877 0.09457 0.0
H95 H 0.9683 0.51188 0.15289 0.0
H96 H 0.73533 0.33666 0.07647 0.0
H97 H 0.69483 0.4666 0.10065 0.0
H98 H 0.77332 0.50772 0.99889 0.0
Co99 Co 0.07467 0.84113 0.13366 0.0
C100 C 0.02938 0.90758 0.09207 0.0
C101 C 0.02118 0.90897 0.16033 0.0
C102 C 0.00789 0.94514 0.14273 0.0
N103 N 0.03469 0.88494 0.12847 0.0
N104 N 0.01369 0.94442 0.09962 0.0
H105 H 0.04107 0.89948 0.06077 0.0
H106 H 0.02422 0.90247 0.19435 0.0
C107 C 0.026 0.8145 0.21154 0.0
O108 O 0.99318 0.81964 0.18848 0.0
N109 N 0.11615 0.79995 0.13626 0.0
C110 C 0.12449 0.77363 0.10448 0.0
C111 C 0.15909 0.75316 0.11458 0.0
C112 C 0.14695 0.79628 0.16453 0.0
N113 N 0.17341 0.7675 0.1521 0.0
C114 C 0.02187 0.80718 0.07049 0.0
C115 C 0.03248 0.72997 0.10128 0.0
C116 C 0.02469 0.73573 0.05713 0.0
C117 C 0.01493 0.77468 0.04314 0.0
C118 C 0.03778 0.76322 0.12785 0.0
N119 N 0.03716 0.80125 0.11089 0.0
H120 H 0.02026 0.83674 0.05665 0.0
H121 H 0.05045 0.75767 0.15936 0.0
H122 H 0.10796 0.77125 0.07456 0.0
H123 H 0.15132 0.81598 0.19183 0.0
O124 O 0.09739 0.85806 0.08008 0.0
O125 O 0.11571 0.88199 0.1436 0.0
O126 O 0.05983 0.82649 0.19603 0.0
C127 C 0.12005 0.88247 0.10174 0.0
H128 H 0.99685 0.97065 0.1608 0.0
H129 H 0.17468 0.73206 0.0939 0.0
H130 H 0.04086 0.7009 0.11424 0.0
H131 H 0.00721 0.78054 1.00977 0.0
Co132 Co 0.66591 0.4388 0.43182 0.0
C133 C 0.60444 0.48965 0.47294 0.0
C134 C 0.59943 0.49226 0.40431 0.0
C135 C 0.56379 0.50594 0.42245 0.0
N136 N 0.6252 0.4816 0.43597 0.0
N137 N 0.5666 0.50337 0.46582 0.0
H138 H 0.6142 0.4802 0.50453 0.0
H139 H 0.60405 0.4859 0.3705 0.0
C140 C 0.69315 0.48671 0.35052 0.0
O141 O 0.6836 0.52143 0.3679 0.0
N142 N 0.70463 0.39488 0.42996 0.0
C143 C 0.733 0.3868 0.45991 0.0
C144 C 0.75165 0.3513 0.45011 0.0
C145 C 0.70549 0.36288 0.40305 0.0
N146 N 0.73454 0.33623 0.4144 0.0
C147 C 0.7043 0.47458 0.50459 0.0
C148 C 0.77717 0.48729 0.46456 0.0
C149 C 0.77689 0.47756 0.50853 0.0
C150 C 0.73945 0.47636 0.52941 0.0
C151 C 0.74199 0.48203 0.44068 0.0
N152 N 0.70645 0.47228 0.46058 0.0
H153 H 0.67681 0.46758 0.52131 0.0
H154 H 0.74587 0.47972 0.40654 0.0
H155 H 0.73811 0.40355 0.48892 0.0
H156 H 0.68408 0.35815 0.37726 0.0
O157 O 0.64224 0.41422 0.48206 0.0
O158 O 0.62337 0.40192 0.415 0.0
O159 O 0.68548 0.45411 0.37119 0.0
C160 C 0.61819 0.39543 0.45607 0.0
H161 H 0.53691 0.51423 0.40479 0.0
H162 H 0.77368 0.33585 0.46997 0.0
H163 H 0.80537 0.49147 0.44752 0.0
H164 H 0.73732 0.47029 0.56366 0.0
Co165 Co 0.0737 0.66683 0.43407 0.0
C166 C 0.02241 0.60539 0.47552 0.0
C167 C 0.01822 0.60204 0.407 0.0
C168 C 1.00422 0.56626 0.42479 0.0
N169 N 0.02997 0.62698 0.43885 0.0
N170 N 0.007 0.56847 0.46809 0.0
H171 H 0.03387 0.61321 0.50688 0.0
H172 H 0.02415 0.6072 0.37313 0.0
C173 C 0.02418 0.70036 0.3594 0.0
O174 O 0.99172 0.69658 0.38334 0.0
N175 N 0.11853 0.70391 0.43158 0.0
C176 C 0.13175 0.72594 0.46506 0.0
C177 C 0.16531 0.74683 0.45245 0.0
C178 C 0.14489 0.71088 0.3992 0.0
N179 N 0.17374 0.73736 0.41116 0.0
C180 C 0.0292 0.70471 0.5029 0.0
C181 C 0.0403 0.78112 0.47001 0.0
C182 C 0.03299 0.77658 0.51431 0.0
C183 C 0.02407 0.73795 0.52983 0.0
C184 C 0.04404 0.74729 0.44403 0.0
N185 N 0.0418 0.70938 0.46124 0.0
H186 H 0.02785 0.67561 0.51763 0.0
H187 H 0.05589 0.75207 0.41204 0.0
H188 H 0.11841 0.72599 0.49689 0.0
H189 H 0.14355 0.69615 0.36819 0.0
O190 O 0.09728 0.64354 0.48512 0.0
O191 O 0.10979 0.62351 0.4181 0.0
O192 O 0.05764 0.6861 0.37351 0.0
C193 C 0.11593 0.61908 0.45932 0.0
H194 H 0.99573 0.53959 0.40708 0.0
H195 H 0.1836 0.76576 0.47293 0.0
H196 H 0.04865 0.80986 0.4562 0.0
H197 H 0.0176 0.73295 0.56366 0.0
Co198 Co 0.83391 0.07166 0.44095 0.0
C199 C 0.9012 0.02606 0.47969 0.0
C200 C 0.90188 0.01995 0.41129 0.0
C201 C 0.93893 0.00763 0.42775 0.0
N202 N 0.87773 0.03154 0.44403 0.0
N203 N 0.93827 0.01153 0.47103 0.0
H204 H 0.894 0.03785 0.51113 0.0
H205 H 0.89495 0.02434 0.37752 0.0
C206 C 0.80198 0.02432 0.36381 0.0
O207 O 0.80474 0.99079 0.38621 0.0
N208 N 0.79305 0.11344 0.43994 0.0
C209 C 0.76804 0.12279 0.47272 0.0
C210 C 0.7478 0.1576 0.46262 0.0
C211 C 0.78878 0.14365 0.41102 0.0
N212 N 0.76099 0.17087 0.42402 0.0
C213 C 0.80348 0.01872 0.50672 0.0
C214 C 0.72427 0.02761 0.48207 0.0
C215 C 0.73299 0.01784 0.52524 0.0
C216 C 0.77302 0.00987 0.53619 0.0
C217 C 0.75574 0.03525 0.45324 0.0
N218 N 0.79486 0.03469 0.46709 0.0
H219 H 0.83363 0.01736 0.51855 0.0
H220 H 0.74812 0.04834 0.42237 0.0
H221 H 0.76631 0.10667 0.50303 0.0
H222 H 0.80733 0.1469 0.38253 0.0
O223 O 0.85368 0.09476 0.49297 0.0
O224 O 0.87473 0.11187 0.42766 0.0
O225 O 0.81656 0.05686 0.37956 0.0
C226 C 0.87765 0.11639 0.46934 0.0
H227 H 0.96513 0.99917 0.40905 0.0
H228 H 0.72746 0.17378 0.48368 0.0
H229 H 0.6939 0.0347 0.47184 0.0
H230 H 0.7811 1.00138 0.56883 0.0
Co231 Co 0.4348 0.83519 0.41495 0.0
C232 C 0.47845 0.89936 0.46102 0.0
C233 C 0.49046 0.90257 0.39349 0.0
C234 C 0.50343 0.93785 0.41273 0.0
N235 N 0.47485 0.87795 0.42388 0.0
N236 N 0.49556 0.9359 0.4554 0.0
H237 H 0.46403 0.89089 0.49084 0.0
H238 H 0.48883 0.89731 0.35916 0.0
C239 C 0.48771 0.81211 0.33888 0.0
O240 O 0.51983 0.81632 0.36319 0.0
N241 N 0.39339 0.79469 0.40761 0.0
C242 C 0.3852 0.76432 0.43518 0.0
C243 C 0.35044 0.74569 0.42253 0.0
C244 C 0.36215 0.79527 0.37965 0.0
N245 N 0.33575 0.76522 0.38782 0.0
C246 C 0.47851 0.7977 0.48293 0.0
C247 C 0.48015 0.72271 0.44547 0.0
C248 C 0.47843 0.7254 0.4906 0.0
C249 C 0.48189 0.76362 0.5091 0.0
C250 C 0.47486 0.75748 0.42061 0.0
N251 N 0.47037 0.79419 0.43995 0.0
H252 H 0.47552 0.82617 0.49883 0.0
H253 H 0.46699 0.75324 0.38725 0.0
H254 H 0.40125 0.75822 0.46474 0.0
H255 H 0.35709 0.81901 0.35627 0.0
O256 O 0.40847 0.85086 0.46707 0.0
O257 O 0.39521 0.87726 0.40297 0.0
O258 O 0.45326 0.82278 0.35368 0.0
C259 C 0.38814 0.87669 0.44438 0.0
H260 H 0.51525 0.96393 0.39602 0.0
H261 H 0.33459 0.72259 0.44049 0.0
H262 H 0.47849 0.69372 0.42972 0.0
H263 H 0.4809 0.76764 0.54369 0.0
Co264 Co 0.34575 0.94223 0.92864 0.0
C265 C 0.40761 0.99421 0.96691 0.0
C266 C 0.41176 0.99509 0.89821 0.0
C267 C 0.44739 0.00975 0.91542 0.0
N268 N 0.38654 0.98497 0.93056 0.0
N269 N 0.44512 0.00829 0.9589 0.0
H270 H 0.39837 0.98537 0.99884 0.0
H271 H 0.40672 0.98794 0.86465 0.0
C272 C 0.31533 0.99111 0.84893 0.0
O273 O 0.32722 0.02569 0.86484 0.0
N274 N 0.30677 0.89849 0.92906 0.0
C275 C 0.28106 0.8896 0.96142 0.0
C276 C 0.2605 0.85522 0.95163 0.0
C277 C 0.30239 0.86805 0.90051 0.0
N278 N 0.27378 0.84157 0.91344 0.0
C279 C 0.3116 0.97573 1.00523 0.0
C280 C 0.23729 0.99166 0.96972 0.0
C281 C 0.23949 0.98081 1.01333 0.0
C282 C 0.27778 0.97788 0.03201 0.0
C283 C 0.2713 0.98682 0.94377 0.0
N284 N 0.3074 0.9753 0.96129 0.0
H285 H 0.33941 0.96682 1.02021 0.0
H286 H 0.26611 0.98668 0.90973 0.0
H287 H 0.27883 0.90515 0.99161 0.0
H288 H 0.32087 0.8644 0.87202 0.0
O289 O 0.37326 0.91683 0.97628 0.0
O290 O 0.38656 0.90539 0.90731 0.0
O291 O 0.32226 0.95858 0.87004 0.0
C292 C 0.39481 0.89831 0.94762 0.0
H293 H 0.47386 0.01805 0.89708 0.0
H294 H 0.23962 0.83956 0.97264 0.0
H295 H 0.2084 0.99691 0.95443 0.0
H296 H 0.28133 0.97062 0.06587 0.0
Co297 Co 0.57478 0.34215 0.92465 0.0
C298 C 0.51948 0.40311 0.9573 0.0
C299 C 0.53508 0.41364 0.89172 0.0
C300 C 0.52559 0.44993 0.91083 0.0
N301 N 0.53314 0.38401 0.9214 0.0
N302 N 0.51696 0.44377 0.95298 0.0
H303 H 0.5152 0.38769 0.98711 0.0
H304 H 0.54932 0.41045 0.86053 0.0
C305 C 0.53307 0.31275 0.84059 0.0
O306 O 0.49669 0.32117 0.85466 0.0
N307 N 0.61731 0.30242 0.92938 0.0
C308 C 0.62653 0.28063 0.96473 0.0
C309 C 0.66004 0.25785 0.95629 0.0
C310 C 0.64618 0.29343 0.90023 0.0
N311 N 0.67258 0.26589 0.91579 0.0
C312 C 0.53418 0.30726 0.99666 0.0
C313 C 0.52757 0.23239 0.95977 0.0
C314 C 0.5325 0.23509 1.00452 0.0
C315 C 0.53135 0.27332 1.02312 0.0
C316 C 0.53169 0.26692 0.93441 0.0
N317 N 0.53855 0.30361 0.95291 0.0
H318 H 0.54109 0.33493 1.01275 0.0
H319 H 0.53617 0.26199 0.90064 0.0
H320 H 0.61144 0.28254 0.99543 0.0
H321 H 0.64859 0.30791 0.86916 0.0
O322 O 0.59539 0.36841 0.97548 0.0
O323 O 0.61476 0.38205 0.90854 0.0
O324 O 0.56374 0.32066 0.86421 0.0
C325 C 0.61762 0.38956 0.94955 0.0
H326 H 0.52949 0.47894 0.89552 0.0
H327 H 0.67561 0.23881 0.97931 0.0
H328 H 0.52733 0.20331 0.94408 0.0
H329 H 0.53534 0.27721 0.0575 0.0
Co330 Co 0.16352 0.57922 0.93336 0.0
C331 C 0.10093 0.5268 0.97104 0.0
C332 C 0.09834 0.52559 0.90233 0.0
C333 C 0.06244 0.51062 0.9189 0.0
N334 N 0.12282 0.53612 0.93513 0.0
N335 N 0.06398 0.51201 0.96236 0.0
H336 H 0.10861 0.5364 1.00308 0.0
H337 H 0.10398 0.5327 0.86881 0.0
C338 C 0.19603 0.53296 0.85573 0.0
O339 O 0.19049 0.49909 0.87691 0.0
N340 N 0.20181 0.62325 0.93397 0.0
C341 C 0.22681 0.63199 0.96689 0.0
C342 C 0.24803 0.6661 0.95684 0.0
C343 C 0.20689 0.65336 0.90502 0.0
N344 N 0.23565 0.67945 0.91799 0.0
C345 C 0.19939 0.53125 1.00056 0.0
C346 C 0.27647 0.5387 0.96828 0.0
C347 C 0.27116 0.53136 1.01243 0.0
C348 C 0.23218 0.52392 0.02756 0.0
C349 C 0.2429 0.54522 0.94223 0.0
N350 N 0.20483 0.54471 0.95929 0.0
H351 H 0.17033 0.53158 1.01535 0.0
H352 H 0.24849 0.55788 0.91076 0.0
H353 H 0.22861 0.6154 0.99689 0.0
H354 H 0.18905 0.6569 0.87604 0.0
O355 O 0.14004 0.6007 0.98534 0.0
O356 O 0.12099 0.61709 0.91891 0.0
O357 O 0.18312 0.56593 0.87223 0.0
C358 C 0.11611 0.62115 0.96035 0.0
H359 H 0.03621 0.50234 0.90024 0.0
H360 H 0.2691 0.68149 0.9777 0.0
H361 H 0.3059 0.54557 0.9551 0.0
H362 H 0.22681 0.51779 0.06143 0.0
Co363 Co 0.93899 0.16863 0.93006 0.0
C364 C 0.98928 0.10872 0.97592 0.0
C365 C 0.99651 0.10349 0.9078 0.0
C366 C 0.01102 0.0688 0.92749 0.0
N367 N 0.98267 0.12899 0.93817 0.0
N368 N 0.00619 0.07202 0.97056 0.0
H369 H 0.97675 0.11774 1.0065 0.0
H370 H 0.99206 0.10751 0.87351 0.0
C371 C 0.988 0.19639 0.85324 0.0
O372 O 0.02013 0.19359 0.87782 0.0
N373 N 0.89393 0.20545 0.92436 0.0
C374 C 0.88287 0.23288 0.95407 0.0
C375 C 0.84715 0.25002 0.94177 0.0
C376 C 0.8635 0.20484 0.8954 0.0
N377 N 0.83496 0.23245 0.90502 0.0
C378 C 0.98621 0.21055 0.99313 0.0
C379 C 0.97058 0.28493 0.95701 0.0
C380 C 0.97794 0.28238 1.00153 0.0
C381 C 0.99006 0.24505 1.01835 0.0
C382 C 0.96846 0.24989 0.93263 0.0
N383 N 0.97177 0.21297 0.95199 0.0
H384 H 0.98972 0.18203 1.00893 0.0
H385 H 0.9561 0.25273 0.90059 0.0
H386 H 0.89848 0.23836 0.98406 0.0
H387 H 0.86097 0.18301 0.86974 0.0
O388 O 0.91631 0.15145 0.98371 0.0
O389 O 0.90249 0.12363 0.92062 0.0
O390 O 0.95447 0.18249 0.86762 0.0
C391 C 0.89701 0.12409 0.96231 0.0
H392 H 0.02142 0.04207 0.91103 0.0
H393 H 0.82945 0.27107 0.96052 0.0
H394 H 0.96037 0.3125 0.94195 0.0
H395 H 0.99756 0.24171 0.05216 0.0
Co396 Co 0.33855 0.57386 0.62784 0.0
C397 C 0.4019 0.52377 0.58799 0.0
C398 C 0.40695 0.52289 0.65654 0.0
C399 C 0.44293 0.50947 0.6387 0.0
N400 N 0.38075 0.53208 0.62469 0.0
N401 N 0.43973 0.51023 0.59533 0.0
H402 H 0.39236 0.53298 0.55618 0.0
H403 H 0.40228 0.53005 0.69016 0.0
C404 C 0.31107 0.53047 0.70893 0.0
O405 O 0.31486 0.49623 0.68827 0.0
N406 N 0.2993 0.61714 0.62861 0.0
C407 C 0.27264 0.62538 0.59695 0.0
C408 C 0.25274 0.66036 0.60665 0.0
C409 C 0.29663 0.64844 0.65616 0.0
N410 N 0.26775 0.67482 0.64382 0.0
C411 C 0.30071 0.5184 0.56963 0.0
C412 C 0.22446 0.53576 0.59983 0.0
C413 C 0.22956 0.52575 0.5563 0.0
C414 C 0.26742 0.51176 0.54314 0.0
C415 C 0.25843 0.54077 0.62574 0.0
N416 N 0.29626 0.53704 0.6085 0.0
H417 H 0.3299 0.5136 0.55589 0.0
H418 H 0.25402 0.55546 0.65636 0.0
H419 H 0.26923 0.6081 0.56773 0.0
H420 H 0.31674 0.65292 0.68318 0.0
O421 O 0.35548 0.59316 0.57244 0.0
O422 O 0.38139 0.61328 0.63457 0.0
O423 O 0.3245 0.56278 0.69122 0.0
C424 C 0.38144 0.61545 0.59253 0.0
H425 H 0.47028 0.50269 0.6563 0.0
H426 H 0.23116 0.67574 0.5862 0.0
H427 H 0.19562 0.546 0.61195 0.0
H428 H 0.27226 0.50145 0.51045 0.0
Co429 Co 0.94375 0.33384 0.62105 0.0
C430 C 0.99197 0.40086 0.5868 0.0
C431 C 0.9873 0.40443 0.65533 0.0
C432 C 0.99924 0.44151 0.63926 0.0
N433 N 0.98245 0.37854 0.6224 0.0
N434 N 1.00104 0.43964 0.59578 0.0
H435 H 0.98678 0.39088 0.55426 0.0
H436 H 0.97823 0.39844 0.68823 0.0
C437 C 0.98728 0.31064 0.70516 0.0
O438 O 0.02125 0.32418 0.68893 0.0
N439 N 0.90401 0.29131 0.61631 0.0
C440 C 0.89605 0.27158 0.57943 0.0
C441 C 0.86115 0.25027 0.58413 0.0
C442 C 0.87306 0.28208 0.64297 0.0
N443 N 0.84627 0.25686 0.62392 0.0
C444 C 0.98932 0.29975 0.55266 0.0
C445 C 1.00029 0.22679 0.59263 0.0
C446 C 0.99077 0.22735 0.54869 0.0
C447 C 0.99154 0.26482 0.52777 0.0
C448 C 0.99338 0.26157 0.6165 0.0
N449 N 0.98373 0.29703 0.5963 0.0
H450 H 0.98359 0.32746 0.53576 0.0
H451 H 0.9895 0.25718 0.65042 0.0
H452 H 0.91221 0.27523 0.54955 0.0
H453 H 0.86948 0.29514 0.6746 0.0
O454 O 0.92297 0.3557 0.56831 0.0
O455 O 0.90075 0.3725 0.63291 0.0
O456 O 0.95481 0.31475 0.68311 0.0
C457 C 0.89836 0.37703 0.59121 0.0
H458 H 1.00352 0.46834 0.6583 0.0
H459 H 0.84614 0.23381 0.55873 0.0
H460 H 1.00431 0.19854 0.60965 0.0
H461 H 0.98665 0.26739 0.49336 0.0
Co462 Co 0.16948 0.94149 0.6241 0.0
C463 C 0.10668 0.99287 0.58525 0.0
C464 C 0.10577 0.99735 0.65391 0.0
C465 C 0.06979 0.01226 0.6376 0.0
N466 N 0.12917 0.98479 0.62103 0.0
N467 N 0.07011 0.00865 0.59425 0.0
H468 H 0.11385 0.98201 0.55351 0.0
H469 H 0.11215 0.99175 0.6876 0.0
C470 C 0.20204 0.99094 0.70065 0.0
O471 O 0.19579 0.02484 0.67974 0.0
N472 N 0.20778 0.89726 0.62508 0.0
C473 C 0.23301 0.88736 0.5927 0.0
C474 C 0.25276 0.85249 0.60316 0.0
C475 C 0.21146 0.8671 0.65426 0.0
N476 N 0.23916 0.83955 0.64167 0.0
C477 C 0.20428 0.97909 0.54996 0.0
C478 C 0.28093 0.98238 0.58371 0.0
C479 C 0.27626 0.9779 0.53907 0.0
C480 C 0.23731 0.98058 0.52204 0.0
C481 C 0.24731 0.9789 0.61044 0.0
N482 N 0.20958 0.97403 0.59339 0.0
H483 H 0.17532 0.97467 0.53546 0.0
H484 H 0.25333 0.97294 0.64388 0.0
H485 H 0.23529 0.90287 0.56222 0.0
H486 H 0.19295 0.86433 0.68286 0.0
O487 O 0.14376 0.91689 0.57505 0.0
O488 O 0.1274 0.90495 0.64327 0.0
O489 O 0.19086 0.95769 0.68354 0.0
C490 C 0.12084 0.89829 0.60255 0.0
H491 H 0.04428 0.02207 0.6566 0.0
H492 H 0.27316 0.83604 0.58239 0.0
H493 H 0.31064 0.98122 0.59817 0.0
H494 H 0.23198 0.97727 0.4878 0.0
Co495 Co 0.57404 0.15636 0.62301 0.0
C496 C 0.52451 0.09885 0.57485 0.0
C497 C 0.50791 0.09915 0.64167 0.0
C498 C 0.49006 0.06643 0.62187 0.0
N499 N 0.52983 0.1193 0.61219 0.0
N500 N 0.5012 0.06578 0.57992 0.0
H501 H 0.54106 0.10546 0.54559 0.0
H502 H 0.50774 0.10561 0.67582 0.0
C503 C 0.56225 0.18852 0.70969 0.0
O504 O 0.59502 0.16759 0.71766 0.0
N505 N 0.61829 0.19404 0.63225 0.0
C506 C 0.61395 0.23437 0.6342 0.0
C507 C 0.65093 0.25177 0.64034 0.0
C508 C 0.65823 0.18759 0.63786 0.0
N509 N 0.67884 0.22239 0.64326 0.0
C510 C 0.5722 0.19722 0.54311 0.0
C511 C 0.51424 0.25355 0.56408 0.0
C512 C 0.53917 0.2602 0.52811 0.0
C513 C 0.56629 0.23002 0.51618 0.0
C514 C 0.52062 0.21943 0.59004 0.0
N515 N 0.5516 0.19364 0.581 0.0
H516 H 0.59638 0.17697 0.53509 0.0
H517 H 0.50289 0.21579 0.61898 0.0
H518 H 0.58579 0.25043 0.63123 0.0
H519 H 0.67212 0.15831 0.63788 0.0
O520 O 0.60633 0.12503 0.58403 0.0
O521 O 0.6029 0.11318 0.65399 0.0
O522 O 0.545 0.18426 0.67294 0.0
C523 C 0.61656 0.10263 0.61628 0.0
H524 H 0.47225 0.04358 0.63789 0.0
H525 H 0.65673 0.28377 0.64098 0.0
H526 H 0.49222 0.27583 0.57378 0.0
H527 H 0.58623 0.23375 0.48877 0.0
C528 C 0.73271 0.99009 0.27109 0.0
C529 C 0.72069 0.0262 0.25061 0.0
C530 C 0.75932 0.98979 0.30674 0.0
C531 C 0.77587 0.02555 0.32372 0.0
H532 H 0.7216 0.96153 0.25941 0.0
H533 H 0.76691 0.96103 0.32114 0.0
S534 S 0.75479 0.12864 0.28212 0.0
N535 N 0.72789 0.09907 0.2507 0.0
N536 N 0.77787 0.09841 0.31651 0.0
C537 C 0.76426 0.06191 0.30344 0.0
C538 C 0.73679 0.06227 0.26743 0.0
C539 C 0.45379 0.76957 0.28194 0.0
C540 C 0.48949 0.78588 0.29936 0.0
C541 C 0.45453 0.7418 0.24769 0.0
C542 C 0.49101 0.72895 0.22869 0.0
H543 H 0.42476 0.77771 0.29535 0.0
H544 H 0.42599 0.73066 0.23576 0.0
S545 S 0.59323 0.7627 0.26146 0.0
N546 N 0.56261 0.787 0.29432 0.0
N547 N 0.56399 0.73536 0.23007 0.0
C548 C 0.52696 0.74523 0.24552 0.0
C549 C 0.52621 0.77342 0.28064 0.0
C550 C 0.73274 0.52134 0.29065 0.0
C551 C 0.72096 0.48548 0.3117 0.0
C552 C 0.76064 0.52141 0.25615 0.0
C553 C 0.77863 0.48564 0.24076 0.0
H554 H 0.7204 0.54991 0.30096 0.0
H555 H 0.76793 0.55 0.24123 0.0
S556 S 0.75894 0.38314 0.28455 0.0
N557 N 0.73022 0.41281 0.3141 0.0
N558 N 0.78235 0.41305 0.25013 0.0
C559 C 0.76733 0.44951 0.26164 0.0
C560 C 0.7387 0.4494 0.29665 0.0
C561 C 0.06025 0.74189 0.30186 0.0
C562 C 0.02386 0.72841 0.32074 0.0
C563 C 0.0608 0.77043 0.26783 0.0
C564 C 0.02498 0.78707 0.25067 0.0
H565 H 0.08882 0.73061 0.31372 0.0
H566 H 0.0897 0.77904 0.25446 0.0
S567 S 0.92139 0.76245 0.28828 0.0
N568 N 0.95085 0.73454 0.31915 0.0
N569 N 0.95186 0.78762 0.25592 0.0
C570 C 0.9884 0.77391 0.2693 0.0
C571 C 0.98785 0.7449 0.30396 0.0
C572 C 0.2747 0.02611 0.78996 0.0
C573 C 0.28704 0.99017 0.81058 0.0
C574 C 0.24676 0.02616 0.75549 0.0
C575 C 0.22943 0.99028 0.73973 0.0
H576 H 0.28663 0.05471 0.80057 0.0
H577 H 0.23898 0.05476 0.74085 0.0
S578 S 0.25089 0.88759 0.7823 0.0
N579 N 0.2791 0.91738 0.8121 0.0
N580 N 0.22691 0.91753 0.74835 0.0
C581 C 0.24131 0.95411 0.76023 0.0
C582 C 0.2699 0.95403 0.79518 0.0
C583 C 0.50707 0.26202 0.78542 0.0
C584 C 0.53897 0.28548 0.80225 0.0
C585 C 0.51391 0.23181 0.75397 0.0
C586 C 0.55303 0.22339 0.73871 0.0
H587 H 0.4768 0.26589 0.79776 0.0
H588 H 0.48876 0.2138 0.74306 0.0
S589 S 0.64595 0.27952 0.76729 0.0
N590 N 0.61027 0.30104 0.79621 0.0
N591 N 0.62333 0.24354 0.74001 0.0
C592 C 0.58465 0.24785 0.75377 0.0
C593 C 0.5776 0.279 0.78467 0.0
C594 C 0.26761 0.49677 0.76598 0.0
C595 C 0.28352 0.53246 0.74788 0.0
C596 C 0.23905 0.49736 0.79981 0.0
C597 C 0.22437 0.53369 0.81737 0.0
H598 H 0.27707 0.46779 0.75373 0.0
H599 H 0.22844 0.46881 0.81232 0.0
S600 S 0.25599 0.63609 0.78218 0.0
N601 N 0.28216 0.60556 0.75097 0.0
N602 N 0.22865 0.6067 0.81366 0.0
C603 C 0.23998 0.5697 0.79963 0.0
C604 C 0.2694 0.56909 0.76535 0.0
C605 C 0.95277 0.2346 0.79234 0.0
C606 C 0.9887 0.2238 0.814 0.0
C607 C 0.95241 0.26299 0.75811 0.0
C608 C 0.98792 0.2824 0.74375 0.0
H609 H 0.9244 0.22138 0.8022 0.0
H610 H 0.92388 0.26964 0.7427 0.0
S611 S 0.09035 0.265 0.78899 0.0
N612 N 0.06105 0.23502 0.81763 0.0
N613 N 0.06029 0.28804 0.75444 0.0
C614 C 0.02404 0.27181 0.76511 0.0
C615 C 0.02445 0.24275 0.79972 0.0
C616 C 0.46956 0.02417 0.03306 0.0
C617 C 0.47766 0.0114 0.99052 0.0
C618 C 0.49972 0.02448 0.06528 0.0
C619 C 0.53955 0.01192 0.05665 0.0
H620 H 0.4395 0.03406 0.04155 0.0
H621 H 0.49181 0.03516 0.0971 0.0
S622 S 0.57613 0.97172 0.95217 0.0
N623 N 0.52851 0.98322 0.94282 0.0
N624 N 0.58466 0.98409 1.00284 0.0
C625 C 0.548 0.9987 1.01445 0.0
C626 C 0.51733 0.99837 0.98163 0.0
C627 C 0.51049 0.51576 0.97538 0.0
C628 C 0.51467 0.47474 0.98676 0.0
C629 C 0.51034 0.54665 1.00634 0.0
C630 C 0.51346 0.53869 0.05097 0.0
H631 H 0.50697 0.5246 0.94204 0.0
H632 H 0.50736 0.5773 0.99488 0.0
S633 S 0.52595 0.43721 0.09995 0.0
N634 N 0.52382 0.42865 0.04771 0.0
N635 N 0.52109 0.4863 0.10511 0.0
C636 C 0.51782 0.49804 0.06327 0.0
C637 C 0.51873 0.46633 0.03159 0.0
C638 C 0.03855 0.49355 0.03547 0.0
C639 C 0.03121 0.50877 0.99359 0.0
C640 C 0.00835 0.49333 0.06768 0.0
C641 C 0.96938 0.50862 0.05964 0.0
H642 H 0.06804 0.48169 0.04339 0.0
H643 H 0.01545 0.48051 0.0989 0.0
S644 S 0.93527 0.55525 0.95692 0.0
N645 N 0.98227 0.5417 0.94708 0.0
N646 N 0.92596 0.54128 1.00709 0.0
C647 C 0.96181 0.52438 1.0181 0.0
C648 C 0.99248 0.52447 0.98531 0.0
C649 C 1.0006 0.99984 0.99297 0.0
C650 C 0.00918 0.04028 1.00316 0.0
C651 C 1.00147 0.96915 1.02464 0.0
C652 C 0.01085 0.97723 0.06819 0.0
H653 H 0.99241 0.99185 0.96034 0.0
H654 H 0.9944 0.93871 1.01495 0.0
S655 S 0.03909 0.07749 0.11128 0.0
N656 N 0.02958 0.08615 0.05983 0.0
N657 N 0.03128 0.02892 0.11889 0.0
C658 C 0.01999 0.01748 0.0787 0.0
C659 C 0.01915 0.04873 0.04642 0.0
C660 C 0.51134 0.51991 0.5719 0.0
C661 C 0.47174 0.50673 0.5632 0.0
C662 C 0.54184 0.51907 0.53999 0.0
C663 C 0.53424 0.50528 0.49776 0.0
H664 H 0.51868 0.53177 0.60337 0.0
H665 H 0.57163 0.52977 0.54832 0.0
S666 S 0.43693 0.46305 0.45971 0.0
N667 N 0.42772 0.47655 0.50992 0.0
N668 N 0.48447 0.47492 0.45051 0.0
C669 C 0.49501 0.49111 0.48902 0.0
C670 C 0.46405 0.49187 0.52148 0.0
C671 C 0.01806 0.4662 0.5224 0.0
C672 C 1.00298 0.4727 0.56447 0.0
C673 C 0.01849 0.49704 0.4908 0.0
C674 C 1.00395 0.53602 0.49974 0.0
H675 H 0.03 0.43697 0.51384 0.0
H676 H 0.03111 0.49053 0.4594 0.0
S677 S 0.95792 0.56874 0.60284 0.0
N678 N 0.97044 0.52133 0.61167 0.0
N679 N 0.97226 0.57883 0.55299 0.0
C680 C 0.98839 0.5429 0.5413 0.0
C681 C 0.98764 0.51151 0.57339 0.0
C682 C 0.01059 0.0225 0.49047 0.0
C683 C 0.97153 0.00944 0.50167 0.0
C684 C 0.04222 0.02304 0.52104 0.0
C685 C 0.03627 0.01078 0.56426 0.0
H686 H 0.01663 0.03301 0.45803 0.0
H687 H 0.07169 0.03324 0.5108 0.0
S688 S 0.94076 0.96984 0.60884 0.0
N689 N 0.92961 0.98135 0.55841 0.0
N690 N 0.98852 0.98227 0.61532 0.0
C691 C 0.99748 0.99703 0.57557 0.0
C692 C 0.9654 0.99639 0.54449 0.0
C693 C 0.49327 0.00896 0.47442 0.0
C694 C 0.49717 0.96825 0.48704 0.0
C695 C 0.49367 0.04044 0.50488 0.0
C696 C 0.49744 0.03277 0.54945 0.0
H697 H 0.48951 0.01667 0.44074 0.0
H698 H 0.49098 0.07115 0.49348 0.0
S699 S 0.51296 0.93214 0.59938 0.0
N700 N 0.50817 0.92269 0.54745 0.0
N701 N 0.50783 0.98131 0.60421 0.0
C702 C 0.50147 0.99227 0.56253 0.0
C703 C 0.50165 0.96028 0.53153 0.0
C704 C 0.58478 0.1816 1.00841 0.0
C705 C 0.55222 0.20143 0.02833 0.0
C706 C 0.60937 0.15502 0.03123 0.0
C707 C 0.60291 0.14711 0.07521 0.0
H708 H 0.59283 0.18803 0.97524 0.0
H709 H 0.6344 0.14138 1.01421 0.0
S710 S 0.52012 0.18855 0.14216 0.0
N711 N 0.5133 0.20935 0.09423 0.0
N712 N 0.56025 0.15938 0.1376 0.0
C713 C 0.5699 0.16569 0.09555 0.0
C714 C 0.54445 0.19281 0.07204 0.0
C715 C 0.29375 0.57203 0.07521 0.0
C716 C 0.30327 0.54376 0.04287 0.0
C717 C 0.32391 0.59419 0.09577 0.0
C718 C 0.3644 0.58911 0.08433 0.0
H719 H 0.26269 0.57972 0.08215 0.0
H720 H 0.31524 0.61761 0.11819 0.0
S721 S 0.40595 0.51347 1.00897 0.0
N722 N 0.35665 0.50726 1.0062 0.0
N723 N 0.4133 0.55016 0.04385 0.0
C724 C 0.3747 0.55871 0.05508 0.0
C725 C 0.34409 0.53559 0.03468 0.0
C726 C 0.94042 0.30371 0.0679 0.0
C727 C 0.96273 0.31464 0.03079 0.0
C728 C 0.91679 0.33183 0.09007 0.0
C729 C 0.91365 0.37159 0.07531 0.0
H730 H 0.93873 0.27266 0.07839 0.0
H731 H 0.89873 0.3217 0.11713 0.0
S732 S 0.97083 0.41768 0.98513 0.0
N733 N 0.98527 0.37014 0.98541 0.0
N734 N 0.93783 0.42195 1.0247 0.0
C735 C 0.93748 0.38368 0.04018 0.0
C736 C 0.96284 0.35549 1.01861 0.0
C737 C 0.19798 0.96418 0.07937 0.0
C738 C 0.20472 0.96039 0.03467 0.0
C739 C 0.17022 0.93932 0.10106 0.0
C740 C 0.1483 0.9097 0.07886 0.0
H741 H 0.21504 0.98582 0.0979 0.0
H742 H 0.16642 0.94292 0.13552 0.0
S743 S 0.15471 0.88698 0.96173 0.0
N744 N 0.1869 0.92396 0.96924 0.0
N745 N 0.13477 0.87838 1.00951 0.0
C746 C 0.15405 0.90623 0.03405 0.0
C747 C 0.18217 0.93129 1.01209 0.0
C748 C 0.57234 0.33661 0.44616 0.0
C749 C 0.58789 0.36687 0.47288 0.0
C750 C 0.55106 0.30401 0.46373 0.0
C751 C 0.5448 0.30061 0.50855 0.0
H752 H 0.57928 0.3364 0.41203 0.0
H753 H 0.54273 0.27949 0.44262 0.0
S754 S 0.57145 0.37692 0.59073 0.0
N755 N 0.58891 0.39549 0.54498 0.0
N756 N 0.55012 0.33371 0.57812 0.0
C757 C 0.55598 0.33316 0.53474 0.0
C758 C 0.57746 0.36637 0.51686 0.0
C759 C 0.1307 0.56245 0.50943 0.0
C760 C 0.14369 0.58878 0.47674 0.0
C761 C 0.15836 0.5387 0.53243 0.0
C762 C 0.20002 0.54126 0.52413 0.0
H763 H 0.09915 0.56142 0.51844 0.0
H764 H 0.14732 0.52005 0.55861 0.0
S765 S 0.24851 0.60668 0.44147 0.0
N766 N 0.19983 0.61548 0.43596 0.0
N767 N 0.25235 0.57262 0.48007 0.0
C768 C 0.21292 0.56647 0.48998 0.0
C769 C 0.18459 0.58991 0.46613 0.0
C770 C 0.93852 0.16134 0.46538 0.0
C771 C 0.90817 0.14252 0.48985 0.0
C772 C 0.96718 0.1865 0.48494 0.0
C773 C 0.96651 0.19388 0.5297 0.0
H774 H 0.93991 0.15702 0.43082 0.0
H775 H 0.98935 0.20114 0.46464 0.0
S776 S 0.89327 0.15012 0.60831 0.0
N777 N 0.87998 0.1315 0.56134 0.0
N778 N 0.9324 0.17894 0.59787 0.0
C779 C 0.93676 0.17396 0.55458 0.0
C780 C 0.90792 0.1484 0.53471 0.0
C781 C 0.3522 0.89784 0.51033 0.0
C782 C 0.3603 0.90468 0.46644 0.0
C783 C 0.32679 0.92307 0.53354 0.0
C784 C 0.30818 0.95668 0.51419 0.0
H785 H 0.36503 0.87221 0.52713 0.0
H786 H 0.32047 0.91491 0.5667 0.0
S787 S 0.32125 0.9896 0.40061 0.0
N788 N 0.34912 0.94849 0.40457 0.0
N789 N 0.30092 0.99649 0.44868 0.0
C790 C 0.31654 0.96455 0.47044 0.0
C791 C 0.34269 0.9385 0.4465 0.0
C792 C 0.4453 0.79902 0.96739 0.0
C793 C 0.47042 0.80749 1.003 0.0
C794 C 0.42375 0.82961 0.9464 0.0
C795 C 0.42572 0.86932 0.96107 0.0
H796 H 0.43918 0.76831 0.95795 0.0
H797 H 0.40276 0.82161 0.92118 0.0
S798 S 0.49419 0.9091 0.04486 0.0
N799 N 0.50289 0.86018 0.04473 0.0
N800 N 0.45926 0.91699 1.00786 0.0
C801 C 0.45355 0.87892 0.99339 0.0
C802 C 0.4768 0.84812 1.0136 0.0
C803 C 0.65914 0.47145 1.02038 0.0
C804 C 0.70089 0.46861 1.01287 0.0
C805 C 0.63193 0.44705 0.99799 0.0
C806 C 0.64539 0.4198 0.96664 0.0
H807 H 0.64766 0.49087 0.04554 0.0
H808 H 0.60032 0.44839 1.0064 0.0
S809 S 0.75071 0.40105 0.93359 0.0
N810 N 0.75394 0.43608 0.97092 0.0
N811 N 0.70214 0.39205 0.92772 0.0
C812 C 0.68642 0.41837 0.95666 0.0
C813 C 0.71436 0.44245 0.98 0.0
C814 C 0.06128 0.71653 0.98946 0.0
C815 C 0.03787 0.70466 1.02546 0.0
C816 C 0.08428 0.68861 0.96622 0.0
C817 C 0.08552 0.64812 0.97882 0.0
H818 H 0.06462 0.74798 0.98104 0.0
H819 H 0.10361 0.69935 0.94046 0.0
S820 S 0.02446 0.60011 0.0648 0.0
N821 N 0.01182 0.64808 0.06678 0.0
N822 N 0.05811 0.59641 1.02579 0.0
C823 C 0.0602 0.63527 1.0124 0.0
C824 C 0.03549 0.66333 0.03492 0.0
C825 C 0.8372 0.07794 0.05315 0.0
C826 C 0.81779 0.0447 0.03429 0.0
C827 C 0.86312 0.10246 0.02954 0.0
C828 C 0.87087 0.09532 0.98571 0.0
H829 H 0.83066 0.0869 0.08594 0.0
H830 H 0.87604 0.1282 0.04577 0.0
S831 S 0.83223 0.00953 0.92186 0.0
N832 N 0.81147 1.00357 0.9699 0.0
N833 N 0.86015 0.05054 0.92499 0.0
C834 C 0.85346 0.06121 0.96661 0.0
C835 C 0.82698 0.03576 0.99098 0.0
C836 C 0.42577 0.67265 0.49857 0.0
C837 C 0.45965 0.69219 0.51607 0.0
C838 C 0.40146 0.64764 0.52362 0.0
C839 C 0.40953 0.64105 0.56754 0.0
H840 H 0.41631 0.67834 0.46569 0.0
H841 H 0.37521 0.63445 0.5085 0.0
S842 S 0.49723 0.68045 0.62814 0.0
N843 N 0.50229 0.69987 0.57931 0.0
N844 N 0.45582 0.65295 0.62686 0.0
C845 C 0.44422 0.65869 0.5853 0.0
C846 C 0.46941 0.68418 0.55949 0.0
C847 C 0.82075 0.46003 0.57261 0.0
C848 C 0.81213 0.45634 0.52827 0.0
C849 C 0.84891 0.43461 0.59305 0.0
C850 C 0.86948 0.40465 0.56985 0.0
H851 H 0.8049 0.48208 0.59189 0.0
H852 H 0.85425 0.4382 0.62727 0.0
S853 S 0.85797 0.38165 0.45335 0.0
N854 N 0.82677 0.41931 0.46218 0.0
N855 N 0.87963 0.3728 0.50019 0.0
C856 C 0.86189 0.4012 0.52542 0.0
C857 C 0.83331 0.42673 0.50473 0.0
C858 C 0.06913 0.80001 0.58053 0.0
C859 C 0.04478 0.80936 0.54447 0.0
C860 C 0.09099 0.8299 0.602 0.0
C861 C 0.09014 0.86982 0.58747 0.0
H862 H 0.07415 0.76907 0.59022 0.0
H863 H 0.11118 0.82119 0.62777 0.0
S864 S 0.02458 0.91181 0.50173 0.0
N865 N 0.01483 0.86312 0.50161 0.0
N866 N 0.05879 0.91857 0.53966 0.0
C867 C 0.06339 0.88027 0.55426 0.0
C868 C 0.03991 0.8502 0.53343 0.0
C869 C 0.68434 0.07133 0.61889 0.0
C870 C 0.6434 0.06816 0.60827 0.0
C871 C 0.71365 0.05094 0.59468 0.0
C872 C 0.70278 0.02623 0.55958 0.0
H873 H 0.69419 0.09291 0.64266 0.0
H874 H 0.74497 0.05804 0.60077 0.0
S875 S 0.59906 0.99926 0.52761 0.0
N876 N 0.59312 0.03272 0.56635 0.0
N877 N 0.64808 0.99266 0.52256 0.0
C878 C 0.66177 0.01819 0.55334 0.0
C879 C 0.63207 0.03959 0.57731 0.0
C880 C 0.79066 0.27394 0.16345 0.0
C881 C 0.75848 0.30003 0.15397 0.0
C882 C 0.78457 0.23222 0.16605 0.0
C883 C 0.74609 0.21542 0.15993 0.0
H884 H 0.82115 0.28543 0.16476 0.0
H885 H 0.8105 0.21266 0.16953 0.0
S886 S 0.65129 0.27166 0.14056 0.0
N887 N 0.68632 0.30682 0.14352 0.0
N888 N 0.67486 0.22845 0.14851 0.0
C889 C 0.71318 0.24156 0.15469 0.0
C890 C 0.71942 0.28391 0.15166 0.0
C891 C 0.22925 0.72163 0.16909 0.0
C892 C 0.21421 0.76119 0.16613 0.0
C893 C 0.2708 0.7138 0.16703 0.0
C894 C 0.29843 0.74533 0.16129 0.0
H895 H 0.2085 0.6965 0.16902 0.0
H896 H 0.28095 0.68287 0.1651 0.0
S897 S 0.27496 0.85424 0.15783 0.0
N898 N 0.23054 0.83227 0.1625 0.0
N899 N 0.30856 0.8175 0.1582 0.0
C900 C 0.28404 0.78507 0.16282 0.0
C901 C 0.24188 0.79305 0.16535 0.0
C902 C 0.70732 0.2682 0.40521 0.0
C903 C 0.73965 0.29518 0.40121 0.0
C904 C 0.71427 0.22663 0.40859 0.0
C905 C 0.75365 0.21077 0.40756 0.0
H906 H 0.67706 0.27955 0.41014 0.0
H907 H 0.68903 0.20696 0.41536 0.0
S908 S 0.8477 0.2689 0.39147 0.0
N909 N 0.81163 0.30321 0.39138 0.0
N910 N 0.82482 0.22515 0.3976 0.0
C911 C 0.78572 0.2372 0.39919 0.0
C912 C 0.77863 0.27944 0.39604 0.0
C913 C 0.26816 0.79422 0.39007 0.0
C914 C 0.29401 0.76344 0.37619 0.0
C915 C 0.22709 0.78672 0.39672 0.0
C916 C 0.21061 0.74827 0.38957 0.0
H917 H 0.28054 0.8227 0.40053 0.0
H918 H 0.20884 0.80999 0.41138 0.0
S919 S 0.26446 0.66111 0.34235 0.0
N920 N 0.29954 0.69593 0.34781 0.0
N921 N 0.22208 0.68167 0.35965 0.0
C922 C 0.23518 0.71908 0.36999 0.0
C923 C 0.27707 0.72673 0.36356 0.0
C924 C 0.22471 0.78891 0.89635 0.0
C925 C 0.2651 0.80182 0.89792 0.0
C926 C 0.2149 0.74784 0.89754 0.0
C927 C 0.24525 0.71852 0.90093 0.0
H928 H 0.20061 0.81085 0.89826 0.0
H929 H 0.18355 0.7392 0.90042 0.0
S930 S 0.35533 0.73625 0.89947 0.0
N931 N 0.33538 0.78179 0.89727 0.0
N932 N 0.31696 0.70462 0.90016 0.0
C933 C 0.2856 0.73087 0.89805 0.0
C934 C 0.29556 0.77258 0.89629 0.0
C935 C 0.76678 0.20545 0.90632 0.0
C936 C 0.79403 0.23418 0.89061 0.0
C937 C 0.7257 0.21453 0.90998 0.0
C938 C 0.71061 0.25268 0.89818 0.0
H939 H 0.77796 0.17765 0.92024 0.0
H940 H 0.70619 0.19289 0.92571 0.0
S941 S 0.76904 0.33397 0.84482 0.0
N942 N 0.80279 0.29881 0.85576 0.0
N943 N 0.7254 0.31619 0.86204 0.0
C944 C 0.73688 0.27948 0.87698 0.0
C945 C 0.77876 0.27014 0.8735 0.0
C946 C 0.29326 0.74267 0.65859 0.0
C947 C 0.26117 0.71519 0.6586 0.0
C948 C 0.28589 0.78425 0.65796 0.0
C949 C 0.24629 0.79958 0.65792 0.0
H950 H 0.32389 0.732 0.65462 0.0
H951 H 0.31109 0.80455 0.6537 0.0
S952 S 0.15253 0.73967 0.66547 0.0
N953 N 0.18896 0.70575 0.66426 0.0
N954 N 0.17509 0.78393 0.66386 0.0
C955 C 0.21432 0.77236 0.6629 0.0
C956 C 0.2218 0.73009 0.66294 0.0
C957 C 0.7892 0.20948 0.62034 0.0
C958 C 0.80626 0.24488 0.63738 0.0
C959 C 0.748 0.20118 0.62434 0.0
C960 C 0.72201 0.22777 0.6459 0.0
H961 H 0.80754 0.18887 0.60182 0.0
H962 H 0.73617 0.17487 0.60827 0.0
S963 S 0.75238 0.3206 0.70374 0.0
N964 N 0.79438 0.30431 0.68119 0.0
N965 N 0.71739 0.28766 0.69052 0.0
C966 C 0.7392 0.26138 0.66651 0.0
C967 C 0.7812 0.27013 0.66198 0.0
loop_
_geom_bond_atom_site_label_1
_geom_bond_atom_site_label_2
_geom_bond_distance
_geom_bond_site_symmetry_2
_ccdc_geom_bond_type
Co0 N4 2.148 . S
Co0 N10 2.128 . S
Co0 N20 2.194 . S
Co0 O25 2.351 . S
Co0 O26 2.155 . S
Co0 O27 2.096 . S
C1 N4 1.301 . S
C1 N5 1.328 . S
C1 H6 0.930 . S
C2 C3 1.333 1_545 S
C2 N4 1.317 . S
C2 H7 0.930 . S
C3 C2 1.333 1_565 S
C3 N5 1.350 1_565 S
C3 H29 0.931 . S
N4 Co0 2.148 . S
N4 C1 1.301 . S
N4 C2 1.317 . S
N5 C1 1.328 . S
N5 C3 1.350 1_545 S
H6 C1 0.930 . S
H7 C2 0.930 . S
C8 O9 1.224 . S
C8 O27 1.247 . S
O9 C8 1.224 . S
N10 Co0 2.128 . S
N10 C11 1.355 . S
N10 C13 1.311 . S
C11 N10 1.355 . S
C11 C12 1.363 . S
C11 H23 0.929 . S
C12 C11 1.363 . S
C12 N14 1.375 . S
C12 H30 0.931 . S
C13 N10 1.311 . S
C13 N14 1.347 . S
C13 H24 0.929 . S
N14 C12 1.375 . S
N14 C13 1.347 . S
C15 C18 1.365 . S
C15 N20 1.328 . S
C15 H21 0.929 . S
C16 C17 1.362 . S
C16 C19 1.378 . S
C16 H31 0.929 . S
C17 C16 1.362 . S
C17 C18 1.366 . S
C18 C15 1.365 . S
C18 C17 1.366 . S
C18 H32 0.930 1_554 S
C19 C16 1.378 . S
C19 N20 1.315 . S
C19 H22 0.930 . S
N20 Co0 2.194 . S
N20 C15 1.328 . S
N20 C19 1.315 . S
H21 C15 0.929 . S
H22 C19 0.930 . S
H23 C11 0.929 . S
H24 C13 0.929 . S
O25 Co0 2.351 . S
O25 C28 1.244 . S
O26 Co0 2.155 . S
O26 C28 1.240 . S
O27 Co0 2.096 . S
O27 C8 1.247 . S
C28 O25 1.244 . S
C28 O26 1.240 . S
H29 C3 0.931 . S
H30 C12 0.931 . S
H31 C16 0.929 . S
H32 C18 0.930 1_556 S
Co33 N37 2.148 . S
Co33 N43 2.128 . S
Co33 N53 2.194 . S
Co33 O58 2.351 . S
Co33 O59 2.155 . S
Co33 O60 2.096 . S
C34 N37 1.301 . S
C34 N38 1.328 . S
C34 H39 0.930 . S
C35 C36 1.333 . S
C35 N37 1.317 . S
C35 H40 0.930 . S
C36 C35 1.333 . S
C36 N38 1.350 . S
C36 H62 0.931 . S
N37 Co33 2.148 . S
N37 C34 1.301 . S
N37 C35 1.317 . S
N38 C34 1.328 . S
N38 C36 1.350 . S
H39 C34 0.930 . S
H40 C35 0.930 . S
C41 O42 1.224 . S
C41 O60 1.247 . S
O42 C41 1.224 . S
N43 Co33 2.128 . S
N43 C44 1.355 . S
N43 C46 1.311 . S
C44 N43 1.355 . S
C44 C45 1.363 . S
C44 H56 0.929 . S
C45 C44 1.363 . S
C45 N47 1.375 . S
C45 H63 0.931 . S
C46 N43 1.311 . S
C46 N47 1.347 . S
C46 H57 0.929 . S
N47 C45 1.375 . S
N47 C46 1.347 . S
C48 C51 1.365 . S
C48 N53 1.328 . S
C48 H54 0.929 . S
C49 C50 1.362 . S
C49 C52 1.378 . S
C49 H64 0.929 . S
C50 C49 1.362 . S
C50 C51 1.366 . S
C51 C48 1.365 . S
C51 C50 1.366 . S
C51 H65 0.930 1_554 S
C52 C49 1.378 . S
C52 N53 1.315 . S
C52 H55 0.930 . S
N53 Co33 2.194 . S
N53 C48 1.328 . S
N53 C52 1.315 . S
H54 C48 0.929 . S
H55 C52 0.930 . S
H56 C44 0.929 . S
H57 C46 0.929 . S
O58 Co33 2.351 . S
O58 C61 1.244 . S
O59 Co33 2.155 . S
O59 C61 1.240 . S
O60 Co33 2.096 . S
O60 C41 1.247 . S
C61 O58 1.244 . S
C61 O59 1.240 . S
H62 C36 0.931 . S
H63 C45 0.931 . S
H64 C49 0.929 . S
H65 C51 0.930 1_556 S
Co66 N70 2.148 . S
Co66 N76 2.128 . S
Co66 N86 2.194 . S
Co66 O91 2.351 . S
Co66 O92 2.155 . S
Co66 O93 2.096 . S
C67 N70 1.301 . S
C67 N71 1.328 . S
C67 H72 0.930 . S
C68 C69 1.333 . S
C68 N70 1.317 . S
C68 H73 0.930 . S
C69 C68 1.333 . S
C69 N71 1.350 . S
C69 H95 0.931 . S
N70 Co66 2.148 . S
N70 C67 1.301 . S
N70 C68 1.317 . S
N71 C67 1.328 . S
N71 C69 1.350 . S
H72 C67 0.930 . S
H73 C68 0.930 . S
C74 O75 1.224 . S
C74 O93 1.247 . S
O75 C74 1.224 . S
N76 Co66 2.128 . S
N76 C77 1.355 . S
N76 C79 1.311 . S
C77 N76 1.355 . S
C77 C78 1.363 . S
C77 H89 0.929 . S
C78 C77 1.363 . S
C78 N80 1.375 . S
C78 H96 0.931 . S
C79 N76 1.311 . S
C79 N80 1.347 . S
C79 H90 0.929 . S
N80 C78 1.375 . S
N80 C79 1.347 . S
C81 C84 1.365 . S
C81 N86 1.328 . S
C81 H87 0.929 . S
C82 C83 1.362 . S
C82 C85 1.378 . S
C82 H97 0.929 . S
C83 C82 1.362 . S
C83 C84 1.366 . S
C84 C81 1.365 . S
C84 C83 1.366 . S
C84 H98 0.930 1_554 S
C85 C82 1.378 . S
C85 N86 1.315 . S
C85 H88 0.930 . S
N86 Co66 2.194 . S
N86 C81 1.328 . S
N86 C85 1.315 . S
H87 C81 0.929 . S
H88 C85 0.930 . S
H89 C77 0.929 . S
H90 C79 0.929 . S
O91 Co66 2.351 . S
O91 C94 1.244 . S
O92 Co66 2.155 . S
O92 C94 1.240 . S
O93 Co66 2.096 . S
O93 C74 1.247 . S
C94 O91 1.244 . S
C94 O92 1.240 . S
H95 C69 0.931 . S
H96 C78 0.931 . S
H97 C82 0.929 . S
H98 C84 0.930 1_556 S
Co99 N103 2.148 . S
Co99 N109 2.128 . S
Co99 N119 2.194 . S
Co99 O124 2.351 . S
Co99 O125 2.155 . S
Co99 O126 2.096 . S
C100 N103 1.301 . S
C100 N104 1.328 . S
C100 H105 0.930 . S
C101 C102 1.333 1_455 S
C101 N103 1.317 . S
C101 H106 0.930 . S
C102 C101 1.333 1_655 S
C102 N104 1.350 1_655 S
C102 H128 0.931 . S
N103 Co99 2.148 . S
N103 C100 1.301 . S
N103 C101 1.317 . S
N104 C100 1.328 . S
N104 C102 1.350 1_455 S
H105 C100 0.930 . S
H106 C101 0.930 . S
C107 O108 1.224 . S
C107 O126 1.247 . S
O108 C107 1.224 . S
N109 Co99 2.128 . S
N109 C110 1.355 . S
N109 C112 1.311 . S
C110 N109 1.355 . S
C110 C111 1.363 . S
C110 H122 0.929 . S
C111 C110 1.363 . S
C111 N113 1.375 . S
C111 H129 0.931 . S
C112 N109 1.311 . S
C112 N113 1.347 . S
C112 H123 0.929 . S
N113 C111 1.375 . S
N113 C112 1.347 . S
C114 C117 1.365 . S
C114 N119 1.328 . S
C114 H120 0.929 . S
C115 C116 1.362 . S
C115 C118 1.378 . S
C115 H130 0.929 . S
C116 C115 1.362 . S
C116 C117 1.366 . S
C117 C114 1.365 . S
C117 C116 1.366 . S
C117 H131 0.930 1_554 S
C118 C115 1.378 . S
C118 N119 1.315 . S
C118 H121 0.930 . S
N119 Co99 2.194 . S
N119 C114 1.328 . S
N119 C118 1.315 . S
H120 C114 0.929 . S
H121 C118 0.930 . S
H122 C110 0.929 . S
H123 C112 0.929 . S
O124 Co99 2.351 . S
O124 C127 1.244 . S
O125 Co99 2.155 . S
O125 C127 1.240 . S
O126 Co99 2.096 . S
O126 C107 1.247 . S
C127 O124 1.244 . S
C127 O125 1.240 . S
H128 C102 0.931 . S
H129 C111 0.931 . S
H130 C115 0.929 . S
H131 C117 0.930 1_556 S
Co132 N136 2.148 . S
Co132 N142 2.128 . S
Co132 N152 2.194 . S
Co132 O157 2.351 . S
Co132 O158 2.155 . S
Co132 O159 2.096 . S
C133 N136 1.301 . S
C133 N137 1.328 . S
C133 H138 0.930 . S
C134 C135 1.333 . S
C134 N136 1.317 . S
C134 H139 0.930 . S
C135 C134 1.333 . S
C135 N137 1.350 . S
C135 H161 0.931 . S
N136 Co132 2.148 . S
N136 C133 1.301 . S
N136 C134 1.317 . S
N137 C133 1.328 . S
N137 C135 1.350 . S
H138 C133 0.930 . S
H139 C134 0.930 . S
C140 O141 1.224 . S
C140 O159 1.247 . S
O141 C140 1.224 . S
N142 Co132 2.128 . S
N142 C143 1.355 . S
N142 C145 1.311 . S
C143 N142 1.355 . S
C143 C144 1.363 . S
C143 H155 0.929 . S
C144 C143 1.363 . S
C144 N146 1.375 . S
C144 H162 0.931 . S
C145 N142 1.311 . S
C145 N146 1.347 . S
C145 H156 0.929 . S
N146 C144 1.375 . S
N146 C145 1.347 . S
C147 C150 1.365 . S
C147 N152 1.328 . S
C147 H153 0.929 . S
C148 C149 1.362 . S
C148 C151 1.378 . S
C148 H163 0.929 . S
C149 C148 1.362 . S
C149 C150 1.366 . S
C150 C147 1.365 . S
C150 C149 1.366 . S
C150 H164 0.930 . S
C151 C148 1.378 . S
C151 N152 1.315 . S
C151 H154 0.930 . S
N152 Co132 2.194 . S
N152 C147 1.328 . S
N152 C151 1.315 . S
H153 C147 0.929 . S
H154 C151 0.930 . S
H155 C143 0.929 . S
H156 C145 0.929 . S
O157 Co132 2.351 . S
O157 C160 1.244 . S
O158 Co132 2.155 . S
O158 C160 1.240 . S
O159 Co132 2.096 . S
O159 C140 1.247 . S
C160 O157 1.244 . S
C160 O158 1.240 . S
H161 C135 0.931 . S
H162 C144 0.931 . S
H163 C148 0.929 . S
H164 C150 0.930 . S
Co165 N169 2.148 . S
Co165 N175 2.128 . S
Co165 N185 2.194 . S
Co165 O190 2.351 . S
Co165 O191 2.155 . S
Co165 O192 2.096 . S
C166 N169 1.301 . S
C166 N170 1.328 . S
C166 H171 0.930 . S
C167 C168 1.333 1_455 S
C167 N169 1.317 . S
C167 H172 0.930 . S
C168 C167 1.333 1_655 S
C168 N170 1.350 1_655 S
C168 H194 0.931 . S
N169 Co165 2.148 . S
N169 C166 1.301 . S
N169 C167 1.317 . S
N170 C166 1.328 . S
N170 C168 1.350 1_455 S
H171 C166 0.930 . S
H172 C167 0.930 . S
C173 O174 1.224 . S
C173 O192 1.247 . S
O174 C173 1.224 . S
N175 Co165 2.128 . S
N175 C176 1.355 . S
N175 C178 1.311 . S
C176 N175 1.355 . S
C176 C177 1.363 . S
C176 H188 0.929 . S
C177 C176 1.363 . S
C177 N179 1.375 . S
C177 H195 0.931 . S
C178 N175 1.311 . S
C178 N179 1.347 . S
C178 H189 0.929 . S
N179 C177 1.375 . S
N179 C178 1.347 . S
C180 C183 1.365 . S
C180 N185 1.328 . S
C180 H186 0.929 . S
C181 C182 1.362 . S
C181 C184 1.378 . S
C181 H196 0.929 . S
C182 C181 1.362 . S
C182 C183 1.366 . S
C183 C180 1.365 . S
C183 C182 1.366 . S
C183 H197 0.930 . S
C184 C181 1.378 . S
C184 N185 1.315 . S
C184 H187 0.930 . S
N185 Co165 2.194 . S
N185 C180 1.328 . S
N185 C184 1.315 . S
H186 C180 0.929 . S
H187 C184 0.930 . S
H188 C176 0.929 . S
H189 C178 0.929 . S
O190 Co165 2.351 . S
O190 C193 1.244 . S
O191 Co165 2.155 . S
O191 C193 1.240 . S
O192 Co165 2.096 . S
O192 C173 1.247 . S
C193 O190 1.244 . S
C193 O191 1.240 . S
H194 C168 0.931 . S
H195 C177 0.931 . S
H196 C181 0.929 . S
H197 C183 0.930 . S
Co198 N202 2.148 . S
Co198 N208 2.128 . S
Co198 N218 2.194 . S
Co198 O223 2.351 . S
Co198 O224 2.155 . S
Co198 O225 2.096 . S
C199 N202 1.301 . S
C199 N203 1.328 . S
C199 H204 0.930 . S
C200 C201 1.333 1_545 S
C200 N202 1.317 . S
C200 H205 0.930 . S
C201 C200 1.333 1_565 S
C201 N203 1.350 1_565 S
C201 H227 0.931 . S
N202 Co198 2.148 . S
N202 C199 1.301 . S
N202 C200 1.317 . S
N203 C199 1.328 . S
N203 C201 1.350 1_545 S
H204 C199 0.930 . S
H205 C200 0.930 . S
C206 O207 1.224 . S
C206 O225 1.247 . S
O207 C206 1.224 . S
N208 Co198 2.128 . S
N208 C209 1.355 . S
N208 C211 1.311 . S
C209 N208 1.355 . S
C209 C210 1.363 . S
C209 H221 0.929 . S
C210 C209 1.363 . S
C210 N212 1.375 . S
C210 H228 0.931 . S
C211 N208 1.311 . S
C211 N212 1.347 . S
C211 H222 0.929 . S
N212 C210 1.375 . S
N212 C211 1.347 . S
C213 C216 1.365 . S
C213 N218 1.328 . S
C213 H219 0.929 . S
C214 C215 1.362 . S
C214 C217 1.378 . S
C214 H229 0.929 . S
C215 C214 1.362 . S
C215 C216 1.366 . S
C216 C213 1.365 . S
C216 C215 1.366 . S
C216 H230 0.930 . S
C217 C214 1.378 . S
C217 N218 1.315 . S
C217 H220 0.930 . S
N218 Co198 2.194 . S
N218 C213 1.328 . S
N218 C217 1.315 . S
H219 C213 0.929 . S
H220 C217 0.930 . S
H221 C209 0.929 . S
H222 C211 0.929 . S
O223 Co198 2.351 . S
O223 C226 1.244 . S
O224 Co198 2.155 . S
O224 C226 1.240 . S
O225 Co198 2.096 . S
O225 C206 1.247 . S
C226 O223 1.244 . S
C226 O224 1.240 . S
H227 C201 0.931 . S
H228 C210 0.931 . S
H229 C214 0.929 . S
H230 C216 0.930 . S
Co231 N235 2.148 . S
Co231 N241 2.128 . S
Co231 N251 2.194 . S
Co231 O256 2.351 . S
Co231 O257 2.155 . S
Co231 O258 2.096 . S
C232 N235 1.301 . S
C232 N236 1.328 . S
C232 H237 0.930 . S
C233 C234 1.333 . S
C233 N235 1.317 . S
C233 H238 0.930 . S
C234 C233 1.333 . S
C234 N236 1.350 . S
C234 H260 0.931 . S
N235 Co231 2.148 . S
N235 C232 1.301 . S
N235 C233 1.317 . S
N236 C232 1.328 . S
N236 C234 1.350 . S
H237 C232 0.930 . S
H238 C233 0.930 . S
C239 O240 1.224 . S
C239 O258 1.247 . S
O240 C239 1.224 . S
N241 Co231 2.128 . S
N241 C242 1.355 . S
N241 C244 1.311 . S
C242 N241 1.355 . S
C242 C243 1.363 . S
C242 H254 0.929 . S
C243 C242 1.363 . S
C243 N245 1.375 . S
C243 H261 0.931 . S
C244 N241 1.311 . S
C244 N245 1.347 . S
C244 H255 0.929 . S
N245 C243 1.375 . S
N245 C244 1.347 . S
C246 C249 1.365 . S
C246 N251 1.328 . S
C246 H252 0.929 . S
C247 C248 1.362 . S
C247 C250 1.378 . S
C247 H262 0.929 . S
C248 C247 1.362 . S
C248 C249 1.366 . S
C249 C246 1.365 . S
C249 C248 1.366 . S
C249 H263 0.930 . S
C250 C247 1.378 . S
C250 N251 1.315 . S
C250 H253 0.930 . S
N251 Co231 2.194 . S
N251 C246 1.328 . S
N251 C250 1.315 . S
H252 C246 0.929 . S
H253 C250 0.930 . S
H254 C242 0.929 . S
H255 C244 0.929 . S
O256 Co231 2.351 . S
O256 C259 1.244 . S
O257 Co231 2.155 . S
O257 C259 1.240 . S
O258 Co231 2.096 . S
O258 C239 1.247 . S
C259 O256 1.244 . S
C259 O257 1.240 . S
H260 C234 0.931 . S
H261 C243 0.931 . S
H262 C247 0.929 . S
H263 C249 0.930 . S
Co264 N268 2.148 . S
Co264 N274 2.128 . S
Co264 N284 2.194 . S
Co264 O289 2.351 . S
Co264 O290 2.155 . S
Co264 O291 2.096 . S
C265 N268 1.301 . S
C265 N269 1.328 . S
C265 H270 0.930 . S
C266 C267 1.333 1_565 S
C266 N268 1.317 . S
C266 H271 0.930 . S
C267 C266 1.333 1_545 S
C267 N269 1.350 1_545 S
C267 H293 0.931 . S
N268 Co264 2.148 . S
N268 C265 1.301 . S
N268 C266 1.317 . S
N269 C265 1.328 . S
N269 C267 1.350 1_565 S
H270 C265 0.930 . S
H271 C266 0.930 . S
C272 O273 1.224 . S
C272 O291 1.247 . S
O273 C272 1.224 . S
N274 Co264 2.128 . S
N274 C275 1.355 . S
N274 C277 1.311 . S
C275 N274 1.355 . S
C275 C276 1.363 . S
C275 H287 0.929 . S
C276 C275 1.363 . S
C276 N278 1.375 . S
C276 H294 0.931 . S
C277 N274 1.311 . S
C277 N278 1.347 . S
C277 H288 0.929 . S
N278 C276 1.375 . S
N278 C277 1.347 . S
C279 C282 1.365 . S
C279 N284 1.328 . S
C279 H285 0.929 . S
C280 C281 1.362 . S
C280 C283 1.378 . S
C280 H295 0.929 . S
C281 C280 1.362 . S
C281 C282 1.366 . S
C282 C279 1.365 . S
C282 C281 1.366 . S
C282 H296 0.930 1_556 S
C283 C280 1.378 . S
C283 N284 1.315 . S
C283 H286 0.930 . S
N284 Co264 2.194 . S
N284 C279 1.328 . S
N284 C283 1.315 . S
H285 C279 0.929 . S
H286 C283 0.930 . S
H287 C275 0.929 . S
H288 C277 0.929 . S
O289 Co264 2.351 . S
O289 C292 1.244 . S
O290 Co264 2.155 . S
O290 C292 1.240 . S
O291 Co264 2.096 . S
O291 C272 1.247 . S
C292 O289 1.244 . S
C292 O290 1.240 . S
H293 C267 0.931 . S
H294 C276 0.931 . S
H295 C280 0.929 . S
H296 C282 0.930 1_554 S
Co297 N301 2.148 . S
Co297 N307 2.128 . S
Co297 N317 2.194 . S
Co297 O322 2.351 . S
Co297 O323 2.155 . S
Co297 O324 2.096 . S
C298 N301 1.301 . S
C298 N302 1.328 . S
C298 H303 0.930 . S
C299 C300 1.333 . S
C299 N301 1.317 . S
C299 H304 0.930 . S
C300 C299 1.333 . S
C300 N302 1.350 . S
C300 H326 0.931 . S
N301 Co297 2.148 . S
N301 C298 1.301 . S
N301 C299 1.317 . S
N302 C298 1.328 . S
N302 C300 1.350 . S
H303 C298 0.930 . S
H304 C299 0.930 . S
C305 O306 1.224 . S
C305 O324 1.247 . S
O306 C305 1.224 . S
N307 Co297 2.128 . S
N307 C308 1.355 . S
N307 C310 1.311 . S
C308 N307 1.355 . S
C308 C309 1.363 . S
C308 H320 0.929 . S
C309 C308 1.363 . S
C309 N311 1.375 . S
C309 H327 0.931 . S
C310 N307 1.311 . S
C310 N311 1.347 . S
C310 H321 0.929 . S
N311 C309 1.375 . S
N311 C310 1.347 . S
C312 C315 1.365 . S
C312 N317 1.328 . S
C312 H318 0.929 . S
C313 C314 1.362 . S
C313 C316 1.378 . S
C313 H328 0.929 . S
C314 C313 1.362 . S
C314 C315 1.366 . S
C315 C312 1.365 . S
C315 C314 1.366 . S
C315 H329 0.930 1_556 S
C316 C313 1.378 . S
C316 N317 1.315 . S
C316 H319 0.930 . S
N317 Co297 2.194 . S
N317 C312 1.328 . S
N317 C316 1.315 . S
H318 C312 0.929 . S
H319 C316 0.930 . S
H320 C308 0.929 . S
H321 C310 0.929 . S
O322 Co297 2.351 . S
O322 C325 1.244 . S
O323 Co297 2.155 . S
O323 C325 1.240 . S
O324 Co297 2.096 . S
O324 C305 1.247 . S
C325 O322 1.244 . S
C325 O323 1.240 . S
H326 C300 0.931 . S
H327 C309 0.931 . S
H328 C313 0.929 . S
H329 C315 0.930 1_554 S
Co330 N334 2.148 . S
Co330 N340 2.128 . S
Co330 N350 2.194 . S
Co330 O355 2.351 . S
Co330 O356 2.155 . S
Co330 O357 2.096 . S
C331 N334 1.301 . S
C331 N335 1.328 . S
C331 H336 0.930 . S
C332 C333 1.333 . S
C332 N334 1.317 . S
C332 H337 0.930 . S
C333 C332 1.333 . S
C333 N335 1.350 . S
C333 H359 0.931 . S
N334 Co330 2.148 . S
N334 C331 1.301 . S
N334 C332 1.317 . S
N335 C331 1.328 . S
N335 C333 1.350 . S
H336 C331 0.930 . S
H337 C332 0.930 . S
C338 O339 1.224 . S
C338 O357 1.247 . S
O339 C338 1.224 . S
N340 Co330 2.128 . S
N340 C341 1.355 . S
N340 C343 1.311 . S
C341 N340 1.355 . S
C341 C342 1.363 . S
C341 H353 0.929 . S
C342 C341 1.363 . S
C342 N344 1.375 . S
C342 H360 0.931 . S
C343 N340 1.311 . S
C343 N344 1.347 . S
C343 H354 0.929 . S
N344 C342 1.375 . S
N344 C343 1.347 . S
C345 C348 1.365 . S
C345 N350 1.328 . S
C345 H351 0.929 . S
C346 C347 1.362 . S
C346 C349 1.378 . S
C346 H361 0.929 . S
C347 C346 1.362 . S
C347 C348 1.366 . S
C348 C345 1.365 . S
C348 C347 1.366 . S
C348 H362 0.930 1_556 S
C349 C346 1.378 . S
C349 N350 1.315 . S
C349 H352 0.930 . S
N350 Co330 2.194 . S
N350 C345 1.328 . S
N350 C349 1.315 . S
H351 C345 0.929 . S
H352 C349 0.930 . S
H353 C341 0.929 . S
H354 C343 0.929 . S
O355 Co330 2.351 . S
O355 C358 1.244 . S
O356 Co330 2.155 . S
O356 C358 1.240 . S
O357 Co330 2.096 . S
O357 C338 1.247 . S
C358 O355 1.244 . S
C358 O356 1.240 . S
H359 C333 0.931 . S
H360 C342 0.931 . S
H361 C346 0.929 . S
H362 C348 0.930 1_554 S
Co363 N367 2.148 . S
Co363 N373 2.128 . S
Co363 N383 2.194 . S
Co363 O388 2.351 . S
Co363 O389 2.155 . S
Co363 O390 2.096 . S
C364 N367 1.301 . S
C364 N368 1.328 . S
C364 H369 0.930 . S
C365 C366 1.333 1_655 S
C365 N367 1.317 . S
C365 H370 0.930 . S
C366 C365 1.333 1_455 S
C366 N368 1.350 1_455 S
C366 H392 0.931 . S
N367 Co363 2.148 . S
N367 C364 1.301 . S
N367 C365 1.317 . S
N368 C364 1.328 . S
N368 C366 1.350 1_655 S
H369 C364 0.930 . S
H370 C365 0.930 . S
C371 O372 1.224 . S
C371 O390 1.247 . S
O372 C371 1.224 . S
N373 Co363 2.128 . S
N373 C374 1.355 . S
N373 C376 1.311 . S
C374 N373 1.355 . S
C374 C375 1.363 . S
C374 H386 0.929 . S
C375 C374 1.363 . S
C375 N377 1.375 . S
C375 H393 0.931 . S
C376 N373 1.311 . S
C376 N377 1.347 . S
C376 H387 0.929 . S
N377 C375 1.375 . S
N377 C376 1.347 . S
C378 C381 1.365 . S
C378 N383 1.328 . S
C378 H384 0.929 . S
C379 C380 1.362 . S
C379 C382 1.378 . S
C379 H394 0.929 . S
C380 C379 1.362 . S
C380 C381 1.366 . S
C381 C378 1.365 . S
C381 C380 1.366 . S
C381 H395 0.930 1_556 S
C382 C379 1.378 . S
C382 N383 1.315 . S
C382 H385 0.930 . S
N383 Co363 2.194 . S
N383 C378 1.328 . S
N383 C382 1.315 . S
H384 C378 0.929 . S
H385 C382 0.930 . S
H386 C374 0.929 . S
H387 C376 0.929 . S
O388 Co363 2.351 . S
O388 C391 1.244 . S
O389 Co363 2.155 . S
O389 C391 1.240 . S
O390 Co363 2.096 . S
O390 C371 1.247 . S
C391 O388 1.244 . S
C391 O389 1.240 . S
H392 C366 0.931 . S
H393 C375 0.931 . S
H394 C379 0.929 . S
H395 C381 0.930 1_554 S
Co396 N400 2.148 . S
Co396 N406 2.128 . S
Co396 N416 2.194 . S
Co396 O421 2.351 . S
Co396 O422 2.155 . S
Co396 O423 2.096 . S
C397 N400 1.301 . S
C397 N401 1.328 . S
C397 H402 0.930 . S
C398 C399 1.333 . S
C398 N400 1.317 . S
C398 H403 0.930 . S
C399 C398 1.333 . S
C399 N401 1.350 . S
C399 H425 0.931 . S
N400 Co396 2.148 . S
N400 C397 1.301 . S
N400 C398 1.317 . S
N401 C397 1.328 . S
N401 C399 1.350 . S
H402 C397 0.930 . S
H403 C398 0.930 . S
C404 O405 1.224 . S
C404 O423 1.247 . S
O405 C404 1.224 . S
N406 Co396 2.128 . S
N406 C407 1.355 . S
N406 C409 1.311 . S
C407 N406 1.355 . S
C407 C408 1.363 . S
C407 H419 0.929 . S
C408 C407 1.363 . S
C408 N410 1.375 . S
C408 H426 0.931 . S
C409 N406 1.311 . S
C409 N410 1.347 . S
C409 H420 0.929 . S
N410 C408 1.375 . S
N410 C409 1.347 . S
C411 C414 1.365 . S
C411 N416 1.328 . S
C411 H417 0.929 . S
C412 C413 1.362 . S
C412 C415 1.378 . S
C412 H427 0.929 . S
C413 C412 1.362 . S
C413 C414 1.366 . S
C414 C411 1.365 . S
C414 C413 1.366 . S
C414 H428 0.930 . S
C415 C412 1.378 . S
C415 N416 1.315 . S
C415 H418 0.930 . S
N416 Co396 2.194 . S
N416 C411 1.328 . S
N416 C415 1.315 . S
H417 C411 0.929 . S
H418 C415 0.930 . S
H419 C407 0.929 . S
H420 C409 0.929 . S
O421 Co396 2.351 . S
O421 C424 1.244 . S
O422 Co396 2.155 . S
O422 C424 1.240 . S
O423 Co396 2.096 . S
O423 C404 1.247 . S
C424 O421 1.244 . S
C424 O422 1.240 . S
H425 C399 0.931 . S
H426 C408 0.931 . S
H427 C412 0.929 . S
H428 C414 0.930 . S
Co429 N433 2.148 . S
Co429 N439 2.128 . S
Co429 N449 2.194 . S
Co429 O454 2.351 . S
Co429 O455 2.155 . S
Co429 O456 2.096 . S
C430 N433 1.301 . S
C430 N434 1.328 . S
C430 H435 0.930 . S
C431 C432 1.333 1_655 S
C431 N433 1.317 . S
C431 H436 0.930 . S
C432 C431 1.333 1_455 S
C432 N434 1.350 1_455 S
C432 H458 0.931 . S
N433 Co429 2.148 . S
N433 C430 1.301 . S
N433 C431 1.317 . S
N434 C430 1.328 . S
N434 C432 1.350 1_655 S
H435 C430 0.930 . S
H436 C431 0.930 . S
C437 O438 1.224 . S
C437 O456 1.247 . S
O438 C437 1.224 . S
N439 Co429 2.128 . S
N439 C440 1.355 . S
N439 C442 1.311 . S
C440 N439 1.355 . S
C440 C441 1.363 . S
C440 H452 0.929 . S
C441 C440 1.363 . S
C441 N443 1.375 . S
C441 H459 0.931 . S
C442 N439 1.311 . S
C442 N443 1.347 . S
C442 H453 0.929 . S
N443 C441 1.375 . S
N443 C442 1.347 . S
C444 C447 1.365 . S
C444 N449 1.328 . S
C444 H450 0.929 . S
C445 C446 1.362 . S
C445 C448 1.378 . S
C445 H460 0.929 . S
C446 C445 1.362 . S
C446 C447 1.366 . S
C447 C444 1.365 . S
C447 C446 1.366 . S
C447 H461 0.930 . S
C448 C445 1.378 . S
C448 N449 1.315 . S
C448 H451 0.930 . S
N449 Co429 2.194 . S
N449 C444 1.328 . S
N449 C448 1.315 . S
H450 C444 0.929 . S
H451 C448 0.930 . S
H452 C440 0.929 . S
H453 C442 0.929 . S
O454 Co429 2.351 . S
O454 C457 1.244 . S
O455 Co429 2.155 . S
O455 C457 1.240 . S
O456 Co429 2.096 . S
O456 C437 1.247 . S
C457 O454 1.244 . S
C457 O455 1.240 . S
H458 C432 0.931 . S
H459 C441 0.931 . S
H460 C445 0.929 . S
H461 C447 0.930 . S
Co462 N466 2.148 . S
Co462 N472 2.128 . S
Co462 N482 2.194 . S
Co462 O487 2.351 . S
Co462 O488 2.155 . S
Co462 O489 2.096 . S
C463 N466 1.301 . S
C463 N467 1.328 . S
C463 H468 0.930 . S
C464 C465 1.333 1_565 S
C464 N466 1.317 . S
C464 H469 0.930 . S
C465 C464 1.333 1_545 S
C465 N467 1.350 1_545 S
C465 H491 0.931 . S
N466 Co462 2.148 . S
N466 C463 1.301 . S
N466 C464 1.317 . S
N467 C463 1.328 . S
N467 C465 1.350 1_565 S
H468 C463 0.930 . S
H469 C464 0.930 . S
C470 O471 1.224 . S
C470 O489 1.247 . S
O471 C470 1.224 . S
N472 Co462 2.128 . S
N472 C473 1.355 . S
N472 C475 1.311 . S
C473 N472 1.355 . S
C473 C474 1.363 . S
C473 H485 0.929 . S
C474 C473 1.363 . S
C474 N476 1.375 . S
C474 H492 0.931 . S
C475 N472 1.311 . S
C475 N476 1.347 . S
C475 H486 0.929 . S
N476 C474 1.375 . S
N476 C475 1.347 . S
C477 C480 1.365 . S
C477 N482 1.328 . S
C477 H483 0.929 . S
C478 C479 1.362 . S
C478 C481 1.378 . S
C478 H493 0.929 . S
C479 C478 1.362 . S
C479 C480 1.366 . S
C480 C477 1.365 . S
C480 C479 1.366 . S
C480 H494 0.930 . S
C481 C478 1.378 . S
C481 N482 1.315 . S
C481 H484 0.930 . S
N482 Co462 2.194 . S
N482 C477 1.328 . S
N482 C481 1.315 . S
H483 C477 0.929 . S
H484 C481 0.930 . S
H485 C473 0.929 . S
H486 C475 0.929 . S
O487 Co462 2.351 . S
O487 C490 1.244 . S
O488 Co462 2.155 . S
O488 C490 1.240 . S
O489 Co462 2.096 . S
O489 C470 1.247 . S
C490 O487 1.244 . S
C490 O488 1.240 . S
H491 C465 0.931 . S
H492 C474 0.931 . S
H493 C478 0.929 . S
H494 C480 0.930 . S
Co495 N499 2.148 . S
Co495 N505 2.128 . S
Co495 N515 2.194 . S
Co495 O520 2.351 . S
Co495 O521 2.155 . S
Co495 O522 2.096 . S
C496 N499 1.301 . S
C496 N500 1.328 . S
C496 H501 0.930 . S
C497 C498 1.333 . S
C497 N499 1.317 . S
C497 H502 0.930 . S
C498 C497 1.333 . S
C498 N500 1.350 . S
C498 H524 0.931 . S
N499 Co495 2.148 . S
N499 C496 1.301 . S
N499 C497 1.317 . S
N500 C496 1.328 . S
N500 C498 1.350 . S
H501 C496 0.930 . S
H502 C497 0.930 . S
C503 O504 1.224 . S
C503 O522 1.247 . S
O504 C503 1.224 . S
N505 Co495 2.128 . S
N505 C506 1.355 . S
N505 C508 1.311 . S
C506 N505 1.355 . S
C506 C507 1.363 . S
C506 H518 0.929 . S
C507 C506 1.363 . S
C507 N509 1.375 . S
C507 H525 0.931 . S
C508 N505 1.311 . S
C508 N509 1.347 . S
C508 H519 0.929 . S
N509 C507 1.375 . S
N509 C508 1.347 . S
C510 C513 1.365 . S
C510 N515 1.328 . S
C510 H516 0.929 . S
C511 C512 1.362 . S
C511 C514 1.378 . S
C511 H526 0.929 . S
C512 C511 1.362 . S
C512 C513 1.366 . S
C513 C510 1.365 . S
C513 C512 1.366 . S
C513 H527 0.930 . S
C514 C511 1.378 . S
C514 N515 1.315 . S
C514 H517 0.930 . S
N515 Co495 2.194 . S
N515 C510 1.328 . S
N515 C514 1.315 . S
H516 C510 0.929 . S
H517 C514 0.930 . S
H518 C506 0.929 . S
H519 C508 0.929 . S
O520 Co495 2.351 . S
O520 C523 1.244 . S
O521 Co495 2.155 . S
O521 C523 1.240 . S
O522 Co495 2.096 . S
O522 C503 1.247 . S
C523 O520 1.244 . S
C523 O521 1.240 . S
H524 C498 0.931 . S
H525 C507 0.931 . S
H526 C511 0.929 . S
H527 C513 0.930 . S
C528 C529 1.369 . S
C528 C530 1.419 . S
C528 H532 0.930 . S
C529 C528 1.369 . S
C529 C538 1.429 . S
C530 C528 1.419 . S
C530 C531 1.363 . S
C530 H533 0.929 . S
C531 C530 1.363 . S
C531 C537 1.428 . S
H532 C528 0.930 . S
H533 C530 0.929 . S
S534 N535 1.613 . S
S534 N536 1.610 . S
N535 S534 1.613 . S
N535 C538 1.350 . S
N536 S534 1.610 . S
N536 C537 1.351 . S
C537 C531 1.428 . S
C537 N536 1.351 . S
C537 C538 1.434 . S
C538 C529 1.429 . S
C538 N535 1.350 . S
C538 C537 1.434 . S
C539 C540 1.369 . S
C539 C541 1.419 . S
C539 H543 0.930 . S
C540 C539 1.369 . S
C540 C549 1.429 . S
C541 C539 1.419 . S
C541 C542 1.363 . S
C541 H544 0.929 . S
C542 C541 1.363 . S
C542 C548 1.428 . S
H543 C539 0.930 . S
H544 C541 0.929 . S
S545 N546 1.613 . S
S545 N547 1.610 . S
N546 S545 1.613 . S
N546 C549 1.350 . S
N547 S545 1.610 . S
N547 C548 1.351 . S
C548 C542 1.428 . S
C548 N547 1.351 . S
C548 C549 1.434 . S
C549 C540 1.429 . S
C549 N546 1.350 . S
C549 C548 1.434 . S
C550 C551 1.369 . S
C550 C552 1.419 . S
C550 H554 0.930 . S
C551 C550 1.369 . S
C551 C560 1.429 . S
C552 C550 1.419 . S
C552 C553 1.363 . S
C552 H555 0.929 . S
C553 C552 1.363 . S
C553 C559 1.428 . S
H554 C550 0.930 . S
H555 C552 0.929 . S
S556 N557 1.613 . S
S556 N558 1.610 . S
N557 S556 1.613 . S
N557 C560 1.350 . S
N558 S556 1.610 . S
N558 C559 1.351 . S
C559 C553 1.428 . S
C559 N558 1.351 . S
C559 C560 1.434 . S
C560 C551 1.429 . S
C560 N557 1.350 . S
C560 C559 1.434 . S
C561 C562 1.369 . S
C561 C563 1.419 . S
C561 H565 0.930 . S
C562 C561 1.369 . S
C562 C571 1.429 . S
C563 C561 1.419 . S
C563 C564 1.363 . S
C563 H566 0.929 . S
C564 C563 1.363 . S
C564 C570 1.428 . S
H565 C561 0.930 . S
H566 C563 0.929 . S
S567 N568 1.613 . S
S567 N569 1.610 . S
N568 S567 1.613 . S
N568 C571 1.350 . S
N569 S567 1.610 . S
N569 C570 1.351 . S
C570 C564 1.428 . S
C570 N569 1.351 . S
C570 C571 1.434 . S
C571 C562 1.429 . S
C571 N568 1.350 . S
C571 C570 1.434 . S
C572 C573 1.369 . S
C572 C574 1.419 . S
C572 H576 0.930 . S
C573 C572 1.369 . S
C573 C582 1.429 . S
C574 C572 1.419 . S
C574 C575 1.363 . S
C574 H577 0.929 . S
C575 C574 1.363 . S
C575 C581 1.428 . S
H576 C572 0.930 . S
H577 C574 0.929 . S
S578 N579 1.613 . S
S578 N580 1.610 . S
N579 S578 1.613 . S
N579 C582 1.350 . S
N580 S578 1.610 . S
N580 C581 1.351 . S
C581 C575 1.428 . S
C581 N580 1.351 . S
C581 C582 1.434 . S
C582 C573 1.429 . S
C582 N579 1.350 . S
C582 C581 1.434 . S
C583 C584 1.369 . S
C583 C585 1.419 . S
C583 H587 0.930 . S
C584 C583 1.369 . S
C584 C593 1.429 . S
C585 C583 1.419 . S
C585 C586 1.363 . S
C585 H588 0.929 . S
C586 C585 1.363 . S
C586 C592 1.428 . S
H587 C583 0.930 . S
H588 C585 0.929 . S
S589 N590 1.613 . S
S589 N591 1.610 . S
N590 S589 1.613 . S
N590 C593 1.350 . S
N591 S589 1.610 . S
N591 C592 1.351 . S
C592 C586 1.428 . S
C592 N591 1.351 . S
C592 C593 1.434 . S
C593 C584 1.429 . S
C593 N590 1.350 . S
C593 C592 1.434 . S
C594 C595 1.369 . S
C594 C596 1.419 . S
C594 H598 0.930 . S
C595 C594 1.369 . S
C595 C604 1.429 . S
C596 C594 1.419 . S
C596 C597 1.363 . S
C596 H599 0.929 . S
C597 C596 1.363 . S
C597 C603 1.428 . S
H598 C594 0.930 . S
H599 C596 0.929 . S
S600 N601 1.613 . S
S600 N602 1.610 . S
N601 S600 1.613 . S
N601 C604 1.350 . S
N602 S600 1.610 . S
N602 C603 1.351 . S
C603 C597 1.428 . S
C603 N602 1.351 . S
C603 C604 1.434 . S
C604 C595 1.429 . S
C604 N601 1.350 . S
C604 C603 1.434 . S
C605 C606 1.369 . S
C605 C607 1.419 . S
C605 H609 0.930 . S
C606 C605 1.369 . S
C606 C615 1.429 . S
C607 C605 1.419 . S
C607 C608 1.363 . S
C607 H610 0.929 . S
C608 C607 1.363 . S
C608 C614 1.428 . S
H609 C605 0.930 . S
H610 C607 0.929 . S
S611 N612 1.603 1_455 S
S611 N613 1.598 1_455 S
N612 S611 1.603 1_655 S
N612 C615 1.364 . S
N613 S611 1.598 1_655 S
N613 C614 1.369 . S
C614 C608 1.428 . S
C614 N613 1.369 . S
C614 C615 1.434 . S
C615 C606 1.429 . S
C615 N612 1.364 . S
C615 C614 1.434 . S
C616 C617 1.369 1_564 S
C616 C618 1.419 . S
C616 H620 0.930 . S
C617 C616 1.369 1_546 S
C617 C626 1.429 . S
C618 C616 1.419 . S
C618 C619 1.363 . S
C618 H621 0.929 . S
C619 C618 1.363 . S
C619 C625 1.428 1_564 S
H620 C616 0.930 . S
H621 C618 0.929 . S
S622 N623 1.613 . S
S622 N624 1.610 . S
N623 S622 1.613 . S
N623 C626 1.350 . S
N624 S622 1.610 . S
N624 C625 1.351 . S
C625 C619 1.428 1_546 S
C625 N624 1.351 . S
C625 C626 1.434 . S
C626 C617 1.429 . S
C626 N623 1.350 . S
C626 C625 1.434 . S
C627 C628 1.369 . S
C627 C629 1.419 1_556 S
C627 H631 0.930 . S
C628 C627 1.369 . S
C628 C637 1.429 . S
C629 C627 1.419 1_554 S
C629 C630 1.363 . S
C629 H632 0.929 . S
C630 C629 1.363 . S
C630 C636 1.428 . S
H631 C627 0.930 . S
H632 C629 0.929 . S
S633 N634 1.613 . S
S633 N635 1.610 1_556 S
N634 S633 1.613 . S
N634 C637 1.350 . S
N635 S633 1.610 1_554 S
N635 C636 1.351 . S
C636 C630 1.428 . S
C636 N635 1.351 . S
C636 C637 1.434 1_554 S
C637 C628 1.429 . S
C637 N634 1.350 . S
C637 C636 1.434 1_556 S
C638 C639 1.369 1_554 S
C638 C640 1.419 . S
C638 H642 0.930 . S
C639 C638 1.369 1_556 S
C639 C648 1.429 1_455 S
C640 C638 1.419 . S
C640 C641 1.363 1_455 S
C640 H643 0.929 . S
C641 C640 1.363 1_655 S
C641 C647 1.428 1_554 S
H642 C638 0.930 . S
H643 C640 0.929 . S
S644 N645 1.613 . S
S644 N646 1.610 . S
N645 S644 1.613 . S
N645 C648 1.350 . S
N646 S644 1.610 . S
N646 C647 1.351 . S
C647 C641 1.428 1_556 S
C647 N646 1.351 . S
C647 C648 1.434 . S
C648 C639 1.429 1_655 S
C648 N645 1.350 . S
C648 C647 1.434 . S
C649 C650 1.369 1_565 S
C649 C651 1.419 1_455 S
C649 H653 0.930 . S
C650 C649 1.369 1_545 S
C650 C659 1.429 1_556 S
C651 C649 1.419 1_655 S
C651 C652 1.363 1_556 S
C651 H654 0.929 . S
C652 C651 1.363 1_554 S
C652 C658 1.431 1_565 S
H653 C649 0.930 . S
H654 C651 0.929 . S
S655 N656 1.613 . S
S655 N657 1.611 . S
N656 S655 1.613 . S
N656 C659 1.350 . S
N657 S655 1.611 . S
N657 C658 1.350 1_455 S
C658 C652 1.431 1_545 S
C658 N657 1.350 1_655 S
C658 C659 1.431 1_655 S
C659 C650 1.429 1_554 S
C659 N656 1.350 . S
C659 C658 1.431 1_455 S
C660 C661 1.369 . S
C660 C662 1.419 . S
C660 H664 0.930 . S
C661 C660 1.369 . S
C661 C670 1.429 . S
C662 C660 1.419 . S
C662 C663 1.363 . S
C662 H665 0.929 . S
C663 C662 1.363 . S
C663 C669 1.428 . S
H664 C660 0.930 . S
H665 C662 0.929 . S
S666 N667 1.613 . S
S666 N668 1.610 . S
N667 S666 1.613 . S
N667 C670 1.350 . S
N668 S666 1.610 . S
N668 C669 1.351 . S
C669 C663 1.428 . S
C669 N668 1.351 . S
C669 C670 1.434 . S
C670 C661 1.429 . S
C670 N667 1.350 . S
C670 C669 1.434 . S
C671 C672 1.369 1_655 S
C671 C673 1.419 . S
C671 H675 0.930 . S
C672 C671 1.369 1_455 S
C672 C681 1.429 . S
C673 C671 1.419 . S
C673 C674 1.363 . S
C673 H676 0.929 . S
C674 C673 1.363 . S
C674 C680 1.428 1_655 S
H675 C671 0.930 . S
H676 C673 0.929 . S
S677 N678 1.613 . S
S677 N679 1.610 . S
N678 S677 1.613 . S
N678 C681 1.350 . S
N679 S677 1.610 . S
N679 C680 1.351 . S
C680 C674 1.428 1_455 S
C680 N679 1.351 . S
C680 C681 1.434 . S
C681 C672 1.429 . S
C681 N678 1.350 . S
C681 C680 1.434 . S
C682 C683 1.369 1_445 S
C682 C684 1.419 . S
C682 H686 0.930 . S
C683 C682 1.369 1_665 S
C683 C692 1.429 . S
C684 C682 1.419 . S
C684 C685 1.363 . S
C684 H687 0.929 . S
C685 C684 1.363 . S
C685 C691 1.428 1_445 S
H686 C682 0.930 . S
H687 C684 0.929 . S
S688 N689 1.613 . S
S688 N690 1.610 . S
N689 S688 1.613 . S
N689 C692 1.350 . S
N690 S688 1.610 . S
N690 C691 1.351 . S
C691 C685 1.428 1_665 S
C691 N690 1.351 . S
C691 C692 1.434 . S
C692 C683 1.429 . S
C692 N689 1.350 . S
C692 C691 1.434 . S
C693 C694 1.369 1_545 S
C693 C695 1.419 . S
C693 H697 0.930 . S
C694 C693 1.369 1_565 S
C694 C703 1.429 . S
C695 C693 1.419 . S
C695 C696 1.363 . S
C695 H698 0.929 . S
C696 C695 1.363 . S
C696 C702 1.428 1_545 S
H697 C693 0.930 . S
H698 C695 0.929 . S
S699 N700 1.613 . S
S699 N701 1.610 . S
N700 S699 1.613 . S
N700 C703 1.350 . S
N701 S699 1.610 . S
N701 C702 1.351 . S
C702 C696 1.428 1_565 S
C702 N701 1.351 . S
C702 C703 1.434 . S
C703 C694 1.429 . S
C703 N700 1.350 . S
C703 C702 1.434 . S
C704 C705 1.369 . S
C704 C706 1.419 1_556 S
C704 H708 0.930 . S
C705 C704 1.369 . S
C705 C714 1.429 1_556 S
C706 C704 1.419 1_554 S
C706 C707 1.363 . S
C706 H709 0.929 . S
C707 C706 1.363 . S
C707 C713 1.428 . S
H708 C704 0.930 . S
H709 C706 0.929 . S
S710 N711 1.613 . S
S710 N712 1.610 . S
N711 S710 1.613 . S
N711 C714 1.350 . S
N712 S710 1.610 . S
N712 C713 1.351 . S
C713 C707 1.428 . S
C713 N712 1.351 . S
C713 C714 1.434 . S
C714 C705 1.429 1_554 S
C714 N711 1.350 . S
C714 C713 1.434 . S
C715 C716 1.369 1_554 S
C715 C717 1.419 . S
C715 H719 0.930 . S
C716 C715 1.369 1_556 S
C716 C725 1.429 1_556 S
C717 C715 1.419 . S
C717 C718 1.363 . S
C717 H720 0.929 . S
C718 C717 1.363 . S
C718 C724 1.428 . S
H719 C715 0.930 . S
H720 C717 0.929 . S
S721 N722 1.613 1_554 S
S721 N723 1.610 . S
N722 S721 1.613 1_556 S
N722 C725 1.350 1_556 S
N723 S721 1.610 . S
N723 C724 1.351 . S
C724 C718 1.428 . S
C724 N723 1.351 . S
C724 C725 1.434 . S
C725 C716 1.429 1_554 S
C725 N722 1.350 1_554 S
C725 C724 1.434 . S
C726 C727 1.369 1_554 S
C726 C728 1.419 . S
C726 H730 0.930 1_554 S
C727 C726 1.369 1_556 S
C727 C736 1.429 1_556 S
C728 C726 1.419 . S
C728 C729 1.363 . S
C728 H731 0.929 . S
C729 C728 1.363 . S
C729 C735 1.428 . S
H730 C726 0.930 1_556 S
H731 C728 0.929 . S
S732 N733 1.613 . S
S732 N734 1.610 1_455 S
N733 S732 1.613 . S
N733 C736 1.350 1_455 S
N734 S732 1.610 1_655 S
N734 C735 1.351 . S
C735 C729 1.428 . S
C735 N734 1.351 . S
C735 C736 1.434 . S
C736 C727 1.429 1_554 S
C736 N733 1.350 1_655 S
C736 C735 1.434 . S
C737 C738 1.369 1_554 S
C737 C739 1.419 . S
C737 H741 0.930 . S
C738 C737 1.369 1_556 S
C738 C747 1.429 . S
C739 C737 1.419 . S
C739 C740 1.363 . S
C739 H742 0.929 . S
C740 C739 1.363 . S
C740 C746 1.428 . S
H741 C737 0.930 . S
H742 C739 0.929 . S
S743 N744 1.613 . S
S743 N745 1.610 . S
N744 S743 1.613 . S
N744 C747 1.350 . S
N745 S743 1.610 . S
N745 C746 1.351 1_556 S
C746 C740 1.428 . S
C746 N745 1.351 1_554 S
C746 C747 1.434 1_554 S
C747 C738 1.429 . S
C747 N744 1.350 . S
C747 C746 1.434 1_556 S
C748 C749 1.369 . S
C748 C750 1.419 . S
C748 H752 0.930 . S
C749 C748 1.369 . S
C749 C758 1.429 . S
C750 C748 1.419 . S
C750 C751 1.363 . S
C750 H753 0.929 . S
C751 C750 1.363 . S
C751 C757 1.428 . S
H752 C748 0.930 . S
H753 C750 0.929 . S
S754 N755 1.613 . S
S754 N756 1.610 . S
N755 S754 1.613 . S
N755 C758 1.350 . S
N756 S754 1.610 . S
N756 C757 1.351 . S
C757 C751 1.428 . S
C757 N756 1.351 . S
C757 C758 1.434 . S
C758 C749 1.429 . S
C758 N755 1.350 . S
C758 C757 1.434 . S
C759 C760 1.369 . S
C759 C761 1.419 . S
C759 H763 0.930 . S
C760 C759 1.369 . S
C760 C769 1.429 . S
C761 C759 1.419 . S
C761 C762 1.363 . S
C761 H764 0.929 . S
C762 C761 1.363 . S
C762 C768 1.428 . S
H763 C759 0.930 . S
H764 C761 0.929 . S
S765 N766 1.613 . S
S765 N767 1.610 . S
N766 S765 1.613 . S
N766 C769 1.350 . S
N767 S765 1.610 . S
N767 C768 1.351 . S
C768 C762 1.428 . S
C768 N767 1.351 . S
C768 C769 1.434 . S
C769 C760 1.429 . S
C769 N766 1.350 . S
C769 C768 1.434 . S
C770 C771 1.369 . S
C770 C772 1.419 . S
C770 H774 0.930 . S
C771 C770 1.369 . S
C771 C780 1.429 . S
C772 C770 1.419 . S
C772 C773 1.363 . S
C772 H775 0.929 . S
C773 C772 1.363 . S
C773 C779 1.428 . S
H774 C770 0.930 . S
H775 C772 0.929 . S
S776 N777 1.613 . S
S776 N778 1.610 . S
N777 S776 1.613 . S
N777 C780 1.350 . S
N778 S776 1.610 . S
N778 C779 1.351 . S
C779 C773 1.428 . S
C779 N778 1.351 . S
C779 C780 1.434 . S
C780 C771 1.429 . S
C780 N777 1.350 . S
C780 C779 1.434 . S
C781 C782 1.369 . S
C781 C783 1.419 . S
C781 H785 0.930 . S
C782 C781 1.369 . S
C782 C791 1.429 . S
C783 C781 1.419 . S
C783 C784 1.363 . S
C783 H786 0.929 . S
C784 C783 1.363 . S
C784 C790 1.428 . S
H785 C781 0.930 . S
H786 C783 0.929 . S
S787 N788 1.613 1_545 S
S787 N789 1.610 . S
N788 S787 1.613 1_565 S
N788 C791 1.350 . S
N789 S787 1.610 . S
N789 C790 1.351 1_545 S
C790 C784 1.428 . S
C790 N789 1.351 1_565 S
C790 C791 1.434 . S
C791 C782 1.429 . S
C791 N788 1.350 . S
C791 C790 1.434 . S
C792 C793 1.369 1_556 S
C792 C794 1.419 . S
C792 H796 0.936 . S
C793 C792 1.369 1_554 S
C793 C802 1.429 1_554 S
C794 C792 1.419 . S
C794 C795 1.363 . S
C794 H797 0.929 . S
C795 C794 1.363 . S
C795 C801 1.428 . S
H796 C792 0.936 . S
H797 C794 0.929 . S
S798 N799 1.613 . S
S798 N800 1.610 . S
N799 S798 1.613 . S
N799 C802 1.350 . S
N800 S798 1.610 . S
N800 C801 1.351 . S
C801 C795 1.428 . S
C801 N800 1.351 . S
C801 C802 1.434 . S
C802 C793 1.429 1_556 S
C802 N799 1.350 . S
C802 C801 1.434 . S
C803 C804 1.369 1_556 S
C803 C805 1.419 . S
C803 H807 0.930 . S
C804 C803 1.369 1_554 S
C804 C813 1.429 1_554 S
C805 C803 1.419 . S
C805 C806 1.363 . S
C805 H808 0.929 . S
C806 C805 1.363 . S
C806 C812 1.428 . S
H807 C803 0.930 . S
H808 C805 0.929 . S
S809 N810 1.613 1_556 S
S809 N811 1.610 . S
N810 S809 1.613 1_554 S
N810 C813 1.350 1_554 S
N811 S809 1.610 . S
N811 C812 1.351 . S
C812 C806 1.428 . S
C812 N811 1.351 . S
C812 C813 1.434 . S
C813 C804 1.429 1_556 S
C813 N810 1.350 1_556 S
C813 C812 1.434 . S
C814 C815 1.369 1_556 S
C814 C816 1.419 . S
C814 H818 0.930 . S
C815 C814 1.369 1_554 S
C815 C824 1.430 . S
C816 C814 1.419 . S
C816 C817 1.363 . S
C816 H819 0.929 . S
C817 C816 1.363 . S
C817 C823 1.428 . S
H818 C814 0.930 . S
H819 C816 0.929 . S
S820 N821 1.613 . S
S820 N822 1.610 1_554 S
N821 S820 1.613 . S
N821 C824 1.367 . S
N822 S820 1.610 1_556 S
N822 C823 1.351 . S
C823 C817 1.428 . S
C823 N822 1.351 . S
C823 C824 1.416 1_556 S
C824 C815 1.430 . S
C824 N821 1.367 . S
C824 C823 1.416 1_554 S
C825 C826 1.369 . S
C825 C827 1.419 1_554 S
C825 H829 0.930 . S
C826 C825 1.369 . S
C826 C835 1.429 1_554 S
C827 C825 1.419 1_556 S
C827 C828 1.363 . S
C827 H830 0.929 . S
C828 C827 1.363 . S
C828 C834 1.428 . S
H829 C825 0.930 . S
H830 C827 0.929 . S
S831 N832 1.613 . S
S831 N833 1.610 . S
N832 S831 1.613 . S
N832 C835 1.350 . S
N833 S831 1.610 . S
N833 C834 1.351 . S
C834 C828 1.428 . S
C834 N833 1.351 . S
C834 C835 1.434 . S
C835 C826 1.429 1_556 S
C835 N832 1.350 . S
C835 C834 1.434 . S
C836 C837 1.369 . S
C836 C838 1.419 . S
C836 H840 0.930 . S
C837 C836 1.369 . S
C837 C846 1.429 . S
C838 C836 1.419 . S
C838 C839 1.363 . S
C838 H841 0.929 . S
C839 C838 1.363 . S
C839 C845 1.428 . S
H840 C836 0.930 . S
H841 C838 0.929 . S
S842 N843 1.613 . S
S842 N844 1.610 . S
N843 S842 1.613 . S
N843 C846 1.350 . S
N844 S842 1.610 . S
N844 C845 1.351 . S
C845 C839 1.428 . S
C845 N844 1.351 . S
C845 C846 1.434 . S
C846 C837 1.429 . S
C846 N843 1.350 . S
C846 C845 1.434 . S
C847 C848 1.369 . S
C847 C849 1.419 . S
C847 H851 0.930 . S
C848 C847 1.369 . S
C848 C857 1.429 . S
C849 C847 1.419 . S
C849 C850 1.363 . S
C849 H852 0.929 . S
C850 C849 1.363 . S
C850 C856 1.428 . S
H851 C847 0.930 . S
H852 C849 0.929 . S
S853 N854 1.613 . S
S853 N855 1.610 . S
N854 S853 1.613 . S
N854 C857 1.350 . S
N855 S853 1.610 . S
N855 C856 1.351 . S
C856 C850 1.428 . S
C856 N855 1.351 . S
C856 C857 1.434 . S
C857 C848 1.429 . S
C857 N854 1.350 . S
C857 C856 1.434 . S
C858 C859 1.369 . S
C858 C860 1.419 . S
C858 H862 0.930 . S
C859 C858 1.369 . S
C859 C868 1.429 . S
C860 C858 1.419 . S
C860 C861 1.363 . S
C860 H863 0.929 . S
C861 C860 1.363 . S
C861 C867 1.428 . S
H862 C858 0.930 . S
H863 C860 0.929 . S
S864 N865 1.613 . S
S864 N866 1.610 1_655 S
N865 S864 1.613 . S
N865 C868 1.350 1_655 S
N866 S864 1.610 1_455 S
N866 C867 1.351 . S
C867 C861 1.428 . S
C867 N866 1.351 . S
C867 C868 1.434 . S
C868 C859 1.429 . S
C868 N865 1.350 1_455 S
C868 C867 1.434 . S
C869 C870 1.369 . S
C869 C871 1.419 . S
C869 H873 0.930 . S
C870 C869 1.369 . S
C870 C879 1.429 . S
C871 C869 1.419 . S
C871 C872 1.363 . S
C871 H874 0.929 . S
C872 C871 1.363 . S
C872 C878 1.428 . S
H873 C869 0.930 . S
H874 C871 0.929 . S
S875 N876 1.613 . S
S875 N877 1.610 . S
N876 S875 1.613 . S
N876 C879 1.350 . S
N877 S875 1.610 . S
N877 C878 1.351 . S
C878 C872 1.428 . S
C878 N877 1.351 . S
C878 C879 1.434 . S
C879 C870 1.429 . S
C879 N876 1.350 . S
C879 C878 1.434 . S
C880 C881 1.369 . S
C880 C882 1.419 . S
C880 H884 0.930 . S
C881 C880 1.369 . S
C881 C890 1.429 . S
C882 C880 1.419 . S
C882 C883 1.363 . S
C882 H885 0.929 . S
C883 C882 1.363 . S
C883 C889 1.428 . S
H884 C880 0.930 . S
H885 C882 0.929 . S
S886 N887 1.613 . S
S886 N888 1.610 . S
N887 S886 1.613 . S
N887 C890 1.350 . S
N888 S886 1.610 . S
N888 C889 1.351 . S
C889 C883 1.428 . S
C889 N888 1.351 . S
C889 C890 1.434 . S
C890 C881 1.429 . S
C890 N887 1.350 . S
C890 C889 1.434 . S
C891 C892 1.369 . S
C891 C893 1.419 . S
C891 H895 0.930 . S
C892 C891 1.369 . S
C892 C901 1.429 . S
C893 C891 1.419 . S
C893 C894 1.363 . S
C893 H896 0.929 . S
C894 C893 1.363 . S
C894 C900 1.428 . S
H895 C891 0.930 . S
H896 C893 0.929 . S
S897 N898 1.613 . S
S897 N899 1.610 . S
N898 S897 1.613 . S
N898 C901 1.350 . S
N899 S897 1.610 . S
N899 C900 1.351 . S
C900 C894 1.428 . S
C900 N899 1.351 . S
C900 C901 1.434 . S
C901 C892 1.429 . S
C901 N898 1.350 . S
C901 C900 1.434 . S
C902 C903 1.369 . S
C902 C904 1.419 . S
C902 H906 0.930 . S
C903 C902 1.369 . S
C903 C912 1.429 . S
C904 C902 1.419 . S
C904 C905 1.363 . S
C904 H907 0.929 . S
C905 C904 1.363 . S
C905 C911 1.428 . S
H906 C902 0.930 . S
H907 C904 0.929 . S
S908 N909 1.613 . S
S908 N910 1.610 . S
N909 S908 1.613 . S
N909 C912 1.350 . S
N910 S908 1.610 . S
N910 C911 1.351 . S
C911 C905 1.428 . S
C911 N910 1.351 . S
C911 C912 1.434 . S
C912 C903 1.429 . S
C912 N909 1.350 . S
C912 C911 1.434 . S
C913 C914 1.369 . S
C913 C915 1.419 . S
C913 H917 0.930 . S
C914 C913 1.369 . S
C914 C923 1.429 . S
C915 C913 1.419 . S
C915 C916 1.363 . S
C915 H918 0.929 . S
C916 C915 1.363 . S
C916 C922 1.428 . S
H917 C913 0.930 . S
H918 C915 0.929 . S
S919 N920 1.613 . S
S919 N921 1.610 . S
N920 S919 1.613 . S
N920 C923 1.350 . S
N921 S919 1.610 . S
N921 C922 1.351 . S
C922 C916 1.428 . S
C922 N921 1.351 . S
C922 C923 1.434 . S
C923 C914 1.429 . S
C923 N920 1.350 . S
C923 C922 1.434 . S
C924 C925 1.369 . S
C924 C926 1.419 . S
C924 H928 0.930 . S
C925 C924 1.369 . S
C925 C934 1.429 . S
C926 C924 1.419 . S
C926 C927 1.363 . S
C926 H929 0.929 . S
C927 C926 1.363 . S
C927 C933 1.428 . S
H928 C924 0.930 . S
H929 C926 0.929 . S
S930 N931 1.613 . S
S930 N932 1.610 . S
N931 S930 1.613 . S
N931 C934 1.350 . S
N932 S930 1.610 . S
N932 C933 1.351 . S
C933 C927 1.428 . S
C933 N932 1.351 . S
C933 C934 1.434 . S
C934 C925 1.429 . S
C934 N931 1.350 . S
C934 C933 1.434 . S
C935 C936 1.369 . S
C935 C937 1.419 . S
C935 H939 0.930 . S
C936 C935 1.369 . S
C936 C945 1.429 . S
C937 C935 1.419 . S
C937 C938 1.363 . S
C937 H940 0.929 . S
C938 C937 1.363 . S
C938 C944 1.428 . S
H939 C935 0.930 . S
H940 C937 0.929 . S
S941 N942 1.613 . S
S941 N943 1.610 . S
N942 S941 1.613 . S
N942 C945 1.350 . S
N943 S941 1.610 . S
N943 C944 1.351 . S
C944 C938 1.428 . S
C944 N943 1.351 . S
C944 C945 1.434 . S
C945 C936 1.429 . S
C945 N942 1.350 . S
C945 C944 1.434 . S
C946 C947 1.369 . S
C946 C948 1.419 . S
C946 H950 0.930 . S
C947 C946 1.369 . S
C947 C956 1.429 . S
C948 C946 1.419 . S
C948 C949 1.363 . S
C948 H951 0.929 . S
C949 C948 1.363 . S
C949 C955 1.428 . S
H950 C946 0.930 . S
H951 C948 0.929 . S
S952 N953 1.613 . S
S952 N954 1.610 . S
N953 S952 1.613 . S
N953 C956 1.350 . S
N954 S952 1.610 . S
N954 C955 1.351 . S
C955 C949 1.428 . S
C955 N954 1.351 . S
C955 C956 1.434 . S
C956 C947 1.429 . S
C956 N953 1.350 . S
C956 C955 1.434 . S
C957 C958 1.369 . S
C957 C959 1.419 . S
C957 H961 0.930 . S
C958 C957 1.369 . S
C958 C967 1.429 . S
C959 C957 1.419 . S
C959 C960 1.363 . S
C959 H962 0.929 . S
C960 C959 1.363 . S
C960 C966 1.428 . S
H961 C957 0.930 . S
H962 C959 0.929 . S
S963 N964 1.613 . S
S963 N965 1.610 . S
N964 S963 1.613 . S
N964 C967 1.350 . S
N965 S963 1.610 . S
N965 C966 1.351 . S
C966 C960 1.428 . S
C966 N965 1.351 . S
C966 C967 1.434 . S
C967 C958 1.429 . S
C967 N964 1.350 . S
C967 C966 1.434 . S
C529 C8 1.855 . S
C531 C206 1.860 . S
C540 C239 1.866 . S
C542 C41 1.856 . S
C551 C140 1.854 . S
C553 C74 1.861 . S
C562 C173 1.866 . S
C564 C107 1.855 . S
C573 C272 1.865 . S
C575 C470 1.856 . S
C584 C305 1.865 . S
C586 C503 1.856 . S
C595 C404 1.864 . S
C597 C338 1.855 . S
C606 C371 1.860 . S
C608 C437 1.861 . S
C617 N269 2.233 1_545 S
C619 N5 2.233 1_565 S
C628 N302 2.230 . S
C630 N38 2.235 . S
C639 N335 2.231 . S
C641 N71 2.234 . S
C650 N368 2.235 1_455 S
C652 N104 2.231 1_655 S
C661 N401 2.235 . S
C663 N137 2.231 . S
C672 N434 2.233 1_455 S
C674 N170 2.233 1_655 S
C683 N203 2.232 1_565 S
C685 N467 2.233 1_545 S
C694 N236 2.233 . S
C696 N500 2.232 . S
C705 C314 1.069 . S
C707 C28 1.115 . S
C716 C347 1.083 . S
C718 C61 1.120 . S
C727 C380 1.082 . S
C729 C94 1.121 . S
C738 C281 1.075 . S
C740 C127 1.115 . S
C749 C160 1.112 . S
C751 C512 1.070 . S
C760 C193 1.114 . S
C762 C413 1.070 . S
C771 C226 1.112 . S
C773 C446 1.072 . S
C782 C259 1.121 . S
C784 C479 1.082 . S
C793 C50 1.083 . S
C795 C292 1.119 . S
C804 C83 1.068 . S
C806 C325 1.114 . S
C815 C116 1.080 . S
C817 C358 1.117 . S
C826 C17 1.077 . S
C828 C391 1.119 . S
C837 C248 1.083 . S
C839 C424 1.120 . S
C848 C149 1.068 . S
C850 C457 1.113 . S
C859 C182 1.083 . S
C861 C490 1.120 . S
C870 C523 1.120 . S
C872 C215 1.081 . S
C881 N80 0.819 . S
C883 N14 0.805 . S
C892 N113 0.804 . S
C894 N47 0.818 . S
C903 N146 0.825 . S
C905 N212 0.816 . S
C914 N245 0.824 . S
C916 N179 0.811 . S
C925 N278 0.802 . S
C927 N344 0.814 . S
C936 N377 0.824 . S
C938 N311 0.814 . S
C947 N410 0.812 . S
C949 N476 0.803 . S
C958 N443 0.820 . S
C960 N509 0.821 . S
