# Generated by pormake.
# Topology une, (4)-cn, num edge types: 1
# Building blocks:
#     Node 0, Type 0, BuildingBlock: CEKHIL_clean_sbu_0, # of connection points: 4
#     Node 1, Type 0, BuildingBlock: CEKHIL_clean_sbu_0, # of connection points: 4
#     Node 2, Type 0, BuildingBlock: CEKHIL_clean_sbu_0, # of connection points: 4
#     Node 3, Type 0, BuildingBlock: CEKHIL_clean_sbu_0, # of connection points: 4
#     Node 4, Type 0, BuildingBlock: CEKHIL_clean_sbu_0, # of connection points: 4
#     Node 5, Type 0, BuildingBlock: CEKHIL_clean_sbu_0, # of connection points: 4
#     Node 6, Type 0, BuildingBlock: CEKHIL_clean_sbu_0, # of connection points: 4
#     Node 7, Type 0, BuildingBlock: CEKHIL_clean_sbu_0, # of connection points: 4
#     Node 8, Type 0, BuildingBlock: CEKHIL_clean_sbu_0, # of connection points: 4
#     Node 9, Type 0, BuildingBlock: CEKHIL_clean_sbu_0, # of connection points: 4
#     Node 10, Type 0, BuildingBlock: CEKHIL_clean_sbu_0, # of connection points: 4
#     Node 11, Type 0, BuildingBlock: CEKHIL_clean_sbu_0, # of connection points: 4
#     Node 12, Type 0, BuildingBlock: CEKHIL_clean_sbu_0, # of connection points: 4
#     Node 13, Type 0, BuildingBlock: CEKHIL_clean_sbu_0, # of connection points: 4
#     Node 14, Type 0, BuildingBlock: CEKHIL_clean_sbu_0, # of connection points: 4
#     Node 15, Type 0, BuildingBlock: CEKHIL_clean_sbu_0, # of connection points: 4
#     Node 16, Type 0, BuildingBlock: CEKHIL_clean_sbu_0, # of connection points: 4
#     Node 17, Type 0, BuildingBlock: CEKHIL_clean_sbu_0, # of connection points: 4
#     Edge 18, Type (0, 0), BuildingBlock: MIFKUJ_clean_linker_0, # of connection points: 2
#     Edge 19, Type (0, 0), BuildingBlock: MIFKUJ_clean_linker_0, # of connection points: 2
#     Edge 20, Type (0, 0), BuildingBlock: MIFKUJ_clean_linker_0, # of connection points: 2
#     Edge 21, Type (0, 0), BuildingBlock: MIFKUJ_clean_linker_0, # of connection points: 2
#     Edge 22, Type (0, 0), BuildingBlock: MIFKUJ_clean_linker_0, # of connection points: 2
#     Edge 23, Type (0, 0), BuildingBlock: MIFKUJ_clean_linker_0, # of connection points: 2
#     Edge 24, Type (0, 0), BuildingBlock: MIFKUJ_clean_linker_0, # of connection points: 2
#     Edge 25, Type (0, 0), BuildingBlock: MIFKUJ_clean_linker_0, # of connection points: 2
#     Edge 26, Type (0, 0), BuildingBlock: MIFKUJ_clean_linker_0, # of connection points: 2
#     Edge 27, Type (0, 0), BuildingBlock: MIFKUJ_clean_linker_0, # of connection points: 2
#     Edge 28, Type (0, 0), BuildingBlock: MIFKUJ_clean_linker_0, # of connection points: 2
#     Edge 29, Type (0, 0), BuildingBlock: MIFKUJ_clean_linker_0, # of connection points: 2
#     Edge 30, Type (0, 0), BuildingBlock: MIFKUJ_clean_linker_0, # of connection points: 2
#     Edge 31, Type (0, 0), BuildingBlock: MIFKUJ_clean_linker_0, # of connection points: 2
#     Edge 32, Type (0, 0), BuildingBlock: MIFKUJ_clean_linker_0, # of connection points: 2
#     Edge 33, Type (0, 0), BuildingBlock: MIFKUJ_clean_linker_0, # of connection points: 2
#     Edge 34, Type (0, 0), BuildingBlock: MIFKUJ_clean_linker_0, # of connection points: 2
#     Edge 35, Type (0, 0), BuildingBlock: MIFKUJ_clean_linker_0, # of connection points: 2
#     Edge 36, Type (0, 0), BuildingBlock: MIFKUJ_clean_linker_0, # of connection points: 2
#     Edge 37, Type (0, 0), BuildingBlock: MIFKUJ_clean_linker_0, # of connection points: 2
#     Edge 38, Type (0, 0), BuildingBlock: MIFKUJ_clean_linker_0, # of connection points: 2
#     Edge 39, Type (0, 0), BuildingBlock: MIFKUJ_clean_linker_0, # of connection points: 2
#     Edge 40, Type (0, 0), BuildingBlock: MIFKUJ_clean_linker_0, # of connection points: 2
#     Edge 41, Type (0, 0), BuildingBlock: MIFKUJ_clean_linker_0, # of connection points: 2
#     Edge 42, Type (0, 0), BuildingBlock: MIFKUJ_clean_linker_0, # of connection points: 2
#     Edge 43, Type (0, 0), BuildingBlock: MIFKUJ_clean_linker_0, # of connection points: 2
#     Edge 44, Type (0, 0), BuildingBlock: MIFKUJ_clean_linker_0, # of connection points: 2
#     Edge 45, Type (0, 0), BuildingBlock: MIFKUJ_clean_linker_0, # of connection points: 2
#     Edge 46, Type (0, 0), BuildingBlock: MIFKUJ_clean_linker_0, # of connection points: 2
#     Edge 47, Type (0, 0), BuildingBlock: MIFKUJ_clean_linker_0, # of connection points: 2
#     Edge 48, Type (0, 0), BuildingBlock: MIFKUJ_clean_linker_0, # of connection points: 2
#     Edge 49, Type (0, 0), BuildingBlock: MIFKUJ_clean_linker_0, # of connection points: 2
#     Edge 50, Type (0, 0), BuildingBlock: MIFKUJ_clean_linker_0, # of connection points: 2
#     Edge 51, Type (0, 0), BuildingBlock: MIFKUJ_clean_linker_0, # of connection points: 2
#     Edge 52, Type (0, 0), BuildingBlock: MIFKUJ_clean_linker_0, # of connection points: 2
#     Edge 53, Type (0, 0), BuildingBlock: MIFKUJ_clean_linker_0, # of connection points: 2
# Relax obj value: 0.262
# Max RMSD: 0.177
# Mean RMSD: 0.166
data_MOF--net-une--node1-CEKHIL_clean_sbu_0--edge1-MIFKUJ_clean_linker_0
_symmetry_space_group_name_H-M    P1
_symmetry_Int_Tables_number       1
_symmetry_cell_setting            triclinic
loop_
_symmetry_equiv_pos_as_xyz
'x, y, z'
_cell_length_a     49.804569
_cell_length_b     49.137062
_cell_length_c     68.333998
_cell_angle_alpha  90.063836
_cell_angle_beta   90.655196
_cell_angle_gamma 119.97025
loop_
_atom_site_label
_atom_site_type_symbol
_atom_site_fract_x
_atom_site_fract_y
_atom_site_fract_z
_atom_type_partial_charge
Co0 Co 0.37473 0.07689 0.06805 0.0
O1 O 0.39161 0.04919 0.07176 0.0
O2 O 0.40812 0.08744 0.05008 0.0
C3 C 0.37093 0.08855 0.09963 0.0
O4 O 0.36443 0.11046 0.05975 0.0
Co5 Co 0.3094 0.06051 0.08266 0.0
O6 O 0.32408 0.10535 0.07704 0.0
C7 C 0.31481 0.02873 0.04758 0.0
C8 C 0.40973 0.06378 0.05718 0.0
C9 C 0.3465 0.12066 0.06545 0.0
O10 O 0.34446 0.04617 0.04823 0.0
O11 O 0.29681 0.02974 0.06041 0.0
O12 O 0.39749 0.10319 0.09081 0.0
O13 O 0.3492 0.06514 0.09003 0.0
Co14 Co 0.91398 0.3003 0.05829 0.0
O15 O 0.88607 0.2889 0.08026 0.0
O16 O 0.9223 0.27582 0.07691 0.0
C17 C 0.92763 0.35138 0.05523 0.0
O18 O 0.94786 0.30808 0.03891 0.0
Co19 Co 0.90053 0.32117 0.01815 0.0
O20 O 0.94352 0.33184 0.01194 0.0
C21 C 0.86425 0.25496 0.02975 0.0
C22 C 0.89931 0.27362 0.08696 0.0
C23 C 0.95821 0.32209 0.02249 0.0
O24 O 0.88279 0.26043 0.0444 0.0
O25 O 0.86604 0.2765 0.01843 0.0
O26 O 0.94097 0.343 0.06854 0.0
O27 O 0.90436 0.32859 0.04622 0.0
Co28 Co 0.7015 0.6195 0.0623 0.0
O29 O 0.65688 0.59779 0.06541 0.0
O30 O 0.68094 0.59026 0.04082 0.0
C31 C 0.71682 0.61664 0.09324 0.0
O32 O 0.74627 0.63632 0.05406 0.0
Co33 Co 0.74449 0.68272 0.08411 0.0
O34 O 0.77827 0.6769 0.07358 0.0
C35 C 0.70333 0.68049 0.05232 0.0
C36 C 0.65489 0.58417 0.04868 0.0
C37 C 0.77362 0.6569 0.06015 0.0
O38 O 0.6985 0.65318 0.0472 0.0
O39 O 0.71857 0.69485 0.06779 0.0
O40 O 0.70697 0.59256 0.08144 0.0
O41 O 0.71288 0.63906 0.08685 0.0
Co42 Co 0.58872 0.91234 0.93743 0.0
O43 O 0.57428 0.88574 0.91413 0.0
O44 O 0.62262 0.92311 0.91996 0.0
C45 C 0.55106 0.92524 0.94028 0.0
O46 O 0.61342 0.94505 0.95835 0.0
Co47 Co 0.55269 0.89681 0.97655 0.0
O48 O 0.58363 0.94082 0.98386 0.0
C49 C 0.58623 0.86358 0.96602 0.0
C50 C 0.6031 0.90047 0.90863 0.0
C51 C 0.60891 0.9554 0.97454 0.0
O52 O 0.59716 0.88058 0.95067 0.0
O53 O 0.56711 0.86542 0.97755 0.0
O54 O 0.57329 0.9398 0.92778 0.0
O55 O 0.55024 0.90123 0.9485 0.0
Co56 Co 0.07926 0.68412 0.93551 0.0
O57 O 0.10459 0.69339 0.91249 0.0
O58 O 0.06828 0.70624 0.91661 0.0
C59 C 0.06659 0.63372 0.94059 0.0
O60 O 0.04828 0.6785 0.95647 0.0
Co61 Co 0.10009 0.6695 0.97529 0.0
O62 O 0.05851 0.66052 0.98417 0.0
C63 C 0.13304 0.73345 0.95986 0.0
C64 C 0.09057 0.70799 0.90597 0.0
C65 C 0.04152 0.66797 0.97403 0.0
O66 O 0.11117 0.72559 0.94714 0.0
O67 O 0.13471 0.71369 0.97128 0.0
O68 O 0.05158 0.64032 0.92744 0.0
O69 O 0.09096 0.65763 0.9479 0.0
Co70 Co 0.31249 0.39816 0.93954 0.0
O71 O 0.30019 0.41278 0.91658 0.0
O72 O 0.28832 0.36362 0.92166 0.0
C73 C 0.36311 0.43588 0.94234 0.0
O74 O 0.32123 0.37382 0.96038 0.0
Co75 Co 0.33313 0.43665 0.9785 0.0
O76 O 0.34279 0.40401 0.98723 0.0
C77 C 0.26699 0.40213 0.96769 0.0
C78 C 0.28556 0.38364 0.91064 0.0
C79 C 0.33406 0.37878 0.97747 0.0
O80 O 0.27302 0.38996 0.95287 0.0
O81 O 0.28791 0.4227 0.97903 0.0
O82 O 0.3544 0.41318 0.9296 0.0
O83 O 0.34074 0.43742 0.95066 0.0
Co84 Co 0.04275 0.41232 0.40037 0.0
O85 O 0.06246 0.38705 0.40395 0.0
O86 O 0.07359 0.42198 0.38057 0.0
C87 C 0.04296 0.42757 0.43177 0.0
O88 O 0.02921 0.44349 0.39206 0.0
Co89 Co 0.97904 0.39423 0.41894 0.0
O90 O 0.98736 0.43552 0.40895 0.0
C91 C 0.98091 0.35958 0.38427 0.0
C92 C 0.07821 0.4005 0.38832 0.0
C93 C 0.00898 0.45121 0.3969 0.0
O94 O 0.01025 0.37855 0.38266 0.0
O95 O 0.965 0.36064 0.39852 0.0
O96 O 0.06801 0.4419 0.42139 0.0
O97 O 0.0208 0.40244 0.42383 0.0
Co98 Co 0.58335 0.63082 0.39188 0.0
O99 O 0.55418 0.62037 0.41301 0.0
O100 O 0.59257 0.61 0.41264 0.0
C101 C 0.5946 0.68063 0.38572 0.0
O102 O 0.6186 0.63846 0.37368 0.0
Co103 Co 0.56909 0.64504 0.34979 0.0
O104 O 0.61254 0.65654 0.34466 0.0
C105 C 0.53684 0.58013 0.36409 0.0
C106 C 0.5684 0.6073 0.42149 0.0
C107 C 0.62827 0.64987 0.35655 0.0
O108 O 0.55451 0.58863 0.3794 0.0
O109 O 0.53753 0.59942 0.35128 0.0
O110 O 0.60791 0.67491 0.40041 0.0
O111 O 0.57231 0.65608 0.37732 0.0
Co112 Co 0.37238 0.94384 0.39327 0.0
O113 O 0.32789 0.92063 0.39676 0.0
O114 O 0.35204 0.91685 0.37085 0.0
C115 C 0.38817 0.93774 0.42333 0.0
O116 O 0.41702 0.96262 0.3844 0.0
Co117 Co 0.41492 0.00461 0.41724 0.0
O118 O 0.44831 0.9975 0.4072 0.0
C119 C 0.37487 0.00617 0.38582 0.0
C120 C 0.32595 0.90891 0.37937 0.0
C121 C 0.44399 0.98047 0.39209 0.0
O122 O 0.36841 0.9785 0.38029 0.0
O123 O 0.39094 0.01971 0.40123 0.0
O124 O 0.37906 0.91542 0.41026 0.0
O125 O 0.38365 0.96056 0.41866 0.0
Co126 Co 0.25513 0.23757 0.27581 0.0
O127 O 0.23704 0.20973 0.25333 0.0
O128 O 0.28611 0.24724 0.25625 0.0
C129 C 0.21898 0.25161 0.28163 0.0
O130 O 0.28254 0.27095 0.29565 0.0
Co131 Co 0.2246 0.22066 0.3167 0.0
O132 O 0.25904 0.26276 0.32471 0.0
C133 C 0.25411 0.18639 0.30161 0.0
C134 C 0.26486 0.22385 0.24613 0.0
C135 C 0.28164 0.27907 0.31342 0.0
O136 O 0.26569 0.20649 0.28774 0.0
O137 O 0.23452 0.18605 0.31369 0.0
O138 O 0.2387 0.26474 0.26754 0.0
O139 O 0.2187 0.22746 0.28935 0.0
Co140 Co 0.75284 0.01486 0.26731 0.0
O141 O 0.77827 0.02441 0.24423 0.0
O142 O 0.74177 0.03692 0.24843 0.0
C143 C 0.74049 0.9644 0.27231 0.0
O144 O 0.72148 0.00883 0.28816 0.0
Co145 Co 0.77297 0.99969 0.30722 0.0
O146 O 0.73159 0.99114 0.31605 0.0
C147 C 0.80584 0.06409 0.29235 0.0
C148 C 0.76397 0.03873 0.23769 0.0
C149 C 0.71466 0.99849 0.30576 0.0
O150 O 0.78457 0.05641 0.27916 0.0
O151 O 0.80708 0.0441 0.30375 0.0
O152 O 0.72555 0.97092 0.25906 0.0
O153 O 0.76458 0.98844 0.27974 0.0
Co154 Co 0.98266 0.73452 0.27126 0.0
O155 O 0.97051 0.74929 0.24829 0.0
O156 O 0.95766 0.69992 0.25372 0.0
C157 C 0.03366 0.77118 0.27379 0.0
O158 O 0.99062 0.70972 0.29204 0.0
Co159 Co 0.00495 0.77281 0.31016 0.0
O160 O 0.01538 0.7403 0.31812 0.0
C161 C 0.93869 0.74068 0.29956 0.0
C162 C 0.95523 0.72001 0.24261 0.0
C163 C 0.00486 0.71456 0.30861 0.0
O164 O 0.9439 0.72761 0.28487 0.0
O165 O 0.96025 0.76109 0.31066 0.0
O166 O 0.02423 0.74836 0.26106 0.0
O167 O 0.01179 0.7735 0.28221 0.0
Co168 Co 0.71582 0.75256 0.73323 0.0
O169 O 0.74033 0.73192 0.73598 0.0
O170 O 0.74473 0.7642 0.71208 0.0
C171 C 0.7168 0.76881 0.76445 0.0
O172 O 0.69688 0.77927 0.72545 0.0
Co173 Co 0.65229 0.72817 0.75345 0.0
O174 O 0.65535 0.7677 0.74379 0.0
C175 C 0.65646 0.69379 0.71954 0.0
C176 C 0.753 0.74513 0.7195 0.0
C177 C 0.67536 0.78457 0.73114 0.0
O178 O 0.68441 0.71606 0.71673 0.0
O179 O 0.64063 0.69301 0.73434 0.0
O180 O 0.74064 0.78453 0.75322 0.0
O181 O 0.69594 0.74198 0.75745 0.0
Co182 Co 0.24656 0.96869 0.72775 0.0
O183 O 0.21674 0.95757 0.74855 0.0
O184 O 0.25509 0.94717 0.74845 0.0
C185 C 0.25751 0.01864 0.7224 0.0
O186 O 0.28249 0.97695 0.70987 0.0
Co187 Co 0.2348 0.98519 0.68571 0.0
O188 O 0.28007 0.0024 0.68317 0.0
C189 C 0.20238 0.91925 0.69839 0.0
C190 C 0.23077 0.9444 0.75713 0.0
C191 C 0.29455 0.99313 0.69431 0.0
O192 O 0.21803 0.92706 0.71455 0.0
O193 O 0.20463 0.93899 0.6854 0.0
O194 O 0.27068 0.01246 0.73697 0.0
O195 O 0.23584 0.99437 0.7134 0.0
Co196 Co 0.03432 0.28757 0.72775 0.0
O197 O 0.98987 0.26664 0.73176 0.0
O198 O 0.01242 0.25735 0.707 0.0
C199 C 0.05114 0.28604 0.75854 0.0
O200 O 0.07838 0.30304 0.71859 0.0
Co201 Co 0.07948 0.35169 0.74786 0.0
O202 O 0.11219 0.34468 0.73671 0.0
C203 C 0.0366 0.34849 0.71694 0.0
C204 C 0.98689 0.25203 0.71527 0.0
C205 C 0.10624 0.32365 0.72375 0.0
O206 O 0.03111 0.3208 0.71223 0.0
O207 O 0.05291 0.36352 0.73195 0.0
O208 O 0.04025 0.26131 0.7472 0.0
O209 O 0.04742 0.30848 0.75188 0.0
Co210 Co 0.92349 0.58005 0.60386 0.0
O211 O 0.90816 0.55431 0.58024 0.0
O212 O 0.95741 0.58801 0.58713 0.0
C213 C 0.88993 0.59832 0.60609 0.0
O214 O 0.94923 0.61119 0.62517 0.0
Co215 Co 0.88639 0.56675 0.64232 0.0
O216 O 0.92053 0.60866 0.6509 0.0
C217 C 0.91474 0.52843 0.63227 0.0
C218 C 0.93717 0.56679 0.57534 0.0
C219 C 0.94594 0.62178 0.64162 0.0
O220 O 0.92732 0.54546 0.61714 0.0
O221 O 0.8965 0.53213 0.64359 0.0
O222 O 0.91294 0.61104 0.59397 0.0
O223 O 0.8856 0.57276 0.61424 0.0
Co224 Co 0.41753 0.35335 0.60399 0.0
O225 O 0.44424 0.36252 0.58162 0.0
O226 O 0.40766 0.37526 0.5843 0.0
C227 C 0.4048 0.30283 0.60937 0.0
O228 O 0.38498 0.34771 0.62392 0.0
Co229 Co 0.43417 0.33747 0.64486 0.0
O230 O 0.39075 0.32531 0.65112 0.0
C231 C 0.46853 0.40234 0.63026 0.0
C232 C 0.43036 0.37675 0.57427 0.0
C233 C 0.37549 0.33452 0.64066 0.0
O234 O 0.44895 0.39491 0.61601 0.0
O235 O 0.468 0.38225 0.64239 0.0
O236 O 0.39055 0.30939 0.59567 0.0
O237 O 0.42836 0.32686 0.61725 0.0
Co238 Co 0.64461 0.06238 0.60551 0.0
O239 O 0.63374 0.07573 0.58144 0.0
O240 O 0.62188 0.02696 0.58805 0.0
C241 C 0.69496 0.10036 0.60893 0.0
O242 O 0.65226 0.03945 0.62765 0.0
Co243 Co 0.66231 0.10276 0.64356 0.0
O244 O 0.67146 0.07058 0.65431 0.0
C245 C 0.59782 0.07033 0.62958 0.0
C246 C 0.61998 0.04637 0.57599 0.0
C247 C 0.66381 0.04508 0.64511 0.0
O248 O 0.60427 0.05437 0.6175 0.0
O249 O 0.61842 0.0933 0.63977 0.0
O250 O 0.68703 0.07708 0.59676 0.0
O251 O 0.67206 0.10219 0.61619 0.0
H252 H 0.4575 0.09451 0.03169 0.0
H253 H 0.48254 0.0722 0.01191 0.0
H254 H 0.42626 0.98214 0.03906 0.0
H255 H 0.40226 0.0048 0.05949 0.0
H256 H 0.47939 0.98848 0.03366 0.0
H257 H 0.41017 0.00317 0.99274 0.0
H258 H 0.38735 0.03256 0.97757 0.0
H259 H 0.47282 0.0919 0.9483 0.0
H260 H 0.49663 0.06369 0.96393 0.0
H261 H 0.49923 0.89629 0.96228 0.0
H262 H 0.47565 0.92047 0.98158 0.0
H263 H 0.54152 0.01138 0.95896 0.0
H264 H 0.56492 0.98703 0.93919 0.0
H265 H 0.48396 0.00479 0.96187 0.0
H266 H 0.5511 0.98531 0.00552 0.0
H267 H 0.56866 0.95186 0.02186 0.0
H268 H 0.47761 0.89345 0.0446 0.0
H269 H 0.45947 0.92636 0.0285 0.0
C270 C 0.45085 0.07008 0.03368 0.0
C271 C 0.42788 0.05145 0.04718 0.0
C272 C 0.46497 0.05722 0.0222 0.0
C273 C 0.45583 0.02516 0.02353 0.0
C274 C 0.43376 0.00686 0.0376 0.0
C275 C 0.42005 0.01988 0.04935 0.0
C276 C 0.46865 0.01053 0.01001 0.0
C277 C 0.48005 0.99186 0.01795 0.0
C278 C 0.46973 0.01483 0.98941 0.0
C279 C 0.45533 0.03153 0.97971 0.0
C280 C 0.42423 0.02268 0.98322 0.0
C281 C 0.41112 0.03917 0.97456 0.0
C282 C 0.4286 0.06405 0.96196 0.0
C283 C 0.45931 0.07262 0.95807 0.0
C284 C 0.47267 0.05647 0.96689 0.0
C285 C 0.50841 0.92138 0.96114 0.0
C286 C 0.53399 0.93971 0.94918 0.0
C287 C 0.49506 0.93525 0.97236 0.0
C288 C 0.50724 0.96792 0.97218 0.0
C289 C 0.53181 0.98616 0.95949 0.0
C290 C 0.54508 0.9722 0.94809 0.0
C291 C 0.4948 0.98298 0.98559 0.0
C292 C 0.48341 0.00164 0.9776 0.0
C293 C 0.49283 0.97789 0.00609 0.0
C294 C 0.5039 0.95816 0.01568 0.0
C295 C 0.53481 0.96522 0.01391 0.0
C296 C 0.54487 0.94642 0.02314 0.0
C297 C 0.52426 0.92054 0.03413 0.0
C298 C 0.49355 0.91347 0.03605 0.0
C299 C 0.48339 0.93223 0.02693 0.0
H300 H 0.53211 0.90603 0.04123 0.0
H301 H 0.41835 0.07668 0.95519 0.0
H302 H 0.89941 0.37708 0.03437 0.0
H303 H 0.9238 0.42576 0.01574 0.0
H304 H 0.01365 0.44586 0.03738 0.0
H305 H 0.98905 0.39737 0.05662 0.0
H306 H 0.01129 0.49874 0.03488 0.0
H307 H 0.98595 0.41223 0.99109 0.0
H308 H 0.95186 0.36099 0.97517 0.0
H309 H 0.8929 0.39488 0.95332 0.0
H310 H 0.92656 0.44633 0.96913 0.0
H311 H 0.09672 0.61149 0.96303 0.0
H312 H 0.07408 0.56385 0.98271 0.0
H313 H 0.98297 0.53935 0.96103 0.0
H314 H 0.00579 0.58655 0.94068 0.0
H315 H 0.98702 0.48856 0.9637 0.0
H316 H 0.01327 0.57571 0.00752 0.0
H317 H 0.04802 0.62687 0.02333 0.0
H318 H 0.10581 0.59169 0.04532 0.0
H319 H 0.07165 0.5404 0.02948 0.0
C320 C 0.92432 0.39218 0.03546 0.0
C321 C 0.94232 0.38341 0.04694 0.0
C322 C 0.93829 0.41988 0.02465 0.0
C323 C 0.97068 0.43914 0.02468 0.0
C324 C 0.98863 0.43131 0.03698 0.0
C325 C 0.97456 0.40368 0.04806 0.0
C326 C 0.98566 0.4667 0.01137 0.0
C327 C 0.0063 0.49644 0.01928 0.0
C328 C 0.9788 0.46393 0.99102 0.0
C329 C 0.95864 0.43305 0.98142 0.0
C330 C 0.96562 0.4087 0.98298 0.0
C331 C 0.9464 0.37963 0.97396 0.0
C332 C 0.92018 0.37463 0.96333 0.0
C333 C 0.9132 0.39876 0.96159 0.0
C334 C 0.93238 0.42791 0.97052 0.0
C335 C 0.07189 0.59569 0.96223 0.0
C336 C 0.05303 0.60276 0.9503 0.0
C337 C 0.05892 0.56859 0.97366 0.0
C338 C 0.02667 0.5483 0.97383 0.0
C339 C 0.00789 0.55468 0.96129 0.0
C340 C 0.02095 0.5816 0.94959 0.0
C341 C 0.01253 0.52073 0.98721 0.0
C342 C 0.99204 0.49093 0.9793 0.0
C343 C 0.01962 0.52348 0.00755 0.0
C344 C 0.04004 0.55429 0.01716 0.0
C345 C 0.03349 0.57893 0.01562 0.0
C346 C 0.05306 0.60795 0.02459 0.0
C347 C 0.07912 0.61255 0.03526 0.0
C348 C 0.08563 0.58811 0.03703 0.0
C349 C 0.06616 0.55905 0.02808 0.0
H350 H 0.09423 0.63504 0.04218 0.0
H351 H 0.90531 0.35209 0.95639 0.0
H352 H 0.41329 0.42965 0.93271 0.0
H353 H 0.46463 0.45517 0.94859 0.0
H354 H 0.43686 0.50685 0.98636 0.0
H355 H 0.38595 0.48203 0.97031 0.0
H356 H 0.49563 0.54362 0.97447 0.0
H357 H 0.43591 0.43889 1.00148 0.0
H358 H 0.40423 0.38156 0.99717 0.0
H359 H 0.48058 0.37955 0.97009 0.0
H360 H 0.5127 0.43709 0.97404 0.0
H361 H 0.60104 0.5849 0.05467 0.0
H362 H 0.55368 0.56031 0.03448 0.0
H363 H 0.59325 0.51846 0.99771 0.0
H364 H 0.64108 0.54364 0.01762 0.0
H365 H 0.53089 0.47636 0.00683 0.0
H366 H 0.59166 0.57776 0.98056 0.0
H367 H 0.62269 0.63531 0.97763 0.0
H368 H 0.54641 0.64412 0.99854 0.0
H369 H 0.51505 0.58658 1.00198 0.0
C370 C 0.41828 0.44678 0.94421 0.0
C371 C 0.39539 0.45365 0.95029 0.0
C372 C 0.4476 0.46121 0.95339 0.0
C373 C 0.45457 0.48261 0.96897 0.0
C374 C 0.43214 0.49039 0.97447 0.0
C375 C 0.40293 0.47608 0.96528 0.0
C376 C 0.48467 0.49615 0.98005 0.0
C377 C 0.50311 0.52892 0.9818 0.0
C378 C 0.49513 0.47704 0.98901 0.0
C379 C 0.47659 0.4423 0.98787 0.0
C380 C 0.44593 0.42623 0.99457 0.0
C381 C 0.42783 0.39372 0.99208 0.0
C382 C 0.44023 0.37694 0.98314 0.0
C383 C 0.47094 0.39261 0.97692 0.0
C384 C 0.48913 0.42517 0.9793 0.0
C385 C 0.59956 0.57014 0.04245 0.0
C386 C 0.62485 0.56614 0.03783 0.0
C387 C 0.57252 0.55627 0.03081 0.0
C388 C 0.56991 0.53769 0.01445 0.0
C389 C 0.59468 0.53271 0.01022 0.0
C390 C 0.622 0.54709 0.02164 0.0
C391 C 0.5415 0.52396 1.00168 0.0
C392 C 0.5234 0.49114 0.99961 0.0
C393 C 0.53152 0.54307 0.99219 0.0
C394 C 0.55108 0.57781 0.99172 0.0
C395 C 0.58166 0.59197 0.9849 0.0
C396 C 0.59926 0.62459 0.98303 0.0
C397 C 0.58645 0.64333 0.98777 0.0
C398 C 0.55622 0.62954 0.99476 0.0
C399 C 0.53855 0.59693 0.99672 0.0
H400 H 0.59994 0.66855 0.98606 0.0
H401 H 0.42611 0.35177 0.98114 0.0
H402 H 0.10626 0.41847 0.35281 0.0
H403 H 0.13334 0.39644 0.33493 0.0
H404 H 0.12158 0.33563 0.38344 0.0
H405 H 0.09418 0.35749 0.40145 0.0
H406 H 0.1805 0.36048 0.36596 0.0
H407 H 0.07422 0.30286 0.34737 0.0
H408 H 0.0245 0.29832 0.33789 0.0
H409 H 0.06431 0.3484 0.28479 0.0
H410 H 0.11473 0.35342 0.29417 0.0
H411 H 0.1882 0.23655 0.31637 0.0
H412 H 0.16842 0.26586 0.33416 0.0
H413 H 0.19492 0.33189 0.28685 0.0
H414 H 0.21592 0.3032 0.26912 0.0
H415 H 0.13094 0.30697 0.30317 0.0
H416 H 0.23854 0.35729 0.32272 0.0
H417 H 0.28633 0.36022 0.33567 0.0
H418 H 0.24074 0.31913 0.38959 0.0
H419 H 0.1925 0.31549 0.37685 0.0
C420 C 0.10978 0.40074 0.35984 0.0
C421 C 0.09789 0.38969 0.37857 0.0
C422 C 0.12524 0.38809 0.34955 0.0
C423 C 0.12934 0.36418 0.35774 0.0
C424 C 0.11878 0.35409 0.37681 0.0
C425 C 0.10302 0.36656 0.38707 0.0
C426 C 0.14258 0.34828 0.34583 0.0
C427 C 0.16957 0.34861 0.35231 0.0
C428 C 0.12854 0.33295 0.32791 0.0
C429 C 0.09822 0.32881 0.32156 0.0
C430 C 0.07238 0.31296 0.33368 0.0
C431 C 0.04408 0.31032 0.32833 0.0
C432 C 0.04122 0.32329 0.31079 0.0
C433 C 0.06662 0.33848 0.29841 0.0
C434 C 0.09507 0.34118 0.30372 0.0
C435 C 0.18985 0.25725 0.30965 0.0
C436 C 0.2039 0.26759 0.29132 0.0
C437 C 0.17855 0.27403 0.31991 0.0
C438 C 0.18045 0.30123 0.31194 0.0
C439 C 0.19333 0.31102 0.29331 0.0
C440 C 0.20526 0.29456 0.28319 0.0
C441 C 0.16904 0.31931 0.32323 0.0
C442 C 0.14219 0.31922 0.31667 0.0
C443 C 0.18299 0.33434 0.34125 0.0
C444 C 0.21179 0.33586 0.34875 0.0
C445 C 0.23856 0.3485 0.33724 0.0
C446 C 0.26578 0.35039 0.34457 0.0
C447 C 0.26654 0.33986 0.36345 0.0
C448 C 0.24009 0.32728 0.37498 0.0
C449 C 0.21282 0.32532 0.36772 0.0
H450 H 0.28766 0.34158 0.36921 0.0
H451 H 0.01937 0.32162 0.30685 0.0
H452 H 0.64964 0.73449 0.39455 0.0
H453 H 0.67503 0.78299 0.37534 0.0
H454 H 0.59714 0.7447 0.33513 0.0
H455 H 0.57169 0.69657 0.35419 0.0
H456 H 0.65209 0.76896 0.31593 0.0
H457 H 0.60785 0.80149 0.36672 0.0
H458 H 0.598 0.8106 0.40071 0.0
H459 H 0.69539 0.87331 0.41028 0.0
H460 H 0.70587 0.86423 0.37639 0.0
H461 H 0.68484 0.91055 0.26444 0.0
H462 H 0.66095 0.86174 0.28346 0.0
H463 H 0.74149 0.89982 0.32145 0.0
H464 H 0.76564 0.948 0.30243 0.0
H465 H 0.68638 0.87584 0.34191 0.0
H466 H 0.73058 0.84485 0.29101 0.0
H467 H 0.74097 0.83542 0.25724 0.0
H468 H 0.64423 0.76957 0.24797 0.0
H469 H 0.63316 0.77902 0.28161 0.0
C470 C 0.63773 0.73665 0.38181 0.0
C471 C 0.60865 0.71162 0.37591 0.0
C472 C 0.65229 0.76434 0.3708 0.0
C473 C 0.63803 0.76746 0.35372 0.0
C474 C 0.6087 0.74279 0.34814 0.0
C475 C 0.59411 0.7153 0.35915 0.0
C476 C 0.65384 0.79596 0.34127 0.0
C477 C 0.6592 0.7923 0.32155 0.0
C478 C 0.6639 0.8265 0.3487 0.0
C479 C 0.65768 0.83189 0.36909 0.0
C480 C 0.6272 0.81699 0.37613 0.0
C481 C 0.62149 0.8222 0.39536 0.0
C482 C 0.64606 0.84244 0.40767 0.0
C483 C 0.67639 0.85758 0.40074 0.0
C484 C 0.68222 0.85243 0.38152 0.0
C485 C 0.69764 0.90828 0.27663 0.0
C486 C 0.72708 0.93328 0.28194 0.0
C487 C 0.68395 0.88043 0.28752 0.0
C488 C 0.69938 0.87722 0.30397 0.0
C489 C 0.72905 0.90183 0.30893 0.0
C490 C 0.74285 0.92938 0.29796 0.0
C491 C 0.6843 0.84881 0.31651 0.0
C492 C 0.67919 0.8525 0.33627 0.0
C493 C 0.67449 0.8183 0.30912 0.0
C494 C 0.68098 0.81299 0.28876 0.0
C495 C 0.71144 0.82871 0.28169 0.0
C496 C 0.71748 0.82328 0.26258 0.0
C497 C 0.69326 0.802 0.25044 0.0
C498 C 0.66296 0.78609 0.25738 0.0
C499 C 0.65679 0.79148 0.27647 0.0
H500 H 0.69799 0.79777 0.23567 0.0
H501 H 0.6416 0.84646 0.42255 0.0
H502 H 0.08394 0.76624 0.2623 0.0
H503 H 0.135 0.78938 0.2784 0.0
H504 H 0.10626 0.83458 0.32077 0.0
H505 H 0.05624 0.81311 0.30417 0.0
H506 H 0.16188 0.87262 0.31345 0.0
H507 H 0.10826 0.76283 0.32903 0.0
H508 H 0.08048 0.70582 0.32229 0.0
H509 H 0.15952 0.71475 0.2921 0.0
H510 H 0.18771 0.77191 0.29841 0.0
H511 H 0.2692 0.89924 0.39045 0.0
H512 H 0.22091 0.87515 0.37122 0.0
H513 H 0.26575 0.85382 0.32494 0.0
H514 H 0.31429 0.87812 0.34406 0.0
H515 H 0.2044 0.80416 0.33277 0.0
H516 H 0.25828 0.91608 0.32085 0.0
H517 H 0.28434 0.97162 0.33131 0.0
H518 H 0.20079 0.95652 0.35857 0.0
H519 H 0.17437 0.90071 0.34861 0.0
C520 C 0.08872 0.78149 0.27487 0.0
C521 C 0.06582 0.78757 0.282 0.0
C522 C 0.11785 0.79446 0.28424 0.0
C523 C 0.1245 0.81325 0.30119 0.0
C524 C 0.10194 0.82015 0.30783 0.0
C525 C 0.07314 0.80768 0.29831 0.0
C526 C 0.15458 0.82553 0.31226 0.0
C527 C 0.17088 0.85744 0.31779 0.0
C528 C 0.16691 0.80609 0.31783 0.0
C529 C 0.14998 0.77172 0.314 0.0
C530 C 0.11964 0.75269 0.32082 0.0
C531 C 0.10382 0.72034 0.3171 0.0
C532 C 0.11816 0.70669 0.30673 0.0
C533 C 0.14841 0.72536 0.3001 0.0
C534 C 0.16433 0.75774 0.30374 0.0
C535 C 0.26873 0.88903 0.37631 0.0
C536 C 0.2957 0.89069 0.36881 0.0
C537 C 0.2411 0.87539 0.36528 0.0
C538 C 0.23974 0.86296 0.34652 0.0
C539 C 0.26622 0.8633 0.33935 0.0
C540 C 0.29398 0.87722 0.3503 0.0
C541 C 0.21112 0.85091 0.3341 0.0
C542 C 0.19527 0.81918 0.3283 0.0
C543 C 0.19877 0.8703 0.32866 0.0
C544 C 0.21445 0.9041 0.33418 0.0
C545 C 0.24552 0.92454 0.32919 0.0
C546 C 0.26036 0.95608 0.33503 0.0
C547 C 0.24429 0.96753 0.34572 0.0
C548 C 0.21324 0.94756 0.35037 0.0
C549 C 0.19833 0.91598 0.34463 0.0
H550 H 0.25586 0.99183 0.35044 0.0
H551 H 0.10586 0.68164 0.30389 0.0
H552 H 0.83292 0.57432 0.62208 0.0
H553 H 0.81199 0.60234 0.64021 0.0
H554 H 0.89604 0.69003 0.62984 0.0
H555 H 0.91614 0.66208 0.61072 0.0
H556 H 0.82717 0.63132 0.67205 0.0
H557 H 0.88556 0.75203 0.63383 0.0
H558 H 0.90307 0.77416 0.60095 0.0
H559 H 0.8362 0.68631 0.57464 0.0
H560 H 0.8181 0.66378 0.60734 0.0
H561 H 0.79562 0.72907 0.73278 0.0
H562 H 0.82352 0.70939 0.71324 0.0
H563 H 0.77747 0.71581 0.66097 0.0
H564 H 0.75204 0.738 0.68019 0.0
H565 H 0.8293 0.7286 0.65043 0.0
H566 H 0.75572 0.64568 0.69141 0.0
H567 H 0.73263 0.62053 0.72277 0.0
H568 H 0.81761 0.62435 0.74002 0.0
H569 H 0.84155 0.65042 0.70903 0.0
C570 C 0.84656 0.59968 0.62326 0.0
C571 C 0.8759 0.61603 0.61467 0.0
C572 C 0.83473 0.61572 0.63382 0.0
C573 C 0.85219 0.64851 0.63644 0.0
C574 C 0.88157 0.66491 0.62773 0.0
C575 C 0.8931 0.6489 0.61674 0.0
C576 C 0.83996 0.66505 0.64885 0.0
C577 C 0.8276 0.65256 0.66725 0.0
C578 C 0.84021 0.69274 0.64275 0.0
C579 C 0.85072 0.70616 0.62303 0.0
C580 C 0.87454 0.73749 0.62102 0.0
C581 C 0.88458 0.75009 0.60242 0.0
C582 C 0.87082 0.73162 0.58573 0.0
C583 C 0.84692 0.70055 0.58759 0.0
C584 C 0.83679 0.68784 0.60615 0.0
C585 C 0.79196 0.72671 0.71707 0.0
C586 C 0.77175 0.73516 0.70801 0.0
C587 C 0.80766 0.71514 0.70588 0.0
C588 C 0.80219 0.71018 0.68552 0.0
C589 C 0.7824 0.71933 0.67654 0.0
C590 C 0.76772 0.73199 0.68758 0.0
C591 C 0.81589 0.69455 0.67354 0.0
C592 C 0.82879 0.70733 0.65526 0.0
C593 C 0.81512 0.66647 0.67947 0.0
C594 C 0.80053 0.6503 0.69797 0.0
C595 C 0.76956 0.64135 0.70195 0.0
C596 C 0.75634 0.62698 0.71967 0.0
C597 C 0.77363 0.62084 0.73337 0.0
C598 C 0.80424 0.62914 0.7294 0.0
C599 C 0.81767 0.64379 0.71178 0.0
H600 H 0.76331 0.60962 0.74705 0.0
H601 H 0.87864 0.74142 0.57134 0.0
H602 H 0.42936 0.28585 0.63951 0.0
H603 H 0.40453 0.23796 0.65863 0.0
H604 H 0.32425 0.20073 0.62035 0.0
H605 H 0.34871 0.24959 0.6015 0.0
H606 H 0.30634 0.19169 0.6565 0.0
H607 H 0.37883 0.17378 0.6212 0.0
H608 H 0.42974 0.185 0.60902 0.0
H609 H 0.46271 0.19041 0.66803 0.0
H610 H 0.4122 0.1798 0.68059 0.0
H611 H 0.23382 0.03588 0.69198 0.0
H612 H 0.25907 0.08429 0.67333 0.0
H613 H 0.33776 0.12135 0.71293 0.0
H614 H 0.31281 0.0721 0.73141 0.0
H615 H 0.35665 0.13061 0.67648 0.0
H616 H 0.28467 0.14916 0.7118 0.0
H617 H 0.2335 0.1369 0.72411 0.0
H618 H 0.19962 0.12952 0.66516 0.0
H619 H 0.25047 0.14133 0.65249 0.0
C620 C 0.40654 0.26739 0.63496 0.0
C621 C 0.39101 0.27164 0.61895 0.0
C622 C 0.3924 0.2398 0.64589 0.0
C623 C 0.36257 0.21537 0.64089 0.0
C624 C 0.3473 0.21917 0.62454 0.0
C625 C 0.36137 0.24702 0.61367 0.0
C626 C 0.34675 0.18683 0.65342 0.0
C627 C 0.3172 0.17806 0.66058 0.0
C628 C 0.36122 0.16953 0.65939 0.0
C629 C 0.39178 0.17633 0.65184 0.0
C630 C 0.39703 0.17769 0.63159 0.0
C631 C 0.42581 0.18389 0.62461 0.0
C632 C 0.44947 0.18851 0.63774 0.0
C633 C 0.44439 0.1869 0.65787 0.0
C634 C 0.41569 0.1808 0.66493 0.0
C635 C 0.25633 0.05446 0.69694 0.0
C636 C 0.27128 0.0501 0.71323 0.0
C637 C 0.27072 0.08229 0.68627 0.0
C638 C 0.30024 0.10677 0.69178 0.0
C639 C 0.31494 0.10286 0.70839 0.0
C640 C 0.30056 0.07481 0.71905 0.0
C641 C 0.31632 0.13553 0.6795 0.0
C642 C 0.34588 0.14433 0.6724 0.0
C643 C 0.3019 0.15287 0.6736 0.0
C644 C 0.27133 0.14588 0.6812 0.0
C645 C 0.26625 0.14471 0.70146 0.0
C646 C 0.23731 0.13787 0.70851 0.0
C647 C 0.21331 0.13237 0.69543 0.0
C648 C 0.21822 0.13376 0.67528 0.0
C649 C 0.24711 0.14057 0.66816 0.0
H650 H 0.19091 0.12707 0.70091 0.0
H651 H 0.47172 0.19326 0.63231 0.0
H652 H 0.74633 0.09617 0.59976 0.0
H653 H 0.79715 0.12243 0.61622 0.0
H654 H 0.76625 0.17128 0.65411 0.0
H655 H 0.7158 0.14578 0.63741 0.0
H656 H 0.82542 0.20947 0.64289 0.0
H657 H 0.76602 0.10342 0.66798 0.0
H658 H 0.73538 0.04631 0.6621 0.0
H659 H 0.8146 0.04744 0.6371 0.0
H660 H 0.84559 0.10477 0.64239 0.0
H661 H 0.93333 0.2532 0.72187 0.0
H662 H 0.88521 0.22792 0.70239 0.0
H663 H 0.92322 0.1844 0.66571 0.0
H664 H 0.97167 0.21011 0.68492 0.0
H665 H 0.86191 0.14294 0.67485 0.0
H666 H 0.92116 0.24425 0.64823 0.0
H667 H 0.95156 0.30176 0.64487 0.0
H668 H 0.87562 0.31001 0.66705 0.0
H669 H 0.84484 0.25248 0.67083 0.0
C670 C 0.75049 0.11282 0.61142 0.0
C671 C 0.72686 0.11867 0.61734 0.0
C672 C 0.77953 0.12769 0.62092 0.0
C673 C 0.78544 0.14843 0.63672 0.0
C674 C 0.7623 0.15529 0.64206 0.0
C675 C 0.73337 0.14059 0.63251 0.0
C676 C 0.81517 0.16215 0.64819 0.0
C677 C 0.83312 0.19491 0.65017 0.0
C678 C 0.82593 0.14322 0.65706 0.0
C679 C 0.80805 0.10845 0.6554 0.0
C680 C 0.77691 0.09151 0.66119 0.0
C681 C 0.7594 0.05914 0.65782 0.0
C682 C 0.77293 0.04331 0.64904 0.0
C683 C 0.80411 0.05977 0.64382 0.0
C684 C 0.82166 0.09222 0.64698 0.0
C685 C 0.93132 0.23789 0.70983 0.0
C686 C 0.95636 0.23359 0.70502 0.0
C687 C 0.90385 0.22364 0.6986 0.0
C688 C 0.90059 0.2044 0.68245 0.0
C689 C 0.92512 0.19912 0.67806 0.0
C690 C 0.95282 0.21383 0.68908 0.0
C691 C 0.87186 0.19039 0.66995 0.0
C692 C 0.8541 0.15755 0.66777 0.0
C693 C 0.8615 0.20929 0.66059 0.0
C694 C 0.88081 0.24404 0.66002 0.0
C695 C 0.91113 0.25834 0.65275 0.0
C696 C 0.92836 0.29094 0.65064 0.0
C697 C 0.91544 0.3095 0.65562 0.0
C698 C 0.88549 0.29556 0.66309 0.0
C699 C 0.86818 0.26296 0.66526 0.0
H700 H 0.92865 0.3347 0.65373 0.0
H701 H 0.75929 0.01826 0.64636 0.0
H702 H 0.32088 0.05889 0.12311 0.0
H703 H 0.3033 0.08211 0.14787 0.0
H704 H 0.38442 0.17257 0.13862 0.0
H705 H 0.40257 0.14912 0.11406 0.0
H706 H 0.37065 0.16344 0.17695 0.0
H707 H 0.31142 0.15125 0.11721 0.0
H708 H 0.27668 0.12113 0.08955 0.0
H709 H 0.20717 0.06006 0.12977 0.0
H710 H 0.2414 0.08962 0.15763 0.0
H711 H 0.31721 0.25416 0.22435 0.0
H712 H 0.33501 0.23181 0.19912 0.0
H713 H 0.25072 0.14263 0.20443 0.0
H714 H 0.23232 0.16533 0.22922 0.0
H715 H 0.26605 0.15096 0.16799 0.0
H716 H 0.3211 0.15889 0.22714 0.0
H717 H 0.35327 0.18492 0.25641 0.0
H718 H 0.42826 0.24807 0.21993 0.0
H719 H 0.39634 0.22269 0.19042 0.0
C720 C 0.33524 0.08366 0.12654 0.0
C721 C 0.36312 0.10216 0.11658 0.0
C722 C 0.32499 0.09699 0.1406 0.0
C723 C 0.34207 0.12932 0.14482 0.0
C724 C 0.37068 0.14762 0.13555 0.0
C725 C 0.38113 0.13418 0.12156 0.0
C726 C 0.32974 0.14399 0.15859 0.0
C727 C 0.34798 0.16112 0.17481 0.0
C728 C 0.29965 0.14008 0.15629 0.0
C729 C 0.27906 0.12251 0.13949 0.0
C730 C 0.28879 0.1313 0.12013 0.0
C731 C 0.26921 0.11436 0.10444 0.0
C732 C 0.23986 0.08868 0.10792 0.0
C733 C 0.22993 0.07994 0.1271 0.0
C734 C 0.24937 0.09681 0.14284 0.0
C735 C 0.30222 0.22992 0.21992 0.0
C736 C 0.27336 0.21152 0.22883 0.0
C737 C 0.31257 0.21704 0.20559 0.0
C738 C 0.29465 0.18521 0.20015 0.0
C739 C 0.26514 0.16718 0.20839 0.0
C740 C 0.25457 0.18021 0.22255 0.0
C741 C 0.30703 0.17062 0.18631 0.0
C742 C 0.2888 0.15344 0.17011 0.0
C743 C 0.33684 0.17391 0.18886 0.0
C744 C 0.35622 0.18908 0.20657 0.0
C745 C 0.34438 0.17846 0.22536 0.0
C746 C 0.36257 0.19308 0.242 0.0
C747 C 0.39277 0.21818 0.24003 0.0
C748 C 0.40485 0.22865 0.22142 0.0
C749 C 0.38672 0.21414 0.20473 0.0
H750 H 0.40683 0.22948 0.25293 0.0
H751 H 0.22478 0.0756 0.09574 0.0
H752 H 0.84917 0.2609 0.10961 0.0
H753 H 0.82578 0.22111 0.13516 0.0
H754 H 0.89729 0.19697 0.12787 0.0
H755 H 0.9206 0.23645 0.10228 0.0
H756 H 0.84141 0.14508 0.12841 0.0
H757 H 0.89598 0.2379 0.16823 0.0
H758 H 0.91111 0.29129 0.17979 0.0
H759 H 0.81668 0.26055 0.19457 0.0
H760 H 0.8009 0.20704 0.18285 0.0
H761 H 0.81276 0.05112 0.21388 0.0
H762 H 0.83464 0.09046 0.18802 0.0
H763 H 0.76272 0.11365 0.19664 0.0
H764 H 0.74093 0.07461 0.22261 0.0
H765 H 0.81794 0.16588 0.19527 0.0
H766 H 0.76336 0.07298 0.15581 0.0
H767 H 0.74811 0.01953 0.14434 0.0
H768 H 0.84229 0.05031 0.12883 0.0
H769 H 0.85818 0.10389 0.14047 0.0
C770 C 0.86016 0.24742 0.11363 0.0
C771 C 0.88684 0.25199 0.10391 0.0
C772 C 0.84676 0.22465 0.12827 0.0
C773 C 0.85978 0.20599 0.13355 0.0
C774 C 0.88671 0.21093 0.12407 0.0
C775 C 0.90014 0.2337 0.10949 0.0
C776 C 0.84483 0.18061 0.14842 0.0
C777 C 0.83668 0.14974 0.14311 0.0
C778 C 0.83782 0.18637 0.16748 0.0
C779 C 0.84721 0.21855 0.17446 0.0
C780 C 0.87839 0.24259 0.17377 0.0
C781 C 0.8871 0.27286 0.18039 0.0
C782 C 0.86486 0.27933 0.18785 0.0
C783 C 0.83387 0.25552 0.18876 0.0
C784 C 0.82504 0.22521 0.18214 0.0
C785 C 0.80129 0.06423 0.21007 0.0
C786 C 0.77499 0.05957 0.22031 0.0
C787 C 0.81384 0.08676 0.19525 0.0
C788 C 0.80032 0.10507 0.19026 0.0
C789 C 0.77367 0.09995 0.2002 0.0
C790 C 0.7611 0.07742 0.21499 0.0
C791 C 0.8146 0.13036 0.17527 0.0
C792 C 0.82263 0.1612 0.18055 0.0
C793 C 0.82147 0.12457 0.15618 0.0
C794 C 0.81201 0.09238 0.1492 0.0
C795 C 0.78087 0.0683 0.15011 0.0
C796 C 0.7721 0.03799 0.14355 0.0
C797 C 0.79423 0.03151 0.13591 0.0
C798 C 0.82517 0.05535 0.13478 0.0
C799 C 0.83407 0.0857 0.14134 0.0
H800 H 0.78739 0.00803 0.13083 0.0
H801 H 0.87164 0.30278 0.19298 0.0
H802 H 0.92889 0.66304 0.2239 0.0
H803 H 0.88853 0.64302 0.19834 0.0
H804 H 0.89061 0.73178 0.19776 0.0
H805 H 0.93133 0.75213 0.22318 0.0
H806 H 0.83058 0.67924 0.20147 0.0
H807 H 0.91987 0.71297 0.16061 0.0
H808 H 0.96769 0.71486 0.14948 0.0
H809 H 0.91726 0.6154 0.13855 0.0
H810 H 0.8692 0.61282 0.1499 0.0
H811 H 0.73985 0.66569 0.11883 0.0
H812 H 0.77935 0.67957 0.14408 0.0
H813 H 0.78143 0.59443 0.13206 0.0
H814 H 0.74231 0.58091 0.10593 0.0
H815 H 0.83819 0.64082 0.13575 0.0
H816 H 0.74908 0.60554 0.17509 0.0
H817 H 0.70048 0.60114 0.18689 0.0
H818 H 0.74879 0.69922 0.20205 0.0
H819 H 0.79763 0.70434 0.19008 0.0
C820 C 0.92112 0.67849 0.21812 0.0
C821 C 0.93344 0.70925 0.22555 0.0
C822 C 0.89802 0.66699 0.20349 0.0
C823 C 0.88649 0.68587 0.19609 0.0
C824 C 0.89913 0.71677 0.20323 0.0
C825 C 0.92256 0.72845 0.21768 0.0
C826 C 0.86027 0.67292 0.18162 0.0
C827 C 0.83235 0.6712 0.187 0.0
C828 C 0.86209 0.66114 0.16306 0.0
C829 C 0.89101 0.66265 0.15634 0.0
C830 C 0.91904 0.69144 0.15604 0.0
C831 C 0.94617 0.69265 0.14964 0.0
C832 C 0.94553 0.66525 0.14338 0.0
C833 C 0.91773 0.63659 0.14345 0.0
C834 C 0.89054 0.63525 0.14985 0.0
C835 C 0.74837 0.64963 0.12163 0.0
C836 C 0.73778 0.6221 0.11033 0.0
C837 C 0.77095 0.65756 0.13625 0.0
C838 C 0.78325 0.63791 0.14032 0.0
C839 C 0.77231 0.61 0.12931 0.0
C840 C 0.74974 0.60213 0.11447 0.0
C841 C 0.80847 0.64756 0.15544 0.0
C842 C 0.83622 0.64862 0.15025 0.0
C843 C 0.80635 0.6583 0.17433 0.0
C844 C 0.77699 0.65537 0.18153 0.0
C845 C 0.74931 0.62624 0.18079 0.0
C846 C 0.72172 0.6236 0.18754 0.0
C847 C 0.72154 0.6499 0.19518 0.0
C848 C 0.74897 0.67888 0.19612 0.0
C849 C 0.77662 0.68165 0.18937 0.0
H850 H 0.70015 0.64781 0.2004 0.0
H851 H 0.96656 0.66624 0.13842 0.0
H852 H 0.57149 0.84602 0.88694 0.0
H853 H 0.59276 0.82604 0.8622 0.0
H854 H 0.68152 0.91079 0.86765 0.0
H855 H 0.66044 0.93089 0.89225 0.0
H856 H 0.66772 0.89114 0.82939 0.0
H857 H 0.66673 0.8464 0.89188 0.0
H858 H 0.64219 0.8174 0.9219 0.0
H859 H 0.58462 0.73426 0.88791 0.0
H860 H 0.60774 0.7632 0.85754 0.0
H861 H 0.75124 0.82905 0.77952 0.0
H862 H 0.73521 0.85397 0.80439 0.0
H863 H 0.64853 0.76729 0.81054 0.0
H864 H 0.66516 0.74207 0.78686 0.0
H865 H 0.66453 0.79077 0.84406 0.0
H866 H 0.66091 0.8358 0.78161 0.0
H867 H 0.68252 0.86515 0.75115 0.0
H868 H 0.74715 0.94628 0.78436 0.0
H869 H 0.72624 0.91736 0.81508 0.0
C870 C 0.59536 0.86063 0.88262 0.0
C871 C 0.61426 0.89001 0.89166 0.0
C872 C 0.60758 0.84911 0.86854 0.0
C873 C 0.63892 0.86671 0.86322 0.0
C874 C 0.65734 0.89671 0.87151 0.0
C875 C 0.64522 0.90814 0.88563 0.0
C876 C 0.65302 0.85329 0.84989 0.0
C877 C 0.66726 0.86932 0.83266 0.0
C878 C 0.65228 0.82468 0.85405 0.0
C879 C 0.63876 0.80711 0.87237 0.0
C880 C 0.64859 0.82204 0.89075 0.0
C881 C 0.63489 0.8056 0.90785 0.0
C882 C 0.61193 0.77396 0.90683 0.0
C883 C 0.60243 0.75877 0.88868 0.0
C884 C 0.61571 0.77522 0.87151 0.0
C885 C 0.72901 0.81523 0.78644 0.0
C886 C 0.70943 0.7836 0.78103 0.0
C887 C 0.71963 0.82961 0.80051 0.0
C888 C 0.69019 0.81287 0.80913 0.0
C889 C 0.67126 0.78098 0.80418 0.0
C890 C 0.68081 0.76653 0.79048 0.0
C891 C 0.67852 0.82808 0.82311 0.0
C892 C 0.66495 0.81253 0.84065 0.0
C893 C 0.67964 0.85698 0.81912 0.0
C894 C 0.69224 0.87429 0.80064 0.0
C895 C 0.67988 0.85982 0.78242 0.0
C896 C 0.69198 0.87639 0.7651 0.0
C897 C 0.71623 0.90749 0.7658 0.0
C898 C 0.72841 0.92216 0.78384 0.0
C899 C 0.71645 0.9057 0.80121 0.0
H900 H 0.72555 0.92025 0.75237 0.0
H901 H 0.60149 0.76118 0.92008 0.0
H902 H 0.14511 0.72806 0.88675 0.0
H903 H 0.16823 0.76955 0.86225 0.0
H904 H 0.08684 0.77923 0.86272 0.0
H905 H 0.06363 0.73787 0.88736 0.0
H906 H 0.10846 0.78188 0.82529 0.0
H907 H 0.14798 0.83156 0.88687 0.0
H908 H 0.1722 0.83915 0.91951 0.0
H909 H 0.25568 0.8516 0.89355 0.0
H910 H 0.23178 0.84381 0.86065 0.0
H911 H 0.17614 0.92775 0.77564 0.0
H912 H 0.15207 0.88944 0.80189 0.0
H913 H 0.23144 0.87636 0.80426 0.0
H914 H 0.25574 0.91479 0.77815 0.0
H915 H 0.20966 0.8765 0.84111 0.0
H916 H 0.16741 0.82758 0.77851 0.0
H917 H 0.14146 0.82223 0.7468 0.0
H918 H 0.05979 0.80869 0.776 0.0
H919 H 0.08585 0.81529 0.808 0.0
C920 C 0.13187 0.73862 0.88141 0.0
C921 C 0.10248 0.7296 0.88902 0.0
C922 C 0.14525 0.76255 0.86751 0.0
C923 C 0.12947 0.77784 0.86082 0.0
C924 C 0.09952 0.76787 0.8677 0.0
C925 C 0.08626 0.74417 0.88177 0.0
C926 C 0.14459 0.80475 0.84705 0.0
C927 C 0.13038 0.80274 0.82885 0.0
C928 C 0.17333 0.83192 0.85161 0.0
C929 C 0.18796 0.83674 0.87131 0.0
C930 C 0.17141 0.83564 0.88812 0.0
C931 C 0.1851 0.84003 0.90668 0.0
C932 C 0.21542 0.84569 0.90865 0.0
C933 C 0.23216 0.84713 0.89201 0.0
C934 C 0.21857 0.84279 0.87339 0.0
C935 C 0.18871 0.91711 0.78195 0.0
C936 C 0.21783 0.92426 0.77469 0.0
C937 C 0.17484 0.89507 0.79691 0.0
C938 C 0.18971 0.8796 0.80491 0.0
C939 C 0.21944 0.88787 0.79834 0.0
C940 C 0.23329 0.90983 0.78335 0.0
C941 C 0.17366 0.85354 0.81922 0.0
C942 C 0.18772 0.85568 0.83754 0.0
C943 C 0.14453 0.82665 0.81488 0.0
C944 C 0.12874 0.82234 0.79565 0.0
C945 C 0.14406 0.82387 0.77819 0.0
C946 C 0.12932 0.82068 0.76014 0.0
C947 C 0.09893 0.81512 0.75934 0.0
C948 C 0.08333 0.81301 0.77663 0.0
C949 C 0.09813 0.81662 0.79473 0.0
H950 H 0.08737 0.81231 0.74537 0.0
H951 H 0.22596 0.84905 0.92305 0.0
H952 H 0.25781 0.32607 0.8924 0.0
H953 H 0.2184 0.30691 0.86623 0.0
H954 H 0.22443 0.39747 0.86402 0.0
H955 H 0.26405 0.41687 0.89006 0.0
H956 H 0.16393 0.34811 0.86701 0.0
H957 H 0.25313 0.37468 0.82713 0.0
H958 H 0.29943 0.37281 0.81671 0.0
H959 H 0.24448 0.27289 0.80855 0.0
H960 H 0.19789 0.27414 0.81911 0.0
H961 H 0.07773 0.33716 0.7826 0.0
H962 H 0.11673 0.3501 0.80809 0.0
H963 H 0.11233 0.26108 0.79886 0.0
H964 H 0.07367 0.24839 0.77253 0.0
H965 H 0.17048 0.30504 0.80269 0.0
H966 H 0.08105 0.27707 0.84053 0.0
H967 H 0.03375 0.27684 0.85104 0.0
H968 H 0.08711 0.37539 0.86449 0.0
H969 H 0.1347 0.37633 0.8538 0.0
C970 C 0.2511 0.34207 0.88614 0.0
C971 C 0.26419 0.37307 0.89332 0.0
C972 C 0.22856 0.33107 0.87114 0.0
C973 C 0.21841 0.35072 0.86308 0.0
C974 C 0.23185 0.38184 0.86998 0.0
C975 C 0.25466 0.39297 0.88482 0.0
C976 C 0.19261 0.33845 0.84827 0.0
C977 C 0.16551 0.33904 0.85285 0.0
C978 C 0.19404 0.32531 0.83011 0.0
C979 C 0.22212 0.32446 0.82414 0.0
C980 C 0.25099 0.35226 0.82332 0.0
C981 C 0.27727 0.35133 0.81733 0.0
C982 C 0.27493 0.32273 0.81204 0.0
C983 C 0.24629 0.29501 0.81271 0.0
C984 C 0.21994 0.29582 0.81868 0.0
C985 C 0.08476 0.3201 0.78603 0.0
C986 C 0.07239 0.29163 0.7755 0.0
C987 C 0.10707 0.3275 0.80078 0.0
C988 C 0.11732 0.30644 0.80576 0.0
C989 C 0.10479 0.27775 0.79541 0.0
C990 C 0.0825 0.27039 0.78045 0.0
C991 C 0.14184 0.31518 0.82128 0.0
C992 C 0.1687 0.31386 0.81689 0.0
C993 C 0.14002 0.32722 0.8398 0.0
C994 C 0.11142 0.32681 0.84621 0.0
C995 C 0.08267 0.29875 0.84558 0.0
C996 C 0.05581 0.29848 0.8516 0.0
C997 C 0.05741 0.3261 0.85839 0.0
C998 C 0.0859 0.35403 0.85921 0.0
C999 C 0.11283 0.35443 0.8532 0.0
H1000 H 0.03659 0.32584 0.86305 0.0
H1001 H 0.29528 0.32207 0.80736 0.0
H1002 H 0.0785 0.48793 0.44645 0.0
H1003 H 0.06282 0.51401 0.47085 0.0
H1004 H 0.97631 0.42787 0.47843 0.0
H1005 H 0.99186 0.40174 0.45452 0.0
H1006 H 0.9683 0.479 0.4711 0.0
H1007 H 0.02998 0.4523 0.51351 0.0
H1008 H 0.07756 0.4524 0.52404 0.0
H1009 H 0.12635 0.55317 0.52747 0.0
H1010 H 0.07914 0.55367 0.5167 0.0
H1011 H 0.90411 0.51193 0.5543 0.0
H1012 H 0.92392 0.4906 0.52954 0.0
H1013 H 0.01357 0.5747 0.53348 0.0
H1014 H 0.99416 0.59554 0.55863 0.0
H1015 H 0.02223 0.52761 0.5338 0.0
H1016 H 0.96242 0.55611 0.49258 0.0
H1017 H 0.91639 0.55823 0.48107 0.0
H1018 H 0.86621 0.45795 0.47376 0.0
H1019 H 0.91183 0.45518 0.48547 0.0
C1020 C 0.05643 0.47443 0.45362 0.0
C1021 C 0.03641 0.44276 0.44845 0.0
C1022 C 0.04743 0.48938 0.4675 0.0
C1023 C 0.01824 0.47295 0.47638 0.0
C1024 C 0.99879 0.44112 0.47169 0.0
C1025 C 0.00783 0.42618 0.45803 0.0
C1026 C 0.00709 0.48887 0.48995 0.0
C1027 C 0.97992 0.48939 0.48491 0.0
C1028 C 0.02275 0.50333 0.50766 0.0
C1029 C 0.05114 0.50303 0.51408 0.0
C1030 C 0.05094 0.47449 0.51633 0.0
C1031 C 0.07782 0.47443 0.52238 0.0
C1032 C 0.10499 0.50278 0.52636 0.0
C1033 C 0.10531 0.53123 0.52435 0.0
C1034 C 0.07849 0.53141 0.51828 0.0
C1035 C 0.92788 0.52608 0.54963 0.0
C1036 C 0.9475 0.55548 0.5584 0.0
C1037 C 0.93924 0.51388 0.53543 0.0
C1038 C 0.97031 0.53107 0.52942 0.0
C1039 C 0.98961 0.56082 0.53784 0.0
C1040 C 0.97838 0.57283 0.55216 0.0
C1041 C 0.98312 0.51758 0.51508 0.0
C1042 C 0.01063 0.51748 0.51995 0.0
C1043 C 0.96799 0.50388 0.49705 0.0
C1044 C 0.94045 0.50542 0.49009 0.0
C1045 C 0.94148 0.53448 0.48867 0.0
C1046 C 0.91549 0.5358 0.48208 0.0
C1047 C 0.88837 0.50823 0.47674 0.0
C1048 C 0.88722 0.47928 0.47793 0.0
C1049 C 0.91315 0.47782 0.48453 0.0
H1050 H 0.86827 0.50931 0.47164 0.0
H1051 H 0.12577 0.50269 0.53106 0.0
H1052 H 0.59364 0.57758 0.44201 0.0
H1053 H 0.5698 0.53896 0.46801 0.0
H1054 H 0.48987 0.55115 0.46616 0.0
H1055 H 0.51384 0.59024 0.44027 0.0
H1056 H 0.5043 0.5449 0.50343 0.0
H1057 H 0.48854 0.489 0.44312 0.0
H1058 H 0.50414 0.4755 0.41212 0.0
H1059 H 0.56191 0.44837 0.4438 0.0
H1060 H 0.54701 0.46216 0.47499 0.0
H1061 H 0.40394 0.40619 0.55463 0.0
H1062 H 0.42648 0.44477 0.52847 0.0
H1063 H 0.50691 0.43336 0.52863 0.0
H1064 H 0.48409 0.39411 0.55449 0.0
H1065 H 0.4914 0.43922 0.49202 0.0
H1066 H 0.50604 0.49576 0.55281 0.0
H1067 H 0.48789 0.50783 0.58332 0.0
H1068 H 0.42978 0.53271 0.55005 0.0
H1069 H 0.44725 0.52041 0.51936 0.0
C1070 C 0.57116 0.5724 0.44729 0.0
C1071 C 0.55562 0.58697 0.43897 0.0
C1072 C 0.55745 0.55011 0.46211 0.0
C1073 C 0.52772 0.54161 0.46884 0.0
C1074 C 0.51274 0.55716 0.46118 0.0
C1075 C 0.5265 0.57955 0.44637 0.0
C1076 C 0.51192 0.51575 0.48332 0.0
C1077 C 0.50118 0.52171 0.50082 0.0
C1078 C 0.50809 0.48548 0.48011 0.0
C1079 C 0.51687 0.47688 0.46138 0.0
C1080 C 0.50473 0.48035 0.44347 0.0
C1081 C 0.51342 0.47262 0.42586 0.0
C1082 C 0.53405 0.46114 0.42599 0.0
C1083 C 0.54596 0.45729 0.44372 0.0
C1084 C 0.53738 0.46504 0.46138 0.0
C1085 C 0.42624 0.41155 0.54893 0.0
C1086 C 0.44224 0.39709 0.55673 0.0
C1087 C 0.43924 0.43384 0.53404 0.0
C1088 C 0.46878 0.44261 0.52682 0.0
C1089 C 0.48419 0.4272 0.534 0.0
C1090 C 0.47108 0.40468 0.54879 0.0
C1091 C 0.48396 0.4684 0.51221 0.0
C1092 C 0.49457 0.46243 0.49466 0.0
C1093 C 0.4875 0.49859 0.51534 0.0
C1094 C 0.47775 0.5069 0.53379 0.0
C1095 C 0.48931 0.50371 0.55201 0.0
C1096 C 0.47915 0.51058 0.56933 0.0
C1097 C 0.45762 0.52091 0.56861 0.0
C1098 C 0.44641 0.52465 0.55058 0.0
C1099 C 0.45646 0.51777 0.53321 0.0
H1100 H 0.44957 0.52599 0.58201 0.0
H1101 H 0.54076 0.45518 0.41234 0.0
H1102 H 0.6015 0.07865 0.55185 0.0
H1103 H 0.56415 0.05753 0.52458 0.0
H1104 H 0.55783 0.96728 0.53151 0.0
H1105 H 0.59447 0.98801 0.55912 0.0
H1106 H 0.55941 0.03062 0.48941 0.0
H1107 H 0.47984 0.90906 0.52331 0.0
H1108 H 0.47104 0.88403 0.55567 0.0
H1109 H 0.50172 0.97312 0.5838 0.0
H1110 H 0.50881 0.99833 0.55167 0.0
H1111 H 0.43572 0.92487 0.42342 0.0
H1112 H 0.47733 0.94155 0.44823 0.0
H1113 H 0.43161 0.97761 0.48439 0.0
H1114 H 0.39082 0.96224 0.45932 0.0
H1115 H 0.45605 0.93989 0.50447 0.0
H1116 H 0.48353 0.02775 0.46165 0.0
H1117 H 0.496 0.05676 0.4306 0.0
H1118 H 0.57104 0.03887 0.42176 0.0
H1119 H 0.55853 0.00909 0.45258 0.0
C1120 C 0.59248 0.05442 0.54741 0.0
C1121 C 0.60072 0.03494 0.55782 0.0
C1122 C 0.57116 0.04237 0.53175 0.0
C1123 C 0.55769 0.01063 0.52614 0.0
C1124 C 0.56741 0.99168 0.53575 0.0
C1125 C 0.58843 0.0036 0.55153 0.0
C1126 C 0.53195 0.99695 0.51129 0.0
C1127 C 0.53692 0.01061 0.49268 0.0
C1128 C 0.50235 0.97102 0.51557 0.0
C1129 C 0.49536 0.95568 0.53503 0.0
C1130 C 0.48422 0.92323 0.53639 0.0
C1131 C 0.47942 0.90898 0.55471 0.0
C1132 C 0.48586 0.92698 0.57178 0.0
C1133 C 0.49664 0.95918 0.57057 0.0
C1134 C 0.5008 0.97341 0.5523 0.0
C1135 C 0.4342 0.93564 0.43688 0.0
C1136 C 0.40983 0.94189 0.4396 0.0
C1137 C 0.45811 0.94543 0.45095 0.0
C1138 C 0.45758 0.96087 0.46815 0.0
C1139 C 0.43244 0.96568 0.47127 0.0
C1140 C 0.4091 0.95677 0.45699 0.0
C1141 C 0.48375 0.97332 0.48257 0.0
C1142 C 0.47874 0.95954 0.50114 0.0
C1143 C 0.51324 0.99923 0.4783 0.0
C1144 C 0.51978 0.01577 0.45929 0.0
C1145 C 0.50233 0.0295 0.45293 0.0
C1146 C 0.50954 0.04627 0.43543 0.0
C1147 C 0.53435 0.04973 0.42424 0.0
C1148 C 0.55189 0.03626 0.43047 0.0
C1149 C 0.54468 0.01934 0.44792 0.0
H1150 H 0.53989 0.06271 0.41069 0.0
H1151 H 0.48242 0.91598 0.58595 0.0
H1152 H 0.33758 0.99393 0.03131 0.0
H1153 H 0.31002 0.94878 0.00932 0.0
H1154 H 0.23339 0.96645 0.00557 0.0
H1155 H 0.2601 0.01023 0.02862 0.0
H1156 H 0.21155 0.91059 0.01388 0.0
H1157 H 0.28278 0.97282 0.96484 0.0
H1158 H 0.33284 0.0074 0.94917 0.0
H1159 H 0.3598 0.93767 0.95718 0.0
H1160 H 0.31004 0.90276 0.97309 0.0
H1161 H 0.12719 0.78358 0.94879 0.0
H1162 H 0.16229 0.83888 0.95685 0.0
H1163 H 0.22623 0.815 0.98406 0.0
H1164 H 0.1909 0.75938 0.97653 0.0
H1165 H 0.25319 0.87542 0.95994 0.0
H1166 H 0.18232 0.81783 0.01341 0.0
H1167 H 0.12979 0.78287 0.02589 0.0
H1168 H 0.10077 0.84717 0.00602 0.0
H1169 H 0.15308 0.88231 0.99318 0.0
C1170 C 0.31508 0.98844 0.02547 0.0
C1171 C 0.30071 0.00519 0.03178 0.0
C1172 C 0.29942 0.96278 0.01274 0.0
C1173 C 0.26957 0.95414 0.00564 0.0
C1174 C 0.25624 0.9724 0.01095 0.0
C1175 C 0.27149 0.99741 0.0241 0.0
C1176 C 0.25063 0.92393 0.99494 0.0
C1177 C 0.22063 0.90347 1.00178 0.0
C1178 C 0.26239 0.91398 0.97938 0.0
C1179 C 0.2927 0.93523 0.97027 0.0
C1180 C 0.29948 0.96496 0.96343 0.0
C1181 C 0.32776 0.98457 0.95443 0.0
C1182 C 0.34941 0.97467 0.95212 0.0
C1183 C 0.34294 0.94524 0.95892 0.0
C1184 C 0.31468 0.92551 0.9679 0.0
C1185 C 0.14896 0.79009 0.95618 0.0
C1186 C 0.1561 0.7671 0.96232 0.0
C1187 C 0.16901 0.82169 0.96067 0.0
C1188 C 0.19673 0.83082 0.97099 0.0
C1189 C 0.20496 0.80827 0.97596 0.0
C1190 C 0.18464 0.77655 0.97182 0.0
C1191 C 0.21481 0.86294 0.97903 0.0
C1192 C 0.2444 0.88333 0.97181 0.0
C1193 C 0.20264 0.87322 0.99401 0.0
C1194 C 0.17146 0.8525 1.00217 0.0
C1195 C 0.16467 0.8244 0.01159 0.0
C1196 C 0.13496 0.80457 0.01874 0.0
C1197 C 0.11193 0.81274 0.0167 0.0
C1198 C 0.11862 0.84084 0.00757 0.0
C1199 C 0.14829 0.86073 1.00037 0.0
H1200 H 0.08893 0.79734 0.02221 0.0
H1201 H 0.37122 0.98982 0.94506 0.0
H1202 H 0.98135 0.33504 0.98537 0.0
H1203 H 0.03287 0.34689 0.97482 0.0
H1204 H 0.05598 0.33459 0.0339 0.0
H1205 H 0.00448 0.32252 0.04459 0.0
H1206 H 0.10076 0.3914 0.0154 0.0
H1207 H 0.04118 0.2794 1.00246 0.0
H1208 H 0.99783 0.23171 0.98755 0.0
H1209 H 0.02754 0.27007 0.93025 0.0
H1210 H 0.07084 0.31821 0.94484 0.0
H1211 H 0.24214 0.39639 0.00362 0.0
H1212 H 0.18878 0.38075 0.01153 0.0
H1213 H 0.16485 0.36998 0.94997 0.0
H1214 H 0.21813 0.38385 0.94207 0.0
H1215 H 0.11945 0.32621 0.96804 0.0
H1216 H 0.17799 0.43683 0.97868 0.0
H1217 H 0.22043 0.487 0.99169 0.0
H1218 H 0.192 0.45568 0.0504 0.0
H1219 H 0.14962 0.40514 0.03775 0.0
C1220 C 0.99734 0.33477 0.99612 0.0
C1221 C 0.98881 0.32785 0.01583 0.0
C1222 C 0.02671 0.3414 0.99004 0.0
C1223 C 0.04814 0.3415 0.00358 0.0
C1224 C 0.03971 0.33457 0.02324 0.0
C1225 C 0.01023 0.32754 0.02929 0.0
C1226 C 0.07971 0.34972 0.99741 0.0
C1227 C 0.10496 0.37699 0.00523 0.0
C1228 C 0.08493 0.33157 0.98352 0.0
C1229 C 0.05906 0.30253 0.97476 0.0
C1230 C 0.03832 0.27778 0.98669 0.0
C1231 C 0.01379 0.25064 0.97829 0.0
C1232 C 0.00988 0.2479 0.95797 0.0
C1233 C 0.03057 0.27225 0.94599 0.0
C1234 C 0.05512 0.29944 0.95432 0.0
C1235 C 0.22548 0.39063 0.99177 0.0
C1236 C 0.23432 0.39167 0.97222 0.0
C1237 C 0.19498 0.38188 0.99629 0.0
C1238 C 0.17286 0.37508 0.98135 0.0
C1239 C 0.18148 0.37533 0.96178 0.0
C1240 C 0.21191 0.3833 0.95726 0.0
C1241 C 0.14088 0.36783 0.98626 0.0
C1242 C 0.11545 0.3408 0.97816 0.0
C1243 C 0.13541 0.38664 0.99958 0.0
C1244 C 0.16078 0.41709 0.00726 0.0
C1245 C 0.18091 0.44056 0.99436 0.0
C1246 C 0.20494 0.46908 1.00168 0.0
C1247 C 0.20895 0.47449 0.02186 0.0
C1248 C 0.18888 0.45144 0.03477 0.0
C1249 C 0.16483 0.42287 0.02754 0.0
H1250 H 0.22757 0.49658 0.02749 0.0
H1251 H 0.99087 0.22687 0.9515 0.0
H1252 H 0.69674 0.73044 0.06235 0.0
H1253 H 0.67312 0.75478 0.0431 0.0
H1254 H 0.65674 0.69064 0.99537 0.0
H1255 H 0.67993 0.66542 0.01475 0.0
H1256 H 0.68165 0.75545 0.9845 0.0
H1257 H 0.60073 0.6767 0.0227 0.0
H1258 H 0.57421 0.64747 0.05217 0.0
H1259 H 0.57847 0.73027 0.0763 0.0
H1260 H 0.6053 0.76013 0.04697 0.0
H1261 H 0.5974 0.82568 0.94196 0.0
H1262 H 0.61312 0.78758 0.95212 0.0
H1263 H 0.61745 0.81654 0.01228 0.0
H1264 H 0.59988 0.85267 1.0024 0.0
H1265 H 0.59073 0.75765 0.01143 0.0
H1266 H 0.68296 0.8394 0.97998 0.0
H1267 H 0.714 0.87259 0.95268 0.0
H1268 H 0.69427 0.79026 0.91948 0.0
H1269 H 0.66258 0.75656 0.94644 0.0
C1270 C 0.68824 0.72145 0.04775 0.0
C1271 C 0.69012 0.69587 0.04012 0.0
C1272 C 0.67464 0.73536 0.0368 0.0
C1273 C 0.66278 0.72412 0.01798 0.0
C1274 C 0.66545 0.6993 0.00999 0.0
C1275 C 0.67868 0.68497 0.02107 0.0
C1276 C 0.64729 0.73841 0.00702 0.0
C1277 C 0.6614 0.75554 0.99012 0.0
C1278 C 0.62116 0.7387 0.01465 0.0
C1279 C 0.605 0.72069 0.03244 0.0
C1280 C 0.59605 0.68874 0.03421 0.0
C1281 C 0.58097 0.67203 0.05095 0.0
C1282 C 0.57461 0.68698 0.0661 0.0
C1283 C 0.58334 0.71868 0.06453 0.0
C1284 C 0.59844 0.73549 0.0478 0.0
C1285 C 0.60178 0.82377 0.95732 0.0
C1286 C 0.59729 0.84185 0.97145 0.0
C1287 C 0.61089 0.80218 0.96309 0.0
C1288 C 0.6167 0.79928 0.98294 0.0
C1289 C 0.61281 0.81799 0.9969 0.0
C1290 C 0.60287 0.83874 0.99125 0.0
C1291 C 0.62637 0.77665 0.98965 0.0
C1292 C 0.61079 0.75741 0.00562 0.0
C1293 C 0.65168 0.77518 0.98151 0.0
C1294 C 0.67006 0.79546 0.96512 0.0
C1295 C 0.68495 0.82837 0.96677 0.0
C1296 C 0.70273 0.84728 0.95138 0.0
C1297 C 0.70612 0.83355 0.93436 0.0
C1298 C 0.69169 0.80087 0.93269 0.0
C1299 C 0.67373 0.78186 0.94799 0.0
H1300 H 0.71987 0.84822 0.92245 0.0
H1301 H 0.56294 0.67402 0.07906 0.0
H1302 H 0.66997 0.98472 0.96469 0.0
H1303 H 0.7123 0.03368 0.97802 0.0
H1304 H 0.64857 0.04205 0.01641 0.0
H1305 H 0.60588 0.99346 1.00271 0.0
H1306 H 0.68517 0.09619 0.99925 0.0
H1307 H 0.69956 0.02132 0.03466 0.0
H1308 H 0.70514 0.97468 0.03953 0.0
H1309 H 0.78796 0.01673 0.00541 0.0
H1310 H 0.78263 0.06346 1.00008 0.0
H1311 H 0.84134 0.20481 0.05471 0.0
H1312 H 0.79676 0.15223 0.04895 0.0
H1313 H 0.78639 0.17892 0.99044 0.0
H1314 H 0.8302 0.23145 0.99616 0.0
H1315 H 0.7838 0.10582 0.02371 0.0
H1316 H 0.7119 0.1473 0.97804 0.0
H1317 H 0.70499 0.19354 0.97578 0.0
H1318 H 0.73387 0.21692 0.03584 0.0
H1319 H 0.74054 0.1706 0.03854 0.0
C1320 C 0.66489 0.99692 0.97598 0.0
C1321 C 0.63453 0.98498 0.9828 0.0
C1322 C 0.6892 0.02478 0.98371 0.0
C1323 C 0.68367 0.04121 0.99845 0.0
C1324 C 0.65337 0.02956 0.00517 0.0
C1325 C 0.62902 0.00166 0.99743 0.0
C1326 C 0.7094 0.07129 0.00614 0.0
C1327 C 0.70666 0.09827 0.00471 0.0
C1328 C 0.73718 0.07385 0.01367 0.0
C1329 C 0.74055 0.04582 0.01685 0.0
C1330 C 0.71883 0.02054 0.02807 0.0
C1331 C 0.72197 0.99409 0.03093 0.0
C1332 C 0.74686 0.99271 0.02275 0.0
C1333 C 0.76869 0.01782 0.01172 0.0
C1334 C 0.76564 0.04431 0.0088 0.0
C1335 C 0.82966 0.19938 0.04058 0.0
C1336 C 0.83909 0.2224 0.02596 0.0
C1337 C 0.80421 0.16936 0.03732 0.0
C1338 C 0.7879 0.1619 0.01941 0.0
C1339 C 0.79815 0.18442 0.00454 0.0
C1340 C 0.8233 0.21442 0.00783 0.0
C1341 C 0.75988 0.13079 0.01618 0.0
C1342 C 0.76219 0.10366 0.01845 0.0
C1343 C 0.73143 0.12796 0.00981 0.0
C1344 C 0.72692 0.15558 0.00844 0.0
C1345 C 0.7166 0.1622 0.9908 0.0
C1346 C 0.71277 0.18845 0.98943 0.0
C1347 C 0.71906 0.20819 0.00564 0.0
C1348 C 0.72909 0.20167 0.02328 0.0
C1349 C 0.73293 0.17543 0.02473 0.0
H1350 H 0.71612 0.22853 0.00455 0.0
H1351 H 0.74925 0.97222 0.02499 0.0
H1352 H 0.77459 0.61565 0.03339 0.0
H1353 H 0.82005 0.6169 0.01918 0.0
H1354 H 0.87997 0.70057 0.05263 0.0
H1355 H 0.83486 0.69972 0.0668 0.0
H1356 H 0.89891 0.70614 0.01549 0.0
H1357 H 0.87076 0.63164 0.06696 0.0
H1358 H 0.83584 0.58482 0.08604 0.0
H1359 H 0.8212 0.52587 0.03597 0.0
H1360 H 0.85572 0.57244 0.01649 0.0
H1361 H 0.02285 0.65445 0.01211 0.0
H1362 H 0.97719 0.65164 0.02693 0.0
H1363 H 0.95015 0.67199 0.97111 0.0
H1364 H 0.99587 0.67505 0.95616 0.0
H1365 H 0.9161 0.61526 0.021 0.0
H1366 H 0.91886 0.71867 0.97844 0.0
H1367 H 0.95713 0.7681 0.96287 0.0
H1368 H 0.02853 0.77381 1.0014 0.0
H1369 H 0.99062 0.72468 0.01736 0.0
C1370 C 0.79742 0.63437 0.0377 0.0
C1371 C 0.80099 0.65757 0.05127 0.0
C1372 C 0.82338 0.63497 0.02962 0.0
C1373 C 0.85339 0.65872 0.03495 0.0
C1374 C 0.85703 0.68206 0.04829 0.0
C1375 C 0.83115 0.68144 0.05643 0.0
C1376 C 0.88107 0.65932 0.02664 0.0
C1377 C 0.90261 0.68623 0.01663 0.0
C1378 C 0.88627 0.63363 0.02854 0.0
C1379 C 0.86557 0.60556 0.04021 0.0
C1380 C 0.85989 0.60872 0.05996 0.0
C1381 C 0.84021 0.58223 0.07086 0.0
C1382 C 0.82624 0.5524 0.0622 0.0
C1383 C 0.832 0.549 0.04264 0.0
C1384 C 0.85164 0.57543 0.03167 0.0
C1385 C 0.00712 0.65808 0.00291 0.0
C1386 C 0.01318 0.66508 0.98293 0.0
C1387 C 0.98097 0.65644 0.01143 0.0
C1388 C 0.96043 0.66191 1.00018 0.0
C1389 C 0.96596 0.66815 0.98014 0.0
C1390 C 0.99212 0.66985 0.97161 0.0
C1391 C 0.93363 0.66185 0.00951 0.0
C1392 C 0.91228 0.63508 0.01974 0.0
C1393 C 0.92904 0.68801 0.00827 0.0
C1394 C 0.95194 0.71782 0.99894 0.0
C1395 C 0.9427 0.73054 0.98363 0.0
C1396 C 0.96434 0.7585 0.97473 0.0
C1397 C 0.99526 0.77402 0.9811 0.0
C1398 C 0.0046 0.7617 0.99643 0.0
C1399 C 0.98305 0.73378 0.00539 0.0
H1400 H 0.01197 0.79564 0.97417 0.0
H1401 H 0.81101 0.53191 0.07066 0.0
H1402 H 0.32796 0.36238 0.01577 0.0
H1403 H 0.33413 0.3208 0.03076 0.0
H1404 H 0.35857 0.29931 0.97468 0.0
H1405 H 0.35005 0.3395 0.95941 0.0
H1406 H 0.32309 0.24838 0.99042 0.0
H1407 H 0.4165 0.33788 0.01686 0.0
H1408 H 0.44678 0.38953 0.03336 0.0
H1409 H 0.38935 0.35357 0.08394 0.0
H1410 H 0.3588 0.3019 0.06763 0.0
H1411 H 0.37346 0.14818 0.03092 0.0
H1412 H 0.37576 0.19462 0.01607 0.0
H1413 H 0.33109 0.20627 0.06654 0.0
H1414 H 0.32918 0.16021 0.08157 0.0
H1415 H 0.37949 0.26253 0.05332 0.0
H1416 H 0.2889 0.17131 0.02688 0.0
H1417 H 0.2611 0.11977 0.01023 0.0
H1418 H 0.31598 0.15933 0.95898 0.0
H1419 H 0.34443 0.21104 0.97545 0.0
C1420 C 0.33471 0.34878 0.00668 0.0
C1421 C 0.33848 0.35402 0.98646 0.0
C1422 C 0.33867 0.32526 0.0153 0.0
C1423 C 0.34766 0.30729 0.00402 0.0
C1424 C 0.35167 0.31278 0.98377 0.0
C1425 C 0.34677 0.33569 0.97503 0.0
C1426 C 0.35093 0.28152 0.01308 0.0
C1427 C 0.33604 0.2518 0.00395 0.0
C1428 C 0.36703 0.2854 0.03106 0.0
C1429 C 0.38516 0.31636 0.04089 0.0
C1430 C 0.4102 0.34125 0.03138 0.0
C1431 C 0.42744 0.37042 0.04072 0.0
C1432 C 0.41984 0.37489 0.05962 0.0
C1433 C 0.39514 0.35012 0.06927 0.0
C1434 C 0.37793 0.32088 0.06001 0.0
C1435 C 0.36447 0.16087 0.03895 0.0
C1436 C 0.35063 0.15028 0.05727 0.0
C1437 C 0.36565 0.18726 0.03041 0.0
C1438 C 0.35315 0.20352 0.0401 0.0
C1439 C 0.34066 0.19388 0.05878 0.0
C1440 C 0.33932 0.16742 0.06726 0.0
C1441 C 0.352 0.2299 0.0305 0.0
C1442 C 0.36702 0.25948 0.03962 0.0
C1443 C 0.33629 0.22597 0.01244 0.0
C1444 C 0.31901 0.19496 1.00247 0.0
C1445 C 0.2952 0.16896 0.01212 0.0
C1446 C 0.2793 0.13973 1.0027 0.0
C1447 C 0.28682 0.13626 0.98357 0.0
C1448 C 0.31021 0.16204 0.9738 0.0
C1449 C 0.32621 0.19132 0.98317 0.0
H1450 H 0.27449 0.1136 0.97631 0.0
H1451 H 0.43318 0.3975 0.06682 0.0
H1452 H 0.00522 0.33788 0.35628 0.0
H1453 H 0.97601 0.29267 0.3342 0.0
H1454 H 0.89016 0.2812 0.3559 0.0
H1455 H 0.91861 0.32571 0.37792 0.0
H1456 H 0.89102 0.2294 0.35967 0.0
H1457 H 0.915 0.30391 0.30887 0.0
H1458 H 0.94727 0.34862 0.28753 0.0
H1459 H 0.9928 0.30024 0.2659 0.0
H1460 H 0.96144 0.25558 0.28753 0.0
H1461 H 0.80565 0.11522 0.27631 0.0
H1462 H 0.8383 0.17027 0.2862 0.0
H1463 H 0.88991 0.1442 0.32547 0.0
H1464 H 0.85745 0.0893 0.31592 0.0
H1465 H 0.90306 0.21585 0.28894 0.0
H1466 H 0.89124 0.17624 0.36932 0.0
H1467 H 0.85558 0.13143 0.38967 0.0
H1468 H 0.78 0.1125 0.35057 0.0
H1469 H 0.8151 0.15747 0.33018 0.0
C1470 C 0.98012 0.32599 0.35613 0.0
C1471 C 0.96423 0.33496 0.36918 0.0
C1472 C 0.96356 0.30031 0.34346 0.0
C1473 C 0.93104 0.28346 0.34357 0.0
C1474 C 0.91527 0.29366 0.35571 0.0
C1475 C 0.93164 0.31907 0.36837 0.0
C1476 C 0.91342 0.25301 0.33305 0.0
C1477 C 0.89366 0.22665 0.34417 0.0
C1478 C 0.91669 0.24932 0.3128 0.0
C1479 C 0.93604 0.27646 0.30003 0.0
C1480 C 0.93218 0.30294 0.29978 0.0
C1481 C 0.95029 0.32828 0.28759 0.0
C1482 C 0.97212 0.3273 0.2754 0.0
C1483 C 0.97585 0.30095 0.27534 0.0
C1484 C 0.95797 0.27565 0.28761 0.0
C1485 C 0.82433 0.12125 0.28677 0.0
C1486 C 0.8285 0.09776 0.29566 0.0
C1487 C 0.84305 0.15275 0.2923 0.0
C1488 C 0.86612 0.16109 0.30674 0.0
C1489 C 0.87193 0.13807 0.31444 0.0
C1490 C 0.85324 0.10668 0.30902 0.0
C1491 C 0.88137 0.19277 0.31571 0.0
C1492 C 0.9006 0.21905 0.30439 0.0
C1493 C 0.87732 0.19672 0.33573 0.0
C1494 C 0.85588 0.17002 0.34814 0.0
C1495 C 0.86698 0.16259 0.36513 0.0
C1496 C 0.84687 0.13716 0.37666 0.0
C1497 C 0.81557 0.11907 0.37138 0.0
C1498 C 0.80427 0.12646 0.35461 0.0
C1499 C 0.82427 0.1519 0.34305 0.0
H1500 H 0.80005 0.09937 0.38031 0.0
H1501 H 0.98609 0.34693 0.26596 0.0
H1502 H 0.91677 0.74799 0.3344 0.0
H1503 H 0.86316 0.73083 0.34284 0.0
H1504 H 0.83337 0.69472 0.28428 0.0
H1505 H 0.88713 0.71148 0.27567 0.0
H1506 H 0.80814 0.73324 0.30098 0.0
H1507 H 0.8205 0.64379 0.31562 0.0
H1508 H 0.84729 0.61822 0.3308 0.0
H1509 H 0.83458 0.64673 0.38775 0.0
H1510 H 0.80813 0.6729 0.37287 0.0
H1511 H 0.64811 0.65155 0.31935 0.0
H1512 H 0.6999 0.6647 0.30896 0.0
H1513 H 0.73056 0.67711 0.36932 0.0
H1514 H 0.67824 0.66247 0.37982 0.0
H1515 H 0.75564 0.65008 0.35071 0.0
H1516 H 0.7455 0.74029 0.33822 0.0
H1517 H 0.72024 0.76865 0.32485 0.0
H1518 H 0.7313 0.74379 0.26645 0.0
H1519 H 0.75618 0.71483 0.27949 0.0
C1520 C 0.8989 0.73655 0.32324 0.0
C1521 C 0.90623 0.73104 0.30436 0.0
C1522 C 0.86828 0.7267 0.32813 0.0
C1523 C 0.84441 0.71145 0.3142 0.0
C1524 C 0.85157 0.70648 0.29521 0.0
C1525 C 0.88223 0.71593 0.29036 0.0
C1526 C 0.81191 0.70016 0.31976 0.0
C1527 C 0.79638 0.71472 0.3116 0.0
C1528 C 0.79717 0.67677 0.33412 0.0
C1529 C 0.81258 0.66055 0.34311 0.0
C1530 C 0.82362 0.64481 0.33137 0.0
C1531 C 0.83872 0.63017 0.33992 0.0
C1532 C 0.84272 0.63092 0.36023 0.0
C1533 C 0.8315 0.6462 0.37202 0.0
C1534 C 0.81643 0.66091 0.36354 0.0
C1535 C 0.66585 0.65692 0.33041 0.0
C1536 C 0.6592 0.65619 0.3504 0.0
C1537 C 0.69551 0.6646 0.32445 0.0
C1538 C 0.7194 0.67265 0.33832 0.0
C1539 C 0.71257 0.67111 0.35832 0.0
C1540 C 0.68268 0.66277 0.36432 0.0
C1541 C 0.75154 0.68311 0.33194 0.0
C1542 C 0.76716 0.6685 0.34 0.0
C1543 C 0.76659 0.70695 0.31777 0.0
C1544 C 0.75243 0.72511 0.30985 0.0
C1545 C 0.74242 0.74075 0.32253 0.0
C1546 C 0.72817 0.75693 0.31502 0.0
C1547 C 0.72408 0.75791 0.29483 0.0
C1548 C 0.73444 0.74294 0.2821 0.0
C1549 C 0.74863 0.72665 0.28954 0.0
H1550 H 0.71286 0.77024 0.28905 0.0
H1551 H 0.85445 0.61962 0.36682 0.0
H1552 H 0.30343 0.18638 0.28414 0.0
H1553 H 0.32524 0.15268 0.29187 0.0
H1554 H 0.2525 0.10215 0.33338 0.0
H1555 H 0.23058 0.13563 0.32587 0.0
H1556 H 0.34747 0.14921 0.3281 0.0
H1557 H 0.23625 0.02731 0.33502 0.0
H1558 H 0.18568 0.99582 0.3183 0.0
H1559 H 0.22361 0.04644 0.26512 0.0
H1560 H 0.27451 0.07796 0.28147 0.0
H1561 H 0.36851 0.05605 0.39676 0.0
H1562 H 0.34984 0.0845 0.37689 0.0
H1563 H 0.33772 0.02449 0.32745 0.0
H1564 H 0.35511 0.99492 0.34756 0.0
H1565 H 0.2908 0.03273 0.329 0.0
H1566 H 0.39981 0.10239 0.33097 0.0
H1567 H 0.45172 0.13337 0.34616 0.0
H1568 H 0.42096 0.18746 0.37852 0.0
H1569 H 0.36874 0.15653 0.36374 0.0
C1570 C 0.29179 0.16782 0.29472 0.0
C1571 C 0.26541 0.16392 0.30455 0.0
C1572 C 0.30432 0.14861 0.29911 0.0
C1573 C 0.29041 0.1249 0.31313 0.0
C1574 C 0.26338 0.1201 0.32234 0.0
C1575 C 0.25101 0.13942 0.31812 0.0
C1576 C 0.30554 0.10704 0.31965 0.0
C1577 C 0.3352 0.12373 0.32821 0.0
C1578 C 0.28973 0.07385 0.31942 0.0
C1579 C 0.25915 0.05509 0.30951 0.0
C1580 C 0.23384 0.03161 0.31974 0.0
C1581 C 0.2051 0.01379 0.31033 0.0
C1582 C 0.20141 0.01917 0.29067 0.0
C1583 C 0.22647 0.04238 0.28037 0.0
C1584 C 0.25525 0.06027 0.28971 0.0
C1585 C 0.36197 0.04893 0.38164 0.0
C1586 C 0.36352 0.02337 0.3737 0.0
C1587 C 0.35148 0.06536 0.37024 0.0
C1588 C 0.34305 0.05712 0.35052 0.0
C1589 C 0.34426 0.03139 0.34259 0.0
C1590 C 0.35424 0.01454 0.3541 0.0
C1591 C 0.33207 0.07484 0.33846 0.0
C1592 C 0.30323 0.05817 0.32882 0.0
C1593 C 0.34878 0.10808 0.33755 0.0
C1594 C 0.3803 0.12702 0.3463 0.0
C1595 C 0.40407 0.12079 0.34139 0.0
C1596 C 0.43356 0.13835 0.34993 0.0
C1597 C 0.43962 0.16234 0.36331 0.0
C1598 C 0.41623 0.16888 0.36815 0.0
C1599 C 0.3867 0.15137 0.35967 0.0
H1600 H 0.46246 0.17589 0.36992 0.0
H1601 H 0.17915 0.00534 0.2834 0.0
H1602 H 0.51285 0.55001 0.32954 0.0
H1603 H 0.47037 0.49652 0.3245 0.0
H1604 H 0.46549 0.48097 0.38682 0.0
H1605 H 0.50903 0.53457 0.39196 0.0
H1606 H 0.45444 0.42848 0.36639 0.0
H1607 H 0.41612 0.50019 0.36525 0.0
H1608 H 0.41486 0.54779 0.35538 0.0
H1609 H 0.39889 0.51618 0.29555 0.0
H1610 H 0.4005 0.46859 0.30502 0.0
H1611 H 0.29929 0.29654 0.35162 0.0
H1612 H 0.34346 0.34586 0.36366 0.0
H1613 H 0.36767 0.37734 0.30423 0.0
H1614 H 0.32385 0.32836 0.29211 0.0
H1615 H 0.36579 0.42137 0.32812 0.0
H1616 H 0.40818 0.35145 0.32948 0.0
H1617 H 0.40965 0.3041 0.3397 0.0
H1618 H 0.41682 0.3322 0.39994 0.0
H1619 H 0.41495 0.37953 0.39008 0.0
C1620 C 0.50299 0.53513 0.34217 0.0
C1621 C 0.51386 0.54659 0.36116 0.0
C1622 C 0.47869 0.50459 0.33928 0.0
C1623 C 0.46424 0.48512 0.35533 0.0
C1624 C 0.47619 0.49577 0.37426 0.0
C1625 C 0.50098 0.52634 0.37717 0.0
C1626 C 0.43563 0.45451 0.35213 0.0
C1627 C 0.43481 0.42689 0.35833 0.0
C1628 C 0.41007 0.4525 0.34156 0.0
C1629 C 0.4086 0.48089 0.33584 0.0
C1630 C 0.41249 0.50346 0.34998 0.0
C1631 C 0.41171 0.53044 0.34445 0.0
C1632 C 0.40684 0.53503 0.32485 0.0
C1633 C 0.40265 0.5126 0.31073 0.0
C1634 C 0.40346 0.48559 0.31617 0.0
C1635 C 0.31406 0.314 0.34114 0.0
C1636 C 0.3081 0.30862 0.32092 0.0
C1637 C 0.33934 0.34202 0.34804 0.0
C1638 C 0.35882 0.3651 0.33481 0.0
C1639 C 0.35285 0.35978 0.31466 0.0
C1640 C 0.32787 0.33175 0.30776 0.0
C1641 C 0.38505 0.39534 0.34176 0.0
C1642 C 0.38528 0.42295 0.33638 0.0
C1643 C 0.40984 0.39723 0.35316 0.0
C1644 C 0.41102 0.36881 0.35906 0.0
C1645 C 0.40977 0.34738 0.34492 0.0
C1646 C 0.41074 0.32058 0.35064 0.0
C1647 C 0.41322 0.31508 0.37046 0.0
C1648 C 0.41483 0.33644 0.38459 0.0
C1649 C 0.41383 0.36327 0.37895 0.0
H1650 H 0.41398 0.29432 0.37486 0.0
H1651 H 0.40627 0.55595 0.3206 0.0
H1652 H 0.66579 0.99852 0.28703 0.0
H1653 H 0.61941 0.99439 0.30165 0.0
H1654 H 0.65315 0.98857 0.35905 0.0
H1655 H 0.69909 0.9916 0.34447 0.0
H1656 H 0.59441 0.94871 0.35684 0.0
H1657 H 0.6569 0.05743 0.34154 0.0
H1658 H 0.68834 0.10346 0.32088 0.0
H1659 H 0.60967 0.07771 0.28306 0.0
H1660 H 0.57785 0.03125 0.30336 0.0
H1661 H 0.49485 0.98577 0.41069 0.0
H1662 H 0.54069 0.98841 0.39588 0.0
H1663 H 0.49954 0.97834 0.33851 0.0
H1664 H 0.45381 0.97611 0.35331 0.0
H1665 H 0.56178 0.02654 0.34097 0.0
H1666 H 0.49963 0.91719 0.35833 0.0
H1667 H 0.46963 0.87386 0.38116 0.0
H1668 H 0.55046 0.90466 0.4178 0.0
H1669 H 0.58085 0.94845 0.39531 0.0
C1670 C 0.66336 0.99636 0.30277 0.0
C1671 C 0.68627 0.99556 0.31458 0.0
C1672 C 0.63686 0.99414 0.31113 0.0
C1673 C 0.63297 0.99173 0.33151 0.0
C1674 C 0.6556 0.99046 0.3433 0.0
C1675 C 0.68191 0.99226 0.33493 0.0
C1676 C 0.60532 0.99046 0.34054 0.0
C1677 C 0.58756 0.96599 0.35353 0.0
C1678 C 0.59603 0.01274 0.33609 0.0
C1679 C 0.61508 0.04068 0.32386 0.0
C1680 C 0.64636 0.06144 0.32873 0.0
C1681 C 0.66424 0.08763 0.3171 0.0
C1682 C 0.65103 0.09345 0.30064 0.0
C1683 C 0.61988 0.07314 0.2958 0.0
C1684 C 0.60191 0.04689 0.30737 0.0
C1685 C 0.49587 0.98458 0.39491 0.0
C1686 C 0.47115 0.98129 0.3831 0.0
C1687 C 0.52184 0.98575 0.38649 0.0
C1688 C 0.52347 0.98355 0.3661 0.0
C1689 C 0.49874 0.98017 0.35427 0.0
C1690 C 0.47263 0.97874 0.36272 0.0
C1691 C 0.55101 0.98481 0.35711 0.0
C1692 C 0.56872 0.00929 0.34419 0.0
C1693 C 0.56055 0.96288 0.36187 0.0
C1694 C 0.54244 0.93624 0.37522 0.0
C1695 C 0.51096 0.91483 0.37132 0.0
C1696 C 0.49389 0.89018 0.38419 0.0
C1697 C 0.50811 0.88655 0.40094 0.0
C1698 C 0.53947 0.90751 0.40482 0.0
C1699 C 0.55663 0.93223 0.39201 0.0
H1700 H 0.49485 0.86746 0.4109 0.0
H1701 H 0.66491 0.11375 0.29165 0.0
H1702 H 0.99009 0.65817 0.29175 0.0
H1703 H 0.99309 0.61463 0.30661 0.0
H1704 H 0.0309 0.66907 0.35962 0.0
H1705 H 0.02754 0.71262 0.34501 0.0
H1706 H 0.03868 0.60692 0.32063 0.0
H1707 H 1.00145 0.62036 0.39864 0.0
H1708 H 0.96953 0.63949 0.41433 0.0
H1709 H 0.91595 0.62156 0.36132 0.0
H1710 H 0.94725 0.60192 0.34543 0.0
H1711 H 0.05987 0.50369 0.38324 0.0
H1712 H 0.06158 0.54988 0.36847 0.0
H1713 H 0.96238 0.50675 0.37438 0.0
H1714 H 0.96089 0.46149 0.39007 0.0
H1715 H 0.98549 0.56361 0.38344 0.0
H1716 H 1.00036 0.5105 0.32939 0.0
H1717 H 0.02511 0.48601 0.31087 0.0
H1718 H 0.11092 0.57374 0.31096 0.0
H1719 H 0.08677 0.59866 0.32971 0.0
C1720 C 0.9991 0.66097 0.30656 0.0
C1721 C 0.00828 0.68881 0.31725 0.0
C1722 C 1.00097 0.63609 0.31499 0.0
C1723 C 0.01189 0.63849 0.33428 0.0
C1724 C 0.02194 0.66656 0.3448 0.0
C1725 C 0.02007 0.69146 0.3364 0.0
C1726 C 0.01172 0.61118 0.34359 0.0
C1727 C 0.02715 0.59745 0.3344 0.0
C1728 C 0.99604 0.59843 0.3613 0.0
C1729 C 0.97697 0.61005 0.37079 0.0
C1730 C 0.98282 0.62044 0.39036 0.0
C1731 C 0.96483 0.63137 0.39928 0.0
C1732 C 0.94081 0.63186 0.3888 0.0
C1733 C 0.93465 0.62131 0.3694 0.0
C1734 C 0.95254 0.61032 0.36042 0.0
C1735 C 0.03847 0.50415 0.38137 0.0
C1736 C 0.01025 0.47902 0.38776 0.0
C1737 C 0.03943 0.53048 0.37284 0.0
C1738 C 0.01203 0.53168 0.37001 0.0
C1739 C 0.98386 0.50652 0.37644 0.0
C1740 C 0.98301 0.48059 0.38537 0.0
C1741 C 0.0125 0.55912 0.36052 0.0
C1742 C 0.99721 0.57305 0.36972 0.0
C1743 C 0.02729 0.57125 0.34243 0.0
C1744 C 0.04184 0.55634 0.33113 0.0
C1745 C 0.02457 0.5245 0.32558 0.0
C1746 C 0.03848 0.51056 0.31503 0.0
C1747 C 0.06959 0.52829 0.30979 0.0
C1748 C 0.08684 0.56003 0.31506 0.0
C1749 C 0.07305 0.57408 0.32564 0.0
H1750 H 0.08032 0.51745 0.30162 0.0
H1751 H 0.92692 0.64034 0.39574 0.0
H1752 H 0.50737 0.42807 0.66167 0.0
H1753 H 0.54508 0.48286 0.66768 0.0
H1754 H 0.52279 0.50762 0.61168 0.0
H1755 H 0.48397 0.4523 0.60564 0.0
H1756 H 0.59631 0.52442 0.65028 0.0
H1757 H 0.53385 0.58374 0.61784 0.0
H1758 H 0.48174 0.57197 0.60684 0.0
H1759 H 0.44032 0.49884 0.64956 0.0
H1760 H 0.49223 0.51061 0.66103 0.0
H1761 H 0.68179 0.68425 0.68637 0.0
H1762 H 0.65611 0.64122 0.66246 0.0
H1763 H 0.57197 0.60236 0.69575 0.0
H1764 H 0.59696 0.64503 0.71934 0.0
H1765 H 0.5591 0.60044 0.65763 0.0
H1766 H 0.62458 0.57507 0.69961 0.0
H1767 H 0.67336 0.58081 0.71306 0.0
H1768 H 0.7054 0.5816 0.65488 0.0
H1769 H 0.65686 0.57607 0.64109 0.0
C1770 C 0.51046 0.44499 0.65051 0.0
C1771 C 0.49242 0.43574 0.63323 0.0
C1772 C 0.53225 0.47639 0.65393 0.0
C1773 C 0.53674 0.49938 0.64016 0.0
C1774 C 0.51947 0.49027 0.62258 0.0
C1775 C 0.49731 0.45868 0.61918 0.0
C1776 C 0.55828 0.53278 0.64523 0.0
C1777 C 0.58841 0.54131 0.65154 0.0
C1778 C 0.54816 0.55495 0.64663 0.0
C1779 C 0.51685 0.54777 0.64007 0.0
C1780 C 0.5136 0.5652 0.62489 0.0
C1781 C 0.48412 0.55856 0.61859 0.0
C1782 C 0.45773 0.53456 0.62742 0.0
C1783 C 0.46078 0.51732 0.64267 0.0
C1784 C 0.49022 0.52399 0.64909 0.0
C1785 C 0.65777 0.66659 0.68854 0.0
C1786 C 0.64149 0.66809 0.70485 0.0
C1787 C 0.64316 0.64204 0.67486 0.0
C1788 C 0.61212 0.61861 0.67732 0.0
C1789 C 0.59585 0.62033 0.69344 0.0
C1790 C 0.61031 0.6447 0.70704 0.0
C1791 C 0.59634 0.59122 0.66388 0.0
C1792 C 0.56748 0.58404 0.65573 0.0
C1793 C 0.60743 0.57006 0.66105 0.0
C1794 C 0.63735 0.5756 0.66934 0.0
C1795 C 0.64224 0.57696 0.6897 0.0
C1796 C 0.66977 0.58003 0.69737 0.0
C1797 C 0.69242 0.58152 0.68482 0.0
C1798 C 0.68781 0.58043 0.66457 0.0
C1799 C 0.66033 0.57735 0.65682 0.0
H1800 H 0.71341 0.5832 0.69075 0.0
H1801 H 0.43492 0.52938 0.62247 0.0
H1802 H 0.5492 0.01113 0.63471 0.0
H1803 H 0.49692 0.9965 0.64518 0.0
H1804 H 0.52014 0.09364 0.64141 0.0
H1805 H 0.57305 0.10836 0.63258 0.0
H1806 H 0.49303 0.07553 0.67185 0.0
H1807 H 0.46434 0.02808 0.60842 0.0
H1808 H 0.45759 0.99457 0.57975 0.0
H1809 H 0.41464 0.91246 0.61577 0.0
H1810 H 0.42114 0.94548 0.64466 0.0
H1811 H 0.33558 0.04283 0.67273 0.0
H1812 H 0.38706 0.05479 0.6621 0.0
H1813 H 0.37642 0.97287 0.69205 0.0
H1814 H 0.32492 0.96097 0.70312 0.0
H1815 H 0.39567 0.98159 0.64968 0.0
H1816 H 0.42285 0.03607 0.71263 0.0
H1817 H 0.42166 0.07303 0.73659 0.0
H1818 H 0.46335 0.14769 0.69488 0.0
H1819 H 0.46453 0.11109 0.67061 0.0
C1820 C 0.54287 0.0292 0.63588 0.0
C1821 C 0.56506 0.06085 0.6329 0.0
C1822 C 0.51286 0.02083 0.64174 0.0
C1823 C 0.50413 0.04385 0.64401 0.0
C1824 C 0.52611 0.07534 0.64004 0.0
C1825 C 0.55634 0.08379 0.63486 0.0
C1826 C 0.47315 0.03574 0.65195 0.0
C1827 C 0.47185 0.05518 0.66666 0.0
C1828 C 0.44514 0.00891 0.64569 0.0
C1829 C 0.44349 0.98928 0.62872 0.0
C1830 C 0.45385 0.00292 0.61027 0.0
C1831 C 0.44985 0.98399 0.59396 0.0
C1832 C 0.43557 0.9514 0.59594 0.0
C1833 C 0.4256 0.93769 0.61426 0.0
C1834 C 0.42939 0.95649 0.6306 0.0
C1835 C 0.34421 0.02738 0.67712 0.0
C1836 C 0.32616 0.00085 0.68868 0.0
C1837 C 0.37364 0.03433 0.67109 0.0
C1838 C 0.38543 0.01469 0.6763 0.0
C1839 C 0.36762 0.98826 0.6879 0.0
C1840 C 0.33833 0.98159 0.69426 0.0
C1841 C 0.41607 0.02148 0.6691 0.0
C1842 C 0.41717 0.00179 0.6547 0.0
C1843 C 0.44368 0.04867 0.67504 0.0
C1844 C 0.44362 0.0708 0.68979 0.0
C1845 C 0.43163 0.06034 0.70855 0.0
C1846 C 0.43099 0.08123 0.72219 0.0
C1847 C 0.44239 0.11268 0.71725 0.0
C1848 C 0.45456 0.12333 0.69869 0.0
C1849 C 0.45528 0.10254 0.68501 0.0
H1850 H 0.44182 0.1288 0.72782 0.0
H1851 H 0.43218 0.93675 0.58326 0.0
H1852 H 0.0308 0.39901 0.72679 0.0
H1853 H 0.00555 0.42224 0.70805 0.0
H1854 H 0.98618 0.35607 0.66107 0.0
H1855 H 0.01092 0.3319 0.67997 0.0
H1856 H 0.00923 0.42037 0.64923 0.0
H1857 H 0.93254 0.34255 0.69053 0.0
H1858 H 0.90929 0.31512 0.72113 0.0
H1859 H 0.91371 0.39856 0.74424 0.0
H1860 H 0.93727 0.42665 0.71376 0.0
H1861 H 0.92308 0.48855 0.60832 0.0
H1862 H 0.93776 0.44969 0.6183 0.0
H1863 H 0.94314 0.47902 0.67856 0.0
H1864 H 0.92621 0.51568 0.66877 0.0
H1865 H 0.91907 0.42113 0.67867 0.0
H1866 H 0.00918 0.50281 0.64471 0.0
H1867 H 0.03624 0.53503 0.61605 0.0
H1868 H 0.01244 0.45156 0.58284 0.0
H1869 H 0.98497 0.41884 0.61126 0.0
C1870 C 0.02132 0.38936 0.71244 0.0
C1871 C 0.02273 0.36346 0.70492 0.0
C1872 C 0.00681 0.40264 0.70179 0.0
C1873 C 0.99357 0.39047 0.68337 0.0
C1874 C 0.99591 0.36543 0.67541 0.0
C1875 C 0.01004 0.35171 0.68622 0.0
C1876 C 0.97675 0.40379 0.67284 0.0
C1877 C 0.98918 0.42016 0.65544 0.0
C1878 C 0.95087 0.40373 0.68121 0.0
C1879 C 0.93662 0.38673 0.69966 0.0
C1880 C 0.92857 0.35512 0.70205 0.0
C1881 C 0.91535 0.33943 0.71944 0.0
C1882 C 0.90997 0.35507 0.73463 0.0
C1883 C 0.91781 0.38644 0.73244 0.0
C1884 C 0.93105 0.40223 0.71507 0.0
C1885 C 0.92721 0.48635 0.62368 0.0
C1886 C 0.92343 0.5049 0.63782 0.0
C1887 C 0.9358 0.46434 0.62938 0.0
C1888 C 0.94203 0.46159 0.6492 0.0
C1889 C 0.93824 0.48033 0.66321 0.0
C1890 C 0.92867 0.50141 0.65762 0.0
C1891 C 0.95287 0.43976 0.65576 0.0
C1892 C 0.93897 0.42122 0.67229 0.0
C1893 C 0.97803 0.43872 0.647 0.0
C1894 C 0.99472 0.4584 0.63 0.0
C1895 C 0.00959 0.49135 0.63125 0.0
C1896 C 0.025 0.50969 0.61506 0.0
C1897 C 0.02595 0.49534 0.59762 0.0
C1898 C 0.01161 0.46263 0.59635 0.0
C1899 C 0.99613 0.44418 0.61249 0.0
H1900 H 0.03787 0.50958 0.58509 0.0
H1901 H 0.89975 0.34289 0.74809 0.0
H1902 H 0.16119 0.87743 0.72412 0.0
H1903 H 0.11793 0.82476 0.71643 0.0
H1904 H 0.14973 0.83337 0.65715 0.0
H1905 H 0.19153 0.88682 0.66434 0.0
H1906 H 0.0919 0.8139 0.65651 0.0
H1907 H 0.15582 0.78505 0.69382 0.0
H1908 H 0.18582 0.78284 0.7221 0.0
H1909 H 0.10394 0.7423 0.75708 0.0
H1910 H 0.07361 0.74517 0.72922 0.0
H1911 H 0.00177 0.65815 0.62438 0.0
H1912 H 0.04555 0.70669 0.63673 0.0
H1913 H 0.99564 0.69974 0.68936 0.0
H1914 H 0.95124 0.65073 0.6771 0.0
H1915 H 0.06019 0.71735 0.69514 0.0
H1916 H 0.99713 0.74723 0.65738 0.0
H1917 H 0.96706 0.74618 0.62818 0.0
H1918 H 0.0489 0.78241 0.59331 0.0
H1919 H 0.07935 0.78314 0.62224 0.0
C1920 C 0.15918 0.86776 0.70956 0.0
C1921 C 0.17956 0.88599 0.69478 0.0
C1922 C 0.13463 0.83765 0.70525 0.0
C1923 C 0.13082 0.82486 0.68635 0.0
C1924 C 0.15211 0.8427 0.67184 0.0
C1925 C 0.17603 0.87313 0.67595 0.0
C1926 C 0.10333 0.79408 0.68122 0.0
C1927 C 0.08536 0.79277 0.66486 0.0
C1928 C 0.094 0.76661 0.69248 0.0
C1929 C 0.11248 0.76569 0.70944 0.0
C1930 C 0.14427 0.77608 0.70761 0.0
C1931 C 0.16133 0.77465 0.72357 0.0
C1932 C 0.1468 0.76246 0.74138 0.0
C1933 C 0.11516 0.75166 0.74327 0.0
C1934 C 0.09805 0.75332 0.72742 0.0
C1935 C 0.99998 0.6667 0.63864 0.0
C1936 C 0.97284 0.65058 0.64971 0.0
C1937 C 0.02508 0.69449 0.64565 0.0
C1938 C 0.02364 0.70681 0.66385 0.0
C1939 C 0.99707 0.69048 0.67526 0.0
C1940 C 0.97173 0.66262 0.66819 0.0
C1941 C 0.0496 0.73746 0.67039 0.0
C1942 C 0.067 0.7387 0.68697 0.0
C1943 C 0.05864 0.76488 0.65932 0.0
C1944 C 0.04047 0.76502 0.64196 0.0
C1945 C 0.00868 0.75478 0.64346 0.0
C1946 C 0.99156 0.75426 0.62696 0.0
C1947 C 0.00605 0.76418 0.6089 0.0
C1948 C 0.0377 0.77472 0.60731 0.0
C1949 C 0.0549 0.77521 0.62376 0.0
H1950 H 0.99277 0.76375 0.59614 0.0
H1951 H 0.16005 0.76137 0.75371 0.0
H1952 H 0.10424 0.27872 0.69892 0.0
H1953 H 0.14802 0.27681 0.68455 0.0
H1954 H 0.21142 0.36506 0.71259 0.0
H1955 H 0.16801 0.36686 0.72734 0.0
H1956 H 0.19177 0.3133 0.65995 0.0
H1957 H 0.27717 0.366 0.72618 0.0
H1958 H 0.27463 0.36839 0.76215 0.0
H1959 H 0.18693 0.28271 0.76142 0.0
H1960 H 0.18919 0.27946 0.7255 0.0
H1961 H 0.3451 0.36569 0.62969 0.0
H1962 H 0.29763 0.36037 0.64337 0.0
H1963 H 0.2913 0.28836 0.68232 0.0
H1964 H 0.33937 0.29439 0.66919 0.0
H1965 H 0.27926 0.32552 0.70179 0.0
H1966 H 0.24313 0.27163 0.64059 0.0
H1967 H 0.24229 0.26429 0.60484 0.0
H1968 H 0.22624 0.34154 0.59603 0.0
H1969 H 0.2274 0.34962 0.63173 0.0
C1970 C 0.12749 0.29775 0.70203 0.0
C1971 C 0.13257 0.32284 0.71441 0.0
C1972 C 0.15249 0.29664 0.69376 0.0
C1973 C 0.18302 0.32056 0.69771 0.0
C1974 C 0.18811 0.34601 0.70965 0.0
C1975 C 0.16319 0.34704 0.71802 0.0
C1976 C 0.20965 0.31899 0.68942 0.0
C1977 C 0.21088 0.31589 0.66908 0.0
C1978 C 0.23423 0.3216 0.7014 0.0
C1979 C 0.23323 0.32269 0.7231 0.0
C1980 C 0.25746 0.34754 0.7337 0.0
C1981 C 0.25605 0.34906 0.75407 0.0
C1982 C 0.23056 0.32581 0.76402 0.0
C1983 C 0.20659 0.30078 0.75367 0.0
C1984 C 0.20793 0.29909 0.7333 0.0
C1985 C 0.33352 0.3486 0.6411 0.0
C1986 C 0.34605 0.33049 0.64836 0.0
C1987 C 0.30627 0.34547 0.64886 0.0
C1988 C 0.29058 0.32366 0.66374 0.0
C1989 C 0.30296 0.3054 0.6709 0.0
C1990 C 0.33044 0.30884 0.66335 0.0
C1991 C 0.26177 0.32051 0.6722 0.0
C1992 C 0.26012 0.32274 0.69261 0.0
C1993 C 0.23642 0.31624 0.66033 0.0
C1994 C 0.2356 0.31138 0.63884 0.0
C1995 C 0.23964 0.28719 0.63103 0.0
C1996 C 0.23907 0.28287 0.61077 0.0
C1997 C 0.23428 0.30248 0.59817 0.0
C1998 C 0.22997 0.32639 0.60581 0.0
C1999 C 0.23055 0.33083 0.62605 0.0
H2000 H 0.23386 0.2991 0.58249 0.0
H2001 H 0.22937 0.32721 0.77975 0.0
H2002 H 0.62604 0.79465 0.72988 0.0
H2003 H 0.62475 0.84005 0.71617 0.0
H2004 H 0.72075 0.88117 0.7002 0.0
H2005 H 0.72224 0.83596 0.71375 0.0
H2006 H 0.70803 0.92367 0.71812 0.0
H2007 H 0.66661 0.84663 0.66596 0.0
H2008 H 0.63063 0.79482 0.65137 0.0
H2009 H 0.55349 0.80768 0.66428 0.0
H2010 H 0.58902 0.85942 0.6792 0.0
H2011 H 0.67208 0.99993 0.62786 0.0
H2012 H 0.67698 0.95816 0.64375 0.0
H2013 H 0.6687 0.99239 0.70029 0.0
H2014 H 0.66521 0.03515 0.68444 0.0
H2015 H 0.63691 0.91183 0.66322 0.0
H2016 H 0.6971 0.96944 0.73548 0.0
H2017 H 0.73669 0.02057 0.74931 0.0
H2018 H 0.78227 0.04634 0.69392 0.0
H2019 H 0.74258 0.99538 0.67971 0.0
C2020 C 0.64685 0.81335 0.72342 0.0
C2021 C 0.6742 0.81168 0.72279 0.0
C2022 C 0.64604 0.83919 0.71557 0.0
C2023 C 0.67263 0.86383 0.70713 0.0
C2024 C 0.70002 0.86237 0.70668 0.0
C2025 C 0.70075 0.83643 0.71431 0.0
C2026 C 0.67201 0.89114 0.69858 0.0
C2027 C 0.69244 0.92115 0.70615 0.0
C2028 C 0.6518 0.88776 0.68291 0.0
C2029 C 0.63043 0.85673 0.67388 0.0
C2030 C 0.64195 0.83829 0.66583 0.0
C2031 C 0.62165 0.80897 0.65748 0.0
C2032 C 0.58979 0.79793 0.65695 0.0
C2033 C 0.57817 0.81624 0.66473 0.0
C2034 C 0.59838 0.84557 0.67313 0.0
C2035 C 0.67155 0.99869 0.64369 0.0
C2036 C 0.66806 0.02067 0.6549 0.0
C2037 C 0.67438 0.97482 0.65277 0.0
C2038 C 0.67333 0.97209 0.67325 0.0
C2039 C 0.67024 0.99429 0.68451 0.0
C2040 C 0.668 0.0186 0.67543 0.0
C2041 C 0.67339 0.94476 0.68251 0.0
C2042 C 0.65254 0.91454 0.67522 0.0
C2043 C 0.69349 0.94801 0.69829 0.0
C2044 C 0.7167 0.97898 0.70646 0.0
C2045 C 0.71545 0.98616 0.72622 0.0
C2046 C 0.73784 0.01507 0.73411 0.0
C2047 C 0.76179 0.03681 0.72242 0.0
C2048 C 0.76342 0.02965 0.70284 0.0
C2049 C 0.74092 0.00086 0.69483 0.0
H2050 H 0.7792 0.05912 0.72858 0.0
H2051 H 0.5741 0.77522 0.65047 0.0
loop_
_geom_bond_atom_site_label_1
_geom_bond_atom_site_label_2
_geom_bond_distance
_geom_bond_site_symmetry_2
_ccdc_geom_bond_type
Co0 O1 2.216 . S
Co0 O2 2.091 . S
Co0 O4 2.004 . S
Co0 O10 2.021 . S
Co0 O12 2.137 . S
Co0 O13 2.244 . S
O1 Co0 2.216 . S
O1 C8 1.247 . S
O2 Co0 2.091 . S
O2 C8 1.261 . S
C3 O12 1.247 . S
C3 O13 1.272 . S
O4 Co0 2.004 . S
O4 C9 1.259 . S
Co5 O6 2.061 . S
Co5 O11 2.059 . S
Co5 O13 2.135 . S
O6 Co5 2.061 . S
O6 C9 1.235 . S
C7 O10 1.238 1_565 S
C7 O11 1.238 1_565 S
C8 O1 1.247 . S
C8 O2 1.261 . S
C9 O4 1.259 . S
C9 O6 1.235 . S
O10 Co0 2.021 . S
O10 C7 1.238 1_545 S
O11 Co5 2.059 . S
O11 C7 1.238 1_545 S
O12 Co0 2.137 . S
O12 C3 1.247 . S
O13 Co0 2.244 . S
O13 C3 1.272 . S
O13 Co5 2.135 . S
Co14 O15 2.216 . S
Co14 O16 2.091 . S
Co14 O18 2.004 . S
Co14 O24 2.021 . S
Co14 O26 2.137 . S
Co14 O27 2.244 . S
O15 Co14 2.216 . S
O15 C22 1.247 . S
O16 Co14 2.091 . S
O16 C22 1.261 . S
C17 O26 1.247 . S
C17 O27 1.272 . S
O18 Co14 2.004 . S
O18 C23 1.259 1_655 S
Co19 O20 2.061 . S
Co19 O25 2.052 . S
Co19 O27 2.135 . S
O20 Co19 2.061 . S
O20 C23 1.235 1_655 S
C21 O24 1.238 . S
C21 O25 1.241 . S
C22 O15 1.247 . S
C22 O16 1.261 . S
C23 O18 1.259 1_455 S
C23 O20 1.235 1_455 S
O24 Co14 2.021 . S
O24 C21 1.238 . S
O25 Co19 2.052 . S
O25 C21 1.241 . S
O26 Co14 2.137 . S
O26 C17 1.247 . S
O27 Co14 2.244 . S
O27 C17 1.272 . S
O27 Co19 2.135 . S
Co28 O29 2.216 . S
Co28 O30 2.091 . S
Co28 O32 2.004 . S
Co28 O38 2.021 . S
Co28 O40 2.137 . S
Co28 O41 2.244 . S
O29 Co28 2.216 . S
O29 C36 1.247 . S
O30 Co28 2.091 . S
O30 C36 1.261 . S
C31 O40 1.247 . S
C31 O41 1.272 . S
O32 Co28 2.004 . S
O32 C37 1.259 . S
Co33 O34 2.061 . S
Co33 O39 2.052 . S
Co33 O41 2.135 . S
O34 Co33 2.061 . S
O34 C37 1.235 . S
C35 O38 1.238 . S
C35 O39 1.241 . S
C36 O29 1.247 . S
C36 O30 1.261 . S
C37 O32 1.259 . S
C37 O34 1.235 . S
O38 Co28 2.021 . S
O38 C35 1.238 . S
O39 Co33 2.052 . S
O39 C35 1.241 . S
O40 Co28 2.137 . S
O40 C31 1.247 . S
O41 Co28 2.244 . S
O41 C31 1.272 . S
O41 Co33 2.135 . S
Co42 O43 2.216 . S
Co42 O44 2.091 . S
Co42 O46 2.004 . S
Co42 O52 2.021 . S
Co42 O54 2.137 . S
Co42 O55 2.244 . S
O43 Co42 2.216 . S
O43 C50 1.247 . S
O44 Co42 2.091 . S
O44 C50 1.261 . S
C45 O54 1.247 . S
C45 O55 1.272 . S
O46 Co42 2.004 . S
O46 C51 1.259 1_565 S
Co47 O48 2.061 . S
Co47 O53 2.052 . S
Co47 O55 2.135 . S
O48 Co47 2.061 . S
O48 C51 1.235 1_565 S
C49 O52 1.238 . S
C49 O53 1.241 . S
C50 O43 1.247 . S
C50 O44 1.261 . S
C51 O46 1.259 1_545 S
C51 O48 1.235 1_545 S
O52 Co42 2.021 . S
O52 C49 1.238 . S
O53 Co47 2.052 . S
O53 C49 1.241 . S
O54 Co42 2.137 . S
O54 C45 1.247 . S
O55 Co42 2.244 . S
O55 C45 1.272 . S
O55 Co47 2.135 . S
Co56 O57 2.216 . S
Co56 O58 2.091 . S
Co56 O60 2.004 . S
Co56 O66 2.021 . S
Co56 O68 2.137 . S
Co56 O69 2.244 . S
O57 Co56 2.216 . S
O57 C64 1.247 . S
O58 Co56 2.091 . S
O58 C64 1.261 . S
C59 O68 1.247 . S
C59 O69 1.272 . S
O60 Co56 2.004 . S
O60 C65 1.259 1_455 S
Co61 O62 2.061 . S
Co61 O67 2.052 . S
Co61 O69 2.135 . S
O62 Co61 2.061 . S
O62 C65 1.235 1_455 S
C63 O66 1.238 . S
C63 O67 1.241 . S
C64 O57 1.247 . S
C64 O58 1.261 . S
C65 O60 1.259 1_655 S
C65 O62 1.235 1_655 S
O66 Co56 2.021 . S
O66 C63 1.238 . S
O67 Co61 2.052 . S
O67 C63 1.241 . S
O68 Co56 2.137 . S
O68 C59 1.247 . S
O69 Co56 2.244 . S
O69 C59 1.272 . S
O69 Co61 2.135 . S
Co70 O71 2.216 . S
Co70 O72 2.091 . S
Co70 O74 2.004 . S
Co70 O80 2.021 . S
Co70 O82 2.137 . S
Co70 O83 2.244 . S
O71 Co70 2.216 . S
O71 C78 1.247 . S
O72 Co70 2.091 . S
O72 C78 1.261 . S
C73 O82 1.247 . S
C73 O83 1.272 . S
O74 Co70 2.004 . S
O74 C79 1.259 . S
Co75 O76 2.061 . S
Co75 O81 2.052 . S
Co75 O83 2.135 . S
O76 Co75 2.061 . S
O76 C79 1.235 . S
C77 O80 1.238 . S
C77 O81 1.241 . S
C78 O71 1.247 . S
C78 O72 1.261 . S
C79 O74 1.259 . S
C79 O76 1.235 . S
O80 Co70 2.021 . S
O80 C77 1.238 . S
O81 Co75 2.052 . S
O81 C77 1.241 . S
O82 Co70 2.137 . S
O82 C73 1.247 . S
O83 Co70 2.244 . S
O83 C73 1.272 . S
O83 Co75 2.135 . S
Co84 O85 2.216 . S
Co84 O86 2.091 . S
Co84 O88 2.004 . S
Co84 O94 2.021 1_455 S
Co84 O96 2.137 . S
Co84 O97 2.244 1_455 S
O85 Co84 2.216 . S
O85 C92 1.247 . S
O86 Co84 2.091 . S
O86 C92 1.261 . S
C87 O96 1.247 . S
C87 O97 1.272 1_455 S
O88 Co84 2.004 . S
O88 C93 1.259 1_455 S
Co89 O90 2.061 . S
Co89 O95 2.052 . S
Co89 O97 2.135 . S
O90 Co89 2.061 . S
O90 C93 1.235 . S
C91 O94 1.238 . S
C91 O95 1.241 . S
C92 O85 1.247 . S
C92 O86 1.261 . S
C93 O88 1.259 1_655 S
C93 O90 1.235 . S
O94 Co84 2.021 1_655 S
O94 C91 1.238 . S
O95 Co89 2.052 . S
O95 C91 1.241 . S
O96 Co84 2.137 . S
O96 C87 1.247 . S
O97 Co84 2.244 1_655 S
O97 C87 1.272 1_655 S
O97 Co89 2.135 . S
Co98 O99 2.216 . S
Co98 O100 2.091 . S
Co98 O102 2.004 . S
Co98 O108 2.021 . S
Co98 O110 2.137 . S
Co98 O111 2.244 . S
O99 Co98 2.216 . S
O99 C106 1.247 . S
O100 Co98 2.091 . S
O100 C106 1.261 . S
C101 O110 1.247 . S
C101 O111 1.272 . S
O102 Co98 2.004 . S
O102 C107 1.259 . S
Co103 O104 2.061 . S
Co103 O109 2.052 . S
Co103 O111 2.135 . S
O104 Co103 2.061 . S
O104 C107 1.235 . S
C105 O108 1.238 . S
C105 O109 1.241 . S
C106 O99 1.247 . S
C106 O100 1.261 . S
C107 O102 1.259 . S
C107 O104 1.235 . S
O108 Co98 2.021 . S
O108 C105 1.238 . S
O109 Co103 2.052 . S
O109 C105 1.241 . S
O110 Co98 2.137 . S
O110 C101 1.247 . S
O111 Co98 2.244 . S
O111 C101 1.272 . S
O111 Co103 2.135 . S
Co112 O113 2.216 . S
Co112 O114 2.091 . S
Co112 O116 2.004 . S
Co112 O122 2.021 1_565 S
Co112 O124 2.137 . S
Co112 O125 2.244 1_565 S
O113 Co112 2.216 . S
O113 C120 1.247 . S
O114 Co112 2.091 . S
O114 C120 1.261 . S
C115 O124 1.247 . S
C115 O125 1.272 1_565 S
O116 Co112 2.004 . S
O116 C121 1.259 1_565 S
Co117 O118 2.061 . S
Co117 O123 2.052 . S
Co117 O125 2.135 . S
O118 Co117 2.061 . S
O118 C121 1.235 . S
C119 O122 1.238 . S
C119 O123 1.241 . S
C120 O113 1.247 . S
C120 O114 1.261 . S
C121 O116 1.259 1_545 S
C121 O118 1.235 . S
O122 Co112 2.021 1_545 S
O122 C119 1.238 . S
O123 Co117 2.052 . S
O123 C119 1.241 . S
O124 Co112 2.137 . S
O124 C115 1.247 . S
O125 Co112 2.244 1_545 S
O125 C115 1.272 1_545 S
O125 Co117 2.135 . S
Co126 O127 2.216 . S
Co126 O128 2.091 . S
Co126 O130 2.004 . S
Co126 O136 2.021 . S
Co126 O138 2.137 . S
Co126 O139 2.244 . S
O127 Co126 2.216 . S
O127 C134 1.247 . S
O128 Co126 2.091 . S
O128 C134 1.261 . S
C129 O138 1.247 . S
C129 O139 1.272 . S
O130 Co126 2.004 . S
O130 C135 1.259 . S
Co131 O132 2.061 . S
Co131 O137 2.052 . S
Co131 O139 2.135 . S
O132 Co131 2.061 . S
O132 C135 1.235 . S
C133 O136 1.238 . S
C133 O137 1.241 . S
C134 O127 1.247 . S
C134 O128 1.261 . S
C135 O130 1.259 . S
C135 O132 1.235 . S
O136 Co126 2.021 . S
O136 C133 1.238 . S
O137 Co131 2.052 . S
O137 C133 1.241 . S
O138 Co126 2.137 . S
O138 C129 1.247 . S
O139 Co126 2.244 . S
O139 C129 1.272 . S
O139 Co131 2.135 . S
Co140 O141 2.216 . S
Co140 O142 2.091 . S
Co140 O144 2.004 . S
Co140 O150 2.021 . S
Co140 O152 2.108 1_545 S
Co140 O153 2.244 . S
O141 Co140 2.216 . S
O141 C148 1.247 . S
O142 Co140 2.091 . S
O142 C148 1.261 . S
C143 O152 1.258 . S
C143 O153 1.272 1_565 S
O144 Co140 2.004 . S
O144 C149 1.259 . S
Co145 O146 2.061 . S
Co145 O151 2.052 . S
Co145 O153 2.135 . S
O146 Co145 2.061 . S
O146 C149 1.235 . S
C147 O150 1.238 . S
C147 O151 1.241 . S
C148 O141 1.247 . S
C148 O142 1.261 . S
C149 O144 1.259 . S
C149 O146 1.235 . S
O150 Co140 2.021 . S
O150 C147 1.238 . S
O151 Co145 2.052 . S
O151 C147 1.241 . S
O152 Co140 2.108 1_565 S
O152 C143 1.258 . S
O153 Co140 2.244 . S
O153 C143 1.272 1_545 S
O153 Co145 2.135 . S
Co154 O155 2.216 . S
Co154 O156 2.091 . S
Co154 O158 2.004 . S
Co154 O164 2.021 . S
Co154 O166 2.137 . S
Co154 O167 2.244 . S
O155 Co154 2.216 . S
O155 C162 1.247 . S
O156 Co154 2.091 . S
O156 C162 1.261 . S
C157 O166 1.247 . S
C157 O167 1.272 . S
O158 Co154 2.004 . S
O158 C163 1.259 . S
Co159 O160 2.061 . S
Co159 O165 2.052 . S
Co159 O167 2.135 . S
O160 Co159 2.061 . S
O160 C163 1.235 . S
C161 O164 1.238 . S
C161 O165 1.241 . S
C162 O155 1.247 . S
C162 O156 1.261 . S
C163 O158 1.259 . S
C163 O160 1.235 . S
O164 Co154 2.021 . S
O164 C161 1.238 . S
O165 Co159 2.052 . S
O165 C161 1.241 . S
O166 Co154 2.137 . S
O166 C157 1.247 . S
O167 Co154 2.244 . S
O167 C157 1.272 . S
O167 Co159 2.135 . S
Co168 O169 2.216 . S
Co168 O170 2.091 . S
Co168 O172 2.004 . S
Co168 O178 2.021 . S
Co168 O180 2.137 . S
Co168 O181 2.244 . S
O169 Co168 2.216 . S
O169 C176 1.247 . S
O170 Co168 2.091 . S
O170 C176 1.261 . S
C171 O180 1.247 . S
C171 O181 1.272 . S
O172 Co168 2.004 . S
O172 C177 1.259 . S
Co173 O174 2.061 . S
Co173 O179 2.052 . S
Co173 O181 2.135 . S
O174 Co173 2.061 . S
O174 C177 1.235 . S
C175 O178 1.238 . S
C175 O179 1.241 . S
C176 O169 1.247 . S
C176 O170 1.261 . S
C177 O172 1.259 . S
C177 O174 1.235 . S
O178 Co168 2.021 . S
O178 C175 1.238 . S
O179 Co173 2.052 . S
O179 C175 1.241 . S
O180 Co168 2.137 . S
O180 C171 1.247 . S
O181 Co168 2.244 . S
O181 C171 1.272 . S
O181 Co173 2.135 . S
Co182 O183 2.216 . S
Co182 O184 2.091 . S
Co182 O186 2.004 . S
Co182 O192 2.021 . S
Co182 O194 2.137 1_565 S
Co182 O195 2.244 . S
O183 Co182 2.216 . S
O183 C190 1.247 . S
O184 Co182 2.091 . S
O184 C190 1.261 . S
C185 O194 1.247 . S
C185 O195 1.272 1_545 S
O186 Co182 2.004 . S
O186 C191 1.259 . S
Co187 O188 2.061 . S
Co187 O193 2.052 . S
Co187 O195 2.135 . S
O188 Co187 2.061 . S
O188 C191 1.235 . S
C189 O192 1.238 . S
C189 O193 1.241 . S
C190 O183 1.247 . S
C190 O184 1.261 . S
C191 O186 1.259 . S
C191 O188 1.235 . S
O192 Co182 2.021 . S
O192 C189 1.238 . S
O193 Co187 2.052 . S
O193 C189 1.241 . S
O194 Co182 2.137 1_545 S
O194 C185 1.247 . S
O195 Co182 2.244 . S
O195 C185 1.272 1_565 S
O195 Co187 2.135 . S
Co196 O197 2.216 1_455 S
Co196 O198 2.091 1_455 S
Co196 O200 2.004 . S
Co196 O206 2.021 . S
Co196 O208 2.137 . S
Co196 O209 2.244 . S
O197 Co196 2.216 1_655 S
O197 C204 1.247 . S
O198 Co196 2.091 1_655 S
O198 C204 1.261 . S
C199 O208 1.247 . S
C199 O209 1.272 . S
O200 Co196 2.004 . S
O200 C205 1.259 . S
Co201 O202 2.061 . S
Co201 O207 2.052 . S
Co201 O209 2.135 . S
O202 Co201 2.061 . S
O202 C205 1.235 . S
C203 O206 1.238 . S
C203 O207 1.241 . S
C204 O197 1.247 . S
C204 O198 1.261 . S
C205 O200 1.259 . S
C205 O202 1.235 . S
O206 Co196 2.021 . S
O206 C203 1.238 . S
O207 Co201 2.052 . S
O207 C203 1.241 . S
O208 Co196 2.137 . S
O208 C199 1.247 . S
O209 Co196 2.244 . S
O209 C199 1.272 . S
O209 Co201 2.135 . S
Co210 O211 2.211 1_455 S
Co210 O212 2.098 . S
Co210 O214 2.012 . S
Co210 O220 2.036 . S
Co210 O222 2.118 1_455 S
Co210 O223 2.229 1_455 S
O211 Co210 2.211 1_655 S
O211 C218 1.247 . S
O212 Co210 2.098 . S
O212 C218 1.261 1_455 S
C213 O222 1.247 . S
C213 O223 1.272 . S
O214 Co210 2.012 . S
O214 C219 1.259 . S
Co215 O216 2.061 1_655 S
Co215 O221 2.052 . S
Co215 O223 2.135 . S
O216 Co215 2.061 1_455 S
O216 C219 1.235 . S
C217 O220 1.238 . S
C217 O221 1.241 1_455 S
C218 O211 1.247 . S
C218 O212 1.261 1_655 S
C219 O214 1.259 . S
C219 O216 1.235 . S
O220 Co210 2.036 . S
O220 C217 1.238 . S
O221 Co215 2.052 . S
O221 C217 1.241 1_655 S
O222 Co210 2.118 1_655 S
O222 C213 1.247 . S
O223 Co210 2.229 1_655 S
O223 C213 1.272 . S
O223 Co215 2.135 . S
Co224 O225 2.216 . S
Co224 O226 2.091 . S
Co224 O228 2.004 . S
Co224 O234 2.021 . S
Co224 O236 2.137 . S
Co224 O237 2.244 . S
O225 Co224 2.216 . S
O225 C232 1.247 . S
O226 Co224 2.091 . S
O226 C232 1.261 . S
C227 O236 1.247 . S
C227 O237 1.272 . S
O228 Co224 2.004 . S
O228 C233 1.259 . S
Co229 O230 2.061 . S
Co229 O235 2.052 . S
Co229 O237 2.135 . S
O230 Co229 2.061 . S
O230 C233 1.235 . S
C231 O234 1.238 . S
C231 O235 1.241 . S
C232 O225 1.247 . S
C232 O226 1.261 . S
C233 O228 1.259 . S
C233 O230 1.235 . S
O234 Co224 2.021 . S
O234 C231 1.238 . S
O235 Co229 2.052 . S
O235 C231 1.241 . S
O236 Co224 2.137 . S
O236 C227 1.247 . S
O237 Co224 2.244 . S
O237 C227 1.272 . S
O237 Co229 2.135 . S
Co238 O239 2.200 1_565 S
Co238 O240 2.093 . S
Co238 O242 2.024 . S
Co238 O248 2.019 . S
Co238 O250 2.134 1_565 S
Co238 O251 2.235 1_565 S
O239 Co238 2.200 1_545 S
O239 C246 1.247 . S
O240 Co238 2.093 . S
O240 C246 1.261 1_565 S
C241 O250 1.247 . S
C241 O251 1.272 . S
O242 Co238 2.024 . S
O242 C247 1.259 . S
Co243 O244 2.061 1_545 S
Co243 O249 2.052 . S
Co243 O251 2.135 . S
O244 Co243 2.061 1_565 S
O244 C247 1.235 . S
C245 O248 1.238 . S
C245 O249 1.241 1_565 S
C246 O239 1.247 . S
C246 O240 1.261 1_545 S
C247 O242 1.259 . S
C247 O244 1.235 . S
O248 Co238 2.019 . S
O248 C245 1.238 . S
O249 Co243 2.052 . S
O249 C245 1.241 1_545 S
O250 Co238 2.134 1_545 S
O250 C241 1.247 . S
O251 Co238 2.235 1_545 S
O251 C241 1.272 . S
O251 Co243 2.135 . S
H252 C270 0.951 . S
H253 C272 0.941 1_556 S
H254 C274 0.950 . S
H255 C275 0.950 . S
H256 C277 0.950 . S
H257 C280 0.950 . S
H258 C281 0.950 . S
H259 C283 0.950 . S
H260 C284 0.950 . S
H261 C285 0.951 . S
H262 C287 0.951 . S
H263 C289 0.950 . S
H264 C290 0.950 1_545 S
H265 C292 0.950 . S
H266 C295 0.950 . S
H267 C296 0.950 . S
H268 C298 0.950 . S
H269 C299 0.950 . S
C270 H252 0.951 . S
C270 C271 1.366 . S
C270 C272 1.388 . S
C271 C270 1.366 . S
C271 C275 1.385 1_545 S
C272 H253 0.941 1_554 S
C272 C270 1.388 . S
C272 C273 1.366 . S
C273 C272 1.366 . S
C273 C274 1.414 1_545 S
C273 C276 1.499 . S
C274 H254 0.950 . S
C274 C273 1.414 1_565 S
C274 C275 1.374 . S
C275 H255 0.950 . S
C275 C271 1.385 1_565 S
C275 C274 1.374 . S
C276 C273 1.499 . S
C276 C277 1.373 1_545 S
C276 C278 1.389 1_554 S
C277 H256 0.950 . S
C277 C276 1.373 1_565 S
C277 C293 1.377 . S
C278 C276 1.389 1_556 S
C278 C279 1.524 . S
C278 C292 1.377 1_545 S
C279 C278 1.524 . S
C279 C280 1.397 1_545 S
C279 C284 1.363 . S
C280 H257 0.950 . S
C280 C279 1.397 1_565 S
C280 C281 1.334 . S
C281 H258 0.950 . S
C281 C280 1.334 . S
C281 C282 1.287 1_565 S
C282 C281 1.287 1_545 S
C282 C283 1.524 . S
C282 H301 0.913 . S
C283 H259 0.950 . S
C283 C282 1.524 . S
C283 C284 1.415 . S
C284 H260 0.950 . S
C284 C279 1.363 . S
C284 C283 1.415 . S
C285 H261 0.951 . S
C285 C286 1.366 . S
C285 C287 1.388 . S
C286 C285 1.366 . S
C286 C290 1.385 . S
C287 H262 0.951 . S
C287 C285 1.388 . S
C287 C288 1.366 . S
C288 C287 1.366 . S
C288 C289 1.414 1_565 S
C288 C291 1.499 . S
C289 H263 0.950 . S
C289 C288 1.414 1_545 S
C289 C290 1.374 1_545 S
C290 H264 0.950 1_565 S
C290 C286 1.385 . S
C290 C289 1.374 1_565 S
C291 C288 1.499 . S
C291 C292 1.373 . S
C291 C293 1.389 1_556 S
C292 H265 0.950 . S
C292 C278 1.377 1_565 S
C292 C291 1.373 . S
C293 C277 1.377 . S
C293 C291 1.389 1_554 S
C293 C294 1.524 . S
C294 C293 1.524 . S
C294 C295 1.397 1_565 S
C294 C299 1.363 . S
C295 H266 0.950 . S
C295 C294 1.397 1_545 S
C295 C296 1.334 . S
C296 H267 0.950 . S
C296 C295 1.334 . S
C296 C297 1.287 1_545 S
C297 C296 1.287 1_565 S
C297 C298 1.524 . S
C297 H300 0.999 . S
C298 H268 0.950 . S
C298 C297 1.524 . S
C298 C299 1.415 . S
C299 H269 0.950 . S
C299 C294 1.363 . S
C299 C298 1.415 . S
H300 C297 0.999 . S
H301 C282 0.913 . S
H302 C320 0.951 . S
H303 C322 0.951 . S
H304 C324 0.950 1_455 S
H305 C325 0.950 1_455 S
H306 C327 0.950 . S
H307 C330 0.950 . S
H308 C331 0.950 . S
H309 C333 0.950 . S
H310 C334 0.950 . S
H311 C335 0.951 . S
H312 C337 0.951 . S
H313 C339 0.935 1_554 S
H314 C340 0.950 1_655 S
H315 C342 0.950 . S
H316 C345 0.950 . S
H317 C346 0.950 . S
H318 C348 0.950 . S
H319 C349 0.950 . S
C320 H302 0.951 . S
C320 C321 1.366 . S
C320 C322 1.388 . S
C321 C320 1.366 . S
C321 C325 1.385 . S
C322 H303 0.951 . S
C322 C320 1.388 . S
C322 C323 1.366 . S
C323 C322 1.366 . S
C323 C324 1.414 . S
C323 C326 1.499 . S
C324 H304 0.950 1_655 S
C324 C323 1.414 . S
C324 C325 1.374 . S
C325 H305 0.950 1_655 S
C325 C321 1.385 . S
C325 C324 1.374 . S
C326 C323 1.499 . S
C326 C327 1.373 1_655 S
C326 C328 1.389 . S
C327 H306 0.950 . S
C327 C326 1.373 1_455 S
C327 C343 1.377 . S
C328 C326 1.389 . S
C328 C329 1.524 . S
C328 C342 1.377 1_554 S
C329 C328 1.524 . S
C329 C330 1.397 1_554 S
C329 C334 1.363 . S
C330 H307 0.950 . S
C330 C329 1.397 1_556 S
C330 C331 1.334 . S
C331 H308 0.950 . S
C331 C330 1.334 . S
C331 C332 1.287 . S
C332 C331 1.287 . S
C332 C333 1.524 1_556 S
C332 H351 0.913 . S
C333 H309 0.950 . S
C333 C332 1.524 1_554 S
C333 C334 1.415 . S
C334 H310 0.950 . S
C334 C329 1.363 . S
C334 C333 1.415 . S
C335 H311 0.951 . S
C335 C336 1.366 . S
C335 C337 1.388 . S
C336 C335 1.366 . S
C336 C340 1.385 . S
C337 H312 0.951 . S
C337 C335 1.388 . S
C337 C338 1.366 . S
C338 C337 1.366 . S
C338 C339 1.414 1_455 S
C338 C341 1.499 . S
C339 H313 0.935 1_556 S
C339 C338 1.414 1_655 S
C339 C340 1.374 1_655 S
C340 H314 0.950 1_455 S
C340 C336 1.385 . S
C340 C339 1.374 1_455 S
C341 C338 1.499 . S
C341 C342 1.373 1_455 S
C341 C343 1.389 1_556 S
C342 H315 0.950 . S
C342 C328 1.377 1_556 S
C342 C341 1.373 1_655 S
C343 C327 1.377 . S
C343 C341 1.389 1_554 S
C343 C344 1.524 . S
C344 C343 1.524 . S
C344 C345 1.397 . S
C344 C349 1.363 1_554 S
C345 H316 0.950 . S
C345 C344 1.397 . S
C345 C346 1.334 . S
C346 H317 0.950 . S
C346 C345 1.334 . S
C346 C347 1.287 . S
C347 C346 1.287 . S
C347 C348 1.524 1_554 S
C347 H350 0.999 . S
C348 H318 0.950 . S
C348 C347 1.524 1_556 S
C348 C349 1.415 . S
C349 H319 0.950 . S
C349 C344 1.363 1_556 S
C349 C348 1.415 . S
H350 C347 0.999 . S
H351 C332 0.913 . S
H352 C370 0.951 . S
H353 C372 0.951 . S
H354 C374 0.950 . S
H355 C375 0.950 . S
H356 C377 0.950 . S
H357 C380 0.950 . S
H358 C381 0.950 . S
H359 C383 0.950 . S
H360 C384 0.950 . S
H361 C385 0.951 . S
H362 C387 0.951 . S
H363 C389 0.950 . S
H364 C390 0.950 . S
H365 C392 0.950 . S
H366 C395 0.950 . S
H367 C396 0.950 . S
H368 C398 0.950 . S
H369 C399 0.950 . S
C370 H352 0.951 . S
C370 C371 1.366 . S
C370 C372 1.388 . S
C371 C370 1.366 . S
C371 C375 1.385 . S
C372 H353 0.951 . S
C372 C370 1.388 . S
C372 C373 1.366 . S
C373 C372 1.366 . S
C373 C374 1.414 . S
C373 C376 1.499 . S
C374 H354 0.950 . S
C374 C373 1.414 . S
C374 C375 1.374 . S
C375 H355 0.950 . S
C375 C371 1.385 . S
C375 C374 1.374 . S
C376 C373 1.499 . S
C376 C377 1.373 . S
C376 C378 1.389 1_556 S
C377 H356 0.950 . S
C377 C376 1.373 . S
C377 C393 1.377 . S
C378 C376 1.389 1_554 S
C378 C379 1.524 . S
C378 C392 1.377 . S
C379 C378 1.524 . S
C379 C380 1.397 . S
C379 C384 1.363 . S
C380 H357 0.950 . S
C380 C379 1.397 . S
C380 C381 1.334 . S
C381 H358 0.950 . S
C381 C380 1.334 . S
C381 C382 1.287 . S
C382 C381 1.287 . S
C382 C383 1.524 . S
C382 H401 0.913 . S
C383 H359 0.950 . S
C383 C382 1.524 . S
C383 C384 1.415 . S
C384 H360 0.950 . S
C384 C379 1.363 . S
C384 C383 1.415 . S
C385 H361 0.951 . S
C385 C386 1.366 . S
C385 C387 1.388 . S
C386 C385 1.366 . S
C386 C390 1.385 . S
C387 H362 0.951 . S
C387 C385 1.388 . S
C387 C388 1.366 . S
C388 C387 1.366 . S
C388 C389 1.414 . S
C388 C391 1.499 . S
C389 H363 0.950 . S
C389 C388 1.414 . S
C389 C390 1.374 . S
C390 H364 0.950 . S
C390 C386 1.385 . S
C390 C389 1.374 . S
C391 C388 1.499 . S
C391 C392 1.373 . S
C391 C393 1.389 1_554 S
C392 H365 0.950 . S
C392 C378 1.377 . S
C392 C391 1.373 . S
C393 C377 1.377 . S
C393 C391 1.389 1_556 S
C393 C394 1.524 . S
C394 C393 1.524 . S
C394 C395 1.397 . S
C394 C399 1.363 . S
C395 H366 0.950 . S
C395 C394 1.397 . S
C395 C396 1.334 . S
C396 H367 0.950 . S
C396 C395 1.334 . S
C396 C397 1.287 . S
C397 C396 1.287 . S
C397 C398 1.524 . S
C397 H400 0.999 . S
C398 H368 0.950 . S
C398 C397 1.524 . S
C398 C399 1.415 . S
C399 H369 0.950 . S
C399 C394 1.363 . S
C399 C398 1.415 . S
H400 C397 0.999 . S
H401 C382 0.913 . S
H402 C420 0.951 . S
H403 C422 0.951 . S
H404 C424 0.950 . S
H405 C425 0.950 . S
H406 C427 0.950 . S
H407 C430 0.950 . S
H408 C431 0.950 . S
H409 C433 0.950 . S
H410 C434 0.950 . S
H411 C435 0.951 . S
H412 C437 0.951 . S
H413 C439 0.950 . S
H414 C440 0.950 . S
H415 C442 0.950 . S
H416 C445 0.950 . S
H417 C446 0.950 . S
H418 C448 0.950 . S
H419 C449 0.950 . S
C420 H402 0.951 . S
C420 C421 1.366 . S
C420 C422 1.388 . S
C421 C420 1.366 . S
C421 C425 1.385 . S
C422 H403 0.951 . S
C422 C420 1.388 . S
C422 C423 1.366 . S
C423 C422 1.366 . S
C423 C424 1.414 . S
C423 C426 1.499 . S
C424 H404 0.950 . S
C424 C423 1.414 . S
C424 C425 1.374 . S
C425 H405 0.950 . S
C425 C421 1.385 . S
C425 C424 1.374 . S
C426 C423 1.499 . S
C426 C427 1.373 . S
C426 C428 1.389 . S
C427 H406 0.950 . S
C427 C426 1.373 . S
C427 C443 1.377 . S
C428 C426 1.389 . S
C428 C429 1.524 . S
C428 C442 1.377 . S
C429 C428 1.524 . S
C429 C430 1.397 . S
C429 C434 1.363 . S
C430 H407 0.950 . S
C430 C429 1.397 . S
C430 C431 1.334 . S
C431 H408 0.950 . S
C431 C430 1.334 . S
C431 C432 1.287 . S
C432 C431 1.287 . S
C432 C433 1.524 . S
C432 H451 0.913 . S
C433 H409 0.950 . S
C433 C432 1.524 . S
C433 C434 1.415 . S
C434 H410 0.950 . S
C434 C429 1.363 . S
C434 C433 1.415 . S
C435 H411 0.951 . S
C435 C436 1.366 . S
C435 C437 1.388 . S
C436 C435 1.366 . S
C436 C440 1.385 . S
C437 H412 0.951 . S
C437 C435 1.388 . S
C437 C438 1.366 . S
C438 C437 1.366 . S
C438 C439 1.414 . S
C438 C441 1.499 . S
C439 H413 0.950 . S
C439 C438 1.414 . S
C439 C440 1.374 . S
C440 H414 0.950 . S
C440 C436 1.385 . S
C440 C439 1.374 . S
C441 C438 1.499 . S
C441 C442 1.373 . S
C441 C443 1.389 . S
C442 H415 0.950 . S
C442 C428 1.377 . S
C442 C441 1.373 . S
C443 C427 1.377 . S
C443 C441 1.389 . S
C443 C444 1.524 . S
C444 C443 1.524 . S
C444 C445 1.397 . S
C444 C449 1.363 . S
C445 H416 0.950 . S
C445 C444 1.397 . S
C445 C446 1.334 . S
C446 H417 0.950 . S
C446 C445 1.334 . S
C446 C447 1.287 . S
C447 C446 1.287 . S
C447 C448 1.524 . S
C447 H450 0.999 . S
C448 H418 0.950 . S
C448 C447 1.524 . S
C448 C449 1.415 . S
C449 H419 0.950 . S
C449 C444 1.363 . S
C449 C448 1.415 . S
H450 C447 0.999 . S
H451 C432 0.913 . S
H452 C470 0.951 . S
H453 C472 0.951 . S
H454 C474 0.950 . S
H455 C475 0.950 . S
H456 C477 0.950 . S
H457 C480 0.950 . S
H458 C481 0.950 . S
H459 C483 0.950 . S
H460 C484 0.950 . S
H461 C485 0.951 . S
H462 C487 0.951 . S
H463 C489 0.950 . S
H464 C490 0.950 . S
H465 C492 0.950 . S
H466 C495 0.950 . S
H467 C496 0.950 . S
H468 C498 0.950 . S
H469 C499 0.950 . S
C470 H452 0.951 . S
C470 C471 1.366 . S
C470 C472 1.388 . S
C471 C470 1.366 . S
C471 C475 1.385 . S
C472 H453 0.951 . S
C472 C470 1.388 . S
C472 C473 1.366 . S
C473 C472 1.366 . S
C473 C474 1.414 . S
C473 C476 1.499 . S
C474 H454 0.950 . S
C474 C473 1.414 . S
C474 C475 1.374 . S
C475 H455 0.950 . S
C475 C471 1.385 . S
C475 C474 1.374 . S
C476 C473 1.499 . S
C476 C477 1.373 . S
C476 C478 1.389 . S
C477 H456 0.950 . S
C477 C476 1.373 . S
C477 C493 1.377 . S
C478 C476 1.389 . S
C478 C479 1.524 . S
C478 C492 1.377 . S
C479 C478 1.524 . S
C479 C480 1.397 . S
C479 C484 1.363 . S
C480 H457 0.950 . S
C480 C479 1.397 . S
C480 C481 1.334 . S
C481 H458 0.950 . S
C481 C480 1.334 . S
C481 C482 1.287 . S
C482 C481 1.287 . S
C482 C483 1.524 . S
C482 H501 0.913 . S
C483 H459 0.950 . S
C483 C482 1.524 . S
C483 C484 1.415 . S
C484 H460 0.950 . S
C484 C479 1.363 . S
C484 C483 1.415 . S
C485 H461 0.951 . S
C485 C486 1.366 . S
C485 C487 1.388 . S
C486 C485 1.366 . S
C486 C490 1.385 . S
C487 H462 0.951 . S
C487 C485 1.388 . S
C487 C488 1.366 . S
C488 C487 1.366 . S
C488 C489 1.414 . S
C488 C491 1.499 . S
C489 H463 0.950 . S
C489 C488 1.414 . S
C489 C490 1.374 . S
C490 H464 0.950 . S
C490 C486 1.385 . S
C490 C489 1.374 . S
C491 C488 1.499 . S
C491 C492 1.373 . S
C491 C493 1.389 . S
C492 H465 0.950 . S
C492 C478 1.377 . S
C492 C491 1.373 . S
C493 C477 1.377 . S
C493 C491 1.389 . S
C493 C494 1.524 . S
C494 C493 1.524 . S
C494 C495 1.397 . S
C494 C499 1.363 . S
C495 H466 0.950 . S
C495 C494 1.397 . S
C495 C496 1.334 . S
C496 H467 0.950 . S
C496 C495 1.334 . S
C496 C497 1.287 . S
C497 C496 1.287 . S
C497 C498 1.524 . S
C497 H500 0.999 . S
C498 H468 0.950 . S
C498 C497 1.524 . S
C498 C499 1.415 . S
C499 H469 0.950 . S
C499 C494 1.363 . S
C499 C498 1.415 . S
H500 C497 0.999 . S
H501 C482 0.913 . S
H502 C520 0.951 . S
H503 C522 0.951 . S
H504 C524 0.950 . S
H505 C525 0.950 . S
H506 C527 0.950 . S
H507 C530 0.950 . S
H508 C531 0.950 . S
H509 C533 0.950 . S
H510 C534 0.950 . S
H511 C535 0.951 . S
H512 C537 0.951 . S
H513 C539 0.950 . S
H514 C540 0.950 . S
H515 C542 0.950 . S
H516 C545 0.950 . S
H517 C546 0.950 . S
H518 C548 0.950 . S
H519 C549 0.950 . S
C520 H502 0.951 . S
C520 C521 1.366 . S
C520 C522 1.388 . S
C521 C520 1.366 . S
C521 C525 1.385 . S
C522 H503 0.951 . S
C522 C520 1.388 . S
C522 C523 1.366 . S
C523 C522 1.366 . S
C523 C524 1.414 . S
C523 C526 1.499 . S
C524 H504 0.950 . S
C524 C523 1.414 . S
C524 C525 1.374 . S
C525 H505 0.950 . S
C525 C521 1.385 . S
C525 C524 1.374 . S
C526 C523 1.499 . S
C526 C527 1.373 . S
C526 C528 1.389 . S
C527 H506 0.950 . S
C527 C526 1.373 . S
C527 C543 1.377 . S
C528 C526 1.389 . S
C528 C529 1.524 . S
C528 C542 1.377 . S
C529 C528 1.524 . S
C529 C530 1.397 . S
C529 C534 1.363 . S
C530 H507 0.950 . S
C530 C529 1.397 . S
C530 C531 1.334 . S
C531 H508 0.950 . S
C531 C530 1.334 . S
C531 C532 1.287 . S
C532 C531 1.287 . S
C532 C533 1.524 . S
C532 H551 0.913 . S
C533 H509 0.950 . S
C533 C532 1.524 . S
C533 C534 1.415 . S
C534 H510 0.950 . S
C534 C529 1.363 . S
C534 C533 1.415 . S
C535 H511 0.951 . S
C535 C536 1.366 . S
C535 C537 1.388 . S
C536 C535 1.366 . S
C536 C540 1.385 . S
C537 H512 0.951 . S
C537 C535 1.388 . S
C537 C538 1.366 . S
C538 C537 1.366 . S
C538 C539 1.414 . S
C538 C541 1.499 . S
C539 H513 0.950 . S
C539 C538 1.414 . S
C539 C540 1.374 . S
C540 H514 0.950 . S
C540 C536 1.385 . S
C540 C539 1.374 . S
C541 C538 1.499 . S
C541 C542 1.373 . S
C541 C543 1.389 . S
C542 H515 0.950 . S
C542 C528 1.377 . S
C542 C541 1.373 . S
C543 C527 1.377 . S
C543 C541 1.389 . S
C543 C544 1.524 . S
C544 C543 1.524 . S
C544 C545 1.397 . S
C544 C549 1.363 . S
C545 H516 0.950 . S
C545 C544 1.397 . S
C545 C546 1.334 . S
C546 H517 0.950 . S
C546 C545 1.334 . S
C546 C547 1.287 . S
C547 C546 1.287 . S
C547 C548 1.524 . S
C547 H550 0.999 . S
C548 H518 0.950 . S
C548 C547 1.524 . S
C548 C549 1.415 . S
C549 H519 0.950 . S
C549 C544 1.363 . S
C549 C548 1.415 . S
H550 C547 0.999 . S
H551 C532 0.913 . S
H552 C570 0.951 . S
H553 C572 0.951 . S
H554 C574 0.950 . S
H555 C575 0.950 . S
H556 C577 0.950 . S
H557 C580 0.950 . S
H558 C581 0.950 . S
H559 C583 0.950 . S
H560 C584 0.950 . S
H561 C585 0.951 . S
H562 C587 0.951 . S
H563 C589 0.950 . S
H564 C590 0.950 . S
H565 C592 0.950 . S
H566 C595 0.950 . S
H567 C596 0.950 . S
H568 C598 0.950 . S
H569 C599 0.950 . S
C570 H552 0.951 . S
C570 C571 1.366 . S
C570 C572 1.388 . S
C571 C570 1.366 . S
C571 C575 1.385 . S
C572 H553 0.951 . S
C572 C570 1.388 . S
C572 C573 1.366 . S
C573 C572 1.366 . S
C573 C574 1.414 . S
C573 C576 1.499 . S
C574 H554 0.950 . S
C574 C573 1.414 . S
C574 C575 1.374 . S
C575 H555 0.950 . S
C575 C571 1.385 . S
C575 C574 1.374 . S
C576 C573 1.499 . S
C576 C577 1.373 . S
C576 C578 1.389 . S
C577 H556 0.950 . S
C577 C576 1.373 . S
C577 C593 1.377 . S
C578 C576 1.389 . S
C578 C579 1.524 . S
C578 C592 1.377 . S
C579 C578 1.524 . S
C579 C580 1.397 . S
C579 C584 1.363 . S
C580 H557 0.950 . S
C580 C579 1.397 . S
C580 C581 1.334 . S
C581 H558 0.950 . S
C581 C580 1.334 . S
C581 C582 1.287 . S
C582 C581 1.287 . S
C582 C583 1.524 . S
C582 H601 0.913 . S
C583 H559 0.950 . S
C583 C582 1.524 . S
C583 C584 1.415 . S
C584 H560 0.950 . S
C584 C579 1.363 . S
C584 C583 1.415 . S
C585 H561 0.951 . S
C585 C586 1.366 . S
C585 C587 1.388 . S
C586 C585 1.366 . S
C586 C590 1.385 . S
C587 H562 0.951 . S
C587 C585 1.388 . S
C587 C588 1.366 . S
C588 C587 1.366 . S
C588 C589 1.414 . S
C588 C591 1.499 . S
C589 H563 0.950 . S
C589 C588 1.414 . S
C589 C590 1.374 . S
C590 H564 0.950 . S
C590 C586 1.385 . S
C590 C589 1.374 . S
C591 C588 1.499 . S
C591 C592 1.373 . S
C591 C593 1.389 . S
C592 H565 0.950 . S
C592 C578 1.377 . S
C592 C591 1.373 . S
C593 C577 1.377 . S
C593 C591 1.389 . S
C593 C594 1.524 . S
C594 C593 1.524 . S
C594 C595 1.397 . S
C594 C599 1.363 . S
C595 H566 0.950 . S
C595 C594 1.397 . S
C595 C596 1.334 . S
C596 H567 0.950 . S
C596 C595 1.334 . S
C596 C597 1.287 . S
C597 C596 1.287 . S
C597 C598 1.524 . S
C597 H600 0.999 . S
C598 H568 0.950 . S
C598 C597 1.524 . S
C598 C599 1.415 . S
C599 H569 0.950 . S
C599 C594 1.363 . S
C599 C598 1.415 . S
H600 C597 0.999 . S
H601 C582 0.913 . S
H602 C620 0.951 . S
H603 C622 0.951 . S
H604 C624 0.950 . S
H605 C625 0.950 . S
H606 C627 0.950 . S
H607 C630 0.950 . S
H608 C631 0.950 . S
H609 C633 0.950 . S
H610 C634 0.950 . S
H611 C635 0.951 . S
H612 C637 0.951 . S
H613 C639 0.950 . S
H614 C640 0.950 . S
H615 C642 0.950 . S
H616 C645 0.950 . S
H617 C646 0.950 . S
H618 C648 0.950 . S
H619 C649 0.950 . S
C620 H602 0.951 . S
C620 C621 1.366 . S
C620 C622 1.388 . S
C621 C620 1.366 . S
C621 C625 1.385 . S
C622 H603 0.951 . S
C622 C620 1.388 . S
C622 C623 1.366 . S
C623 C622 1.366 . S
C623 C624 1.414 . S
C623 C626 1.499 . S
C624 H604 0.950 . S
C624 C623 1.414 . S
C624 C625 1.374 . S
C625 H605 0.950 . S
C625 C621 1.385 . S
C625 C624 1.374 . S
C626 C623 1.499 . S
C626 C627 1.373 . S
C626 C628 1.389 . S
C627 H606 0.950 . S
C627 C626 1.373 . S
C627 C643 1.377 . S
C628 C626 1.389 . S
C628 C629 1.524 . S
C628 C642 1.377 . S
C629 C628 1.524 . S
C629 C630 1.397 . S
C629 C634 1.363 . S
C630 H607 0.950 . S
C630 C629 1.397 . S
C630 C631 1.334 . S
C631 H608 0.950 . S
C631 C630 1.334 . S
C631 C632 1.287 . S
C632 C631 1.287 . S
C632 C633 1.524 . S
C632 H651 0.913 . S
C633 H609 0.950 . S
C633 C632 1.524 . S
C633 C634 1.415 . S
C634 H610 0.950 . S
C634 C629 1.363 . S
C634 C633 1.415 . S
C635 H611 0.951 . S
C635 C636 1.366 . S
C635 C637 1.388 . S
C636 C635 1.366 . S
C636 C640 1.385 . S
C637 H612 0.951 . S
C637 C635 1.388 . S
C637 C638 1.366 . S
C638 C637 1.366 . S
C638 C639 1.414 . S
C638 C641 1.499 . S
C639 H613 0.950 . S
C639 C638 1.414 . S
C639 C640 1.374 . S
C640 H614 0.950 . S
C640 C636 1.385 . S
C640 C639 1.374 . S
C641 C638 1.499 . S
C641 C642 1.373 . S
C641 C643 1.389 . S
C642 H615 0.950 . S
C642 C628 1.377 . S
C642 C641 1.373 . S
C643 C627 1.377 . S
C643 C641 1.389 . S
C643 C644 1.524 . S
C644 C643 1.524 . S
C644 C645 1.397 . S
C644 C649 1.363 . S
C645 H616 0.950 . S
C645 C644 1.397 . S
C645 C646 1.334 . S
C646 H617 0.950 . S
C646 C645 1.334 . S
C646 C647 1.287 . S
C647 C646 1.287 . S
C647 C648 1.524 . S
C647 H650 0.999 . S
C648 H618 0.950 . S
C648 C647 1.524 . S
C648 C649 1.415 . S
C649 H619 0.950 . S
C649 C644 1.363 . S
C649 C648 1.415 . S
H650 C647 0.999 . S
H651 C632 0.913 . S
H652 C670 0.951 . S
H653 C672 0.951 . S
H654 C674 0.950 . S
H655 C675 0.950 . S
H656 C677 0.950 . S
H657 C680 0.950 . S
H658 C681 0.950 . S
H659 C683 0.950 . S
H660 C684 0.950 . S
H661 C685 0.951 . S
H662 C687 0.951 . S
H663 C689 0.950 . S
H664 C690 0.950 . S
H665 C692 0.950 . S
H666 C695 0.950 . S
H667 C696 0.950 . S
H668 C698 0.950 . S
H669 C699 0.950 . S
C670 H652 0.951 . S
C670 C671 1.366 . S
C670 C672 1.388 . S
C671 C670 1.366 . S
C671 C675 1.385 . S
C672 H653 0.951 . S
C672 C670 1.388 . S
C672 C673 1.366 . S
C673 C672 1.366 . S
C673 C674 1.414 . S
C673 C676 1.499 . S
C674 H654 0.950 . S
C674 C673 1.414 . S
C674 C675 1.374 . S
C675 H655 0.950 . S
C675 C671 1.385 . S
C675 C674 1.374 . S
C676 C673 1.499 . S
C676 C677 1.373 . S
C676 C678 1.389 . S
C677 H656 0.950 . S
C677 C676 1.373 . S
C677 C693 1.377 . S
C678 C676 1.389 . S
C678 C679 1.524 . S
C678 C692 1.377 . S
C679 C678 1.524 . S
C679 C680 1.397 . S
C679 C684 1.363 . S
C680 H657 0.950 . S
C680 C679 1.397 . S
C680 C681 1.334 . S
C681 H658 0.950 . S
C681 C680 1.334 . S
C681 C682 1.287 . S
C682 C681 1.287 . S
C682 C683 1.524 . S
C682 H701 0.913 . S
C683 H659 0.950 . S
C683 C682 1.524 . S
C683 C684 1.415 . S
C684 H660 0.950 . S
C684 C679 1.363 . S
C684 C683 1.415 . S
C685 H661 0.951 . S
C685 C686 1.366 . S
C685 C687 1.388 . S
C686 C685 1.366 . S
C686 C690 1.385 . S
C687 H662 0.951 . S
C687 C685 1.388 . S
C687 C688 1.366 . S
C688 C687 1.366 . S
C688 C689 1.414 . S
C688 C691 1.499 . S
C689 H663 0.950 . S
C689 C688 1.414 . S
C689 C690 1.374 . S
C690 H664 0.950 . S
C690 C686 1.385 . S
C690 C689 1.374 . S
C691 C688 1.499 . S
C691 C692 1.373 . S
C691 C693 1.389 . S
C692 H665 0.950 . S
C692 C678 1.377 . S
C692 C691 1.373 . S
C693 C677 1.377 . S
C693 C691 1.389 . S
C693 C694 1.524 . S
C694 C693 1.524 . S
C694 C695 1.397 . S
C694 C699 1.363 . S
C695 H666 0.950 . S
C695 C694 1.397 . S
C695 C696 1.334 . S
C696 H667 0.950 . S
C696 C695 1.334 . S
C696 C697 1.287 . S
C697 C696 1.287 . S
C697 C698 1.524 . S
C697 H700 0.999 . S
C698 H668 0.950 . S
C698 C697 1.524 . S
C698 C699 1.415 . S
C699 H669 0.950 . S
C699 C694 1.363 . S
C699 C698 1.415 . S
H700 C697 0.999 . S
H701 C682 0.913 . S
H702 C720 0.951 . S
H703 C722 0.951 . S
H704 C724 0.950 . S
H705 C725 0.950 . S
H706 C727 0.950 . S
H707 C730 0.950 . S
H708 C731 0.950 . S
H709 C733 0.950 . S
H710 C734 0.950 . S
H711 C735 0.951 . S
H712 C737 0.951 . S
H713 C739 0.950 . S
H714 C740 0.950 . S
H715 C742 0.950 . S
H716 C745 0.950 . S
H717 C746 0.950 . S
H718 C748 0.950 . S
H719 C749 0.950 . S
C720 H702 0.951 . S
C720 C721 1.366 . S
C720 C722 1.388 . S
C721 C720 1.366 . S
C721 C725 1.385 . S
C722 H703 0.951 . S
C722 C720 1.388 . S
C722 C723 1.366 . S
C723 C722 1.366 . S
C723 C724 1.414 . S
C723 C726 1.499 . S
C724 H704 0.950 . S
C724 C723 1.414 . S
C724 C725 1.374 . S
C725 H705 0.950 . S
C725 C721 1.385 . S
C725 C724 1.374 . S
C726 C723 1.499 . S
C726 C727 1.373 . S
C726 C728 1.389 . S
C727 H706 0.950 . S
C727 C726 1.373 . S
C727 C743 1.377 . S
C728 C726 1.389 . S
C728 C729 1.524 . S
C728 C742 1.377 . S
C729 C728 1.524 . S
C729 C730 1.397 . S
C729 C734 1.363 . S
C730 H707 0.950 . S
C730 C729 1.397 . S
C730 C731 1.334 . S
C731 H708 0.950 . S
C731 C730 1.334 . S
C731 C732 1.287 . S
C732 C731 1.287 . S
C732 C733 1.524 . S
C732 H751 0.913 . S
C733 H709 0.950 . S
C733 C732 1.524 . S
C733 C734 1.415 . S
C734 H710 0.950 . S
C734 C729 1.363 . S
C734 C733 1.415 . S
C735 H711 0.951 . S
C735 C736 1.366 . S
C735 C737 1.388 . S
C736 C735 1.366 . S
C736 C740 1.385 . S
C737 H712 0.951 . S
C737 C735 1.388 . S
C737 C738 1.366 . S
C738 C737 1.366 . S
C738 C739 1.414 . S
C738 C741 1.499 . S
C739 H713 0.950 . S
C739 C738 1.414 . S
C739 C740 1.374 . S
C740 H714 0.950 . S
C740 C736 1.385 . S
C740 C739 1.374 . S
C741 C738 1.499 . S
C741 C742 1.373 . S
C741 C743 1.389 . S
C742 H715 0.950 . S
C742 C728 1.377 . S
C742 C741 1.373 . S
C743 C727 1.377 . S
C743 C741 1.389 . S
C743 C744 1.524 . S
C744 C743 1.524 . S
C744 C745 1.397 . S
C744 C749 1.363 . S
C745 H716 0.950 . S
C745 C744 1.397 . S
C745 C746 1.334 . S
C746 H717 0.950 . S
C746 C745 1.334 . S
C746 C747 1.287 . S
C747 C746 1.287 . S
C747 C748 1.524 . S
C747 H750 0.999 . S
C748 H718 0.950 . S
C748 C747 1.524 . S
C748 C749 1.415 . S
C749 H719 0.950 . S
C749 C744 1.363 . S
C749 C748 1.415 . S
H750 C747 0.999 . S
H751 C732 0.913 . S
H752 C770 0.951 . S
H753 C772 0.951 . S
H754 C774 0.950 . S
H755 C775 0.950 . S
H756 C777 0.950 . S
H757 C780 0.950 . S
H758 C781 0.950 . S
H759 C783 0.950 . S
H760 C784 0.950 . S
H761 C785 0.951 . S
H762 C787 0.951 . S
H763 C789 0.950 . S
H764 C790 0.950 . S
H765 C792 0.950 . S
H766 C795 0.950 . S
H767 C796 0.950 . S
H768 C798 0.950 . S
H769 C799 0.950 . S
C770 H752 0.951 . S
C770 C771 1.366 . S
C770 C772 1.388 . S
C771 C770 1.366 . S
C771 C775 1.385 . S
C772 H753 0.951 . S
C772 C770 1.388 . S
C772 C773 1.366 . S
C773 C772 1.366 . S
C773 C774 1.414 . S
C773 C776 1.499 . S
C774 H754 0.950 . S
C774 C773 1.414 . S
C774 C775 1.374 . S
C775 H755 0.950 . S
C775 C771 1.385 . S
C775 C774 1.374 . S
C776 C773 1.499 . S
C776 C777 1.373 . S
C776 C778 1.389 . S
C777 H756 0.950 . S
C777 C776 1.373 . S
C777 C793 1.377 . S
C778 C776 1.389 . S
C778 C779 1.524 . S
C778 C792 1.377 . S
C779 C778 1.524 . S
C779 C780 1.397 . S
C779 C784 1.363 . S
C780 H757 0.950 . S
C780 C779 1.397 . S
C780 C781 1.334 . S
C781 H758 0.950 . S
C781 C780 1.334 . S
C781 C782 1.287 . S
C782 C781 1.287 . S
C782 C783 1.524 . S
C782 H801 0.913 . S
C783 H759 0.950 . S
C783 C782 1.524 . S
C783 C784 1.415 . S
C784 H760 0.950 . S
C784 C779 1.363 . S
C784 C783 1.415 . S
C785 H761 0.951 . S
C785 C786 1.366 . S
C785 C787 1.388 . S
C786 C785 1.366 . S
C786 C790 1.385 . S
C787 H762 0.951 . S
C787 C785 1.388 . S
C787 C788 1.366 . S
C788 C787 1.366 . S
C788 C789 1.414 . S
C788 C791 1.499 . S
C789 H763 0.950 . S
C789 C788 1.414 . S
C789 C790 1.374 . S
C790 H764 0.950 . S
C790 C786 1.385 . S
C790 C789 1.374 . S
C791 C788 1.499 . S
C791 C792 1.373 . S
C791 C793 1.389 . S
C792 H765 0.950 . S
C792 C778 1.377 . S
C792 C791 1.373 . S
C793 C777 1.377 . S
C793 C791 1.389 . S
C793 C794 1.524 . S
C794 C793 1.524 . S
C794 C795 1.397 . S
C794 C799 1.363 . S
C795 H766 0.950 . S
C795 C794 1.397 . S
C795 C796 1.334 . S
C796 H767 0.950 . S
C796 C795 1.334 . S
C796 C797 1.287 . S
C797 C796 1.287 . S
C797 C798 1.524 . S
C797 H800 0.999 . S
C798 H768 0.950 . S
C798 C797 1.524 . S
C798 C799 1.415 . S
C799 H769 0.950 . S
C799 C794 1.363 . S
C799 C798 1.415 . S
H800 C797 0.999 . S
H801 C782 0.913 . S
H802 C820 0.951 . S
H803 C822 0.951 . S
H804 C824 0.950 . S
H805 C825 0.950 . S
H806 C827 0.950 . S
H807 C830 0.950 . S
H808 C831 0.950 . S
H809 C833 0.950 . S
H810 C834 0.950 . S
H811 C835 0.951 . S
H812 C837 0.951 . S
H813 C839 0.950 . S
H814 C840 0.950 . S
H815 C842 0.950 . S
H816 C845 0.950 . S
H817 C846 0.950 . S
H818 C848 0.950 . S
H819 C849 0.950 . S
C820 H802 0.951 . S
C820 C821 1.366 . S
C820 C822 1.388 . S
C821 C820 1.366 . S
C821 C825 1.385 . S
C822 H803 0.951 . S
C822 C820 1.388 . S
C822 C823 1.366 . S
C823 C822 1.366 . S
C823 C824 1.414 . S
C823 C826 1.499 . S
C824 H804 0.950 . S
C824 C823 1.414 . S
C824 C825 1.374 . S
C825 H805 0.950 . S
C825 C821 1.385 . S
C825 C824 1.374 . S
C826 C823 1.499 . S
C826 C827 1.373 . S
C826 C828 1.389 . S
C827 H806 0.950 . S
C827 C826 1.373 . S
C827 C843 1.377 . S
C828 C826 1.389 . S
C828 C829 1.524 . S
C828 C842 1.377 . S
C829 C828 1.524 . S
C829 C830 1.397 . S
C829 C834 1.363 . S
C830 H807 0.950 . S
C830 C829 1.397 . S
C830 C831 1.334 . S
C831 H808 0.950 . S
C831 C830 1.334 . S
C831 C832 1.287 . S
C832 C831 1.287 . S
C832 C833 1.524 . S
C832 H851 0.913 . S
C833 H809 0.950 . S
C833 C832 1.524 . S
C833 C834 1.415 . S
C834 H810 0.950 . S
C834 C829 1.363 . S
C834 C833 1.415 . S
C835 H811 0.951 . S
C835 C836 1.366 . S
C835 C837 1.388 . S
C836 C835 1.366 . S
C836 C840 1.385 . S
C837 H812 0.951 . S
C837 C835 1.388 . S
C837 C838 1.366 . S
C838 C837 1.366 . S
C838 C839 1.414 . S
C838 C841 1.499 . S
C839 H813 0.950 . S
C839 C838 1.414 . S
C839 C840 1.374 . S
C840 H814 0.950 . S
C840 C836 1.385 . S
C840 C839 1.374 . S
C841 C838 1.499 . S
C841 C842 1.373 . S
C841 C843 1.389 . S
C842 H815 0.950 . S
C842 C828 1.377 . S
C842 C841 1.373 . S
C843 C827 1.377 . S
C843 C841 1.389 . S
C843 C844 1.524 . S
C844 C843 1.524 . S
C844 C845 1.397 . S
C844 C849 1.363 . S
C845 H816 0.950 . S
C845 C844 1.397 . S
C845 C846 1.334 . S
C846 H817 0.950 . S
C846 C845 1.334 . S
C846 C847 1.287 . S
C847 C846 1.287 . S
C847 C848 1.524 . S
C847 H850 0.999 . S
C848 H818 0.950 . S
C848 C847 1.524 . S
C848 C849 1.415 . S
C849 H819 0.950 . S
C849 C844 1.363 . S
C849 C848 1.415 . S
H850 C847 0.999 . S
H851 C832 0.913 . S
H852 C870 0.951 . S
H853 C872 0.951 . S
H854 C874 0.950 . S
H855 C875 0.950 . S
H856 C877 0.950 . S
H857 C880 0.950 . S
H858 C881 0.950 . S
H859 C883 0.950 . S
H860 C884 0.950 . S
H861 C885 0.951 . S
H862 C887 0.951 . S
H863 C889 0.950 . S
H864 C890 0.950 . S
H865 C892 0.950 . S
H866 C895 0.950 . S
H867 C896 0.950 . S
H868 C898 0.950 . S
H869 C899 0.950 . S
C870 H852 0.951 . S
C870 C871 1.366 . S
C870 C872 1.388 . S
C871 C870 1.366 . S
C871 C875 1.385 . S
C872 H853 0.951 . S
C872 C870 1.388 . S
C872 C873 1.366 . S
C873 C872 1.366 . S
C873 C874 1.414 . S
C873 C876 1.499 . S
C874 H854 0.950 . S
C874 C873 1.414 . S
C874 C875 1.374 . S
C875 H855 0.950 . S
C875 C871 1.385 . S
C875 C874 1.374 . S
C876 C873 1.499 . S
C876 C877 1.373 . S
C876 C878 1.389 . S
C877 H856 0.950 . S
C877 C876 1.373 . S
C877 C893 1.377 . S
C878 C876 1.389 . S
C878 C879 1.524 . S
C878 C892 1.377 . S
C879 C878 1.524 . S
C879 C880 1.397 . S
C879 C884 1.363 . S
C880 H857 0.950 . S
C880 C879 1.397 . S
C880 C881 1.334 . S
C881 H858 0.950 . S
C881 C880 1.334 . S
C881 C882 1.287 . S
C882 C881 1.287 . S
C882 C883 1.524 . S
C882 H901 0.913 . S
C883 H859 0.950 . S
C883 C882 1.524 . S
C883 C884 1.415 . S
C884 H860 0.950 . S
C884 C879 1.363 . S
C884 C883 1.415 . S
C885 H861 0.951 . S
C885 C886 1.366 . S
C885 C887 1.388 . S
C886 C885 1.366 . S
C886 C890 1.385 . S
C887 H862 0.951 . S
C887 C885 1.388 . S
C887 C888 1.366 . S
C888 C887 1.366 . S
C888 C889 1.414 . S
C888 C891 1.499 . S
C889 H863 0.950 . S
C889 C888 1.414 . S
C889 C890 1.374 . S
C890 H864 0.950 . S
C890 C886 1.385 . S
C890 C889 1.374 . S
C891 C888 1.499 . S
C891 C892 1.373 . S
C891 C893 1.389 . S
C892 H865 0.950 . S
C892 C878 1.377 . S
C892 C891 1.373 . S
C893 C877 1.377 . S
C893 C891 1.389 . S
C893 C894 1.524 . S
C894 C893 1.524 . S
C894 C895 1.397 . S
C894 C899 1.363 . S
C895 H866 0.950 . S
C895 C894 1.397 . S
C895 C896 1.334 . S
C896 H867 0.950 . S
C896 C895 1.334 . S
C896 C897 1.287 . S
C897 C896 1.287 . S
C897 C898 1.524 . S
C897 H900 0.999 . S
C898 H868 0.950 . S
C898 C897 1.524 . S
C898 C899 1.415 . S
C899 H869 0.950 . S
C899 C894 1.363 . S
C899 C898 1.415 . S
H900 C897 0.999 . S
H901 C882 0.913 . S
H902 C920 0.951 . S
H903 C922 0.951 . S
H904 C924 0.950 . S
H905 C925 0.950 . S
H906 C927 0.950 . S
H907 C930 0.950 . S
H908 C931 0.950 . S
H909 C933 0.950 . S
H910 C934 0.950 . S
H911 C935 0.951 . S
H912 C937 0.951 . S
H913 C939 0.950 . S
H914 C940 0.950 . S
H915 C942 0.950 . S
H916 C945 0.950 . S
H917 C946 0.950 . S
H918 C948 0.950 . S
H919 C949 0.950 . S
C920 H902 0.951 . S
C920 C921 1.366 . S
C920 C922 1.388 . S
C921 C920 1.366 . S
C921 C925 1.385 . S
C922 H903 0.951 . S
C922 C920 1.388 . S
C922 C923 1.366 . S
C923 C922 1.366 . S
C923 C924 1.414 . S
C923 C926 1.499 . S
C924 H904 0.950 . S
C924 C923 1.414 . S
C924 C925 1.374 . S
C925 H905 0.950 . S
C925 C921 1.385 . S
C925 C924 1.374 . S
C926 C923 1.499 . S
C926 C927 1.373 . S
C926 C928 1.389 . S
C927 H906 0.950 . S
C927 C926 1.373 . S
C927 C943 1.377 . S
C928 C926 1.389 . S
C928 C929 1.524 . S
C928 C942 1.377 . S
C929 C928 1.524 . S
C929 C930 1.397 . S
C929 C934 1.363 . S
C930 H907 0.950 . S
C930 C929 1.397 . S
C930 C931 1.334 . S
C931 H908 0.950 . S
C931 C930 1.334 . S
C931 C932 1.287 . S
C932 C931 1.287 . S
C932 C933 1.524 . S
C932 H951 0.913 . S
C933 H909 0.950 . S
C933 C932 1.524 . S
C933 C934 1.415 . S
C934 H910 0.950 . S
C934 C929 1.363 . S
C934 C933 1.415 . S
C935 H911 0.951 . S
C935 C936 1.366 . S
C935 C937 1.388 . S
C936 C935 1.366 . S
C936 C940 1.385 . S
C937 H912 0.951 . S
C937 C935 1.388 . S
C937 C938 1.366 . S
C938 C937 1.366 . S
C938 C939 1.414 . S
C938 C941 1.499 . S
C939 H913 0.950 . S
C939 C938 1.414 . S
C939 C940 1.374 . S
C940 H914 0.950 . S
C940 C936 1.385 . S
C940 C939 1.374 . S
C941 C938 1.499 . S
C941 C942 1.373 . S
C941 C943 1.389 . S
C942 H915 0.950 . S
C942 C928 1.377 . S
C942 C941 1.373 . S
C943 C927 1.377 . S
C943 C941 1.389 . S
C943 C944 1.524 . S
C944 C943 1.524 . S
C944 C945 1.397 . S
C944 C949 1.363 . S
C945 H916 0.950 . S
C945 C944 1.397 . S
C945 C946 1.334 . S
C946 H917 0.950 . S
C946 C945 1.334 . S
C946 C947 1.287 . S
C947 C946 1.287 . S
C947 C948 1.524 . S
C947 H950 0.999 . S
C948 H918 0.950 . S
C948 C947 1.524 . S
C948 C949 1.415 . S
C949 H919 0.950 . S
C949 C944 1.363 . S
C949 C948 1.415 . S
H950 C947 0.999 . S
H951 C932 0.913 . S
H952 C970 0.951 . S
H953 C972 0.951 . S
H954 C974 0.950 . S
H955 C975 0.950 . S
H956 C977 0.950 . S
H957 C980 0.950 . S
H958 C981 0.950 . S
H959 C983 0.950 . S
H960 C984 0.950 . S
H961 C985 0.951 . S
H962 C987 0.951 . S
H963 C989 0.950 . S
H964 C990 0.950 . S
H965 C992 0.950 . S
H966 C995 0.950 . S
H967 C996 0.950 . S
H968 C998 0.950 . S
H969 C999 0.950 . S
C970 H952 0.951 . S
C970 C971 1.366 . S
C970 C972 1.388 . S
C971 C970 1.366 . S
C971 C975 1.385 . S
C972 H953 0.951 . S
C972 C970 1.388 . S
C972 C973 1.366 . S
C973 C972 1.366 . S
C973 C974 1.414 . S
C973 C976 1.499 . S
C974 H954 0.950 . S
C974 C973 1.414 . S
C974 C975 1.374 . S
C975 H955 0.950 . S
C975 C971 1.385 . S
C975 C974 1.374 . S
C976 C973 1.499 . S
C976 C977 1.373 . S
C976 C978 1.389 . S
C977 H956 0.950 . S
C977 C976 1.373 . S
C977 C993 1.377 . S
C978 C976 1.389 . S
C978 C979 1.524 . S
C978 C992 1.377 . S
C979 C978 1.524 . S
C979 C980 1.397 . S
C979 C984 1.363 . S
C980 H957 0.950 . S
C980 C979 1.397 . S
C980 C981 1.334 . S
C981 H958 0.950 . S
C981 C980 1.334 . S
C981 C982 1.287 . S
C982 C981 1.287 . S
C982 C983 1.524 . S
C982 H1001 0.913 . S
C983 H959 0.950 . S
C983 C982 1.524 . S
C983 C984 1.415 . S
C984 H960 0.950 . S
C984 C979 1.363 . S
C984 C983 1.415 . S
C985 H961 0.951 . S
C985 C986 1.366 . S
C985 C987 1.388 . S
C986 C985 1.366 . S
C986 C990 1.385 . S
C987 H962 0.951 . S
C987 C985 1.388 . S
C987 C988 1.366 . S
C988 C987 1.366 . S
C988 C989 1.414 . S
C988 C991 1.499 . S
C989 H963 0.950 . S
C989 C988 1.414 . S
C989 C990 1.374 . S
C990 H964 0.950 . S
C990 C986 1.385 . S
C990 C989 1.374 . S
C991 C988 1.499 . S
C991 C992 1.373 . S
C991 C993 1.389 . S
C992 H965 0.950 . S
C992 C978 1.377 . S
C992 C991 1.373 . S
C993 C977 1.377 . S
C993 C991 1.389 . S
C993 C994 1.524 . S
C994 C993 1.524 . S
C994 C995 1.397 . S
C994 C999 1.363 . S
C995 H966 0.950 . S
C995 C994 1.397 . S
C995 C996 1.334 . S
C996 H967 0.950 . S
C996 C995 1.334 . S
C996 C997 1.287 . S
C997 C996 1.287 . S
C997 C998 1.524 . S
C997 H1000 0.999 . S
C998 H968 0.950 . S
C998 C997 1.524 . S
C998 C999 1.415 . S
C999 H969 0.950 . S
C999 C994 1.363 . S
C999 C998 1.415 . S
H1000 C997 0.999 . S
H1001 C982 0.913 . S
H1002 C1020 0.951 . S
H1003 C1022 0.951 . S
H1004 C1024 0.950 . S
H1005 C1025 0.950 . S
H1006 C1027 0.950 . S
H1007 C1030 0.950 . S
H1008 C1031 0.950 . S
H1009 C1033 0.950 . S
H1010 C1034 0.950 . S
H1011 C1035 0.951 . S
H1012 C1037 0.951 . S
H1013 C1039 0.950 . S
H1014 C1040 0.950 . S
H1015 C1042 0.950 . S
H1016 C1045 0.950 . S
H1017 C1046 0.950 . S
H1018 C1048 0.950 . S
H1019 C1049 0.950 . S
C1020 H1002 0.951 . S
C1020 C1021 1.366 . S
C1020 C1022 1.388 . S
C1021 C1020 1.366 . S
C1021 C1025 1.385 1_455 S
C1022 H1003 0.951 . S
C1022 C1020 1.388 . S
C1022 C1023 1.366 . S
C1023 C1022 1.366 . S
C1023 C1024 1.414 1_455 S
C1023 C1026 1.499 . S
C1024 H1004 0.950 . S
C1024 C1023 1.414 1_655 S
C1024 C1025 1.374 . S
C1025 H1005 0.950 . S
C1025 C1021 1.385 1_655 S
C1025 C1024 1.374 . S
C1026 C1023 1.499 . S
C1026 C1027 1.373 1_455 S
C1026 C1028 1.389 . S
C1027 H1006 0.950 . S
C1027 C1026 1.373 1_655 S
C1027 C1043 1.377 . S
C1028 C1026 1.389 . S
C1028 C1029 1.524 . S
C1028 C1042 1.377 . S
C1029 C1028 1.524 . S
C1029 C1030 1.397 . S
C1029 C1034 1.363 . S
C1030 H1007 0.950 . S
C1030 C1029 1.397 . S
C1030 C1031 1.334 . S
C1031 H1008 0.950 . S
C1031 C1030 1.334 . S
C1031 C1032 1.287 . S
C1032 C1031 1.287 . S
C1032 C1033 1.524 . S
C1032 H1051 0.913 . S
C1033 H1009 0.950 . S
C1033 C1032 1.524 . S
C1033 C1034 1.415 . S
C1034 H1010 0.950 . S
C1034 C1029 1.363 . S
C1034 C1033 1.415 . S
C1035 H1011 0.951 . S
C1035 C1036 1.366 . S
C1035 C1037 1.388 . S
C1036 C1035 1.366 . S
C1036 C1040 1.385 1_655 S
C1037 H1012 0.951 . S
C1037 C1035 1.388 . S
C1037 C1038 1.366 . S
C1038 C1037 1.366 . S
C1038 C1039 1.414 1_655 S
C1038 C1041 1.499 . S
C1039 H1013 0.950 . S
C1039 C1038 1.414 1_455 S
C1039 C1040 1.374 . S
C1040 H1014 0.950 . S
C1040 C1036 1.385 1_455 S
C1040 C1039 1.374 . S
C1041 C1038 1.499 . S
C1041 C1042 1.373 1_655 S
C1041 C1043 1.389 . S
C1042 H1015 0.950 . S
C1042 C1028 1.377 . S
C1042 C1041 1.373 1_455 S
C1043 C1027 1.377 . S
C1043 C1041 1.389 . S
C1043 C1044 1.524 . S
C1044 C1043 1.524 . S
C1044 C1045 1.397 . S
C1044 C1049 1.363 . S
C1045 H1016 0.950 . S
C1045 C1044 1.397 . S
C1045 C1046 1.334 . S
C1046 H1017 0.950 . S
C1046 C1045 1.334 . S
C1046 C1047 1.287 . S
C1047 C1046 1.287 . S
C1047 C1048 1.524 . S
C1047 H1050 0.999 . S
C1048 H1018 0.950 . S
C1048 C1047 1.524 . S
C1048 C1049 1.415 . S
C1049 H1019 0.950 . S
C1049 C1044 1.363 . S
C1049 C1048 1.415 . S
H1050 C1047 0.999 . S
H1051 C1032 0.913 . S
H1052 C1070 0.951 . S
H1053 C1072 0.951 . S
H1054 C1074 0.950 . S
H1055 C1075 0.950 . S
H1056 C1077 0.950 . S
H1057 C1080 0.950 . S
H1058 C1081 0.950 . S
H1059 C1083 0.950 . S
H1060 C1084 0.950 . S
H1061 C1085 0.951 . S
H1062 C1087 0.951 . S
H1063 C1089 0.950 . S
H1064 C1090 0.950 . S
H1065 C1092 0.950 . S
H1066 C1095 0.950 . S
H1067 C1096 0.950 . S
H1068 C1098 0.950 . S
H1069 C1099 0.950 . S
C1070 H1052 0.951 . S
C1070 C1071 1.366 . S
C1070 C1072 1.388 . S
C1071 C1070 1.366 . S
C1071 C1075 1.385 . S
C1072 H1053 0.951 . S
C1072 C1070 1.388 . S
C1072 C1073 1.366 . S
C1073 C1072 1.366 . S
C1073 C1074 1.414 . S
C1073 C1076 1.499 . S
C1074 H1054 0.950 . S
C1074 C1073 1.414 . S
C1074 C1075 1.374 . S
C1075 H1055 0.950 . S
C1075 C1071 1.385 . S
C1075 C1074 1.374 . S
C1076 C1073 1.499 . S
C1076 C1077 1.373 . S
C1076 C1078 1.389 . S
C1077 H1056 0.950 . S
C1077 C1076 1.373 . S
C1077 C1093 1.377 . S
C1078 C1076 1.389 . S
C1078 C1079 1.524 . S
C1078 C1092 1.377 . S
C1079 C1078 1.524 . S
C1079 C1080 1.397 . S
C1079 C1084 1.363 . S
C1080 H1057 0.950 . S
C1080 C1079 1.397 . S
C1080 C1081 1.334 . S
C1081 H1058 0.950 . S
C1081 C1080 1.334 . S
C1081 C1082 1.287 . S
C1082 C1081 1.287 . S
C1082 C1083 1.524 . S
C1082 H1101 0.913 . S
C1083 H1059 0.950 . S
C1083 C1082 1.524 . S
C1083 C1084 1.415 . S
C1084 H1060 0.950 . S
C1084 C1079 1.363 . S
C1084 C1083 1.415 . S
C1085 H1061 0.951 . S
C1085 C1086 1.366 . S
C1085 C1087 1.388 . S
C1086 C1085 1.366 . S
C1086 C1090 1.385 . S
C1087 H1062 0.951 . S
C1087 C1085 1.388 . S
C1087 C1088 1.366 . S
C1088 C1087 1.366 . S
C1088 C1089 1.414 . S
C1088 C1091 1.499 . S
C1089 H1063 0.950 . S
C1089 C1088 1.414 . S
C1089 C1090 1.374 . S
C1090 H1064 0.950 . S
C1090 C1086 1.385 . S
C1090 C1089 1.374 . S
C1091 C1088 1.499 . S
C1091 C1092 1.373 . S
C1091 C1093 1.389 . S
C1092 H1065 0.950 . S
C1092 C1078 1.377 . S
C1092 C1091 1.373 . S
C1093 C1077 1.377 . S
C1093 C1091 1.389 . S
C1093 C1094 1.524 . S
C1094 C1093 1.524 . S
C1094 C1095 1.397 . S
C1094 C1099 1.363 . S
C1095 H1066 0.950 . S
C1095 C1094 1.397 . S
C1095 C1096 1.334 . S
C1096 H1067 0.950 . S
C1096 C1095 1.334 . S
C1096 C1097 1.287 . S
C1097 C1096 1.287 . S
C1097 C1098 1.524 . S
C1097 H1100 0.999 . S
C1098 H1068 0.950 . S
C1098 C1097 1.524 . S
C1098 C1099 1.415 . S
C1099 H1069 0.950 . S
C1099 C1094 1.363 . S
C1099 C1098 1.415 . S
H1100 C1097 0.999 . S
H1101 C1082 0.913 . S
H1102 C1120 0.951 . S
H1103 C1122 0.951 . S
H1104 C1124 0.961 . S
H1105 C1125 0.950 1_565 S
H1106 C1127 0.950 . S
H1107 C1130 0.950 . S
H1108 C1131 0.950 . S
H1109 C1133 0.950 . S
H1110 C1134 0.950 . S
H1111 C1135 0.951 . S
H1112 C1137 0.951 . S
H1113 C1139 0.950 . S
H1114 C1140 0.950 . S
H1115 C1142 0.950 . S
H1116 C1145 0.950 . S
H1117 C1146 0.950 . S
H1118 C1148 0.950 . S
H1119 C1149 0.950 . S
C1120 H1102 0.951 . S
C1120 C1121 1.366 . S
C1120 C1122 1.388 . S
C1121 C1120 1.366 . S
C1121 C1125 1.385 . S
C1122 H1103 0.951 . S
C1122 C1120 1.388 . S
C1122 C1123 1.366 . S
C1123 C1122 1.366 . S
C1123 C1124 1.397 1_545 S
C1123 C1126 1.499 . S
C1124 H1104 0.961 . S
C1124 C1123 1.397 1_565 S
C1124 C1125 1.381 1_565 S
C1125 H1105 0.950 1_545 S
C1125 C1121 1.385 . S
C1125 C1124 1.381 1_545 S
C1126 C1123 1.499 . S
C1126 C1127 1.373 . S
C1126 C1128 1.389 1_545 S
C1127 H1106 0.950 . S
C1127 C1126 1.373 . S
C1127 C1143 1.377 . S
C1128 C1126 1.389 1_565 S
C1128 C1129 1.524 . S
C1128 C1142 1.377 . S
C1129 C1128 1.524 . S
C1129 C1130 1.397 . S
C1129 C1134 1.363 . S
C1130 H1107 0.950 . S
C1130 C1129 1.397 . S
C1130 C1131 1.334 . S
C1131 H1108 0.950 . S
C1131 C1130 1.334 . S
C1131 C1132 1.287 . S
C1132 C1131 1.287 . S
C1132 C1133 1.524 . S
C1132 H1151 0.913 . S
C1133 H1109 0.950 . S
C1133 C1132 1.524 . S
C1133 C1134 1.415 . S
C1134 H1110 0.950 . S
C1134 C1129 1.363 . S
C1134 C1133 1.415 . S
C1135 H1111 0.951 . S
C1135 C1136 1.366 . S
C1135 C1137 1.388 . S
C1136 C1135 1.366 . S
C1136 C1140 1.385 1_565 S
C1137 H1112 0.951 . S
C1137 C1135 1.388 . S
C1137 C1138 1.366 . S
C1138 C1137 1.366 . S
C1138 C1139 1.414 1_565 S
C1138 C1141 1.499 1_565 S
C1139 H1113 0.950 . S
C1139 C1138 1.414 1_545 S
C1139 C1140 1.374 . S
C1140 H1114 0.950 . S
C1140 C1136 1.385 1_545 S
C1140 C1139 1.374 . S
C1141 C1138 1.499 1_545 S
C1141 C1142 1.373 1_545 S
C1141 C1143 1.389 . S
C1142 H1115 0.950 . S
C1142 C1128 1.377 . S
C1142 C1141 1.373 1_565 S
C1143 C1127 1.377 . S
C1143 C1141 1.389 . S
C1143 C1144 1.524 . S
C1144 C1143 1.524 . S
C1144 C1145 1.397 . S
C1144 C1149 1.363 . S
C1145 H1116 0.950 . S
C1145 C1144 1.397 . S
C1145 C1146 1.334 . S
C1146 H1117 0.950 . S
C1146 C1145 1.334 . S
C1146 C1147 1.287 . S
C1147 C1146 1.287 . S
C1147 C1148 1.524 . S
C1147 H1150 0.999 . S
C1148 H1118 0.950 . S
C1148 C1147 1.524 . S
C1148 C1149 1.415 . S
C1149 H1119 0.950 . S
C1149 C1144 1.363 . S
C1149 C1148 1.415 . S
H1150 C1147 0.999 . S
H1151 C1132 0.913 . S
H1152 C1170 0.951 . S
H1153 C1172 0.951 . S
H1154 C1174 0.950 . S
H1155 C1175 0.950 1_545 S
H1156 C1177 0.950 . S
H1157 C1180 0.950 . S
H1158 C1181 0.950 . S
H1159 C1183 0.950 . S
H1160 C1184 0.950 . S
H1161 C1185 0.951 . S
H1162 C1187 0.951 . S
H1163 C1189 0.950 . S
H1164 C1190 0.950 . S
H1165 C1192 0.950 . S
H1166 C1195 0.950 . S
H1167 C1196 0.950 . S
H1168 C1198 0.950 . S
H1169 C1199 0.950 . S
C1170 H1152 0.951 . S
C1170 C1171 1.366 . S
C1170 C1172 1.388 . S
C1171 C1170 1.366 . S
C1171 C1175 1.385 . S
C1172 H1153 0.951 . S
C1172 C1170 1.388 . S
C1172 C1173 1.366 . S
C1173 C1172 1.366 . S
C1173 C1174 1.414 . S
C1173 C1176 1.499 . S
C1174 H1154 0.950 . S
C1174 C1173 1.414 . S
C1174 C1175 1.374 . S
C1175 H1155 0.950 1_565 S
C1175 C1171 1.385 . S
C1175 C1174 1.374 . S
C1176 C1173 1.499 . S
C1176 C1177 1.373 . S
C1176 C1178 1.389 1_554 S
C1177 H1156 0.950 . S
C1177 C1176 1.373 . S
C1177 C1193 1.377 . S
C1178 C1176 1.389 1_556 S
C1178 C1179 1.524 . S
C1178 C1192 1.377 . S
C1179 C1178 1.524 . S
C1179 C1180 1.397 . S
C1179 C1184 1.363 . S
C1180 H1157 0.950 . S
C1180 C1179 1.397 . S
C1180 C1181 1.334 . S
C1181 H1158 0.950 . S
C1181 C1180 1.334 . S
C1181 C1182 1.287 . S
C1182 C1181 1.287 . S
C1182 C1183 1.524 . S
C1182 H1201 0.913 . S
C1183 H1159 0.950 . S
C1183 C1182 1.524 . S
C1183 C1184 1.415 . S
C1184 H1160 0.950 . S
C1184 C1179 1.363 . S
C1184 C1183 1.415 . S
C1185 H1161 0.951 . S
C1185 C1186 1.366 . S
C1185 C1187 1.388 . S
C1186 C1185 1.366 . S
C1186 C1190 1.385 . S
C1187 H1162 0.951 . S
C1187 C1185 1.388 . S
C1187 C1188 1.366 . S
C1188 C1187 1.366 . S
C1188 C1189 1.414 . S
C1188 C1191 1.499 . S
C1189 H1163 0.950 . S
C1189 C1188 1.414 . S
C1189 C1190 1.374 . S
C1190 H1164 0.950 . S
C1190 C1186 1.385 . S
C1190 C1189 1.374 . S
C1191 C1188 1.499 . S
C1191 C1192 1.373 . S
C1191 C1193 1.389 1_556 S
C1192 H1165 0.950 . S
C1192 C1178 1.377 . S
C1192 C1191 1.373 . S
C1193 C1177 1.377 . S
C1193 C1191 1.389 1_554 S
C1193 C1194 1.524 . S
C1194 C1193 1.524 . S
C1194 C1195 1.397 . S
C1194 C1199 1.363 . S
C1195 H1166 0.950 . S
C1195 C1194 1.397 . S
C1195 C1196 1.334 . S
C1196 H1167 0.950 . S
C1196 C1195 1.334 . S
C1196 C1197 1.287 . S
C1197 C1196 1.287 . S
C1197 C1198 1.524 . S
C1197 H1200 0.999 . S
C1198 H1168 0.950 . S
C1198 C1197 1.524 . S
C1198 C1199 1.415 . S
C1199 H1169 0.950 . S
C1199 C1194 1.363 . S
C1199 C1198 1.415 . S
H1200 C1197 0.999 . S
H1201 C1182 0.913 . S
H1202 C1220 0.951 1_655 S
H1203 C1222 0.951 1_556 S
H1204 C1224 0.950 . S
H1205 C1225 0.950 . S
H1206 C1227 0.950 . S
H1207 C1230 0.950 1_554 S
H1208 C1231 0.950 1_655 S
H1209 C1233 0.950 . S
H1210 C1234 0.950 . S
H1211 C1235 0.951 . S
H1212 C1237 0.951 1_554 S
H1213 C1239 0.950 . S
H1214 C1240 0.950 . S
H1215 C1242 0.950 . S
H1216 C1245 0.950 1_556 S
H1217 C1246 0.950 . S
H1218 C1248 0.950 . S
H1219 C1249 0.950 . S
C1220 H1202 0.951 1_455 S
C1220 C1221 1.366 . S
C1220 C1222 1.388 . S
C1221 C1220 1.366 . S
C1221 C1225 1.385 . S
C1222 H1203 0.951 1_554 S
C1222 C1220 1.388 . S
C1222 C1223 1.366 . S
C1223 C1222 1.366 . S
C1223 C1224 1.414 . S
C1223 C1226 1.499 . S
C1224 H1204 0.950 . S
C1224 C1223 1.414 . S
C1224 C1225 1.374 . S
C1225 H1205 0.950 . S
C1225 C1221 1.385 . S
C1225 C1224 1.374 . S
C1226 C1223 1.499 . S
C1226 C1227 1.373 . S
C1226 C1228 1.389 1_554 S
C1227 H1206 0.950 . S
C1227 C1226 1.373 . S
C1227 C1243 1.377 . S
C1228 C1226 1.389 1_556 S
C1228 C1229 1.524 . S
C1228 C1242 1.377 . S
C1229 C1228 1.524 . S
C1229 C1230 1.397 . S
C1229 C1234 1.363 . S
C1230 H1207 0.950 1_556 S
C1230 C1229 1.397 . S
C1230 C1231 1.334 . S
C1231 H1208 0.950 1_455 S
C1231 C1230 1.334 . S
C1231 C1232 1.287 . S
C1232 C1231 1.287 . S
C1232 C1233 1.524 . S
C1232 H1251 0.913 1_455 S
C1233 H1209 0.950 . S
C1233 C1232 1.524 . S
C1233 C1234 1.415 . S
C1234 H1210 0.950 . S
C1234 C1229 1.363 . S
C1234 C1233 1.415 . S
C1235 H1211 0.951 . S
C1235 C1236 1.366 . S
C1235 C1237 1.388 . S
C1236 C1235 1.366 . S
C1236 C1240 1.385 . S
C1237 H1212 0.951 1_556 S
C1237 C1235 1.388 . S
C1237 C1238 1.366 . S
C1238 C1237 1.366 . S
C1238 C1239 1.414 . S
C1238 C1241 1.499 . S
C1239 H1213 0.950 . S
C1239 C1238 1.414 . S
C1239 C1240 1.374 . S
C1240 H1214 0.950 . S
C1240 C1236 1.385 . S
C1240 C1239 1.374 . S
C1241 C1238 1.499 . S
C1241 C1242 1.373 . S
C1241 C1243 1.389 1_556 S
C1242 H1215 0.950 . S
C1242 C1228 1.377 . S
C1242 C1241 1.373 . S
C1243 C1227 1.377 . S
C1243 C1241 1.389 1_554 S
C1243 C1244 1.524 . S
C1244 C1243 1.524 . S
C1244 C1245 1.397 . S
C1244 C1249 1.363 . S
C1245 H1216 0.950 1_554 S
C1245 C1244 1.397 . S
C1245 C1246 1.334 . S
C1246 H1217 0.950 . S
C1246 C1245 1.334 . S
C1246 C1247 1.287 . S
C1247 C1246 1.287 . S
C1247 C1248 1.524 . S
C1247 H1250 0.999 . S
C1248 H1218 0.950 . S
C1248 C1247 1.524 . S
C1248 C1249 1.415 . S
C1249 H1219 0.950 . S
C1249 C1244 1.363 . S
C1249 C1248 1.415 . S
H1250 C1247 0.999 . S
H1251 C1232 0.913 1_655 S
H1252 C1270 0.951 . S
H1253 C1272 0.951 . S
H1254 C1274 0.950 1_556 S
H1255 C1275 0.950 . S
H1256 C1277 0.950 . S
H1257 C1280 0.950 . S
H1258 C1281 0.950 . S
H1259 C1283 0.950 . S
H1260 C1284 0.950 . S
H1261 C1285 0.951 . S
H1262 C1287 0.951 . S
H1263 C1289 0.950 1_554 S
H1264 C1290 0.950 . S
H1265 C1292 0.950 . S
H1266 C1295 0.950 . S
H1267 C1296 0.950 . S
H1268 C1298 0.950 . S
H1269 C1299 0.950 . S
C1270 H1252 0.951 . S
C1270 C1271 1.366 . S
C1270 C1272 1.388 . S
C1271 C1270 1.366 . S
C1271 C1275 1.385 . S
C1272 H1253 0.951 . S
C1272 C1270 1.388 . S
C1272 C1273 1.366 . S
C1273 C1272 1.366 . S
C1273 C1274 1.414 . S
C1273 C1276 1.499 . S
C1274 H1254 0.950 1_554 S
C1274 C1273 1.414 . S
C1274 C1275 1.374 . S
C1275 H1255 0.950 . S
C1275 C1271 1.385 . S
C1275 C1274 1.374 . S
C1276 C1273 1.499 . S
C1276 C1277 1.373 1_554 S
C1276 C1278 1.389 . S
C1277 H1256 0.950 . S
C1277 C1276 1.373 1_556 S
C1277 C1293 1.377 . S
C1278 C1276 1.389 . S
C1278 C1279 1.524 . S
C1278 C1292 1.377 . S
C1279 C1278 1.524 . S
C1279 C1280 1.397 . S
C1279 C1284 1.363 . S
C1280 H1257 0.950 . S
C1280 C1279 1.397 . S
C1280 C1281 1.334 . S
C1281 H1258 0.950 . S
C1281 C1280 1.334 . S
C1281 C1282 1.287 . S
C1282 C1281 1.287 . S
C1282 C1283 1.524 . S
C1282 H1301 0.913 . S
C1283 H1259 0.950 . S
C1283 C1282 1.524 . S
C1283 C1284 1.415 . S
C1284 H1260 0.950 . S
C1284 C1279 1.363 . S
C1284 C1283 1.415 . S
C1285 H1261 0.951 . S
C1285 C1286 1.366 . S
C1285 C1287 1.388 . S
C1286 C1285 1.366 . S
C1286 C1290 1.385 . S
C1287 H1262 0.951 . S
C1287 C1285 1.388 . S
C1287 C1288 1.366 . S
C1288 C1287 1.366 . S
C1288 C1289 1.414 . S
C1288 C1291 1.499 . S
C1289 H1263 0.950 1_556 S
C1289 C1288 1.414 . S
C1289 C1290 1.374 . S
C1290 H1264 0.950 . S
C1290 C1286 1.385 . S
C1290 C1289 1.374 . S
C1291 C1288 1.499 . S
C1291 C1292 1.373 1_556 S
C1291 C1293 1.389 . S
C1292 H1265 0.950 . S
C1292 C1278 1.377 . S
C1292 C1291 1.373 1_554 S
C1293 C1277 1.377 . S
C1293 C1291 1.389 . S
C1293 C1294 1.524 . S
C1294 C1293 1.524 . S
C1294 C1295 1.397 . S
C1294 C1299 1.363 . S
C1295 H1266 0.950 . S
C1295 C1294 1.397 . S
C1295 C1296 1.334 . S
C1296 H1267 0.950 . S
C1296 C1295 1.334 . S
C1296 C1297 1.287 . S
C1297 C1296 1.287 . S
C1297 C1298 1.524 . S
C1297 H1300 0.999 . S
C1298 H1268 0.950 . S
C1298 C1297 1.524 . S
C1298 C1299 1.415 . S
C1299 H1269 0.950 . S
C1299 C1294 1.363 . S
C1299 C1298 1.415 . S
H1300 C1297 0.999 . S
H1301 C1282 0.913 . S
H1302 C1320 0.951 . S
H1303 C1322 0.951 . S
H1304 C1324 0.950 . S
H1305 C1325 0.950 . S
H1306 C1327 0.950 . S
H1307 C1330 0.950 . S
H1308 C1331 0.950 1_565 S
H1309 C1333 0.950 . S
H1310 C1334 0.943 1_556 S
H1311 C1335 0.951 . S
H1312 C1337 0.951 . S
H1313 C1339 0.950 . S
H1314 C1340 0.950 . S
H1315 C1342 0.950 . S
H1316 C1345 0.950 . S
H1317 C1346 0.950 . S
H1318 C1348 0.950 . S
H1319 C1349 0.950 . S
C1320 H1302 0.951 . S
C1320 C1321 1.366 . S
C1320 C1322 1.388 . S
C1321 C1320 1.366 . S
C1321 C1325 1.385 . S
C1322 H1303 0.951 . S
C1322 C1320 1.388 . S
C1322 C1323 1.366 . S
C1323 C1322 1.366 . S
C1323 C1324 1.414 . S
C1323 C1326 1.499 . S
C1324 H1304 0.950 . S
C1324 C1323 1.414 . S
C1324 C1325 1.374 . S
C1325 H1305 0.950 . S
C1325 C1321 1.385 . S
C1325 C1324 1.374 . S
C1326 C1323 1.499 . S
C1326 C1327 1.373 . S
C1326 C1328 1.389 1_556 S
C1327 H1306 0.950 . S
C1327 C1326 1.373 . S
C1327 C1343 1.377 . S
C1328 C1326 1.389 1_554 S
C1328 C1329 1.524 . S
C1328 C1342 1.377 . S
C1329 C1328 1.524 . S
C1329 C1330 1.397 . S
C1329 C1334 1.363 . S
C1330 H1307 0.950 . S
C1330 C1329 1.397 . S
C1330 C1331 1.334 . S
C1331 H1308 0.950 1_545 S
C1331 C1330 1.334 . S
C1331 C1332 1.287 . S
C1332 C1331 1.287 . S
C1332 C1333 1.524 . S
C1332 H1351 0.913 1_545 S
C1333 H1309 0.950 . S
C1333 C1332 1.524 . S
C1333 C1334 1.415 . S
C1334 H1310 0.943 1_554 S
C1334 C1329 1.363 . S
C1334 C1333 1.415 . S
C1335 H1311 0.951 . S
C1335 C1336 1.366 . S
C1335 C1337 1.388 . S
C1336 C1335 1.366 . S
C1336 C1340 1.385 . S
C1337 H1312 0.951 . S
C1337 C1335 1.388 . S
C1337 C1338 1.366 . S
C1338 C1337 1.366 . S
C1338 C1339 1.414 . S
C1338 C1341 1.499 . S
C1339 H1313 0.950 . S
C1339 C1338 1.414 . S
C1339 C1340 1.374 . S
C1340 H1314 0.950 . S
C1340 C1336 1.385 . S
C1340 C1339 1.374 . S
C1341 C1338 1.499 . S
C1341 C1342 1.373 . S
C1341 C1343 1.389 1_554 S
C1342 H1315 0.950 . S
C1342 C1328 1.377 . S
C1342 C1341 1.373 . S
C1343 C1327 1.377 . S
C1343 C1341 1.389 1_556 S
C1343 C1344 1.524 . S
C1344 C1343 1.524 . S
C1344 C1345 1.397 . S
C1344 C1349 1.363 . S
C1345 H1316 0.950 . S
C1345 C1344 1.397 . S
C1345 C1346 1.334 . S
C1346 H1317 0.950 . S
C1346 C1345 1.334 . S
C1346 C1347 1.287 . S
C1347 C1346 1.287 . S
C1347 C1348 1.524 . S
C1347 H1350 0.999 . S
C1348 H1318 0.950 . S
C1348 C1347 1.524 . S
C1348 C1349 1.415 . S
C1349 H1319 0.950 . S
C1349 C1344 1.363 . S
C1349 C1348 1.415 . S
H1350 C1347 0.999 . S
H1351 C1332 0.913 1_565 S
H1352 C1370 0.951 . S
H1353 C1372 0.951 . S
H1354 C1374 0.950 . S
H1355 C1375 0.950 . S
H1356 C1377 0.950 . S
H1357 C1380 0.950 . S
H1358 C1381 0.950 . S
H1359 C1383 0.950 . S
H1360 C1384 0.950 . S
H1361 C1385 0.951 1_455 S
H1362 C1387 0.951 . S
H1363 C1389 0.950 . S
H1364 C1390 0.950 . S
H1365 C1392 0.950 . S
H1366 C1395 0.950 . S
H1367 C1396 0.950 . S
H1368 C1398 0.950 . S
H1369 C1399 0.950 . S
C1370 H1352 0.951 . S
C1370 C1371 1.366 . S
C1370 C1372 1.388 . S
C1371 C1370 1.366 . S
C1371 C1375 1.385 . S
C1372 H1353 0.951 . S
C1372 C1370 1.388 . S
C1372 C1373 1.366 . S
C1373 C1372 1.366 . S
C1373 C1374 1.414 . S
C1373 C1376 1.499 . S
C1374 H1354 0.950 . S
C1374 C1373 1.414 . S
C1374 C1375 1.374 . S
C1375 H1355 0.950 . S
C1375 C1371 1.385 . S
C1375 C1374 1.374 . S
C1376 C1373 1.499 . S
C1376 C1377 1.373 1_554 S
C1376 C1378 1.389 . S
C1377 H1356 0.950 . S
C1377 C1376 1.373 1_556 S
C1377 C1393 1.377 . S
C1378 C1376 1.389 . S
C1378 C1379 1.524 . S
C1378 C1392 1.377 . S
C1379 C1378 1.524 . S
C1379 C1380 1.397 . S
C1379 C1384 1.363 . S
C1380 H1357 0.950 . S
C1380 C1379 1.397 . S
C1380 C1381 1.334 . S
C1381 H1358 0.950 . S
C1381 C1380 1.334 . S
C1381 C1382 1.287 . S
C1382 C1381 1.287 . S
C1382 C1383 1.524 . S
C1382 H1401 0.913 . S
C1383 H1359 0.950 . S
C1383 C1382 1.524 . S
C1383 C1384 1.415 . S
C1384 H1360 0.950 . S
C1384 C1379 1.363 . S
C1384 C1383 1.415 . S
C1385 H1361 0.951 1_655 S
C1385 C1386 1.366 . S
C1385 C1387 1.388 . S
C1386 C1385 1.366 . S
C1386 C1390 1.385 . S
C1387 H1362 0.951 . S
C1387 C1385 1.388 . S
C1387 C1388 1.366 . S
C1388 C1387 1.366 . S
C1388 C1389 1.414 . S
C1388 C1391 1.499 . S
C1389 H1363 0.950 . S
C1389 C1388 1.414 . S
C1389 C1390 1.374 . S
C1390 H1364 0.950 . S
C1390 C1386 1.385 . S
C1390 C1389 1.374 . S
C1391 C1388 1.499 . S
C1391 C1392 1.373 1_556 S
C1391 C1393 1.389 . S
C1392 H1365 0.950 . S
C1392 C1378 1.377 . S
C1392 C1391 1.373 1_554 S
C1393 C1377 1.377 . S
C1393 C1391 1.389 . S
C1393 C1394 1.524 . S
C1394 C1393 1.524 . S
C1394 C1395 1.397 . S
C1394 C1399 1.363 . S
C1395 H1366 0.950 . S
C1395 C1394 1.397 . S
C1395 C1396 1.334 . S
C1396 H1367 0.950 . S
C1396 C1395 1.334 . S
C1396 C1397 1.287 . S
C1397 C1396 1.287 . S
C1397 C1398 1.524 . S
C1397 H1400 0.999 . S
C1398 H1368 0.950 . S
C1398 C1397 1.524 . S
C1398 C1399 1.415 . S
C1399 H1369 0.950 . S
C1399 C1394 1.363 . S
C1399 C1398 1.415 . S
H1400 C1397 0.999 . S
H1401 C1382 0.913 . S
H1402 C1420 0.951 . S
H1403 C1422 0.949 . S
H1404 C1424 0.950 . S
H1405 C1425 0.950 . S
H1406 C1427 0.950 . S
H1407 C1430 0.950 . S
H1408 C1431 0.950 . S
H1409 C1433 0.950 . S
H1410 C1434 0.950 . S
H1411 C1435 0.951 . S
H1412 C1437 0.951 1_556 S
H1413 C1439 0.950 . S
H1414 C1440 0.950 . S
H1415 C1442 0.950 . S
H1416 C1445 0.950 . S
H1417 C1446 0.950 . S
H1418 C1448 0.950 . S
H1419 C1449 0.950 . S
C1420 H1402 0.951 . S
C1420 C1421 1.366 . S
C1420 C1422 1.388 . S
C1421 C1420 1.366 . S
C1421 C1425 1.385 . S
C1422 H1403 0.949 . S
C1422 C1420 1.388 . S
C1422 C1423 1.366 . S
C1423 C1422 1.366 . S
C1423 C1424 1.414 . S
C1423 C1426 1.499 . S
C1424 H1404 0.950 . S
C1424 C1423 1.414 . S
C1424 C1425 1.374 . S
C1425 H1405 0.950 . S
C1425 C1421 1.385 . S
C1425 C1424 1.374 . S
C1426 C1423 1.499 . S
C1426 C1427 1.373 . S
C1426 C1428 1.389 1_556 S
C1427 H1406 0.950 . S
C1427 C1426 1.373 . S
C1427 C1443 1.377 . S
C1428 C1426 1.389 1_554 S
C1428 C1429 1.524 . S
C1428 C1442 1.377 . S
C1429 C1428 1.524 . S
C1429 C1430 1.397 . S
C1429 C1434 1.363 . S
C1430 H1407 0.950 . S
C1430 C1429 1.397 . S
C1430 C1431 1.334 . S
C1431 H1408 0.950 . S
C1431 C1430 1.334 . S
C1431 C1432 1.287 . S
C1432 C1431 1.287 . S
C1432 C1433 1.524 . S
C1432 H1451 0.913 . S
C1433 H1409 0.950 . S
C1433 C1432 1.524 . S
C1433 C1434 1.415 . S
C1434 H1410 0.950 . S
C1434 C1429 1.363 . S
C1434 C1433 1.415 . S
C1435 H1411 0.951 . S
C1435 C1436 1.366 . S
C1435 C1437 1.388 . S
C1436 C1435 1.366 . S
C1436 C1440 1.385 . S
C1437 H1412 0.951 1_554 S
C1437 C1435 1.388 . S
C1437 C1438 1.366 . S
C1438 C1437 1.366 . S
C1438 C1439 1.414 . S
C1438 C1441 1.499 . S
C1439 H1413 0.950 . S
C1439 C1438 1.414 . S
C1439 C1440 1.374 . S
C1440 H1414 0.950 . S
C1440 C1436 1.385 . S
C1440 C1439 1.374 . S
C1441 C1438 1.499 . S
C1441 C1442 1.373 . S
C1441 C1443 1.389 1_554 S
C1442 H1415 0.950 . S
C1442 C1428 1.377 . S
C1442 C1441 1.373 . S
C1443 C1427 1.377 . S
C1443 C1441 1.389 1_556 S
C1443 C1444 1.524 . S
C1444 C1443 1.524 . S
C1444 C1445 1.397 . S
C1444 C1449 1.363 . S
C1445 H1416 0.950 . S
C1445 C1444 1.397 . S
C1445 C1446 1.334 . S
C1446 H1417 0.950 . S
C1446 C1445 1.334 . S
C1446 C1447 1.287 . S
C1447 C1446 1.287 . S
C1447 C1448 1.524 . S
C1447 H1450 0.999 . S
C1448 H1418 0.950 . S
C1448 C1447 1.524 . S
C1448 C1449 1.415 . S
C1449 H1419 0.950 . S
C1449 C1444 1.363 . S
C1449 C1448 1.415 . S
H1450 C1447 0.999 . S
H1451 C1432 0.913 . S
H1452 C1470 0.951 . S
H1453 C1472 0.951 . S
H1454 C1474 0.950 . S
H1455 C1475 0.950 . S
H1456 C1477 0.950 . S
H1457 C1480 0.950 . S
H1458 C1481 0.950 . S
H1459 C1483 0.950 . S
H1460 C1484 0.950 . S
H1461 C1485 0.951 . S
H1462 C1487 0.951 . S
H1463 C1489 0.950 . S
H1464 C1490 0.950 . S
H1465 C1492 0.950 . S
H1466 C1495 0.950 . S
H1467 C1496 0.950 . S
H1468 C1498 0.950 . S
H1469 C1499 0.950 . S
C1470 H1452 0.951 . S
C1470 C1471 1.366 . S
C1470 C1472 1.388 . S
C1471 C1470 1.366 . S
C1471 C1475 1.385 . S
C1472 H1453 0.951 . S
C1472 C1470 1.388 . S
C1472 C1473 1.366 . S
C1473 C1472 1.366 . S
C1473 C1474 1.414 . S
C1473 C1476 1.499 . S
C1474 H1454 0.950 . S
C1474 C1473 1.414 . S
C1474 C1475 1.374 . S
C1475 H1455 0.950 . S
C1475 C1471 1.385 . S
C1475 C1474 1.374 . S
C1476 C1473 1.499 . S
C1476 C1477 1.373 . S
C1476 C1478 1.389 . S
C1477 H1456 0.950 . S
C1477 C1476 1.373 . S
C1477 C1493 1.377 . S
C1478 C1476 1.389 . S
C1478 C1479 1.524 . S
C1478 C1492 1.377 . S
C1479 C1478 1.524 . S
C1479 C1480 1.397 . S
C1479 C1484 1.363 . S
C1480 H1457 0.950 . S
C1480 C1479 1.397 . S
C1480 C1481 1.334 . S
C1481 H1458 0.950 . S
C1481 C1480 1.334 . S
C1481 C1482 1.287 . S
C1482 C1481 1.287 . S
C1482 C1483 1.524 . S
C1482 H1501 0.913 . S
C1483 H1459 0.950 . S
C1483 C1482 1.524 . S
C1483 C1484 1.415 . S
C1484 H1460 0.950 . S
C1484 C1479 1.363 . S
C1484 C1483 1.415 . S
C1485 H1461 0.951 . S
C1485 C1486 1.366 . S
C1485 C1487 1.388 . S
C1486 C1485 1.366 . S
C1486 C1490 1.385 . S
C1487 H1462 0.951 . S
C1487 C1485 1.388 . S
C1487 C1488 1.366 . S
C1488 C1487 1.366 . S
C1488 C1489 1.414 . S
C1488 C1491 1.499 . S
C1489 H1463 0.950 . S
C1489 C1488 1.414 . S
C1489 C1490 1.374 . S
C1490 H1464 0.950 . S
C1490 C1486 1.385 . S
C1490 C1489 1.374 . S
C1491 C1488 1.499 . S
C1491 C1492 1.373 . S
C1491 C1493 1.389 . S
C1492 H1465 0.950 . S
C1492 C1478 1.377 . S
C1492 C1491 1.373 . S
C1493 C1477 1.377 . S
C1493 C1491 1.389 . S
C1493 C1494 1.524 . S
C1494 C1493 1.524 . S
C1494 C1495 1.397 . S
C1494 C1499 1.363 . S
C1495 H1466 0.950 . S
C1495 C1494 1.397 . S
C1495 C1496 1.334 . S
C1496 H1467 0.950 . S
C1496 C1495 1.334 . S
C1496 C1497 1.287 . S
C1497 C1496 1.287 . S
C1497 C1498 1.524 . S
C1497 H1500 0.999 . S
C1498 H1468 0.950 . S
C1498 C1497 1.524 . S
C1498 C1499 1.415 . S
C1499 H1469 0.950 . S
C1499 C1494 1.363 . S
C1499 C1498 1.415 . S
H1500 C1497 0.999 . S
H1501 C1482 0.913 . S
H1502 C1520 0.951 . S
H1503 C1522 0.951 . S
H1504 C1524 0.950 . S
H1505 C1525 0.950 . S
H1506 C1527 0.950 . S
H1507 C1530 0.950 . S
H1508 C1531 0.950 . S
H1509 C1533 0.950 . S
H1510 C1534 0.950 . S
H1511 C1535 0.951 . S
H1512 C1537 0.951 . S
H1513 C1539 0.950 . S
H1514 C1540 0.950 . S
H1515 C1542 0.950 . S
H1516 C1545 0.950 . S
H1517 C1546 0.950 . S
H1518 C1548 0.950 . S
H1519 C1549 0.950 . S
C1520 H1502 0.951 . S
C1520 C1521 1.366 . S
C1520 C1522 1.388 . S
C1521 C1520 1.366 . S
C1521 C1525 1.385 . S
C1522 H1503 0.951 . S
C1522 C1520 1.388 . S
C1522 C1523 1.366 . S
C1523 C1522 1.366 . S
C1523 C1524 1.414 . S
C1523 C1526 1.499 . S
C1524 H1504 0.950 . S
C1524 C1523 1.414 . S
C1524 C1525 1.374 . S
C1525 H1505 0.950 . S
C1525 C1521 1.385 . S
C1525 C1524 1.374 . S
C1526 C1523 1.499 . S
C1526 C1527 1.373 . S
C1526 C1528 1.389 . S
C1527 H1506 0.950 . S
C1527 C1526 1.373 . S
C1527 C1543 1.377 . S
C1528 C1526 1.389 . S
C1528 C1529 1.524 . S
C1528 C1542 1.377 . S
C1529 C1528 1.524 . S
C1529 C1530 1.397 . S
C1529 C1534 1.363 . S
C1530 H1507 0.950 . S
C1530 C1529 1.397 . S
C1530 C1531 1.334 . S
C1531 H1508 0.950 . S
C1531 C1530 1.334 . S
C1531 C1532 1.287 . S
C1532 C1531 1.287 . S
C1532 C1533 1.524 . S
C1532 H1551 0.913 . S
C1533 H1509 0.950 . S
C1533 C1532 1.524 . S
C1533 C1534 1.415 . S
C1534 H1510 0.950 . S
C1534 C1529 1.363 . S
C1534 C1533 1.415 . S
C1535 H1511 0.951 . S
C1535 C1536 1.366 . S
C1535 C1537 1.388 . S
C1536 C1535 1.366 . S
C1536 C1540 1.385 . S
C1537 H1512 0.951 . S
C1537 C1535 1.388 . S
C1537 C1538 1.366 . S
C1538 C1537 1.366 . S
C1538 C1539 1.414 . S
C1538 C1541 1.499 . S
C1539 H1513 0.950 . S
C1539 C1538 1.414 . S
C1539 C1540 1.374 . S
C1540 H1514 0.950 . S
C1540 C1536 1.385 . S
C1540 C1539 1.374 . S
C1541 C1538 1.499 . S
C1541 C1542 1.373 . S
C1541 C1543 1.389 . S
C1542 H1515 0.950 . S
C1542 C1528 1.377 . S
C1542 C1541 1.373 . S
C1543 C1527 1.377 . S
C1543 C1541 1.389 . S
C1543 C1544 1.524 . S
C1544 C1543 1.524 . S
C1544 C1545 1.397 . S
C1544 C1549 1.363 . S
C1545 H1516 0.950 . S
C1545 C1544 1.397 . S
C1545 C1546 1.334 . S
C1546 H1517 0.950 . S
C1546 C1545 1.334 . S
C1546 C1547 1.287 . S
C1547 C1546 1.287 . S
C1547 C1548 1.524 . S
C1547 H1550 0.999 . S
C1548 H1518 0.950 . S
C1548 C1547 1.524 . S
C1548 C1549 1.415 . S
C1549 H1519 0.950 . S
C1549 C1544 1.363 . S
C1549 C1548 1.415 . S
H1550 C1547 0.999 . S
H1551 C1532 0.913 . S
H1552 C1570 0.951 . S
H1553 C1572 0.951 . S
H1554 C1574 0.950 . S
H1555 C1575 0.950 . S
H1556 C1577 0.950 . S
H1557 C1580 0.950 . S
H1558 C1581 0.950 . S
H1559 C1583 0.950 . S
H1560 C1584 0.950 . S
H1561 C1585 0.951 . S
H1562 C1587 0.951 . S
H1563 C1589 0.950 . S
H1564 C1590 0.950 . S
H1565 C1592 0.950 . S
H1566 C1595 0.950 . S
H1567 C1596 0.950 . S
H1568 C1598 0.950 . S
H1569 C1599 0.950 . S
C1570 H1552 0.951 . S
C1570 C1571 1.366 . S
C1570 C1572 1.388 . S
C1571 C1570 1.366 . S
C1571 C1575 1.385 . S
C1572 H1553 0.951 . S
C1572 C1570 1.388 . S
C1572 C1573 1.366 . S
C1573 C1572 1.366 . S
C1573 C1574 1.414 . S
C1573 C1576 1.499 . S
C1574 H1554 0.950 . S
C1574 C1573 1.414 . S
C1574 C1575 1.374 . S
C1575 H1555 0.950 . S
C1575 C1571 1.385 . S
C1575 C1574 1.374 . S
C1576 C1573 1.499 . S
C1576 C1577 1.373 . S
C1576 C1578 1.389 . S
C1577 H1556 0.950 . S
C1577 C1576 1.373 . S
C1577 C1593 1.377 . S
C1578 C1576 1.389 . S
C1578 C1579 1.524 . S
C1578 C1592 1.377 . S
C1579 C1578 1.524 . S
C1579 C1580 1.397 . S
C1579 C1584 1.363 . S
C1580 H1557 0.950 . S
C1580 C1579 1.397 . S
C1580 C1581 1.334 . S
C1581 H1558 0.950 . S
C1581 C1580 1.334 . S
C1581 C1582 1.287 . S
C1582 C1581 1.287 . S
C1582 C1583 1.524 . S
C1582 H1601 0.913 . S
C1583 H1559 0.950 . S
C1583 C1582 1.524 . S
C1583 C1584 1.415 . S
C1584 H1560 0.950 . S
C1584 C1579 1.363 . S
C1584 C1583 1.415 . S
C1585 H1561 0.951 . S
C1585 C1586 1.366 . S
C1585 C1587 1.388 . S
C1586 C1585 1.366 . S
C1586 C1590 1.385 . S
C1587 H1562 0.951 . S
C1587 C1585 1.388 . S
C1587 C1588 1.366 . S
C1588 C1587 1.366 . S
C1588 C1589 1.414 . S
C1588 C1591 1.499 . S
C1589 H1563 0.950 . S
C1589 C1588 1.414 . S
C1589 C1590 1.374 . S
C1590 H1564 0.950 . S
C1590 C1586 1.385 . S
C1590 C1589 1.374 . S
C1591 C1588 1.499 . S
C1591 C1592 1.373 . S
C1591 C1593 1.389 . S
C1592 H1565 0.950 . S
C1592 C1578 1.377 . S
C1592 C1591 1.373 . S
C1593 C1577 1.377 . S
C1593 C1591 1.389 . S
C1593 C1594 1.524 . S
C1594 C1593 1.524 . S
C1594 C1595 1.397 . S
C1594 C1599 1.363 . S
C1595 H1566 0.950 . S
C1595 C1594 1.397 . S
C1595 C1596 1.334 . S
C1596 H1567 0.950 . S
C1596 C1595 1.334 . S
C1596 C1597 1.287 . S
C1597 C1596 1.287 . S
C1597 C1598 1.524 . S
C1597 H1600 0.999 . S
C1598 H1568 0.950 . S
C1598 C1597 1.524 . S
C1598 C1599 1.415 . S
C1599 H1569 0.950 . S
C1599 C1594 1.363 . S
C1599 C1598 1.415 . S
H1600 C1597 0.999 . S
H1601 C1582 0.913 . S
H1602 C1620 0.951 . S
H1603 C1622 0.951 . S
H1604 C1624 0.950 . S
H1605 C1625 0.950 . S
H1606 C1627 0.950 . S
H1607 C1630 0.950 . S
H1608 C1631 0.950 . S
H1609 C1633 0.950 . S
H1610 C1634 0.950 . S
H1611 C1635 0.951 . S
H1612 C1637 0.951 . S
H1613 C1639 0.950 . S
H1614 C1640 0.950 . S
H1615 C1642 0.950 . S
H1616 C1645 0.950 . S
H1617 C1646 0.950 . S
H1618 C1648 0.950 . S
H1619 C1649 0.950 . S
C1620 H1602 0.951 . S
C1620 C1621 1.366 . S
C1620 C1622 1.388 . S
C1621 C1620 1.366 . S
C1621 C1625 1.385 . S
C1622 H1603 0.951 . S
C1622 C1620 1.388 . S
C1622 C1623 1.366 . S
C1623 C1622 1.366 . S
C1623 C1624 1.414 . S
C1623 C1626 1.499 . S
C1624 H1604 0.950 . S
C1624 C1623 1.414 . S
C1624 C1625 1.374 . S
C1625 H1605 0.950 . S
C1625 C1621 1.385 . S
C1625 C1624 1.374 . S
C1626 C1623 1.499 . S
C1626 C1627 1.373 . S
C1626 C1628 1.389 . S
C1627 H1606 0.950 . S
C1627 C1626 1.373 . S
C1627 C1643 1.377 . S
C1628 C1626 1.389 . S
C1628 C1629 1.524 . S
C1628 C1642 1.377 . S
C1629 C1628 1.524 . S
C1629 C1630 1.397 . S
C1629 C1634 1.363 . S
C1630 H1607 0.950 . S
C1630 C1629 1.397 . S
C1630 C1631 1.334 . S
C1631 H1608 0.950 . S
C1631 C1630 1.334 . S
C1631 C1632 1.287 . S
C1632 C1631 1.287 . S
C1632 C1633 1.524 . S
C1632 H1651 0.913 . S
C1633 H1609 0.950 . S
C1633 C1632 1.524 . S
C1633 C1634 1.415 . S
C1634 H1610 0.950 . S
C1634 C1629 1.363 . S
C1634 C1633 1.415 . S
C1635 H1611 0.951 . S
C1635 C1636 1.366 . S
C1635 C1637 1.388 . S
C1636 C1635 1.366 . S
C1636 C1640 1.385 . S
C1637 H1612 0.951 . S
C1637 C1635 1.388 . S
C1637 C1638 1.366 . S
C1638 C1637 1.366 . S
C1638 C1639 1.414 . S
C1638 C1641 1.499 . S
C1639 H1613 0.950 . S
C1639 C1638 1.414 . S
C1639 C1640 1.374 . S
C1640 H1614 0.950 . S
C1640 C1636 1.385 . S
C1640 C1639 1.374 . S
C1641 C1638 1.499 . S
C1641 C1642 1.373 . S
C1641 C1643 1.389 . S
C1642 H1615 0.950 . S
C1642 C1628 1.377 . S
C1642 C1641 1.373 . S
C1643 C1627 1.377 . S
C1643 C1641 1.389 . S
C1643 C1644 1.524 . S
C1644 C1643 1.524 . S
C1644 C1645 1.397 . S
C1644 C1649 1.363 . S
C1645 H1616 0.950 . S
C1645 C1644 1.397 . S
C1645 C1646 1.334 . S
C1646 H1617 0.950 . S
C1646 C1645 1.334 . S
C1646 C1647 1.287 . S
C1647 C1646 1.287 . S
C1647 C1648 1.524 . S
C1647 H1650 0.999 . S
C1648 H1618 0.950 . S
C1648 C1647 1.524 . S
C1648 C1649 1.415 . S
C1649 H1619 0.950 . S
C1649 C1644 1.363 . S
C1649 C1648 1.415 . S
H1650 C1647 0.999 . S
H1651 C1632 0.913 . S
H1652 C1670 0.951 . S
H1653 C1672 0.951 . S
H1654 C1674 0.950 . S
H1655 C1675 0.950 . S
H1656 C1677 0.950 1_565 S
H1657 C1680 0.950 . S
H1658 C1681 0.950 . S
H1659 C1683 0.950 . S
H1660 C1684 0.950 . S
H1661 C1685 0.951 . S
H1662 C1687 0.951 . S
H1663 C1689 0.950 . S
H1664 C1690 0.950 . S
H1665 C1692 0.950 . S
H1666 C1695 0.950 . S
H1667 C1696 0.950 . S
H1668 C1698 0.950 . S
H1669 C1699 0.950 . S
C1670 H1652 0.951 . S
C1670 C1671 1.366 . S
C1670 C1672 1.388 . S
C1671 C1670 1.366 . S
C1671 C1675 1.385 . S
C1672 H1653 0.951 . S
C1672 C1670 1.388 . S
C1672 C1673 1.366 . S
C1673 C1672 1.366 . S
C1673 C1674 1.414 . S
C1673 C1676 1.499 . S
C1674 H1654 0.950 . S
C1674 C1673 1.414 . S
C1674 C1675 1.374 . S
C1675 H1655 0.950 . S
C1675 C1671 1.385 . S
C1675 C1674 1.374 . S
C1676 C1673 1.499 . S
C1676 C1677 1.373 . S
C1676 C1678 1.389 . S
C1677 H1656 0.950 1_545 S
C1677 C1676 1.373 . S
C1677 C1693 1.377 . S
C1678 C1676 1.389 . S
C1678 C1679 1.524 . S
C1678 C1692 1.377 . S
C1679 C1678 1.524 . S
C1679 C1680 1.397 . S
C1679 C1684 1.363 . S
C1680 H1657 0.950 . S
C1680 C1679 1.397 . S
C1680 C1681 1.334 . S
C1681 H1658 0.950 . S
C1681 C1680 1.334 . S
C1681 C1682 1.287 . S
C1682 C1681 1.287 . S
C1682 C1683 1.524 . S
C1682 H1701 0.913 . S
C1683 H1659 0.950 . S
C1683 C1682 1.524 . S
C1683 C1684 1.415 . S
C1684 H1660 0.950 . S
C1684 C1679 1.363 . S
C1684 C1683 1.415 . S
C1685 H1661 0.951 . S
C1685 C1686 1.366 . S
C1685 C1687 1.388 . S
C1686 C1685 1.366 . S
C1686 C1690 1.385 . S
C1687 H1662 0.951 . S
C1687 C1685 1.388 . S
C1687 C1688 1.366 . S
C1688 C1687 1.366 . S
C1688 C1689 1.414 . S
C1688 C1691 1.499 . S
C1689 H1663 0.950 . S
C1689 C1688 1.414 . S
C1689 C1690 1.374 . S
C1690 H1664 0.950 . S
C1690 C1686 1.385 . S
C1690 C1689 1.374 . S
C1691 C1688 1.499 . S
C1691 C1692 1.373 . S
C1691 C1693 1.389 . S
C1692 H1665 0.950 . S
C1692 C1678 1.377 . S
C1692 C1691 1.373 . S
C1693 C1677 1.377 . S
C1693 C1691 1.389 . S
C1693 C1694 1.524 1_545 S
C1694 C1693 1.524 1_565 S
C1694 C1695 1.397 . S
C1694 C1699 1.363 . S
C1695 H1666 0.950 . S
C1695 C1694 1.397 . S
C1695 C1696 1.334 . S
C1696 H1667 0.950 . S
C1696 C1695 1.334 . S
C1696 C1697 1.287 . S
C1697 C1696 1.287 . S
C1697 C1698 1.524 . S
C1697 H1700 0.999 . S
C1698 H1668 0.950 . S
C1698 C1697 1.524 . S
C1698 C1699 1.415 . S
C1699 H1669 0.950 . S
C1699 C1694 1.363 . S
C1699 C1698 1.415 . S
H1700 C1697 0.999 . S
H1701 C1682 0.913 . S
H1702 C1720 0.951 . S
H1703 C1722 0.951 . S
H1704 C1724 0.950 1_455 S
H1705 C1725 0.950 . S
H1706 C1727 0.950 . S
H1707 C1730 0.950 . S
H1708 C1731 0.950 . S
H1709 C1733 0.950 . S
H1710 C1734 0.950 . S
H1711 C1735 0.951 . S
H1712 C1737 0.951 . S
H1713 C1739 0.950 . S
H1714 C1740 0.950 . S
H1715 C1742 0.950 . S
H1716 C1745 0.950 1_655 S
H1717 C1746 0.950 . S
H1718 C1748 0.950 . S
H1719 C1749 0.950 . S
C1720 H1702 0.951 . S
C1720 C1721 1.366 . S
C1720 C1722 1.388 . S
C1721 C1720 1.366 . S
C1721 C1725 1.385 . S
C1722 H1703 0.951 . S
C1722 C1720 1.388 . S
C1722 C1723 1.366 . S
C1723 C1722 1.366 . S
C1723 C1724 1.414 . S
C1723 C1726 1.499 . S
C1724 H1704 0.950 1_655 S
C1724 C1723 1.414 . S
C1724 C1725 1.374 . S
C1725 H1705 0.950 . S
C1725 C1721 1.385 . S
C1725 C1724 1.374 . S
C1726 C1723 1.499 . S
C1726 C1727 1.373 . S
C1726 C1728 1.389 . S
C1727 H1706 0.950 . S
C1727 C1726 1.373 . S
C1727 C1743 1.377 . S
C1728 C1726 1.389 . S
C1728 C1729 1.524 . S
C1728 C1742 1.377 . S
C1729 C1728 1.524 . S
C1729 C1730 1.397 . S
C1729 C1734 1.363 . S
C1730 H1707 0.950 . S
C1730 C1729 1.397 . S
C1730 C1731 1.334 . S
C1731 H1708 0.950 . S
C1731 C1730 1.334 . S
C1731 C1732 1.287 . S
C1732 C1731 1.287 . S
C1732 C1733 1.524 . S
C1732 H1751 0.913 . S
C1733 H1709 0.950 . S
C1733 C1732 1.524 . S
C1733 C1734 1.415 . S
C1734 H1710 0.950 . S
C1734 C1729 1.363 . S
C1734 C1733 1.415 . S
C1735 H1711 0.951 . S
C1735 C1736 1.366 1_455 S
C1735 C1737 1.388 . S
C1736 C1735 1.366 1_655 S
C1736 C1740 1.385 . S
C1737 H1712 0.951 . S
C1737 C1735 1.388 . S
C1737 C1738 1.366 1_455 S
C1738 C1737 1.366 1_655 S
C1738 C1739 1.414 . S
C1738 C1741 1.499 . S
C1739 H1713 0.950 . S
C1739 C1738 1.414 . S
C1739 C1740 1.374 . S
C1740 H1714 0.950 . S
C1740 C1736 1.385 . S
C1740 C1739 1.374 . S
C1741 C1738 1.499 . S
C1741 C1742 1.373 . S
C1741 C1743 1.389 . S
C1742 H1715 0.950 . S
C1742 C1728 1.377 . S
C1742 C1741 1.373 . S
C1743 C1727 1.377 . S
C1743 C1741 1.389 . S
C1743 C1744 1.524 1_655 S
C1744 C1743 1.524 1_455 S
C1744 C1745 1.397 . S
C1744 C1749 1.363 . S
C1745 H1716 0.950 1_455 S
C1745 C1744 1.397 . S
C1745 C1746 1.334 . S
C1746 H1717 0.950 . S
C1746 C1745 1.334 . S
C1746 C1747 1.287 . S
C1747 C1746 1.287 . S
C1747 C1748 1.524 . S
C1747 H1750 0.999 . S
C1748 H1718 0.950 . S
C1748 C1747 1.524 . S
C1748 C1749 1.415 . S
C1749 H1719 0.950 . S
C1749 C1744 1.363 . S
C1749 C1748 1.415 . S
H1750 C1747 0.999 . S
H1751 C1732 0.913 . S
H1752 C1770 0.951 . S
H1753 C1772 0.951 . S
H1754 C1774 0.950 . S
H1755 C1775 0.950 . S
H1756 C1777 0.950 . S
H1757 C1780 0.950 . S
H1758 C1781 0.950 . S
H1759 C1783 0.950 . S
H1760 C1784 0.950 . S
H1761 C1785 0.951 . S
H1762 C1787 0.951 . S
H1763 C1789 0.950 . S
H1764 C1790 0.950 . S
H1765 C1792 0.950 . S
H1766 C1795 0.950 . S
H1767 C1796 0.950 . S
H1768 C1798 0.950 . S
H1769 C1799 0.950 . S
C1770 H1752 0.951 . S
C1770 C1771 1.366 . S
C1770 C1772 1.388 . S
C1771 C1770 1.366 . S
C1771 C1775 1.385 . S
C1772 H1753 0.951 . S
C1772 C1770 1.388 . S
C1772 C1773 1.366 . S
C1773 C1772 1.366 . S
C1773 C1774 1.414 . S
C1773 C1776 1.499 . S
C1774 H1754 0.950 . S
C1774 C1773 1.414 . S
C1774 C1775 1.374 . S
C1775 H1755 0.950 . S
C1775 C1771 1.385 . S
C1775 C1774 1.374 . S
C1776 C1773 1.499 . S
C1776 C1777 1.373 . S
C1776 C1778 1.389 . S
C1777 H1756 0.950 . S
C1777 C1776 1.373 . S
C1777 C1793 1.377 . S
C1778 C1776 1.389 . S
C1778 C1779 1.524 . S
C1778 C1792 1.377 . S
C1779 C1778 1.524 . S
C1779 C1780 1.397 . S
C1779 C1784 1.363 . S
C1780 H1757 0.950 . S
C1780 C1779 1.397 . S
C1780 C1781 1.334 . S
C1781 H1758 0.950 . S
C1781 C1780 1.334 . S
C1781 C1782 1.287 . S
C1782 C1781 1.287 . S
C1782 C1783 1.524 . S
C1782 H1801 0.913 . S
C1783 H1759 0.950 . S
C1783 C1782 1.524 . S
C1783 C1784 1.415 . S
C1784 H1760 0.950 . S
C1784 C1779 1.363 . S
C1784 C1783 1.415 . S
C1785 H1761 0.951 . S
C1785 C1786 1.366 . S
C1785 C1787 1.388 . S
C1786 C1785 1.366 . S
C1786 C1790 1.385 . S
C1787 H1762 0.951 . S
C1787 C1785 1.388 . S
C1787 C1788 1.366 . S
C1788 C1787 1.366 . S
C1788 C1789 1.414 . S
C1788 C1791 1.499 . S
C1789 H1763 0.950 . S
C1789 C1788 1.414 . S
C1789 C1790 1.374 . S
C1790 H1764 0.950 . S
C1790 C1786 1.385 . S
C1790 C1789 1.374 . S
C1791 C1788 1.499 . S
C1791 C1792 1.373 . S
C1791 C1793 1.389 . S
C1792 H1765 0.950 . S
C1792 C1778 1.377 . S
C1792 C1791 1.373 . S
C1793 C1777 1.377 . S
C1793 C1791 1.389 . S
C1793 C1794 1.524 . S
C1794 C1793 1.524 . S
C1794 C1795 1.397 . S
C1794 C1799 1.363 . S
C1795 H1766 0.950 . S
C1795 C1794 1.397 . S
C1795 C1796 1.334 . S
C1796 H1767 0.950 . S
C1796 C1795 1.334 . S
C1796 C1797 1.287 . S
C1797 C1796 1.287 . S
C1797 C1798 1.524 . S
C1797 H1800 0.999 . S
C1798 H1768 0.950 . S
C1798 C1797 1.524 . S
C1798 C1799 1.415 . S
C1799 H1769 0.950 . S
C1799 C1794 1.363 . S
C1799 C1798 1.415 . S
H1800 C1797 0.999 . S
H1801 C1782 0.913 . S
H1802 C1820 0.951 . S
H1803 C1822 0.951 . S
H1804 C1824 0.950 . S
H1805 C1825 0.950 . S
H1806 C1827 0.950 1_545 S
H1807 C1830 0.950 . S
H1808 C1831 0.950 . S
H1809 C1833 0.950 . S
H1810 C1834 0.950 . S
H1811 C1835 0.951 1_545 S
H1812 C1837 0.951 1_545 S
H1813 C1839 0.950 . S
H1814 C1840 0.950 . S
H1815 C1842 0.950 . S
H1816 C1845 0.950 . S
H1817 C1846 0.950 . S
H1818 C1848 0.950 . S
H1819 C1849 0.950 . S
C1820 H1802 0.951 . S
C1820 C1821 1.366 . S
C1820 C1822 1.388 . S
C1821 C1820 1.366 . S
C1821 C1825 1.385 1_565 S
C1822 H1803 0.951 . S
C1822 C1820 1.388 . S
C1822 C1823 1.366 . S
C1823 C1822 1.366 . S
C1823 C1824 1.414 1_565 S
C1823 C1826 1.499 . S
C1824 H1804 0.950 . S
C1824 C1823 1.414 1_545 S
C1824 C1825 1.374 . S
C1825 H1805 0.950 . S
C1825 C1821 1.385 1_545 S
C1825 C1824 1.374 . S
C1826 C1823 1.499 . S
C1826 C1827 1.373 . S
C1826 C1828 1.389 . S
C1827 H1806 0.950 1_565 S
C1827 C1826 1.373 . S
C1827 C1843 1.377 . S
C1828 C1826 1.389 . S
C1828 C1829 1.524 . S
C1828 C1842 1.377 . S
C1829 C1828 1.524 . S
C1829 C1830 1.397 . S
C1829 C1834 1.363 . S
C1830 H1807 0.950 . S
C1830 C1829 1.397 . S
C1830 C1831 1.334 . S
C1831 H1808 0.950 . S
C1831 C1830 1.334 . S
C1831 C1832 1.287 . S
C1832 C1831 1.287 . S
C1832 C1833 1.524 . S
C1832 H1851 0.913 . S
C1833 H1809 0.950 . S
C1833 C1832 1.524 . S
C1833 C1834 1.415 . S
C1834 H1810 0.950 . S
C1834 C1829 1.363 . S
C1834 C1833 1.415 . S
C1835 H1811 0.951 1_565 S
C1835 C1836 1.366 . S
C1835 C1837 1.388 . S
C1836 C1835 1.366 . S
C1836 C1840 1.385 . S
C1837 H1812 0.951 1_565 S
C1837 C1835 1.388 . S
C1837 C1838 1.366 . S
C1838 C1837 1.366 . S
C1838 C1839 1.414 . S
C1838 C1841 1.499 . S
C1839 H1813 0.950 . S
C1839 C1838 1.414 . S
C1839 C1840 1.374 . S
C1840 H1814 0.950 . S
C1840 C1836 1.385 . S
C1840 C1839 1.374 . S
C1841 C1838 1.499 . S
C1841 C1842 1.373 . S
C1841 C1843 1.389 . S
C1842 H1815 0.950 . S
C1842 C1828 1.377 . S
C1842 C1841 1.373 . S
C1843 C1827 1.377 . S
C1843 C1841 1.389 . S
C1843 C1844 1.524 1_565 S
C1844 C1843 1.524 1_545 S
C1844 C1845 1.397 1_545 S
C1844 C1849 1.363 . S
C1845 H1816 0.950 . S
C1845 C1844 1.397 1_565 S
C1845 C1846 1.334 . S
C1846 H1817 0.950 . S
C1846 C1845 1.334 . S
C1846 C1847 1.287 1_565 S
C1847 C1846 1.287 1_545 S
C1847 C1848 1.524 . S
C1847 H1850 0.999 . S
C1848 H1818 0.950 . S
C1848 C1847 1.524 . S
C1848 C1849 1.415 . S
C1849 H1819 0.950 . S
C1849 C1844 1.363 . S
C1849 C1848 1.415 . S
H1850 C1847 0.999 . S
H1851 C1832 0.913 . S
H1852 C1870 0.951 . S
H1853 C1872 0.951 . S
H1854 C1874 0.950 1_655 S
H1855 C1875 0.954 . S
H1856 C1877 0.950 . S
H1857 C1880 0.950 . S
H1858 C1881 0.950 . S
H1859 C1883 0.950 . S
H1860 C1884 0.950 . S
H1861 C1885 0.951 . S
H1862 C1887 0.951 . S
H1863 C1889 0.950 . S
H1864 C1890 0.950 . S
H1865 C1892 0.950 . S
H1866 C1895 0.950 . S
H1867 C1896 0.950 . S
H1868 C1898 0.950 . S
H1869 C1899 0.944 1_655 S
C1870 H1852 0.951 . S
C1870 C1871 1.366 . S
C1870 C1872 1.388 . S
C1871 C1870 1.366 . S
C1871 C1875 1.385 . S
C1872 H1853 0.951 . S
C1872 C1870 1.388 . S
C1872 C1873 1.366 . S
C1873 C1872 1.366 . S
C1873 C1874 1.414 . S
C1873 C1876 1.499 . S
C1874 H1854 0.950 1_455 S
C1874 C1873 1.414 . S
C1874 C1875 1.374 . S
C1875 H1855 0.954 . S
C1875 C1871 1.385 . S
C1875 C1874 1.374 . S
C1876 C1873 1.499 . S
C1876 C1877 1.373 . S
C1876 C1878 1.389 . S
C1877 H1856 0.950 . S
C1877 C1876 1.373 . S
C1877 C1893 1.377 . S
C1878 C1876 1.389 . S
C1878 C1879 1.524 . S
C1878 C1892 1.377 . S
C1879 C1878 1.524 . S
C1879 C1880 1.397 1_455 S
C1879 C1884 1.363 . S
C1880 H1857 0.950 . S
C1880 C1879 1.397 1_655 S
C1880 C1881 1.334 . S
C1881 H1858 0.950 . S
C1881 C1880 1.334 . S
C1881 C1882 1.287 . S
C1882 C1881 1.287 . S
C1882 C1883 1.524 1_655 S
C1882 H1901 0.913 . S
C1883 H1859 0.950 . S
C1883 C1882 1.524 1_455 S
C1883 C1884 1.415 . S
C1884 H1860 0.950 . S
C1884 C1879 1.363 . S
C1884 C1883 1.415 . S
C1885 H1861 0.951 . S
C1885 C1886 1.366 1_655 S
C1885 C1887 1.388 . S
C1886 C1885 1.366 1_455 S
C1886 C1890 1.385 . S
C1887 H1862 0.951 . S
C1887 C1885 1.388 . S
C1887 C1888 1.366 1_655 S
C1888 C1887 1.366 1_455 S
C1888 C1889 1.414 . S
C1888 C1891 1.499 . S
C1889 H1863 0.950 . S
C1889 C1888 1.414 . S
C1889 C1890 1.374 . S
C1890 H1864 0.950 . S
C1890 C1886 1.385 . S
C1890 C1889 1.374 . S
C1891 C1888 1.499 . S
C1891 C1892 1.373 . S
C1891 C1893 1.389 . S
C1892 H1865 0.950 . S
C1892 C1878 1.377 . S
C1892 C1891 1.373 . S
C1893 C1877 1.377 . S
C1893 C1891 1.389 . S
C1893 C1894 1.524 . S
C1894 C1893 1.524 . S
C1894 C1895 1.397 . S
C1894 C1899 1.363 . S
C1895 H1866 0.950 . S
C1895 C1894 1.397 . S
C1895 C1896 1.334 . S
C1896 H1867 0.950 . S
C1896 C1895 1.334 . S
C1896 C1897 1.287 . S
C1897 C1896 1.287 . S
C1897 C1898 1.524 . S
C1897 H1900 0.999 . S
C1898 H1868 0.950 . S
C1898 C1897 1.524 . S
C1898 C1899 1.415 . S
C1899 H1869 0.944 1_455 S
C1899 C1894 1.363 . S
C1899 C1898 1.415 . S
H1900 C1897 0.999 . S
H1901 C1882 0.913 . S
H1902 C1920 0.951 . S
H1903 C1922 0.951 . S
H1904 C1924 0.950 . S
H1905 C1925 0.950 . S
H1906 C1927 0.950 . S
H1907 C1930 0.950 . S
H1908 C1931 0.950 . S
H1909 C1933 0.950 . S
H1910 C1934 0.950 . S
H1911 C1935 0.951 . S
H1912 C1937 0.951 . S
H1913 C1939 0.950 . S
H1914 C1940 0.950 . S
H1915 C1942 0.950 . S
H1916 C1945 0.950 . S
H1917 C1946 0.950 . S
H1918 C1948 0.950 . S
H1919 C1949 0.950 . S
C1920 H1902 0.951 . S
C1920 C1921 1.366 . S
C1920 C1922 1.388 . S
C1921 C1920 1.366 . S
C1921 C1925 1.385 . S
C1922 H1903 0.951 . S
C1922 C1920 1.388 . S
C1922 C1923 1.366 . S
C1923 C1922 1.366 . S
C1923 C1924 1.414 . S
C1923 C1926 1.499 . S
C1924 H1904 0.950 . S
C1924 C1923 1.414 . S
C1924 C1925 1.374 . S
C1925 H1905 0.950 . S
C1925 C1921 1.385 . S
C1925 C1924 1.374 . S
C1926 C1923 1.499 . S
C1926 C1927 1.373 . S
C1926 C1928 1.389 . S
C1927 H1906 0.950 . S
C1927 C1926 1.373 . S
C1927 C1943 1.377 . S
C1928 C1926 1.389 . S
C1928 C1929 1.524 . S
C1928 C1942 1.377 . S
C1929 C1928 1.524 . S
C1929 C1930 1.397 . S
C1929 C1934 1.363 . S
C1930 H1907 0.950 . S
C1930 C1929 1.397 . S
C1930 C1931 1.334 . S
C1931 H1908 0.950 . S
C1931 C1930 1.334 . S
C1931 C1932 1.287 . S
C1932 C1931 1.287 . S
C1932 C1933 1.524 . S
C1932 H1951 0.913 . S
C1933 H1909 0.950 . S
C1933 C1932 1.524 . S
C1933 C1934 1.415 . S
C1934 H1910 0.950 . S
C1934 C1929 1.363 . S
C1934 C1933 1.415 . S
C1935 H1911 0.951 . S
C1935 C1936 1.366 . S
C1935 C1937 1.388 . S
C1936 C1935 1.366 . S
C1936 C1940 1.385 . S
C1937 H1912 0.951 . S
C1937 C1935 1.388 . S
C1937 C1938 1.366 . S
C1938 C1937 1.366 . S
C1938 C1939 1.414 . S
C1938 C1941 1.499 . S
C1939 H1913 0.950 . S
C1939 C1938 1.414 . S
C1939 C1940 1.374 . S
C1940 H1914 0.950 . S
C1940 C1936 1.385 . S
C1940 C1939 1.374 . S
C1941 C1938 1.499 . S
C1941 C1942 1.373 . S
C1941 C1943 1.389 . S
C1942 H1915 0.950 . S
C1942 C1928 1.377 . S
C1942 C1941 1.373 . S
C1943 C1927 1.377 . S
C1943 C1941 1.389 . S
C1943 C1944 1.524 . S
C1944 C1943 1.524 . S
C1944 C1945 1.397 . S
C1944 C1949 1.363 . S
C1945 H1916 0.950 . S
C1945 C1944 1.397 . S
C1945 C1946 1.334 . S
C1946 H1917 0.950 . S
C1946 C1945 1.334 . S
C1946 C1947 1.287 . S
C1947 C1946 1.287 . S
C1947 C1948 1.524 . S
C1947 H1950 0.999 . S
C1948 H1918 0.950 . S
C1948 C1947 1.524 . S
C1948 C1949 1.415 . S
C1949 H1919 0.950 . S
C1949 C1944 1.363 . S
C1949 C1948 1.415 . S
H1950 C1947 0.999 . S
H1951 C1932 0.913 . S
H1952 C1970 0.951 . S
H1953 C1972 0.951 . S
H1954 C1974 0.950 . S
H1955 C1975 0.950 . S
H1956 C1977 0.950 . S
H1957 C1980 0.950 . S
H1958 C1981 0.950 . S
H1959 C1983 0.950 . S
H1960 C1984 0.950 . S
H1961 C1985 0.951 . S
H1962 C1987 0.951 . S
H1963 C1989 0.950 . S
H1964 C1990 0.950 . S
H1965 C1992 0.950 . S
H1966 C1995 0.950 . S
H1967 C1996 0.950 . S
H1968 C1998 0.950 . S
H1969 C1999 0.950 . S
C1970 H1952 0.951 . S
C1970 C1971 1.366 . S
C1970 C1972 1.388 . S
C1971 C1970 1.366 . S
C1971 C1975 1.385 . S
C1972 H1953 0.951 . S
C1972 C1970 1.388 . S
C1972 C1973 1.366 . S
C1973 C1972 1.366 . S
C1973 C1974 1.414 . S
C1973 C1976 1.499 . S
C1974 H1954 0.950 . S
C1974 C1973 1.414 . S
C1974 C1975 1.374 . S
C1975 H1955 0.950 . S
C1975 C1971 1.385 . S
C1975 C1974 1.374 . S
C1976 C1973 1.499 . S
C1976 C1977 1.373 . S
C1976 C1978 1.389 . S
C1977 H1956 0.950 . S
C1977 C1976 1.373 . S
C1977 C1993 1.377 . S
C1978 C1976 1.389 . S
C1978 C1979 1.524 . S
C1978 C1992 1.377 . S
C1979 C1978 1.524 . S
C1979 C1980 1.397 . S
C1979 C1984 1.363 . S
C1980 H1957 0.950 . S
C1980 C1979 1.397 . S
C1980 C1981 1.334 . S
C1981 H1958 0.950 . S
C1981 C1980 1.334 . S
C1981 C1982 1.287 . S
C1982 C1981 1.287 . S
C1982 C1983 1.524 . S
C1982 H2001 0.913 . S
C1983 H1959 0.950 . S
C1983 C1982 1.524 . S
C1983 C1984 1.415 . S
C1984 H1960 0.950 . S
C1984 C1979 1.363 . S
C1984 C1983 1.415 . S
C1985 H1961 0.951 . S
C1985 C1986 1.366 . S
C1985 C1987 1.388 . S
C1986 C1985 1.366 . S
C1986 C1990 1.385 . S
C1987 H1962 0.951 . S
C1987 C1985 1.388 . S
C1987 C1988 1.366 . S
C1988 C1987 1.366 . S
C1988 C1989 1.414 . S
C1988 C1991 1.499 . S
C1989 H1963 0.950 . S
C1989 C1988 1.414 . S
C1989 C1990 1.374 . S
C1990 H1964 0.950 . S
C1990 C1986 1.385 . S
C1990 C1989 1.374 . S
C1991 C1988 1.499 . S
C1991 C1992 1.373 . S
C1991 C1993 1.389 . S
C1992 H1965 0.950 . S
C1992 C1978 1.377 . S
C1992 C1991 1.373 . S
C1993 C1977 1.377 . S
C1993 C1991 1.389 . S
C1993 C1994 1.524 . S
C1994 C1993 1.524 . S
C1994 C1995 1.397 . S
C1994 C1999 1.363 . S
C1995 H1966 0.950 . S
C1995 C1994 1.397 . S
C1995 C1996 1.334 . S
C1996 H1967 0.950 . S
C1996 C1995 1.334 . S
C1996 C1997 1.287 . S
C1997 C1996 1.287 . S
C1997 C1998 1.524 . S
C1997 H2000 0.999 . S
C1998 H1968 0.950 . S
C1998 C1997 1.524 . S
C1998 C1999 1.415 . S
C1999 H1969 0.950 . S
C1999 C1994 1.363 . S
C1999 C1998 1.415 . S
H2000 C1997 0.999 . S
H2001 C1982 0.913 . S
H2002 C2020 0.951 . S
H2003 C2022 0.951 . S
H2004 C2024 0.950 . S
H2005 C2025 0.950 . S
H2006 C2027 0.950 . S
H2007 C2030 0.950 . S
H2008 C2031 0.950 . S
H2009 C2033 0.950 . S
H2010 C2034 0.950 . S
H2011 C2035 0.951 . S
H2012 C2037 0.951 . S
H2013 C2039 0.950 . S
H2014 C2040 0.950 . S
H2015 C2042 0.950 . S
H2016 C2045 0.950 . S
H2017 C2046 0.950 . S
H2018 C2048 0.950 . S
H2019 C2049 0.950 . S
C2020 H2002 0.951 . S
C2020 C2021 1.366 . S
C2020 C2022 1.388 . S
C2021 C2020 1.366 . S
C2021 C2025 1.385 . S
C2022 H2003 0.951 . S
C2022 C2020 1.388 . S
C2022 C2023 1.366 . S
C2023 C2022 1.366 . S
C2023 C2024 1.414 . S
C2023 C2026 1.499 . S
C2024 H2004 0.950 . S
C2024 C2023 1.414 . S
C2024 C2025 1.374 . S
C2025 H2005 0.950 . S
C2025 C2021 1.385 . S
C2025 C2024 1.374 . S
C2026 C2023 1.499 . S
C2026 C2027 1.373 . S
C2026 C2028 1.389 . S
C2027 H2006 0.950 . S
C2027 C2026 1.373 . S
C2027 C2043 1.377 . S
C2028 C2026 1.389 . S
C2028 C2029 1.524 . S
C2028 C2042 1.377 . S
C2029 C2028 1.524 . S
C2029 C2030 1.397 . S
C2029 C2034 1.363 . S
C2030 H2007 0.950 . S
C2030 C2029 1.397 . S
C2030 C2031 1.334 . S
C2031 H2008 0.950 . S
C2031 C2030 1.334 . S
C2031 C2032 1.287 . S
C2032 C2031 1.287 . S
C2032 C2033 1.524 . S
C2032 H2051 0.913 . S
C2033 H2009 0.950 . S
C2033 C2032 1.524 . S
C2033 C2034 1.415 . S
C2034 H2010 0.950 . S
C2034 C2029 1.363 . S
C2034 C2033 1.415 . S
C2035 H2011 0.951 . S
C2035 C2036 1.366 . S
C2035 C2037 1.388 . S
C2036 C2035 1.366 . S
C2036 C2040 1.385 . S
C2037 H2012 0.951 . S
C2037 C2035 1.388 . S
C2037 C2038 1.366 . S
C2038 C2037 1.366 . S
C2038 C2039 1.414 . S
C2038 C2041 1.499 . S
C2039 H2013 0.950 . S
C2039 C2038 1.414 . S
C2039 C2040 1.374 . S
C2040 H2014 0.950 . S
C2040 C2036 1.385 . S
C2040 C2039 1.374 . S
C2041 C2038 1.499 . S
C2041 C2042 1.373 . S
C2041 C2043 1.389 . S
C2042 H2015 0.950 . S
C2042 C2028 1.377 . S
C2042 C2041 1.373 . S
C2043 C2027 1.377 . S
C2043 C2041 1.389 . S
C2043 C2044 1.524 . S
C2044 C2043 1.524 . S
C2044 C2045 1.397 . S
C2044 C2049 1.363 . S
C2045 H2016 0.950 . S
C2045 C2044 1.397 . S
C2045 C2046 1.334 . S
C2046 H2017 0.950 . S
C2046 C2045 1.334 . S
C2046 C2047 1.287 . S
C2047 C2046 1.287 . S
C2047 C2048 1.524 . S
C2047 H2050 0.999 . S
C2048 H2018 0.950 . S
C2048 C2047 1.524 . S
C2048 C2049 1.415 . S
C2049 H2019 0.950 . S
C2049 C2044 1.363 . S
C2049 C2048 1.415 . S
H2050 C2047 0.999 . S
H2051 C2032 0.913 . S
C271 C8 2.233 . S
C286 C45 2.247 . S
C321 C17 2.197 . S
C336 C59 2.199 . S
C371 C73 2.164 . S
C386 C36 2.152 . S
C421 C92 2.226 . S
C436 C129 2.236 . S
C471 C101 2.197 . S
C486 C143 2.199 . S
C521 C157 2.158 1_455 S
C536 C120 2.145 . S
C571 C213 2.239 . S
C586 C176 2.220 . S
C621 C227 2.199 . S
C636 C185 2.197 . S
C671 C241 2.159 . S
C686 C204 2.146 . S
C721 C3 1.665 . S
C736 C134 1.673 . S
C771 C22 1.631 . S
C786 C148 1.629 . S
C821 C162 1.630 . S
C836 C31 1.619 . S
C871 C50 1.672 . S
C886 C171 1.665 . S
C921 C64 1.630 . S
C936 C190 1.632 . S
C971 C78 1.630 . S
C986 C199 1.620 . S
C1021 C87 1.668 . S
C1036 C218 1.678 . S
C1071 C106 1.636 . S
C1086 C232 1.635 . S
C1121 C246 1.626 . S
C1136 C115 1.613 . S
C1171 C7 0.309 . S
C1186 C63 0.262 . S
C1221 C23 0.270 . S
C1236 C77 0.273 . S
C1271 C35 0.288 . S
C1286 C49 0.271 . S
C1321 C51 0.307 . S
C1336 C21 0.315 . S
C1371 C37 0.324 . S
C1386 C65 0.317 . S
C1421 C79 0.327 . S
C1436 C9 0.313 . S
C1471 C91 0.318 . S
C1486 C147 0.269 . S
C1521 C161 0.275 . S
C1536 C107 0.275 . S
C1571 C133 0.273 . S
C1586 C119 0.294 . S
C1621 C105 0.313 . S
C1636 C135 0.304 . S
C1671 C149 0.322 . S
C1686 C121 0.326 . S
C1721 C163 0.325 . S
C1736 C93 0.311 . S
C1771 C231 0.256 . S
C1786 C175 0.307 . S
C1821 C245 0.271 . S
C1836 C191 0.266 . S
C1871 C203 0.285 . S
C1886 C217 0.272 . S
C1921 C189 0.320 . S
C1936 C219 0.315 . S
C1971 C205 0.325 . S
C1986 C233 0.320 . S
C2021 C177 0.315 . S
C2036 C247 0.333 . S
