# Generated by pormake.
# Topology gis, (4)-cn, num edge types: 1
# Building blocks:
#     Node 0, Type 0, BuildingBlock: UXUYUI_clean_sbu_0, # of connection points: 4
#     Node 1, Type 0, BuildingBlock: UXUYUI_clean_sbu_0, # of connection points: 4
#     Node 2, Type 0, BuildingBlock: UXUYUI_clean_sbu_0, # of connection points: 4
#     Node 3, Type 0, BuildingBlock: UXUYUI_clean_sbu_0, # of connection points: 4
#     Node 4, Type 0, BuildingBlock: UXUYUI_clean_sbu_0, # of connection points: 4
#     Node 5, Type 0, BuildingBlock: UXUYUI_clean_sbu_0, # of connection points: 4
#     Node 6, Type 0, BuildingBlock: UXUYUI_clean_sbu_0, # of connection points: 4
#     Node 7, Type 0, BuildingBlock: UXUYUI_clean_sbu_0, # of connection points: 4
#     Node 8, Type 0, BuildingBlock: UXUYUI_clean_sbu_0, # of connection points: 4
#     Node 9, Type 0, BuildingBlock: UXUYUI_clean_sbu_0, # of connection points: 4
#     Node 10, Type 0, BuildingBlock: UXUYUI_clean_sbu_0, # of connection points: 4
#     Node 11, Type 0, BuildingBlock: UXUYUI_clean_sbu_0, # of connection points: 4
#     Node 12, Type 0, BuildingBlock: UXUYUI_clean_sbu_0, # of connection points: 4
#     Node 13, Type 0, BuildingBlock: UXUYUI_clean_sbu_0, # of connection points: 4
#     Node 14, Type 0, BuildingBlock: UXUYUI_clean_sbu_0, # of connection points: 4
#     Node 15, Type 0, BuildingBlock: UXUYUI_clean_sbu_0, # of connection points: 4
#     Edge 16, Type (0, 0), BuildingBlock: OJICUG_clean_linker_0, # of connection points: 2
#     Edge 17, Type (0, 0), BuildingBlock: OJICUG_clean_linker_0, # of connection points: 2
#     Edge 18, Type (0, 0), BuildingBlock: OJICUG_clean_linker_0, # of connection points: 2
#     Edge 19, Type (0, 0), BuildingBlock: OJICUG_clean_linker_0, # of connection points: 2
#     Edge 20, Type (0, 0), BuildingBlock: OJICUG_clean_linker_0, # of connection points: 2
#     Edge 21, Type (0, 0), BuildingBlock: OJICUG_clean_linker_0, # of connection points: 2
#     Edge 22, Type (0, 0), BuildingBlock: OJICUG_clean_linker_0, # of connection points: 2
#     Edge 23, Type (0, 0), BuildingBlock: OJICUG_clean_linker_0, # of connection points: 2
#     Edge 24, Type (0, 0), BuildingBlock: OJICUG_clean_linker_0, # of connection points: 2
#     Edge 25, Type (0, 0), BuildingBlock: OJICUG_clean_linker_0, # of connection points: 2
#     Edge 26, Type (0, 0), BuildingBlock: OJICUG_clean_linker_0, # of connection points: 2
#     Edge 27, Type (0, 0), BuildingBlock: OJICUG_clean_linker_0, # of connection points: 2
#     Edge 28, Type (0, 0), BuildingBlock: OJICUG_clean_linker_0, # of connection points: 2
#     Edge 29, Type (0, 0), BuildingBlock: OJICUG_clean_linker_0, # of connection points: 2
#     Edge 30, Type (0, 0), BuildingBlock: OJICUG_clean_linker_0, # of connection points: 2
#     Edge 31, Type (0, 0), BuildingBlock: OJICUG_clean_linker_0, # of connection points: 2
#     Edge 32, Type (0, 0), BuildingBlock: OJICUG_clean_linker_0, # of connection points: 2
#     Edge 33, Type (0, 0), BuildingBlock: OJICUG_clean_linker_0, # of connection points: 2
#     Edge 34, Type (0, 0), BuildingBlock: OJICUG_clean_linker_0, # of connection points: 2
#     Edge 35, Type (0, 0), BuildingBlock: OJICUG_clean_linker_0, # of connection points: 2
#     Edge 36, Type (0, 0), BuildingBlock: OJICUG_clean_linker_0, # of connection points: 2
#     Edge 37, Type (0, 0), BuildingBlock: OJICUG_clean_linker_0, # of connection points: 2
#     Edge 38, Type (0, 0), BuildingBlock: OJICUG_clean_linker_0, # of connection points: 2
#     Edge 39, Type (0, 0), BuildingBlock: OJICUG_clean_linker_0, # of connection points: 2
#     Edge 40, Type (0, 0), BuildingBlock: OJICUG_clean_linker_0, # of connection points: 2
#     Edge 41, Type (0, 0), BuildingBlock: OJICUG_clean_linker_0, # of connection points: 2
#     Edge 42, Type (0, 0), BuildingBlock: OJICUG_clean_linker_0, # of connection points: 2
#     Edge 43, Type (0, 0), BuildingBlock: OJICUG_clean_linker_0, # of connection points: 2
#     Edge 44, Type (0, 0), BuildingBlock: OJICUG_clean_linker_0, # of connection points: 2
#     Edge 45, Type (0, 0), BuildingBlock: OJICUG_clean_linker_0, # of connection points: 2
#     Edge 46, Type (0, 0), BuildingBlock: OJICUG_clean_linker_0, # of connection points: 2
#     Edge 47, Type (0, 0), BuildingBlock: OJICUG_clean_linker_0, # of connection points: 2
# Relax obj value: 0.245
# Max RMSD: 0.177
# Mean RMSD: 0.176
data_MOF--net-gis--node1-UXUYUI_clean_sbu_0--edge1-OJICUG_clean_linker_0
_symmetry_space_group_name_H-M    P1
_symmetry_Int_Tables_number       1
_symmetry_cell_setting            triclinic
loop_
_symmetry_equiv_pos_as_xyz
'x, y, z'
_cell_length_a     55.161766
_cell_length_b     55.161002
_cell_length_c     58.784421
_cell_angle_alpha  89.988693
_cell_angle_beta   89.993255
_cell_angle_gamma 90.001165
loop_
_atom_site_label
_atom_site_type_symbol
_atom_site_fract_x
_atom_site_fract_y
_atom_site_fract_z
_atom_type_partial_charge
Li0 Li 0.17203 0.61243 0.12002 0.0
Li1 Li 0.17943 0.57594 0.14104 0.0
Li2 Li 0.17672 0.57456 0.10046 0.0
Li3 Li 0.14114 0.58151 0.12263 0.0
C4 C 0.21869 0.60171 0.10478 0.0
N5 N 0.25339 0.62193 0.07664 0.0
C6 C 0.2433 0.5975 0.10884 0.0
C7 C 0.21176 0.61629 0.08645 0.0
C8 C 0.26056 0.60785 0.0944 0.0
C9 C 0.22956 0.62632 0.07241 0.0
C10 C 0.16148 0.61531 0.16574 0.0
C11 C 0.15094 0.63883 0.19888 0.0
N12 N 0.17483 0.64366 0.20241 0.0
C13 C 0.18593 0.62051 0.16969 0.0
C14 C 0.14383 0.62453 0.18043 0.0
C15 C 0.1923 0.63487 0.18833 0.0
C16 C 0.15677 0.65923 0.11078 0.0
N17 N 0.1761 0.64655 0.1187 0.0
C18 C 0.19868 0.68308 0.12402 0.0
C19 C 0.19685 0.65785 0.1253 0.0
C20 C 0.17899 0.69666 0.11579 0.0
C21 C 0.15783 0.6844 0.10911 0.0
H22 H 0.14045 0.6497 0.10586 0.0
H23 H 0.21198 0.6473 0.13152 0.0
C24 C 0.21914 0.55582 0.16321 0.0
N25 N 0.19588 0.56305 0.16657 0.0
C26 C 0.23357 0.54927 0.18167 0.0
C27 C 0.19934 0.55629 0.20654 0.0
C28 C 0.18562 0.56292 0.18761 0.0
C29 C 0.22381 0.55002 0.20371 0.0
H30 H 0.2267 0.55601 0.14624 0.0
H31 H 0.16714 0.56898 0.18984 0.0
C32 C 0.13719 0.59343 0.07721 0.0
N33 N 0.10823 0.58128 0.04059 0.0
C34 C 0.13091 0.56923 0.0733 0.0
C35 C 0.12876 0.61143 0.06248 0.0
C36 C 0.11626 0.56346 0.0547 0.0
C37 C 0.11413 0.60493 0.04407 0.0
C38 C 0.15169 0.53473 0.13679 0.0
C39 C 0.15439 0.51006 0.13201 0.0
C40 C 0.13881 0.54188 0.15615 0.0
C41 C 0.14425 0.49294 0.14672 0.0
C42 C 0.12894 0.52422 0.17044 0.0
N43 N 0.13185 0.50032 0.16548 0.0
C44 C 0.19251 0.53506 0.07466 0.0
C45 C 0.18916 0.57163 0.05372 0.0
C46 C 0.19717 0.52207 0.05478 0.0
N47 N 0.18806 0.55924 0.07368 0.0
C48 C 0.19415 0.55945 0.03349 0.0
C49 C 0.19746 0.53418 0.03373 0.0
H50 H 0.19136 0.5257 0.09077 0.0
H51 H 0.1851 0.59078 0.0533 0.0
C52 C 0.09448 0.5983 0.12892 0.0
N53 N 0.10702 0.5778 0.12395 0.0
C54 C 0.06923 0.59809 0.12905 0.0
C55 C 0.07022 0.55549 0.1193 0.0
C56 C 0.09551 0.55659 0.11915 0.0
C57 C 0.0568 0.57652 0.12408 0.0
H58 H 0.1042 0.61492 0.13247 0.0
H59 H 0.10592 0.54064 0.11483 0.0
O60 O 0.20167 0.59176 0.11894 0.0
O61 O 0.15465 0.60125 0.14767 0.0
O62 O 0.15163 0.59964 0.09523 0.0
O63 O 0.16158 0.55161 0.12243 0.0
H64 H 0.24903 0.58639 0.12302 0.0
H65 H 0.19285 0.61992 0.08307 0.0
H66 H 0.27967 0.60472 0.09735 0.0
H67 H 0.22441 0.63762 0.05817 0.0
H68 H 0.13747 0.64608 0.21039 0.0
H69 H 0.19987 0.6135 0.15858 0.0
H70 H 0.12483 0.62065 0.17759 0.0
H71 H 0.21115 0.639 0.19159 0.0
H72 H 0.21536 0.69183 0.1292 0.0
H73 H 0.14209 0.6942 0.10305 0.0
H74 H 0.25235 0.54438 0.17884 0.0
H75 H 0.19128 0.55738 0.22332 0.0
H76 H 0.13733 0.555 0.08441 0.0
H77 H 0.13352 0.63025 0.06524 0.0
H78 H 0.11128 0.5448 0.05147 0.0
H79 H 0.10747 0.61869 0.03254 0.0
H80 H 0.16421 0.50416 0.11706 0.0
H81 H 0.13628 0.56082 0.16011 0.0
H82 H 0.14623 0.47379 0.14322 0.0
H83 H 0.11894 0.52952 0.18547 0.0
H84 H 0.19924 0.50259 0.05586 0.0
H85 H 0.19459 0.56965 0.01776 0.0
H86 H 0.05951 0.61462 0.13301 0.0
H87 H 0.06125 0.5386 0.11515 0.0
Li88 Li 0.63471 0.9188 0.36529 0.0
Li89 Li 0.66917 0.92782 0.38851 0.0
Li90 Li 0.6738 0.92381 0.34827 0.0
Li91 Li 0.66585 0.88872 0.37104 0.0
C92 C 0.6453 0.96492 0.3492 0.0
N93 N 0.62639 0.99755 0.31823 0.0
C94 C 0.64786 0.98984 0.35277 0.0
C95 C 0.63303 0.95661 0.32991 0.0
C96 C 0.6382 0.00604 0.33691 0.0
C97 C 0.62363 0.97339 0.31445 0.0
C98 C 0.62853 0.90988 0.4111 0.0
C99 C 0.60274 0.89998 0.4429 0.0
N100 N 0.59717 0.92387 0.44533 0.0
C101 C 0.62257 0.93433 0.41392 0.0
C102 C 0.61856 0.89256 0.4257 0.0
C103 C 0.60668 0.94103 0.43132 0.0
C104 C 0.58877 0.90177 0.35498 0.0
N105 N 0.60066 0.92198 0.36197 0.0
C106 C 0.56332 0.94354 0.36577 0.0
C107 C 0.58858 0.94275 0.36718 0.0
C108 C 0.55047 0.92275 0.359 0.0
C109 C 0.56357 0.90176 0.3533 0.0
H110 H 0.59892 0.88552 0.35104 0.0
H111 H 0.59851 0.95854 0.37283 0.0
C112 C 0.68614 0.96883 0.41105 0.0
N113 N 0.67975 0.94532 0.41435 0.0
C114 C 0.6915 0.98363 0.4296 0.0
C115 C 0.68487 0.94933 0.45449 0.0
C116 C 0.67933 0.93527 0.43547 0.0
C117 C 0.69051 0.97394 0.45165 0.0
H118 H 0.68636 0.97625 0.39402 0.0
H119 H 0.67383 0.91661 0.43766 0.0
C120 C 0.65785 0.88278 0.3251 0.0
N121 N 0.67372 0.85255 0.2907 0.0
C122 C 0.68256 0.87773 0.32268 0.0
C123 C 0.64123 0.87247 0.31 0.0
C124 C 0.69022 0.86241 0.30519 0.0
C125 C 0.64961 0.85722 0.29272 0.0
C126 C 0.71134 0.90089 0.38771 0.0
C127 C 0.73619 0.90436 0.38436 0.0
C128 C 0.70331 0.88815 0.40684 0.0
C129 C 0.75258 0.89511 0.40026 0.0
C130 C 0.72027 0.87919 0.42236 0.0
N131 N 0.74435 0.88284 0.41878 0.0
C132 C 0.71462 0.94209 0.32629 0.0
C133 C 0.68155 0.93456 0.30148 0.0
C134 C 0.72961 0.94755 0.3079 0.0
N135 N 0.69128 0.93522 0.32272 0.0
C136 C 0.69581 0.94016 0.28261 0.0
C137 C 0.72032 0.94612 0.28572 0.0
H138 H 0.72179 0.94249 0.3434 0.0
H139 H 0.66304 0.92867 0.29908 0.0
C140 C 0.65063 0.84211 0.38129 0.0
N141 N 0.67034 0.85482 0.37431 0.0
C142 C 0.65185 0.81699 0.38359 0.0
C143 C 0.69371 0.81849 0.37143 0.0
C144 C 0.6917 0.84364 0.36944 0.0
C145 C 0.67358 0.80484 0.37854 0.0
H146 H 0.63384 0.85153 0.38481 0.0
H147 H 0.7071 0.85421 0.36386 0.0
O148 O 0.65468 0.94894 0.36471 0.0
O149 O 0.64405 0.90275 0.39422 0.0
O150 O 0.64978 0.89778 0.34203 0.0
O151 O 0.69517 0.90984 0.37215 0.0
H152 H 0.6572 0.99661 0.36766 0.0
H153 H 0.63068 0.93745 0.32687 0.0
H154 H 0.64007 0.02537 0.33946 0.0
H155 H 0.61411 0.96719 0.29945 0.0
H156 H 0.59489 0.88676 0.45433 0.0
H157 H 0.63013 0.94804 0.40286 0.0
H158 H 0.62304 0.87356 0.42377 0.0
H159 H 0.60193 0.95989 0.4337 0.0
H160 H 0.55393 0.96 0.37057 0.0
H161 H 0.55445 0.88544 0.34769 0.0
H162 H 0.69588 0.00254 0.4268 0.0
H163 H 0.68359 0.94135 0.47129 0.0
H164 H 0.69573 0.88559 0.33411 0.0
H165 H 0.62205 0.87624 0.31161 0.0
H166 H 0.70928 0.85837 0.30313 0.0
H167 H 0.63694 0.84912 0.28091 0.0
H168 H 0.74276 0.91405 0.36959 0.0
H169 H 0.68421 0.88508 0.40971 0.0
H170 H 0.77186 0.89769 0.39787 0.0
H171 H 0.71427 0.86932 0.43723 0.0
H172 H 0.74843 0.95217 0.31091 0.0
H173 H 0.68813 0.93853 0.26572 0.0
H174 H 0.63578 0.80714 0.38875 0.0
H175 H 0.71084 0.80984 0.36752 0.0
Li176 Li 0.32307 0.42373 0.6015 0.0
Li177 Li 0.3588 0.41408 0.62287 0.0
Li178 Li 0.32729 0.38413 0.61765 0.0
Li179 Li 0.32041 0.4183 0.64184 0.0
C180 C 0.36264 0.4068 0.57666 0.0
N181 N 0.39206 0.42232 0.54151 0.0
C182 C 0.36863 0.43133 0.57461 0.0
C183 C 0.37159 0.39018 0.56082 0.0
C184 C 0.38353 0.43882 0.55673 0.0
C185 C 0.38645 0.39838 0.54317 0.0
C186 C 0.34853 0.45977 0.64076 0.0
C187 C 0.37227 0.46767 0.67442 0.0
N188 N 0.36857 0.49186 0.6716 0.0
C189 C 0.34503 0.48472 0.63817 0.0
C190 C 0.36231 0.45118 0.65901 0.0
C191 C 0.35528 0.50064 0.65395 0.0
C192 C 0.30528 0.46551 0.5805 0.0
N193 N 0.31141 0.44204 0.57653 0.0
C194 C 0.3054 0.44716 0.53661 0.0
C195 C 0.31117 0.43255 0.55519 0.0
C196 C 0.30016 0.47178 0.5401 0.0
C197 C 0.29967 0.48086 0.5624 0.0
H198 H 0.30558 0.47248 0.59768 0.0
H199 H 0.31647 0.41392 0.55245 0.0
C200 C 0.40552 0.39722 0.63087 0.0
N201 N 0.393 0.41747 0.62503 0.0
C202 C 0.43071 0.39793 0.63276 0.0
C203 C 0.42965 0.44038 0.62253 0.0
C204 C 0.40446 0.43882 0.62079 0.0
C205 C 0.44313 0.41974 0.6286 0.0
H206 H 0.39588 0.38045 0.63391 0.0
H207 H 0.39406 0.45466 0.61608 0.0
C208 C 0.28106 0.39673 0.60326 0.0
N209 N 0.24678 0.37969 0.5729 0.0
C210 C 0.25637 0.40008 0.60759 0.0
C211 C 0.28828 0.38461 0.58349 0.0
C212 C 0.23933 0.39136 0.59203 0.0
C213 C 0.27069 0.37616 0.56836 0.0
C214 C 0.33812 0.37661 0.663 0.0
C215 C 0.31365 0.37141 0.66685 0.0
C216 C 0.35582 0.36576 0.6766 0.0
C217 C 0.30731 0.35539 0.68426 0.0
C218 C 0.34876 0.34982 0.69384 0.0
N219 N 0.32485 0.34501 0.69728 0.0
C220 C 0.34132 0.33754 0.60522 0.0
C221 C 0.30127 0.33933 0.61981 0.0
C222 C 0.33959 0.31247 0.60263 0.0
N223 N 0.32237 0.35034 0.61376 0.0
C224 C 0.29878 0.31425 0.6176 0.0
C225 C 0.31817 0.30049 0.60902 0.0
H226 H 0.35792 0.34682 0.60075 0.0
H227 H 0.28647 0.34996 0.62656 0.0
C228 C 0.28057 0.43425 0.66714 0.0
N229 N 0.30445 0.42854 0.66873 0.0
C230 C 0.26711 0.43909 0.68671 0.0
C231 C 0.30349 0.43352 0.70904 0.0
C232 C 0.3161 0.42831 0.68909 0.0
C233 C 0.27847 0.43837 0.70813 0.0
H234 H 0.27179 0.4342 0.6507 0.0
H235 H 0.33501 0.42331 0.68997 0.0
O236 O 0.348 0.39892 0.59395 0.0
O237 O 0.33864 0.44406 0.6253 0.0
O238 O 0.29788 0.40517 0.61846 0.0
O239 O 0.34488 0.39229 0.6461 0.0
H240 H 0.36181 0.44451 0.58661 0.0
H241 H 0.36706 0.37113 0.56214 0.0
H242 H 0.38829 0.45775 0.55494 0.0
H243 H 0.3935 0.38571 0.53079 0.0
H244 H 0.38296 0.46123 0.68862 0.0
H245 H 0.33453 0.49173 0.62408 0.0
H246 H 0.3654 0.43199 0.66128 0.0
H247 H 0.35269 0.51998 0.65214 0.0
H248 H 0.30632 0.43962 0.51962 0.0
H249 H 0.29562 0.49974 0.56571 0.0
H250 H 0.44037 0.38147 0.63707 0.0
H251 H 0.43844 0.45761 0.61937 0.0
H252 H 0.2504 0.40929 0.62284 0.0
H253 H 0.30724 0.38163 0.57985 0.0
H254 H 0.22017 0.39385 0.59519 0.0
H255 H 0.27606 0.36677 0.55301 0.0
H256 H 0.29967 0.37968 0.65657 0.0
H257 H 0.37484 0.36965 0.67386 0.0
H258 H 0.28845 0.35122 0.68742 0.0
H259 H 0.36228 0.34129 0.7045 0.0
H260 H 0.3551 0.30251 0.59629 0.0
H261 H 0.2819 0.30573 0.62256 0.0
H262 H 0.24784 0.44234 0.68506 0.0
H263 H 0.31319 0.43318 0.72504 0.0
Li264 Li 0.82995 0.11119 0.87505 0.0
Li265 Li 0.82444 0.07665 0.85097 0.0
Li266 Li 0.8248 0.07184 0.89143 0.0
Li267 Li 0.86166 0.0812 0.87174 0.0
C268 C 0.78298 0.09884 0.88723 0.0
N269 N 0.74705 0.11645 0.91556 0.0
C270 C 0.75858 0.09579 0.88153 0.0
C271 C 0.78909 0.11095 0.90733 0.0
C272 C 0.74068 0.1048 0.89607 0.0
C273 C 0.77068 0.11969 0.92143 0.0
C274 C 0.84322 0.11811 0.83021 0.0
C275 C 0.85551 0.14477 0.7998 0.0
N276 N 0.83182 0.14929 0.795 0.0
C277 C 0.81899 0.12302 0.82497 0.0
C278 C 0.86164 0.12904 0.81753 0.0
C279 C 0.8136 0.13883 0.80711 0.0
C280 C 0.84301 0.15794 0.88809 0.0
N281 N 0.82481 0.14503 0.87834 0.0
C282 C 0.80161 0.18106 0.87249 0.0
C283 C 0.80426 0.15596 0.87072 0.0
C284 C 0.82024 0.19492 0.88231 0.0
C285 C 0.84107 0.18303 0.89034 0.0
H286 H 0.85921 0.14872 0.89381 0.0
H287 H 0.79002 0.14524 0.86308 0.0
C288 C 0.78621 0.05958 0.82433 0.0
N289 N 0.81 0.0658 0.82356 0.0
C290 C 0.77375 0.05413 0.80434 0.0
C291 C 0.81093 0.06022 0.78332 0.0
C292 C 0.82255 0.06598 0.80367 0.0
C293 C 0.786 0.05482 0.78336 0.0
H294 H 0.77673 0.05968 0.84042 0.0
H295 H 0.84138 0.07134 0.80345 0.0
C296 C 0.8629 0.089 0.918 0.0
N297 N 0.89016 0.07376 0.95475 0.0
C298 C 0.86897 0.06452 0.9204 0.0
C299 C 0.87067 0.10571 0.93429 0.0
C300 C 0.88277 0.05718 0.9391 0.0
C301 C 0.88445 0.09765 0.95275 0.0
C302 C 0.85246 0.03524 0.854 0.0
C303 C 0.84901 0.01033 0.85691 0.0
C304 C 0.86707 0.04357 0.8362 0.0
C305 C 0.86013 0.99417 0.84188 0.0
C306 C 0.87788 0.02683 0.82154 0.0
N307 N 0.87421 0.00268 0.82465 0.0
C308 C 0.80556 0.03036 0.9115 0.0
C309 C 0.81068 0.06306 0.93727 0.0
C310 C 0.79918 0.01489 0.92927 0.0
N311 N 0.81173 0.05373 0.91588 0.0
C312 C 0.80419 0.04828 0.95553 0.0
C313 C 0.79902 0.0237 0.95167 0.0
H314 H 0.80648 0.02354 0.89429 0.0
H315 H 0.81595 0.08164 0.94033 0.0
C316 C 0.90843 0.09845 0.86623 0.0
N317 N 0.89592 0.07795 0.87125 0.0
C318 C 0.93368 0.09815 0.8656 0.0
C319 C 0.93274 0.05553 0.87524 0.0
C320 C 0.90745 0.0567 0.87581 0.0
C321 C 0.94616 0.07649 0.87017 0.0
H322 H 0.89871 0.11508 0.86277 0.0
H323 H 0.89705 0.04068 0.87996 0.0
O324 O 0.80062 0.09014 0.87301 0.0
O325 O 0.84907 0.10266 0.84757 0.0
O326 O 0.8493 0.09674 0.89992 0.0
O327 O 0.84171 0.0512 0.86872 0.0
H328 H 0.75349 0.08659 0.86599 0.0
H329 H 0.80782 0.11371 0.91202 0.0
H330 H 0.72173 0.10254 0.89186 0.0
H331 H 0.77518 0.12908 0.93702 0.0
H332 H 0.8696 0.15336 0.78984 0.0
H333 H 0.80446 0.1147 0.83452 0.0
H334 H 0.88049 0.12539 0.82134 0.0
H335 H 0.79493 0.14277 0.80288 0.0
H336 H 0.78519 0.18953 0.86626 0.0
H337 H 0.85598 0.19309 0.89773 0.0
H338 H 0.75449 0.05049 0.8053 0.0
H339 H 0.82127 0.0606 0.76767 0.0
H340 H 0.86304 0.05127 0.90807 0.0
H341 H 0.86607 0.12471 0.93271 0.0
H342 H 0.88757 0.0383 0.94118 0.0
H343 H 0.89059 0.11039 0.9655 0.0
H344 H 0.83788 0.00354 0.87066 0.0
H345 H 0.87015 0.06273 0.83373 0.0
H346 H 0.85758 0.97484 0.84393 0.0
H347 H 0.88921 0.03306 0.8077 0.0
H348 H 0.79516 0.99606 0.92565 0.0
H349 H 0.80459 0.05565 0.97261 0.0
H350 H 0.94333 0.11465 0.86139 0.0
H351 H 0.9417 0.03855 0.87911 0.0
Li352 Li 0.13347 0.41715 0.87043 0.0
Li353 Li 0.16875 0.42673 0.89224 0.0
Li354 Li 0.17212 0.42125 0.85204 0.0
Li355 Li 0.16468 0.38709 0.87617 0.0
C356 C 0.14403 0.46254 0.85235 0.0
N357 N 0.12458 0.49408 0.82068 0.0
C358 C 0.14667 0.48757 0.85509 0.0
C359 C 0.13142 0.45357 0.83351 0.0
C360 C 0.13673 0.50321 0.8389 0.0
C361 C 0.12175 0.4698 0.81769 0.0
C362 C 0.12893 0.41015 0.91661 0.0
C363 C 0.1048 0.40218 0.95 0.0
N364 N 0.09899 0.42611 0.9512 0.0
C365 C 0.12272 0.43467 0.91818 0.0
C366 C 0.11992 0.39376 0.93264 0.0
C367 C 0.10756 0.44237 0.93578 0.0
C368 C 0.08693 0.39923 0.86562 0.0
N369 N 0.09927 0.42032 0.86842 0.0
C370 C 0.06223 0.44266 0.8707 0.0
C371 C 0.08754 0.44184 0.87098 0.0
C372 C 0.04901 0.42106 0.86818 0.0
C373 C 0.06166 0.39916 0.8655 0.0
H374 H 0.09681 0.38239 0.86387 0.0
H375 H 0.09777 0.4583 0.87367 0.0
C376 C 0.18702 0.46833 0.91296 0.0
N377 N 0.18033 0.44506 0.91715 0.0
C378 C 0.19338 0.48361 0.93088 0.0
C379 C 0.187 0.45027 0.95696 0.0
C380 C 0.18049 0.43572 0.93856 0.0
C381 C 0.19305 0.47466 0.95323 0.0
H382 H 0.18676 0.47518 0.89572 0.0
H383 H 0.17477 0.41725 0.94146 0.0
C384 C 0.15462 0.37942 0.8307 0.0
N385 N 0.16832 0.34747 0.79687 0.0
C386 C 0.17915 0.37442 0.82699 0.0
C387 C 0.13707 0.36818 0.81721 0.0
C388 C 0.18571 0.35822 0.8098 0.0
C389 C 0.14436 0.35208 0.80019 0.0
C390 C 0.21071 0.39952 0.89114 0.0
C391 C 0.23546 0.40271 0.88699 0.0
C392 C 0.20323 0.3875 0.91087 0.0
C393 C 0.2523 0.39394 0.90272 0.0
C394 C 0.22062 0.379 0.92618 0.0
N395 N 0.2446 0.38237 0.92183 0.0
C396 C 0.21257 0.43841 0.82913 0.0
C397 C 0.17936 0.43026 0.80465 0.0
C398 C 0.22759 0.44297 0.81055 0.0
N399 N 0.18917 0.43162 0.82583 0.0
C400 C 0.19365 0.43502 0.78557 0.0
C401 C 0.21823 0.4408 0.78847 0.0
H402 H 0.21977 0.43942 0.8462 0.0
H403 H 0.16078 0.42447 0.80249 0.0
C404 C 0.15078 0.34046 0.88901 0.0
N405 N 0.16955 0.35333 0.88021 0.0
C406 C 0.15265 0.31539 0.89161 0.0
C407 C 0.19322 0.31735 0.87609 0.0
C408 C 0.19062 0.34241 0.87394 0.0
C409 C 0.17402 0.30352 0.8849 0.0
H410 H 0.1342 0.34968 0.89368 0.0
H411 H 0.20531 0.3531 0.86704 0.0
O412 O 0.15374 0.44711 0.86815 0.0
O413 O 0.14373 0.40203 0.89955 0.0
O414 O 0.14763 0.39523 0.8474 0.0
O415 O 0.19408 0.408 0.87576 0.0
H416 H 0.15629 0.49484 0.86961 0.0
H417 H 0.12898 0.43431 0.83112 0.0
H418 H 0.13865 0.52262 0.84082 0.0
H419 H 0.11195 0.46308 0.80305 0.0
H420 H 0.0977 0.38969 0.96253 0.0
H421 H 0.12952 0.44767 0.906 0.0
H422 H 0.12459 0.37473 0.93168 0.0
H423 H 0.10262 0.46129 0.93719 0.0
H424 H 0.05309 0.45985 0.8731 0.0
H425 H 0.0521 0.38216 0.86335 0.0
H426 H 0.19803 0.50232 0.9274 0.0
H427 H 0.18618 0.44285 0.974 0.0
H428 H 0.19302 0.38295 0.83722 0.0
H429 H 0.118 0.37188 0.81987 0.0
H430 H 0.20462 0.35419 0.80675 0.0
H431 H 0.13096 0.34324 0.78961 0.0
H432 H 0.24162 0.41182 0.87175 0.0
H433 H 0.18422 0.38465 0.91437 0.0
H434 H 0.2715 0.3963 0.89971 0.0
H435 H 0.21505 0.36969 0.94152 0.0
H436 H 0.24646 0.44749 0.81337 0.0
H437 H 0.18595 0.43289 0.76874 0.0
H438 H 0.13731 0.30535 0.89819 0.0
H439 H 0.21006 0.30888 0.87091 0.0
Li440 Li 0.82102 0.92223 0.0977 0.0
Li441 Li 0.85702 0.91448 0.11924 0.0
Li442 Li 0.82531 0.8842 0.11714 0.0
Li443 Li 0.81907 0.92059 0.13843 0.0
C444 C 0.85998 0.9024 0.07385 0.0
N445 N 0.88885 0.91374 0.03694 0.0
C446 C 0.86632 0.92651 0.0695 0.0
C447 C 0.86833 0.88408 0.05945 0.0
C448 C 0.88092 0.93186 0.05075 0.0
C449 C 0.88291 0.89018 0.04087 0.0
C450 C 0.84722 0.96172 0.13355 0.0
C451 C 0.87173 0.9725 0.16601 0.0
N452 N 0.86785 0.99637 0.16148 0.0
C453 C 0.84354 0.98636 0.1292 0.0
C454 C 0.86147 0.95473 0.15209 0.0
C455 C 0.8541 0.00359 0.14352 0.0
C456 C 0.8043 0.96193 0.07252 0.0
N457 N 0.8093 0.93787 0.07118 0.0
C458 C 0.80235 0.93805 0.03111 0.0
C459 C 0.80809 0.92573 0.05109 0.0
C460 C 0.79838 0.96322 0.0317 0.0
C461 C 0.79887 0.97506 0.05288 0.0
H462 H 0.80549 0.97108 0.08873 0.0
H463 H 0.81249 0.90667 0.05039 0.0
C464 C 0.90371 0.89795 0.12749 0.0
N465 N 0.89125 0.91782 0.1205 0.0
C466 C 0.92891 0.89863 0.12912 0.0
C467 C 0.92802 0.94026 0.11625 0.0
C468 C 0.9028 0.93871 0.11473 0.0
C469 C 0.94143 0.92004 0.12359 0.0
H470 H 0.89399 0.88152 0.13173 0.0
H471 H 0.89244 0.95423 0.10909 0.0
C472 C 0.77877 0.89596 0.10236 0.0
N473 N 0.74368 0.87675 0.07401 0.0
C474 C 0.75423 0.90048 0.10652 0.0
C475 C 0.78542 0.88159 0.08378 0.0
C476 C 0.73678 0.89064 0.09199 0.0
C477 C 0.76744 0.87207 0.06965 0.0
C478 C 0.83689 0.88112 0.16267 0.0
C479 C 0.81253 0.87549 0.16658 0.0
C480 C 0.85462 0.87265 0.17766 0.0
C481 C 0.80632 0.86146 0.18548 0.0
C482 C 0.84767 0.85865 0.19637 0.0
N483 N 0.82387 0.85339 0.19986 0.0
C484 C 0.84052 0.83684 0.11091 0.0
C485 C 0.79897 0.8394 0.12088 0.0
C486 C 0.83917 0.81163 0.10997 0.0
N487 N 0.8206 0.85012 0.11622 0.0
C488 C 0.7967 0.8142 0.11988 0.0
C489 C 0.817 0.79992 0.11436 0.0
H490 H 0.85755 0.84591 0.10759 0.0
H491 H 0.78344 0.85037 0.12535 0.0
C492 C 0.77985 0.93818 0.16382 0.0
N493 N 0.80387 0.93297 0.16492 0.0
C494 C 0.76702 0.94393 0.18355 0.0
C495 C 0.8043 0.9404 0.20491 0.0
C496 C 0.81628 0.93427 0.18485 0.0
C497 C 0.77916 0.94458 0.20459 0.0
H498 H 0.77046 0.93687 0.14774 0.0
H499 H 0.83528 0.9296 0.18541 0.0
O500 O 0.84562 0.89659 0.09203 0.0
O501 O 0.83703 0.94471 0.11952 0.0
O502 O 0.79599 0.90552 0.11654 0.0
O503 O 0.84353 0.89497 0.14439 0.0
H504 H 0.85998 0.94096 0.08039 0.0
H505 H 0.86355 0.86534 0.06259 0.0
H506 H 0.88593 0.95044 0.04717 0.0
H507 H 0.8895 0.87617 0.02957 0.0
H508 H 0.88278 0.96731 0.18041 0.0
H509 H 0.83267 0.99214 0.11487 0.0
H510 H 0.86471 0.93581 0.15571 0.0
H511 H 0.85138 0.02272 0.14034 0.0
H512 H 0.80177 0.92804 0.01528 0.0
H513 H 0.7963 0.99446 0.05422 0.0
H514 H 0.93849 0.88244 0.1344 0.0
H515 H 0.93685 0.9572 0.112 0.0
H516 H 0.74869 0.91147 0.12084 0.0
H517 H 0.80425 0.87768 0.08032 0.0
H518 H 0.71773 0.89402 0.09502 0.0
H519 H 0.77237 0.86092 0.05524 0.0
H520 H 0.79853 0.88196 0.15524 0.0
H521 H 0.87355 0.8769 0.17488 0.0
H522 H 0.78753 0.857 0.18873 0.0
H523 H 0.8612 0.85198 0.20813 0.0
H524 H 0.85546 0.80144 0.1062 0.0
H525 H 0.7792 0.80606 0.12321 0.0
H526 H 0.74763 0.94664 0.18241 0.0
H527 H 0.81455 0.94109 0.2206 0.0
Li528 Li 0.32811 0.60828 0.37252 0.0
Li529 Li 0.32151 0.57156 0.35178 0.0
Li530 Li 0.32377 0.57054 0.39244 0.0
Li531 Li 0.35965 0.57791 0.37048 0.0
C532 C 0.28167 0.59718 0.38777 0.0
N533 N 0.24705 0.61733 0.41605 0.0
C534 C 0.25704 0.59285 0.38388 0.0
C535 C 0.28864 0.61183 0.40603 0.0
C536 C 0.23983 0.60317 0.39837 0.0
C537 C 0.27089 0.62183 0.42014 0.0
C538 C 0.33909 0.61056 0.3268 0.0
C539 C 0.34947 0.63201 0.2924 0.0
N540 N 0.32567 0.63745 0.28919 0.0
C541 C 0.31472 0.61635 0.32316 0.0
C542 C 0.35662 0.61842 0.31131 0.0
C543 C 0.30831 0.62996 0.30405 0.0
C544 C 0.34411 0.65503 0.37932 0.0
N545 N 0.32399 0.64239 0.37335 0.0
C546 C 0.30118 0.67899 0.36962 0.0
C547 C 0.30277 0.65375 0.36834 0.0
C548 C 0.32168 0.69257 0.37597 0.0
C549 C 0.34339 0.68022 0.3807 0.0
H550 H 0.36078 0.64544 0.38294 0.0
H551 H 0.28706 0.64324 0.36347 0.0
C552 C 0.28192 0.55462 0.32633 0.0
N553 N 0.30613 0.559 0.32545 0.0
C554 C 0.26914 0.54925 0.30648 0.0
C555 C 0.30678 0.55135 0.28551 0.0
C556 C 0.31872 0.55712 0.30566 0.0
C557 C 0.28149 0.54816 0.28557 0.0
H558 H 0.27238 0.55642 0.34229 0.0
H559 H 0.33785 0.56122 0.30525 0.0
C560 C 0.363 0.5905 0.41576 0.0
N561 N 0.392 0.5796 0.45268 0.0
C562 C 0.36937 0.56645 0.42032 0.0
C563 C 0.37137 0.60899 0.42996 0.0
C564 C 0.38405 0.56131 0.43907 0.0
C565 C 0.38602 0.60311 0.44855 0.0
C566 C 0.34975 0.5304 0.35705 0.0
C567 C 0.34584 0.50585 0.36169 0.0
C568 C 0.36418 0.537 0.33851 0.0
C569 C 0.35633 0.48833 0.34763 0.0
C570 C 0.37436 0.51895 0.32485 0.0
N571 N 0.37025 0.49519 0.32966 0.0
C572 C 0.30704 0.53137 0.41833 0.0
C573 C 0.31112 0.5679 0.43918 0.0
C574 C 0.30151 0.51863 0.43816 0.0
N575 N 0.3122 0.55541 0.41928 0.0
C576 C 0.30529 0.55599 0.45936 0.0
C577 C 0.30107 0.53086 0.45916 0.0
H578 H 0.30812 0.52193 0.40225 0.0
H579 H 0.31565 0.58695 0.43958 0.0
C580 C 0.40552 0.59501 0.36093 0.0
N581 N 0.39386 0.57504 0.36881 0.0
C582 C 0.4307 0.59519 0.35911 0.0
C583 C 0.43145 0.55412 0.37354 0.0
C584 C 0.40618 0.55477 0.37512 0.0
C585 C 0.44401 0.57459 0.36554 0.0
H586 H 0.39518 0.61086 0.3561 0.0
H587 H 0.39641 0.53916 0.38145 0.0
O588 O 0.29865 0.58718 0.37358 0.0
O589 O 0.34591 0.59703 0.34524 0.0
O590 O 0.34853 0.59609 0.39759 0.0
O591 O 0.33968 0.54768 0.37085 0.0
H592 H 0.25126 0.58164 0.36979 0.0
H593 H 0.30754 0.61558 0.4093 0.0
H594 H 0.22072 0.59995 0.39555 0.0
H595 H 0.27608 0.6332 0.43432 0.0
H596 H 0.36285 0.63821 0.28027 0.0
H597 H 0.30086 0.61033 0.33485 0.0
H598 H 0.37555 0.614 0.31385 0.0
H599 H 0.28951 0.63454 0.30101 0.0
H600 H 0.28405 0.68773 0.36596 0.0
H601 H 0.35979 0.68992 0.38515 0.0
H602 H 0.24964 0.54728 0.30741 0.0
H603 H 0.31717 0.55028 0.26992 0.0
H604 H 0.36301 0.55187 0.40959 0.0
H605 H 0.36654 0.62769 0.42667 0.0
H606 H 0.38909 0.54279 0.44281 0.0
H607 H 0.39263 0.61724 0.45969 0.0
H608 H 0.33484 0.50036 0.37603 0.0
H609 H 0.36756 0.55585 0.33465 0.0
H610 H 0.35343 0.46928 0.35104 0.0
H611 H 0.38554 0.52384 0.31045 0.0
H612 H 0.29877 0.49923 0.43712 0.0
H613 H 0.30477 0.56629 0.47503 0.0
H614 H 0.43963 0.61123 0.3526 0.0
H615 H 0.44105 0.53798 0.3789 0.0
Li616 Li 0.67113 0.11194 0.61927 0.0
Li617 Li 0.67984 0.07591 0.64055 0.0
Li618 Li 0.67474 0.07358 0.60021 0.0
Li619 Li 0.64046 0.08105 0.62403 0.0
C620 C 0.71679 0.10096 0.60173 0.0
N621 N 0.74954 0.12065 0.57129 0.0
C622 C 0.74162 0.09677 0.60436 0.0
C623 C 0.70865 0.11527 0.58364 0.0
C624 C 0.75788 0.10685 0.58879 0.0
C625 C 0.72548 0.12504 0.56843 0.0
C626 C 0.66321 0.11569 0.66542 0.0
C627 C 0.65454 0.13947 0.69887 0.0
N628 N 0.67855 0.1446 0.701 0.0
C629 C 0.6878 0.12121 0.66794 0.0
C630 C 0.64643 0.12488 0.68099 0.0
C631 C 0.69519 0.13584 0.68604 0.0
C632 C 0.65498 0.15854 0.61037 0.0
N633 N 0.67493 0.14607 0.61716 0.0
C634 C 0.69767 0.18277 0.62043 0.0
C635 C 0.69607 0.15756 0.6222 0.0
C636 C 0.67733 0.19615 0.61337 0.0
C637 C 0.65578 0.1837 0.60832 0.0
H638 H 0.63837 0.14887 0.60669 0.0
H639 H 0.71168 0.14718 0.62756 0.0
C640 C 0.72125 0.05781 0.66177 0.0
N641 N 0.69775 0.06391 0.66563 0.0
C642 C 0.73652 0.05231 0.67995 0.0
C643 C 0.70266 0.05792 0.70557 0.0
C644 C 0.68813 0.06364 0.68692 0.0
C645 C 0.72733 0.05284 0.70219 0.0
H646 H 0.72832 0.05813 0.64463 0.0
H647 H 0.66948 0.06894 0.68958 0.0
C648 C 0.63392 0.09201 0.57867 0.0
N649 N 0.60281 0.07918 0.54386 0.0
C650 C 0.62743 0.06774 0.57551 0.0
C651 C 0.6246 0.10974 0.56412 0.0
C652 C 0.61168 0.06162 0.55781 0.0
C653 C 0.60889 0.10289 0.54662 0.0
C654 C 0.65193 0.03454 0.63855 0.0
C655 C 0.65489 0.00977 0.63435 0.0
C656 C 0.63971 0.04207 0.65816 0.0
C657 C 0.64567 0.99296 0.64988 0.0
C658 C 0.63076 0.0247 0.67327 0.0
N659 N 0.6339 0.00071 0.66886 0.0
C660 C 0.6892 0.03359 0.57415 0.0
C661 C 0.68473 0.06993 0.55305 0.0
C662 C 0.69327 0.02046 0.55422 0.0
N663 N 0.68457 0.05774 0.57314 0.0
C664 C 0.68915 0.05763 0.53277 0.0
C665 C 0.69282 0.03241 0.53308 0.0
H666 H 0.68879 0.02438 0.59037 0.0
H667 H 0.68051 0.08904 0.55261 0.0
C668 C 0.59434 0.09842 0.63195 0.0
N669 N 0.60641 0.07762 0.62705 0.0
C670 C 0.5691 0.09858 0.63289 0.0
C671 C 0.56916 0.05571 0.62421 0.0
C672 C 0.59446 0.05643 0.62322 0.0
C673 C 0.55621 0.07707 0.62881 0.0
H674 H 0.60439 0.115 0.6347 0.0
H675 H 0.60449 0.04023 0.61893 0.0
O676 O 0.70074 0.09127 0.61701 0.0
O677 O 0.65541 0.10129 0.64794 0.0
O678 O 0.64937 0.09856 0.59581 0.0
O679 O 0.66091 0.05112 0.62338 0.0
H680 H 0.7483 0.08588 0.61833 0.0
H681 H 0.68956 0.11889 0.58133 0.0
H682 H 0.77714 0.10373 0.59063 0.0
H683 H 0.71939 0.13612 0.55436 0.0
H684 H 0.64174 0.1467 0.71105 0.0
H685 H 0.70109 0.11421 0.65614 0.0
H686 H 0.62732 0.12075 0.67928 0.0
H687 H 0.71417 0.14022 0.6882 0.0
H688 H 0.71467 0.19165 0.62433 0.0
H689 H 0.63955 0.19332 0.60321 0.0
H690 H 0.75546 0.04839 0.67674 0.0
H691 H 0.69505 0.05885 0.72254 0.0
H692 H 0.63449 0.05373 0.58651 0.0
H693 H 0.6295 0.1286 0.56631 0.0
H694 H 0.60652 0.04291 0.55517 0.0
H695 H 0.60155 0.11643 0.53523 0.0
H696 H 0.66421 0.00358 0.61924 0.0
H697 H 0.63702 0.06109 0.66169 0.0
H698 H 0.64786 0.97374 0.64684 0.0
H699 H 0.62128 0.03031 0.6885 0.0
H700 H 0.69564 0.00102 0.55537 0.0
H701 H 0.68904 0.06773 0.51698 0.0
H702 H 0.55975 0.11537 0.63666 0.0
H703 H 0.55982 0.03885 0.62072 0.0
Li704 Li 0.82038 0.42063 0.85494 0.0
Li705 Li 0.82376 0.42458 0.89435 0.0
Li706 Li 0.85923 0.41519 0.87211 0.0
Li707 Li 0.82796 0.38355 0.87871 0.0
C708 C 0.83506 0.46401 0.85678 0.0
N709 N 0.82435 0.50057 0.82621 0.0
C710 C 0.813 0.47641 0.8582 0.0
C711 C 0.85168 0.47027 0.83981 0.0
C712 C 0.80791 0.4948 0.84258 0.0
C713 C 0.84594 0.4888 0.82453 0.0
C714 C 0.78016 0.40674 0.89323 0.0
C715 C 0.75617 0.38972 0.92361 0.0
N716 N 0.74301 0.41055 0.92459 0.0
C717 C 0.76631 0.42793 0.89447 0.0
C718 C 0.77501 0.38744 0.90787 0.0
C719 C 0.74765 0.42953 0.91047 0.0
C720 C 0.81605 0.43312 0.80832 0.0
N721 N 0.80357 0.42999 0.82803 0.0
C722 C 0.76589 0.43549 0.8087 0.0
C723 C 0.77898 0.4314 0.82863 0.0
C724 C 0.77826 0.43792 0.78794 0.0
C725 C 0.80371 0.43724 0.78798 0.0
H726 H 0.83555 0.43181 0.80825 0.0
H727 H 0.76948 0.42845 0.84444 0.0
C728 C 0.80904 0.42761 0.94027 0.0
N729 N 0.81415 0.44092 0.9214 0.0
C730 C 0.80499 0.43906 0.96108 0.0
C731 C 0.81099 0.47773 0.94253 0.0
C732 C 0.81504 0.46552 0.92211 0.0
C733 C 0.80634 0.46444 0.96244 0.0
H734 H 0.80903 0.40804 0.93934 0.0
H735 H 0.81993 0.47563 0.90708 0.0
C736 C 0.86177 0.38462 0.83652 0.0
N737 N 0.89968 0.36666 0.81078 0.0
C738 C 0.86687 0.35979 0.83651 0.0
C739 C 0.87583 0.40027 0.82325 0.0
C740 C 0.88613 0.35108 0.82342 0.0
C741 C 0.89497 0.39086 0.81043 0.0
C742 C 0.86132 0.40545 0.92014 0.0
C743 C 0.87191 0.42836 0.92233 0.0
C744 C 0.8628 0.38893 0.9381 0.0
C745 C 0.88396 0.4343 0.94246 0.0
C746 C 0.87501 0.39557 0.95797 0.0
N747 N 0.88525 0.41792 0.95972 0.0
C748 C 0.90489 0.4398 0.86993 0.0
C749 C 0.90652 0.39693 0.87185 0.0
C750 C 0.93018 0.44115 0.86958 0.0
N751 N 0.89365 0.41789 0.87074 0.0
C752 C 0.93177 0.39739 0.87127 0.0
C753 C 0.944 0.41972 0.87018 0.0
H754 H 0.89425 0.45625 0.87003 0.0
H755 H 0.89711 0.37979 0.87316 0.0
C756 C 0.80382 0.33895 0.87254 0.0
N757 N 0.82335 0.34989 0.88216 0.0
C758 C 0.80131 0.31379 0.87361 0.0
C759 C 0.83905 0.31179 0.89448 0.0
C760 C 0.84075 0.33697 0.89311 0.0
C761 C 0.81922 0.29982 0.88448 0.0
H762 H 0.79037 0.34978 0.8638 0.0
H763 H 0.85632 0.34621 0.90017 0.0
O764 O 0.84012 0.44558 0.87166 0.0
O765 O 0.79873 0.40493 0.87788 0.0
O766 O 0.84308 0.39346 0.8494 0.0
O767 O 0.84876 0.3995 0.90087 0.0
H768 H 0.79979 0.47168 0.87103 0.0
H769 H 0.8687 0.46073 0.83819 0.0
H770 H 0.79086 0.50444 0.84342 0.0
H771 H 0.8586 0.49374 0.81126 0.0
H772 H 0.75207 0.37497 0.93511 0.0
H773 H 0.77007 0.44309 0.88337 0.0
H774 H 0.78563 0.37098 0.90733 0.0
H775 H 0.7369 0.44587 0.91169 0.0
H776 H 0.74627 0.43552 0.80938 0.0
H777 H 0.81395 0.43927 0.77237 0.0
H778 H 0.80144 0.42817 0.97604 0.0
H779 H 0.81273 0.49728 0.94294 0.0
H780 H 0.85608 0.34735 0.84648 0.0
H781 H 0.87243 0.41955 0.82327 0.0
H782 H 0.89031 0.33191 0.82332 0.0
H783 H 0.90614 0.40281 0.80028 0.0
H784 H 0.87053 0.44154 0.90877 0.0
H785 H 0.85441 0.37125 0.93679 0.0
H786 H 0.89218 0.45198 0.94442 0.0
H787 H 0.87627 0.38297 0.97203 0.0
H788 H 0.93879 0.45878 0.86931 0.0
H789 H 0.94155 0.38038 0.87156 0.0
H790 H 0.78561 0.30537 0.86588 0.0
H791 H 0.85352 0.30177 0.90264 0.0
Li792 Li 0.33306 0.11277 0.61743 0.0
Li793 Li 0.36664 0.08464 0.62626 0.0
Li794 Li 0.33015 0.07024 0.60421 0.0
Li795 Li 0.32791 0.07876 0.64417 0.0
C796 C 0.3627 0.10361 0.57564 0.0
N797 N 0.37969 0.11976 0.534 0.0
C798 C 0.38482 0.11588 0.57418 0.0
C799 C 0.3494 0.09929 0.55577 0.0
C800 C 0.39304 0.124 0.55303 0.0
C801 C 0.35824 0.10766 0.53493 0.0
C802 C 0.36604 0.11795 0.66074 0.0
C803 C 0.39834 0.11518 0.6883 0.0
N804 N 0.40045 0.13975 0.68812 0.0
C805 C 0.36849 0.14317 0.66088 0.0
C806 C 0.38103 0.10383 0.67462 0.0
C807 C 0.386 0.15384 0.67483 0.0
C808 C 0.30536 0.15603 0.61858 0.0
N809 N 0.32671 0.14608 0.61179 0.0
C810 C 0.34164 0.18481 0.60032 0.0
C811 C 0.34469 0.15986 0.60275 0.0
C812 C 0.31992 0.19573 0.60744 0.0
C813 C 0.30151 0.18095 0.61644 0.0
H814 H 0.29153 0.14468 0.62612 0.0
H815 H 0.36178 0.15165 0.59828 0.0
C816 C 0.41183 0.06046 0.62727 0.0
N817 N 0.40099 0.08256 0.62818 0.0
C818 C 0.4371 0.05863 0.62764 0.0
C819 C 0.43943 0.1023 0.63022 0.0
C820 C 0.41422 0.10328 0.62959 0.0
C821 C 0.45127 0.07978 0.62899 0.0
H822 H 0.40084 0.04429 0.62588 0.0
H823 H 0.40518 0.12066 0.63002 0.0
C824 C 0.28638 0.0959 0.60521 0.0
N825 N 0.2496 0.1081 0.57535 0.0
C826 C 0.26236 0.0897 0.61013 0.0
C827 C 0.29159 0.10851 0.58518 0.0
C828 C 0.24405 0.09596 0.5948 0.0
C829 C 0.2728 0.11447 0.57029 0.0
C830 C 0.34317 0.0347 0.64284 0.0
C831 C 0.3225 0.02071 0.63881 0.0
C832 C 0.35801 0.02949 0.66147 0.0
C833 C 0.3169 0.00174 0.65366 0.0
C834 C 0.35178 0.01038 0.67593 0.0
N835 N 0.33152 0.99703 0.67177 0.0
C836 C 0.34148 0.03863 0.57015 0.0
C837 C 0.29896 0.04412 0.57314 0.0
C838 C 0.33847 0.02287 0.5519 0.0
N839 N 0.32192 0.04903 0.5802 0.0
C840 C 0.29509 0.02847 0.55479 0.0
C841 C 0.31505 0.01766 0.54394 0.0
H842 H 0.3595 0.0429 0.57623 0.0
H843 H 0.28367 0.05227 0.58166 0.0
C844 C 0.324 0.0716 0.69186 0.0
N845 N 0.31223 0.06953 0.67166 0.0
C846 C 0.31171 0.06749 0.71221 0.0
C847 C 0.27561 0.05824 0.69059 0.0
C848 C 0.2887 0.06233 0.67064 0.0
C849 C 0.28696 0.06147 0.71178 0.0
H850 H 0.34274 0.07703 0.69224 0.0
H851 H 0.27993 0.06048 0.65431 0.0
O852 O 0.35458 0.09514 0.59623 0.0
O853 O 0.34908 0.10723 0.64704 0.0
O854 O 0.30454 0.08973 0.62004 0.0
O855 O 0.34853 0.05376 0.62887 0.0
H856 H 0.39545 0.11938 0.58923 0.0
H857 H 0.33244 0.08951 0.5563 0.0
H858 H 0.41005 0.13366 0.55175 0.0
H859 H 0.34807 0.10447 0.51949 0.0
H860 H 0.41018 0.10445 0.69896 0.0
H861 H 0.35695 0.15441 0.65041 0.0
H862 H 0.37973 0.08427 0.6744 0.0
H863 H 0.38811 0.17334 0.67509 0.0
H864 H 0.35655 0.19554 0.5938 0.0
H865 H 0.28445 0.18861 0.62205 0.0
H866 H 0.44541 0.0409 0.62634 0.0
H867 H 0.44953 0.11907 0.63165 0.0
H868 H 0.25786 0.08008 0.62558 0.0
H869 H 0.30989 0.11395 0.58131 0.0
H870 H 0.22542 0.09118 0.59838 0.0
H871 H 0.27664 0.12423 0.55474 0.0
H872 H 0.31078 0.02464 0.6245 0.0
H873 H 0.37405 0.04021 0.66481 0.0
H874 H 0.30089 0.99083 0.65084 0.0
H875 H 0.36302 0.00619 0.69048 0.0
H876 H 0.35437 0.01522 0.54381 0.0
H877 H 0.27674 0.02472 0.54928 0.0
H878 H 0.32134 0.06966 0.72813 0.0
H879 H 0.25654 0.05375 0.6894 0.0
Li880 Li 0.663 0.61633 0.37491 0.0
Li881 Li 0.63271 0.58414 0.36534 0.0
Li882 Li 0.66527 0.57612 0.39151 0.0
Li883 Li 0.67461 0.57946 0.35188 0.0
C884 C 0.63653 0.60755 0.41677 0.0
N885 N 0.6312 0.62278 0.46123 0.0
C886 C 0.61529 0.60225 0.42872 0.0
C887 C 0.65506 0.62058 0.4274 0.0
C888 C 0.61293 0.61013 0.4512 0.0
C889 C 0.65203 0.6281 0.44991 0.0
C890 C 0.64217 0.61594 0.32539 0.0
C891 C 0.63488 0.61513 0.28492 0.0
N892 N 0.6243 0.63735 0.28631 0.0
C893 C 0.63149 0.63889 0.32635 0.0
C894 C 0.64412 0.60405 0.30445 0.0
C895 C 0.62245 0.64935 0.30644 0.0
C896 C 0.68878 0.66037 0.37247 0.0
N897 N 0.66725 0.65007 0.37814 0.0
C898 C 0.6502 0.68871 0.38685 0.0
C899 C 0.64816 0.66357 0.38536 0.0
C900 C 0.67212 0.70002 0.38082 0.0
C901 C 0.69165 0.68549 0.37372 0.0
H902 H 0.7036 0.64907 0.36674 0.0
H903 H 0.63118 0.65481 0.38951 0.0
C904 C 0.58815 0.55886 0.36666 0.0
N905 N 0.59898 0.57999 0.36047 0.0
C906 C 0.56291 0.55676 0.36615 0.0
C907 C 0.5606 0.59811 0.35265 0.0
C908 C 0.58581 0.5994 0.35347 0.0
C909 C 0.54879 0.57674 0.35948 0.0
H910 H 0.59905 0.54393 0.37279 0.0
H911 H 0.5948 0.6162 0.34937 0.0
C912 C 0.71304 0.5873 0.38687 0.0
N913 N 0.75535 0.57066 0.40649 0.0
C914 C 0.72047 0.56337 0.38339 0.0
C915 C 0.72711 0.60281 0.40023 0.0
C916 C 0.74192 0.55529 0.39349 0.0
C917 C 0.74845 0.59403 0.41002 0.0
C918 C 0.64717 0.53717 0.35118 0.0
C919 C 0.65323 0.51289 0.35497 0.0
C920 C 0.63458 0.54358 0.33146 0.0
C921 C 0.64669 0.49545 0.33887 0.0
C922 C 0.62835 0.52563 0.31577 0.0
N923 N 0.6345 0.50213 0.31976 0.0
C924 C 0.68633 0.5685 0.43559 0.0
C925 C 0.66338 0.53616 0.42006 0.0
C926 C 0.69081 0.55511 0.45531 0.0
N927 N 0.67275 0.55886 0.41853 0.0
C928 C 0.66752 0.52209 0.43935 0.0
C929 C 0.68128 0.53159 0.45735 0.0
H930 H 0.69353 0.58663 0.43402 0.0
H931 H 0.65237 0.52909 0.40638 0.0
C932 C 0.70498 0.59009 0.31648 0.0
N933 N 0.6954 0.57084 0.32769 0.0
C934 C 0.72118 0.5865 0.29865 0.0
C935 C 0.7175 0.5432 0.30425 0.0
C936 C 0.70136 0.54767 0.3221 0.0
C937 C 0.72771 0.56282 0.29239 0.0
H938 H 0.7 0.60829 0.32149 0.0
H939 H 0.69392 0.53268 0.33162 0.0
O940 O 0.6389 0.60037 0.39463 0.0
O941 O 0.65151 0.60562 0.34469 0.0
O942 O 0.69188 0.59542 0.37753 0.0
O943 O 0.65373 0.55443 0.36674 0.0
H944 H 0.60074 0.59226 0.42064 0.0
H945 H 0.67167 0.62473 0.41841 0.0
H946 H 0.59656 0.60624 0.46065 0.0
H947 H 0.66625 0.63816 0.45837 0.0
H948 H 0.63621 0.60609 0.26864 0.0
H949 H 0.63 0.64846 0.34233 0.0
H950 H 0.6528 0.58652 0.30322 0.0
H951 H 0.61398 0.66703 0.30699 0.0
H952 H 0.63456 0.6992 0.39204 0.0
H953 H 0.70892 0.69345 0.36913 0.0
H954 H 0.55455 0.54008 0.37188 0.0
H955 H 0.55044 0.61387 0.34721 0.0
H956 H 0.70962 0.55111 0.37325 0.0
H957 H 0.72149 0.62136 0.40313 0.0
H958 H 0.74786 0.53678 0.39105 0.0
H959 H 0.7595 0.60579 0.42048 0.0
H960 H 0.66308 0.50761 0.3701 0.0
H961 H 0.62948 0.56217 0.32839 0.0
H962 H 0.65135 0.47662 0.34154 0.0
H963 H 0.61859 0.53037 0.30044 0.0
H964 H 0.70157 0.56305 0.46879 0.0
H965 H 0.65944 0.50423 0.44043 0.0
H966 H 0.72836 0.60211 0.28975 0.0
H967 H 0.72229 0.52469 0.30006 0.0
Li968 Li 0.16817 0.92679 0.105 0.0
Li969 Li 0.16924 0.92036 0.14526 0.0
Li970 Li 0.16436 0.885 0.12025 0.0
Li971 Li 0.13074 0.91406 0.12679 0.0
C972 C 0.21091 0.89991 0.10758 0.0
N973 N 0.24674 0.88423 0.07811 0.0
C974 C 0.23529 0.90489 0.11217 0.0
C975 C 0.20484 0.8868 0.08804 0.0
C976 C 0.25311 0.89685 0.09705 0.0
C977 C 0.22317 0.87906 0.07335 0.0
C978 C 0.15428 0.96461 0.14141 0.0
C979 C 0.14391 0.99187 0.17192 0.0
N980 N 0.16501 0.0041 0.16843 0.0
C981 C 0.1758 0.97748 0.13802 0.0
C982 C 0.13814 0.97186 0.1584 0.0
C983 C 0.18092 0.99738 0.1519 0.0
C984 C 0.15839 0.95999 0.07185 0.0
N985 N 0.17717 0.94687 0.0803 0.0
C986 C 0.20401 0.96331 0.05236 0.0
C987 C 0.1998 0.94846 0.07121 0.0
C988 C 0.18482 0.97687 0.04318 0.0
C989 C 0.16182 0.97523 0.05325 0.0
H990 H 0.14061 0.95831 0.07948 0.0
H991 H 0.21457 0.9382 0.07839 0.0
C992 C 0.17115 0.93337 0.19218 0.0
N993 N 0.18418 0.93092 0.1727 0.0
C994 C 0.18281 0.93859 0.21265 0.0
C995 C 0.22095 0.93975 0.19245 0.0
C996 C 0.20851 0.93463 0.17236 0.0
C997 C 0.20815 0.94115 0.21307 0.0
H998 H 0.1518 0.93079 0.19198 0.0
H999 H 0.21834 0.93289 0.15658 0.0
C1000 C 0.1348 0.89295 0.07754 0.0
N1001 N 0.11635 0.87612 0.03673 0.0
C1002 C 0.1127 0.88056 0.07699 0.0
C1003 C 0.14738 0.89698 0.05722 0.0
C1004 C 0.10372 0.87212 0.05623 0.0
C1005 C 0.1378 0.88828 0.03679 0.0
C1006 C 0.13127 0.88307 0.16409 0.0
C1007 C 0.12955 0.85797 0.16689 0.0
C1008 C 0.11616 0.89835 0.17669 0.0
C1009 C 0.11273 0.84856 0.18231 0.0
C1010 C 0.09954 0.88824 0.19191 0.0
N1011 N 0.09819 0.86376 0.19439 0.0
C1012 C 0.19138 0.84136 0.12376 0.0
C1013 C 0.15201 0.83738 0.10805 0.0
C1014 C 0.19493 0.81632 0.12252 0.0
N1015 N 0.17019 0.8513 0.11651 0.0
C1016 C 0.15476 0.81232 0.10649 0.0
C1017 C 0.17639 0.80144 0.11391 0.0
H1018 H 0.20537 0.85284 0.13085 0.0
H1019 H 0.13508 0.84565 0.10317 0.0
C1020 C 0.08578 0.93837 0.12427 0.0
N1021 N 0.09642 0.91648 0.12789 0.0
C1022 C 0.06053 0.94041 0.1242 0.0
C1023 C 0.05779 0.89741 0.13181 0.0
C1024 C 0.08301 0.89617 0.13149 0.0
C1025 C 0.04625 0.91973 0.12805 0.0
H1026 H 0.09692 0.95418 0.12123 0.0
H1027 H 0.0919 0.87888 0.13383 0.0
O1028 O 0.19325 0.90775 0.12224 0.0
O1029 O 0.14929 0.94472 0.12839 0.0
O1030 O 0.14367 0.90175 0.09771 0.0
O1031 O 0.14748 0.89251 0.14886 0.0
H1032 H 0.24046 0.91493 0.12719 0.0
H1033 H 0.18624 0.8824 0.08434 0.0
H1034 H 0.27202 0.90066 0.10039 0.0
H1035 H 0.21866 0.8689 0.0582 0.0
H1036 H 0.13166 0.99765 0.18522 0.0
H1037 H 0.18851 0.97198 0.12497 0.0
H1038 H 0.12143 0.96202 0.16123 0.0
H1039 H 0.19756 0.00745 0.14958 0.0
H1040 H 0.22204 0.96428 0.04512 0.0
H1041 H 0.14651 0.98517 0.04648 0.0
H1042 H 0.17217 0.93998 0.22808 0.0
H1043 H 0.24051 0.94138 0.19195 0.0
H1044 H 0.10267 0.87724 0.09244 0.0
H1045 H 0.16438 0.90671 0.05711 0.0
H1046 H 0.08671 0.86239 0.05564 0.0
H1047 H 0.1474 0.89123 0.02099 0.0
H1048 H 0.14111 0.84587 0.1573 0.0
H1049 H 0.11678 0.91777 0.17429 0.0
H1050 H 0.11121 0.82916 0.18466 0.0
H1051 H 0.08761 0.89984 0.20164 0.0
H1052 H 0.21192 0.80869 0.12834 0.0
H1053 H 0.13977 0.80153 0.10026 0.0
H1054 H 0.05227 0.95795 0.1213 0.0
H1055 H 0.04742 0.88098 0.13444 0.0
Li1056 Li 0.83426 0.61243 0.12244 0.0
Li1057 Li 0.86711 0.58422 0.12721 0.0
Li1058 Li 0.83149 0.57016 0.10646 0.0
Li1059 Li 0.83081 0.57626 0.14711 0.0
C1060 C 0.87332 0.6063 0.08674 0.0
N1061 N 0.91371 0.624 0.06439 0.0
C1062 C 0.88147 0.62988 0.09095 0.0
C1063 C 0.88566 0.59178 0.07108 0.0
C1064 C 0.90192 0.63849 0.07949 0.0
C1065 C 0.90607 0.60104 0.05999 0.0
C1066 C 0.87094 0.61245 0.16393 0.0
C1067 C 0.90456 0.60342 0.1888 0.0
N1068 N 0.90993 0.62745 0.18991 0.0
C1069 C 0.87685 0.63706 0.16528 0.0
C1070 C 0.88494 0.59549 0.17576 0.0
C1071 C 0.8966 0.64428 0.17853 0.0
C1072 C 0.82034 0.65822 0.13797 0.0
N1073 N 0.82498 0.6453 0.11881 0.0
C1074 C 0.81987 0.6806 0.0958 0.0
C1075 C 0.82427 0.65579 0.0979 0.0
C1076 C 0.81644 0.69479 0.11543 0.0
C1077 C 0.81623 0.68313 0.13671 0.0
H1078 H 0.82082 0.64929 0.15435 0.0
H1079 H 0.82788 0.64503 0.0829 0.0
C1080 C 0.91225 0.55988 0.12444 0.0
N1081 N 0.90175 0.58201 0.12704 0.0
C1082 C 0.93748 0.55776 0.12343 0.0
C1083 C 0.94053 0.60121 0.12787 0.0
C1084 C 0.91536 0.60248 0.12864 0.0
C1085 C 0.95197 0.57866 0.12508 0.0
H1086 H 0.901 0.54391 0.12287 0.0
H1087 H 0.9067 0.6199 0.13048 0.0
C1088 C 0.78799 0.597 0.11145 0.0
N1089 N 0.7504 0.61546 0.08563 0.0
C1090 C 0.7648 0.59921 0.1208 0.0
C1091 C 0.7921 0.60438 0.08902 0.0
C1092 C 0.74602 0.60852 0.10745 0.0
C1093 C 0.77286 0.61361 0.07623 0.0
C1094 C 0.84527 0.53234 0.14164 0.0
C1095 C 0.82385 0.51967 0.13724 0.0
C1096 C 0.86081 0.5244 0.15887 0.0
C1097 C 0.81822 0.49928 0.15031 0.0
C1098 C 0.85455 0.50392 0.17155 0.0
N1099 N 0.83355 0.4919 0.16706 0.0
C1100 C 0.84031 0.53695 0.07287 0.0
C1101 C 0.7985 0.54663 0.07485 0.0
C1102 C 0.83623 0.52145 0.05458 0.0
N1103 N 0.82169 0.54958 0.08225 0.0
C1104 C 0.79359 0.53143 0.05638 0.0
C1105 C 0.81267 0.51878 0.04593 0.0
H1106 H 0.8584 0.539 0.07966 0.0
H1107 H 0.78377 0.55594 0.0832 0.0
C1108 C 0.82759 0.56504 0.19434 0.0
N1109 N 0.81559 0.56512 0.17416 0.0
C1110 C 0.81517 0.56029 0.21451 0.0
C1111 C 0.77849 0.55464 0.19266 0.0
C1112 C 0.79168 0.55934 0.17289 0.0
C1113 C 0.7901 0.55586 0.2139 0.0
H1114 H 0.84658 0.56951 0.19496 0.0
H1115 H 0.78265 0.55936 0.15657 0.0
O1116 O 0.85344 0.59746 0.09797 0.0
O1117 O 0.85164 0.60504 0.15101 0.0
O1118 O 0.80666 0.58848 0.12454 0.0
O1119 O 0.85073 0.55272 0.12945 0.0
H1120 H 0.87252 0.64123 0.10335 0.0
H1121 H 0.87964 0.57355 0.06753 0.0
H1122 H 0.90853 0.65663 0.08273 0.0
H1123 H 0.91584 0.58995 0.04789 0.0
H1124 H 0.91563 0.59046 0.19789 0.0
H1125 H 0.86651 0.65046 0.15604 0.0
H1126 H 0.88112 0.57634 0.17439 0.0
H1127 H 0.90139 0.66325 0.17968 0.0
H1128 H 0.81967 0.68863 0.07899 0.0
H1129 H 0.81396 0.69321 0.15236 0.0
H1130 H 0.94551 0.54004 0.12098 0.0
H1131 H 0.95091 0.61777 0.12959 0.0
H1132 H 0.76134 0.59391 0.13822 0.0
H1133 H 0.8099 0.60286 0.08147 0.0
H1134 H 0.72797 0.6103 0.11446 0.0
H1135 H 0.77578 0.6193 0.05884 0.0
H1136 H 0.81153 0.52571 0.12408 0.0
H1137 H 0.87749 0.534 0.16245 0.0
H1138 H 0.80163 0.48936 0.14719 0.0
H1139 H 0.86636 0.4976 0.185 0.0
H1140 H 0.85146 0.51208 0.04698 0.0
H1141 H 0.77511 0.52948 0.05044 0.0
H1142 H 0.82493 0.56097 0.23048 0.0
H1143 H 0.75916 0.55148 0.19136 0.0
Li1144 Li 0.1355 0.08254 0.871 0.0
Li1145 Li 0.1664 0.11519 0.88025 0.0
Li1146 Li 0.17644 0.07916 0.85448 0.0
Li1147 Li 0.16957 0.07465 0.89387 0.0
C1148 C 0.14211 0.11801 0.8327 0.0
N1149 N 0.12182 0.14387 0.79718 0.0
C1150 C 0.13137 0.14057 0.83668 0.0
C1151 C 0.14283 0.10879 0.81054 0.0
C1152 C 0.12111 0.1533 0.81854 0.0
C1153 C 0.13239 0.12209 0.79285 0.0
C1154 C 0.13672 0.09345 0.9219 0.0
C1155 C 0.13674 0.10345 0.96182 0.0
N1156 N 0.12458 0.08253 0.96631 0.0
C1157 C 0.12403 0.07216 0.92686 0.0
C1158 C 0.143 0.10932 0.93946 0.0
C1159 C 0.11815 0.06691 0.94945 0.0
C1160 C 0.09023 0.05715 0.87054 0.0
N1161 N 0.10142 0.07887 0.86742 0.0
C1162 C 0.06327 0.09885 0.86346 0.0
C1163 C 0.0885 0.09949 0.86397 0.0
C1164 C 0.05111 0.07679 0.86699 0.0
C1165 C 0.06492 0.05566 0.87027 0.0
H1166 H 0.10089 0.04111 0.87396 0.0
H1167 H 0.09778 0.11661 0.86236 0.0
C1168 C 0.19099 0.15957 0.87615 0.0
N1169 N 0.1708 0.14869 0.88454 0.0
C1170 C 0.19358 0.1847 0.87755 0.0
C1171 C 0.15471 0.18674 0.89652 0.0
C1172 C 0.15295 0.16158 0.89486 0.0
C1173 C 0.1751 0.19868 0.88755 0.0
H1174 H 0.20485 0.14873 0.86801 0.0
H1175 H 0.13697 0.15236 0.90112 0.0
C1176 C 0.14851 0.0376 0.85303 0.0
N1177 N 0.13224 0.00638 0.81954 0.0
C1178 C 0.15314 0.01273 0.85462 0.0
C1179 C 0.13559 0.04653 0.83439 0.0
C1180 C 0.14478 0.99726 0.83752 0.0
C1181 C 0.12751 0.03049 0.81765 0.0
C1182 C 0.21589 0.08661 0.89003 0.0
C1183 C 0.22489 0.06338 0.88574 0.0
C1184 C 0.22779 0.10174 0.90547 0.0
C1185 C 0.24559 0.05552 0.89727 0.0
C1186 C 0.24845 0.0932 0.91664 0.0
N1187 N 0.25683 0.07046 0.91236 0.0
C1188 C 0.20336 0.09187 0.81722 0.0
C1189 C 0.20189 0.04924 0.82231 0.0
C1190 C 0.21851 0.08928 0.79845 0.0
N1191 N 0.19536 0.07204 0.82863 0.0
C1192 C 0.21711 0.04578 0.80356 0.0
C1193 C 0.22579 0.06602 0.79152 0.0
H1194 H 0.19804 0.10976 0.82286 0.0
H1195 H 0.1957 0.03381 0.83202 0.0
C1196 C 0.18839 0.06944 0.93866 0.0
N1197 N 0.17958 0.05735 0.92028 0.0
C1198 C 0.19291 0.0571 0.95893 0.0
C1199 C 0.18042 0.0199 0.94058 0.0
C1200 C 0.17593 0.033 0.92075 0.0
C1201 C 0.18851 0.03207 0.96013 0.0
H1202 H 0.19103 0.08884 0.93784 0.0
H1203 H 0.1687 0.02392 0.90597 0.0
O1204 O 0.15267 0.10549 0.85025 0.0
O1205 O 0.14316 0.09859 0.89997 0.0
O1206 O 0.15698 0.05293 0.86955 0.0
O1207 O 0.19549 0.0945 0.87914 0.0
H1208 H 0.13075 0.14809 0.85364 0.0
H1209 H 0.15145 0.0916 0.80695 0.0
H1210 H 0.11261 0.1707 0.82145 0.0
H1211 H 0.13276 0.11512 0.77565 0.0
H1212 H 0.14163 0.11547 0.97561 0.0
H1213 H 0.11917 0.05964 0.91346 0.0
H1214 H 0.15288 0.12584 0.93588 0.0
H1215 H 0.10855 0.05039 0.95358 0.0
H1216 H 0.0534 0.11555 0.86065 0.0
H1217 H 0.05631 0.03835 0.87343 0.0
H1218 H 0.20975 0.19309 0.87069 0.0
H1219 H 0.13984 0.19675 0.90402 0.0
H1220 H 0.16327 0.00546 0.86882 0.0
H1221 H 0.13154 0.06557 0.83299 0.0
H1222 H 0.1483 0.97799 0.83853 0.0
H1223 H 0.11742 0.03721 0.80318 0.0
H1224 H 0.21582 0.05148 0.87384 0.0
H1225 H 0.221 0.11979 0.90891 0.0
H1226 H 0.25269 0.03752 0.89426 0.0
H1227 H 0.2578 0.10464 0.92874 0.0
H1228 H 0.22445 0.10536 0.78946 0.0
H1229 H 0.22252 0.02757 0.79891 0.0
H1230 H 0.19924 0.06709 0.97363 0.0
H1231 H 0.17649 0.00066 0.94093 0.0
Li1232 Li 0.66652 0.4253 0.60211 0.0
Li1233 Li 0.67265 0.41933 0.6422 0.0
Li1234 Li 0.66389 0.38431 0.61735 0.0
Li1235 Li 0.63221 0.4138 0.62648 0.0
C1236 C 0.71467 0.41745 0.61506 0.0
N1237 N 0.75893 0.44059 0.61167 0.0
C1238 C 0.71647 0.44226 0.61946 0.0
C1239 C 0.73535 0.40438 0.6089 0.0
C1240 C 0.73901 0.45364 0.61768 0.0
C1241 C 0.75757 0.41641 0.60728 0.0
C1242 C 0.64867 0.46495 0.63884 0.0
C1243 C 0.63072 0.48773 0.66955 0.0
N1244 N 0.64262 0.50791 0.66235 0.0
C1245 C 0.66053 0.486 0.6316 0.0
C1246 C 0.63347 0.46586 0.65784 0.0
C1247 C 0.65732 0.50751 0.64377 0.0
C1248 C 0.65865 0.46308 0.57254 0.0
N1249 N 0.67431 0.44463 0.57669 0.0
C1250 C 0.69779 0.45499 0.54397 0.0
C1251 C 0.69367 0.44031 0.56296 0.0
C1252 C 0.68185 0.47423 0.53927 0.0
C1253 C 0.66214 0.47825 0.55391 0.0
H1254 H 0.64324 0.46581 0.58363 0.0
H1255 H 0.70573 0.42535 0.56659 0.0
C1256 C 0.70138 0.40763 0.6783 0.0
N1257 N 0.69128 0.42735 0.66825 0.0
C1258 C 0.71618 0.4103 0.69732 0.0
C1259 C 0.70987 0.45363 0.69546 0.0
C1260 C 0.69527 0.45012 0.67632 0.0
C1261 C 0.72063 0.43354 0.7061 0.0
H1262 H 0.69795 0.38977 0.67141 0.0
H1263 H 0.68746 0.46559 0.66786 0.0
C1264 C 0.64379 0.39155 0.57452 0.0
N1265 N 0.64946 0.37399 0.53082 0.0
C1266 C 0.62388 0.39017 0.55989 0.0
C1267 C 0.6666 0.38398 0.56693 0.0
C1268 C 0.62711 0.38124 0.53786 0.0
C1269 C 0.66909 0.37517 0.54478 0.0
C1270 C 0.63763 0.38586 0.66637 0.0
C1271 C 0.6272 0.36285 0.66811 0.0
C1272 C 0.63553 0.40218 0.68444 0.0
C1273 C 0.61425 0.35677 0.68773 0.0
C1274 C 0.62247 0.3954 0.70378 0.0
N1275 N 0.61216 0.37304 0.705 0.0
C1276 C 0.69097 0.34088 0.6183 0.0
C1277 C 0.65009 0.33705 0.60633 0.0
C1278 C 0.69421 0.3158 0.61696 0.0
N1279 N 0.66914 0.35084 0.61314 0.0
C1280 C 0.65251 0.31195 0.60472 0.0
C1281 C 0.67473 0.30097 0.6103 0.0
H1282 H 0.7057 0.35238 0.62388 0.0
H1283 H 0.63284 0.34554 0.60269 0.0
C1284 C 0.58728 0.43855 0.62698 0.0
N1285 N 0.59824 0.41678 0.63038 0.0
C1286 C 0.56205 0.44045 0.62794 0.0
C1287 C 0.55991 0.39746 0.63573 0.0
C1288 C 0.58514 0.39639 0.63449 0.0
C1289 C 0.54804 0.41969 0.63227 0.0
H1290 H 0.59808 0.45434 0.62299 0.0
H1291 H 0.59423 0.37914 0.63608 0.0
O1292 O 0.69279 0.40589 0.6166 0.0
O1293 O 0.65157 0.44377 0.62704 0.0
O1294 O 0.64084 0.40034 0.5961 0.0
O1295 O 0.65039 0.39205 0.64728 0.0
H1296 H 0.70066 0.45261 0.62418 0.0
H1297 H 0.73421 0.38516 0.60535 0.0
H1298 H 0.74066 0.47284 0.62106 0.0
H1299 H 0.77373 0.40653 0.60252 0.0
H1300 H 0.61904 0.48867 0.6843 0.0
H1301 H 0.67217 0.48573 0.61678 0.0
H1302 H 0.62368 0.44994 0.66335 0.0
H1303 H 0.66649 0.52388 0.63843 0.0
H1304 H 0.7132 0.45133 0.53308 0.0
H1305 H 0.64916 0.49256 0.55064 0.0
H1306 H 0.72387 0.3943 0.7052 0.0
H1307 H 0.71307 0.47186 0.70161 0.0
H1308 H 0.60611 0.39596 0.56552 0.0
H1309 H 0.68224 0.38488 0.57797 0.0
H1310 H 0.61186 0.38007 0.52635 0.0
H1311 H 0.68663 0.36928 0.53868 0.0
H1312 H 0.62892 0.34991 0.65437 0.0
H1313 H 0.64406 0.41979 0.68366 0.0
H1314 H 0.6059 0.33909 0.68924 0.0
H1315 H 0.62062 0.40789 0.71786 0.0
H1316 H 0.71168 0.30809 0.62125 0.0
H1317 H 0.63692 0.3012 0.59988 0.0
H1318 H 0.5536 0.45793 0.62517 0.0
H1319 H 0.54978 0.38092 0.63855 0.0
Li1320 Li 0.31931 0.91911 0.35373 0.0
Li1321 Li 0.32801 0.92048 0.39364 0.0
Li1322 Li 0.36164 0.91418 0.36687 0.0
Li1323 Li 0.33193 0.8815 0.37527 0.0
C1324 C 0.34719 0.96125 0.35454 0.0
N1325 N 0.36146 0.99659 0.32394 0.0
C1326 C 0.34242 0.9857 0.35899 0.0
C1327 C 0.35936 0.95487 0.33458 0.0
C1328 C 0.34973 0.00328 0.3433 0.0
C1329 C 0.36639 0.97295 0.31931 0.0
C1330 C 0.2831 0.90692 0.39211 0.0
C1331 C 0.25726 0.89776 0.42403 0.0
N1332 N 0.24558 0.91924 0.42095 0.0
C1333 C 0.27079 0.92883 0.38915 0.0
C1334 C 0.27628 0.89118 0.40959 0.0
C1335 C 0.25188 0.93475 0.40396 0.0
C1336 C 0.28703 0.90926 0.32002 0.0
N1337 N 0.29838 0.92838 0.32989 0.0
C1338 C 0.27841 0.95604 0.30484 0.0
C1339 C 0.29428 0.95153 0.3229 0.0
C1340 C 0.26654 0.93654 0.29423 0.0
C1341 C 0.27102 0.91291 0.30207 0.0
H1342 H 0.29066 0.89108 0.32605 0.0
H1343 H 0.30321 0.96647 0.33129 0.0
C1344 C 0.31773 0.92297 0.4411 0.0
N1345 N 0.31942 0.93588 0.42148 0.0
C1346 C 0.31349 0.93474 0.46171 0.0
C1347 C 0.31174 0.97281 0.44142 0.0
C1348 C 0.31596 0.96026 0.4212 0.0
C1349 C 0.31102 0.96008 0.46211 0.0
H1350 H 0.32003 0.90358 0.44087 0.0
H1351 H 0.31707 0.97001 0.40533 0.0
C1352 C 0.35112 0.88467 0.32508 0.0
N1353 N 0.36644 0.86597 0.28384 0.0
C1354 C 0.36247 0.86204 0.32413 0.0
C1355 C 0.34729 0.89763 0.30493 0.0
C1356 C 0.37018 0.85294 0.30316 0.0
C1357 C 0.35524 0.88792 0.28429 0.0
C1358 C 0.36495 0.88212 0.41149 0.0
C1359 C 0.3901 0.88058 0.41397 0.0
C1360 C 0.34995 0.86729 0.42468 0.0
C1361 C 0.39983 0.86425 0.42968 0.0
C1362 C 0.36038 0.85117 0.44017 0.0
N1363 N 0.3849 0.85 0.44234 0.0
C1364 C 0.4067 0.93942 0.36733 0.0
C1365 C 0.40796 0.89883 0.35415 0.0
C1366 C 0.43191 0.94125 0.36565 0.0
N1367 N 0.39535 0.9184 0.36163 0.0
C1368 C 0.43312 0.89983 0.35225 0.0
C1369 C 0.44546 0.92112 0.35837 0.0
H1370 H 0.39626 0.95451 0.3738 0.0
H1371 H 0.39858 0.88213 0.35046 0.0
C1372 C 0.30615 0.8373 0.37448 0.0
N1373 N 0.32848 0.84736 0.37699 0.0
C1374 C 0.30337 0.81212 0.37504 0.0
C1375 C 0.3466 0.8083 0.38095 0.0
C1376 C 0.34855 0.83345 0.38003 0.0
C1377 C 0.3238 0.79734 0.37837 0.0
H1378 H 0.29054 0.84884 0.37188 0.0
H1379 H 0.36617 0.8419 0.3815 0.0
O1380 O 0.33993 0.94382 0.3697 0.0
O1381 O 0.30207 0.90115 0.37818 0.0
O1382 O 0.34305 0.89366 0.34547 0.0
O1383 O 0.3552 0.89775 0.39591 0.0
H1384 H 0.33307 0.99112 0.37432 0.0
H1385 H 0.36363 0.9362 0.33101 0.0
H1386 H 0.34608 0.02224 0.34651 0.0
H1387 H 0.37584 0.96819 0.30382 0.0
H1388 H 0.25184 0.88583 0.43772 0.0
H1389 H 0.27598 0.94123 0.37573 0.0
H1390 H 0.2857 0.87418 0.4121 0.0
H1391 H 0.24227 0.95172 0.40198 0.0
H1392 H 0.27527 0.97453 0.29939 0.0
H1393 H 0.26258 0.89733 0.29413 0.0
H1394 H 0.3126 0.92417 0.47721 0.0
H1395 H 0.31012 0.99237 0.44092 0.0
H1396 H 0.36552 0.85165 0.33942 0.0
H1397 H 0.33823 0.91501 0.30511 0.0
H1398 H 0.37912 0.83552 0.30226 0.0
H1399 H 0.35244 0.89781 0.26861 0.0
H1400 H 0.40199 0.89192 0.40392 0.0
H1401 H 0.33048 0.86779 0.42258 0.0
H1402 H 0.41927 0.86288 0.43178 0.0
H1403 H 0.34898 0.83948 0.45037 0.0
H1404 H 0.44074 0.95788 0.37086 0.0
H1405 H 0.44283 0.88394 0.34641 0.0
H1406 H 0.28549 0.80431 0.37304 0.0
H1407 H 0.36283 0.7975 0.38315 0.0
C1408 C 0.16994 0.7611 0.09518 0.0
C1409 C 0.17898 0.77466 0.11356 0.0
H1410 H 0.16323 0.72587 0.08132 0.0
C1411 C 0.18934 0.76234 0.13212 0.0
H1412 H 0.16225 0.77005 0.08046 0.0
C1413 C 0.18994 0.73702 0.13259 0.0
C1414 C 0.18015 0.72349 0.11454 0.0
H1415 H 0.19618 0.77224 0.14667 0.0
H1416 H 0.19728 0.72803 0.14746 0.0
C1417 C 0.1705 0.73581 0.09568 0.0
C1418 C 0.48501 0.94223 0.35045 0.0
C1419 C 0.47235 0.92175 0.35831 0.0
H1420 H 0.51965 0.95848 0.34413 0.0
C1421 C 0.48557 0.9018 0.36649 0.0
H1422 H 0.47532 0.95781 0.3439 0.0
C1423 C 0.51084 0.90219 0.36668 0.0
C1424 C 0.52356 0.92255 0.35867 0.0
H1425 H 0.47637 0.88596 0.37315 0.0
H1426 H 0.52041 0.88665 0.37348 0.0
C1427 C 0.51037 0.94262 0.35061 0.0
C1428 C 0.30658 0.26028 0.62567 0.0
C1429 C 0.31657 0.27369 0.60763 0.0
H1430 H 0.30004 0.22519 0.63987 0.0
C1431 C 0.32615 0.26125 0.58881 0.0
H1432 H 0.29933 0.26934 0.64053 0.0
C1433 C 0.32648 0.23593 0.58838 0.0
C1434 C 0.31729 0.22251 0.60679 0.0
H1435 H 0.33361 0.27109 0.57448 0.0
H1436 H 0.33419 0.22687 0.57372 0.0
C1437 C 0.30696 0.23496 0.62526 0.0
C1438 C 0.01153 0.095 0.8791 0.0
C1439 C 0.02421 0.07619 0.86817 0.0
H1440 H 0.97708 0.10965 0.88851 0.0
C1441 C 0.01098 0.05702 0.85845 0.0
H1442 H 0.02115 0.10974 0.88727 0.0
C1443 C 0.98563 0.05691 0.85932 0.0
C1444 C 0.97303 0.076 0.86986 0.0
H1445 H 0.02019 0.04236 0.84976 0.0
H1446 H 0.97588 0.04217 0.85129 0.0
C1447 C 0.98627 0.09493 0.87987 0.0
C1448 C 0.18518 0.26341 0.86794 0.0
C1449 C 0.17581 0.27675 0.88629 0.0
H1450 H 0.19192 0.22839 0.85377 0.0
C1451 C 0.16729 0.2643 0.90555 0.0
H1452 H 0.19157 0.27251 0.85275 0.0
C1453 C 0.16767 0.23899 0.90624 0.0
C1454 C 0.17643 0.22558 0.88762 0.0
H1455 H 0.16028 0.27414 0.92007 0.0
H1456 H 0.16099 0.22993 0.92133 0.0
C1457 C 0.18543 0.23811 0.86856 0.0
C1458 C 0.98039 0.90919 0.14319 0.0
C1459 C 0.96829 0.92109 0.12533 0.0
H1460 H 0.01446 0.89965 0.15814 0.0
C1461 C 0.98211 0.93351 0.10892 0.0
H1462 H 0.97033 0.8999 0.15639 0.0
C1463 C 0.00742 0.93359 0.1101 0.0
C1464 C 0.01943 0.92111 0.12762 0.0
H1465 H 0.97342 0.94261 0.09478 0.0
H1466 H 0.0176 0.94277 0.09691 0.0
C1467 C 0.00566 0.90911 0.14426 0.0
C1468 C 0.33343 0.73172 0.39467 0.0
C1469 C 0.3207 0.71944 0.37743 0.0
H1470 H 0.34416 0.76593 0.40857 0.0
C1471 C 0.3078 0.73308 0.36124 0.0
H1472 H 0.34309 0.72179 0.40772 0.0
C1473 C 0.3082 0.75842 0.36191 0.0
C1474 C 0.32164 0.77059 0.37869 0.0
H1475 H 0.29802 0.72423 0.3476 0.0
H1476 H 0.2987 0.76848 0.34884 0.0
C1477 C 0.33398 0.75699 0.39523 0.0
C1478 C 0.51604 0.05926 0.63995 0.0
C1479 C 0.52937 0.07726 0.62858 0.0
H1480 H 0.48092 0.0462 0.64948 0.0
C1481 C 0.51691 0.09566 0.61695 0.0
H1482 H 0.52523 0.04494 0.64916 0.0
C1483 C 0.49164 0.09625 0.61688 0.0
C1484 C 0.47819 0.07857 0.62863 0.0
H1485 H 0.52673 0.1095 0.60767 0.0
H1486 H 0.48266 0.11049 0.60741 0.0
C1487 C 0.49069 0.05996 0.64007 0.0
C1488 C 0.81024 0.235 0.86458 0.0
C1489 C 0.81843 0.22171 0.88346 0.0
H1490 H 0.80446 0.26999 0.84993 0.0
C1491 C 0.8258 0.23424 0.90308 0.0
H1492 H 0.80475 0.22585 0.84911 0.0
C1493 C 0.82547 0.25956 0.90363 0.0
C1494 C 0.8179 0.27291 0.88453 0.0
H1495 H 0.83187 0.22445 0.91801 0.0
H1496 H 0.83124 0.26867 0.91903 0.0
C1497 C 0.81004 0.26031 0.86508 0.0
C1498 C 0.66341 0.74039 0.39872 0.0
C1499 C 0.67415 0.72685 0.38115 0.0
H1500 H 0.65517 0.77561 0.41187 0.0
C1501 C 0.68587 0.7392 0.36334 0.0
H1502 H 0.65462 0.73142 0.41289 0.0
C1503 C 0.68623 0.76452 0.36279 0.0
C1504 C 0.67484 0.77803 0.38001 0.0
H1505 H 0.69404 0.72932 0.34939 0.0
H1506 H 0.69469 0.7735 0.34846 0.0
C1507 C 0.66373 0.76569 0.39815 0.0
C1508 C 0.80046 0.73495 0.12932 0.0
C1509 C 0.81481 0.72169 0.11393 0.0
H1510 H 0.79024 0.76984 0.14189 0.0
C1511 C 0.82879 0.73444 0.0979 0.0
H1512 H 0.78915 0.72578 0.14168 0.0
C1513 C 0.82891 0.75974 0.09762 0.0
C1514 C 0.81532 0.77301 0.11358 0.0
H1515 H 0.84032 0.72496 0.08594 0.0
H1516 H 0.83991 0.76888 0.085 0.0
C1517 C 0.80082 0.76029 0.12923 0.0
C1518 C 0.68913 0.2621 0.62793 0.0
C1519 C 0.67709 0.27416 0.61014 0.0
H1520 H 0.69842 0.22803 0.64303 0.0
C1521 C 0.66627 0.26035 0.5928 0.0
H1522 H 0.69737 0.2722 0.6417 0.0
C1523 C 0.66685 0.23506 0.59358 0.0
C1524 C 0.67826 0.22299 0.61172 0.0
H1525 H 0.65722 0.26911 0.57867 0.0
H1526 H 0.65826 0.22494 0.58001 0.0
C1527 C 0.68972 0.23678 0.6287 0.0
C1528 C 0.00976 0.40411 0.88231 0.0
C1529 C 0.02217 0.42118 0.86896 0.0
H1530 H 0.97555 0.39072 0.89373 0.0
C1531 C 0.00879 0.43817 0.85635 0.0
H1532 H 0.01965 0.39108 0.89251 0.0
C1533 C 0.98344 0.43779 0.85677 0.0
C1534 C 0.97096 0.42055 0.87 0.0
H1535 H 0.01792 0.45142 0.84578 0.0
H1536 H 0.97365 0.4507 0.84637 0.0
C1537 C 0.98448 0.40388 0.88293 0.0
C1538 C 0.50897 0.55515 0.3543 0.0
C1539 C 0.52194 0.57591 0.36095 0.0
H1540 H 0.47411 0.53851 0.3503 0.0
C1541 C 0.50909 0.59595 0.36948 0.0
H1542 H 0.51834 0.53948 0.34753 0.0
C1543 C 0.48388 0.59539 0.37107 0.0
C1544 C 0.47086 0.57477 0.3642 0.0
H1545 H 0.51854 0.61201 0.37528 0.0
H1546 H 0.47458 0.61106 0.37796 0.0
C1547 C 0.48367 0.55458 0.35592 0.0
C1548 C 0.50892 0.434 0.61518 0.0
C1549 C 0.52117 0.42085 0.63212 0.0
H1550 H 0.47475 0.44362 0.60053 0.0
C1551 C 0.50758 0.40804 0.64837 0.0
H1552 H 0.5189 0.44376 0.60222 0.0
C1553 C 0.48228 0.40803 0.64747 0.0
C1554 C 0.46999 0.42075 0.63022 0.0
H1555 H 0.51651 0.39802 0.66182 0.0
H1556 H 0.47233 0.39808 0.66032 0.0
C1557 C 0.48361 0.43392 0.61422 0.0
C1558 C 0.01684 0.55772 0.13433 0.0
C1559 C 0.02998 0.57623 0.12348 0.0
H1560 H 0.98186 0.54418 0.14373 0.0
C1561 C 0.01733 0.59484 0.11234 0.0
H1562 H 0.02617 0.54323 0.14316 0.0
C1563 C 0.99206 0.59527 0.11243 0.0
C1564 C 0.97882 0.5772 0.12387 0.0
H1565 H 0.02701 0.60908 0.10346 0.0
H1566 H 0.9829 0.6098 0.10352 0.0
C1567 C 0.99149 0.55825 0.1346 0.0
C1568 C 0.18465 0.5273 0.99333 0.0
C1569 C 0.19882 0.52027 0.01211 0.0
H1570 H 0.1719 0.51841 0.96002 0.0
C1571 C 0.21268 0.49891 0.01055 0.0
H1572 H 0.17331 0.54331 0.994 0.0
C1573 C 0.21146 0.48438 0.99111 0.0
C1574 C 0.19668 0.49113 0.97274 0.0
H1575 H 0.22413 0.49315 0.0245 0.0
H1576 H 0.22178 0.46768 0.99056 0.0
C1577 C 0.18372 0.51298 0.97383 0.0
C1578 C 0.73005 0.96213 0.24686 0.0
C1579 C 0.73661 0.94821 0.26587 0.0
H1580 H 0.73885 0.97276 0.21284 0.0
C1581 C 0.75803 0.93454 0.2652 0.0
H1582 H 0.71365 0.97294 0.24707 0.0
C1583 C 0.77216 0.93398 0.24556 0.0
C1584 C 0.76537 0.94736 0.22619 0.0
H1585 H 0.76328 0.92333 0.27951 0.0
H1586 H 0.7878 0.92214 0.24531 0.0
C1587 C 0.74441 0.96188 0.22726 0.0
C1588 C 0.28347 0.482 0.50161 0.0
C1589 C 0.29781 0.4883 0.52043 0.0
H1590 H 0.27246 0.49099 0.46775 0.0
C1591 C 0.3117 0.50959 0.51962 0.0
H1592 H 0.27246 0.46573 0.50193 0.0
C1593 C 0.3121 0.52377 0.5 0.0
C1594 C 0.29839 0.51715 0.4808 0.0
H1595 H 0.32322 0.51465 0.53377 0.0
H1596 H 0.3241 0.53929 0.4996 0.0
C1597 C 0.2836 0.49639 0.48204 0.0
C1598 C 0.73791 0.03608 0.74055 0.0
C1599 C 0.74379 0.05084 0.72191 0.0
H1600 H 0.74718 0.02492 0.77428 0.0
C1601 C 0.76457 0.06545 0.72293 0.0
H1602 H 0.72202 0.02455 0.74007 0.0
C1603 C 0.77865 0.06615 0.7426 0.0
C1604 C 0.77246 0.05196 0.76164 0.0
H1605 H 0.76928 0.07729 0.70889 0.0
H1606 H 0.79372 0.0787 0.74317 0.0
C1607 C 0.75224 0.03646 0.76016 0.0
C1608 C 0.81833 0.46771 0.00334 0.0
C1609 C 0.80526 0.47692 0.98474 0.0
H1610 H 0.83067 0.47362 0.0374 0.0
C1611 C 0.79289 0.49905 0.98713 0.0
H1612 H 0.82825 0.45082 0.00197 0.0
C1613 C 0.79438 0.51217 0.00742 0.0
C1614 C 0.80843 0.50349 0.02561 0.0
H1615 H 0.78251 0.50648 0.97312 0.0
H1616 H 0.78541 0.52961 0.0085 0.0
C1617 C 0.81993 0.48087 0.02355 0.0
C1618 C 0.23879 0.04525 0.75544 0.0
C1619 C 0.24259 0.06323 0.772 0.0
H1620 H 0.25006 0.03029 0.72351 0.0
C1621 C 0.26209 0.07935 0.76936 0.0
H1622 H 0.22387 0.0326 0.757 0.0
C1623 C 0.27685 0.07823 0.75016 0.0
C1624 C 0.27261 0.06083 0.73315 0.0
H1625 H 0.26577 0.09314 0.78201 0.0
H1626 H 0.29107 0.09163 0.74831 0.0
C1627 C 0.25364 0.04408 0.73618 0.0
C1628 C 0.68087 0.52844 0.49982 0.0
C1629 C 0.68442 0.51741 0.47854 0.0
H1630 H 0.67757 0.52341 0.53579 0.0
C1631 C 0.68928 0.49241 0.47762 0.0
H1632 H 0.67695 0.54763 0.50106 0.0
C1633 C 0.68952 0.47853 0.49748 0.0
C1634 C 0.68478 0.48937 0.51864 0.0
H1635 H 0.69237 0.4835 0.46146 0.0
H1636 H 0.69237 0.45915 0.49615 0.0
C1637 C 0.681 0.51454 0.51966 0.0
C1638 C 0.25652 0.95598 0.2568 0.0
C1639 C 0.25002 0.9404 0.2747 0.0
H1640 H 0.24814 0.96878 0.2233 0.0
C1641 C 0.2284 0.92706 0.27306 0.0
H1642 H 0.27312 0.96644 0.25757 0.0
C1643 C 0.21428 0.9282 0.25343 0.0
C1644 C 0.22139 0.94278 0.23499 0.0
H1645 H 0.22274 0.91518 0.28674 0.0
H1646 H 0.19839 0.91673 0.25234 0.0
C1647 C 0.24235 0.95713 0.2371 0.0
C1648 C 0.67987 0.02532 0.49273 0.0
C1649 C 0.69416 0.01843 0.51149 0.0
H1650 H 0.66773 0.01669 0.45915 0.0
C1651 C 0.70845 0.99736 0.50979 0.0
H1652 H 0.66817 0.04106 0.49351 0.0
C1653 C 0.70777 0.98311 0.49014 0.0
C1654 C 0.6931 0.98988 0.47169 0.0
H1655 H 0.71998 0.99171 0.52372 0.0
H1656 H 0.71854 0.96671 0.48941 0.0
C1657 C 0.6795 0.0113 0.47302 0.0
C1658 C 0.24341 0.4559 0.73027 0.0
C1659 C 0.26401 0.44082 0.72938 0.0
H1660 H 0.21265 0.46766 0.74973 0.0
C1661 C 0.26994 0.4269 0.74866 0.0
H1662 H 0.23849 0.4672 0.71594 0.0
C1663 C 0.25549 0.42768 0.76809 0.0
C1664 C 0.23455 0.44208 0.76861 0.0
H1665 H 0.28524 0.41462 0.74855 0.0
H1666 H 0.26017 0.41624 0.78242 0.0
C1667 C 0.22868 0.45632 0.74962 0.0
C1668 C 0.80993 0.98547 0.97173 0.0
C1669 C 0.79625 0.0069 0.97109 0.0
H1670 H 0.82179 0.95529 0.9914 0.0
C1671 C 0.78173 0.01301 0.98985 0.0
H1672 H 0.82161 0.98054 0.95765 0.0
C1673 C 0.78149 0.99827 0.00921 0.0
C1674 C 0.79605 0.97734 0.01027 0.0
H1675 H 0.77088 0.02938 0.98968 0.0
H1676 H 0.77025 0.00353 0.02348 0.0
C1677 C 0.80994 0.97093 0.99112 0.0
C1678 C 0.23236 0.53304 0.24251 0.0
C1679 C 0.23968 0.54703 0.22377 0.0
H1680 H 0.24026 0.52162 0.27651 0.0
C1681 C 0.26156 0.55993 0.22493 0.0
H1682 H 0.2156 0.52282 0.24194 0.0
C1683 C 0.27541 0.55966 0.24473 0.0
C1684 C 0.26788 0.5462 0.26381 0.0
H1685 H 0.26741 0.57122 0.21088 0.0
H1686 H 0.29146 0.57094 0.24535 0.0
C1687 C 0.24642 0.53248 0.26229 0.0
C1688 C 0.32584 0.98038 0.52195 0.0
C1689 C 0.3118 0.0015 0.52404 0.0
H1690 H 0.33669 0.95088 0.50078 0.0
C1691 C 0.29589 0.00783 0.50634 0.0
H1692 H 0.33802 0.97487 0.53545 0.0
C1693 C 0.29492 0.99391 0.48649 0.0
C1694 C 0.30976 0.97335 0.48402 0.0
H1695 H 0.28492 0.02407 0.50745 0.0
H1696 H 0.2829 -0.0005 0.4729 0.0
C1697 C 0.32484 0.96647 0.50218 0.0
C1698 C 0.75571 0.53967 0.23764 0.0
C1699 C 0.77571 0.55528 0.23523 0.0
H1700 H 0.72478 0.52978 0.25769 0.0
C1701 C 0.78077 0.57197 0.25266 0.0
H1702 H 0.75149 0.52645 0.22461 0.0
C1703 C 0.76566 0.57374 0.27157 0.0
C1704 C 0.74507 0.55891 0.27351 0.0
H1705 H 0.79583 0.58449 0.25127 0.0
H1706 H 0.76981 0.58712 0.28448 0.0
C1707 C 0.74055 0.54143 0.25665 0.0
C1708 C 0.20004 0.98258 0.00342 0.0
C1709 C 0.18833 0.99204 0.0227 0.0
H1710 H 0.20936 0.98796 0.96838 0.0
C1711 C 0.17848 0.0155 0.02175 0.0
H1712 H 0.20765 0.96448 0.00368 0.0
C1713 C 0.17951 0.02891 0.00165 0.0
C1714 C 0.19024 0.01903 0.98206 0.0
H1715 H 0.16953 0.02328 0.03644 0.0
H1716 H 0.17098 0.04659 0.00117 0.0
C1717 C 0.20086 0.99591 0.98323 0.0
C1718 C 0.75808 0.42334 0.72802 0.0
C1719 C 0.73639 0.43653 0.72629 0.0
H1720 H 0.78823 0.41343 0.74882 0.0
C1721 C 0.72938 0.45162 0.74439 0.0
H1722 H 0.76408 0.4118 0.71421 0.0
C1723 C 0.74333 0.45271 0.76422 0.0
C1724 C 0.76464 0.43888 0.76622 0.0
H1725 H 0.71269 0.46193 0.74353 0.0
H1726 H 0.73728 0.46408 0.77812 0.0
C1727 C 0.77206 0.42452 0.74774 0.0
loop_
_geom_bond_atom_site_label_1
_geom_bond_atom_site_label_2
_geom_bond_distance
_geom_bond_site_symmetry_2
_ccdc_geom_bond_type
Li0 N17 1.990 . S
Li0 O60 1.956 . S
Li0 O61 1.970 . S
Li0 O62 1.961 . S
Li1 N25 1.990 . S
Li1 O60 1.970 . S
Li1 O61 1.956 . S
Li1 O63 1.961 . S
Li2 N47 1.990 . S
Li2 O60 1.961 . S
Li2 O62 1.956 . S
Li2 O63 1.970 . S
Li3 N53 1.990 . S
Li3 O61 1.961 . S
Li3 O62 1.970 . S
Li3 O63 1.956 . S
C4 C6 1.348 . S
C4 C7 1.356 . S
C4 O60 1.325 . S
N5 C8 1.314 . S
N5 C9 1.279 . S
C6 C4 1.348 . S
C6 C8 1.353 . S
C6 H64 0.929 . S
C7 C4 1.356 . S
C7 C9 1.358 . S
C7 H65 0.930 . S
C8 N5 1.314 . S
C8 C6 1.353 . S
C8 H66 0.930 . S
C9 N5 1.279 . S
C9 C7 1.358 . S
C9 H67 0.930 . S
C10 C13 1.348 . S
C10 C14 1.356 . S
C10 O61 1.325 . S
C11 N12 1.279 . S
C11 C14 1.358 . S
C11 H68 0.930 . S
N12 C11 1.279 . S
N12 C15 1.314 . S
C13 C10 1.348 . S
C13 C15 1.353 . S
C13 H69 0.929 . S
C14 C10 1.356 . S
C14 C11 1.358 . S
C14 H70 0.930 . S
C15 N12 1.314 . S
C15 C13 1.353 . S
C15 H71 0.930 . S
C16 N17 1.314 . S
C16 C21 1.353 . S
C16 H22 0.930 . S
N17 Li0 1.990 . S
N17 C16 1.314 . S
N17 C19 1.279 . S
C18 C19 1.358 . S
C18 C20 1.356 . S
C18 H72 0.930 . S
C19 N17 1.279 . S
C19 C18 1.358 . S
C19 H23 0.930 . S
C20 C18 1.356 . S
C20 C21 1.348 . S
C21 C16 1.353 . S
C21 C20 1.348 . S
C21 H73 0.929 . S
H22 C16 0.930 . S
H23 C19 0.930 . S
C24 N25 1.314 . S
C24 C26 1.353 . S
C24 H30 0.930 . S
N25 Li1 1.990 . S
N25 C24 1.314 . S
N25 C28 1.279 . S
C26 C24 1.353 . S
C26 C29 1.348 . S
C26 H74 0.929 . S
C27 C28 1.358 . S
C27 C29 1.356 . S
C27 H75 0.930 . S
C28 N25 1.279 . S
C28 C27 1.358 . S
C28 H31 0.930 . S
C29 C26 1.348 . S
C29 C27 1.356 . S
H30 C24 0.930 . S
H31 C28 0.930 . S
C32 C34 1.348 . S
C32 C35 1.356 . S
C32 O62 1.325 . S
N33 C36 1.314 . S
N33 C37 1.279 . S
C34 C32 1.348 . S
C34 C36 1.353 . S
C34 H76 0.929 . S
C35 C32 1.356 . S
C35 C37 1.358 . S
C35 H77 0.930 . S
C36 N33 1.314 . S
C36 C34 1.353 . S
C36 H78 0.930 . S
C37 N33 1.279 . S
C37 C35 1.358 . S
C37 H79 0.930 . S
C38 C39 1.348 . S
C38 C40 1.356 . S
C38 O63 1.325 . S
C39 C38 1.348 . S
C39 C41 1.353 . S
C39 H80 0.929 . S
C40 C38 1.356 . S
C40 C42 1.358 . S
C40 H81 0.930 . S
C41 C39 1.353 . S
C41 N43 1.314 . S
C41 H82 0.930 . S
C42 C40 1.358 . S
C42 N43 1.279 . S
C42 H83 0.930 . S
N43 C41 1.314 . S
N43 C42 1.279 . S
C44 C46 1.353 . S
C44 N47 1.314 . S
C44 H50 0.930 . S
C45 N47 1.279 . S
C45 C48 1.358 . S
C45 H51 0.930 . S
C46 C44 1.353 . S
C46 C49 1.348 . S
C46 H84 0.929 . S
N47 Li2 1.990 . S
N47 C44 1.314 . S
N47 C45 1.279 . S
C48 C45 1.358 . S
C48 C49 1.356 . S
C48 H85 0.930 . S
C49 C46 1.348 . S
C49 C48 1.356 . S
H50 C44 0.930 . S
H51 C45 0.930 . S
C52 N53 1.314 . S
C52 C54 1.353 . S
C52 H58 0.930 . S
N53 Li3 1.990 . S
N53 C52 1.314 . S
N53 C56 1.279 . S
C54 C52 1.353 . S
C54 C57 1.348 . S
C54 H86 0.929 . S
C55 C56 1.358 . S
C55 C57 1.356 . S
C55 H87 0.930 . S
C56 N53 1.279 . S
C56 C55 1.358 . S
C56 H59 0.930 . S
C57 C54 1.348 . S
C57 C55 1.356 . S
H58 C52 0.930 . S
H59 C56 0.930 . S
O60 Li0 1.956 . S
O60 Li1 1.970 . S
O60 Li2 1.961 . S
O60 C4 1.325 . S
O61 Li0 1.970 . S
O61 Li1 1.956 . S
O61 Li3 1.961 . S
O61 C10 1.325 . S
O62 Li0 1.961 . S
O62 Li2 1.956 . S
O62 Li3 1.970 . S
O62 C32 1.325 . S
O63 Li1 1.961 . S
O63 Li2 1.970 . S
O63 Li3 1.956 . S
O63 C38 1.325 . S
H64 C6 0.929 . S
H65 C7 0.930 . S
H66 C8 0.930 . S
H67 C9 0.930 . S
H68 C11 0.930 . S
H69 C13 0.929 . S
H70 C14 0.930 . S
H71 C15 0.930 . S
H72 C18 0.930 . S
H73 C21 0.929 . S
H74 C26 0.929 . S
H75 C27 0.930 . S
H76 C34 0.929 . S
H77 C35 0.930 . S
H78 C36 0.930 . S
H79 C37 0.930 . S
H80 C39 0.929 . S
H81 C40 0.930 . S
H82 C41 0.930 . S
H83 C42 0.930 . S
H84 C46 0.929 . S
H85 C48 0.930 . S
H86 C54 0.929 . S
H87 C55 0.930 . S
Li88 N105 1.990 . S
Li88 O148 1.956 . S
Li88 O149 1.970 . S
Li88 O150 1.961 . S
Li89 N113 1.990 . S
Li89 O148 1.970 . S
Li89 O149 1.956 . S
Li89 O151 1.961 . S
Li90 N135 1.990 . S
Li90 O148 1.961 . S
Li90 O150 1.956 . S
Li90 O151 1.970 . S
Li91 N141 1.990 . S
Li91 O149 1.961 . S
Li91 O150 1.970 . S
Li91 O151 1.956 . S
C92 C94 1.348 . S
C92 C95 1.356 . S
C92 O148 1.325 . S
N93 C96 1.314 . S
N93 C97 1.279 . S
C94 C92 1.348 . S
C94 C96 1.353 1_565 S
C94 H152 0.929 . S
C95 C92 1.356 . S
C95 C97 1.358 1_565 S
C95 H153 0.930 . S
C96 N93 1.314 . S
C96 C94 1.353 1_545 S
C96 H154 0.930 . S
C97 N93 1.279 . S
C97 C95 1.358 1_545 S
C97 H155 0.930 . S
C98 C101 1.348 . S
C98 C102 1.356 . S
C98 O149 1.325 . S
C99 N100 1.279 . S
C99 C102 1.358 . S
C99 H156 0.930 . S
N100 C99 1.279 . S
N100 C103 1.314 . S
C101 C98 1.348 . S
C101 C103 1.353 . S
C101 H157 0.929 . S
C102 C98 1.356 . S
C102 C99 1.358 . S
C102 H158 0.930 . S
C103 N100 1.314 . S
C103 C101 1.353 . S
C103 H159 0.930 . S
C104 N105 1.314 . S
C104 C109 1.353 . S
C104 H110 0.930 . S
N105 Li88 1.990 . S
N105 C104 1.314 . S
N105 C107 1.279 . S
C106 C107 1.358 . S
C106 C108 1.356 . S
C106 H160 0.930 . S
C107 N105 1.279 . S
C107 C106 1.358 . S
C107 H111 0.930 . S
C108 C106 1.356 . S
C108 C109 1.348 . S
C109 C104 1.353 . S
C109 C108 1.348 . S
C109 H161 0.929 . S
H110 C104 0.930 . S
H111 C107 0.930 . S
C112 N113 1.314 . S
C112 C114 1.353 . S
C112 H118 0.930 . S
N113 Li89 1.990 . S
N113 C112 1.314 . S
N113 C116 1.279 . S
C114 C112 1.353 . S
C114 C117 1.348 . S
C114 H162 0.929 . S
C115 C116 1.358 . S
C115 C117 1.356 . S
C115 H163 0.930 . S
C116 N113 1.279 . S
C116 C115 1.358 . S
C116 H119 0.930 . S
C117 C114 1.348 . S
C117 C115 1.356 . S
H118 C112 0.930 . S
H119 C116 0.930 . S
C120 C122 1.348 . S
C120 C123 1.356 . S
C120 O150 1.325 . S
N121 C124 1.314 . S
N121 C125 1.279 . S
C122 C120 1.348 . S
C122 C124 1.353 . S
C122 H164 0.929 . S
C123 C120 1.356 . S
C123 C125 1.358 . S
C123 H165 0.930 . S
C124 N121 1.314 . S
C124 C122 1.353 . S
C124 H166 0.930 . S
C125 N121 1.279 . S
C125 C123 1.358 . S
C125 H167 0.930 . S
C126 C127 1.348 . S
C126 C128 1.356 . S
C126 O151 1.325 . S
C127 C126 1.348 . S
C127 C129 1.353 . S
C127 H168 0.929 . S
C128 C126 1.356 . S
C128 C130 1.358 . S
C128 H169 0.930 . S
C129 C127 1.353 . S
C129 N131 1.314 . S
C129 H170 0.930 . S
C130 C128 1.358 . S
C130 N131 1.279 . S
C130 H171 0.930 . S
N131 C129 1.314 . S
N131 C130 1.279 . S
C132 C134 1.353 . S
C132 N135 1.314 . S
C132 H138 0.930 . S
C133 N135 1.279 . S
C133 C136 1.358 . S
C133 H139 0.930 . S
C134 C132 1.353 . S
C134 C137 1.348 . S
C134 H172 0.929 . S
N135 Li90 1.990 . S
N135 C132 1.314 . S
N135 C133 1.279 . S
C136 C133 1.358 . S
C136 C137 1.356 . S
C136 H173 0.930 . S
C137 C134 1.348 . S
C137 C136 1.356 . S
H138 C132 0.930 . S
H139 C133 0.930 . S
C140 N141 1.314 . S
C140 C142 1.353 . S
C140 H146 0.930 . S
N141 Li91 1.990 . S
N141 C140 1.314 . S
N141 C144 1.279 . S
C142 C140 1.353 . S
C142 C145 1.348 . S
C142 H174 0.929 . S
C143 C144 1.358 . S
C143 C145 1.356 . S
C143 H175 0.930 . S
C144 N141 1.279 . S
C144 C143 1.358 . S
C144 H147 0.930 . S
C145 C142 1.348 . S
C145 C143 1.356 . S
H146 C140 0.930 . S
H147 C144 0.930 . S
O148 Li88 1.956 . S
O148 Li89 1.970 . S
O148 Li90 1.961 . S
O148 C92 1.325 . S
O149 Li88 1.970 . S
O149 Li89 1.956 . S
O149 Li91 1.961 . S
O149 C98 1.325 . S
O150 Li88 1.961 . S
O150 Li90 1.956 . S
O150 Li91 1.970 . S
O150 C120 1.325 . S
O151 Li89 1.961 . S
O151 Li90 1.970 . S
O151 Li91 1.956 . S
O151 C126 1.325 . S
H152 C94 0.929 . S
H153 C95 0.930 . S
H154 C96 0.930 . S
H155 C97 0.930 . S
H156 C99 0.930 . S
H157 C101 0.929 . S
H158 C102 0.930 . S
H159 C103 0.930 . S
H160 C106 0.930 . S
H161 C109 0.929 . S
H162 C114 0.929 . S
H163 C115 0.930 . S
H164 C122 0.929 . S
H165 C123 0.930 . S
H166 C124 0.930 . S
H167 C125 0.930 . S
H168 C127 0.929 . S
H169 C128 0.930 . S
H170 C129 0.930 . S
H171 C130 0.930 . S
H172 C134 0.929 . S
H173 C136 0.930 . S
H174 C142 0.929 . S
H175 C143 0.930 . S
Li176 N193 1.990 . S
Li176 O236 1.956 . S
Li176 O237 1.970 . S
Li176 O238 1.961 . S
Li177 N201 1.990 . S
Li177 O236 1.970 . S
Li177 O237 1.956 . S
Li177 O239 1.961 . S
Li178 N223 1.990 . S
Li178 O236 1.961 . S
Li178 O238 1.956 . S
Li178 O239 1.970 . S
Li179 N229 1.990 . S
Li179 O237 1.961 . S
Li179 O238 1.970 . S
Li179 O239 1.956 . S
C180 C182 1.348 . S
C180 C183 1.356 . S
C180 O236 1.325 . S
N181 C184 1.314 . S
N181 C185 1.279 . S
C182 C180 1.348 . S
C182 C184 1.353 . S
C182 H240 0.929 . S
C183 C180 1.356 . S
C183 C185 1.358 . S
C183 H241 0.930 . S
C184 N181 1.314 . S
C184 C182 1.353 . S
C184 H242 0.930 . S
C185 N181 1.279 . S
C185 C183 1.358 . S
C185 H243 0.930 . S
C186 C189 1.348 . S
C186 C190 1.356 . S
C186 O237 1.325 . S
C187 N188 1.279 . S
C187 C190 1.358 . S
C187 H244 0.930 . S
N188 C187 1.279 . S
N188 C191 1.314 . S
C189 C186 1.348 . S
C189 C191 1.353 . S
C189 H245 0.929 . S
C190 C186 1.356 . S
C190 C187 1.358 . S
C190 H246 0.930 . S
C191 N188 1.314 . S
C191 C189 1.353 . S
C191 H247 0.930 . S
C192 N193 1.314 . S
C192 C197 1.353 . S
C192 H198 0.930 . S
N193 Li176 1.990 . S
N193 C192 1.314 . S
N193 C195 1.279 . S
C194 C195 1.358 . S
C194 C196 1.356 . S
C194 H248 0.930 . S
C195 N193 1.279 . S
C195 C194 1.358 . S
C195 H199 0.930 . S
C196 C194 1.356 . S
C196 C197 1.348 . S
C197 C192 1.353 . S
C197 C196 1.348 . S
C197 H249 0.929 . S
H198 C192 0.930 . S
H199 C195 0.930 . S
C200 N201 1.314 . S
C200 C202 1.353 . S
C200 H206 0.930 . S
N201 Li177 1.990 . S
N201 C200 1.314 . S
N201 C204 1.279 . S
C202 C200 1.353 . S
C202 C205 1.348 . S
C202 H250 0.929 . S
C203 C204 1.358 . S
C203 C205 1.356 . S
C203 H251 0.930 . S
C204 N201 1.279 . S
C204 C203 1.358 . S
C204 H207 0.930 . S
C205 C202 1.348 . S
C205 C203 1.356 . S
H206 C200 0.930 . S
H207 C204 0.930 . S
C208 C210 1.348 . S
C208 C211 1.356 . S
C208 O238 1.325 . S
N209 C212 1.314 . S
N209 C213 1.279 . S
C210 C208 1.348 . S
C210 C212 1.353 . S
C210 H252 0.929 . S
C211 C208 1.356 . S
C211 C213 1.358 . S
C211 H253 0.930 . S
C212 N209 1.314 . S
C212 C210 1.353 . S
C212 H254 0.930 . S
C213 N209 1.279 . S
C213 C211 1.358 . S
C213 H255 0.930 . S
C214 C215 1.348 . S
C214 C216 1.356 . S
C214 O239 1.325 . S
C215 C214 1.348 . S
C215 C217 1.353 . S
C215 H256 0.929 . S
C216 C214 1.356 . S
C216 C218 1.358 . S
C216 H257 0.930 . S
C217 C215 1.353 . S
C217 N219 1.314 . S
C217 H258 0.930 . S
C218 C216 1.358 . S
C218 N219 1.279 . S
C218 H259 0.930 . S
N219 C217 1.314 . S
N219 C218 1.279 . S
C220 C222 1.353 . S
C220 N223 1.314 . S
C220 H226 0.930 . S
C221 N223 1.279 . S
C221 C224 1.358 . S
C221 H227 0.930 . S
C222 C220 1.353 . S
C222 C225 1.348 . S
C222 H260 0.929 . S
N223 Li178 1.990 . S
N223 C220 1.314 . S
N223 C221 1.279 . S
C224 C221 1.358 . S
C224 C225 1.356 . S
C224 H261 0.930 . S
C225 C222 1.348 . S
C225 C224 1.356 . S
H226 C220 0.930 . S
H227 C221 0.930 . S
C228 N229 1.314 . S
C228 C230 1.353 . S
C228 H234 0.930 . S
N229 Li179 1.990 . S
N229 C228 1.314 . S
N229 C232 1.279 . S
C230 C228 1.353 . S
C230 C233 1.348 . S
C230 H262 0.929 . S
C231 C232 1.358 . S
C231 C233 1.356 . S
C231 H263 0.930 . S
C232 N229 1.279 . S
C232 C231 1.358 . S
C232 H235 0.930 . S
C233 C230 1.348 . S
C233 C231 1.356 . S
H234 C228 0.930 . S
H235 C232 0.930 . S
O236 Li176 1.956 . S
O236 Li177 1.970 . S
O236 Li178 1.961 . S
O236 C180 1.325 . S
O237 Li176 1.970 . S
O237 Li177 1.956 . S
O237 Li179 1.961 . S
O237 C186 1.325 . S
O238 Li176 1.961 . S
O238 Li178 1.956 . S
O238 Li179 1.970 . S
O238 C208 1.325 . S
O239 Li177 1.961 . S
O239 Li178 1.970 . S
O239 Li179 1.956 . S
O239 C214 1.325 . S
H240 C182 0.929 . S
H241 C183 0.930 . S
H242 C184 0.930 . S
H243 C185 0.930 . S
H244 C187 0.930 . S
H245 C189 0.929 . S
H246 C190 0.930 . S
H247 C191 0.930 . S
H248 C194 0.930 . S
H249 C197 0.929 . S
H250 C202 0.929 . S
H251 C203 0.930 . S
H252 C210 0.929 . S
H253 C211 0.930 . S
H254 C212 0.930 . S
H255 C213 0.930 . S
H256 C215 0.929 . S
H257 C216 0.930 . S
H258 C217 0.930 . S
H259 C218 0.930 . S
H260 C222 0.929 . S
H261 C224 0.930 . S
H262 C230 0.929 . S
H263 C231 0.930 . S
Li264 N281 1.990 . S
Li264 O324 1.956 . S
Li264 O325 1.970 . S
Li264 O326 1.961 . S
Li265 N289 1.990 . S
Li265 O324 1.970 . S
Li265 O325 1.956 . S
Li265 O327 1.961 . S
Li266 N311 1.990 . S
Li266 O324 1.961 . S
Li266 O326 1.956 . S
Li266 O327 1.970 . S
Li267 N317 1.990 . S
Li267 O325 1.961 . S
Li267 O326 1.970 . S
Li267 O327 1.956 . S
C268 C270 1.348 . S
C268 C271 1.356 . S
C268 O324 1.325 . S
N269 C272 1.314 . S
N269 C273 1.279 . S
C270 C268 1.348 . S
C270 C272 1.353 . S
C270 H328 0.929 . S
C271 C268 1.356 . S
C271 C273 1.358 . S
C271 H329 0.930 . S
C272 N269 1.314 . S
C272 C270 1.353 . S
C272 H330 0.930 . S
C273 N269 1.279 . S
C273 C271 1.358 . S
C273 H331 0.930 . S
C274 C277 1.348 . S
C274 C278 1.356 . S
C274 O325 1.325 . S
C275 N276 1.279 . S
C275 C278 1.358 . S
C275 H332 0.930 . S
N276 C275 1.279 . S
N276 C279 1.314 . S
C277 C274 1.348 . S
C277 C279 1.353 . S
C277 H333 0.929 . S
C278 C274 1.356 . S
C278 C275 1.358 . S
C278 H334 0.930 . S
C279 N276 1.314 . S
C279 C277 1.353 . S
C279 H335 0.930 . S
C280 N281 1.314 . S
C280 C285 1.353 . S
C280 H286 0.930 . S
N281 Li264 1.990 . S
N281 C280 1.314 . S
N281 C283 1.279 . S
C282 C283 1.358 . S
C282 C284 1.356 . S
C282 H336 0.930 . S
C283 N281 1.279 . S
C283 C282 1.358 . S
C283 H287 0.930 . S
C284 C282 1.356 . S
C284 C285 1.348 . S
C285 C280 1.353 . S
C285 C284 1.348 . S
C285 H337 0.929 . S
H286 C280 0.930 . S
H287 C283 0.930 . S
C288 N289 1.314 . S
C288 C290 1.353 . S
C288 H294 0.930 . S
N289 Li265 1.990 . S
N289 C288 1.314 . S
N289 C292 1.279 . S
C290 C288 1.353 . S
C290 C293 1.348 . S
C290 H338 0.929 . S
C291 C292 1.358 . S
C291 C293 1.356 . S
C291 H339 0.930 . S
C292 N289 1.279 . S
C292 C291 1.358 . S
C292 H295 0.930 . S
C293 C290 1.348 . S
C293 C291 1.356 . S
H294 C288 0.930 . S
H295 C292 0.930 . S
C296 C298 1.348 . S
C296 C299 1.356 . S
C296 O326 1.325 . S
N297 C300 1.314 . S
N297 C301 1.279 . S
C298 C296 1.348 . S
C298 C300 1.353 . S
C298 H340 0.929 . S
C299 C296 1.356 . S
C299 C301 1.358 . S
C299 H341 0.930 . S
C300 N297 1.314 . S
C300 C298 1.353 . S
C300 H342 0.930 . S
C301 N297 1.279 . S
C301 C299 1.358 . S
C301 H343 0.930 . S
C302 C303 1.348 . S
C302 C304 1.356 . S
C302 O327 1.325 . S
C303 C302 1.348 . S
C303 C305 1.353 1_545 S
C303 H344 0.929 . S
C304 C302 1.356 . S
C304 C306 1.358 1_545 S
C304 H345 0.930 . S
C305 C303 1.353 1_565 S
C305 N307 1.314 . S
C305 H346 0.930 . S
C306 C304 1.358 1_565 S
C306 N307 1.279 . S
C306 H347 0.930 . S
N307 C305 1.314 . S
N307 C306 1.279 . S
C308 C310 1.353 . S
C308 N311 1.314 . S
C308 H314 0.930 . S
C309 N311 1.279 . S
C309 C312 1.358 . S
C309 H315 0.930 . S
C310 C308 1.353 . S
C310 C313 1.348 . S
C310 H348 0.929 . S
N311 Li266 1.990 . S
N311 C308 1.314 . S
N311 C309 1.279 . S
C312 C309 1.358 . S
C312 C313 1.356 . S
C312 H349 0.930 . S
C313 C310 1.348 . S
C313 C312 1.356 . S
H314 C308 0.930 . S
H315 C309 0.930 . S
C316 N317 1.314 . S
C316 C318 1.353 . S
C316 H322 0.930 . S
N317 Li267 1.990 . S
N317 C316 1.314 . S
N317 C320 1.279 . S
C318 C316 1.353 . S
C318 C321 1.348 . S
C318 H350 0.929 . S
C319 C320 1.358 . S
C319 C321 1.356 . S
C319 H351 0.930 . S
C320 N317 1.279 . S
C320 C319 1.358 . S
C320 H323 0.930 . S
C321 C318 1.348 . S
C321 C319 1.356 . S
H322 C316 0.930 . S
H323 C320 0.930 . S
O324 Li264 1.956 . S
O324 Li265 1.970 . S
O324 Li266 1.961 . S
O324 C268 1.325 . S
O325 Li264 1.970 . S
O325 Li265 1.956 . S
O325 Li267 1.961 . S
O325 C274 1.325 . S
O326 Li264 1.961 . S
O326 Li266 1.956 . S
O326 Li267 1.970 . S
O326 C296 1.325 . S
O327 Li265 1.961 . S
O327 Li266 1.970 . S
O327 Li267 1.956 . S
O327 C302 1.325 . S
H328 C270 0.929 . S
H329 C271 0.930 . S
H330 C272 0.930 . S
H331 C273 0.930 . S
H332 C275 0.930 . S
H333 C277 0.929 . S
H334 C278 0.930 . S
H335 C279 0.930 . S
H336 C282 0.930 . S
H337 C285 0.929 . S
H338 C290 0.929 . S
H339 C291 0.930 . S
H340 C298 0.929 . S
H341 C299 0.930 . S
H342 C300 0.930 . S
H343 C301 0.930 . S
H344 C303 0.929 . S
H345 C304 0.930 . S
H346 C305 0.930 . S
H347 C306 0.930 . S
H348 C310 0.929 . S
H349 C312 0.930 . S
H350 C318 0.929 . S
H351 C319 0.930 . S
Li352 N369 1.990 . S
Li352 O412 1.956 . S
Li352 O413 1.970 . S
Li352 O414 1.961 . S
Li353 N377 1.990 . S
Li353 O412 1.970 . S
Li353 O413 1.956 . S
Li353 O415 1.961 . S
Li354 N399 1.990 . S
Li354 O412 1.961 . S
Li354 O414 1.956 . S
Li354 O415 1.970 . S
Li355 N405 1.990 . S
Li355 O413 1.961 . S
Li355 O414 1.970 . S
Li355 O415 1.956 . S
C356 C358 1.348 . S
C356 C359 1.356 . S
C356 O412 1.325 . S
N357 C360 1.314 . S
N357 C361 1.279 . S
C358 C356 1.348 . S
C358 C360 1.353 . S
C358 H416 0.929 . S
C359 C356 1.356 . S
C359 C361 1.358 . S
C359 H417 0.930 . S
C360 N357 1.314 . S
C360 C358 1.353 . S
C360 H418 0.930 . S
C361 N357 1.279 . S
C361 C359 1.358 . S
C361 H419 0.930 . S
C362 C365 1.348 . S
C362 C366 1.356 . S
C362 O413 1.325 . S
C363 N364 1.279 . S
C363 C366 1.358 . S
C363 H420 0.930 . S
N364 C363 1.279 . S
N364 C367 1.314 . S
C365 C362 1.348 . S
C365 C367 1.353 . S
C365 H421 0.929 . S
C366 C362 1.356 . S
C366 C363 1.358 . S
C366 H422 0.930 . S
C367 N364 1.314 . S
C367 C365 1.353 . S
C367 H423 0.930 . S
C368 N369 1.314 . S
C368 C373 1.353 . S
C368 H374 0.930 . S
N369 Li352 1.990 . S
N369 C368 1.314 . S
N369 C371 1.279 . S
C370 C371 1.358 . S
C370 C372 1.356 . S
C370 H424 0.930 . S
C371 N369 1.279 . S
C371 C370 1.358 . S
C371 H375 0.930 . S
C372 C370 1.356 . S
C372 C373 1.348 . S
C373 C368 1.353 . S
C373 C372 1.348 . S
C373 H425 0.929 . S
H374 C368 0.930 . S
H375 C371 0.930 . S
C376 N377 1.314 . S
C376 C378 1.353 . S
C376 H382 0.930 . S
N377 Li353 1.990 . S
N377 C376 1.314 . S
N377 C380 1.279 . S
C378 C376 1.353 . S
C378 C381 1.348 . S
C378 H426 0.929 . S
C379 C380 1.358 . S
C379 C381 1.356 . S
C379 H427 0.930 . S
C380 N377 1.279 . S
C380 C379 1.358 . S
C380 H383 0.930 . S
C381 C378 1.348 . S
C381 C379 1.356 . S
H382 C376 0.930 . S
H383 C380 0.930 . S
C384 C386 1.348 . S
C384 C387 1.356 . S
C384 O414 1.325 . S
N385 C388 1.314 . S
N385 C389 1.279 . S
C386 C384 1.348 . S
C386 C388 1.353 . S
C386 H428 0.929 . S
C387 C384 1.356 . S
C387 C389 1.358 . S
C387 H429 0.930 . S
C388 N385 1.314 . S
C388 C386 1.353 . S
C388 H430 0.930 . S
C389 N385 1.279 . S
C389 C387 1.358 . S
C389 H431 0.930 . S
C390 C391 1.348 . S
C390 C392 1.356 . S
C390 O415 1.325 . S
C391 C390 1.348 . S
C391 C393 1.353 . S
C391 H432 0.929 . S
C392 C390 1.356 . S
C392 C394 1.358 . S
C392 H433 0.930 . S
C393 C391 1.353 . S
C393 N395 1.314 . S
C393 H434 0.930 . S
C394 C392 1.358 . S
C394 N395 1.279 . S
C394 H435 0.930 . S
N395 C393 1.314 . S
N395 C394 1.279 . S
C396 C398 1.353 . S
C396 N399 1.314 . S
C396 H402 0.930 . S
C397 N399 1.279 . S
C397 C400 1.358 . S
C397 H403 0.930 . S
C398 C396 1.353 . S
C398 C401 1.348 . S
C398 H436 0.929 . S
N399 Li354 1.990 . S
N399 C396 1.314 . S
N399 C397 1.279 . S
C400 C397 1.358 . S
C400 C401 1.356 . S
C400 H437 0.930 . S
C401 C398 1.348 . S
C401 C400 1.356 . S
H402 C396 0.930 . S
H403 C397 0.930 . S
C404 N405 1.314 . S
C404 C406 1.353 . S
C404 H410 0.930 . S
N405 Li355 1.990 . S
N405 C404 1.314 . S
N405 C408 1.279 . S
C406 C404 1.353 . S
C406 C409 1.348 . S
C406 H438 0.929 . S
C407 C408 1.358 . S
C407 C409 1.356 . S
C407 H439 0.930 . S
C408 N405 1.279 . S
C408 C407 1.358 . S
C408 H411 0.930 . S
C409 C406 1.348 . S
C409 C407 1.356 . S
H410 C404 0.930 . S
H411 C408 0.930 . S
O412 Li352 1.956 . S
O412 Li353 1.970 . S
O412 Li354 1.961 . S
O412 C356 1.325 . S
O413 Li352 1.970 . S
O413 Li353 1.956 . S
O413 Li355 1.961 . S
O413 C362 1.325 . S
O414 Li352 1.961 . S
O414 Li354 1.956 . S
O414 Li355 1.970 . S
O414 C384 1.325 . S
O415 Li353 1.961 . S
O415 Li354 1.970 . S
O415 Li355 1.956 . S
O415 C390 1.325 . S
H416 C358 0.929 . S
H417 C359 0.930 . S
H418 C360 0.930 . S
H419 C361 0.930 . S
H420 C363 0.930 . S
H421 C365 0.929 . S
H422 C366 0.930 . S
H423 C367 0.930 . S
H424 C370 0.930 . S
H425 C373 0.929 . S
H426 C378 0.929 . S
H427 C379 0.930 . S
H428 C386 0.929 . S
H429 C387 0.930 . S
H430 C388 0.930 . S
H431 C389 0.930 . S
H432 C391 0.929 . S
H433 C392 0.930 . S
H434 C393 0.930 . S
H435 C394 0.930 . S
H436 C398 0.929 . S
H437 C400 0.930 . S
H438 C406 0.929 . S
H439 C407 0.930 . S
Li440 N457 1.990 . S
Li440 O500 1.956 . S
Li440 O501 1.970 . S
Li440 O502 1.961 . S
Li441 N465 1.990 . S
Li441 O500 1.970 . S
Li441 O501 1.956 . S
Li441 O503 1.961 . S
Li442 N487 1.990 . S
Li442 O500 1.961 . S
Li442 O502 1.956 . S
Li442 O503 1.970 . S
Li443 N493 1.990 . S
Li443 O501 1.961 . S
Li443 O502 1.970 . S
Li443 O503 1.956 . S
C444 C446 1.348 . S
C444 C447 1.356 . S
C444 O500 1.325 . S
N445 C448 1.314 . S
N445 C449 1.279 . S
C446 C444 1.348 . S
C446 C448 1.353 . S
C446 H504 0.929 . S
C447 C444 1.356 . S
C447 C449 1.358 . S
C447 H505 0.930 . S
C448 N445 1.314 . S
C448 C446 1.353 . S
C448 H506 0.930 . S
C449 N445 1.279 . S
C449 C447 1.358 . S
C449 H507 0.930 . S
C450 C453 1.348 . S
C450 C454 1.356 . S
C450 O501 1.325 . S
C451 N452 1.279 . S
C451 C454 1.358 1_545 S
C451 H508 0.930 . S
N452 C451 1.279 . S
N452 C455 1.314 . S
C453 C450 1.348 . S
C453 C455 1.353 1_565 S
C453 H509 0.929 . S
C454 C450 1.356 . S
C454 C451 1.358 1_565 S
C454 H510 0.930 . S
C455 N452 1.314 . S
C455 C453 1.353 1_545 S
C455 H511 0.930 . S
C456 N457 1.314 . S
C456 C461 1.353 . S
C456 H462 0.930 . S
N457 Li440 1.990 . S
N457 C456 1.314 . S
N457 C459 1.279 . S
C458 C459 1.358 . S
C458 C460 1.356 . S
C458 H512 0.930 . S
C459 N457 1.279 . S
C459 C458 1.358 . S
C459 H463 0.930 . S
C460 C458 1.356 . S
C460 C461 1.348 . S
C461 C456 1.353 . S
C461 C460 1.348 . S
C461 H513 0.929 . S
H462 C456 0.930 . S
H463 C459 0.930 . S
C464 N465 1.314 . S
C464 C466 1.353 . S
C464 H470 0.930 . S
N465 Li441 1.990 . S
N465 C464 1.314 . S
N465 C468 1.279 . S
C466 C464 1.353 . S
C466 C469 1.348 . S
C466 H514 0.929 . S
C467 C468 1.358 . S
C467 C469 1.356 . S
C467 H515 0.930 . S
C468 N465 1.279 . S
C468 C467 1.358 . S
C468 H471 0.930 . S
C469 C466 1.348 . S
C469 C467 1.356 . S
H470 C464 0.930 . S
H471 C468 0.930 . S
C472 C474 1.348 . S
C472 C475 1.356 . S
C472 O502 1.325 . S
N473 C476 1.314 . S
N473 C477 1.279 . S
C474 C472 1.348 . S
C474 C476 1.353 . S
C474 H516 0.929 . S
C475 C472 1.356 . S
C475 C477 1.358 . S
C475 H517 0.930 . S
C476 N473 1.314 . S
C476 C474 1.353 . S
C476 H518 0.930 . S
C477 N473 1.279 . S
C477 C475 1.358 . S
C477 H519 0.930 . S
C478 C479 1.348 . S
C478 C480 1.356 . S
C478 O503 1.325 . S
C479 C478 1.348 . S
C479 C481 1.353 . S
C479 H520 0.929 . S
C480 C478 1.356 . S
C480 C482 1.358 . S
C480 H521 0.930 . S
C481 C479 1.353 . S
C481 N483 1.314 . S
C481 H522 0.930 . S
C482 C480 1.358 . S
C482 N483 1.279 . S
C482 H523 0.930 . S
N483 C481 1.314 . S
N483 C482 1.279 . S
C484 C486 1.353 . S
C484 N487 1.314 . S
C484 H490 0.930 . S
C485 N487 1.279 . S
C485 C488 1.358 . S
C485 H491 0.930 . S
C486 C484 1.353 . S
C486 C489 1.348 . S
C486 H524 0.929 . S
N487 Li442 1.990 . S
N487 C484 1.314 . S
N487 C485 1.279 . S
C488 C485 1.358 . S
C488 C489 1.356 . S
C488 H525 0.930 . S
C489 C486 1.348 . S
C489 C488 1.356 . S
H490 C484 0.930 . S
H491 C485 0.930 . S
C492 N493 1.314 . S
C492 C494 1.353 . S
C492 H498 0.930 . S
N493 Li443 1.990 . S
N493 C492 1.314 . S
N493 C496 1.279 . S
C494 C492 1.353 . S
C494 C497 1.348 . S
C494 H526 0.929 . S
C495 C496 1.358 . S
C495 C497 1.356 . S
C495 H527 0.930 . S
C496 N493 1.279 . S
C496 C495 1.358 . S
C496 H499 0.930 . S
C497 C494 1.348 . S
C497 C495 1.356 . S
H498 C492 0.930 . S
H499 C496 0.930 . S
O500 Li440 1.956 . S
O500 Li441 1.970 . S
O500 Li442 1.961 . S
O500 C444 1.325 . S
O501 Li440 1.970 . S
O501 Li441 1.956 . S
O501 Li443 1.961 . S
O501 C450 1.325 . S
O502 Li440 1.961 . S
O502 Li442 1.956 . S
O502 Li443 1.970 . S
O502 C472 1.325 . S
O503 Li441 1.961 . S
O503 Li442 1.970 . S
O503 Li443 1.956 . S
O503 C478 1.325 . S
H504 C446 0.929 . S
H505 C447 0.930 . S
H506 C448 0.930 . S
H507 C449 0.930 . S
H508 C451 0.930 . S
H509 C453 0.929 . S
H510 C454 0.930 . S
H511 C455 0.930 . S
H512 C458 0.930 . S
H513 C461 0.929 . S
H514 C466 0.929 . S
H515 C467 0.930 . S
H516 C474 0.929 . S
H517 C475 0.930 . S
H518 C476 0.930 . S
H519 C477 0.930 . S
H520 C479 0.929 . S
H521 C480 0.930 . S
H522 C481 0.930 . S
H523 C482 0.930 . S
H524 C486 0.929 . S
H525 C488 0.930 . S
H526 C494 0.929 . S
H527 C495 0.930 . S
Li528 N545 1.990 . S
Li528 O588 1.956 . S
Li528 O589 1.970 . S
Li528 O590 1.961 . S
Li529 N553 1.990 . S
Li529 O588 1.970 . S
Li529 O589 1.956 . S
Li529 O591 1.961 . S
Li530 N575 1.990 . S
Li530 O588 1.961 . S
Li530 O590 1.956 . S
Li530 O591 1.970 . S
Li531 N581 1.990 . S
Li531 O589 1.961 . S
Li531 O590 1.970 . S
Li531 O591 1.956 . S
C532 C534 1.348 . S
C532 C535 1.356 . S
C532 O588 1.325 . S
N533 C536 1.314 . S
N533 C537 1.279 . S
C534 C532 1.348 . S
C534 C536 1.353 . S
C534 H592 0.929 . S
C535 C532 1.356 . S
C535 C537 1.358 . S
C535 H593 0.930 . S
C536 N533 1.314 . S
C536 C534 1.353 . S
C536 H594 0.930 . S
C537 N533 1.279 . S
C537 C535 1.358 . S
C537 H595 0.930 . S
C538 C541 1.348 . S
C538 C542 1.356 . S
C538 O589 1.325 . S
C539 N540 1.279 . S
C539 C542 1.358 . S
C539 H596 0.930 . S
N540 C539 1.279 . S
N540 C543 1.314 . S
C541 C538 1.348 . S
C541 C543 1.353 . S
C541 H597 0.929 . S
C542 C538 1.356 . S
C542 C539 1.358 . S
C542 H598 0.930 . S
C543 N540 1.314 . S
C543 C541 1.353 . S
C543 H599 0.930 . S
C544 N545 1.314 . S
C544 C549 1.353 . S
C544 H550 0.930 . S
N545 Li528 1.990 . S
N545 C544 1.314 . S
N545 C547 1.279 . S
C546 C547 1.358 . S
C546 C548 1.356 . S
C546 H600 0.930 . S
C547 N545 1.279 . S
C547 C546 1.358 . S
C547 H551 0.930 . S
C548 C546 1.356 . S
C548 C549 1.348 . S
C549 C544 1.353 . S
C549 C548 1.348 . S
C549 H601 0.929 . S
H550 C544 0.930 . S
H551 C547 0.930 . S
C552 N553 1.314 . S
C552 C554 1.353 . S
C552 H558 0.930 . S
N553 Li529 1.990 . S
N553 C552 1.314 . S
N553 C556 1.279 . S
C554 C552 1.353 . S
C554 C557 1.348 . S
C554 H602 0.929 . S
C555 C556 1.358 . S
C555 C557 1.356 . S
C555 H603 0.930 . S
C556 N553 1.279 . S
C556 C555 1.358 . S
C556 H559 0.930 . S
C557 C554 1.348 . S
C557 C555 1.356 . S
H558 C552 0.930 . S
H559 C556 0.930 . S
C560 C562 1.348 . S
C560 C563 1.356 . S
C560 O590 1.325 . S
N561 C564 1.314 . S
N561 C565 1.279 . S
C562 C560 1.348 . S
C562 C564 1.353 . S
C562 H604 0.929 . S
C563 C560 1.356 . S
C563 C565 1.358 . S
C563 H605 0.930 . S
C564 N561 1.314 . S
C564 C562 1.353 . S
C564 H606 0.930 . S
C565 N561 1.279 . S
C565 C563 1.358 . S
C565 H607 0.930 . S
C566 C567 1.348 . S
C566 C568 1.356 . S
C566 O591 1.325 . S
C567 C566 1.348 . S
C567 C569 1.353 . S
C567 H608 0.929 . S
C568 C566 1.356 . S
C568 C570 1.358 . S
C568 H609 0.930 . S
C569 C567 1.353 . S
C569 N571 1.314 . S
C569 H610 0.930 . S
C570 C568 1.358 . S
C570 N571 1.279 . S
C570 H611 0.930 . S
N571 C569 1.314 . S
N571 C570 1.279 . S
C572 C574 1.353 . S
C572 N575 1.314 . S
C572 H578 0.930 . S
C573 N575 1.279 . S
C573 C576 1.358 . S
C573 H579 0.930 . S
C574 C572 1.353 . S
C574 C577 1.348 . S
C574 H612 0.929 . S
N575 Li530 1.990 . S
N575 C572 1.314 . S
N575 C573 1.279 . S
C576 C573 1.358 . S
C576 C577 1.356 . S
C576 H613 0.930 . S
C577 C574 1.348 . S
C577 C576 1.356 . S
H578 C572 0.930 . S
H579 C573 0.930 . S
C580 N581 1.314 . S
C580 C582 1.353 . S
C580 H586 0.930 . S
N581 Li531 1.990 . S
N581 C580 1.314 . S
N581 C584 1.279 . S
C582 C580 1.353 . S
C582 C585 1.348 . S
C582 H614 0.929 . S
C583 C584 1.358 . S
C583 C585 1.356 . S
C583 H615 0.930 . S
C584 N581 1.279 . S
C584 C583 1.358 . S
C584 H587 0.930 . S
C585 C582 1.348 . S
C585 C583 1.356 . S
H586 C580 0.930 . S
H587 C584 0.930 . S
O588 Li528 1.956 . S
O588 Li529 1.970 . S
O588 Li530 1.961 . S
O588 C532 1.325 . S
O589 Li528 1.970 . S
O589 Li529 1.956 . S
O589 Li531 1.961 . S
O589 C538 1.325 . S
O590 Li528 1.961 . S
O590 Li530 1.956 . S
O590 Li531 1.970 . S
O590 C560 1.325 . S
O591 Li529 1.961 . S
O591 Li530 1.970 . S
O591 Li531 1.956 . S
O591 C566 1.325 . S
H592 C534 0.929 . S
H593 C535 0.930 . S
H594 C536 0.930 . S
H595 C537 0.930 . S
H596 C539 0.930 . S
H597 C541 0.929 . S
H598 C542 0.930 . S
H599 C543 0.930 . S
H600 C546 0.930 . S
H601 C549 0.929 . S
H602 C554 0.929 . S
H603 C555 0.930 . S
H604 C562 0.929 . S
H605 C563 0.930 . S
H606 C564 0.930 . S
H607 C565 0.930 . S
H608 C567 0.929 . S
H609 C568 0.930 . S
H610 C569 0.930 . S
H611 C570 0.930 . S
H612 C574 0.929 . S
H613 C576 0.930 . S
H614 C582 0.929 . S
H615 C583 0.930 . S
Li616 N633 1.990 . S
Li616 O676 1.956 . S
Li616 O677 1.970 . S
Li616 O678 1.961 . S
Li617 N641 1.990 . S
Li617 O676 1.970 . S
Li617 O677 1.956 . S
Li617 O679 1.961 . S
Li618 N663 1.990 . S
Li618 O676 1.961 . S
Li618 O678 1.956 . S
Li618 O679 1.970 . S
Li619 N669 1.990 . S
Li619 O677 1.961 . S
Li619 O678 1.970 . S
Li619 O679 1.956 . S
C620 C622 1.348 . S
C620 C623 1.356 . S
C620 O676 1.325 . S
N621 C624 1.314 . S
N621 C625 1.279 . S
C622 C620 1.348 . S
C622 C624 1.353 . S
C622 H680 0.929 . S
C623 C620 1.356 . S
C623 C625 1.358 . S
C623 H681 0.930 . S
C624 N621 1.314 . S
C624 C622 1.353 . S
C624 H682 0.930 . S
C625 N621 1.279 . S
C625 C623 1.358 . S
C625 H683 0.930 . S
C626 C629 1.348 . S
C626 C630 1.356 . S
C626 O677 1.325 . S
C627 N628 1.279 . S
C627 C630 1.358 . S
C627 H684 0.930 . S
N628 C627 1.279 . S
N628 C631 1.314 . S
C629 C626 1.348 . S
C629 C631 1.353 . S
C629 H685 0.929 . S
C630 C626 1.356 . S
C630 C627 1.358 . S
C630 H686 0.930 . S
C631 N628 1.314 . S
C631 C629 1.353 . S
C631 H687 0.930 . S
C632 N633 1.314 . S
C632 C637 1.353 . S
C632 H638 0.930 . S
N633 Li616 1.990 . S
N633 C632 1.314 . S
N633 C635 1.279 . S
C634 C635 1.358 . S
C634 C636 1.356 . S
C634 H688 0.930 . S
C635 N633 1.279 . S
C635 C634 1.358 . S
C635 H639 0.930 . S
C636 C634 1.356 . S
C636 C637 1.348 . S
C637 C632 1.353 . S
C637 C636 1.348 . S
C637 H689 0.929 . S
H638 C632 0.930 . S
H639 C635 0.930 . S
C640 N641 1.314 . S
C640 C642 1.353 . S
C640 H646 0.930 . S
N641 Li617 1.990 . S
N641 C640 1.314 . S
N641 C644 1.279 . S
C642 C640 1.353 . S
C642 C645 1.348 . S
C642 H690 0.929 . S
C643 C644 1.358 . S
C643 C645 1.356 . S
C643 H691 0.930 . S
C644 N641 1.279 . S
C644 C643 1.358 . S
C644 H647 0.930 . S
C645 C642 1.348 . S
C645 C643 1.356 . S
H646 C640 0.930 . S
H647 C644 0.930 . S
C648 C650 1.348 . S
C648 C651 1.356 . S
C648 O678 1.325 . S
N649 C652 1.314 . S
N649 C653 1.279 . S
C650 C648 1.348 . S
C650 C652 1.353 . S
C650 H692 0.929 . S
C651 C648 1.356 . S
C651 C653 1.358 . S
C651 H693 0.930 . S
C652 N649 1.314 . S
C652 C650 1.353 . S
C652 H694 0.930 . S
C653 N649 1.279 . S
C653 C651 1.358 . S
C653 H695 0.930 . S
C654 C655 1.348 . S
C654 C656 1.356 . S
C654 O679 1.325 . S
C655 C654 1.348 . S
C655 C657 1.353 1_545 S
C655 H696 0.929 . S
C656 C654 1.356 . S
C656 C658 1.358 1_545 S
C656 H697 0.930 . S
C657 C655 1.353 1_565 S
C657 N659 1.314 . S
C657 H698 0.930 . S
C658 C656 1.358 1_565 S
C658 N659 1.279 . S
C658 H699 0.930 . S
N659 C657 1.314 . S
N659 C658 1.279 . S
C660 C662 1.353 . S
C660 N663 1.314 . S
C660 H666 0.930 . S
C661 N663 1.279 . S
C661 C664 1.358 . S
C661 H667 0.930 . S
C662 C660 1.353 . S
C662 C665 1.348 . S
C662 H700 0.929 . S
N663 Li618 1.990 . S
N663 C660 1.314 . S
N663 C661 1.279 . S
C664 C661 1.358 . S
C664 C665 1.356 . S
C664 H701 0.930 . S
C665 C662 1.348 . S
C665 C664 1.356 . S
H666 C660 0.930 . S
H667 C661 0.930 . S
C668 N669 1.314 . S
C668 C670 1.353 . S
C668 H674 0.930 . S
N669 Li619 1.990 . S
N669 C668 1.314 . S
N669 C672 1.279 . S
C670 C668 1.353 . S
C670 C673 1.348 . S
C670 H702 0.929 . S
C671 C672 1.358 . S
C671 C673 1.356 . S
C671 H703 0.930 . S
C672 N669 1.279 . S
C672 C671 1.358 . S
C672 H675 0.930 . S
C673 C670 1.348 . S
C673 C671 1.356 . S
H674 C668 0.930 . S
H675 C672 0.930 . S
O676 Li616 1.956 . S
O676 Li617 1.970 . S
O676 Li618 1.961 . S
O676 C620 1.325 . S
O677 Li616 1.970 . S
O677 Li617 1.956 . S
O677 Li619 1.961 . S
O677 C626 1.325 . S
O678 Li616 1.961 . S
O678 Li618 1.956 . S
O678 Li619 1.970 . S
O678 C648 1.325 . S
O679 Li617 1.961 . S
O679 Li618 1.970 . S
O679 Li619 1.956 . S
O679 C654 1.325 . S
H680 C622 0.929 . S
H681 C623 0.930 . S
H682 C624 0.930 . S
H683 C625 0.930 . S
H684 C627 0.930 . S
H685 C629 0.929 . S
H686 C630 0.930 . S
H687 C631 0.930 . S
H688 C634 0.930 . S
H689 C637 0.929 . S
H690 C642 0.929 . S
H691 C643 0.930 . S
H692 C650 0.929 . S
H693 C651 0.930 . S
H694 C652 0.930 . S
H695 C653 0.930 . S
H696 C655 0.929 . S
H697 C656 0.930 . S
H698 C657 0.930 . S
H699 C658 0.930 . S
H700 C662 0.929 . S
H701 C664 0.930 . S
H702 C670 0.929 . S
H703 C671 0.930 . S
Li704 N721 1.990 . S
Li704 O764 1.956 . S
Li704 O765 1.970 . S
Li704 O766 1.961 . S
Li705 N729 1.990 . S
Li705 O764 1.970 . S
Li705 O765 1.956 . S
Li705 O767 1.961 . S
Li706 N751 1.990 . S
Li706 O764 1.961 . S
Li706 O766 1.956 . S
Li706 O767 1.970 . S
Li707 N757 1.990 . S
Li707 O765 1.961 . S
Li707 O766 1.970 . S
Li707 O767 1.956 . S
C708 C710 1.348 . S
C708 C711 1.356 . S
C708 O764 1.325 . S
N709 C712 1.314 . S
N709 C713 1.279 . S
C710 C708 1.348 . S
C710 C712 1.353 . S
C710 H768 0.929 . S
C711 C708 1.356 . S
C711 C713 1.358 . S
C711 H769 0.930 . S
C712 N709 1.314 . S
C712 C710 1.353 . S
C712 H770 0.930 . S
C713 N709 1.279 . S
C713 C711 1.358 . S
C713 H771 0.930 . S
C714 C717 1.348 . S
C714 C718 1.356 . S
C714 O765 1.325 . S
C715 N716 1.279 . S
C715 C718 1.358 . S
C715 H772 0.930 . S
N716 C715 1.279 . S
N716 C719 1.314 . S
C717 C714 1.348 . S
C717 C719 1.353 . S
C717 H773 0.929 . S
C718 C714 1.356 . S
C718 C715 1.358 . S
C718 H774 0.930 . S
C719 N716 1.314 . S
C719 C717 1.353 . S
C719 H775 0.930 . S
C720 N721 1.314 . S
C720 C725 1.353 . S
C720 H726 0.930 . S
N721 Li704 1.990 . S
N721 C720 1.314 . S
N721 C723 1.279 . S
C722 C723 1.358 . S
C722 C724 1.356 . S
C722 H776 0.930 . S
C723 N721 1.279 . S
C723 C722 1.358 . S
C723 H727 0.930 . S
C724 C722 1.356 . S
C724 C725 1.348 . S
C725 C720 1.353 . S
C725 C724 1.348 . S
C725 H777 0.929 . S
H726 C720 0.930 . S
H727 C723 0.930 . S
C728 N729 1.314 . S
C728 C730 1.353 . S
C728 H734 0.930 . S
N729 Li705 1.990 . S
N729 C728 1.314 . S
N729 C732 1.279 . S
C730 C728 1.353 . S
C730 C733 1.348 . S
C730 H778 0.929 . S
C731 C732 1.358 . S
C731 C733 1.356 . S
C731 H779 0.930 . S
C732 N729 1.279 . S
C732 C731 1.358 . S
C732 H735 0.930 . S
C733 C730 1.348 . S
C733 C731 1.356 . S
H734 C728 0.930 . S
H735 C732 0.930 . S
C736 C738 1.348 . S
C736 C739 1.356 . S
C736 O766 1.325 . S
N737 C740 1.314 . S
N737 C741 1.279 . S
C738 C736 1.348 . S
C738 C740 1.353 . S
C738 H780 0.929 . S
C739 C736 1.356 . S
C739 C741 1.358 . S
C739 H781 0.930 . S
C740 N737 1.314 . S
C740 C738 1.353 . S
C740 H782 0.930 . S
C741 N737 1.279 . S
C741 C739 1.358 . S
C741 H783 0.930 . S
C742 C743 1.348 . S
C742 C744 1.356 . S
C742 O767 1.325 . S
C743 C742 1.348 . S
C743 C745 1.353 . S
C743 H784 0.929 . S
C744 C742 1.356 . S
C744 C746 1.358 . S
C744 H785 0.930 . S
C745 C743 1.353 . S
C745 N747 1.314 . S
C745 H786 0.930 . S
C746 C744 1.358 . S
C746 N747 1.279 . S
C746 H787 0.930 . S
N747 C745 1.314 . S
N747 C746 1.279 . S
C748 C750 1.353 . S
C748 N751 1.314 . S
C748 H754 0.930 . S
C749 N751 1.279 . S
C749 C752 1.358 . S
C749 H755 0.930 . S
C750 C748 1.353 . S
C750 C753 1.348 . S
C750 H788 0.929 . S
N751 Li706 1.990 . S
N751 C748 1.314 . S
N751 C749 1.279 . S
C752 C749 1.358 . S
C752 C753 1.356 . S
C752 H789 0.930 . S
C753 C750 1.348 . S
C753 C752 1.356 . S
H754 C748 0.930 . S
H755 C749 0.930 . S
C756 N757 1.314 . S
C756 C758 1.353 . S
C756 H762 0.930 . S
N757 Li707 1.990 . S
N757 C756 1.314 . S
N757 C760 1.279 . S
C758 C756 1.353 . S
C758 C761 1.348 . S
C758 H790 0.929 . S
C759 C760 1.358 . S
C759 C761 1.356 . S
C759 H791 0.930 . S
C760 N757 1.279 . S
C760 C759 1.358 . S
C760 H763 0.930 . S
C761 C758 1.348 . S
C761 C759 1.356 . S
H762 C756 0.930 . S
H763 C760 0.930 . S
O764 Li704 1.956 . S
O764 Li705 1.970 . S
O764 Li706 1.961 . S
O764 C708 1.325 . S
O765 Li704 1.970 . S
O765 Li705 1.956 . S
O765 Li707 1.961 . S
O765 C714 1.325 . S
O766 Li704 1.961 . S
O766 Li706 1.956 . S
O766 Li707 1.970 . S
O766 C736 1.325 . S
O767 Li705 1.961 . S
O767 Li706 1.970 . S
O767 Li707 1.956 . S
O767 C742 1.325 . S
H768 C710 0.929 . S
H769 C711 0.930 . S
H770 C712 0.930 . S
H771 C713 0.930 . S
H772 C715 0.930 . S
H773 C717 0.929 . S
H774 C718 0.930 . S
H775 C719 0.930 . S
H776 C722 0.930 . S
H777 C725 0.929 . S
H778 C730 0.929 . S
H779 C731 0.930 . S
H780 C738 0.929 . S
H781 C739 0.930 . S
H782 C740 0.930 . S
H783 C741 0.930 . S
H784 C743 0.929 . S
H785 C744 0.930 . S
H786 C745 0.930 . S
H787 C746 0.930 . S
H788 C750 0.929 . S
H789 C752 0.930 . S
H790 C758 0.929 . S
H791 C759 0.930 . S
Li792 N809 1.990 . S
Li792 O852 1.956 . S
Li792 O853 1.970 . S
Li792 O854 1.961 . S
Li793 N817 1.990 . S
Li793 O852 1.970 . S
Li793 O853 1.956 . S
Li793 O855 1.961 . S
Li794 N839 1.990 . S
Li794 O852 1.961 . S
Li794 O854 1.956 . S
Li794 O855 1.970 . S
Li795 N845 1.990 . S
Li795 O853 1.961 . S
Li795 O854 1.970 . S
Li795 O855 1.956 . S
C796 C798 1.348 . S
C796 C799 1.356 . S
C796 O852 1.325 . S
N797 C800 1.314 . S
N797 C801 1.279 . S
C798 C796 1.348 . S
C798 C800 1.353 . S
C798 H856 0.929 . S
C799 C796 1.356 . S
C799 C801 1.358 . S
C799 H857 0.930 . S
C800 N797 1.314 . S
C800 C798 1.353 . S
C800 H858 0.930 . S
C801 N797 1.279 . S
C801 C799 1.358 . S
C801 H859 0.930 . S
C802 C805 1.348 . S
C802 C806 1.356 . S
C802 O853 1.325 . S
C803 N804 1.279 . S
C803 C806 1.358 . S
C803 H860 0.930 . S
N804 C803 1.279 . S
N804 C807 1.314 . S
C805 C802 1.348 . S
C805 C807 1.353 . S
C805 H861 0.929 . S
C806 C802 1.356 . S
C806 C803 1.358 . S
C806 H862 0.930 . S
C807 N804 1.314 . S
C807 C805 1.353 . S
C807 H863 0.930 . S
C808 N809 1.314 . S
C808 C813 1.353 . S
C808 H814 0.930 . S
N809 Li792 1.990 . S
N809 C808 1.314 . S
N809 C811 1.279 . S
C810 C811 1.358 . S
C810 C812 1.356 . S
C810 H864 0.930 . S
C811 N809 1.279 . S
C811 C810 1.358 . S
C811 H815 0.930 . S
C812 C810 1.356 . S
C812 C813 1.348 . S
C813 C808 1.353 . S
C813 C812 1.348 . S
C813 H865 0.929 . S
H814 C808 0.930 . S
H815 C811 0.930 . S
C816 N817 1.314 . S
C816 C818 1.353 . S
C816 H822 0.930 . S
N817 Li793 1.990 . S
N817 C816 1.314 . S
N817 C820 1.279 . S
C818 C816 1.353 . S
C818 C821 1.348 . S
C818 H866 0.929 . S
C819 C820 1.358 . S
C819 C821 1.356 . S
C819 H867 0.930 . S
C820 N817 1.279 . S
C820 C819 1.358 . S
C820 H823 0.930 . S
C821 C818 1.348 . S
C821 C819 1.356 . S
H822 C816 0.930 . S
H823 C820 0.930 . S
C824 C826 1.348 . S
C824 C827 1.356 . S
C824 O854 1.325 . S
N825 C828 1.314 . S
N825 C829 1.279 . S
C826 C824 1.348 . S
C826 C828 1.353 . S
C826 H868 0.929 . S
C827 C824 1.356 . S
C827 C829 1.358 . S
C827 H869 0.930 . S
C828 N825 1.314 . S
C828 C826 1.353 . S
C828 H870 0.930 . S
C829 N825 1.279 . S
C829 C827 1.358 . S
C829 H871 0.930 . S
C830 C831 1.348 . S
C830 C832 1.356 . S
C830 O855 1.325 . S
C831 C830 1.348 . S
C831 C833 1.353 1_545 S
C831 H872 0.929 . S
C832 C830 1.356 . S
C832 C834 1.358 1_545 S
C832 H873 0.930 . S
C833 C831 1.353 1_565 S
C833 N835 1.314 . S
C833 H874 0.930 . S
C834 C832 1.358 1_565 S
C834 N835 1.279 . S
C834 H875 0.930 . S
N835 C833 1.314 . S
N835 C834 1.279 . S
C836 C838 1.353 . S
C836 N839 1.314 . S
C836 H842 0.930 . S
C837 N839 1.279 . S
C837 C840 1.358 . S
C837 H843 0.930 . S
C838 C836 1.353 . S
C838 C841 1.348 . S
C838 H876 0.929 . S
N839 Li794 1.990 . S
N839 C836 1.314 . S
N839 C837 1.279 . S
C840 C837 1.358 . S
C840 C841 1.356 . S
C840 H877 0.930 . S
C841 C838 1.348 . S
C841 C840 1.356 . S
H842 C836 0.930 . S
H843 C837 0.930 . S
C844 N845 1.314 . S
C844 C846 1.353 . S
C844 H850 0.930 . S
N845 Li795 1.990 . S
N845 C844 1.314 . S
N845 C848 1.279 . S
C846 C844 1.353 . S
C846 C849 1.348 . S
C846 H878 0.929 . S
C847 C848 1.358 . S
C847 C849 1.356 . S
C847 H879 0.930 . S
C848 N845 1.279 . S
C848 C847 1.358 . S
C848 H851 0.930 . S
C849 C846 1.348 . S
C849 C847 1.356 . S
H850 C844 0.930 . S
H851 C848 0.930 . S
O852 Li792 1.956 . S
O852 Li793 1.970 . S
O852 Li794 1.961 . S
O852 C796 1.325 . S
O853 Li792 1.970 . S
O853 Li793 1.956 . S
O853 Li795 1.961 . S
O853 C802 1.325 . S
O854 Li792 1.961 . S
O854 Li794 1.956 . S
O854 Li795 1.970 . S
O854 C824 1.325 . S
O855 Li793 1.961 . S
O855 Li794 1.970 . S
O855 Li795 1.956 . S
O855 C830 1.325 . S
H856 C798 0.929 . S
H857 C799 0.930 . S
H858 C800 0.930 . S
H859 C801 0.930 . S
H860 C803 0.930 . S
H861 C805 0.929 . S
H862 C806 0.930 . S
H863 C807 0.930 . S
H864 C810 0.930 . S
H865 C813 0.929 . S
H866 C818 0.929 . S
H867 C819 0.930 . S
H868 C826 0.929 . S
H869 C827 0.930 . S
H870 C828 0.930 . S
H871 C829 0.930 . S
H872 C831 0.929 . S
H873 C832 0.930 . S
H874 C833 0.930 . S
H875 C834 0.930 . S
H876 C838 0.929 . S
H877 C840 0.930 . S
H878 C846 0.929 . S
H879 C847 0.930 . S
Li880 N897 1.990 . S
Li880 O940 1.956 . S
Li880 O941 1.970 . S
Li880 O942 1.961 . S
Li881 N905 1.990 . S
Li881 O940 1.970 . S
Li881 O941 1.956 . S
Li881 O943 1.961 . S
Li882 N927 1.990 . S
Li882 O940 1.961 . S
Li882 O942 1.956 . S
Li882 O943 1.970 . S
Li883 N933 1.990 . S
Li883 O941 1.961 . S
Li883 O942 1.970 . S
Li883 O943 1.956 . S
C884 C886 1.348 . S
C884 C887 1.356 . S
C884 O940 1.325 . S
N885 C888 1.314 . S
N885 C889 1.279 . S
C886 C884 1.348 . S
C886 C888 1.353 . S
C886 H944 0.929 . S
C887 C884 1.356 . S
C887 C889 1.358 . S
C887 H945 0.930 . S
C888 N885 1.314 . S
C888 C886 1.353 . S
C888 H946 0.930 . S
C889 N885 1.279 . S
C889 C887 1.358 . S
C889 H947 0.930 . S
C890 C893 1.348 . S
C890 C894 1.356 . S
C890 O941 1.325 . S
C891 N892 1.279 . S
C891 C894 1.358 . S
C891 H948 0.930 . S
N892 C891 1.279 . S
N892 C895 1.314 . S
C893 C890 1.348 . S
C893 C895 1.353 . S
C893 H949 0.929 . S
C894 C890 1.356 . S
C894 C891 1.358 . S
C894 H950 0.930 . S
C895 N892 1.314 . S
C895 C893 1.353 . S
C895 H951 0.930 . S
C896 N897 1.314 . S
C896 C901 1.353 . S
C896 H902 0.930 . S
N897 Li880 1.990 . S
N897 C896 1.314 . S
N897 C899 1.279 . S
C898 C899 1.358 . S
C898 C900 1.356 . S
C898 H952 0.930 . S
C899 N897 1.279 . S
C899 C898 1.358 . S
C899 H903 0.930 . S
C900 C898 1.356 . S
C900 C901 1.348 . S
C901 C896 1.353 . S
C901 C900 1.348 . S
C901 H953 0.929 . S
H902 C896 0.930 . S
H903 C899 0.930 . S
C904 N905 1.314 . S
C904 C906 1.353 . S
C904 H910 0.930 . S
N905 Li881 1.990 . S
N905 C904 1.314 . S
N905 C908 1.279 . S
C906 C904 1.353 . S
C906 C909 1.348 . S
C906 H954 0.929 . S
C907 C908 1.358 . S
C907 C909 1.356 . S
C907 H955 0.930 . S
C908 N905 1.279 . S
C908 C907 1.358 . S
C908 H911 0.930 . S
C909 C906 1.348 . S
C909 C907 1.356 . S
H910 C904 0.930 . S
H911 C908 0.930 . S
C912 C914 1.348 . S
C912 C915 1.356 . S
C912 O942 1.325 . S
N913 C916 1.314 . S
N913 C917 1.279 . S
C914 C912 1.348 . S
C914 C916 1.353 . S
C914 H956 0.929 . S
C915 C912 1.356 . S
C915 C917 1.358 . S
C915 H957 0.930 . S
C916 N913 1.314 . S
C916 C914 1.353 . S
C916 H958 0.930 . S
C917 N913 1.279 . S
C917 C915 1.358 . S
C917 H959 0.930 . S
C918 C919 1.348 . S
C918 C920 1.356 . S
C918 O943 1.325 . S
C919 C918 1.348 . S
C919 C921 1.353 . S
C919 H960 0.929 . S
C920 C918 1.356 . S
C920 C922 1.358 . S
C920 H961 0.930 . S
C921 C919 1.353 . S
C921 N923 1.314 . S
C921 H962 0.930 . S
C922 C920 1.358 . S
C922 N923 1.279 . S
C922 H963 0.930 . S
N923 C921 1.314 . S
N923 C922 1.279 . S
C924 C926 1.353 . S
C924 N927 1.314 . S
C924 H930 0.930 . S
C925 N927 1.279 . S
C925 C928 1.358 . S
C925 H931 0.930 . S
C926 C924 1.353 . S
C926 C929 1.348 . S
C926 H964 0.929 . S
N927 Li882 1.990 . S
N927 C924 1.314 . S
N927 C925 1.279 . S
C928 C925 1.358 . S
C928 C929 1.356 . S
C928 H965 0.930 . S
C929 C926 1.348 . S
C929 C928 1.356 . S
H930 C924 0.930 . S
H931 C925 0.930 . S
C932 N933 1.314 . S
C932 C934 1.353 . S
C932 H938 0.930 . S
N933 Li883 1.990 . S
N933 C932 1.314 . S
N933 C936 1.279 . S
C934 C932 1.353 . S
C934 C937 1.348 . S
C934 H966 0.929 . S
C935 C936 1.358 . S
C935 C937 1.356 . S
C935 H967 0.930 . S
C936 N933 1.279 . S
C936 C935 1.358 . S
C936 H939 0.930 . S
C937 C934 1.348 . S
C937 C935 1.356 . S
H938 C932 0.930 . S
H939 C936 0.930 . S
O940 Li880 1.956 . S
O940 Li881 1.970 . S
O940 Li882 1.961 . S
O940 C884 1.325 . S
O941 Li880 1.970 . S
O941 Li881 1.956 . S
O941 Li883 1.961 . S
O941 C890 1.325 . S
O942 Li880 1.961 . S
O942 Li882 1.956 . S
O942 Li883 1.970 . S
O942 C912 1.325 . S
O943 Li881 1.961 . S
O943 Li882 1.970 . S
O943 Li883 1.956 . S
O943 C918 1.325 . S
H944 C886 0.929 . S
H945 C887 0.930 . S
H946 C888 0.930 . S
H947 C889 0.930 . S
H948 C891 0.930 . S
H949 C893 0.929 . S
H950 C894 0.930 . S
H951 C895 0.930 . S
H952 C898 0.930 . S
H953 C901 0.929 . S
H954 C906 0.929 . S
H955 C907 0.930 . S
H956 C914 0.929 . S
H957 C915 0.930 . S
H958 C916 0.930 . S
H959 C917 0.930 . S
H960 C919 0.929 . S
H961 C920 0.930 . S
H962 C921 0.930 . S
H963 C922 0.930 . S
H964 C926 0.929 . S
H965 C928 0.930 . S
H966 C934 0.929 . S
H967 C935 0.930 . S
Li968 N985 1.990 . S
Li968 O1028 1.956 . S
Li968 O1029 1.970 . S
Li968 O1030 1.961 . S
Li969 N993 1.990 . S
Li969 O1028 1.970 . S
Li969 O1029 1.956 . S
Li969 O1031 1.961 . S
Li970 N1015 1.990 . S
Li970 O1028 1.961 . S
Li970 O1030 1.956 . S
Li970 O1031 1.970 . S
Li971 N1021 1.990 . S
Li971 O1029 1.961 . S
Li971 O1030 1.970 . S
Li971 O1031 1.956 . S
C972 C974 1.348 . S
C972 C975 1.356 . S
C972 O1028 1.325 . S
N973 C976 1.314 . S
N973 C977 1.279 . S
C974 C972 1.348 . S
C974 C976 1.353 . S
C974 H1032 0.929 . S
C975 C972 1.356 . S
C975 C977 1.358 . S
C975 H1033 0.930 . S
C976 N973 1.314 . S
C976 C974 1.353 . S
C976 H1034 0.930 . S
C977 N973 1.279 . S
C977 C975 1.358 . S
C977 H1035 0.930 . S
C978 C981 1.348 . S
C978 C982 1.356 . S
C978 O1029 1.325 . S
C979 N980 1.279 . S
C979 C982 1.358 1_545 S
C979 H1036 0.930 . S
N980 C979 1.279 . S
N980 C983 1.314 . S
C981 C978 1.348 . S
C981 C983 1.353 1_565 S
C981 H1037 0.929 . S
C982 C978 1.356 . S
C982 C979 1.358 1_565 S
C982 H1038 0.930 . S
C983 N980 1.314 . S
C983 C981 1.353 1_545 S
C983 H1039 0.930 . S
C984 N985 1.314 . S
C984 C989 1.353 . S
C984 H990 0.930 . S
N985 Li968 1.990 . S
N985 C984 1.314 . S
N985 C987 1.279 . S
C986 C987 1.358 . S
C986 C988 1.356 . S
C986 H1040 0.930 . S
C987 N985 1.279 . S
C987 C986 1.358 . S
C987 H991 0.930 . S
C988 C986 1.356 . S
C988 C989 1.348 . S
C989 C984 1.353 . S
C989 C988 1.348 . S
C989 H1041 0.929 . S
H990 C984 0.930 . S
H991 C987 0.930 . S
C992 N993 1.314 . S
C992 C994 1.353 . S
C992 H998 0.930 . S
N993 Li969 1.990 . S
N993 C992 1.314 . S
N993 C996 1.279 . S
C994 C992 1.353 . S
C994 C997 1.348 . S
C994 H1042 0.929 . S
C995 C996 1.358 . S
C995 C997 1.356 . S
C995 H1043 0.930 . S
C996 N993 1.279 . S
C996 C995 1.358 . S
C996 H999 0.930 . S
C997 C994 1.348 . S
C997 C995 1.356 . S
H998 C992 0.930 . S
H999 C996 0.930 . S
C1000 C1002 1.348 . S
C1000 C1003 1.356 . S
C1000 O1030 1.325 . S
N1001 C1004 1.314 . S
N1001 C1005 1.279 . S
C1002 C1000 1.348 . S
C1002 C1004 1.353 . S
C1002 H1044 0.929 . S
C1003 C1000 1.356 . S
C1003 C1005 1.358 . S
C1003 H1045 0.930 . S
C1004 N1001 1.314 . S
C1004 C1002 1.353 . S
C1004 H1046 0.930 . S
C1005 N1001 1.279 . S
C1005 C1003 1.358 . S
C1005 H1047 0.930 . S
C1006 C1007 1.348 . S
C1006 C1008 1.356 . S
C1006 O1031 1.325 . S
C1007 C1006 1.348 . S
C1007 C1009 1.353 . S
C1007 H1048 0.929 . S
C1008 C1006 1.356 . S
C1008 C1010 1.358 . S
C1008 H1049 0.930 . S
C1009 C1007 1.353 . S
C1009 N1011 1.314 . S
C1009 H1050 0.930 . S
C1010 C1008 1.358 . S
C1010 N1011 1.279 . S
C1010 H1051 0.930 . S
N1011 C1009 1.314 . S
N1011 C1010 1.279 . S
C1012 C1014 1.353 . S
C1012 N1015 1.314 . S
C1012 H1018 0.930 . S
C1013 N1015 1.279 . S
C1013 C1016 1.358 . S
C1013 H1019 0.930 . S
C1014 C1012 1.353 . S
C1014 C1017 1.348 . S
C1014 H1052 0.929 . S
N1015 Li970 1.990 . S
N1015 C1012 1.314 . S
N1015 C1013 1.279 . S
C1016 C1013 1.358 . S
C1016 C1017 1.356 . S
C1016 H1053 0.930 . S
C1017 C1014 1.348 . S
C1017 C1016 1.356 . S
H1018 C1012 0.930 . S
H1019 C1013 0.930 . S
C1020 N1021 1.314 . S
C1020 C1022 1.353 . S
C1020 H1026 0.930 . S
N1021 Li971 1.990 . S
N1021 C1020 1.314 . S
N1021 C1024 1.279 . S
C1022 C1020 1.353 . S
C1022 C1025 1.348 . S
C1022 H1054 0.929 . S
C1023 C1024 1.358 . S
C1023 C1025 1.356 . S
C1023 H1055 0.930 . S
C1024 N1021 1.279 . S
C1024 C1023 1.358 . S
C1024 H1027 0.930 . S
C1025 C1022 1.348 . S
C1025 C1023 1.356 . S
H1026 C1020 0.930 . S
H1027 C1024 0.930 . S
O1028 Li968 1.956 . S
O1028 Li969 1.970 . S
O1028 Li970 1.961 . S
O1028 C972 1.325 . S
O1029 Li968 1.970 . S
O1029 Li969 1.956 . S
O1029 Li971 1.961 . S
O1029 C978 1.325 . S
O1030 Li968 1.961 . S
O1030 Li970 1.956 . S
O1030 Li971 1.970 . S
O1030 C1000 1.325 . S
O1031 Li969 1.961 . S
O1031 Li970 1.970 . S
O1031 Li971 1.956 . S
O1031 C1006 1.325 . S
H1032 C974 0.929 . S
H1033 C975 0.930 . S
H1034 C976 0.930 . S
H1035 C977 0.930 . S
H1036 C979 0.930 . S
H1037 C981 0.929 . S
H1038 C982 0.930 . S
H1039 C983 0.930 . S
H1040 C986 0.930 . S
H1041 C989 0.929 . S
H1042 C994 0.929 . S
H1043 C995 0.930 . S
H1044 C1002 0.929 . S
H1045 C1003 0.930 . S
H1046 C1004 0.930 . S
H1047 C1005 0.930 . S
H1048 C1007 0.929 . S
H1049 C1008 0.930 . S
H1050 C1009 0.930 . S
H1051 C1010 0.930 . S
H1052 C1014 0.929 . S
H1053 C1016 0.930 . S
H1054 C1022 0.929 . S
H1055 C1023 0.930 . S
Li1056 N1073 1.990 . S
Li1056 O1116 1.956 . S
Li1056 O1117 1.970 . S
Li1056 O1118 1.961 . S
Li1057 N1081 1.990 . S
Li1057 O1116 1.970 . S
Li1057 O1117 1.956 . S
Li1057 O1119 1.961 . S
Li1058 N1103 1.990 . S
Li1058 O1116 1.961 . S
Li1058 O1118 1.956 . S
Li1058 O1119 1.970 . S
Li1059 N1109 1.990 . S
Li1059 O1117 1.961 . S
Li1059 O1118 1.970 . S
Li1059 O1119 1.956 . S
C1060 C1062 1.348 . S
C1060 C1063 1.356 . S
C1060 O1116 1.325 . S
N1061 C1064 1.314 . S
N1061 C1065 1.279 . S
C1062 C1060 1.348 . S
C1062 C1064 1.353 . S
C1062 H1120 0.929 . S
C1063 C1060 1.356 . S
C1063 C1065 1.358 . S
C1063 H1121 0.930 . S
C1064 N1061 1.314 . S
C1064 C1062 1.353 . S
C1064 H1122 0.930 . S
C1065 N1061 1.279 . S
C1065 C1063 1.358 . S
C1065 H1123 0.930 . S
C1066 C1069 1.348 . S
C1066 C1070 1.356 . S
C1066 O1117 1.325 . S
C1067 N1068 1.279 . S
C1067 C1070 1.358 . S
C1067 H1124 0.930 . S
N1068 C1067 1.279 . S
N1068 C1071 1.314 . S
C1069 C1066 1.348 . S
C1069 C1071 1.353 . S
C1069 H1125 0.929 . S
C1070 C1066 1.356 . S
C1070 C1067 1.358 . S
C1070 H1126 0.930 . S
C1071 N1068 1.314 . S
C1071 C1069 1.353 . S
C1071 H1127 0.930 . S
C1072 N1073 1.314 . S
C1072 C1077 1.353 . S
C1072 H1078 0.930 . S
N1073 Li1056 1.990 . S
N1073 C1072 1.314 . S
N1073 C1075 1.279 . S
C1074 C1075 1.358 . S
C1074 C1076 1.356 . S
C1074 H1128 0.930 . S
C1075 N1073 1.279 . S
C1075 C1074 1.358 . S
C1075 H1079 0.930 . S
C1076 C1074 1.356 . S
C1076 C1077 1.348 . S
C1077 C1072 1.353 . S
C1077 C1076 1.348 . S
C1077 H1129 0.929 . S
H1078 C1072 0.930 . S
H1079 C1075 0.930 . S
C1080 N1081 1.314 . S
C1080 C1082 1.353 . S
C1080 H1086 0.930 . S
N1081 Li1057 1.990 . S
N1081 C1080 1.314 . S
N1081 C1084 1.279 . S
C1082 C1080 1.353 . S
C1082 C1085 1.348 . S
C1082 H1130 0.929 . S
C1083 C1084 1.358 . S
C1083 C1085 1.356 . S
C1083 H1131 0.930 . S
C1084 N1081 1.279 . S
C1084 C1083 1.358 . S
C1084 H1087 0.930 . S
C1085 C1082 1.348 . S
C1085 C1083 1.356 . S
H1086 C1080 0.930 . S
H1087 C1084 0.930 . S
C1088 C1090 1.348 . S
C1088 C1091 1.356 . S
C1088 O1118 1.325 . S
N1089 C1092 1.314 . S
N1089 C1093 1.279 . S
C1090 C1088 1.348 . S
C1090 C1092 1.353 . S
C1090 H1132 0.929 . S
C1091 C1088 1.356 . S
C1091 C1093 1.358 . S
C1091 H1133 0.930 . S
C1092 N1089 1.314 . S
C1092 C1090 1.353 . S
C1092 H1134 0.930 . S
C1093 N1089 1.279 . S
C1093 C1091 1.358 . S
C1093 H1135 0.930 . S
C1094 C1095 1.348 . S
C1094 C1096 1.356 . S
C1094 O1119 1.325 . S
C1095 C1094 1.348 . S
C1095 C1097 1.353 . S
C1095 H1136 0.929 . S
C1096 C1094 1.356 . S
C1096 C1098 1.358 . S
C1096 H1137 0.930 . S
C1097 C1095 1.353 . S
C1097 N1099 1.314 . S
C1097 H1138 0.930 . S
C1098 C1096 1.358 . S
C1098 N1099 1.279 . S
C1098 H1139 0.930 . S
N1099 C1097 1.314 . S
N1099 C1098 1.279 . S
C1100 C1102 1.353 . S
C1100 N1103 1.314 . S
C1100 H1106 0.930 . S
C1101 N1103 1.279 . S
C1101 C1104 1.358 . S
C1101 H1107 0.930 . S
C1102 C1100 1.353 . S
C1102 C1105 1.348 . S
C1102 H1140 0.929 . S
N1103 Li1058 1.990 . S
N1103 C1100 1.314 . S
N1103 C1101 1.279 . S
C1104 C1101 1.358 . S
C1104 C1105 1.356 . S
C1104 H1141 0.930 . S
C1105 C1102 1.348 . S
C1105 C1104 1.356 . S
H1106 C1100 0.930 . S
H1107 C1101 0.930 . S
C1108 N1109 1.314 . S
C1108 C1110 1.353 . S
C1108 H1114 0.930 . S
N1109 Li1059 1.990 . S
N1109 C1108 1.314 . S
N1109 C1112 1.279 . S
C1110 C1108 1.353 . S
C1110 C1113 1.348 . S
C1110 H1142 0.929 . S
C1111 C1112 1.358 . S
C1111 C1113 1.356 . S
C1111 H1143 0.930 . S
C1112 N1109 1.279 . S
C1112 C1111 1.358 . S
C1112 H1115 0.930 . S
C1113 C1110 1.348 . S
C1113 C1111 1.356 . S
H1114 C1108 0.930 . S
H1115 C1112 0.930 . S
O1116 Li1056 1.956 . S
O1116 Li1057 1.970 . S
O1116 Li1058 1.961 . S
O1116 C1060 1.325 . S
O1117 Li1056 1.970 . S
O1117 Li1057 1.956 . S
O1117 Li1059 1.961 . S
O1117 C1066 1.325 . S
O1118 Li1056 1.961 . S
O1118 Li1058 1.956 . S
O1118 Li1059 1.970 . S
O1118 C1088 1.325 . S
O1119 Li1057 1.961 . S
O1119 Li1058 1.970 . S
O1119 Li1059 1.956 . S
O1119 C1094 1.325 . S
H1120 C1062 0.929 . S
H1121 C1063 0.930 . S
H1122 C1064 0.930 . S
H1123 C1065 0.930 . S
H1124 C1067 0.930 . S
H1125 C1069 0.929 . S
H1126 C1070 0.930 . S
H1127 C1071 0.930 . S
H1128 C1074 0.930 . S
H1129 C1077 0.929 . S
H1130 C1082 0.929 . S
H1131 C1083 0.930 . S
H1132 C1090 0.929 . S
H1133 C1091 0.930 . S
H1134 C1092 0.930 . S
H1135 C1093 0.930 . S
H1136 C1095 0.929 . S
H1137 C1096 0.930 . S
H1138 C1097 0.930 . S
H1139 C1098 0.930 . S
H1140 C1102 0.929 . S
H1141 C1104 0.930 . S
H1142 C1110 0.929 . S
H1143 C1111 0.930 . S
Li1144 N1161 1.990 . S
Li1144 O1204 1.956 . S
Li1144 O1205 1.970 . S
Li1144 O1206 1.961 . S
Li1145 N1169 1.990 . S
Li1145 O1204 1.970 . S
Li1145 O1205 1.956 . S
Li1145 O1207 1.961 . S
Li1146 N1191 1.990 . S
Li1146 O1204 1.961 . S
Li1146 O1206 1.956 . S
Li1146 O1207 1.970 . S
Li1147 N1197 1.990 . S
Li1147 O1205 1.961 . S
Li1147 O1206 1.970 . S
Li1147 O1207 1.956 . S
C1148 C1150 1.348 . S
C1148 C1151 1.356 . S
C1148 O1204 1.325 . S
N1149 C1152 1.314 . S
N1149 C1153 1.279 . S
C1150 C1148 1.348 . S
C1150 C1152 1.353 . S
C1150 H1208 0.929 . S
C1151 C1148 1.356 . S
C1151 C1153 1.358 . S
C1151 H1209 0.930 . S
C1152 N1149 1.314 . S
C1152 C1150 1.353 . S
C1152 H1210 0.930 . S
C1153 N1149 1.279 . S
C1153 C1151 1.358 . S
C1153 H1211 0.930 . S
C1154 C1157 1.348 . S
C1154 C1158 1.356 . S
C1154 O1205 1.325 . S
C1155 N1156 1.279 . S
C1155 C1158 1.358 . S
C1155 H1212 0.930 . S
N1156 C1155 1.279 . S
N1156 C1159 1.314 . S
C1157 C1154 1.348 . S
C1157 C1159 1.353 . S
C1157 H1213 0.929 . S
C1158 C1154 1.356 . S
C1158 C1155 1.358 . S
C1158 H1214 0.930 . S
C1159 N1156 1.314 . S
C1159 C1157 1.353 . S
C1159 H1215 0.930 . S
C1160 N1161 1.314 . S
C1160 C1165 1.353 . S
C1160 H1166 0.930 . S
N1161 Li1144 1.990 . S
N1161 C1160 1.314 . S
N1161 C1163 1.279 . S
C1162 C1163 1.358 . S
C1162 C1164 1.356 . S
C1162 H1216 0.930 . S
C1163 N1161 1.279 . S
C1163 C1162 1.358 . S
C1163 H1167 0.930 . S
C1164 C1162 1.356 . S
C1164 C1165 1.348 . S
C1165 C1160 1.353 . S
C1165 C1164 1.348 . S
C1165 H1217 0.929 . S
H1166 C1160 0.930 . S
H1167 C1163 0.930 . S
C1168 N1169 1.314 . S
C1168 C1170 1.353 . S
C1168 H1174 0.930 . S
N1169 Li1145 1.990 . S
N1169 C1168 1.314 . S
N1169 C1172 1.279 . S
C1170 C1168 1.353 . S
C1170 C1173 1.348 . S
C1170 H1218 0.929 . S
C1171 C1172 1.358 . S
C1171 C1173 1.356 . S
C1171 H1219 0.930 . S
C1172 N1169 1.279 . S
C1172 C1171 1.358 . S
C1172 H1175 0.930 . S
C1173 C1170 1.348 . S
C1173 C1171 1.356 . S
H1174 C1168 0.930 . S
H1175 C1172 0.930 . S
C1176 C1178 1.348 . S
C1176 C1179 1.356 . S
C1176 O1206 1.325 . S
N1177 C1180 1.314 . S
N1177 C1181 1.279 . S
C1178 C1176 1.348 . S
C1178 C1180 1.353 1_545 S
C1178 H1220 0.929 . S
C1179 C1176 1.356 . S
C1179 C1181 1.358 1_545 S
C1179 H1221 0.930 . S
C1180 N1177 1.314 . S
C1180 C1178 1.353 1_565 S
C1180 H1222 0.930 . S
C1181 N1177 1.279 . S
C1181 C1179 1.358 1_565 S
C1181 H1223 0.930 . S
C1182 C1183 1.348 . S
C1182 C1184 1.356 . S
C1182 O1207 1.325 . S
C1183 C1182 1.348 . S
C1183 C1185 1.353 . S
C1183 H1224 0.929 . S
C1184 C1182 1.356 . S
C1184 C1186 1.358 . S
C1184 H1225 0.930 . S
C1185 C1183 1.353 . S
C1185 N1187 1.314 . S
C1185 H1226 0.930 . S
C1186 C1184 1.358 . S
C1186 N1187 1.279 . S
C1186 H1227 0.930 . S
N1187 C1185 1.314 . S
N1187 C1186 1.279 . S
C1188 C1190 1.353 . S
C1188 N1191 1.314 . S
C1188 H1194 0.930 . S
C1189 N1191 1.279 . S
C1189 C1192 1.358 . S
C1189 H1195 0.930 . S
C1190 C1188 1.353 . S
C1190 C1193 1.348 . S
C1190 H1228 0.929 . S
N1191 Li1146 1.990 . S
N1191 C1188 1.314 . S
N1191 C1189 1.279 . S
C1192 C1189 1.358 . S
C1192 C1193 1.356 . S
C1192 H1229 0.930 . S
C1193 C1190 1.348 . S
C1193 C1192 1.356 . S
H1194 C1188 0.930 . S
H1195 C1189 0.930 . S
C1196 N1197 1.314 . S
C1196 C1198 1.353 . S
C1196 H1202 0.930 . S
N1197 Li1147 1.990 . S
N1197 C1196 1.314 . S
N1197 C1200 1.279 . S
C1198 C1196 1.353 . S
C1198 C1201 1.348 . S
C1198 H1230 0.929 . S
C1199 C1200 1.358 . S
C1199 C1201 1.356 . S
C1199 H1231 0.930 . S
C1200 N1197 1.279 . S
C1200 C1199 1.358 . S
C1200 H1203 0.930 . S
C1201 C1198 1.348 . S
C1201 C1199 1.356 . S
H1202 C1196 0.930 . S
H1203 C1200 0.930 . S
O1204 Li1144 1.956 . S
O1204 Li1145 1.970 . S
O1204 Li1146 1.961 . S
O1204 C1148 1.325 . S
O1205 Li1144 1.970 . S
O1205 Li1145 1.956 . S
O1205 Li1147 1.961 . S
O1205 C1154 1.325 . S
O1206 Li1144 1.961 . S
O1206 Li1146 1.956 . S
O1206 Li1147 1.970 . S
O1206 C1176 1.325 . S
O1207 Li1145 1.961 . S
O1207 Li1146 1.970 . S
O1207 Li1147 1.956 . S
O1207 C1182 1.325 . S
H1208 C1150 0.929 . S
H1209 C1151 0.930 . S
H1210 C1152 0.930 . S
H1211 C1153 0.930 . S
H1212 C1155 0.930 . S
H1213 C1157 0.929 . S
H1214 C1158 0.930 . S
H1215 C1159 0.930 . S
H1216 C1162 0.930 . S
H1217 C1165 0.929 . S
H1218 C1170 0.929 . S
H1219 C1171 0.930 . S
H1220 C1178 0.929 . S
H1221 C1179 0.930 . S
H1222 C1180 0.930 . S
H1223 C1181 0.930 . S
H1224 C1183 0.929 . S
H1225 C1184 0.930 . S
H1226 C1185 0.930 . S
H1227 C1186 0.930 . S
H1228 C1190 0.929 . S
H1229 C1192 0.930 . S
H1230 C1198 0.929 . S
H1231 C1199 0.930 . S
Li1232 N1249 1.990 . S
Li1232 O1292 1.956 . S
Li1232 O1293 1.970 . S
Li1232 O1294 1.961 . S
Li1233 N1257 1.990 . S
Li1233 O1292 1.970 . S
Li1233 O1293 1.956 . S
Li1233 O1295 1.961 . S
Li1234 N1279 1.990 . S
Li1234 O1292 1.961 . S
Li1234 O1294 1.956 . S
Li1234 O1295 1.970 . S
Li1235 N1285 1.990 . S
Li1235 O1293 1.961 . S
Li1235 O1294 1.970 . S
Li1235 O1295 1.956 . S
C1236 C1238 1.348 . S
C1236 C1239 1.356 . S
C1236 O1292 1.325 . S
N1237 C1240 1.314 . S
N1237 C1241 1.279 . S
C1238 C1236 1.348 . S
C1238 C1240 1.353 . S
C1238 H1296 0.929 . S
C1239 C1236 1.356 . S
C1239 C1241 1.358 . S
C1239 H1297 0.930 . S
C1240 N1237 1.314 . S
C1240 C1238 1.353 . S
C1240 H1298 0.930 . S
C1241 N1237 1.279 . S
C1241 C1239 1.358 . S
C1241 H1299 0.930 . S
C1242 C1245 1.348 . S
C1242 C1246 1.356 . S
C1242 O1293 1.325 . S
C1243 N1244 1.279 . S
C1243 C1246 1.358 . S
C1243 H1300 0.930 . S
N1244 C1243 1.279 . S
N1244 C1247 1.314 . S
C1245 C1242 1.348 . S
C1245 C1247 1.353 . S
C1245 H1301 0.929 . S
C1246 C1242 1.356 . S
C1246 C1243 1.358 . S
C1246 H1302 0.930 . S
C1247 N1244 1.314 . S
C1247 C1245 1.353 . S
C1247 H1303 0.930 . S
C1248 N1249 1.314 . S
C1248 C1253 1.353 . S
C1248 H1254 0.930 . S
N1249 Li1232 1.990 . S
N1249 C1248 1.314 . S
N1249 C1251 1.279 . S
C1250 C1251 1.358 . S
C1250 C1252 1.356 . S
C1250 H1304 0.930 . S
C1251 N1249 1.279 . S
C1251 C1250 1.358 . S
C1251 H1255 0.930 . S
C1252 C1250 1.356 . S
C1252 C1253 1.348 . S
C1253 C1248 1.353 . S
C1253 C1252 1.348 . S
C1253 H1305 0.929 . S
H1254 C1248 0.930 . S
H1255 C1251 0.930 . S
C1256 N1257 1.314 . S
C1256 C1258 1.353 . S
C1256 H1262 0.930 . S
N1257 Li1233 1.990 . S
N1257 C1256 1.314 . S
N1257 C1260 1.279 . S
C1258 C1256 1.353 . S
C1258 C1261 1.348 . S
C1258 H1306 0.929 . S
C1259 C1260 1.358 . S
C1259 C1261 1.356 . S
C1259 H1307 0.930 . S
C1260 N1257 1.279 . S
C1260 C1259 1.358 . S
C1260 H1263 0.930 . S
C1261 C1258 1.348 . S
C1261 C1259 1.356 . S
H1262 C1256 0.930 . S
H1263 C1260 0.930 . S
C1264 C1266 1.348 . S
C1264 C1267 1.356 . S
C1264 O1294 1.325 . S
N1265 C1268 1.314 . S
N1265 C1269 1.279 . S
C1266 C1264 1.348 . S
C1266 C1268 1.353 . S
C1266 H1308 0.929 . S
C1267 C1264 1.356 . S
C1267 C1269 1.358 . S
C1267 H1309 0.930 . S
C1268 N1265 1.314 . S
C1268 C1266 1.353 . S
C1268 H1310 0.930 . S
C1269 N1265 1.279 . S
C1269 C1267 1.358 . S
C1269 H1311 0.930 . S
C1270 C1271 1.348 . S
C1270 C1272 1.356 . S
C1270 O1295 1.325 . S
C1271 C1270 1.348 . S
C1271 C1273 1.353 . S
C1271 H1312 0.929 . S
C1272 C1270 1.356 . S
C1272 C1274 1.358 . S
C1272 H1313 0.930 . S
C1273 C1271 1.353 . S
C1273 N1275 1.314 . S
C1273 H1314 0.930 . S
C1274 C1272 1.358 . S
C1274 N1275 1.279 . S
C1274 H1315 0.930 . S
N1275 C1273 1.314 . S
N1275 C1274 1.279 . S
C1276 C1278 1.353 . S
C1276 N1279 1.314 . S
C1276 H1282 0.930 . S
C1277 N1279 1.279 . S
C1277 C1280 1.358 . S
C1277 H1283 0.930 . S
C1278 C1276 1.353 . S
C1278 C1281 1.348 . S
C1278 H1316 0.929 . S
N1279 Li1234 1.990 . S
N1279 C1276 1.314 . S
N1279 C1277 1.279 . S
C1280 C1277 1.358 . S
C1280 C1281 1.356 . S
C1280 H1317 0.930 . S
C1281 C1278 1.348 . S
C1281 C1280 1.356 . S
H1282 C1276 0.930 . S
H1283 C1277 0.930 . S
C1284 N1285 1.314 . S
C1284 C1286 1.353 . S
C1284 H1290 0.930 . S
N1285 Li1235 1.990 . S
N1285 C1284 1.314 . S
N1285 C1288 1.279 . S
C1286 C1284 1.353 . S
C1286 C1289 1.348 . S
C1286 H1318 0.929 . S
C1287 C1288 1.358 . S
C1287 C1289 1.356 . S
C1287 H1319 0.930 . S
C1288 N1285 1.279 . S
C1288 C1287 1.358 . S
C1288 H1291 0.930 . S
C1289 C1286 1.348 . S
C1289 C1287 1.356 . S
H1290 C1284 0.930 . S
H1291 C1288 0.930 . S
O1292 Li1232 1.956 . S
O1292 Li1233 1.970 . S
O1292 Li1234 1.961 . S
O1292 C1236 1.325 . S
O1293 Li1232 1.970 . S
O1293 Li1233 1.956 . S
O1293 Li1235 1.961 . S
O1293 C1242 1.325 . S
O1294 Li1232 1.961 . S
O1294 Li1234 1.956 . S
O1294 Li1235 1.970 . S
O1294 C1264 1.325 . S
O1295 Li1233 1.961 . S
O1295 Li1234 1.970 . S
O1295 Li1235 1.956 . S
O1295 C1270 1.325 . S
H1296 C1238 0.929 . S
H1297 C1239 0.930 . S
H1298 C1240 0.930 . S
H1299 C1241 0.930 . S
H1300 C1243 0.930 . S
H1301 C1245 0.929 . S
H1302 C1246 0.930 . S
H1303 C1247 0.930 . S
H1304 C1250 0.930 . S
H1305 C1253 0.929 . S
H1306 C1258 0.929 . S
H1307 C1259 0.930 . S
H1308 C1266 0.929 . S
H1309 C1267 0.930 . S
H1310 C1268 0.930 . S
H1311 C1269 0.930 . S
H1312 C1271 0.929 . S
H1313 C1272 0.930 . S
H1314 C1273 0.930 . S
H1315 C1274 0.930 . S
H1316 C1278 0.929 . S
H1317 C1280 0.930 . S
H1318 C1286 0.929 . S
H1319 C1287 0.930 . S
Li1320 N1337 1.990 . S
Li1320 O1380 1.956 . S
Li1320 O1381 1.970 . S
Li1320 O1382 1.961 . S
Li1321 N1345 1.990 . S
Li1321 O1380 1.970 . S
Li1321 O1381 1.956 . S
Li1321 O1383 1.961 . S
Li1322 N1367 1.990 . S
Li1322 O1380 1.961 . S
Li1322 O1382 1.956 . S
Li1322 O1383 1.970 . S
Li1323 N1373 1.990 . S
Li1323 O1381 1.961 . S
Li1323 O1382 1.970 . S
Li1323 O1383 1.956 . S
C1324 C1326 1.348 . S
C1324 C1327 1.356 . S
C1324 O1380 1.325 . S
N1325 C1328 1.314 . S
N1325 C1329 1.279 . S
C1326 C1324 1.348 . S
C1326 C1328 1.353 1_565 S
C1326 H1384 0.929 . S
C1327 C1324 1.356 . S
C1327 C1329 1.358 1_565 S
C1327 H1385 0.930 . S
C1328 N1325 1.314 . S
C1328 C1326 1.353 1_545 S
C1328 H1386 0.930 . S
C1329 N1325 1.279 . S
C1329 C1327 1.358 1_545 S
C1329 H1387 0.930 . S
C1330 C1333 1.348 . S
C1330 C1334 1.356 . S
C1330 O1381 1.325 . S
C1331 N1332 1.279 . S
C1331 C1334 1.358 . S
C1331 H1388 0.930 . S
N1332 C1331 1.279 . S
N1332 C1335 1.314 . S
C1333 C1330 1.348 . S
C1333 C1335 1.353 . S
C1333 H1389 0.929 . S
C1334 C1330 1.356 . S
C1334 C1331 1.358 . S
C1334 H1390 0.930 . S
C1335 N1332 1.314 . S
C1335 C1333 1.353 . S
C1335 H1391 0.930 . S
C1336 N1337 1.314 . S
C1336 C1341 1.353 . S
C1336 H1342 0.930 . S
N1337 Li1320 1.990 . S
N1337 C1336 1.314 . S
N1337 C1339 1.279 . S
C1338 C1339 1.358 . S
C1338 C1340 1.356 . S
C1338 H1392 0.930 . S
C1339 N1337 1.279 . S
C1339 C1338 1.358 . S
C1339 H1343 0.930 . S
C1340 C1338 1.356 . S
C1340 C1341 1.348 . S
C1341 C1336 1.353 . S
C1341 C1340 1.348 . S
C1341 H1393 0.929 . S
H1342 C1336 0.930 . S
H1343 C1339 0.930 . S
C1344 N1345 1.314 . S
C1344 C1346 1.353 . S
C1344 H1350 0.930 . S
N1345 Li1321 1.990 . S
N1345 C1344 1.314 . S
N1345 C1348 1.279 . S
C1346 C1344 1.353 . S
C1346 C1349 1.348 . S
C1346 H1394 0.929 . S
C1347 C1348 1.358 . S
C1347 C1349 1.356 . S
C1347 H1395 0.930 . S
C1348 N1345 1.279 . S
C1348 C1347 1.358 . S
C1348 H1351 0.930 . S
C1349 C1346 1.348 . S
C1349 C1347 1.356 . S
H1350 C1344 0.930 . S
H1351 C1348 0.930 . S
C1352 C1354 1.348 . S
C1352 C1355 1.356 . S
C1352 O1382 1.325 . S
N1353 C1356 1.314 . S
N1353 C1357 1.279 . S
C1354 C1352 1.348 . S
C1354 C1356 1.353 . S
C1354 H1396 0.929 . S
C1355 C1352 1.356 . S
C1355 C1357 1.358 . S
C1355 H1397 0.930 . S
C1356 N1353 1.314 . S
C1356 C1354 1.353 . S
C1356 H1398 0.930 . S
C1357 N1353 1.279 . S
C1357 C1355 1.358 . S
C1357 H1399 0.930 . S
C1358 C1359 1.348 . S
C1358 C1360 1.356 . S
C1358 O1383 1.325 . S
C1359 C1358 1.348 . S
C1359 C1361 1.353 . S
C1359 H1400 0.929 . S
C1360 C1358 1.356 . S
C1360 C1362 1.358 . S
C1360 H1401 0.930 . S
C1361 C1359 1.353 . S
C1361 N1363 1.314 . S
C1361 H1402 0.930 . S
C1362 C1360 1.358 . S
C1362 N1363 1.279 . S
C1362 H1403 0.930 . S
N1363 C1361 1.314 . S
N1363 C1362 1.279 . S
C1364 C1366 1.353 . S
C1364 N1367 1.314 . S
C1364 H1370 0.930 . S
C1365 N1367 1.279 . S
C1365 C1368 1.358 . S
C1365 H1371 0.930 . S
C1366 C1364 1.353 . S
C1366 C1369 1.348 . S
C1366 H1404 0.929 . S
N1367 Li1322 1.990 . S
N1367 C1364 1.314 . S
N1367 C1365 1.279 . S
C1368 C1365 1.358 . S
C1368 C1369 1.356 . S
C1368 H1405 0.930 . S
C1369 C1366 1.348 . S
C1369 C1368 1.356 . S
H1370 C1364 0.930 . S
H1371 C1365 0.930 . S
C1372 N1373 1.314 . S
C1372 C1374 1.353 . S
C1372 H1378 0.930 . S
N1373 Li1323 1.990 . S
N1373 C1372 1.314 . S
N1373 C1376 1.279 . S
C1374 C1372 1.353 . S
C1374 C1377 1.348 . S
C1374 H1406 0.929 . S
C1375 C1376 1.358 . S
C1375 C1377 1.356 . S
C1375 H1407 0.930 . S
C1376 N1373 1.279 . S
C1376 C1375 1.358 . S
C1376 H1379 0.930 . S
C1377 C1374 1.348 . S
C1377 C1375 1.356 . S
H1378 C1372 0.930 . S
H1379 C1376 0.930 . S
O1380 Li1320 1.956 . S
O1380 Li1321 1.970 . S
O1380 Li1322 1.961 . S
O1380 C1324 1.325 . S
O1381 Li1320 1.970 . S
O1381 Li1321 1.956 . S
O1381 Li1323 1.961 . S
O1381 C1330 1.325 . S
O1382 Li1320 1.961 . S
O1382 Li1322 1.956 . S
O1382 Li1323 1.970 . S
O1382 C1352 1.325 . S
O1383 Li1321 1.961 . S
O1383 Li1322 1.970 . S
O1383 Li1323 1.956 . S
O1383 C1358 1.325 . S
H1384 C1326 0.929 . S
H1385 C1327 0.930 . S
H1386 C1328 0.930 . S
H1387 C1329 0.930 . S
H1388 C1331 0.930 . S
H1389 C1333 0.929 . S
H1390 C1334 0.930 . S
H1391 C1335 0.930 . S
H1392 C1338 0.930 . S
H1393 C1341 0.929 . S
H1394 C1346 0.929 . S
H1395 C1347 0.930 . S
H1396 C1354 0.929 . S
H1397 C1355 0.930 . S
H1398 C1356 0.930 . S
H1399 C1357 0.930 . S
H1400 C1359 0.929 . S
H1401 C1360 0.930 . S
H1402 C1361 0.930 . S
H1403 C1362 0.930 . S
H1404 C1366 0.929 . S
H1405 C1368 0.930 . S
H1406 C1374 0.929 . S
H1407 C1375 0.930 . S
C1408 C1409 1.387 . S
C1408 H1412 0.950 . S
C1408 C1417 1.390 . S
C1409 C1408 1.387 . S
C1409 C1411 1.387 . S
H1410 C1417 0.950 . S
C1411 C1409 1.387 . S
C1411 C1413 1.390 . S
C1411 H1415 0.950 . S
H1412 C1408 0.950 . S
C1413 C1411 1.390 . S
C1413 C1414 1.387 . S
C1413 H1416 0.950 . S
C1414 C1413 1.387 . S
C1414 C1417 1.387 . S
H1415 C1411 0.950 . S
H1416 C1413 0.950 . S
C1417 C1408 1.390 . S
C1417 H1410 0.950 . S
C1417 C1414 1.387 . S
C1418 C1419 1.387 . S
C1418 H1422 0.950 . S
C1418 C1427 1.390 . S
C1419 C1418 1.387 . S
C1419 C1421 1.387 . S
H1420 C1427 0.950 . S
C1421 C1419 1.387 . S
C1421 C1423 1.390 . S
C1421 H1425 0.950 . S
H1422 C1418 0.950 . S
C1423 C1421 1.390 . S
C1423 C1424 1.387 . S
C1423 H1426 0.950 . S
C1424 C1423 1.387 . S
C1424 C1427 1.387 . S
H1425 C1421 0.950 . S
H1426 C1423 0.950 . S
C1427 C1418 1.390 . S
C1427 H1420 0.950 . S
C1427 C1424 1.387 . S
C1428 C1429 1.387 . S
C1428 H1432 0.950 . S
C1428 C1437 1.390 . S
C1429 C1428 1.387 . S
C1429 C1431 1.387 . S
H1430 C1437 0.950 . S
C1431 C1429 1.387 . S
C1431 C1433 1.390 . S
C1431 H1435 0.950 . S
H1432 C1428 0.950 . S
C1433 C1431 1.390 . S
C1433 C1434 1.387 . S
C1433 H1436 0.950 . S
C1434 C1433 1.387 . S
C1434 C1437 1.387 . S
H1435 C1431 0.950 . S
H1436 C1433 0.950 . S
C1437 C1428 1.390 . S
C1437 H1430 0.950 . S
C1437 C1434 1.387 . S
C1438 C1439 1.387 . S
C1438 H1442 0.950 . S
C1438 C1447 1.390 1_455 S
C1439 C1438 1.387 . S
C1439 C1441 1.387 . S
H1440 C1447 0.950 . S
C1441 C1439 1.387 . S
C1441 C1443 1.390 1_455 S
C1441 H1445 0.950 . S
H1442 C1438 0.950 . S
C1443 C1441 1.390 1_655 S
C1443 C1444 1.387 . S
C1443 H1446 0.950 . S
C1444 C1443 1.387 . S
C1444 C1447 1.387 . S
H1445 C1441 0.950 . S
H1446 C1443 0.950 . S
C1447 C1438 1.390 1_655 S
C1447 H1440 0.950 . S
C1447 C1444 1.387 . S
C1448 C1449 1.387 . S
C1448 H1452 0.950 . S
C1448 C1457 1.390 . S
C1449 C1448 1.387 . S
C1449 C1451 1.387 . S
H1450 C1457 0.950 . S
C1451 C1449 1.387 . S
C1451 C1453 1.390 . S
C1451 H1455 0.950 . S
H1452 C1448 0.950 . S
C1453 C1451 1.390 . S
C1453 C1454 1.387 . S
C1453 H1456 0.950 . S
C1454 C1453 1.387 . S
C1454 C1457 1.387 . S
H1455 C1451 0.950 . S
H1456 C1453 0.950 . S
C1457 C1448 1.390 . S
C1457 H1450 0.950 . S
C1457 C1454 1.387 . S
C1458 C1459 1.387 . S
C1458 H1462 0.950 . S
C1458 C1467 1.390 1_655 S
C1459 C1458 1.387 . S
C1459 C1461 1.387 . S
H1460 C1467 0.950 . S
C1461 C1459 1.387 . S
C1461 C1463 1.390 1_655 S
C1461 H1465 0.950 . S
H1462 C1458 0.950 . S
C1463 C1461 1.390 1_455 S
C1463 C1464 1.387 . S
C1463 H1466 0.950 . S
C1464 C1463 1.387 . S
C1464 C1467 1.387 . S
H1465 C1461 0.950 . S
H1466 C1463 0.950 . S
C1467 C1458 1.390 1_455 S
C1467 H1460 0.950 . S
C1467 C1464 1.387 . S
C1468 C1469 1.387 . S
C1468 H1472 0.950 . S
C1468 C1477 1.390 . S
C1469 C1468 1.387 . S
C1469 C1471 1.387 . S
H1470 C1477 0.950 . S
C1471 C1469 1.387 . S
C1471 C1473 1.390 . S
C1471 H1475 0.950 . S
H1472 C1468 0.950 . S
C1473 C1471 1.390 . S
C1473 C1474 1.387 . S
C1473 H1476 0.950 . S
C1474 C1473 1.387 . S
C1474 C1477 1.387 . S
H1475 C1471 0.950 . S
H1476 C1473 0.950 . S
C1477 C1468 1.390 . S
C1477 H1470 0.950 . S
C1477 C1474 1.387 . S
C1478 C1479 1.387 . S
C1478 H1482 0.950 . S
C1478 C1487 1.390 . S
C1479 C1478 1.387 . S
C1479 C1481 1.387 . S
H1480 C1487 0.950 . S
C1481 C1479 1.387 . S
C1481 C1483 1.390 . S
C1481 H1485 0.950 . S
H1482 C1478 0.950 . S
C1483 C1481 1.390 . S
C1483 C1484 1.387 . S
C1483 H1486 0.950 . S
C1484 C1483 1.387 . S
C1484 C1487 1.387 . S
H1485 C1481 0.950 . S
H1486 C1483 0.950 . S
C1487 C1478 1.390 . S
C1487 H1480 0.950 . S
C1487 C1484 1.387 . S
C1488 C1489 1.387 . S
C1488 H1492 0.950 . S
C1488 C1497 1.390 . S
C1489 C1488 1.387 . S
C1489 C1491 1.387 . S
H1490 C1497 0.950 . S
C1491 C1489 1.387 . S
C1491 C1493 1.390 . S
C1491 H1495 0.950 . S
H1492 C1488 0.950 . S
C1493 C1491 1.390 . S
C1493 C1494 1.387 . S
C1493 H1496 0.950 . S
C1494 C1493 1.387 . S
C1494 C1497 1.387 . S
H1495 C1491 0.950 . S
H1496 C1493 0.950 . S
C1497 C1488 1.390 . S
C1497 H1490 0.950 . S
C1497 C1494 1.387 . S
C1498 C1499 1.387 . S
C1498 H1502 0.950 . S
C1498 C1507 1.390 . S
C1499 C1498 1.387 . S
C1499 C1501 1.387 . S
H1500 C1507 0.950 . S
C1501 C1499 1.387 . S
C1501 C1503 1.390 . S
C1501 H1505 0.950 . S
H1502 C1498 0.950 . S
C1503 C1501 1.390 . S
C1503 C1504 1.387 . S
C1503 H1506 0.950 . S
C1504 C1503 1.387 . S
C1504 C1507 1.387 . S
H1505 C1501 0.950 . S
H1506 C1503 0.950 . S
C1507 C1498 1.390 . S
C1507 H1500 0.950 . S
C1507 C1504 1.387 . S
C1508 C1509 1.387 . S
C1508 H1512 0.950 . S
C1508 C1517 1.390 . S
C1509 C1508 1.387 . S
C1509 C1511 1.387 . S
H1510 C1517 0.950 . S
C1511 C1509 1.387 . S
C1511 C1513 1.390 . S
C1511 H1515 0.950 . S
H1512 C1508 0.950 . S
C1513 C1511 1.390 . S
C1513 C1514 1.387 . S
C1513 H1516 0.950 . S
C1514 C1513 1.387 . S
C1514 C1517 1.387 . S
H1515 C1511 0.950 . S
H1516 C1513 0.950 . S
C1517 C1508 1.390 . S
C1517 H1510 0.950 . S
C1517 C1514 1.387 . S
C1518 C1519 1.387 . S
C1518 H1522 0.950 . S
C1518 C1527 1.390 . S
C1519 C1518 1.387 . S
C1519 C1521 1.387 . S
H1520 C1527 0.950 . S
C1521 C1519 1.387 . S
C1521 C1523 1.390 . S
C1521 H1525 0.950 . S
H1522 C1518 0.950 . S
C1523 C1521 1.390 . S
C1523 C1524 1.387 . S
C1523 H1526 0.950 . S
C1524 C1523 1.387 . S
C1524 C1527 1.387 . S
H1525 C1521 0.950 . S
H1526 C1523 0.950 . S
C1527 C1518 1.390 . S
C1527 H1520 0.950 . S
C1527 C1524 1.387 . S
C1528 C1529 1.387 . S
C1528 H1532 0.950 . S
C1528 C1537 1.390 1_455 S
C1529 C1528 1.387 . S
C1529 C1531 1.387 . S
H1530 C1537 0.950 . S
C1531 C1529 1.387 . S
C1531 C1533 1.390 1_455 S
C1531 H1535 0.950 . S
H1532 C1528 0.950 . S
C1533 C1531 1.390 1_655 S
C1533 C1534 1.387 . S
C1533 H1536 0.950 . S
C1534 C1533 1.387 . S
C1534 C1537 1.387 . S
H1535 C1531 0.950 . S
H1536 C1533 0.950 . S
C1537 C1528 1.390 1_655 S
C1537 H1530 0.950 . S
C1537 C1534 1.387 . S
C1538 C1539 1.387 . S
C1538 H1542 0.950 . S
C1538 C1547 1.390 . S
C1539 C1538 1.387 . S
C1539 C1541 1.387 . S
H1540 C1547 0.950 . S
C1541 C1539 1.387 . S
C1541 C1543 1.390 . S
C1541 H1545 0.950 . S
H1542 C1538 0.950 . S
C1543 C1541 1.390 . S
C1543 C1544 1.387 . S
C1543 H1546 0.950 . S
C1544 C1543 1.387 . S
C1544 C1547 1.387 . S
H1545 C1541 0.950 . S
H1546 C1543 0.950 . S
C1547 C1538 1.390 . S
C1547 H1540 0.950 . S
C1547 C1544 1.387 . S
C1548 C1549 1.387 . S
C1548 H1552 0.950 . S
C1548 C1557 1.390 . S
C1549 C1548 1.387 . S
C1549 C1551 1.387 . S
H1550 C1557 0.950 . S
C1551 C1549 1.387 . S
C1551 C1553 1.390 . S
C1551 H1555 0.950 . S
H1552 C1548 0.950 . S
C1553 C1551 1.390 . S
C1553 C1554 1.387 . S
C1553 H1556 0.950 . S
C1554 C1553 1.387 . S
C1554 C1557 1.387 . S
H1555 C1551 0.950 . S
H1556 C1553 0.950 . S
C1557 C1548 1.390 . S
C1557 H1550 0.950 . S
C1557 C1554 1.387 . S
C1558 C1559 1.387 . S
C1558 H1562 0.950 . S
C1558 C1567 1.390 1_455 S
C1559 C1558 1.387 . S
C1559 C1561 1.387 . S
H1560 C1567 0.950 . S
C1561 C1559 1.387 . S
C1561 C1563 1.390 1_455 S
C1561 H1565 0.950 . S
H1562 C1558 0.950 . S
C1563 C1561 1.390 1_655 S
C1563 C1564 1.387 . S
C1563 H1566 0.950 . S
C1564 C1563 1.387 . S
C1564 C1567 1.387 . S
H1565 C1561 0.950 . S
H1566 C1563 0.950 . S
C1567 C1558 1.390 1_655 S
C1567 H1560 0.950 . S
C1567 C1564 1.387 . S
C1568 C1569 1.387 . S
C1568 H1572 0.950 . S
C1568 C1577 1.390 1_554 S
C1569 C1568 1.387 . S
C1569 C1571 1.387 . S
H1570 C1577 0.950 . S
C1571 C1569 1.387 . S
C1571 C1573 1.390 1_554 S
C1571 H1575 0.950 . S
H1572 C1568 0.950 . S
C1573 C1571 1.390 1_556 S
C1573 C1574 1.387 . S
C1573 H1576 0.950 . S
C1574 C1573 1.387 . S
C1574 C1577 1.387 . S
H1575 C1571 0.950 . S
H1576 C1573 0.950 . S
C1577 C1568 1.390 1_556 S
C1577 H1570 0.950 . S
C1577 C1574 1.387 . S
C1578 C1579 1.387 . S
C1578 H1582 0.950 . S
C1578 C1587 1.390 . S
C1579 C1578 1.387 . S
C1579 C1581 1.387 . S
H1580 C1587 0.950 . S
C1581 C1579 1.387 . S
C1581 C1583 1.390 . S
C1581 H1585 0.950 . S
H1582 C1578 0.950 . S
C1583 C1581 1.390 . S
C1583 C1584 1.387 . S
C1583 H1586 0.950 . S
C1584 C1583 1.387 . S
C1584 C1587 1.387 . S
H1585 C1581 0.950 . S
H1586 C1583 0.950 . S
C1587 C1578 1.390 . S
C1587 H1580 0.950 . S
C1587 C1584 1.387 . S
C1588 C1589 1.387 . S
C1588 H1592 0.950 . S
C1588 C1597 1.390 . S
C1589 C1588 1.387 . S
C1589 C1591 1.387 . S
H1590 C1597 0.950 . S
C1591 C1589 1.387 . S
C1591 C1593 1.390 . S
C1591 H1595 0.950 . S
H1592 C1588 0.950 . S
C1593 C1591 1.390 . S
C1593 C1594 1.387 . S
C1593 H1596 0.950 . S
C1594 C1593 1.387 . S
C1594 C1597 1.387 . S
H1595 C1591 0.950 . S
H1596 C1593 0.950 . S
C1597 C1588 1.390 . S
C1597 H1590 0.950 . S
C1597 C1594 1.387 . S
C1598 C1599 1.387 . S
C1598 H1602 0.950 . S
C1598 C1607 1.390 . S
C1599 C1598 1.387 . S
C1599 C1601 1.387 . S
H1600 C1607 0.950 . S
C1601 C1599 1.387 . S
C1601 C1603 1.390 . S
C1601 H1605 0.950 . S
H1602 C1598 0.950 . S
C1603 C1601 1.390 . S
C1603 C1604 1.387 . S
C1603 H1606 0.950 . S
C1604 C1603 1.387 . S
C1604 C1607 1.387 . S
H1605 C1601 0.950 . S
H1606 C1603 0.950 . S
C1607 C1598 1.390 . S
C1607 H1600 0.950 . S
C1607 C1604 1.387 . S
C1608 C1609 1.387 . S
C1608 H1612 0.950 . S
C1608 C1617 1.390 1_556 S
C1609 C1608 1.387 . S
C1609 C1611 1.387 . S
H1610 C1617 0.950 . S
C1611 C1609 1.387 . S
C1611 C1613 1.390 1_556 S
C1611 H1615 0.950 . S
H1612 C1608 0.950 . S
C1613 C1611 1.390 1_554 S
C1613 C1614 1.387 . S
C1613 H1616 0.950 . S
C1614 C1613 1.387 . S
C1614 C1617 1.387 . S
H1615 C1611 0.950 . S
H1616 C1613 0.950 . S
C1617 C1608 1.390 1_554 S
C1617 H1610 0.950 . S
C1617 C1614 1.387 . S
C1618 C1619 1.387 . S
C1618 H1622 0.950 . S
C1618 C1627 1.390 . S
C1619 C1618 1.387 . S
C1619 C1621 1.387 . S
H1620 C1627 0.950 . S
C1621 C1619 1.387 . S
C1621 C1623 1.390 . S
C1621 H1625 0.950 . S
H1622 C1618 0.950 . S
C1623 C1621 1.390 . S
C1623 C1624 1.387 . S
C1623 H1626 0.950 . S
C1624 C1623 1.387 . S
C1624 C1627 1.387 . S
H1625 C1621 0.950 . S
H1626 C1623 0.950 . S
C1627 C1618 1.390 . S
C1627 H1620 0.950 . S
C1627 C1624 1.387 . S
C1628 C1629 1.387 . S
C1628 H1632 0.950 . S
C1628 C1637 1.390 . S
C1629 C1628 1.387 . S
C1629 C1631 1.387 . S
H1630 C1637 0.950 . S
C1631 C1629 1.387 . S
C1631 C1633 1.390 . S
C1631 H1635 0.950 . S
H1632 C1628 0.950 . S
C1633 C1631 1.390 . S
C1633 C1634 1.387 . S
C1633 H1636 0.950 . S
C1634 C1633 1.387 . S
C1634 C1637 1.387 . S
H1635 C1631 0.950 . S
H1636 C1633 0.950 . S
C1637 C1628 1.390 . S
C1637 H1630 0.950 . S
C1637 C1634 1.387 . S
C1638 C1639 1.387 . S
C1638 H1642 0.950 . S
C1638 C1647 1.390 . S
C1639 C1638 1.387 . S
C1639 C1641 1.387 . S
H1640 C1647 0.950 . S
C1641 C1639 1.387 . S
C1641 C1643 1.390 . S
C1641 H1645 0.950 . S
H1642 C1638 0.950 . S
C1643 C1641 1.390 . S
C1643 C1644 1.387 . S
C1643 H1646 0.950 . S
C1644 C1643 1.387 . S
C1644 C1647 1.387 . S
H1645 C1641 0.950 . S
H1646 C1643 0.950 . S
C1647 C1638 1.390 . S
C1647 H1640 0.950 . S
C1647 C1644 1.387 . S
C1648 C1649 1.387 . S
C1648 H1652 0.950 . S
C1648 C1657 1.390 1_545 S
C1649 C1648 1.387 . S
C1649 C1651 1.387 . S
H1650 C1657 0.950 . S
C1651 C1649 1.387 . S
C1651 C1653 1.390 1_545 S
C1651 H1655 0.950 . S
H1652 C1648 0.950 . S
C1653 C1651 1.390 1_565 S
C1653 C1654 1.387 . S
C1653 H1656 0.950 . S
C1654 C1653 1.387 . S
C1654 C1657 1.387 . S
H1655 C1651 0.950 . S
H1656 C1653 0.950 . S
C1657 C1648 1.390 1_565 S
C1657 H1650 0.950 . S
C1657 C1654 1.387 . S
C1658 C1659 1.387 . S
C1658 H1662 0.950 . S
C1658 C1667 1.390 . S
C1659 C1658 1.387 . S
C1659 C1661 1.387 . S
H1660 C1667 0.950 . S
C1661 C1659 1.387 . S
C1661 C1663 1.390 . S
C1661 H1665 0.950 . S
H1662 C1658 0.950 . S
C1663 C1661 1.390 . S
C1663 C1664 1.387 . S
C1663 H1666 0.950 . S
C1664 C1663 1.387 . S
C1664 C1667 1.387 . S
H1665 C1661 0.950 . S
H1666 C1663 0.950 . S
C1667 C1658 1.390 . S
C1667 H1660 0.950 . S
C1667 C1664 1.387 . S
C1668 C1669 1.387 . S
C1668 H1672 0.950 . S
C1668 C1677 1.390 1_546 S
C1669 C1668 1.387 . S
C1669 C1671 1.387 . S
H1670 C1677 0.950 . S
C1671 C1669 1.387 . S
C1671 C1673 1.390 1_546 S
C1671 H1675 0.950 . S
H1672 C1668 0.950 . S
C1673 C1671 1.390 1_564 S
C1673 C1674 1.387 . S
C1673 H1676 0.950 . S
C1674 C1673 1.387 . S
C1674 C1677 1.387 . S
H1675 C1671 0.950 . S
H1676 C1673 0.950 . S
C1677 C1668 1.390 1_564 S
C1677 H1670 0.950 . S
C1677 C1674 1.387 . S
C1678 C1679 1.387 . S
C1678 H1682 0.950 . S
C1678 C1687 1.390 . S
C1679 C1678 1.387 . S
C1679 C1681 1.387 . S
H1680 C1687 0.950 . S
C1681 C1679 1.387 . S
C1681 C1683 1.390 . S
C1681 H1685 0.950 . S
H1682 C1678 0.950 . S
C1683 C1681 1.390 . S
C1683 C1684 1.387 . S
C1683 H1686 0.950 . S
C1684 C1683 1.387 . S
C1684 C1687 1.387 . S
H1685 C1681 0.950 . S
H1686 C1683 0.950 . S
C1687 C1678 1.390 . S
C1687 H1680 0.950 . S
C1687 C1684 1.387 . S
C1688 C1689 1.387 . S
C1688 H1692 0.950 . S
C1688 C1697 1.390 1_545 S
C1689 C1688 1.387 . S
C1689 C1691 1.387 . S
H1690 C1697 0.950 . S
C1691 C1689 1.387 . S
C1691 C1693 1.390 1_545 S
C1691 H1695 0.950 . S
H1692 C1688 0.950 . S
C1693 C1691 1.390 1_565 S
C1693 C1694 1.387 . S
C1693 H1696 0.950 . S
C1694 C1693 1.387 . S
C1694 C1697 1.387 . S
H1695 C1691 0.950 . S
H1696 C1693 0.950 . S
C1697 C1688 1.390 1_565 S
C1697 H1690 0.950 . S
C1697 C1694 1.387 . S
C1698 C1699 1.387 . S
C1698 H1702 0.950 . S
C1698 C1707 1.390 . S
C1699 C1698 1.387 . S
C1699 C1701 1.387 . S
H1700 C1707 0.950 . S
C1701 C1699 1.387 . S
C1701 C1703 1.390 . S
C1701 H1705 0.950 . S
H1702 C1698 0.950 . S
C1703 C1701 1.390 . S
C1703 C1704 1.387 . S
C1703 H1706 0.950 . S
C1704 C1703 1.387 . S
C1704 C1707 1.387 . S
H1705 C1701 0.950 . S
H1706 C1703 0.950 . S
C1707 C1698 1.390 . S
C1707 H1700 0.950 . S
C1707 C1704 1.387 . S
C1708 C1709 1.387 . S
C1708 H1712 0.950 . S
C1708 C1717 1.390 1_564 S
C1709 C1708 1.387 . S
C1709 C1711 1.387 . S
H1710 C1717 0.950 . S
C1711 C1709 1.387 . S
C1711 C1713 1.390 1_564 S
C1711 H1715 0.950 . S
H1712 C1708 0.950 . S
C1713 C1711 1.390 1_546 S
C1713 C1714 1.387 . S
C1713 H1716 0.950 . S
C1714 C1713 1.387 . S
C1714 C1717 1.387 . S
H1715 C1711 0.950 . S
H1716 C1713 0.950 . S
C1717 C1708 1.390 1_546 S
C1717 H1710 0.950 . S
C1717 C1714 1.387 . S
C1718 C1719 1.387 . S
C1718 H1722 0.950 . S
C1718 C1727 1.390 . S
C1719 C1718 1.387 . S
C1719 C1721 1.387 . S
H1720 C1727 0.950 . S
C1721 C1719 1.387 . S
C1721 C1723 1.390 . S
C1721 H1725 0.950 . S
H1722 C1718 0.950 . S
C1723 C1721 1.390 . S
C1723 C1724 1.387 . S
C1723 H1726 0.950 . S
C1724 C1723 1.387 . S
C1724 C1727 1.387 . S
H1725 C1721 0.950 . S
H1726 C1723 0.950 . S
C1727 C1718 1.390 . S
C1727 H1720 0.950 . S
C1727 C1724 1.387 . S
C1409 C1017 1.516 . S
C1414 C20 1.517 . S
C1419 C1369 1.516 . S
C1424 C108 1.517 . S
C1429 C225 1.516 . S
C1434 C812 1.517 . S
C1439 C1164 1.516 . S
C1444 C321 1.517 . S
C1449 C409 1.516 . S
C1454 C1173 1.517 . S
C1459 C469 1.517 . S
C1464 C1025 1.516 . S
C1469 C548 1.517 . S
C1474 C1377 1.515 . S
C1479 C673 1.517 . S
C1484 C821 1.516 . S
C1489 C284 1.517 . S
C1494 C761 1.516 . S
C1499 C900 1.515 . S
C1504 C145 1.517 . S
C1509 C1076 1.517 . S
C1514 C489 1.516 . S
C1519 C1281 1.516 . S
C1524 C636 1.517 . S
C1529 C372 1.517 . S
C1534 C753 1.516 . S
C1539 C909 1.516 . S
C1544 C585 1.517 . S
C1549 C1289 1.517 . S
C1554 C205 1.516 . S
C1559 C57 1.517 . S
C1564 C1085 1.516 . S
C1569 C49 1.107 . S
C1574 C381 1.107 . S
C1579 C137 1.105 . S
C1584 C497 1.105 . S
C1589 C196 1.105 . S
C1594 C577 1.105 . S
C1599 C645 1.105 . S
C1604 C293 1.105 . S
C1609 C733 1.108 . S
C1614 C1105 1.108 . S
C1619 C1193 1.109 . S
C1624 C849 1.109 . S
C1629 C929 1.108 . S
C1634 C1252 1.108 . S
C1639 C1340 1.109 . S
C1644 C997 1.109 . S
C1649 C665 1.107 . S
C1654 C117 1.107 . S
C1659 C233 1.105 . S
C1664 C401 1.105 . S
C1669 C313 1.107 . S
C1674 C460 1.107 . S
C1679 C29 1.105 . S
C1684 C557 1.105 . S
C1689 C841 1.108 . S
C1694 C1349 1.108 . S
C1699 C1113 1.109 . S
C1704 C937 1.109 . S
C1709 C988 1.109 . S
C1714 C1201 1.109 . S
C1719 C1261 1.108 . S
C1724 C724 1.108 . S
