# Generated by pormake.
# Topology crb, (4)-cn, num edge types: 1
# Building blocks:
#     Node 0, Type 0, BuildingBlock: UXUYUI_clean_sbu_0, # of connection points: 4
#     Node 1, Type 0, BuildingBlock: UXUYUI_clean_sbu_0, # of connection points: 4
#     Node 2, Type 0, BuildingBlock: UXUYUI_clean_sbu_0, # of connection points: 4
#     Node 3, Type 0, BuildingBlock: UXUYUI_clean_sbu_0, # of connection points: 4
#     Node 4, Type 0, BuildingBlock: UXUYUI_clean_sbu_0, # of connection points: 4
#     Node 5, Type 0, BuildingBlock: UXUYUI_clean_sbu_0, # of connection points: 4
#     Node 6, Type 0, BuildingBlock: UXUYUI_clean_sbu_0, # of connection points: 4
#     Node 7, Type 0, BuildingBlock: UXUYUI_clean_sbu_0, # of connection points: 4
#     Edge 8, Type (0, 0), BuildingBlock: TEMPAE_clean_linker_10, # of connection points: 2
#     Edge 9, Type (0, 0), BuildingBlock: TEMPAE_clean_linker_10, # of connection points: 2
#     Edge 10, Type (0, 0), BuildingBlock: TEMPAE_clean_linker_10, # of connection points: 2
#     Edge 11, Type (0, 0), BuildingBlock: TEMPAE_clean_linker_10, # of connection points: 2
#     Edge 12, Type (0, 0), BuildingBlock: TEMPAE_clean_linker_10, # of connection points: 2
#     Edge 13, Type (0, 0), BuildingBlock: TEMPAE_clean_linker_10, # of connection points: 2
#     Edge 14, Type (0, 0), BuildingBlock: TEMPAE_clean_linker_10, # of connection points: 2
#     Edge 15, Type (0, 0), BuildingBlock: TEMPAE_clean_linker_10, # of connection points: 2
#     Edge 16, Type (0, 0), BuildingBlock: TEMPAE_clean_linker_10, # of connection points: 2
#     Edge 17, Type (0, 0), BuildingBlock: TEMPAE_clean_linker_10, # of connection points: 2
#     Edge 18, Type (0, 0), BuildingBlock: TEMPAE_clean_linker_10, # of connection points: 2
#     Edge 19, Type (0, 0), BuildingBlock: TEMPAE_clean_linker_10, # of connection points: 2
#     Edge 20, Type (0, 0), BuildingBlock: TEMPAE_clean_linker_10, # of connection points: 2
#     Edge 21, Type (0, 0), BuildingBlock: TEMPAE_clean_linker_10, # of connection points: 2
#     Edge 22, Type (0, 0), BuildingBlock: TEMPAE_clean_linker_10, # of connection points: 2
#     Edge 23, Type (0, 0), BuildingBlock: TEMPAE_clean_linker_10, # of connection points: 2
# Relax obj value: 0.060
# Max RMSD: 0.078
# Mean RMSD: 0.078
data_MOF--net-crb--node1-UXUYUI_clean_sbu_0--edge1-TEMPAE_clean_linker_10
_symmetry_space_group_name_H-M    P1
_symmetry_Int_Tables_number       1
_symmetry_cell_setting            triclinic
loop_
_symmetry_equiv_pos_as_xyz
'x, y, z'
_cell_length_a     62.731212
_cell_length_b     62.720695
_cell_length_c     37.462543
_cell_angle_alpha  89.968519
_cell_angle_beta   89.957607
_cell_angle_gamma 89.974553
loop_
_atom_site_label
_atom_site_type_symbol
_atom_site_fract_x
_atom_site_fract_y
_atom_site_fract_z
_atom_type_partial_charge
Li0 Li 0.31264 0.31421 0.03474 0.0
Li1 Li 0.34521 0.31721 0.0034 0.0
Li2 Li 0.32013 0.34769 0.00374 0.0
Li3 Li 0.31244 0.31258 0.96884 0.0
C4 C 0.34133 0.33353 0.07875 0.0
N5 N 0.35225 0.33022 0.14995 0.0
C6 C 0.35085 0.31492 0.09164 0.0
C7 C 0.33754 0.35055 0.10197 0.0
C8 C 0.35621 0.31352 0.12774 0.0
C9 C 0.34313 0.34854 0.13791 0.0
C10 C 0.33643 0.27415 0.99703 0.0
C11 C 0.35027 0.24758 0.95664 0.0
N12 N 0.35871 0.23684 0.98484 0.0
C13 C 0.34502 0.26271 0.02564 0.0
C14 C 0.33889 0.26644 0.96226 0.0
C15 C 0.35633 0.24395 0.01891 0.0
C16 C 0.29509 0.28158 0.07877 0.0
N17 N 0.29911 0.30287 0.07696 0.0
C18 C 0.28504 0.30787 0.13579 0.0
C19 C 0.29397 0.31606 0.10447 0.0
C20 C 0.28099 0.28592 0.13863 0.0
C21 C 0.28589 0.27274 0.10943 0.0
H22 H 0.29915 0.27144 0.05644 0.0
H23 H 0.29681 0.33298 0.10218 0.0
C24 C 0.38738 0.32545 0.02511 0.0
N25 N 0.37572 0.31218 0.00405 0.0
C26 C 0.40959 0.32405 0.02581 0.0
C27 C 0.40768 0.29574 0.98232 0.0
C28 C 0.38545 0.29751 0.98278 0.0
C29 C 0.42003 0.30912 0.00408 0.0
H30 H 0.3795 0.33756 0.04078 0.0
H31 H 0.37612 0.28764 0.96523 0.0
C32 C 0.27509 0.33022 0.02031 0.0
N33 N 0.23862 0.32934 0.06163 0.0
C34 C 0.2616 0.31251 0.01928 0.0
C35 C 0.27 0.34753 0.04219 0.0
C36 C 0.24325 0.31235 0.04044 0.0
C37 C 0.25148 0.34678 0.06289 0.0
C38 C 0.35392 0.3376 0.94411 0.0
C39 C 0.36691 0.35492 0.95288 0.0
C40 C 0.36067 0.32302 0.91826 0.0
C41 C 0.38656 0.35728 0.93577 0.0
C42 C 0.38042 0.32597 0.9017 0.0
N43 N 0.39285 0.34288 0.91076 0.0
C44 C 0.33269 0.38959 0.02027 0.0
C45 C 0.30116 0.3874 0.98563 0.0
C46 C 0.33171 0.41184 0.01996 0.0
N47 N 0.31757 0.37791 0.00321 0.0
C48 C 0.29953 0.40964 0.98472 0.0
C49 C 0.315 0.42218 1.00192 0.0
H50 H 0.34559 0.38159 0.03396 0.0
H51 H 0.28941 0.37768 0.97218 0.0
C52 C 0.28573 0.2846 0.92902 0.0
N53 N 0.29939 0.30135 0.92662 0.0
C54 C 0.2764 0.27606 0.89826 0.0
C55 C 0.29566 0.30195 0.86306 0.0
C56 C 0.30432 0.31019 0.89453 0.0
C57 C 0.28141 0.28463 0.8645 0.0
H58 H 0.28213 0.27779 0.95486 0.0
H59 H 0.31516 0.32357 0.89332 0.0
O60 O 0.33581 0.33513 0.04354 0.0
O61 O 0.32503 0.29238 0.00316 0.0
O62 O 0.29344 0.33043 1.00062 0.0
O63 O 0.33495 0.33465 0.96142 0.0
H64 H 0.35409 0.30174 0.0739 0.0
H65 H 0.33015 0.36506 0.0924 0.0
H66 H 0.36353 0.29918 0.1381 0.0
H67 H 0.34018 0.36153 0.15625 0.0
H68 H 0.35244 0.24152 0.92986 0.0
H69 H 0.34285 0.26816 0.05278 0.0
H70 H 0.33235 0.27502 0.93978 0.0
H71 H 0.36313 0.23498 0.04079 0.0
H72 H 0.2812 0.31862 0.15748 0.0
H73 H 0.28305 0.25572 0.11059 0.0
H74 H 0.41853 0.33498 0.04241 0.0
H75 H 0.41513 0.28407 0.96503 0.0
H76 H 0.2654 0.29893 1.00267 0.0
H77 H 0.28038 0.36128 0.04352 0.0
H78 H 0.23273 0.29869 0.0401 0.0
H79 H 0.24739 0.36001 0.0801 0.0
H80 H 0.36198 0.36625 0.97301 0.0
H81 H 0.35096 0.30935 0.91152 0.0
H82 H 0.39684 0.37053 0.94246 0.0
H83 H 0.38592 0.31473 0.88183 0.0
H84 H 0.34383 0.42084 0.03396 0.0
H85 H 0.2865 0.41693 0.97019 0.0
H86 H 0.26527 0.26299 0.90104 0.0
H87 H 0.30039 0.30894 0.83785 0.0
Li88 Li 0.68435 0.34587 1.00277 0.0
Li89 Li 0.68841 0.31289 0.03662 0.0
Li90 Li 0.68961 0.31272 0.96869 0.0
Li91 Li 0.65574 0.31888 0.00313 0.0
C92 C 0.72866 0.33499 0.99474 0.0
N93 N 0.76772 0.35233 0.97682 0.0
C94 C 0.74399 0.33858 0.0211 0.0
C95 C 0.73326 0.34004 0.95921 0.0
C96 C 0.76362 0.34742 0.01152 0.0
C97 C 0.75308 0.34883 0.9507 0.0
C98 C 0.66638 0.33874 0.07911 0.0
C99 C 0.65558 0.32728 0.13784 0.0
N100 N 0.66623 0.34408 0.15228 0.0
C101 C 0.67712 0.35596 0.09448 0.0
C102 C 0.65542 0.32434 0.10088 0.0
C103 C 0.67687 0.35836 0.13155 0.0
C104 C 0.67003 0.38782 0.00791 0.0
N105 N 0.68829 0.3764 0.00346 0.0
C106 C 0.70865 0.40863 0.99991 0.0
C107 C 0.70745 0.38636 0.9998 0.0
C108 C 0.68995 0.42074 0.00338 0.0
C109 C 0.67045 0.41008 0.00747 0.0
H110 H 0.65505 0.37958 0.01156 0.0
H111 H 0.72185 0.37722 0.99673 0.0
C112 C 0.69736 0.27943 0.08603 0.0
N113 N 0.70038 0.30049 0.07906 0.0
C114 C 0.70568 0.27026 0.1171 0.0
C115 C 0.72018 0.30459 0.13323 0.0
C116 C 0.71168 0.31304 0.10178 0.0
C117 C 0.71725 0.28289 0.14134 0.0
H118 H 0.68856 0.26968 0.06737 0.0
H119 H 0.71397 0.32972 0.09562 0.0
C120 C 0.66127 0.35258 0.9435 0.0
N121 N 0.64942 0.38984 0.90946 0.0
C122 C 0.64041 0.3602 0.9466 0.0
C123 C 0.67604 0.36379 0.92277 0.0
C124 C 0.63474 0.37909 0.92924 0.0
C125 C 0.66976 0.38264 0.90589 0.0
C126 C 0.66064 0.27634 0.99914 0.0
C127 C 0.65891 0.26556 0.96663 0.0
C128 C 0.64791 0.27021 0.028 0.0
C129 C 0.64428 0.24887 0.96347 0.0
C130 C 0.63345 0.25348 0.02374 0.0
N131 N 0.63194 0.24325 0.99183 0.0
C132 C 0.71606 0.28398 0.92982 0.0
C133 C 0.69541 0.30748 0.8944 0.0
C134 C 0.72491 0.27472 0.89921 0.0
N135 N 0.70162 0.30004 0.92685 0.0
C136 C 0.70396 0.29882 0.86315 0.0
C137 C 0.71892 0.28215 0.86518 0.0
H138 H 0.72063 0.27831 0.956 0.0
H139 H 0.68388 0.32025 0.89277 0.0
C140 C 0.61389 0.32603 0.02771 0.0
N141 N 0.6254 0.3152 1.00285 0.0
C142 C 0.59165 0.32485 0.02788 0.0
C143 C 0.59344 0.30116 0.97712 0.0
C144 C 0.61565 0.30311 0.97752 0.0
C145 C 0.58117 0.31225 1.00239 0.0
H146 H 0.62196 0.33589 0.04709 0.0
H147 H 0.62508 0.2952 0.95734 0.0
O148 O 0.70941 0.32626 0.00369 0.0
O149 O 0.66665 0.33596 0.04293 0.0
O150 O 0.66725 0.33435 0.96094 0.0
O151 O 0.67479 0.29277 1.00268 0.0
H152 H 0.74077 0.33464 0.04868 0.0
H153 H 0.72166 0.33732 0.93845 0.0
H154 H 0.77561 0.35036 0.03167 0.0
H155 H 0.75682 0.35289 0.92334 0.0
H156 H 0.64727 0.3162 0.15504 0.0
H157 H 0.68572 0.36722 0.078 0.0
H158 H 0.64698 0.31098 0.08936 0.0
H159 H 0.6852 0.37155 0.14385 0.0
H160 H 0.724 0.41631 0.99669 0.0
H161 H 0.65571 0.41888 0.01071 0.0
H162 H 0.70331 0.2534 0.12182 0.0
H163 H 0.72873 0.31504 0.15121 0.0
H164 H 0.62876 0.35176 0.9625 0.0
H165 H 0.69224 0.35815 0.92006 0.0
H166 H 0.61869 0.38524 0.93158 0.0
H167 H 0.68107 0.39156 0.89001 0.0
H168 H 0.66866 0.2701 0.94404 0.0
H169 H 0.64909 0.27839 0.05333 0.0
H170 H 0.6427 0.24043 0.93844 0.0
H171 H 0.62341 0.24864 0.04578 0.0
H172 H 0.73612 0.26172 0.90222 0.0
H173 H 0.69906 0.30535 0.83768 0.0
H174 H 0.58274 0.33363 0.04781 0.0
H175 H 0.5859 0.29153 0.95673 0.0
Li176 Li 0.65549 0.68229 0.00374 0.0
Li177 Li 0.69107 0.68944 0.03688 0.0
Li178 Li 0.68865 0.68928 0.97086 0.0
Li179 Li 0.68512 0.65675 1.00295 0.0
C180 C 0.67343 0.72681 0.98501 0.0
N181 N 0.67455 0.76231 0.9414 0.0
C182 C 0.69019 0.74137 0.98778 0.0
C183 C 0.65719 0.73032 0.96016 0.0
C184 C 0.69049 0.75921 0.96545 0.0
C185 C 0.65805 0.74837 0.93835 0.0
C186 C 0.66576 0.64895 0.06445 0.0
C187 C 0.67968 0.62062 0.10123 0.0
N188 N 0.66022 0.61108 0.10102 0.0
C189 C 0.64584 0.63898 0.06488 0.0
C190 C 0.68278 0.63981 0.08304 0.0
C191 C 0.64338 0.61981 0.08344 0.0
C192 C 0.6135 0.66862 0.99282 0.0
N193 N 0.62532 0.68531 0.00469 0.0
C194 C 0.59376 0.70532 0.01736 0.0
C195 C 0.61598 0.70347 0.01684 0.0
C196 C 0.58103 0.68825 0.00552 0.0
C197 C 0.59127 0.66969 0.99318 0.0
H198 H 0.6214 0.65435 0.9834 0.0
H199 H 0.62581 0.71654 0.02599 0.0
C200 C 0.71948 0.71617 0.07612 0.0
N201 N 0.70329 0.70184 0.07879 0.0
C202 C 0.72845 0.72508 0.1069 0.0
C203 C 0.70428 0.70393 0.14255 0.0
C204 C 0.69558 0.69568 0.11112 0.0
C205 C 0.72089 0.71888 0.14068 0.0
H206 H 0.72553 0.72057 0.05011 0.0
H207 H 0.68266 0.68431 0.11254 0.0
C208 C 0.67004 0.65611 0.93139 0.0
N209 N 0.67595 0.63499 0.86748 0.0
C210 C 0.69011 0.64812 0.92239 0.0
C211 C 0.65294 0.65333 0.90798 0.0
C212 C 0.69279 0.63748 0.88995 0.0
C213 C 0.65626 0.64263 0.87575 0.0
C214 C 0.72994 0.66741 0.00654 0.0
C215 C 0.74278 0.66281 0.97701 0.0
C216 C 0.73763 0.66347 0.04094 0.0
C217 C 0.76293 0.65388 0.98237 0.0
C218 C 0.75788 0.65454 0.04518 0.0
N219 N 0.76999 0.64994 0.01605 0.0
C220 C 0.72011 0.70994 0.92867 0.0
C221 C 0.68742 0.70391 0.89872 0.0
C222 C 0.72885 0.71921 0.89801 0.0
N223 N 0.6998 0.7024 0.9284 0.0
C224 C 0.69553 0.713 0.86745 0.0
C225 C 0.71657 0.72072 0.86672 0.0
H226 H 0.72956 0.70867 0.95271 0.0
H227 H 0.6712 0.69811 0.89932 0.0
C228 C 0.67092 0.61492 0.99635 0.0
N229 N 0.68914 0.62621 1.00179 0.0
C230 C 0.67122 0.59266 0.99654 0.0
C231 C 0.70926 0.59385 0.00623 0.0
C232 C 0.70816 0.61613 0.00653 0.0
C233 C 0.69058 0.58187 1.00158 0.0
H234 H 0.65603 0.62328 0.99232 0.0
H235 H 0.72249 0.6252 0.01084 0.0
O236 O 0.67324 0.70884 0.00569 0.0
O237 O 0.66864 0.66741 0.04556 0.0
O238 O 0.66704 0.66671 0.96288 0.0
O239 O 0.71025 0.67635 1.00179 0.0
H240 H 0.70295 0.73879 0.00669 0.0
H241 H 0.64424 0.71905 0.95738 0.0
H242 H 0.70343 0.77056 0.96716 0.0
H243 H 0.64566 0.75123 0.91885 0.0
H244 H 0.69277 0.61327 0.11545 0.0
H245 H 0.63247 0.64588 0.05082 0.0
H246 H 0.69827 0.64732 0.08306 0.0
H247 H 0.62809 0.61184 0.08379 0.0
H248 H 0.58665 0.72006 0.0266 0.0
H249 H 0.58222 0.65597 0.98438 0.0
H250 H 0.74138 0.73642 0.10436 0.0
H251 H 0.69789 0.69887 0.16805 0.0
H252 H 0.70343 0.65004 0.94031 0.0
H253 H 0.6373 0.65947 0.9146 0.0
H254 H 0.70826 0.63121 0.88264 0.0
H255 H 0.64319 0.64039 0.85732 0.0
H256 H 0.7373 0.66614 0.9502 0.0
H257 H 0.72812 0.66723 0.06413 0.0
H258 H 0.77298 0.65013 0.95975 0.0
H259 H 0.76398 0.6513 0.07163 0.0
H260 H 0.74518 0.72479 0.89863 0.0
H261 H 0.68536 0.71414 0.84418 0.0
H262 H 0.65651 0.58397 0.99251 0.0
H263 H 0.72447 0.58606 0.01035 0.0
Li264 Li 0.31717 0.65848 0.00312 0.0
Li265 Li 0.31118 0.69029 0.03719 0.0
Li266 Li 0.3116 0.69097 0.96994 0.0
Li267 Li 0.34479 0.68449 0.00523 0.0
C268 C 0.27423 0.66375 0.0058 0.0
N269 N 0.23988 0.63647 0.0118 0.0
C270 C 0.27096 0.6523 0.03733 0.0
C271 C 0.25998 0.66147 0.9774 0.0
C272 C 0.25352 0.63853 0.0398 0.0
C273 C 0.24272 0.64757 0.98095 0.0
C274 C 0.34399 0.67331 0.07622 0.0
C275 C 0.36073 0.69965 0.11384 0.0
N276 N 0.36595 0.68409 0.13757 0.0
C277 C 0.34949 0.6576 0.10103 0.0
C278 C 0.34961 0.69454 0.08272 0.0
C279 C 0.3606 0.66336 0.13186 0.0
C280 C 0.3276 0.61666 0.02214 0.0
N281 N 0.31333 0.62797 1.00248 0.0
C282 C 0.29706 0.59567 0.98205 0.0
C283 C 0.29826 0.61793 0.98248 0.0
C284 C 0.31155 0.58358 1.00229 0.0
C285 C 0.32696 0.5944 0.02256 0.0
H286 H 0.33977 0.62494 0.03708 0.0
H287 H 0.28735 0.6271 0.96638 0.0
C288 C 0.29252 0.72327 0.07881 0.0
N289 N 0.29825 0.70237 0.07885 0.0
C290 C 0.28351 0.7325 0.10928 0.0
C291 C 0.28619 0.69845 0.13912 0.0
C292 C 0.29527 0.68992 0.10817 0.0
C293 C 0.28022 0.72004 0.14001 0.0
H294 H 0.29497 0.73278 0.05508 0.0
H295 H 0.3001 0.67337 0.10763 0.0
C296 C 0.3327 0.65297 0.93828 0.0
N297 N 0.32925 0.61911 0.89142 0.0
C298 C 0.34942 0.63838 0.93477 0.0
C299 C 0.31423 0.65033 0.91788 0.0
C300 C 0.34736 0.62135 0.91099 0.0
C301 C 0.3128 0.63314 0.89432 0.0
C302 C 0.33533 0.72726 0.98608 0.0
C303 C 0.34753 0.72319 0.95559 0.0
C304 C 0.33235 0.74827 0.99744 0.0
C305 C 0.35647 0.74025 0.93685 0.0
C306 C 0.34158 0.76489 0.97799 0.0
N307 N 0.35334 0.76057 0.94835 0.0
C308 C 0.28016 0.71354 0.93051 0.0
C309 C 0.31084 0.70402 0.89722 0.0
C310 C 0.27093 0.72287 0.9003 0.0
N311 N 0.29971 0.70427 0.92839 0.0
C312 C 0.30225 0.71319 0.86642 0.0
C313 C 0.28196 0.7227 0.86758 0.0
H314 H 0.27164 0.71347 0.95562 0.0
H315 H 0.32637 0.69655 0.8962 0.0
C316 C 0.38668 0.66961 0.00445 0.0
N317 N 0.37518 0.68787 0.00755 0.0
C318 C 0.40891 0.67013 0.0055 0.0
C319 C 0.40719 0.70822 0.01441 0.0
C320 C 0.38494 0.70696 0.01309 0.0
C321 C 0.41953 0.68964 0.01036 0.0
H322 H 0.37851 0.65457 1.00136 0.0
H323 H 0.37552 0.72121 0.01681 0.0
O324 O 0.29126 0.6772 1.00273 0.0
O325 O 0.33301 0.66781 0.04601 0.0
O326 O 0.3342 0.66952 0.96198 0.0
O327 O 0.32632 0.71084 0.00484 0.0
H328 H 0.28194 0.6538 0.05942 0.0
H329 H 0.26233 0.67023 0.9528 0.0
H330 H 0.25085 0.62945 0.06395 0.0
H331 H 0.2316 0.64556 0.95915 0.0
H332 H 0.36518 0.716 0.11916 0.0
H333 H 0.34515 0.64112 0.0966 0.0
H334 H 0.34544 0.707 0.06409 0.0
H335 H 0.36494 0.65135 0.15127 0.0
H336 H 0.28487 0.58802 0.96612 0.0
H337 H 0.33872 0.58576 0.03799 0.0
H338 H 0.27893 0.74915 0.10866 0.0
H339 H 0.2842 0.68832 0.16231 0.0
H340 H 0.36383 0.64011 0.95023 0.0
H341 H 0.30092 0.66114 0.92076 0.0
H342 H 0.36016 0.60992 0.9081 0.0
H343 H 0.29855 0.63085 0.87856 0.0
H344 H 0.35024 0.70704 0.94661 0.0
H345 H 0.32304 0.75171 0.02107 0.0
H346 H 0.36595 0.73732 0.91322 0.0
H347 H 0.3394 0.78123 0.98649 0.0
H348 H 0.25516 0.72979 0.90242 0.0
H349 H 0.3115 0.71294 0.84201 0.0
H350 H 0.41768 0.65539 1.0021 0.0
H351 H 0.41464 0.72355 0.01904 0.0
Li352 Li 0.81196 0.81216 0.53786 0.0
Li353 Li 0.84449 0.81752 0.50568 0.0
Li354 Li 0.81871 0.8454 0.50501 0.0
Li355 Li 0.81311 0.81155 0.47012 0.0
C356 C 0.82789 0.84542 0.57661 0.0
N357 N 0.81528 0.86824 0.63611 0.0
C358 C 0.8427 0.85067 0.60304 0.0
C359 C 0.80663 0.85175 0.58054 0.0
C360 C 0.83602 0.86222 0.6329 0.0
C361 C 0.80059 0.86329 0.61077 0.0
C362 C 0.839 0.77455 0.50758 0.0
C363 C 0.85527 0.74336 0.48164 0.0
N364 N 0.8659 0.73983 0.51272 0.0
C365 C 0.84993 0.77054 0.53936 0.0
C366 C 0.84155 0.76082 0.47852 0.0
C367 C 0.86353 0.75293 0.54139 0.0
C368 C 0.77805 0.79454 0.57928 0.0
N369 N 0.79904 0.7999 0.57942 0.0
C370 C 0.80247 0.78839 0.64006 0.0
C371 C 0.81129 0.79698 0.60896 0.0
C372 C 0.78079 0.78273 0.64087 0.0
C373 C 0.76853 0.78593 0.60988 0.0
H374 H 0.76869 0.79692 0.55538 0.0
H375 H 0.82792 0.80149 0.60845 0.0
C376 C 0.88619 0.82658 0.52862 0.0
N377 N 0.87498 0.81309 0.50732 0.0
C378 C 0.90843 0.82553 0.52993 0.0
C379 C 0.90735 0.79679 0.48711 0.0
C380 C 0.88512 0.79827 0.48688 0.0
C381 C 0.9193 0.8106 0.50874 0.0
H382 H 0.87786 0.83851 0.54405 0.0
H383 H 0.87606 0.78792 0.46963 0.0
C384 C 0.77615 0.8353 0.48358 0.0
N385 N 0.74311 0.85205 0.44366 0.0
C386 C 0.78025 0.84472 0.45043 0.0
C387 C 0.75525 0.83442 0.49642 0.0
C388 C 0.76333 0.85307 0.43065 0.0
C389 C 0.73876 0.84299 0.47585 0.0
C390 C 0.85292 0.83474 0.44334 0.0
C391 C 0.86661 0.85226 0.44539 0.0
C392 C 0.85818 0.81759 0.42119 0.0
C393 C 0.88544 0.85227 0.42542 0.0
C394 C 0.87711 0.81823 0.40154 0.0
N395 N 0.89025 0.8354 0.4041 0.0
C396 C 0.8337 0.88709 0.51198 0.0
C397 C 0.79641 0.88618 0.50254 0.0
C398 C 0.83349 0.90935 0.51262 0.0
N399 N 0.81543 0.87596 0.50624 0.0
C400 C 0.79547 0.90845 0.50283 0.0
C401 C 0.81422 0.9204 0.50755 0.0
H402 H 0.84848 0.8786 0.51628 0.0
H403 H 0.78189 0.8772 0.49945 0.0
C404 C 0.78747 0.78228 0.43116 0.0
N405 N 0.80082 0.79926 0.42798 0.0
C406 C 0.77829 0.7731 0.40076 0.0
C407 C 0.79684 0.79899 0.36445 0.0
C408 C 0.80537 0.80785 0.39551 0.0
C409 C 0.78313 0.78137 0.36684 0.0
H410 H 0.78398 0.77586 0.45732 0.0
H411 H 0.81561 0.82166 0.39368 0.0
O412 O 0.8343 0.83401 0.54733 0.0
O413 O 0.82567 0.79169 0.50497 0.0
O414 O 0.79239 0.82669 0.50321 0.0
O415 O 0.83457 0.83426 0.46314 0.0
H416 H 0.85918 0.8458 0.60061 0.0
H417 H 0.79486 0.84783 0.56059 0.0
H418 H 0.84732 0.86637 0.65355 0.0
H419 H 0.7842 0.86829 0.6141 0.0
H420 H 0.85749 0.73265 0.45932 0.0
H421 H 0.84814 0.78106 0.56203 0.0
H422 H 0.83313 0.76372 0.45377 0.0
H423 H 0.87223 0.7497 0.56572 0.0
H424 H 0.81246 0.78649 0.6634 0.0
H425 H 0.75183 0.78159 0.60914 0.0
H426 H 0.91705 0.83669 0.54659 0.0
H427 H 0.9151 0.78499 0.47046 0.0
H428 H 0.79634 0.84577 0.44023 0.0
H429 H 0.7518 0.82722 0.52203 0.0
H430 H 0.76629 0.86042 0.40499 0.0
H431 H 0.72251 0.84243 0.48547 0.0
H432 H 0.86281 0.8657 0.46223 0.0
H433 H 0.84803 0.80368 0.41982 0.0
H434 H 0.89622 0.8657 0.42689 0.0
H435 H 0.88145 0.80499 0.38453 0.0
H436 H 0.84826 0.91781 0.51737 0.0
H437 H 0.78023 0.91621 0.49885 0.0
H438 H 0.76781 0.7595 0.40368 0.0
H439 H 0.8007 0.80602 0.33883 0.0
Li440 Li 0.18378 0.84805 0.50338 0.0
Li441 Li 0.1885 0.81471 0.53753 0.0
Li442 Li 0.18819 0.81411 0.46993 0.0
Li443 Li 0.15522 0.81943 0.50485 0.0
C444 C 0.22708 0.83923 0.49541 0.0
N445 N 0.26385 0.86161 0.47968 0.0
C446 C 0.24308 0.8414 0.52109 0.0
C447 C 0.2299 0.84822 0.4616 0.0
C448 C 0.26152 0.85284 0.51266 0.0
C449 C 0.24856 0.85953 0.45419 0.0
C450 C 0.1663 0.84081 0.58024 0.0
C451 C 0.15484 0.83095 0.63944 0.0
N452 N 0.16639 0.84735 0.65317 0.0
C453 C 0.1779 0.85769 0.59488 0.0
C454 C 0.15451 0.82744 0.60263 0.0
C455 C 0.1778 0.86069 0.63183 0.0
C456 C 0.1711 0.88987 0.48909 0.0
N457 N 0.18764 0.87836 0.50245 0.0
C458 C 0.20693 0.91039 0.51522 0.0
C459 C 0.20532 0.88815 0.51561 0.0
C460 C 0.19005 0.92269 0.50161 0.0
C461 C 0.17197 0.91211 0.48835 0.0
H462 H 0.15711 0.88172 0.47919 0.0
H463 H 0.21802 0.87878 0.52711 0.0
C464 C 0.19808 0.78193 0.58776 0.0
N465 N 0.20108 0.8029 0.57997 0.0
C466 C 0.20656 0.77317 0.61901 0.0
C467 C 0.22142 0.80761 0.63344 0.0
C468 C 0.21264 0.8157 0.60193 0.0
C469 C 0.21837 0.78606 0.64245 0.0
H470 H 0.18916 0.77195 0.56967 0.0
H471 H 0.21494 0.83228 0.59511 0.0
C472 C 0.16244 0.84171 0.42912 0.0
N473 N 0.15508 0.85242 0.35861 0.0
C474 C 0.14579 0.83211 0.41029 0.0
C475 C 0.17507 0.85708 0.41228 0.0
C476 C 0.14241 0.83763 0.3746 0.0
C477 C 0.17117 0.86219 0.37658 0.0
C478 C 0.16093 0.77697 0.50525 0.0
C479 C 0.1592 0.76354 0.47564 0.0
C480 C 0.14866 0.7729 0.53566 0.0
C481 C 0.14495 0.74643 0.47676 0.0
C482 C 0.13459 0.75566 0.53573 0.0
N483 N 0.13302 0.7429 0.50651 0.0
C484 C 0.22151 0.79911 0.42447 0.0
C485 C 0.18676 0.79458 0.40117 0.0
C486 C 0.23046 0.79036 0.39358 0.0
N487 N 0.20002 0.80139 0.4275 0.0
C488 C 0.195 0.78559 0.36993 0.0
C489 C 0.21718 0.78349 0.36561 0.0
H490 H 0.23177 0.8041 0.44604 0.0
H491 H 0.16971 0.79583 0.4046 0.0
C492 C 0.11363 0.82854 0.52804 0.0
N493 N 0.12487 0.81571 0.50564 0.0
C494 C 0.0914 0.8275 0.52911 0.0
C495 C 0.09259 0.79988 0.48423 0.0
C496 C 0.11482 0.8016 0.48378 0.0
C497 C 0.08058 0.81306 0.50693 0.0
H498 H 0.12194 0.83982 0.54482 0.0
H499 H 0.12401 0.79188 0.46561 0.0
O500 O 0.20881 0.82829 0.50335 0.0
O501 O 0.16646 0.83744 0.54417 0.0
O502 O 0.16593 0.83652 0.46413 0.0
O503 O 0.17466 0.79391 0.50453 0.0
H504 H 0.24129 0.83437 0.54728 0.0
H505 H 0.2179 0.84629 0.44121 0.0
H506 H 0.27399 0.85473 0.53234 0.0
H507 H 0.25092 0.8666 0.42814 0.0
H508 H 0.14588 0.82064 0.6571 0.0
H509 H 0.18707 0.86822 0.57795 0.0
H510 H 0.14521 0.81449 0.59171 0.0
H511 H 0.18683 0.8736 0.64355 0.0
H512 H 0.221 0.9179 0.52624 0.0
H513 H 0.15867 0.92094 0.47735 0.0
H514 H 0.20411 0.7564 0.62451 0.0
H515 H 0.23025 0.8182 0.65081 0.0
H516 H 0.13572 0.82036 0.42296 0.0
H517 H 0.1876 0.86516 0.42667 0.0
H518 H 0.1297 0.83017 0.35963 0.0
H519 H 0.18087 0.87401 0.36321 0.0
H520 H 0.16875 0.76627 0.45206 0.0
H521 H 0.14993 0.78303 0.55888 0.0
H522 H 0.14339 0.73596 0.45397 0.0
H523 H 0.1249 0.75242 0.55901 0.0
H524 H 0.24764 0.78923 0.39152 0.0
H525 H 0.18406 0.78005 0.34961 0.0
H526 H 0.08276 0.83785 0.54717 0.0
H527 H 0.08486 0.78874 0.46636 0.0
Li528 Li 0.18913 0.19136 0.5337 0.0
Li529 Li 0.15667 0.18571 0.49979 0.0
Li530 Li 0.18443 0.15854 0.49985 0.0
Li531 Li 0.18982 0.19188 0.46855 0.0
C532 C 0.17114 0.15615 0.56975 0.0
N533 N 0.17909 0.13032 0.62799 0.0
C534 C 0.15422 0.14724 0.58889 0.0
C535 C 0.19211 0.15191 0.58019 0.0
C536 C 0.15857 0.13423 0.61828 0.0
C537 C 0.1958 0.13881 0.60971 0.0
C538 C 0.16505 0.22743 0.52123 0.0
C539 C 0.15765 0.26448 0.53323 0.0
N540 N 0.14588 0.25868 0.56215 0.0
C541 C 0.15285 0.22184 0.55106 0.0
C542 C 0.16746 0.24892 0.51221 0.0
C543 C 0.1433 0.23787 0.57141 0.0
C544 C 0.21934 0.215 0.57395 0.0
N545 N 0.20074 0.20398 0.57634 0.0
C546 C 0.19888 0.21082 0.63913 0.0
C547 C 0.19035 0.20198 0.60805 0.0
C548 C 0.21814 0.22229 0.63769 0.0
C549 C 0.2283 0.22439 0.60433 0.0
H550 H 0.22717 0.21658 0.54834 0.0
H551 H 0.17543 0.19342 0.60937 0.0
C552 C 0.11483 0.17144 0.50795 0.0
N553 N 0.12636 0.18895 0.49881 0.0
C554 C 0.09258 0.17212 0.50769 0.0
C555 C 0.09441 0.20888 0.48859 0.0
C556 C 0.11666 0.20746 0.48904 0.0
C557 C 0.08206 0.19103 0.49795 0.0
H558 H 0.12298 0.1569 0.5154 0.0
H559 H 0.12617 0.22109 0.48142 0.0
C560 C 0.22696 0.16926 0.48272 0.0
N561 N 0.26103 0.15329 0.44435 0.0
C562 C 0.22346 0.15553 0.45394 0.0
C563 C 0.24778 0.17484 0.49202 0.0
C564 C 0.24089 0.14763 0.43487 0.0
C565 C 0.2648 0.16661 0.47228 0.0
C566 C 0.15675 0.17451 0.42854 0.0
C567 C 0.15013 0.15836 0.4054 0.0
C568 C 0.15164 0.19573 0.42088 0.0
C569 C 0.13845 0.1637 0.37494 0.0
C570 C 0.13993 0.20042 0.39016 0.0
N571 N 0.13363 0.18444 0.36802 0.0
C572 C 0.17218 0.11664 0.48536 0.0
C573 C 0.206 0.11874 0.51332 0.0
C574 C 0.17334 0.09441 0.48468 0.0
N575 N 0.18836 0.12829 0.49949 0.0
C576 C 0.20777 0.09651 0.51337 0.0
C577 C 0.19128 0.08403 0.4989 0.0
H578 H 0.15826 0.12467 0.47491 0.0
H579 H 0.21865 0.12837 0.52444 0.0
C580 C 0.20815 0.22543 0.42721 0.0
N581 N 0.20246 0.20451 0.42681 0.0
C582 C 0.21687 0.23496 0.3967 0.0
C583 C 0.21396 0.20119 0.36612 0.0
C584 C 0.20508 0.1924 0.397 0.0
C585 C 0.21994 0.22276 0.36564 0.0
H586 H 0.20584 0.23473 0.45121 0.0
H587 H 0.2001 0.17591 0.39703 0.0
O588 O 0.16707 0.16875 0.54073 0.0
O589 O 0.17469 0.21209 0.50088 0.0
O590 O 0.21018 0.17728 0.50181 0.0
O591 O 0.16822 0.16944 0.45842 0.0
H592 H 0.1379 0.15036 0.5811 0.0
H593 H 0.20541 0.15866 0.5657 0.0
H594 H 0.14563 0.12723 0.63335 0.0
H595 H 0.21194 0.1354 0.61809 0.0
H596 H 0.15939 0.28117 0.52656 0.0
H597 H 0.15069 0.20532 0.55841 0.0
H598 H 0.17683 0.25351 0.48918 0.0
H599 H 0.13383 0.23376 0.59455 0.0
H600 H 0.19053 0.20841 0.6641 0.0
H601 H 0.24293 0.2334 0.60153 0.0
H602 H 0.08371 0.15805 0.51544 0.0
H603 H 0.08695 0.22369 0.48049 0.0
H604 H 0.20746 0.15105 0.44631 0.0
H605 H 0.25074 0.18545 0.51426 0.0
H606 H 0.2384 0.13702 0.41251 0.0
H607 H 0.28101 0.17081 0.47917 0.0
H608 H 0.15401 0.14186 0.41091 0.0
H609 H 0.15668 0.20847 0.43834 0.0
H610 H 0.13323 0.15136 0.35679 0.0
H611 H 0.13587 0.21676 0.38392 0.0
H612 H 0.16013 0.08543 0.47374 0.0
H613 H 0.22195 0.08916 0.52436 0.0
H614 H 0.22137 0.25162 0.3975 0.0
H615 H 0.21576 0.1913 0.34262 0.0
Li616 Li 0.813 0.18925 0.53587 0.0
Li617 Li 0.81917 0.15662 0.50195 0.0
Li618 Li 0.84608 0.18497 0.50142 0.0
Li619 Li 0.81219 0.18956 0.46918 0.0
C620 C 0.84749 0.17078 0.57298 0.0
N621 N 0.87077 0.1771 0.63461 0.0
C622 C 0.85133 0.15377 0.59618 0.0
C623 C 0.85553 0.19098 0.58102 0.0
C624 C 0.86312 0.15729 0.62725 0.0
C625 C 0.86726 0.19386 0.61232 0.0
C626 C 0.77701 0.16482 0.52296 0.0
C627 C 0.73989 0.15771 0.53465 0.0
N628 N 0.7455 0.14599 0.56373 0.0
C629 C 0.78242 0.15268 0.55293 0.0
C630 C 0.75559 0.16735 0.51369 0.0
C631 C 0.76625 0.1433 0.57321 0.0
C632 C 0.7901 0.22011 0.57601 0.0
N633 N 0.80051 0.20114 0.57829 0.0
C634 C 0.79308 0.19909 0.64088 0.0
C635 C 0.80197 0.19051 0.60986 0.0
C636 C 0.78229 0.21874 0.63952 0.0
C637 C 0.78084 0.22924 0.60639 0.0
H638 H 0.78897 0.22814 0.55052 0.0
H639 H 0.81 0.17531 0.61108 0.0
C640 C 0.83359 0.11505 0.51312 0.0
N641 N 0.81634 0.1263 0.5019 0.0
C642 C 0.83301 0.09281 0.51411 0.0
C643 C 0.7969 0.09406 0.49178 0.0
C644 C 0.7982 0.11632 0.49114 0.0
C645 C 0.81446 0.08196 0.50348 0.0
H646 H 0.84786 0.12343 0.52121 0.0
H647 H 0.78472 0.12563 0.48217 0.0
C648 C 0.83384 0.22991 0.49878 0.0
N649 N 0.84896 0.27103 0.49108 0.0
C650 C 0.83831 0.23802 0.46483 0.0
C651 C 0.83684 0.2428 0.52878 0.0
C652 C 0.846 0.25883 0.4615 0.0
C653 C 0.84457 0.26352 0.52435 0.0
C654 C 0.83101 0.15609 0.43085 0.0
C655 C 0.84772 0.14869 0.40953 0.0
C656 C 0.80999 0.15088 0.42206 0.0
C657 C 0.84313 0.13622 0.37962 0.0
C658 C 0.80605 0.13837 0.39195 0.0
N659 N 0.82256 0.13136 0.37153 0.0
C660 C 0.88808 0.17192 0.51105 0.0
C661 C 0.88606 0.20765 0.49085 0.0
C662 C 0.91032 0.17286 0.51162 0.0
N663 N 0.87641 0.18918 0.50094 0.0
C664 C 0.90831 0.20925 0.49077 0.0
C665 C 0.92074 0.1917 0.5013 0.0
H666 H 0.88005 0.15733 0.51857 0.0
H667 H 0.87663 0.22115 0.48272 0.0
C668 C 0.77891 0.20914 0.42908 0.0
N669 N 0.79934 0.20193 0.42755 0.0
C670 C 0.76924 0.21789 0.39875 0.0
C671 C 0.8018 0.21164 0.3659 0.0
C672 C 0.81083 0.20305 0.39681 0.0
C673 C 0.78069 0.21918 0.36651 0.0
H674 H 0.77011 0.208 0.45384 0.0
H675 H 0.8271 0.19735 0.39633 0.0
O676 O 0.83591 0.16755 0.54255 0.0
O677 O 0.79252 0.17426 0.50269 0.0
O678 O 0.82599 0.20968 0.50258 0.0
O679 O 0.83532 0.16822 0.4603 0.0
H680 H 0.84519 0.13803 0.5903 0.0
H681 H 0.85283 0.20424 0.5632 0.0
H682 H 0.86618 0.14428 0.64552 0.0
H683 H 0.87359 0.20941 0.61886 0.0
H684 H 0.72324 0.15954 0.52781 0.0
H685 H 0.7989 0.15045 0.56044 0.0
H686 H 0.75116 0.17669 0.49054 0.0
H687 H 0.77021 0.13388 0.59647 0.0
H688 H 0.79488 0.19049 0.66576 0.0
H689 H 0.77241 0.24422 0.6038 0.0
H690 H 0.84707 0.0842 0.5227 0.0
H691 H 0.78221 0.08643 0.48365 0.0
H692 H 0.83616 0.22828 0.44135 0.0
H693 H 0.83317 0.23692 0.55524 0.0
H694 H 0.84966 0.26526 0.43541 0.0
H695 H 0.84702 0.27364 0.54735 0.0
H696 H 0.86408 0.15256 0.41606 0.0
H697 H 0.79684 0.15642 0.43827 0.0
H698 H 0.85591 0.13039 0.36286 0.0
H699 H 0.78987 0.13422 0.38483 0.0
H700 H 0.91926 0.15885 0.51944 0.0
H701 H 0.91569 0.22412 0.48284 0.0
H702 H 0.75287 0.22329 0.4004 0.0
H703 H 0.81136 0.2126 0.34187 0.0
C704 C 0.29431 0.45646 0.00553 0.0
C705 C 0.31385 0.4459 1.00093 0.0
C706 C 0.29312 0.47884 0.00529 0.0
C707 C 0.31192 0.49098 1.00027 0.0
C708 C 0.33165 0.48042 0.99526 0.0
C709 C 0.33238 0.45804 0.99565 0.0
C710 C 0.2718 0.48951 0.01082 0.0
C711 C 0.35204 0.49277 0.98964 0.0
C712 C 0.30776 0.54874 0.96979 0.0
C713 C 0.31091 0.55985 1.00188 0.0
C714 C 0.30781 0.52634 0.96892 0.0
C715 C 0.31107 0.51473 1.00089 0.0
C716 C 0.31399 0.52584 0.03342 0.0
C717 C 0.31388 0.54823 0.03352 0.0
C718 C 0.3047 0.51509 0.93368 0.0
C719 C 0.31744 0.51406 0.06811 0.0
H720 H 0.27996 0.44722 0.01 0.0
H721 H 0.34748 0.45002 0.99152 0.0
H722 H 0.27229 0.49954 0.03519 0.0
H723 H 0.2682 0.50021 0.98802 0.0
H724 H 0.25861 0.4778 0.0136 0.0
H725 H 0.36603 0.48216 0.98561 0.0
H726 H 0.35047 0.50334 0.96604 0.0
H727 H 0.35516 0.50312 0.01308 0.0
H728 H 0.30572 0.55758 0.94516 0.0
H729 H 0.31602 0.55667 0.05849 0.0
H730 H 0.29104 0.50393 0.93547 0.0
H731 H 0.31905 0.50547 0.92726 0.0
H732 H 0.30177 0.52641 0.9114 0.0
H733 H 0.30391 0.50308 0.07323 0.0
H734 H 0.31903 0.52504 0.09121 0.0
H735 H 0.33207 0.50418 0.06631 0.0
C736 C 0.45533 0.30825 0.03536 0.0
C737 C 0.4437 0.30809 0.0034 0.0
C738 C 0.47772 0.30812 0.03515 0.0
C739 C 0.48877 0.30811 1.00216 0.0
C740 C 0.47711 0.30777 0.9698 0.0
C741 C 0.45471 0.30764 0.97081 0.0
C742 C 0.48955 0.3082 0.07023 0.0
C743 C 0.48828 0.30805 0.93409 0.0
C744 C 0.54537 0.32985 1.00269 0.0
C745 C 0.55754 0.31111 1.00178 0.0
C746 C 0.523 0.3291 1.00227 0.0
C747 C 0.51253 0.3091 1.00157 0.0
C748 C 0.52476 0.2901 1.00074 0.0
C749 C 0.54713 0.29135 1.00052 0.0
C750 C 0.51057 0.34972 1.00256 0.0
C751 C 0.5142 0.26848 1.00058 0.0
H752 H 0.44687 0.3084 0.0606 0.0
H753 H 0.44578 0.30777 0.94605 0.0
H754 H 0.50077 0.29454 0.07137 0.0
H755 H 0.49917 0.32298 0.07255 0.0
H756 H 0.47861 0.30727 0.09352 0.0
H757 H 0.47692 0.30732 0.9114 0.0
H758 H 0.49791 0.32281 0.93156 0.0
H759 H 0.49943 0.29437 0.93207 0.0
H760 H 0.5534 0.34515 0.00328 0.0
H761 H 0.55653 0.27684 1.00008 0.0
H762 H 0.50044 0.35053 0.0268 0.0
H763 H 0.49978 0.35039 0.97912 0.0
H764 H 0.52111 0.36394 1.00203 0.0
H765 H 0.50409 0.26667 0.02471 0.0
H766 H 0.52598 0.25525 0.99998 0.0
H767 H 0.50359 0.267 0.97704 0.0
C768 C 0.67717 0.45587 0.98006 0.0
C769 C 0.69071 0.44437 1.00276 0.0
C770 C 0.67758 0.47825 0.97929 0.0
C771 C 0.69158 0.48941 1.00231 0.0
C772 C 0.70525 0.47786 0.02538 0.0
C773 C 0.7048 0.45545 0.02506 0.0
C774 C 0.66304 0.48995 0.95383 0.0
C775 C 0.7201 0.48916 0.05079 0.0
C776 C 0.70564 0.54704 0.98072 0.0
C777 C 0.69117 0.55823 1.00221 0.0
C778 C 0.70592 0.52464 0.98037 0.0
C779 C 0.69166 0.51319 1.0026 0.0
C780 C 0.67726 0.52446 0.02482 0.0
C781 C 0.67705 0.54684 0.02408 0.0
C782 C 0.72123 0.51322 0.95583 0.0
C783 C 0.66209 0.51287 0.04939 0.0
H784 H 0.66641 0.44729 0.96257 0.0
H785 H 0.71516 0.44657 0.04282 0.0
H786 H 0.6518 0.50017 0.96901 0.0
H787 H 0.67255 0.5006 0.93631 0.0
H788 H 0.65367 0.47891 0.93681 0.0
H789 H 0.72965 0.47785 0.06708 0.0
H790 H 0.73116 0.49961 0.0357 0.0
H791 H 0.71078 0.49953 0.06902 0.0
H792 H 0.71644 0.55585 0.96359 0.0
H793 H 0.666 0.5555 0.04097 0.0
H794 H 0.71223 0.50293 0.93705 0.0
H795 H 0.73188 0.50267 0.97154 0.0
H796 H 0.73121 0.52445 0.94013 0.0
H797 H 0.65112 0.50275 0.03355 0.0
H798 H 0.65243 0.52399 0.06587 0.0
H799 H 0.67113 0.50214 0.06745 0.0
C800 C 0.45426 0.70724 0.99418 0.0
C801 C 0.44329 0.69052 0.01105 0.0
C802 C 0.47666 0.70784 0.99361 0.0
C803 C 0.48841 0.69126 0.0101 0.0
C804 C 0.47746 0.67449 0.02753 0.0
C805 C 0.45507 0.67437 0.02792 0.0
C806 C 0.48775 0.72605 0.97489 0.0
C807 C 0.48939 0.6565 0.04539 0.0
C808 C 0.54508 0.68047 0.97879 0.0
C809 C 0.55727 0.68964 0.00621 0.0
C810 C 0.52271 0.68098 0.97966 0.0
C811 C 0.51216 0.69114 0.00842 0.0
C812 C 0.52431 0.70078 0.03585 0.0
C813 C 0.54668 0.69982 0.03453 0.0
C814 C 0.51034 0.67043 0.94995 0.0
C815 C 0.51366 0.71189 0.06685 0.0
H816 H 0.44534 0.71966 0.98071 0.0
H817 H 0.44678 0.66159 0.04159 0.0
H818 H 0.49901 0.73399 0.99342 0.0
H819 H 0.49724 0.71986 0.95214 0.0
H820 H 0.47634 0.73814 0.96464 0.0
H821 H 0.47852 0.64478 0.05818 0.0
H822 H 0.49936 0.64802 0.02545 0.0
H823 H 0.5003 0.66293 0.06604 0.0
H824 H 0.55304 0.67292 0.95643 0.0
H825 H 0.55587 0.70671 0.05611 0.0
H826 H 0.49975 0.68223 0.93682 0.0
H827 H 0.50001 0.6577 0.96107 0.0
H828 H 0.52093 0.66329 0.9294 0.0
H829 H 0.50271 0.72446 0.05689 0.0
H830 H 0.52536 0.71933 0.08528 0.0
H831 H 0.50389 0.70032 0.08215 0.0
C832 C 0.79694 0.95542 0.52314 0.0
C833 C 0.81375 0.94417 0.50705 0.0
C834 C 0.79633 0.97782 0.5227 0.0
C835 C 0.81299 0.98931 0.50595 0.0
C836 C 0.82999 0.97809 0.48965 0.0
C837 C 0.83013 0.9557 0.4903 0.0
C838 C 0.77791 0.9892 0.54033 0.0
C839 C 0.84808 0.98974 0.47155 0.0
C840 C 0.80367 0.04674 0.47693 0.0
C841 C 0.81355 0.05821 0.5045 0.0
C842 C 0.80314 0.02434 0.47726 0.0
C843 C 0.8128 0.01308 0.50576 0.0
C844 C 0.82264 0.02454 0.53382 0.0
C845 C 0.82284 0.04693 0.5329 0.0
C846 C 0.79246 0.0127 0.44688 0.0
C847 C 0.83312 0.01315 0.56469 0.0
H848 H 0.78435 0.94671 0.53657 0.0
H849 H 0.843 0.9472 0.47726 0.0
H850 H 0.78388 0.99954 0.56215 0.0
H851 H 0.7698 0.99969 0.52072 0.0
H852 H 0.766 0.97794 0.55161 0.0
H853 H 0.86013 0.97867 0.46018 0.0
H854 H 0.84179 0.99992 0.44974 0.0
H855 H 0.85612 1.00042 0.49093 0.0
H856 H 0.79668 0.05527 0.45465 0.0
H857 H 0.8302 0.05562 0.55463 0.0
H858 H 0.77989 0.00196 0.45738 0.0
H859 H 0.80428 0.00259 0.43276 0.0
H860 H 0.78513 0.02379 0.42726 0.0
H861 H 0.82138 0.00273 0.57834 0.0
H862 H 0.83991 0.02439 0.58457 0.0
H863 H 0.84612 0.00274 0.55468 0.0
C864 C 0.04487 0.83099 0.50637 0.0
C865 C 0.05689 0.81213 0.507 0.0
C866 C 0.02249 0.83044 0.50638 0.0
C867 C 0.01183 0.81055 0.50737 0.0
C868 C 0.02388 0.79144 0.50805 0.0
C869 C 0.04626 0.79246 0.50766 0.0
C870 C 0.01025 0.85117 0.5052 0.0
C871 C 0.01311 0.76994 0.50947 0.0
C872 C 0.95449 0.81077 0.54055 0.0
C873 C 0.943 0.80988 0.50848 0.0
C874 C 0.97688 0.81063 0.54061 0.0
C875 C 0.98808 0.8098 0.50778 0.0
C876 C 0.97655 0.80878 0.47533 0.0
C877 C 0.95416 0.80874 0.47608 0.0
C878 C 0.98857 0.81151 0.57579 0.0
C879 C 0.98788 0.80813 0.43977 0.0
H880 H 0.053 0.84623 0.50536 0.0
H881 H 0.05549 0.77785 0.50847 0.0
H882 H 0.99965 0.85144 0.48151 0.0
H883 H 0.99994 0.85257 0.52916 0.0
H884 H 0.02093 0.86528 0.50407 0.0
H885 H 0.02476 0.75659 0.50998 0.0
H886 H 0.0029 0.76888 0.5336 0.0
H887 H 0.00257 0.76792 0.48595 0.0
H888 H 0.94593 0.81143 0.56567 0.0
H889 H 0.94536 0.80831 0.4512 0.0
H890 H 0.99843 0.82618 0.57707 0.0
H891 H 0.99957 0.79772 0.57813 0.0
H892 H 0.97754 0.8114 0.59899 0.0
H893 H 0.99769 0.82271 0.43639 0.0
H894 H 0.9766 0.80699 0.41699 0.0
H895 H 0.99888 0.79429 0.43878 0.0
C896 C 0.18627 0.04863 0.4689 0.0
C897 C 0.19254 0.06033 0.49902 0.0
C898 C 0.18658 0.02624 0.46904 0.0
C899 C 0.19324 0.01524 0.50011 0.0
C900 C 0.19987 0.02695 0.53045 0.0
C901 C 0.1995 0.04935 0.52951 0.0
C902 C 0.17954 0.01435 0.43605 0.0
C903 C 0.20695 0.01582 0.56416 0.0
C904 C 0.17328 0.95844 0.51222 0.0
C905 C 0.19107 0.9464 0.50174 0.0
C906 C 0.17386 0.98082 0.51215 0.0
C907 C 0.19266 0.99148 0.50116 0.0
C908 C 0.21072 0.97942 0.49073 0.0
C909 C 0.20973 0.95703 0.49125 0.0
C910 C 0.15432 0.99307 0.52375 0.0
C911 C 0.23099 0.99018 0.47862 0.0
H912 H 0.18115 0.05701 0.44509 0.0
H913 H 0.20414 0.05828 0.55301 0.0
H914 H 0.19234 0.00336 0.42709 0.0
H915 H 0.16536 0.00447 0.44228 0.0
H916 H 0.17549 0.02526 0.41369 0.0
H917 H 0.21222 0.02721 0.58506 0.0
H918 H 0.19364 0.00612 0.57501 0.0
H919 H 0.22027 0.00473 0.55823 0.0
H920 H 0.15892 0.95034 0.52086 0.0
H921 H 0.22346 0.94782 0.4828 0.0
H922 H 0.14861 0.00329 0.50154 0.0
H923 H 0.15836 0.00377 0.54634 0.0
H924 H 0.1411 0.9824 0.53213 0.0
H925 H 0.22774 1.00019 0.4548 0.0
H926 H 0.24372 0.97854 0.47183 0.0
H927 H 0.23699 1.00093 0.49987 0.0
C928 C 0.9553 0.20204 0.47218 0.0
C929 C 0.94443 0.19285 0.50111 0.0
C930 C 0.97769 0.20251 0.47109 0.0
C931 C 0.98952 0.19369 0.49971 0.0
C932 C 0.97864 0.18471 0.52925 0.0
C933 C 0.95625 0.18435 0.52954 0.0
C934 C 0.98869 0.21209 0.43902 0.0
C935 C 0.99065 0.17531 0.56043 0.0
C936 C 0.04642 0.17513 0.48341 0.0
C937 C 0.05835 0.19204 0.49758 0.0
C938 C 0.02404 0.17559 0.48358 0.0
C939 C 0.01327 0.19335 0.49841 0.0
C940 C 0.02521 0.21056 0.51249 0.0
C941 C 0.0476 0.20972 0.51181 0.0
C942 C 0.0119 0.15699 0.46804 0.0
C943 C 0.01433 0.22972 0.52872 0.0
H944 H 0.94627 0.20843 0.44995 0.0
H945 H 0.94795 0.17748 0.55218 0.0
H946 H 0.99967 0.22496 0.44758 0.0
H947 H 0.99847 0.19976 0.4255 0.0
H948 H 0.9772 0.21877 0.41941 0.0
H949 H 0.97983 0.16951 0.58181 0.0
H950 H 1.00064 0.16179 0.55121 0.0
H951 H 0.00155 0.18741 0.57196 0.0
H952 H 0.05461 0.16155 0.47191 0.0
H953 H 0.05671 0.22275 0.52314 0.0
H954 H 1.0011 0.16263 0.44658 0.0
H955 H 0.00181 0.14956 0.48895 0.0
H956 H 0.02265 0.1446 0.45684 0.0
H957 H 0.00344 0.23714 0.50896 0.0
H958 H 0.02589 0.24195 0.53792 0.0
H959 H 0.00446 0.22466 0.55181 0.0
C960 C 0.24518 0.22175 0.31369 0.0
C961 C 0.22915 0.23242 0.33278 0.0
C962 C 0.25382 0.23047 0.28229 0.0
C963 C 0.24606 0.25023 0.26934 0.0
C964 C 0.22986 0.26107 0.28849 0.0
C965 C 0.22171 0.2521 0.32009 0.0
C966 C 0.27129 0.21856 0.26301 0.0
C967 C 0.22097 0.28202 0.27537 0.0
C968 C 0.28059 0.28238 0.20528 0.0
C969 C 0.27194 0.27684 0.17204 0.0
C970 C 0.2724 0.27378 0.23711 0.0
C971 C 0.2549 0.25953 0.23575 0.0
C972 C 0.24597 0.25405 0.20225 0.0
C973 C 0.25471 0.26263 0.17079 0.0
C974 C 0.28261 0.27977 0.27218 0.0
C975 C 0.22712 0.23917 0.19966 0.0
H976 H 0.25115 0.20664 0.32358 0.0
H977 H 0.20917 0.2603 0.33453 0.0
H978 H 0.26606 0.21455 0.23554 0.0
H979 H 0.28564 0.2288 0.26059 0.0
H980 H 0.27583 0.20358 0.27691 0.0
H981 H 0.20831 0.28836 0.29319 0.0
H982 H 0.2339 0.29402 0.2734 0.0
H983 H 0.21423 0.27999 0.2482 0.0
H984 H 0.29406 0.29318 0.20633 0.0
H985 H 0.24785 0.25847 0.14517 0.0
H986 H 0.28845 0.26523 0.28595 0.0
H987 H 0.27066 0.28736 0.28994 0.0
H988 H 0.29621 0.29093 0.26865 0.0
H989 H 0.2313 0.2234 0.21109 0.0
H990 H 0.22175 0.23686 0.17167 0.0
H991 H 0.2136 0.24557 0.2155 0.0
C992 C 0.71474 0.2583 0.19437 0.0
C993 C 0.72628 0.27349 0.17471 0.0
C994 C 0.72311 0.24928 0.22574 0.0
C995 C 0.74349 0.25564 0.23799 0.0
C996 C 0.75519 0.27102 0.21841 0.0
C997 C 0.7465 0.27969 0.18702 0.0
C998 C 0.71012 0.23293 0.24581 0.0
C999 C 0.77698 0.27823 0.23052 0.0
C1000 C 0.75801 0.24668 0.33561 0.0
C1001 C 0.77078 0.22833 0.3337 0.0
C1002 C 0.74894 0.25566 0.30475 0.0
C1003 C 0.75268 0.24608 0.27109 0.0
C1004 C 0.76541 0.22747 0.269 0.0
C1005 C 0.77429 0.21884 0.30026 0.0
C1006 C 0.73554 0.27556 0.30812 0.0
C1007 C 0.76971 0.21669 0.23368 0.0
H1008 H 0.69899 0.25362 0.18546 0.0
H1009 H 0.75571 0.29114 0.17182 0.0
H1010 H 0.71918 0.21778 0.24791 0.0
H1011 H 0.70704 0.23857 0.2734 0.0
H1012 H 0.6946 0.22961 0.2327 0.0
H1013 H 0.78386 0.2906 0.21268 0.0
H1014 H 0.77603 0.28478 0.25798 0.0
H1015 H 0.78803 0.26442 0.23134 0.0
H1016 H 0.75541 0.25428 0.36122 0.0
H1017 H 0.78385 0.20448 0.29854 0.0
H1018 H 0.71942 0.27271 0.29694 0.0
H1019 H 0.74284 0.28869 0.29246 0.0
H1020 H 0.73383 0.28086 0.33628 0.0
H1021 H 0.75444 0.21205 0.22095 0.0
H1022 H 0.7798 0.20224 0.23661 0.0
H1023 H 0.77782 0.22794 0.21529 0.0
C1024 C 0.78723 0.76675 0.305 0.0
C1025 C 0.774 0.77173 0.33401 0.0
C1026 C 0.77886 0.75784 0.2736 0.0
C1027 C 0.75664 0.75419 0.27085 0.0
C1028 C 0.74318 0.75927 0.30005 0.0
C1029 C 0.75206 0.76779 0.33141 0.0
C1030 C 0.7938 0.75229 0.24339 0.0
C1031 C 0.71938 0.75595 0.29799 0.0
C1032 C 0.73303 0.75 0.17745 0.0
C1033 C 0.73023 0.72793 0.17384 0.0
C1034 C 0.74141 0.75877 0.20899 0.0
C1035 C 0.74748 0.74512 0.23737 0.0
C1036 C 0.7449 0.72279 0.23368 0.0
C1037 C 0.73614 0.71449 0.20209 0.0
C1038 C 0.74358 0.78267 0.21206 0.0
C1039 C 0.75152 0.70766 0.26301 0.0
H1040 H 0.80423 0.76959 0.30708 0.0
H1041 H 0.74177 0.77182 0.35367 0.0
H1042 H 0.79223 0.73515 0.23658 0.0
H1043 H 0.78951 0.76153 0.21919 0.0
H1044 H 0.81072 0.75562 0.25009 0.0
H1045 H 0.71111 0.76092 0.32287 0.0
H1046 H 0.71273 0.76519 0.27531 0.0
H1047 H 0.71581 0.7389 0.29294 0.0
H1048 H 0.72828 0.76044 0.1558 0.0
H1049 H 0.73419 0.6974 0.19925 0.0
H1050 H 0.76052 0.78701 0.21645 0.0
H1051 H 0.73444 0.78848 0.2355 0.0
H1052 H 0.73777 0.7911 0.18786 0.0
H1053 H 0.76869 0.70985 0.26913 0.0
H1054 H 0.74877 0.69071 0.25574 0.0
H1055 H 0.74251 0.71123 0.28778 0.0
C1056 C 0.21721 0.77858 0.29888 0.0
C1057 C 0.22636 0.77415 0.33229 0.0
C1058 C 0.22564 0.76986 0.26733 0.0
C1059 C 0.24383 0.75652 0.26904 0.0
C1060 C 0.25322 0.75204 0.30258 0.0
C1061 C 0.24433 0.7608 0.33375 0.0
C1062 C 0.2151 0.77496 0.23212 0.0
C1063 C 0.27266 0.73795 0.30555 0.0
C1064 C 0.25511 0.7184 0.19222 0.0
C1065 C 0.27074 0.7295 0.17286 0.0
C1066 C 0.24614 0.72705 0.2234 0.0
C1067 C 0.25304 0.74724 0.23574 0.0
C1068 C 0.26881 0.75852 0.21633 0.0
C1069 C 0.2774 0.74956 0.18509 0.0
C1070 C 0.22922 0.7146 0.2431 0.0
C1071 C 0.27674 0.78 0.22874 0.0
H1072 H 0.20355 0.78912 0.29728 0.0
H1073 H 0.25135 0.75695 0.35937 0.0
H1074 H 0.22659 0.78315 0.21425 0.0
H1075 H 0.2102 0.76001 0.21862 0.0
H1076 H 0.20084 0.78529 0.23538 0.0
H1077 H 0.27828 0.7363 0.33353 0.0
H1078 H 0.26904 0.72184 0.29495 0.0
H1079 H 0.28583 0.74458 0.28918 0.0
H1080 H 0.2497 0.70301 0.1827 0.0
H1081 H 0.28965 0.75811 0.17053 0.0
H1082 H 0.21438 0.72416 0.24493 0.0
H1083 H 0.23455 0.7113 0.27079 0.0
H1084 H 0.22549 0.6992 0.22987 0.0
H1085 H 0.26326 0.7914 0.23053 0.0
H1086 H 0.28902 0.78675 0.21059 0.0
H1087 H 0.28368 0.77855 0.25588 0.0
C1088 C 0.21559 0.76287 0.69702 0.0
C1089 C 0.2275 0.77706 0.67598 0.0
C1090 C 0.22405 0.75412 0.72852 0.0
C1091 C 0.24496 0.75965 0.73931 0.0
C1092 C 0.25703 0.77404 0.7183 0.0
C1093 C 0.24817 0.78257 0.68695 0.0
C1094 C 0.21061 0.73893 0.75024 0.0
C1095 C 0.27942 0.78026 0.72877 0.0
C1096 C 0.26091 0.7514 0.83645 0.0
C1097 C 0.27234 0.73217 0.83478 0.0
C1098 C 0.25187 0.76049 0.80566 0.0
C1099 C 0.25432 0.75015 0.7723 0.0
C1100 C 0.26579 0.73073 0.77042 0.0
C1101 C 0.2746 0.72197 0.80162 0.0
C1102 C 0.23978 0.78122 0.8088 0.0
C1103 C 0.26873 0.71917 0.73541 0.0
H1104 H 0.1995 0.75876 0.68905 0.0
H1105 H 0.25759 0.7933 0.67065 0.0
H1106 H 0.21877 0.72328 0.75242 0.0
H1107 H 0.20859 0.74516 0.77774 0.0
H1108 H 0.19459 0.73638 0.73837 0.0
H1109 H 0.28657 0.79191 0.70989 0.0
H1110 H 0.27942 0.78734 0.7559 0.0
H1111 H 0.28972 0.76588 0.72969 0.0
H1112 H 0.25929 0.75954 0.86182 0.0
H1113 H 0.28308 0.70695 0.80009 0.0
H1114 H 0.22327 0.77915 0.79879 0.0
H1115 H 0.24747 0.79359 0.79199 0.0
H1116 H 0.23905 0.78711 0.83674 0.0
H1117 H 0.25296 0.71506 0.72392 0.0
H1118 H 0.27817 0.70429 0.73841 0.0
H1119 H 0.27693 0.7297 0.71595 0.0
C1120 C 0.2679 0.25359 0.82806 0.0
C1121 C 0.27196 0.27556 0.83108 0.0
C1122 C 0.25901 0.24489 0.79686 0.0
C1123 C 0.25445 0.25835 0.76748 0.0
C1124 C 0.25866 0.28046 0.7701 0.0
C1125 C 0.26711 0.28881 0.8019 0.0
C1126 C 0.25448 0.22126 0.79535 0.0
C1127 C 0.25427 0.29533 0.73925 0.0
C1128 C 0.24971 0.23261 0.6757 0.0
C1129 C 0.22751 0.23186 0.67075 0.0
C1130 C 0.25867 0.24139 0.70678 0.0
C1131 C 0.24517 0.24931 0.73404 0.0
C1132 C 0.2228 0.24855 0.72938 0.0
C1133 C 0.21427 0.24008 0.69774 0.0
C1134 C 0.28263 0.24216 0.71048 0.0
C1135 C 0.20782 0.2566 0.75795 0.0
H1136 H 0.27189 0.24305 0.84997 0.0
H1137 H 0.26972 0.30584 0.80392 0.0
H1138 H 0.23739 0.21855 0.7892 0.0
H1139 H 0.2639 0.21382 0.7736 0.0
H1140 H 0.25837 0.21306 0.82081 0.0
H1141 H 0.25905 0.31202 0.74513 0.0
H1142 H 0.26302 0.28986 0.71518 0.0
H1143 H 0.23704 0.29513 0.73264 0.0
H1144 H 0.26016 0.22603 0.65548 0.0
H1145 H 0.19714 0.24005 0.69412 0.0
H1146 H 0.2877 0.23256 0.73385 0.0
H1147 H 0.28789 0.2588 0.71531 0.0
H1148 H 0.29093 0.23602 0.68638 0.0
H1149 H 0.21086 0.24806 0.78339 0.0
H1150 H 0.19081 0.25442 0.7506 0.0
H1151 H 0.21072 0.27378 0.7629 0.0
C1152 C 0.7497 0.2665 0.83073 0.0
C1153 C 0.72817 0.27265 0.83203 0.0
C1154 C 0.7586 0.25767 0.79961 0.0
C1155 C 0.74578 0.25509 0.76882 0.0
C1156 C 0.72408 0.26129 0.76987 0.0
C1157 C 0.71553 0.26986 0.80144 0.0
C1158 C 0.78177 0.25114 0.79967 0.0
C1159 C 0.70988 0.25888 0.7376 0.0
C1160 C 0.77345 0.25021 0.67862 0.0
C1161 C 0.77268 0.22814 0.67246 0.0
C1162 C 0.76466 0.2592 0.70971 0.0
C1163 C 0.75503 0.24581 0.73554 0.0
C1164 C 0.75419 0.22354 0.72955 0.0
C1165 C 0.76289 0.21501 0.69807 0.0
C1166 C 0.76577 0.28304 0.71498 0.0
C1167 C 0.74412 0.2087 0.75646 0.0
H1168 H 0.75972 0.26886 0.85393 0.0
H1169 H 0.69882 0.27418 0.80223 0.0
H1170 H 0.78322 0.23399 0.79283 0.0
H1171 H 0.79062 0.26024 0.77902 0.0
H1172 H 0.78951 0.25388 0.82593 0.0
H1173 H 0.69345 0.26479 0.74255 0.0
H1174 H 0.71671 0.26777 0.71468 0.0
H1175 H 0.70899 0.24186 0.72968 0.0
H1176 H 0.78122 0.2605 0.65936 0.0
H1177 H 0.76184 0.198 0.6934 0.0
H1178 H 0.77489 0.28675 0.73956 0.0
H1179 H 0.74948 0.28961 0.71858 0.0
H1180 H 0.77344 0.29129 0.69209 0.0
H1181 H 0.75219 0.21038 0.78266 0.0
H1182 H 0.74501 0.19173 0.74806 0.0
H1183 H 0.72713 0.213 0.76045 0.0
C1184 C 0.72184 0.72049 0.8002 0.0
C1185 C 0.72569 0.73006 0.83344 0.0
C1186 C 0.73052 0.72896 0.76863 0.0
C1187 C 0.74337 0.7475 0.77023 0.0
C1188 C 0.74724 0.7573 0.80365 0.0
C1189 C 0.7384 0.74846 0.83482 0.0
C1190 C 0.7261 0.71794 0.73359 0.0
C1191 C 0.76076 0.77714 0.8065 0.0
C1192 C 0.78216 0.75835 0.69411 0.0
C1193 C 0.77108 0.77359 0.67386 0.0
C1194 C 0.77333 0.74973 0.72544 0.0
C1195 C 0.75291 0.75651 0.73695 0.0
C1196 C 0.74163 0.77186 0.71663 0.0
C1197 C 0.75082 0.78017 0.68534 0.0
C1198 C 0.78584 0.73331 0.74619 0.0
C1199 C 0.71987 0.77958 0.72807 0.0
H1200 H 0.71229 0.70611 0.79891 0.0
H1201 H 0.74124 0.75612 0.8603 0.0
H1202 H 0.71837 0.72921 0.71477 0.0
H1203 H 0.74131 0.71275 0.72119 0.0
H1204 H 0.71563 0.70379 0.73682 0.0
H1205 H 0.76211 0.78294 0.83442 0.0
H1206 H 0.77701 0.77391 0.79612 0.0
H1207 H 0.75383 0.79004 0.78987 0.0
H1208 H 0.79769 0.75295 0.68521 0.0
H1209 H 0.74226 0.79213 0.67013 0.0
H1210 H 0.77657 0.7183 0.74818 0.0
H1211 H 0.78864 0.73905 0.7738 0.0
H1212 H 0.8015 0.72972 0.73367 0.0
H1213 H 0.70868 0.76593 0.72986 0.0
H1214 H 0.71316 0.79155 0.70931 0.0
H1215 H 0.72083 0.78683 0.75503 0.0
loop_
_geom_bond_atom_site_label_1
_geom_bond_atom_site_label_2
_geom_bond_distance
_geom_bond_site_symmetry_2
_ccdc_geom_bond_type
Li0 N17 1.990 . S
Li0 O60 1.956 . S
Li0 O61 1.981 . S
Li0 O62 1.955 1_554 S
Li1 N25 1.991 . S
Li1 O60 1.960 1_556 S
Li1 O61 1.956 1_556 S
Li1 O63 1.971 . S
Li2 N47 1.991 . S
Li2 O60 1.976 . S
Li2 O62 1.956 1_554 S
Li2 O63 1.955 1_554 S
Li3 N53 1.990 . S
Li3 O61 1.950 1_556 S
Li3 O62 1.976 . S
Li3 O63 1.956 . S
C4 C6 1.348 . S
C4 C7 1.356 . S
C4 O60 1.325 . S
N5 C8 1.314 . S
N5 C9 1.279 . S
C6 C4 1.348 . S
C6 C8 1.353 . S
C6 H64 0.929 . S
C7 C4 1.356 . S
C7 C9 1.358 . S
C7 H65 0.930 . S
C8 N5 1.314 . S
C8 C6 1.353 . S
C8 H66 0.930 . S
C9 N5 1.279 . S
C9 C7 1.358 . S
C9 H67 0.930 . S
C10 C13 1.345 . S
C10 C14 1.358 1_554 S
C10 O61 1.325 . S
C11 N12 1.279 . S
C11 C14 1.358 . S
C11 H68 0.930 . S
N12 C11 1.279 . S
N12 C15 1.314 1_556 S
C13 C10 1.345 . S
C13 C15 1.353 . S
C13 H69 0.929 . S
C14 C10 1.358 1_556 S
C14 C11 1.358 . S
C14 H70 0.930 . S
C15 N12 1.314 1_554 S
C15 C13 1.353 . S
C15 H71 0.930 . S
C16 N17 1.314 . S
C16 C21 1.353 . S
C16 H22 0.930 . S
N17 Li0 1.990 . S
N17 C16 1.314 . S
N17 C19 1.279 . S
C18 C19 1.358 . S
C18 C20 1.356 . S
C18 H72 0.930 . S
C19 N17 1.279 . S
C19 C18 1.358 . S
C19 H23 0.930 . S
C20 C18 1.356 . S
C20 C21 1.348 . S
C21 C16 1.353 . S
C21 C20 1.348 . S
C21 H73 0.929 . S
H22 C16 0.930 . S
H23 C19 0.930 . S
C24 N25 1.314 . S
C24 C26 1.353 . S
C24 H30 0.930 . S
N25 Li1 1.991 . S
N25 C24 1.314 . S
N25 C28 1.279 1_556 S
C26 C24 1.353 . S
C26 C29 1.346 1_556 S
C26 H74 0.929 . S
C27 C28 1.358 . S
C27 C29 1.357 . S
C27 H75 0.930 . S
C28 N25 1.279 1_554 S
C28 C27 1.358 . S
C28 H31 0.930 . S
C29 C26 1.346 1_554 S
C29 C27 1.357 . S
H30 C24 0.930 . S
H31 C28 0.930 . S
C32 C34 1.345 1_554 S
C32 C35 1.358 . S
C32 O62 1.325 1_554 S
N33 C36 1.314 1_554 S
N33 C37 1.279 . S
C34 C32 1.345 1_556 S
C34 C36 1.353 . S
C34 H76 0.929 . S
C35 C32 1.358 . S
C35 C37 1.358 . S
C35 H77 0.930 . S
C36 N33 1.314 1_556 S
C36 C34 1.353 . S
C36 H78 0.930 . S
C37 N33 1.279 . S
C37 C35 1.358 . S
C37 H79 0.930 . S
C38 C39 1.348 . S
C38 C40 1.356 . S
C38 O63 1.325 . S
C39 C38 1.348 . S
C39 C41 1.353 . S
C39 H80 0.929 . S
C40 C38 1.356 . S
C40 C42 1.358 . S
C40 H81 0.930 . S
C41 C39 1.353 . S
C41 N43 1.314 . S
C41 H82 0.930 . S
C42 C40 1.358 . S
C42 N43 1.279 . S
C42 H83 0.930 . S
N43 C41 1.314 . S
N43 C42 1.279 . S
C44 C46 1.353 . S
C44 N47 1.314 . S
C44 H50 0.930 . S
C45 N47 1.279 1_556 S
C45 C48 1.358 . S
C45 H51 0.930 . S
C46 C44 1.353 . S
C46 C49 1.348 1_554 S
C46 H84 0.929 . S
N47 Li2 1.991 . S
N47 C44 1.314 . S
N47 C45 1.279 1_554 S
C48 C45 1.358 . S
C48 C49 1.356 . S
C48 H85 0.930 . S
C49 C46 1.348 1_556 S
C49 C48 1.356 . S
H50 C44 0.930 . S
H51 C45 0.930 . S
C52 N53 1.314 . S
C52 C54 1.353 . S
C52 H58 0.930 . S
N53 Li3 1.990 . S
N53 C52 1.314 . S
N53 C56 1.279 . S
C54 C52 1.353 . S
C54 C57 1.348 . S
C54 H86 0.929 . S
C55 C56 1.358 . S
C55 C57 1.356 . S
C55 H87 0.930 . S
C56 N53 1.279 . S
C56 C55 1.358 . S
C56 H59 0.930 . S
C57 C54 1.348 . S
C57 C55 1.356 . S
H58 C52 0.930 . S
H59 C56 0.930 . S
O60 Li0 1.956 . S
O60 Li1 1.960 1_554 S
O60 Li2 1.976 . S
O60 C4 1.325 . S
O61 Li0 1.981 . S
O61 Li1 1.956 1_554 S
O61 Li3 1.950 1_554 S
O61 C10 1.325 . S
O62 Li0 1.955 1_556 S
O62 Li2 1.956 1_556 S
O62 Li3 1.976 . S
O62 C32 1.325 1_556 S
O63 Li1 1.971 . S
O63 Li2 1.955 1_556 S
O63 Li3 1.956 . S
O63 C38 1.325 . S
H64 C6 0.929 . S
H65 C7 0.930 . S
H66 C8 0.930 . S
H67 C9 0.930 . S
H68 C11 0.930 . S
H69 C13 0.929 . S
H70 C14 0.930 . S
H71 C15 0.930 . S
H72 C18 0.930 . S
H73 C21 0.929 . S
H74 C26 0.929 . S
H75 C27 0.930 . S
H76 C34 0.929 . S
H77 C35 0.930 . S
H78 C36 0.930 . S
H79 C37 0.930 . S
H80 C39 0.929 . S
H81 C40 0.930 . S
H82 C41 0.930 . S
H83 C42 0.930 . S
H84 C46 0.929 . S
H85 C48 0.930 . S
H86 C54 0.929 . S
H87 C55 0.930 . S
Li88 N105 1.991 . S
Li88 O148 1.956 1_556 S
Li88 O149 1.960 1_556 S
Li88 O150 1.971 . S
Li89 N113 1.990 . S
Li89 O148 1.981 . S
Li89 O149 1.956 . S
Li89 O151 1.955 1_554 S
Li90 N135 1.990 . S
Li90 O148 1.950 1_556 S
Li90 O150 1.956 . S
Li90 O151 1.976 . S
Li91 N141 1.991 . S
Li91 O149 1.976 . S
Li91 O150 1.955 1_554 S
Li91 O151 1.956 1_554 S
C92 C94 1.345 . S
C92 C95 1.358 1_554 S
C92 O148 1.325 . S
N93 C96 1.314 1_556 S
N93 C97 1.279 . S
C94 C92 1.345 . S
C94 C96 1.353 . S
C94 H152 0.929 . S
C95 C92 1.358 1_556 S
C95 C97 1.358 . S
C95 H153 0.930 . S
C96 N93 1.314 1_554 S
C96 C94 1.353 . S
C96 H154 0.930 . S
C97 N93 1.279 . S
C97 C95 1.358 . S
C97 H155 0.930 . S
C98 C101 1.348 . S
C98 C102 1.356 . S
C98 O149 1.325 . S
C99 N100 1.279 . S
C99 C102 1.358 . S
C99 H156 0.930 . S
N100 C99 1.279 . S
N100 C103 1.314 . S
C101 C98 1.348 . S
C101 C103 1.353 . S
C101 H157 0.929 . S
C102 C98 1.356 . S
C102 C99 1.358 . S
C102 H158 0.930 . S
C103 N100 1.314 . S
C103 C101 1.353 . S
C103 H159 0.930 . S
C104 N105 1.314 . S
C104 C109 1.353 . S
C104 H110 0.930 . S
N105 Li88 1.991 . S
N105 C104 1.314 . S
N105 C107 1.279 1_556 S
C106 C107 1.358 . S
C106 C108 1.357 . S
C106 H160 0.930 . S
C107 N105 1.279 1_554 S
C107 C106 1.358 . S
C107 H111 0.930 . S
C108 C106 1.357 . S
C108 C109 1.346 1_554 S
C109 C104 1.353 . S
C109 C108 1.346 1_556 S
C109 H161 0.929 . S
H110 C104 0.930 . S
H111 C107 0.930 . S
C112 N113 1.314 . S
C112 C114 1.353 . S
C112 H118 0.930 . S
N113 Li89 1.990 . S
N113 C112 1.314 . S
N113 C116 1.279 . S
C114 C112 1.353 . S
C114 C117 1.348 . S
C114 H162 0.929 . S
C115 C116 1.358 . S
C115 C117 1.356 . S
C115 H163 0.930 . S
C116 N113 1.279 . S
C116 C115 1.358 . S
C116 H119 0.930 . S
C117 C114 1.348 . S
C117 C115 1.356 . S
H118 C112 0.930 . S
H119 C116 0.930 . S
C120 C122 1.348 . S
C120 C123 1.356 . S
C120 O150 1.325 . S
N121 C124 1.314 . S
N121 C125 1.279 . S
C122 C120 1.348 . S
C122 C124 1.353 . S
C122 H164 0.929 . S
C123 C120 1.356 . S
C123 C125 1.358 . S
C123 H165 0.930 . S
C124 N121 1.314 . S
C124 C122 1.353 . S
C124 H166 0.930 . S
C125 N121 1.279 . S
C125 C123 1.358 . S
C125 H167 0.930 . S
C126 C127 1.345 1_554 S
C126 C128 1.358 . S
C126 O151 1.325 1_554 S
C127 C126 1.345 1_556 S
C127 C129 1.353 . S
C127 H168 0.929 . S
C128 C126 1.358 . S
C128 C130 1.358 . S
C128 H169 0.930 . S
C129 C127 1.353 . S
C129 N131 1.314 1_556 S
C129 H170 0.930 . S
C130 C128 1.358 . S
C130 N131 1.279 . S
C130 H171 0.930 . S
N131 C129 1.314 1_554 S
N131 C130 1.279 . S
C132 C134 1.353 . S
C132 N135 1.314 . S
C132 H138 0.930 . S
C133 N135 1.279 . S
C133 C136 1.358 . S
C133 H139 0.930 . S
C134 C132 1.353 . S
C134 C137 1.348 . S
C134 H172 0.929 . S
N135 Li90 1.990 . S
N135 C132 1.314 . S
N135 C133 1.279 . S
C136 C133 1.358 . S
C136 C137 1.356 . S
C136 H173 0.930 . S
C137 C134 1.348 . S
C137 C136 1.356 . S
H138 C132 0.930 . S
H139 C133 0.930 . S
C140 N141 1.314 . S
C140 C142 1.353 . S
C140 H146 0.930 . S
N141 Li91 1.991 . S
N141 C140 1.314 . S
N141 C144 1.279 1_554 S
C142 C140 1.353 . S
C142 C145 1.348 1_554 S
C142 H174 0.929 . S
C143 C144 1.358 . S
C143 C145 1.356 . S
C143 H175 0.930 . S
C144 N141 1.279 1_556 S
C144 C143 1.358 . S
C144 H147 0.930 . S
C145 C142 1.348 1_556 S
C145 C143 1.356 . S
H146 C140 0.930 . S
H147 C144 0.930 . S
O148 Li88 1.956 1_554 S
O148 Li89 1.981 . S
O148 Li90 1.950 1_554 S
O148 C92 1.325 . S
O149 Li88 1.960 1_554 S
O149 Li89 1.956 . S
O149 Li91 1.976 . S
O149 C98 1.325 . S
O150 Li88 1.971 . S
O150 Li90 1.956 . S
O150 Li91 1.955 1_556 S
O150 C120 1.325 . S
O151 Li89 1.955 1_556 S
O151 Li90 1.976 . S
O151 Li91 1.956 1_556 S
O151 C126 1.325 1_556 S
H152 C94 0.929 . S
H153 C95 0.930 . S
H154 C96 0.930 . S
H155 C97 0.930 . S
H156 C99 0.930 . S
H157 C101 0.929 . S
H158 C102 0.930 . S
H159 C103 0.930 . S
H160 C106 0.930 . S
H161 C109 0.929 . S
H162 C114 0.929 . S
H163 C115 0.930 . S
H164 C122 0.929 . S
H165 C123 0.930 . S
H166 C124 0.930 . S
H167 C125 0.930 . S
H168 C127 0.929 . S
H169 C128 0.930 . S
H170 C129 0.930 . S
H171 C130 0.930 . S
H172 C134 0.929 . S
H173 C136 0.930 . S
H174 C142 0.929 . S
H175 C143 0.930 . S
Li176 N193 1.991 . S
Li176 O236 1.956 1_556 S
Li176 O237 1.960 1_556 S
Li176 O238 1.971 . S
Li177 N201 1.990 . S
Li177 O236 1.981 . S
Li177 O237 1.956 . S
Li177 O239 1.955 1_554 S
Li178 N223 1.990 . S
Li178 O236 1.950 1_556 S
Li178 O238 1.956 . S
Li178 O239 1.976 . S
Li179 N229 1.991 . S
Li179 O237 1.976 . S
Li179 O238 1.955 1_554 S
Li179 O239 1.956 1_554 S
C180 C182 1.345 . S
C180 C183 1.358 1_554 S
C180 O236 1.325 . S
N181 C184 1.314 1_556 S
N181 C185 1.279 . S
C182 C180 1.345 . S
C182 C184 1.353 . S
C182 H240 0.929 . S
C183 C180 1.358 1_556 S
C183 C185 1.358 . S
C183 H241 0.930 . S
C184 N181 1.314 1_554 S
C184 C182 1.353 . S
C184 H242 0.930 . S
C185 N181 1.279 . S
C185 C183 1.358 . S
C185 H243 0.930 . S
C186 C189 1.348 . S
C186 C190 1.356 . S
C186 O237 1.325 . S
C187 N188 1.279 . S
C187 C190 1.358 . S
C187 H244 0.930 . S
N188 C187 1.279 . S
N188 C191 1.314 . S
C189 C186 1.348 . S
C189 C191 1.353 . S
C189 H245 0.929 . S
C190 C186 1.356 . S
C190 C187 1.358 . S
C190 H246 0.930 . S
C191 N188 1.314 . S
C191 C189 1.353 . S
C191 H247 0.930 . S
C192 N193 1.314 . S
C192 C197 1.353 . S
C192 H198 0.930 . S
N193 Li176 1.991 . S
N193 C192 1.314 . S
N193 C195 1.279 1_556 S
C194 C195 1.358 . S
C194 C196 1.357 . S
C194 H248 0.930 . S
C195 N193 1.279 1_554 S
C195 C194 1.358 . S
C195 H199 0.930 . S
C196 C194 1.357 . S
C196 C197 1.346 1_554 S
C197 C192 1.353 . S
C197 C196 1.346 1_556 S
C197 H249 0.929 . S
H198 C192 0.930 . S
H199 C195 0.930 . S
C200 N201 1.314 . S
C200 C202 1.353 . S
C200 H206 0.930 . S
N201 Li177 1.990 . S
N201 C200 1.314 . S
N201 C204 1.279 . S
C202 C200 1.353 . S
C202 C205 1.348 . S
C202 H250 0.929 . S
C203 C204 1.358 . S
C203 C205 1.356 . S
C203 H251 0.930 . S
C204 N201 1.279 . S
C204 C203 1.358 . S
C204 H207 0.930 . S
C205 C202 1.348 . S
C205 C203 1.356 . S
H206 C200 0.930 . S
H207 C204 0.930 . S
C208 C210 1.348 . S
C208 C211 1.356 . S
C208 O238 1.325 . S
N209 C212 1.314 . S
N209 C213 1.279 . S
C210 C208 1.348 . S
C210 C212 1.353 . S
C210 H252 0.929 . S
C211 C208 1.356 . S
C211 C213 1.358 . S
C211 H253 0.930 . S
C212 N209 1.314 . S
C212 C210 1.353 . S
C212 H254 0.930 . S
C213 N209 1.279 . S
C213 C211 1.358 . S
C213 H255 0.930 . S
C214 C215 1.345 1_554 S
C214 C216 1.358 . S
C214 O239 1.325 1_554 S
C215 C214 1.345 1_556 S
C215 C217 1.353 . S
C215 H256 0.929 . S
C216 C214 1.358 . S
C216 C218 1.358 . S
C216 H257 0.930 . S
C217 C215 1.353 . S
C217 N219 1.314 1_556 S
C217 H258 0.930 . S
C218 C216 1.358 . S
C218 N219 1.279 . S
C218 H259 0.930 . S
N219 C217 1.314 1_554 S
N219 C218 1.279 . S
C220 C222 1.353 . S
C220 N223 1.314 . S
C220 H226 0.930 . S
C221 N223 1.279 . S
C221 C224 1.358 . S
C221 H227 0.930 . S
C222 C220 1.353 . S
C222 C225 1.348 . S
C222 H260 0.929 . S
N223 Li178 1.990 . S
N223 C220 1.314 . S
N223 C221 1.279 . S
C224 C221 1.358 . S
C224 C225 1.356 . S
C224 H261 0.930 . S
C225 C222 1.348 . S
C225 C224 1.356 . S
H226 C220 0.930 . S
H227 C221 0.930 . S
C228 N229 1.314 . S
C228 C230 1.353 . S
C228 H234 0.930 . S
N229 Li179 1.991 . S
N229 C228 1.314 . S
N229 C232 1.279 1_554 S
C230 C228 1.353 . S
C230 C233 1.348 1_554 S
C230 H262 0.929 . S
C231 C232 1.358 . S
C231 C233 1.356 . S
C231 H263 0.930 . S
C232 N229 1.279 1_556 S
C232 C231 1.358 . S
C232 H235 0.930 . S
C233 C230 1.348 1_556 S
C233 C231 1.356 . S
H234 C228 0.930 . S
H235 C232 0.930 . S
O236 Li176 1.956 1_554 S
O236 Li177 1.981 . S
O236 Li178 1.950 1_554 S
O236 C180 1.325 . S
O237 Li176 1.960 1_554 S
O237 Li177 1.956 . S
O237 Li179 1.976 . S
O237 C186 1.325 . S
O238 Li176 1.971 . S
O238 Li178 1.956 . S
O238 Li179 1.955 1_556 S
O238 C208 1.325 . S
O239 Li177 1.955 1_556 S
O239 Li178 1.976 . S
O239 Li179 1.956 1_556 S
O239 C214 1.325 1_556 S
H240 C182 0.929 . S
H241 C183 0.930 . S
H242 C184 0.930 . S
H243 C185 0.930 . S
H244 C187 0.930 . S
H245 C189 0.929 . S
H246 C190 0.930 . S
H247 C191 0.930 . S
H248 C194 0.930 . S
H249 C197 0.929 . S
H250 C202 0.929 . S
H251 C203 0.930 . S
H252 C210 0.929 . S
H253 C211 0.930 . S
H254 C212 0.930 . S
H255 C213 0.930 . S
H256 C215 0.929 . S
H257 C216 0.930 . S
H258 C217 0.930 . S
H259 C218 0.930 . S
H260 C222 0.929 . S
H261 C224 0.930 . S
H262 C230 0.929 . S
H263 C231 0.930 . S
Li264 N281 1.991 . S
Li264 O324 1.956 1_556 S
Li264 O325 1.960 1_556 S
Li264 O326 1.971 . S
Li265 N289 1.990 . S
Li265 O324 1.981 . S
Li265 O325 1.956 . S
Li265 O327 1.955 1_554 S
Li266 N311 1.990 . S
Li266 O324 1.950 1_556 S
Li266 O326 1.956 . S
Li266 O327 1.976 . S
Li267 N317 1.991 . S
Li267 O325 1.976 . S
Li267 O326 1.955 1_554 S
Li267 O327 1.956 1_554 S
C268 C270 1.345 . S
C268 C271 1.358 1_554 S
C268 O324 1.325 . S
N269 C272 1.314 1_556 S
N269 C273 1.279 . S
C270 C268 1.345 . S
C270 C272 1.353 . S
C270 H328 0.929 . S
C271 C268 1.358 1_556 S
C271 C273 1.358 . S
C271 H329 0.930 . S
C272 N269 1.314 1_554 S
C272 C270 1.353 . S
C272 H330 0.930 . S
C273 N269 1.279 . S
C273 C271 1.358 . S
C273 H331 0.930 . S
C274 C277 1.348 . S
C274 C278 1.356 . S
C274 O325 1.325 . S
C275 N276 1.279 . S
C275 C278 1.358 . S
C275 H332 0.930 . S
N276 C275 1.279 . S
N276 C279 1.314 . S
C277 C274 1.348 . S
C277 C279 1.353 . S
C277 H333 0.929 . S
C278 C274 1.356 . S
C278 C275 1.358 . S
C278 H334 0.930 . S
C279 N276 1.314 . S
C279 C277 1.353 . S
C279 H335 0.930 . S
C280 N281 1.314 . S
C280 C285 1.353 . S
C280 H286 0.930 . S
N281 Li264 1.991 . S
N281 C280 1.314 . S
N281 C283 1.279 1_556 S
C282 C283 1.358 . S
C282 C284 1.357 . S
C282 H336 0.930 . S
C283 N281 1.279 1_554 S
C283 C282 1.358 . S
C283 H287 0.930 . S
C284 C282 1.357 . S
C284 C285 1.346 1_554 S
C285 C280 1.353 . S
C285 C284 1.346 1_556 S
C285 H337 0.929 . S
H286 C280 0.930 . S
H287 C283 0.930 . S
C288 N289 1.314 . S
C288 C290 1.353 . S
C288 H294 0.930 . S
N289 Li265 1.990 . S
N289 C288 1.314 . S
N289 C292 1.279 . S
C290 C288 1.353 . S
C290 C293 1.348 . S
C290 H338 0.929 . S
C291 C292 1.358 . S
C291 C293 1.356 . S
C291 H339 0.930 . S
C292 N289 1.279 . S
C292 C291 1.358 . S
C292 H295 0.930 . S
C293 C290 1.348 . S
C293 C291 1.356 . S
H294 C288 0.930 . S
H295 C292 0.930 . S
C296 C298 1.348 . S
C296 C299 1.356 . S
C296 O326 1.325 . S
N297 C300 1.314 . S
N297 C301 1.279 . S
C298 C296 1.348 . S
C298 C300 1.353 . S
C298 H340 0.929 . S
C299 C296 1.356 . S
C299 C301 1.358 . S
C299 H341 0.930 . S
C300 N297 1.314 . S
C300 C298 1.353 . S
C300 H342 0.930 . S
C301 N297 1.279 . S
C301 C299 1.358 . S
C301 H343 0.930 . S
C302 C303 1.345 1_554 S
C302 C304 1.358 . S
C302 O327 1.325 1_554 S
C303 C302 1.345 1_556 S
C303 C305 1.353 . S
C303 H344 0.929 . S
C304 C302 1.358 . S
C304 C306 1.358 . S
C304 H345 0.930 . S
C305 C303 1.353 . S
C305 N307 1.314 1_556 S
C305 H346 0.930 . S
C306 C304 1.358 . S
C306 N307 1.279 . S
C306 H347 0.930 . S
N307 C305 1.314 1_554 S
N307 C306 1.279 . S
C308 C310 1.353 . S
C308 N311 1.314 . S
C308 H314 0.930 . S
C309 N311 1.279 . S
C309 C312 1.358 . S
C309 H315 0.930 . S
C310 C308 1.353 . S
C310 C313 1.348 . S
C310 H348 0.929 . S
N311 Li266 1.990 . S
N311 C308 1.314 . S
N311 C309 1.279 . S
C312 C309 1.358 . S
C312 C313 1.356 . S
C312 H349 0.930 . S
C313 C310 1.348 . S
C313 C312 1.356 . S
H314 C308 0.930 . S
H315 C309 0.930 . S
C316 N317 1.314 . S
C316 C318 1.353 . S
C316 H322 0.930 . S
N317 Li267 1.991 . S
N317 C316 1.314 . S
N317 C320 1.279 1_554 S
C318 C316 1.353 . S
C318 C321 1.348 1_554 S
C318 H350 0.929 . S
C319 C320 1.358 . S
C319 C321 1.356 . S
C319 H351 0.930 . S
C320 N317 1.279 1_556 S
C320 C319 1.358 . S
C320 H323 0.930 . S
C321 C318 1.348 1_556 S
C321 C319 1.356 . S
H322 C316 0.930 . S
H323 C320 0.930 . S
O324 Li264 1.956 1_554 S
O324 Li265 1.981 . S
O324 Li266 1.950 1_554 S
O324 C268 1.325 . S
O325 Li264 1.960 1_554 S
O325 Li265 1.956 . S
O325 Li267 1.976 . S
O325 C274 1.325 . S
O326 Li264 1.971 . S
O326 Li266 1.956 . S
O326 Li267 1.955 1_556 S
O326 C296 1.325 . S
O327 Li265 1.955 1_556 S
O327 Li266 1.976 . S
O327 Li267 1.956 1_556 S
O327 C302 1.325 1_556 S
H328 C270 0.929 . S
H329 C271 0.930 . S
H330 C272 0.930 . S
H331 C273 0.930 . S
H332 C275 0.930 . S
H333 C277 0.929 . S
H334 C278 0.930 . S
H335 C279 0.930 . S
H336 C282 0.930 . S
H337 C285 0.929 . S
H338 C290 0.929 . S
H339 C291 0.930 . S
H340 C298 0.929 . S
H341 C299 0.930 . S
H342 C300 0.930 . S
H343 C301 0.930 . S
H344 C303 0.929 . S
H345 C304 0.930 . S
H346 C305 0.930 . S
H347 C306 0.930 . S
H348 C310 0.929 . S
H349 C312 0.930 . S
H350 C318 0.929 . S
H351 C319 0.930 . S
Li352 N369 1.990 . S
Li352 O412 1.956 . S
Li352 O413 1.970 . S
Li352 O414 1.961 . S
Li353 N377 1.990 . S
Li353 O412 1.970 . S
Li353 O413 1.956 . S
Li353 O415 1.961 . S
Li354 N399 1.990 . S
Li354 O412 1.961 . S
Li354 O414 1.956 . S
Li354 O415 1.970 . S
Li355 N405 1.990 . S
Li355 O413 1.961 . S
Li355 O414 1.970 . S
Li355 O415 1.956 . S
C356 C358 1.348 . S
C356 C359 1.356 . S
C356 O412 1.325 . S
N357 C360 1.314 . S
N357 C361 1.279 . S
C358 C356 1.348 . S
C358 C360 1.353 . S
C358 H416 0.929 . S
C359 C356 1.356 . S
C359 C361 1.358 . S
C359 H417 0.930 . S
C360 N357 1.314 . S
C360 C358 1.353 . S
C360 H418 0.930 . S
C361 N357 1.279 . S
C361 C359 1.358 . S
C361 H419 0.930 . S
C362 C365 1.348 . S
C362 C366 1.356 . S
C362 O413 1.325 . S
C363 N364 1.279 . S
C363 C366 1.358 . S
C363 H420 0.930 . S
N364 C363 1.279 . S
N364 C367 1.314 . S
C365 C362 1.348 . S
C365 C367 1.353 . S
C365 H421 0.929 . S
C366 C362 1.356 . S
C366 C363 1.358 . S
C366 H422 0.930 . S
C367 N364 1.314 . S
C367 C365 1.353 . S
C367 H423 0.930 . S
C368 N369 1.314 . S
C368 C373 1.353 . S
C368 H374 0.930 . S
N369 Li352 1.990 . S
N369 C368 1.314 . S
N369 C371 1.279 . S
C370 C371 1.358 . S
C370 C372 1.356 . S
C370 H424 0.930 . S
C371 N369 1.279 . S
C371 C370 1.358 . S
C371 H375 0.930 . S
C372 C370 1.356 . S
C372 C373 1.348 . S
C373 C368 1.353 . S
C373 C372 1.348 . S
C373 H425 0.929 . S
H374 C368 0.930 . S
H375 C371 0.930 . S
C376 N377 1.314 . S
C376 C378 1.353 . S
C376 H382 0.930 . S
N377 Li353 1.990 . S
N377 C376 1.314 . S
N377 C380 1.279 . S
C378 C376 1.353 . S
C378 C381 1.348 . S
C378 H426 0.929 . S
C379 C380 1.358 . S
C379 C381 1.356 . S
C379 H427 0.930 . S
C380 N377 1.279 . S
C380 C379 1.358 . S
C380 H383 0.930 . S
C381 C378 1.348 . S
C381 C379 1.356 . S
H382 C376 0.930 . S
H383 C380 0.930 . S
C384 C386 1.348 . S
C384 C387 1.356 . S
C384 O414 1.325 . S
N385 C388 1.314 . S
N385 C389 1.279 . S
C386 C384 1.348 . S
C386 C388 1.353 . S
C386 H428 0.929 . S
C387 C384 1.356 . S
C387 C389 1.358 . S
C387 H429 0.930 . S
C388 N385 1.314 . S
C388 C386 1.353 . S
C388 H430 0.930 . S
C389 N385 1.279 . S
C389 C387 1.358 . S
C389 H431 0.930 . S
C390 C391 1.348 . S
C390 C392 1.356 . S
C390 O415 1.325 . S
C391 C390 1.348 . S
C391 C393 1.353 . S
C391 H432 0.929 . S
C392 C390 1.356 . S
C392 C394 1.358 . S
C392 H433 0.930 . S
C393 C391 1.353 . S
C393 N395 1.314 . S
C393 H434 0.930 . S
C394 C392 1.358 . S
C394 N395 1.279 . S
C394 H435 0.930 . S
N395 C393 1.314 . S
N395 C394 1.279 . S
C396 C398 1.353 . S
C396 N399 1.314 . S
C396 H402 0.930 . S
C397 N399 1.279 . S
C397 C400 1.358 . S
C397 H403 0.930 . S
C398 C396 1.353 . S
C398 C401 1.348 . S
C398 H436 0.929 . S
N399 Li354 1.990 . S
N399 C396 1.314 . S
N399 C397 1.279 . S
C400 C397 1.358 . S
C400 C401 1.356 . S
C400 H437 0.930 . S
C401 C398 1.348 . S
C401 C400 1.356 . S
H402 C396 0.930 . S
H403 C397 0.930 . S
C404 N405 1.314 . S
C404 C406 1.353 . S
C404 H410 0.930 . S
N405 Li355 1.990 . S
N405 C404 1.314 . S
N405 C408 1.279 . S
C406 C404 1.353 . S
C406 C409 1.348 . S
C406 H438 0.929 . S
C407 C408 1.358 . S
C407 C409 1.356 . S
C407 H439 0.930 . S
C408 N405 1.279 . S
C408 C407 1.358 . S
C408 H411 0.930 . S
C409 C406 1.348 . S
C409 C407 1.356 . S
H410 C404 0.930 . S
H411 C408 0.930 . S
O412 Li352 1.956 . S
O412 Li353 1.970 . S
O412 Li354 1.961 . S
O412 C356 1.325 . S
O413 Li352 1.970 . S
O413 Li353 1.956 . S
O413 Li355 1.961 . S
O413 C362 1.325 . S
O414 Li352 1.961 . S
O414 Li354 1.956 . S
O414 Li355 1.970 . S
O414 C384 1.325 . S
O415 Li353 1.961 . S
O415 Li354 1.970 . S
O415 Li355 1.956 . S
O415 C390 1.325 . S
H416 C358 0.929 . S
H417 C359 0.930 . S
H418 C360 0.930 . S
H419 C361 0.930 . S
H420 C363 0.930 . S
H421 C365 0.929 . S
H422 C366 0.930 . S
H423 C367 0.930 . S
H424 C370 0.930 . S
H425 C373 0.929 . S
H426 C378 0.929 . S
H427 C379 0.930 . S
H428 C386 0.929 . S
H429 C387 0.930 . S
H430 C388 0.930 . S
H431 C389 0.930 . S
H432 C391 0.929 . S
H433 C392 0.930 . S
H434 C393 0.930 . S
H435 C394 0.930 . S
H436 C398 0.929 . S
H437 C400 0.930 . S
H438 C406 0.929 . S
H439 C407 0.930 . S
Li440 N457 1.990 . S
Li440 O500 1.956 . S
Li440 O501 1.970 . S
Li440 O502 1.961 . S
Li441 N465 1.990 . S
Li441 O500 1.970 . S
Li441 O501 1.956 . S
Li441 O503 1.961 . S
Li442 N487 1.990 . S
Li442 O500 1.961 . S
Li442 O502 1.956 . S
Li442 O503 1.970 . S
Li443 N493 1.990 . S
Li443 O501 1.961 . S
Li443 O502 1.970 . S
Li443 O503 1.956 . S
C444 C446 1.348 . S
C444 C447 1.356 . S
C444 O500 1.325 . S
N445 C448 1.314 . S
N445 C449 1.279 . S
C446 C444 1.348 . S
C446 C448 1.353 . S
C446 H504 0.929 . S
C447 C444 1.356 . S
C447 C449 1.358 . S
C447 H505 0.930 . S
C448 N445 1.314 . S
C448 C446 1.353 . S
C448 H506 0.930 . S
C449 N445 1.279 . S
C449 C447 1.358 . S
C449 H507 0.930 . S
C450 C453 1.348 . S
C450 C454 1.356 . S
C450 O501 1.325 . S
C451 N452 1.279 . S
C451 C454 1.358 . S
C451 H508 0.930 . S
N452 C451 1.279 . S
N452 C455 1.314 . S
C453 C450 1.348 . S
C453 C455 1.353 . S
C453 H509 0.929 . S
C454 C450 1.356 . S
C454 C451 1.358 . S
C454 H510 0.930 . S
C455 N452 1.314 . S
C455 C453 1.353 . S
C455 H511 0.930 . S
C456 N457 1.314 . S
C456 C461 1.353 . S
C456 H462 0.930 . S
N457 Li440 1.990 . S
N457 C456 1.314 . S
N457 C459 1.279 . S
C458 C459 1.358 . S
C458 C460 1.356 . S
C458 H512 0.930 . S
C459 N457 1.279 . S
C459 C458 1.358 . S
C459 H463 0.930 . S
C460 C458 1.356 . S
C460 C461 1.348 . S
C461 C456 1.353 . S
C461 C460 1.348 . S
C461 H513 0.929 . S
H462 C456 0.930 . S
H463 C459 0.930 . S
C464 N465 1.314 . S
C464 C466 1.353 . S
C464 H470 0.930 . S
N465 Li441 1.990 . S
N465 C464 1.314 . S
N465 C468 1.279 . S
C466 C464 1.353 . S
C466 C469 1.348 . S
C466 H514 0.929 . S
C467 C468 1.358 . S
C467 C469 1.356 . S
C467 H515 0.930 . S
C468 N465 1.279 . S
C468 C467 1.358 . S
C468 H471 0.930 . S
C469 C466 1.348 . S
C469 C467 1.356 . S
H470 C464 0.930 . S
H471 C468 0.930 . S
C472 C474 1.348 . S
C472 C475 1.356 . S
C472 O502 1.325 . S
N473 C476 1.314 . S
N473 C477 1.279 . S
C474 C472 1.348 . S
C474 C476 1.353 . S
C474 H516 0.929 . S
C475 C472 1.356 . S
C475 C477 1.358 . S
C475 H517 0.930 . S
C476 N473 1.314 . S
C476 C474 1.353 . S
C476 H518 0.930 . S
C477 N473 1.279 . S
C477 C475 1.358 . S
C477 H519 0.930 . S
C478 C479 1.348 . S
C478 C480 1.356 . S
C478 O503 1.325 . S
C479 C478 1.348 . S
C479 C481 1.353 . S
C479 H520 0.929 . S
C480 C478 1.356 . S
C480 C482 1.358 . S
C480 H521 0.930 . S
C481 C479 1.353 . S
C481 N483 1.314 . S
C481 H522 0.930 . S
C482 C480 1.358 . S
C482 N483 1.279 . S
C482 H523 0.930 . S
N483 C481 1.314 . S
N483 C482 1.279 . S
C484 C486 1.353 . S
C484 N487 1.314 . S
C484 H490 0.930 . S
C485 N487 1.279 . S
C485 C488 1.358 . S
C485 H491 0.930 . S
C486 C484 1.353 . S
C486 C489 1.348 . S
C486 H524 0.929 . S
N487 Li442 1.990 . S
N487 C484 1.314 . S
N487 C485 1.279 . S
C488 C485 1.358 . S
C488 C489 1.356 . S
C488 H525 0.930 . S
C489 C486 1.348 . S
C489 C488 1.356 . S
H490 C484 0.930 . S
H491 C485 0.930 . S
C492 N493 1.314 . S
C492 C494 1.353 . S
C492 H498 0.930 . S
N493 Li443 1.990 . S
N493 C492 1.314 . S
N493 C496 1.279 . S
C494 C492 1.353 . S
C494 C497 1.348 . S
C494 H526 0.929 . S
C495 C496 1.358 . S
C495 C497 1.356 . S
C495 H527 0.930 . S
C496 N493 1.279 . S
C496 C495 1.358 . S
C496 H499 0.930 . S
C497 C494 1.348 . S
C497 C495 1.356 . S
H498 C492 0.930 . S
H499 C496 0.930 . S
O500 Li440 1.956 . S
O500 Li441 1.970 . S
O500 Li442 1.961 . S
O500 C444 1.325 . S
O501 Li440 1.970 . S
O501 Li441 1.956 . S
O501 Li443 1.961 . S
O501 C450 1.325 . S
O502 Li440 1.961 . S
O502 Li442 1.956 . S
O502 Li443 1.970 . S
O502 C472 1.325 . S
O503 Li441 1.961 . S
O503 Li442 1.970 . S
O503 Li443 1.956 . S
O503 C478 1.325 . S
H504 C446 0.929 . S
H505 C447 0.930 . S
H506 C448 0.930 . S
H507 C449 0.930 . S
H508 C451 0.930 . S
H509 C453 0.929 . S
H510 C454 0.930 . S
H511 C455 0.930 . S
H512 C458 0.930 . S
H513 C461 0.929 . S
H514 C466 0.929 . S
H515 C467 0.930 . S
H516 C474 0.929 . S
H517 C475 0.930 . S
H518 C476 0.930 . S
H519 C477 0.930 . S
H520 C479 0.929 . S
H521 C480 0.930 . S
H522 C481 0.930 . S
H523 C482 0.930 . S
H524 C486 0.929 . S
H525 C488 0.930 . S
H526 C494 0.929 . S
H527 C495 0.930 . S
Li528 N545 1.990 . S
Li528 O588 1.956 . S
Li528 O589 1.970 . S
Li528 O590 1.961 . S
Li529 N553 1.990 . S
Li529 O588 1.970 . S
Li529 O589 1.956 . S
Li529 O591 1.961 . S
Li530 N575 1.990 . S
Li530 O588 1.961 . S
Li530 O590 1.956 . S
Li530 O591 1.970 . S
Li531 N581 1.990 . S
Li531 O589 1.961 . S
Li531 O590 1.970 . S
Li531 O591 1.956 . S
C532 C534 1.348 . S
C532 C535 1.356 . S
C532 O588 1.325 . S
N533 C536 1.314 . S
N533 C537 1.279 . S
C534 C532 1.348 . S
C534 C536 1.353 . S
C534 H592 0.929 . S
C535 C532 1.356 . S
C535 C537 1.358 . S
C535 H593 0.930 . S
C536 N533 1.314 . S
C536 C534 1.353 . S
C536 H594 0.930 . S
C537 N533 1.279 . S
C537 C535 1.358 . S
C537 H595 0.930 . S
C538 C541 1.348 . S
C538 C542 1.356 . S
C538 O589 1.325 . S
C539 N540 1.279 . S
C539 C542 1.358 . S
C539 H596 0.930 . S
N540 C539 1.279 . S
N540 C543 1.314 . S
C541 C538 1.348 . S
C541 C543 1.353 . S
C541 H597 0.929 . S
C542 C538 1.356 . S
C542 C539 1.358 . S
C542 H598 0.930 . S
C543 N540 1.314 . S
C543 C541 1.353 . S
C543 H599 0.930 . S
C544 N545 1.314 . S
C544 C549 1.353 . S
C544 H550 0.930 . S
N545 Li528 1.990 . S
N545 C544 1.314 . S
N545 C547 1.279 . S
C546 C547 1.358 . S
C546 C548 1.356 . S
C546 H600 0.930 . S
C547 N545 1.279 . S
C547 C546 1.358 . S
C547 H551 0.930 . S
C548 C546 1.356 . S
C548 C549 1.348 . S
C549 C544 1.353 . S
C549 C548 1.348 . S
C549 H601 0.929 . S
H550 C544 0.930 . S
H551 C547 0.930 . S
C552 N553 1.314 . S
C552 C554 1.353 . S
C552 H558 0.930 . S
N553 Li529 1.990 . S
N553 C552 1.314 . S
N553 C556 1.279 . S
C554 C552 1.353 . S
C554 C557 1.348 . S
C554 H602 0.929 . S
C555 C556 1.358 . S
C555 C557 1.356 . S
C555 H603 0.930 . S
C556 N553 1.279 . S
C556 C555 1.358 . S
C556 H559 0.930 . S
C557 C554 1.348 . S
C557 C555 1.356 . S
H558 C552 0.930 . S
H559 C556 0.930 . S
C560 C562 1.348 . S
C560 C563 1.356 . S
C560 O590 1.325 . S
N561 C564 1.314 . S
N561 C565 1.279 . S
C562 C560 1.348 . S
C562 C564 1.353 . S
C562 H604 0.929 . S
C563 C560 1.356 . S
C563 C565 1.358 . S
C563 H605 0.930 . S
C564 N561 1.314 . S
C564 C562 1.353 . S
C564 H606 0.930 . S
C565 N561 1.279 . S
C565 C563 1.358 . S
C565 H607 0.930 . S
C566 C567 1.348 . S
C566 C568 1.356 . S
C566 O591 1.325 . S
C567 C566 1.348 . S
C567 C569 1.353 . S
C567 H608 0.929 . S
C568 C566 1.356 . S
C568 C570 1.358 . S
C568 H609 0.930 . S
C569 C567 1.353 . S
C569 N571 1.314 . S
C569 H610 0.930 . S
C570 C568 1.358 . S
C570 N571 1.279 . S
C570 H611 0.930 . S
N571 C569 1.314 . S
N571 C570 1.279 . S
C572 C574 1.353 . S
C572 N575 1.314 . S
C572 H578 0.930 . S
C573 N575 1.279 . S
C573 C576 1.358 . S
C573 H579 0.930 . S
C574 C572 1.353 . S
C574 C577 1.348 . S
C574 H612 0.929 . S
N575 Li530 1.990 . S
N575 C572 1.314 . S
N575 C573 1.279 . S
C576 C573 1.358 . S
C576 C577 1.356 . S
C576 H613 0.930 . S
C577 C574 1.348 . S
C577 C576 1.356 . S
H578 C572 0.930 . S
H579 C573 0.930 . S
C580 N581 1.314 . S
C580 C582 1.353 . S
C580 H586 0.930 . S
N581 Li531 1.990 . S
N581 C580 1.314 . S
N581 C584 1.279 . S
C582 C580 1.353 . S
C582 C585 1.348 . S
C582 H614 0.929 . S
C583 C584 1.358 . S
C583 C585 1.356 . S
C583 H615 0.930 . S
C584 N581 1.279 . S
C584 C583 1.358 . S
C584 H587 0.930 . S
C585 C582 1.348 . S
C585 C583 1.356 . S
H586 C580 0.930 . S
H587 C584 0.930 . S
O588 Li528 1.956 . S
O588 Li529 1.970 . S
O588 Li530 1.961 . S
O588 C532 1.325 . S
O589 Li528 1.970 . S
O589 Li529 1.956 . S
O589 Li531 1.961 . S
O589 C538 1.325 . S
O590 Li528 1.961 . S
O590 Li530 1.956 . S
O590 Li531 1.970 . S
O590 C560 1.325 . S
O591 Li529 1.961 . S
O591 Li530 1.970 . S
O591 Li531 1.956 . S
O591 C566 1.325 . S
H592 C534 0.929 . S
H593 C535 0.930 . S
H594 C536 0.930 . S
H595 C537 0.930 . S
H596 C539 0.930 . S
H597 C541 0.929 . S
H598 C542 0.930 . S
H599 C543 0.930 . S
H600 C546 0.930 . S
H601 C549 0.929 . S
H602 C554 0.929 . S
H603 C555 0.930 . S
H604 C562 0.929 . S
H605 C563 0.930 . S
H606 C564 0.930 . S
H607 C565 0.930 . S
H608 C567 0.929 . S
H609 C568 0.930 . S
H610 C569 0.930 . S
H611 C570 0.930 . S
H612 C574 0.929 . S
H613 C576 0.930 . S
H614 C582 0.929 . S
H615 C583 0.930 . S
Li616 N633 1.990 . S
Li616 O676 1.956 . S
Li616 O677 1.970 . S
Li616 O678 1.961 . S
Li617 N641 1.990 . S
Li617 O676 1.970 . S
Li617 O677 1.956 . S
Li617 O679 1.961 . S
Li618 N663 1.990 . S
Li618 O676 1.961 . S
Li618 O678 1.956 . S
Li618 O679 1.970 . S
Li619 N669 1.990 . S
Li619 O677 1.961 . S
Li619 O678 1.970 . S
Li619 O679 1.956 . S
C620 C622 1.348 . S
C620 C623 1.356 . S
C620 O676 1.325 . S
N621 C624 1.314 . S
N621 C625 1.279 . S
C622 C620 1.348 . S
C622 C624 1.353 . S
C622 H680 0.929 . S
C623 C620 1.356 . S
C623 C625 1.358 . S
C623 H681 0.930 . S
C624 N621 1.314 . S
C624 C622 1.353 . S
C624 H682 0.930 . S
C625 N621 1.279 . S
C625 C623 1.358 . S
C625 H683 0.930 . S
C626 C629 1.348 . S
C626 C630 1.356 . S
C626 O677 1.325 . S
C627 N628 1.279 . S
C627 C630 1.358 . S
C627 H684 0.930 . S
N628 C627 1.279 . S
N628 C631 1.314 . S
C629 C626 1.348 . S
C629 C631 1.353 . S
C629 H685 0.929 . S
C630 C626 1.356 . S
C630 C627 1.358 . S
C630 H686 0.930 . S
C631 N628 1.314 . S
C631 C629 1.353 . S
C631 H687 0.930 . S
C632 N633 1.314 . S
C632 C637 1.353 . S
C632 H638 0.930 . S
N633 Li616 1.990 . S
N633 C632 1.314 . S
N633 C635 1.279 . S
C634 C635 1.358 . S
C634 C636 1.356 . S
C634 H688 0.930 . S
C635 N633 1.279 . S
C635 C634 1.358 . S
C635 H639 0.930 . S
C636 C634 1.356 . S
C636 C637 1.348 . S
C637 C632 1.353 . S
C637 C636 1.348 . S
C637 H689 0.929 . S
H638 C632 0.930 . S
H639 C635 0.930 . S
C640 N641 1.314 . S
C640 C642 1.353 . S
C640 H646 0.930 . S
N641 Li617 1.990 . S
N641 C640 1.314 . S
N641 C644 1.279 . S
C642 C640 1.353 . S
C642 C645 1.348 . S
C642 H690 0.929 . S
C643 C644 1.358 . S
C643 C645 1.356 . S
C643 H691 0.930 . S
C644 N641 1.279 . S
C644 C643 1.358 . S
C644 H647 0.930 . S
C645 C642 1.348 . S
C645 C643 1.356 . S
H646 C640 0.930 . S
H647 C644 0.930 . S
C648 C650 1.348 . S
C648 C651 1.356 . S
C648 O678 1.325 . S
N649 C652 1.314 . S
N649 C653 1.279 . S
C650 C648 1.348 . S
C650 C652 1.353 . S
C650 H692 0.929 . S
C651 C648 1.356 . S
C651 C653 1.358 . S
C651 H693 0.930 . S
C652 N649 1.314 . S
C652 C650 1.353 . S
C652 H694 0.930 . S
C653 N649 1.279 . S
C653 C651 1.358 . S
C653 H695 0.930 . S
C654 C655 1.348 . S
C654 C656 1.356 . S
C654 O679 1.325 . S
C655 C654 1.348 . S
C655 C657 1.353 . S
C655 H696 0.929 . S
C656 C654 1.356 . S
C656 C658 1.358 . S
C656 H697 0.930 . S
C657 C655 1.353 . S
C657 N659 1.314 . S
C657 H698 0.930 . S
C658 C656 1.358 . S
C658 N659 1.279 . S
C658 H699 0.930 . S
N659 C657 1.314 . S
N659 C658 1.279 . S
C660 C662 1.353 . S
C660 N663 1.314 . S
C660 H666 0.930 . S
C661 N663 1.279 . S
C661 C664 1.358 . S
C661 H667 0.930 . S
C662 C660 1.353 . S
C662 C665 1.348 . S
C662 H700 0.929 . S
N663 Li618 1.990 . S
N663 C660 1.314 . S
N663 C661 1.279 . S
C664 C661 1.358 . S
C664 C665 1.356 . S
C664 H701 0.930 . S
C665 C662 1.348 . S
C665 C664 1.356 . S
H666 C660 0.930 . S
H667 C661 0.930 . S
C668 N669 1.314 . S
C668 C670 1.353 . S
C668 H674 0.930 . S
N669 Li619 1.990 . S
N669 C668 1.314 . S
N669 C672 1.279 . S
C670 C668 1.353 . S
C670 C673 1.348 . S
C670 H702 0.929 . S
C671 C672 1.358 . S
C671 C673 1.356 . S
C671 H703 0.930 . S
C672 N669 1.279 . S
C672 C671 1.358 . S
C672 H675 0.930 . S
C673 C670 1.348 . S
C673 C671 1.356 . S
H674 C668 0.930 . S
H675 C672 0.930 . S
O676 Li616 1.956 . S
O676 Li617 1.970 . S
O676 Li618 1.961 . S
O676 C620 1.325 . S
O677 Li616 1.970 . S
O677 Li617 1.956 . S
O677 Li619 1.961 . S
O677 C626 1.325 . S
O678 Li616 1.961 . S
O678 Li618 1.956 . S
O678 Li619 1.970 . S
O678 C648 1.325 . S
O679 Li617 1.961 . S
O679 Li618 1.970 . S
O679 Li619 1.956 . S
O679 C654 1.325 . S
H680 C622 0.929 . S
H681 C623 0.930 . S
H682 C624 0.930 . S
H683 C625 0.930 . S
H684 C627 0.930 . S
H685 C629 0.929 . S
H686 C630 0.930 . S
H687 C631 0.930 . S
H688 C634 0.930 . S
H689 C637 0.929 . S
H690 C642 0.929 . S
H691 C643 0.930 . S
H692 C650 0.929 . S
H693 C651 0.930 . S
H694 C652 0.930 . S
H695 C653 0.930 . S
H696 C655 0.929 . S
H697 C656 0.930 . S
H698 C657 0.930 . S
H699 C658 0.930 . S
H700 C662 0.929 . S
H701 C664 0.930 . S
H702 C670 0.929 . S
H703 C671 0.930 . S
C704 C705 1.391 . S
C704 C706 1.394 . S
C704 H720 0.931 . S
C705 C704 1.391 . S
C705 C709 1.376 1_554 S
C706 C704 1.394 . S
C706 C707 1.369 . S
C706 C710 1.531 . S
C707 C706 1.369 . S
C707 C708 1.410 1_554 S
C707 C715 1.503 . S
C708 C707 1.410 1_556 S
C708 C709 1.392 . S
C708 C711 1.511 . S
C709 C705 1.376 1_556 S
C709 C708 1.392 . S
C709 H721 0.929 . S
C710 C706 1.531 . S
C710 H722 0.960 . S
C710 H723 0.962 . S
C710 H724 0.960 . S
C711 C708 1.511 . S
C711 H725 0.961 . S
C711 H726 0.961 . S
C711 H727 0.961 . S
C712 C713 1.370 1_556 S
C712 C714 1.363 . S
C712 H728 0.931 . S
C713 C712 1.370 1_554 S
C713 C717 1.408 . S
C714 C712 1.363 . S
C714 C715 1.370 1_556 S
C714 C718 1.524 . S
C715 C707 1.503 . S
C715 C714 1.370 1_554 S
C715 C716 1.403 . S
C716 C715 1.403 . S
C716 C717 1.404 . S
C716 C719 1.539 . S
C717 C713 1.408 . S
C717 C716 1.404 . S
C717 H729 0.930 . S
C718 C714 1.524 . S
C718 H730 0.956 . S
C718 H731 0.961 . S
C718 H732 0.961 . S
C719 C716 1.539 . S
C719 H733 0.958 . S
C719 H734 0.961 . S
C719 H735 0.960 . S
H720 C704 0.931 . S
H721 C709 0.929 . S
H722 C710 0.960 . S
H723 C710 0.962 . S
H724 C710 0.960 . S
H725 C711 0.961 . S
H726 C711 0.961 . S
H727 C711 0.961 . S
H728 C712 0.931 . S
H729 C717 0.930 . S
H730 C718 0.956 . S
H731 C718 0.961 . S
H732 C718 0.961 . S
H733 C719 0.958 . S
H734 C719 0.961 . S
H735 C719 0.960 . S
C736 C737 1.391 . S
C736 C738 1.394 . S
C736 H752 0.931 . S
C737 C736 1.391 . S
C737 C741 1.376 1_554 S
C738 C736 1.394 . S
C738 C739 1.369 . S
C738 C742 1.531 . S
C739 C738 1.369 . S
C739 C740 1.410 1_554 S
C739 C747 1.503 . S
C740 C739 1.410 1_556 S
C740 C741 1.392 . S
C740 C743 1.511 . S
C741 C737 1.376 1_556 S
C741 C740 1.392 . S
C741 H753 0.929 . S
C742 C738 1.531 . S
C742 H754 0.960 . S
C742 H755 0.962 . S
C742 H756 0.960 . S
C743 C740 1.511 . S
C743 H757 0.961 . S
C743 H758 0.961 . S
C743 H759 0.961 . S
C744 C745 1.368 1_556 S
C744 C746 1.363 . S
C744 H760 0.931 . S
C745 C744 1.368 1_554 S
C745 C749 1.411 . S
C746 C744 1.363 . S
C746 C747 1.370 1_556 S
C746 C750 1.524 . S
C747 C739 1.503 . S
C747 C746 1.370 1_554 S
C747 C748 1.403 . S
C748 C747 1.403 . S
C748 C749 1.404 . S
C748 C751 1.539 . S
C749 C745 1.411 . S
C749 C748 1.404 . S
C749 H761 0.930 . S
C750 C746 1.524 . S
C750 H762 0.956 . S
C750 H763 0.961 . S
C750 H764 0.961 . S
C751 C748 1.539 . S
C751 H765 0.958 . S
C751 H766 0.961 . S
C751 H767 0.960 . S
H752 C736 0.931 . S
H753 C741 0.929 . S
H754 C742 0.960 . S
H755 C742 0.962 . S
H756 C742 0.960 . S
H757 C743 0.961 . S
H758 C743 0.961 . S
H759 C743 0.961 . S
H760 C744 0.931 . S
H761 C749 0.930 . S
H762 C750 0.956 . S
H763 C750 0.961 . S
H764 C750 0.961 . S
H765 C751 0.958 . S
H766 C751 0.961 . S
H767 C751 0.960 . S
C768 C769 1.391 1_556 S
C768 C770 1.394 . S
C768 H784 0.931 . S
C769 C768 1.391 1_554 S
C769 C773 1.376 . S
C770 C768 1.394 . S
C770 C771 1.369 1_556 S
C770 C774 1.531 . S
C771 C770 1.369 1_554 S
C771 C772 1.410 . S
C771 C779 1.503 . S
C772 C771 1.410 . S
C772 C773 1.392 . S
C772 C775 1.511 . S
C773 C769 1.376 . S
C773 C772 1.392 . S
C773 H785 0.929 . S
C774 C770 1.531 . S
C774 H786 0.960 . S
C774 H787 0.962 . S
C774 H788 0.960 . S
C775 C772 1.511 . S
C775 H789 0.961 . S
C775 H790 0.961 . S
C775 H791 0.961 . S
C776 C777 1.363 1_556 S
C776 C778 1.363 . S
C776 H792 0.931 . S
C777 C776 1.363 1_554 S
C777 C781 1.416 . S
C778 C776 1.363 . S
C778 C779 1.370 1_556 S
C778 C782 1.524 . S
C779 C771 1.503 . S
C779 C778 1.370 1_554 S
C779 C780 1.403 . S
C780 C779 1.403 . S
C780 C781 1.404 . S
C780 C783 1.539 . S
C781 C777 1.416 . S
C781 C780 1.404 . S
C781 H793 0.930 . S
C782 C778 1.524 . S
C782 H794 0.956 . S
C782 H795 0.961 . S
C782 H796 0.961 . S
C783 C780 1.539 . S
C783 H797 0.958 . S
C783 H798 0.961 . S
C783 H799 0.960 . S
H784 C768 0.931 . S
H785 C773 0.929 . S
H786 C774 0.960 . S
H787 C774 0.962 . S
H788 C774 0.960 . S
H789 C775 0.961 . S
H790 C775 0.961 . S
H791 C775 0.961 . S
H792 C776 0.931 . S
H793 C781 0.930 . S
H794 C782 0.956 . S
H795 C782 0.961 . S
H796 C782 0.961 . S
H797 C783 0.958 . S
H798 C783 0.961 . S
H799 C783 0.960 . S
C800 C801 1.391 1_556 S
C800 C802 1.394 . S
C800 H816 0.931 . S
C801 C800 1.391 1_554 S
C801 C805 1.376 . S
C802 C800 1.394 . S
C802 C803 1.369 1_556 S
C802 C806 1.531 . S
C803 C802 1.369 1_554 S
C803 C804 1.410 . S
C803 C811 1.503 . S
C804 C803 1.410 . S
C804 C805 1.392 . S
C804 C807 1.511 . S
C805 C801 1.376 . S
C805 C804 1.392 . S
C805 H817 0.929 . S
C806 C802 1.531 . S
C806 H818 0.960 . S
C806 H819 0.962 . S
C806 H820 0.960 . S
C807 C804 1.511 . S
C807 H821 0.961 . S
C807 H822 0.961 . S
C807 H823 0.961 . S
C808 C809 1.370 1_556 S
C808 C810 1.363 . S
C808 H824 0.931 . S
C809 C808 1.370 1_554 S
C809 C813 1.408 . S
C810 C808 1.363 . S
C810 C811 1.370 1_556 S
C810 C814 1.524 . S
C811 C803 1.503 . S
C811 C810 1.370 1_554 S
C811 C812 1.403 . S
C812 C811 1.403 . S
C812 C813 1.404 . S
C812 C815 1.539 . S
C813 C809 1.408 . S
C813 C812 1.404 . S
C813 H825 0.930 . S
C814 C810 1.524 . S
C814 H826 0.956 . S
C814 H827 0.961 . S
C814 H828 0.961 . S
C815 C812 1.539 . S
C815 H829 0.958 . S
C815 H830 0.961 . S
C815 H831 0.960 . S
H816 C800 0.931 . S
H817 C805 0.929 . S
H818 C806 0.960 . S
H819 C806 0.962 . S
H820 C806 0.960 . S
H821 C807 0.961 . S
H822 C807 0.961 . S
H823 C807 0.961 . S
H824 C808 0.931 . S
H825 C813 0.930 . S
H826 C814 0.956 . S
H827 C814 0.961 . S
H828 C814 0.961 . S
H829 C815 0.958 . S
H830 C815 0.961 . S
H831 C815 0.960 . S
C832 C833 1.391 . S
C832 C834 1.394 . S
C832 H848 0.931 . S
C833 C832 1.391 . S
C833 C837 1.376 . S
C834 C832 1.394 . S
C834 C835 1.369 . S
C834 C838 1.531 . S
C835 C834 1.369 . S
C835 C836 1.410 . S
C835 C843 1.503 1_565 S
C836 C835 1.410 . S
C836 C837 1.392 . S
C836 C839 1.511 . S
C837 C833 1.376 . S
C837 C836 1.392 . S
C837 H849 0.929 . S
C838 C834 1.531 . S
C838 H850 0.960 1_565 S
C838 H851 0.962 . S
C838 H852 0.960 . S
C839 C836 1.511 . S
C839 H853 0.961 . S
C839 H854 0.961 1_565 S
C839 H855 0.961 . S
C840 C841 1.370 . S
C840 C842 1.363 . S
C840 H856 0.931 . S
C841 C840 1.370 . S
C841 C845 1.408 . S
C842 C840 1.363 . S
C842 C843 1.370 . S
C842 C846 1.524 . S
C843 C835 1.503 1_545 S
C843 C842 1.370 . S
C843 C844 1.403 . S
C844 C843 1.403 . S
C844 C845 1.404 . S
C844 C847 1.539 . S
C845 C841 1.408 . S
C845 C844 1.404 . S
C845 H857 0.930 . S
C846 C842 1.524 . S
C846 H858 0.956 . S
C846 H859 0.961 1_545 S
C846 H860 0.961 . S
C847 C844 1.539 . S
C847 H861 0.958 . S
C847 H862 0.961 . S
C847 H863 0.961 . S
H848 C832 0.931 . S
H849 C837 0.929 . S
H850 C838 0.960 1_545 S
H851 C838 0.962 . S
H852 C838 0.960 . S
H853 C839 0.961 . S
H854 C839 0.961 1_545 S
H855 C839 0.961 . S
H856 C840 0.931 . S
H857 C845 0.930 . S
H858 C846 0.956 . S
H859 C846 0.961 1_565 S
H860 C846 0.961 . S
H861 C847 0.958 . S
H862 C847 0.961 . S
H863 C847 0.961 . S
C864 C865 1.391 . S
C864 C866 1.394 . S
C864 H880 0.931 . S
C865 C864 1.391 . S
C865 C869 1.376 . S
C866 C864 1.394 . S
C866 C867 1.369 . S
C866 C870 1.531 . S
C867 C866 1.369 . S
C867 C868 1.410 . S
C867 C875 1.503 1_455 S
C868 C867 1.410 . S
C868 C869 1.392 . S
C868 C871 1.511 . S
C869 C865 1.376 . S
C869 C868 1.392 . S
C869 H881 0.929 . S
C870 C866 1.531 . S
C870 H882 0.960 1_455 S
C870 H883 0.962 . S
C870 H884 0.960 . S
C871 C868 1.511 . S
C871 H885 0.961 . S
C871 H886 0.961 1_455 S
C871 H887 0.961 . S
C872 C873 1.370 . S
C872 C874 1.363 . S
C872 H888 0.931 . S
C873 C872 1.370 . S
C873 C877 1.408 . S
C874 C872 1.363 . S
C874 C875 1.370 . S
C874 C878 1.524 . S
C875 C867 1.503 1_655 S
C875 C874 1.370 . S
C875 C876 1.403 . S
C876 C875 1.403 . S
C876 C877 1.404 . S
C876 C879 1.539 . S
C877 C873 1.408 . S
C877 C876 1.404 . S
C877 H889 0.930 . S
C878 C874 1.524 . S
C878 H890 0.978 . S
C878 H891 0.961 1_655 S
C878 H892 0.961 . S
C879 C876 1.539 . S
C879 H893 0.958 . S
C879 H894 0.961 . S
C879 H895 0.981 . S
H880 C864 0.931 . S
H881 C869 0.929 . S
H882 C870 0.960 1_655 S
H883 C870 0.962 . S
H884 C870 0.960 . S
H885 C871 0.961 . S
H886 C871 0.961 1_655 S
H887 C871 0.961 . S
H888 C872 0.931 . S
H889 C877 0.930 . S
H890 C878 0.978 . S
H891 C878 0.961 1_455 S
H892 C878 0.961 . S
H893 C879 0.958 . S
H894 C879 0.961 . S
H895 C879 0.981 . S
C896 C897 1.391 . S
C896 C898 1.394 . S
C896 H912 0.931 . S
C897 C896 1.391 . S
C897 C901 1.376 . S
C898 C896 1.394 . S
C898 C899 1.369 . S
C898 C902 1.531 . S
C899 C898 1.369 . S
C899 C900 1.410 . S
C899 C907 1.503 1_545 S
C900 C899 1.410 . S
C900 C901 1.392 . S
C900 C903 1.511 . S
C901 C897 1.376 . S
C901 C900 1.392 . S
C901 H913 0.929 . S
C902 C898 1.531 . S
C902 H914 0.960 1_545 S
C902 H915 0.962 . S
C902 H916 0.960 . S
C903 C900 1.511 . S
C903 H917 0.961 . S
C903 H918 0.961 1_545 S
C903 H919 0.961 . S
C904 C905 1.370 . S
C904 C906 1.363 . S
C904 H920 0.931 . S
C905 C904 1.370 . S
C905 C909 1.408 . S
C906 C904 1.363 . S
C906 C907 1.370 . S
C906 C910 1.524 . S
C907 C899 1.503 1_565 S
C907 C906 1.370 . S
C907 C908 1.403 . S
C908 C907 1.403 . S
C908 C909 1.404 . S
C908 C911 1.539 . S
C909 C905 1.408 . S
C909 C908 1.404 . S
C909 H921 0.930 . S
C910 C906 1.524 . S
C910 H922 0.978 . S
C910 H923 0.961 1_565 S
C910 H924 0.961 . S
C911 C908 1.539 . S
C911 H925 0.958 . S
C911 H926 0.961 . S
C911 H927 0.981 . S
H912 C896 0.931 . S
H913 C901 0.929 . S
H914 C902 0.960 1_565 S
H915 C902 0.962 . S
H916 C902 0.960 . S
H917 C903 0.961 . S
H918 C903 0.961 1_565 S
H919 C903 0.961 . S
H920 C904 0.931 . S
H921 C909 0.930 . S
H922 C910 0.978 . S
H923 C910 0.961 1_545 S
H924 C910 0.961 . S
H925 C911 0.958 . S
H926 C911 0.961 . S
H927 C911 0.981 . S
C928 C929 1.391 . S
C928 C930 1.394 . S
C928 H944 0.931 . S
C929 C928 1.391 . S
C929 C933 1.376 . S
C930 C928 1.394 . S
C930 C931 1.369 . S
C930 C934 1.531 . S
C931 C930 1.369 . S
C931 C932 1.410 . S
C931 C939 1.503 1_655 S
C932 C931 1.410 . S
C932 C933 1.392 . S
C932 C935 1.511 . S
C933 C929 1.376 . S
C933 C932 1.392 . S
C933 H945 0.929 . S
C934 C930 1.531 . S
C934 H946 0.960 1_655 S
C934 H947 0.962 . S
C934 H948 0.960 . S
C935 C932 1.511 . S
C935 H949 0.961 . S
C935 H950 0.961 1_655 S
C935 H951 0.961 . S
C936 C937 1.370 . S
C936 C938 1.363 . S
C936 H952 0.931 . S
C937 C936 1.370 . S
C937 C941 1.408 . S
C938 C936 1.363 . S
C938 C939 1.370 . S
C938 C942 1.524 . S
C939 C931 1.503 1_455 S
C939 C938 1.370 . S
C939 C940 1.403 . S
C940 C939 1.403 . S
C940 C941 1.404 . S
C940 C943 1.539 . S
C941 C937 1.408 . S
C941 C940 1.404 . S
C941 H953 0.930 . S
C942 C938 1.524 . S
C942 H954 0.956 . S
C942 H955 0.961 1_455 S
C942 H956 0.961 . S
C943 C940 1.539 . S
C943 H957 0.958 . S
C943 H958 0.961 . S
C943 H959 0.962 . S
H944 C928 0.931 . S
H945 C933 0.929 . S
H946 C934 0.960 1_455 S
H947 C934 0.962 . S
H948 C934 0.960 . S
H949 C935 0.961 . S
H950 C935 0.961 1_455 S
H951 C935 0.961 . S
H952 C936 0.931 . S
H953 C941 0.930 . S
H954 C942 0.956 . S
H955 C942 0.961 1_655 S
H956 C942 0.961 . S
H957 C943 0.958 . S
H958 C943 0.961 . S
H959 C943 0.962 . S
C960 C961 1.391 . S
C960 C962 1.394 . S
C960 H976 0.931 . S
C961 C960 1.391 . S
C961 C965 1.376 . S
C962 C960 1.394 . S
C962 C963 1.369 . S
C962 C966 1.531 . S
C963 C962 1.369 . S
C963 C964 1.410 . S
C963 C971 1.503 . S
C964 C963 1.410 . S
C964 C965 1.392 . S
C964 C967 1.511 . S
C965 C961 1.376 . S
C965 C964 1.392 . S
C965 H977 0.929 . S
C966 C962 1.531 . S
C966 H978 0.960 . S
C966 H979 0.962 . S
C966 H980 0.960 . S
C967 C964 1.511 . S
C967 H981 0.961 . S
C967 H982 0.961 . S
C967 H983 0.961 . S
C968 C969 1.370 . S
C968 C970 1.363 . S
C968 H984 0.931 . S
C969 C968 1.370 . S
C969 C973 1.408 . S
C970 C968 1.363 . S
C970 C971 1.370 . S
C970 C974 1.524 . S
C971 C963 1.503 . S
C971 C970 1.370 . S
C971 C972 1.403 . S
C972 C971 1.403 . S
C972 C973 1.404 . S
C972 C975 1.539 . S
C973 C969 1.408 . S
C973 C972 1.404 . S
C973 H985 0.930 . S
C974 C970 1.524 . S
C974 H986 0.956 . S
C974 H987 0.961 . S
C974 H988 0.961 . S
C975 C972 1.539 . S
C975 H989 0.958 . S
C975 H990 0.961 . S
C975 H991 0.960 . S
H976 C960 0.931 . S
H977 C965 0.929 . S
H978 C966 0.960 . S
H979 C966 0.962 . S
H980 C966 0.960 . S
H981 C967 0.961 . S
H982 C967 0.961 . S
H983 C967 0.961 . S
H984 C968 0.931 . S
H985 C973 0.930 . S
H986 C974 0.956 . S
H987 C974 0.961 . S
H988 C974 0.961 . S
H989 C975 0.958 . S
H990 C975 0.961 . S
H991 C975 0.960 . S
C992 C993 1.391 . S
C992 C994 1.394 . S
C992 H1008 0.931 . S
C993 C992 1.391 . S
C993 C997 1.376 . S
C994 C992 1.394 . S
C994 C995 1.369 . S
C994 C998 1.531 . S
C995 C994 1.369 . S
C995 C996 1.410 . S
C995 C1003 1.503 . S
C996 C995 1.410 . S
C996 C997 1.392 . S
C996 C999 1.511 . S
C997 C993 1.376 . S
C997 C996 1.392 . S
C997 H1009 0.929 . S
C998 C994 1.531 . S
C998 H1010 0.960 . S
C998 H1011 0.962 . S
C998 H1012 0.960 . S
C999 C996 1.511 . S
C999 H1013 0.961 . S
C999 H1014 0.961 . S
C999 H1015 0.961 . S
C1000 C1001 1.370 . S
C1000 C1002 1.363 . S
C1000 H1016 0.931 . S
C1001 C1000 1.370 . S
C1001 C1005 1.408 . S
C1002 C1000 1.363 . S
C1002 C1003 1.370 . S
C1002 C1006 1.524 . S
C1003 C995 1.503 . S
C1003 C1002 1.370 . S
C1003 C1004 1.403 . S
C1004 C1003 1.403 . S
C1004 C1005 1.404 . S
C1004 C1007 1.539 . S
C1005 C1001 1.408 . S
C1005 C1004 1.404 . S
C1005 H1017 0.930 . S
C1006 C1002 1.524 . S
C1006 H1018 0.956 . S
C1006 H1019 0.961 . S
C1006 H1020 0.961 . S
C1007 C1004 1.539 . S
C1007 H1021 0.958 . S
C1007 H1022 0.961 . S
C1007 H1023 0.960 . S
H1008 C992 0.931 . S
H1009 C997 0.929 . S
H1010 C998 0.960 . S
H1011 C998 0.962 . S
H1012 C998 0.960 . S
H1013 C999 0.961 . S
H1014 C999 0.961 . S
H1015 C999 0.961 . S
H1016 C1000 0.931 . S
H1017 C1005 0.930 . S
H1018 C1006 0.956 . S
H1019 C1006 0.961 . S
H1020 C1006 0.961 . S
H1021 C1007 0.958 . S
H1022 C1007 0.961 . S
H1023 C1007 0.960 . S
C1024 C1025 1.391 . S
C1024 C1026 1.394 . S
C1024 H1040 0.931 . S
C1025 C1024 1.391 . S
C1025 C1029 1.376 . S
C1026 C1024 1.394 . S
C1026 C1027 1.369 . S
C1026 C1030 1.531 . S
C1027 C1026 1.369 . S
C1027 C1028 1.410 . S
C1027 C1035 1.503 . S
C1028 C1027 1.410 . S
C1028 C1029 1.392 . S
C1028 C1031 1.511 . S
C1029 C1025 1.376 . S
C1029 C1028 1.392 . S
C1029 H1041 0.929 . S
C1030 C1026 1.531 . S
C1030 H1042 0.960 . S
C1030 H1043 0.962 . S
C1030 H1044 0.960 . S
C1031 C1028 1.511 . S
C1031 H1045 0.961 . S
C1031 H1046 0.961 . S
C1031 H1047 0.961 . S
C1032 C1033 1.370 . S
C1032 C1034 1.363 . S
C1032 H1048 0.931 . S
C1033 C1032 1.370 . S
C1033 C1037 1.408 . S
C1034 C1032 1.363 . S
C1034 C1035 1.370 . S
C1034 C1038 1.524 . S
C1035 C1027 1.503 . S
C1035 C1034 1.370 . S
C1035 C1036 1.403 . S
C1036 C1035 1.403 . S
C1036 C1037 1.404 . S
C1036 C1039 1.539 . S
C1037 C1033 1.408 . S
C1037 C1036 1.404 . S
C1037 H1049 0.930 . S
C1038 C1034 1.524 . S
C1038 H1050 0.956 . S
C1038 H1051 0.961 . S
C1038 H1052 0.961 . S
C1039 C1036 1.539 . S
C1039 H1053 0.958 . S
C1039 H1054 0.961 . S
C1039 H1055 0.960 . S
H1040 C1024 0.931 . S
H1041 C1029 0.929 . S
H1042 C1030 0.960 . S
H1043 C1030 0.962 . S
H1044 C1030 0.960 . S
H1045 C1031 0.961 . S
H1046 C1031 0.961 . S
H1047 C1031 0.961 . S
H1048 C1032 0.931 . S
H1049 C1037 0.930 . S
H1050 C1038 0.956 . S
H1051 C1038 0.961 . S
H1052 C1038 0.961 . S
H1053 C1039 0.958 . S
H1054 C1039 0.961 . S
H1055 C1039 0.960 . S
C1056 C1057 1.391 . S
C1056 C1058 1.394 . S
C1056 H1072 0.931 . S
C1057 C1056 1.391 . S
C1057 C1061 1.376 . S
C1058 C1056 1.394 . S
C1058 C1059 1.369 . S
C1058 C1062 1.531 . S
C1059 C1058 1.369 . S
C1059 C1060 1.410 . S
C1059 C1067 1.503 . S
C1060 C1059 1.410 . S
C1060 C1061 1.392 . S
C1060 C1063 1.511 . S
C1061 C1057 1.376 . S
C1061 C1060 1.392 . S
C1061 H1073 0.929 . S
C1062 C1058 1.531 . S
C1062 H1074 0.960 . S
C1062 H1075 0.962 . S
C1062 H1076 0.960 . S
C1063 C1060 1.511 . S
C1063 H1077 0.961 . S
C1063 H1078 0.961 . S
C1063 H1079 0.961 . S
C1064 C1065 1.370 . S
C1064 C1066 1.363 . S
C1064 H1080 0.931 . S
C1065 C1064 1.370 . S
C1065 C1069 1.408 . S
C1066 C1064 1.363 . S
C1066 C1067 1.370 . S
C1066 C1070 1.524 . S
C1067 C1059 1.503 . S
C1067 C1066 1.370 . S
C1067 C1068 1.403 . S
C1068 C1067 1.403 . S
C1068 C1069 1.404 . S
C1068 C1071 1.539 . S
C1069 C1065 1.408 . S
C1069 C1068 1.404 . S
C1069 H1081 0.930 . S
C1070 C1066 1.524 . S
C1070 H1082 0.956 . S
C1070 H1083 0.961 . S
C1070 H1084 0.961 . S
C1071 C1068 1.539 . S
C1071 H1085 0.958 . S
C1071 H1086 0.961 . S
C1071 H1087 0.960 . S
H1072 C1056 0.931 . S
H1073 C1061 0.929 . S
H1074 C1062 0.960 . S
H1075 C1062 0.962 . S
H1076 C1062 0.960 . S
H1077 C1063 0.961 . S
H1078 C1063 0.961 . S
H1079 C1063 0.961 . S
H1080 C1064 0.931 . S
H1081 C1069 0.930 . S
H1082 C1070 0.956 . S
H1083 C1070 0.961 . S
H1084 C1070 0.961 . S
H1085 C1071 0.958 . S
H1086 C1071 0.961 . S
H1087 C1071 0.960 . S
C1088 C1089 1.391 . S
C1088 C1090 1.394 . S
C1088 H1104 0.931 . S
C1089 C1088 1.391 . S
C1089 C1093 1.376 . S
C1090 C1088 1.394 . S
C1090 C1091 1.369 . S
C1090 C1094 1.531 . S
C1091 C1090 1.369 . S
C1091 C1092 1.410 . S
C1091 C1099 1.503 . S
C1092 C1091 1.410 . S
C1092 C1093 1.392 . S
C1092 C1095 1.511 . S
C1093 C1089 1.376 . S
C1093 C1092 1.392 . S
C1093 H1105 0.929 . S
C1094 C1090 1.531 . S
C1094 H1106 0.960 . S
C1094 H1107 0.962 . S
C1094 H1108 0.960 . S
C1095 C1092 1.511 . S
C1095 H1109 0.961 . S
C1095 H1110 0.961 . S
C1095 H1111 0.961 . S
C1096 C1097 1.370 . S
C1096 C1098 1.363 . S
C1096 H1112 0.931 . S
C1097 C1096 1.370 . S
C1097 C1101 1.408 . S
C1098 C1096 1.363 . S
C1098 C1099 1.370 . S
C1098 C1102 1.524 . S
C1099 C1091 1.503 . S
C1099 C1098 1.370 . S
C1099 C1100 1.403 . S
C1100 C1099 1.403 . S
C1100 C1101 1.404 . S
C1100 C1103 1.539 . S
C1101 C1097 1.408 . S
C1101 C1100 1.404 . S
C1101 H1113 0.930 . S
C1102 C1098 1.524 . S
C1102 H1114 0.956 . S
C1102 H1115 0.961 . S
C1102 H1116 0.961 . S
C1103 C1100 1.539 . S
C1103 H1117 0.958 . S
C1103 H1118 0.961 . S
C1103 H1119 0.960 . S
H1104 C1088 0.931 . S
H1105 C1093 0.929 . S
H1106 C1094 0.960 . S
H1107 C1094 0.962 . S
H1108 C1094 0.960 . S
H1109 C1095 0.961 . S
H1110 C1095 0.961 . S
H1111 C1095 0.961 . S
H1112 C1096 0.931 . S
H1113 C1101 0.930 . S
H1114 C1102 0.956 . S
H1115 C1102 0.961 . S
H1116 C1102 0.961 . S
H1117 C1103 0.958 . S
H1118 C1103 0.961 . S
H1119 C1103 0.960 . S
C1120 C1121 1.391 . S
C1120 C1122 1.394 . S
C1120 H1136 0.931 . S
C1121 C1120 1.391 . S
C1121 C1125 1.376 . S
C1122 C1120 1.394 . S
C1122 C1123 1.369 . S
C1122 C1126 1.531 . S
C1123 C1122 1.369 . S
C1123 C1124 1.410 . S
C1123 C1131 1.503 . S
C1124 C1123 1.410 . S
C1124 C1125 1.392 . S
C1124 C1127 1.511 . S
C1125 C1121 1.376 . S
C1125 C1124 1.392 . S
C1125 H1137 0.929 . S
C1126 C1122 1.531 . S
C1126 H1138 0.960 . S
C1126 H1139 0.962 . S
C1126 H1140 0.960 . S
C1127 C1124 1.511 . S
C1127 H1141 0.961 . S
C1127 H1142 0.961 . S
C1127 H1143 0.961 . S
C1128 C1129 1.370 . S
C1128 C1130 1.363 . S
C1128 H1144 0.931 . S
C1129 C1128 1.370 . S
C1129 C1133 1.408 . S
C1130 C1128 1.363 . S
C1130 C1131 1.370 . S
C1130 C1134 1.524 . S
C1131 C1123 1.503 . S
C1131 C1130 1.370 . S
C1131 C1132 1.403 . S
C1132 C1131 1.403 . S
C1132 C1133 1.404 . S
C1132 C1135 1.539 . S
C1133 C1129 1.408 . S
C1133 C1132 1.404 . S
C1133 H1145 0.930 . S
C1134 C1130 1.524 . S
C1134 H1146 0.956 . S
C1134 H1147 0.961 . S
C1134 H1148 0.961 . S
C1135 C1132 1.539 . S
C1135 H1149 0.958 . S
C1135 H1150 0.961 . S
C1135 H1151 0.960 . S
H1136 C1120 0.931 . S
H1137 C1125 0.929 . S
H1138 C1126 0.960 . S
H1139 C1126 0.962 . S
H1140 C1126 0.960 . S
H1141 C1127 0.961 . S
H1142 C1127 0.961 . S
H1143 C1127 0.961 . S
H1144 C1128 0.931 . S
H1145 C1133 0.930 . S
H1146 C1134 0.956 . S
H1147 C1134 0.961 . S
H1148 C1134 0.961 . S
H1149 C1135 0.958 . S
H1150 C1135 0.961 . S
H1151 C1135 0.960 . S
C1152 C1153 1.391 . S
C1152 C1154 1.394 . S
C1152 H1168 0.931 . S
C1153 C1152 1.391 . S
C1153 C1157 1.376 . S
C1154 C1152 1.394 . S
C1154 C1155 1.369 . S
C1154 C1158 1.531 . S
C1155 C1154 1.369 . S
C1155 C1156 1.410 . S
C1155 C1163 1.503 . S
C1156 C1155 1.410 . S
C1156 C1157 1.392 . S
C1156 C1159 1.511 . S
C1157 C1153 1.376 . S
C1157 C1156 1.392 . S
C1157 H1169 0.929 . S
C1158 C1154 1.531 . S
C1158 H1170 0.960 . S
C1158 H1171 0.962 . S
C1158 H1172 0.960 . S
C1159 C1156 1.511 . S
C1159 H1173 0.961 . S
C1159 H1174 0.961 . S
C1159 H1175 0.961 . S
C1160 C1161 1.370 . S
C1160 C1162 1.363 . S
C1160 H1176 0.931 . S
C1161 C1160 1.370 . S
C1161 C1165 1.408 . S
C1162 C1160 1.363 . S
C1162 C1163 1.370 . S
C1162 C1166 1.524 . S
C1163 C1155 1.503 . S
C1163 C1162 1.370 . S
C1163 C1164 1.403 . S
C1164 C1163 1.403 . S
C1164 C1165 1.404 . S
C1164 C1167 1.539 . S
C1165 C1161 1.408 . S
C1165 C1164 1.404 . S
C1165 H1177 0.930 . S
C1166 C1162 1.524 . S
C1166 H1178 0.956 . S
C1166 H1179 0.961 . S
C1166 H1180 0.961 . S
C1167 C1164 1.539 . S
C1167 H1181 0.958 . S
C1167 H1182 0.961 . S
C1167 H1183 0.960 . S
H1168 C1152 0.931 . S
H1169 C1157 0.929 . S
H1170 C1158 0.960 . S
H1171 C1158 0.962 . S
H1172 C1158 0.960 . S
H1173 C1159 0.961 . S
H1174 C1159 0.961 . S
H1175 C1159 0.961 . S
H1176 C1160 0.931 . S
H1177 C1165 0.930 . S
H1178 C1166 0.956 . S
H1179 C1166 0.961 . S
H1180 C1166 0.961 . S
H1181 C1167 0.958 . S
H1182 C1167 0.961 . S
H1183 C1167 0.960 . S
C1184 C1185 1.391 . S
C1184 C1186 1.394 . S
C1184 H1200 0.931 . S
C1185 C1184 1.391 . S
C1185 C1189 1.376 . S
C1186 C1184 1.394 . S
C1186 C1187 1.369 . S
C1186 C1190 1.531 . S
C1187 C1186 1.369 . S
C1187 C1188 1.410 . S
C1187 C1195 1.503 . S
C1188 C1187 1.410 . S
C1188 C1189 1.392 . S
C1188 C1191 1.511 . S
C1189 C1185 1.376 . S
C1189 C1188 1.392 . S
C1189 H1201 0.929 . S
C1190 C1186 1.531 . S
C1190 H1202 0.960 . S
C1190 H1203 0.962 . S
C1190 H1204 0.960 . S
C1191 C1188 1.511 . S
C1191 H1205 0.961 . S
C1191 H1206 0.961 . S
C1191 H1207 0.961 . S
C1192 C1193 1.370 . S
C1192 C1194 1.363 . S
C1192 H1208 0.931 . S
C1193 C1192 1.370 . S
C1193 C1197 1.408 . S
C1194 C1192 1.363 . S
C1194 C1195 1.370 . S
C1194 C1198 1.524 . S
C1195 C1187 1.503 . S
C1195 C1194 1.370 . S
C1195 C1196 1.403 . S
C1196 C1195 1.403 . S
C1196 C1197 1.404 . S
C1196 C1199 1.539 . S
C1197 C1193 1.408 . S
C1197 C1196 1.404 . S
C1197 H1209 0.930 . S
C1198 C1194 1.524 . S
C1198 H1210 0.956 . S
C1198 H1211 0.961 . S
C1198 H1212 0.961 . S
C1199 C1196 1.539 . S
C1199 H1213 0.958 . S
C1199 H1214 0.961 . S
C1199 H1215 0.960 . S
H1200 C1184 0.931 . S
H1201 C1189 0.929 . S
H1202 C1190 0.960 . S
H1203 C1190 0.962 . S
H1204 C1190 0.960 . S
H1205 C1191 0.961 . S
H1206 C1191 0.961 . S
H1207 C1191 0.961 . S
H1208 C1192 0.931 . S
H1209 C1197 0.930 . S
H1210 C1198 0.956 . S
H1211 C1198 0.961 . S
H1212 C1198 0.961 . S
H1213 C1199 0.958 . S
H1214 C1199 0.961 . S
H1215 C1199 0.960 . S
C705 C49 1.489 1_554 S
C713 C284 1.497 . S
C737 C29 1.502 . S
C745 C145 1.501 1_554 S
C769 C108 1.489 . S
C777 C233 1.495 1_554 S
C801 C321 1.499 1_554 S
C809 C196 1.501 . S
C833 C401 1.487 . S
C841 C645 1.496 . S
C865 C497 1.500 . S
C873 C381 1.499 . S
C897 C577 1.499 . S
C905 C460 1.499 . S
C929 C665 1.501 . S
C937 C557 1.501 . S
C961 C585 1.334 . S
C969 C20 1.346 . S
C993 C117 1.351 . S
C1001 C673 1.340 . S
C1025 C409 1.349 . S
C1033 C205 1.340 . S
C1057 C489 1.339 . S
C1065 C293 1.343 . S
C1089 C469 1.350 . S
C1097 C313 1.346 . S
C1121 C57 1.350 . S
C1129 C548 1.348 . S
C1153 C137 1.350 . S
C1161 C636 1.348 . S
C1185 C225 1.338 . S
C1193 C372 1.349 . S
