# Generated by pormake.
# Topology acs-a, (4)-cn, num edge types: 1
# Building blocks:
#     Node 0, Type 0, BuildingBlock: KUFVIS_clean_sbu_0, # of connection points: 4
#     Node 1, Type 0, BuildingBlock: KUFVIS_clean_sbu_0, # of connection points: 4
#     Node 2, Type 0, BuildingBlock: KUFVIS_clean_sbu_0, # of connection points: 4
#     Node 3, Type 0, BuildingBlock: KUFVIS_clean_sbu_0, # of connection points: 4
#     Node 4, Type 0, BuildingBlock: KUFVIS_clean_sbu_0, # of connection points: 4
#     Node 5, Type 0, BuildingBlock: KUFVIS_clean_sbu_0, # of connection points: 4
#     Node 6, Type 0, BuildingBlock: KUFVIS_clean_sbu_0, # of connection points: 4
#     Node 7, Type 0, BuildingBlock: KUFVIS_clean_sbu_0, # of connection points: 4
#     Node 8, Type 0, BuildingBlock: KUFVIS_clean_sbu_0, # of connection points: 4
#     Node 9, Type 0, BuildingBlock: KUFVIS_clean_sbu_0, # of connection points: 4
#     Node 10, Type 0, BuildingBlock: KUFVIS_clean_sbu_0, # of connection points: 4
#     Node 11, Type 0, BuildingBlock: KUFVIS_clean_sbu_0, # of connection points: 4
#     Edge 12, Type (0, 0), BuildingBlock: EYOCIG_clean_linker_4, # of connection points: 2
#     Edge 13, Type (0, 0), BuildingBlock: EYOCIG_clean_linker_4, # of connection points: 2
#     Edge 14, Type (0, 0), BuildingBlock: EYOCIG_clean_linker_4, # of connection points: 2
#     Edge 15, Type (0, 0), BuildingBlock: EYOCIG_clean_linker_4, # of connection points: 2
#     Edge 16, Type (0, 0), BuildingBlock: EYOCIG_clean_linker_4, # of connection points: 2
#     Edge 17, Type (0, 0), BuildingBlock: EYOCIG_clean_linker_4, # of connection points: 2
#     Edge 18, Type (0, 0), BuildingBlock: EYOCIG_clean_linker_4, # of connection points: 2
#     Edge 19, Type (0, 0), BuildingBlock: EYOCIG_clean_linker_4, # of connection points: 2
#     Edge 20, Type (0, 0), BuildingBlock: EYOCIG_clean_linker_4, # of connection points: 2
#     Edge 21, Type (0, 0), BuildingBlock: EYOCIG_clean_linker_4, # of connection points: 2
#     Edge 22, Type (0, 0), BuildingBlock: EYOCIG_clean_linker_4, # of connection points: 2
#     Edge 23, Type (0, 0), BuildingBlock: EYOCIG_clean_linker_4, # of connection points: 2
#     Edge 24, Type (0, 0), BuildingBlock: EYOCIG_clean_linker_4, # of connection points: 2
#     Edge 25, Type (0, 0), BuildingBlock: EYOCIG_clean_linker_4, # of connection points: 2
#     Edge 26, Type (0, 0), BuildingBlock: EYOCIG_clean_linker_4, # of connection points: 2
#     Edge 27, Type (0, 0), BuildingBlock: EYOCIG_clean_linker_4, # of connection points: 2
#     Edge 28, Type (0, 0), BuildingBlock: EYOCIG_clean_linker_4, # of connection points: 2
#     Edge 29, Type (0, 0), BuildingBlock: EYOCIG_clean_linker_4, # of connection points: 2
#     Edge 30, Type (0, 0), BuildingBlock: EYOCIG_clean_linker_4, # of connection points: 2
#     Edge 31, Type (0, 0), BuildingBlock: EYOCIG_clean_linker_4, # of connection points: 2
#     Edge 32, Type (0, 0), BuildingBlock: EYOCIG_clean_linker_4, # of connection points: 2
#     Edge 33, Type (0, 0), BuildingBlock: EYOCIG_clean_linker_4, # of connection points: 2
#     Edge 34, Type (0, 0), BuildingBlock: EYOCIG_clean_linker_4, # of connection points: 2
#     Edge 35, Type (0, 0), BuildingBlock: EYOCIG_clean_linker_4, # of connection points: 2
# Relax obj value: 0.493
# Max RMSD: 0.251
# Mean RMSD: 0.227
data_MOF--net-acs-a--node1-KUFVIS_clean_sbu_0--edge1-EYOCIG_clean_linker_4
_symmetry_space_group_name_H-M    P1
_symmetry_Int_Tables_number       1
_symmetry_cell_setting            triclinic
loop_
_symmetry_equiv_pos_as_xyz
'x, y, z'
_cell_length_a     38.763734
_cell_length_b     38.764498
_cell_length_c     31.527266
_cell_angle_alpha  90.002444
_cell_angle_beta   89.992174
_cell_angle_gamma 113.84215
loop_
_atom_site_label
_atom_site_type_symbol
_atom_site_fract_x
_atom_site_fract_y
_atom_site_fract_z
_atom_type_partial_charge
Mn0 Mn 0.58339 0.14056 0.05975 0.0
Mn1 Mn 0.50197 0.13301 0.10642 0.0
C2 C 0.55164 0.1766 0.03683 0.0
C3 C 0.64908 0.17001 0.05284 0.0
C4 C 0.50774 0.07392 0.04761 0.0
O5 O 0.58448 0.11608 0.11725 0.0
O6 O 0.53229 0.11839 0.14752 0.0
C7 C 0.53074 0.19231 0.17233 0.0
N8 N 0.50908 0.17777 0.13737 0.0
C9 C 0.48576 0.22666 0.13843 0.0
C10 C 0.50775 0.24209 0.17452 0.0
C11 C 0.53037 0.22487 0.19148 0.0
C12 C 0.4872 0.19413 0.12079 0.0
H13 H 0.54804 0.17906 0.18557 0.0
C14 C 0.56209 0.11181 0.14869 0.0
O15 O 0.6303 0.13623 0.03835 0.0
O16 O 0.63032 0.18557 0.07361 0.0
N17 N 0.47106 0.14736 0.06915 0.0
C18 C 0.45336 0.13032 0.03275 0.0
C19 C 0.4305 0.14478 0.01104 0.0
C20 C 0.42589 0.17645 0.02707 0.0
C21 C 0.44441 0.19352 0.06457 0.0
C22 C 0.46688 0.17787 0.08482 0.0
H23 H 0.45665 0.10591 0.02026 0.0
O24 O 0.57462 0.17004 0.0114 0.0
O25 O 0.54731 0.16114 0.07378 0.0
O26 O 0.54233 0.0913 0.03744 0.0
O27 O 0.49085 0.08606 0.07451 0.0
C28 C 0.44209 0.22592 0.08216 0.0
C29 C 0.46273 0.24246 0.11908 0.0
H30 H 0.50758 0.26723 0.18936 0.0
H31 H 0.54741 0.23663 0.21932 0.0
H32 H 0.41642 0.13151 0.98203 0.0
H33 H 0.40833 0.1876 0.01015 0.0
H34 H 0.42493 0.23865 0.06723 0.0
H35 H 0.46105 0.26762 0.13203 0.0
Mn36 Mn 0.39203 0.57271 0.55998 0.0
Mn37 Mn 0.32953 0.48917 0.59627 0.0
C38 C 0.33124 0.54621 0.53342 0.0
C39 C 0.41788 0.63797 0.55813 0.0
C40 C 0.3979 0.49844 0.54359 0.0
O41 O 0.4131 0.56803 0.61835 0.0
O42 O 0.36508 0.51494 0.64265 0.0
C43 C 0.288 0.51218 0.66147 0.0
N44 N 0.2882 0.49463 0.62411 0.0
C45 C 0.22143 0.47616 0.61513 0.0
C46 C 0.2205 0.49397 0.65356 0.0
C47 C 0.25393 0.51205 0.67683 0.0
C48 C 0.25615 0.47699 0.60157 0.0
H49 H 0.31365 0.52611 0.67943 0.0
C50 C 0.39643 0.54369 0.64734 0.0
O51 O 0.43648 0.61921 0.54371 0.0
O52 O 0.38601 0.61928 0.57694 0.0
N53 N 0.29399 0.46355 0.55273 0.0
C54 C 0.30003 0.44923 0.51533 0.0
C55 C 0.26963 0.43106 0.48776 0.0
C56 C 0.23336 0.42778 0.49891 0.0
C57 C 0.22787 0.44285 0.5375 0.0
C58 C 0.25923 0.46057 0.56375 0.0
H59 H 0.32782 0.4517 0.50648 0.0
O60 O 0.35839 0.56906 0.50996 0.0
O61 O 0.34144 0.53765 0.56939 0.0
O62 O 0.40828 0.5332 0.53539 0.0
O63 O 0.37013 0.47969 0.56744 0.0
C64 C 0.19258 0.44138 0.5507 0.0
C65 C 0.18935 0.45797 0.58951 0.0
H66 H 0.19431 0.49406 0.66542 0.0
H67 H 0.25342 0.52585 0.70652 0.0
H68 H 0.27416 0.41966 0.45796 0.0
H69 H 0.20999 0.41385 0.47748 0.0
H70 H 0.1678 0.4278 0.5311 0.0
H71 H 0.16212 0.45688 0.59917 0.0
Mn72 Mn 0.83069 0.3752 0.05957 0.0
Mn73 Mn 0.86967 0.3153 0.08738 0.0
C74 C 0.80906 0.31522 0.02993 0.0
C75 C 0.78624 0.40098 0.06258 0.0
C76 C 0.91094 0.3882 0.03962 0.0
O77 O 0.85383 0.39398 0.11842 0.0
O78 O 0.87023 0.34599 0.13786 0.0
C79 C 0.81579 0.26539 0.15018 0.0
N80 N 0.83347 0.27009 0.11195 0.0
C81 C 0.80202 0.20385 0.09629 0.0
C82 C 0.7835 0.19829 0.13552 0.0
C83 C 0.79041 0.22919 0.16257 0.0
C84 C 0.8271 0.24053 0.08574 0.0
H85 H 0.82105 0.28908 0.17104 0.0
C86 C 0.86543 0.37627 0.1456 0.0
O87 O 0.81963 0.41986 0.04762 0.0
O88 O 0.77922 0.3681 0.07911 0.0
N89 N 0.86889 0.28447 0.03959 0.0
C90 C 0.88814 0.29478 0.0023 0.0
C91 C 0.88387 0.26727 0.97141 0.0
C92 C 0.85991 0.22944 0.97918 0.0
C93 C 0.84038 0.2195 0.01779 0.0
C94 C 0.84584 0.24814 0.04742 0.0
H95 H 0.90666 0.32376 0.99609 0.0
O96 O 0.8061 0.34272 0.00889 0.0
O97 O 0.82743 0.32489 0.06512 0.0
O98 O 0.88216 0.39474 0.03221 0.0
O99 O 0.9102 0.36051 0.06188 0.0
C100 C 0.8155 0.18232 0.02789 0.0
C101 C 0.79634 0.17451 0.06712 0.0
H102 H 0.76384 0.17044 0.14515 0.0
H103 H 0.77621 0.22511 0.19289 0.0
H104 H 0.89902 0.27519 0.94169 0.0
H105 H 0.85663 0.2083 0.95524 0.0
H106 H 0.81075 0.15957 0.00563 0.0
H107 H 0.77713 0.14584 0.07442 0.0
Mn108 Mn 0.38128 0.8385 0.55976 0.0
Mn109 Mn 0.46264 0.84597 0.60648 0.0
C110 C 0.41303 0.80247 0.53681 0.0
C111 C 0.31559 0.80907 0.5528 0.0
C112 C 0.45696 0.90513 0.5477 0.0
O113 O 0.38014 0.86293 0.61728 0.0
O114 O 0.43231 0.86059 0.64756 0.0
C115 C 0.43376 0.78663 0.67232 0.0
N116 N 0.45547 0.80118 0.6374 0.0
C117 C 0.47875 0.75226 0.63846 0.0
C118 C 0.45671 0.73681 0.67451 0.0
C119 C 0.43408 0.75404 0.69146 0.0
C120 C 0.47735 0.78482 0.62083 0.0
H121 H 0.41645 0.79988 0.68555 0.0
C122 C 0.4025 0.86717 0.64873 0.0
O123 O 0.33439 0.84286 0.53835 0.0
O124 O 0.33432 0.79348 0.57356 0.0
N125 N 0.49357 0.83162 0.56923 0.0
C126 C 0.51134 0.84869 0.53286 0.0
C127 C 0.53422 0.83423 0.51117 0.0
C128 C 0.53878 0.80254 0.52719 0.0
C129 C 0.5202 0.78544 0.56466 0.0
C130 C 0.49773 0.80109 0.5849 0.0
H131 H 0.50808 0.87312 0.52038 0.0
O132 O 0.39008 0.80906 0.51138 0.0
O133 O 0.41733 0.81789 0.57378 0.0
O134 O 0.42238 0.88777 0.53752 0.0
O135 O 0.47383 0.89294 0.5746 0.0
C136 C 0.52248 0.75302 0.58224 0.0
C137 C 0.50179 0.73646 0.61913 0.0
H138 H 0.45684 0.71166 0.68935 0.0
H139 H 0.417 0.74227 0.71928 0.0
H140 H 0.54834 0.84752 0.48219 0.0
H141 H 0.55636 0.79139 0.51029 0.0
H142 H 0.53966 0.74029 0.56732 0.0
H143 H 0.50344 0.71129 0.63207 0.0
Mn144 Mn 0.5724 0.40632 0.06005 0.0
Mn145 Mn 0.63472 0.48994 0.09635 0.0
C146 C 0.63324 0.43288 0.03364 0.0
C147 C 0.54665 0.34106 0.05825 0.0
C148 C 0.56642 0.48051 0.04347 0.0
O149 O 0.55119 0.41101 0.11834 0.0
O150 O 0.5991 0.46416 0.14267 0.0
C151 C 0.67619 0.46711 0.16175 0.0
N152 N 0.67603 0.48459 0.12433 0.0
C153 C 0.74283 0.50318 0.11553 0.0
C154 C 0.74373 0.48543 0.15402 0.0
C155 C 0.71026 0.46733 0.17723 0.0
C156 C 0.70812 0.50226 0.10185 0.0
H157 H 0.65052 0.45317 0.17968 0.0
C158 C 0.56776 0.43539 0.14733 0.0
O159 O 0.52804 0.35977 0.04374 0.0
O160 O 0.57847 0.3598 0.07714 0.0
N161 N 0.67032 0.51557 0.05285 0.0
C162 C 0.66432 0.52983 0.0154 0.0
C163 C 0.69476 0.54801 0.98788 0.0
C164 C 0.73103 0.55137 0.99914 0.0
C165 C 0.73649 0.53636 0.03779 0.0
C166 C 0.70508 0.51862 0.06399 0.0
H167 H 0.63653 0.52731 0.00647 0.0
O168 O 0.60617 0.40999 0.01014 0.0
O169 O 0.62295 0.44145 0.06955 0.0
O170 O 0.55611 0.44574 0.03531 0.0
O171 O 0.59412 0.49931 0.06736 0.0
C172 C 0.77177 0.53791 0.05111 0.0
C173 C 0.77495 0.52138 0.08997 0.0
H174 H 0.76991 0.48541 0.16597 0.0
H175 H 0.71074 0.45359 0.20697 0.0
H176 H 0.69027 0.55938 0.95804 0.0
H177 H 0.75444 0.56532 0.97775 0.0
H178 H 0.79659 0.55152 0.03155 0.0
H179 H 0.80219 0.52254 0.09972 0.0
Mn180 Mn 0.13383 0.60398 0.55939 0.0
Mn181 Mn 0.09492 0.66389 0.58739 0.0
C182 C 0.15548 0.66399 0.52982 0.0
C183 C 0.17828 0.57818 0.56226 0.0
C184 C 0.05358 0.59102 0.53959 0.0
O185 O 0.11076 0.58517 0.61826 0.0
O186 O 0.09439 0.63316 0.63781 0.0
C187 C 0.14888 0.71373 0.65017 0.0
N188 N 0.13117 0.70907 0.61197 0.0
C189 C 0.16264 0.77531 0.59637 0.0
C190 C 0.18119 0.78084 0.63557 0.0
C191 C 0.17428 0.74991 0.66257 0.0
C192 C 0.13753 0.73866 0.5858 0.0
H193 H 0.14363 0.69002 0.671 0.0
C194 C 0.09919 0.60287 0.6455 0.0
O195 O 0.14487 0.55931 0.54734 0.0
O196 O 0.18532 0.61105 0.57883 0.0
N197 N 0.09568 0.69477 0.53966 0.0
C198 C 0.07639 0.68449 0.50239 0.0
C199 C 0.08065 0.71204 0.47155 0.0
C200 C 0.10464 0.74985 0.47934 0.0
C201 C 0.1242 0.75976 0.51791 0.0
C202 C 0.11876 0.73108 0.54751 0.0
H203 H 0.05786 0.65552 0.49617 0.0
O204 O 0.15839 0.6365 0.50872 0.0
O205 O 0.13714 0.6543 0.56503 0.0
O206 O 0.08234 0.58447 0.53211 0.0
O207 O 0.05435 0.61871 0.5619 0.0
C208 C 0.14911 0.79691 0.52803 0.0
C209 C 0.16831 0.80469 0.56723 0.0
H210 H 0.20087 0.80868 0.6452 0.0
H211 H 0.18851 0.75396 0.69286 0.0
H212 H 0.06547 0.70414 0.44185 0.0
H213 H 0.10791 0.77102 0.45543 0.0
H214 H 0.15385 0.81969 0.5058 0.0
H215 H 0.18754 0.83334 0.57455 0.0
Mn216 Mn 0.83116 0.38864 0.43877 0.0
Mn217 Mn 0.83867 0.47 0.39201 0.0
C218 C 0.79511 0.42039 0.46166 0.0
C219 C 0.80172 0.32295 0.44572 0.0
C220 C 0.89778 0.46432 0.45087 0.0
O221 O 0.85565 0.38751 0.38128 0.0
O222 O 0.85333 0.43967 0.35096 0.0
C223 C 0.77939 0.44113 0.32611 0.0
N224 N 0.79391 0.46284 0.36104 0.0
C225 C 0.745 0.48612 0.35991 0.0
C226 C 0.72958 0.46408 0.32385 0.0
C227 C 0.74682 0.44146 0.30694 0.0
C228 C 0.77754 0.48472 0.37758 0.0
H229 H 0.79265 0.42382 0.31291 0.0
C230 C 0.85992 0.40987 0.34982 0.0
O231 O 0.8355 0.34175 0.46021 0.0
O232 O 0.78615 0.34169 0.42493 0.0
N233 N 0.8243 0.50094 0.42922 0.0
C234 C 0.84133 0.5187 0.46561 0.0
C235 C 0.82686 0.54157 0.48726 0.0
C236 C 0.79518 0.54614 0.4712 0.0
C237 C 0.77811 0.52757 0.43373 0.0
C238 C 0.79378 0.50509 0.41352 0.0
H239 H 0.86575 0.51543 0.47811 0.0
O240 O 0.80167 0.39744 0.4871 0.0
O241 O 0.81056 0.42469 0.4247 0.0
O242 O 0.88041 0.42974 0.46106 0.0
O243 O 0.88562 0.48119 0.42395 0.0
C244 C 0.74571 0.52985 0.4161 0.0
C245 C 0.72918 0.50916 0.37921 0.0
H246 H 0.70444 0.46422 0.30899 0.0
H247 H 0.73507 0.42438 0.27911 0.0
H248 H 0.84012 0.55569 0.51625 0.0
H249 H 0.78401 0.56372 0.48809 0.0
H250 H 0.73297 0.54702 0.431 0.0
H251 H 0.70402 0.51081 0.36624 0.0
Mn252 Mn 0.3679 0.83786 0.93905 0.0
Mn253 Mn 0.30806 0.8769 0.91125 0.0
C254 C 0.30792 0.81629 0.96872 0.0
C255 C 0.3936 0.79334 0.93606 0.0
C256 C 0.381 0.91813 0.95894 0.0
O257 O 0.38667 0.86095 0.88018 0.0
O258 O 0.33872 0.87741 0.86075 0.0
C259 C 0.25808 0.82303 0.84849 0.0
N260 N 0.26282 0.84072 0.88671 0.0
C261 C 0.19658 0.80935 0.90241 0.0
C262 C 0.19098 0.79082 0.86319 0.0
C263 C 0.22187 0.79769 0.83613 0.0
C264 C 0.23328 0.8344 0.91294 0.0
H265 H 0.28176 0.82825 0.82761 0.0
C266 C 0.36897 0.87256 0.853 0.0
O267 O 0.41253 0.82673 0.95099 0.0
O268 O 0.36073 0.78636 0.91955 0.0
N269 N 0.27726 0.87617 0.95905 0.0
C270 C 0.28761 0.89544 0.99632 0.0
C271 C 0.26011 0.89122 0.02722 0.0
C272 C 0.22227 0.86729 0.01948 0.0
C273 C 0.2123 0.84775 0.9809 0.0
C274 C 0.24092 0.85316 0.95124 0.0
H275 H 0.3166 0.91393 0.00251 0.0
O276 O 0.33542 0.81331 0.98975 0.0
O277 O 0.31761 0.83464 0.93351 0.0
O278 O 0.38751 0.88934 0.96637 0.0
O279 O 0.35331 0.91741 0.9367 0.0
C280 C 0.17511 0.8229 0.97082 0.0
C281 C 0.16725 0.80372 0.93161 0.0
H282 H 0.16311 0.77118 0.85359 0.0
H283 H 0.21776 0.78347 0.80582 0.0
H284 H 0.26807 0.90638 0.05693 0.0
H285 H 0.20114 0.86405 0.04343 0.0
H286 H 0.15236 0.81819 0.99309 0.0
H287 H 0.13858 0.78454 0.92432 0.0
Mn288 Mn 0.5654 0.39945 0.43825 0.0
Mn289 Mn 0.48189 0.33707 0.40176 0.0
C290 C 0.53886 0.3386 0.46461 0.0
C291 C 0.63066 0.4253 0.44017 0.0
C292 C 0.49111 0.4053 0.45466 0.0
O293 O 0.56078 0.42069 0.37996 0.0
O294 O 0.50772 0.37274 0.35551 0.0
C295 C 0.50498 0.29573 0.33641 0.0
N296 N 0.48738 0.29582 0.37377 0.0
C297 C 0.46889 0.22903 0.38252 0.0
C298 C 0.48675 0.2282 0.34409 0.0
C299 C 0.50487 0.2617 0.32094 0.0
C300 C 0.46971 0.26371 0.3962 0.0
H301 H 0.51893 0.32143 0.31854 0.0
C302 C 0.53646 0.40411 0.35092 0.0
O303 O 0.61187 0.44386 0.45466 0.0
O304 O 0.61198 0.39348 0.42126 0.0
N305 N 0.4562 0.3014 0.44518 0.0
C306 C 0.44183 0.30733 0.48259 0.0
C307 C 0.42362 0.27686 0.51005 0.0
C308 C 0.42036 0.24062 0.49878 0.0
C309 C 0.43548 0.23523 0.46017 0.0
C310 C 0.45324 0.26668 0.43403 0.0
H311 H 0.44429 0.3351 0.49153 0.0
O312 O 0.56169 0.36567 0.48815 0.0
O313 O 0.53033 0.34889 0.42867 0.0
O314 O 0.52587 0.41565 0.4629 0.0
O315 O 0.47239 0.37759 0.43073 0.0
C316 C 0.43403 0.19999 0.44684 0.0
C317 C 0.45067 0.19687 0.40803 0.0
H318 H 0.48687 0.20205 0.33214 0.0
H319 H 0.51871 0.26128 0.29124 0.0
H320 H 0.41217 0.2813 0.53986 0.0
H321 H 0.40639 0.21719 0.52012 0.0
H322 H 0.42042 0.17515 0.46636 0.0
H323 H 0.4496 0.16967 0.39827 0.0
Mn324 Mn 0.13332 0.59059 0.93875 0.0
Mn325 Mn 0.12584 0.5092 0.8921 0.0
C326 C 0.16928 0.55881 0.9618 0.0
C327 C 0.16277 0.65628 0.9457 0.0
C328 C 0.06666 0.51494 0.9508 0.0
O329 O 0.10895 0.59172 0.8812 0.0
O330 O 0.11127 0.53953 0.85097 0.0
C331 C 0.18524 0.53803 0.82631 0.0
N332 N 0.17065 0.51632 0.86122 0.0
C333 C 0.21951 0.49298 0.86022 0.0
C334 C 0.23501 0.51501 0.82418 0.0
C335 C 0.21784 0.53767 0.80721 0.0
C336 C 0.18696 0.49441 0.87782 0.0
H337 H 0.17203 0.55536 0.81306 0.0
C338 C 0.10471 0.56934 0.84976 0.0
O339 O 0.12896 0.6375 0.96012 0.0
O340 O 0.17837 0.63752 0.92498 0.0
N341 N 0.14012 0.47825 0.92938 0.0
C342 C 0.12302 0.46051 0.96575 0.0
C343 C 0.13743 0.43761 0.98746 0.0
C344 C 0.16911 0.433 0.97147 0.0
C345 C 0.18625 0.45155 0.93401 0.0
C346 C 0.17065 0.47406 0.91375 0.0
H347 H 0.0986 0.46381 0.9782 0.0
O348 O 0.16269 0.58179 0.98719 0.0
O349 O 0.15391 0.55451 0.9248 0.0
O350 O 0.08402 0.54953 0.96097 0.0
O351 O 0.07885 0.49805 0.92394 0.0
C352 C 0.21866 0.44923 0.91645 0.0
C353 C 0.23527 0.46991 0.87957 0.0
H354 H 0.26017 0.51484 0.80937 0.0
H355 H 0.22964 0.55474 0.7794 0.0
H356 H 0.12411 0.42351 0.01644 0.0
H357 H 0.18022 0.4154 0.98839 0.0
H358 H 0.23135 0.43203 0.93139 0.0
H359 H 0.26043 0.46822 0.86666 0.0
Mn360 Mn 0.59661 0.14116 0.43894 0.0
Mn361 Mn 0.65656 0.10223 0.41116 0.0
C362 C 0.6566 0.16285 0.46857 0.0
C363 C 0.57079 0.18559 0.43589 0.0
C364 C 0.58367 0.06094 0.45896 0.0
O365 O 0.57783 0.11799 0.38011 0.0
O366 O 0.62583 0.10159 0.36069 0.0
C367 C 0.7064 0.15608 0.34828 0.0
N368 N 0.70173 0.13844 0.38652 0.0
C369 C 0.76798 0.16996 0.40212 0.0
C370 C 0.77351 0.18843 0.36287 0.0
C371 C 0.74258 0.18146 0.33585 0.0
C372 C 0.73132 0.14486 0.41272 0.0
H373 H 0.68269 0.15078 0.32743 0.0
C374 C 0.59555 0.10637 0.35294 0.0
O375 O 0.55193 0.1522 0.45088 0.0
O376 O 0.60368 0.19261 0.41937 0.0
N377 N 0.68743 0.10309 0.45892 0.0
C378 C 0.67716 0.08386 0.49623 0.0
C379 C 0.7047 0.08819 0.5271 0.0
C380 C 0.74252 0.11217 0.51929 0.0
C381 C 0.75242 0.13166 0.48066 0.0
C382 C 0.72374 0.12615 0.45105 0.0
H383 H 0.64819 0.06533 0.50248 0.0
O384 O 0.62908 0.16579 0.4896 0.0
O385 O 0.64693 0.14446 0.43339 0.0
O386 O 0.57709 0.0897 0.46633 0.0
O387 O 0.61138 0.06169 0.43671 0.0
C388 C 0.78958 0.15656 0.47051 0.0
C389 C 0.79735 0.17568 0.43127 0.0
H390 H 0.80134 0.2081 0.35321 0.0
H391 H 0.74662 0.19563 0.30551 0.0
H392 H 0.69681 0.07306 0.55684 0.0
H393 H 0.76368 0.11549 0.54321 0.0
H394 H 0.81235 0.16134 0.49276 0.0
H395 H 0.826 0.19491 0.42393 0.0
Mn396 Mn 0.39883 0.57946 0.93842 0.0
Mn397 Mn 0.48231 0.64188 0.90188 0.0
C398 C 0.42541 0.64028 0.96488 0.0
C399 C 0.33358 0.55364 0.94044 0.0
C400 C 0.47311 0.57355 0.9546 0.0
O401 O 0.40339 0.5583 0.88005 0.0
O402 O 0.45642 0.60628 0.85558 0.0
C403 C 0.45917 0.68335 0.83676 0.0
N404 N 0.47682 0.68319 0.87406 0.0
C405 C 0.49532 0.74996 0.883 0.0
C406 C 0.47742 0.75086 0.84463 0.0
C407 C 0.45927 0.71741 0.82141 0.0
C408 C 0.49452 0.71525 0.89655 0.0
H409 H 0.44519 0.65769 0.81884 0.0
C410 C 0.42767 0.57493 0.85099 0.0
O411 O 0.35236 0.53505 0.95482 0.0
O412 O 0.35225 0.58549 0.92156 0.0
N413 N 0.50805 0.67745 0.94534 0.0
C414 C 0.52245 0.67144 0.98269 0.0
C415 C 0.54069 0.70186 0.01022 0.0
C416 C 0.54395 0.73812 0.99907 0.0
C417 C 0.52881 0.74359 0.96052 0.0
C418 C 0.51101 0.7122 0.93431 0.0
H419 H 0.51999 0.64366 0.99154 0.0
O420 O 0.4026 0.61317 0.98841 0.0
O421 O 0.4339 0.63002 0.92889 0.0
O422 O 0.43837 0.56321 0.96292 0.0
O423 O 0.49182 0.60128 0.93068 0.0
C424 C 0.53025 0.77886 0.94732 0.0
C425 C 0.51357 0.78206 0.90857 0.0
H426 H 0.47729 0.77704 0.83278 0.0
H427 H 0.44539 0.7179 0.79177 0.0
H428 H 0.55216 0.69736 0.03997 0.0
H429 H 0.55795 0.76151 0.02045 0.0
H430 H 0.54388 0.80366 0.96689 0.0
H431 H 0.51464 0.80929 0.89892 0.0
C432 C 0.57776 0.09747 0.27183 0.0
C433 C 0.58372 0.102 0.30941 0.0
C434 C 0.57487 0.09767 0.22715 0.0
C435 C 0.5723 0.1034 0.18992 0.0
C436 C 0.41787 0.55103 0.7269 0.0
C437 C 0.41091 0.55036 0.68964 0.0
C438 C 0.42022 0.55339 0.77146 0.0
C439 C 0.42093 0.56037 0.80871 0.0
C440 C 0.87428 0.39408 0.22671 0.0
C441 C 0.86977 0.3881 0.18913 0.0
C442 C 0.87407 0.39702 0.27139 0.0
C443 C 0.86833 0.39962 0.30861 0.0
C444 C 0.38676 0.88142 0.77188 0.0
C445 C 0.3808 0.87691 0.80947 0.0
C446 C 0.38967 0.88124 0.7272 0.0
C447 C 0.39226 0.87555 0.68996 0.0
C448 C 0.54385 0.42571 0.27141 0.0
C449 C 0.54318 0.4187 0.30866 0.0
C450 C 0.54622 0.42806 0.22686 0.0
C451 C 0.55322 0.42871 0.18961 0.0
C452 C 0.0904 0.58505 0.72661 0.0
C453 C 0.09488 0.59101 0.68902 0.0
C454 C 0.09063 0.58214 0.77129 0.0
C455 C 0.09634 0.57956 0.80852 0.0
C456 C 0.46159 0.01239 0.00885 0.0
C457 C 0.48474 0.04041 0.02491 0.0
C458 C 0.43225 0.98085 0.99059 0.0
C459 C 0.40776 0.95336 0.97522 0.0
C460 C 0.43559 0.46259 0.50852 0.0
C461 C 0.41842 0.47903 0.5245 0.0
C462 C 0.45525 0.44295 0.48978 0.0
C463 C 0.47171 0.4258 0.47378 0.0
C464 C 0.00514 0.46875 0.98957 0.0
C465 C 0.03316 0.49192 0.97349 0.0
C466 C 0.97364 0.43941 0.00787 0.0
C467 C 0.94616 0.41493 0.02329 0.0
C468 C 0.5325 -0.00179 0.4907 0.0
C469 C 0.55696 0.0257 0.47528 0.0
C470 C 0.50317 0.96667 0.50898 0.0
C471 C 0.48 0.93864 0.52503 0.0
C472 C 0.50901 0.53588 0.98957 0.0
C473 C 0.49254 0.55304 0.97363 0.0
C474 C 0.52868 0.51624 0.0083 0.0
C475 C 0.54586 0.49983 0.02432 0.0
C476 C 0.95928 0.51052 0.48965 0.0
C477 C 0.93127 0.48736 0.47357 0.0
C478 C -0.00918 0.53985 0.50793 0.0
C479 C 0.01832 0.56432 0.52332 0.0
C480 C 0.53549 0.23607 0.03149 0.0
C481 C 0.54368 0.20926 0.03097 0.0
C482 C 0.53264 0.27065 0.03903 0.0
C483 C 0.53662 0.30249 0.0465 0.0
C484 C 0.26424 0.54804 0.53533 0.0
C485 C 0.29518 0.54815 0.53135 0.0
C486 C 0.23243 0.55532 0.54576 0.0
C487 C 0.20785 0.56592 0.55339 0.0
C488 C 0.75388 0.24681 0.02788 0.0
C489 C 0.77861 0.27831 0.02744 0.0
C490 C 0.71981 0.21454 0.03449 0.0
C491 C 0.68793 0.19188 0.04126 0.0
C492 C 0.42918 0.743 0.5314 0.0
C493 C 0.421 0.76981 0.53091 0.0
C494 C 0.43202 0.70841 0.53891 0.0
C495 C 0.428 0.67655 0.54638 0.0
C496 C 0.70027 0.43113 0.03574 0.0
C497 C 0.66933 0.43098 0.03171 0.0
C498 C 0.73208 0.42384 0.04618 0.0
C499 C 0.75666 0.41323 0.05378 0.0
C500 C 0.21073 0.73236 0.52783 0.0
C501 C 0.18597 0.70088 0.52736 0.0
C502 C 0.24483 0.7646 0.53445 0.0
C503 C 0.27672 0.78723 0.54123 0.0
C504 C 0.73565 0.43657 0.46701 0.0
C505 C 0.76246 0.42837 0.46752 0.0
C506 C 0.70107 0.43941 0.45947 0.0
C507 C 0.66922 0.4354 0.45198 0.0
C508 C 0.23952 0.76109 0.97073 0.0
C509 C 0.27103 0.78582 0.97119 0.0
C510 C 0.20727 0.72701 0.96408 0.0
C511 C 0.18462 0.69513 0.95729 0.0
C512 C 0.54791 0.23975 0.45222 0.0
C513 C 0.55853 0.21516 0.44466 0.0
C514 C 0.54063 0.27157 0.4626 0.0
C515 C 0.54076 0.30251 0.46658 0.0
C516 C 0.22865 0.54252 0.96735 0.0
C517 C 0.20188 0.55077 0.96779 0.0
C518 C 0.2632 0.5396 0.95982 0.0
C519 C 0.29503 0.54356 0.95229 0.0
C520 C 0.72497 0.21809 0.47061 0.0
C521 C 0.69349 0.19333 0.47103 0.0
C522 C 0.75722 0.25219 0.46402 0.0
C523 C 0.77986 0.28409 0.45728 0.0
C524 C 0.42363 0.7073 0.96294 0.0
C525 C 0.42351 0.67636 0.96693 0.0
C526 C 0.41637 0.73911 0.95251 0.0
C527 C 0.4058 0.76372 0.94489 0.0
loop_
_geom_bond_atom_site_label_1
_geom_bond_atom_site_label_2
_geom_bond_distance
_geom_bond_site_symmetry_2
_ccdc_geom_bond_type
Mn0 O5 2.095 . S
Mn0 O15 2.162 . S
Mn0 O16 2.297 . S
Mn0 O24 2.385 . S
Mn0 O25 2.209 . S
Mn0 O26 2.094 . S
Mn1 O6 2.121 . S
Mn1 N8 2.257 . S
Mn1 N17 2.282 . S
Mn1 O25 2.215 . S
Mn1 O27 2.117 . S
C2 O24 1.234 . S
C2 O25 1.283 . S
C3 O15 1.281 . S
C3 O16 1.236 . S
C4 O26 1.240 . S
C4 O27 1.264 . S
O5 Mn0 2.095 . S
O5 C14 1.250 . S
O6 Mn1 2.121 . S
O6 C14 1.258 . S
C7 N8 1.326 . S
C7 C11 1.460 . S
C7 H13 0.929 . S
N8 Mn1 2.257 . S
N8 C7 1.326 . S
N8 C12 1.362 . S
C9 C10 1.258 . S
C9 C12 1.431 . S
C9 C29 1.449 . S
C10 C9 1.258 . S
C10 C11 1.477 . S
C10 H30 0.931 . S
C11 C7 1.460 . S
C11 C10 1.477 . S
C11 H31 0.930 . S
C12 N8 1.362 . S
C12 C9 1.431 . S
C12 C22 1.476 . S
H13 C7 0.929 . S
C14 O5 1.250 . S
C14 O6 1.258 . S
O15 Mn0 2.162 . S
O15 C3 1.281 . S
O16 Mn0 2.297 . S
O16 C3 1.236 . S
N17 Mn1 2.282 . S
N17 C18 1.328 . S
N17 C22 1.318 . S
C18 N17 1.328 . S
C18 C19 1.457 1_554 S
C18 H23 0.921 1_554 S
C19 C18 1.457 1_556 S
C19 C20 1.291 1_556 S
C19 H32 0.931 . S
C20 C19 1.291 1_554 S
C20 C21 1.373 . S
C20 H33 0.929 1_554 S
C21 C20 1.373 . S
C21 C22 1.396 . S
C21 C28 1.403 . S
C22 C12 1.476 . S
C22 N17 1.318 . S
C22 C21 1.396 . S
H23 C18 0.921 1_556 S
O24 Mn0 2.385 . S
O24 C2 1.234 . S
O25 Mn0 2.209 . S
O25 Mn1 2.215 . S
O25 C2 1.283 . S
O26 Mn0 2.094 . S
O26 C4 1.240 . S
O27 Mn1 2.117 . S
O27 C4 1.264 . S
C28 C21 1.403 . S
C28 C29 1.399 . S
C28 H34 0.929 . S
C29 C9 1.449 . S
C29 C28 1.399 . S
C29 H35 0.930 . S
H30 C10 0.931 . S
H31 C11 0.930 . S
H32 C19 0.931 . S
H33 C20 0.929 1_556 S
H34 C28 0.929 . S
H35 C29 0.930 . S
Mn36 O41 2.095 . S
Mn36 O51 2.162 . S
Mn36 O52 2.297 . S
Mn36 O60 2.385 . S
Mn36 O61 2.209 . S
Mn36 O62 2.094 . S
Mn37 O42 2.121 . S
Mn37 N44 2.257 . S
Mn37 N53 2.282 . S
Mn37 O61 2.215 . S
Mn37 O63 2.117 . S
C38 O60 1.234 . S
C38 O61 1.283 . S
C39 O51 1.281 . S
C39 O52 1.236 . S
C40 O62 1.240 . S
C40 O63 1.264 . S
O41 Mn36 2.095 . S
O41 C50 1.250 . S
O42 Mn37 2.121 . S
O42 C50 1.258 . S
C43 N44 1.326 . S
C43 C47 1.460 . S
C43 H49 0.929 . S
N44 Mn37 2.257 . S
N44 C43 1.326 . S
N44 C48 1.362 . S
C45 C46 1.258 . S
C45 C48 1.431 . S
C45 C65 1.449 . S
C46 C45 1.258 . S
C46 C47 1.477 . S
C46 H66 0.931 . S
C47 C43 1.460 . S
C47 C46 1.477 . S
C47 H67 0.930 . S
C48 N44 1.362 . S
C48 C45 1.431 . S
C48 C58 1.476 . S
H49 C43 0.929 . S
C50 O41 1.250 . S
C50 O42 1.258 . S
O51 Mn36 2.162 . S
O51 C39 1.281 . S
O52 Mn36 2.297 . S
O52 C39 1.236 . S
N53 Mn37 2.282 . S
N53 C54 1.328 . S
N53 C58 1.318 . S
C54 N53 1.328 . S
C54 C55 1.457 . S
C54 H59 0.929 . S
C55 C54 1.457 . S
C55 C56 1.291 . S
C55 H68 0.931 . S
C56 C55 1.291 . S
C56 C57 1.373 . S
C56 H69 0.929 . S
C57 C56 1.373 . S
C57 C58 1.396 . S
C57 C64 1.403 . S
C58 C48 1.476 . S
C58 N53 1.318 . S
C58 C57 1.396 . S
H59 C54 0.929 . S
O60 Mn36 2.385 . S
O60 C38 1.234 . S
O61 Mn36 2.209 . S
O61 Mn37 2.215 . S
O61 C38 1.283 . S
O62 Mn36 2.094 . S
O62 C40 1.240 . S
O63 Mn37 2.117 . S
O63 C40 1.264 . S
C64 C57 1.403 . S
C64 C65 1.399 . S
C64 H70 0.929 . S
C65 C45 1.449 . S
C65 C64 1.399 . S
C65 H71 0.930 . S
H66 C46 0.931 . S
H67 C47 0.930 . S
H68 C55 0.931 . S
H69 C56 0.929 . S
H70 C64 0.929 . S
H71 C65 0.930 . S
Mn72 O77 2.095 . S
Mn72 O87 2.162 . S
Mn72 O88 2.297 . S
Mn72 O96 2.385 1_554 S
Mn72 O97 2.209 . S
Mn72 O98 2.094 . S
Mn73 O78 2.121 . S
Mn73 N80 2.257 . S
Mn73 N89 2.282 . S
Mn73 O97 2.215 . S
Mn73 O99 2.117 . S
C74 O96 1.234 1_554 S
C74 O97 1.283 . S
C75 O87 1.281 . S
C75 O88 1.236 . S
C76 O98 1.240 . S
C76 O99 1.264 . S
O77 Mn72 2.095 . S
O77 C86 1.250 . S
O78 Mn73 2.121 . S
O78 C86 1.258 . S
C79 N80 1.326 . S
C79 C83 1.460 . S
C79 H85 0.929 . S
N80 Mn73 2.257 . S
N80 C79 1.326 . S
N80 C84 1.362 . S
C81 C82 1.258 . S
C81 C84 1.431 . S
C81 C101 1.449 . S
C82 C81 1.258 . S
C82 C83 1.477 . S
C82 H102 0.931 . S
C83 C79 1.460 . S
C83 C82 1.477 . S
C83 H103 0.930 . S
C84 N80 1.362 . S
C84 C81 1.431 . S
C84 C94 1.476 . S
H85 C79 0.929 . S
C86 O77 1.250 . S
C86 O78 1.258 . S
O87 Mn72 2.162 . S
O87 C75 1.281 . S
O88 Mn72 2.297 . S
O88 C75 1.236 . S
N89 Mn73 2.282 . S
N89 C90 1.328 1_554 S
N89 C94 1.318 . S
C90 N89 1.328 1_556 S
C90 C91 1.457 . S
C90 H95 0.929 . S
C91 C90 1.457 . S
C91 C92 1.291 . S
C91 H104 0.931 . S
C92 C91 1.291 . S
C92 C93 1.373 1_556 S
C92 H105 0.929 . S
C93 C92 1.373 1_554 S
C93 C94 1.396 . S
C93 C100 1.403 . S
C94 C84 1.476 . S
C94 N89 1.318 . S
C94 C93 1.396 . S
H95 C90 0.929 . S
O96 Mn72 2.385 1_556 S
O96 C74 1.234 1_556 S
O97 Mn72 2.209 . S
O97 Mn73 2.215 . S
O97 C74 1.283 . S
O98 Mn72 2.094 . S
O98 C76 1.240 . S
O99 Mn73 2.117 . S
O99 C76 1.264 . S
C100 C93 1.403 . S
C100 C101 1.399 . S
C100 H106 0.929 . S
C101 C81 1.449 . S
C101 C100 1.399 . S
C101 H107 0.930 . S
H102 C82 0.931 . S
H103 C83 0.930 . S
H104 C91 0.931 . S
H105 C92 0.929 . S
H106 C100 0.929 . S
H107 C101 0.930 . S
Mn108 O113 2.095 . S
Mn108 O123 2.162 . S
Mn108 O124 2.297 . S
Mn108 O132 2.385 . S
Mn108 O133 2.209 . S
Mn108 O134 2.094 . S
Mn109 O114 2.121 . S
Mn109 N116 2.257 . S
Mn109 N125 2.282 . S
Mn109 O133 2.215 . S
Mn109 O135 2.117 . S
C110 O132 1.234 . S
C110 O133 1.283 . S
C111 O123 1.281 . S
C111 O124 1.236 . S
C112 O134 1.240 . S
C112 O135 1.264 . S
O113 Mn108 2.095 . S
O113 C122 1.250 . S
O114 Mn109 2.121 . S
O114 C122 1.258 . S
C115 N116 1.326 . S
C115 C119 1.460 . S
C115 H121 0.929 . S
N116 Mn109 2.257 . S
N116 C115 1.326 . S
N116 C120 1.362 . S
C117 C118 1.258 . S
C117 C120 1.431 . S
C117 C137 1.449 . S
C118 C117 1.258 . S
C118 C119 1.477 . S
C118 H138 0.931 . S
C119 C115 1.460 . S
C119 C118 1.477 . S
C119 H139 0.930 . S
C120 N116 1.362 . S
C120 C117 1.431 . S
C120 C130 1.476 . S
H121 C115 0.929 . S
C122 O113 1.250 . S
C122 O114 1.258 . S
O123 Mn108 2.162 . S
O123 C111 1.281 . S
O124 Mn108 2.297 . S
O124 C111 1.236 . S
N125 Mn109 2.282 . S
N125 C126 1.328 . S
N125 C130 1.318 . S
C126 N125 1.328 . S
C126 C127 1.457 . S
C126 H131 0.929 . S
C127 C126 1.457 . S
C127 C128 1.291 . S
C127 H140 0.931 . S
C128 C127 1.291 . S
C128 C129 1.373 . S
C128 H141 0.929 . S
C129 C128 1.373 . S
C129 C130 1.396 . S
C129 C136 1.403 . S
C130 C120 1.476 . S
C130 N125 1.318 . S
C130 C129 1.396 . S
H131 C126 0.929 . S
O132 Mn108 2.385 . S
O132 C110 1.234 . S
O133 Mn108 2.209 . S
O133 Mn109 2.215 . S
O133 C110 1.283 . S
O134 Mn108 2.094 . S
O134 C112 1.240 . S
O135 Mn109 2.117 . S
O135 C112 1.264 . S
C136 C129 1.403 . S
C136 C137 1.399 . S
C136 H142 0.929 . S
C137 C117 1.449 . S
C137 C136 1.399 . S
C137 H143 0.930 . S
H138 C118 0.931 . S
H139 C119 0.930 . S
H140 C127 0.931 . S
H141 C128 0.929 . S
H142 C136 0.929 . S
H143 C137 0.930 . S
Mn144 O149 2.095 . S
Mn144 O159 2.162 . S
Mn144 O160 2.297 . S
Mn144 O168 2.385 . S
Mn144 O169 2.209 . S
Mn144 O170 2.094 . S
Mn145 O150 2.121 . S
Mn145 N152 2.257 . S
Mn145 N161 2.282 . S
Mn145 O169 2.215 . S
Mn145 O171 2.117 . S
C146 O168 1.234 . S
C146 O169 1.283 . S
C147 O159 1.281 . S
C147 O160 1.236 . S
C148 O170 1.240 . S
C148 O171 1.264 . S
O149 Mn144 2.095 . S
O149 C158 1.250 . S
O150 Mn145 2.121 . S
O150 C158 1.258 . S
C151 N152 1.326 . S
C151 C155 1.460 . S
C151 H157 0.929 . S
N152 Mn145 2.257 . S
N152 C151 1.326 . S
N152 C156 1.362 . S
C153 C154 1.258 . S
C153 C156 1.431 . S
C153 C173 1.449 . S
C154 C153 1.258 . S
C154 C155 1.477 . S
C154 H174 0.931 . S
C155 C151 1.460 . S
C155 C154 1.477 . S
C155 H175 0.930 . S
C156 N152 1.362 . S
C156 C153 1.431 . S
C156 C166 1.476 . S
H157 C151 0.929 . S
C158 O149 1.250 . S
C158 O150 1.258 . S
O159 Mn144 2.162 . S
O159 C147 1.281 . S
O160 Mn144 2.297 . S
O160 C147 1.236 . S
N161 Mn145 2.282 . S
N161 C162 1.340 . S
N161 C166 1.318 . S
C162 N161 1.340 . S
C162 C163 1.449 1_554 S
C162 H167 0.925 1_554 S
C163 C162 1.449 1_556 S
C163 C164 1.291 . S
C163 H176 0.931 . S
C164 C163 1.291 . S
C164 C165 1.373 1_556 S
C164 H177 0.929 . S
C165 C164 1.373 1_554 S
C165 C166 1.396 . S
C165 C172 1.403 . S
C166 C156 1.476 . S
C166 N161 1.318 . S
C166 C165 1.396 . S
H167 C162 0.925 1_556 S
O168 Mn144 2.385 . S
O168 C146 1.234 . S
O169 Mn144 2.209 . S
O169 Mn145 2.215 . S
O169 C146 1.283 . S
O170 Mn144 2.094 . S
O170 C148 1.240 . S
O171 Mn145 2.117 . S
O171 C148 1.264 . S
C172 C165 1.403 . S
C172 C173 1.399 . S
C172 H178 0.929 . S
C173 C153 1.449 . S
C173 C172 1.399 . S
C173 H179 0.930 . S
H174 C154 0.931 . S
H175 C155 0.930 . S
H176 C163 0.931 . S
H177 C164 0.929 . S
H178 C172 0.929 . S
H179 C173 0.930 . S
Mn180 O185 2.095 . S
Mn180 O195 2.162 . S
Mn180 O196 2.297 . S
Mn180 O204 2.385 . S
Mn180 O205 2.209 . S
Mn180 O206 2.094 . S
Mn181 O186 2.121 . S
Mn181 N188 2.257 . S
Mn181 N197 2.282 . S
Mn181 O205 2.215 . S
Mn181 O207 2.117 . S
C182 O204 1.234 . S
C182 O205 1.283 . S
C183 O195 1.281 . S
C183 O196 1.236 . S
C184 O206 1.240 . S
C184 O207 1.264 . S
O185 Mn180 2.095 . S
O185 C194 1.250 . S
O186 Mn181 2.121 . S
O186 C194 1.258 . S
C187 N188 1.326 . S
C187 C191 1.460 . S
C187 H193 0.929 . S
N188 Mn181 2.257 . S
N188 C187 1.326 . S
N188 C192 1.362 . S
C189 C190 1.258 . S
C189 C192 1.431 . S
C189 C209 1.449 . S
C190 C189 1.258 . S
C190 C191 1.477 . S
C190 H210 0.931 . S
C191 C187 1.460 . S
C191 C190 1.477 . S
C191 H211 0.930 . S
C192 N188 1.362 . S
C192 C189 1.431 . S
C192 C202 1.476 . S
H193 C187 0.929 . S
C194 O185 1.250 . S
C194 O186 1.258 . S
O195 Mn180 2.162 . S
O195 C183 1.281 . S
O196 Mn180 2.297 . S
O196 C183 1.236 . S
N197 Mn181 2.282 . S
N197 C198 1.328 . S
N197 C202 1.318 . S
C198 N197 1.328 . S
C198 C199 1.457 . S
C198 H203 0.929 . S
C199 C198 1.457 . S
C199 C200 1.291 . S
C199 H212 0.931 . S
C200 C199 1.291 . S
C200 C201 1.373 . S
C200 H213 0.929 . S
C201 C200 1.373 . S
C201 C202 1.396 . S
C201 C208 1.403 . S
C202 C192 1.476 . S
C202 N197 1.318 . S
C202 C201 1.396 . S
H203 C198 0.929 . S
O204 Mn180 2.385 . S
O204 C182 1.234 . S
O205 Mn180 2.209 . S
O205 Mn181 2.215 . S
O205 C182 1.283 . S
O206 Mn180 2.094 . S
O206 C184 1.240 . S
O207 Mn181 2.117 . S
O207 C184 1.264 . S
C208 C201 1.403 . S
C208 C209 1.399 . S
C208 H214 0.929 . S
C209 C189 1.449 . S
C209 C208 1.399 . S
C209 H215 0.930 . S
H210 C190 0.931 . S
H211 C191 0.930 . S
H212 C199 0.931 . S
H213 C200 0.929 . S
H214 C208 0.929 . S
H215 C209 0.930 . S
Mn216 O221 2.095 . S
Mn216 O231 2.162 . S
Mn216 O232 2.297 . S
Mn216 O240 2.385 . S
Mn216 O241 2.209 . S
Mn216 O242 2.094 . S
Mn217 O222 2.121 . S
Mn217 N224 2.257 . S
Mn217 N233 2.282 . S
Mn217 O241 2.215 . S
Mn217 O243 2.117 . S
C218 O240 1.234 . S
C218 O241 1.283 . S
C219 O231 1.281 . S
C219 O232 1.236 . S
C220 O242 1.240 . S
C220 O243 1.264 . S
O221 Mn216 2.095 . S
O221 C230 1.250 . S
O222 Mn217 2.121 . S
O222 C230 1.258 . S
C223 N224 1.326 . S
C223 C227 1.460 . S
C223 H229 0.929 . S
N224 Mn217 2.257 . S
N224 C223 1.326 . S
N224 C228 1.362 . S
C225 C226 1.258 . S
C225 C228 1.431 . S
C225 C245 1.449 . S
C226 C225 1.258 . S
C226 C227 1.477 . S
C226 H246 0.931 . S
C227 C223 1.460 . S
C227 C226 1.477 . S
C227 H247 0.930 . S
C228 N224 1.362 . S
C228 C225 1.431 . S
C228 C238 1.476 . S
H229 C223 0.929 . S
C230 O221 1.250 . S
C230 O222 1.258 . S
O231 Mn216 2.162 . S
O231 C219 1.281 . S
O232 Mn216 2.297 . S
O232 C219 1.236 . S
N233 Mn217 2.282 . S
N233 C234 1.328 . S
N233 C238 1.318 . S
C234 N233 1.328 . S
C234 C235 1.457 . S
C234 H239 0.929 . S
C235 C234 1.457 . S
C235 C236 1.291 . S
C235 H248 0.931 . S
C236 C235 1.291 . S
C236 C237 1.373 . S
C236 H249 0.929 . S
C237 C236 1.373 . S
C237 C238 1.396 . S
C237 C244 1.403 . S
C238 C228 1.476 . S
C238 N233 1.318 . S
C238 C237 1.396 . S
H239 C234 0.929 . S
O240 Mn216 2.385 . S
O240 C218 1.234 . S
O241 Mn216 2.209 . S
O241 Mn217 2.215 . S
O241 C218 1.283 . S
O242 Mn216 2.094 . S
O242 C220 1.240 . S
O243 Mn217 2.117 . S
O243 C220 1.264 . S
C244 C237 1.403 . S
C244 C245 1.399 . S
C244 H250 0.929 . S
C245 C225 1.449 . S
C245 C244 1.399 . S
C245 H251 0.930 . S
H246 C226 0.931 . S
H247 C227 0.930 . S
H248 C235 0.931 . S
H249 C236 0.929 . S
H250 C244 0.929 . S
H251 C245 0.930 . S
Mn252 O257 2.095 . S
Mn252 O267 2.162 . S
Mn252 O268 2.297 . S
Mn252 O276 2.385 1_556 S
Mn252 O277 2.209 . S
Mn252 O278 2.094 . S
Mn253 O258 2.121 . S
Mn253 N260 2.257 . S
Mn253 N269 2.282 . S
Mn253 O277 2.215 . S
Mn253 O279 2.117 . S
C254 O276 1.234 1_556 S
C254 O277 1.283 . S
C255 O267 1.281 . S
C255 O268 1.236 . S
C256 O278 1.240 . S
C256 O279 1.264 . S
O257 Mn252 2.095 . S
O257 C266 1.250 . S
O258 Mn253 2.121 . S
O258 C266 1.258 . S
C259 N260 1.326 . S
C259 C263 1.460 . S
C259 H265 0.929 . S
N260 Mn253 2.257 . S
N260 C259 1.326 . S
N260 C264 1.362 . S
C261 C262 1.258 . S
C261 C264 1.431 . S
C261 C281 1.449 . S
C262 C261 1.258 . S
C262 C263 1.477 . S
C262 H282 0.931 . S
C263 C259 1.460 . S
C263 C262 1.477 . S
C263 H283 0.930 . S
C264 N260 1.362 . S
C264 C261 1.431 . S
C264 C274 1.476 . S
H265 C259 0.929 . S
C266 O257 1.250 . S
C266 O258 1.258 . S
O267 Mn252 2.162 . S
O267 C255 1.281 . S
O268 Mn252 2.297 . S
O268 C255 1.236 . S
N269 Mn253 2.282 . S
N269 C270 1.328 1_556 S
N269 C274 1.318 . S
C270 N269 1.328 1_554 S
C270 C271 1.457 . S
C270 H275 0.929 . S
C271 C270 1.457 . S
C271 C272 1.291 . S
C271 H284 0.931 . S
C272 C271 1.291 . S
C272 C273 1.373 1_554 S
C272 H285 0.929 . S
C273 C272 1.373 1_556 S
C273 C274 1.396 . S
C273 C280 1.403 . S
C274 C264 1.476 . S
C274 N269 1.318 . S
C274 C273 1.396 . S
H275 C270 0.929 . S
O276 Mn252 2.385 1_554 S
O276 C254 1.234 1_554 S
O277 Mn252 2.209 . S
O277 Mn253 2.215 . S
O277 C254 1.283 . S
O278 Mn252 2.094 . S
O278 C256 1.240 . S
O279 Mn253 2.117 . S
O279 C256 1.264 . S
C280 C273 1.403 . S
C280 C281 1.399 . S
C280 H286 0.929 . S
C281 C261 1.449 . S
C281 C280 1.399 . S
C281 H287 0.930 . S
H282 C262 0.931 . S
H283 C263 0.930 . S
H284 C271 0.931 . S
H285 C272 0.929 . S
H286 C280 0.929 . S
H287 C281 0.930 . S
Mn288 O293 2.095 . S
Mn288 O303 2.162 . S
Mn288 O304 2.297 . S
Mn288 O312 2.385 . S
Mn288 O313 2.209 . S
Mn288 O314 2.094 . S
Mn289 O294 2.121 . S
Mn289 N296 2.257 . S
Mn289 N305 2.282 . S
Mn289 O313 2.215 . S
Mn289 O315 2.117 . S
C290 O312 1.234 . S
C290 O313 1.283 . S
C291 O303 1.281 . S
C291 O304 1.236 . S
C292 O314 1.240 . S
C292 O315 1.264 . S
O293 Mn288 2.095 . S
O293 C302 1.250 . S
O294 Mn289 2.121 . S
O294 C302 1.258 . S
C295 N296 1.326 . S
C295 C299 1.460 . S
C295 H301 0.929 . S
N296 Mn289 2.257 . S
N296 C295 1.326 . S
N296 C300 1.362 . S
C297 C298 1.258 . S
C297 C300 1.431 . S
C297 C317 1.449 . S
C298 C297 1.258 . S
C298 C299 1.477 . S
C298 H318 0.931 . S
C299 C295 1.460 . S
C299 C298 1.477 . S
C299 H319 0.930 . S
C300 N296 1.362 . S
C300 C297 1.431 . S
C300 C310 1.476 . S
H301 C295 0.929 . S
C302 O293 1.250 . S
C302 O294 1.258 . S
O303 Mn288 2.162 . S
O303 C291 1.281 . S
O304 Mn288 2.297 . S
O304 C291 1.236 . S
N305 Mn289 2.282 . S
N305 C306 1.328 . S
N305 C310 1.318 . S
C306 N305 1.328 . S
C306 C307 1.457 . S
C306 H311 0.929 . S
C307 C306 1.457 . S
C307 C308 1.291 . S
C307 H320 0.931 . S
C308 C307 1.291 . S
C308 C309 1.373 . S
C308 H321 0.929 . S
C309 C308 1.373 . S
C309 C310 1.396 . S
C309 C316 1.403 . S
C310 C300 1.476 . S
C310 N305 1.318 . S
C310 C309 1.396 . S
H311 C306 0.929 . S
O312 Mn288 2.385 . S
O312 C290 1.234 . S
O313 Mn288 2.209 . S
O313 Mn289 2.215 . S
O313 C290 1.283 . S
O314 Mn288 2.094 . S
O314 C292 1.240 . S
O315 Mn289 2.117 . S
O315 C292 1.264 . S
C316 C309 1.403 . S
C316 C317 1.399 . S
C316 H322 0.929 . S
C317 C297 1.449 . S
C317 C316 1.399 . S
C317 H323 0.930 . S
H318 C298 0.931 . S
H319 C299 0.930 . S
H320 C307 0.931 . S
H321 C308 0.929 . S
H322 C316 0.929 . S
H323 C317 0.930 . S
Mn324 O329 2.095 . S
Mn324 O339 2.162 . S
Mn324 O340 2.297 . S
Mn324 O348 2.385 . S
Mn324 O349 2.209 . S
Mn324 O350 2.094 . S
Mn325 O330 2.121 . S
Mn325 N332 2.257 . S
Mn325 N341 2.282 . S
Mn325 O349 2.215 . S
Mn325 O351 2.117 . S
C326 O348 1.234 . S
C326 O349 1.283 . S
C327 O339 1.281 . S
C327 O340 1.236 . S
C328 O350 1.240 . S
C328 O351 1.264 . S
O329 Mn324 2.095 . S
O329 C338 1.250 . S
O330 Mn325 2.121 . S
O330 C338 1.258 . S
C331 N332 1.326 . S
C331 C335 1.460 . S
C331 H337 0.929 . S
N332 Mn325 2.257 . S
N332 C331 1.326 . S
N332 C336 1.362 . S
C333 C334 1.258 . S
C333 C336 1.431 . S
C333 C353 1.449 . S
C334 C333 1.258 . S
C334 C335 1.477 . S
C334 H354 0.931 . S
C335 C331 1.460 . S
C335 C334 1.477 . S
C335 H355 0.930 . S
C336 N332 1.362 . S
C336 C333 1.431 . S
C336 C346 1.476 . S
H337 C331 0.929 . S
C338 O329 1.250 . S
C338 O330 1.258 . S
O339 Mn324 2.162 . S
O339 C327 1.281 . S
O340 Mn324 2.297 . S
O340 C327 1.236 . S
N341 Mn325 2.282 . S
N341 C342 1.328 . S
N341 C346 1.318 . S
C342 N341 1.328 . S
C342 C343 1.457 1_556 S
C342 H347 0.921 1_556 S
C343 C342 1.457 1_554 S
C343 C344 1.291 1_554 S
C343 H356 0.931 . S
C344 C343 1.291 1_556 S
C344 C345 1.373 . S
C344 H357 0.929 1_556 S
C345 C344 1.373 . S
C345 C346 1.396 . S
C345 C352 1.403 . S
C346 C336 1.476 . S
C346 N341 1.318 . S
C346 C345 1.396 . S
H347 C342 0.921 1_554 S
O348 Mn324 2.385 . S
O348 C326 1.234 . S
O349 Mn324 2.209 . S
O349 Mn325 2.215 . S
O349 C326 1.283 . S
O350 Mn324 2.094 . S
O350 C328 1.240 . S
O351 Mn325 2.117 . S
O351 C328 1.264 . S
C352 C345 1.403 . S
C352 C353 1.399 . S
C352 H358 0.929 . S
C353 C333 1.449 . S
C353 C352 1.399 . S
C353 H359 0.930 . S
H354 C334 0.931 . S
H355 C335 0.930 . S
H356 C343 0.931 . S
H357 C344 0.929 1_554 S
H358 C352 0.929 . S
H359 C353 0.930 . S
Mn360 O365 2.095 . S
Mn360 O375 2.162 . S
Mn360 O376 2.297 . S
Mn360 O384 2.385 . S
Mn360 O385 2.209 . S
Mn360 O386 2.094 . S
Mn361 O366 2.121 . S
Mn361 N368 2.257 . S
Mn361 N377 2.282 . S
Mn361 O385 2.215 . S
Mn361 O387 2.117 . S
C362 O384 1.234 . S
C362 O385 1.283 . S
C363 O375 1.281 . S
C363 O376 1.236 . S
C364 O386 1.240 . S
C364 O387 1.264 . S
O365 Mn360 2.095 . S
O365 C374 1.250 . S
O366 Mn361 2.121 . S
O366 C374 1.258 . S
C367 N368 1.326 . S
C367 C371 1.460 . S
C367 H373 0.929 . S
N368 Mn361 2.257 . S
N368 C367 1.326 . S
N368 C372 1.362 . S
C369 C370 1.258 . S
C369 C372 1.431 . S
C369 C389 1.449 . S
C370 C369 1.258 . S
C370 C371 1.477 . S
C370 H390 0.931 . S
C371 C367 1.460 . S
C371 C370 1.477 . S
C371 H391 0.930 . S
C372 N368 1.362 . S
C372 C369 1.431 . S
C372 C382 1.476 . S
H373 C367 0.929 . S
C374 O365 1.250 . S
C374 O366 1.258 . S
O375 Mn360 2.162 . S
O375 C363 1.281 . S
O376 Mn360 2.297 . S
O376 C363 1.236 . S
N377 Mn361 2.282 . S
N377 C378 1.328 . S
N377 C382 1.318 . S
C378 N377 1.328 . S
C378 C379 1.457 . S
C378 H383 0.929 . S
C379 C378 1.457 . S
C379 C380 1.291 . S
C379 H392 0.931 . S
C380 C379 1.291 . S
C380 C381 1.373 . S
C380 H393 0.929 . S
C381 C380 1.373 . S
C381 C382 1.396 . S
C381 C388 1.403 . S
C382 C372 1.476 . S
C382 N377 1.318 . S
C382 C381 1.396 . S
H383 C378 0.929 . S
O384 Mn360 2.385 . S
O384 C362 1.234 . S
O385 Mn360 2.209 . S
O385 Mn361 2.215 . S
O385 C362 1.283 . S
O386 Mn360 2.094 . S
O386 C364 1.240 . S
O387 Mn361 2.117 . S
O387 C364 1.264 . S
C388 C381 1.403 . S
C388 C389 1.399 . S
C388 H394 0.929 . S
C389 C369 1.449 . S
C389 C388 1.399 . S
C389 H395 0.930 . S
H390 C370 0.931 . S
H391 C371 0.930 . S
H392 C379 0.931 . S
H393 C380 0.929 . S
H394 C388 0.929 . S
H395 C389 0.930 . S
Mn396 O401 2.095 . S
Mn396 O411 2.162 . S
Mn396 O412 2.297 . S
Mn396 O420 2.385 . S
Mn396 O421 2.209 . S
Mn396 O422 2.094 . S
Mn397 O402 2.121 . S
Mn397 N404 2.257 . S
Mn397 N413 2.282 . S
Mn397 O421 2.215 . S
Mn397 O423 2.117 . S
C398 O420 1.234 . S
C398 O421 1.283 . S
C399 O411 1.281 . S
C399 O412 1.236 . S
C400 O422 1.240 . S
C400 O423 1.264 . S
O401 Mn396 2.095 . S
O401 C410 1.250 . S
O402 Mn397 2.121 . S
O402 C410 1.258 . S
C403 N404 1.326 . S
C403 C407 1.460 . S
C403 H409 0.929 . S
N404 Mn397 2.257 . S
N404 C403 1.326 . S
N404 C408 1.362 . S
C405 C406 1.258 . S
C405 C408 1.431 . S
C405 C425 1.449 . S
C406 C405 1.258 . S
C406 C407 1.477 . S
C406 H426 0.931 . S
C407 C403 1.460 . S
C407 C406 1.477 . S
C407 H427 0.930 . S
C408 N404 1.362 . S
C408 C405 1.431 . S
C408 C418 1.476 . S
H409 C403 0.929 . S
C410 O401 1.250 . S
C410 O402 1.258 . S
O411 Mn396 2.162 . S
O411 C399 1.281 . S
O412 Mn396 2.297 . S
O412 C399 1.236 . S
N413 Mn397 2.282 . S
N413 C414 1.340 . S
N413 C418 1.318 . S
C414 N413 1.340 . S
C414 C415 1.449 1_556 S
C414 H419 0.925 1_556 S
C415 C414 1.449 1_554 S
C415 C416 1.291 . S
C415 H428 0.931 . S
C416 C415 1.291 . S
C416 C417 1.373 1_554 S
C416 H429 0.929 . S
C417 C416 1.373 1_556 S
C417 C418 1.396 . S
C417 C424 1.403 . S
C418 C408 1.476 . S
C418 N413 1.318 . S
C418 C417 1.396 . S
H419 C414 0.925 1_554 S
O420 Mn396 2.385 . S
O420 C398 1.234 . S
O421 Mn396 2.209 . S
O421 Mn397 2.215 . S
O421 C398 1.283 . S
O422 Mn396 2.094 . S
O422 C400 1.240 . S
O423 Mn397 2.117 . S
O423 C400 1.264 . S
C424 C417 1.403 . S
C424 C425 1.399 . S
C424 H430 0.929 . S
C425 C405 1.449 . S
C425 C424 1.399 . S
C425 H431 0.930 . S
H426 C406 0.931 . S
H427 C407 0.930 . S
H428 C415 0.931 . S
H429 C416 0.929 . S
H430 C424 0.929 . S
H431 C425 0.930 . S
C432 C433 1.170 . S
C432 C434 1.380 . S
C433 C432 1.170 . S
C434 C432 1.380 . S
C434 C435 1.170 . S
C435 C434 1.170 . S
C436 C437 1.170 . S
C436 C438 1.380 . S
C437 C436 1.170 . S
C438 C436 1.380 . S
C438 C439 1.170 . S
C439 C438 1.170 . S
C440 C441 1.170 . S
C440 C442 1.380 . S
C441 C440 1.170 . S
C442 C440 1.380 . S
C442 C443 1.170 . S
C443 C442 1.170 . S
C444 C445 1.170 . S
C444 C446 1.380 . S
C445 C444 1.170 . S
C446 C444 1.380 . S
C446 C447 1.170 . S
C447 C446 1.170 . S
C448 C449 1.170 . S
C448 C450 1.380 . S
C449 C448 1.170 . S
C450 C448 1.380 . S
C450 C451 1.170 . S
C451 C450 1.170 . S
C452 C453 1.170 . S
C452 C454 1.380 . S
C453 C452 1.170 . S
C454 C452 1.380 . S
C454 C455 1.170 . S
C455 C454 1.170 . S
C456 C457 1.170 . S
C456 C458 1.380 1_544 S
C457 C456 1.170 . S
C458 C456 1.380 1_566 S
C458 C459 1.170 . S
C459 C458 1.170 . S
C460 C461 1.170 . S
C460 C462 1.380 . S
C461 C460 1.170 . S
C462 C460 1.380 . S
C462 C463 1.170 . S
C463 C462 1.170 . S
C464 C465 1.170 . S
C464 C466 1.380 1_456 S
C465 C464 1.170 . S
C466 C464 1.380 1_654 S
C466 C467 1.170 . S
C467 C466 1.170 . S
C468 C469 1.170 . S
C468 C470 1.380 1_545 S
C469 C468 1.170 . S
C470 C468 1.380 1_565 S
C470 C471 1.170 . S
C471 C470 1.170 . S
C472 C473 1.170 . S
C472 C474 1.377 1_556 S
C473 C472 1.170 . S
C474 C472 1.377 1_554 S
C474 C475 1.175 . S
C475 C474 1.175 . S
C476 C477 1.170 . S
C476 C478 1.380 1_655 S
C477 C476 1.170 . S
C478 C476 1.380 1_455 S
C478 C479 1.170 . S
C479 C478 1.170 . S
C480 C481 1.170 . S
C480 C482 1.380 . S
C481 C480 1.170 . S
C482 C480 1.380 . S
C482 C483 1.170 . S
C483 C482 1.170 . S
C484 C485 1.170 . S
C484 C486 1.380 . S
C485 C484 1.170 . S
C486 C484 1.380 . S
C486 C487 1.170 . S
C487 C486 1.170 . S
C488 C489 1.170 . S
C488 C490 1.380 . S
C489 C488 1.170 . S
C490 C488 1.380 . S
C490 C491 1.170 . S
C491 C490 1.170 . S
C492 C493 1.170 . S
C492 C494 1.380 . S
C493 C492 1.170 . S
C494 C492 1.380 . S
C494 C495 1.170 . S
C495 C494 1.170 . S
C496 C497 1.170 . S
C496 C498 1.380 . S
C497 C496 1.170 . S
C498 C496 1.380 . S
C498 C499 1.170 . S
C499 C498 1.170 . S
C500 C501 1.170 . S
C500 C502 1.380 . S
C501 C500 1.170 . S
C502 C500 1.380 . S
C502 C503 1.170 . S
C503 C502 1.170 . S
C504 C505 1.170 . S
C504 C506 1.380 . S
C505 C504 1.170 . S
C506 C504 1.380 . S
C506 C507 1.170 . S
C507 C506 1.170 . S
C508 C509 1.170 . S
C508 C510 1.380 . S
C509 C508 1.170 . S
C510 C508 1.380 . S
C510 C511 1.170 . S
C511 C510 1.170 . S
C512 C513 1.170 . S
C512 C514 1.380 . S
C513 C512 1.170 . S
C514 C512 1.380 . S
C514 C515 1.170 . S
C515 C514 1.170 . S
C516 C517 1.170 . S
C516 C518 1.380 . S
C517 C516 1.170 . S
C518 C516 1.380 . S
C518 C519 1.170 . S
C519 C518 1.170 . S
C520 C521 1.170 . S
C520 C522 1.380 . S
C521 C520 1.170 . S
C522 C520 1.380 . S
C522 C523 1.170 . S
C523 C522 1.170 . S
C524 C525 1.170 . S
C524 C526 1.380 . S
C525 C524 1.170 . S
C526 C524 1.380 . S
C526 C527 1.170 . S
C527 C526 1.170 . S
C433 C374 1.570 . S
C435 C14 1.555 . S
C437 C50 1.435 . S
C439 C410 1.480 . S
C441 C86 1.581 . S
C443 C230 1.542 . S
C445 C266 1.557 . S
C447 C122 1.556 . S
C449 C302 1.477 . S
C451 C158 1.448 . S
C453 C194 1.581 . S
C455 C338 1.542 . S
C457 C4 1.166 . S
C459 C256 1.138 . S
C461 C40 0.962 . S
C463 C292 0.935 . S
C465 C328 1.151 . S
C467 C76 1.163 . S
C469 C364 1.180 . S
C471 C112 1.124 . S
C473 C400 0.929 . S
C475 C148 0.967 . S
C477 C220 1.123 . S
C479 C184 1.180 . S
C481 C2 1.056 . S
C483 C147 1.058 . S
C485 C38 1.122 . S
C487 C183 1.167 . S
C489 C74 1.095 . S
C491 C3 1.138 . S
C493 C110 1.052 . S
C495 C39 1.080 . S
C497 C146 1.081 . S
C499 C75 1.174 . S
C501 C182 1.076 . S
C503 C111 1.149 . S
C505 C218 1.081 . S
C507 C291 1.087 . S
C509 C254 1.077 . S
C511 C327 1.150 . S
C513 C363 1.170 . S
C515 C290 1.139 . S
C517 C326 1.088 . S
C519 C399 1.074 . S
C521 C362 1.111 . S
C523 C219 1.168 . S
C525 C398 1.104 . S
C527 C255 1.169 . S
