# Generated by pormake.
# Topology uni, (4)-cn, num edge types: 1
# Building blocks:
#     Node 0, Type 0, BuildingBlock: UXUYUI_clean_sbu_0, # of connection points: 4
#     Node 1, Type 0, BuildingBlock: UXUYUI_clean_sbu_0, # of connection points: 4
#     Node 2, Type 0, BuildingBlock: UXUYUI_clean_sbu_0, # of connection points: 4
#     Node 3, Type 0, BuildingBlock: UXUYUI_clean_sbu_0, # of connection points: 4
#     Node 4, Type 0, BuildingBlock: UXUYUI_clean_sbu_0, # of connection points: 4
#     Node 5, Type 0, BuildingBlock: UXUYUI_clean_sbu_0, # of connection points: 4
#     Edge 6, Type (0, 0), BuildingBlock: CIFDUS_clean_linker_0, # of connection points: 2
#     Edge 7, Type (0, 0), BuildingBlock: CIFDUS_clean_linker_0, # of connection points: 2
#     Edge 8, Type (0, 0), BuildingBlock: CIFDUS_clean_linker_0, # of connection points: 2
#     Edge 9, Type (0, 0), BuildingBlock: CIFDUS_clean_linker_0, # of connection points: 2
#     Edge 10, Type (0, 0), BuildingBlock: CIFDUS_clean_linker_0, # of connection points: 2
#     Edge 11, Type (0, 0), BuildingBlock: CIFDUS_clean_linker_0, # of connection points: 2
#     Edge 12, Type (0, 0), BuildingBlock: CIFDUS_clean_linker_0, # of connection points: 2
#     Edge 13, Type (0, 0), BuildingBlock: CIFDUS_clean_linker_0, # of connection points: 2
#     Edge 14, Type (0, 0), BuildingBlock: CIFDUS_clean_linker_0, # of connection points: 2
#     Edge 15, Type (0, 0), BuildingBlock: CIFDUS_clean_linker_0, # of connection points: 2
#     Edge 16, Type (0, 0), BuildingBlock: CIFDUS_clean_linker_0, # of connection points: 2
#     Edge 17, Type (0, 0), BuildingBlock: CIFDUS_clean_linker_0, # of connection points: 2
# Relax obj value: 0.104
# Max RMSD: 0.125
# Mean RMSD: 0.125
data_MOF--net-uni--node1-UXUYUI_clean_sbu_0--edge1-CIFDUS_clean_linker_0
_symmetry_space_group_name_H-M    P1
_symmetry_Int_Tables_number       1
_symmetry_cell_setting            triclinic
loop_
_symmetry_equiv_pos_as_xyz
'x, y, z'
_cell_length_a     52.243289
_cell_length_b     52.26057
_cell_length_c     31.242444
_cell_angle_alpha  90.059595
_cell_angle_beta   90.022861
_cell_angle_gamma 120.00587
loop_
_atom_site_label
_atom_site_type_symbol
_atom_site_fract_x
_atom_site_fract_y
_atom_site_fract_z
_atom_type_partial_charge
Li0 Li 0.66814 0.03859 0.04342 0.0
Li1 Li 0.62362 0.01962 0.08895 0.0
Li2 Li 0.63999 0.9866 0.06015 0.0
Li3 Li 0.61876 0.00929 0.01307 0.0
C4 C 0.6708 0.00849 0.1312 0.0
N5 N 0.68822 0.98174 0.19173 0.0
C6 C 0.65616 0.99975 0.1705 0.0
C7 C 0.69445 0.00384 0.12281 0.0
C8 C 0.66528 0.98624 0.20067 0.0
C9 C 0.70286 0.9902 0.15377 0.0
C10 C 0.63334 0.07054 0.05971 0.0
C11 C 0.60321 0.0897 0.08783 0.0
N12 N 0.62806 0.11463 0.1006 0.0
C13 C 0.65856 0.09633 0.07329 0.0
C14 C 0.6054 0.06717 0.06712 0.0
C15 C 0.65543 0.11838 0.0938 0.0
C16 C 0.70796 0.08854 0.99672 0.0
N17 N 0.70641 0.07148 0.03055 0.0
C18 C 0.75845 0.1016 0.04259 0.0
C19 C 0.7309 0.07756 0.0536 0.0
C20 C 0.76075 0.1196 0.00763 0.0
C21 C 0.73496 0.11268 0.98457 0.0
H22 H 0.6881 0.08326 0.97906 0.0
H23 H 0.72907 0.06383 0.08058 0.0
C24 C 0.57632 0.00551 0.14437 0.0
N25 N 0.60516 0.02587 0.13758 0.0
C26 C 0.56091 0.00872 0.17837 0.0
C27 C 0.60532 0.05358 0.19873 0.0
C28 C 0.61994 0.04946 0.16418 0.0
C29 C 0.57534 0.03302 0.20614 0.0
H30 H 0.5652 0.9867 0.12332 0.0
H31 H 0.64302 0.06512 0.15843 0.0
C32 C 0.67625 0.01479 0.97452 0.0
N33 N 0.7233 0.0387 0.91824 0.0
C34 C 0.67421 0.02721 0.93598 0.0
C35 C 0.70213 0.01436 0.98433 0.0
C36 C 0.69825 0.0392 0.90795 0.0
C37 C 0.72571 0.02663 0.95551 0.0
C38 C 0.57444 0.96073 0.04064 0.0
C39 C 0.57309 0.93576 0.02199 0.0
C40 C 0.55052 0.96553 0.03625 0.0
C41 C 0.54776 0.91593 0.99934 0.0
C42 C 0.52563 0.94522 0.01325 0.0
N43 N 0.52477 0.92104 0.99544 0.0
C44 C 0.62419 0.93681 0.10997 0.0
C45 C 0.65493 0.94035 0.05191 0.0
C46 C 0.62291 0.91089 0.12407 0.0
N47 N 0.64023 0.95112 0.07477 0.0
C48 C 0.65398 0.91418 0.06463 0.0
C49 C 0.63778 0.89902 0.10126 0.0
H50 H 0.61247 0.94573 0.12729 0.0
H51 H 0.66718 0.9519 0.02366 0.0
C52 C 0.58081 0.02004 0.96189 0.0
N53 N 0.59471 0.004 0.96387 0.0
C54 C 0.56223 0.01658 0.92766 0.0
C55 C 0.57319 0.98066 0.89708 0.0
C56 C 0.59126 0.98451 0.93242 0.0
C57 C 0.55829 0.99683 0.89432 0.0
H58 H 0.58391 0.03537 0.98716 0.0
H59 H 0.60261 0.97202 0.93477 0.0
O60 O 0.66181 0.02119 0.10091 0.0
O61 O 0.63592 0.04855 0.03985 0.0
O62 O 0.65322 0.00359 0.00284 0.0
O63 O 0.59942 0.9809 0.06181 0.0
H64 H 0.63776 1.00308 0.17748 0.0
H65 H 0.7059 0.01029 0.09247 0.0
H66 H 0.65406 0.97922 0.23113 0.0
H67 H 0.72096 0.98624 0.14758 0.0
H68 H 0.58173 0.08726 0.09405 0.0
H69 H 0.68035 0.09928 0.06844 0.0
H70 H 0.58555 0.04706 0.05809 0.0
H71 H 0.67478 0.13842 0.10449 0.0
H72 H 0.77763 0.10629 0.06163 0.0
H73 H 0.73564 0.12558 0.95705 0.0
H74 H 0.53776 0.99248 0.18249 0.0
H75 H 0.61741 0.07244 0.21964 0.0
H76 H 0.65445 0.02797 0.92805 0.0
H77 H 0.70414 0.005 0.01414 0.0
H78 H 0.69706 0.04904 0.87812 0.0
H79 H 0.74595 0.02664 0.96282 0.0
H80 H 0.5915 0.93186 0.02452 0.0
H81 H 0.55141 0.98505 0.04968 0.0
H82 H 0.54645 0.89656 0.98465 0.0
H83 H 0.50707 0.94877 0.00933 0.0
H84 H 0.61055 0.90044 0.15284 0.0
H85 H 0.6654 0.90571 0.04555 0.0
H86 H 0.55082 0.02907 0.92776 0.0
H87 H 0.57122 0.96545 0.87204 0.0
Li88 Li 0.64635 0.66939 0.20799 0.0
Li89 Li 0.62162 0.62363 0.25897 0.0
Li90 Li 0.67134 0.64267 0.22888 0.0
Li91 Li 0.63 0.6185 0.18338 0.0
C92 C 0.68163 0.68086 0.29177 0.0
N93 N 0.73186 0.71425 0.34013 0.0
C94 C 0.68745 0.66849 0.32748 0.0
C95 C 0.70118 0.71027 0.28084 0.0
C96 C 0.71304 0.68571 0.35143 0.0
C97 C 0.72648 0.72678 0.3057 0.0
C98 C 0.58262 0.62585 0.18016 0.0
C99 C 0.53184 0.59408 0.15919 0.0
N100 N 0.53768 0.60811 0.12076 0.0
C101 C 0.58809 0.64005 0.14056 0.0
C102 C 0.55426 0.60273 0.18967 0.0
C103 C 0.56509 0.63072 0.11092 0.0
C104 C 0.65902 0.71687 0.15292 0.0
N105 N 0.64903 0.70606 0.19278 0.0
C106 C 0.64218 0.74706 0.20864 0.0
C107 C 0.64057 0.72047 0.2206 0.0
C108 C 0.65294 0.75898 0.1679 0.0
C109 C 0.66146 0.74355 0.13993 0.0
H110 H 0.66488 0.70461 0.13101 0.0
H111 H 0.6325 0.71125 0.252 0.0
C112 C 0.60818 0.59204 0.3344 0.0
N113 N 0.59752 0.605 0.30765 0.0
C114 C 0.59096 0.57438 0.36811 0.0
C115 C 0.5523 0.58444 0.34721 0.0
C116 C 0.5704 0.60206 0.31378 0.0
C117 C 0.5623 0.56976 0.37432 0.0
H118 H 0.62972 0.59456 0.3285 0.0
H119 H 0.56246 0.6126 0.29198 0.0
C120 C 0.69406 0.66371 0.15263 0.0
N121 N 0.74878 0.68048 0.11758 0.0
C122 C 0.70075 0.64233 0.13862 0.0
C123 C 0.71514 0.69366 0.14852 0.0
C124 C 0.72856 0.65124 0.1211 0.0
C125 C 0.74269 0.70168 0.13076 0.0
C126 C 0.62809 0.57245 0.22384 0.0
C127 C 0.64494 0.56364 0.19987 0.0
C128 C 0.59994 0.55125 0.23788 0.0
C129 C 0.63314 0.53379 0.1897 0.0
C130 C 0.58893 0.52161 0.22708 0.0
N131 N 0.6056 0.51357 0.20337 0.0
C132 C 0.70889 0.62338 0.26267 0.0
C133 C 0.73487 0.67341 0.24082 0.0
C134 C 0.73512 0.62508 0.27653 0.0
N135 N 0.70917 0.64726 0.24492 0.0
C136 C 0.76168 0.67603 0.25389 0.0
C137 C 0.76211 0.65165 0.27209 0.0
H138 H 0.68817 0.60305 0.26677 0.0
H139 H 0.73463 0.69243 0.22797 0.0
C140 C 0.625 0.60133 0.09601 0.0
N141 N 0.61173 0.59291 0.13492 0.0
C142 C 0.61094 0.58488 0.0594 0.0
C143 C 0.56972 0.55136 0.1034 0.0
C144 C 0.58472 0.56828 0.13917 0.0
C145 C 0.58265 0.55974 0.06263 0.0
H146 H 0.64614 0.62132 0.09312 0.0
H147 H 0.57415 0.56241 0.17011 0.0
O148 O 0.65706 0.66422 0.26735 0.0
O149 O 0.60506 0.63421 0.20911 0.0
O150 O 0.66694 0.65536 0.16998 0.0
O151 O 0.63929 0.6016 0.23408 0.0
H152 H 0.67255 0.64574 0.33627 0.0
H153 H 0.69703 0.72012 0.25318 0.0
H154 H 0.71796 0.67638 0.37896 0.0
H155 H 0.74191 0.74952 0.29749 0.0
H156 H 0.50983 0.5761 0.16599 0.0
H157 H 0.60999 0.65776 0.13255 0.0
H158 H 0.54973 0.59126 0.21995 0.0
H159 H 0.56907 0.64137 0.08003 0.0
H160 H 0.63545 0.75836 0.23112 0.0
H161 H 0.66941 0.75178 0.10803 0.0
H162 H 0.59983 0.56399 0.38863 0.0
H163 H 0.53033 0.5814 0.3507 0.0
H164 H 0.68462 0.6191 0.14118 0.0
H165 H 0.71058 0.71055 0.15975 0.0
H166 H 0.73404 0.6349 0.11027 0.0
H167 H 0.75929 0.72476 0.1277 0.0
H168 H 0.66697 0.57964 0.18943 0.0
H169 H 0.58648 0.55762 0.25625 0.0
H170 H 0.64591 0.52669 0.17105 0.0
H171 H 0.56708 0.50501 0.23742 0.0
H172 H 0.73412 0.60587 0.2913 0.0
H173 H 0.78184 0.69695 0.24953 0.0
H174 H 0.62198 0.59209 0.02881 0.0
H175 H 0.54773 0.5326 0.10755 0.0
Li176 Li 0.9895 0.63751 0.37931 0.0
Li177 Li 0.01246 0.61709 0.42471 0.0
Li178 Li 0.04432 0.66643 0.39534 0.0
Li179 Li 0.0237 0.62172 0.35047 0.0
C180 C 0.99907 0.64908 0.47559 0.0
N181 N 0.97767 0.63847 0.55841 0.0
C182 C 0.96865 0.63259 0.48311 0.0
C183 C 0.01859 0.66027 0.5102 0.0
C184 C 0.95827 0.62749 0.5252 0.0
C185 C 0.00734 0.65461 0.55184 0.0
C186 C 0.96393 0.57083 0.3934 0.0
C187 C 0.9499 0.52156 0.41681 0.0
N188 N 0.92262 0.51693 0.42717 0.0
C189 C 0.9357 0.56553 0.40406 0.0
C190 C 0.97107 0.54863 0.39957 0.0
C191 C 0.91514 0.53814 0.42116 0.0
C192 C 0.94162 0.62488 0.32742 0.0
N193 N 0.9551 0.63941 0.36404 0.0
C194 C 0.91832 0.65333 0.3746 0.0
C195 C 0.9443 0.65391 0.38738 0.0
C196 C 0.90351 0.63793 0.33725 0.0
C197 C 0.91581 0.62391 0.31333 0.0
H198 H 0.95093 0.61384 0.30928 0.0
H199 H 0.95567 0.66567 0.4161 0.0
C200 C 0.03477 0.59703 0.48962 0.0
N201 N 0.00897 0.59444 0.47541 0.0
C202 C 0.03528 0.58187 0.526 0.0
C203 C 0.98266 0.56179 0.53337 0.0
C204 C 0.98317 0.5774 0.49672 0.0
C205 C 0.009 0.56392 0.54847 0.0
H206 H 0.05511 0.61099 0.47273 0.0
H207 H 0.96294 0.57592 0.48551 0.0
C208 C 0.02482 0.68437 0.32357 0.0
N209 N 0.02593 0.73461 0.2935 0.0
C210 C 0.03262 0.69321 0.28112 0.0
C211 C 0.01751 0.70103 0.35073 0.0
C212 C 0.0331 0.71871 0.26653 0.0
C213 C 0.0182 0.72636 0.33491 0.0
C214 C 0.07263 0.62762 0.38257 0.0
C215 C 0.09886 0.65063 0.36579 0.0
C216 C 0.06768 0.59875 0.38193 0.0
C217 C 0.11968 0.64429 0.34825 0.0
C218 C 0.08901 0.59332 0.36401 0.0
N219 N 0.11434 0.61601 0.34768 0.0
C220 C 0.09271 0.70254 0.44512 0.0
C221 C 0.0898 0.72865 0.38516 0.0
C222 C 0.11843 0.7275 0.45921 0.0
N223 N 0.07879 0.70352 0.40893 0.0
C224 C 0.11554 0.75427 0.39818 0.0
C225 C 0.13027 0.75387 0.43567 0.0
H226 H 0.08391 0.68211 0.46287 0.0
H227 H 0.07902 0.72889 0.35582 0.0
C228 C 0.00988 0.57486 0.29366 0.0
N229 N 0.03038 0.60347 0.30183 0.0
C230 C 0.01337 0.55996 0.25912 0.0
C231 C 0.05891 0.60435 0.24132 0.0
C232 C 0.05444 0.61848 0.27622 0.0
C233 C 0.03824 0.57458 0.23247 0.0
H234 H 0.9906 0.56359 0.31375 0.0
H235 H 0.0702 0.64139 0.28299 0.0
O236 O 0.00965 0.65397 0.43458 0.0
O237 O 0.9843 0.59744 0.37637 0.0
O238 O 0.02389 0.65922 0.33801 0.0
O239 O 0.05178 0.63326 0.39932 0.0
H240 H 0.95323 0.62333 0.45678 0.0
H241 H 0.04216 0.67309 0.50506 0.0
H242 H 0.93479 0.6146 0.53146 0.0
H243 H 0.02221 0.66303 0.57893 0.0
H244 H 0.95518 0.50426 0.42202 0.0
H245 H 0.92974 0.58238 0.39935 0.0
H246 H 0.99281 0.55237 0.39151 0.0
H247 H 0.89326 0.53377 0.42971 0.0
H248 H 0.90965 0.66432 0.39426 0.0
H249 H 0.90567 0.61234 0.28386 0.0
H250 H 0.05608 0.58396 0.53611 0.0
H251 H 0.96194 0.54854 0.55001 0.0
H252 H 0.03823 0.68047 0.25968 0.0
H253 H 0.01151 0.69462 0.38371 0.0
H254 H 0.03913 0.72584 0.23376 0.0
H255 H 0.01263 0.73948 0.35557 0.0
H256 H 0.10299 0.67308 0.3659 0.0
H257 H 0.0475 0.58073 0.39488 0.0
H258 H 0.14002 0.66185 0.33495 0.0
H259 H 0.08541 0.57107 0.36307 0.0
H260 H 0.12885 0.72615 0.48843 0.0
H261 H 0.12417 0.77395 0.37863 0.0
H262 H 0.99644 0.5373 0.253 0.0
H263 H 0.07846 0.61651 0.22178 0.0
Li264 Li 0.40385 0.00865 0.58962 0.0
Li265 Li 0.35986 0.99047 0.54675 0.0
Li266 Li 0.41078 0.02001 0.51289 0.0
Li267 Li 0.38878 0.04246 0.56178 0.0
C268 C 0.39535 0.95731 0.55101 0.0
N269 N 0.40263 0.90994 0.57176 0.0
C270 C 0.38074 0.93967 0.58637 0.0
C271 C 0.4138 0.95095 0.5263 0.0
C272 C 0.38468 0.91581 0.59633 0.0
C273 C 0.41714 0.92687 0.53727 0.0
C274 C 0.34135 0.99294 0.62331 0.0
C275 C 0.28937 0.97616 0.63069 0.0
N276 N 0.28732 0.95689 0.66157 0.0
C277 C 0.33878 0.97311 0.65529 0.0
C278 C 0.31651 0.99464 0.61107 0.0
C279 C 0.31126 0.95503 0.67419 0.0
C280 C 0.42086 0.01362 0.67583 0.0
N281 N 0.42361 1.00295 0.63745 0.0
C282 C 0.4596 0.99227 0.66667 0.0
C283 C 0.4425 0.99233 0.63233 0.0
C284 C 0.45783 0.004 0.70623 0.0
C285 C 0.43795 0.01449 0.71077 0.0
H286 H 0.40628 0.02264 0.67877 0.0
H287 H 0.44541 0.98521 0.60117 0.0
C288 C 0.30752 0.96007 0.49786 0.0
N289 N 0.32118 0.95781 0.53355 0.0
C290 C 0.28054 0.93627 0.48439 0.0
C291 C 0.28187 0.90826 0.5449 0.0
C292 C 0.30879 0.9326 0.55722 0.0
C293 C 0.26753 0.90974 0.5077 0.0
H294 H 0.31793 0.98014 0.47918 0.0
H295 H 0.31986 0.93115 0.58544 0.0
C296 C 0.45315 0.06068 0.58695 0.0
N297 N 0.50059 0.08472 0.64268 0.0
C298 C 0.45376 0.07813 0.6213 0.0
C299 C 0.47674 0.05561 0.58075 0.0
C300 C 0.47794 0.09006 0.64916 0.0
C301 C 0.5005 0.06792 0.60934 0.0
C302 C 0.37054 0.04431 0.48429 0.0
C303 C 0.39206 0.0642 0.45613 0.0
C304 C 0.34544 0.04652 0.4927 0.0
C305 C 0.38821 0.08623 0.43709 0.0
C306 C 0.34244 0.06888 0.47308 0.0
N307 N 0.36372 0.08812 0.44593 0.0
C308 C 0.42133 1.00157 0.43453 0.0
C309 C 0.46246 0.04556 0.4606 0.0
C310 C 0.43802 1.0006 0.40038 0.0
N311 N 0.43391 0.02347 0.46417 0.0
C312 C 0.48001 0.04547 0.42687 0.0
C313 C 0.46797 0.02238 0.39671 0.0
H314 H 0.39854 0.98432 0.43828 0.0
H315 H 0.47183 0.06279 0.48459 0.0
C316 C 0.37016 0.0786 0.60412 0.0
N317 N 0.38857 0.07833 0.57363 0.0
C318 C 0.37122 0.10504 0.61528 0.0
C319 C 0.41001 0.13041 0.56316 0.0
C320 C 0.4083 0.10351 0.55319 0.0
C321 C 0.39152 0.13153 0.59496 0.0
H322 H 0.35512 0.05843 0.62058 0.0
H323 H 0.42303 0.10277 0.52956 0.0
O324 O 0.39195 0.98088 0.54079 0.0
O325 O 0.36805 0.01066 0.60418 0.0
O326 O 0.42923 0.04801 0.5602 0.0
O327 O 0.37421 0.023 0.50394 0.0
H328 H 0.36709 0.94476 0.6065 0.0
H329 H 0.4255 0.96452 0.49905 0.0
H330 H 0.37361 0.90207 0.62375 0.0
H331 H 0.43132 0.92169 0.51842 0.0
H332 H 0.26992 0.9771 0.62132 0.0
H333 H 0.35778 0.97154 0.66527 0.0
H334 H 0.31811 0.00985 0.58636 0.0
H335 H 0.30892 0.93949 0.69884 0.0
H336 H 0.47511 0.9845 0.66178 0.0
H337 H 0.43606 0.02378 0.74081 0.0
H338 H 0.27049 0.93833 0.45525 0.0
H339 H 0.27246 0.88842 0.56422 0.0
H340 H 0.43557 0.08209 0.62671 0.0
H341 H 0.47642 0.04182 0.55465 0.0
H342 H 0.47863 0.10345 0.67605 0.0
H343 H 0.51879 0.06395 0.60517 0.0
H344 H 0.41164 0.06282 0.44937 0.0
H345 H 0.32859 0.03126 0.5144 0.0
H346 H 0.40475 0.10189 0.41539 0.0
H347 H 0.32322 0.07097 0.47948 0.0
H348 H 0.42768 0.98269 0.37746 0.0
H349 H 0.50302 0.06262 0.42539 0.0
H350 H 0.35691 0.10482 0.6405 0.0
H351 H 0.42578 0.15013 0.54626 0.0
Li352 Li 0.41399 0.40661 0.7602 0.0
Li353 Li 0.38948 0.36306 0.71258 0.0
Li354 Li 0.40827 0.41315 0.68463 0.0
Li355 Li 0.36429 0.38946 0.73153 0.0
C356 C 0.45711 0.40104 0.72675 0.0
N357 N 0.50968 0.41089 0.76247 0.0
C358 C 0.46036 0.3772 0.73961 0.0
C359 C 0.48062 0.42988 0.73198 0.0
C360 C 0.48712 0.38265 0.75757 0.0
C361 C 0.507 0.4344 0.75017 0.0
C362 C 0.35632 0.35818 0.80118 0.0
C363 C 0.30617 0.32537 0.82386 0.0
N364 N 0.31215 0.34002 0.86184 0.0
C365 C 0.36202 0.37283 0.8405 0.0
C366 C 0.32823 0.33416 0.79282 0.0
C367 C 0.33938 0.36332 0.87074 0.0
C368 C 0.4448 0.45193 0.8202 0.0
N369 N 0.43874 0.42431 0.80915 0.0
C370 C 0.46811 0.42353 0.86739 0.0
C371 C 0.44954 0.40977 0.83232 0.0
C372 C 0.47521 0.45235 0.87913 0.0
C373 C 0.46299 0.46639 0.85515 0.0
H374 H 0.43532 0.46273 0.80205 0.0
H375 H 0.4439 0.38756 0.82342 0.0
C376 C 0.40218 0.32509 0.66483 0.0
N377 N 0.38561 0.32562 0.69801 0.0
C378 C 0.3999 0.29848 0.65161 0.0
C379 C 0.36366 0.27336 0.70713 0.0
C380 C 0.36672 0.30051 0.71939 0.0
C381 C 0.38037 0.27209 0.67275 0.0
H382 H 0.41704 0.3454 0.64841 0.0
H383 H 0.35397 0.30153 0.74586 0.0
C384 C 0.40387 0.45682 0.71852 0.0
N385 N 0.41524 0.50993 0.6832 0.0
C386 C 0.38056 0.46057 0.70445 0.0
C387 C 0.43296 0.48011 0.71476 0.0
C388 C 0.38677 0.48761 0.6867 0.0
C389 C 0.43825 0.50677 0.69673 0.0
C390 C 0.35904 0.35617 0.64285 0.0
C391 C 0.3746 0.36109 0.60453 0.0
C392 C 0.33391 0.32872 0.6504 0.0
C393 C 0.36484 0.33831 0.57442 0.0
C394 C 0.32492 0.30649 0.61953 0.0
N395 N 0.34044 0.31171 0.58251 0.0
C396 C 0.45496 0.44474 0.62707 0.0
C397 C 0.41299 0.44938 0.61234 0.0
C398 C 0.47029 0.46336 0.59301 0.0
N399 N 0.42698 0.43836 0.63639 0.0
C400 C 0.4276 0.4683 0.57798 0.0
C401 C 0.45668 0.47549 0.56793 0.0
H402 H 0.46545 0.43533 0.64608 0.0
H403 H 0.39051 0.44353 0.6199 0.0
C404 C 0.32825 0.4029 0.78151 0.0
N405 N 0.32755 0.38691 0.74673 0.0
C406 C 0.30231 0.40096 0.79706 0.0
C407 C 0.27533 0.36686 0.73982 0.0
C408 C 0.30187 0.36933 0.72548 0.0
C409 C 0.27529 0.38256 0.7764 0.0
H410 H 0.34903 0.41685 0.79761 0.0
H411 H 0.30191 0.35689 0.69786 0.0
O412 O 0.43097 0.3962 0.70952 0.0
O413 O 0.37797 0.36765 0.77073 0.0
O414 O 0.3983 0.43039 0.73541 0.0
O415 O 0.3687 0.37792 0.6732 0.0
H416 H 0.44234 0.35475 0.73617 0.0
H417 H 0.47839 0.4486 0.7226 0.0
H418 H 0.48992 0.36442 0.76779 0.0
H419 H 0.52531 0.4566 0.75464 0.0
H420 H 0.28425 0.30701 0.81766 0.0
H421 H 0.38358 0.39153 0.84746 0.0
H422 H 0.32332 0.32281 0.76236 0.0
H423 H 0.34343 0.37454 0.90122 0.0
H424 H 0.47705 0.41183 0.88474 0.0
H425 H 0.46708 0.48822 0.86358 0.0
H426 H 0.41295 0.29854 0.62466 0.0
H427 H 0.34862 0.25363 0.72468 0.0
H428 H 0.35794 0.44274 0.70683 0.0
H429 H 0.45127 0.47749 0.7252 0.0
H430 H 0.36896 0.4908 0.67555 0.0
H431 H 0.46066 0.52491 0.69338 0.0
H432 H 0.39416 0.38216 0.59827 0.0
H433 H 0.32182 0.32446 0.6801 0.0
H434 H 0.37674 0.34175 0.54469 0.0
H435 H 0.30567 0.28506 0.6251 0.0
H436 H 0.49274 0.46847 0.58673 0.0
H437 H 0.41615 0.47687 0.55915 0.0
H438 H 0.30342 0.41382 0.82492 0.0
H439 H 0.25498 0.35231 0.72306 0.0
Li440 Li 0.0234 0.40893 0.92747 0.0
Li441 Li 0.04063 0.38394 0.87782 0.0
Li442 Li 0.00825 0.40359 0.85102 0.0
Li443 Li 0.98872 0.35892 0.89585 0.0
C444 C 0.06765 0.45538 0.8764 0.0
N445 N 0.10573 0.5158 0.87701 0.0
C446 C 0.09798 0.46683 0.88238 0.0
C447 C 0.05679 0.4747 0.87013 0.0
C448 C 0.11685 0.49743 0.88276 0.0
C449 C 0.07635 0.50515 0.87069 0.0
C450 C 0.04162 0.36341 0.95456 0.0
C451 C 0.0606 0.33012 0.96322 0.0
N452 N 0.08111 0.34938 0.99132 0.0
C453 C 0.06275 0.38282 0.98368 0.0
C454 C 0.04037 0.33676 0.94439 0.0
C455 C 0.08256 0.37533 1.00189 0.0
C456 C 0.00774 0.42099 0.00655 0.0
N457 N 0.03041 0.43229 0.97805 0.0
C458 C 0.05778 0.47518 0.02188 0.0
C459 C 0.05535 0.45868 0.98526 0.0
C460 C 0.03448 0.46422 0.05156 0.0
C461 C 0.00931 0.43661 0.04366 0.0
H462 H 0.98816 0.39998 0.99998 0.0
H463 H 0.07333 0.4671 0.96267 0.0
C464 C 0.07103 0.36331 0.82618 0.0
N465 N 0.07364 0.37942 0.8618 0.0
C466 C 0.09516 0.36136 0.81106 0.0
C467 C 0.12428 0.39229 0.86984 0.0
C468 C 0.09953 0.39358 0.88388 0.0
C469 C 0.12244 0.37632 0.83257 0.0
H470 H 0.05034 0.35247 0.80889 0.0
H471 H 0.10121 0.40649 0.91187 0.0
C472 C 0.96619 0.40675 0.90573 0.0
N473 N 0.93186 0.4332 0.9121 0.0
C474 C 0.93564 0.39014 0.89932 0.0
C475 C 0.97917 0.43671 0.9161 0.0
C476 C 0.91869 0.40394 0.90245 0.0
C477 C 0.96148 0.44971 0.91899 0.0
C478 C 0.98727 0.33998 0.817 0.0
C479 C 0.96764 0.33995 0.78658 0.0
C480 C 0.98686 0.31367 0.82664 0.0
C481 C 0.94761 0.31343 0.76662 0.0
C482 C 0.96647 0.2876 0.80603 0.0
N483 N 0.94743 0.28802 0.77672 0.0
C484 C 0.02523 0.43984 0.77873 0.0
C485 C 0.97447 0.41944 0.79534 0.0
C486 C 0.02268 0.45557 0.74455 0.0
N487 N 1.00147 0.42265 0.80378 0.0
C488 C 0.97084 0.43464 0.76119 0.0
C489 C 0.99526 0.4533 0.73561 0.0
H490 H 0.04632 0.44154 0.78563 0.0
H491 H 0.95574 0.40511 0.815 0.0
C492 C 0.95371 0.30525 0.9414 0.0
N493 N 0.95381 0.32197 0.908 0.0
C494 C 0.92768 0.2795 0.95287 0.0
C495 C 0.90255 0.28837 0.89483 0.0
C496 C 0.92899 0.3139 0.88455 0.0
C497 C 0.90148 0.27098 0.92985 0.0
H498 H 0.97365 0.31231 0.95986 0.0
H499 H 0.92957 0.32762 0.85829 0.0
O500 O 0.0489 0.42543 0.87594 0.0
O501 O 0.02227 0.37049 0.93606 0.0
O502 O 0.98307 0.3935 0.90289 0.0
O503 O 0.00679 0.36565 0.83724 0.0
H504 H 0.10689 0.4523 0.88686 0.0
H505 H 0.03356 0.46635 0.86438 0.0
H506 H 0.14034 0.50657 0.8876 0.0
H507 H 0.06819 0.52032 0.86594 0.0
H508 H 0.06002 0.30965 0.95548 0.0
H509 H 0.06399 0.40353 0.99189 0.0
H510 H 0.02407 0.32149 0.922 0.0
H511 H 0.09913 0.39019 0.02433 0.0
H512 H 0.07772 0.4962 0.02704 0.0
H513 H 0.99071 0.42746 0.06544 0.0
H514 H 0.09251 0.34844 0.78257 0.0
H515 H 0.14488 0.40451 0.88722 0.0
H516 H 0.92509 0.36687 0.89178 0.0
H517 H 1.00257 0.44979 0.92235 0.0
H518 H 0.89506 0.39137 0.89726 0.0
H519 H 0.97129 0.4729 0.9269 0.0
H520 H 0.96774 0.36015 0.77867 0.0
H521 H 1.00197 0.31337 0.85005 0.0
H522 H 0.93219 0.31303 0.74315 0.0
H523 H 0.96577 0.26704 0.81338 0.0
H524 H 0.04193 0.46923 0.72512 0.0
H525 H 0.94931 0.43223 0.75536 0.0
H526 H 0.92786 0.267 0.98037 0.0
H527 H 0.88306 0.28247 0.87575 0.0
H528 H 0.53587 0.99026 0.25905 0.0
H529 H 0.57797 0.08393 0.23479 0.0
H530 H 0.54909 0.08917 0.29222 0.0
H531 H 0.51026 0.06665 0.34748 0.0
H532 H 0.46815 0.97276 0.37037 0.0
H533 H 0.49807 0.96805 0.31455 0.0
C534 C 0.53861 0.01182 0.26606 0.0
C535 C 0.55895 0.03661 0.24242 0.0
C536 C 0.52167 0.0146 0.29862 0.0
C537 C 0.56267 0.06449 0.2527 0.0
C538 C 0.546 0.06747 0.28533 0.0
C539 C 0.50781 0.04521 0.34045 0.0
C540 C 0.48673 0.02006 0.36285 0.0
C541 C 0.52524 0.04262 0.30829 0.0
C542 C 0.48372 0.9924 0.35309 0.0
C543 C 0.501 0.98969 0.32137 0.0
H544 H 0.52422 0.57529 0.42891 0.0
H545 H 0.55601 0.51613 0.39395 0.0
H546 H 0.52581 0.48177 0.44971 0.0
H547 H 0.49108 0.46866 0.50915 0.0
H548 H 0.45879 0.52717 0.545 0.0
H549 H 0.48776 0.56115 0.48747 0.0
C550 C 0.52432 0.55476 0.43326 0.0
C551 C 0.54274 0.54858 0.40756 0.0
C552 C 0.50668 0.53486 0.46543 0.0
C553 C 0.54263 0.52186 0.41382 0.0
C554 C 0.52518 0.50204 0.44554 0.0
C555 C 0.49048 0.48892 0.50456 0.0
C556 C 0.47295 0.49544 0.53157 0.0
C557 C 0.50736 0.50843 0.47177 0.0
C558 C 0.47194 0.5215 0.5245 0.0
C559 C 0.48865 0.54103 0.49178 0.0
H560 H 0.03261 0.51075 0.71546 0.0
H561 H 0.95128 0.43419 0.67551 0.0
H562 H 0.94762 0.46194 0.61508 0.0
H563 H 0.96882 0.50739 0.57176 0.0
H564 H 0.05003 0.5839 0.61263 0.0
H565 H 0.05266 0.55658 0.67407 0.0
C566 C 0.01415 0.5001 0.6934 0.0
C567 C 0.99237 0.4704 0.69981 0.0
C568 C 0.01226 0.51612 0.65872 0.0
C569 C 0.96827 0.45708 0.67145 0.0
C570 C 0.96624 0.47289 0.63677 0.0
C571 C 0.98688 0.51821 0.59441 0.0
C572 C 0.00933 0.5476 0.58728 0.0
C573 C 0.98823 0.50237 0.6299 0.0
C574 C 0.03273 0.56115 0.61681 0.0
C575 C 0.03419 0.5456 0.65212 0.0
H576 H 0.55018 0.03924 0.85614 0.0
H577 H 0.52217 0.94634 0.84853 0.0
H578 H 0.48962 0.94059 0.78876 0.0
H579 H 0.4678 0.96168 0.73979 0.0
H580 H 0.49337 0.05364 0.75158 0.0
H581 H 0.52752 0.05979 0.80942 0.0
C582 C 0.53668 0.01757 0.842 0.0
C583 C 0.53874 0.99328 0.8572 0.0
C584 C 0.51732 0.01419 0.8085 0.0
C585 C 0.52153 0.9656 0.83732 0.0
C586 C 0.50265 0.9622 0.80329 0.0
C587 C 0.48092 0.98302 0.7551 0.0
C588 C 0.47805 0.00715 0.74169 0.0
C589 C 0.50024 0.9863 0.78876 0.0
C590 C 0.49499 0.03468 0.76179 0.0
C591 C 0.5146 0.03824 0.79467 0.0
H592 H 0.54576 0.50011 0.05307 0.0
H593 H 0.58173 0.58259 0.9842 0.0
H594 H 0.55326 0.55647 0.9211 0.0
H595 H 0.51687 0.51066 0.88604 0.0
H596 H 0.47789 0.42857 0.95622 0.0
H597 H 0.50889 0.45413 0.01798 0.0
C598 C 0.54726 0.51245 0.02439 0.0
C599 C 0.56604 0.54336 0.02362 0.0
C600 C 0.53025 0.49736 0.98832 0.0
C601 C 0.56798 0.55879 0.98573 0.0
C602 C 0.55146 0.54389 0.94962 0.0
C603 C 0.51489 0.49832 0.91494 0.0
C604 C 0.49488 0.46769 0.91634 0.0
C605 C 0.53232 0.51324 0.95069 0.0
C606 C 0.49327 0.45207 0.95386 0.0
C607 C 0.51086 0.46672 0.9894 0.0
H608 H 0.05307 0.52305 0.05659 0.0
H609 H 0.01907 0.44413 0.13335 0.0
H610 H 0.01855 0.4716 0.1963 0.0
H611 H 0.02631 0.51755 0.22907 0.0
H612 H 0.05861 0.59622 0.15203 0.0
H613 H 0.06207 0.56957 0.09007 0.0
C614 C 0.04591 0.51198 0.08723 0.0
C615 C 0.036 0.48154 0.09021 0.0
C616 C 0.04544 0.52788 0.12329 0.0
C617 C 0.02645 0.46743 0.13006 0.0
C618 C 0.02625 0.48315 0.16611 0.0
C619 C 0.03395 0.52887 0.19869 0.0
C620 C 0.042 0.55885 0.19531 0.0
C621 C 0.03535 0.51328 0.16298 0.0
C622 C 0.05251 0.57327 0.15582 0.0
C623 C 0.05429 0.55797 0.12022 0.0
H624 H 0.61045 0.77437 0.17295 0.0
H625 H 0.70014 0.8066 0.13163 0.0
H626 H 0.70357 0.85276 0.10751 0.0
H627 H 0.68111 0.88404 0.09856 0.0
H628 H 0.59023 0.85029 0.13606 0.0
H629 H 0.58746 0.80503 0.16183 0.0
C630 C 0.63078 0.79163 0.15894 0.0
C631 C 0.65504 0.78718 0.15424 0.0
C632 C 0.63243 0.8179 0.14454 0.0
C633 C 0.68113 0.8095 0.13542 0.0
C634 C 0.68311 0.83589 0.12169 0.0
C635 C 0.66055 0.86669 0.11186 0.0
C636 C 0.63603 0.87091 0.11558 0.0
C637 C 0.65886 0.84031 0.12595 0.0
C638 C 0.60974 0.84813 0.13353 0.0
C639 C 0.60801 0.82204 0.14806 0.0
H640 H 0.8879 0.68075 0.34163 0.0
H641 H 0.85508 0.59039 0.30205 0.0
H642 H 0.80928 0.58707 0.27752 0.0
H643 H 0.7785 0.60965 0.26676 0.0
H644 H 0.80962 0.69885 0.31048 0.0
H645 H 0.85602 0.70269 0.33367 0.0
C646 C 0.87063 0.6602 0.32811 0.0
C647 C 0.87523 0.63597 0.32347 0.0
C648 C 0.84399 0.65822 0.31454 0.0
C649 C 0.85258 0.60966 0.30528 0.0
C650 C 0.82621 0.60763 0.29148 0.0
C651 C 0.79521 0.62984 0.28187 0.0
C652 C 0.7904 0.65392 0.28665 0.0
C653 C 0.82168 0.63177 0.29586 0.0
C654 C 0.81275 0.68007 0.3056 0.0
C655 C 0.83927 0.68224 0.31923 0.0
H656 H 0.14321 0.81148 0.43592 0.0
H657 H 0.18004 0.75608 0.46746 0.0
H658 H 0.22516 0.79906 0.4931 0.0
H659 H 0.25446 0.85238 0.50621 0.0
H660 H 0.21813 0.90817 0.47465 0.0
H661 H 0.17287 0.86519 0.44866 0.0
C662 C 0.16122 0.80885 0.44804 0.0
C663 C 0.15808 0.78049 0.44995 0.0
C664 C 0.18727 0.83376 0.46267 0.0
C665 C 0.18158 0.77751 0.46622 0.0
C666 C 0.2075 0.80213 0.48071 0.0
C667 C 0.23653 0.85513 0.49409 0.0
C668 C 0.23971 0.8835 0.49257 0.0
C669 C 0.21055 0.83033 0.47927 0.0
C670 C 0.21642 0.88666 0.4759 0.0
C671 C 0.19046 0.86205 0.46117 0.0
H672 H 0.42434 0.26115 0.64981 0.0
H673 H 0.32968 0.21856 0.6645 0.0
H674 H 0.32471 0.17156 0.64158 0.0
H675 H 0.34719 0.14262 0.61653 0.0
H676 H 0.44202 0.18525 0.60322 0.0
H677 H 0.44681 0.23221 0.62521 0.0
C678 C 0.40259 0.24164 0.64766 0.0
C679 C 0.37744 0.24345 0.6589 0.0
C680 C 0.39987 0.21468 0.63434 0.0
C681 C 0.34946 0.21779 0.65656 0.0
C682 C 0.34658 0.19091 0.6432 0.0
C683 C 0.36894 0.1621 0.61875 0.0
C684 C 0.39417 0.16026 0.60796 0.0
C685 C 0.37163 0.18908 0.63204 0.0
C686 C 0.42213 0.18597 0.61051 0.0
C687 C 0.42494 0.21286 0.62345 0.0
H688 H 0.16588 0.37323 0.87716 0.0
H689 H 0.1391 0.37966 0.74874 0.0
H690 H 0.18308 0.38088 0.72004 0.0
H691 H 0.23025 0.38201 0.73135 0.0
H692 H 0.25757 0.37668 0.85979 0.0
H693 H 0.21271 0.37378 0.88842 0.0
C694 C 0.16973 0.37509 0.84291 0.0
C695 C 0.14904 0.37628 0.81527 0.0
C696 C 0.19535 0.3762 0.82654 0.0
C697 C 0.15429 0.37822 0.77086 0.0
C698 C 0.1796 0.37915 0.75436 0.0
C699 C 0.22623 0.37991 0.76557 0.0
C700 C 0.24735 0.37972 0.79335 0.0
C701 C 0.20037 0.3783 0.78189 0.0
C702 C 0.24192 0.37732 0.83769 0.0
C703 C 0.21619 0.37551 0.8541 0.0
H704 H 0.8914 0.21701 0.9576 0.0
H705 H 0.84723 0.26664 0.93292 0.0
H706 H 0.80023 0.22451 0.9547 0.0
H707 H 0.77159 0.17385 0.98149 0.0
H708 H 0.81519 0.12369 0.00598 0.0
H709 H 0.86251 0.16598 0.98476 0.0
C710 C 0.87153 0.21867 0.95726 0.0
C711 C 0.87293 0.24498 0.9433 0.0
C712 C 0.84445 0.19433 0.97013 0.0
C713 C 0.84682 0.24657 0.94271 0.0
C714 C 0.81991 0.22253 0.95548 0.0
C715 C 0.79136 0.172 0.98181 0.0
C716 C 0.78971 0.14551 0.99526 0.0
C717 C 0.81844 0.19629 0.96916 0.0
C718 C 0.81578 0.14386 0.99627 0.0
C719 C 0.84285 0.168 0.98385 0.0
loop_
_geom_bond_atom_site_label_1
_geom_bond_atom_site_label_2
_geom_bond_distance
_geom_bond_site_symmetry_2
_ccdc_geom_bond_type
Li0 N17 1.990 . S
Li0 O60 1.956 . S
Li0 O61 1.970 . S
Li0 O62 1.961 . S
Li1 N25 1.990 . S
Li1 O60 1.970 . S
Li1 O61 1.956 . S
Li1 O63 1.961 1_545 S
Li2 N47 1.990 . S
Li2 O60 1.961 1_565 S
Li2 O62 1.956 1_565 S
Li2 O63 1.970 . S
Li3 N53 1.998 1_544 S
Li3 O61 1.961 . S
Li3 O62 1.970 . S
Li3 O63 1.956 1_545 S
C4 C6 1.348 . S
C4 C7 1.356 . S
C4 O60 1.325 . S
N5 C8 1.314 . S
N5 C9 1.279 . S
C6 C4 1.348 . S
C6 C8 1.353 . S
C6 H64 0.929 . S
C7 C4 1.356 . S
C7 C9 1.358 . S
C7 H65 0.930 . S
C8 N5 1.314 . S
C8 C6 1.353 . S
C8 H66 0.930 . S
C9 N5 1.279 . S
C9 C7 1.358 . S
C9 H67 0.930 . S
C10 C13 1.348 . S
C10 C14 1.356 . S
C10 O61 1.325 . S
C11 N12 1.279 . S
C11 C14 1.358 . S
C11 H68 0.930 . S
N12 C11 1.279 . S
N12 C15 1.314 . S
C13 C10 1.348 . S
C13 C15 1.353 . S
C13 H69 0.929 . S
C14 C10 1.356 . S
C14 C11 1.358 . S
C14 H70 0.930 . S
C15 N12 1.314 . S
C15 C13 1.353 . S
C15 H71 0.930 . S
C16 N17 1.314 . S
C16 C21 1.353 1_554 S
C16 H22 0.930 1_554 S
N17 Li0 1.990 . S
N17 C16 1.314 . S
N17 C19 1.279 . S
C18 C19 1.358 . S
C18 C20 1.356 . S
C18 H72 0.930 . S
C19 N17 1.279 . S
C19 C18 1.358 . S
C19 H23 0.930 . S
C20 C18 1.356 . S
C20 C21 1.348 1_554 S
C21 C16 1.353 1_556 S
C21 C20 1.348 1_556 S
C21 H73 0.929 . S
H22 C16 0.930 1_556 S
H23 C19 0.930 . S
C24 N25 1.314 . S
C24 C26 1.353 . S
C24 H30 0.930 1_545 S
N25 Li1 1.990 . S
N25 C24 1.314 . S
N25 C28 1.279 . S
C26 C24 1.353 . S
C26 C29 1.348 . S
C26 H74 0.929 1_545 S
C27 C28 1.358 . S
C27 C29 1.356 . S
C27 H75 0.930 . S
C28 N25 1.279 . S
C28 C27 1.358 . S
C28 H31 0.930 . S
C29 C26 1.348 . S
C29 C27 1.356 . S
H30 C24 0.930 1_565 S
H31 C28 0.930 . S
C32 C34 1.348 1_545 S
C32 C35 1.356 . S
C32 O62 1.325 1_556 S
N33 C36 1.314 . S
N33 C37 1.279 1_565 S
C34 C32 1.348 1_565 S
C34 C36 1.353 . S
C34 H76 0.929 . S
C35 C32 1.356 . S
C35 C37 1.358 . S
C35 H77 0.930 . S
C36 N33 1.314 . S
C36 C34 1.353 . S
C36 H78 0.930 . S
C37 N33 1.279 1_545 S
C37 C35 1.358 . S
C37 H79 0.930 . S
C38 C39 1.348 . S
C38 C40 1.356 . S
C38 O63 1.325 . S
C39 C38 1.348 . S
C39 C41 1.353 . S
C39 H80 0.929 . S
C40 C38 1.356 . S
C40 C42 1.358 . S
C40 H81 0.930 . S
C41 C39 1.353 . S
C41 N43 1.314 . S
C41 H82 0.930 . S
C42 C40 1.358 . S
C42 N43 1.279 . S
C42 H83 0.930 . S
N43 C41 1.314 . S
N43 C42 1.279 . S
C44 C46 1.353 . S
C44 N47 1.314 . S
C44 H50 0.930 . S
C45 N47 1.279 . S
C45 C48 1.358 . S
C45 H51 0.930 . S
C46 C44 1.353 . S
C46 C49 1.348 . S
C46 H84 0.929 . S
N47 Li2 1.990 . S
N47 C44 1.314 . S
N47 C45 1.279 . S
C48 C45 1.358 . S
C48 C49 1.356 . S
C48 H85 0.930 . S
C49 C46 1.348 . S
C49 C48 1.356 . S
H50 C44 0.930 . S
H51 C45 0.930 . S
C52 N53 1.289 1_545 S
C52 C54 1.353 . S
C52 H58 0.930 . S
N53 Li3 1.998 1_566 S
N53 C52 1.289 1_565 S
N53 C56 1.298 . S
C54 C52 1.353 . S
C54 C57 1.348 1_545 S
C54 H86 0.929 . S
C55 C56 1.358 . S
C55 C57 1.356 . S
C55 H87 0.930 . S
C56 N53 1.298 . S
C56 C55 1.358 . S
C56 H59 0.930 . S
C57 C54 1.348 1_565 S
C57 C55 1.356 . S
H58 C52 0.930 . S
H59 C56 0.930 . S
O60 Li0 1.956 . S
O60 Li1 1.970 . S
O60 Li2 1.961 1_545 S
O60 C4 1.325 . S
O61 Li0 1.970 . S
O61 Li1 1.956 . S
O61 Li3 1.961 . S
O61 C10 1.325 . S
O62 Li0 1.961 . S
O62 Li2 1.956 1_545 S
O62 Li3 1.970 . S
O62 C32 1.325 1_554 S
O63 Li1 1.961 1_565 S
O63 Li2 1.970 . S
O63 Li3 1.956 1_565 S
O63 C38 1.325 . S
H64 C6 0.929 . S
H65 C7 0.930 . S
H66 C8 0.930 . S
H67 C9 0.930 . S
H68 C11 0.930 . S
H69 C13 0.929 . S
H70 C14 0.930 . S
H71 C15 0.930 . S
H72 C18 0.930 . S
H73 C21 0.929 . S
H74 C26 0.929 1_565 S
H75 C27 0.930 . S
H76 C34 0.929 . S
H77 C35 0.930 . S
H78 C36 0.930 . S
H79 C37 0.930 . S
H80 C39 0.929 . S
H81 C40 0.930 . S
H82 C41 0.930 . S
H83 C42 0.930 . S
H84 C46 0.929 . S
H85 C48 0.930 . S
H86 C54 0.929 . S
H87 C55 0.930 . S
Li88 N105 1.990 . S
Li88 O148 1.956 . S
Li88 O149 1.970 . S
Li88 O150 1.961 . S
Li89 N113 1.990 . S
Li89 O148 1.970 . S
Li89 O149 1.956 . S
Li89 O151 1.961 . S
Li90 N135 1.990 . S
Li90 O148 1.961 . S
Li90 O150 1.956 . S
Li90 O151 1.970 . S
Li91 N141 1.990 . S
Li91 O149 1.961 . S
Li91 O150 1.970 . S
Li91 O151 1.956 . S
C92 C94 1.348 . S
C92 C95 1.356 . S
C92 O148 1.325 . S
N93 C96 1.314 . S
N93 C97 1.279 . S
C94 C92 1.348 . S
C94 C96 1.353 . S
C94 H152 0.929 . S
C95 C92 1.356 . S
C95 C97 1.358 . S
C95 H153 0.930 . S
C96 N93 1.314 . S
C96 C94 1.353 . S
C96 H154 0.930 . S
C97 N93 1.279 . S
C97 C95 1.358 . S
C97 H155 0.930 . S
C98 C101 1.348 . S
C98 C102 1.356 . S
C98 O149 1.325 . S
C99 N100 1.279 . S
C99 C102 1.358 . S
C99 H156 0.930 . S
N100 C99 1.279 . S
N100 C103 1.314 . S
C101 C98 1.348 . S
C101 C103 1.353 . S
C101 H157 0.929 . S
C102 C98 1.356 . S
C102 C99 1.358 . S
C102 H158 0.930 . S
C103 N100 1.314 . S
C103 C101 1.353 . S
C103 H159 0.930 . S
C104 N105 1.314 . S
C104 C109 1.353 . S
C104 H110 0.930 . S
N105 Li88 1.990 . S
N105 C104 1.314 . S
N105 C107 1.279 . S
C106 C107 1.358 . S
C106 C108 1.356 . S
C106 H160 0.930 . S
C107 N105 1.279 . S
C107 C106 1.358 . S
C107 H111 0.930 . S
C108 C106 1.356 . S
C108 C109 1.348 . S
C109 C104 1.353 . S
C109 C108 1.348 . S
C109 H161 0.929 . S
H110 C104 0.930 . S
H111 C107 0.930 . S
C112 N113 1.314 . S
C112 C114 1.353 . S
C112 H118 0.930 . S
N113 Li89 1.990 . S
N113 C112 1.314 . S
N113 C116 1.279 . S
C114 C112 1.353 . S
C114 C117 1.348 . S
C114 H162 0.929 . S
C115 C116 1.358 . S
C115 C117 1.356 . S
C115 H163 0.930 . S
C116 N113 1.279 . S
C116 C115 1.358 . S
C116 H119 0.930 . S
C117 C114 1.348 . S
C117 C115 1.356 . S
H118 C112 0.930 . S
H119 C116 0.930 . S
C120 C122 1.348 . S
C120 C123 1.356 . S
C120 O150 1.325 . S
N121 C124 1.314 . S
N121 C125 1.279 . S
C122 C120 1.348 . S
C122 C124 1.353 . S
C122 H164 0.929 . S
C123 C120 1.356 . S
C123 C125 1.358 . S
C123 H165 0.930 . S
C124 N121 1.314 . S
C124 C122 1.353 . S
C124 H166 0.930 . S
C125 N121 1.279 . S
C125 C123 1.358 . S
C125 H167 0.930 . S
C126 C127 1.348 . S
C126 C128 1.356 . S
C126 O151 1.325 . S
C127 C126 1.348 . S
C127 C129 1.353 . S
C127 H168 0.929 . S
C128 C126 1.356 . S
C128 C130 1.358 . S
C128 H169 0.930 . S
C129 C127 1.353 . S
C129 N131 1.314 . S
C129 H170 0.930 . S
C130 C128 1.358 . S
C130 N131 1.279 . S
C130 H171 0.930 . S
N131 C129 1.314 . S
N131 C130 1.279 . S
C132 C134 1.353 . S
C132 N135 1.314 . S
C132 H138 0.930 . S
C133 N135 1.279 . S
C133 C136 1.358 . S
C133 H139 0.930 . S
C134 C132 1.353 . S
C134 C137 1.348 . S
C134 H172 0.929 . S
N135 Li90 1.990 . S
N135 C132 1.314 . S
N135 C133 1.279 . S
C136 C133 1.358 . S
C136 C137 1.356 . S
C136 H173 0.930 . S
C137 C134 1.348 . S
C137 C136 1.356 . S
H138 C132 0.930 . S
H139 C133 0.930 . S
C140 N141 1.314 . S
C140 C142 1.353 . S
C140 H146 0.930 . S
N141 Li91 1.990 . S
N141 C140 1.314 . S
N141 C144 1.279 . S
C142 C140 1.353 . S
C142 C145 1.348 . S
C142 H174 0.929 . S
C143 C144 1.358 . S
C143 C145 1.356 . S
C143 H175 0.930 . S
C144 N141 1.279 . S
C144 C143 1.358 . S
C144 H147 0.930 . S
C145 C142 1.348 . S
C145 C143 1.356 . S
H146 C140 0.930 . S
H147 C144 0.930 . S
O148 Li88 1.956 . S
O148 Li89 1.970 . S
O148 Li90 1.961 . S
O148 C92 1.325 . S
O149 Li88 1.970 . S
O149 Li89 1.956 . S
O149 Li91 1.961 . S
O149 C98 1.325 . S
O150 Li88 1.961 . S
O150 Li90 1.956 . S
O150 Li91 1.970 . S
O150 C120 1.325 . S
O151 Li89 1.961 . S
O151 Li90 1.970 . S
O151 Li91 1.956 . S
O151 C126 1.325 . S
H152 C94 0.929 . S
H153 C95 0.930 . S
H154 C96 0.930 . S
H155 C97 0.930 . S
H156 C99 0.930 . S
H157 C101 0.929 . S
H158 C102 0.930 . S
H159 C103 0.930 . S
H160 C106 0.930 . S
H161 C109 0.929 . S
H162 C114 0.929 . S
H163 C115 0.930 . S
H164 C122 0.929 . S
H165 C123 0.930 . S
H166 C124 0.930 . S
H167 C125 0.930 . S
H168 C127 0.929 . S
H169 C128 0.930 . S
H170 C129 0.930 . S
H171 C130 0.930 . S
H172 C134 0.929 . S
H173 C136 0.930 . S
H174 C142 0.929 . S
H175 C143 0.930 . S
Li176 N193 1.990 . S
Li176 O236 1.956 1_655 S
Li176 O237 1.970 . S
Li176 O238 1.961 1_655 S
Li177 N201 1.985 . S
Li177 O236 1.970 . S
Li177 O237 1.956 1_455 S
Li177 O239 1.961 . S
Li178 N223 1.990 . S
Li178 O236 1.961 . S
Li178 O238 1.956 . S
Li178 O239 1.970 . S
Li179 N229 1.990 . S
Li179 O237 1.961 1_455 S
Li179 O238 1.970 . S
Li179 O239 1.956 . S
C180 C182 1.348 1_455 S
C180 C183 1.356 . S
C180 O236 1.325 . S
N181 C184 1.314 . S
N181 C185 1.279 1_655 S
C182 C180 1.348 1_655 S
C182 C184 1.353 . S
C182 H240 0.929 . S
C183 C180 1.356 . S
C183 C185 1.358 . S
C183 H241 0.930 . S
C184 N181 1.314 . S
C184 C182 1.353 . S
C184 H242 0.930 . S
C185 N181 1.279 1_455 S
C185 C183 1.358 . S
C185 H243 0.930 . S
C186 C189 1.348 . S
C186 C190 1.356 . S
C186 O237 1.325 . S
C187 N188 1.279 . S
C187 C190 1.358 . S
C187 H244 0.930 . S
N188 C187 1.279 . S
N188 C191 1.314 . S
C189 C186 1.348 . S
C189 C191 1.353 . S
C189 H245 0.929 . S
C190 C186 1.356 . S
C190 C187 1.358 . S
C190 H246 0.930 . S
C191 N188 1.314 . S
C191 C189 1.353 . S
C191 H247 0.930 . S
C192 N193 1.314 . S
C192 C197 1.353 . S
C192 H198 0.930 . S
N193 Li176 1.990 . S
N193 C192 1.314 . S
N193 C195 1.279 . S
C194 C195 1.358 . S
C194 C196 1.356 . S
C194 H248 0.930 . S
C195 N193 1.279 . S
C195 C194 1.358 . S
C195 H199 0.930 . S
C196 C194 1.356 . S
C196 C197 1.348 . S
C197 C192 1.353 . S
C197 C196 1.348 . S
C197 H249 0.929 . S
H198 C192 0.930 . S
H199 C195 0.930 . S
C200 N201 1.334 . S
C200 C202 1.353 . S
C200 H206 0.930 . S
N201 Li177 1.985 . S
N201 C200 1.334 . S
N201 C204 1.266 1_455 S
C202 C200 1.353 . S
C202 C205 1.348 1_455 S
C202 H250 0.929 . S
C203 C204 1.358 . S
C203 C205 1.356 . S
C203 H251 0.930 . S
C204 N201 1.266 1_655 S
C204 C203 1.358 . S
C204 H207 0.930 . S
C205 C202 1.348 1_655 S
C205 C203 1.356 . S
H206 C200 0.930 . S
H207 C204 0.930 . S
C208 C210 1.348 . S
C208 C211 1.356 . S
C208 O238 1.325 . S
N209 C212 1.314 . S
N209 C213 1.279 . S
C210 C208 1.348 . S
C210 C212 1.353 . S
C210 H252 0.929 . S
C211 C208 1.356 . S
C211 C213 1.358 . S
C211 H253 0.930 . S
C212 N209 1.314 . S
C212 C210 1.353 . S
C212 H254 0.930 . S
C213 N209 1.279 . S
C213 C211 1.358 . S
C213 H255 0.930 . S
C214 C215 1.348 . S
C214 C216 1.356 . S
C214 O239 1.325 . S
C215 C214 1.348 . S
C215 C217 1.353 . S
C215 H256 0.929 . S
C216 C214 1.356 . S
C216 C218 1.358 . S
C216 H257 0.930 . S
C217 C215 1.353 . S
C217 N219 1.314 . S
C217 H258 0.930 . S
C218 C216 1.358 . S
C218 N219 1.279 . S
C218 H259 0.930 . S
N219 C217 1.314 . S
N219 C218 1.279 . S
C220 C222 1.353 . S
C220 N223 1.314 . S
C220 H226 0.930 . S
C221 N223 1.279 . S
C221 C224 1.358 . S
C221 H227 0.930 . S
C222 C220 1.353 . S
C222 C225 1.348 . S
C222 H260 0.929 . S
N223 Li178 1.990 . S
N223 C220 1.314 . S
N223 C221 1.279 . S
C224 C221 1.358 . S
C224 C225 1.356 . S
C224 H261 0.930 . S
C225 C222 1.348 . S
C225 C224 1.356 . S
H226 C220 0.930 . S
H227 C221 0.930 . S
C228 N229 1.314 . S
C228 C230 1.353 . S
C228 H234 0.930 1_455 S
N229 Li179 1.990 . S
N229 C228 1.314 . S
N229 C232 1.279 . S
C230 C228 1.353 . S
C230 C233 1.348 . S
C230 H262 0.929 1_455 S
C231 C232 1.358 . S
C231 C233 1.356 . S
C231 H263 0.930 . S
C232 N229 1.279 . S
C232 C231 1.358 . S
C232 H235 0.930 . S
C233 C230 1.348 . S
C233 C231 1.356 . S
H234 C228 0.930 1_655 S
H235 C232 0.930 . S
O236 Li176 1.956 1_455 S
O236 Li177 1.970 . S
O236 Li178 1.961 . S
O236 C180 1.325 . S
O237 Li176 1.970 . S
O237 Li177 1.956 1_655 S
O237 Li179 1.961 1_655 S
O237 C186 1.325 . S
O238 Li176 1.961 1_455 S
O238 Li178 1.956 . S
O238 Li179 1.970 . S
O238 C208 1.325 . S
O239 Li177 1.961 . S
O239 Li178 1.970 . S
O239 Li179 1.956 . S
O239 C214 1.325 . S
H240 C182 0.929 . S
H241 C183 0.930 . S
H242 C184 0.930 . S
H243 C185 0.930 . S
H244 C187 0.930 . S
H245 C189 0.929 . S
H246 C190 0.930 . S
H247 C191 0.930 . S
H248 C194 0.930 . S
H249 C197 0.929 . S
H250 C202 0.929 . S
H251 C203 0.930 . S
H252 C210 0.929 . S
H253 C211 0.930 . S
H254 C212 0.930 . S
H255 C213 0.930 . S
H256 C215 0.929 . S
H257 C216 0.930 . S
H258 C217 0.930 . S
H259 C218 0.930 . S
H260 C222 0.929 . S
H261 C224 0.930 . S
H262 C230 0.929 1_655 S
H263 C231 0.930 . S
Li264 N281 1.975 1_545 S
Li264 O324 1.956 1_545 S
Li264 O325 1.970 . S
Li264 O326 1.961 . S
Li265 N289 1.990 . S
Li265 O324 1.970 . S
Li265 O325 1.956 1_565 S
Li265 O327 1.961 1_565 S
Li266 N311 1.990 . S
Li266 O324 1.961 1_545 S
Li266 O326 1.956 . S
Li266 O327 1.970 . S
Li267 N317 1.990 . S
Li267 O325 1.961 . S
Li267 O326 1.970 . S
Li267 O327 1.956 . S
C268 C270 1.348 . S
C268 C271 1.356 . S
C268 O324 1.325 . S
N269 C272 1.314 . S
N269 C273 1.279 . S
C270 C268 1.348 . S
C270 C272 1.353 . S
C270 H328 0.929 . S
C271 C268 1.356 . S
C271 C273 1.358 . S
C271 H329 0.930 . S
C272 N269 1.314 . S
C272 C270 1.353 . S
C272 H330 0.930 . S
C273 N269 1.279 . S
C273 C271 1.358 . S
C273 H331 0.930 . S
C274 C277 1.348 1_545 S
C274 C278 1.356 . S
C274 O325 1.325 . S
C275 N276 1.279 1_545 S
C275 C278 1.358 . S
C275 H332 0.930 . S
N276 C275 1.279 1_565 S
N276 C279 1.314 . S
C277 C274 1.348 1_565 S
C277 C279 1.353 . S
C277 H333 0.929 . S
C278 C274 1.356 . S
C278 C275 1.358 . S
C278 H334 0.930 . S
C279 N276 1.314 . S
C279 C277 1.353 . S
C279 H335 0.930 . S
C280 N281 1.294 1_545 S
C280 C285 1.353 . S
C280 H286 0.930 . S
N281 Li264 1.975 1_565 S
N281 C280 1.294 1_565 S
N281 C283 1.316 . S
C282 C283 1.358 . S
C282 C284 1.356 . S
C282 H336 0.930 . S
C283 N281 1.316 . S
C283 C282 1.358 . S
C283 H287 0.930 . S
C284 C282 1.356 . S
C284 C285 1.348 1_565 S
C285 C280 1.353 . S
C285 C284 1.348 1_545 S
C285 H337 0.929 . S
H286 C280 0.930 . S
H287 C283 0.930 . S
C288 N289 1.314 . S
C288 C290 1.353 . S
C288 H294 0.930 . S
N289 Li265 1.990 . S
N289 C288 1.314 . S
N289 C292 1.279 . S
C290 C288 1.353 . S
C290 C293 1.348 . S
C290 H338 0.929 . S
C291 C292 1.358 . S
C291 C293 1.356 . S
C291 H339 0.930 . S
C292 N289 1.279 . S
C292 C291 1.358 . S
C292 H295 0.930 . S
C293 C290 1.348 . S
C293 C291 1.356 . S
H294 C288 0.930 . S
H295 C292 0.930 . S
C296 C298 1.348 . S
C296 C299 1.356 . S
C296 O326 1.325 . S
N297 C300 1.314 . S
N297 C301 1.279 . S
C298 C296 1.348 . S
C298 C300 1.353 . S
C298 H340 0.929 . S
C299 C296 1.356 . S
C299 C301 1.358 . S
C299 H341 0.930 . S
C300 N297 1.314 . S
C300 C298 1.353 . S
C300 H342 0.930 . S
C301 N297 1.279 . S
C301 C299 1.358 . S
C301 H343 0.930 . S
C302 C303 1.348 . S
C302 C304 1.356 . S
C302 O327 1.325 . S
C303 C302 1.348 . S
C303 C305 1.353 . S
C303 H344 0.929 . S
C304 C302 1.356 . S
C304 C306 1.358 . S
C304 H345 0.930 . S
C305 C303 1.353 . S
C305 N307 1.314 . S
C305 H346 0.930 . S
C306 C304 1.358 . S
C306 N307 1.279 . S
C306 H347 0.930 . S
N307 C305 1.314 . S
N307 C306 1.279 . S
C308 C310 1.353 . S
C308 N311 1.314 . S
C308 H314 0.930 1_545 S
C309 N311 1.279 . S
C309 C312 1.358 . S
C309 H315 0.930 . S
C310 C308 1.353 . S
C310 C313 1.348 . S
C310 H348 0.929 1_545 S
N311 Li266 1.990 . S
N311 C308 1.314 . S
N311 C309 1.279 . S
C312 C309 1.358 . S
C312 C313 1.356 . S
C312 H349 0.930 . S
C313 C310 1.348 . S
C313 C312 1.356 . S
H314 C308 0.930 1_565 S
H315 C309 0.930 . S
C316 N317 1.314 . S
C316 C318 1.353 . S
C316 H322 0.930 . S
N317 Li267 1.990 . S
N317 C316 1.314 . S
N317 C320 1.279 . S
C318 C316 1.353 . S
C318 C321 1.348 . S
C318 H350 0.929 . S
C319 C320 1.358 . S
C319 C321 1.356 . S
C319 H351 0.930 . S
C320 N317 1.279 . S
C320 C319 1.358 . S
C320 H323 0.930 . S
C321 C318 1.348 . S
C321 C319 1.356 . S
H322 C316 0.930 . S
H323 C320 0.930 . S
O324 Li264 1.956 1_565 S
O324 Li265 1.970 . S
O324 Li266 1.961 1_565 S
O324 C268 1.325 . S
O325 Li264 1.970 . S
O325 Li265 1.956 1_545 S
O325 Li267 1.961 . S
O325 C274 1.325 . S
O326 Li264 1.961 . S
O326 Li266 1.956 . S
O326 Li267 1.970 . S
O326 C296 1.325 . S
O327 Li265 1.961 1_545 S
O327 Li266 1.970 . S
O327 Li267 1.956 . S
O327 C302 1.325 . S
H328 C270 0.929 . S
H329 C271 0.930 . S
H330 C272 0.930 . S
H331 C273 0.930 . S
H332 C275 0.930 . S
H333 C277 0.929 . S
H334 C278 0.930 . S
H335 C279 0.930 . S
H336 C282 0.930 . S
H337 C285 0.929 . S
H338 C290 0.929 . S
H339 C291 0.930 . S
H340 C298 0.929 . S
H341 C299 0.930 . S
H342 C300 0.930 . S
H343 C301 0.930 . S
H344 C303 0.929 . S
H345 C304 0.930 . S
H346 C305 0.930 . S
H347 C306 0.930 . S
H348 C310 0.929 1_565 S
H349 C312 0.930 . S
H350 C318 0.929 . S
H351 C319 0.930 . S
Li352 N369 1.990 . S
Li352 O412 1.956 . S
Li352 O413 1.970 . S
Li352 O414 1.961 . S
Li353 N377 1.990 . S
Li353 O412 1.970 . S
Li353 O413 1.956 . S
Li353 O415 1.961 . S
Li354 N399 1.990 . S
Li354 O412 1.961 . S
Li354 O414 1.956 . S
Li354 O415 1.970 . S
Li355 N405 1.990 . S
Li355 O413 1.961 . S
Li355 O414 1.970 . S
Li355 O415 1.956 . S
C356 C358 1.348 . S
C356 C359 1.356 . S
C356 O412 1.325 . S
N357 C360 1.314 . S
N357 C361 1.279 . S
C358 C356 1.348 . S
C358 C360 1.353 . S
C358 H416 0.929 . S
C359 C356 1.356 . S
C359 C361 1.358 . S
C359 H417 0.930 . S
C360 N357 1.314 . S
C360 C358 1.353 . S
C360 H418 0.930 . S
C361 N357 1.279 . S
C361 C359 1.358 . S
C361 H419 0.930 . S
C362 C365 1.348 . S
C362 C366 1.356 . S
C362 O413 1.325 . S
C363 N364 1.279 . S
C363 C366 1.358 . S
C363 H420 0.930 . S
N364 C363 1.279 . S
N364 C367 1.314 . S
C365 C362 1.348 . S
C365 C367 1.353 . S
C365 H421 0.929 . S
C366 C362 1.356 . S
C366 C363 1.358 . S
C366 H422 0.930 . S
C367 N364 1.314 . S
C367 C365 1.353 . S
C367 H423 0.930 . S
C368 N369 1.314 . S
C368 C373 1.353 . S
C368 H374 0.930 . S
N369 Li352 1.990 . S
N369 C368 1.314 . S
N369 C371 1.279 . S
C370 C371 1.358 . S
C370 C372 1.356 . S
C370 H424 0.930 . S
C371 N369 1.279 . S
C371 C370 1.358 . S
C371 H375 0.930 . S
C372 C370 1.356 . S
C372 C373 1.348 . S
C373 C368 1.353 . S
C373 C372 1.348 . S
C373 H425 0.929 . S
H374 C368 0.930 . S
H375 C371 0.930 . S
C376 N377 1.314 . S
C376 C378 1.353 . S
C376 H382 0.930 . S
N377 Li353 1.990 . S
N377 C376 1.314 . S
N377 C380 1.279 . S
C378 C376 1.353 . S
C378 C381 1.348 . S
C378 H426 0.929 . S
C379 C380 1.358 . S
C379 C381 1.356 . S
C379 H427 0.930 . S
C380 N377 1.279 . S
C380 C379 1.358 . S
C380 H383 0.930 . S
C381 C378 1.348 . S
C381 C379 1.356 . S
H382 C376 0.930 . S
H383 C380 0.930 . S
C384 C386 1.348 . S
C384 C387 1.356 . S
C384 O414 1.325 . S
N385 C388 1.314 . S
N385 C389 1.279 . S
C386 C384 1.348 . S
C386 C388 1.353 . S
C386 H428 0.929 . S
C387 C384 1.356 . S
C387 C389 1.358 . S
C387 H429 0.930 . S
C388 N385 1.314 . S
C388 C386 1.353 . S
C388 H430 0.930 . S
C389 N385 1.279 . S
C389 C387 1.358 . S
C389 H431 0.930 . S
C390 C391 1.348 . S
C390 C392 1.356 . S
C390 O415 1.325 . S
C391 C390 1.348 . S
C391 C393 1.353 . S
C391 H432 0.929 . S
C392 C390 1.356 . S
C392 C394 1.358 . S
C392 H433 0.930 . S
C393 C391 1.353 . S
C393 N395 1.314 . S
C393 H434 0.930 . S
C394 C392 1.358 . S
C394 N395 1.279 . S
C394 H435 0.930 . S
N395 C393 1.314 . S
N395 C394 1.279 . S
C396 C398 1.353 . S
C396 N399 1.314 . S
C396 H402 0.930 . S
C397 N399 1.279 . S
C397 C400 1.358 . S
C397 H403 0.930 . S
C398 C396 1.353 . S
C398 C401 1.348 . S
C398 H436 0.929 . S
N399 Li354 1.990 . S
N399 C396 1.314 . S
N399 C397 1.279 . S
C400 C397 1.358 . S
C400 C401 1.356 . S
C400 H437 0.930 . S
C401 C398 1.348 . S
C401 C400 1.356 . S
H402 C396 0.930 . S
H403 C397 0.930 . S
C404 N405 1.314 . S
C404 C406 1.353 . S
C404 H410 0.930 . S
N405 Li355 1.990 . S
N405 C404 1.314 . S
N405 C408 1.279 . S
C406 C404 1.353 . S
C406 C409 1.348 . S
C406 H438 0.929 . S
C407 C408 1.358 . S
C407 C409 1.356 . S
C407 H439 0.930 . S
C408 N405 1.279 . S
C408 C407 1.358 . S
C408 H411 0.930 . S
C409 C406 1.348 . S
C409 C407 1.356 . S
H410 C404 0.930 . S
H411 C408 0.930 . S
O412 Li352 1.956 . S
O412 Li353 1.970 . S
O412 Li354 1.961 . S
O412 C356 1.325 . S
O413 Li352 1.970 . S
O413 Li353 1.956 . S
O413 Li355 1.961 . S
O413 C362 1.325 . S
O414 Li352 1.961 . S
O414 Li354 1.956 . S
O414 Li355 1.970 . S
O414 C384 1.325 . S
O415 Li353 1.961 . S
O415 Li354 1.970 . S
O415 Li355 1.956 . S
O415 C390 1.325 . S
H416 C358 0.929 . S
H417 C359 0.930 . S
H418 C360 0.930 . S
H419 C361 0.930 . S
H420 C363 0.930 . S
H421 C365 0.929 . S
H422 C366 0.930 . S
H423 C367 0.930 . S
H424 C370 0.930 . S
H425 C373 0.929 . S
H426 C378 0.929 . S
H427 C379 0.930 . S
H428 C386 0.929 . S
H429 C387 0.930 . S
H430 C388 0.930 . S
H431 C389 0.930 . S
H432 C391 0.929 . S
H433 C392 0.930 . S
H434 C393 0.930 . S
H435 C394 0.930 . S
H436 C398 0.929 . S
H437 C400 0.930 . S
H438 C406 0.929 . S
H439 C407 0.930 . S
Li440 N457 1.990 . S
Li440 O500 1.956 . S
Li440 O501 1.970 . S
Li440 O502 1.961 1_455 S
Li441 N465 1.990 . S
Li441 O500 1.970 . S
Li441 O501 1.956 . S
Li441 O503 1.961 . S
Li442 N487 2.002 . S
Li442 O500 1.961 . S
Li442 O502 1.956 1_455 S
Li442 O503 1.970 . S
Li443 N493 1.990 . S
Li443 O501 1.961 1_655 S
Li443 O502 1.970 . S
Li443 O503 1.956 1_655 S
C444 C446 1.348 . S
C444 C447 1.356 . S
C444 O500 1.325 . S
N445 C448 1.314 . S
N445 C449 1.279 . S
C446 C444 1.348 . S
C446 C448 1.353 . S
C446 H504 0.929 . S
C447 C444 1.356 . S
C447 C449 1.358 . S
C447 H505 0.930 . S
C448 N445 1.314 . S
C448 C446 1.353 . S
C448 H506 0.930 . S
C449 N445 1.279 . S
C449 C447 1.358 . S
C449 H507 0.930 . S
C450 C453 1.326 1_556 S
C450 C454 1.356 . S
C450 O501 1.325 . S
C451 N452 1.279 1_556 S
C451 C454 1.358 . S
C451 H508 0.930 . S
N452 C451 1.279 1_554 S
N452 C455 1.314 . S
C453 C450 1.326 1_554 S
C453 C455 1.373 . S
C453 H509 0.932 . S
C454 C450 1.356 . S
C454 C451 1.358 . S
C454 H510 0.930 . S
C455 N452 1.314 . S
C455 C453 1.373 . S
C455 H511 0.930 . S
C456 N457 1.314 1_554 S
C456 C461 1.353 . S
C456 H462 0.930 1_454 S
N457 Li440 1.990 . S
N457 C456 1.314 1_556 S
N457 C459 1.279 . S
C458 C459 1.358 1_554 S
C458 C460 1.356 . S
C458 H512 0.930 . S
C459 N457 1.279 . S
C459 C458 1.358 1_556 S
C459 H463 0.930 . S
C460 C458 1.356 . S
C460 C461 1.348 . S
C461 C456 1.353 . S
C461 C460 1.348 . S
C461 H513 0.929 1_455 S
H462 C456 0.930 1_656 S
H463 C459 0.930 . S
C464 N465 1.314 . S
C464 C466 1.353 . S
C464 H470 0.930 . S
N465 Li441 1.990 . S
N465 C464 1.314 . S
N465 C468 1.279 . S
C466 C464 1.353 . S
C466 C469 1.348 . S
C466 H514 0.929 . S
C467 C468 1.358 . S
C467 C469 1.356 . S
C467 H515 0.930 . S
C468 N465 1.279 . S
C468 C467 1.358 . S
C468 H471 0.930 . S
C469 C466 1.348 . S
C469 C467 1.356 . S
H470 C464 0.930 . S
H471 C468 0.930 . S
C472 C474 1.348 . S
C472 C475 1.356 . S
C472 O502 1.325 . S
N473 C476 1.314 . S
N473 C477 1.279 . S
C474 C472 1.348 . S
C474 C476 1.353 . S
C474 H516 0.929 . S
C475 C472 1.356 . S
C475 C477 1.358 . S
C475 H517 0.930 . S
C476 N473 1.314 . S
C476 C474 1.353 . S
C476 H518 0.930 . S
C477 N473 1.279 . S
C477 C475 1.358 . S
C477 H519 0.930 . S
C478 C479 1.348 1_455 S
C478 C480 1.356 . S
C478 O503 1.325 . S
C479 C478 1.348 1_655 S
C479 C481 1.353 . S
C479 H520 0.929 . S
C480 C478 1.356 . S
C480 C482 1.358 . S
C480 H521 0.930 . S
C481 C479 1.353 . S
C481 N483 1.314 . S
C481 H522 0.930 . S
C482 C480 1.358 . S
C482 N483 1.279 1_455 S
C482 H523 0.930 . S
N483 C481 1.314 . S
N483 C482 1.279 1_655 S
C484 C486 1.353 . S
C484 N487 1.330 . S
C484 H490 0.930 . S
C485 N487 1.252 1_655 S
C485 C488 1.358 . S
C485 H491 0.930 . S
C486 C484 1.353 . S
C486 C489 1.348 1_455 S
C486 H524 0.929 . S
N487 Li442 2.002 . S
N487 C484 1.330 . S
N487 C485 1.252 1_455 S
C488 C485 1.358 . S
C488 C489 1.356 . S
C488 H525 0.930 . S
C489 C486 1.348 1_655 S
C489 C488 1.356 . S
H490 C484 0.930 . S
H491 C485 0.930 . S
C492 N493 1.314 . S
C492 C494 1.353 . S
C492 H498 0.930 . S
N493 Li443 1.990 . S
N493 C492 1.314 . S
N493 C496 1.279 . S
C494 C492 1.353 . S
C494 C497 1.348 . S
C494 H526 0.929 . S
C495 C496 1.358 . S
C495 C497 1.356 . S
C495 H527 0.930 . S
C496 N493 1.279 . S
C496 C495 1.358 . S
C496 H499 0.930 . S
C497 C494 1.348 . S
C497 C495 1.356 . S
H498 C492 0.930 . S
H499 C496 0.930 . S
O500 Li440 1.956 . S
O500 Li441 1.970 . S
O500 Li442 1.961 . S
O500 C444 1.325 . S
O501 Li440 1.970 . S
O501 Li441 1.956 . S
O501 Li443 1.961 1_455 S
O501 C450 1.325 . S
O502 Li440 1.961 1_655 S
O502 Li442 1.956 1_655 S
O502 Li443 1.970 . S
O502 C472 1.325 . S
O503 Li441 1.961 . S
O503 Li442 1.970 . S
O503 Li443 1.956 1_455 S
O503 C478 1.325 . S
H504 C446 0.929 . S
H505 C447 0.930 . S
H506 C448 0.930 . S
H507 C449 0.930 . S
H508 C451 0.930 . S
H509 C453 0.932 . S
H510 C454 0.930 . S
H511 C455 0.930 . S
H512 C458 0.930 . S
H513 C461 0.929 1_655 S
H514 C466 0.929 . S
H515 C467 0.930 . S
H516 C474 0.929 . S
H517 C475 0.930 . S
H518 C476 0.930 . S
H519 C477 0.930 . S
H520 C479 0.929 . S
H521 C480 0.930 . S
H522 C481 0.930 . S
H523 C482 0.930 . S
H524 C486 0.929 . S
H525 C488 0.930 . S
H526 C494 0.929 . S
H527 C495 0.930 . S
H528 C534 0.930 . S
H529 C537 0.930 . S
H530 C538 0.930 . S
H531 C539 0.930 . S
H532 C542 0.930 . S
H533 C543 0.930 . S
C534 H528 0.930 . S
C534 C535 1.355 . S
C534 C536 1.415 . S
C535 C534 1.355 . S
C535 C537 1.419 . S
C536 C534 1.415 . S
C536 C541 1.425 . S
C536 C543 1.409 . S
C537 H529 0.930 . S
C537 C535 1.419 . S
C537 C538 1.362 . S
C538 H530 0.930 . S
C538 C537 1.362 . S
C538 C541 1.409 . S
C539 H531 0.930 . S
C539 C540 1.355 . S
C539 C541 1.415 . S
C540 C539 1.355 . S
C540 C542 1.419 . S
C541 C536 1.425 . S
C541 C538 1.409 . S
C541 C539 1.415 . S
C542 H532 0.930 . S
C542 C540 1.419 . S
C542 C543 1.362 . S
C543 H533 0.930 . S
C543 C536 1.409 . S
C543 C542 1.362 . S
H544 C550 0.930 . S
H545 C553 0.930 . S
H546 C554 0.930 . S
H547 C555 0.930 . S
H548 C558 0.930 . S
H549 C559 0.930 . S
C550 H544 0.930 . S
C550 C551 1.355 . S
C550 C552 1.415 . S
C551 C550 1.355 . S
C551 C553 1.419 . S
C552 C550 1.415 . S
C552 C557 1.425 . S
C552 C559 1.409 . S
C553 H545 0.930 . S
C553 C551 1.419 . S
C553 C554 1.362 . S
C554 H546 0.930 . S
C554 C553 1.362 . S
C554 C557 1.409 . S
C555 H547 0.930 . S
C555 C556 1.355 . S
C555 C557 1.415 . S
C556 C555 1.355 . S
C556 C558 1.419 . S
C557 C552 1.425 . S
C557 C554 1.409 . S
C557 C555 1.415 . S
C558 H548 0.930 . S
C558 C556 1.419 . S
C558 C559 1.362 . S
C559 H549 0.930 . S
C559 C552 1.409 . S
C559 C558 1.362 . S
H560 C566 0.930 . S
H561 C569 0.930 . S
H562 C570 0.930 . S
H563 C571 0.930 . S
H564 C574 0.930 . S
H565 C575 0.930 . S
C566 H560 0.930 . S
C566 C567 1.355 1_455 S
C566 C568 1.415 . S
C567 C566 1.355 1_655 S
C567 C569 1.419 . S
C568 C566 1.415 . S
C568 C573 1.425 1_455 S
C568 C575 1.409 . S
C569 H561 0.930 . S
C569 C567 1.419 . S
C569 C570 1.362 . S
C570 H562 0.930 . S
C570 C569 1.362 . S
C570 C573 1.409 . S
C571 H563 0.930 . S
C571 C572 1.355 . S
C571 C573 1.415 . S
C572 C571 1.355 . S
C572 C574 1.419 1_655 S
C573 C568 1.425 1_655 S
C573 C570 1.409 . S
C573 C571 1.415 . S
C574 H564 0.930 . S
C574 C572 1.419 1_455 S
C574 C575 1.362 . S
C575 H565 0.930 . S
C575 C568 1.409 . S
C575 C574 1.362 . S
H576 C582 0.930 . S
H577 C585 0.930 . S
H578 C586 0.930 . S
H579 C587 0.930 . S
H580 C590 0.930 . S
H581 C591 0.930 . S
C582 H576 0.930 . S
C582 C583 1.355 1_545 S
C582 C584 1.427 1_545 S
C583 C582 1.355 1_565 S
C583 C585 1.419 . S
C584 C582 1.427 1_565 S
C584 C589 1.429 . S
C584 C591 1.394 1_565 S
C585 H577 0.930 . S
C585 C583 1.419 . S
C585 C586 1.362 . S
C586 H578 0.930 . S
C586 C585 1.362 . S
C586 C589 1.409 . S
C587 H579 0.930 . S
C587 C588 1.355 . S
C587 C589 1.415 . S
C588 C587 1.355 . S
C588 C590 1.419 1_565 S
C589 C584 1.429 . S
C589 C586 1.409 . S
C589 C587 1.415 . S
C590 H580 0.930 . S
C590 C588 1.419 1_545 S
C590 C591 1.362 . S
C591 H581 0.930 . S
C591 C584 1.394 1_545 S
C591 C590 1.362 . S
H592 C598 0.930 . S
H593 C601 0.930 . S
H594 C602 0.930 . S
H595 C603 0.930 . S
H596 C606 0.930 . S
H597 C607 0.930 . S
C598 H592 0.930 . S
C598 C599 1.355 1_556 S
C598 C600 1.415 . S
C599 C598 1.355 1_554 S
C599 C601 1.419 . S
C600 C598 1.415 . S
C600 C605 1.425 . S
C600 C607 1.409 . S
C601 H593 0.930 . S
C601 C599 1.419 . S
C601 C602 1.362 1_554 S
C602 H594 0.930 . S
C602 C601 1.362 1_556 S
C602 C605 1.409 . S
C603 H595 0.930 . S
C603 C604 1.355 . S
C603 C605 1.415 . S
C604 C603 1.355 . S
C604 C606 1.419 . S
C605 C600 1.425 . S
C605 C602 1.409 . S
C605 C603 1.415 . S
C606 H596 0.930 . S
C606 C604 1.419 . S
C606 C607 1.362 . S
C607 H597 0.930 . S
C607 C600 1.409 . S
C607 C606 1.362 . S
H608 C614 0.930 . S
H609 C617 0.930 . S
H610 C618 0.930 . S
H611 C619 0.930 . S
H612 C622 0.930 . S
H613 C623 0.930 . S
C614 H608 0.930 . S
C614 C615 1.355 . S
C614 C616 1.415 . S
C615 C614 1.355 . S
C615 C617 1.419 . S
C616 C614 1.415 . S
C616 C621 1.425 . S
C616 C623 1.409 . S
C617 H609 0.930 . S
C617 C615 1.419 . S
C617 C618 1.362 . S
C618 H610 0.930 . S
C618 C617 1.362 . S
C618 C621 1.409 . S
C619 H611 0.930 . S
C619 C620 1.355 . S
C619 C621 1.415 . S
C620 C619 1.355 . S
C620 C622 1.419 . S
C621 C616 1.425 . S
C621 C618 1.409 . S
C621 C619 1.415 . S
C622 H612 0.930 . S
C622 C620 1.419 . S
C622 C623 1.362 . S
C623 H613 0.930 . S
C623 C616 1.409 . S
C623 C622 1.362 . S
H624 C630 0.930 . S
H625 C633 0.930 . S
H626 C634 0.930 . S
H627 C635 0.930 . S
H628 C638 0.930 . S
H629 C639 0.930 . S
C630 H624 0.930 . S
C630 C631 1.355 . S
C630 C632 1.415 . S
C631 C630 1.355 . S
C631 C633 1.419 . S
C632 C630 1.415 . S
C632 C637 1.425 . S
C632 C639 1.409 . S
C633 H625 0.930 . S
C633 C631 1.419 . S
C633 C634 1.362 . S
C634 H626 0.930 . S
C634 C633 1.362 . S
C634 C637 1.409 . S
C635 H627 0.930 . S
C635 C636 1.355 . S
C635 C637 1.415 . S
C636 C635 1.355 . S
C636 C638 1.419 . S
C637 C632 1.425 . S
C637 C634 1.409 . S
C637 C635 1.415 . S
C638 H628 0.930 . S
C638 C636 1.419 . S
C638 C639 1.362 . S
C639 H629 0.930 . S
C639 C632 1.409 . S
C639 C638 1.362 . S
H640 C646 0.930 . S
H641 C649 0.930 . S
H642 C650 0.930 . S
H643 C651 0.930 . S
H644 C654 0.930 . S
H645 C655 0.930 . S
C646 H640 0.930 . S
C646 C647 1.355 . S
C646 C648 1.415 . S
C647 C646 1.355 . S
C647 C649 1.419 . S
C648 C646 1.415 . S
C648 C653 1.425 . S
C648 C655 1.409 . S
C649 H641 0.930 . S
C649 C647 1.419 . S
C649 C650 1.362 . S
C650 H642 0.930 . S
C650 C649 1.362 . S
C650 C653 1.409 . S
C651 H643 0.930 . S
C651 C652 1.355 . S
C651 C653 1.415 . S
C652 C651 1.355 . S
C652 C654 1.419 . S
C653 C648 1.425 . S
C653 C650 1.409 . S
C653 C651 1.415 . S
C654 H644 0.930 . S
C654 C652 1.419 . S
C654 C655 1.362 . S
C655 H645 0.930 . S
C655 C648 1.409 . S
C655 C654 1.362 . S
H656 C662 0.930 . S
H657 C665 0.930 . S
H658 C666 0.930 . S
H659 C667 0.930 . S
H660 C670 0.930 . S
H661 C671 0.930 . S
C662 H656 0.930 . S
C662 C663 1.355 . S
C662 C664 1.415 . S
C663 C662 1.355 . S
C663 C665 1.419 . S
C664 C662 1.415 . S
C664 C669 1.425 . S
C664 C671 1.409 . S
C665 H657 0.930 . S
C665 C663 1.419 . S
C665 C666 1.362 . S
C666 H658 0.930 . S
C666 C665 1.362 . S
C666 C669 1.409 . S
C667 H659 0.930 . S
C667 C668 1.355 . S
C667 C669 1.415 . S
C668 C667 1.355 . S
C668 C670 1.419 . S
C669 C664 1.425 . S
C669 C666 1.409 . S
C669 C667 1.415 . S
C670 H660 0.930 . S
C670 C668 1.419 . S
C670 C671 1.362 . S
C671 H661 0.930 . S
C671 C664 1.409 . S
C671 C670 1.362 . S
H672 C678 0.930 . S
H673 C681 0.930 . S
H674 C682 0.930 . S
H675 C683 0.930 . S
H676 C686 0.930 . S
H677 C687 0.930 . S
C678 H672 0.930 . S
C678 C679 1.355 . S
C678 C680 1.415 . S
C679 C678 1.355 . S
C679 C681 1.419 . S
C680 C678 1.415 . S
C680 C685 1.425 . S
C680 C687 1.409 . S
C681 H673 0.930 . S
C681 C679 1.419 . S
C681 C682 1.362 . S
C682 H674 0.930 . S
C682 C681 1.362 . S
C682 C685 1.409 . S
C683 H675 0.930 . S
C683 C684 1.355 . S
C683 C685 1.415 . S
C684 C683 1.355 . S
C684 C686 1.419 . S
C685 C680 1.425 . S
C685 C682 1.409 . S
C685 C683 1.415 . S
C686 H676 0.930 . S
C686 C684 1.419 . S
C686 C687 1.362 . S
C687 H677 0.930 . S
C687 C680 1.409 . S
C687 C686 1.362 . S
H688 C694 0.930 . S
H689 C697 0.930 . S
H690 C698 0.930 . S
H691 C699 0.930 . S
H692 C702 0.930 . S
H693 C703 0.930 . S
C694 H688 0.930 . S
C694 C695 1.355 . S
C694 C696 1.415 . S
C695 C694 1.355 . S
C695 C697 1.419 . S
C696 C694 1.415 . S
C696 C701 1.425 . S
C696 C703 1.409 . S
C697 H689 0.930 . S
C697 C695 1.419 . S
C697 C698 1.362 . S
C698 H690 0.930 . S
C698 C697 1.362 . S
C698 C701 1.409 . S
C699 H691 0.930 . S
C699 C700 1.355 . S
C699 C701 1.415 . S
C700 C699 1.355 . S
C700 C702 1.419 . S
C701 C696 1.425 . S
C701 C698 1.409 . S
C701 C699 1.415 . S
C702 H692 0.930 . S
C702 C700 1.419 . S
C702 C703 1.362 . S
C703 H693 0.930 . S
C703 C696 1.409 . S
C703 C702 1.362 . S
H704 C710 0.930 . S
H705 C713 0.930 . S
H706 C714 0.930 . S
H707 C715 0.930 . S
H708 C718 0.930 . S
H709 C719 0.930 . S
C710 H704 0.930 . S
C710 C711 1.355 . S
C710 C712 1.415 . S
C711 C710 1.355 . S
C711 C713 1.419 . S
C712 C710 1.415 . S
C712 C717 1.425 . S
C712 C719 1.409 . S
C713 H705 0.930 . S
C713 C711 1.419 . S
C713 C714 1.362 . S
C714 H706 0.930 . S
C714 C713 1.362 . S
C714 C717 1.409 . S
C715 H707 0.930 . S
C715 C716 1.355 1_556 S
C715 C717 1.415 . S
C716 C715 1.355 1_554 S
C716 C718 1.419 . S
C717 C712 1.425 . S
C717 C714 1.409 . S
C717 C715 1.415 . S
C718 H708 0.930 . S
C718 C716 1.419 . S
C718 C719 1.362 1_554 S
C719 H709 0.930 . S
C719 C712 1.409 . S
C719 C718 1.362 1_556 S
C535 C29 1.298 . S
C540 C313 1.302 . S
C551 C117 1.306 . S
C556 C401 1.322 . S
C567 C489 1.337 . S
C572 C205 1.322 . S
C583 C57 1.303 . S
C588 C284 1.298 . S
C599 C145 1.312 . S
C604 C372 1.329 . S
C615 C460 1.341 . S
C620 C233 1.341 . S
C631 C108 1.506 . S
C636 C49 1.501 . S
C647 C196 1.523 . S
C652 C137 1.531 . S
C663 C225 1.506 . S
C668 C293 1.513 . S
C679 C381 1.520 . S
C684 C321 1.512 . S
C695 C469 1.499 . S
C700 C409 1.503 . S
C711 C497 1.533 . S
C716 C20 1.540 . S
