# Generated by pormake.
# Topology uow, (4)-cn, num edge types: 1
# Building blocks:
#     Node 0, Type 0, BuildingBlock: ESEHIV_clean_sbu_0, # of connection points: 4
#     Node 1, Type 0, BuildingBlock: ESEHIV_clean_sbu_0, # of connection points: 4
#     Node 2, Type 0, BuildingBlock: ESEHIV_clean_sbu_0, # of connection points: 4
#     Node 3, Type 0, BuildingBlock: ESEHIV_clean_sbu_0, # of connection points: 4
#     Node 4, Type 0, BuildingBlock: ESEHIV_clean_sbu_0, # of connection points: 4
#     Node 5, Type 0, BuildingBlock: ESEHIV_clean_sbu_0, # of connection points: 4
#     Node 6, Type 0, BuildingBlock: ESEHIV_clean_sbu_0, # of connection points: 4
#     Node 7, Type 0, BuildingBlock: ESEHIV_clean_sbu_0, # of connection points: 4
#     Node 8, Type 0, BuildingBlock: ESEHIV_clean_sbu_0, # of connection points: 4
#     Node 9, Type 0, BuildingBlock: ESEHIV_clean_sbu_0, # of connection points: 4
#     Node 10, Type 0, BuildingBlock: ESEHIV_clean_sbu_0, # of connection points: 4
#     Node 11, Type 0, BuildingBlock: ESEHIV_clean_sbu_0, # of connection points: 4
#     Node 12, Type 0, BuildingBlock: ESEHIV_clean_sbu_0, # of connection points: 4
#     Node 13, Type 0, BuildingBlock: ESEHIV_clean_sbu_0, # of connection points: 4
#     Node 14, Type 0, BuildingBlock: ESEHIV_clean_sbu_0, # of connection points: 4
#     Node 15, Type 0, BuildingBlock: ESEHIV_clean_sbu_0, # of connection points: 4
#     Node 16, Type 0, BuildingBlock: ESEHIV_clean_sbu_0, # of connection points: 4
#     Node 17, Type 0, BuildingBlock: ESEHIV_clean_sbu_0, # of connection points: 4
#     Node 18, Type 0, BuildingBlock: ESEHIV_clean_sbu_0, # of connection points: 4
#     Node 19, Type 0, BuildingBlock: ESEHIV_clean_sbu_0, # of connection points: 4
#     Node 20, Type 0, BuildingBlock: ESEHIV_clean_sbu_0, # of connection points: 4
#     Node 21, Type 0, BuildingBlock: ESEHIV_clean_sbu_0, # of connection points: 4
#     Node 22, Type 0, BuildingBlock: ESEHIV_clean_sbu_0, # of connection points: 4
#     Node 23, Type 0, BuildingBlock: ESEHIV_clean_sbu_0, # of connection points: 4
#     Node 24, Type 0, BuildingBlock: ESEHIV_clean_sbu_0, # of connection points: 4
#     Node 25, Type 0, BuildingBlock: ESEHIV_clean_sbu_0, # of connection points: 4
#     Node 26, Type 0, BuildingBlock: ESEHIV_clean_sbu_0, # of connection points: 4
#     Node 27, Type 0, BuildingBlock: ESEHIV_clean_sbu_0, # of connection points: 4
#     Node 28, Type 0, BuildingBlock: ESEHIV_clean_sbu_0, # of connection points: 4
#     Node 29, Type 0, BuildingBlock: ESEHIV_clean_sbu_0, # of connection points: 4
#     Node 30, Type 0, BuildingBlock: ESEHIV_clean_sbu_0, # of connection points: 4
#     Node 31, Type 0, BuildingBlock: ESEHIV_clean_sbu_0, # of connection points: 4
#     Edge 32, Type (0, 0), BuildingBlock: OJICUG_clean_linker_0, # of connection points: 2
#     Edge 33, Type (0, 0), BuildingBlock: OJICUG_clean_linker_0, # of connection points: 2
#     Edge 34, Type (0, 0), BuildingBlock: OJICUG_clean_linker_0, # of connection points: 2
#     Edge 35, Type (0, 0), BuildingBlock: OJICUG_clean_linker_0, # of connection points: 2
#     Edge 36, Type (0, 0), BuildingBlock: OJICUG_clean_linker_0, # of connection points: 2
#     Edge 37, Type (0, 0), BuildingBlock: OJICUG_clean_linker_0, # of connection points: 2
#     Edge 38, Type (0, 0), BuildingBlock: OJICUG_clean_linker_0, # of connection points: 2
#     Edge 39, Type (0, 0), BuildingBlock: OJICUG_clean_linker_0, # of connection points: 2
#     Edge 40, Type (0, 0), BuildingBlock: OJICUG_clean_linker_0, # of connection points: 2
#     Edge 41, Type (0, 0), BuildingBlock: OJICUG_clean_linker_0, # of connection points: 2
#     Edge 42, Type (0, 0), BuildingBlock: OJICUG_clean_linker_0, # of connection points: 2
#     Edge 43, Type (0, 0), BuildingBlock: OJICUG_clean_linker_0, # of connection points: 2
#     Edge 44, Type (0, 0), BuildingBlock: OJICUG_clean_linker_0, # of connection points: 2
#     Edge 45, Type (0, 0), BuildingBlock: OJICUG_clean_linker_0, # of connection points: 2
#     Edge 46, Type (0, 0), BuildingBlock: OJICUG_clean_linker_0, # of connection points: 2
#     Edge 47, Type (0, 0), BuildingBlock: OJICUG_clean_linker_0, # of connection points: 2
#     Edge 48, Type (0, 0), BuildingBlock: OJICUG_clean_linker_0, # of connection points: 2
#     Edge 49, Type (0, 0), BuildingBlock: OJICUG_clean_linker_0, # of connection points: 2
#     Edge 50, Type (0, 0), BuildingBlock: OJICUG_clean_linker_0, # of connection points: 2
#     Edge 51, Type (0, 0), BuildingBlock: OJICUG_clean_linker_0, # of connection points: 2
#     Edge 52, Type (0, 0), BuildingBlock: OJICUG_clean_linker_0, # of connection points: 2
#     Edge 53, Type (0, 0), BuildingBlock: OJICUG_clean_linker_0, # of connection points: 2
#     Edge 54, Type (0, 0), BuildingBlock: OJICUG_clean_linker_0, # of connection points: 2
#     Edge 55, Type (0, 0), BuildingBlock: OJICUG_clean_linker_0, # of connection points: 2
#     Edge 56, Type (0, 0), BuildingBlock: OJICUG_clean_linker_0, # of connection points: 2
#     Edge 57, Type (0, 0), BuildingBlock: OJICUG_clean_linker_0, # of connection points: 2
#     Edge 58, Type (0, 0), BuildingBlock: OJICUG_clean_linker_0, # of connection points: 2
#     Edge 59, Type (0, 0), BuildingBlock: OJICUG_clean_linker_0, # of connection points: 2
#     Edge 60, Type (0, 0), BuildingBlock: OJICUG_clean_linker_0, # of connection points: 2
#     Edge 61, Type (0, 0), BuildingBlock: OJICUG_clean_linker_0, # of connection points: 2
#     Edge 62, Type (0, 0), BuildingBlock: OJICUG_clean_linker_0, # of connection points: 2
#     Edge 63, Type (0, 0), BuildingBlock: OJICUG_clean_linker_0, # of connection points: 2
#     Edge 64, Type (0, 0), BuildingBlock: OJICUG_clean_linker_0, # of connection points: 2
#     Edge 65, Type (0, 0), BuildingBlock: OJICUG_clean_linker_0, # of connection points: 2
#     Edge 66, Type (0, 0), BuildingBlock: OJICUG_clean_linker_0, # of connection points: 2
#     Edge 67, Type (0, 0), BuildingBlock: OJICUG_clean_linker_0, # of connection points: 2
#     Edge 68, Type (0, 0), BuildingBlock: OJICUG_clean_linker_0, # of connection points: 2
#     Edge 69, Type (0, 0), BuildingBlock: OJICUG_clean_linker_0, # of connection points: 2
#     Edge 70, Type (0, 0), BuildingBlock: OJICUG_clean_linker_0, # of connection points: 2
#     Edge 71, Type (0, 0), BuildingBlock: OJICUG_clean_linker_0, # of connection points: 2
#     Edge 72, Type (0, 0), BuildingBlock: OJICUG_clean_linker_0, # of connection points: 2
#     Edge 73, Type (0, 0), BuildingBlock: OJICUG_clean_linker_0, # of connection points: 2
#     Edge 74, Type (0, 0), BuildingBlock: OJICUG_clean_linker_0, # of connection points: 2
#     Edge 75, Type (0, 0), BuildingBlock: OJICUG_clean_linker_0, # of connection points: 2
#     Edge 76, Type (0, 0), BuildingBlock: OJICUG_clean_linker_0, # of connection points: 2
#     Edge 77, Type (0, 0), BuildingBlock: OJICUG_clean_linker_0, # of connection points: 2
#     Edge 78, Type (0, 0), BuildingBlock: OJICUG_clean_linker_0, # of connection points: 2
#     Edge 79, Type (0, 0), BuildingBlock: OJICUG_clean_linker_0, # of connection points: 2
#     Edge 80, Type (0, 0), BuildingBlock: OJICUG_clean_linker_0, # of connection points: 2
#     Edge 81, Type (0, 0), BuildingBlock: OJICUG_clean_linker_0, # of connection points: 2
#     Edge 82, Type (0, 0), BuildingBlock: OJICUG_clean_linker_0, # of connection points: 2
#     Edge 83, Type (0, 0), BuildingBlock: OJICUG_clean_linker_0, # of connection points: 2
#     Edge 84, Type (0, 0), BuildingBlock: OJICUG_clean_linker_0, # of connection points: 2
#     Edge 85, Type (0, 0), BuildingBlock: OJICUG_clean_linker_0, # of connection points: 2
#     Edge 86, Type (0, 0), BuildingBlock: OJICUG_clean_linker_0, # of connection points: 2
#     Edge 87, Type (0, 0), BuildingBlock: OJICUG_clean_linker_0, # of connection points: 2
#     Edge 88, Type (0, 0), BuildingBlock: OJICUG_clean_linker_0, # of connection points: 2
#     Edge 89, Type (0, 0), BuildingBlock: OJICUG_clean_linker_0, # of connection points: 2
#     Edge 90, Type (0, 0), BuildingBlock: OJICUG_clean_linker_0, # of connection points: 2
#     Edge 91, Type (0, 0), BuildingBlock: OJICUG_clean_linker_0, # of connection points: 2
#     Edge 92, Type (0, 0), BuildingBlock: OJICUG_clean_linker_0, # of connection points: 2
#     Edge 93, Type (0, 0), BuildingBlock: OJICUG_clean_linker_0, # of connection points: 2
#     Edge 94, Type (0, 0), BuildingBlock: OJICUG_clean_linker_0, # of connection points: 2
#     Edge 95, Type (0, 0), BuildingBlock: OJICUG_clean_linker_0, # of connection points: 2
# Relax obj value: 0.070
# Max RMSD: 0.252
# Mean RMSD: 0.224
data_MOF--net-uow--node1-ESEHIV_clean_sbu_0--edge1-OJICUG_clean_linker_0
_symmetry_space_group_name_H-M    P1
_symmetry_Int_Tables_number       1
_symmetry_cell_setting            triclinic
loop_
_symmetry_equiv_pos_as_xyz
'x, y, z'
_cell_length_a     47.112885
_cell_length_b     52.74061
_cell_length_c     35.644351
_cell_angle_alpha  89.953778
_cell_angle_beta   89.984923
_cell_angle_gamma 89.917942
loop_
_atom_site_label
_atom_site_type_symbol
_atom_site_fract_x
_atom_site_fract_y
_atom_site_fract_z
_atom_type_partial_charge
Cu0 Cu 0.10401 0.39383 0.32258 0.0
N1 N 0.12379 0.37137 0.35429 0.0
N2 N 0.13127 0.33944 0.39501 0.0
C3 C 0.11229 0.35621 0.38081 0.0
C4 C 0.15582 0.34465 0.37694 0.0
C5 C 0.15113 0.36423 0.35191 0.0
O6 O 0.0647 0.39303 0.33843 0.0
C7 C 0.09122 0.39127 0.24573 0.0
O8 O 0.07053 0.40658 0.2557 0.0
H9 H 0.09021 0.35705 0.38883 0.0
H10 H 0.16625 0.37192 0.3321 0.0
N11 N 0.1172 0.4274 0.3266 0.0
N12 N 0.12456 0.46855 0.31342 0.0
C13 C 0.11566 0.44582 0.30028 0.0
C14 C 0.12758 0.43882 0.35739 0.0
C15 C 0.13214 0.46413 0.34939 0.0
C16 C 0.05002 0.37282 0.33682 0.0
O17 O 0.06083 0.3527 0.32043 0.0
H18 H 0.10724 0.44284 0.27243 0.0
H19 H 0.13099 0.42951 0.38406 0.0
O20 O 0.10794 0.3828 0.2708 0.0
H21 H 0.1755 0.33426 0.38004 0.0
H22 H 0.14027 0.47817 0.3687 0.0
Cu23 Cu 0.87467 0.82855 0.54385 0.0
N24 N 0.89541 0.84307 0.5047 0.0
N25 N 0.90893 0.85644 0.44786 0.0
C26 C 0.88697 0.84863 0.46949 0.0
C27 C 0.93189 0.85576 0.47048 0.0
C28 C 0.92352 0.8474 0.50531 0.0
O29 O 0.83377 0.83448 0.53873 0.0
C30 C 0.90386 0.85899 0.59896 0.0
O31 O 0.90193 0.87766 0.57466 0.0
H32 H 0.86545 0.84605 0.45962 0.0
H33 H 0.93712 0.8441 0.52928 0.0
N34 N 0.88028 0.79373 0.54126 0.0
N35 N 0.89343 0.75481 0.55867 0.0
C36 C 0.89524 0.77983 0.56598 0.0
C37 C 0.86875 0.77703 0.5172 0.0
C38 C 0.87674 0.75291 0.528 0.0
C39 C 0.82148 0.8557 0.53325 0.0
O40 O 0.83673 0.87654 0.5325 0.0
H41 H 0.90602 0.78784 0.59002 0.0
H42 H 0.8548 0.78202 0.49425 0.0
O43 O 0.89132 0.83815 0.59205 0.0
H44 H 0.95331 0.8608 0.46245 0.0
H45 H 0.87025 0.73536 0.51487 0.0
Cu46 Cu 0.43736 0.63308 0.82785 0.0
N47 N 0.41623 0.65614 0.85689 0.0
N48 N 0.40713 0.68838 0.89633 0.0
C49 C 0.42676 0.67178 0.88341 0.0
C50 C 0.38312 0.68256 0.87745 0.0
C51 C 0.3888 0.66276 0.85322 0.0
O52 O 0.47579 0.63405 0.84709 0.0
C53 C 0.41497 0.64025 0.75494 0.0
O54 O 0.39197 0.63038 0.76978 0.0
H55 H 0.4486 0.67127 0.89257 0.0
H56 H 0.3742 0.65442 0.83337 0.0
N57 N 0.4237 0.59981 0.8323 0.0
N58 N 0.41606 0.55864 0.82025 0.0
C59 C 0.4266 0.58083 0.80718 0.0
C60 C 0.41085 0.58934 0.86222 0.0
C61 C 0.40613 0.564 0.85491 0.0
C62 C 0.49076 0.65407 0.845 0.0
O63 O 0.48096 0.67361 0.82609 0.0
H64 H 0.43696 0.58312 0.78029 0.0
H65 H 0.40568 0.59938 0.88778 0.0
O66 O 0.43689 0.64318 0.77538 0.0
H67 H 0.36313 0.69258 0.87961 0.0
H68 H 0.39608 0.55058 0.87366 0.0
Cu69 Cu 0.6563 0.21147 0.04072 0.0
N70 N 0.6312 0.19987 1.00392 0.0
N71 N 0.61172 0.18413 0.95163 0.0
C72 C 0.63619 0.1899 0.96966 0.0
C73 C 0.59075 0.19092 0.97543 0.0
C74 C 0.6028 0.20064 1.00742 0.0
O75 O 0.69583 0.20344 0.02913 0.0
C76 C 0.62919 0.1797 0.09577 0.0
O77 O 0.62739 0.16261 0.06908 0.0
H78 H 0.65724 0.18678 0.95839 0.0
H79 H 0.59166 0.20792 0.03168 0.0
N80 N 0.65284 0.24655 0.0433 0.0
N81 N 0.64223 0.28443 0.06768 0.0
C82 C 0.64474 0.25931 0.07412 0.0
C83 C 0.65578 0.26411 1.01622 0.0
C84 C 0.64931 0.28758 0.03123 0.0
C85 C 0.70888 0.18304 0.03746 0.0
O86 O 0.69521 0.16493 0.05516 0.0
H87 H 0.64061 0.25019 0.10074 0.0
H88 H 0.66158 0.26006 0.98747 0.0
O89 O 0.643 0.20001 0.08975 0.0
H90 H 0.56824 0.18944 0.96985 0.0
H91 H 0.64896 0.30539 1.01613 0.0
Cu92 Cu 0.1007 0.63761 0.22265 0.0
N93 N 0.12015 0.66071 0.19155 0.0
N94 N 0.12702 0.69263 0.15056 0.0
C95 C 0.10804 0.6766 0.16644 0.0
C96 C 0.15219 0.68625 0.16623 0.0
C97 C 0.14788 0.66667 0.19139 0.0
O98 O 0.0622 0.63658 0.20375 0.0
C99 C 0.12405 0.64728 0.2939 0.0
O100 O 0.14712 0.63814 0.27817 0.0
H101 H 0.08561 0.67654 0.16027 0.0
H102 H 0.16375 0.65787 0.20904 0.0
N103 N 0.11591 0.60467 0.22058 0.0
N104 N 0.1247 0.56402 0.23544 0.0
C105 C 0.11213 0.58599 0.24604 0.0
C106 C 0.13147 0.59425 0.19296 0.0
C107 C 0.13689 0.56923 0.20199 0.0
C108 C 0.04524 0.65523 0.20736 0.0
O109 O 0.05266 0.67433 0.22886 0.0
H110 H 0.09979 0.58836 0.27142 0.0
H111 H 0.13813 0.60409 0.16783 0.0
O112 O 0.10146 0.64907 0.27445 0.0
H113 H 0.17224 0.69558 0.16104 0.0
H114 H 0.14902 0.55597 0.18524 0.0
Cu115 Cu 0.64503 0.83421 0.49477 0.0
N116 N 0.62655 0.84841 0.53619 0.0
N117 N 0.61597 0.86016 0.59488 0.0
C118 C 0.63663 0.85235 0.57112 0.0
C119 C 0.59211 0.86115 0.57397 0.0
C120 C 0.59866 0.85376 0.538 0.0
O121 O 0.68624 0.83917 0.49677 0.0
C122 C 0.61343 0.86549 0.44221 0.0
O123 O 0.61569 0.88385 0.46691 0.0
H124 H 0.65835 0.84853 0.57925 0.0
H125 H 0.58393 0.85171 0.51493 0.0
N126 N 0.63926 0.79941 0.49717 0.0
N127 N 0.62859 0.76003 0.47928 0.0
C128 C 0.62848 0.78479 0.46976 0.0
C129 C 0.64631 0.78347 0.52512 0.0
C130 C 0.63983 0.75908 0.5141 0.0
C131 C 0.69935 0.85904 0.50741 0.0
O132 O 0.68476 0.87955 0.5156 0.0
H133 H 0.62175 0.79209 0.4428 0.0
H134 H 0.656 0.78916 0.5513 0.0
O135 O 0.62639 0.84463 0.44803 0.0
H136 H 0.57129 0.8666 0.58396 0.0
H137 H 0.6434 0.74198 0.53025 0.0
Cu138 Cu 0.43466 0.38765 0.73465 0.0
N139 N 0.41396 0.36595 0.70306 0.0
N140 N 0.40594 0.33554 0.66026 0.0
C141 C 0.42457 0.35276 0.67379 0.0
C142 C 0.38241 0.33847 0.68156 0.0
C143 C 0.38744 0.35713 0.70789 0.0
O144 O 0.47315 0.38751 0.71543 0.0
C145 C 0.41164 0.37752 0.80655 0.0
O146 O 0.38984 0.39038 0.79357 0.0
H147 H 0.44591 0.35524 0.66336 0.0
H148 H 0.37328 0.36293 0.73017 0.0
N149 N 0.42071 0.42098 0.73289 0.0
N150 N 0.41371 0.46206 0.7463 0.0
C151 C 0.42535 0.43986 0.75771 0.0
C152 C 0.40558 0.43154 0.70495 0.0
C153 C 0.40124 0.45681 0.71309 0.0
C154 C 0.48772 0.36718 0.71436 0.0
O155 O 0.47782 0.3468 0.73105 0.0
H156 H 0.43768 0.4375 0.78309 0.0
H157 H 0.39857 0.42159 0.68009 0.0
O158 O 0.43338 0.37454 0.78573 0.0
H159 H 0.36345 0.32699 0.67979 0.0
H160 H 0.38973 0.47026 0.69589 0.0
Cu161 Cu 0.88431 0.19797 0.99043 0.0
N162 N 0.90399 0.18403 0.03112 0.0
N163 N 0.91648 0.17213 0.08911 0.0
C164 C 0.89514 0.18032 0.0667 0.0
C165 C 0.93953 0.17077 0.0667 0.0
C166 C 0.9318 0.17824 0.03116 0.0
O167 O 0.84319 0.19346 0.99368 0.0
C168 C 0.91326 0.16554 0.93718 0.0
O169 O 0.91104 0.14738 0.96226 0.0
H170 H 0.8738 0.1844 0.07619 0.0
H171 H 0.94567 0.17989 1.0071 0.0
N172 N 0.89085 0.23265 0.99097 0.0
N173 N 0.9031 0.27107 0.97038 0.0
C174 C 0.9009 0.24623 0.96196 0.0
C175 C 0.88653 0.24935 1.01888 0.0
C176 C 0.89401 0.27317 1.0062 0.0
C177 C 0.83006 0.17476 1.00817 0.0
O178 O 0.8446 0.15517 1.02047 0.0
H179 H 0.90587 0.23806 0.9349 0.0
H180 H 0.87841 0.24453 0.04637 0.0
O181 O 0.90121 0.18676 0.94324 0.0
H182 H 0.96054 0.16485 0.07532 0.0
H183 H 0.89298 0.29059 0.02216 0.0
Cu184 Cu 0.97846 0.63819 0.73197 0.0
N185 N 0.95069 0.65604 0.70567 0.0
N186 N 0.92707 0.67996 0.66452 0.0
C187 C 0.95291 0.67235 0.67667 0.0
C188 C 0.90809 0.66818 0.68682 0.0
C189 C 0.92271 0.65355 0.71219 0.0
O190 O 1.01598 0.64234 0.70938 0.0
C191 C 0.96781 0.6697 0.79574 0.0
O192 O 0.96589 0.68796 0.77079 0.0
H193 H 0.97288 0.67814 0.66436 0.0
H194 H 0.91364 0.64162 0.73377 0.0
N195 N 0.96946 0.60388 0.72671 0.0
N196 N 0.96894 0.56165 0.73355 0.0
C197 C 0.97971 0.58392 0.74607 0.0
C198 C 0.95178 0.594 0.701 0.0
C199 C 0.9513 0.56808 0.70521 0.0
C200 C 0.03041 0.66261 0.70614 0.0
O201 O 0.02058 0.68379 0.72057 0.0
H202 H 0.99505 0.58579 0.76845 0.0
H203 H 0.94012 0.60489 0.68042 0.0
O204 O 0.97509 0.64752 0.78501 0.0
H205 H 0.88526 0.67028 0.68519 0.0
H206 H 0.93856 0.55511 0.68886 0.0
Cu207 Cu 0.12929 0.2036 0.51975 0.0
N208 N 0.10109 0.18438 0.49619 0.0
N209 N 0.07058 0.16785 0.4548 0.0
C210 C 0.08911 0.18686 0.46199 0.0
C211 C 0.07115 0.15295 0.48559 0.0
C212 C 0.09002 0.16307 0.5108 0.0
O213 O 0.13127 0.23835 0.50018 0.0
C214 C 0.09895 0.2004 0.58958 0.0
O215 O 0.07656 0.20616 0.56931 0.0
H216 H 0.09425 0.20198 0.44263 0.0
H217 H 0.09548 0.15534 0.53798 0.0
N218 N 0.16391 0.18807 0.50835 0.0
N219 N 0.21011 0.17834 0.5059 0.0
C220 C 0.19031 0.19452 0.51949 0.0
C221 C 0.16718 0.16731 0.48688 0.0
C222 C 0.19555 0.16125 0.48536 0.0
C223 C 0.11041 0.25148 0.48818 0.0
O224 O 0.08454 0.24254 0.49175 0.0
H225 H 0.19479 0.2104 0.53776 0.0
H226 H 0.15005 0.15722 0.47332 0.0
O227 O 0.1234 0.20052 0.5741 0.0
H228 H 0.0585 0.1361 0.48999 0.0
H229 H 0.20476 0.14554 0.47006 0.0
Cu230 Cu 0.54021 0.38446 0.2402 0.0
N231 N 0.57263 0.37845 0.21159 0.0
N232 N 0.60153 0.35911 0.17093 0.0
C233 C 0.5777 0.35724 0.19182 0.0
C234 C 0.61181 0.38253 0.17792 0.0
C235 C 0.59386 0.39445 0.20297 0.0
O236 O 0.51045 0.36596 0.21382 0.0
C237 C 0.57046 0.37049 0.30642 0.0
O238 O 0.59219 0.37961 0.28772 0.0
H239 H 0.56345 0.34116 0.19168 0.0
H240 H 0.5958 0.41359 0.21355 0.0
N241 N 0.53225 0.41926 0.238 0.0
N242 N 0.53427 0.46141 0.24538 0.0
C243 C 0.5432 0.43853 0.25822 0.0
C244 C 0.51625 0.43033 0.21135 0.0
C245 C 0.51726 0.45618 0.21595 0.0
C246 C 0.48391 0.37066 0.21318 0.0
O247 O 0.47346 0.38833 0.23519 0.0
H248 H 0.5578 0.43581 0.28131 0.0
H249 H 0.50542 0.4203 0.18912 0.0
O250 O 0.54582 0.37153 0.29153 0.0
H251 H 0.63079 0.39058 0.16568 0.0
H252 H 0.50721 0.47006 0.19794 0.0
Cu253 Cu 0.40419 0.82444 1.01943 0.0
N254 N 0.43268 0.8437 0.99675 0.0
N255 N 0.46384 0.86028 0.95631 0.0
C256 C 0.44522 0.84126 0.96292 0.0
C257 C 0.46276 0.87515 0.98708 0.0
C258 C 0.44351 0.86497 1.01175 0.0
O259 O 0.40279 0.78977 0.99998 0.0
C260 C 0.43372 0.82687 0.08966 0.0
O261 O 0.45613 0.8202 0.07004 0.0
H262 H 0.44045 0.82615 0.94341 0.0
H263 H 0.43761 0.87262 0.0388 0.0
N264 N 0.36976 0.83999 1.00725 0.0
N265 N 0.32367 0.84997 1.00427 0.0
C266 C 0.34325 0.83363 1.01803 0.0
C267 C 0.3668 0.86083 0.98584 0.0
C268 C 0.33848 0.86706 0.984 0.0
C269 C 0.42416 0.77678 0.98939 0.0
O270 O 0.4498 0.78593 0.99437 0.0
H271 H 0.33851 0.81776 0.03623 0.0
H272 H 0.38411 0.87092 0.97265 0.0
O273 O 0.40948 0.82744 0.07367 0.0
H274 H 0.47536 0.89199 0.99182 0.0
H275 H 0.32948 0.8829 0.96876 0.0
Cu276 Cu 0.98795 0.38468 0.7955 0.0
N277 N 0.95868 0.37192 0.82522 0.0
N278 N 0.93488 0.34903 0.86751 0.0
C279 C 0.95878 0.35091 0.8467 0.0
C280 C 0.91922 0.36963 0.85865 0.0
C281 C 0.934 0.38372 0.83274 0.0
O282 O 0.02359 0.37276 0.81747 0.0
C283 C 0.95801 0.37286 0.72872 0.0
O284 O 0.93648 0.38189 0.74793 0.0
H285 H 0.97648 0.33783 0.84804 0.0
H286 H 0.9275 0.40167 0.82075 0.0
N287 N 0.98644 0.41985 0.80142 0.0
N288 N 0.98429 0.46194 0.794 0.0
C289 C 0.98515 0.4391 0.77653 0.0
C290 C 0.98626 0.4308 0.83543 0.0
C291 C 0.98489 0.4566 0.83104 0.0
C292 C 0.04564 0.38669 0.81969 0.0
O293 O 0.04573 0.40885 0.80284 0.0
H294 H 0.98503 0.43639 0.74644 0.0
H295 H 0.98686 0.42056 0.86172 0.0
O296 O 0.98269 0.37327 0.7435 0.0
H297 H 0.89859 0.37426 0.87013 0.0
H298 H 0.98376 0.47028 0.85358 0.0
Cu299 Cu 0.41059 0.20441 0.52651 0.0
N300 N 0.43804 0.18526 0.55177 0.0
N301 N 0.46784 0.16953 0.59472 0.0
C302 C 0.44959 0.1885 0.58606 0.0
C303 C 0.46762 0.15389 0.56477 0.0
C304 C 0.44924 0.16359 0.53849 0.0
O305 O 0.40667 0.2382 0.54847 0.0
C306 C 0.44541 0.20459 0.46048 0.0
O307 O 0.46623 0.2093 0.48396 0.0
H308 H 0.44446 0.20418 0.60442 0.0
H309 H 0.44424 0.1554 0.51149 0.0
N310 N 0.37601 0.18759 0.53297 0.0
N311 N 0.32993 0.17735 0.53194 0.0
C312 C 0.34962 0.19503 0.52304 0.0
C313 C 0.37281 0.16463 0.54886 0.0
C314 C 0.34453 0.15825 0.54821 0.0
C315 C 0.42725 0.25197 0.55942 0.0
O316 O 0.45339 0.24435 0.55317 0.0
H317 H 0.34507 0.21278 0.50899 0.0
H318 H 0.38991 0.15324 0.56013 0.0
O319 O 0.42001 0.20376 0.47292 0.0
H320 H 0.48029 0.13688 0.56168 0.0
H321 H 0.33541 0.14095 0.5592 0.0
Cu322 Cu 0.55766 0.637 0.30596 0.0
N323 N 0.58447 0.6538 0.33576 0.0
N324 N 0.60477 0.67953 0.37765 0.0
C325 C 0.58038 0.67294 0.36025 0.0
C326 C 0.62491 0.66413 0.36341 0.0
C327 C 0.61238 0.6484 0.33757 0.0
O328 O 0.52056 0.63932 0.3305 0.0
C329 C 0.58299 0.6513 0.23763 0.0
O330 O 0.60436 0.639 0.25278 0.0
H331 H 0.55993 0.68155 0.3657 0.0
H332 H 0.62293 0.63379 0.32152 0.0
N333 N 0.56715 0.60239 0.30582 0.0
N334 N 0.56637 0.56042 0.29579 0.0
C335 C 0.55692 0.58345 0.28424 0.0
C336 C 0.58323 0.59088 0.33199 0.0
C337 C 0.583 0.56519 0.32575 0.0
C338 C 0.50496 0.65896 0.33341 0.0
O339 O 0.5128 0.68004 0.3167 0.0
H340 H 0.54228 0.58648 0.26128 0.0
H341 H 0.59332 0.60033 0.35531 0.0
O342 O 0.55939 0.6519 0.25529 0.0
H343 H 0.64719 0.66442 0.3708 0.0
H344 H 0.59309 0.55103 0.34325 0.0
Cu345 Cu 0.12287 0.82598 1.01924 0.0
N346 N 0.09529 0.84567 0.04329 0.0
N347 N 0.06603 0.86296 0.0856 0.0
C348 C 0.08417 0.84369 0.07805 0.0
C349 C 0.06596 0.87754 0.05447 0.0
C350 C 0.08408 0.86695 0.02867 0.0
O351 O 0.12557 0.7917 0.04063 0.0
C352 C 0.09074 0.82864 0.95062 0.0
O353 O 0.06867 0.82406 0.97211 0.0
H354 H 0.08967 0.82874 0.09756 0.0
H355 H 0.08898 0.87436 1.00111 0.0
N356 N 0.15758 0.84198 0.02818 0.0
N357 N 0.20379 0.85161 0.02901 0.0
C358 C 0.18398 0.83449 1.01846 0.0
C359 C 0.16088 0.86438 0.04563 0.0
C360 C 0.18926 0.87039 0.04613 0.0
C361 C 0.10495 0.77889 0.05396 0.0
O362 O 0.07899 0.78771 0.0505 0.0
H363 H 0.18847 0.81718 1.00326 0.0
H364 H 0.14376 0.87568 0.05705 0.0
O365 O 0.11556 0.82795 0.96502 0.0
H366 H 0.05336 0.89448 0.05028 0.0
H367 H 0.1985 0.88725 0.05835 0.0
Cu368 Cu 0.60238 0.89259 0.82551 0.0
N369 N 0.62321 0.86963 0.85535 0.0
N370 N 0.63188 0.83767 0.89567 0.0
C371 C 0.6124 0.8542 0.88204 0.0
C372 C 0.65605 0.8433 0.87699 0.0
C373 C 0.65064 0.8629 0.85224 0.0
O374 O 0.56406 0.8924 0.84509 0.0
C375 C 0.62367 0.88404 0.75226 0.0
O376 O 0.64707 0.89379 0.7661 0.0
H377 H 0.59047 0.85483 0.89083 0.0
H378 H 0.66544 0.87105 0.83243 0.0
N379 N 0.6165 0.92586 0.82799 0.0
N380 N 0.62402 0.96682 0.81388 0.0
C381 C 0.6126 0.94455 0.80254 0.0
C382 C 0.63093 0.93662 0.85635 0.0
C383 C 0.63558 0.96182 0.84777 0.0
C384 C 0.54869 0.87263 0.84284 0.0
O385 O 0.5581 0.85304 0.82375 0.0
H386 H 0.60095 0.94196 0.77666 0.0
H387 H 0.63729 0.92688 0.88172 0.0
O388 O 0.60209 0.88158 0.77347 0.0
H389 H 0.67602 0.8333 0.8797 0.0
H390 H 0.64673 0.97535 0.86515 0.0
Cu391 Cu 0.37035 0.30979 0.05155 0.0
N392 N 0.38917 0.31275 1.00542 0.0
N393 N 0.40361 0.32594 0.94879 0.0
C394 C 0.38676 0.33083 0.97877 0.0
C395 C 0.41689 0.30393 0.95703 0.0
C396 C 0.40792 0.29587 0.99176 0.0
O397 O 0.33043 0.31878 0.04506 0.0
C398 C 0.41669 0.32581 0.09389 0.0
O399 O 0.42951 0.3104 0.07041 0.0
H400 H 0.37299 0.34716 0.98136 0.0
H401 H 0.41439 0.27869 1.006 0.0
N402 N 0.3714 0.27562 0.06565 0.0
N403 N 0.38326 0.2391 0.09369 0.0
C404 C 0.38721 0.26449 0.09259 0.0
C405 C 0.35687 0.2567 0.04929 0.0
C406 C 0.36409 0.23419 0.06649 0.0
C407 C 0.31997 0.34103 0.04355 0.0
O408 O 0.33672 0.36071 0.04783 0.0
H409 H 0.40127 0.27478 0.11105 0.0
H410 H 0.3424 0.25911 0.026 0.0
O411 O 0.39005 0.3294 0.09021 0.0
H412 H 0.43152 0.29394 0.93887 0.0
H413 H 0.3564 0.21558 0.05879 0.0
Cu414 Cu 0.93415 0.13758 0.31881 0.0
N415 N 0.91365 0.1613 0.34753 0.0
N416 N 0.90507 0.19356 0.38715 0.0
C417 C 0.92436 0.17656 0.37443 0.0
C418 C 0.88113 0.18845 0.36768 0.0
C419 C 0.88649 0.16865 0.34336 0.0
O420 O 0.97214 0.13655 0.33968 0.0
C421 C 0.91308 0.14633 0.24609 0.0
O422 O 0.88979 0.13682 0.26064 0.0
H423 H 0.94605 0.17545 0.38406 0.0
H424 H 0.87184 0.16072 0.32322 0.0
N425 N 0.91768 0.1052 0.32092 0.0
N426 N 0.90674 0.06506 0.30617 0.0
C427 C 0.92484 0.08459 0.30045 0.0
C428 C 0.89443 0.0984 0.34036 0.0
C429 C 0.88761 0.07373 0.3313 0.0
C430 C 0.98806 0.15602 0.33797 0.0
O431 O 0.97959 0.17571 0.3183 0.0
H432 H 0.94224 0.08431 0.2806 0.0
H433 H 0.88281 0.11077 0.35907 0.0
O434 O 0.93505 0.14849 0.26668 0.0
H435 H 0.86142 0.1989 0.36958 0.0
H436 H 0.86977 0.06308 0.34211 0.0
Cu437 Cu 0.156 0.69632 0.54985 0.0
N438 N 0.13613 0.6821 0.50965 0.0
N439 N 0.12312 0.6706 0.45173 0.0
C440 C 0.14473 0.67837 0.47397 0.0
C441 C 0.10022 0.66941 0.47443 0.0
C442 C 0.10826 0.67666 0.50989 0.0
O443 O 0.19713 0.69108 0.54594 0.0
C444 C 0.12605 0.66501 0.60356 0.0
O445 O 0.12876 0.64641 0.57932 0.0
H446 H 0.16604 0.68233 0.46426 0.0
H447 H 0.09451 0.67858 0.53403 0.0
N448 N 0.14956 0.73105 0.54799 0.0
N449 N 0.13539 0.76961 0.56578 0.0
C450 C 0.13732 0.7449 0.57523 0.0
C451 C 0.15555 0.74743 0.52019 0.0
C452 C 0.14691 0.77132 0.53116 0.0
C453 C 0.20958 0.67049 0.53694 0.0
O454 O 0.19435 0.64997 0.5315 0.0
H455 H 0.13052 0.73704 0.60179 0.0
H456 H 0.1655 0.74233 0.4939 0.0
O457 O 0.13856 0.68597 0.59726 0.0
H458 H 0.07904 0.66392 0.466 0.0
H459 H 0.14885 0.78854 0.51483 0.0
Cu460 Cu 0.6046 0.13737 0.7254 0.0
N461 N 0.62399 0.15858 0.69157 0.0
N462 N 0.63053 0.18944 0.64886 0.0
C463 C 0.61213 0.17256 0.66391 0.0
C464 C 0.65515 0.18547 0.66747 0.0
C465 C 0.65102 0.16655 0.69375 0.0
O466 O 0.56501 0.1385 0.71058 0.0
C467 C 0.59355 0.14474 0.80278 0.0
O468 O 0.57132 0.13047 0.79589 0.0
H469 H 0.59011 0.17094 0.65589 0.0
H470 H 0.6662 0.16007 0.71441 0.0
N471 N 0.61729 0.10361 0.72266 0.0
N472 N 0.62397 0.06245 0.73644 0.0
C473 C 0.61418 0.08516 0.74869 0.0
C474 C 0.62955 0.09223 0.69303 0.0
C475 C 0.63368 0.06693 0.7014 0.0
C476 C 0.55097 0.15914 0.7106 0.0
O477 O 0.56234 0.17941 0.72583 0.0
H478 H 0.60417 0.08818 0.77564 0.0
H479 H 0.6347 0.10163 0.66692 0.0
O480 O 0.61035 0.15017 0.77603 0.0
H481 H 0.67437 0.19643 0.66407 0.0
H482 H 0.64316 0.05295 0.68304 0.0
Cu483 Cu 0.14329 0.33313 0.99914 0.0
N484 N 0.12384 0.35239 0.03484 0.0
N485 N 0.10772 0.36861 0.08891 0.0
C486 C 0.12821 0.35452 0.07213 0.0
C487 C 0.08992 0.37536 0.06088 0.0
C488 C 0.09986 0.36535 0.02784 0.0
O489 O 0.18451 0.33487 1.00425 0.0
C490 C 0.12814 0.36426 0.93534 0.0
O491 O 0.14003 0.38327 0.95318 0.0
H492 H 0.14581 0.34561 0.08651 0.0
H493 H 0.08975 0.36671 1.00068 0.0
N494 N 0.13323 0.29934 1.00502 0.0
N495 N 0.12024 0.2603 0.98831 0.0
C496 C 0.12158 0.28487 0.97809 0.0
C497 C 0.1393 0.2835 0.0335 0.0
C498 C 0.13139 0.25928 0.02318 0.0
C499 C 0.19902 0.35364 1.01588 0.0
O500 O 0.18611 0.37506 0.0239 0.0
H501 H 0.116 0.29195 0.95055 0.0
H502 H 0.14995 0.28898 0.05911 0.0
O503 O 0.12922 0.34216 0.94952 0.0
H504 H 0.07043 0.38601 0.06396 0.0
H505 H 0.13454 0.24216 0.03944 0.0
Cu506 Cu 0.93096 0.89518 0.22038 0.0
N507 N 0.91143 0.872 0.18968 0.0
N508 N 0.90483 0.84036 0.1484 0.0
C509 C 0.92313 0.85774 0.16227 0.0
C510 C 0.88044 0.84419 0.16757 0.0
C511 C 0.8846 0.86362 0.19298 0.0
O512 O 0.9695 0.89621 0.20153 0.0
C513 C 0.90821 0.88562 0.2921 0.0
O514 O 0.88534 0.89579 0.27729 0.0
H515 H 0.94489 0.85973 0.15324 0.0
H516 H 0.86945 0.87043 0.21342 0.0
N517 N 0.91485 0.92774 0.21866 0.0
N518 N 0.90494 0.96809 0.2336 0.0
C519 C 0.92294 0.94834 0.23848 0.0
C520 C 0.89108 0.93475 0.2005 0.0
C521 C 0.88489 0.95955 0.20969 0.0
C522 C 0.9851 0.87653 0.20361 0.0
O523 O 0.97592 0.85687 0.22274 0.0
H524 H 0.94095 0.94847 0.25734 0.0
H525 H 0.87867 0.92244 0.18266 0.0
O526 O 0.93046 0.88339 0.27205 0.0
H527 H 0.86133 0.83299 0.16486 0.0
H528 H 0.86684 0.97039 0.19983 0.0
Cu529 Cu 0.38652 0.69298 0.50005 0.0
N530 N 0.40603 0.67782 0.53989 0.0
N531 N 0.41828 0.66503 0.59754 0.0
C532 C 0.39693 0.67319 0.57512 0.0
C533 C 0.44153 0.6645 0.57542 0.0
C534 C 0.43395 0.67252 0.5401 0.0
O535 O 0.34523 0.68937 0.5049 0.0
C536 C 0.41536 0.66136 0.44527 0.0
O537 O 0.41421 0.64304 0.4702 0.0
H538 H 0.37546 0.67685 0.58448 0.0
H539 H 0.44802 0.67509 0.51642 0.0
N540 N 0.39463 0.72743 0.50142 0.0
N541 N 0.40455 0.76604 0.47934 0.0
C542 C 0.39422 0.74281 0.47137 0.0
C543 C 0.4056 0.7413 0.52956 0.0
C544 C 0.41176 0.76522 0.51598 0.0
C545 C 0.33183 0.66881 0.5111 0.0
O546 O 0.34603 0.64739 0.51292 0.0
H547 H 0.38775 0.73661 0.44372 0.0
H548 H 0.40971 0.73426 0.55755 0.0
O549 O 0.40262 0.6822 0.45193 0.0
H550 H 0.46265 0.65899 0.58418 0.0
H551 H 0.42113 0.78064 0.53168 0.0
Cu552 Cu 0.50337 0.1426 0.25403 0.0
N553 N 0.47275 0.14638 0.22109 0.0
N554 N 0.44131 0.16502 0.18284 0.0
C555 C 0.46263 0.16852 0.20769 0.0
C556 C 0.43799 0.13962 0.18062 0.0
C557 C 0.45746 0.12821 0.20408 0.0
O558 O 0.53739 0.15154 0.22588 0.0
C559 C 0.47171 0.16226 0.31403 0.0
O560 O 0.45182 0.14898 0.29733 0.0
H561 H 0.47091 0.1868 0.21598 0.0
H562 H 0.46066 0.10806 0.2077 0.0
N563 N 0.50943 0.1086 0.26692 0.0
N564 N 0.50545 0.06695 0.27851 0.0
C565 C 0.49139 0.0891 0.27268 0.0
C566 C 0.53556 0.09851 0.26945 0.0
C567 C 0.53324 0.07301 0.27646 0.0
C568 C 0.54643 0.17316 0.21564 0.0
O569 O 0.53313 0.19374 0.22675 0.0
H570 H 0.46854 0.09112 0.27222 0.0
H571 H 0.55507 0.10895 0.26541 0.0
O572 O 0.49655 0.16252 0.29968 0.0
H573 H 0.42321 0.12989 0.16242 0.0
H574 H 0.55084 0.05989 0.27854 0.0
Cu575 Cu 0.63306 0.70323 0.02422 0.0
N576 N 0.60524 0.68371 1.00053 0.0
N577 N 0.57481 0.66697 0.95929 0.0
C578 C 0.59293 0.68626 0.96655 0.0
C579 C 0.57596 0.65182 0.98979 0.0
C580 C 0.59476 0.66209 1.01493 0.0
O581 O 0.63493 0.73775 1.00362 0.0
C582 C 0.60136 0.70018 0.09296 0.0
O583 O 0.57939 0.70574 0.07178 0.0
H584 H 0.59752 0.70164 0.94739 0.0
H585 H 0.60058 0.65428 0.04192 0.0
N586 N 0.66782 0.68748 1.01383 0.0
N587 N 0.71407 0.67788 1.01097 0.0
C588 C 0.69436 0.69456 0.02352 0.0
C589 C 0.67092 0.66582 0.99437 0.0
C590 C 0.69929 0.65985 0.99259 0.0
C591 C 0.6138 0.7507 0.99203 0.0
O592 O 0.58803 0.7418 0.99696 0.0
H593 H 0.69904 0.71131 0.03991 0.0
H594 H 0.65368 0.65508 0.98223 0.0
O595 O 0.62617 0.70053 0.07846 0.0
H596 H 0.5637 0.63472 0.99402 0.0
H597 H 0.70834 0.64358 0.97844 0.0
Cu598 Cu 0.04692 0.88721 0.73457 0.0
N599 N 0.07544 0.87235 0.70539 0.0
N600 N 0.09941 0.84856 0.66428 0.0
C601 C 0.07469 0.85171 0.68308 0.0
C602 C 0.11623 0.86782 0.67535 0.0
C603 C 0.10141 0.88241 0.70051 0.0
O604 O 1.01009 0.88198 0.71067 0.0
C605 C 0.07386 0.87333 0.80261 0.0
O606 O 0.09599 0.88278 0.78515 0.0
H607 H 0.05622 0.83974 0.67988 0.0
H608 H 0.10891 0.89951 0.71396 0.0
N609 N 0.0529 0.92214 0.73035 0.0
N610 N 0.05662 0.96413 0.73809 0.0
C611 C 0.05252 0.94142 0.75525 0.0
C612 C 0.05736 0.933 0.69674 0.0
C613 C 0.0598 0.95868 0.70135 0.0
C614 C 0.99586 0.86163 0.70711 0.0
O615 O 1.00529 0.8406 0.72249 0.0
H616 H 0.0488 0.93891 0.78497 0.0
H617 H 0.05864 0.92277 0.6705 0.0
O618 O 0.0497 0.87427 0.78636 0.0
H619 H 0.13779 0.8711 0.66606 0.0
H620 H 0.06398 0.97224 0.67924 0.0
Cu621 Cu 0.904 0.32846 0.51298 0.0
N622 N 0.9312 0.34805 0.48821 0.0
N623 N 0.96213 0.3637 0.44667 0.0
C624 C 0.94437 0.34436 0.45505 0.0
C625 C 0.95986 0.38008 0.47561 0.0
C626 C 0.94077 0.37043 0.50098 0.0
O627 O 0.90195 0.29409 0.49254 0.0
C628 C 0.93718 0.33125 0.58005 0.0
O629 O 0.95869 0.32695 0.55747 0.0
H630 H 0.94079 0.32802 0.43734 0.0
H631 H 0.93428 0.37908 0.52712 0.0
N632 N 0.86895 0.34398 0.50418 0.0
N633 N 0.8226 0.35319 0.50401 0.0
C634 C 0.84285 0.33667 0.5154 0.0
C635 C 0.86501 0.36563 0.48489 0.0
C636 C 0.83654 0.37138 0.4848 0.0
C637 C 0.92312 0.28064 0.48253 0.0
O638 O 0.94892 0.28906 0.48873 0.0
H639 H 0.8389 0.31991 0.53214 0.0
H640 H 0.88172 0.37654 0.47181 0.0
O641 O 0.912 0.33059 0.56683 0.0
H642 H 0.97166 0.39753 0.47876 0.0
H643 H 0.82682 0.38763 0.47134 0.0
Cu644 Cu 0.46934 0.88988 0.30454 0.0
N645 N 0.44194 0.87214 0.3322 0.0
N646 N 0.42113 0.84499 0.37186 0.0
C647 C 0.44579 0.85597 0.36113 0.0
C648 C 0.40113 0.85476 0.34896 0.0
C649 C 0.41398 0.87125 0.32454 0.0
O650 O 0.50572 0.88829 0.33107 0.0
C651 C 0.44908 0.87813 0.23251 0.0
O652 O 0.42923 0.89413 0.24292 0.0
H653 H 0.46636 0.85156 0.37299 0.0
H654 H 0.40355 0.88136 0.30212 0.0
N655 N 0.4587 0.92422 0.30151 0.0
N656 N 0.46127 0.96647 0.29574 0.0
C657 C 0.47572 0.94426 0.29473 0.0
C658 C 0.43273 0.93419 0.30733 0.0
C659 C 0.4342 0.96012 0.30357 0.0
C660 C 0.52145 0.86869 0.33362 0.0
O661 O 0.51387 0.84787 0.31609 0.0
H662 H 0.49824 0.94257 0.28926 0.0
H663 H 0.41398 0.92355 0.31452 0.0
O664 O 0.47017 0.87443 0.25435 0.0
H665 H 0.37877 0.85009 0.34941 0.0
H666 H 0.41685 0.97334 0.30746 0.0
Cu667 Cu 0.91398 0.70834 1.01605 0.0
N668 N 0.94401 0.69169 0.04026 0.0
N669 N 0.9724 0.6743 0.08341 0.0
C670 C 0.94909 0.68871 0.0773 0.0
C671 C 0.98243 0.66828 0.04916 0.0
C672 C 0.96504 0.67908 0.02273 0.0
O673 O 0.90897 0.7424 0.03693 0.0
C674 C 0.92278 0.68591 0.9459 0.0
O675 O 0.91486 0.66593 0.96529 0.0
H676 H 0.93592 0.69672 0.09919 0.0
H677 H 0.9678 0.67792 0.99272 0.0
N678 N 0.88058 0.69027 0.02546 0.0
N679 N 0.83485 0.67903 0.02877 0.0
C680 C 0.85355 0.69702 1.01777 0.0
C681 C 0.87889 0.66742 0.04206 0.0
C682 C 0.85081 0.66042 0.04407 0.0
C683 C 0.92907 0.75527 0.05137 0.0
O684 O 0.95516 0.74654 0.04928 0.0
H685 H 0.84782 0.71456 1.00389 0.0
H686 H 0.8969 0.65659 0.05198 0.0
O687 O 0.9226 0.70753 0.96209 0.0
H688 H 1.00146 0.65737 0.04365 0.0
H689 H 0.84278 0.64305 0.05624 0.0
Cu690 Cu 0.0585 0.14 0.80534 0.0
N691 N 0.08388 0.158 0.83561 0.0
N692 N 0.10176 0.18289 0.88038 0.0
C693 C 0.07807 0.17557 0.862 0.0
C694 C 0.12321 0.16962 0.86485 0.0
C695 C 0.11216 0.15438 0.83725 0.0
O696 O 0.02085 0.14184 0.82796 0.0
C697 C 0.08381 0.15336 0.7362 0.0
O698 O 0.10557 0.1417 0.75149 0.0
H699 H 0.05691 0.18232 0.86832 0.0
H700 H 0.12389 0.14102 0.82027 0.0
N701 N 0.06919 0.10579 0.80729 0.0
N702 N 0.07019 0.06366 0.79918 0.0
C703 C 0.06 0.08613 0.7864 0.0
C704 C 0.08551 0.09538 0.83419 0.0
C705 C 0.08638 0.06958 0.82913 0.0
C706 C 1.00498 0.16137 0.82906 0.0
O707 O 1.01314 0.18215 0.81184 0.0
H708 H 0.04533 0.08824 0.76325 0.0
H709 H 0.09543 0.10573 0.85681 0.0
O710 O 0.06036 0.15394 0.75416 0.0
H711 H 0.14533 0.17093 0.8728 0.0
H712 H 0.09799 0.05628 0.84642 0.0
Cu713 Cu 0.62292 0.32402 0.52238 0.0
N714 N 0.59497 0.34229 0.54809 0.0
N715 N 0.56592 0.35758 0.59228 0.0
C716 C 0.58437 0.33893 0.5829 0.0
C717 C 0.56505 0.37317 0.56226 0.0
C718 C 0.58302 0.36378 0.53526 0.0
O719 O 0.62675 0.28942 0.54185 0.0
C720 C 0.59007 0.32704 0.45454 0.0
O721 O 0.56837 0.32183 0.47637 0.0
H722 H 0.59052 0.3235 0.60122 0.0
H723 H 0.58739 0.37219 0.50818 0.0
N724 N 0.65722 0.3406 0.53158 0.0
N725 N 0.70314 0.35128 0.53206 0.0
C726 C 0.68368 0.33408 0.52069 0.0
C727 C 0.66012 0.36245 0.55062 0.0
C728 C 0.68833 0.3691 0.55091 0.0
C729 C 0.6064 0.27565 0.55366 0.0
O730 O 0.58019 0.28379 0.54985 0.0
H731 H 0.68843 0.31741 0.50412 0.0
H732 H 0.64286 0.37292 0.56331 0.0
O733 O 0.61505 0.3268 0.46844 0.0
H734 H 0.55207 0.39003 0.55972 0.0
H735 H 0.69726 0.38572 0.56419 0.0
C736 C 0.08151 0.39916 0.17781 0.0
C737 C 0.09581 0.38523 0.20555 0.0
H738 H 0.07473 0.40556 0.11956 0.0
C739 C 0.1147 0.366 0.19438 0.0
H740 H 0.0671 0.41435 0.18535 0.0
C741 C 0.11884 0.36059 0.15624 0.0
C742 C 0.10434 0.37446 0.12838 0.0
H743 H 0.12608 0.35492 0.21512 0.0
H744 H 0.13307 0.34531 0.14878 0.0
C745 C 0.08585 0.39399 0.13984 0.0
C746 C 0.93287 0.86758 0.34855 0.0
C747 C 0.90818 0.87748 0.33195 0.0
H748 H 0.95236 0.85283 0.3981 0.0
C749 C 0.88353 0.87986 0.35398 0.0
H750 H 0.95219 0.86538 0.3324 0.0
C751 C 0.88365 0.87273 0.39182 0.0
C752 C 0.90846 0.86316 0.40857 0.0
H753 H 0.86412 0.88741 0.3421 0.0
H754 H 0.86447 0.8752 0.40813 0.0
C755 C 0.93301 0.86054 0.38637 0.0
C756 C 0.44065 0.6562 0.69796 0.0
C757 C 0.41556 0.64723 0.7146 0.0
H758 H 0.46109 0.66917 0.64801 0.0
C759 C 0.39115 0.64467 0.69216 0.0
H760 H 0.45981 0.65851 0.7144 0.0
C761 C 0.39192 0.65074 0.65391 0.0
C762 C 0.41714 0.65937 0.63717 0.0
H763 H 0.37145 0.63782 0.70406 0.0
H764 H 0.37291 0.64821 0.6373 0.0
C765 C 0.44143 0.66216 0.65976 0.0
C766 C 0.57927 0.14958 0.87012 0.0
C767 C 0.59887 0.15439 0.84128 0.0
H768 H 0.56822 0.15487 0.92773 0.0
C769 C 0.62342 0.1685 0.8497 0.0
H770 H 0.56024 0.13867 0.86479 0.0
C771 C 0.62801 0.17782 0.88604 0.0
C772 C 0.60807 0.17341 0.91465 0.0
H773 H 0.63901 0.17249 0.82817 0.0
H774 H 0.64681 0.189 0.89148 0.0
C775 C 0.58379 0.15899 0.90626 0.0
C776 C 0.14902 0.65197 0.35578 0.0
C777 C 0.12413 0.65427 0.33421 0.0
H778 H 0.1682 0.65521 0.41009 0.0
C779 C 0.09917 0.66272 0.35179 0.0
H780 H 0.16865 0.6455 0.34314 0.0
C781 C 0.09897 0.66831 0.39012 0.0
C782 C 0.12373 0.66563 0.41189 0.0
H783 H 0.07965 0.66483 0.33603 0.0
H784 H 0.07937 0.67487 0.40263 0.0
C785 C 0.14884 0.65764 0.39416 0.0
C786 C 0.59465 0.86247 0.65829 0.0
C787 C 0.61831 0.86535 0.63456 0.0
H788 H 0.57779 0.86589 0.7138 0.0
C789 C 0.64403 0.87373 0.65017 0.0
H790 H 0.57463 0.85564 0.64742 0.0
C791 C 0.64587 0.87956 0.68843 0.0
C792 C 0.62207 0.87701 0.71199 0.0
H793 H 0.66258 0.87631 0.63268 0.0
H794 H 0.66591 0.8863 0.69944 0.0
C795 C 0.59651 0.86819 0.69649 0.0
C796 C 0.38385 0.35559 0.90135 0.0
C797 C 0.40622 0.34025 0.91432 0.0
H798 H 0.36794 0.37931 0.85728 0.0
C799 C 0.43091 0.33829 0.89224 0.0
H800 H 0.36446 0.35741 0.9174 0.0
C801 C 0.43289 0.35075 0.85768 0.0
C802 C 0.41023 0.36552 0.84424 0.0
H803 H 0.44878 0.32704 0.90159 0.0
H804 H 0.45209 0.34851 0.84128 0.0
C805 C 0.38581 0.36805 0.86671 0.0
C806 C 0.88997 0.15833 0.14555 0.0
C807 C 0.91535 0.16649 0.12874 0.0
H808 H 0.86936 0.14548 0.19558 0.0
C809 C 0.93983 0.16856 0.15116 0.0
H810 H 0.87081 0.15631 0.12907 0.0
C811 C 0.93905 0.16232 0.18929 0.0
C812 C 0.91379 0.15376 0.20594 0.0
H813 H 0.95963 0.17517 0.13932 0.0
H814 H 0.95834 0.16403 0.20563 0.0
C815 C 0.88921 0.15198 0.18367 0.0
C816 C 0.95257 0.65368 0.85901 0.0
C817 C 0.95801 0.6742 0.83494 0.0
H818 H 0.93694 0.64128 0.91221 0.0
C819 C 0.95208 0.69891 0.84788 0.0
H820 H 0.95668 0.63441 0.85002 0.0
C821 C 0.94078 0.70293 0.88389 0.0
C822 C 0.93479 0.6823 0.90758 0.0
H823 H 0.95595 0.71519 0.83006 0.0
H824 H 0.93643 0.72214 0.89297 0.0
C825 C 0.94099 0.65766 0.89468 0.0
C826 C 0.11835 0.17953 0.64772 0.0
C827 C 0.09524 0.19016 0.62833 0.0
H828 H 0.13283 0.15956 0.69633 0.0
C829 C 0.0682 0.18913 0.64524 0.0
H830 H 0.13944 0.17982 0.63564 0.0
C831 C 0.06434 0.17742 0.68031 0.0
C832 C 0.0874 0.16629 0.69923 0.0
H833 H 0.04986 0.19705 0.63113 0.0
H834 H 0.04324 0.17681 0.69234 0.0
C835 C 0.11447 0.16772 0.68256 0.0
C836 C 0.60781 0.34539 0.39365 0.0
C837 C 0.58512 0.33648 0.4156 0.0
H838 H 0.621 0.36312 0.34255 0.0
C839 C 0.55741 0.33836 0.4009 0.0
H840 H 0.6294 0.34439 0.40398 0.0
C841 C 0.55252 0.34923 0.36548 0.0
C842 C 0.57521 0.35858 0.3439 0.0
H843 H 0.53937 0.33178 0.417 0.0
H844 H 0.53094 0.35053 0.35522 0.0
C845 C 0.60292 0.3563 0.35838 0.0
C846 C 0.4189 0.86396 0.17871 0.0
C847 C 0.44544 0.86379 0.19686 0.0
H848 H 0.39423 0.85215 0.13152 0.0
C849 C 0.46775 0.84989 0.1806 0.0
H850 H 0.40108 0.87421 0.19055 0.0
C851 C 0.46379 0.83721 0.14632 0.0
C852 C 0.43733 0.83786 0.12785 0.0
H853 H 0.4884 0.84925 0.19392 0.0
H854 H 0.4816 0.82724 0.13399 0.0
C855 C 0.41486 0.85109 0.14486 0.0
C856 C 0.92511 0.35935 0.67701 0.0
C857 C 0.95296 0.36152 0.69101 0.0
H858 H 0.89824 0.34787 0.63164 0.0
C859 C 0.97549 0.35249 0.66883 0.0
H860 H 0.90716 0.36592 0.69333 0.0
C861 C 0.9703 0.34203 0.63327 0.0
C862 C 0.94246 0.34023 0.61907 0.0
H863 H 0.99717 0.35372 0.67874 0.0
H864 H 0.98822 0.33569 0.61669 0.0
C865 C 0.91993 0.34882 0.64161 0.0
C866 C 0.48658 0.18572 0.37266 0.0
C867 C 0.46508 0.17543 0.34999 0.0
H868 H 0.49728 0.20312 0.42516 0.0
C869 C 0.43683 0.17672 0.36282 0.0
H870 H 0.50853 0.18511 0.36366 0.0
C871 C 0.43033 0.18716 0.3979 0.0
C872 C 0.45191 0.19651 0.42131 0.0
H873 H 0.41964 0.16917 0.34606 0.0
H874 H 0.40843 0.18715 0.40713 0.0
C875 C 0.48008 0.19607 0.40794 0.0
C876 C 0.56473 0.67632 0.18185 0.0
C877 C 0.58734 0.66488 0.2013 0.0
H878 H 0.55137 0.69656 0.13263 0.0
C879 C 0.61478 0.66655 0.18574 0.0
H880 H 0.54337 0.67554 0.19303 0.0
C881 C 0.61945 0.67881 0.15142 0.0
C882 C 0.5968 0.68967 0.13141 0.0
H883 H 0.63282 0.65819 0.19996 0.0
H884 H 0.6408 0.67921 0.14018 0.0
C885 C 0.56938 0.68847 0.14725 0.0
C886 C 0.0547 0.85167 0.86081 0.0
C887 C 0.07779 0.86105 0.84003 0.0
H888 H 0.04062 0.83392 0.91171 0.0
C889 C 0.10525 0.85842 0.85523 0.0
H890 H 0.03329 0.85323 0.84997 0.0
C891 C 0.10951 0.84717 0.8904 0.0
C892 C 0.08642 0.83826 0.91161 0.0
H893 H 0.12364 0.86522 0.84004 0.0
H894 H 0.13093 0.84593 0.90128 0.0
C895 C 0.05896 0.84048 0.89619 0.0
C896 C 0.09803 0.30936 0.42626 0.0
C897 C 0.12579 0.31856 0.42065 0.0
H898 H 0.07142 0.28133 0.45186 0.0
C899 C 0.14823 0.30623 0.43944 0.0
H900 H 0.08012 0.31798 0.41219 0.0
C901 C 0.14318 0.28495 0.46212 0.0
C902 C 0.11554 0.2754 0.46683 0.0
H903 H 0.16982 0.31287 0.43646 0.0
H904 H 0.16109 0.27574 0.47548 0.0
C905 C 0.09299 0.28814 0.44904 0.0
C906 C 0.93207 0.83862 0.65102 0.0
C907 C 0.9247 0.86044 0.63034 0.0
H908 H 0.96022 0.82179 0.69132 0.0
C909 C 0.93953 0.88304 0.63743 0.0
H910 H 0.92119 0.82083 0.6463 0.0
C911 C 0.9619 0.88358 0.66331 0.0
C912 C 0.97017 0.86149 0.6827 0.0
H913 H 0.93446 0.90021 0.62214 0.0
H914 H 0.97328 0.90121 0.6672 0.0
C915 C 0.95457 0.83913 0.6768 0.0
C916 C 0.3926 0.74289 0.96222 0.0
C917 C 0.41996 0.75278 0.96805 0.0
H918 H 0.36708 0.71457 0.93569 0.0
C919 C 0.44315 0.74032 0.95137 0.0
H920 H 0.37422 0.7519 0.97473 0.0
C921 C 0.43904 0.719 0.92858 0.0
C922 C 0.41158 0.70943 0.92187 0.0
H923 H 0.46453 0.74741 0.95508 0.0
H924 H 0.45743 0.71059 0.91537 0.0
C925 C 0.38847 0.7215 0.93954 0.0
C926 C 0.60323 0.1993 0.15026 0.0
C927 C 0.61098 0.17755 0.1297 0.0
H928 H 0.57663 0.21509 0.19323 0.0
C929 C 0.59885 0.15418 0.13962 0.0
H930 H 0.61202 0.21766 0.14322 0.0
C931 C 0.57882 0.15269 0.16855 0.0
C932 C 0.57001 0.17461 0.18791 0.0
H933 H 0.60433 0.13709 0.1244 0.0
H934 H 0.56946 0.13441 0.17476 0.0
C935 C 0.58281 0.19787 0.17883 0.0
C936 C 0.09351 0.72268 0.11946 0.0
C937 C 0.1213 0.71331 0.12456 0.0
H938 H 0.06659 0.75029 0.09332 0.0
C939 C 0.14345 0.72509 0.10448 0.0
H940 H 0.07577 0.71453 0.13443 0.0
C941 C 0.13811 0.74591 0.08093 0.0
C942 C 0.11044 0.75554 0.07657 0.0
H943 H 0.16506 0.71836 0.10696 0.0
H944 H 0.15581 0.75467 0.06651 0.0
C945 C 0.08818 0.74341 0.0958 0.0
C946 C 0.56378 0.84692 0.36258 0.0
C947 C 0.54683 0.86876 0.35865 0.0
H948 H 0.59818 0.82882 0.39145 0.0
C949 C 0.55359 0.89022 0.38033 0.0
H950 H 0.55933 0.83006 0.3463 0.0
C951 C 0.57596 0.88952 0.40629 0.0
C952 C 0.59223 0.86737 0.41123 0.0
H953 H 0.54111 0.90741 0.37801 0.0
H954 H 0.57994 0.90616 0.42326 0.0
C955 C 0.58618 0.84624 0.38847 0.0
C956 C 0.4444 0.28821 0.59921 0.0
C957 C 0.42178 0.27494 0.58264 0.0
H958 H 0.4573 0.31742 0.63693 0.0
C959 C 0.39389 0.28293 0.59039 0.0
H960 H 0.46616 0.28259 0.59402 0.0
C961 C 0.38873 0.30318 0.61495 0.0
C962 C 0.41131 0.31596 0.63255 0.0
H963 H 0.37592 0.27325 0.57802 0.0
H964 H 0.36697 0.30863 0.62038 0.0
C965 C 0.43926 0.30839 0.62384 0.0
C966 C 0.96241 0.18333 0.85681 0.0
C967 C 0.97917 0.16139 0.85318 0.0
H968 H 0.92829 0.20178 0.88564 0.0
C969 C 0.9721 0.13996 0.87482 0.0
H970 H 0.96711 0.20015 0.84052 0.0
C971 C 0.94978 0.14087 0.90079 0.0
C972 C 0.9339 0.16322 0.90572 0.0
H973 H 0.98442 0.12267 0.87268 0.0
H974 H 0.94566 0.12431 0.91792 0.0
C975 C 0.94005 0.18423 0.8827 0.0
C976 C 0.93735 0.71905 0.62885 0.0
C977 C 0.9205 0.6975 0.63484 0.0
H978 H 0.94178 0.75439 0.59964 0.0
C979 C 0.89593 0.69412 0.61309 0.0
H980 H 0.95632 0.72212 0.64535 0.0
C981 C 0.88773 0.71239 0.58685 0.0
C982 C 0.90375 0.73459 0.58218 0.0
H983 H 0.88275 0.67751 0.61689 0.0
H984 H 0.86818 0.70965 0.57147 0.0
C985 C 0.92892 0.73754 0.60296 0.0
C986 C 0.02455 0.18229 0.37131 0.0
C987 C 1.01241 0.15843 0.36405 0.0
H988 H 0.05231 0.20411 0.40615 0.0
C989 C 0.02179 0.1374 0.38482 0.0
H990 H 0.01774 0.19893 0.3559 0.0
C991 C 0.04176 0.14036 0.41345 0.0
C992 C 0.0527 0.16446 0.42226 0.0
H993 H 1.01308 0.11872 0.37973 0.0
H994 H 0.04815 0.12377 0.42919 0.0
C995 C 0.04444 0.18529 0.40014 0.0
C996 C 0.6156 0.29641 0.12482 0.0
C997 C 0.63244 0.30339 0.09391 0.0
H998 H 0.59316 0.30837 0.1737 0.0
C999 C 0.63937 0.32912 0.08913 0.0
H1000 H 0.60943 0.27689 0.12928 0.0
C1001 C 0.62959 0.34739 0.11456 0.0
C1002 C 0.61258 0.34034 0.1453 0.0
H1003 H 0.65248 0.33516 0.06586 0.0
H1004 H 0.63496 0.36705 0.10972 0.0
C1005 C 0.60589 0.31459 0.15016 0.0
C1006 C 0.49144 0.84284 0.90303 0.0
C1007 C 0.48224 0.86371 0.92434 0.0
H1008 H 0.51954 0.8293 0.86025 0.0
C1009 C 0.49279 0.88792 0.91545 0.0
H1010 H 0.48385 0.82394 0.90919 0.0
C1011 C 0.51334 0.891 0.88759 0.0
C1012 C 0.52372 0.86995 0.86776 0.0
H1013 H 0.48565 0.90451 0.93061 0.0
H1014 H 0.52173 0.9098 0.88246 0.0
C1015 C 0.51196 0.84593 0.87499 0.0
C1016 C 0.93088 0.28585 0.91573 0.0
C1017 C 0.91217 0.29105 0.94552 0.0
H1018 H 0.95265 0.30016 0.86747 0.0
C1019 C 0.9018 0.31585 0.94987 0.0
H1020 H 0.93957 0.26703 0.91187 0.0
C1021 C 0.90945 0.33488 0.92452 0.0
C1022 C 0.92775 0.32958 0.89433 0.0
H1023 H 0.88724 0.32045 0.97235 0.0
H1024 H 0.90103 0.35376 0.92867 0.0
C1025 C 0.93862 0.3049 0.89047 0.0
C1026 C 0.51459 0.14012 0.66794 0.0
C1027 C 0.52588 0.16162 0.68575 0.0
H1028 H 0.48689 0.1258 0.6255 0.0
C1029 C 0.51529 0.18569 0.67588 0.0
H1030 H 0.52206 0.12129 0.67504 0.0
C1031 C 0.49522 0.18828 0.64715 0.0
C1032 C 0.48535 0.16685 0.6277 0.0
H1033 H 0.52357 0.20267 0.68897 0.0
H1034 H 0.4886 0.20713 0.63886 0.0
C1035 C 0.49458 0.14272 0.63929 0.0
C1036 C 0.59956 0.7417 0.42827 0.0
C1037 C 0.62092 0.73902 0.45556 0.0
H1038 H 0.57745 0.72463 0.38216 0.0
C1039 C 0.63564 0.71592 0.45811 0.0
H1040 H 0.58769 0.75921 0.42591 0.0
C1041 C 0.62988 0.69626 0.43305 0.0
C1042 C 0.60904 0.69914 0.40515 0.0
H1043 H 0.65232 0.71333 0.47864 0.0
H1044 H 0.64191 0.67882 0.43527 0.0
C1045 C 0.59353 0.72187 0.40346 0.0
C1046 C 0.03874 0.89113 0.12777 0.0
C1047 C 0.04893 0.86679 0.11873 0.0
H1048 H 1.01093 0.91338 0.16198 0.0
C1049 C 0.04053 0.84616 0.1411 0.0
H1050 H 0.04531 0.90755 0.11178 0.0
C1051 C 0.02104 0.84958 0.17031 0.0
C1052 C 1.00949 0.87369 0.17769 0.0
H1053 H 0.04787 0.82717 0.1349 0.0
H1054 H 1.01397 0.83309 0.18581 0.0
C1055 C 0.01919 0.89453 0.1568 0.0
C1056 C 0.64582 0.78384 0.96338 0.0
C1057 C 0.61834 0.7743 0.96968 0.0
H1058 H 0.67166 0.81151 0.93578 0.0
C1059 C 0.59531 0.78675 0.95253 0.0
H1060 H 0.66409 0.77484 0.97617 0.0
C1061 C 0.59966 0.80769 0.92896 0.0
C1062 C 0.62721 0.81693 0.92185 0.0
H1063 H 0.57384 0.77995 0.95654 0.0
H1064 H 0.58134 0.81609 0.91553 0.0
C1065 C 0.65018 0.80486 0.9399 0.0
C1066 C 0.47788 0.34084 0.15916 0.0
C1067 C 0.46582 0.35831 0.1843 0.0
H1068 H 0.47207 0.31722 0.11123 0.0
C1069 C 0.437 0.36483 0.17989 0.0
H1070 H 0.49998 0.33535 0.16153 0.0
C1071 C 0.42081 0.35434 0.15067 0.0
C1072 C 0.43315 0.3372 0.1252 0.0
H1073 H 0.42703 0.37831 0.19866 0.0
H1074 H 0.39875 0.35982 0.14784 0.0
C1075 C 0.46183 0.33049 0.13006 0.0
C1076 C 0.89109 0.24774 0.45381 0.0
C1077 C 0.91862 0.25697 0.46053 0.0
H1078 H 0.8652 0.22024 0.42607 0.0
C1079 C 0.94171 0.24416 0.44419 0.0
H1080 H 0.87278 0.25702 0.46605 0.0
C1081 C 0.93735 0.22316 0.42083 0.0
C1082 C 0.90974 0.21427 0.41323 0.0
H1083 H 0.96322 0.25075 0.44859 0.0
H1084 H 0.9557 0.21445 0.4079 0.0
C1085 C 0.88672 0.22666 0.43058 0.0
C1086 C 0.08892 0.64097 0.63976 0.0
C1087 C 0.10421 0.66349 0.63376 0.0
H1088 H 0.05395 0.62295 0.66731 0.0
C1089 C 0.09633 0.68526 0.65417 0.0
H1090 H 0.09434 0.62384 0.62461 0.0
C1091 C 0.07295 0.68482 0.67853 0.0
C1092 C 0.05692 0.66256 0.68328 0.0
H1093 H 0.10754 0.70299 0.65029 0.0
H1094 H 0.06699 0.70213 0.69283 0.0
C1095 C 0.06565 0.64049 0.66425 0.0
C1096 C 0.64041 0.24331 0.58022 0.0
C1097 C 0.61241 0.25203 0.57529 0.0
H1098 H 0.66808 0.21646 0.60659 0.0
C1099 C 0.59034 0.23881 0.59326 0.0
H1100 H 0.65797 0.25292 0.56671 0.0
C1101 C 0.59616 0.21799 0.61652 0.0
C1102 C 0.62427 0.20969 0.62245 0.0
H1103 H 0.56851 0.24496 0.59025 0.0
H1104 H 0.57856 0.20904 0.63077 0.0
C1105 C 0.64624 0.22243 0.60338 0.0
C1106 C 0.07044 0.35562 0.86208 0.0
C1107 C 0.06914 0.37981 0.8456 0.0
H1108 H 0.09034 0.3316 0.90275 0.0
C1109 C 0.08921 0.39813 0.85654 0.0
H1110 H 0.05539 0.34104 0.85425 0.0
C1111 C 0.10909 0.39283 0.8847 0.0
C1112 C 0.10964 0.36897 0.90225 0.0
H1113 H 0.08885 0.41698 0.84447 0.0
H1114 H 0.12352 0.40767 0.89342 0.0
C1115 C 0.09056 0.35021 0.88989 0.0
C1116 C 0.94493 0.79148 0.09209 0.0
C1117 C 0.92288 0.77848 0.07377 0.0
H1118 H 0.95667 0.82085 0.13021 0.0
C1119 C 0.89485 0.78703 0.07902 0.0
H1120 H 0.96678 0.78545 0.08887 0.0
C1121 C 0.88899 0.8076 0.10275 0.0
C1122 C 0.91099 0.82019 0.12192 0.0
H1123 H 0.87732 0.77754 0.06533 0.0
H1124 H 0.86715 0.8135 0.10624 0.0
C1125 C 0.93909 0.812 0.1158 0.0
C1126 C 0.44116 0.68098 0.39049 0.0
C1127 C 0.43551 0.65963 0.41307 0.0
H1128 H 0.4673 0.69755 0.34779 0.0
C1129 C 0.45144 0.63744 0.4069 0.0
H1130 H 0.42939 0.69844 0.3944 0.0
C1131 C 0.47322 0.63694 0.38008 0.0
C1132 C 0.47975 0.65865 0.35877 0.0
H1133 H 0.44772 0.62062 0.42365 0.0
H1134 H 0.48553 0.61971 0.37696 0.0
C1135 C 0.46301 0.6805 0.36376 0.0
C1136 C 0.43867 0.20788 0.15425 0.0
C1137 C 0.42624 0.18415 0.16162 0.0
H1138 H 0.43502 0.24377 0.12661 0.0
C1139 C 0.39903 0.17921 0.14716 0.0
H1140 H 0.45972 0.21228 0.16444 0.0
C1141 C 0.38485 0.19731 0.1254 0.0
C1142 C 0.39746 0.22087 0.1175 0.0
H1143 H 0.38855 0.16136 0.15279 0.0
H1144 H 0.36389 0.19285 0.11492 0.0
C1145 C 0.42446 0.226 0.13249 0.0
C1146 C 0.52653 0.63599 0.88944 0.0
C1147 C 0.51563 0.65702 0.87003 0.0
H1148 H 0.5544 0.62259 0.93234 0.0
C1149 C 0.52672 0.68121 0.87787 0.0
H1150 H 0.51867 0.61707 0.88384 0.0
C1151 C 0.54704 0.68443 0.90612 0.0
C1152 C 0.55672 0.66352 0.92702 0.0
H1153 H 0.51872 0.69784 0.86348 0.0
H1154 H 0.55409 0.70341 0.91276 0.0
C1155 C 0.54688 0.63919 0.9175 0.0
C1156 C 0.09527 0.80456 0.64089 0.0
C1157 C 0.10679 0.82901 0.63777 0.0
H1158 H 0.09522 0.76646 0.62021 0.0
C1159 C 0.12665 0.83388 0.60919 0.0
H1160 H 0.08 0.80021 0.66265 0.0
C1161 C 0.13546 0.8146 0.58502 0.0
C1162 C 0.12473 0.78992 0.58893 0.0
H1163 H 0.13558 0.85263 0.60564 0.0
H1164 H 0.15133 0.81888 0.56402 0.0
C1165 C 0.10423 0.78519 0.61682 0.0
C1166 C 0.99197 0.34436 0.39703 0.0
C1167 C 0.98116 0.36601 0.41512 0.0
H1168 H 0.0221 0.32952 0.35773 0.0
C1169 C 0.99084 0.39001 0.40367 0.0
H1170 H 0.98507 0.32559 0.40522 0.0
C1171 C 1.01213 0.39228 0.37664 0.0
C1172 C 0.02416 0.37059 0.3602 0.0
H1173 H 0.98248 0.40711 0.4163 0.0
H1174 H 0.01985 0.41103 0.36959 0.0
C1175 C 1.01324 0.34664 0.3698 0.0
C1176 C 0.39458 0.80801 0.3956 0.0
C1177 C 0.41696 0.82541 0.39957 0.0
H1178 H 0.3729 0.77588 0.41804 0.0
C1179 C 0.43499 0.82326 0.43084 0.0
H1180 H 0.3805 0.80883 0.37167 0.0
C1181 C 0.43068 0.8041 0.45751 0.0
C1182 C 0.40842 0.78659 0.45317 0.0
H1183 H 0.45229 0.83648 0.43482 0.0
H1184 H 0.4451 0.80268 0.48105 0.0
C1185 C 0.39038 0.78889 0.42202 0.0
C1186 C 0.01678 0.63937 0.15309 0.0
C1187 C 0.02159 0.65818 0.18025 0.0
H1188 H 0.997 0.62986 0.10094 0.0
C1189 C 1.00638 0.68113 0.17775 0.0
H1190 H 0.02788 0.62138 0.15426 0.0
C1191 C 0.98849 0.68587 0.14711 0.0
C1192 C 0.98574 0.66783 0.11842 0.0
H1193 H 1.00952 0.69601 0.19825 0.0
H1194 H 0.97838 0.70424 0.14456 0.0
C1195 C 0.99918 0.64421 0.12245 0.0
C1196 C 0.09197 0.24227 0.93653 0.0
C1197 C 0.11311 0.23946 0.96406 0.0
H1198 H 0.07155 0.22616 0.88835 0.0
C1199 C 0.12886 0.21686 0.96534 0.0
H1200 H 0.07942 0.25946 0.93513 0.0
C1201 C 0.12457 0.19801 0.93844 0.0
C1202 C 0.10416 0.20122 0.91008 0.0
H1203 H 0.14542 0.21426 0.98604 0.0
H1204 H 0.13754 0.18107 0.93942 0.0
C1205 C 0.08736 0.22322 0.90996 0.0
C1206 C 0.54001 0.38419 0.63795 0.0
C1207 C 0.54952 0.36017 0.62627 0.0
H1208 H 0.5135 0.40532 0.67531 0.0
C1209 C 0.54117 0.33872 0.64692 0.0
H1210 H 0.54656 0.40116 0.62324 0.0
C1211 C 0.52235 0.34113 0.67713 0.0
C1212 C 0.5115 0.36504 0.68729 0.0
H1213 H 0.54804 0.31996 0.63861 0.0
H1214 H 0.51525 0.3241 0.69128 0.0
C1215 C 0.52122 0.3866 0.66805 0.0
C1216 C 0.12718 0.49362 0.25444 0.0
C1217 C 0.12471 0.49264 0.29375 0.0
H1218 H 0.12906 0.51686 0.20517 0.0
C1219 C 0.1222 0.51567 0.31349 0.0
H1220 H 0.12936 0.47636 0.23829 0.0
C1221 C 0.12205 0.53897 0.29445 0.0
C1222 C 0.12466 0.53995 0.25515 0.0
H1223 H 0.11995 0.51573 0.34369 0.0
H1224 H 0.12023 0.55625 0.31062 0.0
C1225 C 0.12728 0.51693 0.23543 0.0
C1226 C 0.77552 0.87993 0.52639 0.0
C1227 C 0.79024 0.85669 0.52649 0.0
H1228 H 0.73545 0.89895 0.52048 0.0
C1229 C 0.77484 0.83434 0.51954 0.0
H1230 H 0.78665 0.89753 0.53159 0.0
C1231 C 0.74555 0.83519 0.51268 0.0
C1232 C 0.73073 0.85838 0.51299 0.0
H1233 H 0.78544 0.8161 0.51919 0.0
H1234 H 0.73445 0.81755 0.50761 0.0
C1235 C 0.74611 0.88075 0.51998 0.0
C1236 C 0.41397 0.50911 0.7442 0.0
C1237 C 0.41478 0.48641 0.76499 0.0
H1238 H 0.41378 0.54976 0.74535 0.0
C1239 C 0.41638 0.48796 0.80432 0.0
H1240 H 0.41304 0.50866 0.71387 0.0
C1241 C 0.41676 0.51157 0.82238 0.0
C1242 C 0.41589 0.53427 0.80157 0.0
H1243 H 0.41685 0.4709 0.8212 0.0
H1244 H 0.418 0.51204 0.85268 0.0
C1245 C 0.41467 0.53271 0.76223 0.0
C1246 C 0.78337 0.19765 1.00228 0.0
C1247 C 0.79874 0.17608 1.0137 0.0
H1248 H 0.74326 0.21675 1.00068 0.0
C1249 C 0.78402 0.15639 0.0319 0.0
H1250 H 0.79392 0.21321 0.9882 0.0
C1251 C 0.75483 0.15844 0.03912 0.0
C1252 C 0.73961 0.18024 0.02836 0.0
H1253 H 0.79512 0.1395 0.04112 0.0
H1254 H 0.74429 0.14304 0.05361 0.0
C1255 C 0.75424 0.1997 1.00952 0.0
C1256 C 0.97119 0.49036 0.74121 0.0
C1257 C 0.98216 0.48693 0.77751 0.0
H1258 H 0.95885 0.51655 0.69851 0.0
C1259 C 0.99004 0.50852 0.79822 0.0
H1260 H 0.96484 0.47427 0.72442 0.0
C1261 C 0.98609 0.53287 0.78369 0.0
C1262 C 0.97437 0.5364 0.74782 0.0
H1263 H 0.99914 0.50673 0.82595 0.0
H1264 H 0.99169 0.54886 0.80111 0.0
C1265 C 0.96741 0.51477 0.72653 0.0
C1266 C 0.28461 0.20097 0.52462 0.0
C1267 C 0.29976 0.17796 0.52489 0.0
H1268 H 0.24402 0.21914 0.51865 0.0
C1269 C 0.28486 0.15528 0.5188 0.0
H1270 H 0.29546 0.21874 0.52948 0.0
C1271 C 0.2556 0.1555 0.51267 0.0
C1272 C 0.24034 0.17841 0.51263 0.0
H1273 H 0.29587 0.13726 0.51842 0.0
H1274 H 0.24487 0.1376 0.50841 0.0
C1275 C 0.25514 0.20118 0.5188 0.0
C1276 C 0.53262 0.53173 0.26346 0.0
C1277 C 0.55859 0.53561 0.28194 0.0
H1278 H 0.50424 0.50512 0.23825 0.0
C1279 C 0.57643 0.51456 0.28814 0.0
H1280 H 0.51814 0.54734 0.25872 0.0
C1281 C 0.56841 0.49027 0.27654 0.0
C1282 C 0.54237 0.48636 0.25826 0.0
H1283 H 0.59679 0.51685 0.30175 0.0
H1284 H 0.58286 0.47464 0.28136 0.0
C1285 C 0.52462 0.50743 0.25182 0.0
C1286 C 0.24919 0.87352 1.01738 0.0
C1287 C 0.234 0.85087 0.02242 0.0
H1288 H 0.28945 0.89098 1.00797 0.0
C1289 C 0.24886 0.82773 1.02145 0.0
H1290 H 0.23837 0.89164 1.01758 0.0
C1291 C 0.27835 0.82735 1.01595 0.0
C1292 C 0.29344 0.85008 1.01075 0.0
H1293 H 0.23776 0.80998 0.02551 0.0
H1294 H 0.28929 0.80929 1.01525 0.0
C1295 C 0.27846 0.87313 1.01149 0.0
C1296 C 0.62234 0.99199 0.75496 0.0
C1297 C 0.6236 0.99095 0.79436 0.0
H1298 H 0.62141 0.01533 0.70576 0.0
C1299 C 0.62465 1.01397 0.81435 0.0
H1300 H 0.62172 0.97472 0.73861 0.0
C1301 C 0.62448 0.03733 0.79547 0.0
C1302 C 0.62356 0.03835 0.75605 0.0
H1303 H 0.62533 1.01396 0.84469 0.0
H1304 H 0.62553 0.0546 0.81179 0.0
C1305 C 0.62246 0.01534 0.73608 0.0
C1306 C 0.27204 0.32366 0.02646 0.0
C1307 C 0.28908 0.34453 0.03621 0.0
H1308 H 0.23063 0.31017 1.01212 0.0
C1309 C 0.27629 0.3686 0.0386 0.0
H1310 H 0.28112 0.30485 0.02418 0.0
C1311 C 0.24713 0.37166 0.03182 0.0
C1312 C 0.23012 0.35075 0.02214 0.0
H1313 H 0.28874 0.3851 0.046 0.0
H1314 H 0.23793 0.39042 0.0342 0.0
C1315 C 0.24302 0.32674 1.01938 0.0
C1316 C 0.88068 0.02858 0.27943 0.0
C1317 C 0.90653 0.04065 0.28766 0.0
H1318 H 0.85993 0.99623 0.25575 0.0
C1319 C 0.93199 0.02839 0.27774 0.0
H1320 H 0.8607 0.03759 0.28638 0.0
C1321 C 0.93155 1.00446 0.26042 0.0
C1322 C 0.90563 0.99254 0.25194 0.0
H1323 H 0.95223 0.03714 0.2839 0.0
H1324 H 0.95146 0.99544 0.25317 0.0
C1325 C 0.88023 1.00497 0.26156 0.0
C1326 C 0.28487 0.64652 0.51937 0.0
C1327 C 0.30052 0.66921 0.51754 0.0
H1328 H 0.24413 0.62908 0.52673 0.0
C1329 C 0.28597 0.69229 0.52257 0.0
H1330 H 0.29531 0.62839 0.51567 0.0
C1331 C 0.25663 0.69267 0.52935 0.0
C1332 C 0.24094 0.67 0.53091 0.0
H1333 H 0.29727 0.71014 0.52152 0.0
H1334 H 0.24621 0.71082 0.53302 0.0
C1335 C 0.25546 0.64692 0.52575 0.0
C1336 C 0.51087 0.02207 0.29832 0.0
C1337 C 0.49387 0.04176 0.28369 0.0
H1338 H 0.51394 0.98288 0.31349 0.0
C1339 C 0.46578 0.03608 0.27329 0.0
H1340 H 0.53238 0.0256 0.30744 0.0
C1341 C 0.45515 1.01143 0.27717 0.0
C1342 C 0.47235 0.99179 0.2913 0.0
H1343 H 0.45209 0.05051 0.26151 0.0
H1344 H 0.43355 1.00764 0.2685 0.0
C1345 C 0.50032 0.99743 0.30183 0.0
C1346 C 0.78955 0.65603 1.02124 0.0
C1347 C 0.80434 0.67905 0.02445 0.0
H1348 H 0.7495 0.63762 1.01497 0.0
C1349 C 0.7888 0.70186 0.02363 0.0
H1350 H 0.80078 0.63813 1.02136 0.0
C1351 C 0.75914 0.70157 1.0198 0.0
C1352 C 0.74447 0.67848 1.01626 0.0
H1353 H 0.79951 0.7199 0.02636 0.0
H1354 H 0.74777 0.71941 1.01896 0.0
C1355 C 0.76009 0.65576 1.01716 0.0
C1356 C 0.05607 0.03514 0.74729 0.0
C1357 C 0.06491 0.03852 0.78455 0.0
H1358 H 0.04581 1.00906 0.70367 0.0
C1359 C 0.06926 0.01684 0.80703 0.0
H1360 H 0.05252 0.05124 0.72908 0.0
C1361 C 0.06584 0.99246 0.79221 0.0
C1362 C 0.05794 0.98912 0.75457 0.0
H1363 H 0.07549 0.01859 0.8361 0.0
H1364 H 0.07016 0.97626 0.80998 0.0
C1365 C 0.05255 1.0108 0.73256 0.0
C1366 C 0.7478 0.37457 0.52134 0.0
C1367 C 0.73327 0.35144 0.52474 0.0
H1368 H 0.78744 0.39323 0.51243 0.0
C1369 C 0.7487 0.3287 0.52137 0.0
H1370 H 0.73653 0.39241 0.52339 0.0
C1371 C 0.7781 0.32917 0.51506 0.0
C1372 C 0.79251 0.35239 0.51146 0.0
H1373 H 0.73812 0.31059 0.52413 0.0
H1374 H 0.78947 0.31141 0.51245 0.0
C1375 C 0.77697 0.37504 0.51467 0.0
loop_
_geom_bond_atom_site_label_1
_geom_bond_atom_site_label_2
_geom_bond_distance
_geom_bond_site_symmetry_2
_ccdc_geom_bond_type
Cu0 N1 1.999 . S
Cu0 O6 1.974 . S
Cu0 N11 1.985 . S
Cu0 O20 1.959 . S
N1 Cu0 1.999 . S
N1 C3 1.263 . S
N1 C5 1.389 . S
N2 C3 1.358 . S
N2 C4 1.400 . S
C3 N1 1.263 . S
C3 N2 1.358 . S
C3 H9 0.930 . S
C4 N2 1.400 . S
C4 C5 1.351 . S
C4 H21 0.930 . S
C5 N1 1.389 . S
C5 C4 1.351 . S
C5 H10 0.930 . S
O6 Cu0 1.974 . S
O6 C16 1.282 . S
C7 O8 1.261 . S
C7 O20 1.251 . S
O8 C7 1.261 . S
H9 C3 0.930 . S
H10 C5 0.930 . S
N11 Cu0 1.985 . S
N11 C13 1.335 . S
N11 C14 1.390 . S
N12 C13 1.345 . S
N12 C15 1.336 . S
C13 N11 1.335 . S
C13 N12 1.345 . S
C13 H18 0.930 . S
C14 N11 1.390 . S
C14 C15 1.346 . S
C14 H19 0.930 . S
C15 N12 1.336 . S
C15 C14 1.346 . S
C15 H22 0.929 . S
C16 O6 1.282 . S
C16 O17 1.216 . S
O17 C16 1.216 . S
H18 C13 0.930 . S
H19 C14 0.930 . S
O20 Cu0 1.959 . S
O20 C7 1.251 . S
H21 C4 0.930 . S
H22 C15 0.929 . S
Cu23 N24 1.999 . S
Cu23 O29 1.974 . S
Cu23 N34 1.985 . S
Cu23 O43 1.959 . S
N24 Cu23 1.999 . S
N24 C26 1.263 . S
N24 C28 1.389 . S
N25 C26 1.358 . S
N25 C27 1.400 . S
C26 N24 1.263 . S
C26 N25 1.358 . S
C26 H32 0.930 . S
C27 N25 1.400 . S
C27 C28 1.351 . S
C27 H44 0.930 . S
C28 N24 1.389 . S
C28 C27 1.351 . S
C28 H33 0.930 . S
O29 Cu23 1.974 . S
O29 C39 1.282 . S
C30 O31 1.261 . S
C30 O43 1.251 . S
O31 C30 1.261 . S
H32 C26 0.930 . S
H33 C28 0.930 . S
N34 Cu23 1.985 . S
N34 C36 1.335 . S
N34 C37 1.390 . S
N35 C36 1.345 . S
N35 C38 1.336 . S
C36 N34 1.335 . S
C36 N35 1.345 . S
C36 H41 0.930 . S
C37 N34 1.390 . S
C37 C38 1.346 . S
C37 H42 0.930 . S
C38 N35 1.336 . S
C38 C37 1.346 . S
C38 H45 0.929 . S
C39 O29 1.282 . S
C39 O40 1.216 . S
O40 C39 1.216 . S
H41 C36 0.930 . S
H42 C37 0.930 . S
O43 Cu23 1.959 . S
O43 C30 1.251 . S
H44 C27 0.930 . S
H45 C38 0.929 . S
Cu46 N47 1.999 . S
Cu46 O52 1.974 . S
Cu46 N57 1.985 . S
Cu46 O66 1.959 . S
N47 Cu46 1.999 . S
N47 C49 1.263 . S
N47 C51 1.389 . S
N48 C49 1.358 . S
N48 C50 1.400 . S
C49 N47 1.263 . S
C49 N48 1.358 . S
C49 H55 0.930 . S
C50 N48 1.400 . S
C50 C51 1.351 . S
C50 H67 0.930 . S
C51 N47 1.389 . S
C51 C50 1.351 . S
C51 H56 0.930 . S
O52 Cu46 1.974 . S
O52 C62 1.282 . S
C53 O54 1.261 . S
C53 O66 1.251 . S
O54 C53 1.261 . S
H55 C49 0.930 . S
H56 C51 0.930 . S
N57 Cu46 1.985 . S
N57 C59 1.335 . S
N57 C60 1.390 . S
N58 C59 1.345 . S
N58 C61 1.336 . S
C59 N57 1.335 . S
C59 N58 1.345 . S
C59 H64 0.930 . S
C60 N57 1.390 . S
C60 C61 1.346 . S
C60 H65 0.930 . S
C61 N58 1.336 . S
C61 C60 1.346 . S
C61 H68 0.929 . S
C62 O52 1.282 . S
C62 O63 1.216 . S
O63 C62 1.216 . S
H64 C59 0.930 . S
H65 C60 0.930 . S
O66 Cu46 1.959 . S
O66 C53 1.251 . S
H67 C50 0.930 . S
H68 C61 0.929 . S
Cu69 N70 1.999 1_554 S
Cu69 O75 1.974 . S
Cu69 N80 1.985 . S
Cu69 O89 1.959 . S
N70 Cu69 1.999 1_556 S
N70 C72 1.263 . S
N70 C74 1.389 . S
N71 C72 1.358 . S
N71 C73 1.400 . S
C72 N70 1.263 . S
C72 N71 1.358 . S
C72 H78 0.930 . S
C73 N71 1.400 . S
C73 C74 1.351 . S
C73 H90 0.930 . S
C74 N70 1.389 . S
C74 C73 1.351 . S
C74 H79 0.930 . S
O75 Cu69 1.974 . S
O75 C85 1.282 . S
C76 O77 1.261 . S
C76 O89 1.251 . S
O77 C76 1.261 . S
H78 C72 0.930 . S
H79 C74 0.930 . S
N80 Cu69 1.985 . S
N80 C82 1.335 . S
N80 C83 1.390 . S
N81 C82 1.345 . S
N81 C84 1.336 . S
C82 N80 1.335 . S
C82 N81 1.345 . S
C82 H87 0.930 . S
C83 N80 1.390 . S
C83 C84 1.346 . S
C83 H88 0.930 . S
C84 N81 1.336 . S
C84 C83 1.346 . S
C84 H91 0.929 . S
C85 O75 1.282 . S
C85 O86 1.216 . S
O86 C85 1.216 . S
H87 C82 0.930 . S
H88 C83 0.930 . S
O89 Cu69 1.959 . S
O89 C76 1.251 . S
H90 C73 0.930 . S
H91 C84 0.929 . S
Cu92 N93 1.999 . S
Cu92 O98 1.974 . S
Cu92 N103 1.985 . S
Cu92 O112 1.959 . S
N93 Cu92 1.999 . S
N93 C95 1.263 . S
N93 C97 1.389 . S
N94 C95 1.358 . S
N94 C96 1.400 . S
C95 N93 1.263 . S
C95 N94 1.358 . S
C95 H101 0.930 . S
C96 N94 1.400 . S
C96 C97 1.351 . S
C96 H113 0.930 . S
C97 N93 1.389 . S
C97 C96 1.351 . S
C97 H102 0.930 . S
O98 Cu92 1.974 . S
O98 C108 1.282 . S
C99 O100 1.261 . S
C99 O112 1.251 . S
O100 C99 1.261 . S
H101 C95 0.930 . S
H102 C97 0.930 . S
N103 Cu92 1.985 . S
N103 C105 1.335 . S
N103 C106 1.390 . S
N104 C105 1.345 . S
N104 C107 1.336 . S
C105 N103 1.335 . S
C105 N104 1.345 . S
C105 H110 0.930 . S
C106 N103 1.390 . S
C106 C107 1.346 . S
C106 H111 0.930 . S
C107 N104 1.336 . S
C107 C106 1.346 . S
C107 H114 0.929 . S
C108 O98 1.282 . S
C108 O109 1.216 . S
O109 C108 1.216 . S
H110 C105 0.930 . S
H111 C106 0.930 . S
O112 Cu92 1.959 . S
O112 C99 1.251 . S
H113 C96 0.930 . S
H114 C107 0.929 . S
Cu115 N116 1.999 . S
Cu115 O121 1.974 . S
Cu115 N126 1.985 . S
Cu115 O135 1.959 . S
N116 Cu115 1.999 . S
N116 C118 1.263 . S
N116 C120 1.389 . S
N117 C118 1.358 . S
N117 C119 1.400 . S
C118 N116 1.263 . S
C118 N117 1.358 . S
C118 H124 0.930 . S
C119 N117 1.400 . S
C119 C120 1.351 . S
C119 H136 0.930 . S
C120 N116 1.389 . S
C120 C119 1.351 . S
C120 H125 0.930 . S
O121 Cu115 1.974 . S
O121 C131 1.282 . S
C122 O123 1.261 . S
C122 O135 1.251 . S
O123 C122 1.261 . S
H124 C118 0.930 . S
H125 C120 0.930 . S
N126 Cu115 1.985 . S
N126 C128 1.335 . S
N126 C129 1.390 . S
N127 C128 1.345 . S
N127 C130 1.336 . S
C128 N126 1.335 . S
C128 N127 1.345 . S
C128 H133 0.930 . S
C129 N126 1.390 . S
C129 C130 1.346 . S
C129 H134 0.930 . S
C130 N127 1.336 . S
C130 C129 1.346 . S
C130 H137 0.929 . S
C131 O121 1.282 . S
C131 O132 1.216 . S
O132 C131 1.216 . S
H133 C128 0.930 . S
H134 C129 0.930 . S
O135 Cu115 1.959 . S
O135 C122 1.251 . S
H136 C119 0.930 . S
H137 C130 0.929 . S
Cu138 N139 1.999 . S
Cu138 O144 1.974 . S
Cu138 N149 1.985 . S
Cu138 O158 1.959 . S
N139 Cu138 1.999 . S
N139 C141 1.263 . S
N139 C143 1.389 . S
N140 C141 1.358 . S
N140 C142 1.400 . S
C141 N139 1.263 . S
C141 N140 1.358 . S
C141 H147 0.930 . S
C142 N140 1.400 . S
C142 C143 1.351 . S
C142 H159 0.930 . S
C143 N139 1.389 . S
C143 C142 1.351 . S
C143 H148 0.930 . S
O144 Cu138 1.974 . S
O144 C154 1.282 . S
C145 O146 1.261 . S
C145 O158 1.251 . S
O146 C145 1.261 . S
H147 C141 0.930 . S
H148 C143 0.930 . S
N149 Cu138 1.985 . S
N149 C151 1.335 . S
N149 C152 1.390 . S
N150 C151 1.345 . S
N150 C153 1.336 . S
C151 N149 1.335 . S
C151 N150 1.345 . S
C151 H156 0.930 . S
C152 N149 1.390 . S
C152 C153 1.346 . S
C152 H157 0.930 . S
C153 N150 1.336 . S
C153 C152 1.346 . S
C153 H160 0.929 . S
C154 O144 1.282 . S
C154 O155 1.216 . S
O155 C154 1.216 . S
H156 C151 0.930 . S
H157 C152 0.930 . S
O158 Cu138 1.959 . S
O158 C145 1.251 . S
H159 C142 0.930 . S
H160 C153 0.929 . S
Cu161 N162 1.999 1_556 S
Cu161 O167 1.974 . S
Cu161 N172 1.985 . S
Cu161 O181 1.959 . S
N162 Cu161 1.999 1_554 S
N162 C164 1.263 . S
N162 C166 1.389 . S
N163 C164 1.358 . S
N163 C165 1.400 . S
C164 N162 1.263 . S
C164 N163 1.358 . S
C164 H170 0.930 . S
C165 N163 1.400 . S
C165 C166 1.351 . S
C165 H182 0.930 . S
C166 N162 1.389 . S
C166 C165 1.351 . S
C166 H171 0.930 . S
O167 Cu161 1.974 . S
O167 C177 1.282 . S
C168 O169 1.261 . S
C168 O181 1.251 . S
O169 C168 1.261 . S
H170 C164 0.930 . S
H171 C166 0.930 . S
N172 Cu161 1.985 . S
N172 C174 1.335 . S
N172 C175 1.390 . S
N173 C174 1.345 . S
N173 C176 1.336 . S
C174 N172 1.335 . S
C174 N173 1.345 . S
C174 H179 0.930 . S
C175 N172 1.390 . S
C175 C176 1.346 . S
C175 H180 0.930 . S
C176 N173 1.336 . S
C176 C175 1.346 . S
C176 H183 0.929 . S
C177 O167 1.282 . S
C177 O178 1.216 . S
O178 C177 1.216 . S
H179 C174 0.930 . S
H180 C175 0.930 . S
O181 Cu161 1.959 . S
O181 C168 1.251 . S
H182 C165 0.930 . S
H183 C176 0.929 . S
Cu184 N185 1.999 . S
Cu184 O190 1.974 . S
Cu184 N195 1.985 . S
Cu184 O204 1.959 . S
N185 Cu184 1.999 . S
N185 C187 1.263 . S
N185 C189 1.389 . S
N186 C187 1.358 . S
N186 C188 1.400 . S
C187 N185 1.263 . S
C187 N186 1.358 . S
C187 H193 0.930 . S
C188 N186 1.400 . S
C188 C189 1.351 . S
C188 H205 0.930 . S
C189 N185 1.389 . S
C189 C188 1.351 . S
C189 H194 0.930 . S
O190 Cu184 1.974 . S
O190 C200 1.282 . S
C191 O192 1.261 . S
C191 O204 1.251 . S
O192 C191 1.261 . S
H193 C187 0.930 . S
H194 C189 0.930 . S
N195 Cu184 1.985 . S
N195 C197 1.335 . S
N195 C198 1.390 . S
N196 C197 1.345 . S
N196 C199 1.336 . S
C197 N195 1.335 . S
C197 N196 1.345 . S
C197 H202 0.930 . S
C198 N195 1.390 . S
C198 C199 1.346 . S
C198 H203 0.930 . S
C199 N196 1.336 . S
C199 C198 1.346 . S
C199 H206 0.929 . S
C200 O190 1.282 . S
C200 O201 1.216 . S
O201 C200 1.216 . S
H202 C197 0.930 . S
H203 C198 0.930 . S
O204 Cu184 1.959 . S
O204 C191 1.251 . S
H205 C188 0.930 . S
H206 C199 0.929 . S
Cu207 N208 1.999 . S
Cu207 O213 1.974 . S
Cu207 N218 1.985 . S
Cu207 O227 1.959 . S
N208 Cu207 1.999 . S
N208 C210 1.263 . S
N208 C212 1.389 . S
N209 C210 1.358 . S
N209 C211 1.400 . S
C210 N208 1.263 . S
C210 N209 1.358 . S
C210 H216 0.930 . S
C211 N209 1.400 . S
C211 C212 1.351 . S
C211 H228 0.930 . S
C212 N208 1.389 . S
C212 C211 1.351 . S
C212 H217 0.930 . S
O213 Cu207 1.974 . S
O213 C223 1.282 . S
C214 O215 1.261 . S
C214 O227 1.251 . S
O215 C214 1.261 . S
H216 C210 0.930 . S
H217 C212 0.930 . S
N218 Cu207 1.985 . S
N218 C220 1.335 . S
N218 C221 1.390 . S
N219 C220 1.345 . S
N219 C222 1.336 . S
C220 N218 1.335 . S
C220 N219 1.345 . S
C220 H225 0.930 . S
C221 N218 1.390 . S
C221 C222 1.346 . S
C221 H226 0.930 . S
C222 N219 1.336 . S
C222 C221 1.346 . S
C222 H229 0.929 . S
C223 O213 1.282 . S
C223 O224 1.216 . S
O224 C223 1.216 . S
H225 C220 0.930 . S
H226 C221 0.930 . S
O227 Cu207 1.959 . S
O227 C214 1.251 . S
H228 C211 0.930 . S
H229 C222 0.929 . S
Cu230 N231 1.999 . S
Cu230 O236 1.974 . S
Cu230 N241 1.985 . S
Cu230 O250 1.959 . S
N231 Cu230 1.999 . S
N231 C233 1.263 . S
N231 C235 1.389 . S
N232 C233 1.358 . S
N232 C234 1.400 . S
C233 N231 1.263 . S
C233 N232 1.358 . S
C233 H239 0.930 . S
C234 N232 1.400 . S
C234 C235 1.351 . S
C234 H251 0.930 . S
C235 N231 1.389 . S
C235 C234 1.351 . S
C235 H240 0.930 . S
O236 Cu230 1.974 . S
O236 C246 1.282 . S
C237 O238 1.261 . S
C237 O250 1.251 . S
O238 C237 1.261 . S
H239 C233 0.930 . S
H240 C235 0.930 . S
N241 Cu230 1.985 . S
N241 C243 1.335 . S
N241 C244 1.390 . S
N242 C243 1.345 . S
N242 C245 1.336 . S
C243 N241 1.335 . S
C243 N242 1.345 . S
C243 H248 0.930 . S
C244 N241 1.390 . S
C244 C245 1.346 . S
C244 H249 0.930 . S
C245 N242 1.336 . S
C245 C244 1.346 . S
C245 H252 0.929 . S
C246 O236 1.282 . S
C246 O247 1.216 . S
O247 C246 1.216 . S
H248 C243 0.930 . S
H249 C244 0.930 . S
O250 Cu230 1.959 . S
O250 C237 1.251 . S
H251 C234 0.930 . S
H252 C245 0.929 . S
Cu253 N254 1.999 . S
Cu253 O259 1.974 . S
Cu253 N264 1.985 . S
Cu253 O273 1.959 . S
N254 Cu253 1.999 . S
N254 C256 1.263 . S
N254 C258 1.389 . S
N255 C256 1.358 . S
N255 C257 1.400 . S
C256 N254 1.263 . S
C256 N255 1.358 . S
C256 H262 0.930 . S
C257 N255 1.400 . S
C257 C258 1.351 . S
C257 H274 0.930 . S
C258 N254 1.389 . S
C258 C257 1.351 . S
C258 H263 0.930 . S
O259 Cu253 1.974 . S
O259 C269 1.282 . S
C260 O261 1.261 . S
C260 O273 1.251 1_554 S
O261 C260 1.261 . S
H262 C256 0.930 . S
H263 C258 0.930 . S
N264 Cu253 1.985 . S
N264 C266 1.335 . S
N264 C267 1.390 . S
N265 C266 1.345 1_554 S
N265 C268 1.336 1_554 S
C266 N264 1.335 . S
C266 N265 1.345 1_556 S
C266 H271 0.930 1_556 S
C267 N264 1.390 . S
C267 C268 1.346 . S
C267 H272 0.930 . S
C268 N265 1.336 1_556 S
C268 C267 1.346 . S
C268 H275 0.929 . S
C269 O259 1.282 . S
C269 O270 1.216 . S
O270 C269 1.216 . S
H271 C266 0.930 1_554 S
H272 C267 0.930 . S
O273 Cu253 1.959 . S
O273 C260 1.251 1_556 S
H274 C257 0.930 . S
H275 C268 0.929 . S
Cu276 N277 1.999 . S
Cu276 O282 1.974 . S
Cu276 N287 1.985 . S
Cu276 O296 1.959 . S
N277 Cu276 1.999 . S
N277 C279 1.263 . S
N277 C281 1.389 . S
N278 C279 1.358 . S
N278 C280 1.400 . S
C279 N277 1.263 . S
C279 N278 1.358 . S
C279 H285 0.930 . S
C280 N278 1.400 . S
C280 C281 1.351 . S
C280 H297 0.930 . S
C281 N277 1.389 . S
C281 C280 1.351 . S
C281 H286 0.930 . S
O282 Cu276 1.974 . S
O282 C292 1.282 . S
C283 O284 1.261 . S
C283 O296 1.251 . S
O284 C283 1.261 . S
H285 C279 0.930 . S
H286 C281 0.930 . S
N287 Cu276 1.985 . S
N287 C289 1.335 . S
N287 C290 1.390 . S
N288 C289 1.345 . S
N288 C291 1.336 . S
C289 N287 1.335 . S
C289 N288 1.345 . S
C289 H294 0.930 . S
C290 N287 1.390 . S
C290 C291 1.346 . S
C290 H295 0.930 . S
C291 N288 1.336 . S
C291 C290 1.346 . S
C291 H298 0.929 . S
C292 O282 1.282 . S
C292 O293 1.216 . S
O293 C292 1.216 . S
H294 C289 0.930 . S
H295 C290 0.930 . S
O296 Cu276 1.959 . S
O296 C283 1.251 . S
H297 C280 0.930 . S
H298 C291 0.929 . S
Cu299 N300 1.999 . S
Cu299 O305 1.974 . S
Cu299 N310 1.985 . S
Cu299 O319 1.959 . S
N300 Cu299 1.999 . S
N300 C302 1.263 . S
N300 C304 1.389 . S
N301 C302 1.358 . S
N301 C303 1.400 . S
C302 N300 1.263 . S
C302 N301 1.358 . S
C302 H308 0.930 . S
C303 N301 1.400 . S
C303 C304 1.351 . S
C303 H320 0.930 . S
C304 N300 1.389 . S
C304 C303 1.351 . S
C304 H309 0.930 . S
O305 Cu299 1.974 . S
O305 C315 1.282 . S
C306 O307 1.261 . S
C306 O319 1.251 . S
O307 C306 1.261 . S
H308 C302 0.930 . S
H309 C304 0.930 . S
N310 Cu299 1.985 . S
N310 C312 1.335 . S
N310 C313 1.390 . S
N311 C312 1.345 . S
N311 C314 1.336 . S
C312 N310 1.335 . S
C312 N311 1.345 . S
C312 H317 0.930 . S
C313 N310 1.390 . S
C313 C314 1.346 . S
C313 H318 0.930 . S
C314 N311 1.336 . S
C314 C313 1.346 . S
C314 H321 0.929 . S
C315 O305 1.282 . S
C315 O316 1.216 . S
O316 C315 1.216 . S
H317 C312 0.930 . S
H318 C313 0.930 . S
O319 Cu299 1.959 . S
O319 C306 1.251 . S
H320 C303 0.930 . S
H321 C314 0.929 . S
Cu322 N323 1.999 . S
Cu322 O328 1.974 . S
Cu322 N333 1.985 . S
Cu322 O342 1.959 . S
N323 Cu322 1.999 . S
N323 C325 1.263 . S
N323 C327 1.389 . S
N324 C325 1.358 . S
N324 C326 1.400 . S
C325 N323 1.263 . S
C325 N324 1.358 . S
C325 H331 0.930 . S
C326 N324 1.400 . S
C326 C327 1.351 . S
C326 H343 0.930 . S
C327 N323 1.389 . S
C327 C326 1.351 . S
C327 H332 0.930 . S
O328 Cu322 1.974 . S
O328 C338 1.282 . S
C329 O330 1.261 . S
C329 O342 1.251 . S
O330 C329 1.261 . S
H331 C325 0.930 . S
H332 C327 0.930 . S
N333 Cu322 1.985 . S
N333 C335 1.335 . S
N333 C336 1.390 . S
N334 C335 1.345 . S
N334 C337 1.336 . S
C335 N333 1.335 . S
C335 N334 1.345 . S
C335 H340 0.930 . S
C336 N333 1.390 . S
C336 C337 1.346 . S
C336 H341 0.930 . S
C337 N334 1.336 . S
C337 C336 1.346 . S
C337 H344 0.929 . S
C338 O328 1.282 . S
C338 O339 1.216 . S
O339 C338 1.216 . S
H340 C335 0.930 . S
H341 C336 0.930 . S
O342 Cu322 1.959 . S
O342 C329 1.251 . S
H343 C326 0.930 . S
H344 C337 0.929 . S
Cu345 N346 1.999 . S
Cu345 O351 1.974 . S
Cu345 N356 1.985 . S
Cu345 O365 1.959 . S
N346 Cu345 1.999 . S
N346 C348 1.263 . S
N346 C350 1.389 . S
N347 C348 1.358 . S
N347 C349 1.400 . S
C348 N346 1.263 . S
C348 N347 1.358 . S
C348 H354 0.930 . S
C349 N347 1.400 . S
C349 C350 1.351 . S
C349 H366 0.930 . S
C350 N346 1.389 . S
C350 C349 1.351 . S
C350 H355 0.930 . S
O351 Cu345 1.974 . S
O351 C361 1.282 . S
C352 O353 1.261 . S
C352 O365 1.251 1_556 S
O353 C352 1.261 . S
H354 C348 0.930 . S
H355 C350 0.930 . S
N356 Cu345 1.985 . S
N356 C358 1.335 . S
N356 C359 1.390 . S
N357 C358 1.345 1_556 S
N357 C360 1.336 1_556 S
C358 N356 1.335 . S
C358 N357 1.345 1_554 S
C358 H363 0.930 1_554 S
C359 N356 1.390 . S
C359 C360 1.346 . S
C359 H364 0.930 . S
C360 N357 1.336 1_554 S
C360 C359 1.346 . S
C360 H367 0.929 . S
C361 O351 1.282 . S
C361 O362 1.216 . S
O362 C361 1.216 . S
H363 C358 0.930 1_556 S
H364 C359 0.930 . S
O365 Cu345 1.959 . S
O365 C352 1.251 1_554 S
H366 C349 0.930 . S
H367 C360 0.929 . S
Cu368 N369 1.999 . S
Cu368 O374 1.974 . S
Cu368 N379 1.985 . S
Cu368 O388 1.959 . S
N369 Cu368 1.999 . S
N369 C371 1.263 . S
N369 C373 1.389 . S
N370 C371 1.358 . S
N370 C372 1.400 . S
C371 N369 1.263 . S
C371 N370 1.358 . S
C371 H377 0.930 . S
C372 N370 1.400 . S
C372 C373 1.351 . S
C372 H389 0.930 . S
C373 N369 1.389 . S
C373 C372 1.351 . S
C373 H378 0.930 . S
O374 Cu368 1.974 . S
O374 C384 1.282 . S
C375 O376 1.261 . S
C375 O388 1.251 . S
O376 C375 1.261 . S
H377 C371 0.930 . S
H378 C373 0.930 . S
N379 Cu368 1.985 . S
N379 C381 1.335 . S
N379 C382 1.390 . S
N380 C381 1.345 . S
N380 C383 1.336 . S
C381 N379 1.335 . S
C381 N380 1.345 . S
C381 H386 0.930 . S
C382 N379 1.390 . S
C382 C383 1.346 . S
C382 H387 0.930 . S
C383 N380 1.336 . S
C383 C382 1.346 . S
C383 H390 0.929 . S
C384 O374 1.282 . S
C384 O385 1.216 . S
O385 C384 1.216 . S
H386 C381 0.930 . S
H387 C382 0.930 . S
O388 Cu368 1.959 . S
O388 C375 1.251 . S
H389 C372 0.930 . S
H390 C383 0.929 . S
Cu391 N392 1.999 1_554 S
Cu391 O397 1.974 . S
Cu391 N402 1.985 . S
Cu391 O411 1.959 . S
N392 Cu391 1.999 1_556 S
N392 C394 1.263 . S
N392 C396 1.389 . S
N393 C394 1.358 . S
N393 C395 1.400 . S
C394 N392 1.263 . S
C394 N393 1.358 . S
C394 H400 0.930 . S
C395 N393 1.400 . S
C395 C396 1.351 . S
C395 H412 0.930 . S
C396 N392 1.389 . S
C396 C395 1.351 . S
C396 H401 0.930 . S
O397 Cu391 1.974 . S
O397 C407 1.282 . S
C398 O399 1.261 . S
C398 O411 1.251 . S
O399 C398 1.261 . S
H400 C394 0.930 . S
H401 C396 0.930 . S
N402 Cu391 1.985 . S
N402 C404 1.335 . S
N402 C405 1.390 . S
N403 C404 1.345 . S
N403 C406 1.336 . S
C404 N402 1.335 . S
C404 N403 1.345 . S
C404 H409 0.930 . S
C405 N402 1.390 . S
C405 C406 1.346 . S
C405 H410 0.930 . S
C406 N403 1.336 . S
C406 C405 1.346 . S
C406 H413 0.929 . S
C407 O397 1.282 . S
C407 O408 1.216 . S
O408 C407 1.216 . S
H409 C404 0.930 . S
H410 C405 0.930 . S
O411 Cu391 1.959 . S
O411 C398 1.251 . S
H412 C395 0.930 . S
H413 C406 0.929 . S
Cu414 N415 1.999 . S
Cu414 O420 1.974 . S
Cu414 N425 1.985 . S
Cu414 O434 1.959 . S
N415 Cu414 1.999 . S
N415 C417 1.263 . S
N415 C419 1.389 . S
N416 C417 1.358 . S
N416 C418 1.400 . S
C417 N415 1.263 . S
C417 N416 1.358 . S
C417 H423 0.930 . S
C418 N416 1.400 . S
C418 C419 1.351 . S
C418 H435 0.930 . S
C419 N415 1.389 . S
C419 C418 1.351 . S
C419 H424 0.930 . S
O420 Cu414 1.974 . S
O420 C430 1.282 . S
C421 O422 1.261 . S
C421 O434 1.251 . S
O422 C421 1.261 . S
H423 C417 0.930 . S
H424 C419 0.930 . S
N425 Cu414 1.985 . S
N425 C427 1.335 . S
N425 C428 1.390 . S
N426 C427 1.345 . S
N426 C429 1.336 . S
C427 N425 1.335 . S
C427 N426 1.345 . S
C427 H432 0.930 . S
C428 N425 1.390 . S
C428 C429 1.346 . S
C428 H433 0.930 . S
C429 N426 1.336 . S
C429 C428 1.346 . S
C429 H436 0.929 . S
C430 O420 1.282 . S
C430 O431 1.216 . S
O431 C430 1.216 . S
H432 C427 0.930 . S
H433 C428 0.930 . S
O434 Cu414 1.959 . S
O434 C421 1.251 . S
H435 C418 0.930 . S
H436 C429 0.929 . S
Cu437 N438 1.999 . S
Cu437 O443 1.974 . S
Cu437 N448 1.985 . S
Cu437 O457 1.959 . S
N438 Cu437 1.999 . S
N438 C440 1.263 . S
N438 C442 1.389 . S
N439 C440 1.358 . S
N439 C441 1.400 . S
C440 N438 1.263 . S
C440 N439 1.358 . S
C440 H446 0.930 . S
C441 N439 1.400 . S
C441 C442 1.351 . S
C441 H458 0.930 . S
C442 N438 1.389 . S
C442 C441 1.351 . S
C442 H447 0.930 . S
O443 Cu437 1.974 . S
O443 C453 1.282 . S
C444 O445 1.261 . S
C444 O457 1.251 . S
O445 C444 1.261 . S
H446 C440 0.930 . S
H447 C442 0.930 . S
N448 Cu437 1.985 . S
N448 C450 1.335 . S
N448 C451 1.390 . S
N449 C450 1.345 . S
N449 C452 1.336 . S
C450 N448 1.335 . S
C450 N449 1.345 . S
C450 H455 0.930 . S
C451 N448 1.390 . S
C451 C452 1.346 . S
C451 H456 0.930 . S
C452 N449 1.336 . S
C452 C451 1.346 . S
C452 H459 0.929 . S
C453 O443 1.282 . S
C453 O454 1.216 . S
O454 C453 1.216 . S
H455 C450 0.930 . S
H456 C451 0.930 . S
O457 Cu437 1.959 . S
O457 C444 1.251 . S
H458 C441 0.930 . S
H459 C452 0.929 . S
Cu460 N461 1.999 . S
Cu460 O466 1.974 . S
Cu460 N471 1.985 . S
Cu460 O480 1.959 . S
N461 Cu460 1.999 . S
N461 C463 1.263 . S
N461 C465 1.389 . S
N462 C463 1.358 . S
N462 C464 1.400 . S
C463 N461 1.263 . S
C463 N462 1.358 . S
C463 H469 0.930 . S
C464 N462 1.400 . S
C464 C465 1.351 . S
C464 H481 0.930 . S
C465 N461 1.389 . S
C465 C464 1.351 . S
C465 H470 0.930 . S
O466 Cu460 1.974 . S
O466 C476 1.282 . S
C467 O468 1.261 . S
C467 O480 1.251 . S
O468 C467 1.261 . S
H469 C463 0.930 . S
H470 C465 0.930 . S
N471 Cu460 1.985 . S
N471 C473 1.335 . S
N471 C474 1.390 . S
N472 C473 1.345 . S
N472 C475 1.336 . S
C473 N471 1.335 . S
C473 N472 1.345 . S
C473 H478 0.930 . S
C474 N471 1.390 . S
C474 C475 1.346 . S
C474 H479 0.930 . S
C475 N472 1.336 . S
C475 C474 1.346 . S
C475 H482 0.929 . S
C476 O466 1.282 . S
C476 O477 1.216 . S
O477 C476 1.216 . S
H478 C473 0.930 . S
H479 C474 0.930 . S
O480 Cu460 1.959 . S
O480 C467 1.251 . S
H481 C464 0.930 . S
H482 C475 0.929 . S
Cu483 N484 1.999 1_556 S
Cu483 O489 1.974 . S
Cu483 N494 1.985 . S
Cu483 O503 1.959 . S
N484 Cu483 1.999 1_554 S
N484 C486 1.263 . S
N484 C488 1.389 . S
N485 C486 1.358 . S
N485 C487 1.400 . S
C486 N484 1.263 . S
C486 N485 1.358 . S
C486 H492 0.930 . S
C487 N485 1.400 . S
C487 C488 1.351 . S
C487 H504 0.930 . S
C488 N484 1.389 . S
C488 C487 1.351 . S
C488 H493 0.930 . S
O489 Cu483 1.974 . S
O489 C499 1.282 . S
C490 O491 1.261 . S
C490 O503 1.251 . S
O491 C490 1.261 . S
H492 C486 0.930 . S
H493 C488 0.930 . S
N494 Cu483 1.985 . S
N494 C496 1.335 . S
N494 C497 1.390 . S
N495 C496 1.345 . S
N495 C498 1.336 . S
C496 N494 1.335 . S
C496 N495 1.345 . S
C496 H501 0.930 . S
C497 N494 1.390 . S
C497 C498 1.346 . S
C497 H502 0.930 . S
C498 N495 1.336 . S
C498 C497 1.346 . S
C498 H505 0.929 . S
C499 O489 1.282 . S
C499 O500 1.216 . S
O500 C499 1.216 . S
H501 C496 0.930 . S
H502 C497 0.930 . S
O503 Cu483 1.959 . S
O503 C490 1.251 . S
H504 C487 0.930 . S
H505 C498 0.929 . S
Cu506 N507 1.999 . S
Cu506 O512 1.974 . S
Cu506 N517 1.985 . S
Cu506 O526 1.959 . S
N507 Cu506 1.999 . S
N507 C509 1.263 . S
N507 C511 1.389 . S
N508 C509 1.358 . S
N508 C510 1.400 . S
C509 N507 1.263 . S
C509 N508 1.358 . S
C509 H515 0.930 . S
C510 N508 1.400 . S
C510 C511 1.351 . S
C510 H527 0.930 . S
C511 N507 1.389 . S
C511 C510 1.351 . S
C511 H516 0.930 . S
O512 Cu506 1.974 . S
O512 C522 1.282 . S
C513 O514 1.261 . S
C513 O526 1.251 . S
O514 C513 1.261 . S
H515 C509 0.930 . S
H516 C511 0.930 . S
N517 Cu506 1.985 . S
N517 C519 1.335 . S
N517 C520 1.390 . S
N518 C519 1.345 . S
N518 C521 1.336 . S
C519 N517 1.335 . S
C519 N518 1.345 . S
C519 H524 0.930 . S
C520 N517 1.390 . S
C520 C521 1.346 . S
C520 H525 0.930 . S
C521 N518 1.336 . S
C521 C520 1.346 . S
C521 H528 0.929 . S
C522 O512 1.282 . S
C522 O523 1.216 . S
O523 C522 1.216 . S
H524 C519 0.930 . S
H525 C520 0.930 . S
O526 Cu506 1.959 . S
O526 C513 1.251 . S
H527 C510 0.930 . S
H528 C521 0.929 . S
Cu529 N530 1.999 . S
Cu529 O535 1.974 . S
Cu529 N540 1.985 . S
Cu529 O549 1.959 . S
N530 Cu529 1.999 . S
N530 C532 1.263 . S
N530 C534 1.389 . S
N531 C532 1.358 . S
N531 C533 1.400 . S
C532 N530 1.263 . S
C532 N531 1.358 . S
C532 H538 0.930 . S
C533 N531 1.400 . S
C533 C534 1.351 . S
C533 H550 0.930 . S
C534 N530 1.389 . S
C534 C533 1.351 . S
C534 H539 0.930 . S
O535 Cu529 1.974 . S
O535 C545 1.282 . S
C536 O537 1.261 . S
C536 O549 1.251 . S
O537 C536 1.261 . S
H538 C532 0.930 . S
H539 C534 0.930 . S
N540 Cu529 1.985 . S
N540 C542 1.335 . S
N540 C543 1.390 . S
N541 C542 1.345 . S
N541 C544 1.336 . S
C542 N540 1.335 . S
C542 N541 1.345 . S
C542 H547 0.930 . S
C543 N540 1.390 . S
C543 C544 1.346 . S
C543 H548 0.930 . S
C544 N541 1.336 . S
C544 C543 1.346 . S
C544 H551 0.929 . S
C545 O535 1.282 . S
C545 O546 1.216 . S
O546 C545 1.216 . S
H547 C542 0.930 . S
H548 C543 0.930 . S
O549 Cu529 1.959 . S
O549 C536 1.251 . S
H550 C533 0.930 . S
H551 C544 0.929 . S
Cu552 N553 1.999 . S
Cu552 O558 1.974 . S
Cu552 N563 1.985 . S
Cu552 O572 1.959 . S
N553 Cu552 1.999 . S
N553 C555 1.263 . S
N553 C557 1.389 . S
N554 C555 1.358 . S
N554 C556 1.400 . S
C555 N553 1.263 . S
C555 N554 1.358 . S
C555 H561 0.930 . S
C556 N554 1.400 . S
C556 C557 1.351 . S
C556 H573 0.930 . S
C557 N553 1.389 . S
C557 C556 1.351 . S
C557 H562 0.930 . S
O558 Cu552 1.974 . S
O558 C568 1.282 . S
C559 O560 1.261 . S
C559 O572 1.251 . S
O560 C559 1.261 . S
H561 C555 0.930 . S
H562 C557 0.930 . S
N563 Cu552 1.985 . S
N563 C565 1.335 . S
N563 C566 1.390 . S
N564 C565 1.345 . S
N564 C567 1.336 . S
C565 N563 1.335 . S
C565 N564 1.345 . S
C565 H570 0.930 . S
C566 N563 1.390 . S
C566 C567 1.346 . S
C566 H571 0.930 . S
C567 N564 1.336 . S
C567 C566 1.346 . S
C567 H574 0.929 . S
C568 O558 1.282 . S
C568 O569 1.216 . S
O569 C568 1.216 . S
H570 C565 0.930 . S
H571 C566 0.930 . S
O572 Cu552 1.959 . S
O572 C559 1.251 . S
H573 C556 0.930 . S
H574 C567 0.929 . S
Cu575 N576 1.999 . S
Cu575 O581 1.974 . S
Cu575 N586 1.985 . S
Cu575 O595 1.959 . S
N576 Cu575 1.999 . S
N576 C578 1.263 . S
N576 C580 1.389 . S
N577 C578 1.358 . S
N577 C579 1.400 . S
C578 N576 1.263 . S
C578 N577 1.358 . S
C578 H584 0.930 . S
C579 N577 1.400 . S
C579 C580 1.351 . S
C579 H596 0.930 . S
C580 N576 1.389 . S
C580 C579 1.351 . S
C580 H585 0.930 . S
O581 Cu575 1.974 . S
O581 C591 1.282 . S
C582 O583 1.261 . S
C582 O595 1.251 1_554 S
O583 C582 1.261 . S
H584 C578 0.930 . S
H585 C580 0.930 . S
N586 Cu575 1.985 . S
N586 C588 1.335 . S
N586 C589 1.390 . S
N587 C588 1.345 1_554 S
N587 C590 1.336 1_554 S
C588 N586 1.335 . S
C588 N587 1.345 1_556 S
C588 H593 0.930 1_556 S
C589 N586 1.390 . S
C589 C590 1.346 . S
C589 H594 0.930 . S
C590 N587 1.336 1_556 S
C590 C589 1.346 . S
C590 H597 0.929 . S
C591 O581 1.282 . S
C591 O592 1.216 . S
O592 C591 1.216 . S
H593 C588 0.930 1_554 S
H594 C589 0.930 . S
O595 Cu575 1.959 . S
O595 C582 1.251 1_556 S
H596 C579 0.930 . S
H597 C590 0.929 . S
Cu598 N599 1.999 . S
Cu598 O604 1.974 . S
Cu598 N609 1.985 . S
Cu598 O618 1.959 . S
N599 Cu598 1.999 . S
N599 C601 1.263 . S
N599 C603 1.389 . S
N600 C601 1.358 . S
N600 C602 1.400 . S
C601 N599 1.263 . S
C601 N600 1.358 . S
C601 H607 0.930 . S
C602 N600 1.400 . S
C602 C603 1.351 . S
C602 H619 0.930 . S
C603 N599 1.389 . S
C603 C602 1.351 . S
C603 H608 0.930 . S
O604 Cu598 1.974 . S
O604 C614 1.282 . S
C605 O606 1.261 . S
C605 O618 1.251 . S
O606 C605 1.261 . S
H607 C601 0.930 . S
H608 C603 0.930 . S
N609 Cu598 1.985 . S
N609 C611 1.335 . S
N609 C612 1.390 . S
N610 C611 1.345 . S
N610 C613 1.336 . S
C611 N609 1.335 . S
C611 N610 1.345 . S
C611 H616 0.930 . S
C612 N609 1.390 . S
C612 C613 1.346 . S
C612 H617 0.930 . S
C613 N610 1.336 . S
C613 C612 1.346 . S
C613 H620 0.929 . S
C614 O604 1.282 . S
C614 O615 1.216 . S
O615 C614 1.216 . S
H616 C611 0.930 . S
H617 C612 0.930 . S
O618 Cu598 1.959 . S
O618 C605 1.251 . S
H619 C602 0.930 . S
H620 C613 0.929 . S
Cu621 N622 1.999 . S
Cu621 O627 1.974 . S
Cu621 N632 1.985 . S
Cu621 O641 1.959 . S
N622 Cu621 1.999 . S
N622 C624 1.263 . S
N622 C626 1.389 . S
N623 C624 1.358 . S
N623 C625 1.400 . S
C624 N622 1.263 . S
C624 N623 1.358 . S
C624 H630 0.930 . S
C625 N623 1.400 . S
C625 C626 1.351 . S
C625 H642 0.930 . S
C626 N622 1.389 . S
C626 C625 1.351 . S
C626 H631 0.930 . S
O627 Cu621 1.974 . S
O627 C637 1.282 . S
C628 O629 1.261 . S
C628 O641 1.251 . S
O629 C628 1.261 . S
H630 C624 0.930 . S
H631 C626 0.930 . S
N632 Cu621 1.985 . S
N632 C634 1.335 . S
N632 C635 1.390 . S
N633 C634 1.345 . S
N633 C636 1.336 . S
C634 N632 1.335 . S
C634 N633 1.345 . S
C634 H639 0.930 . S
C635 N632 1.390 . S
C635 C636 1.346 . S
C635 H640 0.930 . S
C636 N633 1.336 . S
C636 C635 1.346 . S
C636 H643 0.929 . S
C637 O627 1.282 . S
C637 O638 1.216 . S
O638 C637 1.216 . S
H639 C634 0.930 . S
H640 C635 0.930 . S
O641 Cu621 1.959 . S
O641 C628 1.251 . S
H642 C625 0.930 . S
H643 C636 0.929 . S
Cu644 N645 1.999 . S
Cu644 O650 1.974 . S
Cu644 N655 1.985 . S
Cu644 O664 1.959 . S
N645 Cu644 1.999 . S
N645 C647 1.263 . S
N645 C649 1.389 . S
N646 C647 1.358 . S
N646 C648 1.400 . S
C647 N645 1.263 . S
C647 N646 1.358 . S
C647 H653 0.930 . S
C648 N646 1.400 . S
C648 C649 1.351 . S
C648 H665 0.930 . S
C649 N645 1.389 . S
C649 C648 1.351 . S
C649 H654 0.930 . S
O650 Cu644 1.974 . S
O650 C660 1.282 . S
C651 O652 1.261 . S
C651 O664 1.251 . S
O652 C651 1.261 . S
H653 C647 0.930 . S
H654 C649 0.930 . S
N655 Cu644 1.985 . S
N655 C657 1.335 . S
N655 C658 1.390 . S
N656 C657 1.345 . S
N656 C659 1.336 . S
C657 N655 1.335 . S
C657 N656 1.345 . S
C657 H662 0.930 . S
C658 N655 1.390 . S
C658 C659 1.346 . S
C658 H663 0.930 . S
C659 N656 1.336 . S
C659 C658 1.346 . S
C659 H666 0.929 . S
C660 O650 1.282 . S
C660 O661 1.216 . S
O661 C660 1.216 . S
H662 C657 0.930 . S
H663 C658 0.930 . S
O664 Cu644 1.959 . S
O664 C651 1.251 . S
H665 C648 0.930 . S
H666 C659 0.929 . S
Cu667 N668 1.999 . S
Cu667 O673 1.974 . S
Cu667 N678 1.985 . S
Cu667 O687 1.959 . S
N668 Cu667 1.999 . S
N668 C670 1.263 . S
N668 C672 1.389 . S
N669 C670 1.358 . S
N669 C671 1.400 . S
C670 N668 1.263 . S
C670 N669 1.358 . S
C670 H676 0.930 . S
C671 N669 1.400 . S
C671 C672 1.351 . S
C671 H688 0.930 . S
C672 N668 1.389 . S
C672 C671 1.351 . S
C672 H677 0.930 . S
O673 Cu667 1.974 . S
O673 C683 1.282 . S
C674 O675 1.261 . S
C674 O687 1.251 1_556 S
O675 C674 1.261 . S
H676 C670 0.930 . S
H677 C672 0.930 . S
N678 Cu667 1.985 . S
N678 C680 1.335 . S
N678 C681 1.390 . S
N679 C680 1.345 1_556 S
N679 C682 1.336 1_556 S
C680 N678 1.335 . S
C680 N679 1.345 1_554 S
C680 H685 0.930 1_554 S
C681 N678 1.390 . S
C681 C682 1.346 . S
C681 H686 0.930 . S
C682 N679 1.336 1_554 S
C682 C681 1.346 . S
C682 H689 0.929 . S
C683 O673 1.282 . S
C683 O684 1.216 . S
O684 C683 1.216 . S
H685 C680 0.930 1_556 S
H686 C681 0.930 . S
O687 Cu667 1.959 . S
O687 C674 1.251 1_554 S
H688 C671 0.930 . S
H689 C682 0.929 . S
Cu690 N691 1.999 . S
Cu690 O696 1.974 . S
Cu690 N701 1.985 . S
Cu690 O710 1.959 . S
N691 Cu690 1.999 . S
N691 C693 1.263 . S
N691 C695 1.389 . S
N692 C693 1.358 . S
N692 C694 1.400 . S
C693 N691 1.263 . S
C693 N692 1.358 . S
C693 H699 0.930 . S
C694 N692 1.400 . S
C694 C695 1.351 . S
C694 H711 0.930 . S
C695 N691 1.389 . S
C695 C694 1.351 . S
C695 H700 0.930 . S
O696 Cu690 1.974 . S
O696 C706 1.282 . S
C697 O698 1.261 . S
C697 O710 1.251 . S
O698 C697 1.261 . S
H699 C693 0.930 . S
H700 C695 0.930 . S
N701 Cu690 1.985 . S
N701 C703 1.335 . S
N701 C704 1.390 . S
N702 C703 1.345 . S
N702 C705 1.336 . S
C703 N701 1.335 . S
C703 N702 1.345 . S
C703 H708 0.930 . S
C704 N701 1.390 . S
C704 C705 1.346 . S
C704 H709 0.930 . S
C705 N702 1.336 . S
C705 C704 1.346 . S
C705 H712 0.929 . S
C706 O696 1.282 . S
C706 O707 1.216 . S
O707 C706 1.216 . S
H708 C703 0.930 . S
H709 C704 0.930 . S
O710 Cu690 1.959 . S
O710 C697 1.251 . S
H711 C694 0.930 . S
H712 C705 0.929 . S
Cu713 N714 1.999 . S
Cu713 O719 1.974 . S
Cu713 N724 1.985 . S
Cu713 O733 1.959 . S
N714 Cu713 1.999 . S
N714 C716 1.263 . S
N714 C718 1.389 . S
N715 C716 1.358 . S
N715 C717 1.400 . S
C716 N714 1.263 . S
C716 N715 1.358 . S
C716 H722 0.930 . S
C717 N715 1.400 . S
C717 C718 1.351 . S
C717 H734 0.930 . S
C718 N714 1.389 . S
C718 C717 1.351 . S
C718 H723 0.930 . S
O719 Cu713 1.974 . S
O719 C729 1.282 . S
C720 O721 1.261 . S
C720 O733 1.251 . S
O721 C720 1.261 . S
H722 C716 0.930 . S
H723 C718 0.930 . S
N724 Cu713 1.985 . S
N724 C726 1.335 . S
N724 C727 1.390 . S
N725 C726 1.345 . S
N725 C728 1.336 . S
C726 N724 1.335 . S
C726 N725 1.345 . S
C726 H731 0.930 . S
C727 N724 1.390 . S
C727 C728 1.346 . S
C727 H732 0.930 . S
C728 N725 1.336 . S
C728 C727 1.346 . S
C728 H735 0.929 . S
C729 O719 1.282 . S
C729 O730 1.216 . S
O730 C729 1.216 . S
H731 C726 0.930 . S
H732 C727 0.930 . S
O733 Cu713 1.959 . S
O733 C720 1.251 . S
H734 C717 0.930 . S
H735 C728 0.929 . S
C736 C737 1.387 . S
C736 H740 0.950 . S
C736 C745 1.390 . S
C737 C736 1.387 . S
C737 C739 1.387 . S
H738 C745 0.950 . S
C739 C737 1.387 . S
C739 C741 1.390 . S
C739 H743 0.950 . S
H740 C736 0.950 . S
C741 C739 1.390 . S
C741 C742 1.387 . S
C741 H744 0.950 . S
C742 C741 1.387 . S
C742 C745 1.387 . S
H743 C739 0.950 . S
H744 C741 0.950 . S
C745 C736 1.390 . S
C745 H738 0.950 . S
C745 C742 1.387 . S
C746 C747 1.387 . S
C746 H750 0.950 . S
C746 C755 1.390 . S
C747 C746 1.387 . S
C747 C749 1.387 . S
H748 C755 0.950 . S
C749 C747 1.387 . S
C749 C751 1.390 . S
C749 H753 0.950 . S
H750 C746 0.950 . S
C751 C749 1.390 . S
C751 C752 1.387 . S
C751 H754 0.950 . S
C752 C751 1.387 . S
C752 C755 1.387 . S
H753 C749 0.950 . S
H754 C751 0.950 . S
C755 C746 1.390 . S
C755 H748 0.950 . S
C755 C752 1.387 . S
C756 C757 1.387 . S
C756 H760 0.950 . S
C756 C765 1.390 . S
C757 C756 1.387 . S
C757 C759 1.387 . S
H758 C765 0.950 . S
C759 C757 1.387 . S
C759 C761 1.390 . S
C759 H763 0.950 . S
H760 C756 0.950 . S
C761 C759 1.390 . S
C761 C762 1.387 . S
C761 H764 0.950 . S
C762 C761 1.387 . S
C762 C765 1.387 . S
H763 C759 0.950 . S
H764 C761 0.950 . S
C765 C756 1.390 . S
C765 H758 0.950 . S
C765 C762 1.387 . S
C766 C767 1.387 . S
C766 H770 0.950 . S
C766 C775 1.390 . S
C767 C766 1.387 . S
C767 C769 1.387 . S
H768 C775 0.950 . S
C769 C767 1.387 . S
C769 C771 1.390 . S
C769 H773 0.950 . S
H770 C766 0.950 . S
C771 C769 1.390 . S
C771 C772 1.387 . S
C771 H774 0.950 . S
C772 C771 1.387 . S
C772 C775 1.387 . S
H773 C769 0.950 . S
H774 C771 0.950 . S
C775 C766 1.390 . S
C775 H768 0.950 . S
C775 C772 1.387 . S
C776 C777 1.387 . S
C776 H780 0.950 . S
C776 C785 1.390 . S
C777 C776 1.387 . S
C777 C779 1.387 . S
H778 C785 0.950 . S
C779 C777 1.387 . S
C779 C781 1.390 . S
C779 H783 0.950 . S
H780 C776 0.950 . S
C781 C779 1.390 . S
C781 C782 1.387 . S
C781 H784 0.950 . S
C782 C781 1.387 . S
C782 C785 1.387 . S
H783 C779 0.950 . S
H784 C781 0.950 . S
C785 C776 1.390 . S
C785 H778 0.950 . S
C785 C782 1.387 . S
C786 C787 1.387 . S
C786 H790 0.950 . S
C786 C795 1.390 . S
C787 C786 1.387 . S
C787 C789 1.387 . S
H788 C795 0.950 . S
C789 C787 1.387 . S
C789 C791 1.390 . S
C789 H793 0.950 . S
H790 C786 0.950 . S
C791 C789 1.390 . S
C791 C792 1.387 . S
C791 H794 0.950 . S
C792 C791 1.387 . S
C792 C795 1.387 . S
H793 C789 0.950 . S
H794 C791 0.950 . S
C795 C786 1.390 . S
C795 H788 0.950 . S
C795 C792 1.387 . S
C796 C797 1.387 . S
C796 H800 0.950 . S
C796 C805 1.390 . S
C797 C796 1.387 . S
C797 C799 1.387 . S
H798 C805 0.950 . S
C799 C797 1.387 . S
C799 C801 1.390 . S
C799 H803 0.950 . S
H800 C796 0.950 . S
C801 C799 1.390 . S
C801 C802 1.387 . S
C801 H804 0.950 . S
C802 C801 1.387 . S
C802 C805 1.387 . S
H803 C799 0.950 . S
H804 C801 0.950 . S
C805 C796 1.390 . S
C805 H798 0.950 . S
C805 C802 1.387 . S
C806 C807 1.387 . S
C806 H810 0.950 . S
C806 C815 1.390 . S
C807 C806 1.387 . S
C807 C809 1.387 . S
H808 C815 0.950 . S
C809 C807 1.387 . S
C809 C811 1.390 . S
C809 H813 0.950 . S
H810 C806 0.950 . S
C811 C809 1.390 . S
C811 C812 1.387 . S
C811 H814 0.950 . S
C812 C811 1.387 . S
C812 C815 1.387 . S
H813 C809 0.950 . S
H814 C811 0.950 . S
C815 C806 1.390 . S
C815 H808 0.950 . S
C815 C812 1.387 . S
C816 C817 1.387 . S
C816 H820 0.950 . S
C816 C825 1.390 . S
C817 C816 1.387 . S
C817 C819 1.387 . S
H818 C825 0.950 . S
C819 C817 1.387 . S
C819 C821 1.390 . S
C819 H823 0.950 . S
H820 C816 0.950 . S
C821 C819 1.390 . S
C821 C822 1.387 . S
C821 H824 0.950 . S
C822 C821 1.387 . S
C822 C825 1.387 . S
H823 C819 0.950 . S
H824 C821 0.950 . S
C825 C816 1.390 . S
C825 H818 0.950 . S
C825 C822 1.387 . S
C826 C827 1.387 . S
C826 H830 0.950 . S
C826 C835 1.390 . S
C827 C826 1.387 . S
C827 C829 1.387 . S
H828 C835 0.950 . S
C829 C827 1.387 . S
C829 C831 1.390 . S
C829 H833 0.950 . S
H830 C826 0.950 . S
C831 C829 1.390 . S
C831 C832 1.387 . S
C831 H834 0.950 . S
C832 C831 1.387 . S
C832 C835 1.387 . S
H833 C829 0.950 . S
H834 C831 0.950 . S
C835 C826 1.390 . S
C835 H828 0.950 . S
C835 C832 1.387 . S
C836 C837 1.387 . S
C836 H840 0.950 . S
C836 C845 1.390 . S
C837 C836 1.387 . S
C837 C839 1.387 . S
H838 C845 0.950 . S
C839 C837 1.387 . S
C839 C841 1.390 . S
C839 H843 0.950 . S
H840 C836 0.950 . S
C841 C839 1.390 . S
C841 C842 1.387 . S
C841 H844 0.950 . S
C842 C841 1.387 . S
C842 C845 1.387 . S
H843 C839 0.950 . S
H844 C841 0.950 . S
C845 C836 1.390 . S
C845 H838 0.950 . S
C845 C842 1.387 . S
C846 C847 1.387 . S
C846 H850 0.950 . S
C846 C855 1.390 . S
C847 C846 1.387 . S
C847 C849 1.387 . S
H848 C855 0.950 . S
C849 C847 1.387 . S
C849 C851 1.390 . S
C849 H853 0.950 . S
H850 C846 0.950 . S
C851 C849 1.390 . S
C851 C852 1.387 . S
C851 H854 0.950 . S
C852 C851 1.387 . S
C852 C855 1.387 . S
H853 C849 0.950 . S
H854 C851 0.950 . S
C855 C846 1.390 . S
C855 H848 0.950 . S
C855 C852 1.387 . S
C856 C857 1.387 . S
C856 H860 0.950 . S
C856 C865 1.390 . S
C857 C856 1.387 . S
C857 C859 1.387 . S
H858 C865 0.950 . S
C859 C857 1.387 . S
C859 C861 1.390 . S
C859 H863 0.950 . S
H860 C856 0.950 . S
C861 C859 1.390 . S
C861 C862 1.387 . S
C861 H864 0.950 . S
C862 C861 1.387 . S
C862 C865 1.387 . S
H863 C859 0.950 . S
H864 C861 0.950 . S
C865 C856 1.390 . S
C865 H858 0.950 . S
C865 C862 1.387 . S
C866 C867 1.387 . S
C866 H870 0.950 . S
C866 C875 1.390 . S
C867 C866 1.387 . S
C867 C869 1.387 . S
H868 C875 0.950 . S
C869 C867 1.387 . S
C869 C871 1.390 . S
C869 H873 0.950 . S
H870 C866 0.950 . S
C871 C869 1.390 . S
C871 C872 1.387 . S
C871 H874 0.950 . S
C872 C871 1.387 . S
C872 C875 1.387 . S
H873 C869 0.950 . S
H874 C871 0.950 . S
C875 C866 1.390 . S
C875 H868 0.950 . S
C875 C872 1.387 . S
C876 C877 1.387 . S
C876 H880 0.950 . S
C876 C885 1.390 . S
C877 C876 1.387 . S
C877 C879 1.387 . S
H878 C885 0.950 . S
C879 C877 1.387 . S
C879 C881 1.390 . S
C879 H883 0.950 . S
H880 C876 0.950 . S
C881 C879 1.390 . S
C881 C882 1.387 . S
C881 H884 0.950 . S
C882 C881 1.387 . S
C882 C885 1.387 . S
H883 C879 0.950 . S
H884 C881 0.950 . S
C885 C876 1.390 . S
C885 H878 0.950 . S
C885 C882 1.387 . S
C886 C887 1.387 . S
C886 H890 0.950 . S
C886 C895 1.390 . S
C887 C886 1.387 . S
C887 C889 1.387 . S
H888 C895 0.950 . S
C889 C887 1.387 . S
C889 C891 1.390 . S
C889 H893 0.950 . S
H890 C886 0.950 . S
C891 C889 1.390 . S
C891 C892 1.387 . S
C891 H894 0.950 . S
C892 C891 1.387 . S
C892 C895 1.387 . S
H893 C889 0.950 . S
H894 C891 0.950 . S
C895 C886 1.390 . S
C895 H888 0.950 . S
C895 C892 1.387 . S
C896 C897 1.387 . S
C896 H900 0.950 . S
C896 C905 1.390 . S
C897 C896 1.387 . S
C897 C899 1.387 . S
H898 C905 0.950 . S
C899 C897 1.387 . S
C899 C901 1.390 . S
C899 H903 0.950 . S
H900 C896 0.950 . S
C901 C899 1.390 . S
C901 C902 1.387 . S
C901 H904 0.950 . S
C902 C901 1.387 . S
C902 C905 1.387 . S
H903 C899 0.950 . S
H904 C901 0.950 . S
C905 C896 1.390 . S
C905 H898 0.950 . S
C905 C902 1.387 . S
C906 C907 1.387 . S
C906 H910 0.950 . S
C906 C915 1.390 . S
C907 C906 1.387 . S
C907 C909 1.387 . S
H908 C915 0.950 . S
C909 C907 1.387 . S
C909 C911 1.390 . S
C909 H913 0.950 . S
H910 C906 0.950 . S
C911 C909 1.390 . S
C911 C912 1.387 . S
C911 H914 0.950 . S
C912 C911 1.387 . S
C912 C915 1.387 . S
H913 C909 0.950 . S
H914 C911 0.950 . S
C915 C906 1.390 . S
C915 H908 0.950 . S
C915 C912 1.387 . S
C916 C917 1.387 . S
C916 H920 0.950 . S
C916 C925 1.390 . S
C917 C916 1.387 . S
C917 C919 1.387 . S
H918 C925 0.950 . S
C919 C917 1.387 . S
C919 C921 1.390 . S
C919 H923 0.950 . S
H920 C916 0.950 . S
C921 C919 1.390 . S
C921 C922 1.387 . S
C921 H924 0.950 . S
C922 C921 1.387 . S
C922 C925 1.387 . S
H923 C919 0.950 . S
H924 C921 0.950 . S
C925 C916 1.390 . S
C925 H918 0.950 . S
C925 C922 1.387 . S
C926 C927 1.387 . S
C926 H930 0.950 . S
C926 C935 1.390 . S
C927 C926 1.387 . S
C927 C929 1.387 . S
H928 C935 0.950 . S
C929 C927 1.387 . S
C929 C931 1.390 . S
C929 H933 0.950 . S
H930 C926 0.950 . S
C931 C929 1.390 . S
C931 C932 1.387 . S
C931 H934 0.950 . S
C932 C931 1.387 . S
C932 C935 1.387 . S
H933 C929 0.950 . S
H934 C931 0.950 . S
C935 C926 1.390 . S
C935 H928 0.950 . S
C935 C932 1.387 . S
C936 C937 1.387 . S
C936 H940 0.950 . S
C936 C945 1.390 . S
C937 C936 1.387 . S
C937 C939 1.387 . S
H938 C945 0.950 . S
C939 C937 1.387 . S
C939 C941 1.390 . S
C939 H943 0.950 . S
H940 C936 0.950 . S
C941 C939 1.390 . S
C941 C942 1.387 . S
C941 H944 0.950 . S
C942 C941 1.387 . S
C942 C945 1.387 . S
H943 C939 0.950 . S
H944 C941 0.950 . S
C945 C936 1.390 . S
C945 H938 0.950 . S
C945 C942 1.387 . S
C946 C947 1.387 . S
C946 H950 0.950 . S
C946 C955 1.390 . S
C947 C946 1.387 . S
C947 C949 1.387 . S
H948 C955 0.950 . S
C949 C947 1.387 . S
C949 C951 1.390 . S
C949 H953 0.950 . S
H950 C946 0.950 . S
C951 C949 1.390 . S
C951 C952 1.387 . S
C951 H954 0.950 . S
C952 C951 1.387 . S
C952 C955 1.387 . S
H953 C949 0.950 . S
H954 C951 0.950 . S
C955 C946 1.390 . S
C955 H948 0.950 . S
C955 C952 1.387 . S
C956 C957 1.387 . S
C956 H960 0.950 . S
C956 C965 1.390 . S
C957 C956 1.387 . S
C957 C959 1.387 . S
H958 C965 0.950 . S
C959 C957 1.387 . S
C959 C961 1.390 . S
C959 H963 0.950 . S
H960 C956 0.950 . S
C961 C959 1.390 . S
C961 C962 1.387 . S
C961 H964 0.950 . S
C962 C961 1.387 . S
C962 C965 1.387 . S
H963 C959 0.950 . S
H964 C961 0.950 . S
C965 C956 1.390 . S
C965 H958 0.950 . S
C965 C962 1.387 . S
C966 C967 1.387 . S
C966 H970 0.950 1_655 S
C966 C975 1.390 . S
C967 C966 1.387 . S
C967 C969 1.387 . S
H968 C975 0.950 . S
C969 C967 1.387 . S
C969 C971 1.390 . S
C969 H973 0.950 . S
H970 C966 0.950 1_455 S
C971 C969 1.390 . S
C971 C972 1.387 . S
C971 H974 0.950 . S
C972 C971 1.387 . S
C972 C975 1.387 . S
H973 C969 0.950 . S
H974 C971 0.950 . S
C975 C966 1.390 . S
C975 H968 0.950 . S
C975 C972 1.387 . S
C976 C977 1.387 . S
C976 H980 0.950 . S
C976 C985 1.390 . S
C977 C976 1.387 . S
C977 C979 1.387 . S
H978 C985 0.950 . S
C979 C977 1.387 . S
C979 C981 1.390 . S
C979 H983 0.950 . S
H980 C976 0.950 . S
C981 C979 1.390 . S
C981 C982 1.387 . S
C981 H984 0.950 . S
C982 C981 1.387 . S
C982 C985 1.387 . S
H983 C979 0.950 . S
H984 C981 0.950 . S
C985 C976 1.390 . S
C985 H978 0.950 . S
C985 C982 1.387 . S
C986 C987 1.387 . S
C986 H990 0.950 . S
C986 C995 1.390 1_655 S
C987 C986 1.387 . S
C987 C989 1.387 . S
H988 C995 0.950 . S
C989 C987 1.387 . S
C989 C991 1.390 . S
C989 H993 0.950 . S
H990 C986 0.950 . S
C991 C989 1.390 . S
C991 C992 1.387 1_655 S
C991 H994 0.950 1_655 S
C992 C991 1.387 1_455 S
C992 C995 1.387 . S
H993 C989 0.950 . S
H994 C991 0.950 1_455 S
C995 C986 1.390 1_455 S
C995 H988 0.950 . S
C995 C992 1.387 . S
C996 C997 1.387 . S
C996 H1000 0.950 . S
C996 C1005 1.390 . S
C997 C996 1.387 . S
C997 C999 1.387 . S
H998 C1005 0.950 . S
C999 C997 1.387 . S
C999 C1001 1.390 . S
C999 H1003 0.950 . S
H1000 C996 0.950 . S
C1001 C999 1.390 . S
C1001 C1002 1.387 . S
C1001 H1004 0.950 . S
C1002 C1001 1.387 . S
C1002 C1005 1.387 . S
H1003 C999 0.950 . S
H1004 C1001 0.950 . S
C1005 C996 1.390 . S
C1005 H998 0.950 . S
C1005 C1002 1.387 . S
C1006 C1007 1.387 . S
C1006 H1010 0.950 . S
C1006 C1015 1.390 . S
C1007 C1006 1.387 . S
C1007 C1009 1.387 . S
H1008 C1015 0.950 . S
C1009 C1007 1.387 . S
C1009 C1011 1.390 . S
C1009 H1013 0.950 . S
H1010 C1006 0.950 . S
C1011 C1009 1.390 . S
C1011 C1012 1.387 . S
C1011 H1014 0.950 . S
C1012 C1011 1.387 . S
C1012 C1015 1.387 . S
H1013 C1009 0.950 . S
H1014 C1011 0.950 . S
C1015 C1006 1.390 . S
C1015 H1008 0.950 . S
C1015 C1012 1.387 . S
C1016 C1017 1.387 . S
C1016 H1020 0.950 . S
C1016 C1025 1.390 . S
C1017 C1016 1.387 . S
C1017 C1019 1.387 . S
H1018 C1025 0.950 . S
C1019 C1017 1.387 . S
C1019 C1021 1.390 . S
C1019 H1023 0.950 . S
H1020 C1016 0.950 . S
C1021 C1019 1.390 . S
C1021 C1022 1.387 . S
C1021 H1024 0.950 . S
C1022 C1021 1.387 . S
C1022 C1025 1.387 . S
H1023 C1019 0.950 . S
H1024 C1021 0.950 . S
C1025 C1016 1.390 . S
C1025 H1018 0.950 . S
C1025 C1022 1.387 . S
C1026 C1027 1.387 . S
C1026 H1030 0.950 . S
C1026 C1035 1.390 . S
C1027 C1026 1.387 . S
C1027 C1029 1.387 . S
H1028 C1035 0.950 . S
C1029 C1027 1.387 . S
C1029 C1031 1.390 . S
C1029 H1033 0.950 . S
H1030 C1026 0.950 . S
C1031 C1029 1.390 . S
C1031 C1032 1.387 . S
C1031 H1034 0.950 . S
C1032 C1031 1.387 . S
C1032 C1035 1.387 . S
H1033 C1029 0.950 . S
H1034 C1031 0.950 . S
C1035 C1026 1.390 . S
C1035 H1028 0.950 . S
C1035 C1032 1.387 . S
C1036 C1037 1.387 . S
C1036 H1040 0.950 . S
C1036 C1045 1.390 . S
C1037 C1036 1.387 . S
C1037 C1039 1.387 . S
H1038 C1045 0.950 . S
C1039 C1037 1.387 . S
C1039 C1041 1.390 . S
C1039 H1043 0.950 . S
H1040 C1036 0.950 . S
C1041 C1039 1.390 . S
C1041 C1042 1.387 . S
C1041 H1044 0.950 . S
C1042 C1041 1.387 . S
C1042 C1045 1.387 . S
H1043 C1039 0.950 . S
H1044 C1041 0.950 . S
C1045 C1036 1.390 . S
C1045 H1038 0.950 . S
C1045 C1042 1.387 . S
C1046 C1047 1.387 1_655 S
C1046 H1050 0.950 1_655 S
C1046 C1055 1.390 . S
C1047 C1046 1.387 1_455 S
C1047 C1049 1.387 . S
H1048 C1055 0.950 . S
C1049 C1047 1.387 . S
C1049 C1051 1.390 1_455 S
C1049 H1053 0.950 . S
H1050 C1046 0.950 1_455 S
C1051 C1049 1.390 1_655 S
C1051 C1052 1.387 . S
C1051 H1054 0.950 . S
C1052 C1051 1.387 . S
C1052 C1055 1.387 . S
H1053 C1049 0.950 . S
H1054 C1051 0.950 . S
C1055 C1046 1.390 . S
C1055 H1048 0.950 . S
C1055 C1052 1.387 . S
C1056 C1057 1.387 . S
C1056 H1060 0.950 . S
C1056 C1065 1.390 . S
C1057 C1056 1.387 . S
C1057 C1059 1.387 . S
H1058 C1065 0.950 . S
C1059 C1057 1.387 . S
C1059 C1061 1.390 . S
C1059 H1063 0.950 . S
H1060 C1056 0.950 . S
C1061 C1059 1.390 . S
C1061 C1062 1.387 . S
C1061 H1064 0.950 . S
C1062 C1061 1.387 . S
C1062 C1065 1.387 . S
H1063 C1059 0.950 . S
H1064 C1061 0.950 . S
C1065 C1056 1.390 . S
C1065 H1058 0.950 . S
C1065 C1062 1.387 . S
C1066 C1067 1.387 . S
C1066 H1070 0.950 . S
C1066 C1075 1.390 . S
C1067 C1066 1.387 . S
C1067 C1069 1.387 . S
H1068 C1075 0.950 . S
C1069 C1067 1.387 . S
C1069 C1071 1.390 . S
C1069 H1073 0.950 . S
H1070 C1066 0.950 . S
C1071 C1069 1.390 . S
C1071 C1072 1.387 . S
C1071 H1074 0.950 . S
C1072 C1071 1.387 . S
C1072 C1075 1.387 . S
H1073 C1069 0.950 . S
H1074 C1071 0.950 . S
C1075 C1066 1.390 . S
C1075 H1068 0.950 . S
C1075 C1072 1.387 . S
C1076 C1077 1.387 . S
C1076 H1080 0.950 . S
C1076 C1085 1.390 . S
C1077 C1076 1.387 . S
C1077 C1079 1.387 . S
H1078 C1085 0.950 . S
C1079 C1077 1.387 . S
C1079 C1081 1.390 . S
C1079 H1083 0.950 . S
H1080 C1076 0.950 . S
C1081 C1079 1.390 . S
C1081 C1082 1.387 . S
C1081 H1084 0.950 . S
C1082 C1081 1.387 . S
C1082 C1085 1.387 . S
H1083 C1079 0.950 . S
H1084 C1081 0.950 . S
C1085 C1076 1.390 . S
C1085 H1078 0.950 . S
C1085 C1082 1.387 . S
C1086 C1087 1.387 . S
C1086 H1090 0.950 . S
C1086 C1095 1.390 . S
C1087 C1086 1.387 . S
C1087 C1089 1.387 . S
H1088 C1095 0.964 . S
C1089 C1087 1.387 . S
C1089 C1091 1.390 . S
C1089 H1093 0.950 . S
H1090 C1086 0.950 . S
C1091 C1089 1.390 . S
C1091 C1092 1.387 . S
C1091 H1094 0.950 . S
C1092 C1091 1.387 . S
C1092 C1095 1.387 . S
H1093 C1089 0.950 . S
H1094 C1091 0.950 . S
C1095 C1086 1.390 . S
C1095 H1088 0.964 . S
C1095 C1092 1.387 . S
C1096 C1097 1.387 . S
C1096 H1100 0.950 . S
C1096 C1105 1.390 . S
C1097 C1096 1.387 . S
C1097 C1099 1.387 . S
H1098 C1105 0.950 . S
C1099 C1097 1.387 . S
C1099 C1101 1.390 . S
C1099 H1103 0.950 . S
H1100 C1096 0.950 . S
C1101 C1099 1.390 . S
C1101 C1102 1.387 . S
C1101 H1104 0.950 . S
C1102 C1101 1.387 . S
C1102 C1105 1.387 . S
H1103 C1099 0.950 . S
H1104 C1101 0.950 . S
C1105 C1096 1.390 . S
C1105 H1098 0.950 . S
C1105 C1102 1.387 . S
C1106 C1107 1.387 . S
C1106 H1110 0.950 1_455 S
C1106 C1115 1.390 . S
C1107 C1106 1.387 . S
C1107 C1109 1.387 . S
H1108 C1115 0.950 . S
C1109 C1107 1.387 . S
C1109 C1111 1.390 . S
C1109 H1113 0.950 . S
H1110 C1106 0.950 1_655 S
C1111 C1109 1.390 . S
C1111 C1112 1.387 . S
C1111 H1114 0.950 . S
C1112 C1111 1.387 . S
C1112 C1115 1.387 . S
H1113 C1109 0.950 . S
H1114 C1111 0.950 . S
C1115 C1106 1.390 . S
C1115 H1108 0.950 . S
C1115 C1112 1.387 . S
C1116 C1117 1.387 . S
C1116 H1120 0.950 . S
C1116 C1125 1.390 . S
C1117 C1116 1.387 . S
C1117 C1119 1.387 . S
H1118 C1125 0.950 . S
C1119 C1117 1.387 . S
C1119 C1121 1.390 . S
C1119 H1123 0.950 . S
H1120 C1116 0.950 . S
C1121 C1119 1.390 . S
C1121 C1122 1.387 . S
C1121 H1124 0.950 . S
C1122 C1121 1.387 . S
C1122 C1125 1.387 . S
H1123 C1119 0.950 . S
H1124 C1121 0.950 . S
C1125 C1116 1.390 . S
C1125 H1118 0.950 . S
C1125 C1122 1.387 . S
C1126 C1127 1.387 . S
C1126 H1130 0.950 . S
C1126 C1135 1.390 . S
C1127 C1126 1.387 . S
C1127 C1129 1.387 . S
H1128 C1135 0.950 . S
C1129 C1127 1.387 . S
C1129 C1131 1.390 . S
C1129 H1133 0.950 . S
H1130 C1126 0.950 . S
C1131 C1129 1.390 . S
C1131 C1132 1.387 . S
C1131 H1134 0.950 . S
C1132 C1131 1.387 . S
C1132 C1135 1.387 . S
H1133 C1129 0.950 . S
H1134 C1131 0.950 . S
C1135 C1126 1.390 . S
C1135 H1128 0.950 . S
C1135 C1132 1.387 . S
C1136 C1137 1.387 . S
C1136 H1140 0.950 . S
C1136 C1145 1.390 . S
C1137 C1136 1.387 . S
C1137 C1139 1.387 . S
H1138 C1145 0.950 . S
C1139 C1137 1.387 . S
C1139 C1141 1.390 . S
C1139 H1143 0.950 . S
H1140 C1136 0.950 . S
C1141 C1139 1.390 . S
C1141 C1142 1.387 . S
C1141 H1144 0.950 . S
C1142 C1141 1.387 . S
C1142 C1145 1.387 . S
H1143 C1139 0.950 . S
H1144 C1141 0.950 . S
C1145 C1136 1.390 . S
C1145 H1138 0.950 . S
C1145 C1142 1.387 . S
C1146 C1147 1.387 . S
C1146 H1150 0.950 . S
C1146 C1155 1.390 . S
C1147 C1146 1.387 . S
C1147 C1149 1.387 . S
H1148 C1155 0.950 . S
C1149 C1147 1.387 . S
C1149 C1151 1.390 . S
C1149 H1153 0.950 . S
H1150 C1146 0.950 . S
C1151 C1149 1.390 . S
C1151 C1152 1.387 . S
C1151 H1154 0.950 . S
C1152 C1151 1.387 . S
C1152 C1155 1.387 . S
H1153 C1149 0.950 . S
H1154 C1151 0.950 . S
C1155 C1146 1.390 . S
C1155 H1148 0.950 . S
C1155 C1152 1.387 . S
C1156 C1157 1.387 . S
C1156 H1160 0.950 . S
C1156 C1165 1.390 . S
C1157 C1156 1.387 . S
C1157 C1159 1.387 . S
H1158 C1165 0.950 . S
C1159 C1157 1.387 . S
C1159 C1161 1.390 . S
C1159 H1163 0.950 . S
H1160 C1156 0.950 . S
C1161 C1159 1.390 . S
C1161 C1162 1.387 . S
C1161 H1164 0.950 . S
C1162 C1161 1.387 . S
C1162 C1165 1.387 . S
H1163 C1159 0.950 . S
H1164 C1161 0.950 . S
C1165 C1156 1.390 . S
C1165 H1158 0.950 . S
C1165 C1162 1.387 . S
C1166 C1167 1.384 1_455 S
C1166 H1170 0.947 1_455 S
C1166 C1175 1.397 . S
C1167 C1166 1.384 1_655 S
C1167 C1169 1.394 . S
H1168 C1175 0.950 . S
C1169 C1167 1.394 . S
C1169 C1171 1.376 1_655 S
C1169 H1173 0.957 . S
H1170 C1166 0.947 1_655 S
C1171 C1169 1.376 1_455 S
C1171 C1172 1.387 . S
C1171 H1174 0.950 . S
C1172 C1171 1.387 . S
C1172 C1175 1.387 . S
H1173 C1169 0.957 . S
H1174 C1171 0.950 . S
C1175 C1166 1.397 . S
C1175 H1168 0.950 . S
C1175 C1172 1.387 . S
C1176 C1177 1.387 . S
C1176 H1180 0.950 . S
C1176 C1185 1.390 . S
C1177 C1176 1.387 . S
C1177 C1179 1.387 . S
H1178 C1185 0.950 . S
C1179 C1177 1.387 . S
C1179 C1181 1.390 . S
C1179 H1183 0.950 . S
H1180 C1176 0.950 . S
C1181 C1179 1.390 . S
C1181 C1182 1.387 . S
C1181 H1184 0.950 . S
C1182 C1181 1.387 . S
C1182 C1185 1.387 . S
H1183 C1179 0.950 . S
H1184 C1181 0.950 . S
C1185 C1176 1.390 . S
C1185 H1178 0.950 . S
C1185 C1182 1.387 . S
C1186 C1187 1.387 . S
C1186 H1190 0.950 . S
C1186 C1195 1.390 1_455 S
C1187 C1186 1.387 . S
C1187 C1189 1.387 . S
H1188 C1195 0.950 . S
C1189 C1187 1.387 . S
C1189 C1191 1.390 . S
C1189 H1193 0.950 . S
H1190 C1186 0.950 . S
C1191 C1189 1.390 . S
C1191 C1192 1.387 1_455 S
C1191 H1194 0.950 1_455 S
C1192 C1191 1.387 1_655 S
C1192 C1195 1.387 . S
H1193 C1189 0.950 . S
H1194 C1191 0.950 1_655 S
C1195 C1186 1.390 1_655 S
C1195 H1188 0.950 . S
C1195 C1192 1.387 . S
C1196 C1197 1.387 . S
C1196 H1200 0.950 . S
C1196 C1205 1.390 . S
C1197 C1196 1.387 . S
C1197 C1199 1.387 . S
H1198 C1205 0.950 . S
C1199 C1197 1.387 . S
C1199 C1201 1.390 . S
C1199 H1203 0.950 . S
H1200 C1196 0.950 . S
C1201 C1199 1.390 . S
C1201 C1202 1.387 . S
C1201 H1204 0.950 . S
C1202 C1201 1.387 . S
C1202 C1205 1.387 . S
H1203 C1199 0.950 . S
H1204 C1201 0.950 . S
C1205 C1196 1.390 . S
C1205 H1198 0.950 . S
C1205 C1202 1.387 . S
C1206 C1207 1.387 . S
C1206 H1210 0.950 . S
C1206 C1215 1.390 . S
C1207 C1206 1.387 . S
C1207 C1209 1.387 . S
H1208 C1215 0.950 . S
C1209 C1207 1.387 . S
C1209 C1211 1.390 . S
C1209 H1213 0.950 . S
H1210 C1206 0.950 . S
C1211 C1209 1.390 . S
C1211 C1212 1.387 . S
C1211 H1214 0.950 . S
C1212 C1211 1.387 . S
C1212 C1215 1.387 . S
H1213 C1209 0.950 . S
H1214 C1211 0.950 . S
C1215 C1206 1.390 . S
C1215 H1208 0.950 . S
C1215 C1212 1.387 . S
C1216 C1217 1.387 . S
C1216 H1220 0.950 . S
C1216 C1225 1.390 . S
C1217 C1216 1.387 . S
C1217 C1219 1.387 . S
H1218 C1225 0.950 . S
C1219 C1217 1.387 . S
C1219 C1221 1.390 . S
C1219 H1223 0.950 . S
H1220 C1216 0.950 . S
C1221 C1219 1.390 . S
C1221 C1222 1.387 . S
C1221 H1224 0.950 . S
C1222 C1221 1.387 . S
C1222 C1225 1.387 . S
H1223 C1219 0.950 . S
H1224 C1221 0.950 . S
C1225 C1216 1.390 . S
C1225 H1218 0.950 . S
C1225 C1222 1.387 . S
C1226 C1227 1.387 . S
C1226 H1230 0.950 . S
C1226 C1235 1.390 . S
C1227 C1226 1.387 . S
C1227 C1229 1.387 . S
H1228 C1235 0.950 . S
C1229 C1227 1.387 . S
C1229 C1231 1.390 . S
C1229 H1233 0.950 . S
H1230 C1226 0.950 . S
C1231 C1229 1.390 . S
C1231 C1232 1.387 . S
C1231 H1234 0.950 . S
C1232 C1231 1.387 . S
C1232 C1235 1.387 . S
H1233 C1229 0.950 . S
H1234 C1231 0.950 . S
C1235 C1226 1.390 . S
C1235 H1228 0.950 . S
C1235 C1232 1.387 . S
C1236 C1237 1.387 . S
C1236 H1240 0.950 . S
C1236 C1245 1.390 . S
C1237 C1236 1.387 . S
C1237 C1239 1.387 . S
H1238 C1245 0.950 . S
C1239 C1237 1.387 . S
C1239 C1241 1.390 . S
C1239 H1243 0.950 . S
H1240 C1236 0.950 . S
C1241 C1239 1.390 . S
C1241 C1242 1.387 . S
C1241 H1244 0.950 . S
C1242 C1241 1.387 . S
C1242 C1245 1.387 . S
H1243 C1239 0.950 . S
H1244 C1241 0.950 . S
C1245 C1236 1.390 . S
C1245 H1238 0.950 . S
C1245 C1242 1.387 . S
C1246 C1247 1.387 . S
C1246 H1250 0.950 . S
C1246 C1255 1.390 1_556 S
C1247 C1246 1.387 . S
C1247 C1249 1.387 . S
H1248 C1255 0.950 . S
C1249 C1247 1.387 . S
C1249 C1251 1.390 1_556 S
C1249 H1253 0.950 . S
H1250 C1246 0.950 . S
C1251 C1249 1.390 1_554 S
C1251 C1252 1.387 . S
C1251 H1254 0.950 . S
C1252 C1251 1.387 . S
C1252 C1255 1.387 . S
H1253 C1249 0.950 . S
H1254 C1251 0.950 . S
C1255 C1246 1.390 1_554 S
C1255 H1248 0.950 . S
C1255 C1252 1.387 . S
C1256 C1257 1.387 . S
C1256 H1260 0.950 . S
C1256 C1265 1.390 . S
C1257 C1256 1.387 . S
C1257 C1259 1.387 . S
H1258 C1265 0.950 . S
C1259 C1257 1.387 . S
C1259 C1261 1.390 . S
C1259 H1263 0.950 . S
H1260 C1256 0.950 . S
C1261 C1259 1.390 . S
C1261 C1262 1.387 . S
C1261 H1264 0.950 . S
C1262 C1261 1.387 . S
C1262 C1265 1.387 . S
H1263 C1259 0.950 . S
H1264 C1261 0.950 . S
C1265 C1256 1.390 . S
C1265 H1258 0.950 . S
C1265 C1262 1.387 . S
C1266 C1267 1.387 . S
C1266 H1270 0.950 . S
C1266 C1275 1.390 . S
C1267 C1266 1.387 . S
C1267 C1269 1.387 . S
H1268 C1275 0.950 . S
C1269 C1267 1.387 . S
C1269 C1271 1.390 . S
C1269 H1273 0.950 . S
H1270 C1266 0.950 . S
C1271 C1269 1.390 . S
C1271 C1272 1.387 . S
C1271 H1274 0.950 . S
C1272 C1271 1.387 . S
C1272 C1275 1.387 . S
H1273 C1269 0.950 . S
H1274 C1271 0.950 . S
C1275 C1266 1.390 . S
C1275 H1268 0.950 . S
C1275 C1272 1.387 . S
C1276 C1277 1.387 . S
C1276 H1280 0.950 . S
C1276 C1285 1.390 . S
C1277 C1276 1.387 . S
C1277 C1279 1.387 . S
H1278 C1285 0.950 . S
C1279 C1277 1.387 . S
C1279 C1281 1.390 . S
C1279 H1283 0.950 . S
H1280 C1276 0.950 . S
C1281 C1279 1.390 . S
C1281 C1282 1.387 . S
C1281 H1284 0.950 . S
C1282 C1281 1.387 . S
C1282 C1285 1.387 . S
H1283 C1279 0.950 . S
H1284 C1281 0.950 . S
C1285 C1276 1.390 . S
C1285 H1278 0.950 . S
C1285 C1282 1.387 . S
C1286 C1287 1.387 . S
C1286 H1290 0.950 . S
C1286 C1295 1.390 1_556 S
C1287 C1286 1.387 . S
C1287 C1289 1.387 . S
H1288 C1295 0.950 . S
C1289 C1287 1.387 . S
C1289 C1291 1.390 1_556 S
C1289 H1293 0.950 . S
H1290 C1286 0.950 . S
C1291 C1289 1.390 1_554 S
C1291 C1292 1.387 . S
C1291 H1294 0.950 . S
C1292 C1291 1.387 . S
C1292 C1295 1.387 . S
H1293 C1289 0.950 . S
H1294 C1291 0.950 . S
C1295 C1286 1.390 1_554 S
C1295 H1288 0.950 . S
C1295 C1292 1.387 . S
C1296 C1297 1.387 . S
C1296 H1300 0.950 . S
C1296 C1305 1.390 1_565 S
C1297 C1296 1.387 . S
C1297 C1299 1.387 . S
H1298 C1305 0.950 . S
C1299 C1297 1.387 . S
C1299 C1301 1.390 1_565 S
C1299 H1303 0.950 . S
H1300 C1296 0.950 . S
C1301 C1299 1.390 1_545 S
C1301 C1302 1.387 . S
C1301 H1304 0.950 . S
C1302 C1301 1.387 . S
C1302 C1305 1.387 . S
H1303 C1299 0.950 . S
H1304 C1301 0.950 . S
C1305 C1296 1.390 1_545 S
C1305 H1298 0.950 . S
C1305 C1302 1.387 . S
C1306 C1307 1.387 . S
C1306 H1310 0.950 . S
C1306 C1315 1.390 1_554 S
C1307 C1306 1.387 . S
C1307 C1309 1.387 . S
H1308 C1315 0.950 . S
C1309 C1307 1.387 . S
C1309 C1311 1.390 1_554 S
C1309 H1313 0.950 . S
H1310 C1306 0.950 . S
C1311 C1309 1.390 1_556 S
C1311 C1312 1.387 . S
C1311 H1314 0.950 . S
C1312 C1311 1.387 . S
C1312 C1315 1.387 . S
H1313 C1309 0.950 . S
H1314 C1311 0.950 . S
C1315 C1306 1.390 1_556 S
C1315 H1308 0.950 . S
C1315 C1312 1.387 . S
C1316 C1317 1.387 . S
C1316 H1320 0.950 . S
C1316 C1325 1.390 1_545 S
C1317 C1316 1.387 . S
C1317 C1319 1.387 . S
H1318 C1325 0.950 . S
C1319 C1317 1.387 . S
C1319 C1321 1.390 1_545 S
C1319 H1323 0.950 . S
H1320 C1316 0.950 . S
C1321 C1319 1.390 1_565 S
C1321 C1322 1.387 . S
C1321 H1324 0.950 . S
C1322 C1321 1.387 . S
C1322 C1325 1.387 . S
H1323 C1319 0.950 . S
H1324 C1321 0.950 . S
C1325 C1316 1.390 1_565 S
C1325 H1318 0.950 . S
C1325 C1322 1.387 . S
C1326 C1327 1.387 . S
C1326 H1330 0.950 . S
C1326 C1335 1.390 . S
C1327 C1326 1.387 . S
C1327 C1329 1.387 . S
H1328 C1335 0.950 . S
C1329 C1327 1.387 . S
C1329 C1331 1.390 . S
C1329 H1333 0.950 . S
H1330 C1326 0.950 . S
C1331 C1329 1.390 . S
C1331 C1332 1.387 . S
C1331 H1334 0.950 . S
C1332 C1331 1.387 . S
C1332 C1335 1.387 . S
H1333 C1329 0.950 . S
H1334 C1331 0.950 . S
C1335 C1326 1.390 . S
C1335 H1328 0.950 . S
C1335 C1332 1.387 . S
C1336 C1337 1.387 . S
C1336 H1340 0.950 . S
C1336 C1345 1.390 1_545 S
C1337 C1336 1.387 . S
C1337 C1339 1.387 . S
H1338 C1345 0.950 . S
C1339 C1337 1.387 . S
C1339 C1341 1.390 1_545 S
C1339 H1343 0.950 . S
H1340 C1336 0.950 . S
C1341 C1339 1.390 1_565 S
C1341 C1342 1.387 . S
C1341 H1344 0.950 . S
C1342 C1341 1.387 . S
C1342 C1345 1.387 . S
H1343 C1339 0.950 . S
H1344 C1341 0.950 . S
C1345 C1336 1.390 1_565 S
C1345 H1338 0.950 . S
C1345 C1342 1.387 . S
C1346 C1347 1.387 . S
C1346 H1350 0.950 . S
C1346 C1355 1.390 1_556 S
C1347 C1346 1.387 . S
C1347 C1349 1.387 . S
H1348 C1355 0.950 . S
C1349 C1347 1.387 . S
C1349 C1351 1.390 1_556 S
C1349 H1353 0.950 . S
H1350 C1346 0.950 . S
C1351 C1349 1.390 1_554 S
C1351 C1352 1.387 . S
C1351 H1354 0.950 . S
C1352 C1351 1.387 . S
C1352 C1355 1.387 . S
H1353 C1349 0.950 . S
H1354 C1351 0.950 . S
C1355 C1346 1.390 1_554 S
C1355 H1348 0.950 . S
C1355 C1352 1.387 . S
C1356 C1357 1.387 . S
C1356 H1360 0.950 . S
C1356 C1365 1.390 1_545 S
C1357 C1356 1.387 . S
C1357 C1359 1.387 . S
H1358 C1365 0.950 . S
C1359 C1357 1.387 . S
C1359 C1361 1.390 1_545 S
C1359 H1363 0.950 . S
H1360 C1356 0.950 . S
C1361 C1359 1.390 1_565 S
C1361 C1362 1.387 . S
C1361 H1364 0.950 . S
C1362 C1361 1.387 . S
C1362 C1365 1.387 . S
H1363 C1359 0.950 . S
H1364 C1361 0.950 . S
C1365 C1356 1.390 1_565 S
C1365 H1358 0.950 . S
C1365 C1362 1.387 . S
C1366 C1367 1.387 . S
C1366 H1370 0.950 . S
C1366 C1375 1.390 . S
C1367 C1366 1.387 . S
C1367 C1369 1.387 . S
H1368 C1375 0.950 . S
C1369 C1367 1.387 . S
C1369 C1371 1.390 . S
C1369 H1373 0.950 . S
H1370 C1366 0.950 . S
C1371 C1369 1.390 . S
C1371 C1372 1.387 . S
C1371 H1374 0.950 . S
C1372 C1371 1.387 . S
C1372 C1375 1.387 . S
H1373 C1369 0.950 . S
H1374 C1371 0.950 . S
C1375 C1366 1.390 . S
C1375 H1368 0.950 . S
C1375 C1372 1.387 . S
C737 C7 2.107 . S
C742 N485 1.903 . S
C747 C513 2.108 . S
C752 N25 1.902 . S
C757 C53 2.108 . S
C762 N531 1.903 . S
C767 C467 2.107 . S
C772 N71 1.903 . S
C777 C99 2.108 . S
C782 N439 1.899 . S
C787 N117 1.902 . S
C792 C375 2.108 . S
C797 N393 1.901 . S
C802 C145 2.107 . S
C807 N163 1.899 . S
C812 C421 2.107 . S
C817 C191 2.311 . S
C822 C674 2.294 . S
C827 C214 2.292 . S
C832 C697 2.312 . S
C837 C720 2.293 . S
C842 C237 2.310 . S
C847 C651 2.311 . S
C852 C260 2.293 . S
C857 C283 2.311 . S
C862 C628 2.293 . S
C867 C559 2.310 . S
C872 C306 2.294 . S
C877 C329 2.310 . S
C882 C582 2.293 . S
C887 C605 2.310 . S
C892 C352 2.294 . S
C897 N2 1.850 . S
C902 C223 1.769 . S
C907 C30 2.027 . S
C912 C614 1.917 1_655 S
C917 C269 1.768 . S
C922 N48 1.850 . S
C927 C76 2.027 . S
C932 C568 1.917 . S
C937 N94 1.851 . S
C942 C361 1.771 . S
C947 C660 1.917 . S
C952 C122 2.027 . S
C957 C315 1.771 . S
C962 N140 1.850 . S
C967 C706 1.917 1_655 S
C972 C168 2.027 . S
C977 N186 1.616 . S
C982 N35 1.673 . S
C987 C430 1.369 . S
C992 N209 1.388 . S
C997 N81 1.673 . S
C1002 N232 1.616 . S
C1007 N255 1.387 . S
C1012 C384 1.368 . S
C1017 N173 1.673 . S
C1022 N278 1.616 . S
C1027 C476 1.371 . S
C1032 N301 1.385 . S
C1037 N127 1.672 . S
C1042 N324 1.615 . S
C1047 N347 1.384 . S
C1052 C522 1.371 . S
C1057 C591 1.768 . S
C1062 N370 1.850 . S
C1067 C246 1.915 . S
C1072 C398 2.027 . S
C1077 C637 1.768 . S
C1082 N416 1.851 . S
C1087 C444 2.027 . S
C1092 C200 1.915 1_455 S
C1097 C729 1.768 . S
C1102 N462 1.850 . S
C1107 C292 1.917 1_455 S
C1112 C490 2.027 . S
C1117 C683 1.770 . S
C1122 N508 1.850 . S
C1127 C536 2.027 . S
C1132 C338 1.917 . S
C1137 N554 1.616 . S
C1142 N403 1.673 . S
C1147 C62 1.371 . S
C1152 N577 1.384 . S
C1157 N600 1.616 . S
C1162 N449 1.673 . S
C1167 N623 1.387 . S
C1172 C16 1.368 . S
C1177 N646 1.612 . S
C1182 N541 1.673 . S
C1187 C108 1.372 . S
C1192 N669 1.385 . S
C1197 N495 1.673 . S
C1202 N692 1.616 . S
C1207 N715 1.385 . S
C1212 C154 1.372 . S
C1217 N12 1.547 . S
C1222 N104 1.547 . S
C1227 C39 1.740 . S
C1232 C131 1.740 . S
C1237 N150 1.550 . S
C1242 N58 1.550 . S
C1247 C177 1.742 . S
C1252 C85 1.742 . S
C1257 N288 1.486 . S
C1262 N196 1.486 . S
C1267 N311 1.396 . S
C1272 N219 1.396 . S
C1277 N334 1.482 . S
C1282 N242 1.482 . S
C1287 N357 1.400 . S
C1292 N265 1.400 . S
C1297 N380 1.550 . S
C1302 N472 1.550 . S
C1307 C407 1.742 . S
C1312 C499 1.742 . S
C1317 N426 1.547 . S
C1322 N518 1.547 . S
C1327 C545 1.740 . S
C1332 C453 1.740 . S
C1337 N564 1.482 . S
C1342 N656 1.482 . S
C1347 N679 1.400 . S
C1352 N587 1.400 . S
C1357 N702 1.486 . S
C1362 N610 1.486 . S
C1367 N725 1.400 . S
C1372 N633 1.400 . S
