# Generated by pormake.
# Topology gsi, (4)-cn, num edge types: 1
# Building blocks:
#     Node 0, Type 0, BuildingBlock: QUQFOY_clean_sbu_1, # of connection points: 4
#     Node 1, Type 0, BuildingBlock: QUQFOY_clean_sbu_1, # of connection points: 4
#     Node 2, Type 0, BuildingBlock: QUQFOY_clean_sbu_1, # of connection points: 4
#     Node 3, Type 0, BuildingBlock: QUQFOY_clean_sbu_1, # of connection points: 4
#     Node 4, Type 0, BuildingBlock: QUQFOY_clean_sbu_1, # of connection points: 4
#     Node 5, Type 0, BuildingBlock: QUQFOY_clean_sbu_1, # of connection points: 4
#     Node 6, Type 0, BuildingBlock: QUQFOY_clean_sbu_1, # of connection points: 4
#     Node 7, Type 0, BuildingBlock: QUQFOY_clean_sbu_1, # of connection points: 4
#     Node 8, Type 0, BuildingBlock: QUQFOY_clean_sbu_1, # of connection points: 4
#     Node 9, Type 0, BuildingBlock: QUQFOY_clean_sbu_1, # of connection points: 4
#     Node 10, Type 0, BuildingBlock: QUQFOY_clean_sbu_1, # of connection points: 4
#     Node 11, Type 0, BuildingBlock: QUQFOY_clean_sbu_1, # of connection points: 4
#     Node 12, Type 0, BuildingBlock: QUQFOY_clean_sbu_1, # of connection points: 4
#     Node 13, Type 0, BuildingBlock: QUQFOY_clean_sbu_1, # of connection points: 4
#     Node 14, Type 0, BuildingBlock: QUQFOY_clean_sbu_1, # of connection points: 4
#     Node 15, Type 0, BuildingBlock: QUQFOY_clean_sbu_1, # of connection points: 4
#     Edge 16, Type (0, 0), BuildingBlock: TEMPAE_clean_linker_10, # of connection points: 2
#     Edge 17, Type (0, 0), BuildingBlock: TEMPAE_clean_linker_10, # of connection points: 2
#     Edge 18, Type (0, 0), BuildingBlock: TEMPAE_clean_linker_10, # of connection points: 2
#     Edge 19, Type (0, 0), BuildingBlock: TEMPAE_clean_linker_10, # of connection points: 2
#     Edge 20, Type (0, 0), BuildingBlock: TEMPAE_clean_linker_10, # of connection points: 2
#     Edge 21, Type (0, 0), BuildingBlock: TEMPAE_clean_linker_10, # of connection points: 2
#     Edge 22, Type (0, 0), BuildingBlock: TEMPAE_clean_linker_10, # of connection points: 2
#     Edge 23, Type (0, 0), BuildingBlock: TEMPAE_clean_linker_10, # of connection points: 2
#     Edge 24, Type (0, 0), BuildingBlock: TEMPAE_clean_linker_10, # of connection points: 2
#     Edge 25, Type (0, 0), BuildingBlock: TEMPAE_clean_linker_10, # of connection points: 2
#     Edge 26, Type (0, 0), BuildingBlock: TEMPAE_clean_linker_10, # of connection points: 2
#     Edge 27, Type (0, 0), BuildingBlock: TEMPAE_clean_linker_10, # of connection points: 2
#     Edge 28, Type (0, 0), BuildingBlock: TEMPAE_clean_linker_10, # of connection points: 2
#     Edge 29, Type (0, 0), BuildingBlock: TEMPAE_clean_linker_10, # of connection points: 2
#     Edge 30, Type (0, 0), BuildingBlock: TEMPAE_clean_linker_10, # of connection points: 2
#     Edge 31, Type (0, 0), BuildingBlock: TEMPAE_clean_linker_10, # of connection points: 2
#     Edge 32, Type (0, 0), BuildingBlock: TEMPAE_clean_linker_10, # of connection points: 2
#     Edge 33, Type (0, 0), BuildingBlock: TEMPAE_clean_linker_10, # of connection points: 2
#     Edge 34, Type (0, 0), BuildingBlock: TEMPAE_clean_linker_10, # of connection points: 2
#     Edge 35, Type (0, 0), BuildingBlock: TEMPAE_clean_linker_10, # of connection points: 2
#     Edge 36, Type (0, 0), BuildingBlock: TEMPAE_clean_linker_10, # of connection points: 2
#     Edge 37, Type (0, 0), BuildingBlock: TEMPAE_clean_linker_10, # of connection points: 2
#     Edge 38, Type (0, 0), BuildingBlock: TEMPAE_clean_linker_10, # of connection points: 2
#     Edge 39, Type (0, 0), BuildingBlock: TEMPAE_clean_linker_10, # of connection points: 2
#     Edge 40, Type (0, 0), BuildingBlock: TEMPAE_clean_linker_10, # of connection points: 2
#     Edge 41, Type (0, 0), BuildingBlock: TEMPAE_clean_linker_10, # of connection points: 2
#     Edge 42, Type (0, 0), BuildingBlock: TEMPAE_clean_linker_10, # of connection points: 2
#     Edge 43, Type (0, 0), BuildingBlock: TEMPAE_clean_linker_10, # of connection points: 2
#     Edge 44, Type (0, 0), BuildingBlock: TEMPAE_clean_linker_10, # of connection points: 2
#     Edge 45, Type (0, 0), BuildingBlock: TEMPAE_clean_linker_10, # of connection points: 2
#     Edge 46, Type (0, 0), BuildingBlock: TEMPAE_clean_linker_10, # of connection points: 2
#     Edge 47, Type (0, 0), BuildingBlock: TEMPAE_clean_linker_10, # of connection points: 2
# Relax obj value: 0.159
# Max RMSD: 0.222
# Mean RMSD: 0.173
data_MOF--net-gsi--node1-QUQFOY_clean_sbu_1--edge1-TEMPAE_clean_linker_10
_symmetry_space_group_name_H-M    P1
_symmetry_Int_Tables_number       1
_symmetry_cell_setting            triclinic
loop_
_symmetry_equiv_pos_as_xyz
'x, y, z'
_cell_length_a     36.776702
_cell_length_b     46.689283
_cell_length_c     48.70374
_cell_angle_alpha  90.001947
_cell_angle_beta   90.003968
_cell_angle_gamma 100.90426
loop_
_atom_site_label
_atom_site_type_symbol
_atom_site_fract_x
_atom_site_fract_y
_atom_site_fract_z
_atom_type_partial_charge
O0 O 0.11496 0.18593 0.12707 0.0
Cd1 Cd 0.15722 0.16298 0.13401 0.0
Cd2 Cd 0.11078 0.14116 0.17271 0.0
O3 O 0.07154 0.15787 0.15112 0.0
O4 O 0.19066 0.17283 0.10188 0.0
O5 O 0.16033 0.1281 0.11004 0.0
C6 C 0.18257 0.14587 0.09456 0.0
C7 C 0.1063 0.09327 0.18738 0.0
C8 C 0.08139 0.17923 0.13486 0.0
C9 C 0.17864 0.1808 0.19071 0.0
O10 O 0.14489 0.17115 0.19635 0.0
O11 O 0.19144 0.17615 0.16725 0.0
O12 O 0.08674 0.11037 0.19856 0.0
O13 O 0.12657 0.10289 0.1664 0.0
O14 O 0.88545 0.32137 0.12201 0.0
Cd15 Cd 0.84014 0.34064 0.12801 0.0
Cd16 Cd 0.88093 0.36483 0.17108 0.0
O17 O 0.92165 0.34531 0.15387 0.0
O18 O 0.81024 0.3316 0.09404 0.0
O19 O 0.83541 0.37663 0.10614 0.0
C20 C 0.81605 0.35911 0.0888 0.0
C21 C 0.88997 0.41304 0.18609 0.0
C22 C 0.91634 0.32665 0.13451 0.0
C23 C 0.81097 0.3229 0.18395 0.0
O24 O 0.8409 0.33786 0.19316 0.0
O25 O 0.80407 0.32229 0.15838 0.0
O26 O 0.90473 0.39381 0.19872 0.0
O27 O 0.87214 0.40531 0.16358 0.0
O28 O 0.12331 0.83983 0.38037 0.0
Cd29 Cd 0.17813 0.85727 0.37382 0.0
Cd30 Cd 0.14669 0.87525 0.32239 0.0
O31 O 0.09969 0.8531 0.34173 0.0
O32 O 0.20131 0.84387 0.40722 0.0
O33 O 0.20424 0.89047 0.39806 0.0
C34 C 0.21241 0.87063 0.41409 0.0
C35 C 0.13968 0.91611 0.29607 0.0
C36 C 0.09574 0.83989 0.36469 0.0
C37 C 0.20112 0.83451 0.31907 0.0
O38 O 0.18126 0.84957 0.30622 0.0
O39 O 0.20353 0.83543 0.34508 0.0
O40 O 0.12551 0.88997 0.28856 0.0
O41 O 0.15807 0.91928 0.31881 0.0
O42 O 0.84971 0.67722 0.36463 0.0
Cd43 Cd 0.80058 0.64979 0.35473 0.0
Cd44 Cd 0.8483 0.6347 0.31426 0.0
O45 O 0.88829 0.65715 0.33975 0.0
O46 O 0.76731 0.65903 0.38435 0.0
O47 O 0.78216 0.61563 0.38018 0.0
C48 C 0.76506 0.63295 0.39353 0.0
C49 C 0.85961 0.59294 0.29151 0.0
C50 C 0.88254 0.67571 0.35753 0.0
C51 C 0.78901 0.66792 0.2975 0.0
O52 O 0.81973 0.6606 0.29192 0.0
O53 O 0.77364 0.66168 0.32065 0.0
O54 O 0.87731 0.61862 0.28534 0.0
O55 O 0.83574 0.59075 0.31122 0.0
O56 O 0.37708 0.81682 0.63248 0.0
Cd57 Cd 0.33616 0.84078 0.64066 0.0
Cd58 Cd 0.38454 0.8618 0.67837 0.0
O59 O 0.42201 0.84416 0.65576 0.0
O60 O 0.30112 0.83213 0.60931 0.0
O61 O 0.33389 0.87616 0.61719 0.0
C62 C 0.31025 0.85907 0.60213 0.0
C63 C 0.39182 0.90981 0.69329 0.0
C64 C 0.41098 0.82295 0.63953 0.0
C65 C 0.31639 0.82343 0.69776 0.0
O66 O 0.35046 0.83254 0.70272 0.0
O67 O 0.30298 0.82821 0.67454 0.0
O68 O 0.41073 0.89195 0.70395 0.0
O69 O 0.37054 0.90083 0.67266 0.0
O70 O 0.84881 0.91114 0.8352 0.0
Cd71 Cd 0.83545 0.87097 0.85375 0.0
Cd72 Cd 0.89875 0.86448 0.82982 0.0
O73 O 0.90489 0.90865 0.82062 0.0
O74 O 0.79561 0.87506 0.88032 0.0
O75 O 0.84987 0.86579 0.89312 0.0
C76 C 0.81751 0.87048 0.89981 0.0
C77 C 0.94073 0.83992 0.85077 0.0
C78 C 0.87867 0.9228 0.82324 0.0
C79 C 0.8298 0.82665 0.80911 0.0
O80 O 0.86387 0.83657 0.80478 0.0
O81 O 0.81305 0.83629 0.82889 0.0
O82 O 0.94682 0.85107 0.82656 0.0
O83 O 0.91266 0.84556 0.86433 0.0
O84 O 0.14576 0.5946 0.84554 0.0
Cd85 Cd 0.15104 0.63393 0.86645 0.0
Cd86 Cd 0.09396 0.63641 0.83563 0.0
O87 O 0.08902 0.59206 0.82999 0.0
O88 O 0.1885 0.63182 0.8956 0.0
O89 O 0.13042 0.63447 0.90482 0.0
C90 C 0.16306 0.63269 0.9136 0.0
C91 C 0.05251 0.66311 0.85391 0.0
C92 C 0.11746 0.58054 0.83314 0.0
C93 C 0.16158 0.67669 0.82084 0.0
O94 O 0.13241 0.66135 0.81091 0.0
O95 O 0.17183 0.67197 0.84508 0.0
O96 O 0.04693 0.65085 0.83008 0.0
O97 O 0.07975 0.6576 0.86853 0.0
O98 O 0.8895 0.16578 0.66957 0.0
Cd99 Cd 0.84335 0.14229 0.68879 0.0
Cd100 Cd 0.81011 0.16185 0.63756 0.0
O101 O 0.86498 0.17899 0.63125 0.0
O102 O 0.86586 0.12721 0.72193 0.0
O103 O 0.83444 0.09815 0.69099 0.0
C104 C 0.85327 0.1011 0.71353 0.0
C105 C 0.77605 0.15182 0.59654 0.0
C106 C 0.89279 0.17918 0.64672 0.0
C107 C 0.7876 0.18217 0.69353 0.0
O108 O 0.7853 0.1824 0.66751 0.0
O109 O 0.80756 0.16667 0.70576 0.0
O110 O 0.78928 0.17795 0.60442 0.0
O111 O 0.78157 0.1308 0.61223 0.0
O112 O 0.12293 0.34505 0.67397 0.0
Cd113 Cd 0.16879 0.36748 0.69441 0.0
Cd114 Cd 0.20332 0.34837 0.64256 0.0
O115 O 0.14827 0.33254 0.63569 0.0
O116 O 0.14574 0.38097 0.72809 0.0
O117 O 0.17765 0.41151 0.69854 0.0
C118 C 0.15852 0.40747 0.72091 0.0
C119 C 0.23778 0.35704 0.60153 0.0
C120 C 0.12008 0.33234 0.65076 0.0
C121 C 0.22377 0.32671 0.69865 0.0
O122 O 0.22675 0.32697 0.67266 0.0
O123 O 0.20384 0.34221 0.7109 0.0
O124 O 0.22364 0.33123 0.60975 0.0
O125 O 0.23307 0.37853 0.61692 0.0
O126 O 0.64802 0.09148 0.33761 0.0
Cd127 Cd 0.66142 0.13122 0.35702 0.0
Cd128 Cd 0.59812 0.13868 0.3335 0.0
O129 O 0.59212 0.09483 0.32319 0.0
O130 O 0.70019 0.12677 0.38438 0.0
O131 O 0.64539 0.13587 0.39605 0.0
C132 C 0.67752 0.1312 0.40341 0.0
C133 C 0.55458 0.16243 0.3535 0.0
C134 C 0.61812 0.0804 0.32538 0.0
C135 C 0.66752 0.17689 0.31367 0.0
O136 O 0.63335 0.16737 0.30938 0.0
O137 O 0.68431 0.16642 0.33292 0.0
O138 O 0.54996 0.15167 0.32905 0.0
O139 O 0.58205 0.15684 0.36778 0.0
O140 O 0.60681 0.68201 0.61892 0.0
Cd141 Cd 0.65339 0.66399 0.62367 0.0
Cd142 Cd 0.61463 0.63873 0.66795 0.0
O143 O 0.57284 0.6578 0.6518 0.0
O144 O 0.68183 0.67415 0.5892 0.0
O145 O 0.65916 0.62862 0.60122 0.0
C146 C 0.67723 0.64672 0.58374 0.0
C147 C 0.60542 0.59103 0.68452 0.0
C148 C 0.57663 0.6763 0.6323 0.0
C149 C 0.6845 0.68177 0.67915 0.0
O150 O 0.65549 0.66606 0.68897 0.0
O151 O 0.6901 0.68294 0.65341 0.0
O152 O 0.59169 0.61097 0.69687 0.0
O153 O 0.62236 0.59771 0.66148 0.0
O154 O 0.63726 0.33343 0.87358 0.0
Cd155 Cd 0.6879 0.35768 0.86209 0.0
Cd156 Cd 0.64092 0.37264 0.82046 0.0
O157 O 0.60026 0.3533 0.84699 0.0
O158 O 0.72042 0.34754 0.89179 0.0
O159 O 0.71012 0.39218 0.88613 0.0
C160 C 0.72554 0.37416 0.89997 0.0
C161 C 0.63199 0.41378 0.79553 0.0
C162 C 0.60485 0.33582 0.86612 0.0
C163 C 0.69676 0.3355 0.80564 0.0
O164 O 0.66693 0.34397 0.79956 0.0
O165 O 0.71267 0.34233 0.82851 0.0
O166 O 0.61281 0.38826 0.79069 0.0
O167 O 0.6561 0.41621 0.8151 0.0
O168 O 0.36697 0.17207 0.87839 0.0
Cd169 Cd 0.3155 0.14861 0.86771 0.0
Cd170 Cd 0.36081 0.13144 0.82609 0.0
O171 O 0.40247 0.15065 0.85187 0.0
O172 O 0.28387 0.1597 0.89759 0.0
O173 O 0.29268 0.11461 0.89212 0.0
C174 C 0.27802 0.13311 0.90592 0.0
C175 C 0.36817 0.08964 0.80153 0.0
C176 C 0.39894 0.16881 0.87066 0.0
C177 C 0.30659 0.16997 0.811 0.0
O178 O 0.33565 0.1604 0.80488 0.0
O179 O 0.29092 0.16411 0.83411 0.0
O180 O 0.38773 0.1149 0.79619 0.0
O181 O 0.3446 0.08784 0.8214 0.0
O182 O 0.35246 0.40915 0.33932 0.0
Cd183 Cd 0.34436 0.36958 0.36001 0.0
Cd184 Cd 0.4025 0.36555 0.3306 0.0
O185 O 0.40915 0.40987 0.32435 0.0
O186 O 0.30586 0.37292 0.388 0.0
O187 O 0.36264 0.36802 0.39895 0.0
C188 C 0.33 0.37101 0.40675 0.0
C189 C 0.44255 0.33859 0.35046 0.0
C190 C 0.38149 0.42237 0.32719 0.0
C191 C 0.33425 0.3266 0.31442 0.0
O192 O 0.36458 0.3409 0.30526 0.0
O193 O 0.32288 0.33202 0.33815 0.0
O194 O 0.44922 0.35034 0.32651 0.0
O195 O 0.41487 0.34462 0.36425 0.0
O196 O 0.37459 0.65786 0.16447 0.0
Cd197 Cd 0.33406 0.63751 0.19062 0.0
Cd198 Cd 0.28618 0.65703 0.14872 0.0
O199 O 0.33837 0.67888 0.13815 0.0
O200 O 0.36348 0.62297 0.22033 0.0
O201 O 0.32197 0.59362 0.19575 0.0
C202 C 0.34619 0.59691 0.21524 0.0
C203 C 0.24786 0.64666 0.10983 0.0
C204 C 0.37049 0.67578 0.14561 0.0
C205 C 0.27919 0.6761 0.20673 0.0
O206 O 0.26367 0.67209 0.18336 0.0
O207 O 0.30758 0.66537 0.21241 0.0
O208 O 0.25736 0.67261 0.11944 0.0
O209 O 0.25884 0.62588 0.12303 0.0
O210 O 0.59668 0.84287 0.1632 0.0
Cd211 Cd 0.64383 0.86377 0.1831 0.0
Cd212 Cd 0.67496 0.84371 0.13086 0.0
O213 O 0.61936 0.83086 0.12371 0.0
O214 O 0.62242 0.87831 0.21697 0.0
O215 O 0.6554 0.90779 0.18709 0.0
C216 C 0.63658 0.90451 0.20962 0.0
C217 C 0.71061 0.85249 0.09048 0.0
C218 C 0.59205 0.83115 0.13957 0.0
C219 C 0.69513 0.82034 0.18634 0.0
O220 O 0.69655 0.8202 0.16029 0.0
O221 O 0.67759 0.83721 0.19913 0.0
O222 O 0.69413 0.82681 0.0975 0.0
O223 O 0.70729 0.87376 0.1066 0.0
C224 C 0.18615 0.21876 0.22696 0.0
C225 C 0.20195 0.19967 0.21061 0.0
C226 C 0.20805 0.23866 0.24452 0.0
C227 C 0.24645 0.23868 0.24646 0.0
C228 C 0.26232 0.21863 0.23078 0.0
C229 C 0.23993 0.19968 0.21257 0.0
C230 C 0.19034 0.26036 0.26019 0.0
C231 C 0.30294 0.21742 0.23303 0.0
C232 C 0.30922 0.30864 0.26899 0.0
C233 C 0.31216 0.30392 0.29721 0.0
C234 C 0.2878 0.28756 0.25223 0.0
C235 C 0.27015 0.26073 0.26389 0.0
C236 C 0.27395 0.25556 0.2923 0.0
C237 C 0.29438 0.27753 0.30878 0.0
C238 C 0.28334 0.29429 0.22221 0.0
C239 C 0.25654 0.22685 0.30523 0.0
H240 H 0.1568 0.21895 0.22519 0.0
H241 H 0.25202 0.18475 0.20001 0.0
H242 H 0.19493 0.25831 0.28254 0.0
H243 H 0.20339 0.28288 0.25414 0.0
H244 H 0.16007 0.25736 0.25639 0.0
H245 H 0.3102 0.19885 0.22135 0.0
H246 H 0.31984 0.23794 0.22507 0.0
H247 H 0.31068 0.21542 0.25488 0.0
H248 H 0.3229 0.32919 0.26016 0.0
H249 H 0.29712 0.27387 0.33061 0.0
H250 H 0.25356 0.29277 0.21733 0.0
H251 H 0.2937 0.27804 0.20924 0.0
H252 H 0.29842 0.3164 0.21652 0.0
H253 H 0.22595 0.22369 0.30379 0.0
H254 H 0.2643 0.22558 0.32718 0.0
H255 H 0.26515 0.20857 0.29396 0.0
C256 C 0.78542 0.31119 0.23092 0.0
C257 C 0.78572 0.30419 0.20294 0.0
C258 C 0.76444 0.29207 0.24968 0.0
C259 C 0.74418 0.26504 0.24027 0.0
C260 C 0.7437 0.25819 0.21193 0.0
C261 C 0.76414 0.27806 0.19353 0.0
C262 C 0.76472 0.30047 0.27963 0.0
C263 C 0.72293 0.22933 0.20121 0.0
C264 C 0.72542 0.20215 0.29078 0.0
C265 C 0.68759 0.20019 0.29594 0.0
C266 C 0.74423 0.22325 0.27269 0.0
C267 C 0.72487 0.24329 0.26016 0.0
C268 C 0.68693 0.242 0.26604 0.0
C269 C 0.6686 0.22017 0.28359 0.0
C270 C 0.78455 0.22362 0.26647 0.0
C271 C 0.66568 0.26351 0.25366 0.0
H272 H 0.80192 0.3315 0.23819 0.0
H273 H 0.76458 0.2725 0.17194 0.0
H274 H 0.73597 0.29788 0.2875 0.0
H275 H 0.7789 0.28577 0.29182 0.0
H276 H 0.77909 0.32332 0.28318 0.0
H277 H 0.72455 0.22771 0.17851 0.0
H278 H 0.73451 0.21126 0.21046 0.0
H279 H 0.69336 0.22611 0.20726 0.0
H280 H 0.74005 0.1866 0.30022 0.0
H281 H 0.63938 0.21885 0.28783 0.0
H282 H 0.80144 0.24517 0.27183 0.0
H283 H 0.78816 0.22028 0.24415 0.0
H284 H 0.7955 0.20647 0.27788 0.0
H285 H 0.68014 0.28615 0.25797 0.0
H286 H 0.63696 0.26067 0.26172 0.0
H287 H 0.66438 0.26088 0.23103 0.0
C288 C 0.23102 0.70151 0.22636 0.0
C289 C 0.26763 0.69709 0.22596 0.0
C290 C 0.22095 0.72361 0.2426 0.0
C291 C 0.24845 0.74227 0.25796 0.0
C292 C 0.2854 0.73773 0.25774 0.0
C293 C 0.29441 0.71489 0.24208 0.0
C294 C 0.18101 0.72722 0.24304 0.0
C295 C 0.31567 0.75766 0.27323 0.0
C296 C 0.22691 0.81637 0.27632 0.0
C297 C 0.21712 0.81241 0.30404 0.0
C298 C 0.23834 0.79399 0.26126 0.0
C299 C 0.23866 0.76677 0.27404 0.0
C300 C 0.22911 0.7628 0.30209 0.0
C301 C 0.21903 0.78583 0.31686 0.0
C302 C 0.24953 0.79932 0.2316 0.0
C303 C 0.22815 0.73386 0.31623 0.0
H304 H 0.21033 0.68777 0.21387 0.0
H305 H 0.3229 0.71183 0.24145 0.0
H306 H 0.17099 0.72718 0.26454 0.0
H307 H 0.17859 0.74853 0.23389 0.0
H308 H 0.16265 0.70966 0.2315 0.0
H309 H 0.34301 0.75108 0.27097 0.0
H310 H 0.31804 0.78035 0.26563 0.0
H311 H 0.30876 0.7578 0.29539 0.0
H312 H 0.22542 0.8369 0.26639 0.0
H313 H 0.21088 0.78253 0.3382 0.0
H314 H 0.22968 0.78493 0.21811 0.0
H315 H 0.27725 0.79386 0.22808 0.0
H316 H 0.25036 0.82232 0.22534 0.0
H317 H 0.20794 0.71666 0.30576 0.0
H318 H 0.22031 0.73443 0.33823 0.0
H319 H 0.25561 0.72743 0.31486 0.0
C320 C 0.7981 0.70587 0.26099 0.0
C321 C 0.77399 0.6875 0.27858 0.0
C322 C 0.78583 0.72754 0.2456 0.0
C323 C 0.74827 0.73037 0.24725 0.0
C324 C 0.72339 0.71109 0.26407 0.0
C325 C 0.73669 0.69011 0.27987 0.0
C326 C 0.81335 0.74808 0.22835 0.0
C327 C 0.6829 0.71292 0.26569 0.0
C328 C 0.72207 0.80296 0.22903 0.0
C329 C 0.71068 0.7982 0.2017 0.0
C330 C 0.73492 0.78118 0.24402 0.0
C331 C 0.73522 0.75378 0.23159 0.0
C332 C 0.72349 0.74884 0.20406 0.0
C333 C 0.71187 0.77126 0.18933 0.0
C334 C 0.74821 0.78749 0.27312 0.0
C335 C 0.72253 0.71969 0.19033 0.0
H336 H 0.8271 0.70422 0.26019 0.0
H337 H 0.71799 0.67593 0.29343 0.0
H338 H 0.80421 0.74722 0.20662 0.0
H339 H 0.81484 0.77082 0.23556 0.0
H340 H 0.84157 0.74286 0.22924 0.0
H341 H 0.66678 0.69509 0.27828 0.0
H342 H 0.67986 0.73411 0.2748 0.0
H343 H 0.67074 0.71192 0.24478 0.0
H344 H 0.72115 0.82378 0.23861 0.0
H345 H 0.70251 0.76733 0.16831 0.0
H346 H 0.77701 0.78379 0.27525 0.0
H347 H 0.73074 0.77235 0.28749 0.0
H348 H 0.74745 0.81024 0.27942 0.0
H349 H 0.75072 0.7145 0.18981 0.0
H350 H 0.71177 0.71919 0.16899 0.0
H351 H 0.70477 0.70222 0.20232 0.0
C352 C 0.30941 0.78636 0.73484 0.0
C353 C 0.29334 0.80494 0.71808 0.0
C354 C 0.28767 0.76652 0.75255 0.0
C355 C 0.24913 0.766 0.75416 0.0
C356 C 0.23301 0.78566 0.73818 0.0
C357 C 0.25526 0.80459 0.71989 0.0
C358 C 0.3057 0.74527 0.76859 0.0
C359 C 0.1922 0.78633 0.74004 0.0
C360 C 0.18749 0.69521 0.77581 0.0
C361 C 0.18363 0.69973 0.80398 0.0
C362 C 0.20884 0.71663 0.75937 0.0
C363 C 0.22552 0.74359 0.77128 0.0
C364 C 0.22082 0.74856 0.79963 0.0
C365 C 0.20044 0.72628 0.8158 0.0
C366 C 0.21422 0.71015 0.72941 0.0
C367 C 0.23722 0.77738 0.8128 0.0
H368 H 0.33883 0.78643 0.73324 0.0
H369 H 0.24292 0.81913 0.70702 0.0
H370 H 0.30025 0.7471 0.79085 0.0
H371 H 0.29358 0.72262 0.76231 0.0
H372 H 0.33613 0.74892 0.76535 0.0
H373 H 0.18477 0.80488 0.72843 0.0
H374 H 0.17585 0.76574 0.73174 0.0
H375 H 0.18394 0.78797 0.76182 0.0
H376 H 0.17457 0.67455 0.76677 0.0
H377 H 0.197 0.7298 0.83758 0.0
H378 H 0.24419 0.71221 0.72491 0.0
H379 H 0.20365 0.72619 0.71632 0.0
H380 H 0.19986 0.68788 0.7235 0.0
H381 H 0.26787 0.78108 0.8117 0.0
H382 H 0.22895 0.77839 0.83467 0.0
H383 H 0.22827 0.79548 0.80147 0.0
C384 C 0.73056 0.72719 0.68835 0.0
C385 C 0.71019 0.70059 0.69779 0.0
C386 C 0.75138 0.74705 0.70659 0.0
C387 C 0.75252 0.73972 0.73475 0.0
C388 C 0.73349 0.71226 0.74412 0.0
C389 C 0.71212 0.69315 0.72556 0.0
C390 C 0.7708 0.77635 0.69595 0.0
C391 C 0.73492 0.70339 0.77386 0.0
C392 C 0.8289 0.78472 0.77733 0.0
C393 C 0.80974 0.80383 0.79087 0.0
C394 C 0.81045 0.76321 0.7595 0.0
C395 C 0.77217 0.76137 0.75458 0.0
C396 C 0.75267 0.78062 0.76823 0.0
C397 C 0.77164 0.8014 0.78653 0.0
C398 C 0.83189 0.74254 0.74589 0.0
C399 C 0.71196 0.77965 0.76307 0.0
H400 H 0.72886 0.73309 0.66693 0.0
H401 H 0.69656 0.67248 0.73284 0.0
H402 H 0.75897 0.79393 0.7059 0.0
H403 H 0.80064 0.78009 0.70126 0.0
H404 H 0.7681 0.7783 0.67334 0.0
H405 H 0.72134 0.68032 0.7773 0.0
H406 H 0.76408 0.70636 0.78092 0.0
H407 H 0.72086 0.71754 0.78681 0.0
H408 H 0.85833 0.78639 0.7809 0.0
H409 H 0.75686 0.81628 0.79688 0.0
H410 H 0.83179 0.74553 0.7233 0.0
H411 H 0.81846 0.71964 0.75017 0.0
H412 H 0.86109 0.74593 0.75302 0.0
H413 H 0.70726 0.78326 0.74093 0.0
H414 H 0.70101 0.79635 0.77513 0.0
H415 H 0.69584 0.75782 0.76844 0.0
C416 C 0.74763 0.31197 0.78753 0.0
C417 C 0.71025 0.3144 0.78755 0.0
C418 C 0.75986 0.29037 0.77188 0.0
C419 C 0.73383 0.27023 0.75667 0.0
C420 C 0.69605 0.27258 0.75672 0.0
C421 C 0.68482 0.29491 0.77182 0.0
C422 C 0.80057 0.28907 0.77163 0.0
C423 C 0.66735 0.25109 0.74131 0.0
C424 C 0.76694 0.22973 0.69708 0.0
C425 C 0.77087 0.20332 0.70939 0.0
C426 C 0.75522 0.25176 0.7123 0.0
C427 C 0.74614 0.24693 0.74035 0.0
C428 C 0.74885 0.21994 0.75271 0.0
C429 C 0.76179 0.19858 0.73716 0.0
C430 C 0.75359 0.28051 0.69856 0.0
C431 C 0.73832 0.21372 0.78238 0.0
H432 H 0.7673 0.32701 0.79971 0.0
H433 H 0.65576 0.29643 0.77215 0.0
H434 H 0.80485 0.268 0.78031 0.0
H435 H 0.81098 0.29022 0.75019 0.0
H436 H 0.81738 0.30708 0.78362 0.0
H437 H 0.63894 0.25553 0.74403 0.0
H438 H 0.67392 0.25182 0.71907 0.0
H439 H 0.66773 0.2286 0.74852 0.0
H440 H 0.7745 0.2337 0.6757 0.0
H441 H 0.76484 0.17819 0.74671 0.0
H442 H 0.77202 0.29849 0.70949 0.0
H443 H 0.7251 0.28502 0.69969 0.0
H444 H 0.76209 0.28087 0.67666 0.0
H445 H 0.75687 0.22911 0.7959 0.0
H446 H 0.74008 0.19109 0.78845 0.0
H447 H 0.70965 0.21711 0.78603 0.0
C448 C 0.24195 0.27822 0.70201 0.0
C449 C 0.23945 0.30491 0.71439 0.0
C450 C 0.25242 0.25563 0.71719 0.0
C451 C 0.26175 0.26016 0.74523 0.0
C452 C 0.26054 0.28742 0.75764 0.0
C453 C 0.24875 0.30936 0.74215 0.0
C454 C 0.25243 0.22663 0.70343 0.0
C455 C 0.27144 0.29333 0.78728 0.0
C456 C 0.25716 0.19496 0.7927 0.0
C457 C 0.29411 0.19136 0.79269 0.0
C458 C 0.24603 0.21695 0.77688 0.0
C459 C 0.27279 0.2363 0.76152 0.0
C460 C 0.31014 0.23274 0.7615 0.0
C461 C 0.32022 0.21002 0.77675 0.0
C462 C 0.20573 0.21954 0.77668 0.0
C463 C 0.33963 0.25338 0.74596 0.0
H464 H 0.23417 0.27451 0.68065 0.0
H465 H 0.24679 0.32997 0.75173 0.0
H466 H 0.28043 0.22112 0.7045 0.0
H467 H 0.23322 0.20914 0.71437 0.0
H468 H 0.24392 0.22656 0.68153 0.0
H469 H 0.27096 0.31619 0.79337 0.0
H470 H 0.25227 0.27846 0.80084 0.0
H471 H 0.29968 0.28894 0.79086 0.0
H472 H 0.23697 0.18056 0.80503 0.0
H473 H 0.34896 0.2076 0.77706 0.0
H474 H 0.19531 0.21876 0.75525 0.0
H475 H 0.20258 0.24086 0.78544 0.0
H476 H 0.18817 0.2019 0.78865 0.0
H477 H 0.3329 0.25284 0.72375 0.0
H478 H 0.36756 0.24794 0.74855 0.0
H479 H 0.34055 0.27605 0.75316 0.0
C480 C 0.15251 0.96976 0.28574 0.0
C481 C 0.13468 0.94138 0.27899 0.0
C482 C 0.14767 0.99373 0.26959 0.0
C483 C 0.12424 0.98921 0.24626 0.0
C484 C 0.10631 0.9606 0.23929 0.0
C485 C 0.11181 0.93706 0.25568 0.0
C486 C 0.16744 0.02392 0.2776 0.0
C487 C 0.08096 0.95489 0.21469 0.0
C488 C 0.08448 0.05424 0.22198 0.0
C489 C 0.10812 0.06473 0.20011 0.0
C490 C 0.08888 0.02929 0.23672 0.0
C491 C 0.11778 0.01452 0.22956 0.0
C492 C 0.14097 0.02441 0.20693 0.0
C493 C 0.13578 0.04934 0.1924 0.0
C494 C 0.06326 0.01925 0.26049 0.0
C495 C 0.17208 0.00924 0.19865 0.0
H496 H 0.17031 0.97328 0.30364 0.0
H497 H 0.09788 0.91521 0.25028 0.0
H498 H 0.18472 0.03417 0.26026 0.0
H499 H 0.14691 0.03788 0.28216 0.0
H500 H 0.18546 0.02367 0.29587 0.0
H501 H 0.06959 0.93129 0.21178 0.0
H502 H 0.05752 0.96655 0.21713 0.0
H503 H 0.09609 0.96342 0.19581 0.0
H504 H 0.06298 0.06595 0.22805 0.0
H505 H 0.15429 0.05737 0.17563 0.0
H506 H 0.07932 0.02109 0.2799 0.0
H507 H 0.05027 0.99595 0.25789 0.0
H508 H 0.04101 0.03222 0.26253 0.0
H509 H 0.19259 0.01084 0.21556 0.0
H510 H 0.18652 0.01879 0.1798 0.0
H511 H 0.16127 0.98571 0.19502 0.0
C512 C 0.86702 0.4602 0.18886 0.0
C513 C 0.89028 0.44195 0.19879 0.0
C514 C 0.86305 0.48559 0.20315 0.0
C515 C 0.88298 0.49297 0.22785 0.0
C516 C 0.90769 0.4753 0.23731 0.0
C517 C 0.91097 0.44999 0.22271 0.0
C518 C 0.83647 0.50392 0.19237 0.0
C519 C 0.92975 0.48258 0.26338 0.0
C520 C 0.89336 0.57032 0.25531 0.0
C521 C 0.86602 0.56713 0.2758 0.0
C522 C 0.89919 0.54641 0.23957 0.0
C523 C 0.87708 0.5186 0.24433 0.0
C524 C 0.84952 0.51518 0.26504 0.0
C525 C 0.84438 0.53948 0.28057 0.0
C526 C 0.92898 0.55092 0.2178 0.0
C527 C 0.82535 0.48586 0.2707 0.0
H528 H 0.85081 0.4541 0.17046 0.0
H529 H 0.92908 0.43606 0.23051 0.0
H530 H 0.81345 0.50345 0.20719 0.0
H531 H 0.85067 0.52699 0.19027 0.0
H532 H 0.82457 0.49611 0.17215 0.0
H533 H 0.94938 0.46758 0.26707 0.0
H534 H 0.94565 0.50526 0.26249 0.0
H535 H 0.91067 0.48125 0.28117 0.0
H536 H 0.91025 0.5916 0.25146 0.0
H537 H 0.82314 0.53684 0.29629 0.0
H538 H 0.91661 0.54454 0.19741 0.0
H539 H 0.94939 0.53675 0.22204 0.0
H540 H 0.94388 0.57392 0.21672 0.0
H541 H 0.81003 0.47751 0.25183 0.0
H542 H 0.80502 0.48688 0.28738 0.0
H543 H 0.84278 0.46988 0.27658 0.0
C544 C 0.26935 0.10622 0.95054 0.0
C545 C 0.25762 0.12532 0.93176 0.0
C546 C 0.25558 0.10392 0.97757 0.0
C547 C 0.22901 0.12067 0.98563 0.0
C548 C 0.21476 0.13792 0.9659 0.0
C549 C 0.22962 0.14034 0.93932 0.0
C550 C 0.27173 0.08551 0.99801 0.0
C551 C 0.18578 0.15558 0.97336 0.0
C552 C 0.17819 0.11204 0.05413 0.0
C553 C 0.19712 0.13644 0.06844 0.0
C554 C 0.18916 0.10565 0.02748 0.0
C555 C 0.22005 0.12386 0.01517 0.0
C556 C 0.24055 0.1474 0.03031 0.0
C557 C 0.22865 0.15353 0.05661 0.0
C558 C 0.16643 0.08053 0.01195 0.0
C559 C 0.27406 0.1671 0.0182 0.0
H560 H 0.2912 0.09475 0.94474 0.0
H561 H 0.22034 0.15494 0.9247 0.0
H562 H 0.29108 0.09997 0.01181 0.0
H563 H 0.2497 0.07277 0.01102 0.0
H564 H 0.28721 0.07026 0.98775 0.0
H565 H 0.17391 0.16441 0.95493 0.0
H566 H 0.16296 0.1421 0.98516 0.0
H567 H 0.19838 0.17416 0.98661 0.0
H568 H 0.15372 0.09882 0.06318 0.0
H569 H 0.24362 0.17223 0.06771 0.0
H570 H 0.18459 0.06732 1.00172 0.0
H571 H 0.1504 0.08917 0.99563 0.0
H572 H 0.1467 0.0661 0.02555 0.0
H573 H 0.2935 0.15396 0.00956 0.0
H574 H 0.28909 0.18248 0.0336 0.0
H575 H 0.26527 0.18 1.00113 0.0
C576 C 0.77072 0.35299 0.05048 0.0
C577 C 0.80207 0.36957 0.06296 0.0
C578 C 0.75955 0.3599 0.02421 0.0
C579 C 0.78078 0.38363 0.00973 0.0
C580 C 0.81143 0.40139 0.02277 0.0
C581 C 0.82155 0.39428 0.04944 0.0
C582 C 0.72619 0.34072 0.01136 0.0
C583 C 0.83495 0.42667 0.00795 0.0
C584 C 0.7736 0.36745 0.93384 0.0
C585 C 0.74573 0.38239 0.92583 0.0
C586 C 0.78781 0.36992 0.9606 0.0
C587 C 0.77308 0.3872 0.98003 0.0
C588 C 0.74688 0.40407 0.97148 0.0
C589 C 0.7337 0.40166 0.94428 0.0
C590 C 0.8164 0.3521 0.96861 0.0
C591 C 0.73036 0.42263 0.99156 0.0
H592 H 0.75536 0.33406 0.06105 0.0
H593 H 0.84591 0.40708 0.05904 0.0
H594 H 0.70737 0.35424 1.00245 0.0
H595 H 0.73529 0.32786 0.99439 0.0
H596 H 0.71037 0.32531 0.02639 0.0
H597 H 0.85381 0.44102 0.02218 0.0
H598 H 0.85199 0.41818 0.99222 0.0
H599 H 0.81737 0.43992 0.99711 0.0
H600 H 0.78315 0.35273 0.91947 0.0
H601 H 0.71199 0.41312 0.93814 0.0
H602 H 0.80323 0.33345 0.98157 0.0
H603 H 0.83885 0.36543 0.98087 0.0
H604 H 0.82887 0.34334 0.9504 0.0
H605 H 0.71006 0.4083 0.0048 0.0
H606 H 0.71584 0.43828 0.98093 0.0
H607 H 0.752 0.43495 0.00516 0.0
C608 C 0.31647 0.89125 0.56056 0.0
C609 C 0.29533 0.86914 0.57646 0.0
C610 C 0.30502 0.89729 0.53395 0.0
C611 C 0.27137 0.88122 0.52339 0.0
C612 C 0.24868 0.86046 0.54028 0.0
C613 C 0.26116 0.85445 0.56645 0.0
C614 C 0.33018 0.91933 0.51651 0.0
C615 C 0.21222 0.84325 0.5301 0.0
C616 C 0.2249 0.89946 0.45754 0.0
C617 C 0.23269 0.87755 0.44009 0.0
C618 C 0.23895 0.90215 0.48451 0.0
C619 C 0.26188 0.88289 0.49377 0.0
C620 C 0.27211 0.86234 0.47533 0.0
C621 C 0.25694 0.85965 0.44887 0.0
C622 C 0.22703 0.92408 0.50361 0.0
C623 C 0.29721 0.84185 0.48406 0.0
H624 H 0.343 0.90257 0.56823 0.0
H625 H 0.24456 0.83756 0.57884 0.0
H626 H 0.34367 0.90772 0.50074 0.0
H627 H 0.31415 0.93366 0.50553 0.0
H628 H 0.35215 0.93311 0.52891 0.0
H629 H 0.19583 0.83078 0.54685 0.0
H630 H 0.1954 0.85799 0.5206 0.0
H631 H 0.21743 0.8276 0.5141 0.0
H632 H 0.20592 0.91318 0.45077 0.0
H633 H 0.26321 0.84286 0.43524 0.0
H634 H 0.25088 0.93576 0.51567 0.0
H635 H 0.20644 0.9125 0.51843 0.0
H636 H 0.21423 0.94033 0.49234 0.0
H637 H 0.32212 0.85404 0.49463 0.0
H638 H 0.30627 0.82991 0.46637 0.0
H639 H 0.28238 0.82562 0.49881 0.0
C640 C 0.72129 0.65472 0.54462 0.0
C641 C 0.69126 0.63696 0.55761 0.0
C642 C 0.73245 0.64817 0.51823 0.0
C643 C 0.71255 0.62357 0.50417 0.0
C644 C 0.68326 0.60473 0.51768 0.0
C645 C 0.67313 0.61153 0.54444 0.0
C646 C 0.76435 0.66854 0.50487 0.0
C647 C 0.66116 0.57848 0.5033 0.0
C648 C 0.71706 0.63838 0.42796 0.0
C649 C 0.74611 0.62471 0.41987 0.0
C650 C 0.70354 0.6359 0.45491 0.0
C651 C 0.72011 0.61992 0.47446 0.0
C652 C 0.74766 0.60433 0.46591 0.0
C653 C 0.76015 0.60671 0.43854 0.0
C654 C 0.6735 0.65232 0.46294 0.0
C655 C 0.76619 0.58723 0.48611 0.0
H656 H 0.73564 0.67422 0.5549 0.0
H657 H 0.6498 0.59781 0.55443 0.0
H658 H 0.78429 0.65601 0.49595 0.0
H659 H 0.75381 0.68049 0.48783 0.0
H660 H 0.77937 0.68478 0.51958 0.0
H661 H 0.64324 0.56373 0.51778 0.0
H662 H 0.64327 0.58585 0.48748 0.0
H663 H 0.67975 0.56596 0.49263 0.0
H664 H 0.70593 0.65209 0.41344 0.0
H665 H 0.78277 0.59624 0.43235 0.0
H666 H 0.68565 0.67156 0.47555 0.0
H667 H 0.65207 0.63835 0.47556 0.0
H668 H 0.65994 0.66008 0.44474 0.0
H669 H 0.78567 0.6026 0.49906 0.0
H670 H 0.78202 0.57238 0.4756 0.0
H671 H 0.74552 0.57419 0.49999 0.0
C672 C 0.9382 0.28745 0.10752 0.0
C673 C 0.9442 0.30821 0.12874 0.0
C674 C 0.96083 0.26657 0.1046 0.0
C675 C 0.99009 0.26633 0.1234 0.0
C676 C -0.00242 0.28818 0.1439 0.0
C677 C 0.97463 0.30891 0.14627 0.0
C678 C 0.95225 0.24388 0.08225 0.0
C679 C 0.02865 0.28875 0.16429 0.0
C680 C 0.02089 0.19551 0.14144 0.0
C681 C 0.05532 0.19893 0.12819 0.0
C682 C -0.00126 0.2168 0.13917 0.0
C683 C 0.01116 0.24205 0.1231 0.0
C684 C 0.04477 0.2448 0.10834 0.0
C685 C 0.0665 0.22325 0.11111 0.0
C686 C 0.96295 0.21298 0.15515 0.0
C687 C 0.05868 0.27117 0.09068 0.0
H688 H 0.91491 0.2868 0.09374 0.0
H689 H 0.97957 0.32484 0.16269 0.0
H690 H 0.97779 0.24192 0.07086 0.0
H691 H 0.9413 0.22229 0.09158 0.0
H692 H 0.93144 0.24904 0.06744 0.0
H693 H 0.03247 0.30832 0.17773 0.0
H694 H 0.02268 0.269 0.17744 0.0
H695 H 0.05504 0.28836 0.15341 0.0
H696 H 0.01193 0.17682 0.15464 0.0
H697 H 0.09296 0.22605 0.10066 0.0
H698 H 0.93976 0.21562 0.1414 0.0
H699 H 0.96515 0.23008 0.17121 0.0
H700 H 0.95603 0.19128 0.16522 0.0
H701 H 0.03648 0.2755 0.07673 0.0
H702 H 0.08306 0.26849 0.07815 0.0
H703 H 0.06671 0.29066 0.10394 0.0
C704 C 0.94962 0.69875 0.35703 0.0
C705 C 0.91378 0.69837 0.36704 0.0
C706 C 0.97806 0.72288 0.36143 0.0
C707 C 0.97052 0.74716 0.3763 0.0
C708 C 0.93521 0.74605 0.38819 0.0
C709 C 0.9072 0.72164 0.3834 0.0
C710 C 0.01553 0.72311 0.34862 0.0
C711 C 0.92631 0.77135 0.40449 0.0
C712 C 0.05694 0.80198 0.39413 0.0
C713 C 0.06 0.82053 0.37119 0.0
C714 C 0.02652 0.77903 0.39718 0.0
C715 C -0.00139 0.77457 0.37682 0.0
C716 C -3e-05 0.79469 0.35492 0.0
C717 C 0.03061 0.81748 0.3524 0.0
C718 C 0.02572 0.75832 0.42107 0.0
C719 C 0.97047 0.79087 0.33293 0.0
H720 H 0.95509 0.6808 0.34458 0.0
H721 H 0.87967 0.72149 0.39141 0.0
H722 H 0.02053 0.73977 0.3321 0.0
H723 H 0.03776 0.72913 0.36412 0.0
H724 H 0.01778 0.70164 0.33965 0.0
H725 H 0.89987 0.76528 0.41598 0.0
H726 H 0.94884 0.77962 0.41924 0.0
H727 H 0.92388 0.7895 0.39034 0.0
H728 H 0.07931 0.8043 0.40894 0.0
H729 H 0.03248 0.83186 0.33477 0.0
H730 H 0.03302 0.73762 0.41374 0.0
H731 H -0.00243 0.75294 0.43012 0.0
H732 H 0.04567 0.76748 0.43739 0.0
H733 H 0.97215 0.77123 0.32051 0.0
H734 H 0.97355 0.80998 0.31894 0.0
H735 H 0.94251 0.78743 0.34231 0.0
C736 C 0.55212 0.71474 0.60606 0.0
C737 C 0.5479 0.69419 0.62745 0.0
C738 C 0.52892 0.73533 0.60403 0.0
C739 C 0.50095 0.73548 0.62394 0.0
C740 C 0.49512 0.71373 0.6446 0.0
C741 C 0.51857 0.69328 0.64605 0.0
C742 C 0.53567 0.75788 0.58147 0.0
C743 C 0.46547 0.71306 0.66616 0.0
C744 C 0.4716 0.80634 0.64377 0.0
C745 C 0.43628 0.80296 0.6319 0.0
C746 C 0.49347 0.785 0.64047 0.0
C747 C 0.47985 0.75972 0.62474 0.0
C748 C 0.4452 0.75696 0.61138 0.0
C749 C 0.42377 0.77857 0.61517 0.0
C750 C 0.53039 0.78884 0.65496 0.0
C751 C 0.42998 0.73054 0.59413 0.0
H752 H 0.57451 0.71552 0.59145 0.0
H753 H 0.51499 0.67749 0.66261 0.0
H754 H 0.50927 0.75977 0.57125 0.0
H755 H 0.54737 0.77952 0.59042 0.0
H756 H 0.55526 0.75263 0.56572 0.0
H757 H 0.46261 0.69346 0.6795 0.0
H758 H 0.47231 0.73278 0.6793 0.0
H759 H 0.43835 0.71345 0.65635 0.0
H760 H 0.48159 0.82509 0.65668 0.0
H761 H 0.39661 0.77579 0.60578 0.0
H762 H 0.55254 0.7863 0.64022 0.0
H763 H 0.52942 0.77169 0.67087 0.0
H764 H 0.53799 0.81051 0.66502 0.0
H765 H 0.4511 0.72615 0.57925 0.0
H766 H 0.40472 0.73321 0.58266 0.0
H767 H 0.42291 0.71109 0.60755 0.0
C768 C 0.88243 0.07988 0.75321 0.0
C769 C 0.86036 0.07561 0.72948 0.0
C770 C 0.88887 0.05619 0.76903 0.0
C771 C 0.87276 0.02746 0.76102 0.0
C772 C 0.85097 0.02295 0.73683 0.0
C773 C 0.84507 0.04707 0.72133 0.0
C774 C 0.91229 0.06194 0.79463 0.0
C775 C 0.83323 0.99264 0.72764 0.0
C776 C 0.9077 0.9618 0.79006 0.0
C777 C 0.88058 0.95165 0.80985 0.0
C778 C 0.90612 0.98691 0.77443 0.0
C779 C 0.87681 0.00221 0.77876 0.0
C780 C 0.85037 0.9928 0.79955 0.0
C781 C 0.85259 0.96771 0.8148 0.0
C782 C 0.935 0.99642 0.7526 0.0
C783 C 0.81886 0.00861 0.80503 0.0
H784 H 0.89455 0.10184 0.75963 0.0
H785 H 0.82809 0.04356 0.70301 0.0
H786 H 0.89515 0.05454 0.81295 0.0
H787 H 0.935 0.04934 0.79403 0.0
H788 H 0.92456 0.08543 0.79719 0.0
H789 H 0.81848 0.99272 0.70774 0.0
H790 H 0.85455 0.97885 0.72554 0.0
H791 H 0.81313 0.9823 0.74337 0.0
H792 H 0.92936 0.94953 0.78601 0.0
H793 H 0.8316 0.9602 0.83015 0.0
H794 H 0.94746 0.01982 0.75517 0.0
H795 H 0.92179 0.99391 0.73204 0.0
H796 H 0.95745 0.9835 0.75311 0.0
H797 H 0.82975 0.03204 0.80906 0.0
H798 H 0.80166 0.99934 0.82281 0.0
H799 H 0.80081 0.00731 0.78664 0.0
C800 C 0.09302 0.5399 0.80032 0.0
C801 C 0.11975 0.5524 0.81959 0.0
C802 C 0.09774 0.51557 0.78462 0.0
C803 C 0.12984 0.50335 0.78836 0.0
C804 C 0.15613 0.51513 0.80855 0.0
C805 C 0.1508 0.53948 0.82387 0.0
C806 C 0.06898 0.50357 0.76336 0.0
C807 C 0.19054 0.50257 0.81341 0.0
C808 C 0.13101 0.42665 0.76248 0.0
C809 C 0.1511 0.43215 0.7379 0.0
C810 C 0.12362 0.44956 0.77896 0.0
C811 C 0.13654 0.47876 0.77069 0.0
C812 C 0.15664 0.48449 0.74582 0.0
C813 C 0.16372 0.46112 0.72974 0.0
C814 C 0.10222 0.44251 0.80534 0.0
C815 C 0.17085 0.51535 0.73628 0.0
H816 H 0.06901 0.54974 0.79676 0.0
H817 H 0.17158 0.54886 0.83876 0.0
H818 H 0.08148 0.50642 0.74257 0.0
H819 H 0.05923 0.47984 0.76657 0.0
H820 H 0.04469 0.51454 0.76394 0.0
H821 H 0.20736 0.5133 0.83081 0.0
H822 H 0.18293 0.47886 0.81772 0.0
H823 H 0.20796 0.50518 0.79464 0.0
H824 H 0.12109 0.40434 0.76898 0.0
H825 H 0.17916 0.46558 0.71077 0.0
H826 H 0.07717 0.45252 0.80519 0.0
H827 H 0.11945 0.45191 0.82304 0.0
H828 H 0.09355 0.41865 0.80864 0.0
H829 H 0.14753 0.52721 0.73435 0.0
H830 H 0.18534 0.51614 0.7162 0.0
H831 H 0.19032 0.52714 0.7517 0.0
C832 C 0.73283 0.83289 0.04729 0.0
C833 C 0.73139 0.85695 0.06427 0.0
C834 C 0.74995 0.83641 0.02151 0.0
C835 C 0.76627 0.8647 0.01241 0.0
C836 C 0.76615 0.88901 0.02981 0.0
C837 C 0.74858 0.88486 0.05556 0.0
C838 C 0.7493 0.80991 0.00357 0.0
C839 C 0.78359 0.91947 0.02087 0.0
C840 C 0.82963 0.86711 0.95036 0.0
C841 C 0.80543 0.87049 0.92884 0.0
C842 C 0.81776 0.86632 0.97784 0.0
C843 C 0.78078 0.86875 0.98386 0.0
C844 C 0.75654 0.87281 0.96225 0.0
C845 C 0.76917 0.87371 0.93506 0.0
C846 C 0.84446 0.86215 1.00037 0.0
C847 C 0.71681 0.87528 0.96776 0.0
H848 H 0.7198 0.8112 0.05387 0.0
H849 H 0.74773 0.90352 0.06861 0.0
H850 H 0.73265 0.8117 0.98486 0.0
H851 H 0.77774 0.80866 0.99677 0.0
H852 H 0.7373 0.78928 0.01429 0.0
H853 H 0.78416 0.93563 0.03768 0.0
H854 H 0.81232 0.92002 0.01365 0.0
H855 H 0.76779 0.92617 0.00337 0.0
H856 H 0.85776 0.8648 0.94573 0.0
H857 H 0.7503 0.87644 0.91859 0.0
H858 H 0.83504 0.84069 0.01039 0.0
H859 H 0.8451 0.87913 0.0164 0.0
H860 H 0.87302 0.86307 0.99253 0.0
H861 H 0.70172 0.85462 0.97684 0.0
H862 H 0.7021 0.87988 0.94882 0.0
H863 H 0.71571 0.89289 0.98285 0.0
C864 C 0.14321 0.62844 0.96303 0.0
C865 C 0.17153 0.63194 0.94331 0.0
C866 C 0.15142 0.6282 0.99124 0.0
C867 C 0.1888 0.63197 0.99986 0.0
C868 C 0.2174 0.63514 0.98001 0.0
C869 C 0.2084 0.63491 0.95203 0.0
C870 C 0.12018 0.6244 0.0118 0.0
C871 C 0.25767 0.63959 0.98831 0.0
C872 C 0.21977 0.66572 0.06871 0.0
C873 C 0.2278 0.64176 0.08332 0.0
C874 C 0.20548 0.66256 0.04198 0.0
C875 C 0.1986 0.63467 0.02955 0.0
C876 C 0.20458 0.61008 0.04473 0.0
C877 C 0.21933 0.61393 0.07143 0.0
C878 C 0.19976 0.6894 0.02649 0.0
C879 C 0.19703 0.57992 0.03232 0.0
H880 H 0.11464 0.62592 0.95643 0.0
H881 H 0.23046 0.63763 0.93695 0.0
H882 H 0.12253 0.60651 0.02629 0.0
H883 H 0.12195 0.64461 0.02411 0.0
H884 H 0.09256 0.61947 1.00178 0.0
H885 H 0.27648 0.6408 0.97033 0.0
H886 H 0.26521 0.6601 1.00025 0.0
H887 H 0.26241 0.62149 1.00177 0.0
H888 H 0.22605 0.68732 0.07773 0.0
H889 H 0.22528 0.59529 0.08263 0.0
H890 H 0.17152 0.68598 0.01758 0.0
H891 H 0.21971 0.69359 0.00919 0.0
H892 H 0.20373 0.70911 0.03975 0.0
H893 H 0.16922 0.57538 0.02263 0.0
H894 H 0.19861 0.56274 0.04781 0.0
H895 H 0.21762 0.57855 0.01596 0.0
C896 C 0.72511 0.12954 0.43965 0.0
C897 C 0.68856 0.13124 0.43268 0.0
C898 C 0.73676 0.13073 0.4671 0.0
C899 C 0.71118 0.13345 0.48821 0.0
C900 C 0.67394 0.13427 0.48142 0.0
C901 C 0.66309 0.13331 0.45369 0.0
C902 C 0.77681 0.13009 0.47343 0.0
C903 C 0.64581 0.13688 0.50339 0.0
C904 C 0.74198 0.11838 0.5606 0.0
C905 C 0.75662 0.14667 0.56981 0.0
C906 C 0.72571 0.11369 0.53442 0.0
C907 C 0.72441 0.13785 0.51707 0.0
C908 C 0.73823 0.16645 0.52662 0.0
C909 C 0.75399 0.1705 0.55285 0.0
C910 C 0.71087 0.0829 0.52503 0.0
C911 C 0.73763 0.19281 0.50874 0.0
H912 H 0.74498 0.12787 0.42357 0.0
H913 H 0.63474 0.13442 0.44848 0.0
H914 H 0.79014 0.15109 0.48288 0.0
H915 H 0.77868 0.1126 0.48849 0.0
H916 H 0.79273 0.12642 0.45479 0.0
H917 H 0.61735 0.13468 0.49495 0.0
H918 H 0.64586 0.11995 0.51937 0.0
H919 H 0.65327 0.15842 0.51364 0.0
H920 H 0.74375 0.09988 0.57363 0.0
H921 H 0.76511 0.19247 0.55979 0.0
H922 H 0.72801 0.07724 0.50785 0.0
H923 H 0.68218 0.08103 0.5172 0.0
H924 H 0.71091 0.06674 0.54177 0.0
H925 H 0.75523 0.19195 0.49037 0.0
H926 H 0.74786 0.21364 0.51972 0.0
H927 H 0.7091 0.19283 0.50138 0.0
C928 C 0.27058 0.38933 0.56428 0.0
C929 C 0.25705 0.36133 0.57469 0.0
C930 C 0.28605 0.39312 0.53779 0.0
C931 C 0.28777 0.36834 0.52138 0.0
C932 C 0.27532 0.34007 0.53219 0.0
C933 C 0.26026 0.33693 0.55868 0.0
C934 C 0.29938 0.4236 0.52702 0.0
C935 C 0.27648 0.31306 0.51537 0.0
C936 C 0.28351 0.37285 0.44375 0.0
C937 C 0.32009 0.37194 0.43619 0.0
C938 C 0.27298 0.37263 0.47142 0.0
C939 C 0.2997 0.37167 0.49215 0.0
C940 C 0.33693 0.3716 0.48472 0.0
C941 C 0.34667 0.37161 0.4568 0.0
C942 C 0.23293 0.37248 0.47844 0.0
C943 C 0.36623 0.37077 0.50626 0.0
H944 H 0.26833 0.40828 0.57656 0.0
H945 H 0.25006 0.31518 0.56656 0.0
H946 H 0.32775 0.42575 0.51851 0.0
H947 H 0.28111 0.42804 0.51004 0.0
H948 H 0.2995 0.44042 0.54317 0.0
H949 H 0.26776 0.29268 0.52737 0.0
H950 H 0.25788 0.31244 0.49735 0.0
H951 H 0.30486 0.31354 0.50743 0.0
H952 H 0.26279 0.37318 0.42799 0.0
H953 H 0.37503 0.3711 0.45112 0.0
H954 H 0.23088 0.3905 0.49285 0.0
H955 H 0.22086 0.35174 0.4889 0.0
H956 H 0.21598 0.37478 0.45997 0.0
H957 H 0.36611 0.38834 0.52158 0.0
H958 H 0.39439 0.37329 0.49723 0.0
H959 H 0.36007 0.34971 0.51744 0.0
C960 C 0.04586 0.70643 0.88261 0.0
C961 C 0.03186 0.68617 0.86211 0.0
C962 C 0.0315 0.73205 0.88633 0.0
C963 C 0.00235 0.73743 0.86925 0.0
C964 C 0.98628 0.71595 0.85001 0.0
C965 C 0.00129 0.69067 0.84662 0.0
C966 C 0.04928 0.75424 0.9072 0.0
C967 C 0.95478 0.72053 0.83165 0.0
C968 C 0.9466 0.79727 0.88063 0.0
C969 C 0.96157 0.81751 0.86037 0.0
C970 C 0.96102 0.7718 0.88509 0.0
C971 C 0.99122 0.76657 0.86905 0.0
C972 C 0.00831 0.78814 0.85025 0.0
C973 C 0.99323 0.81326 0.84609 0.0
C974 C 0.94216 0.74953 0.90549 0.0
C975 C 0.04096 0.78375 0.83302 0.0
H976 H 0.06954 0.7032 0.89466 0.0
H977 H 0.99013 0.67507 0.83086 0.0
H978 H 0.06661 0.77291 0.89642 0.0
H979 H 0.02795 0.76291 0.91901 0.0
H980 H 0.06717 0.74493 0.92178 0.0
H981 H 0.94298 0.70062 0.81978 0.0
H982 H 0.93236 0.7271 0.84398 0.0
H983 H 0.96482 0.73844 0.81694 0.0
H984 H 0.92208 0.80031 0.89174 0.0
H985 H 0.00514 0.82887 0.83055 0.0
H986 H 0.96285 0.74086 0.918 0.0
H987 H 0.92547 0.73088 0.89428 0.0
H988 H 0.92346 0.75877 0.91946 0.0
H989 H 0.06257 0.77702 0.8461 0.0
H990 H 0.05351 0.80379 0.82161 0.0
H991 H 0.03186 0.76602 0.81794 0.0
C992 C 0.05268 0.31335 0.65868 0.0
C993 C 0.08467 0.31329 0.64306 0.0
C994 C 0.02106 0.29164 0.65506 0.0
C995 C 0.02165 0.26924 0.63554 0.0
C996 C 0.05291 0.27014 0.61847 0.0
C997 C 0.08401 0.29228 0.62231 0.0
C998 C 0.98783 0.29173 0.67326 0.0
C999 C 0.05455 0.24663 0.59746 0.0
C1000 C 0.95992 0.19806 0.65563 0.0
C1001 C 0.9281 0.19889 0.64005 0.0
C1002 C 0.99143 0.22009 0.65318 0.0
C1003 C 0.99089 0.24362 0.63493 0.0
C1004 C 0.95977 0.24364 0.6179 0.0
C1005 C 0.92878 0.22114 0.62054 0.0
C1006 C 0.0245 0.21902 0.67128 0.0
C1007 C 0.95818 0.26837 0.59823 0.0
H1008 H 0.05284 0.32964 0.67456 0.0
H1009 H 0.10858 0.29206 0.61008 0.0
H1010 H 0.96218 0.28897 0.66077 0.0
H1011 H 0.98475 0.27309 0.68776 0.0
H1012 H 0.99033 0.31219 0.68535 0.0
H1013 H 0.07864 0.25252 0.58344 0.0
H1014 H 0.05681 0.22605 0.60815 0.0
H1015 H 0.02884 0.24226 0.58501 0.0
H1016 H 0.95972 0.18081 0.67056 0.0
H1017 H 0.9043 0.22199 0.6084 0.0
H1018 H 0.02745 0.23683 0.68667 0.0
H1019 H 0.05025 0.22247 0.65887 0.0
H1020 H 0.02192 0.19792 0.68234 0.0
H1021 H 0.95577 0.28824 0.61005 0.0
H1022 H 0.93421 0.26329 0.58401 0.0
H1023 H 0.98398 0.27355 0.58594 0.0
C1024 C 0.547 0.20496 0.38289 0.0
C1025 C 0.53296 0.18452 0.36256 0.0
C1026 C 0.53221 0.23038 0.38666 0.0
C1027 C 0.5026 0.23531 0.36982 0.0
C1028 C 0.48627 0.21346 0.35102 0.0
C1029 C 0.50171 0.18841 0.34756 0.0
C1030 C 0.55021 0.25294 0.40713 0.0
C1031 C 0.45425 0.21753 0.33296 0.0
C1032 C 0.4477 0.29583 0.3804 0.0
C1033 C 0.46264 0.31562 0.35978 0.0
C1034 C 0.4618 0.27027 0.38518 0.0
C1035 C 0.49162 0.26448 0.36905 0.0
C1036 C 0.50859 0.28552 0.34972 0.0
C1037 C 0.49384 0.31075 0.34527 0.0
C1038 C 0.44307 0.24856 0.40612 0.0
C1039 C 0.54082 0.28049 0.33235 0.0
H1040 H 0.57119 0.20218 0.39456 0.0
H1041 H 0.4905 0.17262 0.33197 0.0
H1042 H 0.56756 0.27134 0.396 0.0
H1043 H 0.52902 0.26191 0.41882 0.0
H1044 H 0.56814 0.24384 0.42183 0.0
H1045 H 0.44207 0.19726 0.32174 0.0
H1046 H 0.43221 0.22454 0.34538 0.0
H1047 H 0.46392 0.23494 0.31768 0.0
H1048 H 0.42354 0.29937 0.3917 0.0
H1049 H 0.50574 0.326 0.32945 0.0
H1050 H 0.46385 0.23998 0.41862 0.0
H1051 H 0.42597 0.22977 0.39536 0.0
H1052 H 0.42479 0.25828 0.42005 0.0
H1053 H 0.56269 0.27417 0.34545 0.0
H1054 H 0.55317 0.30013 0.32029 0.0
H1055 H 0.53135 0.26227 0.31784 0.0
C1056 C 0.58469 0.55551 0.72232 0.0
C1057 C 0.60491 0.56249 0.69801 0.0
C1058 C 0.58773 0.53056 0.73756 0.0
C1059 C 0.61171 0.51217 0.72837 0.0
C1060 C 0.63118 0.51849 0.70333 0.0
C1061 C 0.62746 0.54354 0.68839 0.0
C1062 C 0.56617 0.52442 0.76399 0.0
C1063 C 0.65698 0.49937 0.69282 0.0
C1064 C 0.64945 0.46658 0.78236 0.0
C1065 C 0.62676 0.43914 0.77865 0.0
C1066 C 0.64506 0.49047 0.76596 0.0
C1067 C 0.61723 0.48686 0.74545 0.0
C1068 C 0.59422 0.45923 0.74165 0.0
C1069 C 0.59929 0.43573 0.75825 0.0
C1070 C 0.6702 0.5196 0.7706 0.0
C1071 C 0.56413 0.45452 0.72011 0.0
H1072 H 0.56712 0.56998 0.72989 0.0
H1073 H 0.64331 0.54885 0.6697 0.0
H1074 H 0.54964 0.50193 0.76377 0.0
H1075 H 0.58561 0.52589 0.78158 0.0
H1076 H 0.54719 0.53996 0.76751 0.0
H1077 H 0.66857 0.50639 0.67232 0.0
H1078 H 0.68024 0.49995 0.70745 0.0
H1079 H 0.64223 0.47638 0.69143 0.0
H1080 H 0.67081 0.46938 0.79799 0.0
H1081 H 0.58161 0.4146 0.7552 0.0
H1082 H 0.6535 0.53616 0.77629 0.0
H1083 H 0.68515 0.52712 0.75135 0.0
H1084 H 0.69087 0.51869 0.78706 0.0
H1085 H 0.54411 0.46906 0.72416 0.0
H1086 H 0.54881 0.43161 0.71957 0.0
H1087 H 0.57627 0.46027 0.69953 0.0
C1088 C 0.35112 0.03628 0.7904 0.0
C1089 C 0.37245 0.06387 0.78488 0.0
C1090 C 0.35484 0.01192 0.77441 0.0
C1091 C 0.38047 0.01527 0.75238 0.0
C1092 C 0.40195 0.04309 0.74665 0.0
C1093 C 0.39771 0.06702 0.76296 0.0
C1094 C 0.33147 0.98257 0.78117 0.0
C1095 C 0.42955 0.04756 0.72335 0.0
C1096 C 0.41448 0.94727 0.72913 0.0
C1097 C 0.39189 0.93856 0.70625 0.0
C1098 C 0.41156 0.9725 0.74397 0.0
C1099 C 0.38542 0.9895 0.73574 0.0
C1100 C 0.36346 0.98144 0.71208 0.0
C1101 C 0.36697 0.95606 0.69759 0.0
C1102 C 0.43566 0.98046 0.76896 0.0
C1103 C 0.33544 0.99912 0.70257 0.0
H1104 H 0.33149 0.03367 0.80723 0.0
H1105 H 0.41425 0.08827 0.75846 0.0
H1106 H 0.31476 0.97381 0.76303 0.0
H1107 H 0.3496 0.96686 0.78634 0.0
H1108 H 0.31245 0.98369 0.7987 0.0
H1109 H 0.44365 0.0707 0.72128 0.0
H1110 H 0.45086 0.03398 0.72668 0.0
H1111 H 0.41542 0.04043 0.7037 0.0
H1112 H 0.43384 0.93392 0.73598 0.0
H1113 H 0.34934 0.94946 0.67999 0.0
H1114 H 0.41806 0.97945 0.78757 0.0
H1115 H 0.45126 0.00317 0.76717 0.0
H1116 H 0.45573 0.96568 0.77193 0.0
H1117 H 0.31373 0.9986 0.71847 0.0
H1118 H 0.32191 0.99081 0.68299 0.0
H1119 H 0.34894 0.02226 0.6997 0.0
C1120 C 0.46562 0.19177 0.86611 0.0
C1121 C 0.43193 0.18978 0.88011 0.0
C1122 C 0.49437 0.2158 0.86984 0.0
C1123 C 0.48952 0.23814 0.88839 0.0
C1124 C 0.45715 0.23479 0.90467 0.0
C1125 C 0.42854 0.2107 0.90021 0.0
C1126 C 0.52856 0.21848 0.85211 0.0
C1127 C 0.45148 0.25768 0.92528 0.0
C1128 C 0.57714 0.29473 0.89724 0.0
C1129 C 0.5726 0.31474 0.87657 0.0
C1130 C 0.54898 0.2707 0.90304 0.0
C1131 C 0.51588 0.26646 0.88754 0.0
C1132 C 0.51 0.28787 0.86829 0.0
C1133 C 0.53833 0.31188 0.86321 0.0
C1134 C 0.5558 0.24882 0.92433 0.0
C1135 C 0.47501 0.28423 0.85135 0.0
H1136 H 0.46868 0.17561 0.85073 0.0
H1137 H 0.40279 0.20914 0.91143 0.0
H1138 H 0.52902 0.23642 0.83709 0.0
H1139 H 0.55393 0.22401 0.86482 0.0
H1140 H 0.52954 0.19809 0.84061 0.0
H1141 H 0.42908 0.24913 0.9401 0.0
H1142 H 0.47736 0.26586 0.93684 0.0
H1143 H 0.44376 0.27649 0.91434 0.0
H1144 H 0.60336 0.29697 0.90795 0.0
H1145 H 0.53441 0.32733 0.84739 0.0
H1146 H 0.56318 0.22958 0.91391 0.0
H1147 H 0.5305 0.24106 0.93668 0.0
H1148 H 0.57883 0.25812 0.93837 0.0
H1149 H 0.47385 0.26547 0.83716 0.0
H1150 H 0.47346 0.30395 0.83897 0.0
H1151 H 0.45025 0.27943 0.86477 0.0
C1152 C 0.33752 0.5432 0.22488 0.0
C1153 C 0.3537 0.57195 0.23175 0.0
C1154 C 0.34408 0.51959 0.24084 0.0
C1155 C 0.36711 0.52487 0.26436 0.0
C1156 C 0.38367 0.55383 0.27128 0.0
C1157 C 0.37689 0.57698 0.25485 0.0
C1158 C 0.32611 0.48898 0.23268 0.0
C1159 C 0.40811 0.56042 0.29629 0.0
C1160 C 0.35212 0.46581 0.31911 0.0
C1161 C 0.38088 0.45071 0.31355 0.0
C1162 C 0.34796 0.49044 0.30376 0.0
C1163 C 0.37298 0.50014 0.28212 0.0
C1164 C 0.40286 0.48567 0.27703 0.0
C1165 C 0.40657 0.46122 0.29289 0.0
C1166 C 0.31607 0.50552 0.31015 0.0
C1167 C 0.43009 0.49533 0.25413 0.0
H1168 H 0.31967 0.53912 0.20705 0.0
H1169 H 0.38947 0.59912 0.26038 0.0
H1170 H 0.34754 0.47538 0.22998 0.0
H1171 H 0.30723 0.47885 0.24922 0.0
H1172 H 0.31001 0.48846 0.21333 0.0
H1173 H 0.41952 0.58409 0.29853 0.0
H1174 H 0.39207 0.55273 0.31504 0.0
H1175 H 0.43148 0.54855 0.2951 0.0
H1176 H 0.33222 0.45795 0.33509 0.0
H1177 H 0.42876 0.44963 0.28832 0.0
H1178 H 0.29674 0.50331 0.29246 0.0
H1179 H 0.32636 0.52917 0.31347 0.0
H1180 H 0.3004 0.49635 0.32866 0.0
H1181 H 0.41547 0.49255 0.23409 0.0
H1182 H 0.45286 0.48273 0.2537 0.0
H1183 H 0.44231 0.51883 0.25631 0.0
C1184 C 0.58818 0.04248 0.29154 0.0
C1185 C 0.61582 0.05196 0.31115 0.0
C1186 C 0.58913 0.01778 0.27519 0.0
C1187 C 0.61833 0.00217 0.27858 0.0
C1188 C 0.64536 0.0109 0.29913 0.0
C1189 C 0.64377 0.03563 0.31512 0.0
C1190 C 0.55967 0.00903 0.25361 0.0
C1191 C 0.67675 0.99471 0.30362 0.0
C1192 C 0.60999 0.92507 0.25085 0.0
C1193 C 0.63118 0.9297 0.22671 0.0
C1194 C 0.60494 0.94847 0.26762 0.0
C1195 C 0.6215 0.97726 0.26014 0.0
C1196 C 0.64252 0.98215 0.23562 0.0
C1197 C 0.6471 0.95832 0.21919 0.0
C1198 C 0.58237 0.94232 0.29359 0.0
C1199 C 0.66067 0.01255 0.22695 0.0
H1200 H 0.56654 0.05497 0.28824 0.0
H1201 H 0.66518 0.04263 0.33029 0.0
H1202 H 0.57243 0.01175 0.2329 0.0
H1203 H 0.54682 0.98567 0.25591 0.0
H1204 H 0.53757 0.02225 0.25472 0.0
H1205 H 0.69448 0.00342 0.32133 0.0
H1206 H 0.6657 0.97122 0.30722 0.0
H1207 H 0.69431 0.99635 0.28495 0.0
H1208 H 0.59745 0.90306 0.25682 0.0
H1209 H 0.66342 0.9621 0.20056 0.0
H1210 H 0.55976 0.95503 0.29374 0.0
H1211 H 0.60013 0.94933 0.31171 0.0
H1212 H 0.57003 0.91882 0.29591 0.0
H1213 H 0.63965 0.02669 0.22553 0.0
H1214 H 0.67496 0.01279 0.20684 0.0
H1215 H 0.68122 0.02227 0.24264 0.0
C1216 C 0.5258 0.81133 0.15069 0.0
C1217 C 0.55555 0.8134 0.13233 0.0
C1218 C 0.4941 0.78962 0.14758 0.0
C1219 C 0.49213 0.76958 0.12556 0.0
C1220 C 0.52049 0.77321 0.10556 0.0
C1221 C 0.55191 0.79514 0.10917 0.0
C1222 C 0.46408 0.78674 0.16912 0.0
C1223 C 0.51908 0.75256 0.08157 0.0
C1224 C 0.43857 0.69531 0.14543 0.0
C1225 C 0.40319 0.6965 0.13534 0.0
C1226 C 0.46844 0.71827 0.14081 0.0
C1227 C 0.46279 0.74296 0.12568 0.0
C1228 C 0.42798 0.74321 0.11347 0.0
C1229 C 0.39853 0.71992 0.11843 0.0
C1230 C 0.50539 0.71702 0.15385 0.0
C1231 C 0.42105 0.76895 0.09687 0.0
H1232 H 0.52811 0.82556 0.16844 0.0
H1233 H 0.57458 0.79673 0.09468 0.0
H1234 H 0.43645 0.78437 0.15931 0.0
H1235 H 0.46423 0.76681 0.18152 0.0
H1236 H 0.46789 0.8058 0.18319 0.0
H1237 H 0.53947 0.76138 0.06541 0.0
H1238 H 0.52544 0.73153 0.08885 0.0
H1239 H 0.49101 0.74791 0.07234 0.0
H1240 H 0.44256 0.67717 0.15825 0.0
H1241 H 0.37137 0.72095 0.1103 0.0
H1242 H 0.51105 0.73345 0.17054 0.0
H1243 H 0.52798 0.72242 0.13855 0.0
H1244 H 0.50619 0.69521 0.16268 0.0
H1245 H 0.41887 0.78725 0.11092 0.0
H1246 H 0.39501 0.76361 0.0848 0.0
H1247 H 0.44438 0.77666 0.08262 0.0
loop_
_geom_bond_atom_site_label_1
_geom_bond_atom_site_label_2
_geom_bond_distance
_geom_bond_site_symmetry_2
_ccdc_geom_bond_type
O0 Cd1 2.223 . S
O0 C8 1.315 . S
Cd1 O0 2.223 . S
Cd1 O4 2.297 . S
Cd1 O5 2.439 . S
Cd1 O11 2.240 . S
Cd2 O3 2.240 . S
Cd2 O10 2.223 . S
Cd2 O12 2.297 . S
Cd2 O13 2.439 . S
O3 Cd2 2.240 . S
O3 C8 1.279 . S
O4 Cd1 2.297 . S
O4 C6 1.247 . S
O5 Cd1 2.439 . S
O5 C6 1.208 . S
C6 O4 1.247 . S
C6 O5 1.208 . S
C7 O12 1.247 . S
C7 O13 1.208 . S
C8 O0 1.315 . S
C8 O3 1.279 . S
C9 O10 1.315 . S
C9 O11 1.279 . S
O10 Cd2 2.223 . S
O10 C9 1.315 . S
O11 Cd1 2.240 . S
O11 C9 1.279 . S
O12 Cd2 2.297 . S
O12 C7 1.247 . S
O13 Cd2 2.439 . S
O13 C7 1.208 . S
O14 Cd15 2.223 . S
O14 C22 1.315 . S
Cd15 O14 2.223 . S
Cd15 O18 2.297 . S
Cd15 O19 2.439 . S
Cd15 O25 2.240 . S
Cd16 O17 2.240 . S
Cd16 O24 2.223 . S
Cd16 O26 2.297 . S
Cd16 O27 2.439 . S
O17 Cd16 2.240 . S
O17 C22 1.279 . S
O18 Cd15 2.297 . S
O18 C20 1.247 . S
O19 Cd15 2.439 . S
O19 C20 1.208 . S
C20 O18 1.247 . S
C20 O19 1.208 . S
C21 O26 1.247 . S
C21 O27 1.208 . S
C22 O14 1.315 . S
C22 O17 1.279 . S
C23 O24 1.315 . S
C23 O25 1.279 . S
O24 Cd16 2.223 . S
O24 C23 1.315 . S
O25 Cd15 2.240 . S
O25 C23 1.279 . S
O26 Cd16 2.297 . S
O26 C21 1.247 . S
O27 Cd16 2.439 . S
O27 C21 1.208 . S
O28 Cd29 2.223 . S
O28 C36 1.315 . S
Cd29 O28 2.223 . S
Cd29 O32 2.297 . S
Cd29 O33 2.439 . S
Cd29 O39 2.240 . S
Cd30 O31 2.240 . S
Cd30 O38 2.223 . S
Cd30 O40 2.297 . S
Cd30 O41 2.439 . S
O31 Cd30 2.240 . S
O31 C36 1.279 . S
O32 Cd29 2.297 . S
O32 C34 1.247 . S
O33 Cd29 2.439 . S
O33 C34 1.208 . S
C34 O32 1.247 . S
C34 O33 1.208 . S
C35 O40 1.247 . S
C35 O41 1.208 . S
C36 O28 1.315 . S
C36 O31 1.279 . S
C37 O38 1.315 . S
C37 O39 1.279 . S
O38 Cd30 2.223 . S
O38 C37 1.315 . S
O39 Cd29 2.240 . S
O39 C37 1.279 . S
O40 Cd30 2.297 . S
O40 C35 1.247 . S
O41 Cd30 2.439 . S
O41 C35 1.208 . S
O42 Cd43 2.223 . S
O42 C50 1.315 . S
Cd43 O42 2.223 . S
Cd43 O46 2.297 . S
Cd43 O47 2.439 . S
Cd43 O53 2.240 . S
Cd44 O45 2.240 . S
Cd44 O52 2.223 . S
Cd44 O54 2.297 . S
Cd44 O55 2.439 . S
O45 Cd44 2.240 . S
O45 C50 1.279 . S
O46 Cd43 2.297 . S
O46 C48 1.247 . S
O47 Cd43 2.439 . S
O47 C48 1.208 . S
C48 O46 1.247 . S
C48 O47 1.208 . S
C49 O54 1.247 . S
C49 O55 1.208 . S
C50 O42 1.315 . S
C50 O45 1.279 . S
C51 O52 1.315 . S
C51 O53 1.279 . S
O52 Cd44 2.223 . S
O52 C51 1.315 . S
O53 Cd43 2.240 . S
O53 C51 1.279 . S
O54 Cd44 2.297 . S
O54 C49 1.247 . S
O55 Cd44 2.439 . S
O55 C49 1.208 . S
O56 Cd57 2.223 . S
O56 C64 1.315 . S
Cd57 O56 2.223 . S
Cd57 O60 2.297 . S
Cd57 O61 2.439 . S
Cd57 O67 2.240 . S
Cd58 O59 2.240 . S
Cd58 O66 2.223 . S
Cd58 O68 2.297 . S
Cd58 O69 2.439 . S
O59 Cd58 2.240 . S
O59 C64 1.279 . S
O60 Cd57 2.297 . S
O60 C62 1.247 . S
O61 Cd57 2.439 . S
O61 C62 1.208 . S
C62 O60 1.247 . S
C62 O61 1.208 . S
C63 O68 1.247 . S
C63 O69 1.208 . S
C64 O56 1.315 . S
C64 O59 1.279 . S
C65 O66 1.315 . S
C65 O67 1.279 . S
O66 Cd58 2.223 . S
O66 C65 1.315 . S
O67 Cd57 2.240 . S
O67 C65 1.279 . S
O68 Cd58 2.297 . S
O68 C63 1.247 . S
O69 Cd58 2.439 . S
O69 C63 1.208 . S
O70 Cd71 2.223 . S
O70 C78 1.315 . S
Cd71 O70 2.223 . S
Cd71 O74 2.297 . S
Cd71 O75 2.439 . S
Cd71 O81 2.240 . S
Cd72 O73 2.240 . S
Cd72 O80 2.223 . S
Cd72 O82 2.297 . S
Cd72 O83 2.439 . S
O73 Cd72 2.240 . S
O73 C78 1.279 . S
O74 Cd71 2.297 . S
O74 C76 1.247 . S
O75 Cd71 2.439 . S
O75 C76 1.208 . S
C76 O74 1.247 . S
C76 O75 1.208 . S
C77 O82 1.247 . S
C77 O83 1.208 . S
C78 O70 1.315 . S
C78 O73 1.279 . S
C79 O80 1.315 . S
C79 O81 1.279 . S
O80 Cd72 2.223 . S
O80 C79 1.315 . S
O81 Cd71 2.240 . S
O81 C79 1.279 . S
O82 Cd72 2.297 . S
O82 C77 1.247 . S
O83 Cd72 2.439 . S
O83 C77 1.208 . S
O84 Cd85 2.223 . S
O84 C92 1.315 . S
Cd85 O84 2.223 . S
Cd85 O88 2.297 . S
Cd85 O89 2.439 . S
Cd85 O95 2.240 . S
Cd86 O87 2.240 . S
Cd86 O94 2.223 . S
Cd86 O96 2.297 . S
Cd86 O97 2.439 . S
O87 Cd86 2.240 . S
O87 C92 1.279 . S
O88 Cd85 2.297 . S
O88 C90 1.247 . S
O89 Cd85 2.439 . S
O89 C90 1.208 . S
C90 O88 1.247 . S
C90 O89 1.208 . S
C91 O96 1.247 . S
C91 O97 1.208 . S
C92 O84 1.315 . S
C92 O87 1.279 . S
C93 O94 1.315 . S
C93 O95 1.279 . S
O94 Cd86 2.223 . S
O94 C93 1.315 . S
O95 Cd85 2.240 . S
O95 C93 1.279 . S
O96 Cd86 2.297 . S
O96 C91 1.247 . S
O97 Cd86 2.439 . S
O97 C91 1.208 . S
O98 Cd99 2.223 . S
O98 C106 1.315 . S
Cd99 O98 2.223 . S
Cd99 O102 2.297 . S
Cd99 O103 2.439 . S
Cd99 O109 2.240 . S
Cd100 O101 2.240 . S
Cd100 O108 2.223 . S
Cd100 O110 2.297 . S
Cd100 O111 2.439 . S
O101 Cd100 2.240 . S
O101 C106 1.279 . S
O102 Cd99 2.297 . S
O102 C104 1.247 . S
O103 Cd99 2.439 . S
O103 C104 1.208 . S
C104 O102 1.247 . S
C104 O103 1.208 . S
C105 O110 1.247 . S
C105 O111 1.208 . S
C106 O98 1.315 . S
C106 O101 1.279 . S
C107 O108 1.315 . S
C107 O109 1.279 . S
O108 Cd100 2.223 . S
O108 C107 1.315 . S
O109 Cd99 2.240 . S
O109 C107 1.279 . S
O110 Cd100 2.297 . S
O110 C105 1.247 . S
O111 Cd100 2.439 . S
O111 C105 1.208 . S
O112 Cd113 2.223 . S
O112 C120 1.315 . S
Cd113 O112 2.223 . S
Cd113 O116 2.297 . S
Cd113 O117 2.439 . S
Cd113 O123 2.240 . S
Cd114 O115 2.240 . S
Cd114 O122 2.223 . S
Cd114 O124 2.297 . S
Cd114 O125 2.439 . S
O115 Cd114 2.240 . S
O115 C120 1.279 . S
O116 Cd113 2.297 . S
O116 C118 1.247 . S
O117 Cd113 2.439 . S
O117 C118 1.208 . S
C118 O116 1.247 . S
C118 O117 1.208 . S
C119 O124 1.247 . S
C119 O125 1.208 . S
C120 O112 1.315 . S
C120 O115 1.279 . S
C121 O122 1.315 . S
C121 O123 1.279 . S
O122 Cd114 2.223 . S
O122 C121 1.315 . S
O123 Cd113 2.240 . S
O123 C121 1.279 . S
O124 Cd114 2.297 . S
O124 C119 1.247 . S
O125 Cd114 2.439 . S
O125 C119 1.208 . S
O126 Cd127 2.223 . S
O126 C134 1.315 . S
Cd127 O126 2.223 . S
Cd127 O130 2.297 . S
Cd127 O131 2.439 . S
Cd127 O137 2.240 . S
Cd128 O129 2.240 . S
Cd128 O136 2.223 . S
Cd128 O138 2.297 . S
Cd128 O139 2.439 . S
O129 Cd128 2.240 . S
O129 C134 1.279 . S
O130 Cd127 2.297 . S
O130 C132 1.247 . S
O131 Cd127 2.439 . S
O131 C132 1.208 . S
C132 O130 1.247 . S
C132 O131 1.208 . S
C133 O138 1.247 . S
C133 O139 1.208 . S
C134 O126 1.315 . S
C134 O129 1.279 . S
C135 O136 1.315 . S
C135 O137 1.279 . S
O136 Cd128 2.223 . S
O136 C135 1.315 . S
O137 Cd127 2.240 . S
O137 C135 1.279 . S
O138 Cd128 2.297 . S
O138 C133 1.247 . S
O139 Cd128 2.439 . S
O139 C133 1.208 . S
O140 Cd141 2.223 . S
O140 C148 1.315 . S
Cd141 O140 2.223 . S
Cd141 O144 2.297 . S
Cd141 O145 2.439 . S
Cd141 O151 2.240 . S
Cd142 O143 2.240 . S
Cd142 O150 2.223 . S
Cd142 O152 2.297 . S
Cd142 O153 2.439 . S
O143 Cd142 2.240 . S
O143 C148 1.279 . S
O144 Cd141 2.297 . S
O144 C146 1.247 . S
O145 Cd141 2.439 . S
O145 C146 1.208 . S
C146 O144 1.247 . S
C146 O145 1.208 . S
C147 O152 1.247 . S
C147 O153 1.208 . S
C148 O140 1.315 . S
C148 O143 1.279 . S
C149 O150 1.315 . S
C149 O151 1.279 . S
O150 Cd142 2.223 . S
O150 C149 1.315 . S
O151 Cd141 2.240 . S
O151 C149 1.279 . S
O152 Cd142 2.297 . S
O152 C147 1.247 . S
O153 Cd142 2.439 . S
O153 C147 1.208 . S
O154 Cd155 2.223 . S
O154 C162 1.315 . S
Cd155 O154 2.223 . S
Cd155 O158 2.297 . S
Cd155 O159 2.439 . S
Cd155 O165 2.240 . S
Cd156 O157 2.240 . S
Cd156 O164 2.223 . S
Cd156 O166 2.297 . S
Cd156 O167 2.439 . S
O157 Cd156 2.240 . S
O157 C162 1.279 . S
O158 Cd155 2.297 . S
O158 C160 1.247 . S
O159 Cd155 2.439 . S
O159 C160 1.208 . S
C160 O158 1.247 . S
C160 O159 1.208 . S
C161 O166 1.247 . S
C161 O167 1.208 . S
C162 O154 1.315 . S
C162 O157 1.279 . S
C163 O164 1.315 . S
C163 O165 1.279 . S
O164 Cd156 2.223 . S
O164 C163 1.315 . S
O165 Cd155 2.240 . S
O165 C163 1.279 . S
O166 Cd156 2.297 . S
O166 C161 1.247 . S
O167 Cd156 2.439 . S
O167 C161 1.208 . S
O168 Cd169 2.223 . S
O168 C176 1.315 . S
Cd169 O168 2.223 . S
Cd169 O172 2.297 . S
Cd169 O173 2.439 . S
Cd169 O179 2.240 . S
Cd170 O171 2.240 . S
Cd170 O178 2.223 . S
Cd170 O180 2.297 . S
Cd170 O181 2.439 . S
O171 Cd170 2.240 . S
O171 C176 1.279 . S
O172 Cd169 2.297 . S
O172 C174 1.247 . S
O173 Cd169 2.439 . S
O173 C174 1.208 . S
C174 O172 1.247 . S
C174 O173 1.208 . S
C175 O180 1.247 . S
C175 O181 1.208 . S
C176 O168 1.315 . S
C176 O171 1.279 . S
C177 O178 1.315 . S
C177 O179 1.279 . S
O178 Cd170 2.223 . S
O178 C177 1.315 . S
O179 Cd169 2.240 . S
O179 C177 1.279 . S
O180 Cd170 2.297 . S
O180 C175 1.247 . S
O181 Cd170 2.439 . S
O181 C175 1.208 . S
O182 Cd183 2.223 . S
O182 C190 1.315 . S
Cd183 O182 2.223 . S
Cd183 O186 2.297 . S
Cd183 O187 2.439 . S
Cd183 O193 2.240 . S
Cd184 O185 2.240 . S
Cd184 O192 2.223 . S
Cd184 O194 2.297 . S
Cd184 O195 2.439 . S
O185 Cd184 2.240 . S
O185 C190 1.279 . S
O186 Cd183 2.297 . S
O186 C188 1.247 . S
O187 Cd183 2.439 . S
O187 C188 1.208 . S
C188 O186 1.247 . S
C188 O187 1.208 . S
C189 O194 1.247 . S
C189 O195 1.208 . S
C190 O182 1.315 . S
C190 O185 1.279 . S
C191 O192 1.315 . S
C191 O193 1.279 . S
O192 Cd184 2.223 . S
O192 C191 1.315 . S
O193 Cd183 2.240 . S
O193 C191 1.279 . S
O194 Cd184 2.297 . S
O194 C189 1.247 . S
O195 Cd184 2.439 . S
O195 C189 1.208 . S
O196 Cd197 2.223 . S
O196 C204 1.315 . S
Cd197 O196 2.223 . S
Cd197 O200 2.297 . S
Cd197 O201 2.439 . S
Cd197 O207 2.240 . S
Cd198 O199 2.240 . S
Cd198 O206 2.223 . S
Cd198 O208 2.297 . S
Cd198 O209 2.439 . S
O199 Cd198 2.240 . S
O199 C204 1.279 . S
O200 Cd197 2.297 . S
O200 C202 1.247 . S
O201 Cd197 2.439 . S
O201 C202 1.208 . S
C202 O200 1.247 . S
C202 O201 1.208 . S
C203 O208 1.247 . S
C203 O209 1.208 . S
C204 O196 1.315 . S
C204 O199 1.279 . S
C205 O206 1.315 . S
C205 O207 1.279 . S
O206 Cd198 2.223 . S
O206 C205 1.315 . S
O207 Cd197 2.240 . S
O207 C205 1.279 . S
O208 Cd198 2.297 . S
O208 C203 1.247 . S
O209 Cd198 2.439 . S
O209 C203 1.208 . S
O210 Cd211 2.223 . S
O210 C218 1.315 . S
Cd211 O210 2.223 . S
Cd211 O214 2.297 . S
Cd211 O215 2.439 . S
Cd211 O221 2.240 . S
Cd212 O213 2.240 . S
Cd212 O220 2.223 . S
Cd212 O222 2.297 . S
Cd212 O223 2.439 . S
O213 Cd212 2.240 . S
O213 C218 1.279 . S
O214 Cd211 2.297 . S
O214 C216 1.247 . S
O215 Cd211 2.439 . S
O215 C216 1.208 . S
C216 O214 1.247 . S
C216 O215 1.208 . S
C217 O222 1.247 . S
C217 O223 1.208 . S
C218 O210 1.315 . S
C218 O213 1.279 . S
C219 O220 1.315 . S
C219 O221 1.279 . S
O220 Cd212 2.223 . S
O220 C219 1.315 . S
O221 Cd211 2.240 . S
O221 C219 1.279 . S
O222 Cd212 2.297 . S
O222 C217 1.247 . S
O223 Cd212 2.439 . S
O223 C217 1.208 . S
C224 C225 1.391 . S
C224 C226 1.394 . S
C224 H240 0.931 . S
C225 C224 1.391 . S
C225 C229 1.376 . S
C226 C224 1.394 . S
C226 C227 1.369 . S
C226 C230 1.531 . S
C227 C226 1.369 . S
C227 C228 1.410 . S
C227 C235 1.503 . S
C228 C227 1.410 . S
C228 C229 1.392 . S
C228 C231 1.511 . S
C229 C225 1.376 . S
C229 C228 1.392 . S
C229 H241 0.929 . S
C230 C226 1.531 . S
C230 H242 0.960 . S
C230 H243 0.962 . S
C230 H244 0.960 . S
C231 C228 1.511 . S
C231 H245 0.961 . S
C231 H246 0.961 . S
C231 H247 0.961 . S
C232 C233 1.370 . S
C232 C234 1.363 . S
C232 H248 0.931 . S
C233 C232 1.370 . S
C233 C237 1.408 . S
C234 C232 1.363 . S
C234 C235 1.370 . S
C234 C238 1.524 . S
C235 C227 1.503 . S
C235 C234 1.370 . S
C235 C236 1.403 . S
C236 C235 1.403 . S
C236 C237 1.404 . S
C236 C239 1.539 . S
C237 C233 1.408 . S
C237 C236 1.404 . S
C237 H249 0.930 . S
C238 C234 1.524 . S
C238 H250 0.956 . S
C238 H251 0.961 . S
C238 H252 0.961 . S
C239 C236 1.539 . S
C239 H253 0.958 . S
C239 H254 0.961 . S
C239 H255 0.960 . S
H240 C224 0.931 . S
H241 C229 0.929 . S
H242 C230 0.960 . S
H243 C230 0.962 . S
H244 C230 0.960 . S
H245 C231 0.961 . S
H246 C231 0.961 . S
H247 C231 0.961 . S
H248 C232 0.931 . S
H249 C237 0.930 . S
H250 C238 0.956 . S
H251 C238 0.961 . S
H252 C238 0.961 . S
H253 C239 0.958 . S
H254 C239 0.961 . S
H255 C239 0.960 . S
C256 C257 1.391 . S
C256 C258 1.394 . S
C256 H272 0.931 . S
C257 C256 1.391 . S
C257 C261 1.376 . S
C258 C256 1.394 . S
C258 C259 1.369 . S
C258 C262 1.531 . S
C259 C258 1.369 . S
C259 C260 1.410 . S
C259 C267 1.503 . S
C260 C259 1.410 . S
C260 C261 1.392 . S
C260 C263 1.511 . S
C261 C257 1.376 . S
C261 C260 1.392 . S
C261 H273 0.929 . S
C262 C258 1.531 . S
C262 H274 0.960 . S
C262 H275 0.962 . S
C262 H276 0.960 . S
C263 C260 1.511 . S
C263 H277 0.961 . S
C263 H278 0.961 . S
C263 H279 0.961 . S
C264 C265 1.370 . S
C264 C266 1.363 . S
C264 H280 0.931 . S
C265 C264 1.370 . S
C265 C269 1.408 . S
C266 C264 1.363 . S
C266 C267 1.370 . S
C266 C270 1.524 . S
C267 C259 1.503 . S
C267 C266 1.370 . S
C267 C268 1.403 . S
C268 C267 1.403 . S
C268 C269 1.404 . S
C268 C271 1.539 . S
C269 C265 1.408 . S
C269 C268 1.404 . S
C269 H281 0.930 . S
C270 C266 1.524 . S
C270 H282 0.956 . S
C270 H283 0.961 . S
C270 H284 0.961 . S
C271 C268 1.539 . S
C271 H285 0.958 . S
C271 H286 0.961 . S
C271 H287 0.960 . S
H272 C256 0.931 . S
H273 C261 0.929 . S
H274 C262 0.960 . S
H275 C262 0.962 . S
H276 C262 0.960 . S
H277 C263 0.961 . S
H278 C263 0.961 . S
H279 C263 0.961 . S
H280 C264 0.931 . S
H281 C269 0.930 . S
H282 C270 0.956 . S
H283 C270 0.961 . S
H284 C270 0.961 . S
H285 C271 0.958 . S
H286 C271 0.961 . S
H287 C271 0.960 . S
C288 C289 1.391 . S
C288 C290 1.394 . S
C288 H304 0.931 . S
C289 C288 1.391 . S
C289 C293 1.376 . S
C290 C288 1.394 . S
C290 C291 1.369 . S
C290 C294 1.531 . S
C291 C290 1.369 . S
C291 C292 1.410 . S
C291 C299 1.503 . S
C292 C291 1.410 . S
C292 C293 1.392 . S
C292 C295 1.511 . S
C293 C289 1.376 . S
C293 C292 1.392 . S
C293 H305 0.929 . S
C294 C290 1.531 . S
C294 H306 0.960 . S
C294 H307 0.962 . S
C294 H308 0.960 . S
C295 C292 1.511 . S
C295 H309 0.961 . S
C295 H310 0.961 . S
C295 H311 0.961 . S
C296 C297 1.370 . S
C296 C298 1.363 . S
C296 H312 0.931 . S
C297 C296 1.370 . S
C297 C301 1.408 . S
C298 C296 1.363 . S
C298 C299 1.370 . S
C298 C302 1.524 . S
C299 C291 1.503 . S
C299 C298 1.370 . S
C299 C300 1.403 . S
C300 C299 1.403 . S
C300 C301 1.404 . S
C300 C303 1.539 . S
C301 C297 1.408 . S
C301 C300 1.404 . S
C301 H313 0.930 . S
C302 C298 1.524 . S
C302 H314 0.956 . S
C302 H315 0.961 . S
C302 H316 0.961 . S
C303 C300 1.539 . S
C303 H317 0.958 . S
C303 H318 0.961 . S
C303 H319 0.960 . S
H304 C288 0.931 . S
H305 C293 0.929 . S
H306 C294 0.960 . S
H307 C294 0.962 . S
H308 C294 0.960 . S
H309 C295 0.961 . S
H310 C295 0.961 . S
H311 C295 0.961 . S
H312 C296 0.931 . S
H313 C301 0.930 . S
H314 C302 0.956 . S
H315 C302 0.961 . S
H316 C302 0.961 . S
H317 C303 0.958 . S
H318 C303 0.961 . S
H319 C303 0.960 . S
C320 C321 1.391 . S
C320 C322 1.394 . S
C320 H336 0.931 . S
C321 C320 1.391 . S
C321 C325 1.376 . S
C322 C320 1.394 . S
C322 C323 1.369 . S
C322 C326 1.531 . S
C323 C322 1.369 . S
C323 C324 1.410 . S
C323 C331 1.503 . S
C324 C323 1.410 . S
C324 C325 1.392 . S
C324 C327 1.511 . S
C325 C321 1.376 . S
C325 C324 1.392 . S
C325 H337 0.929 . S
C326 C322 1.531 . S
C326 H338 0.960 . S
C326 H339 0.962 . S
C326 H340 0.960 . S
C327 C324 1.511 . S
C327 H341 0.961 . S
C327 H342 0.961 . S
C327 H343 0.961 . S
C328 C329 1.370 . S
C328 C330 1.363 . S
C328 H344 0.931 . S
C329 C328 1.370 . S
C329 C333 1.408 . S
C330 C328 1.363 . S
C330 C331 1.370 . S
C330 C334 1.524 . S
C331 C323 1.503 . S
C331 C330 1.370 . S
C331 C332 1.403 . S
C332 C331 1.403 . S
C332 C333 1.404 . S
C332 C335 1.539 . S
C333 C329 1.408 . S
C333 C332 1.404 . S
C333 H345 0.930 . S
C334 C330 1.524 . S
C334 H346 0.956 . S
C334 H347 0.961 . S
C334 H348 0.961 . S
C335 C332 1.539 . S
C335 H349 0.958 . S
C335 H350 0.961 . S
C335 H351 0.960 . S
H336 C320 0.931 . S
H337 C325 0.929 . S
H338 C326 0.960 . S
H339 C326 0.962 . S
H340 C326 0.960 . S
H341 C327 0.961 . S
H342 C327 0.961 . S
H343 C327 0.961 . S
H344 C328 0.931 . S
H345 C333 0.930 . S
H346 C334 0.956 . S
H347 C334 0.961 . S
H348 C334 0.961 . S
H349 C335 0.958 . S
H350 C335 0.961 . S
H351 C335 0.960 . S
C352 C353 1.391 . S
C352 C354 1.394 . S
C352 H368 0.931 . S
C353 C352 1.391 . S
C353 C357 1.376 . S
C354 C352 1.394 . S
C354 C355 1.369 . S
C354 C358 1.531 . S
C355 C354 1.369 . S
C355 C356 1.410 . S
C355 C363 1.503 . S
C356 C355 1.410 . S
C356 C357 1.392 . S
C356 C359 1.511 . S
C357 C353 1.376 . S
C357 C356 1.392 . S
C357 H369 0.929 . S
C358 C354 1.531 . S
C358 H370 0.960 . S
C358 H371 0.962 . S
C358 H372 0.960 . S
C359 C356 1.511 . S
C359 H373 0.961 . S
C359 H374 0.961 . S
C359 H375 0.961 . S
C360 C361 1.370 . S
C360 C362 1.363 . S
C360 H376 0.931 . S
C361 C360 1.370 . S
C361 C365 1.408 . S
C362 C360 1.363 . S
C362 C363 1.370 . S
C362 C366 1.524 . S
C363 C355 1.503 . S
C363 C362 1.370 . S
C363 C364 1.403 . S
C364 C363 1.403 . S
C364 C365 1.404 . S
C364 C367 1.539 . S
C365 C361 1.408 . S
C365 C364 1.404 . S
C365 H377 0.930 . S
C366 C362 1.524 . S
C366 H378 0.956 . S
C366 H379 0.961 . S
C366 H380 0.961 . S
C367 C364 1.539 . S
C367 H381 0.958 . S
C367 H382 0.961 . S
C367 H383 0.960 . S
H368 C352 0.931 . S
H369 C357 0.929 . S
H370 C358 0.960 . S
H371 C358 0.962 . S
H372 C358 0.960 . S
H373 C359 0.961 . S
H374 C359 0.961 . S
H375 C359 0.961 . S
H376 C360 0.931 . S
H377 C365 0.930 . S
H378 C366 0.956 . S
H379 C366 0.961 . S
H380 C366 0.961 . S
H381 C367 0.958 . S
H382 C367 0.961 . S
H383 C367 0.960 . S
C384 C385 1.391 . S
C384 C386 1.394 . S
C384 H400 0.931 . S
C385 C384 1.391 . S
C385 C389 1.376 . S
C386 C384 1.394 . S
C386 C387 1.369 . S
C386 C390 1.531 . S
C387 C386 1.369 . S
C387 C388 1.410 . S
C387 C395 1.503 . S
C388 C387 1.410 . S
C388 C389 1.392 . S
C388 C391 1.511 . S
C389 C385 1.376 . S
C389 C388 1.392 . S
C389 H401 0.929 . S
C390 C386 1.531 . S
C390 H402 0.960 . S
C390 H403 0.962 . S
C390 H404 0.960 . S
C391 C388 1.511 . S
C391 H405 0.961 . S
C391 H406 0.961 . S
C391 H407 0.961 . S
C392 C393 1.370 . S
C392 C394 1.363 . S
C392 H408 0.931 . S
C393 C392 1.370 . S
C393 C397 1.408 . S
C394 C392 1.363 . S
C394 C395 1.370 . S
C394 C398 1.524 . S
C395 C387 1.503 . S
C395 C394 1.370 . S
C395 C396 1.403 . S
C396 C395 1.403 . S
C396 C397 1.404 . S
C396 C399 1.539 . S
C397 C393 1.408 . S
C397 C396 1.404 . S
C397 H409 0.930 . S
C398 C394 1.524 . S
C398 H410 0.956 . S
C398 H411 0.961 . S
C398 H412 0.961 . S
C399 C396 1.539 . S
C399 H413 0.958 . S
C399 H414 0.961 . S
C399 H415 0.960 . S
H400 C384 0.931 . S
H401 C389 0.929 . S
H402 C390 0.960 . S
H403 C390 0.962 . S
H404 C390 0.960 . S
H405 C391 0.961 . S
H406 C391 0.961 . S
H407 C391 0.961 . S
H408 C392 0.931 . S
H409 C397 0.930 . S
H410 C398 0.956 . S
H411 C398 0.961 . S
H412 C398 0.961 . S
H413 C399 0.958 . S
H414 C399 0.961 . S
H415 C399 0.960 . S
C416 C417 1.391 . S
C416 C418 1.394 . S
C416 H432 0.931 . S
C417 C416 1.391 . S
C417 C421 1.376 . S
C418 C416 1.394 . S
C418 C419 1.369 . S
C418 C422 1.531 . S
C419 C418 1.369 . S
C419 C420 1.410 . S
C419 C427 1.503 . S
C420 C419 1.410 . S
C420 C421 1.392 . S
C420 C423 1.511 . S
C421 C417 1.376 . S
C421 C420 1.392 . S
C421 H433 0.929 . S
C422 C418 1.531 . S
C422 H434 0.960 . S
C422 H435 0.962 . S
C422 H436 0.960 . S
C423 C420 1.511 . S
C423 H437 0.961 . S
C423 H438 0.961 . S
C423 H439 0.961 . S
C424 C425 1.370 . S
C424 C426 1.363 . S
C424 H440 0.931 . S
C425 C424 1.370 . S
C425 C429 1.408 . S
C426 C424 1.363 . S
C426 C427 1.370 . S
C426 C430 1.524 . S
C427 C419 1.503 . S
C427 C426 1.370 . S
C427 C428 1.403 . S
C428 C427 1.403 . S
C428 C429 1.404 . S
C428 C431 1.539 . S
C429 C425 1.408 . S
C429 C428 1.404 . S
C429 H441 0.930 . S
C430 C426 1.524 . S
C430 H442 0.956 . S
C430 H443 0.961 . S
C430 H444 0.961 . S
C431 C428 1.539 . S
C431 H445 0.958 . S
C431 H446 0.961 . S
C431 H447 0.960 . S
H432 C416 0.931 . S
H433 C421 0.929 . S
H434 C422 0.960 . S
H435 C422 0.962 . S
H436 C422 0.960 . S
H437 C423 0.961 . S
H438 C423 0.961 . S
H439 C423 0.961 . S
H440 C424 0.931 . S
H441 C429 0.930 . S
H442 C430 0.956 . S
H443 C430 0.961 . S
H444 C430 0.961 . S
H445 C431 0.958 . S
H446 C431 0.961 . S
H447 C431 0.960 . S
C448 C449 1.391 . S
C448 C450 1.394 . S
C448 H464 0.931 . S
C449 C448 1.391 . S
C449 C453 1.376 . S
C450 C448 1.394 . S
C450 C451 1.369 . S
C450 C454 1.531 . S
C451 C450 1.369 . S
C451 C452 1.410 . S
C451 C459 1.503 . S
C452 C451 1.410 . S
C452 C453 1.392 . S
C452 C455 1.511 . S
C453 C449 1.376 . S
C453 C452 1.392 . S
C453 H465 0.929 . S
C454 C450 1.531 . S
C454 H466 0.960 . S
C454 H467 0.962 . S
C454 H468 0.960 . S
C455 C452 1.511 . S
C455 H469 0.961 . S
C455 H470 0.961 . S
C455 H471 0.961 . S
C456 C457 1.370 . S
C456 C458 1.363 . S
C456 H472 0.931 . S
C457 C456 1.370 . S
C457 C461 1.408 . S
C458 C456 1.363 . S
C458 C459 1.370 . S
C458 C462 1.524 . S
C459 C451 1.503 . S
C459 C458 1.370 . S
C459 C460 1.403 . S
C460 C459 1.403 . S
C460 C461 1.404 . S
C460 C463 1.539 . S
C461 C457 1.408 . S
C461 C460 1.404 . S
C461 H473 0.930 . S
C462 C458 1.524 . S
C462 H474 0.956 . S
C462 H475 0.961 . S
C462 H476 0.961 . S
C463 C460 1.539 . S
C463 H477 0.958 . S
C463 H478 0.961 . S
C463 H479 0.960 . S
H464 C448 0.931 . S
H465 C453 0.929 . S
H466 C454 0.960 . S
H467 C454 0.962 . S
H468 C454 0.960 . S
H469 C455 0.961 . S
H470 C455 0.961 . S
H471 C455 0.961 . S
H472 C456 0.931 . S
H473 C461 0.930 . S
H474 C462 0.956 . S
H475 C462 0.961 . S
H476 C462 0.961 . S
H477 C463 0.958 . S
H478 C463 0.961 . S
H479 C463 0.960 . S
C480 C481 1.391 . S
C480 C482 1.394 . S
C480 H496 0.931 . S
C481 C480 1.391 . S
C481 C485 1.376 . S
C482 C480 1.394 . S
C482 C483 1.369 . S
C482 C486 1.531 1_565 S
C483 C482 1.369 . S
C483 C484 1.410 . S
C483 C491 1.503 1_565 S
C484 C483 1.410 . S
C484 C485 1.392 . S
C484 C487 1.511 . S
C485 C481 1.376 . S
C485 C484 1.392 . S
C485 H497 0.929 . S
C486 C482 1.531 1_545 S
C486 H498 0.960 . S
C486 H499 0.962 . S
C486 H500 0.960 . S
C487 C484 1.511 . S
C487 H501 0.961 . S
C487 H502 0.958 . S
C487 H503 0.961 . S
C488 C489 1.370 . S
C488 C490 1.363 . S
C488 H504 0.931 . S
C489 C488 1.370 . S
C489 C493 1.408 . S
C490 C488 1.363 . S
C490 C491 1.370 . S
C490 C494 1.524 . S
C491 C483 1.503 1_545 S
C491 C490 1.370 . S
C491 C492 1.403 . S
C492 C491 1.403 . S
C492 C493 1.404 . S
C492 C495 1.539 1_545 S
C493 C489 1.408 . S
C493 C492 1.404 . S
C493 H505 0.930 . S
C494 C490 1.524 . S
C494 H506 0.956 . S
C494 H507 0.961 . S
C494 H508 0.961 . S
C495 C492 1.539 1_565 S
C495 H509 0.958 . S
C495 H510 0.961 . S
C495 H511 0.960 . S
H496 C480 0.931 . S
H497 C485 0.929 . S
H498 C486 0.960 . S
H499 C486 0.962 . S
H500 C486 0.960 . S
H501 C487 0.961 . S
H502 C487 0.958 . S
H503 C487 0.961 . S
H504 C488 0.931 . S
H505 C493 0.930 . S
H506 C494 0.956 . S
H507 C494 0.961 . S
H508 C494 0.961 . S
H509 C495 0.958 . S
H510 C495 0.961 . S
H511 C495 0.960 . S
C512 C513 1.391 . S
C512 C514 1.394 . S
C512 H528 0.931 . S
C513 C512 1.391 . S
C513 C517 1.376 . S
C514 C512 1.394 . S
C514 C515 1.369 . S
C514 C518 1.531 . S
C515 C514 1.369 . S
C515 C516 1.410 . S
C515 C523 1.503 . S
C516 C515 1.410 . S
C516 C517 1.392 . S
C516 C519 1.511 . S
C517 C513 1.376 . S
C517 C516 1.392 . S
C517 H529 0.929 . S
C518 C514 1.531 . S
C518 H530 0.960 . S
C518 H531 0.962 . S
C518 H532 0.960 . S
C519 C516 1.511 . S
C519 H533 0.961 . S
C519 H534 0.961 . S
C519 H535 0.961 . S
C520 C521 1.370 . S
C520 C522 1.363 . S
C520 H536 0.931 . S
C521 C520 1.370 . S
C521 C525 1.408 . S
C522 C520 1.363 . S
C522 C523 1.370 . S
C522 C526 1.524 . S
C523 C515 1.503 . S
C523 C522 1.370 . S
C523 C524 1.403 . S
C524 C523 1.403 . S
C524 C525 1.404 . S
C524 C527 1.539 . S
C525 C521 1.408 . S
C525 C524 1.404 . S
C525 H537 0.930 . S
C526 C522 1.524 . S
C526 H538 0.956 . S
C526 H539 0.961 . S
C526 H540 0.961 . S
C527 C524 1.539 . S
C527 H541 0.958 . S
C527 H542 0.961 . S
C527 H543 0.960 . S
H528 C512 0.931 . S
H529 C517 0.929 . S
H530 C518 0.960 . S
H531 C518 0.962 . S
H532 C518 0.960 . S
H533 C519 0.961 . S
H534 C519 0.961 . S
H535 C519 0.961 . S
H536 C520 0.931 . S
H537 C525 0.930 . S
H538 C526 0.956 . S
H539 C526 0.961 . S
H540 C526 0.961 . S
H541 C527 0.958 . S
H542 C527 0.961 . S
H543 C527 0.960 . S
C544 C545 1.391 . S
C544 C546 1.394 . S
C544 H560 0.931 . S
C545 C544 1.391 . S
C545 C549 1.376 . S
C546 C544 1.394 . S
C546 C547 1.369 . S
C546 C550 1.531 . S
C547 C546 1.369 . S
C547 C548 1.410 . S
C547 C555 1.503 . S
C548 C547 1.410 . S
C548 C549 1.392 . S
C548 C551 1.511 . S
C549 C545 1.376 . S
C549 C548 1.392 . S
C549 H561 0.929 . S
C550 C546 1.531 . S
C550 H562 0.960 . S
C550 H563 0.962 . S
C550 H564 0.960 . S
C551 C548 1.511 . S
C551 H565 0.961 . S
C551 H566 0.961 . S
C551 H567 0.961 . S
C552 C553 1.370 . S
C552 C554 1.363 . S
C552 H568 0.931 . S
C553 C552 1.370 . S
C553 C557 1.408 . S
C554 C552 1.363 . S
C554 C555 1.370 1_554 S
C554 C558 1.524 . S
C555 C547 1.503 . S
C555 C554 1.370 1_556 S
C555 C556 1.403 . S
C556 C555 1.403 . S
C556 C557 1.404 1_556 S
C556 C559 1.539 . S
C557 C553 1.408 . S
C557 C556 1.404 1_554 S
C557 H569 0.930 . S
C558 C554 1.524 . S
C558 H570 0.956 . S
C558 H571 0.961 1_554 S
C558 H572 0.961 . S
C559 C556 1.539 . S
C559 H573 0.958 . S
C559 H574 0.961 . S
C559 H575 0.960 . S
H560 C544 0.931 . S
H561 C549 0.929 . S
H562 C550 0.960 . S
H563 C550 0.962 . S
H564 C550 0.960 . S
H565 C551 0.961 . S
H566 C551 0.961 . S
H567 C551 0.961 . S
H568 C552 0.931 . S
H569 C557 0.930 . S
H570 C558 0.956 . S
H571 C558 0.961 1_556 S
H572 C558 0.961 . S
H573 C559 0.958 . S
H574 C559 0.961 . S
H575 C559 0.960 . S
C576 C577 1.391 . S
C576 C578 1.394 . S
C576 H592 0.931 . S
C577 C576 1.391 . S
C577 C581 1.376 . S
C578 C576 1.394 . S
C578 C579 1.369 1_554 S
C578 C582 1.531 . S
C579 C578 1.369 1_556 S
C579 C580 1.410 . S
C579 C587 1.503 . S
C580 C579 1.410 . S
C580 C581 1.392 1_556 S
C580 C583 1.511 . S
C581 C577 1.376 . S
C581 C580 1.392 1_554 S
C581 H593 0.929 . S
C582 C578 1.531 . S
C582 H594 0.960 . S
C582 H595 0.962 . S
C582 H596 0.960 . S
C583 C580 1.511 . S
C583 H597 0.961 . S
C583 H598 0.961 . S
C583 H599 0.961 . S
C584 C585 1.370 . S
C584 C586 1.363 . S
C584 H600 0.931 . S
C585 C584 1.370 . S
C585 C589 1.408 . S
C586 C584 1.363 . S
C586 C587 1.370 . S
C586 C590 1.524 . S
C587 C579 1.503 . S
C587 C586 1.370 . S
C587 C588 1.403 . S
C588 C587 1.403 . S
C588 C589 1.404 . S
C588 C591 1.539 . S
C589 C585 1.408 . S
C589 C588 1.404 . S
C589 H601 0.930 . S
C590 C586 1.524 . S
C590 H602 0.956 . S
C590 H603 0.961 . S
C590 H604 0.961 . S
C591 C588 1.539 . S
C591 H605 0.958 . S
C591 H606 0.961 . S
C591 H607 0.960 . S
H592 C576 0.931 . S
H593 C581 0.929 . S
H594 C582 0.960 . S
H595 C582 0.962 . S
H596 C582 0.960 . S
H597 C583 0.961 . S
H598 C583 0.961 . S
H599 C583 0.961 . S
H600 C584 0.931 . S
H601 C589 0.930 . S
H602 C590 0.956 . S
H603 C590 0.961 . S
H604 C590 0.961 . S
H605 C591 0.958 . S
H606 C591 0.961 . S
H607 C591 0.960 . S
C608 C609 1.391 . S
C608 C610 1.394 . S
C608 H624 0.931 . S
C609 C608 1.391 . S
C609 C613 1.376 . S
C610 C608 1.394 . S
C610 C611 1.369 . S
C610 C614 1.531 . S
C611 C610 1.369 . S
C611 C612 1.410 . S
C611 C619 1.503 . S
C612 C611 1.410 . S
C612 C613 1.392 . S
C612 C615 1.511 . S
C613 C609 1.376 . S
C613 C612 1.392 . S
C613 H625 0.929 . S
C614 C610 1.531 . S
C614 H626 0.960 . S
C614 H627 0.962 . S
C614 H628 0.960 . S
C615 C612 1.511 . S
C615 H629 0.961 . S
C615 H630 0.961 . S
C615 H631 0.961 . S
C616 C617 1.370 . S
C616 C618 1.363 . S
C616 H632 0.931 . S
C617 C616 1.370 . S
C617 C621 1.408 . S
C618 C616 1.363 . S
C618 C619 1.370 . S
C618 C622 1.524 . S
C619 C611 1.503 . S
C619 C618 1.370 . S
C619 C620 1.403 . S
C620 C619 1.403 . S
C620 C621 1.404 . S
C620 C623 1.539 . S
C621 C617 1.408 . S
C621 C620 1.404 . S
C621 H633 0.930 . S
C622 C618 1.524 . S
C622 H634 0.956 . S
C622 H635 0.961 . S
C622 H636 0.961 . S
C623 C620 1.539 . S
C623 H637 0.958 . S
C623 H638 0.961 . S
C623 H639 0.960 . S
H624 C608 0.931 . S
H625 C613 0.929 . S
H626 C614 0.960 . S
H627 C614 0.962 . S
H628 C614 0.960 . S
H629 C615 0.961 . S
H630 C615 0.961 . S
H631 C615 0.961 . S
H632 C616 0.931 . S
H633 C621 0.930 . S
H634 C622 0.956 . S
H635 C622 0.961 . S
H636 C622 0.961 . S
H637 C623 0.958 . S
H638 C623 0.961 . S
H639 C623 0.960 . S
C640 C641 1.391 . S
C640 C642 1.394 . S
C640 H656 0.931 . S
C641 C640 1.391 . S
C641 C645 1.376 . S
C642 C640 1.394 . S
C642 C643 1.369 . S
C642 C646 1.531 . S
C643 C642 1.369 . S
C643 C644 1.410 . S
C643 C651 1.503 . S
C644 C643 1.410 . S
C644 C645 1.392 . S
C644 C647 1.511 . S
C645 C641 1.376 . S
C645 C644 1.392 . S
C645 H657 0.929 . S
C646 C642 1.531 . S
C646 H658 0.960 . S
C646 H659 0.962 . S
C646 H660 0.960 . S
C647 C644 1.511 . S
C647 H661 0.961 . S
C647 H662 0.961 . S
C647 H663 0.961 . S
C648 C649 1.370 . S
C648 C650 1.363 . S
C648 H664 0.931 . S
C649 C648 1.370 . S
C649 C653 1.408 . S
C650 C648 1.363 . S
C650 C651 1.370 . S
C650 C654 1.524 . S
C651 C643 1.503 . S
C651 C650 1.370 . S
C651 C652 1.403 . S
C652 C651 1.403 . S
C652 C653 1.404 . S
C652 C655 1.539 . S
C653 C649 1.408 . S
C653 C652 1.404 . S
C653 H665 0.930 . S
C654 C650 1.524 . S
C654 H666 0.956 . S
C654 H667 0.961 . S
C654 H668 0.961 . S
C655 C652 1.539 . S
C655 H669 0.958 . S
C655 H670 0.961 . S
C655 H671 0.960 . S
H656 C640 0.931 . S
H657 C645 0.929 . S
H658 C646 0.960 . S
H659 C646 0.962 . S
H660 C646 0.960 . S
H661 C647 0.961 . S
H662 C647 0.961 . S
H663 C647 0.961 . S
H664 C648 0.931 . S
H665 C653 0.930 . S
H666 C654 0.956 . S
H667 C654 0.961 . S
H668 C654 0.961 . S
H669 C655 0.958 . S
H670 C655 0.961 . S
H671 C655 0.960 . S
C672 C673 1.391 . S
C672 C674 1.394 . S
C672 H688 0.931 . S
C673 C672 1.391 . S
C673 C677 1.376 . S
C674 C672 1.394 . S
C674 C675 1.369 . S
C674 C678 1.531 . S
C675 C674 1.369 . S
C675 C676 1.410 . S
C675 C683 1.503 1_655 S
C676 C675 1.410 . S
C676 C677 1.392 . S
C676 C679 1.511 1_655 S
C677 C673 1.376 . S
C677 C676 1.392 . S
C677 H689 0.929 . S
C678 C674 1.531 . S
C678 H690 0.960 . S
C678 H691 0.962 . S
C678 H692 0.960 . S
C679 C676 1.511 1_455 S
C679 H693 0.961 1_455 S
C679 H694 0.961 . S
C679 H695 0.961 . S
C680 C681 1.370 . S
C680 C682 1.363 . S
C680 H696 0.931 . S
C681 C680 1.370 . S
C681 C685 1.408 . S
C682 C680 1.363 . S
C682 C683 1.370 . S
C682 C686 1.524 1_455 S
C683 C675 1.503 1_455 S
C683 C682 1.370 . S
C683 C684 1.403 . S
C684 C683 1.403 . S
C684 C685 1.404 . S
C684 C687 1.539 . S
C685 C681 1.408 . S
C685 C684 1.404 . S
C685 H697 0.930 . S
C686 C682 1.524 1_655 S
C686 H698 0.956 . S
C686 H699 0.961 . S
C686 H700 0.961 . S
C687 C684 1.539 . S
C687 H701 0.958 . S
C687 H702 0.961 . S
C687 H703 0.960 . S
H688 C672 0.931 . S
H689 C677 0.929 . S
H690 C678 0.960 . S
H691 C678 0.962 . S
H692 C678 0.960 . S
H693 C679 0.961 1_655 S
H694 C679 0.961 . S
H695 C679 0.961 . S
H696 C680 0.931 . S
H697 C685 0.930 . S
H698 C686 0.956 . S
H699 C686 0.961 . S
H700 C686 0.961 . S
H701 C687 0.958 . S
H702 C687 0.961 . S
H703 C687 0.960 . S
C704 C705 1.391 . S
C704 C706 1.394 . S
C704 H720 0.931 . S
C705 C704 1.391 . S
C705 C709 1.376 . S
C706 C704 1.394 . S
C706 C707 1.369 . S
C706 C710 1.531 1_655 S
C707 C706 1.369 . S
C707 C708 1.410 . S
C707 C715 1.503 1_655 S
C708 C707 1.410 . S
C708 C709 1.392 . S
C708 C711 1.511 . S
C709 C705 1.376 . S
C709 C708 1.392 . S
C709 H721 0.929 . S
C710 C706 1.531 1_455 S
C710 H722 0.960 . S
C710 H723 0.962 . S
C710 H724 0.960 1_455 S
C711 C708 1.511 . S
C711 H725 0.961 . S
C711 H726 0.961 . S
C711 H727 0.961 . S
C712 C713 1.370 . S
C712 C714 1.363 . S
C712 H728 0.931 . S
C713 C712 1.370 . S
C713 C717 1.408 . S
C714 C712 1.363 . S
C714 C715 1.370 . S
C714 C718 1.524 . S
C715 C707 1.503 1_455 S
C715 C714 1.370 . S
C715 C716 1.403 . S
C716 C715 1.403 . S
C716 C717 1.404 . S
C716 C719 1.539 1_455 S
C717 C713 1.408 . S
C717 C716 1.404 . S
C717 H729 0.930 . S
C718 C714 1.524 . S
C718 H730 0.956 . S
C718 H731 0.961 . S
C718 H732 0.961 . S
C719 C716 1.539 1_655 S
C719 H733 0.958 . S
C719 H734 0.961 . S
C719 H735 0.960 . S
H720 C704 0.931 . S
H721 C709 0.929 . S
H722 C710 0.960 . S
H723 C710 0.962 . S
H724 C710 0.960 1_655 S
H725 C711 0.961 . S
H726 C711 0.961 . S
H727 C711 0.961 . S
H728 C712 0.931 . S
H729 C717 0.930 . S
H730 C718 0.956 . S
H731 C718 0.961 . S
H732 C718 0.961 . S
H733 C719 0.958 . S
H734 C719 0.961 . S
H735 C719 0.960 . S
C736 C737 1.391 . S
C736 C738 1.394 . S
C736 H752 0.931 . S
C737 C736 1.391 . S
C737 C741 1.376 . S
C738 C736 1.394 . S
C738 C739 1.369 . S
C738 C742 1.531 . S
C739 C738 1.369 . S
C739 C740 1.410 . S
C739 C747 1.503 . S
C740 C739 1.410 . S
C740 C741 1.392 . S
C740 C743 1.511 . S
C741 C737 1.376 . S
C741 C740 1.392 . S
C741 H753 0.929 . S
C742 C738 1.531 . S
C742 H754 0.960 . S
C742 H755 0.962 . S
C742 H756 0.960 . S
C743 C740 1.511 . S
C743 H757 0.961 . S
C743 H758 0.961 . S
C743 H759 0.961 . S
C744 C745 1.370 . S
C744 C746 1.363 . S
C744 H760 0.931 . S
C745 C744 1.370 . S
C745 C749 1.408 . S
C746 C744 1.363 . S
C746 C747 1.370 . S
C746 C750 1.524 . S
C747 C739 1.503 . S
C747 C746 1.370 . S
C747 C748 1.403 . S
C748 C747 1.403 . S
C748 C749 1.404 . S
C748 C751 1.539 . S
C749 C745 1.408 . S
C749 C748 1.404 . S
C749 H761 0.930 . S
C750 C746 1.524 . S
C750 H762 0.956 . S
C750 H763 0.961 . S
C750 H764 0.961 . S
C751 C748 1.539 . S
C751 H765 0.958 . S
C751 H766 0.961 . S
C751 H767 0.960 . S
H752 C736 0.931 . S
H753 C741 0.929 . S
H754 C742 0.960 . S
H755 C742 0.962 . S
H756 C742 0.960 . S
H757 C743 0.961 . S
H758 C743 0.961 . S
H759 C743 0.961 . S
H760 C744 0.931 . S
H761 C749 0.930 . S
H762 C750 0.956 . S
H763 C750 0.961 . S
H764 C750 0.961 . S
H765 C751 0.958 . S
H766 C751 0.961 . S
H767 C751 0.960 . S
C768 C769 1.391 . S
C768 C770 1.394 . S
C768 H784 0.931 . S
C769 C768 1.391 . S
C769 C773 1.376 . S
C770 C768 1.394 . S
C770 C771 1.369 . S
C770 C774 1.531 . S
C771 C770 1.369 . S
C771 C772 1.410 . S
C771 C779 1.503 1_545 S
C772 C771 1.410 . S
C772 C773 1.392 . S
C772 C775 1.511 . S
C773 C769 1.376 . S
C773 C772 1.392 . S
C773 H785 0.929 . S
C774 C770 1.531 . S
C774 H786 0.960 . S
C774 H787 0.962 . S
C774 H788 0.960 . S
C775 C772 1.511 . S
C775 H789 0.961 . S
C775 H790 0.961 1_545 S
C775 H791 0.961 . S
C776 C777 1.370 . S
C776 C778 1.363 . S
C776 H792 0.931 . S
C777 C776 1.370 . S
C777 C781 1.408 . S
C778 C776 1.363 . S
C778 C779 1.370 . S
C778 C782 1.524 . S
C779 C771 1.503 1_565 S
C779 C778 1.370 . S
C779 C780 1.403 . S
C780 C779 1.403 . S
C780 C781 1.404 . S
C780 C783 1.539 1_565 S
C781 C777 1.408 . S
C781 C780 1.404 . S
C781 H793 0.930 . S
C782 C778 1.524 . S
C782 H794 0.956 . S
C782 H795 0.961 . S
C782 H796 0.961 . S
C783 C780 1.539 1_545 S
C783 H797 0.958 . S
C783 H798 0.961 . S
C783 H799 0.960 . S
H784 C768 0.931 . S
H785 C773 0.929 . S
H786 C774 0.960 . S
H787 C774 0.962 . S
H788 C774 0.960 . S
H789 C775 0.961 . S
H790 C775 0.961 1_565 S
H791 C775 0.961 . S
H792 C776 0.931 . S
H793 C781 0.930 . S
H794 C782 0.956 . S
H795 C782 0.961 . S
H796 C782 0.961 . S
H797 C783 0.958 . S
H798 C783 0.961 . S
H799 C783 0.960 . S
C800 C801 1.391 . S
C800 C802 1.394 . S
C800 H816 0.931 . S
C801 C800 1.391 . S
C801 C805 1.376 . S
C802 C800 1.394 . S
C802 C803 1.369 . S
C802 C806 1.531 . S
C803 C802 1.369 . S
C803 C804 1.410 . S
C803 C811 1.503 . S
C804 C803 1.410 . S
C804 C805 1.392 . S
C804 C807 1.511 . S
C805 C801 1.376 . S
C805 C804 1.392 . S
C805 H817 0.929 . S
C806 C802 1.531 . S
C806 H818 0.960 . S
C806 H819 0.962 . S
C806 H820 0.960 . S
C807 C804 1.511 . S
C807 H821 0.961 . S
C807 H822 0.961 . S
C807 H823 0.961 . S
C808 C809 1.370 . S
C808 C810 1.363 . S
C808 H824 0.931 . S
C809 C808 1.370 . S
C809 C813 1.408 . S
C810 C808 1.363 . S
C810 C811 1.370 . S
C810 C814 1.524 . S
C811 C803 1.503 . S
C811 C810 1.370 . S
C811 C812 1.403 . S
C812 C811 1.403 . S
C812 C813 1.404 . S
C812 C815 1.539 . S
C813 C809 1.408 . S
C813 C812 1.404 . S
C813 H825 0.930 . S
C814 C810 1.524 . S
C814 H826 0.956 . S
C814 H827 0.961 . S
C814 H828 0.961 . S
C815 C812 1.539 . S
C815 H829 0.958 . S
C815 H830 0.961 . S
C815 H831 0.960 . S
H816 C800 0.931 . S
H817 C805 0.929 . S
H818 C806 0.960 . S
H819 C806 0.962 . S
H820 C806 0.960 . S
H821 C807 0.961 . S
H822 C807 0.961 . S
H823 C807 0.961 . S
H824 C808 0.931 . S
H825 C813 0.930 . S
H826 C814 0.956 . S
H827 C814 0.961 . S
H828 C814 0.961 . S
H829 C815 0.958 . S
H830 C815 0.961 . S
H831 C815 0.960 . S
C832 C833 1.391 . S
C832 C834 1.394 . S
C832 H848 0.931 . S
C833 C832 1.391 . S
C833 C837 1.376 . S
C834 C832 1.394 . S
C834 C835 1.369 . S
C834 C838 1.531 . S
C835 C834 1.369 . S
C835 C836 1.410 . S
C835 C843 1.503 . S
C836 C835 1.410 . S
C836 C837 1.392 . S
C836 C839 1.511 . S
C837 C833 1.376 . S
C837 C836 1.392 . S
C837 H849 0.929 . S
C838 C834 1.531 . S
C838 H850 0.960 . S
C838 H851 0.962 . S
C838 H852 0.960 . S
C839 C836 1.511 . S
C839 H853 0.961 . S
C839 H854 0.961 . S
C839 H855 0.961 . S
C840 C841 1.370 . S
C840 C842 1.363 . S
C840 H856 0.931 . S
C841 C840 1.370 . S
C841 C845 1.408 . S
C842 C840 1.363 . S
C842 C843 1.370 1_556 S
C842 C846 1.524 1_556 S
C843 C835 1.503 . S
C843 C842 1.370 1_554 S
C843 C844 1.403 1_554 S
C844 C843 1.403 1_556 S
C844 C845 1.404 . S
C844 C847 1.539 1_556 S
C845 C841 1.408 . S
C845 C844 1.404 . S
C845 H857 0.930 . S
C846 C842 1.524 1_554 S
C846 H858 0.956 . S
C846 H859 0.961 . S
C846 H860 0.961 1_554 S
C847 C844 1.539 1_554 S
C847 H861 0.958 . S
C847 H862 0.958 1_554 S
C847 H863 0.960 . S
H848 C832 0.931 . S
H849 C837 0.929 . S
H850 C838 0.960 . S
H851 C838 0.962 . S
H852 C838 0.960 . S
H853 C839 0.961 . S
H854 C839 0.961 . S
H855 C839 0.961 . S
H856 C840 0.931 . S
H857 C845 0.930 . S
H858 C846 0.956 . S
H859 C846 0.961 . S
H860 C846 0.961 1_556 S
H861 C847 0.958 . S
H862 C847 0.958 1_556 S
H863 C847 0.960 . S
C864 C865 1.391 . S
C864 C866 1.423 . S
C864 H880 0.931 . S
C865 C864 1.391 . S
C865 C869 1.376 . S
C866 C864 1.423 . S
C866 C867 1.362 1_556 S
C866 C870 1.509 1_556 S
C867 C866 1.362 1_554 S
C867 C868 1.410 1_554 S
C867 C875 1.503 . S
C868 C867 1.410 1_556 S
C868 C869 1.392 . S
C868 C871 1.511 . S
C869 C865 1.376 . S
C869 C868 1.392 . S
C869 H881 0.929 . S
C870 C866 1.509 1_554 S
C870 H882 0.960 . S
C870 H883 0.962 . S
C870 H884 0.960 . S
C871 C868 1.511 . S
C871 H885 0.961 . S
C871 H886 0.961 1_556 S
C871 H887 0.961 . S
C872 C873 1.370 . S
C872 C874 1.363 . S
C872 H888 0.931 . S
C873 C872 1.370 . S
C873 C877 1.408 . S
C874 C872 1.363 . S
C874 C875 1.370 . S
C874 C878 1.524 . S
C875 C867 1.503 . S
C875 C874 1.370 . S
C875 C876 1.403 . S
C876 C875 1.403 . S
C876 C877 1.404 . S
C876 C879 1.539 . S
C877 C873 1.408 . S
C877 C876 1.404 . S
C877 H889 0.930 . S
C878 C874 1.524 . S
C878 H890 0.956 . S
C878 H891 0.961 . S
C878 H892 0.961 . S
C879 C876 1.539 . S
C879 H893 0.958 . S
C879 H894 0.961 . S
C879 H895 0.960 . S
H880 C864 0.931 . S
H881 C869 0.929 . S
H882 C870 0.960 . S
H883 C870 0.962 . S
H884 C870 0.960 . S
H885 C871 0.961 . S
H886 C871 0.961 1_554 S
H887 C871 0.961 . S
H888 C872 0.931 . S
H889 C877 0.930 . S
H890 C878 0.956 . S
H891 C878 0.961 . S
H892 C878 0.961 . S
H893 C879 0.958 . S
H894 C879 0.961 . S
H895 C879 0.960 . S
C896 C897 1.391 . S
C896 C898 1.394 . S
C896 H912 0.931 . S
C897 C896 1.391 . S
C897 C901 1.376 . S
C898 C896 1.394 . S
C898 C899 1.369 . S
C898 C902 1.531 . S
C899 C898 1.369 . S
C899 C900 1.410 . S
C899 C907 1.503 . S
C900 C899 1.410 . S
C900 C901 1.392 . S
C900 C903 1.511 . S
C901 C897 1.376 . S
C901 C900 1.392 . S
C901 H913 0.929 . S
C902 C898 1.531 . S
C902 H914 0.960 . S
C902 H915 0.962 . S
C902 H916 0.960 . S
C903 C900 1.511 . S
C903 H917 0.961 . S
C903 H918 0.961 . S
C903 H919 0.961 . S
C904 C905 1.370 . S
C904 C906 1.363 . S
C904 H920 0.931 . S
C905 C904 1.370 . S
C905 C909 1.408 . S
C906 C904 1.363 . S
C906 C907 1.370 . S
C906 C910 1.524 . S
C907 C899 1.503 . S
C907 C906 1.370 . S
C907 C908 1.403 . S
C908 C907 1.403 . S
C908 C909 1.404 . S
C908 C911 1.539 . S
C909 C905 1.408 . S
C909 C908 1.404 . S
C909 H921 0.930 . S
C910 C906 1.524 . S
C910 H922 0.956 . S
C910 H923 0.961 . S
C910 H924 0.961 . S
C911 C908 1.539 . S
C911 H925 0.958 . S
C911 H926 0.961 . S
C911 H927 0.960 . S
H912 C896 0.931 . S
H913 C901 0.929 . S
H914 C902 0.960 . S
H915 C902 0.962 . S
H916 C902 0.960 . S
H917 C903 0.961 . S
H918 C903 0.961 . S
H919 C903 0.961 . S
H920 C904 0.931 . S
H921 C909 0.930 . S
H922 C910 0.956 . S
H923 C910 0.961 . S
H924 C910 0.961 . S
H925 C911 0.958 . S
H926 C911 0.961 . S
H927 C911 0.960 . S
C928 C929 1.391 . S
C928 C930 1.394 . S
C928 H944 0.931 . S
C929 C928 1.391 . S
C929 C933 1.376 . S
C930 C928 1.394 . S
C930 C931 1.369 . S
C930 C934 1.531 . S
C931 C930 1.369 . S
C931 C932 1.410 . S
C931 C939 1.503 . S
C932 C931 1.410 . S
C932 C933 1.392 . S
C932 C935 1.511 . S
C933 C929 1.376 . S
C933 C932 1.392 . S
C933 H945 0.929 . S
C934 C930 1.531 . S
C934 H946 0.960 . S
C934 H947 0.962 . S
C934 H948 0.960 . S
C935 C932 1.511 . S
C935 H949 0.961 . S
C935 H950 0.961 . S
C935 H951 0.961 . S
C936 C937 1.370 . S
C936 C938 1.363 . S
C936 H952 0.931 . S
C937 C936 1.370 . S
C937 C941 1.408 . S
C938 C936 1.363 . S
C938 C939 1.370 . S
C938 C942 1.524 . S
C939 C931 1.503 . S
C939 C938 1.370 . S
C939 C940 1.403 . S
C940 C939 1.403 . S
C940 C941 1.404 . S
C940 C943 1.539 . S
C941 C937 1.408 . S
C941 C940 1.404 . S
C941 H953 0.930 . S
C942 C938 1.524 . S
C942 H954 0.956 . S
C942 H955 0.961 . S
C942 H956 0.961 . S
C943 C940 1.539 . S
C943 H957 0.958 . S
C943 H958 0.961 . S
C943 H959 0.960 . S
H944 C928 0.931 . S
H945 C933 0.929 . S
H946 C934 0.960 . S
H947 C934 0.962 . S
H948 C934 0.960 . S
H949 C935 0.961 . S
H950 C935 0.961 . S
H951 C935 0.961 . S
H952 C936 0.931 . S
H953 C941 0.930 . S
H954 C942 0.956 . S
H955 C942 0.961 . S
H956 C942 0.961 . S
H957 C943 0.958 . S
H958 C943 0.961 . S
H959 C943 0.960 . S
C960 C961 1.391 . S
C960 C962 1.394 . S
C960 H976 0.931 . S
C961 C960 1.391 . S
C961 C965 1.376 . S
C962 C960 1.394 . S
C962 C963 1.369 . S
C962 C966 1.531 . S
C963 C962 1.369 . S
C963 C964 1.410 . S
C963 C971 1.503 1_455 S
C964 C963 1.410 . S
C964 C965 1.392 . S
C964 C967 1.511 1_455 S
C965 C961 1.376 . S
C965 C964 1.392 . S
C965 H977 0.929 . S
C966 C962 1.531 . S
C966 H978 0.960 . S
C966 H979 0.962 . S
C966 H980 0.960 . S
C967 C964 1.511 1_655 S
C967 H981 0.961 . S
C967 H982 0.961 . S
C967 H983 0.961 . S
C968 C969 1.370 . S
C968 C970 1.363 . S
C968 H984 0.931 . S
C969 C968 1.370 . S
C969 C973 1.408 . S
C970 C968 1.363 . S
C970 C971 1.370 . S
C970 C974 1.524 . S
C971 C963 1.503 1_655 S
C971 C970 1.370 . S
C971 C972 1.403 1_655 S
C972 C971 1.403 1_455 S
C972 C973 1.404 1_455 S
C972 C975 1.539 . S
C973 C969 1.408 . S
C973 C972 1.404 1_655 S
C973 H985 0.930 . S
C974 C970 1.524 . S
C974 H986 0.956 . S
C974 H987 0.961 . S
C974 H988 0.961 . S
C975 C972 1.539 . S
C975 H989 0.958 . S
C975 H990 0.961 . S
C975 H991 0.960 . S
H976 C960 0.931 . S
H977 C965 0.929 . S
H978 C966 0.960 . S
H979 C966 0.962 . S
H980 C966 0.960 . S
H981 C967 0.961 . S
H982 C967 0.961 . S
H983 C967 0.961 . S
H984 C968 0.931 . S
H985 C973 0.930 . S
H986 C974 0.956 . S
H987 C974 0.961 . S
H988 C974 0.961 . S
H989 C975 0.958 . S
H990 C975 0.961 . S
H991 C975 0.960 . S
C992 C993 1.391 . S
C992 C994 1.394 . S
C992 H1008 0.931 . S
C993 C992 1.391 . S
C993 C997 1.376 . S
C994 C992 1.394 . S
C994 C995 1.369 . S
C994 C998 1.531 1_455 S
C995 C994 1.369 . S
C995 C996 1.410 . S
C995 C1003 1.503 1_455 S
C996 C995 1.410 . S
C996 C997 1.392 . S
C996 C999 1.511 . S
C997 C993 1.376 . S
C997 C996 1.392 . S
C997 H1009 0.929 . S
C998 C994 1.531 1_655 S
C998 H1010 0.960 . S
C998 H1011 0.962 . S
C998 H1012 0.960 . S
C999 C996 1.511 . S
C999 H1013 0.961 . S
C999 H1014 0.961 . S
C999 H1015 0.961 . S
C1000 C1001 1.370 . S
C1000 C1002 1.363 . S
C1000 H1016 0.931 . S
C1001 C1000 1.370 . S
C1001 C1005 1.408 . S
C1002 C1000 1.363 . S
C1002 C1003 1.370 . S
C1002 C1006 1.524 1_655 S
C1003 C995 1.503 1_655 S
C1003 C1002 1.370 . S
C1003 C1004 1.403 . S
C1004 C1003 1.403 . S
C1004 C1005 1.404 . S
C1004 C1007 1.539 . S
C1005 C1001 1.408 . S
C1005 C1004 1.404 . S
C1005 H1017 0.930 . S
C1006 C1002 1.524 1_455 S
C1006 H1018 0.956 . S
C1006 H1019 0.961 . S
C1006 H1020 0.961 . S
C1007 C1004 1.539 . S
C1007 H1021 0.958 . S
C1007 H1022 0.961 . S
C1007 H1023 0.960 . S
H1008 C992 0.931 . S
H1009 C997 0.929 . S
H1010 C998 0.960 . S
H1011 C998 0.962 . S
H1012 C998 0.960 . S
H1013 C999 0.961 . S
H1014 C999 0.961 . S
H1015 C999 0.961 . S
H1016 C1000 0.931 . S
H1017 C1005 0.930 . S
H1018 C1006 0.956 . S
H1019 C1006 0.961 . S
H1020 C1006 0.961 . S
H1021 C1007 0.958 . S
H1022 C1007 0.961 . S
H1023 C1007 0.960 . S
C1024 C1025 1.391 . S
C1024 C1026 1.394 . S
C1024 H1040 0.931 . S
C1025 C1024 1.391 . S
C1025 C1029 1.376 . S
C1026 C1024 1.394 . S
C1026 C1027 1.369 . S
C1026 C1030 1.531 . S
C1027 C1026 1.369 . S
C1027 C1028 1.410 . S
C1027 C1035 1.503 . S
C1028 C1027 1.410 . S
C1028 C1029 1.392 . S
C1028 C1031 1.511 . S
C1029 C1025 1.376 . S
C1029 C1028 1.392 . S
C1029 H1041 0.929 . S
C1030 C1026 1.531 . S
C1030 H1042 0.960 . S
C1030 H1043 0.962 . S
C1030 H1044 0.960 . S
C1031 C1028 1.511 . S
C1031 H1045 0.961 . S
C1031 H1046 0.961 . S
C1031 H1047 0.961 . S
C1032 C1033 1.370 . S
C1032 C1034 1.363 . S
C1032 H1048 0.931 . S
C1033 C1032 1.370 . S
C1033 C1037 1.408 . S
C1034 C1032 1.363 . S
C1034 C1035 1.370 . S
C1034 C1038 1.524 . S
C1035 C1027 1.503 . S
C1035 C1034 1.370 . S
C1035 C1036 1.403 . S
C1036 C1035 1.403 . S
C1036 C1037 1.404 . S
C1036 C1039 1.539 . S
C1037 C1033 1.408 . S
C1037 C1036 1.404 . S
C1037 H1049 0.930 . S
C1038 C1034 1.524 . S
C1038 H1050 0.956 . S
C1038 H1051 0.961 . S
C1038 H1052 0.961 . S
C1039 C1036 1.539 . S
C1039 H1053 0.958 . S
C1039 H1054 0.961 . S
C1039 H1055 0.960 . S
H1040 C1024 0.931 . S
H1041 C1029 0.929 . S
H1042 C1030 0.960 . S
H1043 C1030 0.962 . S
H1044 C1030 0.960 . S
H1045 C1031 0.961 . S
H1046 C1031 0.961 . S
H1047 C1031 0.961 . S
H1048 C1032 0.931 . S
H1049 C1037 0.930 . S
H1050 C1038 0.956 . S
H1051 C1038 0.961 . S
H1052 C1038 0.961 . S
H1053 C1039 0.958 . S
H1054 C1039 0.961 . S
H1055 C1039 0.960 . S
C1056 C1057 1.391 . S
C1056 C1058 1.394 . S
C1056 H1072 0.931 . S
C1057 C1056 1.391 . S
C1057 C1061 1.376 . S
C1058 C1056 1.394 . S
C1058 C1059 1.369 . S
C1058 C1062 1.531 . S
C1059 C1058 1.369 . S
C1059 C1060 1.410 . S
C1059 C1067 1.503 . S
C1060 C1059 1.410 . S
C1060 C1061 1.392 . S
C1060 C1063 1.511 . S
C1061 C1057 1.376 . S
C1061 C1060 1.392 . S
C1061 H1073 0.929 . S
C1062 C1058 1.531 . S
C1062 H1074 0.960 . S
C1062 H1075 0.962 . S
C1062 H1076 0.960 . S
C1063 C1060 1.511 . S
C1063 H1077 0.961 . S
C1063 H1078 0.961 . S
C1063 H1079 0.961 . S
C1064 C1065 1.370 . S
C1064 C1066 1.363 . S
C1064 H1080 0.931 . S
C1065 C1064 1.370 . S
C1065 C1069 1.408 . S
C1066 C1064 1.363 . S
C1066 C1067 1.370 . S
C1066 C1070 1.524 . S
C1067 C1059 1.503 . S
C1067 C1066 1.370 . S
C1067 C1068 1.403 . S
C1068 C1067 1.403 . S
C1068 C1069 1.404 . S
C1068 C1071 1.539 . S
C1069 C1065 1.408 . S
C1069 C1068 1.404 . S
C1069 H1081 0.930 . S
C1070 C1066 1.524 . S
C1070 H1082 0.956 . S
C1070 H1083 0.961 . S
C1070 H1084 0.961 . S
C1071 C1068 1.539 . S
C1071 H1085 0.958 . S
C1071 H1086 0.961 . S
C1071 H1087 0.960 . S
H1072 C1056 0.931 . S
H1073 C1061 0.929 . S
H1074 C1062 0.960 . S
H1075 C1062 0.962 . S
H1076 C1062 0.960 . S
H1077 C1063 0.961 . S
H1078 C1063 0.961 . S
H1079 C1063 0.961 . S
H1080 C1064 0.931 . S
H1081 C1069 0.930 . S
H1082 C1070 0.956 . S
H1083 C1070 0.961 . S
H1084 C1070 0.961 . S
H1085 C1071 0.958 . S
H1086 C1071 0.961 . S
H1087 C1071 0.960 . S
C1088 C1089 1.391 . S
C1088 C1090 1.394 . S
C1088 H1104 0.931 . S
C1089 C1088 1.391 . S
C1089 C1093 1.376 . S
C1090 C1088 1.394 . S
C1090 C1091 1.369 . S
C1090 C1094 1.531 . S
C1091 C1090 1.369 . S
C1091 C1092 1.410 . S
C1091 C1099 1.503 1_545 S
C1092 C1091 1.410 . S
C1092 C1093 1.392 . S
C1092 C1095 1.511 . S
C1093 C1089 1.376 . S
C1093 C1092 1.392 . S
C1093 H1105 0.929 . S
C1094 C1090 1.531 . S
C1094 H1106 0.960 1_545 S
C1094 H1107 0.962 1_545 S
C1094 H1108 0.960 . S
C1095 C1092 1.511 . S
C1095 H1109 0.961 . S
C1095 H1110 0.961 1_545 S
C1095 H1111 0.961 . S
C1096 C1097 1.370 . S
C1096 C1098 1.363 . S
C1096 H1112 0.931 . S
C1097 C1096 1.370 . S
C1097 C1101 1.408 . S
C1098 C1096 1.363 . S
C1098 C1099 1.370 . S
C1098 C1102 1.524 . S
C1099 C1091 1.503 1_565 S
C1099 C1098 1.370 . S
C1099 C1100 1.403 . S
C1100 C1099 1.403 . S
C1100 C1101 1.404 . S
C1100 C1103 1.539 1_565 S
C1101 C1097 1.408 . S
C1101 C1100 1.404 . S
C1101 H1113 0.930 . S
C1102 C1098 1.524 . S
C1102 H1114 0.956 . S
C1102 H1115 0.961 . S
C1102 H1116 0.961 . S
C1103 C1100 1.539 1_545 S
C1103 H1117 0.958 . S
C1103 H1118 0.961 . S
C1103 H1119 0.960 . S
H1104 C1088 0.931 . S
H1105 C1093 0.929 . S
H1106 C1094 0.960 1_565 S
H1107 C1094 0.962 1_565 S
H1108 C1094 0.960 . S
H1109 C1095 0.961 . S
H1110 C1095 0.961 1_565 S
H1111 C1095 0.961 . S
H1112 C1096 0.931 . S
H1113 C1101 0.930 . S
H1114 C1102 0.956 . S
H1115 C1102 0.961 . S
H1116 C1102 0.961 . S
H1117 C1103 0.958 . S
H1118 C1103 0.961 . S
H1119 C1103 0.960 . S
C1120 C1121 1.391 . S
C1120 C1122 1.394 . S
C1120 H1136 0.931 . S
C1121 C1120 1.391 . S
C1121 C1125 1.376 . S
C1122 C1120 1.394 . S
C1122 C1123 1.369 . S
C1122 C1126 1.531 . S
C1123 C1122 1.369 . S
C1123 C1124 1.410 . S
C1123 C1131 1.503 . S
C1124 C1123 1.410 . S
C1124 C1125 1.392 . S
C1124 C1127 1.511 . S
C1125 C1121 1.376 . S
C1125 C1124 1.392 . S
C1125 H1137 0.929 . S
C1126 C1122 1.531 . S
C1126 H1138 0.960 . S
C1126 H1139 0.962 . S
C1126 H1140 0.960 . S
C1127 C1124 1.511 . S
C1127 H1141 0.961 . S
C1127 H1142 0.961 . S
C1127 H1143 0.961 . S
C1128 C1129 1.370 . S
C1128 C1130 1.363 . S
C1128 H1144 0.931 . S
C1129 C1128 1.370 . S
C1129 C1133 1.408 . S
C1130 C1128 1.363 . S
C1130 C1131 1.370 . S
C1130 C1134 1.524 . S
C1131 C1123 1.503 . S
C1131 C1130 1.370 . S
C1131 C1132 1.403 . S
C1132 C1131 1.403 . S
C1132 C1133 1.404 . S
C1132 C1135 1.539 . S
C1133 C1129 1.408 . S
C1133 C1132 1.404 . S
C1133 H1145 0.930 . S
C1134 C1130 1.524 . S
C1134 H1146 0.956 . S
C1134 H1147 0.961 . S
C1134 H1148 0.961 . S
C1135 C1132 1.539 . S
C1135 H1149 0.958 . S
C1135 H1150 0.961 . S
C1135 H1151 0.960 . S
H1136 C1120 0.931 . S
H1137 C1125 0.929 . S
H1138 C1126 0.960 . S
H1139 C1126 0.962 . S
H1140 C1126 0.960 . S
H1141 C1127 0.961 . S
H1142 C1127 0.961 . S
H1143 C1127 0.961 . S
H1144 C1128 0.931 . S
H1145 C1133 0.930 . S
H1146 C1134 0.956 . S
H1147 C1134 0.961 . S
H1148 C1134 0.961 . S
H1149 C1135 0.958 . S
H1150 C1135 0.961 . S
H1151 C1135 0.960 . S
C1152 C1153 1.391 . S
C1152 C1154 1.394 . S
C1152 H1168 0.931 . S
C1153 C1152 1.391 . S
C1153 C1157 1.376 . S
C1154 C1152 1.394 . S
C1154 C1155 1.369 . S
C1154 C1158 1.531 . S
C1155 C1154 1.369 . S
C1155 C1156 1.410 . S
C1155 C1163 1.503 . S
C1156 C1155 1.410 . S
C1156 C1157 1.392 . S
C1156 C1159 1.511 . S
C1157 C1153 1.376 . S
C1157 C1156 1.392 . S
C1157 H1169 0.929 . S
C1158 C1154 1.531 . S
C1158 H1170 0.960 . S
C1158 H1171 0.962 . S
C1158 H1172 0.960 . S
C1159 C1156 1.511 . S
C1159 H1173 0.961 . S
C1159 H1174 0.961 . S
C1159 H1175 0.961 . S
C1160 C1161 1.370 . S
C1160 C1162 1.363 . S
C1160 H1176 0.931 . S
C1161 C1160 1.370 . S
C1161 C1165 1.408 . S
C1162 C1160 1.363 . S
C1162 C1163 1.370 . S
C1162 C1166 1.524 . S
C1163 C1155 1.503 . S
C1163 C1162 1.370 . S
C1163 C1164 1.403 . S
C1164 C1163 1.403 . S
C1164 C1165 1.404 . S
C1164 C1167 1.539 . S
C1165 C1161 1.408 . S
C1165 C1164 1.404 . S
C1165 H1177 0.930 . S
C1166 C1162 1.524 . S
C1166 H1178 0.956 . S
C1166 H1179 0.961 . S
C1166 H1180 0.961 . S
C1167 C1164 1.539 . S
C1167 H1181 0.958 . S
C1167 H1182 0.961 . S
C1167 H1183 0.960 . S
H1168 C1152 0.931 . S
H1169 C1157 0.929 . S
H1170 C1158 0.960 . S
H1171 C1158 0.962 . S
H1172 C1158 0.960 . S
H1173 C1159 0.961 . S
H1174 C1159 0.961 . S
H1175 C1159 0.961 . S
H1176 C1160 0.931 . S
H1177 C1165 0.930 . S
H1178 C1166 0.956 . S
H1179 C1166 0.961 . S
H1180 C1166 0.961 . S
H1181 C1167 0.958 . S
H1182 C1167 0.961 . S
H1183 C1167 0.960 . S
C1184 C1185 1.391 . S
C1184 C1186 1.394 . S
C1184 H1200 0.931 . S
C1185 C1184 1.391 . S
C1185 C1189 1.376 . S
C1186 C1184 1.394 . S
C1186 C1187 1.369 . S
C1186 C1190 1.531 . S
C1187 C1186 1.369 . S
C1187 C1188 1.410 . S
C1187 C1195 1.503 1_545 S
C1188 C1187 1.410 . S
C1188 C1189 1.392 . S
C1188 C1191 1.511 . S
C1189 C1185 1.376 . S
C1189 C1188 1.392 . S
C1189 H1201 0.929 . S
C1190 C1186 1.531 . S
C1190 H1202 0.960 . S
C1190 H1203 0.984 . S
C1190 H1204 0.960 . S
C1191 C1188 1.511 . S
C1191 H1205 0.961 . S
C1191 H1206 0.961 . S
C1191 H1207 0.961 . S
C1192 C1193 1.370 . S
C1192 C1194 1.363 . S
C1192 H1208 0.931 . S
C1193 C1192 1.370 . S
C1193 C1197 1.408 . S
C1194 C1192 1.363 . S
C1194 C1195 1.370 . S
C1194 C1198 1.524 . S
C1195 C1187 1.503 1_565 S
C1195 C1194 1.370 . S
C1195 C1196 1.403 1_565 S
C1196 C1195 1.403 1_545 S
C1196 C1197 1.404 1_545 S
C1196 C1199 1.539 . S
C1197 C1193 1.408 . S
C1197 C1196 1.404 1_565 S
C1197 H1209 0.930 . S
C1198 C1194 1.524 . S
C1198 H1210 0.956 . S
C1198 H1211 0.961 . S
C1198 H1212 0.961 . S
C1199 C1196 1.539 . S
C1199 H1213 0.958 . S
C1199 H1214 0.961 . S
C1199 H1215 0.960 . S
H1200 C1184 0.931 . S
H1201 C1189 0.929 . S
H1202 C1190 0.960 . S
H1203 C1190 0.984 . S
H1204 C1190 0.960 . S
H1205 C1191 0.961 . S
H1206 C1191 0.961 . S
H1207 C1191 0.961 . S
H1208 C1192 0.931 . S
H1209 C1197 0.930 . S
H1210 C1198 0.956 . S
H1211 C1198 0.961 . S
H1212 C1198 0.961 . S
H1213 C1199 0.958 . S
H1214 C1199 0.961 . S
H1215 C1199 0.960 . S
C1216 C1217 1.391 . S
C1216 C1218 1.394 . S
C1216 H1232 0.931 . S
C1217 C1216 1.391 . S
C1217 C1221 1.376 . S
C1218 C1216 1.394 . S
C1218 C1219 1.369 . S
C1218 C1222 1.531 . S
C1219 C1218 1.369 . S
C1219 C1220 1.410 . S
C1219 C1227 1.503 . S
C1220 C1219 1.410 . S
C1220 C1221 1.392 . S
C1220 C1223 1.511 . S
C1221 C1217 1.376 . S
C1221 C1220 1.392 . S
C1221 H1233 0.929 . S
C1222 C1218 1.531 . S
C1222 H1234 0.960 . S
C1222 H1235 0.962 . S
C1222 H1236 0.960 . S
C1223 C1220 1.511 . S
C1223 H1237 0.961 . S
C1223 H1238 0.961 . S
C1223 H1239 0.961 . S
C1224 C1225 1.370 . S
C1224 C1226 1.363 . S
C1224 H1240 0.931 . S
C1225 C1224 1.370 . S
C1225 C1229 1.408 . S
C1226 C1224 1.363 . S
C1226 C1227 1.370 . S
C1226 C1230 1.524 . S
C1227 C1219 1.503 . S
C1227 C1226 1.370 . S
C1227 C1228 1.403 . S
C1228 C1227 1.403 . S
C1228 C1229 1.404 . S
C1228 C1231 1.539 . S
C1229 C1225 1.408 . S
C1229 C1228 1.404 . S
C1229 H1241 0.930 . S
C1230 C1226 1.524 . S
C1230 H1242 0.956 . S
C1230 H1243 0.961 . S
C1230 H1244 0.961 . S
C1231 C1228 1.539 . S
C1231 H1245 0.958 . S
C1231 H1246 0.961 . S
C1231 H1247 0.960 . S
H1232 C1216 0.931 . S
H1233 C1221 0.929 . S
H1234 C1222 0.960 . S
H1235 C1222 0.962 . S
H1236 C1222 0.960 . S
H1237 C1223 0.961 . S
H1238 C1223 0.961 . S
H1239 C1223 0.961 . S
H1240 C1224 0.931 . S
H1241 C1229 0.930 . S
H1242 C1230 0.956 . S
H1243 C1230 0.961 . S
H1244 C1230 0.961 . S
H1245 C1231 0.958 . S
H1246 C1231 0.961 . S
H1247 C1231 0.960 . S
C225 C9 1.513 . S
C233 C191 1.509 . S
C257 C23 1.517 . S
C265 C135 1.507 . S
C289 C205 1.216 . S
C297 C37 1.214 . S
C321 C51 1.217 . S
C329 C219 1.206 . S
C353 C65 1.513 . S
C361 C93 1.509 . S
C385 C149 1.522 . S
C393 C79 1.521 . S
C417 C163 1.204 . S
C425 C107 1.212 . S
C449 C121 1.193 . S
C457 C177 1.209 . S
C481 C35 1.380 . S
C489 C7 1.454 . S
C513 C21 1.423 . S
C521 C49 1.401 . S
C545 C174 1.334 . S
C553 C6 1.461 . S
C577 C20 1.477 . S
C585 C160 1.394 . S
C609 C62 1.484 . S
C617 C34 1.376 . S
C641 C146 1.425 . S
C649 C48 1.395 . S
C673 C22 2.312 . S
C681 C8 2.313 . S
C705 C50 1.518 . S
C713 C36 1.525 . S
C737 C148 2.310 . S
C745 C64 2.313 . S
C769 C104 1.653 . S
C777 C78 1.774 . S
C801 C92 1.759 . S
C809 C118 1.698 . S
C833 C217 1.679 . S
C841 C76 1.718 . S
C865 C90 1.718 . S
C873 C203 1.666 . S
C897 C132 1.700 . S
C905 C105 1.663 . S
C929 C119 1.689 . S
C937 C188 1.720 . S
C961 C91 0.958 . S
C969 C77 0.977 . S
C993 C120 1.845 . S
C1001 C106 1.848 . S
C1025 C133 0.959 . S
C1033 C189 0.978 . S
C1057 C147 1.467 . S
C1065 C161 1.401 . S
C1089 C175 1.364 . S
C1097 C63 1.450 . S
C1121 C176 1.512 . S
C1129 C162 1.524 . S
C1153 C202 1.711 . S
C1161 C190 1.778 . S
C1185 C134 1.761 . S
C1193 C216 1.700 . S
C1217 C218 1.842 . S
C1225 C204 1.847 . S
