# Generated by pormake.
# Topology fne, (5)-cn, num edge types: 1
# Building blocks:
#     Node 0, Type 0, BuildingBlock: BEQFEK_clean_sbu_0, # of connection points: 5
#     Node 1, Type 0, BuildingBlock: BEQFEK_clean_sbu_0, # of connection points: 5
#     Node 2, Type 0, BuildingBlock: BEQFEK_clean_sbu_0, # of connection points: 5
#     Node 3, Type 0, BuildingBlock: BEQFEK_clean_sbu_0, # of connection points: 5
#     Node 4, Type 0, BuildingBlock: BEQFEK_clean_sbu_0, # of connection points: 5
#     Node 5, Type 0, BuildingBlock: BEQFEK_clean_sbu_0, # of connection points: 5
#     Edge 6, Type (0, 0), BuildingBlock: ZUJKAS_clean_linker_0, # of connection points: 2
#     Edge 7, Type (0, 0), BuildingBlock: ZUJKAS_clean_linker_0, # of connection points: 2
#     Edge 8, Type (0, 0), BuildingBlock: ZUJKAS_clean_linker_0, # of connection points: 2
#     Edge 9, Type (0, 0), BuildingBlock: ZUJKAS_clean_linker_0, # of connection points: 2
#     Edge 10, Type (0, 0), BuildingBlock: ZUJKAS_clean_linker_0, # of connection points: 2
#     Edge 11, Type (0, 0), BuildingBlock: ZUJKAS_clean_linker_0, # of connection points: 2
#     Edge 12, Type (0, 0), BuildingBlock: ZUJKAS_clean_linker_0, # of connection points: 2
#     Edge 13, Type (0, 0), BuildingBlock: ZUJKAS_clean_linker_0, # of connection points: 2
#     Edge 14, Type (0, 0), BuildingBlock: ZUJKAS_clean_linker_0, # of connection points: 2
#     Edge 15, Type (0, 0), BuildingBlock: ZUJKAS_clean_linker_0, # of connection points: 2
#     Edge 16, Type (0, 0), BuildingBlock: ZUJKAS_clean_linker_0, # of connection points: 2
#     Edge 17, Type (0, 0), BuildingBlock: ZUJKAS_clean_linker_0, # of connection points: 2
#     Edge 18, Type (0, 0), BuildingBlock: ZUJKAS_clean_linker_0, # of connection points: 2
#     Edge 19, Type (0, 0), BuildingBlock: ZUJKAS_clean_linker_0, # of connection points: 2
#     Edge 20, Type (0, 0), BuildingBlock: ZUJKAS_clean_linker_0, # of connection points: 2
# Relax obj value: 0.201
# Max RMSD: 0.173
# Mean RMSD: 0.173
data_MOF--net-fne--node1-BEQFEK_clean_sbu_0--edge1-ZUJKAS_clean_linker_0
_symmetry_space_group_name_H-M    P1
_symmetry_Int_Tables_number       1
_symmetry_cell_setting            triclinic
loop_
_symmetry_equiv_pos_as_xyz
'x, y, z'
_cell_length_a     56.710062
_cell_length_b     56.724421
_cell_length_c     22.903948
_cell_angle_alpha  89.936358
_cell_angle_beta   90.000778
_cell_angle_gamma 120.00529
loop_
_atom_site_label
_atom_site_type_symbol
_atom_site_fract_x
_atom_site_fract_y
_atom_site_fract_z
_atom_type_partial_charge
Co0 Co 0.55603 0.30121 0.97717 0.0
Co1 Co 0.53895 0.27787 0.10287 0.0
C2 C 0.58828 0.28213 0.04149 0.0
O3 O 0.58554 0.29365 -0.00357 0.0
O4 O 0.57155 0.27506 0.08376 0.0
C5 C 0.58649 0.33219 0.87671 0.0
O6 O 0.60825 0.33723 0.90677 0.0
C7 C 0.55101 0.28598 0.22612 0.0
C8 C 0.51196 0.25671 0.26756 0.0
C9 C 0.53816 0.27752 0.27978 0.0
N10 N 0.53305 0.27142 0.18421 0.0
N11 N 0.50982 0.2537 0.20913 0.0
C12 C 0.57998 0.30734 0.21434 0.0
H13 H 0.58751 0.30266 0.17397 0.0
H14 H 0.58128 0.32733 0.20802 0.0
H15 H 0.59333 0.30891 0.25133 0.0
C16 C 0.55367 0.34759 0.03026 0.0
N17 N 0.55223 0.32319 0.03366 0.0
N18 N 0.54373 0.31284 0.08599 0.0
C19 C 0.53889 0.33012 0.11725 0.0
C20 C 0.54542 0.35283 0.08331 0.0
C21 C 0.56242 0.36518 0.97692 0.0
H22 H 0.54687 0.35515 0.94224 0.0
H23 H 0.58186 0.36746 0.96059 0.0
H24 H 0.56521 0.38563 0.98599 0.0
O25 O 0.52138 0.26609 0.96905 0.0
O26 O 0.50796 0.24946 0.05841 0.0
H27 H 0.51003 0.30142 0.1785 0.0
H28 H 0.51342 0.33471 0.18116 0.0
C29 C 0.52465 0.32353 0.17513 0.0
H30 H 0.53985 0.32967 0.21068 0.0
H31 H 0.49233 0.24014 0.18624 0.0
O32 O 0.56312 0.31836 0.89982 0.0
C33 C 0.50439 0.24772 0.00332 0.0
Co34 Co 0.49613 0.60907 0.31432 0.0
Co35 Co 0.50083 0.58705 0.43614 0.0
C36 C 0.54577 0.63977 0.38637 0.0
O37 O 0.53219 0.63825 0.34091 0.0
O38 O 0.53594 0.62131 0.42536 0.0
C39 C 0.50334 0.64006 0.20954 0.0
O40 O 0.5266 0.65795 0.23313 0.0
C41 C 0.50649 0.59252 0.56137 0.0
C42 C 0.48984 0.55013 0.5917 0.0
C43 C 0.5002 0.57664 0.61125 0.0
N44 N 0.49998 0.57616 0.51471 0.0
N45 N 0.49048 0.55089 0.53291 0.0
C46 C 0.51511 0.62212 0.55739 0.0
H47 H 0.50907 0.62673 0.5147 0.0
H48 H 0.50589 0.62804 0.59312 0.0
H49 H 0.5376 0.6344 0.56123 0.0
C50 C 0.44511 0.60156 0.36667 0.0
N51 N 0.46867 0.60126 0.36997 0.0
N52 N 0.47028 0.59156 0.42108 0.0
C53 C 0.44758 0.58513 0.45193 0.0
C54 C 0.43089 0.59123 0.41846 0.0
C55 C 0.43564 0.6094 0.31293 0.0
H56 H 0.43486 0.59635 0.27605 0.0
H57 H 0.45059 0.63078 0.30132 0.0
H58 H 0.41523 0.60718 0.31887 0.0
O59 O 0.49843 0.57598 0.29789 0.0
O60 O 0.50019 0.55899 0.38405 0.0
H61 H 0.44428 0.55521 0.51363 0.0
H62 H 0.42164 0.56829 0.52853 0.0
C63 C 0.44213 0.57358 0.5125 0.0
H64 H 0.45721 0.58888 0.54274 0.0
H65 H 0.48341 0.53409 0.5053 0.0
O66 O 0.48703 0.61902 0.23848 0.0
C67 C 0.49968 0.55788 0.3285 0.0
Co68 Co 0.12603 0.54761 0.64105 0.0
Co69 Co 0.15138 0.554 0.76494 0.0
C70 C 0.14495 0.59851 0.7055 0.0
O71 O 0.13263 0.58417 0.66112 0.0
O72 O 0.15317 0.58909 0.74619 0.0
C73 C 0.09604 0.54755 0.53901 0.0
O74 O 0.09237 0.5656 0.56731 0.0
C75 C 0.14312 0.55725 0.88834 0.0
C76 C 0.17452 0.55061 0.92965 0.0
C77 C 0.15255 0.55418 0.94204 0.0
N78 N 0.15831 0.5549 0.84628 0.0
N79 N 0.17726 0.55122 0.87111 0.0
C80 C 0.12031 0.56276 0.87664 0.0
H81 H 0.10084 0.54321 0.87342 0.0
H82 H 0.11857 0.57499 0.9124 0.0
H83 H 0.12345 0.57361 0.83469 0.0
C84 C 0.0806 0.49872 0.69712 0.0
N85 N 0.10515 0.52159 0.69846 0.0
N86 N 0.11666 0.52337 0.74931 0.0
C87 C 0.10026 0.50114 0.78125 0.0
C88 C 0.07664 0.48505 0.74979 0.0
C89 C 0.06152 0.49037 0.64634 0.0
H90 H 0.06156 0.50846 0.62785 0.0
H91 H 0.04048 0.47501 0.6593 0.0
H92 H 0.06866 0.48164 0.61191 0.0
O93 O 0.1619 0.54969 0.63112 0.0
O94 O 0.17963 0.55191 0.71886 0.0
H95 H 0.0985 0.47086 0.84115 0.0
H96 H 0.10236 0.50115 0.87467 0.0
C97 C 0.10856 0.49333 0.83685 0.0
H98 H 0.13091 0.50188 0.83792 0.0
H99 H 0.19159 0.54848 0.84816 0.0
O100 O 0.10853 0.53694 0.56385 0.0
C101 C 0.18084 0.551 0.66342 0.0
Co102 Co 0.81976 0.17834 0.97361 0.0
Co103 Co 0.83814 0.20318 0.09834 0.0
C104 C 0.78684 0.19588 0.0424 0.0
O105 O 0.79 0.18503 -0.00328 0.0
O106 O 0.80396 0.20364 0.08399 0.0
C107 C 0.78794 0.15011 0.87248 0.0
O108 O 0.76747 0.14901 0.90164 0.0
C109 C 0.82902 0.20088 0.22278 0.0
C110 C 0.87016 0.22755 0.25863 0.0
C111 C 0.84327 0.21027 0.27474 0.0
N112 N 0.84665 0.21194 0.17834 0.0
N113 N 0.87117 0.22821 0.19986 0.0
C114 C 0.79986 0.17925 0.21476 0.0
H115 H 0.79688 0.16941 0.17145 0.0
H116 H 0.79338 0.16356 0.24951 0.0
H117 H 0.78683 0.18869 0.21704 0.0
C118 C 0.82609 0.13421 0.0266 0.0
N119 N 0.8261 0.15791 0.03004 0.0
N120 N 0.83452 0.16857 0.08215 0.0
C121 C 0.84045 0.15206 0.11348 0.0
C122 C 0.83529 0.12975 0.07933 0.0
C123 C 0.81959 0.11758 0.9721 0.0
H124 H 0.83319 0.13043 0.9364 0.0
H125 H 0.79834 0.11088 0.95876 0.0
H126 H 0.82209 0.09955 0.97808 0.0
O127 O 0.8533 0.21386 0.96134 0.0
O128 O 0.86717 0.23177 0.04949 0.0
H129 H 0.86854 0.17837 0.17824 0.0
H130 H 0.85655 0.14268 0.19091 0.0
C131 C 0.85075 0.15752 0.17504 0.0
H132 H 0.83451 0.15608 0.20413 0.0
H133 H 0.88868 0.23897 0.17452 0.0
O134 O 0.81118 0.16034 0.8966 0.0
C135 C 0.87012 0.23301 0.99422 0.0
Co136 Co 0.8798 0.87006 0.31002 0.0
Co137 Co 0.87489 0.8903 0.43327 0.0
C138 C 0.83015 0.83805 0.37814 0.0
O139 O 0.84385 0.8397 0.33282 0.0
O140 O 0.83996 0.85633 0.41742 0.0
C141 C 0.88062 0.84001 0.2082 0.0
O142 O 0.86327 0.81783 0.23632 0.0
C143 C 0.87273 0.88035 0.55737 0.0
C144 C 0.88169 0.91961 0.59614 0.0
C145 C 0.87728 0.89391 0.61011 0.0
N146 N 0.87512 0.89746 0.51424 0.0
N147 N 0.88015 0.92082 0.53759 0.0
C148 C 0.86597 0.85149 0.54762 0.0
H149 H 0.85349 0.84303 0.5079 0.0
H150 H 0.88502 0.85084 0.5413 0.0
H151 H 0.85477 0.8385 0.58555 0.0
C152 C 0.93025 0.87581 0.3622 0.0
N153 N 0.90692 0.87659 0.36549 0.0
N154 N 0.90582 0.8869 0.41613 0.0
C155 C 0.92893 0.89395 0.44588 0.0
C156 C 0.94489 0.88681 0.41303 0.0
C157 C 0.93905 0.86647 0.30984 0.0
H158 H 0.94268 0.8806 0.27297 0.0
H159 H 0.92252 0.84598 0.29675 0.0
H160 H 0.95796 0.86579 0.31861 0.0
O161 O 0.87674 0.90323 0.29887 0.0
O162 O 0.8756 0.91974 0.38606 0.0
H163 H 0.92887 0.92332 0.50497 0.0
H164 H 0.9589 0.92008 0.50943 0.0
C165 C 0.93653 0.90879 0.50298 0.0
H166 H 0.92742 0.89395 0.53918 0.0
H167 H 0.88328 0.93777 0.51354 0.0
O168 O 0.89008 0.86299 0.23296 0.0
C169 C 0.87559 0.9211 0.33053 0.0
Co170 Co 0.24865 0.9346 0.64821 0.0
Co171 Co 0.22277 0.92632 0.77194 0.0
C172 C 0.23011 0.88298 0.71056 0.0
O173 O 0.24207 0.89778 0.6664 0.0
O174 O 0.22181 0.89181 0.75218 0.0
C175 C 0.27995 0.93641 0.54703 0.0
O176 O 0.28455 0.91897 0.57543 0.0
C177 C 0.23017 0.92215 0.8954 0.0
C178 C 0.19914 0.92958 0.93591 0.0
C179 C 0.22084 0.92565 0.94882 0.0
N180 N 0.21524 0.9247 0.85302 0.0
N181 N 0.19645 0.92876 0.87738 0.0
C182 C 0.2528 0.91632 0.88419 0.0
H183 H 0.24903 0.90439 0.84364 0.0
H184 H 0.27221 0.93575 0.87842 0.0
H185 H 0.25502 0.90492 0.92119 0.0
C186 C 0.29353 0.98306 0.70624 0.0
N187 N 0.26914 0.95998 0.70675 0.0
N188 N 0.25738 0.9575 0.7576 0.0
C189 C 0.27348 0.97947 0.79045 0.0
C190 C 0.29714 0.99614 0.7595 0.0
C191 C 0.31282 0.99212 0.65571 0.0
H192 H 0.3133 0.97438 0.6368 0.0
H193 H 0.3337 0.0077 0.66904 0.0
H194 H 0.30549 0.00078 0.62147 0.0
O195 O 0.21294 0.93284 0.63805 0.0
O196 O 0.19436 0.92806 0.7258 0.0
H197 H 0.27487 0.00887 0.85228 0.0
H198 H 0.27092 0.97814 0.88383 0.0
C199 C 0.26488 0.98648 0.84662 0.0
H200 H 0.24253 0.97788 0.84738 0.0
H201 H 0.18243 0.93186 0.85407 0.0
O202 O 0.26654 0.94606 0.57164 0.0
C203 C 0.1936 0.93039 0.6706 0.0
H204 H 0.62671 0.29161 0.95795 0.0
H205 H 0.66014 0.2763 0.9587 0.0
H206 H 0.63283 0.24158 0.1299 0.0
H207 H 0.59934 0.25664 0.12974 0.0
H208 H 0.7027 0.28736 0.04166 0.0
H209 H 0.62512 0.17747 0.02782 0.0
H210 H 0.61757 0.2041 0.01078 0.0
H211 H 0.61983 0.19579 0.08551 0.0
C212 C 0.62791 0.28087 -0.00405 0.0
C213 C 0.61016 0.27514 0.04356 0.0
C214 C 0.647 0.27213 -0.00376 0.0
C215 C 0.64853 0.25741 0.04389 0.0
C216 C 0.63155 0.25248 0.09226 0.0
H217 H 0.77497 0.22051 0.13113 0.0
H218 H 0.74077 0.23467 0.13133 0.0
C219 C 0.61253 0.26123 0.09214 0.0
C220 C 0.66777 0.24699 0.04297 0.0
H221 H 0.67079 0.18837 0.04442 0.0
C222 C 0.69578 0.26574 0.04213 0.0
C223 C 0.65856 0.21876 0.04288 0.0
C224 C 0.62863 0.19779 0.04128 0.0
C225 C 0.71492 0.25696 0.04241 0.0
C226 C 0.70571 0.22874 0.04413 0.0
C227 C 0.6777 0.20998 0.04373 0.0
C228 C 0.72498 0.21838 0.04572 0.0
C229 C 0.74485 0.27791 0.04023 0.0
C230 C 0.72665 0.20362 -0.0016 0.0
C231 C 0.74613 0.19541 -0.00191 0.0
C232 C 0.76418 0.20173 0.04533 0.0
C233 C 0.76156 0.21548 0.09382 0.0
C234 C 0.74213 0.22371 0.09396 0.0
H235 H 0.74835 0.29815 0.02599 0.0
H236 H 0.75374 0.28018 0.08443 0.0
H237 H 0.75583 0.27139 0.01005 0.0
H238 H 0.71339 0.19915 0.96097 0.0
H239 H 0.74751 0.18477 0.96016 0.0
H240 H 0.79587 0.82722 0.47079 0.0
H241 H 0.74773 0.79274 0.47712 0.0
H242 H 0.75149 0.76385 0.30523 0.0
H243 H 0.79981 0.79816 0.2985 0.0
H244 H 0.70714 0.78857 0.40099 0.0
H245 H 0.713 0.69372 0.40328 0.0
H246 H 0.74206 0.72677 0.41837 0.0
H247 H 0.73119 0.71664 0.3444 0.0
C248 C 0.7866 0.81336 0.43451 0.0
C249 C 0.80171 0.81551 0.38402 0.0
C250 C 0.75907 0.79368 0.43824 0.0
C251 C 0.74614 0.77567 0.39184 0.0
C252 C 0.76123 0.77731 0.3419 0.0
H253 H 0.57456 0.6821 0.31062 0.0
H254 H 0.62297 0.71611 0.31499 0.0
C255 C 0.78882 0.79699 0.33808 0.0
C256 C 0.71652 0.75625 0.39448 0.0
H257 H 0.66904 0.68863 0.3914 0.0
C258 C 0.69878 0.7667 0.39917 0.0
C259 C 0.70577 0.72778 0.39258 0.0
C260 C 0.72396 0.71547 0.3899 0.0
C261 C 0.67047 0.7494 0.40101 0.0
C262 C 0.6597 0.72097 0.39745 0.0
C263 C 0.67743 0.71048 0.39379 0.0
C264 C 0.63004 0.70167 0.39696 0.0
C265 C 0.65231 0.76162 0.40727 0.0
C266 C 0.61803 0.68235 0.44167 0.0
C267 C 0.59038 0.66287 0.43938 0.0
C268 C 0.57429 0.66221 0.39192 0.0
C269 C 0.58631 0.68205 0.34786 0.0
C270 C 0.61396 0.70157 0.35033 0.0
H271 H 0.66372 0.78292 0.42342 0.0
H272 H 0.64354 0.76175 0.36404 0.0
H273 H 0.6352 0.74938 0.43769 0.0
H274 H 0.63017 0.68212 0.47797 0.0
H275 H 0.58182 0.64792 0.47408 0.0
H276 H 0.17184 0.63523 0.7925 0.0
H277 H 0.18592 0.68354 0.79388 0.0
H278 H 0.14761 0.67547 0.62676 0.0
H279 H 0.13326 0.62699 0.62487 0.0
H280 H 0.21957 0.72247 0.70808 0.0
H281 H 0.11859 0.71541 0.73036 0.0
H282 H 0.12391 0.68727 0.74691 0.0
H283 H 0.12134 0.69557 0.67237 0.0
C284 C 0.16613 0.6436 0.75622 0.0
C285 C 0.15143 0.62721 0.7085 0.0
C286 C 0.17426 0.67123 0.75709 0.0
C287 C 0.16768 0.68297 0.7106 0.0
C288 C 0.15258 0.66666 0.6634 0.0
H289 H 0.2408 0.85513 0.62657 0.0
H290 H 0.22691 0.80674 0.62669 0.0
C291 C 0.14446 0.63898 0.66237 0.0
C292 C 0.17763 0.71253 0.7106 0.0
H293 H 0.15657 0.75928 0.71419 0.0
C294 C 0.20585 0.73057 0.70944 0.0
C295 C 0.15961 0.72291 0.71281 0.0
C296 C 0.12917 0.70435 0.71617 0.0
C297 C 0.21656 0.75886 0.71007 0.0
C298 C 0.19852 0.76923 0.71135 0.0
C299 C 0.17031 0.75118 0.71288 0.0
C300 C 0.20844 0.79879 0.71241 0.0
C301 C 0.24704 0.7774 0.71044 0.0
C302 C 0.20262 0.81025 0.76056 0.0
C303 C 0.21046 0.83781 0.76066 0.0
C304 C 0.22411 0.85441 0.71232 0.0
C305 C 0.23041 0.84295 0.66457 0.0
C306 C 0.22256 0.81533 0.66459 0.0
H307 H 0.2579 0.76632 0.72228 0.0
H308 H 0.25388 0.78625 0.66624 0.0
H309 H 0.25299 0.79444 0.74163 0.0
H310 H 0.19172 0.79776 0.79786 0.0
H311 H 0.20531 0.84593 0.79822 0.0
H312 H 0.5267 0.25035 0.38282 0.0
H313 H 0.54271 0.26941 0.48017 0.0
H314 H 0.5893 0.34975 0.40551 0.0
H315 H 0.57199 0.33115 0.30897 0.0
H316 H 0.59437 0.29713 0.52335 0.0
H317 H 0.5462 0.36173 0.53023 0.0
H318 H 0.53811 0.33628 0.47474 0.0
H319 H 0.56915 0.3685 0.47034 0.0
C320 C 0.54031 0.27208 0.38726 0.0
C321 C 0.54866 0.28911 0.33807 0.0
C322 C 0.54954 0.28292 0.44274 0.0
C323 C 0.56712 0.311 0.44999 0.0
C324 C 0.57555 0.32807 0.40094 0.0
H325 H 0.63215 0.35564 0.80737 0.0
H326 H 0.63325 0.35823 0.70044 0.0
C327 C 0.56609 0.31727 0.34553 0.0
C328 C 0.57629 0.32217 0.50923 0.0
H329 H 0.57135 0.3627 0.61272 0.0
C330 C 0.58962 0.31169 0.54285 0.0
C331 C 0.57006 0.3412 0.53421 0.0
C332 C 0.5549 0.35246 0.5008 0.0
C333 C 0.59562 0.31857 0.60185 0.0
C334 C 0.58878 0.33711 0.62731 0.0
C335 C 0.57677 0.34871 0.5928 0.0
C336 C 0.5897 0.34105 0.69123 0.0
C337 C 0.60752 0.30453 0.63717 0.0
C338 C 0.56517 0.33232 0.72127 0.0
C339 C 0.56452 0.3312 0.78196 0.0
C340 C 0.58841 0.33862 0.81383 0.0
C341 C 0.61335 0.34943 0.78394 0.0
C342 C 0.614 0.35077 0.72291 0.0
H343 H 0.60705 0.2873 0.61312 0.0
H344 H 0.62906 0.31934 0.64775 0.0
H345 H 0.59625 0.29662 0.67883 0.0
H346 H 0.54619 0.3249 0.69767 0.0
H347 H 0.54501 0.32314 0.80364 0.0
H348 H 0.46168 0.5491 0.69371 0.0
H349 H 0.4599 0.56381 0.79323 0.0
H350 H 0.5368 0.63735 0.76596 0.0
H351 H 0.53873 0.62269 0.66645 0.0
H352 H 0.49673 0.57522 0.88224 0.0
H353 H 0.48845 0.66633 0.82868 0.0
H354 H 0.48265 0.64055 0.77536 0.0
H355 H 0.51679 0.66577 0.7951 0.0
C356 C 0.47823 0.56837 0.70904 0.0
C357 C 0.50009 0.58502 0.67214 0.0
C358 C 0.4771 0.57682 0.76565 0.0
C359 C 0.49787 0.60198 0.7863 0.0
C360 C 0.52015 0.61827 0.75013 0.0
H361 H 0.53962 0.67408 0.12773 0.0
H362 H 0.5361 0.66707 0.02202 0.0
C363 C 0.52124 0.60986 0.69341 0.0
C364 C 0.49681 0.61042 0.84679 0.0
H365 H 0.49564 0.66014 0.92869 0.0
C366 C 0.49628 0.59368 0.8924 0.0
C367 C 0.49634 0.63458 0.85969 0.0
C368 C 0.49584 0.65276 0.81217 0.0
C369 C 0.49573 0.60063 0.95078 0.0
C370 C 0.49527 0.62476 0.96374 0.0
C371 C 0.49584 0.6416 0.91829 0.0
C372 C 0.49501 0.63288 0.02476 0.0
C373 C 0.49622 0.58237 -0.00174 0.0
C374 C 0.47248 0.61689 0.06048 0.0
C375 C 0.47442 0.62074 0.12079 0.0
C376 C 0.49894 0.64068 0.14614 0.0
C377 C 0.52053 0.65841 0.10958 0.0
C378 C 0.51857 0.65447 0.04918 0.0
H379 H 0.50198 0.56762 0.98118 0.0
H380 H 0.51075 0.59461 0.03328 0.0
H381 H 0.47566 0.57068 0.01809 0.0
H382 H 0.454 0.60035 0.04205 0.0
H383 H 0.45729 0.607 0.14773 0.0
H384 H 0.09876 0.531 0.97338 0.0
H385 H 0.08029 0.52998 0.07004 0.0
H386 H 0.16157 0.57043 0.14137 0.0
H387 H 0.18032 0.57297 0.04384 0.0
H388 H 0.08247 0.50541 0.16639 0.0
H389 H 0.13186 0.61583 0.20907 0.0
H390 H 0.13118 0.60232 0.13739 0.0
H391 H 0.15654 0.60621 0.18992 0.0
C392 C 0.11281 0.54061 0.00912 0.0
C393 C 0.14111 0.5531 0.0006 0.0
C394 C 0.10215 0.53962 0.06458 0.0
C395 C 0.11957 0.55082 0.11263 0.0
C396 C 0.14779 0.5625 0.10456 0.0
H397 H 0.10396 0.51366 0.46796 0.0
H398 H 0.1025 0.51233 0.36204 0.0
C399 C 0.15847 0.56369 0.04899 0.0
C400 C 0.10827 0.54899 0.1718 0.0
H401 H 0.11623 0.58657 0.29382 0.0
C402 C 0.08948 0.52321 0.19398 0.0
C403 C 0.11675 0.57226 0.20724 0.0
C404 C 0.13495 0.60072 0.18441 0.0
C405 C 0.08044 0.5199 0.25199 0.0
C406 C 0.09105 0.54289 0.28904 0.0
C407 C 0.10833 0.56886 0.26567 0.0
C408 C 0.08724 0.54035 0.35318 0.0
C409 C 0.05998 0.49175 0.27311 0.0
C410 C 0.07907 0.55651 0.38379 0.0
C411 C 0.08033 0.55769 0.44478 0.0
C412 C 0.08991 0.54281 0.476 0.0
C413 C 0.09652 0.52543 0.44532 0.0
C414 C 0.09543 0.52441 0.38456 0.0
H415 H 0.04632 0.47931 0.23704 0.0
H416 H 0.07091 0.48131 0.28884 0.0
H417 H 0.04733 0.49246 0.30933 0.0
H418 H 0.0728 0.56907 0.36038 0.0
H419 H 0.07503 0.57121 0.46716 0.0
H420 H 0.74606 0.14157 0.79992 0.0
H421 H 0.74707 0.14287 0.69311 0.0
H422 H 0.82614 0.1493 0.69487 0.0
H423 H 0.82521 0.14775 0.80122 0.0
H424 H 0.78708 0.18862 0.63679 0.0
H425 H 0.78858 0.09697 0.55976 0.0
H426 H 0.77696 0.09928 0.63186 0.0
H427 H 0.81279 0.11436 0.61691 0.0
C428 C 0.76329 0.14241 0.77753 0.0
C429 C 0.7857 0.14487 0.80899 0.0
C430 C 0.76384 0.1432 0.71652 0.0
C431 C 0.78661 0.14604 0.68614 0.0
C432 C 0.80815 0.14661 0.71738 0.0
H433 H 0.87012 0.20184 0.36306 0.0
H434 H 0.85334 0.18498 0.46149 0.0
C435 C 0.80768 0.14593 0.77826 0.0
C436 C 0.78989 0.15255 0.62309 0.0
H437 H 0.80671 0.13516 0.49354 0.0
C438 C 0.79082 0.17667 0.6051 0.0
C439 C 0.79493 0.13698 0.58213 0.0
C440 C 0.79301 0.11031 0.5985 0.0
C441 C 0.79813 0.18644 0.54789 0.0
C442 C 0.80417 0.17139 0.50748 0.0
C443 C 0.8022 0.14671 0.52483 0.0
C444 C 0.81402 0.18165 0.44792 0.0
C445 C 0.80068 0.21346 0.53205 0.0
C446 C 0.7975 0.18551 0.40797 0.0
C447 C 0.80715 0.19541 0.35196 0.0
C448 C 0.8333 0.20116 0.33477 0.0
C449 C 0.84988 0.19757 0.37513 0.0
C450 C 0.84026 0.18775 0.43113 0.0
H451 H 0.80103 0.22513 0.57129 0.0
H452 H 0.81948 0.22609 0.50631 0.0
H453 H 0.78299 0.20988 0.50487 0.0
H454 H 0.77713 0.18078 0.42004 0.0
H455 H 0.79418 0.19865 0.32235 0.0
H456 H 0.86144 0.90581 0.71248 0.0
H457 H 0.86468 0.89047 0.81057 0.0
H458 H 0.90012 0.84496 0.7386 0.0
H459 H 0.89872 0.86171 0.64146 0.0
H460 H 0.84106 0.8394 0.85403 0.0
H461 H 0.95364 0.8873 0.86524 0.0
H462 H 0.93674 0.89529 0.80841 0.0
H463 H 0.93832 0.86443 0.80497 0.0
C464 C 0.87005 0.89265 0.71772 0.0
C465 C 0.87907 0.88433 0.66907 0.0
C466 C 0.87178 0.88381 0.77362 0.0
C467 C 0.88272 0.86664 0.78184 0.0
C468 C 0.89186 0.85841 0.73336 0.0
H469 H 0.85822 0.79587 0.13456 0.0
H470 H 0.86067 0.79707 0.02761 0.0
C471 C 0.89046 0.86753 0.67758 0.0
C472 C 0.88425 0.8573 0.84132 0.0
H473 H 0.92867 0.86035 0.9456 0.0
C474 C 0.86017 0.84379 0.87404 0.0
C475 C 0.90927 0.86307 0.86704 0.0
C476 C 0.93601 0.87852 0.83487 0.0
C477 C 0.86049 0.83695 0.93272 0.0
C478 C 0.88555 0.84303 0.95876 0.0
C479 C 0.90948 0.85545 0.92523 0.0
C480 C 0.88793 0.84063 0.02254 0.0
C481 C 0.83425 0.82482 0.96707 0.0
C482 C 0.90396 0.86434 0.0549 0.0
C483 C 0.90297 0.86366 0.1156 0.0
C484 C 0.88574 0.83925 0.1452 0.0
C485 C 0.87139 0.81505 0.11294 0.0
C486 C 0.87262 0.81573 0.05189 0.0
H487 H 0.81797 0.8263 0.94325 0.0
H488 H 0.82692 0.80296 0.9754 0.0
H489 H 0.83746 0.8352 0.00983 0.0
H490 H 0.9161 0.88375 0.03316 0.0
H491 H 0.91462 0.88261 0.13911 0.0
H492 H 0.26929 0.96831 0.47557 0.0
H493 H 0.26947 0.96857 0.36952 0.0
H494 H 0.30444 0.91628 0.36838 0.0
H495 H 0.30339 0.91505 0.47537 0.0
H496 H 0.30566 0.98167 0.28195 0.0
H497 H 0.23288 0.87 0.28513 0.0
H498 H 0.24276 0.89027 0.35063 0.0
H499 H 0.26554 0.88076 0.31752 0.0
C500 C 0.2774 0.95714 0.453 0.0
C501 C 0.2857 0.9411 0.48388 0.0
C502 C 0.27759 0.95741 0.39223 0.0
C503 C 0.28627 0.94186 0.36111 0.0
C504 C 0.29694 0.92781 0.39169 0.0
H505 H 0.27474 0.94812 0.97923 0.0
H506 H 0.29343 0.95066 0.07622 0.0
C507 C 0.2965 0.92729 0.45277 0.0
C508 C 0.28146 0.93855 0.29738 0.0
H509 H 0.24192 0.89193 0.19459 0.0
C510 C 0.29203 0.96203 0.26252 0.0
C511 C 0.26334 0.91289 0.27254 0.0
C512 C 0.25026 0.88703 0.3083 0.0
C513 C 0.28405 0.96073 0.2041 0.0
C514 C 0.26562 0.9351 0.17957 0.0
C515 C 0.25603 0.91151 0.21367 0.0
C516 C 0.25442 0.9324 0.12005 0.0
C517 C 0.29423 0.98694 0.17037 0.0
C518 C 0.22617 0.92049 0.1122 0.0
C519 C 0.21531 0.91812 0.05641 0.0
C520 C 0.23249 0.92747 0.00747 0.0
C521 C 0.26079 0.93961 0.01554 0.0
C522 C 0.27162 0.94167 0.07125 0.0
H523 H 0.30258 0.00493 0.19968 0.0
H524 H 0.31077 0.98958 0.14046 0.0
H525 H 0.27769 0.98659 0.14373 0.0
H526 H 0.21253 0.91327 0.14939 0.0
H527 H 0.19346 0.90893 0.05152 0.0
H528 H 0.51602 0.372 0.02697 0.0
H529 H 0.50739 0.40822 0.06037 0.0
H530 H 0.55817 0.42141 0.21096 0.0
H531 H 0.5667 0.38521 0.1779 0.0
H532 H 0.48502 0.40745 0.18357 0.0
H533 H 0.58432 0.49892 0.12856 0.0
H534 H 0.57154 0.46689 0.09058 0.0
H535 H 0.5855 0.47087 0.16255 0.0
C536 C 0.52567 0.38303 0.0666 0.0
C537 C 0.54216 0.37615 0.09981 0.0
C538 C 0.52063 0.4035 0.08572 0.0
C539 C 0.53232 0.41748 0.13782 0.0
C540 C 0.54921 0.41096 0.17036 0.0
H541 H 0.49945 0.51371 0.37776 0.0
H542 H 0.50537 0.47884 0.32806 0.0
C543 C 0.55403 0.39035 0.15159 0.0
C544 C 0.52584 0.43796 0.16015 0.0
H545 H 0.55405 0.50583 0.18782 0.0
C546 C 0.49997 0.429 0.18412 0.0
C547 C 0.54543 0.46596 0.16042 0.0
C548 C 0.57325 0.47643 0.13386 0.0
C549 C 0.49341 0.44739 0.21003 0.0
C550 C 0.51332 0.47531 0.21206 0.0
C551 C 0.53891 0.48435 0.18644 0.0
C552 C 0.50822 0.49547 0.24161 0.0
C553 C 0.46531 0.43688 0.2352 0.0
C554 C 0.50801 0.51636 0.20934 0.0
C555 C 0.50461 0.53627 0.23747 0.0
C556 C 0.50166 0.53582 0.29857 0.0
C557 C 0.50163 0.51465 0.3307 0.0
C558 C 0.50489 0.49465 0.3024 0.0
H559 H 0.45066 0.4162 0.21876 0.0
H560 H 0.46632 0.43578 0.28345 0.0
H561 H 0.45749 0.45084 0.22455 0.0
H562 H 0.51068 0.51734 0.16238 0.0
H563 H 0.50479 0.5523 0.21136 0.0
H564 H 0.38688 0.54336 0.4508 0.0
H565 H 0.34309 0.53611 0.48666 0.0
H566 H 0.36928 0.62069 0.45437 0.0
H567 H 0.41368 0.62819 0.42101 0.0
H568 H 0.34824 0.60572 0.56093 0.0
H569 H 0.27796 0.5292 0.40267 0.0
H570 H 0.29947 0.51861 0.43741 0.0
H571 H 0.3143 0.54832 0.39124 0.0
C572 C 0.38313 0.56032 0.45114 0.0
C573 C 0.40354 0.58636 0.43378 0.0
C574 C 0.35805 0.55611 0.47095 0.0
C575 C 0.35274 0.57777 0.47246 0.0
C576 C 0.37291 0.60367 0.45337 0.0
H577 H 0.19453 0.55936 0.54797 0.0
H578 H 0.23625 0.56604 0.50225 0.0
C579 C 0.39813 0.60792 0.43409 0.0
C580 C 0.32696 0.5738 0.49787 0.0
H581 H 0.25782 0.53393 0.49063 0.0
C582 C 0.32846 0.59018 0.54521 0.0
C583 C 0.30116 0.55371 0.47697 0.0
C584 C 0.29808 0.53666 0.42389 0.0
C585 C 0.30488 0.58673 0.57295 0.0
C586 C 0.27913 0.56574 0.55391 0.0
C587 C 0.2776 0.54971 0.50581 0.0
C588 C 0.25347 0.56068 0.58205 0.0
C589 C 0.30785 0.60595 0.62163 0.0
C590 C 0.24899 0.55484 0.64198 0.0
C591 C 0.22522 0.55128 0.66852 0.0
C592 C 0.20529 0.55303 0.63533 0.0
C593 C 0.20943 0.55788 0.57491 0.0
C594 C 0.2333 0.56172 0.54861 0.0
H595 H 0.32772 0.62521 0.61936 0.0
H596 H 0.29128 0.61098 0.62026 0.0
H597 H 0.30685 0.59616 0.66424 0.0
H598 H 0.26396 0.55319 0.66832 0.0
H599 H 0.22254 0.54731 0.71502 0.0
H600 H 0.90516 0.28151 0.04678 0.0
H601 H 0.93993 0.32326 -0.00028 0.0
H602 H 0.92124 0.28207 0.83361 0.0
H603 H 0.88608 0.24044 0.87985 0.0
H604 H 0.98574 0.3342 0.93733 0.0
H605 H 0.91346 0.34799 0.79759 0.0
H606 H 0.90232 0.32406 0.8574 0.0
H607 H 0.9117 0.31571 0.78875 0.0
C608 C 0.9085 0.28128 0.00027 0.0
C609 C 0.89264 0.2577 0.967 0.0
C610 C 0.92835 0.30516 0.97345 0.0
C611 C 0.93273 0.30589 0.913 0.0
C612 C 0.91768 0.28214 0.88005 0.0
H613 H 0.05104 0.437 0.68941 0.0
H614 H 0.01526 0.39261 0.72616 0.0
C615 C 0.89771 0.25831 0.90669 0.0
C616 C 0.95307 0.33155 0.88456 0.0
H617 H 0.96048 0.37858 0.78194 0.0
C618 C 0.98022 0.3439 0.90339 0.0
C619 C 0.94577 0.34414 0.84022 0.0
C620 C 0.9167 0.33247 0.82008 0.0
C621 C 0.00029 0.36852 0.87903 0.0
C622 C 0.99293 0.38113 0.83508 0.0
C623 C 0.96594 0.36867 0.81553 0.0
C624 C 0.0129 0.40797 0.81107 0.0
C625 C 0.02925 0.38095 0.90037 0.0
C626 C 0.02266 0.43119 0.84622 0.0
C627 C 0.04271 0.45642 0.82521 0.0
C628 C 0.05335 0.4588 0.76878 0.0
C629 C 0.04292 0.43569 0.73284 0.0
C630 C 0.02269 0.4104 0.75384 0.0
H631 H 0.03261 0.36618 0.92577 0.0
H632 H 0.04372 0.38856 0.86308 0.0
H633 H 0.03398 0.39854 0.92901 0.0
H634 H 0.01504 0.4297 0.89025 0.0
H635 H 0.05023 0.47403 0.85344 0.0
H636 H 0.88277 0.13362 0.11475 0.0
H637 H 0.8897 0.09696 0.15116 0.0
H638 H 0.80569 0.03852 0.1137 0.0
H639 H 0.79851 0.07552 0.07947 0.0
H640 H 0.81949 0.0322 0.22202 0.0
H641 H 0.89775 0.03916 0.0676 0.0
H642 H 0.90776 0.07114 0.10221 0.0
H643 H 0.87853 0.05617 0.05477 0.0
C644 C 0.86588 0.11289 0.11402 0.0
C645 C 0.84007 0.10725 0.09497 0.0
C646 C 0.86991 0.09195 0.13419 0.0
C647 C 0.84831 0.06494 0.13446 0.0
C648 C 0.82266 0.05921 0.11367 0.0
H649 H 0.86691 0.92556 0.21481 0.0
H650 H 0.85984 0.96007 0.16767 0.0
C651 C 0.81859 0.08024 0.09393 0.0
C652 C 0.85204 0.04307 0.16035 0.0
H653 H 0.89216 0.01404 0.15571 0.0
C654 C 0.83522 0.02805 0.20717 0.0
C655 C 0.87237 0.03748 0.14057 0.0
C656 C 0.88993 0.05165 0.08813 0.0
C657 C 0.83854 0.00798 0.23558 0.0
C658 C 0.85976 0.00335 0.21768 0.0
C659 C 0.87618 0.01793 0.17 0.0
C660 C 0.86479 0.98292 0.24676 0.0
C661 C 0.81899 0.99167 0.28382 0.0
C662 C 0.87046 0.98459 0.30679 0.0
C663 C 0.87429 0.9647 0.33414 0.0
C664 C 0.87293 0.94302 0.30169 0.0
C665 C 0.86809 0.94194 0.24121 0.0
C666 C 0.86404 0.96167 0.2141 0.0
H667 H 0.7997 0.99219 0.28074 0.0
H668 H 0.81405 0.9701 0.28275 0.0
H669 H 0.82845 0.00046 0.32662 0.0
H670 H 0.87186 0.00124 0.33256 0.0
H671 H 0.87823 0.96627 0.38066 0.0
H672 H 0.14395 0.91428 0.72067 0.0
H673 H 0.1026 0.90749 0.67212 0.0
H674 H 0.14673 0.93624 0.51006 0.0
H675 H 0.18795 0.94243 0.55772 0.0
H676 H 0.09047 0.9421 0.61562 0.0
H677 H 0.08344 0.8632 0.46234 0.0
H678 H 0.10638 0.87481 0.52383 0.0
H679 H 0.1152 0.89462 0.45775 0.0
C680 C 0.14491 0.91928 0.67476 0.0
C681 C 0.16919 0.92863 0.64293 0.0
C682 C 0.12125 0.91535 0.64707 0.0
C683 C 0.12146 0.92076 0.58719 0.0
C684 C 0.14592 0.93119 0.55591 0.0
H685 H 0.99269 0.93452 0.41113 0.0
H686 H 0.03667 0.94309 0.44991 0.0
C687 C 0.16952 0.93489 0.58337 0.0
C688 C 0.09605 0.91546 0.55754 0.0
H689 H 0.05288 0.87974 0.44607 0.0
C690 C 0.08222 0.92845 0.5786 0.0
C691 C 0.08513 0.89731 0.50978 0.0
C692 C 0.09813 0.88146 0.4874 0.0
C693 C 0.05789 0.92399 0.55285 0.0
C694 C 0.0475 0.9066 0.5038 0.0
C695 C 0.06114 0.89337 0.48313 0.0
C696 C 0.02193 0.90115 0.47477 0.0
C697 C 0.04321 0.93744 0.57934 0.0
C698 C -0.00044 0.87454 0.47316 0.0
C699 C 0.97467 0.86964 0.45027 0.0
C700 C 0.97194 0.89127 0.42869 0.0
C701 C 0.99456 0.91763 0.42773 0.0
C702 C 0.01948 0.92253 0.45029 0.0
H703 H 0.04985 0.94407 0.62497 0.0
H704 H 0.04774 0.95575 0.55334 0.0
H705 H 0.02083 0.92347 0.57915 0.0
H706 H 0.0011 0.85775 0.49153 0.0
H707 H 0.9573 0.84919 0.45147 0.0
H708 H 0.32333 0.0066 0.86332 0.0
H709 H 0.35836 0.05067 0.90108 0.0
H710 H 0.35838 0.0887 0.73778 0.0
H711 H 0.32241 0.04468 0.70072 0.0
H712 H 0.40973 0.08593 0.8625 0.0
H713 H 0.34582 0.13477 0.85584 0.0
H714 H 0.3318 0.0986 0.84655 0.0
H715 H 0.34906 0.12153 0.78701 0.0
C716 C 0.33079 0.02441 0.83561 0.0
C717 C 0.32014 0.02237 0.77933 0.0
C718 C 0.35084 0.04951 0.85708 0.0
C719 C 0.3606 0.07302 0.82263 0.0
C720 C 0.35069 0.07088 0.76552 0.0
H721 H 0.48677 0.2397 0.89013 0.0
H722 H 0.45122 0.19757 0.84609 0.0
C723 C 0.33047 0.04573 0.7441 0.0
C724 C 0.38108 0.09967 0.84706 0.0
H725 H 0.392 0.16278 0.88329 0.0
C726 C 0.40585 0.10272 0.86708 0.0
C727 C 0.37588 0.1215 0.85315 0.0
C728 C 0.34912 0.11896 0.83503 0.0
C729 C 0.42562 0.12706 0.89283 0.0
C730 C 0.42037 0.14879 0.89899 0.0
C731 C 0.39581 0.14595 0.87843 0.0
C732 C 0.44033 0.17465 0.92669 0.0
C733 C 0.4521 0.12954 0.91296 0.0
C734 C 0.44538 0.17575 0.98685 0.0
C735 C 0.46555 0.19981 0.01233 0.0
C736 C 0.4811 0.22311 0.97788 0.0
C737 C 0.47529 0.2221 0.91787 0.0
C738 C 0.45498 0.19809 0.89258 0.0
H739 H 0.45489 0.11273 0.8961 0.0
H740 H 0.4696 0.14926 0.89861 0.0
H741 H 0.45237 0.12898 0.96138 0.0
H742 H 0.43402 0.15783 0.01384 0.0
H743 H 0.46948 0.19989 0.05863 0.0
loop_
_geom_bond_atom_site_label_1
_geom_bond_atom_site_label_2
_geom_bond_distance
_geom_bond_site_symmetry_2
_ccdc_geom_bond_type
Co0 O3 1.970 . S
Co0 N17 1.989 1_556 S
Co0 O25 1.967 . S
Co0 O32 1.920 . S
Co1 O4 1.966 . S
Co1 N10 2.022 . S
Co1 N18 1.993 . S
Co1 O26 1.941 . S
C2 O3 1.258 1_554 S
C2 O4 1.263 . S
O3 Co0 1.970 . S
O3 C2 1.258 1_556 S
O4 Co1 1.966 . S
O4 C2 1.263 . S
C5 O6 1.235 . S
C5 O32 1.289 . S
O6 C5 1.235 . S
C7 C9 1.400 . S
C7 N10 1.351 . S
C7 C12 1.501 . S
C8 C9 1.387 . S
C8 N11 1.341 . S
C9 C7 1.400 . S
C9 C8 1.387 . S
N10 Co1 2.022 . S
N10 C7 1.351 . S
N10 N11 1.365 . S
N11 C8 1.341 . S
N11 N10 1.365 . S
N11 H31 0.862 . S
C12 C7 1.501 . S
C12 H13 0.961 . S
C12 H14 0.961 . S
C12 H15 0.960 . S
H13 C12 0.961 . S
H14 C12 0.961 . S
H15 C12 0.960 . S
C16 N17 1.342 . S
C16 C20 1.401 . S
C16 C21 1.499 1_554 S
N17 Co0 1.989 1_554 S
N17 C16 1.342 . S
N17 N18 1.388 . S
N18 Co1 1.993 . S
N18 N17 1.388 . S
N18 C19 1.346 . S
C19 N18 1.346 . S
C19 C20 1.396 . S
C19 C29 1.510 . S
C20 C16 1.401 . S
C20 C19 1.396 . S
C21 C16 1.499 1_556 S
C21 H22 0.959 . S
C21 H23 0.960 . S
C21 H24 0.961 . S
H22 C21 0.959 . S
H23 C21 0.960 . S
H24 C21 0.961 . S
O25 Co0 1.967 . S
O25 C33 1.258 1_556 S
O26 Co1 1.941 . S
O26 C33 1.266 . S
H27 C29 0.959 . S
H28 C29 0.961 . S
C29 C19 1.510 . S
C29 H27 0.959 . S
C29 H28 0.961 . S
C29 H30 0.960 . S
H30 C29 0.960 . S
H31 N11 0.862 . S
O32 Co0 1.920 . S
O32 C5 1.289 . S
C33 O25 1.258 1_554 S
C33 O26 1.266 . S
Co34 O37 1.970 . S
Co34 N51 1.989 . S
Co34 O59 1.967 . S
Co34 O66 1.920 . S
Co35 O38 1.966 . S
Co35 N44 2.022 . S
Co35 N52 1.993 . S
Co35 O60 1.941 . S
C36 O37 1.258 . S
C36 O38 1.263 . S
O37 Co34 1.970 . S
O37 C36 1.258 . S
O38 Co35 1.966 . S
O38 C36 1.263 . S
C39 O40 1.235 . S
C39 O66 1.289 . S
O40 C39 1.235 . S
C41 C43 1.400 . S
C41 N44 1.351 . S
C41 C46 1.501 . S
C42 C43 1.387 . S
C42 N45 1.341 . S
C43 C41 1.400 . S
C43 C42 1.387 . S
N44 Co35 2.022 . S
N44 C41 1.351 . S
N44 N45 1.365 . S
N45 C42 1.341 . S
N45 N44 1.365 . S
N45 H65 0.862 . S
C46 C41 1.501 . S
C46 H47 0.961 . S
C46 H48 0.961 . S
C46 H49 0.960 . S
H47 C46 0.961 . S
H48 C46 0.961 . S
H49 C46 0.960 . S
C50 N51 1.342 . S
C50 C54 1.401 . S
C50 C55 1.499 . S
N51 Co34 1.989 . S
N51 C50 1.342 . S
N51 N52 1.388 . S
N52 Co35 1.993 . S
N52 N51 1.388 . S
N52 C53 1.346 . S
C53 N52 1.346 . S
C53 C54 1.396 . S
C53 C63 1.510 . S
C54 C50 1.401 . S
C54 C53 1.396 . S
C55 C50 1.499 . S
C55 H56 0.959 . S
C55 H57 0.960 . S
C55 H58 0.961 . S
H56 C55 0.959 . S
H57 C55 0.960 . S
H58 C55 0.961 . S
O59 Co34 1.967 . S
O59 C67 1.258 . S
O60 Co35 1.941 . S
O60 C67 1.266 . S
H61 C63 0.959 . S
H62 C63 0.961 . S
C63 C53 1.510 . S
C63 H61 0.959 . S
C63 H62 0.961 . S
C63 H64 0.960 . S
H64 C63 0.960 . S
H65 N45 0.862 . S
O66 Co34 1.920 . S
O66 C39 1.289 . S
C67 O59 1.258 . S
C67 O60 1.266 . S
Co68 O71 1.970 . S
Co68 N85 1.989 . S
Co68 O93 1.967 . S
Co68 O100 1.920 . S
Co69 O72 1.966 . S
Co69 N78 2.022 . S
Co69 N86 1.993 . S
Co69 O94 1.941 . S
C70 O71 1.258 . S
C70 O72 1.263 . S
O71 Co68 1.970 . S
O71 C70 1.258 . S
O72 Co69 1.966 . S
O72 C70 1.263 . S
C73 O74 1.235 . S
C73 O100 1.289 . S
O74 C73 1.235 . S
C75 C77 1.400 . S
C75 N78 1.351 . S
C75 C80 1.501 . S
C76 C77 1.387 . S
C76 N79 1.341 . S
C77 C75 1.400 . S
C77 C76 1.387 . S
N78 Co69 2.022 . S
N78 C75 1.351 . S
N78 N79 1.365 . S
N79 C76 1.341 . S
N79 N78 1.365 . S
N79 H99 0.862 . S
C80 C75 1.501 . S
C80 H81 0.961 . S
C80 H82 0.961 . S
C80 H83 0.960 . S
H81 C80 0.961 . S
H82 C80 0.961 . S
H83 C80 0.960 . S
C84 N85 1.342 . S
C84 C88 1.401 . S
C84 C89 1.499 . S
N85 Co68 1.989 . S
N85 C84 1.342 . S
N85 N86 1.388 . S
N86 Co69 1.993 . S
N86 N85 1.388 . S
N86 C87 1.346 . S
C87 N86 1.346 . S
C87 C88 1.396 . S
C87 C97 1.510 . S
C88 C84 1.401 . S
C88 C87 1.396 . S
C89 C84 1.499 . S
C89 H90 0.959 . S
C89 H91 0.960 . S
C89 H92 0.961 . S
H90 C89 0.959 . S
H91 C89 0.960 . S
H92 C89 0.961 . S
O93 Co68 1.967 . S
O93 C101 1.258 . S
O94 Co69 1.941 . S
O94 C101 1.266 . S
H95 C97 0.959 . S
H96 C97 0.961 . S
C97 C87 1.510 . S
C97 H95 0.959 . S
C97 H96 0.961 . S
C97 H98 0.960 . S
H98 C97 0.960 . S
H99 N79 0.862 . S
O100 Co68 1.920 . S
O100 C73 1.289 . S
C101 O93 1.258 . S
C101 O94 1.266 . S
Co102 O105 1.970 . S
Co102 N119 1.989 1_556 S
Co102 O127 1.967 . S
Co102 O134 1.920 . S
Co103 O106 1.966 . S
Co103 N112 2.022 . S
Co103 N120 1.993 . S
Co103 O128 1.941 . S
C104 O105 1.258 1_554 S
C104 O106 1.263 . S
O105 Co102 1.970 . S
O105 C104 1.258 1_556 S
O106 Co103 1.966 . S
O106 C104 1.263 . S
C107 O108 1.235 . S
C107 O134 1.289 . S
O108 C107 1.235 . S
C109 C111 1.400 . S
C109 N112 1.351 . S
C109 C114 1.501 . S
C110 C111 1.387 . S
C110 N113 1.341 . S
C111 C109 1.400 . S
C111 C110 1.387 . S
N112 Co103 2.022 . S
N112 C109 1.351 . S
N112 N113 1.365 . S
N113 C110 1.341 . S
N113 N112 1.365 . S
N113 H133 0.862 . S
C114 C109 1.501 . S
C114 H115 0.961 . S
C114 H116 0.961 . S
C114 H117 0.960 . S
H115 C114 0.961 . S
H116 C114 0.961 . S
H117 C114 0.960 . S
C118 N119 1.342 . S
C118 C122 1.401 . S
C118 C123 1.499 1_554 S
N119 Co102 1.989 1_554 S
N119 C118 1.342 . S
N119 N120 1.388 . S
N120 Co103 1.993 . S
N120 N119 1.388 . S
N120 C121 1.346 . S
C121 N120 1.346 . S
C121 C122 1.396 . S
C121 C131 1.510 . S
C122 C118 1.401 . S
C122 C121 1.396 . S
C123 C118 1.499 1_556 S
C123 H124 0.959 . S
C123 H125 0.960 . S
C123 H126 0.961 . S
H124 C123 0.959 . S
H125 C123 0.960 . S
H126 C123 0.961 . S
O127 Co102 1.967 . S
O127 C135 1.258 1_556 S
O128 Co103 1.941 . S
O128 C135 1.266 . S
H129 C131 0.959 . S
H130 C131 0.961 . S
C131 C121 1.510 . S
C131 H129 0.959 . S
C131 H130 0.961 . S
C131 H132 0.960 . S
H132 C131 0.960 . S
H133 N113 0.862 . S
O134 Co102 1.920 . S
O134 C107 1.289 . S
C135 O127 1.258 1_554 S
C135 O128 1.266 . S
Co136 O139 1.970 . S
Co136 N153 1.989 . S
Co136 O161 1.967 . S
Co136 O168 1.920 . S
Co137 O140 1.966 . S
Co137 N146 2.022 . S
Co137 N154 1.993 . S
Co137 O162 1.941 . S
C138 O139 1.258 . S
C138 O140 1.263 . S
O139 Co136 1.970 . S
O139 C138 1.258 . S
O140 Co137 1.966 . S
O140 C138 1.263 . S
C141 O142 1.235 . S
C141 O168 1.289 . S
O142 C141 1.235 . S
C143 C145 1.400 . S
C143 N146 1.351 . S
C143 C148 1.501 . S
C144 C145 1.387 . S
C144 N147 1.341 . S
C145 C143 1.400 . S
C145 C144 1.387 . S
N146 Co137 2.022 . S
N146 C143 1.351 . S
N146 N147 1.365 . S
N147 C144 1.341 . S
N147 N146 1.365 . S
N147 H167 0.862 . S
C148 C143 1.501 . S
C148 H149 0.961 . S
C148 H150 0.961 . S
C148 H151 0.960 . S
H149 C148 0.961 . S
H150 C148 0.961 . S
H151 C148 0.960 . S
C152 N153 1.342 . S
C152 C156 1.401 . S
C152 C157 1.499 . S
N153 Co136 1.989 . S
N153 C152 1.342 . S
N153 N154 1.388 . S
N154 Co137 1.993 . S
N154 N153 1.388 . S
N154 C155 1.346 . S
C155 N154 1.346 . S
C155 C156 1.396 . S
C155 C165 1.510 . S
C156 C152 1.401 . S
C156 C155 1.396 . S
C157 C152 1.499 . S
C157 H158 0.959 . S
C157 H159 0.960 . S
C157 H160 0.961 . S
H158 C157 0.959 . S
H159 C157 0.960 . S
H160 C157 0.961 . S
O161 Co136 1.967 . S
O161 C169 1.258 . S
O162 Co137 1.941 . S
O162 C169 1.266 . S
H163 C165 0.959 . S
H164 C165 0.961 . S
C165 C155 1.510 . S
C165 H163 0.959 . S
C165 H164 0.961 . S
C165 H166 0.960 . S
H166 C165 0.960 . S
H167 N147 0.862 . S
O168 Co136 1.920 . S
O168 C141 1.289 . S
C169 O161 1.258 . S
C169 O162 1.266 . S
Co170 O173 1.970 . S
Co170 N187 1.989 . S
Co170 O195 1.967 . S
Co170 O202 1.920 . S
Co171 O174 1.966 . S
Co171 N180 2.022 . S
Co171 N188 1.993 . S
Co171 O196 1.941 . S
C172 O173 1.258 . S
C172 O174 1.263 . S
O173 Co170 1.970 . S
O173 C172 1.258 . S
O174 Co171 1.966 . S
O174 C172 1.263 . S
C175 O176 1.235 . S
C175 O202 1.289 . S
O176 C175 1.235 . S
C177 C179 1.400 . S
C177 N180 1.351 . S
C177 C182 1.501 . S
C178 C179 1.387 . S
C178 N181 1.341 . S
C179 C177 1.400 . S
C179 C178 1.387 . S
N180 Co171 2.022 . S
N180 C177 1.351 . S
N180 N181 1.365 . S
N181 C178 1.341 . S
N181 N180 1.365 . S
N181 H201 0.862 . S
C182 C177 1.501 . S
C182 H183 0.961 . S
C182 H184 0.961 . S
C182 H185 0.960 . S
H183 C182 0.961 . S
H184 C182 0.961 . S
H185 C182 0.960 . S
C186 N187 1.342 . S
C186 C190 1.401 1_565 S
C186 C191 1.499 1_565 S
N187 Co170 1.989 . S
N187 C186 1.342 . S
N187 N188 1.388 . S
N188 Co171 1.993 . S
N188 N187 1.388 . S
N188 C189 1.346 . S
C189 N188 1.346 . S
C189 C190 1.396 1_565 S
C189 C199 1.510 . S
C190 C186 1.401 1_545 S
C190 C189 1.396 1_545 S
C191 C186 1.499 1_545 S
C191 H192 0.959 1_545 S
C191 H193 0.960 . S
C191 H194 0.961 . S
H192 C191 0.959 1_565 S
H193 C191 0.960 . S
H194 C191 0.961 . S
O195 Co170 1.967 . S
O195 C203 1.258 . S
O196 Co171 1.941 . S
O196 C203 1.266 . S
H197 C199 0.959 1_545 S
H198 C199 0.961 . S
C199 C189 1.510 . S
C199 H197 0.959 1_565 S
C199 H198 0.961 . S
C199 H200 0.960 . S
H200 C199 0.960 . S
H201 N181 0.862 . S
O202 Co170 1.920 . S
O202 C175 1.289 . S
C203 O195 1.258 . S
C203 O196 1.266 . S
H204 C212 0.929 . S
H205 C214 0.930 . S
H206 C216 0.930 . S
H207 C219 0.929 . S
H208 C222 0.930 . S
H209 C224 0.960 . S
H210 C224 0.960 . S
H211 C224 0.960 . S
C212 H204 0.929 . S
C212 C213 1.377 1_556 S
C212 C214 1.384 . S
C213 C212 1.377 1_554 S
C213 C219 1.390 . S
C214 H205 0.930 . S
C214 C212 1.384 . S
C214 C215 1.372 1_556 S
C215 C214 1.372 1_554 S
C215 C216 1.400 . S
C215 C220 1.490 . S
C216 H206 0.930 . S
C216 C215 1.400 . S
C216 C219 1.386 . S
H217 C233 0.930 . S
H218 C234 0.931 . S
C219 H207 0.929 . S
C219 C213 1.390 . S
C219 C216 1.386 . S
C220 C215 1.490 . S
C220 C222 1.395 . S
C220 C223 1.403 . S
H221 C227 0.930 . S
C222 H208 0.930 . S
C222 C220 1.395 . S
C222 C225 1.403 . S
C223 C220 1.403 . S
C223 C224 1.524 . S
C223 C227 1.400 . S
C224 H209 0.960 . S
C224 H210 0.960 . S
C224 H211 0.960 . S
C224 C223 1.524 . S
C225 C222 1.403 . S
C225 C226 1.392 . S
C225 C229 1.495 1_554 S
C226 C225 1.392 . S
C226 C227 1.385 . S
C226 C228 1.478 . S
C227 H221 0.930 . S
C227 C223 1.400 . S
C227 C226 1.385 . S
C228 C226 1.478 . S
C228 C230 1.381 1_554 S
C228 C234 1.383 . S
C229 C225 1.495 1_556 S
C229 H235 0.959 . S
C229 H236 0.961 1_556 S
C229 H237 0.960 . S
C230 C228 1.381 1_556 S
C230 C231 1.394 . S
C230 H238 0.930 . S
C231 C230 1.394 . S
C231 C232 1.383 1_556 S
C231 H239 0.929 . S
C232 C231 1.383 1_554 S
C232 C233 1.377 . S
C233 H217 0.930 . S
C233 C232 1.377 . S
C233 C234 1.379 . S
C234 H218 0.931 . S
C234 C228 1.383 . S
C234 C233 1.379 . S
H235 C229 0.959 . S
H236 C229 0.961 1_554 S
H237 C229 0.960 . S
H238 C230 0.930 . S
H239 C231 0.929 . S
H240 C248 0.929 . S
H241 C250 0.930 . S
H242 C252 0.930 . S
H243 C255 0.929 . S
H244 C258 0.930 . S
H245 C260 0.960 . S
H246 C260 0.960 . S
H247 C260 0.960 . S
C248 H240 0.929 . S
C248 C249 1.377 . S
C248 C250 1.384 . S
C249 C248 1.377 . S
C249 C255 1.390 . S
C250 H241 0.930 . S
C250 C248 1.384 . S
C250 C251 1.372 . S
C251 C250 1.372 . S
C251 C252 1.400 . S
C251 C256 1.490 . S
C252 H242 0.930 . S
C252 C251 1.400 . S
C252 C255 1.386 . S
H253 C269 0.930 . S
H254 C270 0.931 . S
C255 H243 0.929 . S
C255 C249 1.390 . S
C255 C252 1.386 . S
C256 C251 1.490 . S
C256 C258 1.395 . S
C256 C259 1.403 . S
H257 C263 0.930 . S
C258 H244 0.930 . S
C258 C256 1.395 . S
C258 C261 1.403 . S
C259 C256 1.403 . S
C259 C260 1.524 . S
C259 C263 1.400 . S
C260 H245 0.960 . S
C260 H246 0.960 . S
C260 H247 0.960 . S
C260 C259 1.524 . S
C261 C258 1.403 . S
C261 C262 1.392 . S
C261 C265 1.495 . S
C262 C261 1.392 . S
C262 C263 1.385 . S
C262 C264 1.478 . S
C263 H257 0.930 . S
C263 C259 1.400 . S
C263 C262 1.385 . S
C264 C262 1.478 . S
C264 C266 1.381 . S
C264 C270 1.383 . S
C265 C261 1.495 . S
C265 H271 0.959 . S
C265 H272 0.961 . S
C265 H273 0.960 . S
C266 C264 1.381 . S
C266 C267 1.394 . S
C266 H274 0.930 . S
C267 C266 1.394 . S
C267 C268 1.383 . S
C267 H275 0.929 . S
C268 C267 1.383 . S
C268 C269 1.377 . S
C269 H253 0.930 . S
C269 C268 1.377 . S
C269 C270 1.379 . S
C270 H254 0.931 . S
C270 C264 1.383 . S
C270 C269 1.379 . S
H271 C265 0.959 . S
H272 C265 0.961 . S
H273 C265 0.960 . S
H274 C266 0.930 . S
H275 C267 0.929 . S
H276 C284 0.929 . S
H277 C286 0.930 . S
H278 C288 0.930 . S
H279 C291 0.929 . S
H280 C294 0.930 . S
H281 C296 0.960 . S
H282 C296 0.960 . S
H283 C296 0.960 . S
C284 H276 0.929 . S
C284 C285 1.377 . S
C284 C286 1.384 . S
C285 C284 1.377 . S
C285 C291 1.390 . S
C286 H277 0.930 . S
C286 C284 1.384 . S
C286 C287 1.372 . S
C287 C286 1.372 . S
C287 C288 1.400 . S
C287 C292 1.490 . S
C288 H278 0.930 . S
C288 C287 1.400 . S
C288 C291 1.386 . S
H289 C305 0.930 . S
H290 C306 0.931 . S
C291 H279 0.929 . S
C291 C285 1.390 . S
C291 C288 1.386 . S
C292 C287 1.490 . S
C292 C294 1.395 . S
C292 C295 1.403 . S
H293 C299 0.930 . S
C294 H280 0.930 . S
C294 C292 1.395 . S
C294 C297 1.403 . S
C295 C292 1.403 . S
C295 C296 1.524 . S
C295 C299 1.400 . S
C296 H281 0.960 . S
C296 H282 0.960 . S
C296 H283 0.960 . S
C296 C295 1.524 . S
C297 C294 1.403 . S
C297 C298 1.392 . S
C297 C301 1.495 . S
C298 C297 1.392 . S
C298 C299 1.385 . S
C298 C300 1.478 . S
C299 H293 0.930 . S
C299 C295 1.400 . S
C299 C298 1.385 . S
C300 C298 1.478 . S
C300 C302 1.381 . S
C300 C306 1.383 . S
C301 C297 1.495 . S
C301 H307 0.959 . S
C301 H308 0.961 . S
C301 H309 0.960 . S
C302 C300 1.381 . S
C302 C303 1.394 . S
C302 H310 0.930 . S
C303 C302 1.394 . S
C303 C304 1.383 . S
C303 H311 0.929 . S
C304 C303 1.383 . S
C304 C305 1.377 . S
C305 H289 0.930 . S
C305 C304 1.377 . S
C305 C306 1.379 . S
C306 H290 0.931 . S
C306 C300 1.383 . S
C306 C305 1.379 . S
H307 C301 0.959 . S
H308 C301 0.961 . S
H309 C301 0.960 . S
H310 C302 0.930 . S
H311 C303 0.929 . S
H312 C320 0.929 . S
H313 C322 0.930 . S
H314 C324 0.930 . S
H315 C327 0.929 . S
H316 C330 0.930 . S
H317 C332 0.960 . S
H318 C332 0.960 . S
H319 C332 0.960 . S
C320 H312 0.929 . S
C320 C321 1.377 . S
C320 C322 1.384 . S
C321 C320 1.377 . S
C321 C327 1.390 . S
C322 H313 0.930 . S
C322 C320 1.384 . S
C322 C323 1.372 . S
C323 C322 1.372 . S
C323 C324 1.400 . S
C323 C328 1.490 . S
C324 H314 0.930 . S
C324 C323 1.400 . S
C324 C327 1.386 . S
H325 C341 0.930 . S
H326 C342 0.931 . S
C327 H315 0.929 . S
C327 C321 1.390 . S
C327 C324 1.386 . S
C328 C323 1.490 . S
C328 C330 1.395 . S
C328 C331 1.403 . S
H329 C335 0.930 . S
C330 H316 0.930 . S
C330 C328 1.395 . S
C330 C333 1.403 . S
C331 C328 1.403 . S
C331 C332 1.524 . S
C331 C335 1.400 . S
C332 H317 0.960 . S
C332 H318 0.960 . S
C332 H319 0.960 . S
C332 C331 1.524 . S
C333 C330 1.403 . S
C333 C334 1.392 . S
C333 C337 1.495 . S
C334 C333 1.392 . S
C334 C335 1.385 . S
C334 C336 1.478 . S
C335 H329 0.930 . S
C335 C331 1.400 . S
C335 C334 1.385 . S
C336 C334 1.478 . S
C336 C338 1.381 . S
C336 C342 1.383 . S
C337 C333 1.495 . S
C337 H343 0.959 . S
C337 H344 0.961 . S
C337 H345 0.960 . S
C338 C336 1.381 . S
C338 C339 1.394 . S
C338 H346 0.930 . S
C339 C338 1.394 . S
C339 C340 1.383 . S
C339 H347 0.929 . S
C340 C339 1.383 . S
C340 C341 1.377 . S
C341 H325 0.930 . S
C341 C340 1.377 . S
C341 C342 1.379 . S
C342 H326 0.931 . S
C342 C336 1.383 . S
C342 C341 1.379 . S
H343 C337 0.959 . S
H344 C337 0.961 . S
H345 C337 0.960 . S
H346 C338 0.930 . S
H347 C339 0.929 . S
H348 C356 0.929 . S
H349 C358 0.930 . S
H350 C360 0.930 . S
H351 C363 0.929 . S
H352 C366 0.930 . S
H353 C368 0.960 . S
H354 C368 0.960 . S
H355 C368 0.960 . S
C356 H348 0.929 . S
C356 C357 1.377 . S
C356 C358 1.384 . S
C357 C356 1.377 . S
C357 C363 1.390 . S
C358 H349 0.930 . S
C358 C356 1.384 . S
C358 C359 1.372 . S
C359 C358 1.372 . S
C359 C360 1.400 . S
C359 C364 1.490 . S
C360 H350 0.930 . S
C360 C359 1.400 . S
C360 C363 1.386 . S
H361 C377 0.930 . S
H362 C378 0.931 . S
C363 H351 0.929 . S
C363 C357 1.390 . S
C363 C360 1.386 . S
C364 C359 1.490 . S
C364 C366 1.395 . S
C364 C367 1.403 . S
H365 C371 0.930 . S
C366 H352 0.930 . S
C366 C364 1.395 . S
C366 C369 1.403 . S
C367 C364 1.403 . S
C367 C368 1.524 . S
C367 C371 1.400 . S
C368 H353 0.960 . S
C368 H354 0.960 . S
C368 H355 0.960 . S
C368 C367 1.524 . S
C369 C366 1.403 . S
C369 C370 1.392 . S
C369 C373 1.495 . S
C370 C369 1.392 . S
C370 C371 1.385 . S
C370 C372 1.478 1_556 S
C371 H365 0.930 . S
C371 C367 1.400 . S
C371 C370 1.385 . S
C372 C370 1.478 1_554 S
C372 C374 1.381 . S
C372 C378 1.383 . S
C373 C369 1.495 . S
C373 H379 0.959 . S
C373 H380 0.961 . S
C373 H381 0.960 . S
C374 C372 1.381 . S
C374 C375 1.394 . S
C374 H382 0.930 . S
C375 C374 1.394 . S
C375 C376 1.383 . S
C375 H383 0.929 . S
C376 C375 1.383 . S
C376 C377 1.377 . S
C377 H361 0.930 . S
C377 C376 1.377 . S
C377 C378 1.379 . S
C378 H362 0.931 . S
C378 C372 1.383 . S
C378 C377 1.379 . S
H379 C373 0.959 . S
H380 C373 0.961 . S
H381 C373 0.960 . S
H382 C374 0.930 . S
H383 C375 0.929 . S
H384 C392 0.929 1_556 S
H385 C394 0.930 . S
H386 C396 0.930 . S
H387 C399 0.929 . S
H388 C402 0.930 . S
H389 C404 0.960 . S
H390 C404 0.960 . S
H391 C404 0.960 . S
C392 H384 0.929 1_554 S
C392 C393 1.377 1_554 S
C392 C394 1.384 . S
C393 C392 1.377 1_556 S
C393 C399 1.390 1_556 S
C394 H385 0.930 . S
C394 C392 1.384 . S
C394 C395 1.372 . S
C395 C394 1.372 . S
C395 C396 1.400 . S
C395 C400 1.490 . S
C396 H386 0.930 . S
C396 C395 1.400 . S
C396 C399 1.386 . S
H397 C413 0.930 . S
H398 C414 0.931 . S
C399 H387 0.929 . S
C399 C393 1.390 1_554 S
C399 C396 1.386 . S
C400 C395 1.490 . S
C400 C402 1.395 . S
C400 C403 1.403 . S
H401 C407 0.930 . S
C402 H388 0.930 . S
C402 C400 1.395 . S
C402 C405 1.403 . S
C403 C400 1.403 . S
C403 C404 1.524 . S
C403 C407 1.400 . S
C404 H389 0.960 . S
C404 H390 0.960 . S
C404 H391 0.960 . S
C404 C403 1.524 . S
C405 C402 1.403 . S
C405 C406 1.392 . S
C405 C409 1.495 . S
C406 C405 1.392 . S
C406 C407 1.385 . S
C406 C408 1.478 . S
C407 H401 0.930 . S
C407 C403 1.400 . S
C407 C406 1.385 . S
C408 C406 1.478 . S
C408 C410 1.381 . S
C408 C414 1.383 . S
C409 C405 1.495 . S
C409 H415 0.959 . S
C409 H416 0.961 . S
C409 H417 0.960 . S
C410 C408 1.381 . S
C410 C411 1.394 . S
C410 H418 0.930 . S
C411 C410 1.394 . S
C411 C412 1.383 . S
C411 H419 0.929 . S
C412 C411 1.383 . S
C412 C413 1.377 . S
C413 H397 0.930 . S
C413 C412 1.377 . S
C413 C414 1.379 . S
C414 H398 0.931 . S
C414 C408 1.383 . S
C414 C413 1.379 . S
H415 C409 0.959 . S
H416 C409 0.961 . S
H417 C409 0.960 . S
H418 C410 0.930 . S
H419 C411 0.929 . S
H420 C428 0.929 . S
H421 C430 0.930 . S
H422 C432 0.930 . S
H423 C435 0.929 . S
H424 C438 0.930 . S
H425 C440 0.960 . S
H426 C440 0.960 . S
H427 C440 0.960 . S
C428 H420 0.929 . S
C428 C429 1.377 . S
C428 C430 1.384 . S
C429 C428 1.377 . S
C429 C435 1.390 . S
C430 H421 0.930 . S
C430 C428 1.384 . S
C430 C431 1.372 . S
C431 C430 1.372 . S
C431 C432 1.400 . S
C431 C436 1.490 . S
C432 H422 0.930 . S
C432 C431 1.400 . S
C432 C435 1.386 . S
H433 C449 0.930 . S
H434 C450 0.931 . S
C435 H423 0.929 . S
C435 C429 1.390 . S
C435 C432 1.386 . S
C436 C431 1.490 . S
C436 C438 1.395 . S
C436 C439 1.403 . S
H437 C443 0.930 . S
C438 H424 0.930 . S
C438 C436 1.395 . S
C438 C441 1.403 . S
C439 C436 1.403 . S
C439 C440 1.524 . S
C439 C443 1.400 . S
C440 H425 0.960 . S
C440 H426 0.960 . S
C440 H427 0.960 . S
C440 C439 1.524 . S
C441 C438 1.403 . S
C441 C442 1.392 . S
C441 C445 1.495 . S
C442 C441 1.392 . S
C442 C443 1.385 . S
C442 C444 1.478 . S
C443 H437 0.930 . S
C443 C439 1.400 . S
C443 C442 1.385 . S
C444 C442 1.478 . S
C444 C446 1.381 . S
C444 C450 1.383 . S
C445 C441 1.495 . S
C445 H451 0.959 . S
C445 H452 0.961 . S
C445 H453 0.960 . S
C446 C444 1.381 . S
C446 C447 1.394 . S
C446 H454 0.930 . S
C447 C446 1.394 . S
C447 C448 1.383 . S
C447 H455 0.929 . S
C448 C447 1.383 . S
C448 C449 1.377 . S
C449 H433 0.930 . S
C449 C448 1.377 . S
C449 C450 1.379 . S
C450 H434 0.931 . S
C450 C444 1.383 . S
C450 C449 1.379 . S
H451 C445 0.959 . S
H452 C445 0.961 . S
H453 C445 0.960 . S
H454 C446 0.930 . S
H455 C447 0.929 . S
H456 C464 0.929 . S
H457 C466 0.930 . S
H458 C468 0.930 . S
H459 C471 0.929 . S
H460 C474 0.930 . S
H461 C476 0.960 . S
H462 C476 0.960 . S
H463 C476 0.960 . S
C464 H456 0.929 . S
C464 C465 1.377 . S
C464 C466 1.384 . S
C465 C464 1.377 . S
C465 C471 1.390 . S
C466 H457 0.930 . S
C466 C464 1.384 . S
C466 C467 1.372 . S
C467 C466 1.372 . S
C467 C468 1.400 . S
C467 C472 1.490 . S
C468 H458 0.930 . S
C468 C467 1.400 . S
C468 C471 1.386 . S
H469 C485 0.930 . S
H470 C486 0.931 . S
C471 H459 0.929 . S
C471 C465 1.390 . S
C471 C468 1.386 . S
C472 C467 1.490 . S
C472 C474 1.395 . S
C472 C475 1.403 . S
H473 C479 0.930 . S
C474 H460 0.930 . S
C474 C472 1.395 . S
C474 C477 1.403 . S
C475 C472 1.403 . S
C475 C476 1.524 . S
C475 C479 1.400 . S
C476 H461 0.960 . S
C476 H462 0.960 . S
C476 H463 0.960 . S
C476 C475 1.524 . S
C477 C474 1.403 . S
C477 C478 1.392 . S
C477 C481 1.495 . S
C478 C477 1.392 . S
C478 C479 1.385 . S
C478 C480 1.478 1_556 S
C479 H473 0.930 . S
C479 C475 1.400 . S
C479 C478 1.385 . S
C480 C478 1.478 1_554 S
C480 C482 1.381 . S
C480 C486 1.383 . S
C481 C477 1.495 . S
C481 H487 0.959 . S
C481 H488 0.961 1_556 S
C481 H489 0.960 1_556 S
C482 C480 1.381 . S
C482 C483 1.394 . S
C482 H490 0.930 . S
C483 C482 1.394 . S
C483 C484 1.383 . S
C483 H491 0.929 . S
C484 C483 1.383 . S
C484 C485 1.377 . S
C485 H469 0.930 . S
C485 C484 1.377 . S
C485 C486 1.379 . S
C486 H470 0.931 . S
C486 C480 1.383 . S
C486 C485 1.379 . S
H487 C481 0.959 . S
H488 C481 0.961 1_554 S
H489 C481 0.960 1_554 S
H490 C482 0.930 . S
H491 C483 0.929 . S
H492 C500 0.929 . S
H493 C502 0.930 . S
H494 C504 0.930 . S
H495 C507 0.929 . S
H496 C510 0.930 . S
H497 C512 0.960 . S
H498 C512 0.960 . S
H499 C512 0.960 . S
C500 H492 0.929 . S
C500 C501 1.377 . S
C500 C502 1.384 . S
C501 C500 1.377 . S
C501 C507 1.390 . S
C502 H493 0.930 . S
C502 C500 1.384 . S
C502 C503 1.372 . S
C503 C502 1.372 . S
C503 C504 1.400 . S
C503 C508 1.490 . S
C504 H494 0.930 . S
C504 C503 1.400 . S
C504 C507 1.386 . S
H505 C521 0.930 . S
H506 C522 0.931 . S
C507 H495 0.929 . S
C507 C501 1.390 . S
C507 C504 1.386 . S
C508 C503 1.490 . S
C508 C510 1.395 . S
C508 C511 1.403 . S
H509 C515 0.930 . S
C510 H496 0.930 . S
C510 C508 1.395 . S
C510 C513 1.403 . S
C511 C508 1.403 . S
C511 C512 1.524 . S
C511 C515 1.400 . S
C512 H497 0.960 . S
C512 H498 0.960 . S
C512 H499 0.960 . S
C512 C511 1.524 . S
C513 C510 1.403 . S
C513 C514 1.392 . S
C513 C517 1.495 . S
C514 C513 1.392 . S
C514 C515 1.385 . S
C514 C516 1.478 . S
C515 H509 0.930 . S
C515 C511 1.400 . S
C515 C514 1.385 . S
C516 C514 1.478 . S
C516 C518 1.381 . S
C516 C522 1.383 . S
C517 C513 1.495 . S
C517 H523 0.959 1_565 S
C517 H524 0.961 . S
C517 H525 0.960 . S
C518 C516 1.381 . S
C518 C519 1.394 . S
C518 H526 0.930 . S
C519 C518 1.394 . S
C519 C520 1.383 1_554 S
C519 H527 0.929 . S
C520 C519 1.383 1_556 S
C520 C521 1.377 1_556 S
C521 H505 0.930 . S
C521 C520 1.377 1_554 S
C521 C522 1.379 . S
C522 H506 0.931 . S
C522 C516 1.383 . S
C522 C521 1.379 . S
H523 C517 0.959 1_545 S
H524 C517 0.961 . S
H525 C517 0.960 . S
H526 C518 0.930 . S
H527 C519 0.929 . S
H528 C536 0.929 . S
H529 C538 0.930 . S
H530 C540 0.930 . S
H531 C543 0.929 . S
H532 C546 0.930 . S
H533 C548 0.960 . S
H534 C548 0.960 . S
H535 C548 0.960 . S
C536 H528 0.929 . S
C536 C537 1.377 . S
C536 C538 1.384 . S
C537 C536 1.377 . S
C537 C543 1.390 . S
C538 H529 0.930 . S
C538 C536 1.384 . S
C538 C539 1.372 . S
C539 C538 1.372 . S
C539 C540 1.400 . S
C539 C544 1.490 . S
C540 H530 0.930 . S
C540 C539 1.400 . S
C540 C543 1.386 . S
H541 C557 0.930 . S
H542 C558 0.931 . S
C543 H531 0.929 . S
C543 C537 1.390 . S
C543 C540 1.386 . S
C544 C539 1.490 . S
C544 C546 1.395 . S
C544 C547 1.403 . S
H545 C551 0.930 . S
C546 H532 0.930 . S
C546 C544 1.395 . S
C546 C549 1.403 . S
C547 C544 1.403 . S
C547 C548 1.524 . S
C547 C551 1.400 . S
C548 H533 0.960 . S
C548 H534 0.960 . S
C548 H535 0.960 . S
C548 C547 1.524 . S
C549 C546 1.403 . S
C549 C550 1.392 . S
C549 C553 1.495 . S
C550 C549 1.392 . S
C550 C551 1.385 . S
C550 C552 1.478 . S
C551 H545 0.930 . S
C551 C547 1.400 . S
C551 C550 1.385 . S
C552 C550 1.478 . S
C552 C554 1.381 . S
C552 C558 1.383 . S
C553 C549 1.495 . S
C553 H559 0.959 . S
C553 H560 0.961 . S
C553 H561 0.960 . S
C554 C552 1.381 . S
C554 C555 1.394 . S
C554 H562 0.930 . S
C555 C554 1.394 . S
C555 C556 1.383 . S
C555 H563 0.929 . S
C556 C555 1.383 . S
C556 C557 1.377 . S
C557 H541 0.930 . S
C557 C556 1.377 . S
C557 C558 1.379 . S
C558 H542 0.931 . S
C558 C552 1.383 . S
C558 C557 1.379 . S
H559 C553 0.959 . S
H560 C553 0.961 . S
H561 C553 0.960 . S
H562 C554 0.930 . S
H563 C555 0.929 . S
H564 C572 0.929 . S
H565 C574 0.930 . S
H566 C576 0.930 . S
H567 C579 0.929 . S
H568 C582 0.930 . S
H569 C584 0.960 . S
H570 C584 0.960 . S
H571 C584 0.960 . S
C572 H564 0.929 . S
C572 C573 1.377 . S
C572 C574 1.384 . S
C573 C572 1.377 . S
C573 C579 1.390 . S
C574 H565 0.930 . S
C574 C572 1.384 . S
C574 C575 1.372 . S
C575 C574 1.372 . S
C575 C576 1.400 . S
C575 C580 1.490 . S
C576 H566 0.930 . S
C576 C575 1.400 . S
C576 C579 1.386 . S
H577 C593 0.930 . S
H578 C594 0.931 . S
C579 H567 0.929 . S
C579 C573 1.390 . S
C579 C576 1.386 . S
C580 C575 1.490 . S
C580 C582 1.395 . S
C580 C583 1.403 . S
H581 C587 0.930 . S
C582 H568 0.930 . S
C582 C580 1.395 . S
C582 C585 1.403 . S
C583 C580 1.403 . S
C583 C584 1.524 . S
C583 C587 1.400 . S
C584 H569 0.960 . S
C584 H570 0.960 . S
C584 H571 0.960 . S
C584 C583 1.524 . S
C585 C582 1.403 . S
C585 C586 1.392 . S
C585 C589 1.495 . S
C586 C585 1.392 . S
C586 C587 1.385 . S
C586 C588 1.478 . S
C587 H581 0.930 . S
C587 C583 1.400 . S
C587 C586 1.385 . S
C588 C586 1.478 . S
C588 C590 1.381 . S
C588 C594 1.383 . S
C589 C585 1.495 . S
C589 H595 0.959 . S
C589 H596 0.961 . S
C589 H597 0.960 . S
C590 C588 1.381 . S
C590 C591 1.394 . S
C590 H598 0.930 . S
C591 C590 1.394 . S
C591 C592 1.383 . S
C591 H599 0.929 . S
C592 C591 1.383 . S
C592 C593 1.377 . S
C593 H577 0.930 . S
C593 C592 1.377 . S
C593 C594 1.379 . S
C594 H578 0.931 . S
C594 C588 1.383 . S
C594 C593 1.379 . S
H595 C589 0.959 . S
H596 C589 0.961 . S
H597 C589 0.960 . S
H598 C590 0.930 . S
H599 C591 0.929 . S
H600 C608 0.929 . S
H601 C610 0.930 1_554 S
H602 C612 0.930 . S
H603 C615 0.929 . S
H604 C618 0.930 . S
H605 C620 0.960 . S
H606 C620 0.960 . S
H607 C620 0.960 . S
C608 H600 0.929 . S
C608 C609 1.377 1_554 S
C608 C610 1.384 1_554 S
C609 C608 1.377 1_556 S
C609 C615 1.390 . S
C610 H601 0.930 1_556 S
C610 C608 1.384 1_556 S
C610 C611 1.372 . S
C611 C610 1.372 . S
C611 C612 1.400 . S
C611 C616 1.490 . S
C612 H602 0.930 . S
C612 C611 1.400 . S
C612 C615 1.386 . S
H613 C629 0.930 . S
H614 C630 0.931 . S
C615 H603 0.929 . S
C615 C609 1.390 . S
C615 C612 1.386 . S
C616 C611 1.490 . S
C616 C618 1.395 . S
C616 C619 1.403 . S
H617 C623 0.930 . S
C618 H604 0.930 . S
C618 C616 1.395 . S
C618 C621 1.418 . S
C619 C616 1.403 . S
C619 C620 1.524 . S
C619 C623 1.400 . S
C620 H605 0.960 . S
C620 H606 0.960 . S
C620 H607 0.960 . S
C620 C619 1.524 . S
C621 C618 1.418 . S
C621 C622 1.413 . S
C621 C625 1.461 1_655 S
C622 C621 1.413 . S
C622 C623 1.385 . S
C622 C624 1.478 1_655 S
C623 H617 0.930 . S
C623 C619 1.400 . S
C623 C622 1.385 . S
C624 C622 1.478 1_455 S
C624 C626 1.381 . S
C624 C630 1.383 . S
C625 C621 1.461 1_455 S
C625 H631 0.959 . S
C625 H632 0.961 . S
C625 H633 0.960 . S
C626 C624 1.381 . S
C626 C627 1.394 . S
C626 H634 0.930 . S
C627 C626 1.394 . S
C627 C628 1.383 . S
C627 H635 0.929 . S
C628 C627 1.383 . S
C628 C629 1.377 . S
C629 H613 0.930 . S
C629 C628 1.377 . S
C629 C630 1.379 . S
C630 H614 0.931 . S
C630 C624 1.383 . S
C630 C629 1.379 . S
H631 C625 0.959 . S
H632 C625 0.961 . S
H633 C625 0.960 . S
H634 C626 0.930 . S
H635 C627 0.929 . S
H636 C644 0.929 . S
H637 C646 0.930 . S
H638 C648 0.930 . S
H639 C651 0.929 . S
H640 C654 0.930 . S
H641 C656 0.960 . S
H642 C656 0.960 . S
H643 C656 0.960 . S
C644 H636 0.929 . S
C644 C645 1.377 . S
C644 C646 1.384 . S
C645 C644 1.377 . S
C645 C651 1.390 . S
C646 H637 0.930 . S
C646 C644 1.384 . S
C646 C647 1.372 . S
C647 C646 1.372 . S
C647 C648 1.400 . S
C647 C652 1.490 . S
C648 H638 0.930 . S
C648 C647 1.400 . S
C648 C651 1.386 . S
H649 C665 0.930 . S
H650 C666 0.931 . S
C651 H639 0.929 . S
C651 C645 1.390 . S
C651 C648 1.386 . S
C652 C647 1.490 . S
C652 C654 1.395 . S
C652 C655 1.403 . S
H653 C659 0.930 1_565 S
C654 H640 0.930 . S
C654 C652 1.395 . S
C654 C657 1.403 . S
C655 C652 1.403 . S
C655 C656 1.524 . S
C655 C659 1.400 . S
C656 H641 0.960 . S
C656 H642 0.960 . S
C656 H643 0.960 . S
C656 C655 1.524 . S
C657 C654 1.403 . S
C657 C658 1.392 . S
C657 C661 1.495 . S
C658 C657 1.392 . S
C658 C659 1.385 . S
C658 C660 1.478 1_545 S
C659 H653 0.930 1_545 S
C659 C655 1.400 . S
C659 C658 1.385 . S
C660 C658 1.478 1_565 S
C660 C662 1.381 . S
C660 C666 1.383 . S
C661 C657 1.495 . S
C661 H667 0.959 . S
C661 H668 0.961 . S
C661 H669 0.960 . S
C662 C660 1.381 . S
C662 C663 1.394 . S
C662 H670 0.930 1_565 S
C663 C662 1.394 . S
C663 C664 1.383 . S
C663 H671 0.929 . S
C664 C663 1.383 . S
C664 C665 1.377 . S
C665 H649 0.930 . S
C665 C664 1.377 . S
C665 C666 1.379 . S
C666 H650 0.931 . S
C666 C660 1.383 . S
C666 C665 1.379 . S
H667 C661 0.959 . S
H668 C661 0.961 . S
H669 C661 0.960 . S
H670 C662 0.930 1_545 S
H671 C663 0.929 . S
H672 C680 0.929 . S
H673 C682 0.930 . S
H674 C684 0.930 . S
H675 C687 0.929 . S
H676 C690 0.930 . S
H677 C692 0.960 . S
H678 C692 0.960 . S
H679 C692 0.960 . S
C680 H672 0.929 . S
C680 C681 1.377 . S
C680 C682 1.384 . S
C681 C680 1.377 . S
C681 C687 1.390 . S
C682 H673 0.930 . S
C682 C680 1.384 . S
C682 C683 1.372 . S
C683 C682 1.372 . S
C683 C684 1.400 . S
C683 C688 1.490 . S
C684 H674 0.930 . S
C684 C683 1.400 . S
C684 C687 1.386 . S
H685 C701 0.931 . S
H686 C702 0.931 . S
C687 H675 0.929 . S
C687 C681 1.390 . S
C687 C684 1.386 . S
C688 C683 1.490 . S
C688 C690 1.395 . S
C688 C691 1.403 . S
H689 C695 0.930 . S
C690 H676 0.930 . S
C690 C688 1.395 . S
C690 C693 1.403 . S
C691 C688 1.403 . S
C691 C692 1.524 . S
C691 C695 1.400 . S
C692 H677 0.960 . S
C692 H678 0.960 . S
C692 H679 0.960 . S
C692 C691 1.524 . S
C693 C690 1.403 . S
C693 C694 1.392 . S
C693 C697 1.495 . S
C694 C693 1.392 . S
C694 C695 1.385 . S
C694 C696 1.478 . S
C695 H689 0.930 . S
C695 C691 1.400 . S
C695 C694 1.385 . S
C696 C694 1.478 . S
C696 C698 1.381 . S
C696 C702 1.383 . S
C697 C693 1.495 . S
C697 H703 0.959 . S
C697 H704 0.961 . S
C697 H705 0.960 . S
C698 C696 1.381 . S
C698 C699 1.394 1_455 S
C698 H706 0.930 . S
C699 C698 1.394 1_655 S
C699 C700 1.383 . S
C699 H707 0.929 . S
C700 C699 1.383 . S
C700 C701 1.377 . S
C701 H685 0.931 . S
C701 C700 1.377 . S
C701 C702 1.378 1_655 S
C702 H686 0.931 . S
C702 C696 1.383 . S
C702 C701 1.378 1_455 S
H703 C697 0.959 . S
H704 C697 0.961 . S
H705 C697 0.960 . S
H706 C698 0.930 . S
H707 C699 0.929 . S
H708 C716 0.929 . S
H709 C718 0.930 . S
H710 C720 0.930 . S
H711 C723 0.929 . S
H712 C726 0.930 . S
H713 C728 0.960 . S
H714 C728 0.960 . S
H715 C728 0.960 . S
C716 H708 0.929 . S
C716 C717 1.377 . S
C716 C718 1.384 . S
C717 C716 1.377 . S
C717 C723 1.390 . S
C718 H709 0.930 . S
C718 C716 1.384 . S
C718 C719 1.372 . S
C719 C718 1.372 . S
C719 C720 1.400 . S
C719 C724 1.490 . S
C720 H710 0.930 . S
C720 C719 1.400 . S
C720 C723 1.386 . S
H721 C737 0.930 . S
H722 C738 0.931 . S
C723 H711 0.929 . S
C723 C717 1.390 . S
C723 C720 1.386 . S
C724 C719 1.490 . S
C724 C726 1.395 . S
C724 C727 1.403 . S
H725 C731 0.930 . S
C726 H712 0.930 . S
C726 C724 1.395 . S
C726 C729 1.403 . S
C727 C724 1.403 . S
C727 C728 1.524 . S
C727 C731 1.400 . S
C728 H713 0.960 . S
C728 H714 0.960 . S
C728 H715 0.960 . S
C728 C727 1.524 . S
C729 C726 1.403 . S
C729 C730 1.392 . S
C729 C733 1.495 . S
C730 C729 1.392 . S
C730 C731 1.385 . S
C730 C732 1.478 . S
C731 H725 0.930 . S
C731 C727 1.400 . S
C731 C730 1.385 . S
C732 C730 1.478 . S
C732 C734 1.381 1_556 S
C732 C738 1.383 . S
C733 C729 1.495 . S
C733 H739 0.959 . S
C733 H740 0.961 . S
C733 H741 0.960 . S
C734 C732 1.381 1_554 S
C734 C735 1.394 . S
C734 H742 0.930 . S
C735 C734 1.394 . S
C735 C736 1.383 1_554 S
C735 H743 0.929 . S
C736 C735 1.383 1_556 S
C736 C737 1.377 . S
C737 H721 0.930 . S
C737 C736 1.377 . S
C737 C738 1.379 . S
C738 H722 0.931 . S
C738 C732 1.383 . S
C738 C737 1.379 . S
H739 C733 0.959 . S
H740 C733 0.961 . S
H741 C733 0.960 . S
H742 C734 0.930 . S
H743 C735 0.929 . S
C213 C2 1.614 . S
C232 C104 1.608 . S
C249 C138 1.616 . S
C268 C36 1.614 . S
C285 C70 1.615 . S
C304 C172 1.615 . S
C321 C9 0.887 . S
C340 C5 0.892 . S
C357 C43 0.897 . S
C376 C39 0.910 . S
C393 C77 0.902 . S
C412 C73 0.922 . S
C429 C107 0.909 . S
C448 C111 0.873 . S
C465 C145 0.888 . S
C484 C141 0.892 . S
C501 C175 0.908 . S
C520 C179 0.878 . S
C537 C20 1.560 . S
C556 C67 1.575 . S
C573 C54 1.557 . S
C592 C101 1.569 . S
C609 C135 1.569 1_556 S
C628 C88 1.549 . S
C645 C122 1.559 . S
C664 C169 1.574 . S
C681 C203 1.566 . S
C700 C156 1.539 . S
C717 C190 1.555 . S
C736 C33 1.564 1_556 S
