# Generated by pormake.
# Topology ttw, (5)-cn, num edge types: 1
# Building blocks:
#     Node 0, Type 0, BuildingBlock: BEQFEK_clean_sbu_0, # of connection points: 5
#     Node 1, Type 0, BuildingBlock: BEQFEK_clean_sbu_0, # of connection points: 5
#     Node 2, Type 0, BuildingBlock: BEQFEK_clean_sbu_0, # of connection points: 5
#     Node 3, Type 0, BuildingBlock: BEQFEK_clean_sbu_0, # of connection points: 5
#     Node 4, Type 0, BuildingBlock: BEQFEK_clean_sbu_0, # of connection points: 5
#     Node 5, Type 0, BuildingBlock: BEQFEK_clean_sbu_0, # of connection points: 5
#     Edge 6, Type (0, 0), BuildingBlock: KIFKEQ_clean_linker_1, # of connection points: 2
#     Edge 7, Type (0, 0), BuildingBlock: KIFKEQ_clean_linker_1, # of connection points: 2
#     Edge 8, Type (0, 0), BuildingBlock: KIFKEQ_clean_linker_1, # of connection points: 2
#     Edge 9, Type (0, 0), BuildingBlock: KIFKEQ_clean_linker_1, # of connection points: 2
#     Edge 10, Type (0, 0), BuildingBlock: KIFKEQ_clean_linker_1, # of connection points: 2
#     Edge 11, Type (0, 0), BuildingBlock: KIFKEQ_clean_linker_1, # of connection points: 2
#     Edge 12, Type (0, 0), BuildingBlock: KIFKEQ_clean_linker_1, # of connection points: 2
#     Edge 13, Type (0, 0), BuildingBlock: KIFKEQ_clean_linker_1, # of connection points: 2
#     Edge 14, Type (0, 0), BuildingBlock: KIFKEQ_clean_linker_1, # of connection points: 2
#     Edge 15, Type (0, 0), BuildingBlock: KIFKEQ_clean_linker_1, # of connection points: 2
#     Edge 16, Type (0, 0), BuildingBlock: KIFKEQ_clean_linker_1, # of connection points: 2
#     Edge 17, Type (0, 0), BuildingBlock: KIFKEQ_clean_linker_1, # of connection points: 2
#     Edge 18, Type (0, 0), BuildingBlock: KIFKEQ_clean_linker_1, # of connection points: 2
#     Edge 19, Type (0, 0), BuildingBlock: KIFKEQ_clean_linker_1, # of connection points: 2
#     Edge 20, Type (0, 0), BuildingBlock: KIFKEQ_clean_linker_1, # of connection points: 2
# Relax obj value: 0.109
# Max RMSD: 0.172
# Mean RMSD: 0.159
data_MOF--net-ttw--node1-BEQFEK_clean_sbu_0--edge1-KIFKEQ_clean_linker_1
_symmetry_space_group_name_H-M    P1
_symmetry_Int_Tables_number       1
_symmetry_cell_setting            triclinic
loop_
_symmetry_equiv_pos_as_xyz
'x, y, z'
_cell_length_a     56.415721
_cell_length_b     58.904708
_cell_length_c     19.79473
_cell_angle_alpha  91.244155
_cell_angle_beta   90.077814
_cell_angle_gamma 125.73407
loop_
_atom_site_label
_atom_site_type_symbol
_atom_site_fract_x
_atom_site_fract_y
_atom_site_fract_z
_atom_type_partial_charge
Co0 Co 0.17509 0.52929 0.02646 0.0
Co1 Co 0.17683 0.53715 0.18464 0.0
C2 C 0.21731 0.52743 0.11281 0.0
O3 O 0.20586 0.52505 0.05516 0.0
O4 O 0.20817 0.53208 0.16659 0.0
C5 C 0.17558 0.51018 0.88933 0.0
O6 O 0.19002 0.50108 0.91481 0.0
C7 C 0.1745 0.5275 0.33284 0.0
C8 C 0.16214 0.55492 0.36927 0.0
C9 C 0.16858 0.5369 0.39117 0.0
N10 N 0.17146 0.53939 0.27927 0.0
N11 N 0.16404 0.55569 0.30165 0.0
C12 C 0.18399 0.50852 0.32807 0.0
H13 H 0.19561 0.51154 0.28048 0.0
H14 H 0.16441 0.48648 0.32856 0.0
H15 H 0.19837 0.51231 0.3717 0.0
C16 C 0.11277 0.48635 0.05401 0.0
N17 N 0.14045 0.50575 0.07516 0.0
N18 N 0.14106 0.50884 0.14132 0.0
C19 C 0.11369 0.49154 0.16436 0.0
C20 C 0.09489 0.47672 0.10988 0.0
C21 C 0.10351 0.47957 0.98118 0.0
H22 H 0.11075 0.49908 0.95512 0.0
H23 H 0.11441 0.47087 0.95685 0.0
H24 H 0.07951 0.46435 0.97491 0.0
O25 O 0.1907 0.56922 0.03986 0.0
O26 O 0.19068 0.57424 0.1511 0.0
H27 H 0.10909 0.5099 0.25301 0.0
H28 H 0.08233 0.47243 0.24483 0.0
C29 C 0.1055 0.48995 0.23685 0.0
H30 H 0.11962 0.48697 0.26862 0.0
H31 H 0.16041 0.56751 0.2706 0.0
O32 O 0.16727 0.52164 0.92816 0.0
C33 C 0.19569 0.58431 0.09242 0.0
Co34 Co 0.48237 0.163 0.15983 0.0
Co35 Co 0.48314 0.16175 0.00149 0.0
C36 C 0.47824 0.20303 0.07774 0.0
O37 O 0.4791 0.19321 0.13361 0.0
O38 O 0.47894 0.19253 0.02142 0.0
C39 C 0.46129 0.163 0.29364 0.0
O40 O 0.44814 0.17287 0.26503 0.0
C41 C 0.47132 0.15861 0.8528 0.0
C42 C 0.49962 0.14641 0.81695 0.0
C43 C 0.48123 0.15313 0.79462 0.0
N44 N 0.48349 0.15526 0.90677 0.0
N45 N 0.50019 0.14782 0.88469 0.0
C46 C 0.45211 0.16836 0.85699 0.0
H47 H 0.45437 0.17826 0.90698 0.0
H48 H 0.42902 0.15007 0.84992 0.0
H49 H 0.45744 0.18334 0.8165 0.0
C50 C 0.44101 0.10264 0.13457 0.0
N51 N 0.45565 0.1289 0.11222 0.0
N52 N 0.45519 0.12813 0.04575 0.0
C53 C 0.43985 0.1012 0.02388 0.0
C54 C 0.43074 0.08413 0.07941 0.0
C55 C 0.44174 0.09586 0.20666 0.0
H56 H 0.46475 0.1063 0.22351 0.0
H57 H 0.43211 0.10407 0.23886 0.0
H58 H 0.42933 0.07296 0.21342 0.0
O59 O 0.52287 0.17544 0.14378 0.0
O60 O 0.52267 0.1746 0.03181 0.0
H61 H 0.46047 0.09653 0.93978 0.0
H62 H 0.42187 0.06944 0.94427 0.0
C63 C 0.43904 0.09218 0.95217 0.0
H64 H 0.43467 0.10399 0.91776 0.0
H65 H 0.51245 0.14417 0.91603 0.0
O66 O 0.47626 0.15766 0.25787 0.0
C67 C 0.53576 0.17906 0.08814 0.0
Co68 Co 0.48162 0.64763 0.01575 0.0
Co69 Co 0.48356 0.64897 0.17511 0.0
C70 C 0.49638 0.69797 0.10187 0.0
O71 O 0.49257 0.68503 0.0459 0.0
O72 O 0.49363 0.6867 0.15836 0.0
C73 C 0.50918 0.66462 0.88487 0.0
O74 O 0.5336 0.68112 0.91984 0.0
C75 C 0.4959 0.65956 0.32391 0.0
C76 C 0.47708 0.61645 0.35553 0.0
C77 C 0.4915 0.64372 0.37985 0.0
N78 N 0.48473 0.64233 0.26894 0.0
N79 N 0.47326 0.6166 0.28856 0.0
C80 C 0.51163 0.69057 0.32188 0.0
H81 H 0.49534 0.6954 0.32069 0.0
H82 H 0.52464 0.69862 0.27521 0.0
H83 H 0.52613 0.70117 0.36694 0.0
C84 C 0.51996 0.6289 0.03774 0.0
N85 N 0.50526 0.63913 0.05994 0.0
N86 N 0.50816 0.64248 0.12613 0.0
C87 C 0.52599 0.63585 0.14771 0.0
C88 C 0.5336 0.62645 0.09278 0.0
C89 C 0.51788 0.6184 0.96689 0.0
H90 H 0.49745 0.61274 0.94177 0.0
H91 H 0.53679 0.63509 0.93807 0.0
H92 H 0.51841 0.59986 0.96628 0.0
O93 O 0.44012 0.61934 0.03582 0.0
O94 O 0.44208 0.62066 0.14785 0.0
H95 H 0.52035 0.62021 0.24738 0.0
H96 H 0.55773 0.64237 0.22149 0.0
C97 C 0.53635 0.63928 0.21937 0.0
H98 H 0.53861 0.65751 0.24426 0.0
H99 H 0.46316 0.59913 0.25581 0.0
O100 O 0.48538 0.6485 0.91576 0.0
C101 C 0.42764 0.61081 0.09246 0.0
Co102 Co 0.79959 0.34908 0.16188 0.0
Co103 Co 0.80127 0.35052 0.00316 0.0
C104 C 0.75171 0.30159 0.07295 0.0
O105 O 0.76327 0.31318 0.13034 0.0
O106 O 0.76423 0.31335 0.01792 0.0
C107 C 0.79288 0.32631 0.29483 0.0
O108 O 0.77746 0.30176 0.2634 0.0
C109 C 0.80179 0.33994 0.85574 0.0
C110 C 0.83097 0.38351 0.82186 0.0
C111 C 0.81478 0.35592 0.79881 0.0
N112 N 0.81011 0.35744 0.90975 0.0
N113 N 0.82737 0.3834 0.88893 0.0
C114 C 0.78329 0.30878 0.8599 0.0
H115 H 0.78657 0.30265 0.90976 0.0
H116 H 0.78855 0.29933 0.81885 0.0
H117 H 0.75997 0.30062 0.85478 0.0
C118 C 0.8585 0.36282 0.14253 0.0
N119 N 0.83256 0.35544 0.11794 0.0
N120 N 0.83317 0.35552 0.0515 0.0
C121 C 0.85954 0.36277 0.03174 0.0
C122 C 0.87649 0.36776 0.08864 0.0
C123 C 0.86681 0.36827 0.21601 0.0
H124 H 0.85369 0.34822 0.2428 0.0
H125 H 0.89035 0.37784 0.22446 0.0
H126 H 0.86157 0.38234 0.23781 0.0
O127 O 0.7954 0.37962 0.14454 0.0
O128 O 0.79502 0.37884 0.03254 0.0
H129 H 0.87393 0.3862 0.94147 0.0
H130 H 0.88892 0.36673 0.95516 0.0
C131 C 0.86903 0.36625 0.95988 0.0
H132 H 0.85128 0.34877 0.92794 0.0
H133 H 0.83691 0.40109 0.9208 0.0
O134 O 0.80397 0.34836 0.26099 0.0
C135 C 0.79328 0.38866 0.08866 0.0
Co136 Co 0.40393 0.83621 0.15171 0.0
Co137 Co 0.39871 0.83208 0.99279 0.0
C138 C 0.44166 0.82683 0.06612 0.0
O139 O 0.4338 0.83066 0.12305 0.0
O140 O 0.43002 0.82687 0.0108 0.0
C141 C 0.4295 0.85176 0.28762 0.0
O142 O 0.45325 0.85705 0.25944 0.0
C143 C 0.41193 0.84278 0.84676 0.0
C144 C 0.36868 0.82902 0.80701 0.0
C145 C 0.39705 0.84033 0.78784 0.0
N146 N 0.39313 0.83348 0.89824 0.0
N147 N 0.36729 0.82506 0.87387 0.0
C148 C 0.44373 0.85542 0.85519 0.0
H149 H 0.45141 0.86466 0.90694 0.0
H150 H 0.45669 0.87167 0.81717 0.0
H151 H 0.44712 0.83878 0.84799 0.0
C152 C 0.411 0.88914 0.12731 0.0
N153 N 0.4077 0.8657 0.1049 0.0
N154 N 0.40628 0.86449 0.03841 0.0
C155 C 0.40892 0.88736 0.01634 0.0
C156 C 0.41184 0.90361 0.07197 0.0
C157 C 0.41377 0.89754 0.20037 0.0
H158 H 0.43214 0.89838 0.22386 0.0
H159 H 0.41775 0.91825 0.2073 0.0
H160 H 0.39352 0.88147 0.22665 0.0
O161 O 0.3649 0.8008 0.1347 0.0
O162 O 0.36127 0.79836 0.02285 0.0
H163 H 0.40996 0.91279 0.93691 0.0
H164 H 0.423 0.89202 0.91412 0.0
C165 C 0.4066 0.89247 0.9437 0.0
H166 H 0.38459 0.87559 0.92367 0.0
H167 H 0.34878 0.81703 0.90324 0.0
O168 O 0.40719 0.8435 0.25082 0.0
C169 C 0.35068 0.7883 0.08028 0.0
Co170 Co 0.62548 0.4561 0.1725 0.0
Co171 Co 0.62781 0.45856 0.01417 0.0
C172 C 0.67429 0.46157 0.09086 0.0
O173 O 0.6608 0.4586 0.14531 0.0
O174 O 0.66475 0.46293 0.03373 0.0
C175 C 0.64987 0.47415 0.30765 0.0
O176 O 0.67506 0.48545 0.27785 0.0
C177 C 0.63994 0.47092 0.86794 0.0
C178 C 0.59524 0.45349 0.83086 0.0
C179 C 0.62377 0.46689 0.81 0.0
N180 N 0.62165 0.46041 0.92041 0.0
N181 N 0.595 0.4499 0.89765 0.0
C182 C 0.67225 0.48582 0.87452 0.0
H183 H 0.67739 0.47034 0.86895 0.0
H184 H 0.68006 0.49613 0.92526 0.0
H185 H 0.6838 0.50161 0.83484 0.0
C186 C 0.61917 0.50196 0.15481 0.0
N187 N 0.62396 0.48355 0.12999 0.0
N188 N 0.62612 0.48549 0.06389 0.0
C189 C 0.62354 0.50579 0.04478 0.0
C190 C 0.61888 0.51675 0.10168 0.0
C191 C 0.61341 0.50414 0.22758 0.0
H192 H 0.59521 0.48322 0.24494 0.0
H193 H 0.6331 0.51098 0.25827 0.0
H194 H 0.60801 0.51932 0.23594 0.0
O195 O 0.59052 0.41827 0.14839 0.0
O196 O 0.59487 0.41994 0.03704 0.0
H197 H 0.60111 0.49631 0.95 0.0
H198 H 0.62593 0.53316 0.96958 0.0
C199 C 0.62269 0.51275 0.97298 0.0
H200 H 0.6399 0.51347 0.944 0.0
H201 H 0.57662 0.44045 0.92805 0.0
O202 O 0.62647 0.46107 0.27208 0.0
C203 C 0.58182 0.40664 0.09 0.0
H204 H 0.05705 0.4223 0.06776 0.0
H205 H 0.06091 0.49265 0.15119 0.0
H206 H 0.0034 0.39436 0.06382 0.0
H207 H 0.00754 0.46503 0.1469 0.0
H208 H 0.91736 0.41872 0.04044 0.0
H209 H 0.97045 0.44422 0.04725 0.0
H210 H 0.96032 0.37514 0.14984 0.0
H211 H 0.9069 0.34966 0.14336 0.0
C212 C 0.0463 0.43161 0.08551 0.0
C213 C 0.06276 0.45943 0.10982 0.0
C214 C 0.01578 0.41571 0.08355 0.0
C215 C 0.00148 0.42765 0.10486 0.0
C216 C 0.0181 0.45544 0.12973 0.0
C217 C 0.04849 0.47115 0.1325 0.0
C218 C 0.92656 0.40899 0.06403 0.0
C219 C 0.90835 0.38234 0.09123 0.0
C220 C 0.95682 0.42359 0.06831 0.0
C221 C 0.96936 0.41163 0.09925 0.0
C222 C 0.95109 0.3847 0.12548 0.0
C223 C 0.92072 0.37023 0.12201 0.0
H224 H 0.37459 0.91295 0.1302 0.0
H225 H 0.45322 0.95241 0.01394 0.0
H226 H 0.37793 0.95639 0.13124 0.0
H227 H 0.45656 0.99576 0.01414 0.0
H228 H 0.47185 0.0757 0.10431 0.0
H229 H 0.46649 0.03145 0.10171 0.0
H230 H 0.37493 0.98743 0.05 0.0
H231 H 0.38054 0.03214 0.05301 0.0
C232 C 0.39254 0.931 0.10487 0.0
C233 C 0.41373 0.92963 0.07219 0.0
C234 C 0.39433 0.95568 0.10496 0.0
C235 C 0.41752 0.97942 0.07284 0.0
C236 C 0.43861 0.97786 0.03984 0.0
C237 C 0.43668 0.95314 0.03941 0.0
C238 C 0.45059 0.05648 0.09274 0.0
C239 C 0.42652 0.057 0.0793 0.0
C240 C 0.44756 0.03125 0.09074 0.0
C241 C 0.42033 0.00604 0.07539 0.0
C242 C 0.39611 0.00657 0.06245 0.0
C243 C 0.39925 0.03198 0.06398 0.0
H244 H 0.64861 0.57202 0.07396 0.0
H245 H 0.56416 0.49967 0.1295 0.0
H246 H 0.62924 0.60002 0.07272 0.0
H247 H 0.54429 0.52688 0.12577 0.0
H248 H 0.52301 0.58686 0.18052 0.0
H249 H 0.54574 0.56251 0.18586 0.0
H250 H 0.5969 0.60641 0.01095 0.0
H251 H 0.57541 0.63245 0.00902 0.0
C252 C 0.6259 0.56225 0.08586 0.0
C253 C 0.60782 0.53398 0.10257 0.0
C254 C 0.61472 0.57809 0.08461 0.0
C255 C 0.58522 0.56576 0.09947 0.0
C256 C 0.56724 0.53727 0.11558 0.0
C257 C 0.57849 0.52162 0.11748 0.0
C258 C 0.53964 0.59186 0.14424 0.0
C259 C 0.54778 0.61185 0.09496 0.0
C260 C 0.55231 0.57749 0.14648 0.0
C261 C 0.57302 0.5823 0.09854 0.0
C262 C 0.58126 0.6024 0.04913 0.0
C263 C 0.56876 0.61709 0.04747 0.0
H264 H 0.18364 0.57222 0.49856 0.0
H265 H 0.15481 0.48793 0.4471 0.0
H266 H 0.18348 0.56306 0.61775 0.0
H267 H 0.15537 0.47903 0.56693 0.0
H268 H 0.19415 0.49137 0.78883 0.0
H269 H 0.19155 0.49578 0.66677 0.0
H270 H 0.14505 0.53261 0.70112 0.0
H271 H 0.14763 0.52836 0.82232 0.0
C272 C 0.17743 0.55176 0.51259 0.0
C273 C 0.16972 0.53099 0.46304 0.0
C274 C 0.17726 0.5465 0.58093 0.0
C275 C 0.16931 0.52029 0.60159 0.0
C276 C 0.16192 0.49953 0.55227 0.0
C277 C 0.16188 0.50475 0.48356 0.0
C278 C 0.18309 0.50011 0.77023 0.0
C279 C 0.17142 0.50983 0.81536 0.0
C280 C 0.18154 0.50255 0.7004 0.0
C281 C 0.16846 0.5149 0.67464 0.0
C282 C 0.15574 0.52349 0.71965 0.0
C283 C 0.15713 0.52093 0.78913 0.0
H284 H 0.48188 0.1387 0.36442 0.0
H285 H 0.4382 0.17888 0.38986 0.0
H286 H 0.48428 0.13605 0.48618 0.0
H287 H 0.44094 0.17642 0.51282 0.0
H288 H 0.43101 0.14048 0.73092 0.0
H289 H 0.42365 0.14221 0.60964 0.0
H290 H 0.5131 0.17263 0.57506 0.0
H291 H 0.52052 0.17115 0.69522 0.0
C292 C 0.47271 0.14692 0.39599 0.0
C293 C 0.46023 0.15938 0.36748 0.0
C294 C 0.47417 0.14547 0.46582 0.0
C295 C 0.46324 0.15646 0.50894 0.0
C296 C 0.44954 0.16779 0.48066 0.0
C297 C 0.44807 0.16928 0.41039 0.0
C298 C 0.44924 0.14814 0.69761 0.0
C299 C 0.47641 0.15585 0.72269 0.0
C300 C 0.44496 0.14896 0.62817 0.0
C301 C 0.4677 0.15723 0.58294 0.0
C302 C 0.49499 0.16561 0.60852 0.0
C303 C 0.49925 0.16484 0.67742 0.0
H304 H 0.4634 0.6484 0.8003 0.0
H305 H 0.55482 0.68147 0.80075 0.0
H306 H 0.46286 0.64808 0.67682 0.0
H307 H 0.55401 0.68053 0.67678 0.0
H308 H 0.51757 0.62908 0.46555 0.0
H309 H 0.52485 0.63788 0.58781 0.0
H310 H 0.48858 0.68512 0.57904 0.0
H311 H 0.48184 0.67675 0.45611 0.0
C312 C 0.48338 0.65561 0.77401 0.0
C313 C 0.50914 0.66488 0.81016 0.0
C314 C 0.4831 0.65565 0.70342 0.0
C315 C 0.50842 0.66442 0.66747 0.0
C316 C 0.53422 0.67372 0.70346 0.0
C317 C 0.53467 0.67426 0.77423 0.0
C318 C 0.51174 0.64184 0.48966 0.0
C319 C 0.49939 0.65246 0.4516 0.0
C320 C 0.51597 0.64692 0.55942 0.0
C321 C 0.50725 0.66214 0.59267 0.0
C322 C 0.49548 0.67332 0.55443 0.0
C323 C 0.49184 0.66874 0.48426 0.0
H324 H 0.76623 0.31333 0.72827 0.0
H325 H 0.85786 0.37956 0.70721 0.0
H326 H 0.76176 0.30397 0.60629 0.0
H327 H 0.85358 0.37005 0.58583 0.0
H328 H 0.82534 0.37393 0.37302 0.0
H329 H 0.83098 0.37814 0.49516 0.0
H330 H 0.77582 0.28808 0.50803 0.0
H331 H 0.76963 0.28381 0.38498 0.0
C332 C 0.78558 0.3253 0.6979 0.0
C333 C 0.81243 0.3471 0.72719 0.0
C334 C 0.78301 0.32002 0.62796 0.0
C335 C 0.80725 0.33649 0.58623 0.0
C336 C 0.83436 0.35737 0.61631 0.0
C337 C 0.83685 0.36272 0.68586 0.0
C338 C 0.81445 0.35497 0.40168 0.0
C339 C 0.79698 0.32853 0.36917 0.0
C340 C 0.81788 0.35739 0.47182 0.0
C341 C 0.80401 0.33344 0.5114 0.0
C342 C 0.78664 0.30693 0.47898 0.0
C343 C 0.78322 0.3045 0.40851 0.0
H344 H 0.47235 0.86787 0.38311 0.0
H345 H 0.38298 0.84044 0.36049 0.0
H346 H 0.46855 0.86949 0.50595 0.0
H347 H 0.37895 0.84128 0.48225 0.0
H348 H 0.38333 0.86497 0.69787 0.0
H349 H 0.3948 0.87198 0.57834 0.0
H350 H 0.44458 0.83794 0.59924 0.0
H351 H 0.43364 0.83169 0.71972 0.0
C352 C 0.45195 0.86226 0.40426 0.0
C353 C 0.42797 0.85402 0.36195 0.0
C354 C 0.44972 0.86304 0.47465 0.0
C355 C 0.42349 0.85562 0.50411 0.0
C356 C 0.39969 0.84768 0.4615 0.0
C357 C 0.40193 0.84698 0.39145 0.0
C358 C 0.3971 0.85939 0.67705 0.0
C359 C 0.40763 0.84783 0.718 0.0
C360 C 0.40354 0.86324 0.60848 0.0
C361 C 0.42023 0.85512 0.57881 0.0
C362 C 0.43187 0.84466 0.62049 0.0
C363 C 0.42566 0.8411 0.68957 0.0
H364 H 0.69495 0.49737 0.40041 0.0
H365 H 0.60166 0.4554 0.38326 0.0
H366 H 0.6921 0.49971 0.52338 0.0
H367 H 0.59881 0.45728 0.50544 0.0
H368 H 0.60372 0.48552 0.71849 0.0
H369 H 0.61275 0.49073 0.59767 0.0
H370 H 0.67241 0.4678 0.61961 0.0
H371 H 0.66351 0.46288 0.74105 0.0
C372 C 0.67387 0.4887 0.42279 0.0
C373 C 0.64852 0.4762 0.38203 0.0
C374 C 0.67224 0.48992 0.49322 0.0
C375 C 0.64527 0.47882 0.52417 0.0
C376 C 0.62002 0.46649 0.48321 0.0
C377 C 0.62162 0.46521 0.41307 0.0
C378 C 0.61911 0.48202 0.69763 0.0
C379 C 0.63302 0.47393 0.73919 0.0
C380 C 0.62417 0.48484 0.6284 0.0
C381 C 0.643 0.47932 0.59888 0.0
C382 C 0.65797 0.47245 0.64092 0.0
C383 C 0.65299 0.46974 0.71055 0.0
H384 H 0.25655 0.54684 0.2178 0.0
H385 H 0.24012 0.51261 0.01385 0.0
H386 H 0.30616 0.56042 0.21302 0.0
H387 H 0.28957 0.52511 0.01003 0.0
H388 H 0.38811 0.59597 0.99038 0.0
H389 H 0.33535 0.56828 0.99822 0.0
H390 H 0.34136 0.55115 0.20648 0.0
H391 H 0.39442 0.57999 0.19927 0.0
C392 C 0.26322 0.54138 0.17266 0.0
C393 C 0.24455 0.52916 0.11571 0.0
C394 C 0.29176 0.54907 0.16997 0.0
C395 C 0.30217 0.54437 0.11058 0.0
C396 C 0.28257 0.52978 0.0559 0.0
C397 C 0.25412 0.5224 0.05827 0.0
C398 C 0.37818 0.58596 0.03756 0.0
C399 C 0.39549 0.59056 0.09448 0.0
C400 C 0.3478 0.56983 0.04199 0.0
C401 C 0.33396 0.55758 0.10325 0.0
C402 C 0.35126 0.56074 0.15895 0.0
C403 C 0.38169 0.57719 0.15474 0.0
H404 H 0.56631 0.1767 0.98487 0.0
H405 H 0.57587 0.20683 0.19105 0.0
H406 H 0.61875 0.19954 0.98016 0.0
H407 H 0.62838 0.23074 0.18558 0.0
H408 H 0.71279 0.28059 0.96701 0.0
H409 H 0.66037 0.24572 0.97162 0.0
H410 H 0.66921 0.22943 0.17874 0.0
H411 H 0.72165 0.26535 0.17489 0.0
C412 C 0.57963 0.18811 0.02934 0.0
C413 C 0.56701 0.19022 0.08813 0.0
C414 C 0.60973 0.20132 0.02654 0.0
C415 C 0.62798 0.21731 0.08214 0.0
C416 C 0.61509 0.21832 0.14198 0.0
C417 C 0.58493 0.20476 0.14507 0.0
C418 C 0.70366 0.26913 0.01307 0.0
C419 C 0.72132 0.27606 0.0709 0.0
C420 C 0.67349 0.24898 0.01572 0.0
C421 C 0.66036 0.23501 0.07601 0.0
C422 C 0.67843 0.24031 0.13207 0.0
C423 C 0.70855 0.26074 0.12969 0.0
H424 H 0.48675 0.72382 0.20309 0.0
H425 H 0.51474 0.73333 0.99622 0.0
H426 H 0.48271 0.76241 0.19198 0.0
H427 H 0.51193 0.77283 0.98576 0.0
H428 H 0.47814 0.83337 0.16792 0.0
H429 H 0.50183 0.80976 0.17688 0.0
H430 H 0.47205 0.77543 0.974 0.0
H431 H 0.44953 0.79992 0.96424 0.0
C432 C 0.49296 0.73474 0.15589 0.0
C433 C 0.5005 0.72517 0.10016 0.0
C434 C 0.4908 0.75706 0.1495 0.0
C435 C 0.49653 0.77054 0.08748 0.0
C436 C 0.50661 0.7625 0.03368 0.0
C437 C 0.50839 0.73995 0.03981 0.0
C438 C 0.47733 0.82135 0.12461 0.0
C439 C 0.46151 0.81811 0.06577 0.0
C440 C 0.49075 0.80765 0.12993 0.0
C441 C 0.48834 0.79013 0.07683 0.0
C442 C 0.4746 0.78884 0.01593 0.0
C443 C 0.4615 0.80283 0.01033 0.0
H444 H 0.7952 0.42075 0.19418 0.0
H445 H 0.7728 0.40119 0.98182 0.0
H446 H 0.77469 0.44749 0.19595 0.0
H447 H 0.75091 0.42625 0.98425 0.0
H448 H 0.71421 0.47451 0.99217 0.0
H449 H 0.75157 0.46591 0.99305 0.0
H450 H 0.72765 0.43559 0.19639 0.0
H451 H 0.69187 0.44568 0.19669 0.0
C452 C 0.78614 0.42237 0.14778 0.0
C453 C 0.78524 0.40849 0.08817 0.0
C454 C 0.77419 0.43754 0.1488 0.0
C455 C 0.76056 0.43869 0.09057 0.0
C456 C 0.76141 0.42624 0.03003 0.0
C457 C 0.77381 0.41156 0.02875 0.0
C458 C 0.71743 0.46656 0.03746 0.0
C459 C 0.69977 0.4604 0.09394 0.0
C460 C 0.73873 0.46144 0.03791 0.0
C461 C 0.74243 0.44955 0.09436 0.0
C462 C 0.72588 0.44504 0.15218 0.0
C463 C 0.70503 0.45062 0.15215 0.0
H464 H 0.20181 0.62168 0.18808 0.0
H465 H 0.22454 0.61603 0.9831 0.0
H466 H 0.23385 0.67255 0.18436 0.0
H467 H 0.25742 0.66668 0.98028 0.0
H468 H 0.30991 0.75928 0.97888 0.0
H469 H 0.26641 0.71115 0.98014 0.0
H470 H 0.28499 0.70585 0.18892 0.0
H471 H 0.32761 0.75414 0.18832 0.0
C472 C 0.21339 0.6313 0.14194 0.0
C473 C 0.21091 0.61481 0.08618 0.0
C474 C 0.23192 0.66047 0.13995 0.0
C475 C 0.24868 0.67381 0.08248 0.0
C476 C 0.24473 0.65726 0.02524 0.0
C477 C 0.22592 0.62811 0.02693 0.0
C478 C 0.30439 0.74794 0.02535 0.0
C479 C 0.32239 0.76044 0.08332 0.0
C480 C 0.27953 0.72029 0.02598 0.0
C481 C 0.27228 0.70441 0.08436 0.0
C482 C 0.28956 0.71744 0.14323 0.0
C483 C 0.31421 0.74517 0.14281 0.0
H484 H 0.48976 0.23701 0.18735 0.0
H485 H 0.47458 0.23018 0.97142 0.0
H486 H 0.50736 0.28542 0.1871 0.0
H487 H 0.49061 0.27861 0.9716 0.0
H488 H 0.56971 0.37149 0.98288 0.0
H489 H 0.53614 0.32101 0.97832 0.0
H490 H 0.5047 0.32271 0.17634 0.0
H491 H 0.53992 0.37347 0.18232 0.0
C492 C 0.48924 0.24558 0.13996 0.0
C493 C 0.48143 0.22985 0.0791 0.0
C494 C 0.4992 0.27352 0.13987 0.0
C495 C 0.50111 0.28638 0.07905 0.0
C496 C 0.4904 0.26975 0.01914 0.0
C497 C 0.48091 0.24185 0.01905 0.0
C498 C 0.55535 0.36115 0.02511 0.0
C499 C 0.55786 0.37644 0.0835 0.0
C500 C 0.53576 0.33204 0.02227 0.0
C501 C 0.51774 0.31746 0.07731 0.0
C502 C 0.51873 0.33305 0.13368 0.0
C503 C 0.53881 0.36219 0.13706 0.0
loop_
_geom_bond_atom_site_label_1
_geom_bond_atom_site_label_2
_geom_bond_distance
_geom_bond_site_symmetry_2
_ccdc_geom_bond_type
Co0 O3 1.970 . S
Co0 N17 1.989 . S
Co0 O25 1.967 . S
Co0 O32 1.920 1_554 S
Co1 O4 1.966 . S
Co1 N10 2.022 . S
Co1 N18 1.993 . S
Co1 O26 1.941 . S
C2 O3 1.258 . S
C2 O4 1.263 . S
O3 Co0 1.970 . S
O3 C2 1.258 . S
O4 Co1 1.966 . S
O4 C2 1.263 . S
C5 O6 1.235 . S
C5 O32 1.289 . S
O6 C5 1.235 . S
C7 C9 1.400 . S
C7 N10 1.351 . S
C7 C12 1.501 . S
C8 C9 1.387 . S
C8 N11 1.341 . S
C9 C7 1.400 . S
C9 C8 1.387 . S
N10 Co1 2.022 . S
N10 C7 1.351 . S
N10 N11 1.365 . S
N11 C8 1.341 . S
N11 N10 1.365 . S
N11 H31 0.862 . S
C12 C7 1.501 . S
C12 H13 0.961 . S
C12 H14 0.961 . S
C12 H15 0.960 . S
H13 C12 0.961 . S
H14 C12 0.961 . S
H15 C12 0.960 . S
C16 N17 1.342 . S
C16 C20 1.401 . S
C16 C21 1.499 1_554 S
N17 Co0 1.989 . S
N17 C16 1.342 . S
N17 N18 1.388 . S
N18 Co1 1.993 . S
N18 N17 1.388 . S
N18 C19 1.346 . S
C19 N18 1.346 . S
C19 C20 1.396 . S
C19 C29 1.510 . S
C20 C16 1.401 . S
C20 C19 1.396 . S
C21 C16 1.499 1_556 S
C21 H22 0.959 . S
C21 H23 0.960 . S
C21 H24 0.961 . S
H22 C21 0.959 . S
H23 C21 0.960 . S
H24 C21 0.961 . S
O25 Co0 1.967 . S
O25 C33 1.258 . S
O26 Co1 1.941 . S
O26 C33 1.266 . S
H27 C29 0.959 . S
H28 C29 0.961 . S
C29 C19 1.510 . S
C29 H27 0.959 . S
C29 H28 0.961 . S
C29 H30 0.960 . S
H30 C29 0.960 . S
H31 N11 0.862 . S
O32 Co0 1.920 1_556 S
O32 C5 1.289 . S
C33 O25 1.258 . S
C33 O26 1.266 . S
Co34 O37 1.970 . S
Co34 N51 1.989 . S
Co34 O59 1.967 . S
Co34 O66 1.920 . S
Co35 O38 1.966 . S
Co35 N44 2.022 1_554 S
Co35 N52 1.993 . S
Co35 O60 1.941 . S
C36 O37 1.258 . S
C36 O38 1.263 . S
O37 Co34 1.970 . S
O37 C36 1.258 . S
O38 Co35 1.966 . S
O38 C36 1.263 . S
C39 O40 1.235 . S
C39 O66 1.289 . S
O40 C39 1.235 . S
C41 C43 1.400 . S
C41 N44 1.351 . S
C41 C46 1.501 . S
C42 C43 1.387 . S
C42 N45 1.341 . S
C43 C41 1.400 . S
C43 C42 1.387 . S
N44 Co35 2.022 1_556 S
N44 C41 1.351 . S
N44 N45 1.365 . S
N45 C42 1.341 . S
N45 N44 1.365 . S
N45 H65 0.862 . S
C46 C41 1.501 . S
C46 H47 0.961 . S
C46 H48 0.961 . S
C46 H49 0.960 . S
H47 C46 0.961 . S
H48 C46 0.961 . S
H49 C46 0.960 . S
C50 N51 1.342 . S
C50 C54 1.401 . S
C50 C55 1.499 . S
N51 Co34 1.989 . S
N51 C50 1.342 . S
N51 N52 1.388 . S
N52 Co35 1.993 . S
N52 N51 1.388 . S
N52 C53 1.346 . S
C53 N52 1.346 . S
C53 C54 1.396 . S
C53 C63 1.510 1_554 S
C54 C50 1.401 . S
C54 C53 1.396 . S
C55 C50 1.499 . S
C55 H56 0.959 . S
C55 H57 0.960 . S
C55 H58 0.961 . S
H56 C55 0.959 . S
H57 C55 0.960 . S
H58 C55 0.961 . S
O59 Co34 1.967 . S
O59 C67 1.258 . S
O60 Co35 1.941 . S
O60 C67 1.266 . S
H61 C63 0.959 . S
H62 C63 0.961 . S
C63 C53 1.510 1_556 S
C63 H61 0.959 . S
C63 H62 0.961 . S
C63 H64 0.960 . S
H64 C63 0.960 . S
H65 N45 0.862 . S
O66 Co34 1.920 . S
O66 C39 1.289 . S
C67 O59 1.258 . S
C67 O60 1.266 . S
Co68 O71 1.970 . S
Co68 N85 1.989 . S
Co68 O93 1.967 . S
Co68 O100 1.920 1_554 S
Co69 O72 1.966 . S
Co69 N78 2.022 . S
Co69 N86 1.993 . S
Co69 O94 1.941 . S
C70 O71 1.258 . S
C70 O72 1.263 . S
O71 Co68 1.970 . S
O71 C70 1.258 . S
O72 Co69 1.966 . S
O72 C70 1.263 . S
C73 O74 1.235 . S
C73 O100 1.289 . S
O74 C73 1.235 . S
C75 C77 1.400 . S
C75 N78 1.351 . S
C75 C80 1.501 . S
C76 C77 1.387 . S
C76 N79 1.341 . S
C77 C75 1.400 . S
C77 C76 1.387 . S
N78 Co69 2.022 . S
N78 C75 1.351 . S
N78 N79 1.365 . S
N79 C76 1.341 . S
N79 N78 1.365 . S
N79 H99 0.862 . S
C80 C75 1.501 . S
C80 H81 0.961 . S
C80 H82 0.961 . S
C80 H83 0.960 . S
H81 C80 0.961 . S
H82 C80 0.961 . S
H83 C80 0.960 . S
C84 N85 1.342 . S
C84 C88 1.401 . S
C84 C89 1.499 1_554 S
N85 Co68 1.989 . S
N85 C84 1.342 . S
N85 N86 1.388 . S
N86 Co69 1.993 . S
N86 N85 1.388 . S
N86 C87 1.346 . S
C87 N86 1.346 . S
C87 C88 1.396 . S
C87 C97 1.510 . S
C88 C84 1.401 . S
C88 C87 1.396 . S
C89 C84 1.499 1_556 S
C89 H90 0.959 . S
C89 H91 0.960 . S
C89 H92 0.961 . S
H90 C89 0.959 . S
H91 C89 0.960 . S
H92 C89 0.961 . S
O93 Co68 1.967 . S
O93 C101 1.258 . S
O94 Co69 1.941 . S
O94 C101 1.266 . S
H95 C97 0.959 . S
H96 C97 0.961 . S
C97 C87 1.510 . S
C97 H95 0.959 . S
C97 H96 0.961 . S
C97 H98 0.960 . S
H98 C97 0.960 . S
H99 N79 0.862 . S
O100 Co68 1.920 1_556 S
O100 C73 1.289 . S
C101 O93 1.258 . S
C101 O94 1.266 . S
Co102 O105 1.970 . S
Co102 N119 1.989 . S
Co102 O127 1.967 . S
Co102 O134 1.920 . S
Co103 O106 1.966 . S
Co103 N112 2.022 1_554 S
Co103 N120 1.993 . S
Co103 O128 1.941 . S
C104 O105 1.258 . S
C104 O106 1.263 . S
O105 Co102 1.970 . S
O105 C104 1.258 . S
O106 Co103 1.966 . S
O106 C104 1.263 . S
C107 O108 1.235 . S
C107 O134 1.289 . S
O108 C107 1.235 . S
C109 C111 1.400 . S
C109 N112 1.351 . S
C109 C114 1.501 . S
C110 C111 1.387 . S
C110 N113 1.341 . S
C111 C109 1.400 . S
C111 C110 1.387 . S
N112 Co103 2.022 1_556 S
N112 C109 1.351 . S
N112 N113 1.365 . S
N113 C110 1.341 . S
N113 N112 1.365 . S
N113 H133 0.862 . S
C114 C109 1.501 . S
C114 H115 0.961 . S
C114 H116 0.961 . S
C114 H117 0.960 . S
H115 C114 0.961 . S
H116 C114 0.961 . S
H117 C114 0.960 . S
C118 N119 1.342 . S
C118 C122 1.401 . S
C118 C123 1.499 . S
N119 Co102 1.989 . S
N119 C118 1.342 . S
N119 N120 1.388 . S
N120 Co103 1.993 . S
N120 N119 1.388 . S
N120 C121 1.346 . S
C121 N120 1.346 . S
C121 C122 1.396 . S
C121 C131 1.510 1_554 S
C122 C118 1.401 . S
C122 C121 1.396 . S
C123 C118 1.499 . S
C123 H124 0.959 . S
C123 H125 0.960 . S
C123 H126 0.961 . S
H124 C123 0.959 . S
H125 C123 0.960 . S
H126 C123 0.961 . S
O127 Co102 1.967 . S
O127 C135 1.258 . S
O128 Co103 1.941 . S
O128 C135 1.266 . S
H129 C131 0.959 . S
H130 C131 0.961 . S
C131 C121 1.510 1_556 S
C131 H129 0.959 . S
C131 H130 0.961 . S
C131 H132 0.960 . S
H132 C131 0.960 . S
H133 N113 0.862 . S
O134 Co102 1.920 . S
O134 C107 1.289 . S
C135 O127 1.258 . S
C135 O128 1.266 . S
Co136 O139 1.970 . S
Co136 N153 1.989 . S
Co136 O161 1.967 . S
Co136 O168 1.920 . S
Co137 O140 1.965 1_556 S
Co137 N146 2.022 . S
Co137 N154 1.993 1_556 S
Co137 O162 1.941 . S
C138 O139 1.258 . S
C138 O140 1.268 . S
O139 Co136 1.970 . S
O139 C138 1.258 . S
O140 Co137 1.965 1_554 S
O140 C138 1.268 . S
C141 O142 1.235 . S
C141 O168 1.289 . S
O142 C141 1.235 . S
C143 C145 1.400 . S
C143 N146 1.351 . S
C143 C148 1.501 . S
C144 C145 1.387 . S
C144 N147 1.341 . S
C145 C143 1.400 . S
C145 C144 1.387 . S
N146 Co137 2.022 . S
N146 C143 1.351 . S
N146 N147 1.365 . S
N147 C144 1.341 . S
N147 N146 1.365 . S
N147 H167 0.862 . S
C148 C143 1.501 . S
C148 H149 0.961 . S
C148 H150 0.961 . S
C148 H151 0.960 . S
H149 C148 0.961 . S
H150 C148 0.961 . S
H151 C148 0.960 . S
C152 N153 1.342 . S
C152 C156 1.401 . S
C152 C157 1.499 . S
N153 Co136 1.989 . S
N153 C152 1.342 . S
N153 N154 1.388 . S
N154 Co137 1.993 1_554 S
N154 N153 1.388 . S
N154 C155 1.346 1_554 S
C155 N154 1.346 1_556 S
C155 C156 1.396 1_556 S
C155 C165 1.510 . S
C156 C152 1.401 . S
C156 C155 1.396 1_554 S
C157 C152 1.499 . S
C157 H158 0.959 . S
C157 H159 0.960 . S
C157 H160 0.961 . S
H158 C157 0.959 . S
H159 C157 0.960 . S
H160 C157 0.961 . S
O161 Co136 1.967 . S
O161 C169 1.258 . S
O162 Co137 1.941 . S
O162 C169 1.266 1_556 S
H163 C165 0.959 . S
H164 C165 0.961 . S
C165 C155 1.510 . S
C165 H163 0.959 . S
C165 H164 0.961 . S
C165 H166 0.960 . S
H166 C165 0.960 . S
H167 N147 0.862 . S
O168 Co136 1.920 . S
O168 C141 1.289 . S
C169 O161 1.258 . S
C169 O162 1.266 1_554 S
Co170 O173 1.970 . S
Co170 N187 1.989 . S
Co170 O195 1.967 . S
Co170 O202 1.920 . S
Co171 O174 1.966 . S
Co171 N180 2.022 1_554 S
Co171 N188 1.993 . S
Co171 O196 1.941 . S
C172 O173 1.258 . S
C172 O174 1.263 . S
O173 Co170 1.970 . S
O173 C172 1.258 . S
O174 Co171 1.966 . S
O174 C172 1.263 . S
C175 O176 1.235 . S
C175 O202 1.289 . S
O176 C175 1.235 . S
C177 C179 1.400 . S
C177 N180 1.351 . S
C177 C182 1.501 . S
C178 C179 1.387 . S
C178 N181 1.341 . S
C179 C177 1.400 . S
C179 C178 1.387 . S
N180 Co171 2.022 1_556 S
N180 C177 1.351 . S
N180 N181 1.365 . S
N181 C178 1.341 . S
N181 N180 1.365 . S
N181 H201 0.862 . S
C182 C177 1.501 . S
C182 H183 0.961 . S
C182 H184 0.961 . S
C182 H185 0.960 . S
H183 C182 0.961 . S
H184 C182 0.961 . S
H185 C182 0.960 . S
C186 N187 1.342 . S
C186 C190 1.401 . S
C186 C191 1.499 . S
N187 Co170 1.989 . S
N187 C186 1.342 . S
N187 N188 1.388 . S
N188 Co171 1.993 . S
N188 N187 1.388 . S
N188 C189 1.346 . S
C189 N188 1.346 . S
C189 C190 1.396 . S
C189 C199 1.510 1_554 S
C190 C186 1.401 . S
C190 C189 1.396 . S
C191 C186 1.499 . S
C191 H192 0.959 . S
C191 H193 0.960 . S
C191 H194 0.961 . S
H192 C191 0.959 . S
H193 C191 0.960 . S
H194 C191 0.961 . S
O195 Co170 1.967 . S
O195 C203 1.258 . S
O196 Co171 1.941 . S
O196 C203 1.266 . S
H197 C199 0.959 . S
H198 C199 0.961 . S
C199 C189 1.510 1_556 S
C199 H197 0.959 . S
C199 H198 0.961 . S
C199 H200 0.960 . S
H200 C199 0.960 . S
H201 N181 0.862 . S
O202 Co170 1.920 . S
O202 C175 1.289 . S
C203 O195 1.258 . S
C203 O196 1.266 . S
H204 C212 0.950 . S
H205 C217 0.950 . S
H206 C214 0.950 . S
H207 C216 0.950 . S
H208 C218 0.950 . S
H209 C220 0.950 . S
H210 C222 0.950 . S
H211 C223 0.950 . S
C212 H204 0.950 . S
C212 C213 1.386 . S
C212 C214 1.391 . S
C213 C212 1.386 . S
C213 C217 1.393 . S
C214 H206 0.950 . S
C214 C212 1.391 . S
C214 C215 1.400 . S
C215 C214 1.400 . S
C215 C216 1.398 . S
C215 C221 1.491 1_455 S
C216 H207 0.950 . S
C216 C215 1.398 . S
C216 C217 1.391 . S
C217 H205 0.950 . S
C217 C213 1.393 . S
C217 C216 1.391 . S
C218 H208 0.950 . S
C218 C219 1.386 . S
C218 C220 1.391 . S
C219 C218 1.386 . S
C219 C223 1.393 . S
C220 H209 0.950 . S
C220 C218 1.391 . S
C220 C221 1.400 . S
C221 C215 1.491 1_655 S
C221 C220 1.400 . S
C221 C222 1.398 . S
C222 H210 0.950 . S
C222 C221 1.398 . S
C222 C223 1.391 . S
C223 H211 0.950 . S
C223 C219 1.393 . S
C223 C222 1.391 . S
H224 C232 0.950 . S
H225 C237 0.950 . S
H226 C234 0.950 . S
H227 C236 0.955 . S
H228 C238 0.950 1_556 S
H229 C240 0.950 1_556 S
H230 C242 0.950 . S
H231 C243 0.950 . S
C232 H224 0.950 . S
C232 C233 1.386 . S
C232 C234 1.391 . S
C233 C232 1.386 . S
C233 C237 1.393 1_554 S
C234 H226 0.950 . S
C234 C232 1.391 . S
C234 C235 1.400 . S
C235 C234 1.400 . S
C235 C236 1.393 1_554 S
C235 C241 1.491 1_565 S
C236 H227 0.955 . S
C236 C235 1.393 1_556 S
C236 C237 1.391 . S
C237 H225 0.950 . S
C237 C233 1.393 1_556 S
C237 C236 1.391 . S
C238 H228 0.950 1_554 S
C238 C239 1.386 . S
C238 C240 1.391 . S
C239 C238 1.386 . S
C239 C243 1.393 . S
C240 H229 0.950 1_554 S
C240 C238 1.391 . S
C240 C241 1.400 . S
C241 C235 1.491 1_545 S
C241 C240 1.400 . S
C241 C242 1.398 . S
C242 H230 0.950 . S
C242 C241 1.398 . S
C242 C243 1.391 . S
C243 H231 0.950 . S
C243 C239 1.393 . S
C243 C242 1.391 . S
H244 C252 0.950 . S
H245 C257 0.950 . S
H246 C254 0.950 . S
H247 C256 0.950 . S
H248 C258 0.950 . S
H249 C260 0.950 . S
H250 C262 0.950 . S
H251 C263 0.950 . S
C252 H244 0.950 . S
C252 C253 1.386 . S
C252 C254 1.391 . S
C253 C252 1.386 . S
C253 C257 1.393 . S
C254 H246 0.950 . S
C254 C252 1.391 . S
C254 C255 1.400 . S
C255 C254 1.400 . S
C255 C256 1.398 . S
C255 C261 1.491 . S
C256 H247 0.950 . S
C256 C255 1.398 . S
C256 C257 1.391 . S
C257 H245 0.950 . S
C257 C253 1.393 . S
C257 C256 1.391 . S
C258 H248 0.950 . S
C258 C259 1.386 . S
C258 C260 1.391 . S
C259 C258 1.386 . S
C259 C263 1.393 . S
C260 H249 0.950 . S
C260 C258 1.391 . S
C260 C261 1.400 . S
C261 C255 1.491 . S
C261 C260 1.400 . S
C261 C262 1.398 . S
C262 H250 0.950 . S
C262 C261 1.398 . S
C262 C263 1.391 . S
C263 H251 0.950 . S
C263 C259 1.393 . S
C263 C262 1.391 . S
H264 C272 0.950 . S
H265 C277 0.950 . S
H266 C274 0.950 . S
H267 C276 0.950 . S
H268 C278 0.950 . S
H269 C280 0.950 . S
H270 C282 0.950 . S
H271 C283 0.950 . S
C272 H264 0.950 . S
C272 C273 1.386 . S
C272 C274 1.391 . S
C273 C272 1.386 . S
C273 C277 1.393 . S
C274 H266 0.950 . S
C274 C272 1.391 . S
C274 C275 1.400 . S
C275 C274 1.400 . S
C275 C276 1.398 . S
C275 C281 1.491 . S
C276 H267 0.950 . S
C276 C275 1.398 . S
C276 C277 1.391 . S
C277 H265 0.950 . S
C277 C273 1.393 . S
C277 C276 1.391 . S
C278 H268 0.950 . S
C278 C279 1.386 . S
C278 C280 1.391 . S
C279 C278 1.386 . S
C279 C283 1.393 . S
C280 H269 0.950 . S
C280 C278 1.391 . S
C280 C281 1.400 . S
C281 C275 1.491 . S
C281 C280 1.400 . S
C281 C282 1.398 . S
C282 H270 0.950 . S
C282 C281 1.398 . S
C282 C283 1.391 . S
C283 H271 0.950 . S
C283 C279 1.393 . S
C283 C282 1.391 . S
H284 C292 0.950 . S
H285 C297 0.950 . S
H286 C294 0.950 . S
H287 C296 0.950 . S
H288 C298 0.950 . S
H289 C300 0.950 . S
H290 C302 0.950 . S
H291 C303 0.950 . S
C292 H284 0.950 . S
C292 C293 1.386 . S
C292 C294 1.391 . S
C293 C292 1.386 . S
C293 C297 1.393 . S
C294 H286 0.950 . S
C294 C292 1.391 . S
C294 C295 1.400 . S
C295 C294 1.400 . S
C295 C296 1.398 . S
C295 C301 1.491 . S
C296 H287 0.950 . S
C296 C295 1.398 . S
C296 C297 1.391 . S
C297 H285 0.950 . S
C297 C293 1.393 . S
C297 C296 1.391 . S
C298 H288 0.950 . S
C298 C299 1.386 . S
C298 C300 1.391 . S
C299 C298 1.386 . S
C299 C303 1.393 . S
C300 H289 0.950 . S
C300 C298 1.391 . S
C300 C301 1.400 . S
C301 C295 1.491 . S
C301 C300 1.400 . S
C301 C302 1.398 . S
C302 H290 0.950 . S
C302 C301 1.398 . S
C302 C303 1.391 . S
C303 H291 0.950 . S
C303 C299 1.393 . S
C303 C302 1.391 . S
H304 C312 0.950 . S
H305 C317 0.950 . S
H306 C314 0.950 . S
H307 C316 0.950 . S
H308 C318 0.950 . S
H309 C320 0.950 . S
H310 C322 0.950 . S
H311 C323 0.950 . S
C312 H304 0.950 . S
C312 C313 1.386 . S
C312 C314 1.391 . S
C313 C312 1.386 . S
C313 C317 1.393 . S
C314 H306 0.950 . S
C314 C312 1.391 . S
C314 C315 1.400 . S
C315 C314 1.400 . S
C315 C316 1.398 . S
C315 C321 1.491 . S
C316 H307 0.950 . S
C316 C315 1.398 . S
C316 C317 1.391 . S
C317 H305 0.950 . S
C317 C313 1.393 . S
C317 C316 1.391 . S
C318 H308 0.950 . S
C318 C319 1.386 . S
C318 C320 1.391 . S
C319 C318 1.386 . S
C319 C323 1.393 . S
C320 H309 0.950 . S
C320 C318 1.391 . S
C320 C321 1.400 . S
C321 C315 1.491 . S
C321 C320 1.400 . S
C321 C322 1.398 . S
C322 H310 0.950 . S
C322 C321 1.398 . S
C322 C323 1.391 . S
C323 H311 0.950 . S
C323 C319 1.393 . S
C323 C322 1.391 . S
H324 C332 0.950 . S
H325 C337 0.950 . S
H326 C334 0.950 . S
H327 C336 0.950 . S
H328 C338 0.950 . S
H329 C340 0.950 . S
H330 C342 0.950 . S
H331 C343 0.950 . S
C332 H324 0.950 . S
C332 C333 1.386 . S
C332 C334 1.391 . S
C333 C332 1.386 . S
C333 C337 1.393 . S
C334 H326 0.950 . S
C334 C332 1.391 . S
C334 C335 1.400 . S
C335 C334 1.400 . S
C335 C336 1.398 . S
C335 C341 1.491 . S
C336 H327 0.950 . S
C336 C335 1.398 . S
C336 C337 1.391 . S
C337 H325 0.950 . S
C337 C333 1.393 . S
C337 C336 1.391 . S
C338 H328 0.950 . S
C338 C339 1.386 . S
C338 C340 1.391 . S
C339 C338 1.386 . S
C339 C343 1.393 . S
C340 H329 0.950 . S
C340 C338 1.391 . S
C340 C341 1.400 . S
C341 C335 1.491 . S
C341 C340 1.400 . S
C341 C342 1.398 . S
C342 H330 0.950 . S
C342 C341 1.398 . S
C342 C343 1.391 . S
C343 H331 0.950 . S
C343 C339 1.393 . S
C343 C342 1.391 . S
H344 C352 0.950 . S
H345 C357 0.950 . S
H346 C354 0.950 . S
H347 C356 0.950 . S
H348 C358 0.950 . S
H349 C360 0.950 . S
H350 C362 0.950 . S
H351 C363 0.950 . S
C352 H344 0.950 . S
C352 C353 1.386 . S
C352 C354 1.391 . S
C353 C352 1.386 . S
C353 C357 1.393 . S
C354 H346 0.950 . S
C354 C352 1.391 . S
C354 C355 1.400 . S
C355 C354 1.400 . S
C355 C356 1.398 . S
C355 C361 1.491 . S
C356 H347 0.950 . S
C356 C355 1.398 . S
C356 C357 1.391 . S
C357 H345 0.950 . S
C357 C353 1.393 . S
C357 C356 1.391 . S
C358 H348 0.950 . S
C358 C359 1.386 . S
C358 C360 1.391 . S
C359 C358 1.386 . S
C359 C363 1.393 . S
C360 H349 0.950 . S
C360 C358 1.391 . S
C360 C361 1.400 . S
C361 C355 1.491 . S
C361 C360 1.400 . S
C361 C362 1.398 . S
C362 H350 0.950 . S
C362 C361 1.398 . S
C362 C363 1.391 . S
C363 H351 0.950 . S
C363 C359 1.393 . S
C363 C362 1.391 . S
H364 C372 0.950 . S
H365 C377 0.950 . S
H366 C374 0.950 . S
H367 C376 0.950 . S
H368 C378 0.950 . S
H369 C380 0.950 . S
H370 C382 0.950 . S
H371 C383 0.950 . S
C372 H364 0.950 . S
C372 C373 1.386 . S
C372 C374 1.391 . S
C373 C372 1.386 . S
C373 C377 1.393 . S
C374 H366 0.950 . S
C374 C372 1.391 . S
C374 C375 1.400 . S
C375 C374 1.400 . S
C375 C376 1.398 . S
C375 C381 1.491 . S
C376 H367 0.950 . S
C376 C375 1.398 . S
C376 C377 1.391 . S
C377 H365 0.950 . S
C377 C373 1.393 . S
C377 C376 1.391 . S
C378 H368 0.950 . S
C378 C379 1.386 . S
C378 C380 1.391 . S
C379 C378 1.386 . S
C379 C383 1.393 . S
C380 H369 0.950 . S
C380 C378 1.391 . S
C380 C381 1.400 . S
C381 C375 1.491 . S
C381 C380 1.400 . S
C381 C382 1.398 . S
C382 H370 0.950 . S
C382 C381 1.398 . S
C382 C383 1.391 . S
C383 H371 0.950 . S
C383 C379 1.393 . S
C383 C382 1.391 . S
H384 C392 0.950 . S
H385 C397 0.950 . S
H386 C394 0.950 . S
H387 C396 0.950 . S
H388 C398 0.950 . S
H389 C400 0.950 . S
H390 C402 0.950 . S
H391 C403 0.950 . S
C392 H384 0.950 . S
C392 C393 1.386 . S
C392 C394 1.391 . S
C393 C392 1.386 . S
C393 C397 1.393 . S
C394 H386 0.950 . S
C394 C392 1.391 . S
C394 C395 1.400 . S
C395 C394 1.400 . S
C395 C396 1.398 . S
C395 C401 1.491 . S
C396 H387 0.950 . S
C396 C395 1.398 . S
C396 C397 1.391 . S
C397 H385 0.950 . S
C397 C393 1.393 . S
C397 C396 1.391 . S
C398 H388 0.950 . S
C398 C399 1.386 . S
C398 C400 1.391 . S
C399 C398 1.386 . S
C399 C403 1.393 . S
C400 H389 0.950 . S
C400 C398 1.391 . S
C400 C401 1.400 . S
C401 C395 1.491 . S
C401 C400 1.400 . S
C401 C402 1.398 . S
C402 H390 0.950 . S
C402 C401 1.398 . S
C402 C403 1.391 . S
C403 H391 0.950 . S
C403 C399 1.393 . S
C403 C402 1.391 . S
H404 C412 0.950 . S
H405 C417 0.950 . S
H406 C414 0.950 . S
H407 C416 0.950 . S
H408 C418 0.950 . S
H409 C420 0.950 . S
H410 C422 0.950 . S
H411 C423 0.950 . S
C412 H404 0.950 . S
C412 C413 1.386 . S
C412 C414 1.391 . S
C413 C412 1.386 . S
C413 C417 1.393 . S
C414 H406 0.950 . S
C414 C412 1.391 . S
C414 C415 1.400 . S
C415 C414 1.400 . S
C415 C416 1.398 . S
C415 C421 1.491 . S
C416 H407 0.950 . S
C416 C415 1.398 . S
C416 C417 1.391 . S
C417 H405 0.950 . S
C417 C413 1.393 . S
C417 C416 1.391 . S
C418 H408 0.950 . S
C418 C419 1.386 . S
C418 C420 1.391 . S
C419 C418 1.386 . S
C419 C423 1.393 . S
C420 H409 0.950 . S
C420 C418 1.391 . S
C420 C421 1.400 . S
C421 C415 1.491 . S
C421 C420 1.400 . S
C421 C422 1.398 . S
C422 H410 0.950 . S
C422 C421 1.398 . S
C422 C423 1.391 . S
C423 H411 0.950 . S
C423 C419 1.393 . S
C423 C422 1.391 . S
H424 C432 0.950 . S
H425 C437 0.950 . S
H426 C434 0.950 . S
H427 C436 0.950 . S
H428 C438 0.950 . S
H429 C440 0.950 . S
H430 C442 0.950 . S
H431 C443 0.950 . S
C432 H424 0.950 . S
C432 C433 1.386 . S
C432 C434 1.391 . S
C433 C432 1.386 . S
C433 C437 1.393 . S
C434 H426 0.950 . S
C434 C432 1.391 . S
C434 C435 1.400 . S
C435 C434 1.400 . S
C435 C436 1.398 . S
C435 C441 1.491 . S
C436 H427 0.950 . S
C436 C435 1.398 . S
C436 C437 1.391 . S
C437 H425 0.950 . S
C437 C433 1.393 . S
C437 C436 1.391 . S
C438 H428 0.950 . S
C438 C439 1.386 . S
C438 C440 1.391 . S
C439 C438 1.386 . S
C439 C443 1.393 . S
C440 H429 0.950 . S
C440 C438 1.391 . S
C440 C441 1.400 . S
C441 C435 1.491 . S
C441 C440 1.400 . S
C441 C442 1.398 . S
C442 H430 0.950 . S
C442 C441 1.398 . S
C442 C443 1.391 . S
C443 H431 0.950 . S
C443 C439 1.393 . S
C443 C442 1.391 . S
H444 C452 0.950 . S
H445 C457 0.950 . S
H446 C454 0.950 . S
H447 C456 0.950 . S
H448 C458 0.950 . S
H449 C460 0.950 . S
H450 C462 0.950 . S
H451 C463 0.950 . S
C452 H444 0.950 . S
C452 C453 1.386 . S
C452 C454 1.391 . S
C453 C452 1.386 . S
C453 C457 1.393 . S
C454 H446 0.950 . S
C454 C452 1.391 . S
C454 C455 1.400 . S
C455 C454 1.400 . S
C455 C456 1.398 . S
C455 C461 1.491 . S
C456 H447 0.950 . S
C456 C455 1.398 . S
C456 C457 1.391 . S
C457 H445 0.950 . S
C457 C453 1.393 . S
C457 C456 1.391 . S
C458 H448 0.950 . S
C458 C459 1.386 . S
C458 C460 1.391 . S
C459 C458 1.386 . S
C459 C463 1.393 . S
C460 H449 0.950 . S
C460 C458 1.391 . S
C460 C461 1.400 . S
C461 C455 1.491 . S
C461 C460 1.400 . S
C461 C462 1.398 . S
C462 H450 0.950 . S
C462 C461 1.398 . S
C462 C463 1.391 . S
C463 H451 0.950 . S
C463 C459 1.393 . S
C463 C462 1.391 . S
H464 C472 0.950 . S
H465 C477 0.950 . S
H466 C474 0.950 . S
H467 C476 0.950 . S
H468 C478 0.950 1_556 S
H469 C480 0.950 1_556 S
H470 C482 0.950 . S
H471 C483 0.950 . S
C472 H464 0.950 . S
C472 C473 1.386 . S
C472 C474 1.391 . S
C473 C472 1.386 . S
C473 C477 1.393 . S
C474 H466 0.950 . S
C474 C472 1.391 . S
C474 C475 1.400 . S
C475 C474 1.400 . S
C475 C476 1.398 . S
C475 C481 1.491 . S
C476 H467 0.950 . S
C476 C475 1.398 . S
C476 C477 1.391 . S
C477 H465 0.950 . S
C477 C473 1.393 . S
C477 C476 1.391 . S
C478 H468 0.950 1_554 S
C478 C479 1.386 . S
C478 C480 1.391 . S
C479 C478 1.386 . S
C479 C483 1.393 . S
C480 H469 0.950 1_554 S
C480 C478 1.391 . S
C480 C481 1.400 . S
C481 C475 1.491 . S
C481 C480 1.400 . S
C481 C482 1.398 . S
C482 H470 0.950 . S
C482 C481 1.398 . S
C482 C483 1.391 . S
C483 H471 0.950 . S
C483 C479 1.393 . S
C483 C482 1.391 . S
H484 C492 0.950 . S
H485 C497 0.950 1_556 S
H486 C494 0.950 . S
H487 C496 0.950 1_556 S
H488 C498 0.956 . S
H489 C500 0.950 1_556 S
H490 C502 0.950 . S
H491 C503 0.950 . S
C492 H484 0.950 . S
C492 C493 1.386 . S
C492 C494 1.391 . S
C493 C492 1.386 . S
C493 C497 1.393 . S
C494 H486 0.950 . S
C494 C492 1.391 . S
C494 C495 1.400 . S
C495 C494 1.400 . S
C495 C496 1.398 . S
C495 C501 1.491 . S
C496 H487 0.950 1_554 S
C496 C495 1.398 . S
C496 C497 1.391 . S
C497 H485 0.950 1_554 S
C497 C493 1.393 . S
C497 C496 1.391 . S
C498 H488 0.956 . S
C498 C499 1.386 . S
C498 C500 1.391 . S
C499 C498 1.386 . S
C499 C503 1.393 . S
C500 H489 0.950 1_554 S
C500 C498 1.391 . S
C500 C501 1.400 . S
C501 C495 1.491 . S
C501 C500 1.400 . S
C501 C502 1.398 . S
C502 H490 0.950 . S
C502 C501 1.398 . S
C502 C503 1.391 . S
C503 H491 0.950 . S
C503 C499 1.393 . S
C503 C502 1.391 . S
C213 C20 1.306 . S
C219 C122 1.307 . S
C233 C156 1.461 . S
C239 C54 1.457 . S
C253 C190 1.327 . S
C259 C88 1.327 . S
C273 C9 1.417 . S
C279 C5 1.493 . S
C293 C39 1.499 . S
C299 C43 1.397 . S
C313 C73 1.496 . S
C319 C77 1.375 . S
C333 C111 1.387 . S
C339 C107 1.494 . S
C353 C141 1.487 . S
C359 C145 1.394 . S
C373 C175 1.493 . S
C379 C179 1.384 . S
C393 C2 1.035 . S
C399 C101 1.032 . S
C413 C67 1.111 . S
C419 C104 1.097 . S
C433 C70 1.065 . S
C439 C138 1.074 . S
C453 C135 0.919 . S
C459 C172 0.900 . S
C473 C33 0.875 . S
C479 C169 0.893 . S
C493 C36 1.199 . S
C499 C203 1.279 . S
