# Generated by pormake.
# Topology ukn, (4)-cn, num edge types: 1
# Building blocks:
#     Node 0, Type 0, BuildingBlock: QUQFOY_clean_sbu_3, # of connection points: 4
#     Node 1, Type 0, BuildingBlock: QUQFOY_clean_sbu_3, # of connection points: 4
#     Node 2, Type 0, BuildingBlock: QUQFOY_clean_sbu_3, # of connection points: 4
#     Node 3, Type 0, BuildingBlock: QUQFOY_clean_sbu_3, # of connection points: 4
#     Node 4, Type 0, BuildingBlock: QUQFOY_clean_sbu_3, # of connection points: 4
#     Node 5, Type 0, BuildingBlock: QUQFOY_clean_sbu_3, # of connection points: 4
#     Node 6, Type 0, BuildingBlock: QUQFOY_clean_sbu_3, # of connection points: 4
#     Node 7, Type 0, BuildingBlock: QUQFOY_clean_sbu_3, # of connection points: 4
#     Node 8, Type 0, BuildingBlock: QUQFOY_clean_sbu_3, # of connection points: 4
#     Node 9, Type 0, BuildingBlock: QUQFOY_clean_sbu_3, # of connection points: 4
#     Node 10, Type 0, BuildingBlock: QUQFOY_clean_sbu_3, # of connection points: 4
#     Node 11, Type 0, BuildingBlock: QUQFOY_clean_sbu_3, # of connection points: 4
#     Node 12, Type 0, BuildingBlock: QUQFOY_clean_sbu_3, # of connection points: 4
#     Node 13, Type 0, BuildingBlock: QUQFOY_clean_sbu_3, # of connection points: 4
#     Node 14, Type 0, BuildingBlock: QUQFOY_clean_sbu_3, # of connection points: 4
#     Node 15, Type 0, BuildingBlock: QUQFOY_clean_sbu_3, # of connection points: 4
#     Node 16, Type 0, BuildingBlock: QUQFOY_clean_sbu_3, # of connection points: 4
#     Node 17, Type 0, BuildingBlock: QUQFOY_clean_sbu_3, # of connection points: 4
#     Node 18, Type 0, BuildingBlock: QUQFOY_clean_sbu_3, # of connection points: 4
#     Node 19, Type 0, BuildingBlock: QUQFOY_clean_sbu_3, # of connection points: 4
#     Node 20, Type 0, BuildingBlock: QUQFOY_clean_sbu_3, # of connection points: 4
#     Node 21, Type 0, BuildingBlock: QUQFOY_clean_sbu_3, # of connection points: 4
#     Node 22, Type 0, BuildingBlock: QUQFOY_clean_sbu_3, # of connection points: 4
#     Node 23, Type 0, BuildingBlock: QUQFOY_clean_sbu_3, # of connection points: 4
#     Node 24, Type 0, BuildingBlock: QUQFOY_clean_sbu_3, # of connection points: 4
#     Node 25, Type 0, BuildingBlock: QUQFOY_clean_sbu_3, # of connection points: 4
#     Node 26, Type 0, BuildingBlock: QUQFOY_clean_sbu_3, # of connection points: 4
#     Node 27, Type 0, BuildingBlock: QUQFOY_clean_sbu_3, # of connection points: 4
#     Node 28, Type 0, BuildingBlock: QUQFOY_clean_sbu_3, # of connection points: 4
#     Node 29, Type 0, BuildingBlock: QUQFOY_clean_sbu_3, # of connection points: 4
#     Node 30, Type 0, BuildingBlock: QUQFOY_clean_sbu_3, # of connection points: 4
#     Node 31, Type 0, BuildingBlock: QUQFOY_clean_sbu_3, # of connection points: 4
#     Node 32, Type 0, BuildingBlock: QUQFOY_clean_sbu_3, # of connection points: 4
#     Node 33, Type 0, BuildingBlock: QUQFOY_clean_sbu_3, # of connection points: 4
#     Node 34, Type 0, BuildingBlock: QUQFOY_clean_sbu_3, # of connection points: 4
#     Node 35, Type 0, BuildingBlock: QUQFOY_clean_sbu_3, # of connection points: 4
#     Edge 36, Type (0, 0), None
#     Edge 37, Type (0, 0), None
#     Edge 38, Type (0, 0), None
#     Edge 39, Type (0, 0), None
#     Edge 40, Type (0, 0), None
#     Edge 41, Type (0, 0), None
#     Edge 42, Type (0, 0), None
#     Edge 43, Type (0, 0), None
#     Edge 44, Type (0, 0), None
#     Edge 45, Type (0, 0), None
#     Edge 46, Type (0, 0), None
#     Edge 47, Type (0, 0), None
#     Edge 48, Type (0, 0), None
#     Edge 49, Type (0, 0), None
#     Edge 50, Type (0, 0), None
#     Edge 51, Type (0, 0), None
#     Edge 52, Type (0, 0), None
#     Edge 53, Type (0, 0), None
#     Edge 54, Type (0, 0), None
#     Edge 55, Type (0, 0), None
#     Edge 56, Type (0, 0), None
#     Edge 57, Type (0, 0), None
#     Edge 58, Type (0, 0), None
#     Edge 59, Type (0, 0), None
#     Edge 60, Type (0, 0), None
#     Edge 61, Type (0, 0), None
#     Edge 62, Type (0, 0), None
#     Edge 63, Type (0, 0), None
#     Edge 64, Type (0, 0), None
#     Edge 65, Type (0, 0), None
#     Edge 66, Type (0, 0), None
#     Edge 67, Type (0, 0), None
#     Edge 68, Type (0, 0), None
#     Edge 69, Type (0, 0), None
#     Edge 70, Type (0, 0), None
#     Edge 71, Type (0, 0), None
#     Edge 72, Type (0, 0), None
#     Edge 73, Type (0, 0), None
#     Edge 74, Type (0, 0), None
#     Edge 75, Type (0, 0), None
#     Edge 76, Type (0, 0), None
#     Edge 77, Type (0, 0), None
#     Edge 78, Type (0, 0), None
#     Edge 79, Type (0, 0), None
#     Edge 80, Type (0, 0), None
#     Edge 81, Type (0, 0), None
#     Edge 82, Type (0, 0), None
#     Edge 83, Type (0, 0), None
#     Edge 84, Type (0, 0), None
#     Edge 85, Type (0, 0), None
#     Edge 86, Type (0, 0), None
#     Edge 87, Type (0, 0), None
#     Edge 88, Type (0, 0), None
#     Edge 89, Type (0, 0), None
#     Edge 90, Type (0, 0), None
#     Edge 91, Type (0, 0), None
#     Edge 92, Type (0, 0), None
#     Edge 93, Type (0, 0), None
#     Edge 94, Type (0, 0), None
#     Edge 95, Type (0, 0), None
#     Edge 96, Type (0, 0), None
#     Edge 97, Type (0, 0), None
#     Edge 98, Type (0, 0), None
#     Edge 99, Type (0, 0), None
#     Edge 100, Type (0, 0), None
#     Edge 101, Type (0, 0), None
#     Edge 102, Type (0, 0), None
#     Edge 103, Type (0, 0), None
#     Edge 104, Type (0, 0), None
#     Edge 105, Type (0, 0), None
#     Edge 106, Type (0, 0), None
#     Edge 107, Type (0, 0), None
# Relax obj value: 0.066
# Max RMSD: 0.096
# Mean RMSD: 0.096
data_MOF--net-ukn--node1-QUQFOY_clean_sbu_3--edge1-none
_symmetry_space_group_name_H-M    P1
_symmetry_Int_Tables_number       1
_symmetry_cell_setting            triclinic
loop_
_symmetry_equiv_pos_as_xyz
'x, y, z'
_cell_length_a     53.694904
_cell_length_b     53.690336
_cell_length_c     13.00993
_cell_angle_alpha  90.002625
_cell_angle_beta   89.996997
_cell_angle_gamma 120.01069
loop_
_atom_site_label
_atom_site_type_symbol
_atom_site_fract_x
_atom_site_fract_y
_atom_site_fract_z
_atom_type_partial_charge
C0 C 0.04052 0.29955 0.23317 0.0
O1 O 0.05443 0.32335 0.18603 0.0
Cd2 Cd 0.06671 0.32748 0.00821 0.0
O3 O 0.02921 0.27553 0.18487 0.0
Cd4 Cd 0.02119 0.25519 0.00464 0.0
C5 C 0.09113 0.27706 0.00639 0.0
O6 O 0.02443 0.29662 0.92129 0.0
O7 O 0.02789 0.26635 0.82206 0.0
O8 O -0.02927 0.23219 0.03296 0.0
C9 C 0.02688 0.28929 0.83117 0.0
O10 O 0.09303 0.30169 0.00272 0.0
C11 C -0.03628 0.20985 -0.02024 0.0
O12 O 0.06677 0.25394 0.01243 0.0
O13 O -0.01603 0.20607 0.94775 0.0
C14 C 0.61618 0.72415 0.23314 0.0
O15 O 0.59238 0.71425 0.186 0.0
Cd16 Cd 0.58825 0.72238 0.00816 0.0
O17 O 0.64019 0.73685 0.18484 0.0
Cd18 Cd 0.66053 0.74917 0.00461 0.0
C19 C 0.63865 0.79724 0.00635 0.0
O20 O 0.61911 0.71099 0.92124 0.0
O21 O 0.64939 0.74471 0.82202 0.0
O22 O 0.68349 0.72167 0.03286 0.0
C23 C 0.62645 0.72077 0.83113 0.0
O24 O 0.61403 0.77451 0.00268 0.0
C25 C 0.70585 0.73703 -0.02022 0.0
O26 O 0.66178 0.796 0.0124 0.0
O27 O 0.70966 0.76108 0.94788 0.0
C28 C 0.19159 0.87523 0.23323 0.0
O29 O 0.20148 0.86132 0.18608 0.0
Cd30 Cd 0.19335 0.84906 0.00824 0.0
O31 O 0.17889 0.88653 0.18494 0.0
Cd32 Cd 0.16657 0.89455 0.0047 0.0
C33 C 0.1185 0.82459 0.00642 0.0
O34 O 0.20476 0.89134 0.92135 0.0
O35 O 0.17104 0.88787 0.82211 0.0
O36 O 0.19399 0.94502 0.03312 0.0
C37 C 0.19498 0.88888 0.83123 0.0
O38 O 0.14122 0.8227 0.00274 0.0
C39 C 0.17864 0.952 -0.02015 0.0
O40 O 0.11973 0.84895 0.01248 0.0
O41 O 0.15463 0.93173 0.94775 0.0
C42 C 0.28266 0.05738 0.67955 0.0
O43 O 0.30646 0.07129 0.72669 0.0
Cd44 Cd 0.31059 0.08356 0.90452 0.0
O45 O 0.25865 0.04606 0.72785 0.0
Cd46 Cd 0.23832 0.03805 0.90811 0.0
C47 C 0.2602 0.10801 0.90639 0.0
O48 O 0.27973 0.04128 -0.00856 0.0
O49 O 0.24948 0.04475 0.09068 0.0
O50 O 0.21528 -0.01242 0.8798 0.0
C51 C 0.27241 0.04373 0.08156 0.0
O52 O 0.28482 0.1099 0.91005 0.0
C53 C 0.19296 -0.01939 0.93306 0.0
O54 O 0.23708 0.08364 0.90033 0.0
O55 O 0.1892 0.00087 -0.03493 0.0
C56 C 0.85835 0.20846 0.6795 0.0
O57 O 0.84445 0.21836 0.72665 0.0
Cd58 Cd 0.83218 0.21023 0.90448 0.0
O59 O 0.86966 0.19577 0.72779 0.0
Cd60 Cd 0.87768 0.18346 0.90804 0.0
C61 C 0.80772 0.13538 0.90633 0.0
O62 O 0.87445 0.22165 -0.00859 0.0
O63 O 0.87098 0.18792 0.09063 0.0
O64 O 0.92814 0.21093 0.87983 0.0
C65 C 0.872 0.21186 0.08152 0.0
O66 O 0.80583 0.15811 0.91 0.0
C67 C 0.93512 0.19556 0.93299 0.0
O68 O 0.83208 0.13662 0.90027 0.0
O69 O 0.91486 0.17152 -0.03512 0.0
C70 C 0.70729 0.63307 0.67958 0.0
O71 O 0.69739 0.60927 0.72672 0.0
Cd72 Cd 0.70552 0.60513 0.90455 0.0
O73 O 0.72 0.65708 0.72788 0.0
Cd74 Cd 0.73231 0.67742 0.90811 0.0
C75 C 0.78037 0.65554 0.90637 0.0
O76 O 0.69413 0.63599 -0.0085 0.0
O77 O 0.72786 0.66627 0.0907 0.0
O78 O 0.70479 0.70035 0.87998 0.0
C79 C 0.70392 0.64333 0.0816 0.0
O80 O 0.75764 0.63092 0.91003 0.0
C81 C 0.72015 0.72272 0.93304 0.0
O82 O 0.77914 0.67867 0.90033 0.0
O83 O 0.74422 0.72656 -0.03517 0.0
C84 C 0.85834 0.63306 0.67959 0.0
O85 O 0.84443 0.60926 0.72673 0.0
Cd86 Cd 0.83216 0.60513 0.90455 0.0
O87 O 0.86965 0.65707 0.72788 0.0
Cd88 Cd 0.87767 0.67741 0.90812 0.0
C89 C 0.80773 0.65554 0.90638 0.0
O90 O 0.87443 0.63599 -0.00853 0.0
O91 O 0.87098 0.66625 0.0907 0.0
O92 O 0.92814 0.70042 0.87978 0.0
C93 C 0.87198 0.64332 0.08158 0.0
O94 O 0.80583 0.63092 0.91004 0.0
C95 C 0.93513 0.72276 0.93299 0.0
O96 O 0.83209 0.67867 0.90033 0.0
O97 O 0.91488 0.72653 -0.03498 0.0
C98 C 0.28268 0.20845 0.67961 0.0
O99 O 0.30648 0.21835 0.72675 0.0
Cd100 Cd 0.31061 0.21022 0.90459 0.0
O101 O 0.25867 0.19575 0.72791 0.0
Cd102 Cd 0.23833 0.18343 0.90814 0.0
C103 C 0.2602 0.13536 0.9064 0.0
O104 O 0.27974 0.22162 -0.00849 0.0
O105 O 0.24947 0.18789 0.09073 0.0
O106 O 0.21537 0.21092 0.87989 0.0
C107 C 0.27241 0.21183 0.08162 0.0
O108 O 0.28483 0.1581 0.91007 0.0
C109 C 0.19301 0.19557 0.93298 0.0
O110 O 0.23708 0.1366 0.90035 0.0
O111 O 0.1892 0.17152 -0.03512 0.0
C112 C 0.70727 0.05737 0.67953 0.0
O113 O 0.69738 0.07128 0.72667 0.0
Cd114 Cd 0.70551 0.08354 0.90451 0.0
O115 O 0.71997 0.04607 0.72782 0.0
Cd116 Cd 0.7323 0.03805 0.90805 0.0
C117 C 0.78036 0.10802 0.90633 0.0
O118 O 0.6941 0.04127 -0.00859 0.0
O119 O 0.72782 0.04473 0.09064 0.0
O120 O 0.70488 -0.01242 0.87963 0.0
C121 C 0.70388 0.04372 0.08152 0.0
O122 O 0.75763 0.10991 0.91001 0.0
C123 C 0.72022 -0.01939 0.9329 0.0
O124 O 0.77913 0.08366 0.90027 0.0
O125 O 0.74423 0.00088 -0.03499 0.0
C126 C 0.61621 0.87523 0.2332 0.0
O127 O 0.59241 0.86132 0.18606 0.0
Cd128 Cd 0.58827 0.84905 0.00823 0.0
O129 O 0.64022 0.88654 0.1849 0.0
Cd130 Cd 0.66055 0.89455 0.00465 0.0
C131 C 0.63866 0.8246 0.00636 0.0
O132 O 0.61913 0.89133 0.92131 0.0
O133 O 0.64938 0.88786 0.82207 0.0
O134 O 0.68359 0.94503 0.03296 0.0
C135 C 0.62645 0.88887 0.83119 0.0
O136 O 0.61404 0.8227 0.0027 0.0
C137 C 0.70591 0.952 -0.02031 0.0
O138 O 0.66178 0.84896 0.01242 0.0
O139 O 0.70966 0.93173 0.94767 0.0
C140 C 0.0405 0.72414 0.23325 0.0
O141 O 0.05441 0.71424 0.1861 0.0
Cd142 Cd 0.06667 0.72237 0.00827 0.0
O143 O 0.0292 0.73684 0.18496 0.0
Cd144 Cd 0.02118 0.74915 0.00471 0.0
C145 C 0.09114 0.79722 0.00642 0.0
O146 O 0.0244 0.71096 0.92134 0.0
O147 O 0.02788 0.74468 0.82213 0.0
O148 O -0.02929 0.72168 0.03294 0.0
C149 C 0.02686 0.72074 0.83123 0.0
O150 O 0.09303 0.7745 0.00275 0.0
C151 C -0.03626 0.73705 -0.02023 0.0
O152 O 0.06678 0.79598 0.01248 0.0
O153 O -0.016 0.76109 0.94786 0.0
C154 C 0.19156 0.29953 0.23318 0.0
O155 O 0.20147 0.32333 0.18604 0.0
Cd156 Cd 0.19334 0.32747 0.00821 0.0
O157 O 0.17886 0.27552 0.18488 0.0
Cd158 Cd 0.16655 0.25518 0.00464 0.0
C159 C 0.11849 0.27706 0.00638 0.0
O160 O 0.20473 0.29661 0.92126 0.0
O161 O 0.171 0.26633 0.82206 0.0
O162 O 0.19407 0.23225 0.03278 0.0
C163 C 0.19494 0.28927 0.83116 0.0
O164 O 0.14122 0.30169 0.00272 0.0
C165 C 0.17871 0.20988 -0.02029 0.0
O166 O 0.11972 0.25393 0.01243 0.0
O167 O 0.15464 0.20604 0.94792 0.0
C168 C 0.70719 0.63286 0.5666 0.0
O169 O 0.72111 0.65667 0.51947 0.0
Cd170 Cd 0.73339 0.66081 0.34166 0.0
O171 O 0.69588 0.60885 0.5183 0.0
Cd172 Cd 0.68787 0.58852 0.33805 0.0
C173 C 0.75781 0.6104 0.33981 0.0
O174 O 0.69112 0.62995 0.25473 0.0
O175 O 0.69457 0.59969 0.15546 0.0
O176 O 0.6374 0.56554 0.36631 0.0
C177 C 0.69358 0.62263 0.16463 0.0
O178 O 0.75971 0.63502 0.33616 0.0
C179 C 0.6304 0.5432 0.31314 0.0
O180 O 0.73345 0.58727 0.34584 0.0
O181 O 0.65064 0.5394 0.28118 0.0
C182 C 0.28286 0.05747 0.56657 0.0
O183 O 0.25906 0.04757 0.51944 0.0
Cd184 Cd 0.25492 0.0557 0.34161 0.0
O185 O 0.30687 0.07018 0.51827 0.0
Cd186 Cd 0.32721 0.08249 0.33802 0.0
C187 C 0.30532 0.13056 0.33978 0.0
O188 O 0.28578 0.0443 0.25468 0.0
O189 O 0.31605 0.07803 0.15542 0.0
O190 O 0.3502 0.05503 0.36631 0.0
C191 C 0.29311 0.05409 0.16458 0.0
O192 O 0.2807 0.10783 0.33612 0.0
C193 C 0.37255 0.07038 0.31315 0.0
O194 O 0.32845 0.12933 0.34581 0.0
O195 O 0.37633 0.09442 0.28117 0.0
C196 C 0.85825 0.20857 0.56652 0.0
O197 O 0.86814 0.19466 0.51938 0.0
Cd198 Cd 0.86001 0.18239 0.34155 0.0
O199 O 0.84555 0.21987 0.51823 0.0
Cd200 Cd 0.83323 0.22788 0.33798 0.0
C201 C 0.78516 0.15792 0.33971 0.0
O202 O 0.87142 0.22467 0.25465 0.0
O203 O 0.8377 0.2212 0.15538 0.0
O204 O 0.86065 0.27835 0.36638 0.0
C205 C 0.86164 0.2222 0.16455 0.0
O206 O 0.80789 0.15603 0.33604 0.0
C207 C 0.84531 0.28533 0.31312 0.0
O208 O 0.7864 0.18228 0.34576 0.0
O209 O 0.8213 0.26506 0.28103 0.0
C210 C 0.94932 0.39072 0.01285 0.0
O211 O -0.02688 0.40463 0.05998 0.0
Cd212 Cd -0.02274 0.4169 0.23782 0.0
O213 O 0.92531 0.3794 0.06115 0.0
Cd214 Cd 0.90498 0.37139 0.2414 0.0
C215 C 0.92687 0.44135 0.2397 0.0
O216 O 0.9464 0.37462 0.32474 0.0
O217 O 0.91614 0.37808 0.42398 0.0
O218 O 0.88195 0.32092 0.21309 0.0
C219 C 0.93907 0.37707 0.41485 0.0
O220 O -0.04851 0.44324 0.24335 0.0
C221 C 0.85962 0.31394 0.26634 0.0
O222 O 0.90374 0.41698 0.23364 0.0
O223 O 0.85586 0.3342 0.29834 0.0
C224 C 0.52503 0.5418 0.01288 0.0
O225 O 0.51112 0.5517 0.06002 0.0
Cd226 Cd 0.49885 0.54356 0.23786 0.0
O227 O 0.53633 0.5291 0.06117 0.0
Cd228 Cd 0.54435 0.51679 0.24141 0.0
C229 C 0.47439 0.46871 0.23969 0.0
O230 O 0.54112 0.55498 0.32479 0.0
O231 O 0.53765 0.52125 0.424 0.0
O232 O 0.59482 0.54428 0.21325 0.0
C233 C 0.53866 0.54519 0.41489 0.0
O234 O 0.4725 0.49144 0.24336 0.0
C235 C 0.60179 0.52891 0.26637 0.0
O236 O 0.49875 0.46995 0.23363 0.0
O237 O 0.58154 0.50485 0.29821 0.0
C238 C 0.37395 -0.03359 0.0129 0.0
O239 O 0.36405 0.94261 0.06004 0.0
Cd240 Cd 0.37218 0.93847 0.23787 0.0
O241 O 0.38666 -0.00958 0.0612 0.0
Cd242 Cd 0.39897 0.01075 0.24144 0.0
C243 C 0.44703 -0.01113 0.23969 0.0
O244 O 0.36078 -0.03067 0.32481 0.0
O245 O 0.39451 -0.0004 0.42402 0.0
O246 O 0.37148 0.03373 0.21324 0.0
C247 C 0.37057 -0.02334 0.41492 0.0
O248 O 0.4243 0.96425 0.24336 0.0
C249 C 0.38684 0.05607 0.26638 0.0
O250 O 0.4458 0.012 0.23365 0.0
O251 O 0.4109 0.05988 0.29826 0.0
C252 C 0.525 -0.03361 0.01288 0.0
O253 O 0.51108 0.94259 0.06002 0.0
Cd254 Cd 0.49881 0.93846 0.23785 0.0
O255 O 0.53631 -0.0096 0.06118 0.0
Cd256 Cd 0.54433 0.01074 0.24141 0.0
C257 C 0.47439 -0.01113 0.23969 0.0
O258 O 0.54109 -0.03068 0.32476 0.0
O259 O 0.53764 -0.00041 0.424 0.0
O260 O 0.59479 0.03374 0.21308 0.0
C261 C 0.53864 -0.02335 0.41488 0.0
O262 O 0.47248 0.96425 0.24335 0.0
C263 C 0.6018 0.05608 0.26627 0.0
O264 O 0.49875 0.012 0.23364 0.0
O265 O 0.58155 0.05986 0.29828 0.0
C266 C 0.94934 0.54179 0.01293 0.0
O267 O -0.02686 0.55169 0.06007 0.0
Cd268 Cd -0.02273 0.54356 0.23791 0.0
O269 O 0.92533 0.52909 0.06123 0.0
Cd270 Cd 0.90499 0.51677 0.24146 0.0
C271 C 0.92687 0.4687 0.23972 0.0
O272 O 0.94641 0.55496 0.32483 0.0
O273 O 0.91614 0.52124 0.42406 0.0
O274 O 0.882 0.54424 0.21317 0.0
C275 C 0.93908 0.54518 0.41494 0.0
O276 O -0.04851 0.49144 0.24339 0.0
C277 C 0.85965 0.52889 0.26632 0.0
O278 O 0.90375 0.46994 0.23367 0.0
O279 O 0.85587 0.50485 0.29829 0.0
C280 C 0.37394 0.39071 0.0129 0.0
O281 O 0.36405 0.40461 0.06005 0.0
Cd282 Cd 0.37219 0.41688 0.23788 0.0
O283 O 0.38664 0.3794 0.06119 0.0
Cd284 Cd 0.39897 0.37139 0.24142 0.0
C285 C 0.44704 0.44135 0.23969 0.0
O286 O 0.36077 0.37461 0.32478 0.0
O287 O 0.3945 0.37808 0.424 0.0
O288 O 0.37152 0.32092 0.21306 0.0
C289 C 0.37056 0.37706 0.4149 0.0
O290 O 0.42431 0.44324 0.24337 0.0
C291 C 0.38687 0.31393 0.26628 0.0
O292 O 0.4458 0.41699 0.23363 0.0
O293 O 0.41089 0.3342 0.29832 0.0
C294 C 0.28288 0.20856 0.56663 0.0
O295 O 0.25908 0.19464 0.51951 0.0
Cd296 Cd 0.25493 0.18236 0.34169 0.0
O297 O 0.30689 0.21987 0.51833 0.0
Cd298 Cd 0.32721 0.22788 0.33806 0.0
C299 C 0.30533 0.15792 0.33979 0.0
O300 O 0.28579 0.22464 0.25475 0.0
O301 O 0.31604 0.22117 0.15548 0.0
O302 O 0.35022 0.27835 0.36629 0.0
C303 C 0.29311 0.22217 0.16465 0.0
O304 O 0.2807 0.15602 0.33615 0.0
C305 C 0.37256 0.28532 0.31307 0.0
O306 O 0.32845 0.18228 0.34583 0.0
O307 O 0.37633 0.26507 0.28113 0.0
C308 C 0.70716 0.05747 0.56655 0.0
O309 O 0.72107 0.04758 0.51941 0.0
Cd310 Cd 0.73334 0.0557 0.34158 0.0
O311 O 0.69586 0.07017 0.51825 0.0
Cd312 Cd 0.68784 0.08248 0.33799 0.0
C313 C 0.7578 0.13056 0.33971 0.0
O314 O 0.69107 0.04429 0.25465 0.0
O315 O 0.69454 0.07801 0.15539 0.0
O316 O 0.63738 0.05501 0.36619 0.0
C317 C 0.69354 0.05408 0.16455 0.0
O318 O 0.7597 0.10783 0.33605 0.0
C319 C 0.63041 0.07037 0.31304 0.0
O320 O 0.73344 0.12932 0.34576 0.0
O321 O 0.65066 0.09442 0.28115 0.0
C322 C 0.85824 0.63285 0.56661 0.0
O323 O 0.86814 0.65666 0.51948 0.0
Cd324 Cd 0.86002 0.6608 0.34166 0.0
O325 O 0.84554 0.60884 0.51831 0.0
Cd326 Cd 0.83323 0.58852 0.33805 0.0
C327 C 0.78517 0.6104 0.3398 0.0
O328 O 0.87142 0.62994 0.25471 0.0
O329 O 0.83768 0.59968 0.15546 0.0
O330 O 0.86072 0.56555 0.36622 0.0
C331 C 0.86162 0.62262 0.16461 0.0
O332 O 0.8079 0.63502 0.33615 0.0
C333 C 0.84536 0.5432 0.31308 0.0
O334 O 0.7864 0.58727 0.34583 0.0
O335 O 0.8213 0.53939 0.28122 0.0
C336 C 0.37385 0.9662 0.89992 0.0
O337 O 0.38777 -0.00999 0.85279 0.0
Cd338 Cd 0.40004 -0.00586 0.67497 0.0
O339 O 0.36254 0.94219 0.85162 0.0
Cd340 Cd 0.35452 0.92186 0.67137 0.0
C341 C 0.42447 0.94373 0.67311 0.0
O342 O 0.35777 0.96329 0.58805 0.0
O343 O 0.36122 0.93302 0.48878 0.0
O344 O 0.30406 0.89886 0.69969 0.0
C345 C 0.36023 0.95596 0.49795 0.0
O346 O 0.42637 -0.03164 0.66946 0.0
C347 C 0.29706 0.87652 0.64649 0.0
O348 O 0.40011 0.92061 0.67914 0.0
O349 O 0.31731 0.87274 0.61447 0.0
C350 C -0.05048 0.39081 0.89987 0.0
O351 O 0.92572 0.38091 0.85274 0.0
Cd352 Cd 0.92159 0.38904 0.67491 0.0
O353 O -0.02647 0.40352 0.85157 0.0
Cd354 Cd -0.00613 0.41583 0.67131 0.0
C355 C -0.02801 0.4639 0.67308 0.0
O356 O -0.04756 0.37764 0.58798 0.0
O357 O -0.01729 0.41137 0.48872 0.0
O358 O 0.01686 0.38837 0.69959 0.0
C359 C -0.04023 0.38743 0.49788 0.0
O360 O 0.94736 0.44117 0.66942 0.0
C361 C 0.0392 0.40372 0.64644 0.0
O362 O -0.00489 0.46267 0.6791 0.0
O363 O 0.04299 0.42776 0.61448 0.0
C364 C 0.52492 0.54191 0.89989 0.0
O365 O 0.53481 0.528 0.85276 0.0
Cd366 Cd 0.52668 0.51572 0.67494 0.0
O367 O 0.51222 0.55321 0.85161 0.0
Cd368 Cd 0.4999 0.56122 0.67136 0.0
C369 C 0.45183 0.49125 0.6731 0.0
O370 O 0.53809 0.558 0.58803 0.0
O371 O 0.50437 0.55453 0.48876 0.0
O372 O 0.52734 0.61169 0.6997 0.0
C373 C 0.5283 0.55553 0.49792 0.0
O374 O 0.47456 0.48937 0.66944 0.0
C375 C 0.51199 0.61867 0.64647 0.0
O376 O 0.45307 0.51562 0.67915 0.0
O377 O 0.48797 0.5984 0.61443 0.0
C378 C 0.61597 0.72405 0.34612 0.0
O379 O 0.63977 0.73796 0.39324 0.0
Cd380 Cd 0.64392 0.75024 0.57106 0.0
O381 O 0.59196 0.71274 0.39442 0.0
Cd382 Cd 0.57164 0.70473 0.57469 0.0
C383 C 0.59353 0.77469 0.57296 0.0
O384 O 0.61307 0.70797 0.658 0.0
O385 O 0.58281 0.71143 0.75727 0.0
O386 O 0.54863 0.65425 0.54646 0.0
C387 C 0.60575 0.71043 0.7481 0.0
O388 O 0.61816 0.77658 0.5766 0.0
C389 C 0.5263 0.64728 0.59968 0.0
O390 O 0.57041 0.75032 0.56692 0.0
O391 O 0.52252 0.66753 0.63163 0.0
C392 C 0.1917 0.87513 0.34621 0.0
O393 O 0.17779 0.88503 0.39335 0.0
Cd394 Cd 0.16552 0.8769 0.57117 0.0
O395 O 0.203 0.86243 0.3945 0.0
Cd396 Cd 0.21102 0.85012 0.57476 0.0
C397 C 0.14106 0.80205 0.57304 0.0
O398 O 0.20779 0.88832 0.6581 0.0
O399 O 0.20432 0.85459 0.75736 0.0
O400 O 0.26148 0.87759 0.54655 0.0
C401 C 0.20533 0.87852 0.7482 0.0
O402 O 0.13916 0.82477 0.5767 0.0
C403 C 0.26845 0.86223 0.59971 0.0
O404 O 0.16542 0.80329 0.567 0.0
O405 O 0.2482 0.83818 0.63161 0.0
C406 C 0.04062 0.29975 0.34615 0.0
O407 O 0.03072 0.27595 0.39328 0.0
Cd408 Cd 0.03884 0.2718 0.5711 0.0
O409 O 0.05332 0.32376 0.39445 0.0
Cd410 Cd 0.06563 0.34409 0.57471 0.0
C411 C 0.11369 0.32221 0.57295 0.0
O412 O 0.02745 0.30266 0.65805 0.0
O413 O 0.06118 0.33293 0.7573 0.0
O414 O 0.03814 0.36706 0.54654 0.0
C415 C 0.03724 0.30999 0.74815 0.0
O416 O 0.09096 0.29758 0.5766 0.0
C417 C 0.0535 0.38941 0.59967 0.0
O418 O 0.11246 0.34534 0.56692 0.0
O419 O 0.07756 0.39322 0.63153 0.0
C420 C 0.19167 0.29974 0.34615 0.0
O421 O 0.17775 0.27593 0.39328 0.0
Cd422 Cd 0.16547 0.27179 0.57109 0.0
O423 O 0.20298 0.32375 0.39445 0.0
Cd424 Cd 0.21099 0.34408 0.57471 0.0
C425 C 0.14105 0.32221 0.57295 0.0
O426 O 0.20774 0.30264 0.65802 0.0
O427 O 0.20429 0.33291 0.75729 0.0
O428 O 0.26145 0.36705 0.54646 0.0
C429 C 0.20527 0.30997 0.74812 0.0
O430 O 0.13915 0.29758 0.5766 0.0
C431 C 0.26846 0.3894 0.59962 0.0
O432 O 0.16541 0.34533 0.56692 0.0
O433 O 0.24822 0.3932 0.63156 0.0
C434 C 0.616 0.87513 0.34618 0.0
O435 O 0.6398 0.88503 0.39331 0.0
Cd436 Cd 0.64394 0.8769 0.57114 0.0
O437 O 0.59199 0.86242 0.39448 0.0
Cd438 Cd 0.57166 0.85011 0.57473 0.0
C439 C 0.59354 0.80204 0.57298 0.0
O440 O 0.61308 0.8883 0.65807 0.0
O441 O 0.58281 0.85458 0.75733 0.0
O442 O 0.54866 0.87757 0.54646 0.0
C443 C 0.60575 0.87851 0.74817 0.0
O444 O 0.61816 0.82477 0.57663 0.0
C445 C 0.52632 0.86222 0.59961 0.0
O446 O 0.57041 0.80328 0.56694 0.0
O447 O 0.52253 0.83818 0.63157 0.0
C448 C 0.04061 0.72403 0.34623 0.0
O449 O 0.03072 0.73794 0.39337 0.0
Cd450 Cd 0.03885 0.75021 0.5712 0.0
O451 O 0.05331 0.71273 0.39452 0.0
Cd452 Cd 0.06563 0.70472 0.57477 0.0
C453 C 0.1137 0.77468 0.57304 0.0
O454 O 0.02743 0.70794 0.6581 0.0
O455 O 0.06115 0.7114 0.75737 0.0
O456 O 0.03821 0.65425 0.54637 0.0
C457 C 0.03722 0.7104 0.7482 0.0
O458 O 0.09097 0.77657 0.57671 0.0
C459 C 0.05355 0.64727 0.59963 0.0
O460 O 0.11246 0.75032 0.56699 0.0
O461 O 0.07756 0.66754 0.63172 0.0
C462 C -0.05045 0.5419 0.89995 0.0
O463 O 0.92575 0.52798 0.85282 0.0
Cd464 Cd 0.9216 0.51571 0.675 0.0
O465 O -0.02644 0.55321 0.85165 0.0
Cd466 Cd -0.00612 0.56122 0.67138 0.0
C467 C -0.02801 0.49126 0.67309 0.0
O468 O -0.04754 0.55798 0.58808 0.0
O469 O -0.01729 0.55452 0.48879 0.0
O470 O 0.01691 0.61169 0.69967 0.0
C471 C -0.04022 0.55552 0.49797 0.0
O472 O 0.94737 0.48936 0.66945 0.0
C473 C 0.03923 0.61866 0.64642 0.0
O474 O -0.00489 0.51562 0.67914 0.0
O475 O 0.043 0.5984 0.61442 0.0
C476 C 0.37383 0.39081 0.89992 0.0
O477 O 0.38774 0.38091 0.85278 0.0
Cd478 Cd 0.40001 0.38904 0.67496 0.0
O479 O 0.36253 0.40351 0.85163 0.0
Cd480 Cd 0.35451 0.41581 0.67137 0.0
C481 C 0.42447 0.46389 0.6731 0.0
O482 O 0.35775 0.37763 0.58802 0.0
O483 O 0.36122 0.41136 0.48877 0.0
O484 O 0.30405 0.38832 0.6995 0.0
C485 C 0.36022 0.38742 0.49793 0.0
O486 O 0.42637 0.44117 0.66944 0.0
C487 C 0.29707 0.40369 0.64639 0.0
O488 O 0.40011 0.46265 0.67914 0.0
O489 O 0.31732 0.42775 0.61456 0.0
C490 C 0.5249 0.96618 0.8999 0.0
O491 O 0.5348 -0.01001 0.85277 0.0
Cd492 Cd 0.52668 -0.00586 0.67495 0.0
O493 O 0.51219 0.94217 0.8516 0.0
Cd494 Cd 0.49989 0.92185 0.67134 0.0
C495 C 0.45183 0.94373 0.6731 0.0
O496 O 0.53807 0.96328 0.588 0.0
O497 O 0.50434 0.93301 0.48875 0.0
O498 O 0.52738 0.89888 0.69951 0.0
C499 C 0.52828 0.95595 0.49791 0.0
O500 O 0.47456 -0.03164 0.66945 0.0
C501 C 0.51202 0.87653 0.64638 0.0
O502 O 0.45306 0.9206 0.67913 0.0
O503 O 0.48797 0.87272 0.61452 0.0
loop_
_geom_bond_atom_site_label_1
_geom_bond_atom_site_label_2
_geom_bond_distance
_geom_bond_site_symmetry_2
_ccdc_geom_bond_type
C0 O1 1.306 . S
C0 O3 1.160 . S
O1 C0 1.306 . S
O1 Cd2 2.228 . S
Cd2 O1 2.228 . S
Cd2 O6 2.273 1_554 S
Cd2 O10 2.277 . S
O3 C0 1.160 . S
O3 Cd4 2.203 . S
Cd4 O3 2.203 . S
Cd4 O6 2.411 1_554 S
Cd4 O7 2.333 1_554 S
Cd4 O8 2.352 . S
Cd4 O12 2.277 . S
Cd4 O13 2.356 . S
C5 O10 1.209 . S
C5 O12 1.226 . S
O6 Cd2 2.273 1_556 S
O6 Cd4 2.411 1_556 S
O6 C9 1.320 . S
O7 Cd4 2.333 1_556 S
O7 C9 1.214 . S
O8 Cd4 2.352 . S
O8 C11 1.258 . S
C9 O6 1.320 . S
C9 O7 1.214 . S
O10 Cd2 2.277 . S
O10 C5 1.209 . S
C11 O8 1.258 . S
C11 O13 1.282 . S
O12 Cd4 2.277 . S
O12 C5 1.226 . S
O13 Cd4 2.356 . S
O13 C11 1.282 . S
C14 O15 1.306 . S
C14 O17 1.160 . S
O15 C14 1.306 . S
O15 Cd16 2.228 . S
Cd16 O15 2.228 . S
Cd16 O20 2.273 1_554 S
Cd16 O24 2.277 . S
O17 C14 1.160 . S
O17 Cd18 2.203 . S
Cd18 O17 2.203 . S
Cd18 O20 2.411 1_554 S
Cd18 O21 2.333 1_554 S
Cd18 O22 2.352 . S
Cd18 O26 2.277 . S
Cd18 O27 2.356 . S
C19 O24 1.209 . S
C19 O26 1.226 . S
O20 Cd16 2.273 1_556 S
O20 Cd18 2.411 1_556 S
O20 C23 1.320 . S
O21 Cd18 2.333 1_556 S
O21 C23 1.214 . S
O22 Cd18 2.352 . S
O22 C25 1.258 . S
C23 O20 1.320 . S
C23 O21 1.214 . S
O24 Cd16 2.277 . S
O24 C19 1.209 . S
C25 O22 1.258 . S
C25 O27 1.282 . S
O26 Cd18 2.277 . S
O26 C19 1.226 . S
O27 Cd18 2.356 . S
O27 C25 1.282 . S
C28 O29 1.306 . S
C28 O31 1.160 . S
O29 C28 1.306 . S
O29 Cd30 2.228 . S
Cd30 O29 2.228 . S
Cd30 O34 2.273 1_554 S
Cd30 O38 2.277 . S
O31 C28 1.160 . S
O31 Cd32 2.203 . S
Cd32 O31 2.203 . S
Cd32 O34 2.411 1_554 S
Cd32 O35 2.333 1_554 S
Cd32 O36 2.352 . S
Cd32 O40 2.277 . S
Cd32 O41 2.356 . S
C33 O38 1.209 . S
C33 O40 1.226 . S
O34 Cd30 2.273 1_556 S
O34 Cd32 2.411 1_556 S
O34 C37 1.320 . S
O35 Cd32 2.333 1_556 S
O35 C37 1.214 . S
O36 Cd32 2.352 . S
O36 C39 1.258 . S
C37 O34 1.320 . S
C37 O35 1.214 . S
O38 Cd30 2.277 . S
O38 C33 1.209 . S
C39 O36 1.258 . S
C39 O41 1.282 . S
O40 Cd32 2.277 . S
O40 C33 1.226 . S
O41 Cd32 2.356 . S
O41 C39 1.282 . S
C42 O43 1.306 . S
C42 O45 1.160 . S
O43 C42 1.306 . S
O43 Cd44 2.228 . S
Cd44 O43 2.228 . S
Cd44 O48 2.273 1_556 S
Cd44 O52 2.277 . S
O45 C42 1.160 . S
O45 Cd46 2.203 . S
Cd46 O45 2.203 . S
Cd46 O48 2.411 1_556 S
Cd46 O49 2.333 1_556 S
Cd46 O50 2.352 . S
Cd46 O54 2.277 . S
Cd46 O55 2.356 . S
C47 O52 1.209 . S
C47 O54 1.226 . S
O48 Cd44 2.273 1_554 S
O48 Cd46 2.411 1_554 S
O48 C51 1.320 . S
O49 Cd46 2.333 1_554 S
O49 C51 1.214 . S
O50 Cd46 2.352 . S
O50 C53 1.258 . S
C51 O48 1.320 . S
C51 O49 1.214 . S
O52 Cd44 2.277 . S
O52 C47 1.209 . S
C53 O50 1.258 . S
C53 O55 1.282 . S
O54 Cd46 2.277 . S
O54 C47 1.226 . S
O55 Cd46 2.356 . S
O55 C53 1.282 . S
C56 O57 1.306 . S
C56 O59 1.160 . S
O57 C56 1.306 . S
O57 Cd58 2.228 . S
Cd58 O57 2.228 . S
Cd58 O62 2.273 1_556 S
Cd58 O66 2.277 . S
O59 C56 1.160 . S
O59 Cd60 2.203 . S
Cd60 O59 2.203 . S
Cd60 O62 2.411 1_556 S
Cd60 O63 2.333 1_556 S
Cd60 O64 2.352 . S
Cd60 O68 2.277 . S
Cd60 O69 2.356 . S
C61 O66 1.209 . S
C61 O68 1.226 . S
O62 Cd58 2.273 1_554 S
O62 Cd60 2.411 1_554 S
O62 C65 1.320 . S
O63 Cd60 2.333 1_554 S
O63 C65 1.214 . S
O64 Cd60 2.352 . S
O64 C67 1.258 . S
C65 O62 1.320 . S
C65 O63 1.214 . S
O66 Cd58 2.277 . S
O66 C61 1.209 . S
C67 O64 1.258 . S
C67 O69 1.282 . S
O68 Cd60 2.277 . S
O68 C61 1.226 . S
O69 Cd60 2.356 . S
O69 C67 1.282 . S
C70 O71 1.306 . S
C70 O73 1.160 . S
O71 C70 1.306 . S
O71 Cd72 2.228 . S
Cd72 O71 2.228 . S
Cd72 O76 2.273 1_556 S
Cd72 O80 2.277 . S
O73 C70 1.160 . S
O73 Cd74 2.203 . S
Cd74 O73 2.203 . S
Cd74 O76 2.411 1_556 S
Cd74 O77 2.333 1_556 S
Cd74 O78 2.352 . S
Cd74 O82 2.277 . S
Cd74 O83 2.356 . S
C75 O80 1.209 . S
C75 O82 1.226 . S
O76 Cd72 2.273 1_554 S
O76 Cd74 2.411 1_554 S
O76 C79 1.320 . S
O77 Cd74 2.333 1_554 S
O77 C79 1.214 . S
O78 Cd74 2.352 . S
O78 C81 1.258 . S
C79 O76 1.320 . S
C79 O77 1.214 . S
O80 Cd72 2.277 . S
O80 C75 1.209 . S
C81 O78 1.258 . S
C81 O83 1.282 . S
O82 Cd74 2.277 . S
O82 C75 1.226 . S
O83 Cd74 2.356 . S
O83 C81 1.282 . S
C84 O85 1.306 . S
C84 O87 1.160 . S
O85 C84 1.306 . S
O85 Cd86 2.228 . S
Cd86 O85 2.228 . S
Cd86 O90 2.273 1_556 S
Cd86 O94 2.277 . S
O87 C84 1.160 . S
O87 Cd88 2.203 . S
Cd88 O87 2.203 . S
Cd88 O90 2.411 1_556 S
Cd88 O91 2.333 1_556 S
Cd88 O92 2.352 . S
Cd88 O96 2.277 . S
Cd88 O97 2.356 . S
C89 O94 1.209 . S
C89 O96 1.226 . S
O90 Cd86 2.273 1_554 S
O90 Cd88 2.411 1_554 S
O90 C93 1.320 . S
O91 Cd88 2.333 1_554 S
O91 C93 1.214 . S
O92 Cd88 2.352 . S
O92 C95 1.258 . S
C93 O90 1.320 . S
C93 O91 1.214 . S
O94 Cd86 2.277 . S
O94 C89 1.209 . S
C95 O92 1.258 . S
C95 O97 1.282 . S
O96 Cd88 2.277 . S
O96 C89 1.226 . S
O97 Cd88 2.356 . S
O97 C95 1.282 . S
C98 O99 1.306 . S
C98 O101 1.160 . S
O99 C98 1.306 . S
O99 Cd100 2.228 . S
Cd100 O99 2.228 . S
Cd100 O104 2.273 1_556 S
Cd100 O108 2.277 . S
O101 C98 1.160 . S
O101 Cd102 2.203 . S
Cd102 O101 2.203 . S
Cd102 O104 2.411 1_556 S
Cd102 O105 2.333 1_556 S
Cd102 O106 2.352 . S
Cd102 O110 2.277 . S
Cd102 O111 2.356 . S
C103 O108 1.209 . S
C103 O110 1.226 . S
O104 Cd100 2.273 1_554 S
O104 Cd102 2.411 1_554 S
O104 C107 1.320 . S
O105 Cd102 2.333 1_554 S
O105 C107 1.214 . S
O106 Cd102 2.352 . S
O106 C109 1.258 . S
C107 O104 1.320 . S
C107 O105 1.214 . S
O108 Cd100 2.277 . S
O108 C103 1.209 . S
C109 O106 1.258 . S
C109 O111 1.282 . S
O110 Cd102 2.277 . S
O110 C103 1.226 . S
O111 Cd102 2.356 . S
O111 C109 1.282 . S
C112 O113 1.306 . S
C112 O115 1.160 . S
O113 C112 1.306 . S
O113 Cd114 2.228 . S
Cd114 O113 2.228 . S
Cd114 O118 2.273 1_556 S
Cd114 O122 2.277 . S
O115 C112 1.160 . S
O115 Cd116 2.203 . S
Cd116 O115 2.203 . S
Cd116 O118 2.411 1_556 S
Cd116 O119 2.333 1_556 S
Cd116 O120 2.352 . S
Cd116 O124 2.277 . S
Cd116 O125 2.356 . S
C117 O122 1.209 . S
C117 O124 1.226 . S
O118 Cd114 2.273 1_554 S
O118 Cd116 2.411 1_554 S
O118 C121 1.320 . S
O119 Cd116 2.333 1_554 S
O119 C121 1.214 . S
O120 Cd116 2.352 . S
O120 C123 1.258 . S
C121 O118 1.320 . S
C121 O119 1.214 . S
O122 Cd114 2.277 . S
O122 C117 1.209 . S
C123 O120 1.258 . S
C123 O125 1.282 . S
O124 Cd116 2.277 . S
O124 C117 1.226 . S
O125 Cd116 2.356 . S
O125 C123 1.282 . S
C126 O127 1.306 . S
C126 O129 1.160 . S
O127 C126 1.306 . S
O127 Cd128 2.228 . S
Cd128 O127 2.228 . S
Cd128 O132 2.273 1_554 S
Cd128 O136 2.277 . S
O129 C126 1.160 . S
O129 Cd130 2.203 . S
Cd130 O129 2.203 . S
Cd130 O132 2.411 1_554 S
Cd130 O133 2.333 1_554 S
Cd130 O134 2.352 . S
Cd130 O138 2.277 . S
Cd130 O139 2.356 . S
C131 O136 1.209 . S
C131 O138 1.226 . S
O132 Cd128 2.273 1_556 S
O132 Cd130 2.411 1_556 S
O132 C135 1.320 . S
O133 Cd130 2.333 1_556 S
O133 C135 1.214 . S
O134 Cd130 2.352 . S
O134 C137 1.258 . S
C135 O132 1.320 . S
C135 O133 1.214 . S
O136 Cd128 2.277 . S
O136 C131 1.209 . S
C137 O134 1.258 . S
C137 O139 1.282 . S
O138 Cd130 2.277 . S
O138 C131 1.226 . S
O139 Cd130 2.356 . S
O139 C137 1.282 . S
C140 O141 1.306 . S
C140 O143 1.160 . S
O141 C140 1.306 . S
O141 Cd142 2.228 . S
Cd142 O141 2.228 . S
Cd142 O146 2.273 1_554 S
Cd142 O150 2.277 . S
O143 C140 1.160 . S
O143 Cd144 2.203 . S
Cd144 O143 2.203 . S
Cd144 O146 2.411 1_554 S
Cd144 O147 2.333 1_554 S
Cd144 O148 2.352 . S
Cd144 O152 2.277 . S
Cd144 O153 2.356 . S
C145 O150 1.209 . S
C145 O152 1.226 . S
O146 Cd142 2.273 1_556 S
O146 Cd144 2.411 1_556 S
O146 C149 1.320 . S
O147 Cd144 2.333 1_556 S
O147 C149 1.214 . S
O148 Cd144 2.352 . S
O148 C151 1.258 . S
C149 O146 1.320 . S
C149 O147 1.214 . S
O150 Cd142 2.277 . S
O150 C145 1.209 . S
C151 O148 1.258 . S
C151 O153 1.282 . S
O152 Cd144 2.277 . S
O152 C145 1.226 . S
O153 Cd144 2.356 . S
O153 C151 1.282 . S
C154 O155 1.306 . S
C154 O157 1.160 . S
O155 C154 1.306 . S
O155 Cd156 2.228 . S
Cd156 O155 2.228 . S
Cd156 O160 2.273 1_554 S
Cd156 O164 2.277 . S
O157 C154 1.160 . S
O157 Cd158 2.203 . S
Cd158 O157 2.203 . S
Cd158 O160 2.411 1_554 S
Cd158 O161 2.333 1_554 S
Cd158 O162 2.352 . S
Cd158 O166 2.277 . S
Cd158 O167 2.356 . S
C159 O164 1.209 . S
C159 O166 1.226 . S
O160 Cd156 2.273 1_556 S
O160 Cd158 2.411 1_556 S
O160 C163 1.320 . S
O161 Cd158 2.333 1_556 S
O161 C163 1.214 . S
O162 Cd158 2.352 . S
O162 C165 1.258 . S
C163 O160 1.320 . S
C163 O161 1.214 . S
O164 Cd156 2.277 . S
O164 C159 1.209 . S
C165 O162 1.258 . S
C165 O167 1.282 . S
O166 Cd158 2.277 . S
O166 C159 1.226 . S
O167 Cd158 2.356 . S
O167 C165 1.282 . S
C168 O169 1.306 . S
C168 O171 1.160 . S
O169 C168 1.306 . S
O169 Cd170 2.228 . S
Cd170 O169 2.228 . S
Cd170 O174 2.273 . S
Cd170 O178 2.277 . S
O171 C168 1.160 . S
O171 Cd172 2.203 . S
Cd172 O171 2.203 . S
Cd172 O174 2.411 . S
Cd172 O175 2.333 . S
Cd172 O176 2.352 . S
Cd172 O180 2.277 . S
Cd172 O181 2.356 . S
C173 O178 1.209 . S
C173 O180 1.226 . S
O174 Cd170 2.273 . S
O174 Cd172 2.411 . S
O174 C177 1.320 . S
O175 Cd172 2.333 . S
O175 C177 1.214 . S
O176 Cd172 2.352 . S
O176 C179 1.258 . S
C177 O174 1.320 . S
C177 O175 1.214 . S
O178 Cd170 2.277 . S
O178 C173 1.209 . S
C179 O176 1.258 . S
C179 O181 1.282 . S
O180 Cd172 2.277 . S
O180 C173 1.226 . S
O181 Cd172 2.356 . S
O181 C179 1.282 . S
C182 O183 1.306 . S
C182 O185 1.160 . S
O183 C182 1.306 . S
O183 Cd184 2.228 . S
Cd184 O183 2.228 . S
Cd184 O188 2.273 . S
Cd184 O192 2.277 . S
O185 C182 1.160 . S
O185 Cd186 2.203 . S
Cd186 O185 2.203 . S
Cd186 O188 2.411 . S
Cd186 O189 2.333 . S
Cd186 O190 2.352 . S
Cd186 O194 2.277 . S
Cd186 O195 2.356 . S
C187 O192 1.209 . S
C187 O194 1.226 . S
O188 Cd184 2.273 . S
O188 Cd186 2.411 . S
O188 C191 1.320 . S
O189 Cd186 2.333 . S
O189 C191 1.214 . S
O190 Cd186 2.352 . S
O190 C193 1.258 . S
C191 O188 1.320 . S
C191 O189 1.214 . S
O192 Cd184 2.277 . S
O192 C187 1.209 . S
C193 O190 1.258 . S
C193 O195 1.282 . S
O194 Cd186 2.277 . S
O194 C187 1.226 . S
O195 Cd186 2.356 . S
O195 C193 1.282 . S
C196 O197 1.306 . S
C196 O199 1.160 . S
O197 C196 1.306 . S
O197 Cd198 2.228 . S
Cd198 O197 2.228 . S
Cd198 O202 2.273 . S
Cd198 O206 2.277 . S
O199 C196 1.160 . S
O199 Cd200 2.203 . S
Cd200 O199 2.203 . S
Cd200 O202 2.411 . S
Cd200 O203 2.333 . S
Cd200 O204 2.352 . S
Cd200 O208 2.277 . S
Cd200 O209 2.356 . S
C201 O206 1.209 . S
C201 O208 1.226 . S
O202 Cd198 2.273 . S
O202 Cd200 2.411 . S
O202 C205 1.320 . S
O203 Cd200 2.333 . S
O203 C205 1.214 . S
O204 Cd200 2.352 . S
O204 C207 1.258 . S
C205 O202 1.320 . S
C205 O203 1.214 . S
O206 Cd198 2.277 . S
O206 C201 1.209 . S
C207 O204 1.258 . S
C207 O209 1.282 . S
O208 Cd200 2.277 . S
O208 C201 1.226 . S
O209 Cd200 2.356 . S
O209 C207 1.282 . S
C210 O211 1.306 1_655 S
C210 O213 1.160 . S
O211 C210 1.306 1_455 S
O211 Cd212 2.228 . S
Cd212 O211 2.228 . S
Cd212 O216 2.273 . S
Cd212 O220 2.277 1_455 S
O213 C210 1.160 . S
O213 Cd214 2.203 . S
Cd214 O213 2.203 . S
Cd214 O216 2.411 1_655 S
Cd214 O217 2.333 . S
Cd214 O218 2.352 . S
Cd214 O222 2.277 . S
Cd214 O223 2.356 . S
C215 O220 1.209 . S
C215 O222 1.226 . S
O216 Cd212 2.273 . S
O216 Cd214 2.411 1_455 S
O216 C219 1.320 1_455 S
O217 Cd214 2.333 . S
O217 C219 1.214 . S
O218 Cd214 2.352 . S
O218 C221 1.258 . S
C219 O216 1.320 1_655 S
C219 O217 1.214 . S
O220 Cd212 2.277 1_655 S
O220 C215 1.209 . S
C221 O218 1.258 . S
C221 O223 1.282 . S
O222 Cd214 2.277 . S
O222 C215 1.226 . S
O223 Cd214 2.356 . S
O223 C221 1.282 . S
C224 O225 1.306 . S
C224 O227 1.160 . S
O225 C224 1.306 . S
O225 Cd226 2.228 . S
Cd226 O225 2.228 . S
Cd226 O230 2.273 . S
Cd226 O234 2.277 . S
O227 C224 1.160 . S
O227 Cd228 2.203 . S
Cd228 O227 2.203 . S
Cd228 O230 2.411 . S
Cd228 O231 2.333 . S
Cd228 O232 2.352 . S
Cd228 O236 2.277 . S
Cd228 O237 2.356 . S
C229 O234 1.209 . S
C229 O236 1.226 . S
O230 Cd226 2.273 . S
O230 Cd228 2.411 . S
O230 C233 1.320 . S
O231 Cd228 2.333 . S
O231 C233 1.214 . S
O232 Cd228 2.352 . S
O232 C235 1.258 . S
C233 O230 1.320 . S
C233 O231 1.214 . S
O234 Cd226 2.277 . S
O234 C229 1.209 . S
C235 O232 1.258 . S
C235 O237 1.282 . S
O236 Cd228 2.277 . S
O236 C229 1.226 . S
O237 Cd228 2.356 . S
O237 C235 1.282 . S
C238 O239 1.306 1_545 S
C238 O241 1.160 . S
O239 C238 1.306 1_565 S
O239 Cd240 2.228 . S
Cd240 O239 2.228 . S
Cd240 O244 2.273 . S
Cd240 O248 2.277 1_565 S
O241 C238 1.160 . S
O241 Cd242 2.203 . S
Cd242 O241 2.203 . S
Cd242 O244 2.411 1_545 S
Cd242 O245 2.333 . S
Cd242 O246 2.352 . S
Cd242 O250 2.277 . S
Cd242 O251 2.356 . S
C243 O248 1.209 . S
C243 O250 1.226 . S
O244 Cd240 2.273 . S
O244 Cd242 2.411 1_565 S
O244 C247 1.320 1_565 S
O245 Cd242 2.333 . S
O245 C247 1.214 . S
O246 Cd242 2.352 . S
O246 C249 1.258 . S
C247 O244 1.320 1_545 S
C247 O245 1.214 . S
O248 Cd240 2.277 1_545 S
O248 C243 1.209 . S
C249 O246 1.258 . S
C249 O251 1.282 . S
O250 Cd242 2.277 . S
O250 C243 1.226 . S
O251 Cd242 2.356 . S
O251 C249 1.282 . S
C252 O253 1.306 1_545 S
C252 O255 1.160 . S
O253 C252 1.306 1_565 S
O253 Cd254 2.228 . S
Cd254 O253 2.228 . S
Cd254 O258 2.273 . S
Cd254 O262 2.277 1_565 S
O255 C252 1.160 . S
O255 Cd256 2.203 . S
Cd256 O255 2.203 . S
Cd256 O258 2.411 1_545 S
Cd256 O259 2.333 . S
Cd256 O260 2.352 . S
Cd256 O264 2.277 . S
Cd256 O265 2.356 . S
C257 O262 1.209 . S
C257 O264 1.226 . S
O258 Cd254 2.273 . S
O258 Cd256 2.411 1_565 S
O258 C261 1.320 1_565 S
O259 Cd256 2.333 . S
O259 C261 1.214 . S
O260 Cd256 2.352 . S
O260 C263 1.258 . S
C261 O258 1.320 1_545 S
C261 O259 1.214 . S
O262 Cd254 2.277 1_545 S
O262 C257 1.209 . S
C263 O260 1.258 . S
C263 O265 1.282 . S
O264 Cd256 2.277 . S
O264 C257 1.226 . S
O265 Cd256 2.356 . S
O265 C263 1.282 . S
C266 O267 1.306 1_655 S
C266 O269 1.160 . S
O267 C266 1.306 1_455 S
O267 Cd268 2.228 . S
Cd268 O267 2.228 . S
Cd268 O272 2.273 . S
Cd268 O276 2.277 1_455 S
O269 C266 1.160 . S
O269 Cd270 2.203 . S
Cd270 O269 2.203 . S
Cd270 O272 2.411 1_655 S
Cd270 O273 2.333 . S
Cd270 O274 2.352 . S
Cd270 O278 2.277 . S
Cd270 O279 2.356 . S
C271 O276 1.209 . S
C271 O278 1.226 . S
O272 Cd268 2.273 . S
O272 Cd270 2.411 1_455 S
O272 C275 1.320 1_455 S
O273 Cd270 2.333 . S
O273 C275 1.214 . S
O274 Cd270 2.352 . S
O274 C277 1.258 . S
C275 O272 1.320 1_655 S
C275 O273 1.214 . S
O276 Cd268 2.277 1_655 S
O276 C271 1.209 . S
C277 O274 1.258 . S
C277 O279 1.282 . S
O278 Cd270 2.277 . S
O278 C271 1.226 . S
O279 Cd270 2.356 . S
O279 C277 1.282 . S
C280 O281 1.306 . S
C280 O283 1.160 . S
O281 C280 1.306 . S
O281 Cd282 2.228 . S
Cd282 O281 2.228 . S
Cd282 O286 2.273 . S
Cd282 O290 2.277 . S
O283 C280 1.160 . S
O283 Cd284 2.203 . S
Cd284 O283 2.203 . S
Cd284 O286 2.411 . S
Cd284 O287 2.333 . S
Cd284 O288 2.352 . S
Cd284 O292 2.277 . S
Cd284 O293 2.356 . S
C285 O290 1.209 . S
C285 O292 1.226 . S
O286 Cd282 2.273 . S
O286 Cd284 2.411 . S
O286 C289 1.320 . S
O287 Cd284 2.333 . S
O287 C289 1.214 . S
O288 Cd284 2.352 . S
O288 C291 1.258 . S
C289 O286 1.320 . S
C289 O287 1.214 . S
O290 Cd282 2.277 . S
O290 C285 1.209 . S
C291 O288 1.258 . S
C291 O293 1.282 . S
O292 Cd284 2.277 . S
O292 C285 1.226 . S
O293 Cd284 2.356 . S
O293 C291 1.282 . S
C294 O295 1.306 . S
C294 O297 1.160 . S
O295 C294 1.306 . S
O295 Cd296 2.228 . S
Cd296 O295 2.228 . S
Cd296 O300 2.273 . S
Cd296 O304 2.277 . S
O297 C294 1.160 . S
O297 Cd298 2.203 . S
Cd298 O297 2.203 . S
Cd298 O300 2.411 . S
Cd298 O301 2.333 . S
Cd298 O302 2.352 . S
Cd298 O306 2.277 . S
Cd298 O307 2.356 . S
C299 O304 1.209 . S
C299 O306 1.226 . S
O300 Cd296 2.273 . S
O300 Cd298 2.411 . S
O300 C303 1.320 . S
O301 Cd298 2.333 . S
O301 C303 1.214 . S
O302 Cd298 2.352 . S
O302 C305 1.258 . S
C303 O300 1.320 . S
C303 O301 1.214 . S
O304 Cd296 2.277 . S
O304 C299 1.209 . S
C305 O302 1.258 . S
C305 O307 1.282 . S
O306 Cd298 2.277 . S
O306 C299 1.226 . S
O307 Cd298 2.356 . S
O307 C305 1.282 . S
C308 O309 1.306 . S
C308 O311 1.160 . S
O309 C308 1.306 . S
O309 Cd310 2.228 . S
Cd310 O309 2.228 . S
Cd310 O314 2.273 . S
Cd310 O318 2.277 . S
O311 C308 1.160 . S
O311 Cd312 2.203 . S
Cd312 O311 2.203 . S
Cd312 O314 2.411 . S
Cd312 O315 2.333 . S
Cd312 O316 2.352 . S
Cd312 O320 2.277 . S
Cd312 O321 2.356 . S
C313 O318 1.209 . S
C313 O320 1.226 . S
O314 Cd310 2.273 . S
O314 Cd312 2.411 . S
O314 C317 1.320 . S
O315 Cd312 2.333 . S
O315 C317 1.214 . S
O316 Cd312 2.352 . S
O316 C319 1.258 . S
C317 O314 1.320 . S
C317 O315 1.214 . S
O318 Cd310 2.277 . S
O318 C313 1.209 . S
C319 O316 1.258 . S
C319 O321 1.282 . S
O320 Cd312 2.277 . S
O320 C313 1.226 . S
O321 Cd312 2.356 . S
O321 C319 1.282 . S
C322 O323 1.306 . S
C322 O325 1.160 . S
O323 C322 1.306 . S
O323 Cd324 2.228 . S
Cd324 O323 2.228 . S
Cd324 O328 2.273 . S
Cd324 O332 2.277 . S
O325 C322 1.160 . S
O325 Cd326 2.203 . S
Cd326 O325 2.203 . S
Cd326 O328 2.411 . S
Cd326 O329 2.333 . S
Cd326 O330 2.352 . S
Cd326 O334 2.277 . S
Cd326 O335 2.356 . S
C327 O332 1.209 . S
C327 O334 1.226 . S
O328 Cd324 2.273 . S
O328 Cd326 2.411 . S
O328 C331 1.320 . S
O329 Cd326 2.333 . S
O329 C331 1.214 . S
O330 Cd326 2.352 . S
O330 C333 1.258 . S
C331 O328 1.320 . S
C331 O329 1.214 . S
O332 Cd324 2.277 . S
O332 C327 1.209 . S
C333 O330 1.258 . S
C333 O335 1.282 . S
O334 Cd326 2.277 . S
O334 C327 1.226 . S
O335 Cd326 2.356 . S
O335 C333 1.282 . S
C336 O337 1.306 1_565 S
C336 O339 1.160 . S
O337 C336 1.306 1_545 S
O337 Cd338 2.228 . S
Cd338 O337 2.228 . S
Cd338 O342 2.273 . S
Cd338 O346 2.277 1_545 S
O339 C336 1.160 . S
O339 Cd340 2.203 . S
Cd340 O339 2.203 . S
Cd340 O342 2.411 1_565 S
Cd340 O343 2.333 . S
Cd340 O344 2.352 . S
Cd340 O348 2.277 . S
Cd340 O349 2.356 . S
C341 O346 1.209 . S
C341 O348 1.226 . S
O342 Cd338 2.273 . S
O342 Cd340 2.411 1_545 S
O342 C345 1.320 1_545 S
O343 Cd340 2.333 . S
O343 C345 1.214 . S
O344 Cd340 2.352 . S
O344 C347 1.258 . S
C345 O342 1.320 1_565 S
C345 O343 1.214 . S
O346 Cd338 2.277 1_565 S
O346 C341 1.209 . S
C347 O344 1.258 . S
C347 O349 1.282 . S
O348 Cd340 2.277 . S
O348 C341 1.226 . S
O349 Cd340 2.356 . S
O349 C347 1.282 . S
C350 O351 1.306 1_455 S
C350 O353 1.160 . S
O351 C350 1.306 1_655 S
O351 Cd352 2.228 . S
Cd352 O351 2.228 . S
Cd352 O356 2.273 . S
Cd352 O360 2.277 1_655 S
O353 C350 1.160 . S
O353 Cd354 2.203 . S
Cd354 O353 2.203 . S
Cd354 O356 2.411 1_455 S
Cd354 O357 2.333 . S
Cd354 O358 2.352 . S
Cd354 O362 2.277 . S
Cd354 O363 2.356 . S
C355 O360 1.209 . S
C355 O362 1.226 . S
O356 Cd352 2.273 . S
O356 Cd354 2.411 1_655 S
O356 C359 1.320 1_655 S
O357 Cd354 2.333 . S
O357 C359 1.214 . S
O358 Cd354 2.352 . S
O358 C361 1.258 . S
C359 O356 1.320 1_455 S
C359 O357 1.214 . S
O360 Cd352 2.277 1_455 S
O360 C355 1.209 . S
C361 O358 1.258 . S
C361 O363 1.282 . S
O362 Cd354 2.277 . S
O362 C355 1.226 . S
O363 Cd354 2.356 . S
O363 C361 1.282 . S
C364 O365 1.306 . S
C364 O367 1.160 . S
O365 C364 1.306 . S
O365 Cd366 2.228 . S
Cd366 O365 2.228 . S
Cd366 O370 2.273 . S
Cd366 O374 2.277 . S
O367 C364 1.160 . S
O367 Cd368 2.203 . S
Cd368 O367 2.203 . S
Cd368 O370 2.411 . S
Cd368 O371 2.333 . S
Cd368 O372 2.352 . S
Cd368 O376 2.277 . S
Cd368 O377 2.356 . S
C369 O374 1.209 . S
C369 O376 1.226 . S
O370 Cd366 2.273 . S
O370 Cd368 2.411 . S
O370 C373 1.320 . S
O371 Cd368 2.333 . S
O371 C373 1.214 . S
O372 Cd368 2.352 . S
O372 C375 1.258 . S
C373 O370 1.320 . S
C373 O371 1.214 . S
O374 Cd366 2.277 . S
O374 C369 1.209 . S
C375 O372 1.258 . S
C375 O377 1.282 . S
O376 Cd368 2.277 . S
O376 C369 1.226 . S
O377 Cd368 2.356 . S
O377 C375 1.282 . S
C378 O379 1.306 . S
C378 O381 1.160 . S
O379 C378 1.306 . S
O379 Cd380 2.228 . S
Cd380 O379 2.228 . S
Cd380 O384 2.273 . S
Cd380 O388 2.277 . S
O381 C378 1.160 . S
O381 Cd382 2.203 . S
Cd382 O381 2.203 . S
Cd382 O384 2.411 . S
Cd382 O385 2.333 . S
Cd382 O386 2.352 . S
Cd382 O390 2.277 . S
Cd382 O391 2.356 . S
C383 O388 1.209 . S
C383 O390 1.226 . S
O384 Cd380 2.273 . S
O384 Cd382 2.411 . S
O384 C387 1.320 . S
O385 Cd382 2.333 . S
O385 C387 1.214 . S
O386 Cd382 2.352 . S
O386 C389 1.258 . S
C387 O384 1.320 . S
C387 O385 1.214 . S
O388 Cd380 2.277 . S
O388 C383 1.209 . S
C389 O386 1.258 . S
C389 O391 1.282 . S
O390 Cd382 2.277 . S
O390 C383 1.226 . S
O391 Cd382 2.356 . S
O391 C389 1.282 . S
C392 O393 1.306 . S
C392 O395 1.160 . S
O393 C392 1.306 . S
O393 Cd394 2.228 . S
Cd394 O393 2.228 . S
Cd394 O398 2.273 . S
Cd394 O402 2.277 . S
O395 C392 1.160 . S
O395 Cd396 2.203 . S
Cd396 O395 2.203 . S
Cd396 O398 2.411 . S
Cd396 O399 2.333 . S
Cd396 O400 2.352 . S
Cd396 O404 2.277 . S
Cd396 O405 2.356 . S
C397 O402 1.209 . S
C397 O404 1.226 . S
O398 Cd394 2.273 . S
O398 Cd396 2.411 . S
O398 C401 1.320 . S
O399 Cd396 2.333 . S
O399 C401 1.214 . S
O400 Cd396 2.352 . S
O400 C403 1.258 . S
C401 O398 1.320 . S
C401 O399 1.214 . S
O402 Cd394 2.277 . S
O402 C397 1.209 . S
C403 O400 1.258 . S
C403 O405 1.282 . S
O404 Cd396 2.277 . S
O404 C397 1.226 . S
O405 Cd396 2.356 . S
O405 C403 1.282 . S
C406 O407 1.306 . S
C406 O409 1.160 . S
O407 C406 1.306 . S
O407 Cd408 2.228 . S
Cd408 O407 2.228 . S
Cd408 O412 2.273 . S
Cd408 O416 2.277 . S
O409 C406 1.160 . S
O409 Cd410 2.203 . S
Cd410 O409 2.203 . S
Cd410 O412 2.411 . S
Cd410 O413 2.333 . S
Cd410 O414 2.352 . S
Cd410 O418 2.277 . S
Cd410 O419 2.356 . S
C411 O416 1.209 . S
C411 O418 1.226 . S
O412 Cd408 2.273 . S
O412 Cd410 2.411 . S
O412 C415 1.320 . S
O413 Cd410 2.333 . S
O413 C415 1.214 . S
O414 Cd410 2.352 . S
O414 C417 1.258 . S
C415 O412 1.320 . S
C415 O413 1.214 . S
O416 Cd408 2.277 . S
O416 C411 1.209 . S
C417 O414 1.258 . S
C417 O419 1.282 . S
O418 Cd410 2.277 . S
O418 C411 1.226 . S
O419 Cd410 2.356 . S
O419 C417 1.282 . S
C420 O421 1.306 . S
C420 O423 1.160 . S
O421 C420 1.306 . S
O421 Cd422 2.228 . S
Cd422 O421 2.228 . S
Cd422 O426 2.273 . S
Cd422 O430 2.277 . S
O423 C420 1.160 . S
O423 Cd424 2.203 . S
Cd424 O423 2.203 . S
Cd424 O426 2.411 . S
Cd424 O427 2.333 . S
Cd424 O428 2.352 . S
Cd424 O432 2.277 . S
Cd424 O433 2.356 . S
C425 O430 1.209 . S
C425 O432 1.226 . S
O426 Cd422 2.273 . S
O426 Cd424 2.411 . S
O426 C429 1.320 . S
O427 Cd424 2.333 . S
O427 C429 1.214 . S
O428 Cd424 2.352 . S
O428 C431 1.258 . S
C429 O426 1.320 . S
C429 O427 1.214 . S
O430 Cd422 2.277 . S
O430 C425 1.209 . S
C431 O428 1.258 . S
C431 O433 1.282 . S
O432 Cd424 2.277 . S
O432 C425 1.226 . S
O433 Cd424 2.356 . S
O433 C431 1.282 . S
C434 O435 1.306 . S
C434 O437 1.160 . S
O435 C434 1.306 . S
O435 Cd436 2.228 . S
Cd436 O435 2.228 . S
Cd436 O440 2.273 . S
Cd436 O444 2.277 . S
O437 C434 1.160 . S
O437 Cd438 2.203 . S
Cd438 O437 2.203 . S
Cd438 O440 2.411 . S
Cd438 O441 2.333 . S
Cd438 O442 2.352 . S
Cd438 O446 2.277 . S
Cd438 O447 2.356 . S
C439 O444 1.209 . S
C439 O446 1.226 . S
O440 Cd436 2.273 . S
O440 Cd438 2.411 . S
O440 C443 1.320 . S
O441 Cd438 2.333 . S
O441 C443 1.214 . S
O442 Cd438 2.352 . S
O442 C445 1.258 . S
C443 O440 1.320 . S
C443 O441 1.214 . S
O444 Cd436 2.277 . S
O444 C439 1.209 . S
C445 O442 1.258 . S
C445 O447 1.282 . S
O446 Cd438 2.277 . S
O446 C439 1.226 . S
O447 Cd438 2.356 . S
O447 C445 1.282 . S
C448 O449 1.306 . S
C448 O451 1.160 . S
O449 C448 1.306 . S
O449 Cd450 2.228 . S
Cd450 O449 2.228 . S
Cd450 O454 2.273 . S
Cd450 O458 2.277 . S
O451 C448 1.160 . S
O451 Cd452 2.203 . S
Cd452 O451 2.203 . S
Cd452 O454 2.411 . S
Cd452 O455 2.333 . S
Cd452 O456 2.352 . S
Cd452 O460 2.277 . S
Cd452 O461 2.356 . S
C453 O458 1.209 . S
C453 O460 1.226 . S
O454 Cd450 2.273 . S
O454 Cd452 2.411 . S
O454 C457 1.320 . S
O455 Cd452 2.333 . S
O455 C457 1.214 . S
O456 Cd452 2.352 . S
O456 C459 1.258 . S
C457 O454 1.320 . S
C457 O455 1.214 . S
O458 Cd450 2.277 . S
O458 C453 1.209 . S
C459 O456 1.258 . S
C459 O461 1.282 . S
O460 Cd452 2.277 . S
O460 C453 1.226 . S
O461 Cd452 2.356 . S
O461 C459 1.282 . S
C462 O463 1.306 1_455 S
C462 O465 1.160 . S
O463 C462 1.306 1_655 S
O463 Cd464 2.228 . S
Cd464 O463 2.228 . S
Cd464 O468 2.273 . S
Cd464 O472 2.277 1_655 S
O465 C462 1.160 . S
O465 Cd466 2.203 . S
Cd466 O465 2.203 . S
Cd466 O468 2.411 1_455 S
Cd466 O469 2.333 . S
Cd466 O470 2.352 . S
Cd466 O474 2.277 . S
Cd466 O475 2.356 . S
C467 O472 1.209 . S
C467 O474 1.226 . S
O468 Cd464 2.273 . S
O468 Cd466 2.411 1_655 S
O468 C471 1.320 1_655 S
O469 Cd466 2.333 . S
O469 C471 1.214 . S
O470 Cd466 2.352 . S
O470 C473 1.258 . S
C471 O468 1.320 1_455 S
C471 O469 1.214 . S
O472 Cd464 2.277 1_455 S
O472 C467 1.209 . S
C473 O470 1.258 . S
C473 O475 1.282 . S
O474 Cd466 2.277 . S
O474 C467 1.226 . S
O475 Cd466 2.356 . S
O475 C473 1.282 . S
C476 O477 1.306 . S
C476 O479 1.160 . S
O477 C476 1.306 . S
O477 Cd478 2.228 . S
Cd478 O477 2.228 . S
Cd478 O482 2.273 . S
Cd478 O486 2.277 . S
O479 C476 1.160 . S
O479 Cd480 2.203 . S
Cd480 O479 2.203 . S
Cd480 O482 2.411 . S
Cd480 O483 2.333 . S
Cd480 O484 2.352 . S
Cd480 O488 2.277 . S
Cd480 O489 2.356 . S
C481 O486 1.209 . S
C481 O488 1.226 . S
O482 Cd478 2.273 . S
O482 Cd480 2.411 . S
O482 C485 1.320 . S
O483 Cd480 2.333 . S
O483 C485 1.214 . S
O484 Cd480 2.352 . S
O484 C487 1.258 . S
C485 O482 1.320 . S
C485 O483 1.214 . S
O486 Cd478 2.277 . S
O486 C481 1.209 . S
C487 O484 1.258 . S
C487 O489 1.282 . S
O488 Cd480 2.277 . S
O488 C481 1.226 . S
O489 Cd480 2.356 . S
O489 C487 1.282 . S
C490 O491 1.306 1_565 S
C490 O493 1.160 . S
O491 C490 1.306 1_545 S
O491 Cd492 2.228 . S
Cd492 O491 2.228 . S
Cd492 O496 2.273 . S
Cd492 O500 2.277 1_545 S
O493 C490 1.160 . S
O493 Cd494 2.203 . S
Cd494 O493 2.203 . S
Cd494 O496 2.411 1_565 S
Cd494 O497 2.333 . S
Cd494 O498 2.352 . S
Cd494 O502 2.277 . S
Cd494 O503 2.356 . S
C495 O500 1.209 . S
C495 O502 1.226 . S
O496 Cd492 2.273 . S
O496 Cd494 2.411 1_545 S
O496 C499 1.320 1_545 S
O497 Cd494 2.333 . S
O497 C499 1.214 . S
O498 Cd494 2.352 . S
O498 C501 1.258 . S
C499 O496 1.320 1_565 S
C499 O497 1.214 . S
O500 Cd492 2.277 1_565 S
O500 C495 1.209 . S
C501 O498 1.258 . S
C501 O503 1.282 . S
O502 Cd494 2.277 . S
O502 C495 1.226 . S
O503 Cd494 2.356 . S
O503 C501 1.282 . S
C5 C159 1.362 . S
C19 C131 1.362 . S
C145 C33 1.361 . S
C47 C103 1.362 . S
C117 C61 1.361 . S
C75 C89 1.362 . S
C327 C173 1.362 . S
C187 C299 1.362 . S
C201 C313 1.361 . S
C271 C215 1.362 . S
C229 C285 1.362 . S
C257 C243 1.362 . S
C341 C495 1.362 . S
C467 C355 1.362 . S
C481 C369 1.362 . S
C439 C383 1.362 . S
C453 C397 1.361 . S
C425 C411 1.362 . S
C11 C67 1.533 1_454 S
C81 C25 1.533 1_556 S
C39 C53 1.533 1_564 S
C95 C151 1.533 1_656 S
C109 C165 1.533 1_556 S
C123 C137 1.533 1_546 S
C235 C179 1.533 . S
C249 C193 1.534 . S
C207 C221 1.532 . S
C319 C263 1.532 . S
C333 C277 1.534 . S
C291 C305 1.533 . S
C403 C347 1.532 . S
C361 C417 1.534 . S
C375 C389 1.533 . S
C487 C431 1.533 . S
C445 C501 1.534 . S
C473 C459 1.532 . S
C415 C9 1.105 . S
C23 C387 1.105 . S
C37 C401 1.105 . S
C51 C191 1.105 . S
C205 C65 1.105 . S
C177 C79 1.105 . S
C93 C331 1.105 . S
C107 C303 1.105 . S
C121 C317 1.105 . S
C443 C135 1.105 . S
C457 C149 1.105 . S
C163 C429 1.105 . S
C359 C219 1.105 1_455 S
C233 C373 1.105 . S
C345 C247 1.106 1_565 S
C499 C261 1.105 1_565 S
C275 C471 1.105 1_655 S
C289 C485 1.105 . S
C0 C406 1.636 . S
C378 C14 1.636 . S
C28 C392 1.636 . S
C182 C42 1.636 . S
C56 C196 1.636 . S
C70 C168 1.636 . S
C322 C84 1.636 . S
C98 C294 1.636 . S
C112 C308 1.636 . S
C126 C434 1.636 . S
C448 C140 1.636 . S
C154 C420 1.636 . S
C350 C210 1.636 1_456 S
C224 C364 1.636 1_554 S
C238 C336 1.636 1_544 S
C490 C252 1.636 1_566 S
C462 C266 1.636 1_456 S
C280 C476 1.636 1_554 S
