# Generated by pormake.
# Topology umy, (4)-cn, num edge types: 1
# Building blocks:
#     Node 0, Type 0, BuildingBlock: GALJAG_clean_sbu_0, # of connection points: 4
#     Node 1, Type 0, BuildingBlock: GALJAG_clean_sbu_0, # of connection points: 4
#     Node 2, Type 0, BuildingBlock: GALJAG_clean_sbu_0, # of connection points: 4
#     Node 3, Type 0, BuildingBlock: GALJAG_clean_sbu_0, # of connection points: 4
#     Node 4, Type 0, BuildingBlock: GALJAG_clean_sbu_0, # of connection points: 4
#     Node 5, Type 0, BuildingBlock: GALJAG_clean_sbu_0, # of connection points: 4
#     Node 6, Type 0, BuildingBlock: GALJAG_clean_sbu_0, # of connection points: 4
#     Node 7, Type 0, BuildingBlock: GALJAG_clean_sbu_0, # of connection points: 4
#     Node 8, Type 0, BuildingBlock: GALJAG_clean_sbu_0, # of connection points: 4
#     Node 9, Type 0, BuildingBlock: GALJAG_clean_sbu_0, # of connection points: 4
#     Node 10, Type 0, BuildingBlock: GALJAG_clean_sbu_0, # of connection points: 4
#     Node 11, Type 0, BuildingBlock: GALJAG_clean_sbu_0, # of connection points: 4
#     Edge 12, Type (0, 0), BuildingBlock: TEMPAE_clean_linker_10, # of connection points: 2
#     Edge 13, Type (0, 0), BuildingBlock: TEMPAE_clean_linker_10, # of connection points: 2
#     Edge 14, Type (0, 0), BuildingBlock: TEMPAE_clean_linker_10, # of connection points: 2
#     Edge 15, Type (0, 0), BuildingBlock: TEMPAE_clean_linker_10, # of connection points: 2
#     Edge 16, Type (0, 0), BuildingBlock: TEMPAE_clean_linker_10, # of connection points: 2
#     Edge 17, Type (0, 0), BuildingBlock: TEMPAE_clean_linker_10, # of connection points: 2
#     Edge 18, Type (0, 0), BuildingBlock: TEMPAE_clean_linker_10, # of connection points: 2
#     Edge 19, Type (0, 0), BuildingBlock: TEMPAE_clean_linker_10, # of connection points: 2
#     Edge 20, Type (0, 0), BuildingBlock: TEMPAE_clean_linker_10, # of connection points: 2
#     Edge 21, Type (0, 0), BuildingBlock: TEMPAE_clean_linker_10, # of connection points: 2
#     Edge 22, Type (0, 0), BuildingBlock: TEMPAE_clean_linker_10, # of connection points: 2
#     Edge 23, Type (0, 0), BuildingBlock: TEMPAE_clean_linker_10, # of connection points: 2
#     Edge 24, Type (0, 0), BuildingBlock: TEMPAE_clean_linker_10, # of connection points: 2
#     Edge 25, Type (0, 0), BuildingBlock: TEMPAE_clean_linker_10, # of connection points: 2
#     Edge 26, Type (0, 0), BuildingBlock: TEMPAE_clean_linker_10, # of connection points: 2
#     Edge 27, Type (0, 0), BuildingBlock: TEMPAE_clean_linker_10, # of connection points: 2
#     Edge 28, Type (0, 0), BuildingBlock: TEMPAE_clean_linker_10, # of connection points: 2
#     Edge 29, Type (0, 0), BuildingBlock: TEMPAE_clean_linker_10, # of connection points: 2
#     Edge 30, Type (0, 0), BuildingBlock: TEMPAE_clean_linker_10, # of connection points: 2
#     Edge 31, Type (0, 0), BuildingBlock: TEMPAE_clean_linker_10, # of connection points: 2
#     Edge 32, Type (0, 0), BuildingBlock: TEMPAE_clean_linker_10, # of connection points: 2
#     Edge 33, Type (0, 0), BuildingBlock: TEMPAE_clean_linker_10, # of connection points: 2
#     Edge 34, Type (0, 0), BuildingBlock: TEMPAE_clean_linker_10, # of connection points: 2
#     Edge 35, Type (0, 0), BuildingBlock: TEMPAE_clean_linker_10, # of connection points: 2
# Relax obj value: 0.077
# Max RMSD: 0.076
# Mean RMSD: 0.075
data_MOF--net-umy--node1-GALJAG_clean_sbu_0--edge1-TEMPAE_clean_linker_10
_symmetry_space_group_name_H-M    P1
_symmetry_Int_Tables_number       1
_symmetry_cell_setting            triclinic
loop_
_symmetry_equiv_pos_as_xyz
'x, y, z'
_cell_length_a     35.669177
_cell_length_b     35.631209
_cell_length_c     60.878975
_cell_angle_alpha  90.06999
_cell_angle_beta   89.938578
_cell_angle_gamma 119.97805
loop_
_atom_site_label
_atom_site_type_symbol
_atom_site_fract_x
_atom_site_fract_y
_atom_site_fract_z
_atom_type_partial_charge
In0 In 0.0501 0.34151 0.13968 0.0
O1 O 0.0542 0.32442 0.10401 0.0
O2 O 0.08776 0.30908 0.12795 0.0
C3 C 0.97383 0.27969 0.15646 0.0
C4 C 0.05277 0.41017 0.1196 0.0
C5 C 0.10072 0.3691 0.17583 0.0
O6 O -0.00106 0.27049 0.14624 0.0
O7 O 0.98639 0.31952 0.15735 0.0
O8 O 0.11293 0.36022 0.15808 0.0
O9 O 0.06366 0.36526 0.17509 0.0
C10 C 0.07866 0.30912 0.10792 0.0
O11 O 0.08235 0.41392 0.13232 0.0
O12 O 0.02185 0.37199 0.1172 0.0
In13 In 0.7082 0.04476 0.30234 0.0
O14 O 0.64821 0.05119 0.30188 0.0
O15 O 0.64865 0.00282 0.28143 0.0
C16 C 0.72903 0.09619 0.33821 0.0
C17 C 0.75791 0.08274 0.26661 0.0
C18 C 0.71481 0.97774 0.31836 0.0
O19 O 0.69598 0.05899 0.33731 0.0
O20 O 0.75078 0.10824 0.32068 0.0
O21 O 0.74579 0.01619 0.31832 0.0
O22 O 0.68063 0.97259 0.30944 0.0
C23 C 0.62848 0.02164 0.28781 0.0
O24 O 0.76446 0.05868 0.27928 0.0
O25 O 0.72669 0.08786 0.27199 0.0
In26 In 0.66387 0.7247 0.47418 0.0
O27 O 0.59279 0.67549 0.46822 0.0
O28 O 0.64013 0.66503 0.45256 0.0
C29 C 0.64265 0.75525 0.50981 0.0
C30 C 0.68265 0.77661 0.43889 0.0
C31 C 0.72715 0.71601 0.49347 0.0
O32 O 0.62437 0.71528 0.50544 0.0
O33 O 0.67075 0.77947 0.496 0.0
O34 O 0.73332 0.75172 0.48613 0.0
O35 O 0.68954 0.68453 0.49045 0.0
C36 C 0.60051 0.65214 0.45549 0.0
O37 O 0.70141 0.75516 0.44251 0.0
O38 O 0.65511 0.77222 0.45316 0.0
In39 In 0.92571 0.64426 0.64492 0.0
O40 O 0.89787 0.57281 0.63623 0.0
O41 O 0.96098 0.61744 0.62479 0.0
C42 C 0.87397 0.62719 0.6801 0.0
C43 C 0.8935 0.66975 0.61163 0.0
C44 C 0.0003 0.70052 0.66509 0.0
O45 O 0.88098 0.5989 0.67157 0.0
O46 O 0.89254 0.66362 0.67065 0.0
O47 O 0.98426 0.71192 0.64982 0.0
O48 O 0.97949 0.66071 0.66965 0.0
C49 C 0.93048 0.57873 0.62534 0.0
O50 O 0.93191 0.67712 0.61176 0.0
O51 O 0.87165 0.6501 0.62833 0.0
In52 In 0.28371 0.94507 0.80278 0.0
O53 O 0.23266 0.93633 0.77737 0.0
O54 O 0.25681 0.89261 0.77656 0.0
C55 C 0.28073 0.01405 0.81909 0.0
C56 C 0.36124 0.9634 0.78663 0.0
C57 C 0.26073 0.89579 0.83941 0.0
O58 O 0.24801 0.97671 0.81782 0.0
O59 O 0.31483 0.01729 0.81103 0.0
O60 O 0.29647 0.93045 0.83759 0.0
O61 O 0.23734 0.88515 0.82246 0.0
C62 C 0.23167 0.90398 0.7683 0.0
O63 O 0.34296 0.93725 0.80227 0.0
O64 O 0.34084 0.98138 0.77944 0.0
In65 In 0.32855 0.26524 0.97686 0.0
O66 O 0.39875 0.31574 0.9698 0.0
O67 O 0.34963 0.32671 0.95697 0.0
C68 C 0.3494 0.23381 0.0122 0.0
C69 C 0.31171 0.21355 0.94142 0.0
C70 C 0.26591 0.27401 0.99698 0.0
O71 O 0.373 0.27224 0.00556 0.0
O72 O 0.31604 0.2113 0.00075 0.0
O73 O 0.25784 0.24082 0.98594 0.0
O74 O 0.30523 0.30313 0.99724 0.0
C75 C 0.38957 0.3399 0.95862 0.0
O76 O 0.29443 0.23664 0.94415 0.0
O77 O 0.33674 0.21606 0.95665 0.0
In78 In 0.66363 0.93652 0.69143 0.0
O79 O 0.69872 0.93792 0.72325 0.0
O80 O 0.64756 0.8774 0.71202 0.0
C81 C 0.72982 0.00716 0.67255 0.0
C82 C 0.60317 0.95174 0.70891 0.0
C83 C 0.64218 0.88578 0.6554 0.0
O84 O 0.73361 0.97589 0.67945 0.0
O85 O 0.69337 0.00362 0.67603 0.0
O86 O 0.62418 0.90763 0.66 0.0
O87 O 0.66996 0.88892 0.66918 0.0
C88 C 0.67601 0.89761 0.72643 0.0
O89 O 0.59392 0.92098 0.69567 0.0
O90 O 0.64297 0.97496 0.71317 0.0
In91 In 0.7055 0.64373 0.85785 0.0
O92 O 0.75911 0.68962 0.8812 0.0
O93 O 0.73337 0.62195 0.88539 0.0
C94 C 0.70799 0.7148 0.84062 0.0
C95 C 0.62842 0.58624 0.87527 0.0
C96 C 0.72771 0.61329 0.82244 0.0
O97 O 0.7398 0.70865 0.84035 0.0
O98 O 0.67494 0.68569 0.85032 0.0
O99 O 0.75012 0.62555 0.83974 0.0
O100 O 0.69311 0.61474 0.82332 0.0
C101 C 0.75991 0.65969 0.89186 0.0
O102 O 0.64476 0.57738 0.85906 0.0
O103 O 0.65042 0.62462 0.88229 0.0
In104 In 0.07006 0.73249 0.01907 0.0
O105 O 0.06102 0.76308 0.05021 0.0
O106 O 0.1248 0.78788 0.03795 0.0
C107 C 0.99536 0.70941 0.99781 0.0
C108 C 0.06508 0.66254 0.03898 0.0
C109 C 0.12228 0.76989 0.98433 0.0
O110 O 0.0104 0.73878 0.01223 0.0
O111 O 0.01731 0.69108 0.99462 0.0
O112 O 0.11658 0.735 0.99271 0.0
O113 O 0.10232 0.78633 0.99381 0.0
C114 C 0.10078 0.78969 0.0526 0.0
O115 O 0.09567 0.68652 0.02626 0.0
O116 O 0.03675 0.67348 0.04139 0.0
In117 In 0.33521 0.05712 0.19272 0.0
O118 O 0.40116 0.06225 0.1944 0.0
O119 O 0.3507 0.01458 0.21433 0.0
C120 C 0.36293 0.10998 0.15732 0.0
C121 C 0.3266 0.09621 0.22879 0.0
C122 C 0.26365 0.99021 0.17493 0.0
O123 O 0.36801 0.07753 0.15907 0.0
O124 O 0.34547 0.1166 0.17374 0.0
O125 O 0.2676 0.02702 0.17786 0.0
O126 O 0.29499 0.98661 0.18186 0.0
C127 C 0.38989 0.03247 0.20848 0.0
O128 O 0.29467 0.0644 0.21978 0.0
O129 O 0.36248 0.10813 0.21962 0.0
In130 In 0.28121 0.35512 0.35201 0.0
O131 O 0.22551 0.30903 0.37434 0.0
O132 O 0.25283 0.37678 0.37933 0.0
C133 C 0.30219 0.3001 0.3326 0.0
C134 C 0.35668 0.41336 0.37043 0.0
C135 C 0.24044 0.36906 0.31837 0.0
O136 O 0.28182 0.29113 0.35058 0.0
O137 O 0.31299 0.33706 0.32504 0.0
O138 O 0.27598 0.39863 0.32594 0.0
O139 O 0.22517 0.33326 0.3282 0.0
C140 C 0.22522 0.33902 0.38527 0.0
O141 O 0.33905 0.42308 0.3552 0.0
O142 O 0.33666 0.37396 0.37601 0.0
In143 In 0.9204 0.26761 0.51648 0.0
O144 O 0.89831 0.31681 0.5231 0.0
O145 O 0.95287 0.32373 0.54058 0.0
C146 C 0.86762 0.22913 0.48203 0.0
C147 C 0.8891 0.21001 0.54979 0.0
C148 C 0.99466 0.29114 0.49459 0.0
O149 O 0.87168 0.26313 0.49083 0.0
O150 O 0.88924 0.2141 0.49103 0.0
O151 O 0.97986 0.26141 0.5088 0.0
O152 O 0.97285 0.30979 0.49204 0.0
C153 C 0.92714 0.33768 0.53727 0.0
O154 O 0.92899 0.23594 0.54723 0.0
O155 O 0.86514 0.2126 0.53538 0.0
C156 C 0.03326 0.60502 0.06764 0.0
C157 C 0.06309 0.62528 0.05058 0.0
C158 C 0.03167 0.57027 0.07922 0.0
C159 C 0.0602 0.55511 0.07335 0.0
C160 C 0.09015 0.57521 0.056 0.0
C161 C 0.09144 0.61032 0.04491 0.0
C162 C -0.00033 0.54996 0.09781 0.0
C163 C 0.12066 0.55951 0.04911 0.0
C164 C 0.08322 0.48973 0.11482 0.0
C165 C 0.05459 0.44727 0.10795 0.0
C166 C 0.08515 0.52523 0.1038 0.0
C167 C 0.05842 0.51794 0.08526 0.0
C168 C 0.02977 0.4751 0.07814 0.0
C169 C 0.0279 0.44022 0.08972 0.0
C170 C 0.11556 0.57047 0.11208 0.0
C171 C 0.00131 0.46612 0.05822 0.0
H172 H 0.01145 0.61669 0.07214 0.0
H173 H 0.11449 0.62589 0.03169 0.0
H174 H 0.97715 0.51522 0.09425 0.0
H175 H 0.017 0.55157 0.11321 0.0
H176 H 0.98035 0.56617 0.10058 0.0
H177 H 0.14162 0.57835 0.03512 0.0
H178 H 0.14163 0.56192 0.06311 0.0
H179 H 0.10193 0.52486 0.0443 0.0
H180 H 0.10376 0.4952 0.12897 0.0
H181 H 0.00595 0.40738 0.08429 0.0
H182 H 0.09708 0.58703 0.1161 0.0
H183 H 0.13918 0.58975 0.09907 0.0
H184 H 0.13367 0.57052 0.12692 0.0
H185 H 0.97926 0.47927 0.06079 0.0
H186 H 0.98149 0.43094 0.05457 0.0
H187 H 0.02153 0.48271 0.04364 0.0
C188 C 0.56827 0.03759 0.28468 0.0
C189 C 0.58721 0.01323 0.27794 0.0
C190 C 0.53267 0.03477 0.27349 0.0
C191 C 0.5155 0.00676 0.25517 0.0
C192 C 0.53282 0.98013 0.24908 0.0
C193 C 0.56865 0.98377 0.26053 0.0
C194 C 0.51501 0.06362 0.28054 0.0
C195 C 0.51499 0.94949 0.22981 0.0
C196 C 0.40763 0.98993 0.2349 0.0
C197 C 0.42105 0.02184 0.21857 0.0
C198 C 0.43784 0.98298 0.24628 0.0
C199 C 0.48238 0.00878 0.24127 0.0
C200 C 0.49582 0.03961 0.22409 0.0
C201 C 0.46495 0.04569 0.21292 0.0
C202 C 0.4223 0.94946 0.26431 0.0
C203 C 0.54305 0.06774 0.21824 0.0
H204 H 0.58233 0.06022 0.29821 0.0
H205 H 0.58308 0.96471 0.25533 0.0
H206 H 0.52149 0.08795 0.26755 0.0
H207 H 0.47942 0.04428 0.28276 0.0
H208 H 0.52976 0.08104 0.29612 0.0
H209 H 0.52811 0.92706 0.22903 0.0
H210 H 0.47916 0.93011 0.23069 0.0
H211 H 0.52347 0.96838 0.21432 0.0
H212 H 0.37366 0.97122 0.23923 0.0
H213 H 0.47545 0.07024 0.20024 0.0
H214 H 0.4324 0.9659 0.28048 0.0
H215 H 0.43716 0.92869 0.26258 0.0
H216 H 0.38651 0.92848 0.26431 0.0
H217 H 0.56058 0.0895 0.23222 0.0
H218 H 0.54782 0.08797 0.20348 0.0
H219 H 0.55801 0.04742 0.21514 0.0
C220 C 0.52242 0.60092 0.44785 0.0
C221 C 0.56599 0.61405 0.44398 0.0
C222 C 0.4894 0.56653 0.436 0.0
C223 C 0.50032 0.54494 0.41986 0.0
C224 C 0.54422 0.55743 0.41623 0.0
C225 C 0.57657 0.59184 0.42838 0.0
C226 C 0.44289 0.55393 0.44041 0.0
C227 C 0.55705 0.53518 0.39914 0.0
C228 C 0.4103 0.43506 0.40095 0.0
C229 C 0.39583 0.44618 0.38197 0.0
C230 C 0.44501 0.46675 0.41322 0.0
C231 C 0.46576 0.51045 0.40623 0.0
C232 C 0.45224 0.52158 0.38665 0.0
C233 C 0.41731 0.48929 0.37478 0.0
C234 C 0.45854 0.45371 0.43403 0.0
C235 C 0.47386 0.56782 0.37857 0.0
H236 H 0.51411 0.61795 0.45992 0.0
H237 H 0.61025 0.60189 0.42533 0.0
H238 H 0.42853 0.55945 0.42546 0.0
H239 H 0.42363 0.51892 0.44438 0.0
H240 H 0.43976 0.57269 0.45417 0.0
H241 H 0.59245 0.54745 0.39904 0.0
H242 H 0.5399 0.49973 0.40212 0.0
H243 H 0.54732 0.54028 0.3826 0.0
H244 H 0.39374 0.40175 0.40658 0.0
H245 H 0.40631 0.498 0.36007 0.0
H246 H 0.45249 0.46918 0.44838 0.0
H247 H 0.49374 0.46525 0.43366 0.0
H248 H 0.44074 0.41806 0.43652 0.0
H249 H 0.46883 0.58822 0.39066 0.0
H250 H 0.46105 0.57067 0.36242 0.0
H251 H 0.50928 0.58112 0.37705 0.0
C252 C 0.90053 0.50027 0.61692 0.0
C253 C 0.93191 0.54362 0.61318 0.0
C254 C 0.9005 0.46677 0.60477 0.0
C255 C 0.93218 0.47703 0.58827 0.0
C256 C 0.96407 0.52076 0.58451 0.0
C257 C 0.96375 0.55353 0.59715 0.0
C258 C 0.86642 0.42043 0.60948 0.0
C259 C -0.00197 0.53297 0.56687 0.0
C260 C 0.95494 0.38915 0.56882 0.0
C261 C 0.92952 0.37431 0.54979 0.0
C262 C 0.95607 0.42254 0.58153 0.0
C263 C 0.93174 0.44199 0.57482 0.0
C264 C 0.90664 0.42768 0.55538 0.0
C265 C 0.90554 0.39369 0.54318 0.0
C266 C 0.98273 0.43653 0.60231 0.0
C267 C 0.88083 0.44814 0.54754 0.0
H268 H 0.87594 0.49252 0.62935 0.0
H269 H 0.98792 0.58707 0.59412 0.0
H270 H 0.84613 0.40575 0.59469 0.0
H271 H 0.88205 0.40105 0.61345 0.0
H272 H 0.84501 0.41785 0.62336 0.0
H273 H 0.02059 0.56849 0.56606 0.0
H274 H 0.01713 0.51669 0.56992 0.0
H275 H 0.9822 0.52172 0.55063 0.0
H276 H 0.97333 0.37404 0.57404 0.0
H277 H 0.88596 0.38235 0.52843 0.0
H278 H 0.96155 0.43189 0.61662 0.0
H279 H 0.0071 0.47153 0.60149 0.0
H280 H -0.00019 0.4181 0.60522 0.0
H281 H 0.85616 0.44348 0.56 0.0
H282 H 0.86416 0.43424 0.5317 0.0
H283 H 0.90242 0.48357 0.54546 0.0
C284 C 0.52594 0.9309 0.71481 0.0
C285 C 0.56985 0.95895 0.71929 0.0
C286 C 0.49378 0.93563 0.72558 0.0
C287 C 0.5059 0.96928 0.74117 0.0
C288 C 0.55023 -0.00148 0.74528 0.0
C289 C 0.58173 0.99296 0.7343 0.0
C290 C 0.4468 0.90382 0.72075 0.0
C291 C 0.56433 0.03488 0.76172 0.0
C292 C 0.41787 0.99437 0.7573 0.0
C293 C 0.40134 0.96928 0.77635 0.0
C294 C 0.45306 0.99604 0.74605 0.0
C295 C 0.47196 0.97201 0.75407 0.0
C296 C 0.45653 0.94813 0.7738 0.0
C297 C 0.4214 0.94708 0.78471 0.0
C298 C 0.46887 0.02208 0.72513 0.0
C299 C 0.47595 0.92223 0.78293 0.0
H300 H 0.51661 0.90464 0.70318 0.0
H301 H 0.61568 0.01484 0.73775 0.0
H302 H 0.43078 0.8849 0.73576 0.0
H303 H 0.42968 0.92136 0.71598 0.0
H304 H 0.44286 0.88086 0.70739 0.0
H305 H 0.6 0.05666 0.76186 0.0
H306 H 0.54875 0.0544 0.75803 0.0
H307 H 0.5538 0.02121 0.77844 0.0
H308 H 0.4025 0.01165 0.7508 0.0
H309 H 0.40885 0.92777 0.79948 0.0
H310 H 0.46171 -0.00012 0.71097 0.0
H311 H 0.50447 0.04379 0.72569 0.0
H312 H 0.45336 0.04199 0.72218 0.0
H313 H 0.47009 0.89577 0.77135 0.0
H314 H 0.46207 0.90769 0.79917 0.0
H315 H 0.51151 0.94308 0.7847 0.0
C316 C 0.46678 0.39255 0.94985 0.0
C317 C 0.42285 0.37934 0.94743 0.0
C318 C 0.49861 0.42827 0.93823 0.0
C319 C 0.48613 0.45122 0.92379 0.0
C320 C 0.44189 0.4387 0.92168 0.0
C321 C 0.41072 0.40288 0.93357 0.0
C322 C 0.54552 0.4408 0.94099 0.0
C323 C 0.4274 0.46241 0.90645 0.0
C324 C 0.57567 0.56257 0.90636 0.0
C325 C 0.58883 0.55308 0.8864 0.0
C326 C 0.5412 0.52999 0.9184 0.0
C327 C 0.51941 0.48705 0.91021 0.0
C328 C 0.53134 0.47774 0.8896 0.0
C329 C 0.56598 0.51088 0.87796 0.0
C330 C 0.52933 0.54114 0.94029 0.0
C331 C 0.50863 0.4324 0.88025 0.0
H332 H 0.47631 0.37453 0.96059 0.0
H333 H 0.37677 0.39279 0.93165 0.0
H334 H 0.55856 0.43686 0.92514 0.0
H335 H 0.56501 0.47541 0.94576 0.0
H336 H 0.54998 0.42087 0.95361 0.0
H337 H 0.39206 0.45016 0.90763 0.0
H338 H 0.44498 0.49757 0.91025 0.0
H339 H 0.43527 0.45871 0.88924 0.0
H340 H 0.59324 0.59517 0.91295 0.0
H341 H 0.57593 0.50343 0.8625 0.0
H342 H 0.53712 0.52498 0.95365 0.0
H343 H 0.49404 0.52905 0.94108 0.0
H344 H 0.54693 0.5766 0.94346 0.0
H345 H 0.51477 0.41079 0.89089 0.0
H346 H 0.51972 0.43119 0.86334 0.0
H347 H 0.47313 0.41929 0.87992 0.0
C348 C 0.12691 0.28123 0.0955 0.0
C349 C 0.09842 0.29623 0.09027 0.0
C350 C 0.15011 0.27404 0.07901 0.0
C351 C 0.14474 0.2822 0.05681 0.0
C352 C 0.1144 0.29526 0.05135 0.0
C353 C 0.09154 0.3021 0.06817 0.0
C354 C 0.18193 0.25975 0.08548 0.0
C355 C 0.10769 0.30413 0.02786 0.0
C356 C 0.24346 0.31591 0.02104 0.0
C357 C 0.23289 0.2771 0.01027 0.0
C358 C 0.21434 0.3183 0.03565 0.0
C359 C 0.17376 0.28087 0.03968 0.0
C360 C 0.16225 0.24196 0.02825 0.0
C361 C 0.19197 0.24057 0.01359 0.0
C362 C 0.22764 0.36054 0.04735 0.0
C363 C 0.1193 0.20141 0.03215 0.0
H364 H 0.13217 0.27643 0.11255 0.0
H365 H 0.06943 0.31357 0.06404 0.0
H366 H 0.17651 0.23133 0.07556 0.0
H367 H 0.21539 0.28624 0.0821 0.0
H368 H 0.1795 0.25114 0.10316 0.0
H369 H 0.07975 0.30956 0.02613 0.0
H370 H 0.1372 0.33338 0.02186 0.0
H371 H 0.10235 0.27674 0.0171 0.0
H372 H 0.275 0.34427 0.01845 0.0
H373 H 0.18372 0.21045 0.00532 0.0
H374 H 0.23029 0.35646 0.06525 0.0
H375 H 0.2027 0.37011 0.04507 0.0
H376 H 0.25919 0.38728 0.04139 0.0
H377 H 0.1181 0.1899 0.04921 0.0
H378 H 0.1138 0.17492 0.02064 0.0
H379 H 0.0924 0.20834 0.03038 0.0
C380 C 0.82929 0.11597 0.24775 0.0
C381 C 0.78576 0.10502 0.24762 0.0
C382 C 0.85738 0.14138 0.23093 0.0
C383 C 0.84106 0.15486 0.21326 0.0
C384 C 0.79647 0.14154 0.21241 0.0
C385 C 0.76944 0.11737 0.22984 0.0
C386 C 0.90493 0.15582 0.23271 0.0
C387 C 0.77763 0.15406 0.19349 0.0
C388 C 0.92097 0.26128 0.18677 0.0
C389 C 0.93611 0.24745 0.16904 0.0
C390 C 0.88934 0.23136 0.201 0.0
C391 C 0.8715 0.18648 0.19702 0.0
C392 C 0.88485 0.17229 0.17839 0.0
C393 C 0.91763 0.20304 0.16477 0.0
C394 C 0.87666 0.24785 0.22093 0.0
C395 C 0.86543 0.12472 0.17322 0.0
H396 H 0.84186 0.10648 0.26157 0.0
H397 H 0.73558 0.10841 0.22966 0.0
H398 H 0.91632 0.14743 0.21753 0.0
H399 H 0.92388 0.19158 0.23454 0.0
H400 H 0.91203 0.14089 0.24695 0.0
H401 H 0.74168 0.13616 0.19378 0.0
H402 H 0.78907 0.18926 0.19426 0.0
H403 H 0.78871 0.14771 0.1776 0.0
H404 H 0.93542 0.29562 0.19019 0.0
H405 H 0.9292 0.19235 0.15099 0.0
H406 H 0.88511 0.23644 0.23609 0.0
H407 H 0.84119 0.23477 0.22116 0.0
H408 H 0.89307 0.28379 0.22141 0.0
H409 H 0.87589 0.10923 0.18571 0.0
H410 H 0.87533 0.11927 0.15676 0.0
H411 H 0.82957 0.10826 0.17388 0.0
C412 C 0.71271 0.7998 0.40103 0.0
C413 C 0.69135 0.80417 0.41936 0.0
C414 C 0.71942 0.82492 0.38209 0.0
C415 C 0.70506 0.85545 0.38177 0.0
C416 C 0.68404 0.86031 0.4004 0.0
C417 C 0.67713 0.83434 0.41888 0.0
C418 C 0.74137 0.8185 0.3624 0.0
C419 C 0.66886 0.89304 0.40084 0.0
C420 C 0.75135 0.95403 0.34518 0.0
C421 C 0.71642 0.9433 0.33103 0.0
C422 C 0.74947 0.92442 0.36088 0.0
C423 C 0.71201 0.88296 0.36219 0.0
C424 C 0.67843 0.8706 0.34658 0.0
C425 C 0.68088 0.90111 0.33125 0.0
C426 C 0.78587 0.93898 0.37729 0.0
C427 C 0.6384 0.82631 0.34715 0.0
H428 H 0.72346 0.77623 0.40134 0.0
H429 H 0.66076 0.83788 0.43308 0.0
H430 H 0.71944 0.80867 0.34799 0.0
H431 H 0.77084 0.84941 0.35809 0.0
H432 H 0.75067 0.79346 0.36533 0.0
H433 H 0.65393 0.89338 0.41681 0.0
H434 H 0.69651 0.92599 0.39768 0.0
H435 H 0.64472 0.88568 0.38764 0.0
H436 H 0.77903 0.98658 0.34501 0.0
H437 H 0.654 0.89257 0.32018 0.0
H438 H 0.79486 0.91363 0.37965 0.0
H439 H 0.77501 0.94459 0.39343 0.0
H440 H 0.81512 0.96948 0.37215 0.0
H441 H 0.64717 0.80078 0.34949 0.0
H442 H 0.619 0.81929 0.33188 0.0
H443 H 0.61782 0.82449 0.36126 0.0
C444 C 0.79351 0.74902 0.51673 0.0
C445 C 0.75945 0.71217 0.50689 0.0
C446 C 0.8201 0.74513 0.53245 0.0
C447 C 0.81276 0.70347 0.53811 0.0
C448 C 0.78034 0.66645 0.52706 0.0
C449 C 0.75375 0.67122 0.51171 0.0
C450 C 0.85405 0.78531 0.54403 0.0
C451 C 0.77212 0.62155 0.53232 0.0
C452 C 0.89464 0.69069 0.57238 0.0
C453 C 0.8748 0.68144 0.5931 0.0
C454 C 0.87521 0.69861 0.55428 0.0
C455 C 0.83551 0.69795 0.55716 0.0
C456 C 0.81621 0.69013 0.57824 0.0
C457 C 0.8359 0.68156 0.59591 0.0
C458 C 0.89638 0.70625 0.53199 0.0
C459 C 0.77425 0.68994 0.58205 0.0
H460 H 0.79789 0.78074 0.51306 0.0
H461 H 0.72762 0.64272 0.50398 0.0
H462 H 0.8439 0.78512 0.56129 0.0
H463 H 0.88539 0.78584 0.5445 0.0
H464 H 0.85905 0.81547 0.53602 0.0
H465 H 0.74948 0.59696 0.52045 0.0
H466 H 0.80294 0.62099 0.53228 0.0
H467 H 0.75801 0.61214 0.54902 0.0
H468 H 0.92467 0.69041 0.57018 0.0
H469 H 0.82068 0.67471 0.61196 0.0
H470 H 0.90076 0.73675 0.52476 0.0
H471 H 0.87511 0.67953 0.52071 0.0
H472 H 0.92838 0.7081 0.53275 0.0
H473 H 0.77702 0.72061 0.57603 0.0
H474 H 0.76494 0.68597 0.59967 0.0
H475 H 0.74781 0.66306 0.57265 0.0
C476 C 0.06625 0.77337 0.66986 0.0
C477 C 0.0381 0.73176 0.67799 0.0
C478 C 0.10066 0.80405 0.68272 0.0
C479 C 0.10613 0.79306 0.70436 0.0
C480 C 0.07793 0.75093 0.71253 0.0
C481 C 0.04459 0.72062 0.69913 0.0
C482 C 0.13084 0.84828 0.67327 0.0
C483 C 0.0822 0.73818 0.73566 0.0
C484 C 0.2107 0.85348 0.73649 0.0
C485 C 0.20175 0.87952 0.75029 0.0
C486 C 0.18083 0.82698 0.72052 0.0
C487 C 0.14061 0.82564 0.71881 0.0
C488 C 0.13198 0.85289 0.7323 0.0
C489 C 0.16299 0.87999 0.74772 0.0
C490 C 0.19168 0.7993 0.70603 0.0
C491 C 0.08912 0.85173 0.73127 0.0
H492 H 0.06131 0.78194 0.65347 0.0
H493 H 0.02263 0.68857 0.70552 0.0
H494 H 0.12792 0.87336 0.68269 0.0
H495 H 0.16489 0.85575 0.67476 0.0
H496 H 0.12387 0.85073 0.65572 0.0
H497 H 0.05739 0.70421 0.73954 0.0
H498 H 0.1147 0.74188 0.73805 0.0
H499 H 0.079 0.75997 0.74761 0.0
H500 H 0.24092 0.85346 0.73834 0.0
H501 H 0.15602 0.90003 0.75847 0.0
H502 H 0.185 0.80272 0.68857 0.0
H503 H 0.17098 0.7647 0.71051 0.0
H504 H 0.22611 0.80793 0.7076 0.0
H505 H 0.08196 0.85683 0.71417 0.0
H506 H 0.08846 0.87668 0.74197 0.0
H507 H 0.06283 0.81935 0.73652 0.0
C508 C 0.31784 0.08973 0.83375 0.0
C509 C 0.28061 0.04878 0.83232 0.0
C510 C 0.32093 0.11998 0.84949 0.0
C511 C 0.28624 0.10859 0.86431 0.0
C512 C 0.24748 0.06845 0.86191 0.0
C513 C 0.24503 0.03914 0.84582 0.0
C514 C 0.36243 0.16289 0.85122 0.0
C515 C 0.20987 0.05491 0.87747 0.0
C516 C 0.31648 0.15474 0.92185 0.0
C517 C 0.30422 0.18644 0.92175 0.0
C518 C 0.3105 0.12911 0.90327 0.0
C519 C 0.29251 0.13588 0.88398 0.0
C520 C 0.28026 0.16803 0.88372 0.0
C521 C 0.28592 0.19274 0.90273 0.0
C522 C 0.32334 0.09465 0.90433 0.0
C523 C 0.26159 0.17655 0.86335 0.0
H524 H 0.34531 0.09743 0.82324 0.0
H525 H 0.2161 0.00754 0.84476 0.0
H526 H 0.35544 0.18975 0.85323 0.0
H527 H 0.38067 0.16278 0.86595 0.0
H528 H 0.38342 0.16948 0.83657 0.0
H529 H 0.18035 0.02524 0.87177 0.0
H530 H 0.21876 0.04834 0.89391 0.0
H531 H 0.20215 0.08125 0.87946 0.0
H532 H 0.33051 0.14971 0.93656 0.0
H533 H 0.2767 0.21748 0.90258 0.0
H534 H 0.34852 0.10121 0.89182 0.0
H535 H 0.29501 0.06247 0.90053 0.0
H536 H 0.33611 0.09302 0.92072 0.0
H537 H 0.2848 0.1854 0.84952 0.0
H538 H 0.25409 0.20301 0.86578 0.0
H539 H 0.23151 0.14675 0.85842 0.0
C540 C 0.74088 0.77366 0.81279 0.0
C541 C 0.70787 0.75017 0.82806 0.0
C542 C 0.73794 0.80222 0.79802 0.0
C543 C 0.70147 0.80797 0.79882 0.0
C544 C 0.66966 0.78681 0.8153 0.0
C545 C 0.67301 0.75775 0.82961 0.0
C546 C 0.77229 0.82369 0.78053 0.0
C547 C 0.63082 0.79292 0.81699 0.0
C548 C 0.70566 0.89839 0.76381 0.0
C549 C 0.68226 0.87527 0.74525 0.0
C550 C 0.71133 0.87687 0.78173 0.0
C551 C 0.69397 0.83144 0.78075 0.0
C552 C 0.6704 0.80808 0.76198 0.0
C553 C 0.66448 0.83024 0.74458 0.0
C554 C 0.73589 0.90264 0.80166 0.0
C555 C 0.65202 0.75971 0.7601 0.0
H556 H 0.76794 0.76795 0.81153 0.0
H557 H 0.6476 0.73989 0.84153 0.0
H558 H 0.75834 0.80947 0.76427 0.0
H559 H 0.78361 0.85883 0.77965 0.0
H560 H 0.80066 0.81942 0.78352 0.0
H561 H 0.61276 0.77965 0.83257 0.0
H562 H 0.64087 0.82778 0.8159 0.0
H563 H 0.60854 0.77616 0.80308 0.0
H564 H 0.71916 0.9332 0.76441 0.0
H565 H 0.6465 0.81229 0.73021 0.0
H566 H 0.76551 0.9003 0.80393 0.0
H567 H 0.71579 0.88901 0.81662 0.0
H568 H 0.74547 0.93739 0.80029 0.0
H569 H 0.67845 0.75197 0.76139 0.0
H570 H 0.6347 0.74647 0.74434 0.0
H571 H 0.62916 0.7429 0.7738 0.0
C572 C 0.78287 0.63526 0.92494 0.0
C573 C 0.79086 0.66797 0.90976 0.0
C574 C 0.81339 0.64158 0.94115 0.0
C575 C 0.85321 0.6811 0.94176 0.0
C576 C 0.86097 0.7146 0.92677 0.0
C577 C 0.82939 0.7078 0.91109 0.0
C578 C 0.80354 0.60553 0.95721 0.0
C579 C 0.9034 0.75687 0.92663 0.0
C580 C 0.92809 0.713 0.99113 0.0
C581 C 0.95717 0.69963 0.98439 0.0
C582 C 0.89316 0.70599 0.97771 0.0
C583 C 0.88807 0.68622 0.9569 0.0
C584 C 0.91718 0.67232 0.95015 0.0
C585 C 0.95108 0.67875 0.96411 0.0
C586 C 0.86208 0.72021 0.98566 0.0
C587 C 0.91329 0.65181 0.92792 0.0
H588 H 0.75285 0.60457 0.92403 0.0
H589 H 0.83562 0.73304 0.8993 0.0
H590 H 0.82515 0.59209 0.95399 0.0
H591 H 0.80979 0.61819 0.97427 0.0
H592 H 0.76945 0.57876 0.95602 0.0
H593 H 0.90356 0.78031 0.91456 0.0
H594 H 0.91028 0.77197 0.94316 0.0
H595 H 0.93013 0.75066 0.92251 0.0
H596 H 0.9327 0.72901 0.00686 0.0
H597 H 0.97373 0.66867 0.95879 0.0
H598 H 0.82833 0.69279 0.9847 0.0
H599 H 0.8642 0.74631 0.97491 0.0
H600 H 0.86884 0.73237 0.00283 0.0
H601 H 0.88108 0.62227 0.92621 0.0
H602 H 0.9386 0.64281 0.92519 0.0
H603 H 0.91601 0.67462 0.91478 0.0
C604 C 0.22519 0.91565 0.15922 0.0
C605 C 0.22882 0.95648 0.16137 0.0
C606 C 0.19824 0.88631 0.14318 0.0
C607 C 0.1749 0.89844 0.12883 0.0
C608 C 0.17602 0.93835 0.132 0.0
C609 C 0.20286 0.96686 0.14836 0.0
C610 C 0.19726 0.84368 0.14057 0.0
C611 C 0.15168 0.95249 0.11703 0.0
C612 C 0.16135 0.85303 0.07131 0.0
C613 C 0.11831 0.81925 0.07158 0.0
C614 C 0.17962 0.87981 0.08966 0.0
C615 C 0.15436 0.87218 0.10886 0.0
C616 C 0.11056 0.83866 0.10909 0.0
C617 C 0.09292 0.81268 0.09034 0.0
C618 C 0.2263 0.9157 0.08864 0.0
C619 C 0.08282 0.82942 0.12933 0.0
H620 H 0.24495 0.90738 0.16938 0.0
H621 H 0.20551 -0.0016 0.15 0.0
H622 H 0.1635 0.81672 0.13866 0.0
H623 H 0.21524 0.84463 0.1255 0.0
H624 H 0.21221 0.83658 0.15479 0.0
H625 H 0.15071 0.98108 0.12362 0.0
H626 H 0.16775 0.96116 0.10073 0.0
H627 H 0.11803 0.92576 0.11446 0.0
H628 H 0.18096 0.85835 0.05676 0.0
H629 H 0.05962 0.78644 0.0906 0.0
H630 H 0.24575 0.90947 0.10076 0.0
H631 H 0.22884 0.94713 0.09302 0.0
H632 H 0.24073 0.91873 0.0721 0.0
H633 H 0.09589 0.81832 0.1428 0.0
H634 H 0.04862 0.80415 0.12636 0.0
H635 H 0.08365 0.85937 0.1351 0.0
C636 C 0.28258 0.11688 0.25238 0.0
C637 C 0.32235 0.11968 0.24771 0.0
C638 C 0.27951 0.14348 0.26845 0.0
C639 C 0.31695 0.17281 0.28037 0.0
C640 C 0.35649 0.17354 0.27673 0.0
C641 C 0.35884 0.1473 0.26023 0.0
C642 C 0.23689 0.14218 0.27165 0.0
C643 C 0.39685 0.20361 0.28946 0.0
C644 C 0.32287 0.27741 0.29821 0.0
C645 C 0.30936 0.26866 0.32015 0.0
C646 C 0.32592 0.2466 0.28523 0.0
C647 C 0.31595 0.20627 0.29454 0.0
C648 C 0.30385 0.19778 0.31693 0.0
C649 C 0.30028 0.22902 0.32946 0.0
C650 C 0.33856 0.25677 0.26136 0.0
C651 C 0.29393 0.1555 0.32749 0.0
H652 H 0.25433 0.09551 0.24271 0.0
H653 H 0.38954 0.14909 0.2568 0.0
H654 H 0.22828 0.13898 0.28932 0.0
H655 H 0.23985 0.17304 0.2658 0.0
H656 H 0.21007 0.115 0.26254 0.0
H657 H 0.42304 0.19576 0.28697 0.0
H658 H 0.40893 0.23748 0.28408 0.0
H659 H 0.38962 0.202 0.30727 0.0
H660 H 0.32979 0.30795 0.29091 0.0
H661 H 0.28994 0.22223 0.34645 0.0
H662 H 0.31207 0.23288 0.25074 0.0
H663 H 0.36769 0.25416 0.25784 0.0
H664 H 0.34551 0.28979 0.25672 0.0
H665 H 0.26455 0.12847 0.3199 0.0
H666 H 0.28845 0.15536 0.34546 0.0
H667 H 0.32093 0.14905 0.32462 0.0
C668 C 0.15523 0.29163 0.40436 0.0
C669 C 0.19436 0.33092 0.40323 0.0
C670 C 0.1242 0.28497 0.42039 0.0
C671 C 0.13313 0.31806 0.43592 0.0
C672 C 0.17345 0.35704 0.43541 0.0
C673 C 0.20339 0.36323 0.41887 0.0
C674 C 0.08123 0.2433 0.42015 0.0
C675 C 0.18454 0.39262 0.452 0.0
C676 C 0.0377 0.32226 0.46054 0.0
C677 C 0.03208 0.30065 0.48054 0.0
C678 C 0.07058 0.32822 0.44592 0.0
C679 C 0.09914 0.31307 0.45169 0.0
C680 C 0.09454 0.2925 0.4722 0.0
C681 C 0.06064 0.28603 0.4863 0.0
C682 C 0.07397 0.34965 0.42404 0.0
C683 C 0.12508 0.27689 0.47911 0.0
H684 H 0.1482 0.26668 0.39221 0.0
H685 H 0.23389 0.39349 0.41813 0.0
H686 H 0.07461 0.22738 0.43646 0.0
H687 H 0.05488 0.25047 0.41677 0.0
H688 H 0.08003 0.22018 0.40753 0.0
H689 H 0.21873 0.41909 0.45062 0.0
H690 H 0.16319 0.40662 0.44959 0.0
H691 H 0.17889 0.3793 0.46892 0.0
H692 H 0.01543 0.33328 0.45596 0.0
H693 H 0.05637 0.26941 0.5018 0.0
H694 H 0.07012 0.32709 0.41051 0.0
H695 H 0.10643 0.37879 0.42221 0.0
H696 H 0.04912 0.3595 0.42207 0.0
H697 H 0.12187 0.25101 0.4678 0.0
H698 H 0.11873 0.26397 0.49613 0.0
H699 H 0.15906 0.3038 0.47804 0.0
C700 C 0.82967 0.14449 0.56769 0.0
C701 C 0.87146 0.18044 0.56871 0.0
C702 C 0.81131 0.11738 0.58593 0.0
C703 C 0.83497 0.12714 0.60582 0.0
C704 C 0.87746 0.16313 0.60686 0.0
C705 C 0.89544 0.18915 0.58816 0.0
C706 C 0.76624 0.07871 0.58401 0.0
C707 C 0.9033 0.17498 0.62789 0.0
C708 C 0.76106 0.07975 0.65499 0.0
C709 C 0.76262 0.04175 0.65856 0.0
C710 C 0.78693 0.10954 0.63885 0.0
C711 C 0.81412 0.10043 0.62563 0.0
C712 C 0.81754 0.06323 0.62998 0.0
C713 C 0.79201 0.0345 0.6466 0.0
C714 C 0.78323 0.14945 0.63509 0.0
C715 C 0.84565 0.05205 0.61606 0.0
H716 H 0.81123 0.1376 0.55261 0.0
H717 H 0.9277 0.21717 0.58899 0.0
H718 H 0.76616 0.04883 0.58922 0.0
H719 H 0.74391 0.08295 0.59508 0.0
H720 H 0.75342 0.07401 0.567 0.0
H721 H 0.93667 0.20265 0.62567 0.0
H722 H 0.88676 0.18379 0.64062 0.0
H723 H 0.90526 0.14683 0.6342 0.0
H724 H 0.73851 0.08551 0.66434 0.0
H725 H 0.79307 0.00495 0.64925 0.0
H726 H 0.76594 0.14605 0.61942 0.0
H727 H 0.81582 0.1786 0.63366 0.0
H728 H 0.7653 0.15474 0.64854 0.0
H729 H 0.83136 0.04241 0.5994 0.0
H730 H 0.84869 0.02497 0.62315 0.0
H731 H 0.87848 0.0806 0.61412 0.0
C732 C 0.23618 0.41518 0.28855 0.0
C733 C 0.21995 0.37448 0.29848 0.0
C734 C 0.2186 0.41973 0.26875 0.0
C735 C 0.18447 0.3826 0.25859 0.0
C736 C 0.16754 0.34159 0.26878 0.0
C737 C 0.18531 0.3381 0.28865 0.0
C738 C 0.23701 0.46404 0.25851 0.0
C739 C 0.13133 0.30114 0.2584 0.0
C740 C 0.10969 0.38711 0.21582 0.0
C741 C 0.12573 0.37891 0.19646 0.0
C742 C 0.12993 0.3908 0.23609 0.0
C743 C 0.16691 0.38592 0.237 0.0
C744 C 0.18452 0.37986 0.21734 0.0
C745 C 0.16375 0.37653 0.19727 0.0
C746 C 0.1104 0.39765 0.25666 0.0
C747 C 0.22389 0.37444 0.21764 0.0
H748 H 0.26293 0.4434 0.29612 0.0
H749 H 0.17273 0.30652 0.29621 0.0
H750 H 0.252 0.46462 0.24244 0.0
H751 H 0.21076 0.47144 0.25531 0.0
H752 H 0.26182 0.48995 0.26909 0.0
H753 H 0.12142 0.27184 0.26862 0.0
H754 H 0.10269 0.30501 0.25576 0.0
H755 H 0.14171 0.29579 0.24207 0.0
H756 H 0.08041 0.3892 0.21526 0.0
H757 H 0.17633 0.37029 0.18234 0.0
H758 H 0.13577 0.42394 0.2668 0.0
H759 H 0.09581 0.36767 0.26671 0.0
H760 H 0.08487 0.40588 0.25292 0.0
H761 H 0.25044 0.40104 0.2271 0.0
H762 H 0.23583 0.37397 0.20084 0.0
H763 H 0.21577 0.34358 0.22594 0.0
C764 C 0.81889 0.22784 0.45207 0.0
C765 C 0.8419 0.20989 0.46189 0.0
C766 C 0.79695 0.21154 0.43208 0.0
C767 C 0.7984 0.17672 0.42169 0.0
C768 C 0.82083 0.15793 0.43181 0.0
C769 C 0.84219 0.17466 0.4518 0.0
C770 C 0.77302 0.23209 0.42188 0.0
C771 C 0.82319 0.12076 0.42124 0.0
C772 C 0.71877 0.10537 0.37804 0.0
C773 C 0.74386 0.12105 0.35893 0.0
C774 C 0.73519 0.12479 0.39852 0.0
C775 C 0.7778 0.1605 0.39988 0.0
C776 C 0.80233 0.17795 0.38046 0.0
C777 C 0.78498 0.15807 0.36018 0.0
C778 C 0.70784 0.10555 0.41881 0.0
C779 C 0.8479 0.216 0.38123 0.0
H780 H 0.81854 0.25507 0.45982 0.0
H781 H 0.85994 0.16066 0.45931 0.0
H782 H 0.78838 0.24739 0.40602 0.0
H783 H 0.73908 0.20701 0.41828 0.0
H784 H 0.77282 0.25715 0.43267 0.0
H785 H 0.84112 0.10919 0.43149 0.0
H786 H 0.7901 0.09323 0.41828 0.0
H787 H 0.83949 0.13101 0.40504 0.0
H788 H 0.68684 0.07688 0.37715 0.0
H789 H 0.80448 0.17038 0.34545 0.0
H790 H 0.70821 0.13137 0.42917 0.0
H791 H 0.72148 0.08917 0.42878 0.0
H792 H 0.67374 0.08151 0.41472 0.0
H793 H 0.849 0.2429 0.39093 0.0
H794 H 0.86106 0.22822 0.36457 0.0
H795 H 0.86935 0.20617 0.38951 0.0
C796 C 0.65851 0.84108 0.62992 0.0
C797 C 0.63414 0.86105 0.63474 0.0
C798 C 0.65486 0.82125 0.60953 0.0
C799 C 0.6259 0.82111 0.59361 0.0
C800 C 0.59976 0.83951 0.59873 0.0
C801 C 0.60433 0.85948 0.61925 0.0
C802 C 0.68344 0.80213 0.6047 0.0
C803 C 0.5682 0.83954 0.58224 0.0
C804 C 0.65908 0.8168 0.53497 0.0
C805 C 0.63443 0.77244 0.53024 0.0
C806 C 0.65525 0.8333 0.55523 0.0
C807 C 0.62582 0.80476 0.57111 0.0
C808 C 0.59932 0.76025 0.56605 0.0
C809 C 0.60407 0.74454 0.54566 0.0
C810 C 0.68421 0.88097 0.56001 0.0
C811 C 0.56727 0.72896 0.58249 0.0
H812 H 0.68153 0.84209 0.64185 0.0
H813 H 0.5853 0.87474 0.62294 0.0
H814 H 0.66362 0.76816 0.59898 0.0
H815 H 0.70638 0.8207 0.5913 0.0
H816 H 0.70238 0.80263 0.61928 0.0
H817 H 0.54707 0.85093 0.58954 0.0
H818 H 0.58624 0.86108 0.5683 0.0
H819 H 0.54751 0.80653 0.57545 0.0
H820 H 0.68251 0.83856 0.52309 0.0
H821 H 0.58479 0.71024 0.54204 0.0
H822 H 0.70711 0.88513 0.57339 0.0
H823 H 0.6647 0.89544 0.56576 0.0
H824 H 0.70322 0.89926 0.5454 0.0
H825 H 0.58491 0.72504 0.59648 0.0
H826 H 0.54578 0.69655 0.57517 0.0
H827 H 0.54696 0.7418 0.5892 0.0
C828 C 0.84547 0.65343 0.7102 0.0
C829 C 0.84766 0.61916 0.70017 0.0
C830 C 0.82284 0.64731 0.72992 0.0
C831 C 0.80155 0.60578 0.73979 0.0
C832 C 0.80266 0.57073 0.72945 0.0
C833 C 0.82592 0.57789 0.70977 0.0
C834 C 0.8226 0.6856 0.74047 0.0
C835 C 0.77996 0.52593 0.73938 0.0
C836 C 0.78541 0.60953 0.80106 0.0
C837 C 0.74357 0.60375 0.80193 0.0
C838 C 0.80389 0.60789 0.781 0.0
C839 C 0.77979 0.59998 0.76137 0.0
C840 C 0.73649 0.59121 0.76235 0.0
C841 C 0.71891 0.59336 0.78264 0.0
C842 C 0.85018 0.61744 0.78066 0.0
C843 C 0.70958 0.5821 0.74182 0.0
H844 H 0.86221 0.6854 0.70285 0.0
H845 H 0.82742 0.55126 0.70203 0.0
H846 H 0.78883 0.67836 0.743 0.0
H847 H 0.83819 0.69198 0.75687 0.0
H848 H 0.83994 0.71551 0.73042 0.0
H849 H 0.78164 0.50162 0.72862 0.0
H850 H 0.79487 0.52641 0.75544 0.0
H851 H 0.74545 0.51543 0.74254 0.0
H852 H 0.80458 0.61744 0.81594 0.0
H853 H 0.68646 0.58864 0.78324 0.0
H854 H 0.87094 0.64916 0.77258 0.0
H855 H 0.85293 0.59254 0.77098 0.0
H856 H 0.86295 0.61865 0.79744 0.0
H857 H 0.72217 0.61222 0.73198 0.0
H858 H 0.67497 0.57025 0.74562 0.0
H859 H 0.71185 0.55768 0.73145 0.0
C860 C 0.20289 0.83769 0.86231 0.0
C861 C 0.24532 0.87246 0.86047 0.0
C862 C 0.18557 0.81926 0.88281 0.0
C863 C 0.21141 0.8359 0.90189 0.0
C864 C 0.25504 0.8694 0.89998 0.0
C865 C 0.27147 0.88739 0.87926 0.0
C866 C 0.1389 0.78353 0.88418 0.0
C867 C 0.2837 0.88769 0.91992 0.0
C868 C 0.15015 0.82534 0.95457 0.0
C869 C 0.14808 0.78865 0.96419 0.0
C870 C 0.17158 0.84161 0.93453 0.0
C871 C 0.19156 0.82075 0.92391 0.0
C872 C 0.19076 0.78449 0.93388 0.0
C873 C 0.1689 0.76878 0.95391 0.0
C874 C 0.17172 0.88037 0.92441 0.0
C875 C 0.21201 0.76167 0.92311 0.0
H876 H 0.18257 0.82597 0.84782 0.0
H877 H 0.30436 0.91419 0.87791 0.0
H878 H 0.13624 0.75567 0.8936 0.0
H879 H 0.11971 0.79548 0.89306 0.0
H880 H 0.12428 0.77192 0.8677 0.0
H881 H 0.31801 0.91017 0.91541 0.0
H882 H 0.27211 0.9056 0.93019 0.0
H883 H 0.28212 0.86119 0.93015 0.0
H884 H 0.13414 0.84084 0.96245 0.0
H885 H 0.16746 0.74044 0.96132 0.0
H886 H 0.15433 0.87104 0.90847 0.0
H887 H 0.20542 0.90629 0.92102 0.0
H888 H 0.15609 0.89381 0.93516 0.0
H889 H 0.19537 0.74682 0.90742 0.0
H890 H 0.21106 0.73584 0.93371 0.0
H891 H 0.24624 0.78525 0.91911 0.0
C892 C 0.35669 0.16438 0.13429 0.0
C893 C 0.37155 0.13488 0.13671 0.0
C894 C 0.35833 0.1833 0.11387 0.0
C895 C 0.37574 0.17285 0.09549 0.0
C896 C 0.39333 0.14524 0.09816 0.0
C897 C 0.39076 0.12631 0.11874 0.0
C898 C 0.339 0.21238 0.11169 0.0
C899 C 0.41282 0.13391 0.07904 0.0
C900 C 0.3276 0.17621 0.04056 0.0
C901 C 0.35833 0.21708 0.03257 0.0
C902 C 0.33352 0.16106 0.06076 0.0
C903 C 0.37132 0.18725 0.0732 0.0
C904 C 0.40327 0.22788 0.06484 0.0
C905 C 0.39627 0.24246 0.04464 0.0
C906 C 0.29853 0.11762 0.06914 0.0
C907 C 0.44423 0.25639 0.07751 0.0
H908 H 0.34184 0.17116 0.14813 0.0
H909 H 0.40251 0.10369 0.12056 0.0
H910 H 0.36212 0.24314 0.10346 0.0
H911 H 0.30953 0.19624 0.10131 0.0
H912 H 0.33 0.22011 0.12786 0.0
H913 H 0.43016 0.11687 0.08439 0.0
H914 H 0.38682 0.11259 0.06745 0.0
H915 H 0.43571 0.16356 0.0699 0.0
H916 H 0.29822 0.15644 0.0313 0.0
H917 H 0.4202 0.27402 0.03848 0.0
H918 H 0.28477 0.12212 0.08461 0.0
H919 H 0.31236 0.09656 0.07294 0.0
H920 H 0.27183 0.10059 0.05712 0.0
H921 H 0.43622 0.2677 0.09286 0.0
H922 H 0.46751 0.28519 0.06789 0.0
H923 H 0.4602 0.23774 0.08231 0.0
loop_
_geom_bond_atom_site_label_1
_geom_bond_atom_site_label_2
_geom_bond_distance
_geom_bond_site_symmetry_2
_ccdc_geom_bond_type
In0 O1 2.294 . S
In0 O2 2.326 . S
In0 O6 2.266 . S
In0 O7 2.326 . S
In0 O8 2.266 . S
In0 O9 2.326 . S
In0 O11 2.294 . S
In0 O12 2.326 . S
O1 In0 2.294 . S
O1 C10 1.240 . S
O2 In0 2.326 . S
O2 C10 1.252 . S
C3 O6 1.252 1_655 S
C3 O7 1.260 1_655 S
C4 O11 1.240 . S
C4 O12 1.252 . S
C5 O8 1.252 . S
C5 O9 1.260 . S
O6 In0 2.266 . S
O6 C3 1.252 1_455 S
O7 In0 2.326 . S
O7 C3 1.260 1_455 S
O8 In0 2.266 . S
O8 C5 1.252 . S
O9 In0 2.326 . S
O9 C5 1.260 . S
C10 O1 1.240 . S
C10 O2 1.252 . S
O11 In0 2.294 . S
O11 C4 1.240 . S
O12 In0 2.326 . S
O12 C4 1.252 . S
In13 O14 2.294 . S
In13 O15 2.326 . S
In13 O19 2.266 . S
In13 O20 2.326 . S
In13 O21 2.266 . S
In13 O22 2.326 . S
In13 O24 2.294 . S
In13 O25 2.326 . S
O14 In13 2.294 . S
O14 C23 1.240 . S
O15 In13 2.326 . S
O15 C23 1.252 . S
C16 O19 1.252 . S
C16 O20 1.260 . S
C17 O24 1.240 . S
C17 O25 1.252 . S
C18 O21 1.252 1_565 S
C18 O22 1.260 1_565 S
O19 In13 2.266 . S
O19 C16 1.252 . S
O20 In13 2.326 . S
O20 C16 1.260 . S
O21 In13 2.266 . S
O21 C18 1.252 1_545 S
O22 In13 2.326 . S
O22 C18 1.260 1_545 S
C23 O14 1.240 . S
C23 O15 1.252 . S
O24 In13 2.294 . S
O24 C17 1.240 . S
O25 In13 2.326 . S
O25 C17 1.252 . S
In26 O27 2.294 . S
In26 O28 2.326 . S
In26 O32 2.266 . S
In26 O33 2.326 . S
In26 O34 2.266 . S
In26 O35 2.326 . S
In26 O37 2.294 . S
In26 O38 2.326 . S
O27 In26 2.294 . S
O27 C36 1.240 . S
O28 In26 2.326 . S
O28 C36 1.252 . S
C29 O32 1.252 . S
C29 O33 1.260 . S
C30 O37 1.240 . S
C30 O38 1.252 . S
C31 O34 1.252 . S
C31 O35 1.260 . S
O32 In26 2.266 . S
O32 C29 1.252 . S
O33 In26 2.326 . S
O33 C29 1.260 . S
O34 In26 2.266 . S
O34 C31 1.252 . S
O35 In26 2.326 . S
O35 C31 1.260 . S
C36 O27 1.240 . S
C36 O28 1.252 . S
O37 In26 2.294 . S
O37 C30 1.240 . S
O38 In26 2.326 . S
O38 C30 1.252 . S
In39 O40 2.294 . S
In39 O41 2.326 . S
In39 O45 2.266 . S
In39 O46 2.326 . S
In39 O47 2.266 . S
In39 O48 2.326 . S
In39 O50 2.294 . S
In39 O51 2.326 . S
O40 In39 2.294 . S
O40 C49 1.240 . S
O41 In39 2.326 . S
O41 C49 1.252 . S
C42 O45 1.252 . S
C42 O46 1.260 . S
C43 O50 1.240 . S
C43 O51 1.252 . S
C44 O47 1.252 1_455 S
C44 O48 1.260 1_455 S
O45 In39 2.266 . S
O45 C42 1.252 . S
O46 In39 2.326 . S
O46 C42 1.260 . S
O47 In39 2.266 . S
O47 C44 1.252 1_655 S
O48 In39 2.326 . S
O48 C44 1.260 1_655 S
C49 O40 1.240 . S
C49 O41 1.252 . S
O50 In39 2.294 . S
O50 C43 1.240 . S
O51 In39 2.326 . S
O51 C43 1.252 . S
In52 O53 2.294 . S
In52 O54 2.326 . S
In52 O58 2.266 . S
In52 O59 2.326 . S
In52 O60 2.266 . S
In52 O61 2.326 . S
In52 O63 2.294 . S
In52 O64 2.326 . S
O53 In52 2.294 . S
O53 C62 1.240 . S
O54 In52 2.326 . S
O54 C62 1.252 . S
C55 O58 1.252 1_545 S
C55 O59 1.260 1_545 S
C56 O63 1.240 . S
C56 O64 1.252 . S
C57 O60 1.252 . S
C57 O61 1.260 . S
O58 In52 2.266 . S
O58 C55 1.252 1_565 S
O59 In52 2.326 . S
O59 C55 1.260 1_565 S
O60 In52 2.266 . S
O60 C57 1.252 . S
O61 In52 2.326 . S
O61 C57 1.260 . S
C62 O53 1.240 . S
C62 O54 1.252 . S
O63 In52 2.294 . S
O63 C56 1.240 . S
O64 In52 2.326 . S
O64 C56 1.252 . S
In65 O66 2.294 . S
In65 O67 2.326 . S
In65 O71 2.266 1_556 S
In65 O72 2.326 1_556 S
In65 O73 2.266 . S
In65 O74 2.326 1_556 S
In65 O76 2.294 . S
In65 O77 2.326 . S
O66 In65 2.294 . S
O66 C75 1.240 . S
O67 In65 2.326 . S
O67 C75 1.252 . S
C68 O71 1.252 . S
C68 O72 1.260 . S
C69 O76 1.240 . S
C69 O77 1.252 . S
C70 O73 1.228 1_554 S
C70 O74 1.268 . S
O71 In65 2.266 1_554 S
O71 C68 1.252 . S
O72 In65 2.326 1_554 S
O72 C68 1.260 . S
O73 In65 2.266 . S
O73 C70 1.228 1_556 S
O74 In65 2.326 1_554 S
O74 C70 1.268 . S
C75 O66 1.240 . S
C75 O67 1.252 . S
O76 In65 2.294 . S
O76 C69 1.240 . S
O77 In65 2.326 . S
O77 C69 1.252 . S
In78 O79 2.294 . S
In78 O80 2.326 . S
In78 O84 2.266 . S
In78 O85 2.326 . S
In78 O86 2.266 . S
In78 O87 2.326 . S
In78 O89 2.294 . S
In78 O90 2.326 . S
O79 In78 2.294 . S
O79 C88 1.240 . S
O80 In78 2.326 . S
O80 C88 1.252 . S
C81 O84 1.252 1_545 S
C81 O85 1.260 1_545 S
C82 O89 1.240 . S
C82 O90 1.252 . S
C83 O86 1.252 . S
C83 O87 1.260 . S
O84 In78 2.266 . S
O84 C81 1.252 1_565 S
O85 In78 2.326 . S
O85 C81 1.260 1_565 S
O86 In78 2.266 . S
O86 C83 1.252 . S
O87 In78 2.326 . S
O87 C83 1.260 . S
C88 O79 1.240 . S
C88 O80 1.252 . S
O89 In78 2.294 . S
O89 C82 1.240 . S
O90 In78 2.326 . S
O90 C82 1.252 . S
In91 O92 2.294 . S
In91 O93 2.326 . S
In91 O97 2.266 . S
In91 O98 2.326 . S
In91 O99 2.266 . S
In91 O100 2.326 . S
In91 O102 2.294 . S
In91 O103 2.326 . S
O92 In91 2.294 . S
O92 C101 1.240 . S
O93 In91 2.326 . S
O93 C101 1.252 . S
C94 O97 1.252 . S
C94 O98 1.260 . S
C95 O102 1.240 . S
C95 O103 1.252 . S
C96 O99 1.252 . S
C96 O100 1.260 . S
O97 In91 2.266 . S
O97 C94 1.252 . S
O98 In91 2.326 . S
O98 C94 1.260 . S
O99 In91 2.266 . S
O99 C96 1.252 . S
O100 In91 2.326 . S
O100 C96 1.260 . S
C101 O92 1.240 . S
C101 O93 1.252 . S
O102 In91 2.294 . S
O102 C95 1.240 . S
O103 In91 2.326 . S
O103 C95 1.252 . S
In104 O105 2.294 . S
In104 O106 2.326 . S
In104 O110 2.266 . S
In104 O111 2.326 1_554 S
In104 O112 2.266 1_554 S
In104 O113 2.326 1_554 S
In104 O115 2.294 . S
In104 O116 2.326 . S
O105 In104 2.294 . S
O105 C114 1.240 . S
O106 In104 2.326 . S
O106 C114 1.252 . S
C107 O110 1.228 1_656 S
C107 O111 1.268 1_655 S
C108 O115 1.240 . S
C108 O116 1.252 . S
C109 O112 1.252 . S
C109 O113 1.260 . S
O110 In104 2.266 . S
O110 C107 1.228 1_454 S
O111 In104 2.326 1_556 S
O111 C107 1.268 1_455 S
O112 In104 2.266 1_556 S
O112 C109 1.252 . S
O113 In104 2.326 1_556 S
O113 C109 1.260 . S
C114 O105 1.240 . S
C114 O106 1.252 . S
O115 In104 2.294 . S
O115 C108 1.240 . S
O116 In104 2.326 . S
O116 C108 1.252 . S
In117 O118 2.294 . S
In117 O119 2.326 . S
In117 O123 2.266 . S
In117 O124 2.326 . S
In117 O125 2.266 . S
In117 O126 2.326 . S
In117 O128 2.294 . S
In117 O129 2.326 . S
O118 In117 2.294 . S
O118 C127 1.240 . S
O119 In117 2.326 . S
O119 C127 1.252 . S
C120 O123 1.252 . S
C120 O124 1.260 . S
C121 O128 1.240 . S
C121 O129 1.252 . S
C122 O125 1.252 1_565 S
C122 O126 1.260 1_565 S
O123 In117 2.266 . S
O123 C120 1.252 . S
O124 In117 2.326 . S
O124 C120 1.260 . S
O125 In117 2.266 . S
O125 C122 1.252 1_545 S
O126 In117 2.326 . S
O126 C122 1.260 1_545 S
C127 O118 1.240 . S
C127 O119 1.252 . S
O128 In117 2.294 . S
O128 C121 1.240 . S
O129 In117 2.326 . S
O129 C121 1.252 . S
In130 O131 2.294 . S
In130 O132 2.326 . S
In130 O136 2.266 . S
In130 O137 2.326 . S
In130 O138 2.266 . S
In130 O139 2.326 . S
In130 O141 2.294 . S
In130 O142 2.326 . S
O131 In130 2.294 . S
O131 C140 1.240 . S
O132 In130 2.326 . S
O132 C140 1.252 . S
C133 O136 1.252 . S
C133 O137 1.260 . S
C134 O141 1.240 . S
C134 O142 1.252 . S
C135 O138 1.252 . S
C135 O139 1.260 . S
O136 In130 2.266 . S
O136 C133 1.252 . S
O137 In130 2.326 . S
O137 C133 1.260 . S
O138 In130 2.266 . S
O138 C135 1.252 . S
O139 In130 2.326 . S
O139 C135 1.260 . S
C140 O131 1.240 . S
C140 O132 1.252 . S
O141 In130 2.294 . S
O141 C134 1.240 . S
O142 In130 2.326 . S
O142 C134 1.252 . S
In143 O144 2.294 . S
In143 O145 2.326 . S
In143 O149 2.266 . S
In143 O150 2.326 . S
In143 O151 2.266 . S
In143 O152 2.326 . S
In143 O154 2.294 . S
In143 O155 2.326 . S
O144 In143 2.294 . S
O144 C153 1.240 . S
O145 In143 2.326 . S
O145 C153 1.252 . S
C146 O149 1.252 . S
C146 O150 1.260 . S
C147 O154 1.240 . S
C147 O155 1.252 . S
C148 O151 1.252 1_455 S
C148 O152 1.260 1_455 S
O149 In143 2.266 . S
O149 C146 1.252 . S
O150 In143 2.326 . S
O150 C146 1.260 . S
O151 In143 2.266 . S
O151 C148 1.252 1_655 S
O152 In143 2.326 . S
O152 C148 1.260 1_655 S
C153 O144 1.240 . S
C153 O145 1.252 . S
O154 In143 2.294 . S
O154 C147 1.240 . S
O155 In143 2.326 . S
O155 C147 1.252 . S
C156 C157 1.391 . S
C156 C158 1.394 . S
C156 H172 0.931 1_455 S
C157 C156 1.391 . S
C157 C161 1.376 . S
C158 C156 1.394 . S
C158 C159 1.369 . S
C158 C162 1.531 1_455 S
C159 C158 1.369 . S
C159 C160 1.410 . S
C159 C167 1.503 . S
C160 C159 1.410 . S
C160 C161 1.392 . S
C160 C163 1.511 . S
C161 C157 1.376 . S
C161 C160 1.392 . S
C161 H173 0.929 . S
C162 C158 1.531 1_655 S
C162 H174 0.960 . S
C162 H175 0.962 . S
C162 H176 0.960 . S
C163 C160 1.511 . S
C163 H177 0.961 . S
C163 H178 0.961 . S
C163 H179 0.961 . S
C164 C165 1.370 . S
C164 C166 1.363 . S
C164 H180 0.931 . S
C165 C164 1.370 . S
C165 C169 1.408 . S
C166 C164 1.363 . S
C166 C167 1.370 . S
C166 C170 1.524 . S
C167 C159 1.503 . S
C167 C166 1.370 . S
C167 C168 1.403 . S
C168 C167 1.403 . S
C168 C169 1.404 . S
C168 C171 1.539 . S
C169 C165 1.408 . S
C169 C168 1.404 . S
C169 H181 0.930 . S
C170 C166 1.524 . S
C170 H182 0.956 . S
C170 H183 0.961 . S
C170 H184 0.961 . S
C171 C168 1.539 . S
C171 H185 0.958 . S
C171 H186 0.961 . S
C171 H187 0.960 . S
H172 C156 0.931 1_655 S
H173 C161 0.929 . S
H174 C162 0.960 . S
H175 C162 0.962 . S
H176 C162 0.960 . S
H177 C163 0.961 . S
H178 C163 0.961 . S
H179 C163 0.961 . S
H180 C164 0.931 . S
H181 C169 0.930 . S
H182 C170 0.956 . S
H183 C170 0.961 . S
H184 C170 0.961 . S
H185 C171 0.958 . S
H186 C171 0.961 . S
H187 C171 0.960 . S
C188 C189 1.391 . S
C188 C190 1.394 . S
C188 H204 0.931 . S
C189 C188 1.391 . S
C189 C193 1.376 . S
C190 C188 1.394 . S
C190 C191 1.369 . S
C190 C194 1.531 . S
C191 C190 1.369 . S
C191 C192 1.410 . S
C191 C199 1.503 . S
C192 C191 1.410 . S
C192 C193 1.392 . S
C192 C195 1.511 . S
C193 C189 1.376 . S
C193 C192 1.392 . S
C193 H205 0.929 . S
C194 C190 1.531 . S
C194 H206 0.960 . S
C194 H207 0.962 . S
C194 H208 0.960 . S
C195 C192 1.511 . S
C195 H209 0.961 . S
C195 H210 0.961 . S
C195 H211 0.961 . S
C196 C197 1.370 . S
C196 C198 1.363 . S
C196 H212 0.931 1_545 S
C197 C196 1.370 . S
C197 C201 1.408 . S
C198 C196 1.363 . S
C198 C199 1.370 . S
C198 C202 1.524 1_545 S
C199 C191 1.503 . S
C199 C198 1.370 . S
C199 C200 1.403 . S
C200 C199 1.403 . S
C200 C201 1.404 . S
C200 C203 1.539 . S
C201 C197 1.408 . S
C201 C200 1.404 . S
C201 H213 0.930 . S
C202 C198 1.524 1_565 S
C202 H214 0.956 . S
C202 H215 0.961 . S
C202 H216 0.961 . S
C203 C200 1.539 . S
C203 H217 0.958 . S
C203 H218 0.961 . S
C203 H219 0.960 . S
H204 C188 0.931 . S
H205 C193 0.929 . S
H206 C194 0.960 . S
H207 C194 0.962 . S
H208 C194 0.960 . S
H209 C195 0.961 . S
H210 C195 0.961 . S
H211 C195 0.961 . S
H212 C196 0.931 1_565 S
H213 C201 0.930 . S
H214 C202 0.956 . S
H215 C202 0.961 . S
H216 C202 0.961 . S
H217 C203 0.958 . S
H218 C203 0.961 . S
H219 C203 0.960 . S
C220 C221 1.391 . S
C220 C222 1.394 . S
C220 H236 0.931 . S
C221 C220 1.391 . S
C221 C225 1.376 . S
C222 C220 1.394 . S
C222 C223 1.369 . S
C222 C226 1.531 . S
C223 C222 1.369 . S
C223 C224 1.410 . S
C223 C231 1.503 . S
C224 C223 1.410 . S
C224 C225 1.392 . S
C224 C227 1.511 . S
C225 C221 1.376 . S
C225 C224 1.392 . S
C225 H237 0.929 . S
C226 C222 1.531 . S
C226 H238 0.960 . S
C226 H239 0.962 . S
C226 H240 0.960 . S
C227 C224 1.511 . S
C227 H241 0.961 . S
C227 H242 0.961 . S
C227 H243 0.961 . S
C228 C229 1.370 . S
C228 C230 1.363 . S
C228 H244 0.931 . S
C229 C228 1.370 . S
C229 C233 1.408 . S
C230 C228 1.363 . S
C230 C231 1.370 . S
C230 C234 1.524 . S
C231 C223 1.503 . S
C231 C230 1.370 . S
C231 C232 1.403 . S
C232 C231 1.403 . S
C232 C233 1.404 . S
C232 C235 1.539 . S
C233 C229 1.408 . S
C233 C232 1.404 . S
C233 H245 0.930 . S
C234 C230 1.524 . S
C234 H246 0.956 . S
C234 H247 0.961 . S
C234 H248 0.961 . S
C235 C232 1.539 . S
C235 H249 0.958 . S
C235 H250 0.961 . S
C235 H251 0.960 . S
H236 C220 0.931 . S
H237 C225 0.929 . S
H238 C226 0.960 . S
H239 C226 0.962 . S
H240 C226 0.960 . S
H241 C227 0.961 . S
H242 C227 0.961 . S
H243 C227 0.961 . S
H244 C228 0.931 . S
H245 C233 0.930 . S
H246 C234 0.956 . S
H247 C234 0.961 . S
H248 C234 0.961 . S
H249 C235 0.958 . S
H250 C235 0.961 . S
H251 C235 0.960 . S
C252 C253 1.391 . S
C252 C254 1.394 . S
C252 H268 0.931 . S
C253 C252 1.391 . S
C253 C257 1.376 . S
C254 C252 1.394 . S
C254 C255 1.369 . S
C254 C258 1.531 . S
C255 C254 1.369 . S
C255 C256 1.410 . S
C255 C263 1.503 . S
C256 C255 1.410 . S
C256 C257 1.392 . S
C256 C259 1.511 1_655 S
C257 C253 1.376 . S
C257 C256 1.392 . S
C257 H269 0.929 1_655 S
C258 C254 1.531 . S
C258 H270 0.960 . S
C258 H271 0.962 . S
C258 H272 0.960 . S
C259 C256 1.511 1_455 S
C259 H273 0.961 . S
C259 H274 0.961 . S
C259 H275 0.961 . S
C260 C261 1.370 . S
C260 C262 1.363 . S
C260 H276 0.931 . S
C261 C260 1.370 . S
C261 C265 1.408 . S
C262 C260 1.363 . S
C262 C263 1.370 . S
C262 C266 1.524 . S
C263 C255 1.503 . S
C263 C262 1.370 . S
C263 C264 1.403 . S
C264 C263 1.403 . S
C264 C265 1.404 . S
C264 C267 1.539 . S
C265 C261 1.408 . S
C265 C264 1.404 . S
C265 H277 0.930 . S
C266 C262 1.524 . S
C266 H278 0.956 . S
C266 H279 0.961 . S
C266 H280 0.961 . S
C267 C264 1.539 . S
C267 H281 0.958 . S
C267 H282 0.961 . S
C267 H283 0.960 . S
H268 C252 0.931 . S
H269 C257 0.929 1_455 S
H270 C258 0.960 . S
H271 C258 0.962 . S
H272 C258 0.960 . S
H273 C259 0.961 . S
H274 C259 0.961 . S
H275 C259 0.961 . S
H276 C260 0.931 . S
H277 C265 0.930 . S
H278 C266 0.956 . S
H279 C266 0.961 . S
H280 C266 0.961 . S
H281 C267 0.958 . S
H282 C267 0.961 . S
H283 C267 0.960 . S
C284 C285 1.391 . S
C284 C286 1.394 . S
C284 H300 0.931 . S
C285 C284 1.391 . S
C285 C289 1.376 . S
C286 C284 1.394 . S
C286 C287 1.369 . S
C286 C290 1.531 . S
C287 C286 1.369 . S
C287 C288 1.410 . S
C287 C295 1.503 . S
C288 C287 1.410 . S
C288 C289 1.392 . S
C288 C291 1.511 . S
C289 C285 1.376 . S
C289 C288 1.392 . S
C289 H301 0.929 . S
C290 C286 1.531 . S
C290 H302 0.960 . S
C290 H303 0.962 1_565 S
C290 H304 0.960 . S
C291 C288 1.511 . S
C291 H305 0.961 . S
C291 H306 0.961 . S
C291 H307 0.961 . S
C292 C293 1.370 . S
C292 C294 1.363 . S
C292 H308 0.908 1_565 S
C293 C292 1.370 . S
C293 C297 1.408 . S
C294 C292 1.363 . S
C294 C295 1.370 . S
C294 C298 1.524 1_565 S
C295 C287 1.503 . S
C295 C294 1.370 . S
C295 C296 1.403 . S
C296 C295 1.403 . S
C296 C297 1.404 . S
C296 C299 1.539 . S
C297 C293 1.408 . S
C297 C296 1.404 . S
C297 H309 0.930 . S
C298 C294 1.524 1_545 S
C298 H310 0.956 . S
C298 H311 0.961 1_545 S
C298 H312 0.961 . S
C299 C296 1.539 . S
C299 H313 0.958 . S
C299 H314 0.961 . S
C299 H315 0.960 . S
H300 C284 0.931 . S
H301 C289 0.929 . S
H302 C290 0.960 . S
H303 C290 0.962 1_545 S
H304 C290 0.960 . S
H305 C291 0.961 . S
H306 C291 0.961 . S
H307 C291 0.961 . S
H308 C292 0.908 1_545 S
H309 C297 0.930 . S
H310 C298 0.956 . S
H311 C298 0.961 1_565 S
H312 C298 0.961 . S
H313 C299 0.958 . S
H314 C299 0.961 . S
H315 C299 0.960 . S
C316 C317 1.391 . S
C316 C318 1.394 . S
C316 H332 0.931 . S
C317 C316 1.391 . S
C317 C321 1.376 . S
C318 C316 1.394 . S
C318 C319 1.369 . S
C318 C322 1.531 . S
C319 C318 1.369 . S
C319 C320 1.410 . S
C319 C327 1.503 . S
C320 C319 1.410 . S
C320 C321 1.392 . S
C320 C323 1.511 . S
C321 C317 1.376 . S
C321 C320 1.392 . S
C321 H333 0.929 . S
C322 C318 1.531 . S
C322 H334 0.960 . S
C322 H335 0.962 . S
C322 H336 0.960 . S
C323 C320 1.511 . S
C323 H337 0.961 . S
C323 H338 0.961 . S
C323 H339 0.961 . S
C324 C325 1.370 . S
C324 C326 1.363 . S
C324 H340 0.931 . S
C325 C324 1.370 . S
C325 C329 1.408 . S
C326 C324 1.363 . S
C326 C327 1.370 . S
C326 C330 1.524 . S
C327 C319 1.503 . S
C327 C326 1.370 . S
C327 C328 1.403 . S
C328 C327 1.403 . S
C328 C329 1.404 . S
C328 C331 1.539 . S
C329 C325 1.408 . S
C329 C328 1.404 . S
C329 H341 0.930 . S
C330 C326 1.524 . S
C330 H342 0.956 . S
C330 H343 0.961 . S
C330 H344 0.961 . S
C331 C328 1.539 . S
C331 H345 0.958 . S
C331 H346 0.961 . S
C331 H347 0.960 . S
H332 C316 0.931 . S
H333 C321 0.929 . S
H334 C322 0.960 . S
H335 C322 0.962 . S
H336 C322 0.960 . S
H337 C323 0.961 . S
H338 C323 0.961 . S
H339 C323 0.961 . S
H340 C324 0.931 . S
H341 C329 0.930 . S
H342 C330 0.956 . S
H343 C330 0.961 . S
H344 C330 0.961 . S
H345 C331 0.958 . S
H346 C331 0.961 . S
H347 C331 0.960 . S
C348 C349 1.391 . S
C348 C350 1.394 . S
C348 H364 0.931 . S
C349 C348 1.391 . S
C349 C353 1.376 . S
C350 C348 1.394 . S
C350 C351 1.369 . S
C350 C354 1.531 . S
C351 C350 1.369 . S
C351 C352 1.410 . S
C351 C359 1.503 . S
C352 C351 1.410 . S
C352 C353 1.392 . S
C352 C355 1.511 . S
C353 C349 1.376 . S
C353 C352 1.392 . S
C353 H365 0.929 . S
C354 C350 1.531 . S
C354 H366 0.960 . S
C354 H367 0.962 . S
C354 H368 0.960 . S
C355 C352 1.511 . S
C355 H369 0.961 . S
C355 H370 0.961 . S
C355 H371 0.961 . S
C356 C357 1.370 . S
C356 C358 1.363 . S
C356 H372 0.931 . S
C357 C356 1.370 . S
C357 C361 1.408 . S
C358 C356 1.363 . S
C358 C359 1.370 . S
C358 C362 1.524 . S
C359 C351 1.503 . S
C359 C358 1.370 . S
C359 C360 1.403 . S
C360 C359 1.403 . S
C360 C361 1.404 . S
C360 C363 1.539 . S
C361 C357 1.408 . S
C361 C360 1.404 . S
C361 H373 0.930 . S
C362 C358 1.524 . S
C362 H374 0.956 . S
C362 H375 0.961 . S
C362 H376 0.961 . S
C363 C360 1.539 . S
C363 H377 0.958 . S
C363 H378 0.961 . S
C363 H379 0.960 . S
H364 C348 0.931 . S
H365 C353 0.929 . S
H366 C354 0.960 . S
H367 C354 0.962 . S
H368 C354 0.960 . S
H369 C355 0.961 . S
H370 C355 0.961 . S
H371 C355 0.961 . S
H372 C356 0.931 . S
H373 C361 0.930 . S
H374 C362 0.956 . S
H375 C362 0.961 . S
H376 C362 0.961 . S
H377 C363 0.958 . S
H378 C363 0.961 . S
H379 C363 0.960 . S
C380 C381 1.391 . S
C380 C382 1.394 . S
C380 H396 0.931 . S
C381 C380 1.391 . S
C381 C385 1.376 . S
C382 C380 1.394 . S
C382 C383 1.369 . S
C382 C386 1.531 . S
C383 C382 1.369 . S
C383 C384 1.410 . S
C383 C391 1.503 . S
C384 C383 1.410 . S
C384 C385 1.392 . S
C384 C387 1.511 . S
C385 C381 1.376 . S
C385 C384 1.392 . S
C385 H397 0.929 . S
C386 C382 1.531 . S
C386 H398 0.960 . S
C386 H399 0.962 . S
C386 H400 0.960 . S
C387 C384 1.511 . S
C387 H401 0.961 . S
C387 H402 0.961 . S
C387 H403 0.961 . S
C388 C389 1.370 . S
C388 C390 1.363 . S
C388 H404 0.931 . S
C389 C388 1.370 . S
C389 C393 1.408 . S
C390 C388 1.363 . S
C390 C391 1.370 . S
C390 C394 1.524 . S
C391 C383 1.503 . S
C391 C390 1.370 . S
C391 C392 1.403 . S
C392 C391 1.403 . S
C392 C393 1.404 . S
C392 C395 1.539 . S
C393 C389 1.408 . S
C393 C392 1.404 . S
C393 H405 0.930 . S
C394 C390 1.524 . S
C394 H406 0.956 . S
C394 H407 0.961 . S
C394 H408 0.961 . S
C395 C392 1.539 . S
C395 H409 0.958 . S
C395 H410 0.961 . S
C395 H411 0.960 . S
H396 C380 0.931 . S
H397 C385 0.929 . S
H398 C386 0.960 . S
H399 C386 0.962 . S
H400 C386 0.960 . S
H401 C387 0.961 . S
H402 C387 0.961 . S
H403 C387 0.961 . S
H404 C388 0.931 . S
H405 C393 0.930 . S
H406 C394 0.956 . S
H407 C394 0.961 . S
H408 C394 0.961 . S
H409 C395 0.958 . S
H410 C395 0.961 . S
H411 C395 0.960 . S
C412 C413 1.391 . S
C412 C414 1.394 . S
C412 H428 0.931 . S
C413 C412 1.391 . S
C413 C417 1.376 . S
C414 C412 1.394 . S
C414 C415 1.369 . S
C414 C418 1.531 . S
C415 C414 1.369 . S
C415 C416 1.410 . S
C415 C423 1.503 . S
C416 C415 1.410 . S
C416 C417 1.392 . S
C416 C419 1.511 . S
C417 C413 1.376 . S
C417 C416 1.392 . S
C417 H429 0.929 . S
C418 C414 1.531 . S
C418 H430 0.960 . S
C418 H431 0.962 . S
C418 H432 0.960 . S
C419 C416 1.511 . S
C419 H433 0.961 . S
C419 H434 0.961 . S
C419 H435 0.961 . S
C420 C421 1.370 . S
C420 C422 1.363 . S
C420 H436 0.931 . S
C421 C420 1.370 . S
C421 C425 1.408 . S
C422 C420 1.363 . S
C422 C423 1.370 . S
C422 C426 1.524 . S
C423 C415 1.503 . S
C423 C422 1.370 . S
C423 C424 1.403 . S
C424 C423 1.403 . S
C424 C425 1.404 . S
C424 C427 1.539 . S
C425 C421 1.408 . S
C425 C424 1.404 . S
C425 H437 0.930 . S
C426 C422 1.524 . S
C426 H438 0.956 . S
C426 H439 0.961 . S
C426 H440 0.961 . S
C427 C424 1.539 . S
C427 H441 0.958 . S
C427 H442 0.961 . S
C427 H443 0.960 . S
H428 C412 0.931 . S
H429 C417 0.929 . S
H430 C418 0.960 . S
H431 C418 0.962 . S
H432 C418 0.960 . S
H433 C419 0.961 . S
H434 C419 0.961 . S
H435 C419 0.961 . S
H436 C420 0.931 . S
H437 C425 0.930 . S
H438 C426 0.956 . S
H439 C426 0.961 . S
H440 C426 0.961 . S
H441 C427 0.958 . S
H442 C427 0.961 . S
H443 C427 0.960 . S
C444 C445 1.391 . S
C444 C446 1.394 . S
C444 H460 0.931 . S
C445 C444 1.391 . S
C445 C449 1.376 . S
C446 C444 1.394 . S
C446 C447 1.369 . S
C446 C450 1.531 . S
C447 C446 1.369 . S
C447 C448 1.410 . S
C447 C455 1.503 . S
C448 C447 1.410 . S
C448 C449 1.392 . S
C448 C451 1.511 . S
C449 C445 1.376 . S
C449 C448 1.392 . S
C449 H461 0.929 . S
C450 C446 1.531 . S
C450 H462 0.960 . S
C450 H463 0.962 . S
C450 H464 0.960 . S
C451 C448 1.511 . S
C451 H465 0.961 . S
C451 H466 0.961 . S
C451 H467 0.961 . S
C452 C453 1.370 . S
C452 C454 1.363 . S
C452 H468 0.931 . S
C453 C452 1.370 . S
C453 C457 1.408 . S
C454 C452 1.363 . S
C454 C455 1.370 . S
C454 C458 1.524 . S
C455 C447 1.503 . S
C455 C454 1.370 . S
C455 C456 1.403 . S
C456 C455 1.403 . S
C456 C457 1.404 . S
C456 C459 1.539 . S
C457 C453 1.408 . S
C457 C456 1.404 . S
C457 H469 0.930 . S
C458 C454 1.524 . S
C458 H470 0.956 . S
C458 H471 0.961 . S
C458 H472 0.961 . S
C459 C456 1.539 . S
C459 H473 0.958 . S
C459 H474 0.961 . S
C459 H475 0.960 . S
H460 C444 0.931 . S
H461 C449 0.929 . S
H462 C450 0.960 . S
H463 C450 0.962 . S
H464 C450 0.960 . S
H465 C451 0.961 . S
H466 C451 0.961 . S
H467 C451 0.961 . S
H468 C452 0.931 . S
H469 C457 0.930 . S
H470 C458 0.956 . S
H471 C458 0.961 . S
H472 C458 0.961 . S
H473 C459 0.958 . S
H474 C459 0.961 . S
H475 C459 0.960 . S
C476 C477 1.391 . S
C476 C478 1.394 . S
C476 H492 0.931 . S
C477 C476 1.391 . S
C477 C481 1.376 . S
C478 C476 1.394 . S
C478 C479 1.369 . S
C478 C482 1.531 . S
C479 C478 1.369 . S
C479 C480 1.410 . S
C479 C487 1.503 . S
C480 C479 1.410 . S
C480 C481 1.392 . S
C480 C483 1.511 . S
C481 C477 1.376 . S
C481 C480 1.392 . S
C481 H493 0.929 . S
C482 C478 1.531 . S
C482 H494 0.960 . S
C482 H495 0.962 . S
C482 H496 0.960 . S
C483 C480 1.511 . S
C483 H497 0.961 . S
C483 H498 0.961 . S
C483 H499 0.961 . S
C484 C485 1.370 . S
C484 C486 1.363 . S
C484 H500 0.931 . S
C485 C484 1.370 . S
C485 C489 1.408 . S
C486 C484 1.363 . S
C486 C487 1.370 . S
C486 C490 1.524 . S
C487 C479 1.503 . S
C487 C486 1.370 . S
C487 C488 1.403 . S
C488 C487 1.403 . S
C488 C489 1.404 . S
C488 C491 1.539 . S
C489 C485 1.408 . S
C489 C488 1.404 . S
C489 H501 0.930 . S
C490 C486 1.524 . S
C490 H502 0.956 . S
C490 H503 0.961 . S
C490 H504 0.961 . S
C491 C488 1.539 . S
C491 H505 0.958 . S
C491 H506 0.961 . S
C491 H507 0.960 . S
H492 C476 0.931 . S
H493 C481 0.929 . S
H494 C482 0.960 . S
H495 C482 0.962 . S
H496 C482 0.960 . S
H497 C483 0.961 . S
H498 C483 0.961 . S
H499 C483 0.961 . S
H500 C484 0.931 . S
H501 C489 0.930 . S
H502 C490 0.956 . S
H503 C490 0.961 . S
H504 C490 0.961 . S
H505 C491 0.958 . S
H506 C491 0.961 . S
H507 C491 0.960 . S
C508 C509 1.391 . S
C508 C510 1.394 . S
C508 H524 0.931 . S
C509 C508 1.391 . S
C509 C513 1.376 . S
C510 C508 1.394 . S
C510 C511 1.369 . S
C510 C514 1.531 . S
C511 C510 1.369 . S
C511 C512 1.410 . S
C511 C519 1.503 . S
C512 C511 1.410 . S
C512 C513 1.392 . S
C512 C515 1.511 . S
C513 C509 1.376 . S
C513 C512 1.392 . S
C513 H525 0.929 . S
C514 C510 1.531 . S
C514 H526 0.960 . S
C514 H527 0.962 . S
C514 H528 0.960 . S
C515 C512 1.511 . S
C515 H529 0.961 . S
C515 H530 0.961 . S
C515 H531 0.961 . S
C516 C517 1.370 . S
C516 C518 1.363 . S
C516 H532 0.931 . S
C517 C516 1.370 . S
C517 C521 1.408 . S
C518 C516 1.363 . S
C518 C519 1.370 . S
C518 C522 1.524 . S
C519 C511 1.503 . S
C519 C518 1.370 . S
C519 C520 1.403 . S
C520 C519 1.403 . S
C520 C521 1.404 . S
C520 C523 1.539 . S
C521 C517 1.408 . S
C521 C520 1.404 . S
C521 H533 0.930 . S
C522 C518 1.524 . S
C522 H534 0.956 . S
C522 H535 0.961 . S
C522 H536 0.961 . S
C523 C520 1.539 . S
C523 H537 0.958 . S
C523 H538 0.961 . S
C523 H539 0.960 . S
H524 C508 0.931 . S
H525 C513 0.929 . S
H526 C514 0.960 . S
H527 C514 0.962 . S
H528 C514 0.960 . S
H529 C515 0.961 . S
H530 C515 0.961 . S
H531 C515 0.961 . S
H532 C516 0.931 . S
H533 C521 0.930 . S
H534 C522 0.956 . S
H535 C522 0.961 . S
H536 C522 0.961 . S
H537 C523 0.958 . S
H538 C523 0.961 . S
H539 C523 0.960 . S
C540 C541 1.391 . S
C540 C542 1.394 . S
C540 H556 0.931 . S
C541 C540 1.391 . S
C541 C545 1.376 . S
C542 C540 1.394 . S
C542 C543 1.369 . S
C542 C546 1.531 . S
C543 C542 1.369 . S
C543 C544 1.410 . S
C543 C551 1.503 . S
C544 C543 1.410 . S
C544 C545 1.392 . S
C544 C547 1.511 . S
C545 C541 1.376 . S
C545 C544 1.392 . S
C545 H557 0.929 . S
C546 C542 1.531 . S
C546 H558 0.960 . S
C546 H559 0.962 . S
C546 H560 0.960 . S
C547 C544 1.511 . S
C547 H561 0.961 . S
C547 H562 0.961 . S
C547 H563 0.961 . S
C548 C549 1.370 . S
C548 C550 1.363 . S
C548 H564 0.931 . S
C549 C548 1.370 . S
C549 C553 1.408 . S
C550 C548 1.363 . S
C550 C551 1.370 . S
C550 C554 1.524 . S
C551 C543 1.503 . S
C551 C550 1.370 . S
C551 C552 1.403 . S
C552 C551 1.403 . S
C552 C553 1.404 . S
C552 C555 1.539 . S
C553 C549 1.408 . S
C553 C552 1.404 . S
C553 H565 0.930 . S
C554 C550 1.524 . S
C554 H566 0.956 . S
C554 H567 0.961 . S
C554 H568 0.961 . S
C555 C552 1.539 . S
C555 H569 0.958 . S
C555 H570 0.961 . S
C555 H571 0.960 . S
H556 C540 0.931 . S
H557 C545 0.929 . S
H558 C546 0.960 . S
H559 C546 0.962 . S
H560 C546 0.960 . S
H561 C547 0.961 . S
H562 C547 0.961 . S
H563 C547 0.961 . S
H564 C548 0.931 . S
H565 C553 0.930 . S
H566 C554 0.956 . S
H567 C554 0.961 . S
H568 C554 0.961 . S
H569 C555 0.958 . S
H570 C555 0.961 . S
H571 C555 0.960 . S
C572 C573 1.391 . S
C572 C574 1.394 . S
C572 H588 0.931 . S
C573 C572 1.391 . S
C573 C577 1.376 . S
C574 C572 1.394 . S
C574 C575 1.369 . S
C574 C578 1.531 . S
C575 C574 1.369 . S
C575 C576 1.410 . S
C575 C583 1.503 . S
C576 C575 1.410 . S
C576 C577 1.392 . S
C576 C579 1.511 . S
C577 C573 1.376 . S
C577 C576 1.392 . S
C577 H589 0.929 . S
C578 C574 1.531 . S
C578 H590 0.960 . S
C578 H591 0.962 . S
C578 H592 0.960 . S
C579 C576 1.511 . S
C579 H593 0.961 . S
C579 H594 0.961 . S
C579 H595 0.961 . S
C580 C581 1.370 . S
C580 C582 1.363 . S
C580 H596 0.931 1_556 S
C581 C580 1.370 . S
C581 C585 1.408 . S
C582 C580 1.363 . S
C582 C583 1.370 . S
C582 C586 1.524 . S
C583 C575 1.503 . S
C583 C582 1.370 . S
C583 C584 1.403 . S
C584 C583 1.403 . S
C584 C585 1.404 . S
C584 C587 1.539 . S
C585 C581 1.408 . S
C585 C584 1.404 . S
C585 H597 0.930 . S
C586 C582 1.524 . S
C586 H598 0.956 . S
C586 H599 0.961 . S
C586 H600 0.961 . S
C587 C584 1.539 . S
C587 H601 0.958 . S
C587 H602 0.961 . S
C587 H603 0.960 . S
H588 C572 0.931 . S
H589 C577 0.929 . S
H590 C578 0.960 . S
H591 C578 0.962 . S
H592 C578 0.960 . S
H593 C579 0.961 . S
H594 C579 0.961 . S
H595 C579 0.961 . S
H596 C580 0.931 1_554 S
H597 C585 0.930 . S
H598 C586 0.956 . S
H599 C586 0.961 . S
H600 C586 0.961 . S
H601 C587 0.958 . S
H602 C587 0.961 . S
H603 C587 0.960 . S
C604 C605 1.391 . S
C604 C606 1.394 . S
C604 H620 0.931 . S
C605 C604 1.391 . S
C605 C609 1.376 . S
C606 C604 1.394 . S
C606 C607 1.369 . S
C606 C610 1.531 . S
C607 C606 1.369 . S
C607 C608 1.410 . S
C607 C615 1.503 . S
C608 C607 1.410 . S
C608 C609 1.392 . S
C608 C611 1.511 . S
C609 C605 1.376 . S
C609 C608 1.392 . S
C609 H621 0.929 . S
C610 C606 1.531 . S
C610 H622 0.960 . S
C610 H623 0.962 . S
C610 H624 0.960 . S
C611 C608 1.511 . S
C611 H625 0.961 . S
C611 H626 0.961 . S
C611 H627 0.961 . S
C612 C613 1.370 . S
C612 C614 1.363 . S
C612 H628 0.931 . S
C613 C612 1.370 . S
C613 C617 1.408 . S
C614 C612 1.363 . S
C614 C615 1.370 . S
C614 C618 1.524 . S
C615 C607 1.503 . S
C615 C614 1.370 . S
C615 C616 1.403 . S
C616 C615 1.403 . S
C616 C617 1.404 . S
C616 C619 1.539 . S
C617 C613 1.408 . S
C617 C616 1.404 . S
C617 H629 0.930 . S
C618 C614 1.524 . S
C618 H630 0.956 . S
C618 H631 0.961 . S
C618 H632 0.961 . S
C619 C616 1.539 . S
C619 H633 0.958 . S
C619 H634 0.961 . S
C619 H635 0.960 . S
H620 C604 0.931 . S
H621 C609 0.929 . S
H622 C610 0.960 . S
H623 C610 0.962 . S
H624 C610 0.960 . S
H625 C611 0.961 . S
H626 C611 0.961 . S
H627 C611 0.961 . S
H628 C612 0.931 . S
H629 C617 0.930 . S
H630 C618 0.956 . S
H631 C618 0.961 . S
H632 C618 0.961 . S
H633 C619 0.958 . S
H634 C619 0.961 . S
H635 C619 0.960 . S
C636 C637 1.391 . S
C636 C638 1.394 . S
C636 H652 0.931 . S
C637 C636 1.391 . S
C637 C641 1.376 . S
C638 C636 1.394 . S
C638 C639 1.369 . S
C638 C642 1.531 . S
C639 C638 1.369 . S
C639 C640 1.410 . S
C639 C647 1.503 . S
C640 C639 1.410 . S
C640 C641 1.392 . S
C640 C643 1.511 . S
C641 C637 1.376 . S
C641 C640 1.392 . S
C641 H653 0.929 . S
C642 C638 1.531 . S
C642 H654 0.960 . S
C642 H655 0.962 . S
C642 H656 0.960 . S
C643 C640 1.511 . S
C643 H657 0.961 . S
C643 H658 0.961 . S
C643 H659 0.961 . S
C644 C645 1.370 . S
C644 C646 1.363 . S
C644 H660 0.931 . S
C645 C644 1.370 . S
C645 C649 1.408 . S
C646 C644 1.363 . S
C646 C647 1.370 . S
C646 C650 1.524 . S
C647 C639 1.503 . S
C647 C646 1.370 . S
C647 C648 1.403 . S
C648 C647 1.403 . S
C648 C649 1.404 . S
C648 C651 1.539 . S
C649 C645 1.408 . S
C649 C648 1.404 . S
C649 H661 0.930 . S
C650 C646 1.524 . S
C650 H662 0.956 . S
C650 H663 0.961 . S
C650 H664 0.961 . S
C651 C648 1.539 . S
C651 H665 0.958 . S
C651 H666 0.961 . S
C651 H667 0.960 . S
H652 C636 0.931 . S
H653 C641 0.929 . S
H654 C642 0.960 . S
H655 C642 0.962 . S
H656 C642 0.960 . S
H657 C643 0.961 . S
H658 C643 0.961 . S
H659 C643 0.961 . S
H660 C644 0.931 . S
H661 C649 0.930 . S
H662 C650 0.956 . S
H663 C650 0.961 . S
H664 C650 0.961 . S
H665 C651 0.958 . S
H666 C651 0.961 . S
H667 C651 0.960 . S
C668 C669 1.391 . S
C668 C670 1.394 . S
C668 H684 0.931 . S
C669 C668 1.391 . S
C669 C673 1.376 . S
C670 C668 1.394 . S
C670 C671 1.369 . S
C670 C674 1.531 . S
C671 C670 1.369 . S
C671 C672 1.410 . S
C671 C679 1.503 . S
C672 C671 1.410 . S
C672 C673 1.392 . S
C672 C675 1.511 . S
C673 C669 1.376 . S
C673 C672 1.392 . S
C673 H685 0.929 . S
C674 C670 1.531 . S
C674 H686 0.960 . S
C674 H687 0.962 . S
C674 H688 0.960 . S
C675 C672 1.511 . S
C675 H689 0.961 . S
C675 H690 0.961 . S
C675 H691 0.961 . S
C676 C677 1.370 . S
C676 C678 1.363 . S
C676 H692 0.931 . S
C677 C676 1.370 . S
C677 C681 1.408 . S
C678 C676 1.363 . S
C678 C679 1.370 . S
C678 C682 1.524 . S
C679 C671 1.503 . S
C679 C678 1.370 . S
C679 C680 1.403 . S
C680 C679 1.403 . S
C680 C681 1.404 . S
C680 C683 1.539 . S
C681 C677 1.408 . S
C681 C680 1.404 . S
C681 H693 0.930 . S
C682 C678 1.524 . S
C682 H694 0.956 . S
C682 H695 0.961 . S
C682 H696 0.961 . S
C683 C680 1.539 . S
C683 H697 0.958 . S
C683 H698 0.961 . S
C683 H699 0.960 . S
H684 C668 0.931 . S
H685 C673 0.929 . S
H686 C674 0.960 . S
H687 C674 0.962 . S
H688 C674 0.960 . S
H689 C675 0.961 . S
H690 C675 0.961 . S
H691 C675 0.961 . S
H692 C676 0.931 . S
H693 C681 0.930 . S
H694 C682 0.956 . S
H695 C682 0.961 . S
H696 C682 0.961 . S
H697 C683 0.958 . S
H698 C683 0.961 . S
H699 C683 0.960 . S
C700 C701 1.391 . S
C700 C702 1.394 . S
C700 H716 0.931 . S
C701 C700 1.391 . S
C701 C705 1.376 . S
C702 C700 1.394 . S
C702 C703 1.369 . S
C702 C706 1.531 . S
C703 C702 1.369 . S
C703 C704 1.410 . S
C703 C711 1.503 . S
C704 C703 1.410 . S
C704 C705 1.392 . S
C704 C707 1.511 . S
C705 C701 1.376 . S
C705 C704 1.392 . S
C705 H717 0.929 . S
C706 C702 1.531 . S
C706 H718 0.960 . S
C706 H719 0.962 . S
C706 H720 0.960 . S
C707 C704 1.511 . S
C707 H721 0.961 . S
C707 H722 0.961 . S
C707 H723 0.961 . S
C708 C709 1.370 . S
C708 C710 1.363 . S
C708 H724 0.931 . S
C709 C708 1.370 . S
C709 C713 1.408 . S
C710 C708 1.363 . S
C710 C711 1.370 . S
C710 C714 1.524 . S
C711 C703 1.503 . S
C711 C710 1.370 . S
C711 C712 1.403 . S
C712 C711 1.403 . S
C712 C713 1.404 . S
C712 C715 1.539 . S
C713 C709 1.408 . S
C713 C712 1.404 . S
C713 H725 0.920 1_545 S
C714 C710 1.524 . S
C714 H726 0.956 . S
C714 H727 0.961 . S
C714 H728 0.961 . S
C715 C712 1.539 . S
C715 H729 0.958 . S
C715 H730 0.961 . S
C715 H731 0.960 . S
H716 C700 0.931 . S
H717 C705 0.929 . S
H718 C706 0.960 . S
H719 C706 0.962 . S
H720 C706 0.960 . S
H721 C707 0.961 . S
H722 C707 0.961 . S
H723 C707 0.961 . S
H724 C708 0.931 . S
H725 C713 0.920 1_565 S
H726 C714 0.956 . S
H727 C714 0.961 . S
H728 C714 0.961 . S
H729 C715 0.958 . S
H730 C715 0.961 . S
H731 C715 0.960 . S
C732 C733 1.391 . S
C732 C734 1.394 . S
C732 H748 0.931 . S
C733 C732 1.391 . S
C733 C737 1.376 . S
C734 C732 1.394 . S
C734 C735 1.369 . S
C734 C738 1.531 . S
C735 C734 1.369 . S
C735 C736 1.410 . S
C735 C743 1.503 . S
C736 C735 1.410 . S
C736 C737 1.392 . S
C736 C739 1.511 . S
C737 C733 1.376 . S
C737 C736 1.392 . S
C737 H749 0.929 . S
C738 C734 1.531 . S
C738 H750 0.960 . S
C738 H751 0.962 . S
C738 H752 0.960 . S
C739 C736 1.511 . S
C739 H753 0.961 . S
C739 H754 0.961 . S
C739 H755 0.961 . S
C740 C741 1.370 . S
C740 C742 1.363 . S
C740 H756 0.931 . S
C741 C740 1.370 . S
C741 C745 1.408 . S
C742 C740 1.363 . S
C742 C743 1.370 . S
C742 C746 1.524 . S
C743 C735 1.503 . S
C743 C742 1.370 . S
C743 C744 1.403 . S
C744 C743 1.403 . S
C744 C745 1.404 . S
C744 C747 1.539 . S
C745 C741 1.408 . S
C745 C744 1.404 . S
C745 H757 0.930 . S
C746 C742 1.524 . S
C746 H758 0.956 . S
C746 H759 0.961 . S
C746 H760 0.961 . S
C747 C744 1.539 . S
C747 H761 0.958 . S
C747 H762 0.961 . S
C747 H763 0.960 . S
H748 C732 0.931 . S
H749 C737 0.929 . S
H750 C738 0.960 . S
H751 C738 0.962 . S
H752 C738 0.960 . S
H753 C739 0.961 . S
H754 C739 0.961 . S
H755 C739 0.961 . S
H756 C740 0.931 . S
H757 C745 0.930 . S
H758 C746 0.956 . S
H759 C746 0.961 . S
H760 C746 0.961 . S
H761 C747 0.958 . S
H762 C747 0.961 . S
H763 C747 0.960 . S
C764 C765 1.391 . S
C764 C766 1.394 . S
C764 H780 0.931 . S
C765 C764 1.391 . S
C765 C769 1.376 . S
C766 C764 1.394 . S
C766 C767 1.369 . S
C766 C770 1.531 . S
C767 C766 1.369 . S
C767 C768 1.410 . S
C767 C775 1.503 . S
C768 C767 1.410 . S
C768 C769 1.392 . S
C768 C771 1.511 . S
C769 C765 1.376 . S
C769 C768 1.392 . S
C769 H781 0.929 . S
C770 C766 1.531 . S
C770 H782 0.960 . S
C770 H783 0.962 . S
C770 H784 0.960 . S
C771 C768 1.511 . S
C771 H785 0.961 . S
C771 H786 0.961 . S
C771 H787 0.961 . S
C772 C773 1.370 . S
C772 C774 1.363 . S
C772 H788 0.931 . S
C773 C772 1.370 . S
C773 C777 1.408 . S
C774 C772 1.363 . S
C774 C775 1.370 . S
C774 C778 1.524 . S
C775 C767 1.503 . S
C775 C774 1.370 . S
C775 C776 1.403 . S
C776 C775 1.403 . S
C776 C777 1.404 . S
C776 C779 1.539 . S
C777 C773 1.408 . S
C777 C776 1.404 . S
C777 H789 0.930 . S
C778 C774 1.524 . S
C778 H790 0.956 . S
C778 H791 0.961 . S
C778 H792 0.961 . S
C779 C776 1.539 . S
C779 H793 0.958 . S
C779 H794 0.961 . S
C779 H795 0.960 . S
H780 C764 0.931 . S
H781 C769 0.929 . S
H782 C770 0.960 . S
H783 C770 0.962 . S
H784 C770 0.960 . S
H785 C771 0.961 . S
H786 C771 0.961 . S
H787 C771 0.961 . S
H788 C772 0.931 . S
H789 C777 0.930 . S
H790 C778 0.956 . S
H791 C778 0.961 . S
H792 C778 0.961 . S
H793 C779 0.958 . S
H794 C779 0.961 . S
H795 C779 0.960 . S
C796 C797 1.391 . S
C796 C798 1.394 . S
C796 H812 0.931 . S
C797 C796 1.391 . S
C797 C801 1.376 . S
C798 C796 1.394 . S
C798 C799 1.369 . S
C798 C802 1.531 . S
C799 C798 1.369 . S
C799 C800 1.410 . S
C799 C807 1.503 . S
C800 C799 1.410 . S
C800 C801 1.392 . S
C800 C803 1.511 . S
C801 C797 1.376 . S
C801 C800 1.392 . S
C801 H813 0.929 . S
C802 C798 1.531 . S
C802 H814 0.960 . S
C802 H815 0.962 . S
C802 H816 0.960 . S
C803 C800 1.511 . S
C803 H817 0.961 . S
C803 H818 0.961 . S
C803 H819 0.961 . S
C804 C805 1.370 . S
C804 C806 1.363 . S
C804 H820 0.931 . S
C805 C804 1.370 . S
C805 C809 1.408 . S
C806 C804 1.363 . S
C806 C807 1.370 . S
C806 C810 1.524 . S
C807 C799 1.503 . S
C807 C806 1.370 . S
C807 C808 1.403 . S
C808 C807 1.403 . S
C808 C809 1.404 . S
C808 C811 1.539 . S
C809 C805 1.408 . S
C809 C808 1.404 . S
C809 H821 0.930 . S
C810 C806 1.524 . S
C810 H822 0.956 . S
C810 H823 0.961 . S
C810 H824 0.961 . S
C811 C808 1.539 . S
C811 H825 0.958 . S
C811 H826 0.961 . S
C811 H827 0.960 . S
H812 C796 0.931 . S
H813 C801 0.929 . S
H814 C802 0.960 . S
H815 C802 0.962 . S
H816 C802 0.960 . S
H817 C803 0.961 . S
H818 C803 0.961 . S
H819 C803 0.961 . S
H820 C804 0.931 . S
H821 C809 0.930 . S
H822 C810 0.956 . S
H823 C810 0.961 . S
H824 C810 0.961 . S
H825 C811 0.958 . S
H826 C811 0.961 . S
H827 C811 0.960 . S
C828 C829 1.391 . S
C828 C830 1.394 . S
C828 H844 0.931 . S
C829 C828 1.391 . S
C829 C833 1.376 . S
C830 C828 1.394 . S
C830 C831 1.369 . S
C830 C834 1.531 . S
C831 C830 1.369 . S
C831 C832 1.410 . S
C831 C839 1.503 . S
C832 C831 1.410 . S
C832 C833 1.392 . S
C832 C835 1.511 . S
C833 C829 1.376 . S
C833 C832 1.392 . S
C833 H845 0.929 . S
C834 C830 1.531 . S
C834 H846 0.960 . S
C834 H847 0.962 . S
C834 H848 0.960 . S
C835 C832 1.511 . S
C835 H849 0.961 . S
C835 H850 0.961 . S
C835 H851 0.961 . S
C836 C837 1.370 . S
C836 C838 1.363 . S
C836 H852 0.931 . S
C837 C836 1.370 . S
C837 C841 1.408 . S
C838 C836 1.363 . S
C838 C839 1.370 . S
C838 C842 1.524 . S
C839 C831 1.503 . S
C839 C838 1.370 . S
C839 C840 1.403 . S
C840 C839 1.403 . S
C840 C841 1.404 . S
C840 C843 1.539 . S
C841 C837 1.408 . S
C841 C840 1.404 . S
C841 H853 0.930 . S
C842 C838 1.524 . S
C842 H854 0.956 . S
C842 H855 0.961 . S
C842 H856 0.961 . S
C843 C840 1.539 . S
C843 H857 0.958 . S
C843 H858 0.961 . S
C843 H859 0.960 . S
H844 C828 0.931 . S
H845 C833 0.929 . S
H846 C834 0.960 . S
H847 C834 0.962 . S
H848 C834 0.960 . S
H849 C835 0.961 . S
H850 C835 0.961 . S
H851 C835 0.961 . S
H852 C836 0.931 . S
H853 C841 0.930 . S
H854 C842 0.956 . S
H855 C842 0.961 . S
H856 C842 0.961 . S
H857 C843 0.958 . S
H858 C843 0.961 . S
H859 C843 0.960 . S
C860 C861 1.391 . S
C860 C862 1.394 . S
C860 H876 0.931 . S
C861 C860 1.391 . S
C861 C865 1.376 . S
C862 C860 1.394 . S
C862 C863 1.369 . S
C862 C866 1.531 . S
C863 C862 1.369 . S
C863 C864 1.410 . S
C863 C871 1.503 . S
C864 C863 1.410 . S
C864 C865 1.392 . S
C864 C867 1.511 . S
C865 C861 1.376 . S
C865 C864 1.392 . S
C865 H877 0.929 . S
C866 C862 1.531 . S
C866 H878 0.960 . S
C866 H879 0.962 . S
C866 H880 0.960 . S
C867 C864 1.511 . S
C867 H881 0.961 . S
C867 H882 0.961 . S
C867 H883 0.961 . S
C868 C869 1.370 . S
C868 C870 1.363 . S
C868 H884 0.931 . S
C869 C868 1.370 . S
C869 C873 1.408 . S
C870 C868 1.363 . S
C870 C871 1.370 . S
C870 C874 1.524 . S
C871 C863 1.503 . S
C871 C870 1.370 . S
C871 C872 1.403 . S
C872 C871 1.403 . S
C872 C873 1.404 . S
C872 C875 1.539 . S
C873 C869 1.408 . S
C873 C872 1.404 . S
C873 H885 0.930 . S
C874 C870 1.524 . S
C874 H886 0.956 . S
C874 H887 0.961 . S
C874 H888 0.961 . S
C875 C872 1.539 . S
C875 H889 0.958 . S
C875 H890 0.961 . S
C875 H891 0.960 . S
H876 C860 0.931 . S
H877 C865 0.929 . S
H878 C866 0.960 . S
H879 C866 0.962 . S
H880 C866 0.960 . S
H881 C867 0.961 . S
H882 C867 0.961 . S
H883 C867 0.961 . S
H884 C868 0.931 . S
H885 C873 0.930 . S
H886 C874 0.956 . S
H887 C874 0.961 . S
H888 C874 0.961 . S
H889 C875 0.958 . S
H890 C875 0.961 . S
H891 C875 0.960 . S
C892 C893 1.391 . S
C892 C894 1.394 . S
C892 H908 0.931 . S
C893 C892 1.391 . S
C893 C897 1.376 . S
C894 C892 1.394 . S
C894 C895 1.369 . S
C894 C898 1.531 . S
C895 C894 1.369 . S
C895 C896 1.410 . S
C895 C903 1.503 . S
C896 C895 1.410 . S
C896 C897 1.392 . S
C896 C899 1.511 . S
C897 C893 1.376 . S
C897 C896 1.392 . S
C897 H909 0.929 . S
C898 C894 1.531 . S
C898 H910 0.960 . S
C898 H911 0.962 . S
C898 H912 0.960 . S
C899 C896 1.511 . S
C899 H913 0.961 . S
C899 H914 0.961 . S
C899 H915 0.961 . S
C900 C901 1.370 . S
C900 C902 1.363 . S
C900 H916 0.931 . S
C901 C900 1.370 . S
C901 C905 1.408 . S
C902 C900 1.363 . S
C902 C903 1.370 . S
C902 C906 1.524 . S
C903 C895 1.503 . S
C903 C902 1.370 . S
C903 C904 1.403 . S
C904 C903 1.403 . S
C904 C905 1.404 . S
C904 C907 1.539 . S
C905 C901 1.408 . S
C905 C904 1.404 . S
C905 H917 0.930 . S
C906 C902 1.524 . S
C906 H918 0.956 . S
C906 H919 0.961 . S
C906 H920 0.961 . S
C907 C904 1.539 . S
C907 H921 0.958 . S
C907 H922 0.961 . S
C907 H923 0.960 . S
H908 C892 0.931 . S
H909 C897 0.929 . S
H910 C898 0.960 . S
H911 C898 0.962 . S
H912 C898 0.960 . S
H913 C899 0.961 . S
H914 C899 0.961 . S
H915 C899 0.961 . S
H916 C900 0.931 . S
H917 C905 0.930 . S
H918 C906 0.956 . S
H919 C906 0.961 . S
H920 C906 0.961 . S
H921 C907 0.958 . S
H922 C907 0.961 . S
H923 C907 0.960 . S
C157 C108 1.327 . S
C165 C4 1.336 . S
C189 C23 1.325 . S
C197 C127 1.330 . S
C221 C36 1.336 . S
C229 C134 1.333 . S
C253 C49 1.334 . S
C261 C153 1.333 . S
C285 C82 1.321 . S
C293 C56 1.332 . S
C317 C75 1.341 . S
C325 C95 1.337 . S
C349 C10 1.540 . S
C357 C70 1.540 . S
C381 C17 1.544 . S
C389 C3 1.531 . S
C413 C30 1.532 . S
C421 C18 1.530 . S
C445 C31 1.511 . S
C453 C43 1.538 . S
C477 C44 1.508 . S
C485 C62 1.543 . S
C509 C55 1.525 . S
C517 C69 1.544 . S
C541 C94 1.520 . S
C549 C88 1.538 . S
C573 C101 1.530 . S
C581 C107 1.541 . S
C605 C122 1.529 . S
C613 C114 1.544 . S
C637 C121 1.542 . S
C645 C133 1.532 . S
C669 C140 1.545 . S
C677 C148 1.525 . S
C701 C147 1.538 . S
C709 C81 1.518 . S
C733 C135 1.294 . S
C741 C5 1.298 . S
C765 C146 1.288 . S
C773 C16 1.296 . S
C797 C83 1.298 . S
C805 C29 1.296 . S
C829 C42 1.290 . S
C837 C96 1.293 . S
C861 C57 1.298 . S
C869 C109 1.296 . S
C893 C120 1.298 . S
C901 C68 1.297 . S
