# Generated by pormake.
# Topology una, (4)-cn, num edge types: 1
# Building blocks:
#     Node 0, Type 0, BuildingBlock: QUQFOY_clean_sbu_1, # of connection points: 4
#     Node 1, Type 0, BuildingBlock: QUQFOY_clean_sbu_1, # of connection points: 4
#     Node 2, Type 0, BuildingBlock: QUQFOY_clean_sbu_1, # of connection points: 4
#     Node 3, Type 0, BuildingBlock: QUQFOY_clean_sbu_1, # of connection points: 4
#     Node 4, Type 0, BuildingBlock: QUQFOY_clean_sbu_1, # of connection points: 4
#     Node 5, Type 0, BuildingBlock: QUQFOY_clean_sbu_1, # of connection points: 4
#     Node 6, Type 0, BuildingBlock: QUQFOY_clean_sbu_1, # of connection points: 4
#     Node 7, Type 0, BuildingBlock: QUQFOY_clean_sbu_1, # of connection points: 4
#     Node 8, Type 0, BuildingBlock: QUQFOY_clean_sbu_1, # of connection points: 4
#     Node 9, Type 0, BuildingBlock: QUQFOY_clean_sbu_1, # of connection points: 4
#     Node 10, Type 0, BuildingBlock: QUQFOY_clean_sbu_1, # of connection points: 4
#     Node 11, Type 0, BuildingBlock: QUQFOY_clean_sbu_1, # of connection points: 4
#     Edge 12, Type (0, 0), BuildingBlock: KIFKEQ_clean_linker_1, # of connection points: 2
#     Edge 13, Type (0, 0), BuildingBlock: KIFKEQ_clean_linker_1, # of connection points: 2
#     Edge 14, Type (0, 0), BuildingBlock: KIFKEQ_clean_linker_1, # of connection points: 2
#     Edge 15, Type (0, 0), BuildingBlock: KIFKEQ_clean_linker_1, # of connection points: 2
#     Edge 16, Type (0, 0), BuildingBlock: KIFKEQ_clean_linker_1, # of connection points: 2
#     Edge 17, Type (0, 0), BuildingBlock: KIFKEQ_clean_linker_1, # of connection points: 2
#     Edge 18, Type (0, 0), BuildingBlock: KIFKEQ_clean_linker_1, # of connection points: 2
#     Edge 19, Type (0, 0), BuildingBlock: KIFKEQ_clean_linker_1, # of connection points: 2
#     Edge 20, Type (0, 0), BuildingBlock: KIFKEQ_clean_linker_1, # of connection points: 2
#     Edge 21, Type (0, 0), BuildingBlock: KIFKEQ_clean_linker_1, # of connection points: 2
#     Edge 22, Type (0, 0), BuildingBlock: KIFKEQ_clean_linker_1, # of connection points: 2
#     Edge 23, Type (0, 0), BuildingBlock: KIFKEQ_clean_linker_1, # of connection points: 2
#     Edge 24, Type (0, 0), BuildingBlock: KIFKEQ_clean_linker_1, # of connection points: 2
#     Edge 25, Type (0, 0), BuildingBlock: KIFKEQ_clean_linker_1, # of connection points: 2
#     Edge 26, Type (0, 0), BuildingBlock: KIFKEQ_clean_linker_1, # of connection points: 2
#     Edge 27, Type (0, 0), BuildingBlock: KIFKEQ_clean_linker_1, # of connection points: 2
#     Edge 28, Type (0, 0), BuildingBlock: KIFKEQ_clean_linker_1, # of connection points: 2
#     Edge 29, Type (0, 0), BuildingBlock: KIFKEQ_clean_linker_1, # of connection points: 2
#     Edge 30, Type (0, 0), BuildingBlock: KIFKEQ_clean_linker_1, # of connection points: 2
#     Edge 31, Type (0, 0), BuildingBlock: KIFKEQ_clean_linker_1, # of connection points: 2
#     Edge 32, Type (0, 0), BuildingBlock: KIFKEQ_clean_linker_1, # of connection points: 2
#     Edge 33, Type (0, 0), BuildingBlock: KIFKEQ_clean_linker_1, # of connection points: 2
#     Edge 34, Type (0, 0), BuildingBlock: KIFKEQ_clean_linker_1, # of connection points: 2
#     Edge 35, Type (0, 0), BuildingBlock: KIFKEQ_clean_linker_1, # of connection points: 2
# Relax obj value: 0.095
# Max RMSD: 0.100
# Mean RMSD: 0.099
data_MOF--net-una--node1-QUQFOY_clean_sbu_1--edge1-KIFKEQ_clean_linker_1
_symmetry_space_group_name_H-M    P1
_symmetry_Int_Tables_number       1
_symmetry_cell_setting            triclinic
loop_
_symmetry_equiv_pos_as_xyz
'x, y, z'
_cell_length_a     59.480704
_cell_length_b     59.45947
_cell_length_c     23.019007
_cell_angle_alpha  89.997282
_cell_angle_beta   90.014864
_cell_angle_gamma 119.94942
loop_
_atom_site_label
_atom_site_type_symbol
_atom_site_fract_x
_atom_site_fract_y
_atom_site_fract_z
_atom_type_partial_charge
O0 O 0.15226 0.48626 0.11635 0.0
Cd1 Cd 0.15014 0.45096 0.09884 0.0
Cd2 Cd 0.1972 0.4811 0.04725 0.0
O3 O 0.18842 0.50966 0.0669 0.0
O4 O 0.11316 0.42359 0.08493 0.0
O5 O 0.14284 0.43974 0.01543 0.0
C6 C 0.11896 0.42455 0.03053 0.0
C7 C 0.22035 0.48534 0.96253 0.0
C8 C 0.16966 0.50808 0.09656 0.0
C9 C 0.1943 0.44732 0.14967 0.0
O10 O 0.20759 0.46447 0.11211 0.0
O11 O 0.16988 0.43818 0.15272 0.0
O12 O 0.23104 0.50024 0.00658 0.0
O13 O 0.19587 0.46865 0.96523 0.0
O14 O 0.69668 0.13383 0.28167 0.0
Cd15 Cd 0.73154 0.13559 0.26119 0.0
Cd16 Cd 0.74094 0.17862 0.20552 0.0
O17 O 0.70129 0.16216 0.21428 0.0
O18 O 0.72577 0.09974 0.24734 0.0
O19 O 0.73462 0.12855 0.17738 0.0
C20 C 0.72862 0.10528 0.19254 0.0
C21 C 0.76141 0.20144 0.12108 0.0
C22 C 0.68735 0.14536 0.2521 0.0
C23 C 0.77285 0.18411 0.31277 0.0
O24 O 0.76407 0.19432 0.27759 0.0
O25 O 0.76421 0.15973 0.31114 0.0
O26 O 0.75129 0.2102 0.15772 0.0
O27 O 0.75878 0.17888 0.13086 0.0
O28 O 0.59233 0.68029 0.44914 0.0
Cd29 Cd 0.62747 0.71376 0.43288 0.0
Cd30 Cd 0.59788 0.73031 0.37827 0.0
O31 O 0.56979 0.69242 0.39451 0.0
O32 O 0.65549 0.70492 0.41966 0.0
O33 O 0.63902 0.71797 0.3498 0.0
C34 C 0.65454 0.70971 0.36521 0.0
C35 C 0.59498 0.74949 0.29245 0.0
C36 C 0.57094 0.67545 0.42592 0.0
C37 C 0.62906 0.7608 0.4833 0.0
O38 O 0.61202 0.75661 0.4451 0.0
O39 O 0.63902 0.7462 0.48634 0.0
O40 O 0.5783 0.74349 0.33356 0.0
O41 O 0.61295 0.74355 0.29884 0.0
O42 O 0.94707 0.58092 0.61979 0.0
Cd43 Cd 0.94701 0.61483 0.59828 0.0
Cd44 Cd 0.90339 0.58224 0.54033 0.0
O45 O 0.91736 0.55717 0.5547 0.0
O46 O 0.98327 0.64382 0.58355 0.0
O47 O 0.95401 0.62433 0.51416 0.0
C48 C 0.97752 0.64108 0.52885 0.0
C49 C 0.88065 0.57856 0.45508 0.0
C50 C 0.93422 0.55969 0.59206 0.0
C51 C 0.89937 0.61172 0.64472 0.0
O52 O 0.88865 0.59328 0.60837 0.0
O53 O 0.92401 0.62528 0.64696 0.0
O54 O 0.87089 0.56133 0.49543 0.0
O55 O 0.90417 0.59734 0.46141 0.0
O56 O 0.39984 0.92935 0.78362 0.0
Cd57 Cd 0.36615 0.93055 0.76681 0.0
Cd58 Cd 0.35021 0.88444 0.71284 0.0
O59 O 0.38814 0.89457 0.72969 0.0
O60 O 0.37461 0.96723 0.75281 0.0
O61 O 0.36184 0.93749 0.68351 0.0
C62 C 0.36989 0.96128 0.69843 0.0
C63 C 0.3313 0.86225 0.62699 0.0
C64 C 0.40495 0.91288 0.76097 0.0
C65 C 0.3194 0.885 0.81737 0.0
O66 O 0.3238 0.87221 0.7794 0.0
O67 O 0.33378 0.90957 0.82026 0.0
O68 O 0.33737 0.85169 0.66829 0.0
O69 O 0.33703 0.8861 0.6332 0.0
O70 O 0.50304 0.38411 0.94498 0.0
Cd71 Cd 0.46884 0.34961 0.92813 0.0
Cd72 Cd 0.50023 0.33677 0.87152 0.0
O73 O 0.52607 0.37561 0.88297 0.0
O74 O 0.43959 0.35666 0.91468 0.0
O75 O 0.45771 0.34544 0.84486 0.0
C76 C 0.44134 0.35265 0.86007 0.0
C77 C 0.50274 0.31635 0.78706 0.0
C78 C 0.52419 0.39114 0.91789 0.0
C79 C 0.47325 0.30637 0.98014 0.0
O80 O 0.491 0.31295 0.94241 0.0
O81 O 0.45951 0.31733 0.98079 0.0
O82 O 0.52078 0.325 0.82564 0.0
O83 O 0.48354 0.32035 0.79496 0.0
O84 O 0.59418 0.92962 0.81005 0.0
Cd85 Cd 0.62911 0.93087 0.82658 0.0
Cd86 Cd 0.59913 0.88478 0.88077 0.0
O87 O 0.57128 0.8949 0.86419 0.0
O88 O 0.65727 0.9676 0.84015 0.0
O89 O 0.64057 0.93802 0.90978 0.0
C90 C 0.6562 0.96178 0.89458 0.0
C91 C 0.59585 0.86246 0.96644 0.0
C92 C 0.57268 0.91317 0.83289 0.0
C93 C 0.6303 0.88527 0.7759 0.0
O94 O 0.61322 0.87252 0.81404 0.0
O95 O 0.64045 0.90985 0.77295 0.0
O96 O 0.57925 0.85198 0.9251 0.0
O97 O 0.61396 0.88631 0.96037 0.0
O98 O 0.69723 0.57787 0.98268 0.0
Cd99 Cd 0.73163 0.61228 -0.00038 0.0
Cd100 Cd 0.74528 0.58019 0.04993 0.0
O101 O 0.70667 0.55369 0.03903 0.0
O102 O 0.72379 0.64095 0.01352 0.0
O103 O 0.73602 0.62354 0.08295 0.0
C104 C 0.72822 0.63948 0.06798 0.0
C105 C 0.76695 0.57805 0.13228 0.0
C106 C 0.6907 0.55616 0.00674 0.0
C107 C 0.77456 0.60921 0.94204 0.0
O108 O 0.76838 0.5908 0.97777 0.0
O109 O 0.76361 0.62292 0.94485 0.0
O110 O 0.75936 0.56073 0.09214 0.0
O111 O 0.76108 0.59613 0.12733 0.0
O112 O 0.15259 0.6805 0.14428 0.0
Cd113 Cd 0.15098 0.71401 0.16063 0.0
Cd114 Cd 0.19713 0.7305 0.2149 0.0
O115 O 0.18732 0.69259 0.19861 0.0
O116 O 0.11421 0.70526 0.1745 0.0
O117 O 0.14397 0.7184 0.24383 0.0
C118 C 0.12015 0.71015 0.22885 0.0
C119 C 0.21931 0.74969 0.3006 0.0
C120 C 0.16915 0.67562 0.16732 0.0
C121 C 0.19624 0.76097 0.10994 0.0
O122 O 0.20913 0.7568 0.14807 0.0
O123 O 0.17171 0.74637 0.107 0.0
O124 O 0.22994 0.74368 0.25936 0.0
O125 O 0.1954 0.74376 0.2944 0.0
O126 O 0.50059 0.13281 0.30823 0.0
Cd127 Cd 0.46738 0.13426 0.32963 0.0
Cd128 Cd 0.50085 0.17735 0.38503 0.0
O129 O 0.52425 0.16115 0.37564 0.0
O130 O 0.43755 0.09835 0.34395 0.0
O131 O 0.45769 0.12726 0.41362 0.0
C132 C 0.44043 0.10397 0.39871 0.0
C133 C 0.50315 0.19999 0.46966 0.0
C134 C 0.52147 0.14444 0.33763 0.0
C135 C 0.47377 0.18266 0.27899 0.0
O136 O 0.49299 0.19299 0.31349 0.0
O137 O 0.45826 0.15825 0.28071 0.0
O138 O 0.52197 0.2089 0.43291 0.0
O139 O 0.48334 0.17738 0.4599 0.0
O140 O 0.39841 0.48629 0.47576 0.0
Cd141 Cd 0.36521 0.45103 0.49306 0.0
Cd142 Cd 0.34828 0.48124 0.54452 0.0
O143 O 0.38562 0.50973 0.52508 0.0
O144 O 0.37468 0.42354 0.50735 0.0
O145 O 0.36114 0.43987 0.57651 0.0
C146 C 0.36976 0.42457 0.56167 0.0
C147 C 0.32932 0.48543 0.62921 0.0
C148 C 0.40283 0.50811 0.49557 0.0
C149 C 0.3175 0.4475 0.44199 0.0
O150 O 0.32133 0.46466 0.47954 0.0
O151 O 0.33278 0.43833 0.43902 0.0
O152 O 0.33356 0.50038 0.58524 0.0
O153 O 0.33711 0.46872 0.62646 0.0
O154 O 0.94558 0.38459 0.64553 0.0
Cd155 Cd 0.94432 0.34989 0.66548 0.0
Cd156 Cd 0.90105 0.33977 0.72075 0.0
O157 O 0.91711 0.37943 0.71303 0.0
O158 O 0.98034 0.35611 0.67882 0.0
O159 O 0.95157 0.34672 0.74912 0.0
C160 C 0.97489 0.35304 0.73365 0.0
C161 C 0.8781 0.31877 0.80464 0.0
C162 C 0.93384 0.39361 0.67537 0.0
C163 C 0.89619 0.30845 0.61294 0.0
O164 O 0.88572 0.31698 0.64805 0.0
O165 O 0.92057 0.31725 0.61506 0.0
O166 O 0.86928 0.32888 0.76814 0.0
O167 O 0.90077 0.32167 0.79504 0.0
H168 H 0.2422 0.45304 0.13526 0.0
H169 H 0.17833 0.42353 0.25656 0.0
H170 H 0.26838 0.44619 0.20607 0.0
H171 H 0.2047 0.41627 0.32792 0.0
H172 H 0.27536 0.45332 0.45624 0.0
H173 H 0.2423 0.44636 0.38546 0.0
H174 H 0.27603 0.41622 0.2639 0.0
H175 H 0.30968 0.42358 0.33524 0.0
C176 C 0.23356 0.44465 0.17685 0.0
C177 C 0.20825 0.43918 0.19054 0.0
C178 C 0.24856 0.44047 0.21734 0.0
C179 C 0.23876 0.43081 0.2729 0.0
C180 C 0.21293 0.42401 0.28567 0.0
C181 C 0.19777 0.42803 0.24475 0.0
C182 C 0.27561 0.44486 0.41472 0.0
C183 C 0.29544 0.43936 0.40111 0.0
C184 C 0.2564 0.44062 0.37425 0.0
C185 C 0.25651 0.43086 0.31878 0.0
C186 C 0.27555 0.42404 0.30608 0.0
C187 C 0.29475 0.42812 0.34698 0.0
H188 H 0.84573 0.29251 0.58893 0.0
H189 H 0.90821 0.27928 0.53859 0.0
H190 H 0.81767 0.26129 0.51708 0.0
H191 H 0.87948 0.24744 0.4659 0.0
H192 H 0.80137 0.17226 0.38956 0.0
H193 H 0.83308 0.20138 0.46197 0.0
H194 H 0.82077 0.2635 0.40486 0.0
H195 H 0.78967 0.23506 0.33331 0.0
C196 C 0.85353 0.28287 0.56274 0.0
C197 C 0.87939 0.28864 0.5694 0.0
C198 C 0.83736 0.26495 0.52143 0.0
C199 C 0.84642 0.25204 0.48573 0.0
C200 C 0.87201 0.25709 0.49309 0.0
C201 C 0.88846 0.27541 0.53435 0.0
C202 C 0.80557 0.19217 0.3924 0.0
C203 C 0.79275 0.20119 0.35585 0.0
C204 C 0.82381 0.20884 0.43351 0.0
C205 C 0.82923 0.23463 0.43917 0.0
C206 C 0.81681 0.24366 0.40186 0.0
C207 C 0.79895 0.22726 0.36073 0.0
H208 H 0.65278 0.76896 0.5903 0.0
H209 H 0.62166 0.80204 0.46951 0.0
H210 H 0.65959 0.80248 0.66153 0.0
H211 H 0.62824 0.83509 0.54016 0.0
H212 H 0.6533 0.90039 0.66814 0.0
H213 H 0.65946 0.87331 0.59667 0.0
H214 H 0.62897 0.8099 0.71933 0.0
H215 H 0.62305 0.83674 0.79019 0.0
C216 C 0.64778 0.78357 0.57861 0.0
C217 C 0.63638 0.7826 0.52452 0.0
C218 C 0.65158 0.80271 0.61942 0.0
C219 C 0.64436 0.82144 0.60663 0.0
C220 C 0.63428 0.82121 0.55135 0.0
C221 C 0.63026 0.80202 0.51099 0.0
C222 C 0.64838 0.88083 0.68005 0.0
C223 C 0.6374 0.87064 0.73457 0.0
C224 C 0.65179 0.86528 0.6391 0.0
C225 C 0.64459 0.83937 0.65219 0.0
C226 C 0.63498 0.82979 0.70789 0.0
C227 C 0.63134 0.84516 0.74838 0.0
H228 H 0.84667 0.58645 0.64514 0.0
H229 H 0.91324 0.64724 0.7348 0.0
H230 H 0.81799 0.58998 0.71471 0.0
H231 H 0.88384 0.6508 0.80489 0.0
H232 H 0.80534 0.65317 0.87611 0.0
H233 H 0.83765 0.65825 0.8021 0.0
H234 H 0.8192 0.57925 0.83186 0.0
H235 H 0.78772 0.57418 0.90511 0.0
C236 C 0.85528 0.60083 0.67927 0.0
C237 C 0.88241 0.61631 0.68474 0.0
C238 C 0.83873 0.60289 0.71894 0.0
C239 C 0.84872 0.62063 0.76498 0.0
C240 C 0.87571 0.63712 0.76931 0.0
C241 C 0.89248 0.63494 0.7295 0.0
C242 C 0.80828 0.63698 0.86672 0.0
C243 C 0.79392 0.61328 0.89648 0.0
C244 C 0.82685 0.63996 0.82487 0.0
C245 C 0.83084 0.61911 0.81161 0.0
C246 C 0.81648 0.59559 0.84133 0.0
C247 C 0.79843 0.59275 0.88335 0.0
H248 H 0.31126 0.90034 0.92463 0.0
H249 H 0.27829 0.8364 0.80327 0.0
H250 H 0.27797 0.8734 -0.004 0.0
H251 H 0.24547 0.8097 0.87405 0.0
H252 H 0.18068 0.76891 0.00274 0.0
H253 H 0.20732 0.80236 0.93137 0.0
H254 H 0.2711 0.83533 0.05307 0.0
H255 H 0.24469 0.80236 0.12385 0.0
C256 C 0.29671 0.88075 0.91284 0.0
C257 C 0.29764 0.87044 0.85857 0.0
C258 C 0.27771 0.86527 0.95373 0.0
C259 C 0.2591 0.83933 0.94082 0.0
C260 C 0.25927 0.82962 0.88534 0.0
C261 C 0.27831 0.84491 0.8449 0.0
C262 C 0.20022 0.78359 0.01447 0.0
C263 C 0.21064 0.78275 0.06868 0.0
C264 C 0.21552 0.80268 0.97358 0.0
C265 C 0.2414 0.82148 0.98643 0.0
C266 C 0.25122 0.82139 0.04184 0.0
C267 C 0.2361 0.80225 0.08228 0.0
H268 H 0.43238 0.17068 0.2054 0.0
H269 H 0.50763 0.2335 0.25696 0.0
H270 H 0.42884 0.19964 0.13393 0.0
H271 H 0.50404 0.26174 0.18617 0.0
H272 H 0.50519 0.28674 -0.00195 0.0
H273 H 0.50192 0.25569 0.07042 0.0
H274 H 0.4306 0.24885 0.13414 0.0
H275 H 0.43386 0.28069 0.06098 0.0
C276 C 0.44804 0.19056 0.20178 0.0
C277 C 0.47038 0.19964 0.23666 0.0
C278 C 0.4459 0.20713 0.16128 0.0
C279 C 0.46621 0.23286 0.15464 0.0
C280 C 0.48816 0.24197 0.19029 0.0
C281 C 0.49017 0.22568 0.23086 0.0
C282 C 0.48863 0.27867 0.02702 0.0
C283 C 0.46985 0.28645 0.02378 0.0
C284 C 0.48682 0.26082 0.06855 0.0
C285 C 0.46608 0.24996 0.10785 0.0
C286 C 0.44673 0.25693 0.10401 0.0
C287 C 0.44871 0.27522 0.06249 0.0
H288 H 0.20736 0.55801 0.07602 0.0
H289 H 0.12908 0.51246 0.14133 0.0
H290 H 0.20583 0.59757 0.09296 0.0
H291 H 0.12766 0.55245 0.15837 0.0
H292 H 0.13 0.63144 0.11633 0.0
H293 H 0.12888 0.59011 0.10012 0.0
H294 H 0.20414 0.62141 0.18083 0.0
H295 H 0.20537 0.66239 0.19697 0.0
C296 C 0.18979 0.5564 0.09403 0.0
C297 C 0.16837 0.53201 0.10755 0.0
C298 C 0.18898 0.57913 0.10394 0.0
C299 C 0.16667 0.57812 0.12721 0.0
C300 C 0.14506 0.55378 0.14008 0.0
C301 C 0.14595 0.53093 0.1307 0.0
C302 C 0.14627 0.62946 0.13063 0.0
C303 C 0.16782 0.6503 0.15769 0.0
C304 C 0.14554 0.60576 0.12167 0.0
C305 C 0.16648 0.6026 0.13896 0.0
C306 C 0.18785 0.62335 0.16641 0.0
C307 C 0.18848 0.64683 0.17584 0.0
H308 H 0.65665 0.12251 0.34743 0.0
H309 H 0.65774 0.15698 0.18144 0.0
H310 H 0.61426 0.11806 0.36847 0.0
H311 H 0.61545 0.15235 0.20238 0.0
H312 H 0.52982 0.12239 0.24137 0.0
H313 H 0.56804 0.11842 0.21999 0.0
H314 H 0.60044 0.15166 0.38723 0.0
H315 H 0.56253 0.15581 0.40849 0.0
C316 C 0.64771 0.12879 0.31513 0.0
C317 C 0.66065 0.14026 0.26295 0.0
C318 C 0.62351 0.12634 0.32728 0.0
C319 C 0.61158 0.13489 0.28709 0.0
C320 C 0.62404 0.14537 0.23396 0.0
C321 C 0.64836 0.14818 0.22218 0.0
C322 C 0.54496 0.12854 0.27383 0.0
C323 C 0.54323 0.13958 0.32645 0.0
C324 C 0.56686 0.12636 0.26149 0.0
C325 C 0.58722 0.13476 0.30193 0.0
C326 C 0.58496 0.1448 0.35545 0.0
C327 C 0.56331 0.14734 0.36741 0.0
H328 H 0.44779 0.5124 0.4511 0.0
H329 H 0.4151 0.55808 0.51633 0.0
H330 H 0.48922 0.55233 0.43444 0.0
H331 H 0.4562 0.59758 0.49975 0.0
H332 H 0.52157 0.66236 0.39613 0.0
H333 H 0.48182 0.62144 0.41207 0.0
H334 H 0.5256 0.58991 0.49293 0.0
H335 H 0.56582 0.63119 0.47692 0.0
C336 C 0.4494 0.53088 0.4618 0.0
C337 C 0.42806 0.53201 0.48481 0.0
C338 C 0.47316 0.5537 0.45263 0.0
C339 C 0.4759 0.57806 0.46558 0.0
C340 C 0.4546 0.57912 0.48872 0.0
C341 C 0.43105 0.55642 0.49842 0.0
C342 C 0.52287 0.64677 0.41725 0.0
C343 C 0.54694 0.65015 0.43549 0.0
C344 C 0.50001 0.62332 0.42657 0.0
C345 C 0.50057 0.60251 0.454 0.0
C346 C 0.52462 0.6056 0.47139 0.0
C347 C 0.5476 0.62926 0.46255 0.0
H348 H 0.92082 0.51775 0.5226 0.0
H349 H 0.95667 0.55122 0.68747 0.0
H350 H 0.92482 0.47968 0.54335 0.0
H351 H 0.96041 0.5128 0.7084 0.0
H352 H 0.92244 0.42296 0.74744 0.0
H353 H 0.92643 0.46508 0.72729 0.0
H354 H 0.95935 0.46652 0.55931 0.0
H355 H 0.95561 0.42435 0.57959 0.0
C356 C 0.92971 0.51706 0.56315 0.0
C357 C 0.9383 0.53746 0.60355 0.0
C358 C 0.93216 0.49532 0.57479 0.0
C359 C 0.94292 0.49329 0.62746 0.0
C360 C 0.95194 0.51385 0.66754 0.0
C361 C 0.94988 0.53584 0.65547 0.0
C362 C 0.93081 0.43237 0.70644 0.0
C363 C 0.93857 0.42023 0.66495 0.0
C364 C 0.93324 0.45658 0.69511 0.0
C365 C 0.94313 0.46904 0.6417 0.0
C366 C 0.95152 0.45726 0.60073 0.0
C367 C 0.94947 0.43319 0.61245 0.0
H368 H 0.41818 0.8763 0.73514 0.0
H369 H 0.44926 0.95294 0.80936 0.0
H370 H 0.45929 0.87794 0.75223 0.0
H371 H 0.49076 0.95449 0.82637 0.0
H372 H 0.56817 0.95305 0.78409 0.0
H373 H 0.52814 0.95446 0.76717 0.0
H374 H 0.48346 0.8781 0.8424 0.0
H375 H 0.52302 0.87662 0.85941 0.0
C376 C 0.4338 0.89356 0.75501 0.0
C377 C 0.43034 0.91446 0.77114 0.0
C378 C 0.45734 0.89443 0.76498 0.0
C379 C 0.47817 0.91628 0.79087 0.0
C380 C 0.47503 0.93745 0.80608 0.0
C381 C 0.45125 0.93648 0.79668 0.0
C382 C 0.54979 0.93661 0.79704 0.0
C383 C 0.54882 0.91468 0.82285 0.0
C384 C 0.52693 0.93749 0.78769 0.0
C385 C 0.50271 0.91633 0.80321 0.0
C386 C 0.50182 0.89458 0.82939 0.0
C387 C 0.52456 0.8938 0.83932 0.0
H388 H 0.57385 0.40723 0.88497 0.0
H389 H 0.52727 0.43328 0.9754 0.0
H390 H 0.61275 0.44812 0.90701 0.0
H391 H 0.56671 0.47473 -0.00317 0.0
H392 H 0.64747 0.55419 0.95763 0.0
H393 H 0.60568 0.51518 0.93615 0.0
H394 H 0.6343 0.46729 0.00842 0.0
H395 H 0.67556 0.50577 0.03053 0.0
C396 C 0.57183 0.42176 0.9091 0.0
C397 C 0.5474 0.41688 0.92873 0.0
C398 C 0.59418 0.44516 0.92183 0.0
C399 C 0.5927 0.46445 0.95384 0.0
C400 C 0.56828 0.46012 0.97191 0.0
C401 C 0.5458 0.43641 0.95988 0.0
C402 C 0.64474 0.53533 0.96923 0.0
C403 C 0.6649 0.5331 -0.00446 0.0
C404 C 0.62083 0.51309 0.9572 0.0
C405 C 0.61693 0.48831 0.97037 0.0
C406 C 0.63691 0.48617 -0.00257 0.0
C407 C 0.66052 0.50827 0.01022 0.0
H408 H 0.29775 0.50617 0.63157 0.0
H409 H 0.32668 0.46651 0.73897 0.0
H410 H 0.27087 0.50594 0.71192 0.0
H411 H 0.30006 0.46689 0.82 0.0
H412 H 0.27262 0.50607 0.9602 0.0
H413 H 0.29928 0.50588 0.87983 0.0
H414 H 0.23113 0.46692 0.77164 0.0
H415 H 0.20412 0.46649 0.8527 0.0
C416 C 0.29856 0.49763 0.67253 0.0
C417 C 0.31436 0.48642 0.67919 0.0
C418 C 0.28304 0.49735 0.71821 0.0
C419 C 0.28342 0.48632 0.7717 0.0
C420 C 0.29955 0.47553 0.77894 0.0
C421 C 0.31471 0.47531 0.73276 0.0
C422 C 0.26329 0.49756 0.91921 0.0
C423 C 0.2363 0.48635 0.91253 0.0
C424 C 0.27854 0.4973 0.87352 0.0
C425 C 0.26715 0.48631 0.82 0.0
C426 C 0.24026 0.47553 0.81273 0.0
C427 C 0.22487 0.47528 0.85892 0.0
H428 H 0.76903 0.2489 0.08977 0.0
H429 H 0.7897 0.19121 0.04239 0.0
H430 H 0.79787 0.27777 0.01504 0.0
H431 H 0.81834 0.22009 0.96656 0.0
H432 H 0.83041 0.31058 0.83552 0.0
H433 H 0.8016 0.28149 0.91 0.0
H434 H 0.85969 0.26163 0.95875 0.0
H435 H 0.88851 0.29052 0.88316 0.0
C436 C 0.7795 0.24224 0.06292 0.0
C437 C 0.77706 0.21775 0.07197 0.0
C438 C 0.796 0.2588 0.01998 0.0
C439 C 0.81047 0.25126 0.98505 0.0
C440 C 0.80772 0.22658 0.99338 0.0
C441 C 0.79112 0.20995 0.03637 0.0
C442 C 0.83717 0.30018 0.86236 0.0
C443 C 0.86177 0.30288 0.85348 0.0
C444 C 0.82064 0.28354 0.90516 0.0
C445 C 0.82831 0.26918 0.94012 0.0
C446 C 0.85309 0.27216 0.9319 0.0
C447 C 0.86969 0.2889 0.88905 0.0
H448 H 0.55576 0.75787 0.26056 0.0
H449 H 0.63286 0.77518 0.21099 0.0
H450 H 0.55594 0.78583 0.1831 0.0
H451 H 0.63294 0.80321 0.13299 0.0
H452 H 0.63343 0.87422 0.0485 0.0
H453 H 0.63308 0.846 0.12638 0.0
H454 H 0.55613 0.78686 0.0748 0.0
H455 H 0.55638 0.81491 -0.00254 0.0
C456 C 0.57266 0.76746 0.23274 0.0
C457 C 0.59431 0.76434 0.24179 0.0
C458 C 0.57272 0.78344 0.18836 0.0
C459 C 0.59451 0.7968 0.15237 0.0
C460 C 0.61602 0.79337 0.16068 0.0
C461 C 0.61587 0.77714 0.20485 0.0
C462 C 0.61636 0.85531 0.05429 0.0
C463 C 0.59493 0.84677 0.01698 0.0
C464 C 0.61627 0.83909 0.09839 0.0
C465 C 0.59465 0.81421 0.10626 0.0
C466 C 0.573 0.80599 0.06988 0.0
C467 C 0.57317 0.82206 0.02557 0.0
H468 H 0.89657 0.6031 0.34991 0.0
H469 H 0.82806 0.55272 0.44986 0.0
H470 H 0.86885 0.60317 0.27075 0.0
H471 H 0.8007 0.55356 0.37163 0.0
H472 H 0.77517 0.60162 0.23851 0.0
H473 H 0.80341 0.60176 0.31667 0.0
H474 H 0.82463 0.55541 0.2109 0.0
H475 H 0.79599 0.5545 0.13357 0.0
C476 C 0.87568 0.59206 0.35488 0.0
C477 C 0.86445 0.57779 0.40578 0.0
C478 C 0.85993 0.59217 0.30986 0.0
C479 C 0.83284 0.57853 0.31589 0.0
C480 C 0.8216 0.5643 0.36655 0.0
C481 C 0.83726 0.56371 0.41091 0.0
C482 C 0.78578 0.59139 0.23215 0.0
C483 C 0.78329 0.57791 0.18026 0.0
C484 C 0.80188 0.59152 0.27662 0.0
C485 C 0.81613 0.57873 0.26907 0.0
C486 C 0.81386 0.56549 0.21719 0.0
C487 C 0.79736 0.56485 0.17334 0.0
H488 H 0.26694 0.75808 0.33206 0.0
H489 H 0.20716 0.77534 0.38236 0.0
H490 H 0.29475 0.78597 0.40955 0.0
H491 H 0.23513 0.8033 0.46036 0.0
H492 H 0.30553 0.87417 0.54508 0.0
H493 H 0.27774 0.84609 0.46701 0.0
H494 H 0.2956 0.78683 0.51794 0.0
H495 H 0.32333 0.81475 0.59549 0.0
C496 C 0.25964 0.76764 0.36004 0.0
C497 C 0.23486 0.76452 0.3512 0.0
C498 C 0.27557 0.78358 0.40443 0.0
C499 C 0.26714 0.79691 0.44064 0.0
C500 C 0.2422 0.79348 0.43251 0.0
C501 C 0.22612 0.7773 0.38834 0.0
C502 C 0.30373 0.85527 0.53911 0.0
C503 C 0.3166 0.84665 0.57631 0.0
C504 C 0.28764 0.83912 0.49489 0.0
C505 C 0.28441 0.81425 0.48679 0.0
C506 C 0.29784 0.80596 0.52304 0.0
C507 C 0.31368 0.82195 0.56747 0.0
H508 H 0.54202 0.30764 0.75764 0.0
H509 H 0.46486 0.28942 0.70609 0.0
H510 H 0.54203 0.27887 0.68262 0.0
H511 H 0.46506 0.26079 0.63004 0.0
H512 H 0.46431 0.18986 0.54722 0.0
H513 H 0.46432 0.21869 0.62296 0.0
H514 H 0.54288 0.27595 0.577 0.0
H515 H 0.54305 0.24714 0.50223 0.0
C516 C 0.52515 0.29771 0.72983 0.0
C517 C 0.50343 0.30081 0.73777 0.0
C518 C 0.5252 0.28126 0.68674 0.0
C519 C 0.50351 0.26748 0.65061 0.0
C520 C 0.48192 0.2709 0.6578 0.0
C521 C 0.4819 0.28748 0.70091 0.0
C522 C 0.48166 0.20849 0.55377 0.0
C523 C 0.50369 0.2162 0.51885 0.0
C524 C 0.48156 0.22509 0.59669 0.0
C525 C 0.50354 0.24964 0.60565 0.0
C526 C 0.52572 0.25708 0.57147 0.0
C527 C 0.52579 0.24056 0.52855 0.0
H528 H 0.06915 0.38538 0.04873 0.0
H529 H 0.12226 0.43124 0.91266 0.0
H530 H 1.03444 0.36433 0.97751 0.0
H531 H 0.08739 0.41119 0.8417 0.0
H532 H 1.024 0.36114 0.71626 0.0
H533 H 0.05872 0.37468 0.78758 0.0
H534 H 1.00702 0.3731 0.92159 0.0
H535 H 0.97218 0.35846 0.85085 0.0
C536 C 0.07344 0.39092 0.00351 0.0
C537 C 0.09848 0.41005 0.98646 0.0
C538 C 0.05344 0.37899 0.96258 0.0
C539 C 0.05784 0.38614 0.90353 0.0
C540 C 0.08317 0.40479 0.8864 0.0
C541 C 0.10323 0.41646 0.92726 0.0
C542 C 1.01998 0.36332 0.76116 0.0
C543 C 0.9953 0.35873 0.77777 0.0
C544 C 1.03999 0.37134 0.8021 0.0
C545 C 1.03594 0.37529 0.86066 0.0
C546 C 1.01096 0.36995 0.87734 0.0
C547 C 0.9909 0.36164 0.83656 0.0
H548 H 0.69565 1.01151 0.87636 0.0
H549 H 0.64991 0.95835 0.01252 0.0
H550 H 0.71706 0.04611 0.94777 0.0
H551 H 0.67033 0.9931 0.08363 0.0
H552 H 0.7207 0.05617 0.20917 0.0
H553 H 0.70708 1.02158 0.13745 0.0
H554 H 0.70844 0.07355 0.00431 0.0
H555 H 0.72314 0.10825 0.07544 0.0
C556 C 0.69023 1.00718 0.92163 0.0
C557 C 0.67101 0.98217 0.93865 0.0
C558 C 0.70236 1.02711 0.96266 0.0
C559 C 0.69535 1.02266 0.02178 0.0
C560 C 0.67663 0.99735 0.03887 0.0
C561 C 0.66475 0.97736 -0.00208 0.0
C562 C 0.71846 0.06028 0.16438 0.0
C563 C 0.72299 0.08499 0.14814 0.0
C564 C 0.71041 0.04035 0.1232 0.0
C565 C 0.70635 0.04451 0.06479 0.0
C566 C 0.71167 0.06953 0.04845 0.0
C567 C 0.72001 0.08951 0.08945 0.0
H568 H 0.72371 0.63168 0.18537 0.0
H569 H 0.71894 0.67973 0.0509 0.0
H570 H 0.70858 0.65135 0.25648 0.0
H571 H 0.70501 0.70045 0.12247 0.0
H572 H 0.6479 0.70614 0.24743 0.0
H573 H 0.66852 0.69193 0.17664 0.0
H574 H 0.71611 0.68704 0.31257 0.0
H575 H 0.69443 0.70005 0.38372 0.0
C576 C 0.71999 0.64689 0.17121 0.0
C577 C 0.72241 0.65401 0.11235 0.0
C578 C 0.71139 0.65834 0.21217 0.0
C579 C 0.70531 0.6775 0.19557 0.0
C580 C 0.70887 0.68539 0.13695 0.0
C581 C 0.71712 0.67367 0.09585 0.0
C582 C 0.66296 0.70229 0.26211 0.0
C583 C 0.66939 0.70409 0.32132 0.0
C584 C 0.67496 0.69424 0.22134 0.0
C585 C 0.69402 0.68811 0.23851 0.0
C586 C 0.70116 0.69098 0.29759 0.0
C587 C 0.68888 0.69868 0.33848 0.0
H588 H 0.07038 0.69989 0.21109 0.0
H589 H 0.12388 0.70748 0.34672 0.0
H590 H 1.03601 0.68701 0.28293 0.0
H591 H 0.08936 0.69346 0.41825 0.0
H592 H 1.02688 0.68181 0.54445 0.0
H593 H 0.06125 0.70218 0.47214 0.0
H594 H 1.00863 0.65131 0.34028 0.0
H595 H 0.97414 0.63193 0.41201 0.0
C596 C 0.07483 0.69889 0.25633 0.0
C597 C 0.09987 0.70466 0.2731 0.0
C598 C 0.05503 0.69127 0.29761 0.0
C599 C 0.05965 0.68887 0.35671 0.0
C600 C 0.08498 0.69539 0.37351 0.0
C601 C 0.10484 0.70333 0.33232 0.0
C602 C 1.02259 0.67526 0.49981 0.0
C603 C 0.99776 0.65521 0.48409 0.0
C604 C 1.04239 0.68679 0.4583 0.0
C605 C 1.03797 0.67834 0.40008 0.0
C606 C 1.01285 0.65873 0.38426 0.0
C607 C 0.99299 0.64745 0.4256 0.0
H608 H 0.44916 0.10718 0.51569 0.0
H609 H 0.39929 0.05484 0.38268 0.0
H610 H 0.42927 0.07267 0.58725 0.0
H611 H 0.37844 1.02043 0.45485 0.0
H612 H 0.37262 0.95751 0.58057 0.0
H613 H 0.38684 0.99206 0.509 0.0
H614 H 0.39323 0.04548 0.6441 0.0
H615 H 0.38013 1.01107 0.71598 0.0
C616 C 0.43353 0.08842 0.50193 0.0
C617 C 0.42593 0.08377 0.44333 0.0
C618 C 0.42196 0.06855 0.54318 0.0
C619 C 0.40222 0.04352 0.52716 0.0
C620 C 0.39391 0.03922 0.46883 0.0
C621 C 0.40572 0.05904 0.42741 0.0
C622 C 0.37679 0.97656 0.59491 0.0
C623 C 0.37539 0.98154 0.6541 0.0
C624 C 0.38484 0.99645 0.5537 0.0
C625 C 0.39143 1.0218 0.57045 0.0
C626 C 0.38892 1.02643 0.62948 0.0
C627 C 0.38118 1.00661 0.67078 0.0
H628 H 0.37975 0.38487 0.54413 0.0
H629 H 0.3734 0.43167 0.67938 0.0
H630 H 0.39308 0.36365 0.61576 0.0
H631 H 0.38794 0.41148 0.7507 0.0
H632 H 0.40087 0.36161 0.87727 0.0
H633 H 0.37985 0.3752 0.8056 0.0
H634 H 0.42903 0.37186 0.67156 0.0
H635 H 0.449 0.35711 0.7427 0.0
C636 C 0.38114 0.39058 0.58925 0.0
C637 C 0.37557 0.41001 0.60597 0.0
C638 C 0.38902 0.37856 0.63042 0.0
C639 C 0.39193 0.38592 0.68935 0.0
C640 C 0.38562 0.4049 0.70612 0.0
C641 C 0.37738 0.41665 0.66505 0.0
C642 C 0.40688 0.36341 0.8323 0.0
C643 C 0.42665 0.35829 0.81579 0.0
C644 C 0.39499 0.37146 0.79114 0.0
C645 C 0.40279 0.37495 0.73247 0.0
C646 C 0.42208 0.36907 0.7159 0.0
C647 C 0.43371 0.3607 0.7569 0.0
loop_
_geom_bond_atom_site_label_1
_geom_bond_atom_site_label_2
_geom_bond_distance
_geom_bond_site_symmetry_2
_ccdc_geom_bond_type
O0 Cd1 2.223 . S
O0 C8 1.315 . S
Cd1 O0 2.223 . S
Cd1 O4 2.297 . S
Cd1 O5 2.439 1_554 S
Cd1 O11 2.240 . S
Cd2 O3 2.240 . S
Cd2 O10 2.223 . S
Cd2 O12 2.297 1_554 S
Cd2 O13 2.439 1_554 S
O3 Cd2 2.240 . S
O3 C8 1.279 . S
O4 Cd1 2.297 . S
O4 C6 1.247 . S
O5 Cd1 2.439 1_556 S
O5 C6 1.208 1_556 S
C6 O4 1.247 . S
C6 O5 1.208 1_554 S
C7 O12 1.247 . S
C7 O13 1.208 . S
C8 O0 1.315 . S
C8 O3 1.279 . S
C9 O10 1.315 . S
C9 O11 1.279 . S
O10 Cd2 2.223 . S
O10 C9 1.315 . S
O11 Cd1 2.240 . S
O11 C9 1.279 . S
O12 Cd2 2.297 1_556 S
O12 C7 1.247 . S
O13 Cd2 2.439 1_556 S
O13 C7 1.208 . S
O14 Cd15 2.223 . S
O14 C22 1.315 . S
Cd15 O14 2.223 . S
Cd15 O18 2.297 . S
Cd15 O19 2.439 . S
Cd15 O25 2.240 . S
Cd16 O17 2.240 . S
Cd16 O24 2.223 . S
Cd16 O26 2.297 . S
Cd16 O27 2.439 . S
O17 Cd16 2.240 . S
O17 C22 1.279 . S
O18 Cd15 2.297 . S
O18 C20 1.247 . S
O19 Cd15 2.439 . S
O19 C20 1.208 . S
C20 O18 1.247 . S
C20 O19 1.208 . S
C21 O26 1.247 . S
C21 O27 1.208 . S
C22 O14 1.315 . S
C22 O17 1.279 . S
C23 O24 1.315 . S
C23 O25 1.279 . S
O24 Cd16 2.223 . S
O24 C23 1.315 . S
O25 Cd15 2.240 . S
O25 C23 1.279 . S
O26 Cd16 2.297 . S
O26 C21 1.247 . S
O27 Cd16 2.439 . S
O27 C21 1.208 . S
O28 Cd29 2.223 . S
O28 C36 1.315 . S
Cd29 O28 2.223 . S
Cd29 O32 2.297 . S
Cd29 O33 2.439 . S
Cd29 O39 2.240 . S
Cd30 O31 2.240 . S
Cd30 O38 2.223 . S
Cd30 O40 2.297 . S
Cd30 O41 2.439 . S
O31 Cd30 2.240 . S
O31 C36 1.279 . S
O32 Cd29 2.297 . S
O32 C34 1.247 . S
O33 Cd29 2.439 . S
O33 C34 1.208 . S
C34 O32 1.247 . S
C34 O33 1.208 . S
C35 O40 1.247 . S
C35 O41 1.208 . S
C36 O28 1.315 . S
C36 O31 1.279 . S
C37 O38 1.315 . S
C37 O39 1.279 . S
O38 Cd30 2.223 . S
O38 C37 1.315 . S
O39 Cd29 2.240 . S
O39 C37 1.279 . S
O40 Cd30 2.297 . S
O40 C35 1.247 . S
O41 Cd30 2.439 . S
O41 C35 1.208 . S
O42 Cd43 2.223 . S
O42 C50 1.315 . S
Cd43 O42 2.223 . S
Cd43 O46 2.297 . S
Cd43 O47 2.439 . S
Cd43 O53 2.240 . S
Cd44 O45 2.240 . S
Cd44 O52 2.223 . S
Cd44 O54 2.297 . S
Cd44 O55 2.439 . S
O45 Cd44 2.240 . S
O45 C50 1.279 . S
O46 Cd43 2.297 . S
O46 C48 1.247 . S
O47 Cd43 2.439 . S
O47 C48 1.208 . S
C48 O46 1.247 . S
C48 O47 1.208 . S
C49 O54 1.247 . S
C49 O55 1.208 . S
C50 O42 1.315 . S
C50 O45 1.279 . S
C51 O52 1.315 . S
C51 O53 1.279 . S
O52 Cd44 2.223 . S
O52 C51 1.315 . S
O53 Cd43 2.240 . S
O53 C51 1.279 . S
O54 Cd44 2.297 . S
O54 C49 1.247 . S
O55 Cd44 2.439 . S
O55 C49 1.208 . S
O56 Cd57 2.223 . S
O56 C64 1.315 . S
Cd57 O56 2.223 . S
Cd57 O60 2.297 . S
Cd57 O61 2.439 . S
Cd57 O67 2.240 . S
Cd58 O59 2.240 . S
Cd58 O66 2.223 . S
Cd58 O68 2.297 . S
Cd58 O69 2.439 . S
O59 Cd58 2.240 . S
O59 C64 1.279 . S
O60 Cd57 2.297 . S
O60 C62 1.247 . S
O61 Cd57 2.439 . S
O61 C62 1.208 . S
C62 O60 1.247 . S
C62 O61 1.208 . S
C63 O68 1.247 . S
C63 O69 1.208 . S
C64 O56 1.315 . S
C64 O59 1.279 . S
C65 O66 1.315 . S
C65 O67 1.279 . S
O66 Cd58 2.223 . S
O66 C65 1.315 . S
O67 Cd57 2.240 . S
O67 C65 1.279 . S
O68 Cd58 2.297 . S
O68 C63 1.247 . S
O69 Cd58 2.439 . S
O69 C63 1.208 . S
O70 Cd71 2.223 . S
O70 C78 1.315 . S
Cd71 O70 2.223 . S
Cd71 O74 2.297 . S
Cd71 O75 2.439 . S
Cd71 O81 2.240 . S
Cd72 O73 2.240 . S
Cd72 O80 2.223 . S
Cd72 O82 2.297 . S
Cd72 O83 2.439 . S
O73 Cd72 2.240 . S
O73 C78 1.279 . S
O74 Cd71 2.297 . S
O74 C76 1.247 . S
O75 Cd71 2.439 . S
O75 C76 1.208 . S
C76 O74 1.247 . S
C76 O75 1.208 . S
C77 O82 1.247 . S
C77 O83 1.208 . S
C78 O70 1.315 . S
C78 O73 1.279 . S
C79 O80 1.315 . S
C79 O81 1.279 . S
O80 Cd72 2.223 . S
O80 C79 1.315 . S
O81 Cd71 2.240 . S
O81 C79 1.279 . S
O82 Cd72 2.297 . S
O82 C77 1.247 . S
O83 Cd72 2.439 . S
O83 C77 1.208 . S
O84 Cd85 2.223 . S
O84 C92 1.315 . S
Cd85 O84 2.223 . S
Cd85 O88 2.297 . S
Cd85 O89 2.439 . S
Cd85 O95 2.240 . S
Cd86 O87 2.240 . S
Cd86 O94 2.223 . S
Cd86 O96 2.297 . S
Cd86 O97 2.439 . S
O87 Cd86 2.240 . S
O87 C92 1.279 . S
O88 Cd85 2.297 . S
O88 C90 1.247 . S
O89 Cd85 2.439 . S
O89 C90 1.208 . S
C90 O88 1.247 . S
C90 O89 1.208 . S
C91 O96 1.247 . S
C91 O97 1.208 . S
C92 O84 1.315 . S
C92 O87 1.279 . S
C93 O94 1.315 . S
C93 O95 1.279 . S
O94 Cd86 2.223 . S
O94 C93 1.315 . S
O95 Cd85 2.240 . S
O95 C93 1.279 . S
O96 Cd86 2.297 . S
O96 C91 1.247 . S
O97 Cd86 2.439 . S
O97 C91 1.208 . S
O98 Cd99 2.223 1_556 S
O98 C106 1.315 1_556 S
Cd99 O98 2.223 1_554 S
Cd99 O102 2.297 . S
Cd99 O103 2.439 . S
Cd99 O109 2.240 . S
Cd100 O101 2.240 . S
Cd100 O108 2.215 1_554 S
Cd100 O110 2.297 . S
Cd100 O111 2.439 . S
O101 Cd100 2.240 . S
O101 C106 1.279 . S
O102 Cd99 2.297 . S
O102 C104 1.247 . S
O103 Cd99 2.439 . S
O103 C104 1.208 . S
C104 O102 1.247 . S
C104 O103 1.208 . S
C105 O110 1.247 . S
C105 O111 1.208 . S
C106 O98 1.315 1_554 S
C106 O101 1.279 . S
C107 O108 1.318 . S
C107 O109 1.279 1_556 S
O108 Cd100 2.215 1_556 S
O108 C107 1.318 . S
O109 Cd99 2.240 . S
O109 C107 1.279 1_554 S
O110 Cd100 2.297 . S
O110 C105 1.247 . S
O111 Cd100 2.439 . S
O111 C105 1.208 . S
O112 Cd113 2.223 . S
O112 C120 1.315 . S
Cd113 O112 2.223 . S
Cd113 O116 2.297 . S
Cd113 O117 2.439 . S
Cd113 O123 2.240 . S
Cd114 O115 2.240 . S
Cd114 O122 2.223 . S
Cd114 O124 2.297 . S
Cd114 O125 2.439 . S
O115 Cd114 2.240 . S
O115 C120 1.279 . S
O116 Cd113 2.297 . S
O116 C118 1.247 . S
O117 Cd113 2.439 . S
O117 C118 1.208 . S
C118 O116 1.247 . S
C118 O117 1.208 . S
C119 O124 1.247 . S
C119 O125 1.208 . S
C120 O112 1.315 . S
C120 O115 1.279 . S
C121 O122 1.315 . S
C121 O123 1.279 . S
O122 Cd114 2.223 . S
O122 C121 1.315 . S
O123 Cd113 2.240 . S
O123 C121 1.279 . S
O124 Cd114 2.297 . S
O124 C119 1.247 . S
O125 Cd114 2.439 . S
O125 C119 1.208 . S
O126 Cd127 2.223 . S
O126 C134 1.315 . S
Cd127 O126 2.223 . S
Cd127 O130 2.297 . S
Cd127 O131 2.439 . S
Cd127 O137 2.240 . S
Cd128 O129 2.240 . S
Cd128 O136 2.223 . S
Cd128 O138 2.297 . S
Cd128 O139 2.439 . S
O129 Cd128 2.240 . S
O129 C134 1.279 . S
O130 Cd127 2.297 . S
O130 C132 1.247 . S
O131 Cd127 2.439 . S
O131 C132 1.208 . S
C132 O130 1.247 . S
C132 O131 1.208 . S
C133 O138 1.247 . S
C133 O139 1.208 . S
C134 O126 1.315 . S
C134 O129 1.279 . S
C135 O136 1.315 . S
C135 O137 1.279 . S
O136 Cd128 2.223 . S
O136 C135 1.315 . S
O137 Cd127 2.240 . S
O137 C135 1.279 . S
O138 Cd128 2.297 . S
O138 C133 1.247 . S
O139 Cd128 2.439 . S
O139 C133 1.208 . S
O140 Cd141 2.223 . S
O140 C148 1.315 . S
Cd141 O140 2.223 . S
Cd141 O144 2.297 . S
Cd141 O145 2.439 . S
Cd141 O151 2.240 . S
Cd142 O143 2.240 . S
Cd142 O150 2.223 . S
Cd142 O152 2.297 . S
Cd142 O153 2.439 . S
O143 Cd142 2.240 . S
O143 C148 1.279 . S
O144 Cd141 2.297 . S
O144 C146 1.247 . S
O145 Cd141 2.439 . S
O145 C146 1.208 . S
C146 O144 1.247 . S
C146 O145 1.208 . S
C147 O152 1.247 . S
C147 O153 1.208 . S
C148 O140 1.315 . S
C148 O143 1.279 . S
C149 O150 1.315 . S
C149 O151 1.279 . S
O150 Cd142 2.223 . S
O150 C149 1.315 . S
O151 Cd141 2.240 . S
O151 C149 1.279 . S
O152 Cd142 2.297 . S
O152 C147 1.247 . S
O153 Cd142 2.439 . S
O153 C147 1.208 . S
O154 Cd155 2.223 . S
O154 C162 1.315 . S
Cd155 O154 2.223 . S
Cd155 O158 2.297 . S
Cd155 O159 2.439 . S
Cd155 O165 2.240 . S
Cd156 O157 2.240 . S
Cd156 O164 2.223 . S
Cd156 O166 2.297 . S
Cd156 O167 2.439 . S
O157 Cd156 2.240 . S
O157 C162 1.279 . S
O158 Cd155 2.297 . S
O158 C160 1.247 . S
O159 Cd155 2.439 . S
O159 C160 1.208 . S
C160 O158 1.247 . S
C160 O159 1.208 . S
C161 O166 1.247 . S
C161 O167 1.208 . S
C162 O154 1.315 . S
C162 O157 1.279 . S
C163 O164 1.315 . S
C163 O165 1.279 . S
O164 Cd156 2.223 . S
O164 C163 1.315 . S
O165 Cd155 2.240 . S
O165 C163 1.279 . S
O166 Cd156 2.297 . S
O166 C161 1.247 . S
O167 Cd156 2.439 . S
O167 C161 1.208 . S
H168 C176 0.950 . S
H169 C181 0.950 . S
H170 C178 0.950 . S
H171 C180 0.950 . S
H172 C182 0.950 . S
H173 C184 0.950 . S
H174 C186 0.950 . S
H175 C187 0.950 . S
C176 H168 0.950 . S
C176 C177 1.386 . S
C176 C178 1.391 . S
C177 C176 1.386 . S
C177 C181 1.393 . S
C178 H170 0.950 . S
C178 C176 1.391 . S
C178 C179 1.400 . S
C179 C178 1.400 . S
C179 C180 1.398 . S
C179 C185 1.491 . S
C180 H171 0.950 . S
C180 C179 1.398 . S
C180 C181 1.391 . S
C181 H169 0.950 . S
C181 C177 1.393 . S
C181 C180 1.391 . S
C182 H172 0.950 . S
C182 C183 1.386 . S
C182 C184 1.391 . S
C183 C182 1.386 . S
C183 C187 1.393 . S
C184 H173 0.950 . S
C184 C182 1.391 . S
C184 C185 1.400 . S
C185 C179 1.491 . S
C185 C184 1.400 . S
C185 C186 1.398 . S
C186 H174 0.950 . S
C186 C185 1.398 . S
C186 C187 1.391 . S
C187 H175 0.950 . S
C187 C183 1.393 . S
C187 C186 1.391 . S
H188 C196 0.950 . S
H189 C201 0.950 . S
H190 C198 0.950 . S
H191 C200 0.950 . S
H192 C202 0.950 . S
H193 C204 0.950 . S
H194 C206 0.950 . S
H195 C207 0.950 . S
C196 H188 0.950 . S
C196 C197 1.386 . S
C196 C198 1.391 . S
C197 C196 1.386 . S
C197 C201 1.393 . S
C198 H190 0.950 . S
C198 C196 1.391 . S
C198 C199 1.400 . S
C199 C198 1.400 . S
C199 C200 1.398 . S
C199 C205 1.491 . S
C200 H191 0.950 . S
C200 C199 1.398 . S
C200 C201 1.391 . S
C201 H189 0.950 . S
C201 C197 1.393 . S
C201 C200 1.391 . S
C202 H192 0.950 . S
C202 C203 1.386 . S
C202 C204 1.391 . S
C203 C202 1.386 . S
C203 C207 1.393 . S
C204 H193 0.950 . S
C204 C202 1.391 . S
C204 C205 1.400 . S
C205 C199 1.491 . S
C205 C204 1.400 . S
C205 C206 1.398 . S
C206 H194 0.950 . S
C206 C205 1.398 . S
C206 C207 1.391 . S
C207 H195 0.950 . S
C207 C203 1.393 . S
C207 C206 1.391 . S
H208 C216 0.950 . S
H209 C221 0.950 . S
H210 C218 0.950 . S
H211 C220 0.950 . S
H212 C222 0.950 . S
H213 C224 0.950 . S
H214 C226 0.950 . S
H215 C227 0.950 . S
C216 H208 0.950 . S
C216 C217 1.386 . S
C216 C218 1.391 . S
C217 C216 1.386 . S
C217 C221 1.393 . S
C218 H210 0.950 . S
C218 C216 1.391 . S
C218 C219 1.400 . S
C219 C218 1.400 . S
C219 C220 1.398 . S
C219 C225 1.491 . S
C220 H211 0.950 . S
C220 C219 1.398 . S
C220 C221 1.391 . S
C221 H209 0.950 . S
C221 C217 1.393 . S
C221 C220 1.391 . S
C222 H212 0.950 . S
C222 C223 1.386 . S
C222 C224 1.391 . S
C223 C222 1.386 . S
C223 C227 1.393 . S
C224 H213 0.950 . S
C224 C222 1.391 . S
C224 C225 1.400 . S
C225 C219 1.491 . S
C225 C224 1.400 . S
C225 C226 1.398 . S
C226 H214 0.950 . S
C226 C225 1.398 . S
C226 C227 1.391 . S
C227 H215 0.950 . S
C227 C223 1.393 . S
C227 C226 1.391 . S
H228 C236 0.950 . S
H229 C241 0.950 . S
H230 C238 0.950 . S
H231 C240 0.950 . S
H232 C242 0.950 . S
H233 C244 0.950 . S
H234 C246 0.950 . S
H235 C247 0.950 . S
C236 H228 0.950 . S
C236 C237 1.386 . S
C236 C238 1.391 . S
C237 C236 1.386 . S
C237 C241 1.393 . S
C238 H230 0.950 . S
C238 C236 1.391 . S
C238 C239 1.400 . S
C239 C238 1.400 . S
C239 C240 1.398 . S
C239 C245 1.491 . S
C240 H231 0.950 . S
C240 C239 1.398 . S
C240 C241 1.391 . S
C241 H229 0.950 . S
C241 C237 1.393 . S
C241 C240 1.391 . S
C242 H232 0.950 . S
C242 C243 1.386 . S
C242 C244 1.391 . S
C243 C242 1.386 . S
C243 C247 1.393 . S
C244 H233 0.950 . S
C244 C242 1.391 . S
C244 C245 1.400 . S
C245 C239 1.491 . S
C245 C244 1.400 . S
C245 C246 1.398 . S
C246 H234 0.950 . S
C246 C245 1.398 . S
C246 C247 1.391 . S
C247 H235 0.950 . S
C247 C243 1.393 . S
C247 C246 1.391 . S
H248 C256 0.950 . S
H249 C261 0.950 . S
H250 C258 0.950 . S
H251 C260 0.950 . S
H252 C262 0.950 . S
H253 C264 0.950 . S
H254 C266 0.950 . S
H255 C267 0.950 . S
C256 H248 0.950 . S
C256 C257 1.386 . S
C256 C258 1.391 . S
C257 C256 1.386 . S
C257 C261 1.393 . S
C258 H250 0.950 . S
C258 C256 1.391 . S
C258 C259 1.400 . S
C259 C258 1.400 . S
C259 C260 1.398 . S
C259 C265 1.491 . S
C260 H251 0.950 . S
C260 C259 1.398 . S
C260 C261 1.391 . S
C261 H249 0.950 . S
C261 C257 1.393 . S
C261 C260 1.391 . S
C262 H252 0.950 . S
C262 C263 1.386 . S
C262 C264 1.391 1_554 S
C263 C262 1.386 . S
C263 C267 1.393 . S
C264 H253 0.950 . S
C264 C262 1.391 1_556 S
C264 C265 1.400 . S
C265 C259 1.491 . S
C265 C264 1.400 . S
C265 C266 1.398 1_556 S
C266 H254 0.950 . S
C266 C265 1.398 1_554 S
C266 C267 1.391 . S
C267 H255 0.950 . S
C267 C263 1.393 . S
C267 C266 1.391 . S
H268 C276 0.950 . S
H269 C281 0.950 . S
H270 C278 0.950 . S
H271 C280 0.950 . S
H272 C282 0.950 . S
H273 C284 0.950 . S
H274 C286 0.950 . S
H275 C287 0.950 . S
C276 H268 0.950 . S
C276 C277 1.386 . S
C276 C278 1.391 . S
C277 C276 1.386 . S
C277 C281 1.393 . S
C278 H270 0.950 . S
C278 C276 1.391 . S
C278 C279 1.400 . S
C279 C278 1.400 . S
C279 C280 1.398 . S
C279 C285 1.491 . S
C280 H271 0.950 . S
C280 C279 1.398 . S
C280 C281 1.391 . S
C281 H269 0.950 . S
C281 C277 1.393 . S
C281 C280 1.391 . S
C282 H272 0.950 . S
C282 C283 1.386 . S
C282 C284 1.391 . S
C283 C282 1.386 . S
C283 C287 1.393 . S
C284 H273 0.950 . S
C284 C282 1.391 . S
C284 C285 1.400 . S
C285 C279 1.491 . S
C285 C284 1.400 . S
C285 C286 1.398 . S
C286 H274 0.950 . S
C286 C285 1.398 . S
C286 C287 1.391 . S
C287 H275 0.950 . S
C287 C283 1.393 . S
C287 C286 1.391 . S
H288 C296 0.950 . S
H289 C301 0.950 . S
H290 C298 0.950 . S
H291 C300 0.950 . S
H292 C302 0.950 . S
H293 C304 0.950 . S
H294 C306 0.950 . S
H295 C307 0.950 . S
C296 H288 0.950 . S
C296 C297 1.386 . S
C296 C298 1.391 . S
C297 C296 1.386 . S
C297 C301 1.393 . S
C298 H290 0.950 . S
C298 C296 1.391 . S
C298 C299 1.400 . S
C299 C298 1.400 . S
C299 C300 1.398 . S
C299 C305 1.491 . S
C300 H291 0.950 . S
C300 C299 1.398 . S
C300 C301 1.391 . S
C301 H289 0.950 . S
C301 C297 1.393 . S
C301 C300 1.391 . S
C302 H292 0.950 . S
C302 C303 1.386 . S
C302 C304 1.391 . S
C303 C302 1.386 . S
C303 C307 1.393 . S
C304 H293 0.950 . S
C304 C302 1.391 . S
C304 C305 1.400 . S
C305 C299 1.491 . S
C305 C304 1.400 . S
C305 C306 1.398 . S
C306 H294 0.950 . S
C306 C305 1.398 . S
C306 C307 1.391 . S
C307 H295 0.950 . S
C307 C303 1.393 . S
C307 C306 1.391 . S
H308 C316 0.950 . S
H309 C321 0.950 . S
H310 C318 0.950 . S
H311 C320 0.950 . S
H312 C322 0.950 . S
H313 C324 0.950 . S
H314 C326 0.950 . S
H315 C327 0.950 . S
C316 H308 0.950 . S
C316 C317 1.386 . S
C316 C318 1.391 . S
C317 C316 1.386 . S
C317 C321 1.393 . S
C318 H310 0.950 . S
C318 C316 1.391 . S
C318 C319 1.400 . S
C319 C318 1.400 . S
C319 C320 1.398 . S
C319 C325 1.491 . S
C320 H311 0.950 . S
C320 C319 1.398 . S
C320 C321 1.391 . S
C321 H309 0.950 . S
C321 C317 1.393 . S
C321 C320 1.391 . S
C322 H312 0.950 . S
C322 C323 1.386 . S
C322 C324 1.391 . S
C323 C322 1.386 . S
C323 C327 1.393 . S
C324 H313 0.950 . S
C324 C322 1.391 . S
C324 C325 1.400 . S
C325 C319 1.491 . S
C325 C324 1.400 . S
C325 C326 1.398 . S
C326 H314 0.950 . S
C326 C325 1.398 . S
C326 C327 1.391 . S
C327 H315 0.950 . S
C327 C323 1.393 . S
C327 C326 1.391 . S
H328 C336 0.950 . S
H329 C341 0.950 . S
H330 C338 0.950 . S
H331 C340 0.950 . S
H332 C342 0.950 . S
H333 C344 0.950 . S
H334 C346 0.950 . S
H335 C347 0.950 . S
C336 H328 0.950 . S
C336 C337 1.386 . S
C336 C338 1.391 . S
C337 C336 1.386 . S
C337 C341 1.393 . S
C338 H330 0.950 . S
C338 C336 1.391 . S
C338 C339 1.400 . S
C339 C338 1.400 . S
C339 C340 1.398 . S
C339 C345 1.491 . S
C340 H331 0.950 . S
C340 C339 1.398 . S
C340 C341 1.391 . S
C341 H329 0.950 . S
C341 C337 1.393 . S
C341 C340 1.391 . S
C342 H332 0.950 . S
C342 C343 1.386 . S
C342 C344 1.391 . S
C343 C342 1.386 . S
C343 C347 1.393 . S
C344 H333 0.950 . S
C344 C342 1.391 . S
C344 C345 1.400 . S
C345 C339 1.491 . S
C345 C344 1.400 . S
C345 C346 1.398 . S
C346 H334 0.950 . S
C346 C345 1.398 . S
C346 C347 1.391 . S
C347 H335 0.950 . S
C347 C343 1.393 . S
C347 C346 1.391 . S
H348 C356 0.950 . S
H349 C361 0.950 . S
H350 C358 0.950 . S
H351 C360 0.950 . S
H352 C362 0.950 . S
H353 C364 0.950 . S
H354 C366 0.950 . S
H355 C367 0.950 . S
C356 H348 0.950 . S
C356 C357 1.386 . S
C356 C358 1.391 . S
C357 C356 1.386 . S
C357 C361 1.393 . S
C358 H350 0.950 . S
C358 C356 1.391 . S
C358 C359 1.400 . S
C359 C358 1.400 . S
C359 C360 1.398 . S
C359 C365 1.491 . S
C360 H351 0.950 . S
C360 C359 1.398 . S
C360 C361 1.391 . S
C361 H349 0.950 . S
C361 C357 1.393 . S
C361 C360 1.391 . S
C362 H352 0.950 . S
C362 C363 1.386 . S
C362 C364 1.391 . S
C363 C362 1.386 . S
C363 C367 1.393 . S
C364 H353 0.950 . S
C364 C362 1.391 . S
C364 C365 1.400 . S
C365 C359 1.491 . S
C365 C364 1.400 . S
C365 C366 1.398 . S
C366 H354 0.950 . S
C366 C365 1.398 . S
C366 C367 1.391 . S
C367 H355 0.950 . S
C367 C363 1.393 . S
C367 C366 1.391 . S
H368 C376 0.950 . S
H369 C381 0.950 . S
H370 C378 0.950 . S
H371 C380 0.950 . S
H372 C382 0.950 . S
H373 C384 0.950 . S
H374 C386 0.950 . S
H375 C387 0.950 . S
C376 H368 0.950 . S
C376 C377 1.386 . S
C376 C378 1.391 . S
C377 C376 1.386 . S
C377 C381 1.393 . S
C378 H370 0.950 . S
C378 C376 1.391 . S
C378 C379 1.400 . S
C379 C378 1.400 . S
C379 C380 1.398 . S
C379 C385 1.491 . S
C380 H371 0.950 . S
C380 C379 1.398 . S
C380 C381 1.391 . S
C381 H369 0.950 . S
C381 C377 1.393 . S
C381 C380 1.391 . S
C382 H372 0.950 . S
C382 C383 1.386 . S
C382 C384 1.391 . S
C383 C382 1.386 . S
C383 C387 1.393 . S
C384 H373 0.950 . S
C384 C382 1.391 . S
C384 C385 1.400 . S
C385 C379 1.491 . S
C385 C384 1.400 . S
C385 C386 1.398 . S
C386 H374 0.950 . S
C386 C385 1.398 . S
C386 C387 1.391 . S
C387 H375 0.950 . S
C387 C383 1.393 . S
C387 C386 1.391 . S
H388 C396 0.950 . S
H389 C401 0.941 1_554 S
H390 C398 0.950 . S
H391 C400 0.950 1_554 S
H392 C402 0.950 . S
H393 C404 0.950 . S
H394 C406 0.950 . S
H395 C407 0.950 . S
C396 H388 0.950 . S
C396 C397 1.386 . S
C396 C398 1.391 . S
C397 C396 1.386 . S
C397 C401 1.393 . S
C398 H390 0.950 . S
C398 C396 1.391 . S
C398 C399 1.400 . S
C399 C398 1.400 . S
C399 C400 1.398 . S
C399 C405 1.491 . S
C400 H391 0.950 1_556 S
C400 C399 1.398 . S
C400 C401 1.391 . S
C401 H389 0.941 1_556 S
C401 C397 1.393 . S
C401 C400 1.391 . S
C402 H392 0.950 . S
C402 C403 1.386 1_554 S
C402 C404 1.391 . S
C403 C402 1.386 1_556 S
C403 C407 1.393 . S
C404 H393 0.950 . S
C404 C402 1.391 . S
C404 C405 1.400 1_554 S
C405 C399 1.491 . S
C405 C404 1.400 1_556 S
C405 C406 1.398 . S
C406 H394 0.950 . S
C406 C405 1.398 . S
C406 C407 1.391 . S
C407 H395 0.950 . S
C407 C403 1.393 . S
C407 C406 1.391 . S
H408 C416 0.950 . S
H409 C421 0.950 . S
H410 C418 0.950 . S
H411 C420 0.950 . S
H412 C422 0.950 . S
H413 C424 0.950 . S
H414 C426 0.950 . S
H415 C427 0.950 . S
C416 H408 0.950 . S
C416 C417 1.386 . S
C416 C418 1.391 . S
C417 C416 1.386 . S
C417 C421 1.393 . S
C418 H410 0.950 . S
C418 C416 1.391 . S
C418 C419 1.400 . S
C419 C418 1.400 . S
C419 C420 1.398 . S
C419 C425 1.491 . S
C420 H411 0.950 . S
C420 C419 1.398 . S
C420 C421 1.391 . S
C421 H409 0.950 . S
C421 C417 1.393 . S
C421 C420 1.391 . S
C422 H412 0.950 . S
C422 C423 1.386 . S
C422 C424 1.391 . S
C423 C422 1.386 . S
C423 C427 1.393 . S
C424 H413 0.950 . S
C424 C422 1.391 . S
C424 C425 1.400 . S
C425 C419 1.491 . S
C425 C424 1.400 . S
C425 C426 1.398 . S
C426 H414 0.950 . S
C426 C425 1.398 . S
C426 C427 1.391 . S
C427 H415 0.950 . S
C427 C423 1.393 . S
C427 C426 1.391 . S
H428 C436 0.950 . S
H429 C441 0.950 . S
H430 C438 0.950 . S
H431 C440 0.950 . S
H432 C442 0.950 . S
H433 C444 0.950 . S
H434 C446 0.950 . S
H435 C447 0.950 . S
C436 H428 0.950 . S
C436 C437 1.386 . S
C436 C438 1.391 . S
C437 C436 1.386 . S
C437 C441 1.393 . S
C438 H430 0.950 . S
C438 C436 1.391 . S
C438 C439 1.400 1_554 S
C439 C438 1.400 1_556 S
C439 C440 1.398 . S
C439 C445 1.491 . S
C440 H431 0.950 . S
C440 C439 1.398 . S
C440 C441 1.391 1_556 S
C441 H429 0.950 . S
C441 C437 1.393 . S
C441 C440 1.391 1_554 S
C442 H432 0.950 . S
C442 C443 1.386 . S
C442 C444 1.391 . S
C443 C442 1.386 . S
C443 C447 1.393 . S
C444 H433 0.950 . S
C444 C442 1.391 . S
C444 C445 1.400 . S
C445 C439 1.491 . S
C445 C444 1.400 . S
C445 C446 1.398 . S
C446 H434 0.950 . S
C446 C445 1.398 . S
C446 C447 1.391 . S
C447 H435 0.950 . S
C447 C443 1.393 . S
C447 C446 1.391 . S
H448 C456 0.950 . S
H449 C461 0.950 . S
H450 C458 0.950 . S
H451 C460 0.950 . S
H452 C462 0.950 . S
H453 C464 0.950 . S
H454 C466 0.950 . S
H455 C467 0.950 1_556 S
C456 H448 0.950 . S
C456 C457 1.386 . S
C456 C458 1.391 . S
C457 C456 1.386 . S
C457 C461 1.393 . S
C458 H450 0.950 . S
C458 C456 1.391 . S
C458 C459 1.400 . S
C459 C458 1.400 . S
C459 C460 1.398 . S
C459 C465 1.491 . S
C460 H451 0.950 . S
C460 C459 1.398 . S
C460 C461 1.391 . S
C461 H449 0.950 . S
C461 C457 1.393 . S
C461 C460 1.391 . S
C462 H452 0.950 . S
C462 C463 1.386 . S
C462 C464 1.391 . S
C463 C462 1.386 . S
C463 C467 1.393 . S
C464 H453 0.950 . S
C464 C462 1.391 . S
C464 C465 1.400 . S
C465 C459 1.491 . S
C465 C464 1.400 . S
C465 C466 1.398 . S
C466 H454 0.950 . S
C466 C465 1.398 . S
C466 C467 1.391 . S
C467 H455 0.950 1_554 S
C467 C463 1.393 . S
C467 C466 1.391 . S
H468 C476 0.950 . S
H469 C481 0.950 . S
H470 C478 0.950 . S
H471 C480 0.950 . S
H472 C482 0.950 . S
H473 C484 0.950 . S
H474 C486 0.950 . S
H475 C487 0.950 . S
C476 H468 0.950 . S
C476 C477 1.386 . S
C476 C478 1.391 . S
C477 C476 1.386 . S
C477 C481 1.393 . S
C478 H470 0.950 . S
C478 C476 1.391 . S
C478 C479 1.400 . S
C479 C478 1.400 . S
C479 C480 1.398 . S
C479 C485 1.491 . S
C480 H471 0.950 . S
C480 C479 1.398 . S
C480 C481 1.391 . S
C481 H469 0.950 . S
C481 C477 1.393 . S
C481 C480 1.391 . S
C482 H472 0.950 . S
C482 C483 1.386 . S
C482 C484 1.391 . S
C483 C482 1.386 . S
C483 C487 1.393 . S
C484 H473 0.950 . S
C484 C482 1.391 . S
C484 C485 1.400 . S
C485 C479 1.491 . S
C485 C484 1.400 . S
C485 C486 1.398 . S
C486 H474 0.950 . S
C486 C485 1.398 . S
C486 C487 1.391 . S
C487 H475 0.950 . S
C487 C483 1.393 . S
C487 C486 1.391 . S
H488 C496 0.950 . S
H489 C501 0.950 . S
H490 C498 0.950 . S
H491 C500 0.950 . S
H492 C502 0.950 . S
H493 C504 0.950 . S
H494 C506 0.950 . S
H495 C507 0.950 . S
C496 H488 0.950 . S
C496 C497 1.386 . S
C496 C498 1.391 . S
C497 C496 1.386 . S
C497 C501 1.393 . S
C498 H490 0.950 . S
C498 C496 1.391 . S
C498 C499 1.400 . S
C499 C498 1.400 . S
C499 C500 1.398 . S
C499 C505 1.491 . S
C500 H491 0.950 . S
C500 C499 1.398 . S
C500 C501 1.391 . S
C501 H489 0.950 . S
C501 C497 1.393 . S
C501 C500 1.391 . S
C502 H492 0.950 . S
C502 C503 1.386 . S
C502 C504 1.391 . S
C503 C502 1.386 . S
C503 C507 1.393 . S
C504 H493 0.950 . S
C504 C502 1.391 . S
C504 C505 1.400 . S
C505 C499 1.491 . S
C505 C504 1.400 . S
C505 C506 1.398 . S
C506 H494 0.950 . S
C506 C505 1.398 . S
C506 C507 1.391 . S
C507 H495 0.950 . S
C507 C503 1.393 . S
C507 C506 1.391 . S
H508 C516 0.950 . S
H509 C521 0.950 . S
H510 C518 0.950 . S
H511 C520 0.950 . S
H512 C522 0.950 . S
H513 C524 0.950 . S
H514 C526 0.950 . S
H515 C527 0.950 . S
C516 H508 0.950 . S
C516 C517 1.386 . S
C516 C518 1.391 . S
C517 C516 1.386 . S
C517 C521 1.393 . S
C518 H510 0.950 . S
C518 C516 1.391 . S
C518 C519 1.400 . S
C519 C518 1.400 . S
C519 C520 1.398 . S
C519 C525 1.491 . S
C520 H511 0.950 . S
C520 C519 1.398 . S
C520 C521 1.391 . S
C521 H509 0.950 . S
C521 C517 1.393 . S
C521 C520 1.391 . S
C522 H512 0.950 . S
C522 C523 1.386 . S
C522 C524 1.391 . S
C523 C522 1.386 . S
C523 C527 1.393 . S
C524 H513 0.950 . S
C524 C522 1.391 . S
C524 C525 1.400 . S
C525 C519 1.491 . S
C525 C524 1.400 . S
C525 C526 1.398 . S
C526 H514 0.950 . S
C526 C525 1.398 . S
C526 C527 1.391 . S
C527 H515 0.950 . S
C527 C523 1.393 . S
C527 C526 1.391 . S
H528 C536 0.950 1_554 S
H529 C541 0.950 . S
H530 C538 0.950 . S
H531 C540 0.950 . S
H532 C542 0.950 . S
H533 C544 0.950 . S
H534 C546 0.950 . S
H535 C547 0.950 . S
C536 H528 0.950 1_556 S
C536 C537 1.386 . S
C536 C538 1.391 . S
C537 C536 1.386 . S
C537 C541 1.393 . S
C538 H530 0.950 . S
C538 C536 1.391 . S
C538 C539 1.400 . S
C539 C538 1.400 . S
C539 C540 1.398 . S
C539 C545 1.491 1_455 S
C540 H531 0.950 . S
C540 C539 1.398 . S
C540 C541 1.391 . S
C541 H529 0.950 . S
C541 C537 1.393 . S
C541 C540 1.391 . S
C542 H532 0.950 . S
C542 C543 1.386 . S
C542 C544 1.391 . S
C543 C542 1.386 . S
C543 C547 1.393 . S
C544 H533 0.950 . S
C544 C542 1.391 . S
C544 C545 1.400 . S
C545 C539 1.491 1_655 S
C545 C544 1.400 . S
C545 C546 1.398 . S
C546 H534 0.950 . S
C546 C545 1.398 . S
C546 C547 1.391 . S
C547 H535 0.950 . S
C547 C543 1.393 . S
C547 C546 1.391 . S
H548 C556 0.950 . S
H549 C561 0.950 . S
H550 C558 0.950 . S
H551 C560 0.950 . S
H552 C562 0.950 . S
H553 C564 0.950 . S
H554 C566 0.950 . S
H555 C567 0.950 . S
C556 H548 0.950 . S
C556 C557 1.386 . S
C556 C558 1.391 . S
C557 C556 1.386 . S
C557 C561 1.393 1_556 S
C558 H550 0.950 . S
C558 C556 1.391 . S
C558 C559 1.400 1_556 S
C559 C558 1.400 1_554 S
C559 C560 1.398 . S
C559 C565 1.491 1_565 S
C560 H551 0.950 . S
C560 C559 1.398 . S
C560 C561 1.391 . S
C561 H549 0.950 . S
C561 C557 1.393 1_554 S
C561 C560 1.391 . S
C562 H552 0.950 . S
C562 C563 1.386 . S
C562 C564 1.391 . S
C563 C562 1.386 . S
C563 C567 1.393 . S
C564 H553 0.950 . S
C564 C562 1.391 . S
C564 C565 1.400 . S
C565 C559 1.491 1_545 S
C565 C564 1.400 . S
C565 C566 1.398 . S
C566 H554 0.950 . S
C566 C565 1.398 . S
C566 C567 1.391 . S
C567 H555 0.950 . S
C567 C563 1.393 . S
C567 C566 1.391 . S
H568 C576 0.950 . S
H569 C581 0.950 . S
H570 C578 0.950 . S
H571 C580 0.950 . S
H572 C582 0.950 . S
H573 C584 0.950 . S
H574 C586 0.950 . S
H575 C587 0.950 . S
C576 H568 0.950 . S
C576 C577 1.386 . S
C576 C578 1.391 . S
C577 C576 1.386 . S
C577 C581 1.393 . S
C578 H570 0.950 . S
C578 C576 1.391 . S
C578 C579 1.400 . S
C579 C578 1.400 . S
C579 C580 1.398 . S
C579 C585 1.491 . S
C580 H571 0.950 . S
C580 C579 1.398 . S
C580 C581 1.391 . S
C581 H569 0.950 . S
C581 C577 1.393 . S
C581 C580 1.391 . S
C582 H572 0.950 . S
C582 C583 1.386 . S
C582 C584 1.391 . S
C583 C582 1.386 . S
C583 C587 1.393 . S
C584 H573 0.950 . S
C584 C582 1.391 . S
C584 C585 1.400 . S
C585 C579 1.491 . S
C585 C584 1.400 . S
C585 C586 1.398 . S
C586 H574 0.950 . S
C586 C585 1.398 . S
C586 C587 1.391 . S
C587 H575 0.950 . S
C587 C583 1.393 . S
C587 C586 1.391 . S
H588 C596 0.950 . S
H589 C601 0.950 . S
H590 C598 0.950 1_655 S
H591 C600 0.950 . S
H592 C602 0.950 . S
H593 C604 0.950 1_455 S
H594 C606 0.950 . S
H595 C607 0.950 . S
C596 H588 0.950 . S
C596 C597 1.386 . S
C596 C598 1.391 . S
C597 C596 1.386 . S
C597 C601 1.393 . S
C598 H590 0.950 1_455 S
C598 C596 1.391 . S
C598 C599 1.400 . S
C599 C598 1.400 . S
C599 C600 1.398 . S
C599 C605 1.491 1_455 S
C600 H591 0.950 . S
C600 C599 1.398 . S
C600 C601 1.391 . S
C601 H589 0.950 . S
C601 C597 1.393 . S
C601 C600 1.391 . S
C602 H592 0.950 . S
C602 C603 1.386 . S
C602 C604 1.391 . S
C603 C602 1.386 . S
C603 C607 1.393 . S
C604 H593 0.950 1_655 S
C604 C602 1.391 . S
C604 C605 1.400 . S
C605 C599 1.491 1_655 S
C605 C604 1.400 . S
C605 C606 1.398 . S
C606 H594 0.950 . S
C606 C605 1.398 . S
C606 C607 1.391 . S
C607 H595 0.950 . S
C607 C603 1.393 . S
C607 C606 1.391 . S
H608 C616 0.950 . S
H609 C621 0.950 . S
H610 C618 0.950 . S
H611 C620 0.950 1_565 S
H612 C622 0.950 . S
H613 C624 0.950 . S
H614 C626 0.950 1_545 S
H615 C627 0.950 . S
C616 H608 0.950 . S
C616 C617 1.386 . S
C616 C618 1.391 . S
C617 C616 1.386 . S
C617 C621 1.393 . S
C618 H610 0.950 . S
C618 C616 1.391 . S
C618 C619 1.400 . S
C619 C618 1.400 . S
C619 C620 1.398 . S
C619 C625 1.491 1_545 S
C620 H611 0.950 1_545 S
C620 C619 1.398 . S
C620 C621 1.391 . S
C621 H609 0.950 . S
C621 C617 1.393 . S
C621 C620 1.391 . S
C622 H612 0.950 . S
C622 C623 1.386 . S
C622 C624 1.391 . S
C623 C622 1.386 . S
C623 C627 1.393 . S
C624 H613 0.950 . S
C624 C622 1.391 . S
C624 C625 1.400 . S
C625 C619 1.491 1_565 S
C625 C624 1.400 . S
C625 C626 1.398 . S
C626 H614 0.950 1_565 S
C626 C625 1.398 . S
C626 C627 1.391 . S
C627 H615 0.950 . S
C627 C623 1.393 . S
C627 C626 1.391 . S
H628 C636 0.950 . S
H629 C641 0.950 . S
H630 C638 0.950 . S
H631 C640 0.950 . S
H632 C642 0.950 . S
H633 C644 0.950 . S
H634 C646 0.950 . S
H635 C647 0.950 . S
C636 H628 0.950 . S
C636 C637 1.386 . S
C636 C638 1.391 . S
C637 C636 1.386 . S
C637 C641 1.393 . S
C638 H630 0.950 . S
C638 C636 1.391 . S
C638 C639 1.400 . S
C639 C638 1.400 . S
C639 C640 1.398 . S
C639 C645 1.491 . S
C640 H631 0.950 . S
C640 C639 1.398 . S
C640 C641 1.391 . S
C641 H629 0.950 . S
C641 C637 1.393 . S
C641 C640 1.391 . S
C642 H632 0.950 . S
C642 C643 1.386 . S
C642 C644 1.391 . S
C643 C642 1.386 . S
C643 C647 1.393 . S
C644 H633 0.950 . S
C644 C642 1.391 . S
C644 C645 1.400 . S
C645 C639 1.491 . S
C645 C644 1.400 . S
C645 C646 1.398 . S
C646 H634 0.950 . S
C646 C645 1.398 . S
C646 C647 1.391 . S
C647 H635 0.950 . S
C647 C643 1.393 . S
C647 C646 1.391 . S
C177 C9 2.067 . S
C183 C149 2.074 . S
C197 C163 2.075 . S
C203 C23 2.073 . S
C217 C37 2.067 . S
C223 C93 2.059 . S
C237 C51 2.073 . S
C243 C107 2.075 . S
C257 C65 2.073 . S
C263 C121 2.066 . S
C277 C135 2.058 . S
C283 C79 2.059 1_554 S
C297 C8 1.620 . S
C303 C120 1.617 . S
C317 C22 1.625 . S
C323 C134 1.614 . S
C337 C148 1.626 . S
C343 C36 1.619 . S
C357 C50 1.614 . S
C363 C162 1.625 . S
C377 C64 1.619 . S
C383 C92 1.618 . S
C397 C78 1.615 . S
C403 C106 1.623 1_556 S
C417 C147 0.811 . S
C423 C7 0.770 . S
C437 C21 0.809 . S
C443 C161 0.772 . S
C457 C35 0.779 . S
C463 C91 0.803 1_554 S
C477 C49 0.772 . S
C483 C105 0.809 . S
C497 C119 0.806 . S
C503 C63 0.776 . S
C517 C77 0.799 . S
C523 C133 0.783 . S
C537 C6 1.541 1_556 S
C543 C160 1.540 . S
C557 C90 1.541 . S
C563 C20 1.539 . S
C577 C104 1.534 . S
C583 C34 1.536 . S
C597 C118 1.540 . S
C603 C48 1.538 . S
C617 C132 1.535 . S
C623 C62 1.537 . S
C637 C146 1.541 . S
C643 C76 1.541 . S
