# Generated by pormake.
# Topology vby, (6)-cn, num edge types: 1
# Building blocks:
#     Node 0, Type 0, BuildingBlock: MIFKUJ_clean_sbu_0, # of connection points: 6
#     Node 1, Type 0, BuildingBlock: MIFKUJ_clean_sbu_0, # of connection points: 6
#     Node 2, Type 0, BuildingBlock: MIFKUJ_clean_sbu_0, # of connection points: 6
#     Node 3, Type 0, BuildingBlock: MIFKUJ_clean_sbu_0, # of connection points: 6
#     Node 4, Type 0, BuildingBlock: MIFKUJ_clean_sbu_0, # of connection points: 6
#     Node 5, Type 0, BuildingBlock: MIFKUJ_clean_sbu_0, # of connection points: 6
#     Node 6, Type 0, BuildingBlock: MIFKUJ_clean_sbu_0, # of connection points: 6
#     Node 7, Type 0, BuildingBlock: MIFKUJ_clean_sbu_0, # of connection points: 6
#     Edge 8, Type (0, 0), BuildingBlock: EZIPEK_clean_linker_0, # of connection points: 2
#     Edge 9, Type (0, 0), BuildingBlock: EZIPEK_clean_linker_0, # of connection points: 2
#     Edge 10, Type (0, 0), BuildingBlock: EZIPEK_clean_linker_0, # of connection points: 2
#     Edge 11, Type (0, 0), BuildingBlock: EZIPEK_clean_linker_0, # of connection points: 2
#     Edge 12, Type (0, 0), BuildingBlock: EZIPEK_clean_linker_0, # of connection points: 2
#     Edge 13, Type (0, 0), BuildingBlock: EZIPEK_clean_linker_0, # of connection points: 2
#     Edge 14, Type (0, 0), BuildingBlock: EZIPEK_clean_linker_0, # of connection points: 2
#     Edge 15, Type (0, 0), BuildingBlock: EZIPEK_clean_linker_0, # of connection points: 2
#     Edge 16, Type (0, 0), BuildingBlock: EZIPEK_clean_linker_0, # of connection points: 2
#     Edge 17, Type (0, 0), BuildingBlock: EZIPEK_clean_linker_0, # of connection points: 2
#     Edge 18, Type (0, 0), BuildingBlock: EZIPEK_clean_linker_0, # of connection points: 2
#     Edge 19, Type (0, 0), BuildingBlock: EZIPEK_clean_linker_0, # of connection points: 2
#     Edge 20, Type (0, 0), BuildingBlock: EZIPEK_clean_linker_0, # of connection points: 2
#     Edge 21, Type (0, 0), BuildingBlock: EZIPEK_clean_linker_0, # of connection points: 2
#     Edge 22, Type (0, 0), BuildingBlock: EZIPEK_clean_linker_0, # of connection points: 2
#     Edge 23, Type (0, 0), BuildingBlock: EZIPEK_clean_linker_0, # of connection points: 2
#     Edge 24, Type (0, 0), BuildingBlock: EZIPEK_clean_linker_0, # of connection points: 2
#     Edge 25, Type (0, 0), BuildingBlock: EZIPEK_clean_linker_0, # of connection points: 2
#     Edge 26, Type (0, 0), BuildingBlock: EZIPEK_clean_linker_0, # of connection points: 2
#     Edge 27, Type (0, 0), BuildingBlock: EZIPEK_clean_linker_0, # of connection points: 2
#     Edge 28, Type (0, 0), BuildingBlock: EZIPEK_clean_linker_0, # of connection points: 2
#     Edge 29, Type (0, 0), BuildingBlock: EZIPEK_clean_linker_0, # of connection points: 2
#     Edge 30, Type (0, 0), BuildingBlock: EZIPEK_clean_linker_0, # of connection points: 2
#     Edge 31, Type (0, 0), BuildingBlock: EZIPEK_clean_linker_0, # of connection points: 2
# Relax obj value: 0.112
# Max RMSD: 0.164
# Mean RMSD: 0.164
data_MOF--net-vby--node1-MIFKUJ_clean_sbu_0--edge1-EZIPEK_clean_linker_0
_symmetry_space_group_name_H-M    P1
_symmetry_Int_Tables_number       1
_symmetry_cell_setting            triclinic
loop_
_symmetry_equiv_pos_as_xyz
'x, y, z'
_cell_length_a     13.405551
_cell_length_b     56.233315
_cell_length_c     19.814834
_cell_angle_alpha  90.897239
_cell_angle_beta   90.010224
_cell_angle_gamma 89.709775
loop_
_atom_site_label
_atom_site_type_symbol
_atom_site_fract_x
_atom_site_fract_y
_atom_site_fract_z
_atom_type_partial_charge
Zn0 Zn 0.1606 0.3442 -0.00144 0.0
Zn1 Zn 0.96572 0.4002 0.97151 0.0
C2 C 0.36766 0.35075 0.96128 0.0
O3 O 0.35123 0.33197 0.92272 0.0
C4 C 0.75806 0.39409 0.9764 0.0
O5 O 0.77197 0.40902 0.02714 0.0
O6 O 0.1764 0.30917 0.01652 0.0
O7 O 0.07828 0.36076 0.07604 0.0
O8 O 0.97437 0.39225 0.06885 0.0
C9 C 0.2236 0.30058 0.06614 0.0
O10 O 0.2625 0.31483 0.11207 0.0
O11 O 0.29765 0.35918 -0.00209 0.0
C12 C 0.04704 0.44544 0.92772 0.0
O13 O 0.11516 0.43222 0.89764 0.0
O14 O 0.97745 0.43572 0.96073 0.0
O15 O 0.07809 0.38191 0.93572 0.0
O16 O 0.10463 0.34569 0.90345 0.0
O17 O 0.83216 0.38781 0.94015 0.0
C18 C 0.01819 0.37611 0.10259 0.0
C19 C 0.06783 0.36583 0.8912 0.0
Zn20 Zn 0.83477 0.65185 0.96306 0.0
Zn21 Zn 0.02015 0.5978 0.94245 0.0
C22 C 0.62909 0.64324 0.92079 0.0
O23 O 0.6454 0.66118 0.88075 0.0
C24 C 0.23139 0.60491 0.95405 0.0
O25 O 0.21526 0.59375 0.01072 0.0
O26 O 0.80922 0.68724 0.97575 0.0
O27 O 0.90267 0.64127 0.04926 0.0
O28 O 1.00496 0.61015 0.03761 0.0
C29 C 0.75519 0.69496 0.0242 0.0
O30 O 0.71517 0.67985 0.06606 0.0
O31 O 0.6993 0.63565 0.95809 0.0
C32 C 0.07807 0.54791 0.91717 0.0
O33 O 0.15486 0.55688 0.88558 0.0
O34 O 0.01359 0.56169 0.94443 0.0
O35 O 0.91261 0.60892 0.87775 0.0
O36 O 0.91202 0.64767 0.87492 0.0
O37 O 0.15891 0.60852 0.91382 0.0
C38 C 0.96273 0.62609 0.07399 0.0
C39 C 0.93022 0.62778 0.84592 0.0
Zn40 Zn 0.17853 0.65802 0.46824 0.0
Zn41 Zn 0.97328 0.60285 0.49195 0.0
C42 C 0.36268 0.63678 0.5171 0.0
O43 O 0.32062 0.63886 0.57668 0.0
C44 C 0.7637 0.59988 0.49374 0.0
O45 O 0.78283 0.5833 0.44809 0.0
O46 O 0.19147 0.69257 0.44384 0.0
O47 O 0.09071 0.63977 0.39551 0.0
O48 O 0.9784 0.61028 0.39422 0.0
C49 C 0.24347 0.70545 0.48355 0.0
O50 O 0.2844 0.69598 0.53705 0.0
O51 O 0.3167 0.64366 0.46472 0.0
C52 C 1.00444 0.55839 0.56283 0.0
O53 O 0.96828 0.57014 0.61524 0.0
O54 O 0.01512 0.56888 0.507 0.0
O55 O 0.06506 0.62659 0.52331 0.0
O56 O 0.13117 0.65759 0.56716 0.0
O57 O 0.83522 0.61029 0.52374 0.0
C58 C 0.02983 0.62594 0.36378 0.0
C59 C 0.07771 0.63948 0.57482 0.0
Zn60 Zn 0.83258 0.35354 0.50126 0.0
Zn61 Zn 0.01247 0.40798 0.52138 0.0
C62 C 0.61443 0.35443 0.52616 0.0
O63 O 0.62479 0.33199 0.54217 0.0
C64 C 0.22312 0.39872 0.50597 0.0
O65 O 0.21194 0.41502 0.45973 0.0
O66 O 0.83148 0.31796 0.48379 0.0
O67 O 0.88842 0.36778 0.41576 0.0
O68 O 0.98239 0.39976 0.42471 0.0
C69 C 0.7935 0.30863 0.43093 0.0
O70 O 0.73885 0.32232 0.39257 0.0
O71 O 0.69047 0.36644 0.50938 0.0
C72 C 0.08373 0.45708 0.55612 0.0
O73 O 0.16321 0.44724 0.5828 0.0
O74 O 0.01717 0.44412 0.52847 0.0
O75 O 0.90683 0.39755 0.58803 0.0
O76 O 0.90749 0.35866 0.58967 0.0
O77 O 0.14808 0.39286 0.54133 0.0
C78 C 0.93646 0.38456 0.38844 0.0
C79 C 0.92376 0.37847 0.61931 0.0
Zn80 Zn 0.68879 0.84423 -0.0021 0.0
Zn81 Zn 0.48703 0.90129 0.98868 0.0
C82 C 0.8839 0.85592 0.95061 0.0
O83 O 0.85257 0.84486 0.89583 0.0
C84 C 0.27833 0.89242 0.99303 0.0
O85 O 0.29455 0.89631 0.05757 0.0
O86 O 0.7026 0.80875 0.00821 0.0
O87 O 0.60327 0.86027 0.07695 0.0
O88 O 0.49547 0.89113 0.08459 0.0
C89 C 0.69021 0.79634 0.06052 0.0
O90 O 0.66356 0.80662 0.11775 0.0
O91 O 0.82721 0.85779 0.00186 0.0
C92 C 0.46943 0.95194 0.97279 0.0
O93 O 0.37364 0.94727 0.97418 0.0
O94 O 0.53249 0.93511 0.9774 0.0
O95 O 0.57984 0.87862 0.95278 0.0
O96 O 0.64107 0.84854 0.90061 0.0
O97 O 0.34975 0.89429 0.95138 0.0
C98 C 0.54384 0.87395 0.11108 0.0
C99 C 0.59007 0.86732 0.89817 0.0
Zn100 Zn 0.3521 0.15464 -0.00529 0.0
Zn101 Zn 0.53726 0.1014 0.97721 0.0
C102 C 0.14356 0.14717 0.95915 0.0
O103 O 0.15325 0.16774 0.92944 0.0
C104 C 0.74935 0.10637 0.98711 0.0
O105 O 0.7333 0.09277 0.03928 0.0
O106 O 0.32514 0.18989 0.00424 0.0
O107 O 0.41787 0.14532 0.08202 0.0
O108 O 0.52125 0.11446 0.07121 0.0
C109 C 0.28686 0.19881 0.05765 0.0
O110 O 0.2636 0.18498 0.10799 0.0
O111 O 0.21834 0.13784 0.98841 0.0
C112 C 0.58358 0.05042 0.9519 0.0
O113 O 0.65677 0.05754 0.91332 0.0
O114 O 0.5287 0.06551 0.98291 0.0
O115 O 0.43147 0.11143 0.90962 0.0
O116 O 0.43178 0.15029 0.90835 0.0
O117 O 0.67631 0.11212 0.94961 0.0
C118 C 0.47857 0.13043 0.1071 0.0
C119 C 0.44752 0.13049 0.87833 0.0
Zn120 Zn 0.68381 0.1648 0.50277 0.0
Zn121 Zn 0.48353 0.10831 0.52362 0.0
C122 C 0.88311 0.15512 0.54733 0.0
O123 O 0.85621 0.16853 0.59908 0.0
C124 C 0.27464 0.11411 0.5136 0.0
O125 O 0.29375 0.1061 0.45233 0.0
O126 O 0.69403 0.19973 0.48211 0.0
O127 O 0.60033 0.14618 0.42863 0.0
O128 O 0.4915 0.11593 0.42639 0.0
C129 C 0.73758 0.20719 0.42968 0.0
O130 O 0.77176 0.19188 0.38451 0.0
O131 O 0.82214 0.15117 0.49943 0.0
C132 C 0.47383 0.05739 0.52966 0.0
O133 O 0.38149 0.06138 0.5107 0.0
O134 O 0.5322 0.07482 0.53981 0.0
O135 O 0.57302 0.13244 0.55481 0.0
O136 O 0.63922 0.16287 0.60159 0.0
O137 O 0.34479 0.11562 0.5565 0.0
C138 C 0.54172 0.13192 0.39651 0.0
C139 C 0.58677 0.14453 0.60762 0.0
Zn140 Zn 0.35629 0.85326 0.51696 0.0
Zn141 Zn 0.5353 0.90722 0.52727 0.0
C142 C 0.15146 0.86266 0.55646 0.0
O143 O 0.16695 0.8439 0.59366 0.0
C144 C 0.75093 0.89927 0.52518 0.0
O145 O 0.74287 0.91066 0.46809 0.0
O146 O 0.32683 0.81793 0.51457 0.0
O147 O 0.42622 0.86085 0.42903 0.0
O148 O 0.51763 0.89391 0.43216 0.0
C149 C 0.30586 0.80655 0.46048 0.0
O150 O 0.30242 0.81774 0.40285 0.0
O151 O 0.22177 0.87046 0.51984 0.0
C152 C 0.58823 0.9583 0.54603 0.0
O153 O 0.66943 0.9509 0.57624 0.0
O154 O 0.52681 0.94329 0.52157 0.0
O155 O 0.42884 0.89798 0.59469 0.0
O156 O 0.433 0.85931 0.6034 0.0
O157 O 0.67309 0.89582 0.56044 0.0
C158 C 0.48027 0.87624 0.40013 0.0
C159 C 0.44743 0.87978 0.62948 0.0
C160 C 0.52761 0.35904 0.02287 0.0
C161 C 0.46854 0.36149 0.96389 0.0
C162 C 0.60059 0.38523 0.91151 0.0
C163 C 0.66086 0.38183 0.96946 0.0
N164 N 0.69192 0.36138 0.07346 0.0
N165 N 0.4501 0.37481 0.84944 0.0
C166 C 0.62709 0.36761 0.02331 0.0
C167 C 0.50582 0.37384 0.90717 0.0
N168 N 0.48841 0.34869 0.07888 0.0
N169 N 0.63239 0.40011 0.86205 0.0
H170 H 0.37837 0.36783 0.84556 0.0
H171 H 0.47616 0.38151 0.8042 0.0
H172 H 0.70178 0.40841 0.86331 0.0
H173 H 0.5885 0.40548 0.82172 0.0
H174 H 0.52292 0.34907 0.12596 0.0
H175 H 0.41782 0.34108 0.07981 0.0
H176 H 0.67559 0.34897 0.11026 0.0
H177 H 0.76609 0.36686 0.07475 0.0
C178 C 0.34778 0.63963 0.94818 0.0
C179 C 0.33192 0.61479 0.94067 0.0
C180 C 0.50928 0.60896 0.91299 0.0
C181 C 0.52679 0.6334 0.927 0.0
N182 N 0.4665 0.67106 0.9711 0.0
N183 N 0.39941 0.5752 0.92524 0.0
C184 C 0.44692 0.64856 0.94763 0.0
C185 C 0.4133 0.59926 0.92589 0.0
N186 N 0.26832 0.65472 0.95687 0.0
N187 N 0.58328 0.59521 0.88495 0.0
H188 H 0.32993 0.56741 0.93226 0.0
H189 H 0.45775 0.56293 0.92265 0.0
H190 H 0.65413 0.60174 0.87421 0.0
H191 H 0.57207 0.57795 0.86679 0.0
H192 H 0.27417 0.67314 0.95444 0.0
H193 H 0.195 0.64889 0.96172 0.0
H194 H 0.41309 0.68209 0.99362 0.0
H195 H 0.53838 0.67792 0.97463 0.0
C196 C 0.58548 0.59493 0.52848 0.0
C197 C 0.6613 0.60932 0.50093 0.0
C198 C 0.54291 0.64232 0.48937 0.0
C199 C 0.46524 0.62728 0.51139 0.0
N200 N 0.40804 0.58829 0.54196 0.0
N201 N 0.70941 0.645 0.44308 0.0
C202 C 0.48522 0.60329 0.52845 0.0
C203 C 0.6394 0.63258 0.47812 0.0
N204 N 0.60982 0.57358 0.55634 0.0
N205 N 0.52544 0.6661 0.48146 0.0
H206 H 0.78083 0.63845 0.43281 0.0
H207 H 0.69395 0.66088 0.41873 0.0
H208 H 0.45577 0.67398 0.48931 0.0
H209 H 0.58175 0.67839 0.47298 0.0
H210 H 0.55982 0.56342 0.58374 0.0
H211 H 0.68252 0.56687 0.55679 0.0
H212 H 0.41684 0.57003 0.54782 0.0
H213 H 0.33356 0.59372 0.54156 0.0
C214 C 0.46693 0.36767 0.45787 0.0
C215 C 0.51316 0.36517 0.52181 0.0
C216 C 0.37024 0.38518 0.57619 0.0
C217 C 0.32092 0.38621 0.51275 0.0
N218 N 0.3125 0.37302 0.39634 0.0
N219 N 0.50245 0.36765 0.64307 0.0
C220 C 0.36666 0.37598 0.45436 0.0
C221 C 0.46254 0.37262 0.5814 0.0
N222 N 0.51888 0.36222 0.40026 0.0
N223 N 0.33212 0.39733 0.63071 0.0
H224 H 0.57184 0.35946 0.64896 0.0
H225 H 0.46317 0.3699 0.68802 0.0
H226 H 0.26641 0.40724 0.62869 0.0
H227 H 0.37007 0.39937 0.67628 0.0
H228 H 0.49345 0.36636 0.35215 0.0
H229 H 0.5909 0.35516 0.40058 0.0
H230 H 0.33848 0.36353 0.3543 0.0
H231 H 0.23745 0.37779 0.39246 0.0
C232 C 0.06001 0.8505 0.98857 0.0
C233 C 0.98776 0.86437 0.95459 0.0
C234 C 0.11047 0.89591 0.93747 0.0
C235 C 0.18234 0.88198 0.9716 0.0
N236 N 0.23553 0.84368 0.01082 0.0
N237 N 0.94744 0.89766 0.88417 0.0
C238 C 0.16004 0.85853 0.99156 0.0
C239 C 0.0142 0.88625 0.92474 0.0
N240 N 0.03274 0.82982 0.01881 0.0
N241 N 0.13311 0.91863 0.91964 0.0
H242 H 0.87564 0.8913 0.8752 0.0
H243 H 0.96524 0.91237 0.85541 0.0
H244 H 0.20401 0.92586 0.92613 0.0
H245 H 0.08083 0.93073 0.90167 0.0
H246 H 0.07927 0.82044 0.05112 0.0
H247 H 0.96116 0.82272 0.01503 0.0
H248 H 0.22578 0.82569 0.02039 0.0
H249 H 0.31021 0.8488 0.01004 0.0
C250 C 0.99034 0.1391 0.02747 0.0
C251 C 0.04307 0.13649 0.96566 0.0
C252 C 0.90428 0.11336 0.91767 0.0
C253 C 0.84903 0.11736 0.97801 0.0
N254 N 0.83018 0.13863 0.08401 0.0
N255 N 0.04621 0.12421 0.84858 0.0
C256 C 0.88962 0.13145 0.03129 0.0
C257 C 0.99854 0.12463 0.90959 0.0
N258 N 0.03653 0.14884 0.0828 0.0
N259 N 0.86889 0.09793 0.86948 0.0
H260 H 0.11717 0.1313 0.84163 0.0
H261 H 0.01301 0.11829 0.80392 0.0
H262 H 0.80104 0.08915 0.87415 0.0
H263 H 0.90994 0.09231 0.82755 0.0
H264 H 1.0062 0.1486 0.13117 0.0
H265 H 0.10868 0.15562 0.08158 0.0
H266 H 0.8522 0.151 0.12065 0.0
H267 H 0.75496 0.13417 0.08765 0.0
C268 C 0.11064 0.11577 0.5747 0.0
C269 C 0.17765 0.12567 0.52759 0.0
C270 C 0.05246 0.15516 0.49478 0.0
C271 C 0.98582 0.14564 0.54284 0.0
N272 N 0.95399 0.11947 0.6357 0.0
N273 N 0.2229 0.15794 0.4551 0.0
C274 C 0.01602 0.12682 0.58542 0.0
C275 C 0.15155 0.14628 0.49107 0.0
N276 N 0.13583 0.09523 0.60674 0.0
N277 N 0.02075 0.17255 0.45215 0.0
H278 H 0.29705 0.15228 0.45238 0.0
H279 H 0.21145 0.17444 0.43318 0.0
H280 H 0.95081 0.18063 0.45584 0.0
H281 H 0.06137 0.17803 0.41045 0.0
H282 H 0.08658 0.08556 0.63606 0.0
H283 H 0.20502 0.08689 0.60066 0.0
H284 H 0.97542 0.10769 0.67305 0.0
H285 H 0.88218 0.12627 0.64281 0.0
C286 C 0.91603 0.90001 0.58714 0.0
C287 C 0.84842 0.88821 0.54298 0.0
C288 C 0.98144 0.86123 0.50479 0.0
C289 C 0.04873 0.87235 0.55039 0.0
N290 N 0.07785 0.89972 0.64294 0.0
N291 N 0.80854 0.85285 0.47921 0.0
C292 C 0.01529 0.89098 0.59415 0.0
C293 C 0.87876 0.86739 0.5075 0.0
N294 N 0.88563 0.91998 0.62155 0.0
N295 N 0.01589 0.84523 0.4576 0.0
H296 H 0.73243 0.85587 0.48646 0.0
H297 H 0.82527 0.83643 0.45682 0.0
H298 H 0.09119 0.84076 0.45285 0.0
H299 H 0.97142 0.83827 0.41903 0.0
H300 H 0.93363 0.93112 0.64842 0.0
H301 H 0.81173 0.92579 0.62136 0.0
H302 H 0.05528 0.91149 0.68109 0.0
H303 H 0.15169 0.89404 0.64773 0.0
C304 C 0.07504 0.5102 0.9832 0.0
C305 C 0.06644 0.52175 0.9202 0.0
C306 C 0.03771 0.48329 0.86289 0.0
C307 C 0.05314 0.47168 0.92511 0.0
N308 N 0.10009 0.4732 0.04254 0.0
N309 N 0.0456 0.51976 0.79919 0.0
C310 C 0.07471 0.4849 0.98491 0.0
C311 C 0.04989 0.5084 0.8597 0.0
N312 N 0.08402 0.52341 0.04145 0.0
N313 N 1.00723 0.47038 0.80757 0.0
H314 H 0.0455 0.53822 0.79518 0.0
H315 H 0.04655 0.51102 0.75251 0.0
H316 H 0.99761 0.45198 0.80798 0.0
H317 H 0.98439 0.47791 0.76251 0.0
H318 H 0.07772 0.51634 0.08948 0.0
H319 H 0.09206 0.54184 0.04227 0.0
H320 H 0.12766 0.48159 0.08578 0.0
H321 H 0.10131 0.45471 0.04576 0.0
C322 C 0.9776 0.49187 0.59223 0.0
C323 C 0.06727 0.48315 0.56262 0.0
C324 C 0.12348 0.52415 0.54716 0.0
C325 C 0.02783 0.53263 0.56705 0.0
N326 N 0.85739 0.52402 0.59788 0.0
N327 N 0.22051 0.49097 0.50301 0.0
C328 C 0.95315 0.51638 0.58715 0.0
C329 C 0.13934 0.49928 0.53802 0.0
N330 N 0.91712 0.47691 0.62716 0.0
N331 N 0.19999 0.53982 0.53884 0.0
H332 H 0.23394 0.47293 0.4938 0.0
H333 H 0.26961 0.50204 0.47774 0.0
H334 H 0.19172 0.55811 0.54672 0.0
H335 H 0.27366 0.53449 0.53092 0.0
H336 H 0.85611 0.48285 0.65545 0.0
H337 H 0.93406 0.459 0.63423 0.0
H338 H 0.79807 0.51245 0.60532 0.0
H339 H 0.83492 0.54166 0.59281 0.0
C340 C 0.55138 0.98836 0.02138 0.0
C341 C 0.5035 0.97678 0.96614 0.0
C342 C 0.50741 0.01364 0.90154 0.0
C343 C 0.5597 0.02484 0.95555 0.0
N344 N 0.64575 0.02244 0.06193 0.0
N345 N 0.44851 0.97674 0.85037 0.0
C346 C 0.58593 0.01206 0.01407 0.0
C347 C 0.48501 0.98897 0.9052 0.0
N348 N 0.55969 0.97708 0.08181 0.0
N349 N 0.47675 0.02679 0.84776 0.0
H350 H 0.43256 0.95861 0.85108 0.0
H351 H 0.44039 0.98397 0.80272 0.0
H352 H 0.49372 0.04476 0.84267 0.0
H353 H 0.42914 0.02046 0.81017 0.0
H354 H 0.58337 0.98545 0.12617 0.0
H355 H 0.53555 0.95971 0.08917 0.0
H356 H 0.67665 0.0133 0.10221 0.0
H357 H 0.67127 0.03988 0.05853 0.0
C358 C 0.52038 0.0186 0.47378 0.0
C359 C 0.51131 0.03261 0.53377 0.0
C360 C 0.55453 0.99802 0.60206 0.0
C361 C 0.56625 0.98414 0.54194 0.0
N362 N 0.58126 0.98212 0.4208 0.0
N363 N 0.5354 0.03722 0.65386 0.0
C364 C 0.55478 0.99468 0.47778 0.0
C365 C 0.53416 0.02283 0.59755 0.0
N366 N 0.49589 0.02817 0.41289 0.0
N367 N 0.55698 0.98723 0.66344 0.0
H368 H 0.51507 0.05514 0.65327 0.0
H369 H 0.5631 0.03193 0.70039 0.0
H370 H 0.56859 0.96903 0.66909 0.0
H371 H 0.53991 0.99588 0.70876 0.0
H372 H 0.4882 0.01817 0.36856 0.0
H373 H 0.47827 0.04611 0.40695 0.0
H374 H 0.58475 0.98947 0.37299 0.0
H375 H 0.60863 0.96473 0.42187 0.0
C376 C 0.33842 0.26521 0.06059 0.0
C377 C 0.24053 0.27456 0.06884 0.0
C378 C 0.17228 0.23416 0.0674 0.0
C379 C 0.27073 0.22483 0.06359 0.0
N380 N 0.4483 0.23108 0.07044 0.0
N381 N 0.06635 0.26828 0.09243 0.0
C382 C 0.35412 0.24025 0.06428 0.0
C383 C 0.15795 0.25911 0.07587 0.0
N384 N 0.41575 0.28003 0.04589 0.0
N385 N 0.09247 0.21928 0.06004 0.0
H386 H 0.05333 0.28647 0.09928 0.0
H387 H 1.0055 0.25784 0.10521 0.0
H388 H 0.09993 0.20092 0.05355 0.0
H389 H 0.01929 0.22527 0.05483 0.0
H390 H 0.48638 0.27396 0.0318 0.0
H391 H 0.40743 0.29839 0.04192 0.0
H392 H 0.51114 0.24154 0.07873 0.0
H393 H 0.46277 0.21289 0.07348 0.0
C394 C 0.64841 0.75735 0.00502 0.0
C395 C 0.70278 0.77012 0.05508 0.0
C396 C 0.78451 0.73302 0.08937 0.0
C397 C 0.7384 0.72088 0.03431 0.0
N398 N 0.63872 0.72233 0.93297 0.0
N399 N 0.83447 0.77095 0.13817 0.0
C400 C 0.6742 0.73332 0.99 0.0
C401 C 0.77357 0.75817 0.09594 0.0
N402 N 0.56904 0.76789 0.97378 0.0
N403 N 0.83937 0.72055 0.13516 0.0
H404 H 0.83029 0.78939 0.14358 0.0
H405 H 0.89492 0.76357 0.16352 0.0
H406 H 0.85401 0.70239 0.13006 0.0
H407 H 0.86493 0.72789 0.18051 0.0
H408 H 0.52016 0.75872 0.94201 0.0
H409 H 0.5455 0.78521 0.98505 0.0
H410 H 0.60076 0.73128 0.89508 0.0
H411 H 0.65464 0.70468 0.92056 0.0
C412 C 0.3337 0.73958 0.43232 0.0
C413 C 0.25395 0.73123 0.47236 0.0
C414 C 0.20071 0.77224 0.49681 0.0
C415 C 0.28633 0.78063 0.46255 0.0
N416 N 0.44085 0.77261 0.40391 0.0
N417 N 0.11584 0.73895 0.54752 0.0
C418 C 0.35426 0.76439 0.4314 0.0
C419 C 0.18845 0.74739 0.50584 0.0
N420 N 0.38928 0.72374 0.39491 0.0
N421 N 0.12935 0.78801 0.51861 0.0
H422 H 0.10165 0.72086 0.55301 0.0
H423 H 0.07355 0.74975 0.57982 0.0
H424 H 0.13594 0.8063 0.51286 0.0
H425 H 0.06009 0.783 0.5372 0.0
H426 H 0.44178 0.72876 0.35923 0.0
H427 H 0.37753 0.70542 0.39573 0.0
H428 H 0.49868 0.7616 0.3872 0.0
H429 H 0.45873 0.79062 0.4024 0.0
C430 C 0.85684 0.26764 0.46208 0.0
C431 C 0.79948 0.28213 0.41851 0.0
C432 C 0.717 0.24649 0.37246 0.0
C433 C 0.76153 0.23279 0.424 0.0
N434 N 0.87464 0.22999 0.51855 0.0
N435 N 0.72308 0.28267 0.30815 0.0
C436 C 0.83203 0.24325 0.46885 0.0
C437 C 0.74295 0.27088 0.36643 0.0
N438 N 0.94153 0.27652 0.49121 0.0
N439 N 0.64682 0.23646 0.33098 0.0
H440 H 0.75604 0.29888 0.29697 0.0
H441 H 0.68816 0.27486 0.26649 0.0
H442 H 0.62695 0.21859 0.33321 0.0
H443 H 0.60282 0.24625 0.29804 0.0
H444 H 0.9911 0.26637 0.51932 0.0
H445 H 0.9706 0.29302 0.47851 0.0
H446 H 0.91592 0.23737 0.55811 0.0
H447 H 0.86384 0.21175 0.5229 0.0
C448 C 0.04973 0.39507 0.21482 0.0
C449 C 1.00297 0.37684 0.17648 0.0
C450 C 0.89226 0.36853 0.27135 0.0
C451 C 0.94561 0.38515 0.31245 0.0
N452 N 0.03525 0.42242 0.30923 0.0
N453 N 0.88995 0.34382 0.16993 0.0
C454 C 0.01401 0.40075 0.28066 0.0
C455 C 0.92741 0.36281 0.20535 0.0
N456 N 0.1296 0.40676 0.18847 0.0
N457 N 0.80127 0.36054 0.29187 0.0
H458 H 0.91366 0.33934 0.12119 0.0
H459 H 0.84241 0.33137 0.19105 0.0
H460 H 0.7646 0.3677 0.33397 0.0
H461 H 0.75525 0.34986 0.26198 0.0
H462 H 0.17415 0.41833 0.2167 0.0
H463 H 0.15742 0.40305 0.14021 0.0
H464 H 0.07961 0.43509 0.28617 0.0
H465 H 0.99484 0.4296 0.3496 0.0
C466 C 1.0014 0.64835 0.18307 0.0
C467 C 0.98293 0.62652 0.14801 0.0
C468 C 0.02091 0.60505 0.2514 0.0
C469 C 0.02149 0.62677 0.28889 0.0
N470 N 0.99252 0.6693 0.29046 0.0
N471 N 0.95065 0.58427 0.15553 0.0
C472 C 1.00653 0.64855 0.25485 0.0
C473 C 0.98595 0.60488 0.18397 0.0
N474 N 0.01832 0.66871 0.14825 0.0
N475 N 0.05654 0.58461 0.27927 0.0
H476 H 0.91658 0.58349 0.10827 0.0
H477 H 0.94401 0.56858 0.18244 0.0
H478 H 0.08876 0.58419 0.32717 0.0
H479 H 0.06517 0.56881 0.25161 0.0
H480 H 0.04079 0.68452 0.17169 0.0
H481 H 0.02116 0.66919 0.09573 0.0
H482 H 0.97145 0.68513 0.26766 0.0
H483 H 0.9917 0.67024 0.34301 0.0
C484 C 0.90642 0.64301 0.72798 0.0
C485 C 0.95614 0.6271 0.7721 0.0
C486 C 0.07286 0.61614 0.68067 0.0
C487 C 0.03039 0.63409 0.64016 0.0
N488 N 0.90869 0.66502 0.62345 0.0
N489 N 0.06316 0.59232 0.78052 0.0
C490 C 0.94723 0.64755 0.66314 0.0
C491 C 0.03237 0.61177 0.74567 0.0
N492 N 0.81564 0.65225 0.7462 0.0
N493 N 0.15553 0.604 0.65821 0.0
H494 H 0.03478 0.5876 0.82686 0.0
H495 H 0.10932 0.57909 0.76036 0.0
H496 H 0.18361 0.60548 0.60943 0.0
H497 H 0.20035 0.59351 0.68875 0.0
H498 H 0.77083 0.66233 0.71456 0.0
H499 H 0.77919 0.64737 0.79027 0.0
H500 H 0.85653 0.67754 0.64027 0.0
H501 H 0.93307 0.66786 0.57423 0.0
C502 C 0.89447 0.36438 0.73799 0.0
C503 C 0.94939 0.37884 0.69292 0.0
C504 C 0.07475 0.38629 0.7808 0.0
C505 C 0.02293 0.37103 0.82474 0.0
N506 N 0.88564 0.34489 0.84684 0.0
N507 N 0.06947 0.41063 0.68232 0.0
C508 C 0.93282 0.35999 0.80396 0.0
C509 C 0.03242 0.39201 0.71756 0.0
N510 N 0.8024 0.3563 0.71893 0.0
N511 N 0.16865 0.39395 0.79707 0.0
H512 H 0.04102 0.41601 0.6365 0.0
H513 H 0.12076 0.42263 0.70261 0.0
H514 H 0.20422 0.39 0.84237 0.0
H515 H 0.21531 0.40243 0.76309 0.0
H516 H 0.75419 0.34713 0.75018 0.0
H517 H 0.76944 0.36075 0.6731 0.0
H518 H 0.82553 0.33422 0.83333 0.0
H519 H 0.90933 0.34229 0.89635 0.0
C520 C 0.43642 0.86621 0.21128 0.0
C521 C 0.53248 0.87086 0.18491 0.0
C522 C 0.59753 0.87486 0.30007 0.0
C523 C 0.49864 0.87377 0.32603 0.0
N524 N 0.32122 0.87273 0.30358 0.0
N525 N 0.70316 0.88264 0.20382 0.0
C526 C 0.4172 0.87042 0.28095 0.0
C527 C 0.61302 0.87586 0.22916 0.0
N528 N 0.36385 0.85737 0.1697 0.0
N529 N 0.67707 0.87415 0.34297 0.0
H530 H 0.71816 0.8834 0.15227 0.0
H531 H 0.76069 0.8893 0.23388 0.0
H532 H 0.66867 0.87303 0.39491 0.0
H533 H 0.75069 0.87232 0.3268 0.0
H534 H 0.29498 0.8515 0.18702 0.0
H535 H 0.37699 0.85351 0.11884 0.0
H536 H 0.25968 0.87283 0.27147 0.0
H537 H 0.30305 0.87712 0.35339 0.0
C538 C 0.50332 0.10983 0.21767 0.0
C539 C 0.49897 0.13128 0.18089 0.0
C540 C 0.51959 0.15397 0.28676 0.0
C541 C 0.53569 0.13242 0.32169 0.0
N542 N 0.57484 0.09041 0.31401 0.0
N543 N 0.53153 0.1736 0.17943 0.0
C544 C 0.53772 0.11051 0.28512 0.0
C545 C 0.51557 0.15336 0.21503 0.0
N546 N 0.46955 0.08894 0.19007 0.0
N547 N 0.50327 0.17481 0.3214 0.0
H548 H 0.5356 0.17375 0.12691 0.0
H549 H 0.55234 0.18964 0.20232 0.0
H550 H 0.50181 0.17606 0.3739 0.0
H551 H 0.48103 0.1904 0.29776 0.0
H552 H 0.46388 0.07338 0.21771 0.0
H553 H 0.4356 0.08776 0.14283 0.0
H554 H 0.58488 0.07449 0.28708 0.0
H555 H 0.60677 0.0904 0.36203 0.0
C556 C 0.42002 0.14694 0.76274 0.0
C557 C 0.46929 0.13015 0.80418 0.0
C558 C 0.57471 0.11827 0.70751 0.0
C559 C 0.53953 0.13835 0.67223 0.0
N560 N 0.42703 0.17173 0.6639 0.0
N561 N 0.5901 0.09809 0.81344 0.0
C562 C 0.46144 0.15265 0.69908 0.0
C563 C 0.54423 0.11496 0.77547 0.0
N564 N 0.33044 0.1564 0.78275 0.0
N565 N 0.6378 0.10237 0.67617 0.0
H566 H 0.56527 0.09312 0.86052 0.0
H567 H 0.65525 0.08927 0.799 0.0
H568 H 0.6669 0.10484 0.62803 0.0
H569 H 0.65577 0.08579 0.69549 0.0
H570 H 0.2864 0.16713 0.7523 0.0
H571 H 0.29429 0.15113 0.82664 0.0
H572 H 0.37886 0.1845 0.68446 0.0
H573 H 0.45081 0.1755 0.6151 0.0
C574 C 0.41385 0.86726 0.74833 0.0
C575 C 0.46843 0.88178 0.7035 0.0
C576 C 0.58549 0.89197 0.79477 0.0
C577 C 0.53977 0.87461 0.83548 0.0
N578 N 0.40883 0.84643 0.8548 0.0
N579 N 0.58309 0.91459 0.69186 0.0
C580 C 0.45254 0.86267 0.81368 0.0
C581 C 0.54709 0.89628 0.72906 0.0
N582 N 0.32206 0.85907 0.72932 0.0
N583 N 0.66914 0.90336 0.81777 0.0
H584 H 0.55527 0.91904 0.64492 0.0
H585 H 0.63382 0.9271 0.70986 0.0
H586 H 0.69565 0.90171 0.86698 0.0
H587 H 0.71549 0.91355 0.78777 0.0
H588 H 0.27402 0.84999 0.76098 0.0
H589 H 0.28909 0.86375 0.68373 0.0
H590 H 0.35217 0.83499 0.83941 0.0
H591 H 0.43242 0.84368 0.90428 0.0
loop_
_geom_bond_atom_site_label_1
_geom_bond_atom_site_label_2
_geom_bond_distance
_geom_bond_site_symmetry_2
_ccdc_geom_bond_type
Zn0 O6 1.969 . S
Zn0 O7 1.965 1_556 S
Zn0 O11 2.024 1_556 S
Zn0 O16 1.969 . S
Zn1 O8 1.969 . S
Zn1 O14 1.969 . S
Zn1 O15 1.965 1_654 S
Zn1 O17 2.024 1_554 S
C2 O3 1.229 . S
C2 O11 1.058 1_556 S
O3 C2 1.229 . S
C4 O5 1.229 . S
C4 O17 1.058 1_554 S
O5 C4 1.229 . S
O6 Zn0 1.969 . S
O6 C9 1.267 1_556 S
O7 Zn0 1.965 1_554 S
O7 C18 1.260 . S
O8 Zn1 1.969 . S
O8 C18 1.258 1_655 S
C9 O6 1.267 1_554 S
C9 O10 1.228 . S
O10 C9 1.228 . S
O11 Zn0 2.024 1_554 S
O11 C2 1.058 1_554 S
C12 O13 1.228 . S
C12 O14 1.267 1_556 S
O13 C12 1.228 . S
O14 Zn1 1.969 . S
O14 C12 1.267 1_554 S
O15 Zn1 1.965 1_456 S
O15 C19 1.260 . S
O16 Zn0 1.969 . S
O16 C19 1.258 . S
O17 Zn1 2.024 1_556 S
O17 C4 1.058 1_556 S
C18 O7 1.260 . S
C18 O8 1.258 1_455 S
C19 O15 1.260 . S
C19 O16 1.258 . S
Zn20 O26 1.969 . S
Zn20 O27 1.965 1_556 S
Zn20 O31 2.024 1_556 S
Zn20 O36 1.969 . S
Zn21 O28 1.969 . S
Zn21 O34 1.969 . S
Zn21 O35 1.965 1_454 S
Zn21 O37 2.024 1_554 S
C22 O23 1.229 . S
C22 O31 1.058 1_556 S
O23 C22 1.229 . S
C24 O25 1.229 . S
C24 O37 1.058 1_554 S
O25 C24 1.229 . S
O26 Zn20 1.969 . S
O26 C29 1.267 1_556 S
O27 Zn20 1.965 1_554 S
O27 C38 1.260 . S
O28 Zn21 1.969 . S
O28 C38 1.258 1_455 S
C29 O26 1.267 1_554 S
C29 O30 1.228 . S
O30 C29 1.228 . S
O31 Zn20 2.024 1_554 S
O31 C22 1.058 1_554 S
C32 O33 1.228 . S
C32 O34 1.267 1_556 S
O33 C32 1.228 . S
O34 Zn21 1.969 . S
O34 C32 1.267 1_554 S
O35 Zn21 1.965 1_656 S
O35 C39 1.260 . S
O36 Zn20 1.969 . S
O36 C39 1.258 . S
O37 Zn21 2.024 1_556 S
O37 C24 1.058 1_556 S
C38 O27 1.260 . S
C38 O28 1.258 1_655 S
C39 O35 1.260 . S
C39 O36 1.258 . S
Zn40 O46 1.969 . S
Zn40 O47 1.965 . S
Zn40 O51 2.024 . S
Zn40 O56 1.969 . S
Zn41 O48 1.969 . S
Zn41 O54 1.969 . S
Zn41 O55 1.965 1_655 S
Zn41 O57 2.024 . S
C42 O43 1.229 . S
C42 O51 1.058 . S
O43 C42 1.229 . S
C44 O45 1.229 . S
C44 O57 1.058 . S
O45 C44 1.229 . S
O46 Zn40 1.969 . S
O46 C49 1.267 . S
O47 Zn40 1.965 . S
O47 C58 1.260 . S
O48 Zn41 1.969 . S
O48 C58 1.258 1_655 S
C49 O46 1.267 . S
C49 O50 1.228 . S
O50 C49 1.228 . S
O51 Zn40 2.024 . S
O51 C42 1.058 . S
C52 O53 1.228 . S
C52 O54 1.267 . S
O53 C52 1.228 . S
O54 Zn41 1.969 . S
O54 C52 1.267 . S
O55 Zn41 1.965 1_455 S
O55 C59 1.260 . S
O56 Zn40 1.969 . S
O56 C59 1.258 . S
O57 Zn41 2.024 . S
O57 C44 1.058 . S
C58 O47 1.260 . S
C58 O48 1.258 1_455 S
C59 O55 1.260 . S
C59 O56 1.258 . S
Zn60 O66 1.969 . S
Zn60 O67 1.965 . S
Zn60 O71 2.024 . S
Zn60 O76 1.969 . S
Zn61 O68 1.969 . S
Zn61 O74 1.969 . S
Zn61 O75 1.965 1_455 S
Zn61 O77 2.024 . S
C62 O63 1.229 . S
C62 O71 1.058 . S
O63 C62 1.229 . S
C64 O65 1.229 . S
C64 O77 1.058 . S
O65 C64 1.229 . S
O66 Zn60 1.969 . S
O66 C69 1.267 . S
O67 Zn60 1.965 . S
O67 C78 1.260 . S
O68 Zn61 1.969 . S
O68 C78 1.258 1_455 S
C69 O66 1.267 . S
C69 O70 1.228 . S
O70 C69 1.228 . S
O71 Zn60 2.024 . S
O71 C62 1.058 . S
C72 O73 1.228 . S
C72 O74 1.267 . S
O73 C72 1.228 . S
O74 Zn61 1.969 . S
O74 C72 1.267 . S
O75 Zn61 1.965 1_655 S
O75 C79 1.260 . S
O76 Zn60 1.969 . S
O76 C79 1.258 . S
O77 Zn61 2.024 . S
O77 C64 1.058 . S
C78 O67 1.260 . S
C78 O68 1.258 1_655 S
C79 O75 1.260 . S
C79 O76 1.258 . S
Zn80 O86 1.969 . S
Zn80 O87 1.965 1_556 S
Zn80 O91 2.024 1_556 S
Zn80 O96 1.969 . S
Zn81 O88 1.969 . S
Zn81 O94 1.969 . S
Zn81 O95 1.965 1_554 S
Zn81 O97 2.024 1_554 S
C82 O83 1.229 . S
C82 O91 1.058 1_556 S
O83 C82 1.229 . S
C84 O85 1.229 . S
C84 O97 1.058 1_554 S
O85 C84 1.229 . S
O86 Zn80 1.969 . S
O86 C89 1.267 1_556 S
O87 Zn80 1.965 1_554 S
O87 C98 1.260 . S
O88 Zn81 1.969 . S
O88 C98 1.258 . S
C89 O86 1.267 1_554 S
C89 O90 1.228 . S
O90 C89 1.228 . S
O91 Zn80 2.024 1_554 S
O91 C82 1.058 1_554 S
C92 O93 1.228 . S
C92 O94 1.267 1_556 S
O93 C92 1.228 . S
O94 Zn81 1.969 . S
O94 C92 1.267 1_554 S
O95 Zn81 1.965 1_556 S
O95 C99 1.260 . S
O96 Zn80 1.969 . S
O96 C99 1.258 . S
O97 Zn81 2.024 1_556 S
O97 C84 1.058 1_556 S
C98 O87 1.260 . S
C98 O88 1.258 . S
C99 O95 1.260 . S
C99 O96 1.258 . S
Zn100 O106 1.969 . S
Zn100 O107 1.965 1_556 S
Zn100 O111 2.024 1_556 S
Zn100 O116 1.969 . S
Zn101 O108 1.969 . S
Zn101 O114 1.969 . S
Zn101 O115 1.965 1_554 S
Zn101 O117 2.024 1_554 S
C102 O103 1.229 . S
C102 O111 1.058 1_556 S
O103 C102 1.229 . S
C104 O105 1.229 . S
C104 O117 1.058 1_554 S
O105 C104 1.229 . S
O106 Zn100 1.969 . S
O106 C109 1.267 1_556 S
O107 Zn100 1.965 1_554 S
O107 C118 1.260 . S
O108 Zn101 1.969 . S
O108 C118 1.258 . S
C109 O106 1.267 1_554 S
C109 O110 1.228 . S
O110 C109 1.228 . S
O111 Zn100 2.024 1_554 S
O111 C102 1.058 1_554 S
C112 O113 1.228 . S
C112 O114 1.267 1_556 S
O113 C112 1.228 . S
O114 Zn101 1.969 . S
O114 C112 1.267 1_554 S
O115 Zn101 1.965 1_556 S
O115 C119 1.260 . S
O116 Zn100 1.969 . S
O116 C119 1.258 . S
O117 Zn101 2.024 1_556 S
O117 C104 1.058 1_556 S
C118 O107 1.260 . S
C118 O108 1.258 . S
C119 O115 1.260 . S
C119 O116 1.258 . S
Zn120 O126 1.969 . S
Zn120 O127 1.965 . S
Zn120 O131 2.024 . S
Zn120 O136 1.969 . S
Zn121 O128 1.969 . S
Zn121 O134 1.969 . S
Zn121 O135 1.965 . S
Zn121 O137 2.024 . S
C122 O123 1.229 . S
C122 O131 1.058 . S
O123 C122 1.229 . S
C124 O125 1.229 . S
C124 O137 1.058 . S
O125 C124 1.229 . S
O126 Zn120 1.969 . S
O126 C129 1.267 . S
O127 Zn120 1.965 . S
O127 C138 1.260 . S
O128 Zn121 1.969 . S
O128 C138 1.258 . S
C129 O126 1.267 . S
C129 O130 1.228 . S
O130 C129 1.228 . S
O131 Zn120 2.024 . S
O131 C122 1.058 . S
C132 O133 1.228 . S
C132 O134 1.267 . S
O133 C132 1.228 . S
O134 Zn121 1.969 . S
O134 C132 1.267 . S
O135 Zn121 1.965 . S
O135 C139 1.260 . S
O136 Zn120 1.969 . S
O136 C139 1.258 . S
O137 Zn121 2.024 . S
O137 C124 1.058 . S
C138 O127 1.260 . S
C138 O128 1.258 . S
C139 O135 1.260 . S
C139 O136 1.258 . S
Zn140 O146 1.969 . S
Zn140 O147 1.965 . S
Zn140 O151 2.024 . S
Zn140 O156 1.969 . S
Zn141 O148 1.969 . S
Zn141 O154 1.969 . S
Zn141 O155 1.965 . S
Zn141 O157 2.024 . S
C142 O143 1.229 . S
C142 O151 1.058 . S
O143 C142 1.229 . S
C144 O145 1.229 . S
C144 O157 1.058 . S
O145 C144 1.229 . S
O146 Zn140 1.969 . S
O146 C149 1.267 . S
O147 Zn140 1.965 . S
O147 C158 1.260 . S
O148 Zn141 1.969 . S
O148 C158 1.258 . S
C149 O146 1.267 . S
C149 O150 1.228 . S
O150 C149 1.228 . S
O151 Zn140 2.024 . S
O151 C142 1.058 . S
C152 O153 1.228 . S
C152 O154 1.267 . S
O153 C152 1.228 . S
O154 Zn141 1.969 . S
O154 C152 1.267 . S
O155 Zn141 1.965 . S
O155 C159 1.260 . S
O156 Zn140 1.969 . S
O156 C159 1.258 . S
O157 Zn141 2.024 . S
O157 C144 1.058 . S
C158 O147 1.260 . S
C158 O148 1.258 . S
C159 O155 1.260 . S
C159 O156 1.258 . S
C160 C161 1.363 1_554 S
C160 C166 1.379 . S
C160 N168 1.356 . S
C161 C160 1.363 1_556 S
C161 C167 1.363 . S
C162 C163 1.363 1_556 S
C162 C167 1.379 . S
C162 N169 1.356 . S
C163 C162 1.363 1_554 S
C163 C166 1.363 . S
N164 C166 1.356 . S
N164 H176 0.984 . S
N164 H177 0.985 . S
N165 C167 1.356 . S
N165 H170 0.984 . S
N165 H171 0.985 . S
C166 C160 1.379 . S
C166 C163 1.363 . S
C166 N164 1.356 . S
C167 C161 1.363 . S
C167 C162 1.379 . S
C167 N165 1.356 . S
N168 C160 1.356 . S
N168 H174 0.984 . S
N168 H175 0.984 . S
N169 C162 1.356 . S
N169 H172 0.984 . S
N169 H173 0.985 . S
H170 N165 0.984 . S
H171 N165 0.985 . S
H172 N169 0.984 . S
H173 N169 0.985 . S
H174 N168 0.984 . S
H175 N168 0.984 . S
H176 N164 0.984 . S
H177 N164 0.985 . S
C178 C179 1.363 . S
C178 C184 1.379 . S
C178 N186 1.356 . S
C179 C178 1.363 . S
C179 C185 1.363 1_554 S
C180 C181 1.363 . S
C180 C185 1.379 . S
C180 N187 1.356 . S
C181 C180 1.363 . S
C181 C184 1.363 1_556 S
N182 C184 1.356 . S
N182 H194 0.984 . S
N182 H195 0.985 . S
N183 C185 1.356 . S
N183 H188 0.984 . S
N183 H189 0.985 . S
C184 C178 1.379 . S
C184 C181 1.363 1_554 S
C184 N182 1.356 . S
C185 C179 1.363 1_556 S
C185 C180 1.379 . S
C185 N183 1.356 . S
N186 C178 1.356 . S
N186 H192 0.984 . S
N186 H193 0.984 . S
N187 C180 1.356 . S
N187 H190 0.984 . S
N187 H191 0.985 . S
H188 N183 0.984 . S
H189 N183 0.985 . S
H190 N187 0.984 . S
H191 N187 0.985 . S
H192 N186 0.984 . S
H193 N186 0.984 . S
H194 N182 0.984 . S
H195 N182 0.985 . S
C196 C197 1.363 . S
C196 C202 1.379 . S
C196 N204 1.356 . S
C197 C196 1.363 . S
C197 C203 1.363 . S
C198 C199 1.363 . S
C198 C203 1.379 . S
C198 N205 1.356 . S
C199 C198 1.363 . S
C199 C202 1.363 . S
N200 C202 1.356 . S
N200 H212 0.984 . S
N200 H213 0.985 . S
N201 C203 1.356 . S
N201 H206 0.984 . S
N201 H207 0.985 . S
C202 C196 1.379 . S
C202 C199 1.363 . S
C202 N200 1.356 . S
C203 C197 1.363 . S
C203 C198 1.379 . S
C203 N201 1.356 . S
N204 C196 1.356 . S
N204 H210 0.984 . S
N204 H211 0.984 . S
N205 C198 1.356 . S
N205 H208 0.984 . S
N205 H209 0.985 . S
H206 N201 0.984 . S
H207 N201 0.985 . S
H208 N205 0.984 . S
H209 N205 0.985 . S
H210 N204 0.984 . S
H211 N204 0.984 . S
H212 N200 0.984 . S
H213 N200 0.985 . S
C214 C215 1.363 . S
C214 C220 1.379 . S
C214 N222 1.356 . S
C215 C214 1.363 . S
C215 C221 1.363 . S
C216 C217 1.363 . S
C216 C221 1.379 . S
C216 N223 1.356 . S
C217 C216 1.363 . S
C217 C220 1.363 . S
N218 C220 1.356 . S
N218 H230 0.984 . S
N218 H231 0.985 . S
N219 C221 1.356 . S
N219 H224 0.984 . S
N219 H225 0.985 . S
C220 C214 1.379 . S
C220 C217 1.363 . S
C220 N218 1.356 . S
C221 C215 1.363 . S
C221 C216 1.379 . S
C221 N219 1.356 . S
N222 C214 1.356 . S
N222 H228 0.984 . S
N222 H229 0.984 . S
N223 C216 1.356 . S
N223 H226 0.984 . S
N223 H227 0.985 . S
H224 N219 0.984 . S
H225 N219 0.985 . S
H226 N223 0.984 . S
H227 N223 0.985 . S
H228 N222 0.984 . S
H229 N222 0.984 . S
H230 N218 0.984 . S
H231 N218 0.985 . S
C232 C233 1.363 1_454 S
C232 C238 1.379 . S
C232 N240 1.356 1_455 S
C233 C232 1.363 1_656 S
C233 C239 1.363 1_655 S
C234 C235 1.363 1_556 S
C234 C239 1.379 . S
C234 N241 1.356 . S
C235 C234 1.363 1_554 S
C235 C238 1.363 . S
N236 C238 1.356 . S
N236 H248 0.984 . S
N236 H249 0.985 . S
N237 C239 1.356 1_655 S
N237 H242 0.984 . S
N237 H243 0.985 . S
C238 C232 1.379 . S
C238 C235 1.363 . S
C238 N236 1.356 . S
C239 C233 1.363 1_455 S
C239 C234 1.379 . S
C239 N237 1.356 1_455 S
N240 C232 1.356 1_655 S
N240 H246 0.984 . S
N240 H247 0.984 . S
N241 C234 1.356 . S
N241 H244 0.984 . S
N241 H245 0.985 . S
H242 N237 0.984 . S
H243 N237 0.985 . S
H244 N241 0.984 . S
H245 N241 0.985 . S
H246 N240 0.984 . S
H247 N240 0.984 . S
H248 N236 0.984 . S
H249 N236 0.985 . S
C250 C251 1.363 1_554 S
C250 C256 1.378 1_455 S
C250 N258 1.357 . S
C251 C250 1.363 1_556 S
C251 C257 1.363 1_455 S
C252 C253 1.363 1_556 S
C252 C257 1.379 . S
C252 N259 1.356 . S
C253 C252 1.363 1_554 S
C253 C256 1.363 . S
N254 C256 1.356 . S
N254 H266 0.984 . S
N254 H267 0.985 . S
N255 C257 1.356 1_455 S
N255 H260 0.984 . S
N255 H261 0.985 . S
C256 C250 1.378 1_655 S
C256 C253 1.363 . S
C256 N254 1.356 . S
C257 C251 1.363 1_655 S
C257 C252 1.379 . S
C257 N255 1.356 1_655 S
N258 C250 1.357 . S
N258 H264 0.984 . S
N258 H265 0.984 . S
N259 C252 1.356 . S
N259 H262 0.984 . S
N259 H263 0.985 . S
H260 N255 0.984 . S
H261 N255 0.985 . S
H262 N259 0.984 . S
H263 N259 0.985 . S
H264 N258 0.984 . S
H265 N258 0.984 . S
H266 N254 0.984 . S
H267 N254 0.985 . S
C268 C269 1.363 . S
C268 C274 1.379 . S
C268 N276 1.356 . S
C269 C268 1.363 . S
C269 C275 1.363 . S
C270 C271 1.363 1_455 S
C270 C275 1.379 . S
C270 N277 1.356 1_455 S
C271 C270 1.363 1_655 S
C271 C274 1.363 1_655 S
N272 C274 1.356 1_655 S
N272 H284 0.984 . S
N272 H285 0.985 . S
N273 C275 1.356 . S
N273 H278 0.984 . S
N273 H279 0.985 . S
C274 C268 1.379 . S
C274 C271 1.363 1_455 S
C274 N272 1.356 1_455 S
C275 C269 1.363 . S
C275 C270 1.379 . S
C275 N273 1.356 . S
N276 C268 1.356 . S
N276 H282 0.984 . S
N276 H283 0.984 . S
N277 C270 1.356 1_655 S
N277 H280 0.984 . S
N277 H281 0.985 . S
H278 N273 0.984 . S
H279 N273 0.985 . S
H280 N277 0.984 . S
H281 N277 0.985 . S
H282 N276 0.984 . S
H283 N276 0.984 . S
H284 N272 0.984 . S
H285 N272 0.985 . S
C286 C287 1.363 . S
C286 C292 1.379 . S
C286 N294 1.356 . S
C287 C286 1.363 . S
C287 C293 1.363 . S
C288 C289 1.363 1_655 S
C288 C293 1.379 . S
C288 N295 1.356 1_655 S
C289 C288 1.363 1_455 S
C289 C292 1.363 1_455 S
N290 C292 1.356 1_455 S
N290 H302 0.984 . S
N290 H303 0.985 . S
N291 C293 1.356 . S
N291 H296 0.984 . S
N291 H297 0.985 . S
C292 C286 1.379 . S
C292 C289 1.363 1_655 S
C292 N290 1.356 1_655 S
C293 C287 1.363 . S
C293 C288 1.379 . S
C293 N291 1.356 . S
N294 C286 1.356 . S
N294 H300 0.984 . S
N294 H301 0.984 . S
N295 C288 1.356 1_455 S
N295 H298 0.984 . S
N295 H299 0.985 . S
H296 N291 0.984 . S
H297 N291 0.985 . S
H298 N295 0.984 . S
H299 N295 0.985 . S
H300 N294 0.984 . S
H301 N294 0.984 . S
H302 N290 0.984 . S
H303 N290 0.985 . S
C304 C305 1.363 1_554 S
C304 C310 1.379 . S
C304 N312 1.356 . S
C305 C304 1.363 1_556 S
C305 C311 1.363 1_455 S
C306 C307 1.363 . S
C306 C311 1.379 . S
C306 N313 1.356 . S
C307 C306 1.363 . S
C307 C310 1.363 1_656 S
N308 C310 1.356 . S
N308 H320 0.984 . S
N308 H321 0.985 . S
N309 C311 1.356 . S
N309 H314 0.984 . S
N309 H315 0.985 . S
C310 C304 1.379 . S
C310 C307 1.363 1_454 S
C310 N308 1.356 . S
C311 C305 1.363 1_655 S
C311 C306 1.379 . S
C311 N309 1.356 . S
N312 C304 1.356 . S
N312 H318 0.984 . S
N312 H319 0.984 . S
N313 C306 1.356 . S
N313 H316 0.984 . S
N313 H317 0.985 . S
H314 N309 0.984 . S
H315 N309 0.985 . S
H316 N313 0.984 . S
H317 N313 0.985 . S
H318 N312 0.984 . S
H319 N312 0.984 . S
H320 N308 0.984 . S
H321 N308 0.985 . S
C322 C323 1.363 1_655 S
C322 C328 1.379 . S
C322 N330 1.356 . S
C323 C322 1.363 1_455 S
C323 C329 1.363 . S
C324 C325 1.363 1_455 S
C324 C329 1.379 . S
C324 N331 1.356 . S
C325 C324 1.363 1_655 S
C325 C328 1.363 . S
N326 C328 1.356 . S
N326 H338 0.984 . S
N326 H339 0.985 . S
N327 C329 1.356 . S
N327 H332 0.984 . S
N327 H333 0.985 . S
C328 C322 1.379 . S
C328 C325 1.363 . S
C328 N326 1.356 . S
C329 C323 1.363 . S
C329 C324 1.379 . S
C329 N327 1.356 . S
N330 C322 1.356 . S
N330 H336 0.984 . S
N330 H337 0.984 . S
N331 C324 1.356 . S
N331 H334 0.984 . S
N331 H335 0.985 . S
H332 N327 0.984 . S
H333 N327 0.985 . S
H334 N331 0.984 . S
H335 N331 0.985 . S
H336 N330 0.984 . S
H337 N330 0.984 . S
H338 N326 0.984 . S
H339 N326 0.985 . S
C340 C341 1.363 1_554 S
C340 C346 1.379 1_565 S
C340 N348 1.356 . S
C341 C340 1.363 1_556 S
C341 C347 1.363 . S
C342 C343 1.363 . S
C342 C347 1.379 1_545 S
C342 N349 1.356 . S
C343 C342 1.363 . S
C343 C346 1.363 1_556 S
N344 C346 1.356 . S
N344 H356 0.984 . S
N344 H357 0.985 . S
N345 C347 1.356 . S
N345 H350 0.984 . S
N345 H351 0.985 . S
C346 C340 1.379 1_545 S
C346 C343 1.363 1_554 S
C346 N344 1.356 . S
C347 C341 1.363 . S
C347 C342 1.379 1_565 S
C347 N345 1.356 . S
N348 C340 1.356 . S
N348 H354 0.984 . S
N348 H355 0.984 . S
N349 C342 1.356 . S
N349 H352 0.984 . S
N349 H353 0.985 . S
H350 N345 0.984 . S
H351 N345 0.985 . S
H352 N349 0.984 . S
H353 N349 0.985 . S
H354 N348 0.984 . S
H355 N348 0.984 . S
H356 N344 0.984 . S
H357 N344 0.985 . S
C358 C359 1.363 . S
C358 C364 1.379 1_545 S
C358 N366 1.356 . S
C359 C358 1.363 . S
C359 C365 1.363 . S
C360 C361 1.363 . S
C360 C365 1.379 1_565 S
C360 N367 1.356 . S
C361 C360 1.363 . S
C361 C364 1.363 . S
N362 C364 1.356 . S
N362 H374 0.984 . S
N362 H375 0.985 . S
N363 C365 1.356 . S
N363 H368 0.984 . S
N363 H369 0.985 . S
C364 C358 1.379 1_565 S
C364 C361 1.363 . S
C364 N362 1.356 . S
C365 C359 1.363 . S
C365 C360 1.379 1_545 S
C365 N363 1.356 . S
N366 C358 1.356 . S
N366 H372 0.984 . S
N366 H373 0.984 . S
N367 C360 1.356 . S
N367 H370 0.984 . S
N367 H371 0.985 . S
H368 N363 0.984 . S
H369 N363 0.985 . S
H370 N367 0.984 . S
H371 N367 0.985 . S
H372 N366 0.984 . S
H373 N366 0.984 . S
H374 N362 0.984 . S
H375 N362 0.985 . S
C376 C377 1.363 . S
C376 C382 1.379 . S
C376 N384 1.356 . S
C377 C376 1.363 . S
C377 C383 1.363 1_554 S
C378 C379 1.363 1_556 S
C378 C383 1.379 . S
C378 N385 1.356 . S
C379 C378 1.363 1_554 S
C379 C382 1.363 . S
N380 C382 1.356 . S
N380 H392 0.984 . S
N380 H393 0.985 . S
N381 C383 1.356 . S
N381 H386 0.984 . S
N381 H387 0.985 . S
C382 C376 1.379 . S
C382 C379 1.363 . S
C382 N380 1.356 . S
C383 C377 1.363 1_556 S
C383 C378 1.379 . S
C383 N381 1.356 . S
N384 C376 1.356 . S
N384 H390 0.984 . S
N384 H391 0.984 . S
N385 C378 1.356 . S
N385 H388 0.984 . S
N385 H389 0.985 . S
H386 N381 0.984 . S
H387 N381 0.985 . S
H388 N385 0.984 . S
H389 N385 0.985 . S
H390 N384 0.984 . S
H391 N384 0.984 . S
H392 N380 0.984 . S
H393 N380 0.985 . S
C394 C395 1.363 1_556 S
C394 C400 1.379 . S
C394 N402 1.356 . S
C395 C394 1.363 1_554 S
C395 C401 1.363 . S
C396 C397 1.363 . S
C396 C401 1.379 . S
C396 N403 1.356 . S
C397 C396 1.363 . S
C397 C400 1.363 1_554 S
N398 C400 1.356 . S
N398 H410 0.984 . S
N398 H411 0.985 . S
N399 C401 1.356 . S
N399 H404 0.984 . S
N399 H405 0.985 . S
C400 C394 1.379 . S
C400 C397 1.363 1_556 S
C400 N398 1.356 . S
C401 C395 1.363 . S
C401 C396 1.379 . S
C401 N399 1.356 . S
N402 C394 1.356 . S
N402 H408 0.984 . S
N402 H409 0.984 . S
N403 C396 1.356 . S
N403 H406 0.984 . S
N403 H407 0.985 . S
H404 N399 0.984 . S
H405 N399 0.985 . S
H406 N403 0.984 . S
H407 N403 0.985 . S
H408 N402 0.984 . S
H409 N402 0.984 . S
H410 N398 0.984 . S
H411 N398 0.985 . S
C412 C413 1.363 . S
C412 C418 1.379 . S
C412 N420 1.356 . S
C413 C412 1.363 . S
C413 C419 1.363 . S
C414 C415 1.363 . S
C414 C419 1.379 . S
C414 N421 1.356 . S
C415 C414 1.363 . S
C415 C418 1.363 . S
N416 C418 1.356 . S
N416 H428 0.984 . S
N416 H429 0.985 . S
N417 C419 1.356 . S
N417 H422 0.984 . S
N417 H423 0.985 . S
C418 C412 1.379 . S
C418 C415 1.363 . S
C418 N416 1.356 . S
C419 C413 1.363 . S
C419 C414 1.379 . S
C419 N417 1.356 . S
N420 C412 1.356 . S
N420 H426 0.984 . S
N420 H427 0.984 . S
N421 C414 1.356 . S
N421 H424 0.984 . S
N421 H425 0.985 . S
H422 N417 0.984 . S
H423 N417 0.985 . S
H424 N421 0.984 . S
H425 N421 0.985 . S
H426 N420 0.984 . S
H427 N420 0.984 . S
H428 N416 0.984 . S
H429 N416 0.985 . S
C430 C431 1.363 . S
C430 C436 1.379 . S
C430 N438 1.356 . S
C431 C430 1.363 . S
C431 C437 1.363 . S
C432 C433 1.363 . S
C432 C437 1.379 . S
C432 N439 1.356 . S
C433 C432 1.363 . S
C433 C436 1.363 . S
N434 C436 1.356 . S
N434 H446 0.984 . S
N434 H447 0.985 . S
N435 C437 1.356 . S
N435 H440 0.984 . S
N435 H441 0.985 . S
C436 C430 1.379 . S
C436 C433 1.363 . S
C436 N434 1.356 . S
C437 C431 1.363 . S
C437 C432 1.379 . S
C437 N435 1.356 . S
N438 C430 1.356 . S
N438 H444 0.984 . S
N438 H445 0.984 . S
N439 C432 1.356 . S
N439 H442 0.984 . S
N439 H443 0.985 . S
H440 N435 0.984 . S
H441 N435 0.985 . S
H442 N439 0.984 . S
H443 N439 0.985 . S
H444 N438 0.984 . S
H445 N438 0.984 . S
H446 N434 0.984 . S
H447 N434 0.985 . S
C448 C449 1.363 . S
C448 C454 1.379 . S
C448 N456 1.356 . S
C449 C448 1.363 . S
C449 C455 1.363 1_455 S
C450 C451 1.363 . S
C450 C455 1.379 . S
C450 N457 1.356 . S
C451 C450 1.363 . S
C451 C454 1.363 1_655 S
N452 C454 1.356 . S
N452 H464 0.984 . S
N452 H465 0.981 1_455 S
N453 C455 1.356 . S
N453 H458 0.981 1_655 S
N453 H459 0.985 . S
C454 C448 1.379 . S
C454 C451 1.363 1_455 S
C454 N452 1.356 . S
C455 C449 1.363 1_655 S
C455 C450 1.379 . S
C455 N453 1.356 . S
N456 C448 1.356 . S
N456 H462 0.984 . S
N456 H463 0.984 . S
N457 C450 1.356 . S
N457 H460 0.984 . S
N457 H461 0.985 . S
H458 N453 0.981 1_455 S
H459 N453 0.985 . S
H460 N457 0.984 . S
H461 N457 0.985 . S
H462 N456 0.984 . S
H463 N456 0.984 . S
H464 N452 0.984 . S
H465 N452 0.981 1_655 S
C466 C467 1.363 1_455 S
C466 C472 1.379 . S
C466 N474 1.356 . S
C467 C466 1.363 1_655 S
C467 C473 1.363 . S
C468 C469 1.363 1_655 S
C468 C473 1.379 . S
C468 N475 1.356 . S
C469 C468 1.363 1_455 S
C469 C472 1.363 . S
N470 C472 1.356 . S
N470 H482 0.984 . S
N470 H483 0.985 . S
N471 C473 1.356 . S
N471 H476 0.984 . S
N471 H477 0.985 . S
C472 C466 1.379 . S
C472 C469 1.363 . S
C472 N470 1.356 . S
C473 C467 1.363 . S
C473 C468 1.379 . S
C473 N471 1.356 . S
N474 C466 1.356 . S
N474 H480 0.984 . S
N474 H481 0.981 1_455 S
N475 C468 1.356 . S
N475 H478 0.981 1_655 S
N475 H479 0.985 . S
H476 N471 0.984 . S
H477 N471 0.985 . S
H478 N475 0.981 1_455 S
H479 N475 0.985 . S
H480 N474 0.984 . S
H481 N474 0.981 1_655 S
H482 N470 0.984 . S
H483 N470 0.985 . S
C484 C485 1.363 . S
C484 C490 1.379 . S
C484 N492 1.356 . S
C485 C484 1.363 . S
C485 C491 1.363 1_655 S
C486 C487 1.363 . S
C486 C491 1.379 . S
C486 N493 1.356 . S
C487 C486 1.363 . S
C487 C490 1.363 1_455 S
N488 C490 1.356 . S
N488 H500 0.984 . S
N488 H501 0.985 . S
N489 C491 1.356 . S
N489 H494 0.984 . S
N489 H495 0.985 . S
C490 C484 1.379 . S
C490 C487 1.363 1_655 S
C490 N488 1.356 . S
C491 C485 1.363 1_455 S
C491 C486 1.379 . S
C491 N489 1.356 . S
N492 C484 1.356 . S
N492 H498 0.984 . S
N492 H499 0.984 . S
N493 C486 1.356 . S
N493 H496 0.984 . S
N493 H497 0.985 . S
H494 N489 0.984 . S
H495 N489 0.985 . S
H496 N493 0.984 . S
H497 N493 0.985 . S
H498 N492 0.984 . S
H499 N492 0.984 . S
H500 N488 0.984 . S
H501 N488 0.985 . S
C502 C503 1.363 . S
C502 C508 1.379 . S
C502 N510 1.356 . S
C503 C502 1.363 . S
C503 C509 1.363 1_655 S
C504 C505 1.363 . S
C504 C509 1.379 . S
C504 N511 1.356 . S
C505 C504 1.363 . S
C505 C508 1.363 1_455 S
N506 C508 1.356 . S
N506 H518 0.984 . S
N506 H519 0.985 . S
N507 C509 1.356 . S
N507 H512 0.984 . S
N507 H513 0.985 . S
C508 C502 1.379 . S
C508 C505 1.363 1_655 S
C508 N506 1.356 . S
C509 C503 1.363 1_455 S
C509 C504 1.379 . S
C509 N507 1.356 . S
N510 C502 1.356 . S
N510 H516 0.984 . S
N510 H517 0.984 . S
N511 C504 1.356 . S
N511 H514 0.984 . S
N511 H515 0.985 . S
H512 N507 0.984 . S
H513 N507 0.985 . S
H514 N511 0.984 . S
H515 N511 0.985 . S
H516 N510 0.984 . S
H517 N510 0.984 . S
H518 N506 0.984 . S
H519 N506 0.985 . S
C520 C521 1.363 . S
C520 C526 1.379 . S
C520 N528 1.356 . S
C521 C520 1.363 . S
C521 C527 1.363 . S
C522 C523 1.363 . S
C522 C527 1.379 . S
C522 N529 1.356 . S
C523 C522 1.363 . S
C523 C526 1.363 . S
N524 C526 1.356 . S
N524 H536 0.984 . S
N524 H537 0.985 . S
N525 C527 1.356 . S
N525 H530 0.984 . S
N525 H531 0.985 . S
C526 C520 1.379 . S
C526 C523 1.363 . S
C526 N524 1.356 . S
C527 C521 1.363 . S
C527 C522 1.379 . S
C527 N525 1.356 . S
N528 C520 1.356 . S
N528 H534 0.984 . S
N528 H535 0.984 . S
N529 C522 1.356 . S
N529 H532 0.984 . S
N529 H533 0.985 . S
H530 N525 0.984 . S
H531 N525 0.985 . S
H532 N529 0.984 . S
H533 N529 0.985 . S
H534 N528 0.984 . S
H535 N528 0.984 . S
H536 N524 0.984 . S
H537 N524 0.985 . S
C538 C539 1.363 . S
C538 C544 1.379 . S
C538 N546 1.356 . S
C539 C538 1.363 . S
C539 C545 1.363 . S
C540 C541 1.363 . S
C540 C545 1.379 . S
C540 N547 1.356 . S
C541 C540 1.363 . S
C541 C544 1.363 . S
N542 C544 1.356 . S
N542 H554 0.984 . S
N542 H555 0.985 . S
N543 C545 1.356 . S
N543 H548 0.984 . S
N543 H549 0.985 . S
C544 C538 1.379 . S
C544 C541 1.363 . S
C544 N542 1.356 . S
C545 C539 1.363 . S
C545 C540 1.379 . S
C545 N543 1.356 . S
N546 C538 1.356 . S
N546 H552 0.984 . S
N546 H553 0.984 . S
N547 C540 1.356 . S
N547 H550 0.984 . S
N547 H551 0.985 . S
H548 N543 0.984 . S
H549 N543 0.985 . S
H550 N547 0.984 . S
H551 N547 0.985 . S
H552 N546 0.984 . S
H553 N546 0.984 . S
H554 N542 0.984 . S
H555 N542 0.985 . S
C556 C557 1.363 . S
C556 C562 1.379 . S
C556 N564 1.356 . S
C557 C556 1.363 . S
C557 C563 1.363 . S
C558 C559 1.363 . S
C558 C563 1.379 . S
C558 N565 1.356 . S
C559 C558 1.363 . S
C559 C562 1.363 . S
N560 C562 1.356 . S
N560 H572 0.984 . S
N560 H573 0.985 . S
N561 C563 1.356 . S
N561 H566 0.984 . S
N561 H567 0.985 . S
C562 C556 1.379 . S
C562 C559 1.363 . S
C562 N560 1.356 . S
C563 C557 1.363 . S
C563 C558 1.379 . S
C563 N561 1.356 . S
N564 C556 1.356 . S
N564 H570 0.984 . S
N564 H571 0.984 . S
N565 C558 1.356 . S
N565 H568 0.984 . S
N565 H569 0.985 . S
H566 N561 0.984 . S
H567 N561 0.985 . S
H568 N565 0.984 . S
H569 N565 0.985 . S
H570 N564 0.984 . S
H571 N564 0.984 . S
H572 N560 0.984 . S
H573 N560 0.985 . S
C574 C575 1.363 . S
C574 C580 1.379 . S
C574 N582 1.356 . S
C575 C574 1.363 . S
C575 C581 1.363 . S
C576 C577 1.363 . S
C576 C581 1.379 . S
C576 N583 1.356 . S
C577 C576 1.363 . S
C577 C580 1.363 . S
N578 C580 1.356 . S
N578 H590 0.984 . S
N578 H591 0.985 . S
N579 C581 1.356 . S
N579 H584 0.984 . S
N579 H585 0.985 . S
C580 C574 1.379 . S
C580 C577 1.363 . S
C580 N578 1.356 . S
C581 C575 1.363 . S
C581 C576 1.379 . S
C581 N579 1.356 . S
N582 C574 1.356 . S
N582 H588 0.984 . S
N582 H589 0.984 . S
N583 C576 1.356 . S
N583 H586 0.984 . S
N583 H587 0.985 . S
H584 N579 0.984 . S
H585 N579 0.985 . S
H586 N583 0.984 . S
H587 N583 0.985 . S
H588 N582 0.984 . S
H589 N582 0.984 . S
H590 N578 0.984 . S
H591 N578 0.985 . S
C161 C2 1.619 . S
C163 C4 1.619 . S
C179 C24 1.619 . S
C181 C22 1.619 . S
C197 C44 1.619 . S
C199 C42 1.619 . S
C215 C62 1.619 . S
C217 C64 1.619 . S
C233 C82 1.619 . S
C235 C84 1.619 . S
C251 C102 1.619 . S
C253 C104 1.619 . S
C269 C124 1.619 . S
C271 C122 1.619 . S
C287 C144 1.619 . S
C289 C142 1.619 . S
C305 C32 1.933 . S
C307 C12 1.933 . S
C323 C72 1.933 . S
C325 C52 1.933 . S
C341 C92 1.933 . S
C343 C112 1.933 . S
C359 C132 1.933 . S
C361 C152 1.933 . S
C377 C9 1.512 . S
C379 C109 1.512 . S
C395 C89 1.512 . S
C397 C29 1.512 . S
C413 C49 1.512 . S
C415 C149 1.512 . S
C431 C69 1.512 . S
C433 C129 1.512 . S
C449 C18 1.544 . S
C451 C78 1.542 . S
C467 C38 1.544 . S
C469 C58 1.542 . S
C485 C39 1.635 . S
C487 C59 1.637 . S
C503 C79 1.635 . S
C505 C19 1.637 . S
C521 C98 1.544 . S
C523 C158 1.542 . S
C539 C118 1.544 . S
C541 C138 1.542 . S
C557 C119 1.635 . S
C559 C139 1.637 . S
C575 C159 1.635 . S
C577 C99 1.637 . S
