# Generated by pormake.
# Topology vbb, (4)-cn, num edge types: 1
# Building blocks:
#     Node 0, Type 0, BuildingBlock: MUDLON_clean_sbu_0, # of connection points: 4
#     Node 1, Type 0, BuildingBlock: MUDLON_clean_sbu_0, # of connection points: 4
#     Node 2, Type 0, BuildingBlock: MUDLON_clean_sbu_0, # of connection points: 4
#     Node 3, Type 0, BuildingBlock: MUDLON_clean_sbu_0, # of connection points: 4
#     Node 4, Type 0, BuildingBlock: MUDLON_clean_sbu_0, # of connection points: 4
#     Node 5, Type 0, BuildingBlock: MUDLON_clean_sbu_0, # of connection points: 4
#     Node 6, Type 0, BuildingBlock: MUDLON_clean_sbu_0, # of connection points: 4
#     Node 7, Type 0, BuildingBlock: MUDLON_clean_sbu_0, # of connection points: 4
#     Node 8, Type 0, BuildingBlock: MUDLON_clean_sbu_0, # of connection points: 4
#     Node 9, Type 0, BuildingBlock: MUDLON_clean_sbu_0, # of connection points: 4
#     Node 10, Type 0, BuildingBlock: MUDLON_clean_sbu_0, # of connection points: 4
#     Node 11, Type 0, BuildingBlock: MUDLON_clean_sbu_0, # of connection points: 4
#     Node 12, Type 0, BuildingBlock: MUDLON_clean_sbu_0, # of connection points: 4
#     Node 13, Type 0, BuildingBlock: MUDLON_clean_sbu_0, # of connection points: 4
#     Node 14, Type 0, BuildingBlock: MUDLON_clean_sbu_0, # of connection points: 4
#     Node 15, Type 0, BuildingBlock: MUDLON_clean_sbu_0, # of connection points: 4
#     Node 16, Type 0, BuildingBlock: MUDLON_clean_sbu_0, # of connection points: 4
#     Node 17, Type 0, BuildingBlock: MUDLON_clean_sbu_0, # of connection points: 4
#     Node 18, Type 0, BuildingBlock: MUDLON_clean_sbu_0, # of connection points: 4
#     Node 19, Type 0, BuildingBlock: MUDLON_clean_sbu_0, # of connection points: 4
#     Node 20, Type 0, BuildingBlock: MUDLON_clean_sbu_0, # of connection points: 4
#     Node 21, Type 0, BuildingBlock: MUDLON_clean_sbu_0, # of connection points: 4
#     Node 22, Type 0, BuildingBlock: MUDLON_clean_sbu_0, # of connection points: 4
#     Node 23, Type 0, BuildingBlock: MUDLON_clean_sbu_0, # of connection points: 4
#     Node 24, Type 0, BuildingBlock: MUDLON_clean_sbu_0, # of connection points: 4
#     Node 25, Type 0, BuildingBlock: MUDLON_clean_sbu_0, # of connection points: 4
#     Node 26, Type 0, BuildingBlock: MUDLON_clean_sbu_0, # of connection points: 4
#     Node 27, Type 0, BuildingBlock: MUDLON_clean_sbu_0, # of connection points: 4
#     Node 28, Type 0, BuildingBlock: MUDLON_clean_sbu_0, # of connection points: 4
#     Node 29, Type 0, BuildingBlock: MUDLON_clean_sbu_0, # of connection points: 4
#     Node 30, Type 0, BuildingBlock: MUDLON_clean_sbu_0, # of connection points: 4
#     Node 31, Type 0, BuildingBlock: MUDLON_clean_sbu_0, # of connection points: 4
#     Edge 32, Type (0, 0), BuildingBlock: AJUNOK_clean_linker_0, # of connection points: 2
#     Edge 33, Type (0, 0), BuildingBlock: AJUNOK_clean_linker_0, # of connection points: 2
#     Edge 34, Type (0, 0), BuildingBlock: AJUNOK_clean_linker_0, # of connection points: 2
#     Edge 35, Type (0, 0), BuildingBlock: AJUNOK_clean_linker_0, # of connection points: 2
#     Edge 36, Type (0, 0), BuildingBlock: AJUNOK_clean_linker_0, # of connection points: 2
#     Edge 37, Type (0, 0), BuildingBlock: AJUNOK_clean_linker_0, # of connection points: 2
#     Edge 38, Type (0, 0), BuildingBlock: AJUNOK_clean_linker_0, # of connection points: 2
#     Edge 39, Type (0, 0), BuildingBlock: AJUNOK_clean_linker_0, # of connection points: 2
#     Edge 40, Type (0, 0), BuildingBlock: AJUNOK_clean_linker_0, # of connection points: 2
#     Edge 41, Type (0, 0), BuildingBlock: AJUNOK_clean_linker_0, # of connection points: 2
#     Edge 42, Type (0, 0), BuildingBlock: AJUNOK_clean_linker_0, # of connection points: 2
#     Edge 43, Type (0, 0), BuildingBlock: AJUNOK_clean_linker_0, # of connection points: 2
#     Edge 44, Type (0, 0), BuildingBlock: AJUNOK_clean_linker_0, # of connection points: 2
#     Edge 45, Type (0, 0), BuildingBlock: AJUNOK_clean_linker_0, # of connection points: 2
#     Edge 46, Type (0, 0), BuildingBlock: AJUNOK_clean_linker_0, # of connection points: 2
#     Edge 47, Type (0, 0), BuildingBlock: AJUNOK_clean_linker_0, # of connection points: 2
#     Edge 48, Type (0, 0), BuildingBlock: AJUNOK_clean_linker_0, # of connection points: 2
#     Edge 49, Type (0, 0), BuildingBlock: AJUNOK_clean_linker_0, # of connection points: 2
#     Edge 50, Type (0, 0), BuildingBlock: AJUNOK_clean_linker_0, # of connection points: 2
#     Edge 51, Type (0, 0), BuildingBlock: AJUNOK_clean_linker_0, # of connection points: 2
#     Edge 52, Type (0, 0), BuildingBlock: AJUNOK_clean_linker_0, # of connection points: 2
#     Edge 53, Type (0, 0), BuildingBlock: AJUNOK_clean_linker_0, # of connection points: 2
#     Edge 54, Type (0, 0), BuildingBlock: AJUNOK_clean_linker_0, # of connection points: 2
#     Edge 55, Type (0, 0), BuildingBlock: AJUNOK_clean_linker_0, # of connection points: 2
#     Edge 56, Type (0, 0), BuildingBlock: AJUNOK_clean_linker_0, # of connection points: 2
#     Edge 57, Type (0, 0), BuildingBlock: AJUNOK_clean_linker_0, # of connection points: 2
#     Edge 58, Type (0, 0), BuildingBlock: AJUNOK_clean_linker_0, # of connection points: 2
#     Edge 59, Type (0, 0), BuildingBlock: AJUNOK_clean_linker_0, # of connection points: 2
#     Edge 60, Type (0, 0), BuildingBlock: AJUNOK_clean_linker_0, # of connection points: 2
#     Edge 61, Type (0, 0), BuildingBlock: AJUNOK_clean_linker_0, # of connection points: 2
#     Edge 62, Type (0, 0), BuildingBlock: AJUNOK_clean_linker_0, # of connection points: 2
#     Edge 63, Type (0, 0), BuildingBlock: AJUNOK_clean_linker_0, # of connection points: 2
#     Edge 64, Type (0, 0), BuildingBlock: AJUNOK_clean_linker_0, # of connection points: 2
#     Edge 65, Type (0, 0), BuildingBlock: AJUNOK_clean_linker_0, # of connection points: 2
#     Edge 66, Type (0, 0), BuildingBlock: AJUNOK_clean_linker_0, # of connection points: 2
#     Edge 67, Type (0, 0), BuildingBlock: AJUNOK_clean_linker_0, # of connection points: 2
#     Edge 68, Type (0, 0), BuildingBlock: AJUNOK_clean_linker_0, # of connection points: 2
#     Edge 69, Type (0, 0), BuildingBlock: AJUNOK_clean_linker_0, # of connection points: 2
#     Edge 70, Type (0, 0), BuildingBlock: AJUNOK_clean_linker_0, # of connection points: 2
#     Edge 71, Type (0, 0), BuildingBlock: AJUNOK_clean_linker_0, # of connection points: 2
#     Edge 72, Type (0, 0), BuildingBlock: AJUNOK_clean_linker_0, # of connection points: 2
#     Edge 73, Type (0, 0), BuildingBlock: AJUNOK_clean_linker_0, # of connection points: 2
#     Edge 74, Type (0, 0), BuildingBlock: AJUNOK_clean_linker_0, # of connection points: 2
#     Edge 75, Type (0, 0), BuildingBlock: AJUNOK_clean_linker_0, # of connection points: 2
#     Edge 76, Type (0, 0), BuildingBlock: AJUNOK_clean_linker_0, # of connection points: 2
#     Edge 77, Type (0, 0), BuildingBlock: AJUNOK_clean_linker_0, # of connection points: 2
#     Edge 78, Type (0, 0), BuildingBlock: AJUNOK_clean_linker_0, # of connection points: 2
#     Edge 79, Type (0, 0), BuildingBlock: AJUNOK_clean_linker_0, # of connection points: 2
#     Edge 80, Type (0, 0), BuildingBlock: AJUNOK_clean_linker_0, # of connection points: 2
#     Edge 81, Type (0, 0), BuildingBlock: AJUNOK_clean_linker_0, # of connection points: 2
#     Edge 82, Type (0, 0), BuildingBlock: AJUNOK_clean_linker_0, # of connection points: 2
#     Edge 83, Type (0, 0), BuildingBlock: AJUNOK_clean_linker_0, # of connection points: 2
#     Edge 84, Type (0, 0), BuildingBlock: AJUNOK_clean_linker_0, # of connection points: 2
#     Edge 85, Type (0, 0), BuildingBlock: AJUNOK_clean_linker_0, # of connection points: 2
#     Edge 86, Type (0, 0), BuildingBlock: AJUNOK_clean_linker_0, # of connection points: 2
#     Edge 87, Type (0, 0), BuildingBlock: AJUNOK_clean_linker_0, # of connection points: 2
#     Edge 88, Type (0, 0), BuildingBlock: AJUNOK_clean_linker_0, # of connection points: 2
#     Edge 89, Type (0, 0), BuildingBlock: AJUNOK_clean_linker_0, # of connection points: 2
#     Edge 90, Type (0, 0), BuildingBlock: AJUNOK_clean_linker_0, # of connection points: 2
#     Edge 91, Type (0, 0), BuildingBlock: AJUNOK_clean_linker_0, # of connection points: 2
#     Edge 92, Type (0, 0), BuildingBlock: AJUNOK_clean_linker_0, # of connection points: 2
#     Edge 93, Type (0, 0), BuildingBlock: AJUNOK_clean_linker_0, # of connection points: 2
#     Edge 94, Type (0, 0), BuildingBlock: AJUNOK_clean_linker_0, # of connection points: 2
#     Edge 95, Type (0, 0), BuildingBlock: AJUNOK_clean_linker_0, # of connection points: 2
# Relax obj value: 0.000
# Max RMSD: 0.061
# Mean RMSD: 0.061
data_MOF--net-vbb--node1-MUDLON_clean_sbu_0--edge1-AJUNOK_clean_linker_0
_symmetry_space_group_name_H-M    P1
_symmetry_Int_Tables_number       1
_symmetry_cell_setting            triclinic
loop_
_symmetry_equiv_pos_as_xyz
'x, y, z'
_cell_length_a     43.252975
_cell_length_b     11.82188
_cell_length_c     88.543274
_cell_angle_alpha  90.169871
_cell_angle_beta   89.90011
_cell_angle_gamma 89.850823
loop_
_atom_site_label
_atom_site_type_symbol
_atom_site_fract_x
_atom_site_fract_y
_atom_site_fract_z
_atom_type_partial_charge
Mg0 Mg 0.52586 0.03318 0.0875 0.0
C1 C 0.53456 0.00221 0.05496 0.0
O2 O 0.54912 0.91691 0.06127 0.0
C3 C 0.53135 0.17844 0.11558 0.0
O4 O 0.55967 0.13957 0.11442 0.0
C5 C 0.47528 0.8622 0.08159 0.0
O6 O 0.47674 0.91243 0.06842 0.0
O7 O 0.49496 0.8891 0.09168 0.0
O8 O 0.52143 0.07473 0.06356 0.0
O9 O 0.57556 0.01121 0.09006 0.0
C10 C 0.59107 0.09705 0.08579 0.0
O11 O 0.57604 0.1834 0.08001 0.0
O12 O 0.5121 0.15546 0.1051 0.0
Mg13 Mg 0.78816 0.17431 0.08989 0.0
C14 C 0.78451 0.23298 0.05905 0.0
O15 O 0.78046 0.32326 0.06752 0.0
C16 C 0.78938 0.12212 0.12122 0.0
O17 O 0.7895 0.2326 0.11965 0.0
C18 C 0.85306 0.21383 0.0915 0.0
O19 O 0.8487 0.1045 0.08984 0.0
O20 O 0.82928 0.2776 0.0925 0.0
O21 O 0.78942 0.13886 0.0657 0.0
O22 O 0.73979 0.22261 0.09209 0.0
C23 C 0.72469 0.12998 0.09165 0.0
O24 O 0.74023 0.0351 0.08998 0.0
O25 O 0.79073 0.06137 0.10928 0.0
Mg26 Mg 0.50314 0.21381 0.21102 0.0
C27 C 0.49981 0.35648 0.23989 0.0
O28 O 0.47025 0.35451 0.23663 0.0
C29 C 0.49547 0.23662 0.17774 0.0
O30 O 0.47278 0.16862 0.18152 0.0
C31 C 0.43847 0.29142 0.2078 0.0
O32 O 0.45512 0.36854 0.20092 0.0
O33 O 0.45235 0.20578 0.21338 0.0
O34 O 0.51895 0.31543 0.23035 0.0
O35 O 0.53257 0.06123 0.2134 0.0
C36 C 0.55108 0.03169 0.20282 0.0
O37 O 0.54839 0.08095 0.18963 0.0
O38 O 0.51249 0.27693 0.18819 0.0
Mg39 Mg 0.74293 0.88021 0.21086 0.0
C40 C 0.74856 0.86015 0.24371 0.0
O41 O 0.74766 0.75544 0.23871 0.0
C42 C 0.75509 0.93342 0.17971 0.0
O43 O 0.74894 0.82471 0.18031 0.0
C44 C 0.80776 0.83661 0.21036 0.0
O45 O 0.80295 0.94436 0.21325 0.0
O46 O 0.78412 0.77284 0.2088 0.0
O47 O 0.74703 0.94019 0.23411 0.0
O48 O 0.69397 0.83453 0.20705 0.0
C49 C 0.67391 0.86448 0.2169 0.0
O50 O 0.68376 0.90208 0.23 0.0
O51 O 0.75321 0.99094 0.1919 0.0
Mg52 Mg 0.53145 0.96156 0.95716 0.0
C53 C 0.46527 0.94699 0.95842 0.0
O54 O 0.47635 0.84649 0.96175 0.0
C55 C 0.59643 0.01762 0.95327 0.0
O56 O 0.59556 0.90693 0.95446 0.0
C57 C 0.53204 0.87508 0.92652 0.0
O58 O 0.52973 0.98568 0.92551 0.0
O59 O 0.53412 0.83171 0.93965 0.0
O60 O 0.48441 0.02515 0.95521 0.0
O61 O 0.53433 0.92213 0.98115 0.0
C62 C 0.52747 0.00923 0.98903 0.0
O63 O 0.5204 0.103 0.98189 0.0
O64 O 0.57091 0.07177 0.95347 0.0
Mg65 Mg 0.26465 0.95532 0.96622 0.0
C66 C 0.33138 0.00694 0.96239 0.0
O67 O 0.31798 0.10505 0.95997 0.0
C68 C 0.20646 0.84056 0.96148 0.0
O69 O 0.20003 0.94927 0.96177 0.0
C70 C 0.2694 0.99114 0.9343 0.0
O71 O 0.28607 0.90206 0.93781 0.0
O72 O 0.25551 0.0442 0.94491 0.0
O73 O 0.31438 0.92255 0.9657 0.0
O74 O 0.2521 0.01322 0.98911 0.0
C75 C 0.27288 0.01702 0.99932 0.0
O76 O 0.30198 0.00974 0.99517 0.0
O77 O 0.23451 0.81022 0.96326 0.0
Mg78 Mg 0.50442 0.55902 0.83876 0.0
C79 C 0.43512 0.52962 0.83281 0.0
O80 O 0.44394 0.5618 0.81931 0.0
C81 C 0.56626 0.46739 0.83121 0.0
O82 O 0.5648 0.56412 0.824 0.0
C83 C 0.51941 0.61458 0.87062 0.0
O84 O 0.51791 0.50362 0.87066 0.0
O85 O 0.51506 0.66608 0.85817 0.0
O86 O 0.45577 0.51095 0.84279 0.0
O87 O 0.5068 0.64699 0.81706 0.0
C88 C 0.50565 0.58688 0.80509 0.0
O89 O 0.50286 0.47671 0.80642 0.0
O90 O 0.54261 0.43515 0.83868 0.0
Mg91 Mg 0.25596 0.82797 0.84092 0.0
C92 C 0.3112 0.67687 0.84851 0.0
O93 O 0.30946 0.73463 0.86119 0.0
C94 C 0.18611 0.77467 0.84765 0.0
O95 O 0.1942 0.77045 0.86192 0.0
C96 C 0.24561 0.97528 0.87027 0.0
O97 O 0.2184 0.00079 0.86465 0.0
O98 O 0.264 0.91284 0.86266 0.0
O99 O 0.29 0.69044 0.83869 0.0
O100 O 0.26591 0.92963 0.82094 0.0
C101 C 0.26329 0.87379 0.80866 0.0
O102 O 0.25556 0.76662 0.80954 0.0
O103 O 0.20701 0.78712 0.83763 0.0
Mg104 Mg 0.52091 0.54115 0.59076 0.0
C105 C 0.5252 0.47627 0.55943 0.0
O106 O 0.53163 0.38629 0.56752 0.0
C107 C 0.50925 0.60774 0.62102 0.0
O108 O 0.51559 0.49903 0.6206 0.0
C109 C 0.45962 0.45651 0.59324 0.0
O110 O 0.45821 0.56427 0.58967 0.0
O111 O 0.48626 0.41124 0.59463 0.0
O112 O 0.51841 0.56772 0.56642 0.0
O113 O 0.57037 0.5246 0.59455 0.0
C114 C 0.58242 0.62234 0.59301 0.0
O115 O 0.56406 0.70708 0.58956 0.0
O116 O 0.50901 0.6619 0.60857 0.0
Mg117 Mg 0.77903 0.76371 0.59397 0.0
C118 C 0.78084 0.75549 0.56207 0.0
O119 O 0.77114 0.85566 0.5665 0.0
C120 C 0.79016 0.77765 0.62583 0.0
O121 O 0.78394 0.88016 0.621 0.0
C122 C 0.83907 0.85366 0.5919 0.0
O123 O 0.84063 0.74303 0.59307 0.0
O124 O 0.81238 0.89976 0.59198 0.0
O125 O 0.78647 0.6816 0.5722 0.0
O126 O 0.72919 0.78524 0.59469 0.0
C127 C 0.71603 0.6893 0.59596 0.0
O128 O 0.73361 0.59876 0.5969 0.0
O129 O 0.79026 0.69696 0.61621 0.0
Mg130 Mg 0.52329 0.84963 0.71338 0.0
C131 C 0.52393 0.79287 0.74597 0.0
O132 O 0.54274 0.87981 0.74519 0.0
C133 C 0.51327 0.81881 0.68042 0.0
O134 O 0.51953 0.92727 0.68144 0.0
C135 C 0.47861 0.03906 0.72308 0.0
O136 O 0.48526 0.00399 0.73674 0.0
O137 O 0.49409 0.00012 0.71197 0.0
O138 O 0.51125 0.75776 0.73387 0.0
O139 O 0.57349 0.86364 0.71381 0.0
C140 C 0.58694 0.76804 0.71514 0.0
O141 O 0.56968 0.677 0.71595 0.0
O142 O 0.5129 0.76022 0.69248 0.0
Mg143 Mg 0.78658 0.69232 0.7226 0.0
C144 C 0.77292 0.77219 0.75441 0.0
O145 O 0.74457 0.75812 0.74952 0.0
C146 C 0.79277 0.69452 0.69064 0.0
O147 O 0.78619 0.59109 0.69498 0.0
C148 C 0.84867 0.61342 0.7219 0.0
O149 O 0.84888 0.72422 0.72319 0.0
O150 O 0.82255 0.56352 0.7218 0.0
O151 O 0.79499 0.76778 0.74487 0.0
O152 O 0.73726 0.65483 0.721 0.0
C153 C 0.72189 0.74277 0.71732 0.0
O154 O 0.73718 0.83691 0.71488 0.0
O155 O 0.79538 0.77082 0.7008 0.0
Mg156 Mg 0.54148 0.43478 0.462 0.0
C157 C 0.47841 0.39441 0.46121 0.0
O158 O 0.49421 0.29946 0.46197 0.0
C159 C 0.60642 0.46344 0.4602 0.0
O160 O 0.60022 0.35471 0.46002 0.0
C161 C 0.54174 0.41333 0.43017 0.0
O162 O 0.54105 0.52088 0.43395 0.0
O163 O 0.54327 0.34054 0.44078 0.0
O164 O 0.49343 0.48719 0.46078 0.0
O165 O 0.54157 0.38004 0.48551 0.0
C166 C 0.53632 0.46795 0.49356 0.0
O167 O 0.53308 0.56527 0.48659 0.0
O168 O 0.58379 0.53279 0.46088 0.0
Mg169 Mg 0.28201 0.26102 0.46354 0.0
C170 C 0.34465 0.34654 0.46518 0.0
O171 O 0.32669 0.43123 0.46921 0.0
C172 C 0.23678 0.06486 0.46778 0.0
O173 O 0.24371 0.08023 0.48206 0.0
C174 C 0.28791 0.39314 0.43495 0.0
O175 O 0.31391 0.33597 0.43537 0.0
O176 O 0.2691 0.38463 0.44603 0.0
O177 O 0.3321 0.25182 0.46204 0.0
O178 O 0.27452 0.29279 0.48762 0.0
C179 C 0.2902 0.22621 0.49599 0.0
O180 O 0.30897 0.15356 0.48941 0.0
O181 O 0.25252 0.11676 0.45779 0.0
Mg182 Mg 0.51132 0.26694 0.33506 0.0
C183 C 0.44497 0.20399 0.32758 0.0
O184 O 0.45338 0.24439 0.3144 0.0
C185 C 0.57671 0.2162 0.33783 0.0
O186 O 0.57411 0.32607 0.33971 0.0
C187 C 0.51879 0.28403 0.36746 0.0
O188 O 0.51485 0.17609 0.36446 0.0
O189 O 0.51755 0.35409 0.35654 0.0
O190 O 0.46555 0.19109 0.33771 0.0
O191 O 0.51092 0.36289 0.31381 0.0
C192 C 0.53012 0.33748 0.30338 0.0
O193 O 0.55233 0.26526 0.30643 0.0
O194 O 0.55226 0.1596 0.33513 0.0
Mg195 Mg 0.26669 0.47084 0.33908 0.0
C196 C 0.31836 0.29961 0.3443 0.0
O197 O 0.31427 0.33373 0.35829 0.0
C198 C 0.19939 0.5003 0.34389 0.0
O199 O 0.21162 0.58291 0.35181 0.0
C200 C 0.25823 0.46632 0.37267 0.0
O201 O 0.23839 0.38985 0.36804 0.0
O202 O 0.27396 0.51998 0.36282 0.0
O203 O 0.29948 0.33356 0.33424 0.0
O204 O 0.27933 0.59232 0.32134 0.0
C205 C 0.25935 0.62685 0.31183 0.0
O206 O 0.23013 0.60271 0.31418 0.0
O207 O 0.21729 0.43385 0.33661 0.0
Mg208 Mg 1.01402 0.20099 0.58024 0.0
C209 C 0.02849 0.26552 0.54772 0.0
O210 O 0.05674 0.25081 0.55275 0.0
C211 C 1.01293 0.22372 0.6125 0.0
O212 O 1.01767 0.11673 0.60912 0.0
C213 C 0.95103 0.11918 0.58303 0.0
O214 O 0.94829 0.22937 0.58159 0.0
O215 O 0.978 0.07585 0.5826 0.0
O216 O 1.00627 0.26515 0.55722 0.0
O217 O 0.06121 0.13875 0.58141 0.0
C218 C 0.08079 0.21247 0.58567 0.0
O219 O 0.07085 0.31494 0.58885 0.0
O220 O 1.0093 0.2933 0.60162 0.0
Mg221 Mg 0.27952 0.14647 0.59301 0.0
C222 C 0.27707 0.1982 0.56155 0.0
O223 O 0.2683 0.28818 0.56919 0.0
C224 C 0.26655 0.02046 0.62196 0.0
O225 O 0.23835 0.05477 0.61895 0.0
C226 C 0.34293 0.21335 0.59755 0.0
O227 O 0.34295 0.10234 0.59686 0.0
O228 O 0.31709 0.26504 0.59654 0.0
O229 O 0.28484 0.11006 0.56896 0.0
O230 O 0.23168 0.20262 0.59421 0.0
C231 C 0.21362 0.12902 0.58851 0.0
O232 O 0.22583 0.03513 0.58319 0.0
O233 O 0.28705 0.02839 0.61166 0.0
Mg234 Mg 0.0329 0.34098 0.7091 0.0
C235 C 0.02561 0.29461 0.74122 0.0
O236 O 1.0236 0.40484 0.73966 0.0
C237 C 1.02156 0.34656 0.67647 0.0
O238 O 1.02227 0.45295 0.68077 0.0
C239 C 0.96798 0.39246 0.71211 0.0
O240 O 0.97026 0.28233 0.7104 0.0
O241 O 0.99279 0.45061 0.71189 0.0
O242 O 0.02968 0.23475 0.72936 0.0
O243 O 0.08007 0.40951 0.70797 0.0
C244 C 0.09942 0.39436 0.71862 0.0
O245 O 0.08941 0.35365 0.7315 0.0
O246 O 0.02538 0.27045 0.68651 0.0
Mg247 Mg 0.28277 0.15147 0.71762 0.0
C248 C 0.2802 0.09549 0.75018 0.0
O249 O 0.28811 0.20275 0.75011 0.0
C250 C 0.29382 0.0938 0.68484 0.0
O251 O 0.31385 0.17562 0.68696 0.0
C252 C 0.34942 0.12338 0.71559 0.0
O253 O 0.33763 0.02655 0.71116 0.0
O254 O 0.33116 0.20329 0.71936 0.0
O255 O 0.27593 0.04611 0.73754 0.0
O256 O 0.24643 0.28023 0.71938 0.0
C257 C 0.2292 0.30322 0.70814 0.0
O258 O 0.23662 0.26148 0.69486 0.0
O259 O 0.27687 0.06322 0.69589 0.0
Mg260 Mg 0.04 0.97088 0.45991 0.0
C261 C 0.98758 0.8017 0.45506 0.0
O262 O 0.99113 0.83602 0.44107 0.0
C263 C 0.10725 0.99259 0.45678 0.0
O264 O 0.09574 0.07549 0.44867 0.0
C265 C 0.05267 0.94153 0.42747 0.0
O266 O 0.06732 0.85803 0.43414 0.0
O267 O 0.03708 0.01015 0.43564 0.0
O268 O 1.0061 0.83863 0.4651 0.0
O269 O 0.03343 0.10814 0.47647 0.0
C270 C 1.0121 0.10416 0.48641 0.0
O271 O 0.99067 0.02624 0.4851 0.0
O272 O 0.08861 0.92604 0.46347 0.0
Mg273 Mg 0.79815 0.66519 0.46461 0.0
C274 C 0.86621 0.6351 0.47117 0.0
O275 O 0.85634 0.67052 0.48438 0.0
C276 C 0.73401 0.61898 0.46462 0.0
O277 O 0.73822 0.72752 0.46711 0.0
C278 C 0.78557 0.70982 0.43326 0.0
O279 O 0.79035 0.60042 0.43451 0.0
O280 O 0.78827 0.77097 0.44508 0.0
O281 O 0.84629 0.61201 0.46102 0.0
O282 O 0.79401 0.7328 0.48746 0.0
C283 C 0.79173 0.65671 0.49759 0.0
O284 O 0.79204 0.55015 0.49332 0.0
O285 O 0.75788 0.55606 0.46319 0.0
Mg286 Mg 1.02065 0.75989 0.33858 0.0
C287 C 0.95774 0.83561 0.34075 0.0
O288 O 0.97459 0.92463 0.33753 0.0
C289 C 0.06966 0.57706 0.33398 0.0
O290 O 0.06299 0.59568 0.31975 0.0
C291 C 0.05592 0.88855 0.36251 0.0
O292 O 0.07843 0.82448 0.35732 0.0
O293 O 0.03078 0.89215 0.35512 0.0
O294 O 0.97137 0.74044 0.34217 0.0
O295 O 1.02432 0.79144 0.31441 0.0
C296 C 1.00965 0.71972 0.30638 0.0
O297 O 0.99388 0.64035 0.31331 0.0
O298 O 0.05283 0.62284 0.34412 0.0
Mg299 Mg 0.7592 0.91556 0.34112 0.0
C300 C 0.82323 0.86604 0.34196 0.0
O301 O 0.80785 0.77031 0.34157 0.0
C302 C 0.6964 0.98871 0.34096 0.0
O303 O 0.69664 0.878 0.33952 0.0
C304 C 0.75728 0.88452 0.37325 0.0
O305 O 0.75941 0.9937 0.37075 0.0
O306 O 0.75488 0.81862 0.36187 0.0
O307 O 0.80785 0.95817 0.34182 0.0
O308 O 0.75369 0.84959 0.31827 0.0
C309 C 0.75681 0.93121 0.30898 0.0
O310 O 0.76279 0.03202 0.31452 0.0
O311 O 0.72222 0.03926 0.34237 0.0
Mg312 Mg 0.04458 0.41464 0.08593 0.0
C313 C 0.03977 0.39823 0.05321 0.0
O314 O 0.03789 0.29404 0.05826 0.0
C315 C 0.03427 0.45322 0.11722 0.0
O316 O 0.03984 0.3451 0.11504 0.0
C317 C 0.98002 0.37721 0.08695 0.0
O318 O 0.9854 0.48516 0.08468 0.0
O319 O 1.00322 0.31026 0.08758 0.0
O320 O 0.04241 0.47816 0.06284 0.0
O321 O 0.09263 0.36542 0.09026 0.0
C322 C 0.11321 0.38026 0.08013 0.0
O323 O 0.10435 0.39396 0.06609 0.0
O324 O 0.03548 0.51874 0.10579 0.0
Mg325 Mg 0.28371 0.76297 0.08948 0.0
C326 C 0.25453 0.87157 0.06126 0.0
O327 O 0.23406 0.79134 0.06341 0.0
C328 C 0.27562 0.76354 0.12332 0.0
O329 O 0.26974 0.65734 0.12008 0.0
C330 C 0.35196 0.71375 0.09621 0.0
O331 O 0.34252 0.72728 0.1102 0.0
O332 O 0.33195 0.71397 0.08567 0.0
O333 O 0.27596 0.88441 0.07099 0.0
O334 O 0.25035 0.62425 0.08683 0.0
C335 C 0.22408 0.63302 0.09328 0.0
O336 O 0.2183 0.72306 0.10156 0.0
O337 O 0.28188 0.83185 0.11264 0.0
Mg338 Mg 1.00374 0.67699 0.20901 0.0
C339 C 1.01107 0.71527 0.24048 0.0
O340 O 1.01534 0.81117 0.23332 0.0
C341 C 1.00694 0.62706 0.17761 0.0
O342 O 1.00578 0.73752 0.17927 0.0
C343 C 0.93702 0.69105 0.2063 0.0
O344 O 0.94415 0.583 0.20656 0.0
O345 O 0.95907 0.76268 0.20687 0.0
O346 O 1.00439 0.62767 0.23269 0.0
O347 O 0.05022 0.74812 0.20717 0.0
C348 C 0.06938 0.66635 0.20855 0.0
O349 O 0.05817 0.56399 0.2103 0.0
O350 O 1.00514 0.56596 0.18943 0.0
Mg351 Mg 0.26962 0.66793 0.2161 0.0
C352 C 0.29189 0.70563 0.2491 0.0
O353 O 0.31773 0.65968 0.24421 0.0
C354 C 0.29469 0.77804 0.18744 0.0
O355 O 0.31942 0.71824 0.19069 0.0
C356 C 0.31404 0.45594 0.22007 0.0
O357 O 0.29935 0.43515 0.23275 0.0
O358 O 0.30505 0.53783 0.21182 0.0
O359 O 0.27064 0.72771 0.2396 0.0
O360 O 0.22108 0.62271 0.2132 0.0
C361 C 0.20371 0.71024 0.21297 0.0
O362 O 0.2167 0.8097 0.21474 0.0
O363 O 0.27335 0.78696 0.1973 0.0
Mg364 Mg 0.04113 0.43232 0.95542 0.0
C365 C 0.97574 0.38429 0.95392 0.0
O366 O 0.9898 0.28581 0.95474 0.0
C367 C 0.10312 0.52715 0.95506 0.0
O368 O 0.10693 0.41779 0.95691 0.0
C369 C 0.04766 0.37102 0.9238 0.0
O370 O 0.04522 0.48179 0.92416 0.0
O371 O 0.04828 0.31829 0.93634 0.0
O372 O 0.99231 0.47331 0.95372 0.0
O373 O 0.0456 0.3778 0.9788 0.0
C374 C 0.04234 0.46169 0.98777 0.0
O375 O 0.03737 0.56195 0.98188 0.0
O376 O 0.07568 0.56479 0.9535 0.0
Mg377 Mg 0.77699 0.33364 0.96168 0.0
C378 C 0.84106 0.38752 0.95792 0.0
O379 O 0.82637 0.48174 0.96126 0.0
C380 C 0.71363 0.25823 0.95834 0.0
O381 O 0.7123 0.36701 0.96139 0.0
C382 C 0.76225 0.42107 0.93244 0.0
O383 O 0.76079 0.31037 0.93158 0.0
O384 O 0.76833 0.46684 0.94513 0.0
O385 O 0.82539 0.2964 0.95715 0.0
O386 O 0.77538 0.35948 0.98602 0.0
C387 C 0.78099 0.268 0.99314 0.0
O388 O 0.78662 0.176 0.98523 0.0
O389 O 0.74019 0.21142 0.9576 0.0
Mg390 Mg 1.00845 0.07585 0.83559 0.0
C391 C 0.94065 0.11982 0.83019 0.0
O392 O 0.95353 0.1754 0.81902 0.0
C393 C 0.06476 0.9353 0.83083 0.0
O394 O 0.06802 0.01692 0.82094 0.0
C395 C 0.02551 0.13269 0.86704 0.0
O396 O 1.01913 0.02419 0.86766 0.0
O397 O 1.02311 0.18275 0.85437 0.0
O398 O 0.95798 0.06073 0.83878 0.0
O399 O 1.01688 0.15224 0.81341 0.0
C400 C 1.01321 0.09492 0.80133 0.0
O401 O 1.00479 0.98853 0.80242 0.0
O402 O 0.03956 0.9298 0.83827 0.0
Mg403 Mg 0.76033 0.43495 0.83781 0.0
C404 C 0.81561 0.27473 0.84408 0.0
O405 O 0.80736 0.29167 0.85819 0.0
C406 C 0.69399 0.34506 0.84091 0.0
O407 O 0.70234 0.33236 0.85506 0.0
C408 C 0.77241 0.53703 0.87029 0.0
O409 O 0.79681 0.58796 0.86469 0.0
O410 O 0.75583 0.47559 0.86173 0.0
O411 O 0.79937 0.31896 0.83362 0.0
O412 O 0.76571 0.58114 0.82298 0.0
C413 C 0.78899 0.59272 0.81431 0.0
O414 O 0.81258 0.5236 0.81594 0.0
O415 O 0.71441 0.37382 0.83127 0.0
C416 C 0.49018 0.20484 0.1352 0.0
C417 C 0.52084 0.22226 0.13047 0.0
C418 C 0.48174 0.21742 0.15043 0.0
C419 C 0.50351 0.24901 0.16149 0.0
H420 H 0.47306 0.17335 0.12734 0.0
H421 H 0.45827 0.19651 0.15365 0.0
S422 S 0.5855 0.32409 0.15444 0.0
N423 N 0.57206 0.28735 0.13769 0.0
N424 N 0.55613 0.31155 0.16624 0.0
C425 C 0.53351 0.27689 0.15666 0.0
C426 C 0.54218 0.26328 0.14117 0.0
C427 C 0.76328 0.91821 0.15176 0.0
C428 C 0.76492 0.98376 0.16509 0.0
C429 C 0.77231 0.96178 0.13771 0.0
C430 C 0.78337 0.07289 0.13637 0.0
H431 H 0.75454 0.83248 0.15209 0.0
H432 H 0.7698 0.90881 0.12779 0.0
S433 S 0.79466 0.27711 0.16793 0.0
N434 N 0.78013 0.16371 0.1761 0.0
N435 N 0.7972 0.24582 0.14978 0.0
C436 C 0.78597 0.13851 0.14967 0.0
C437 C 0.7767 0.09406 0.16398 0.0
C438 C 0.52329 0.79698 0.88503 0.0
C439 C 0.52439 0.67812 0.88498 0.0
C440 C 0.5263 0.85897 0.89847 0.0
C441 C 0.53055 0.80517 0.91251 0.0
H442 H 0.51962 0.84301 0.87463 0.0
H443 H 0.52485 0.95029 0.89778 0.0
S444 S 0.53681 0.49551 0.9186 0.0
N445 N 0.53135 0.50864 0.90024 0.0
N446 N 0.5369 0.62555 0.92544 0.0
C447 C 0.53239 0.6864 0.91263 0.0
C448 C 0.52935 0.62293 0.89891 0.0
C449 C 0.22945 0.0323 0.89662 0.0
C450 C 0.25313 0.00351 0.88628 0.0
C451 C 0.23522 0.03866 0.91227 0.0
C452 C 0.26484 0.01646 0.91807 0.0
H453 H 0.20591 0.04332 0.89274 0.0
H454 H 0.21597 0.05291 0.91989 0.0
S455 S 0.33588 0.95914 0.89576 0.0
N456 N 0.30823 0.96911 0.883 0.0
N457 N 0.31883 0.98011 0.91223 0.0
C458 C 0.2891 -0.00287 0.90779 0.0
C459 C 0.28333 0.99092 0.89194 0.0
C460 C 0.51285 0.77959 0.63767 0.0
C461 C 0.50593 0.66427 0.63593 0.0
C462 C 0.5143 0.82939 0.65209 0.0
C463 C 0.50883 0.76589 0.6653 0.0
H464 H 0.51847 0.83068 0.62792 0.0
H465 H 0.5207 0.91773 0.65285 0.0
S466 S 0.48548 0.46415 0.66665 0.0
N467 N 0.49038 0.49059 0.64852 0.0
N468 N 0.49322 0.58387 0.67548 0.0
C469 C 0.50024 0.65196 0.66362 0.0
C470 C 0.49875 0.60135 0.64897 0.0
C471 C 0.79226 0.62886 0.66376 0.0
C472 C 0.79511 0.71871 0.67421 0.0
C473 C 0.79185 0.64792 0.64814 0.0
C474 C 0.79415 0.75775 0.64228 0.0
H475 H 0.78967 0.54258 0.66763 0.0
H476 H 0.78873 0.57621 0.64066 0.0
S477 S 0.80521 0.02155 0.66464 0.0
N478 N 0.80252 0.92093 0.67746 0.0
N479 N 0.80187 0.95735 0.64814 0.0
C480 C 0.79834 0.8481 0.65256 0.0
C481 C 0.7988 0.82849 0.66849 0.0
C482 C 0.5302 0.26919 0.41007 0.0
C483 C 0.5379 0.38071 0.41404 0.0
C484 C 0.52407 0.2394 0.39501 0.0
C485 C 0.5254 0.31976 0.38326 0.0
H486 H 0.52827 0.20467 0.41868 0.0
H487 H 0.51794 0.15239 0.39263 0.0
S488 S 0.54651 0.62213 0.38748 0.0
N489 N 0.54798 0.57124 0.4048 0.0
N490 N 0.53635 0.51486 0.37662 0.0
C491 C 0.53369 0.43111 0.38702 0.0
C492 C 0.53998 0.46156 0.40235 0.0
C493 C 0.24155 0.44324 0.39953 0.0
C494 C 0.26448 0.47637 0.3891 0.0
C495 C 0.24843 0.42782 0.41489 0.0
C496 C 0.27863 0.44323 0.42031 0.0
H497 H 0.21844 0.42332 0.39566 0.0
H498 H 0.23059 0.39481 0.42225 0.0
S499 S 0.34595 0.5452 0.3982 0.0
N500 N 0.31769 0.53707 0.38573 0.0
N501 N 0.33075 0.50613 0.41449 0.0
C502 C 0.30112 0.48509 0.41027 0.0
C503 C 0.29402 0.50229 0.39468 0.0
C504 C 1.01843 0.17627 0.63993 0.0
C505 C 1.01345 0.25887 0.62869 0.0
C506 C 1.0205 0.20495 0.65528 0.0
C507 C 1.01771 0.3177 0.66015 0.0
H508 H 1.02114 0.088 0.63688 0.0
H509 H 0.02475 0.13801 0.66334 0.0
S510 S 1.00286 0.56631 0.63545 0.0
N511 N 1.00465 0.45817 0.62365 0.0
N512 N 1.00842 0.51276 0.65244 0.0
C513 C 1.01206 0.40125 0.64908 0.0
C514 C 1.00995 0.37176 0.6334 0.0
C515 C 0.25266 -0.00162 0.64927 0.0
C516 C 0.27576 0.00921 0.63809 0.0
C517 C 0.25911 0.01747 0.66461 0.0
C518 C 0.28884 0.04948 0.66934 0.0
H519 H 0.22896 0.98147 0.64606 0.0
H520 H 0.24021 0.01473 0.67264 0.0
S521 S 0.35874 0.07011 0.64513 0.0
N522 N 0.33062 0.0386 0.63328 0.0
N523 N 0.34251 0.07596 0.66201 0.0
C524 C 0.31268 0.05124 0.65851 0.0
C525 C 0.30624 0.03039 0.64292 0.0
C526 C 0.08199 0.89621 0.38765 0.0
C527 C 0.05669 0.92726 0.37857 0.0
C528 C 0.08086 0.90696 0.40339 0.0
C529 C 0.05462 0.9509 0.41079 0.0
H530 H 0.1023 0.85715 0.38269 0.0
H531 H 0.10043 0.87666 0.40987 0.0
S532 S 0.98383 0.06021 0.39228 0.0
N533 N 1.00567 0.01533 0.37815 0.0
N534 N 1.00394 0.03668 0.40781 0.0
C535 C 0.03012 0.99095 0.40187 0.0
C536 C 0.03107 0.97891 0.38575 0.0
C537 C 0.77656 0.68542 0.40552 0.0
C538 C 0.77693 0.75717 0.41829 0.0
C539 C 0.7691 0.72617 0.39112 0.0
C540 C 0.76173 0.8406 0.38883 0.0
H541 H 0.7825 0.59674 0.40655 0.0
H542 H 0.76993 0.66787 0.38166 0.0
S543 S 0.75673 0.06238 0.41864 0.0
N544 N 0.76745 0.94727 0.42777 0.0
N545 N 0.75337 0.02424 0.40077 0.0
C546 C 0.76107 0.91285 0.40156 0.0
C547 C 0.7687 0.87117 0.41625 0.0
C548 C 1.01571 0.65217 0.14986 0.0
C549 C 1.01246 0.57876 0.16231 0.0
C550 C 1.02252 0.6112 0.13535 0.0
C551 C 0.02642 0.49495 0.13263 0.0
H552 H 1.01331 0.74278 0.1513 0.0
H553 H 0.02502 0.67145 0.12624 0.0
S554 S 1.01898 0.26598 0.1612 0.0
N555 N 1.01274 0.38363 0.17082 0.0
N556 N 0.02544 0.30594 0.14364 0.0
C557 C 1.0227 0.42015 0.14494 0.0
C558 C 1.01573 0.46212 0.15973 0.0
C559 C 0.31243 0.82325 0.16116 0.0
C560 C 0.28796 0.80318 0.17132 0.0
C561 C 0.30769 0.82132 0.14543 0.0
C562 C 0.27847 0.79657 0.13936 0.0
H563 H 0.33571 0.83498 0.16536 0.0
H564 H 0.32746 0.83107 0.13803 0.0
S565 S 0.20631 0.74612 0.16085 0.0
N566 N 0.23278 0.76711 0.17397 0.0
N567 N 0.22444 0.75876 0.14451 0.0
C568 C 0.25356 0.7822 0.14932 0.0
C569 C 0.25813 0.78703 0.16529 0.0
C570 C 0.03331 0.1371 0.8951 0.0
C571 C 0.03381 0.19449 0.88115 0.0
C572 C 0.03903 0.19358 0.90877 0.0
C573 C 0.0455 0.31003 0.90911 0.0
H574 H 0.02777 0.04789 0.89556 0.0
H575 H 0.0374 0.14603 0.91918 0.0
S576 S 0.0529 0.49762 0.87564 0.0
N577 N 0.04364 0.37315 0.86849 0.0
N578 N 0.05451 0.47927 0.8941 0.0
C579 C 0.0474 0.36764 0.89519 0.0
C580 C 0.04152 0.31001 0.88126 0.0
C581 C 0.78759 0.5372 0.91258 0.0
C582 C 0.76083 0.48498 0.91823 0.0
C583 C 0.79042 0.56229 0.89711 0.0
C584 C 0.76658 0.53548 0.88686 0.0
H585 H 0.80741 0.54958 0.91986 0.0
H586 H 0.81224 0.59509 0.89304 0.0
S587 S 0.68964 0.41819 0.89689 0.0
N588 N 0.70876 0.42109 0.91301 0.0
N589 N 0.71344 0.47075 0.88413 0.0
C590 C 0.73859 0.49371 0.89278 0.0
C591 C 0.73591 0.4676 0.90843 0.0
C592 C 0.40649 0.75648 0.104 0.0
C593 C 0.38549 0.72471 0.09258 0.0
C594 C 0.43663 0.79199 0.10052 0.0
C595 C 0.44697 0.79721 0.08546 0.0
H596 H 0.39909 0.76083 0.11569 0.0
H597 H 0.4511 0.82288 0.1096 0.0
S598 S 0.4036 0.69985 0.05169 0.0
N599 N 0.37909 0.68359 0.06583 0.0
N600 N 0.43558 0.75017 0.0593 0.0
C601 C 0.42729 0.75525 0.0741 0.0
C602 C 0.39662 0.71902 0.07765 0.0
C603 C 0.91031 0.18297 0.09006 0.0
C604 C 0.88514 0.25884 0.09121 0.0
C605 C 0.94087 0.22147 0.0889 0.0
C606 C 0.94761 0.33756 0.08878 0.0
H607 H 0.90647 0.09249 0.08987 0.0
H608 H 0.95927 0.1596 0.08785 0.0
S609 S 0.89031 0.57184 0.0924 0.0
N610 N 0.86924 0.45574 0.09278 0.0
N611 N 0.92646 0.52871 0.09065 0.0
C612 C 0.9227 0.41458 0.09028 0.0
C613 C 0.89157 0.37515 0.09149 0.0
C614 C 0.3896 0.38673 0.20006 0.0
C615 C 0.40493 0.31383 0.21013 0.0
C616 C 0.35968 0.42676 0.20301 0.0
C617 C 0.34367 0.39677 0.21627 0.0
H618 H 0.40124 0.41638 0.18998 0.0
H619 H 0.34957 0.48544 0.19504 0.0
S620 S 0.37255 0.19988 0.24576 0.0
N621 N 0.40111 0.20642 0.23339 0.0
N622 N 0.34484 0.28203 0.23909 0.0
C623 C 0.35808 0.31877 0.22608 0.0
C624 C 0.38866 0.2772 0.22297 0.0
C625 C 0.8648 0.87291 0.21075 0.0
C626 C 0.84026 0.79551 0.20884 0.0
C627 C 0.89583 0.83922 0.20957 0.0
C628 C 0.90387 0.72636 0.20648 0.0
H629 H 0.86014 0.96099 0.21329 0.0
H630 H 0.91364 0.90209 0.21136 0.0
S631 S 0.84863 0.49065 0.19968 0.0
N632 N 0.8263 0.60125 0.20312 0.0
N633 N 0.8845 0.53722 0.2009 0.0
C634 C 0.87959 0.64809 0.20426 0.0
C635 C 0.84789 0.68272 0.20544 0.0
C636 C 0.65591 0.25237 0.95661 0.0
C637 C 0.68442 0.19427 0.95605 0.0
C638 C 0.6277 0.19527 0.95523 0.0
C639 C 0.62668 0.07735 0.95326 0.0
H640 H 0.65521 0.34306 0.95835 0.0
H641 H 0.60651 0.24397 0.95608 0.0
S642 S 0.69476 0.88587 0.94987 0.0
N643 N 0.70985 0.01243 0.95255 0.0
N644 N 0.65693 0.90476 0.94992 0.0
C645 C 0.65504 0.01836 0.95219 0.0
C646 C 0.68384 0.07678 0.95358 0.0
C647 C 0.15036 0.79711 0.95788 0.0
C648 C 0.18101 0.75768 0.95932 0.0
C649 C 0.12549 0.72235 0.9562 0.0
C650 C 0.13013 0.60466 0.95591 0.0
H651 H 0.1453 0.88686 0.95818 0.0
H652 H 0.1024 0.75743 0.95536 0.0
S653 S 0.20602 0.45719 0.95852 0.0
N654 N 0.21467 0.59275 0.95983 0.0
N655 N 0.16809 0.45197 0.95667 0.0
C656 C 0.16075 0.56383 0.95705 0.0
C657 C 0.18611 0.64025 0.95876 0.0
C658 C 0.60659 0.36245 0.84603 0.0
C659 C 0.59674 0.40993 0.83232 0.0
C660 C 0.63784 0.33403 0.84837 0.0
C661 C 0.66039 0.35126 0.83705 0.0
H662 H 0.59055 0.35473 0.85539 0.0
H663 H 0.64458 0.30428 0.85945 0.0
S664 S 0.64499 0.45409 0.79815 0.0
N665 N 0.61099 0.45907 0.80662 0.0
N666 N 0.66937 0.40461 0.81086 0.0
C667 C 0.65014 0.38913 0.82283 0.0
C668 C 0.61844 0.41885 0.82052 0.0
C669 C 0.11621 0.85456 0.8241 0.0
C670 C 0.09249 0.86728 0.83487 0.0
C671 C 0.1457 0.81604 0.82817 0.0
C672 C 0.15299 0.78981 0.84327 0.0
H673 H 0.11245 0.88013 0.8125 0.0
H674 H 0.16336 0.81336 0.81949 0.0
S675 S 0.09771 0.79296 0.87546 0.0
N676 N 0.07713 0.83807 0.86098 0.0
N677 N 0.13264 0.76639 0.86874 0.0
C678 C 0.12875 0.79337 0.85396 0.0
C679 C 0.09849 0.83185 0.84974 0.0
C680 C 0.40192 0.44721 0.59255 0.0
C681 C 0.43039 0.39249 0.59529 0.0
C682 C 0.37373 0.38993 0.59382 0.0
C683 C 0.37275 0.27523 0.59784 0.0
H684 H 0.40125 0.5351 0.58915 0.0
H685 H 0.35263 0.43538 0.59122 0.0
S686 S 0.44039 0.09501 0.60762 0.0
N687 N 0.4556 0.21849 0.60318 0.0
N688 N 0.40267 0.11046 0.60562 0.0
C689 C 0.40095 0.22015 0.60113 0.0
C690 C 0.42972 0.27875 0.59983 0.0
C691 C 0.86647 0.03591 0.58653 0.0
C692 C 0.86789 0.9202 0.59003 0.0
C693 C 0.89347 0.09904 0.58425 0.0
C694 C 0.92302 0.0491 0.58539 0.0
H695 H 0.84434 0.0781 0.58539 0.0
H696 H 0.89104 0.18783 0.58151 0.0
S697 S 0.93961 0.74962 0.59496 0.0
N698 N 0.90154 0.75862 0.59499 0.0
N699 N 0.95205 0.87736 0.59067 0.0
C700 C 0.92481 0.93368 0.58903 0.0
C701 C 0.89734 0.86932 0.59138 0.0
C702 C 0.43303 0.07002 0.70633 0.0
C703 C 0.44791 0.09145 0.72018 0.0
C704 C 0.40128 0.08919 0.7046 0.0
C705 C 0.38335 0.1336 0.71646 0.0
H706 H 0.44532 0.02942 0.69711 0.0
H707 H 0.39033 0.06319 0.69415 0.0
S708 S 0.41189 0.22345 0.75402 0.0
N709 N 0.44286 0.1729 0.74535 0.0
N710 N 0.38317 0.21178 0.74183 0.0
C711 C 0.39834 0.16623 0.72982 0.0
C712 C 0.43066 0.14452 0.73173 0.0
C713 C 0.90639 0.61391 0.72044 0.0
C714 C 0.87849 0.55248 0.7198 0.0
C715 C 0.93506 0.56179 0.71791 0.0
C716 C 0.93719 0.44573 0.71463 0.0
H717 H 0.90623 0.70377 0.72286 0.0
H718 H 0.95571 0.61324 0.71854 0.0
S719 S 0.87112 0.24582 0.71162 0.0
N720 N 0.85487 0.36876 0.71565 0.0
N721 N 0.90866 0.27014 0.71091 0.0
C722 C 0.90948 0.38275 0.71403 0.0
C723 C 0.88021 0.43616 0.71661 0.0
C724 C 0.64615 0.61411 0.46431 0.0
C725 C 0.63912 0.5016 0.4606 0.0
C726 C 0.67686 0.65023 0.46561 0.0
C727 C 0.70193 0.57559 0.4632 0.0
H728 H 0.62782 0.67466 0.46648 0.0
H729 H 0.68084 0.73784 0.46862 0.0
S730 S 0.69614 0.27317 0.45235 0.0
N731 N 0.65992 0.31607 0.45392 0.0
N732 N 0.71754 0.3846 0.45638 0.0
C733 C 0.69529 0.46321 0.45923 0.0
C734 C 0.66395 0.42616 0.45791 0.0
C735 C 0.16047 0.03275 0.44752 0.0
C736 C 0.14125 0.98508 0.45865 0.0
C737 C 0.19215 0.04829 0.45 0.0
C738 C 0.20587 0.01838 0.46383 0.0
H739 H 0.1507 0.06327 0.43703 0.0
H740 H 0.20541 0.09144 0.44139 0.0
S741 S 0.1666 0.87357 0.49571 0.0
N742 N 0.13887 0.89478 0.48323 0.0
N743 N 0.19843 0.92482 0.48804 0.0
C744 C 0.1874 0.96172 0.47456 0.0
C745 C 0.15509 0.94486 0.47193 0.0
C746 C 0.6389 0.98883 0.33822 0.0
C747 C 0.66645 0.05027 0.34042 0.0
C748 C 0.61013 0.04298 0.33738 0.0
C749 C 0.60757 0.16104 0.33873 0.0
H750 H 0.63943 0.89762 0.33707 0.0
H751 H 0.58974 0.99151 0.33566 0.0
S752 S 0.67261 0.36167 0.34469 0.0
N753 N 0.68929 0.23604 0.34398 0.0
N754 N 0.6353 0.33835 0.34244 0.0
C755 C 0.63493 0.22385 0.34099 0.0
C756 C 0.6643 0.16843 0.34182 0.0
C757 C 0.15163 0.46931 0.32853 0.0
C758 C 0.16536 0.4942 0.3425 0.0
C759 C 0.11989 0.48772 0.32621 0.0
C760 C 0.1007 0.53051 0.33782 0.0
H761 H 0.1658 0.44313 0.31904 0.0
H762 H 0.11077 0.47442 0.31496 0.0
S763 S 0.12481 0.58606 0.37741 0.0
N764 N 0.15697 0.5479 0.36869 0.0
N765 N 0.09733 0.57969 0.36452 0.0
C766 C 0.11376 0.54454 0.35227 0.0
C767 C 0.14612 0.52745 0.35454 0.0
C768 C 0.54409 0.91735 0.02938 0.0
C769 C 0.53212 0.00705 0.0382 0.0
C770 C 0.5421 0.9177 1.01357 0.0
C771 C 0.52823 0.00815 1.00584 0.0
H772 H 0.55516 0.84556 0.03471 0.0
H773 H 0.55187 0.84701 1.00736 0.0
S774 S 0.49246 0.26275 1.02355 0.0
N775 N 0.50531 0.18793 0.03795 0.0
N776 N 0.50156 0.18925 1.00829 0.0
C777 C 0.51591 0.09818 1.01451 0.0
C778 C 0.51785 0.09749 0.03064 0.0
C779 C 0.78876 0.14929 0.03296 0.0
C780 C 0.78327 0.24362 0.04228 0.0
C781 C 0.7879 0.15845 1.01715 0.0
C782 C 0.78147 0.2623 1.00995 0.0
H783 H 0.79387 0.06759 0.03788 0.0
H784 H 0.79238 0.08291 1.01055 0.0
S785 S 0.765 0.5353 0.02914 0.0
N786 N 0.77083 0.44508 0.04304 0.0
N787 N 0.76927 0.46134 1.01345 0.0
C788 C 0.7758 0.35727 1.01912 0.0
C789 C 0.77668 0.34815 0.03522 0.0
C790 C 0.53884 0.34194 0.26073 0.0
C791 C 0.50962 0.37873 0.25576 0.0
C792 C 0.54601 0.33691 0.27617 0.0
C793 C 0.52435 0.36882 0.28732 0.0
H794 H 0.55572 0.3099 0.25273 0.0
H795 H 0.56822 0.30187 0.27936 0.0
S796 S 0.4467 0.49208 0.28018 0.0
N797 N 0.46049 0.46335 0.26319 0.0
N798 N 0.474 0.45386 0.29215 0.0
C799 C 0.49614 0.41582 0.28247 0.0
C800 C 0.48878 0.42069 0.26672 0.0
C801 C 0.75034 0.7898 0.27041 0.0
C802 C 0.75048 0.88172 0.26027 0.0
C803 C 0.7521 0.80624 0.28609 0.0
C804 C 0.75422 0.91534 0.29234 0.0
H805 H 0.74886 0.70377 0.26624 0.0
H806 H 0.75204 0.73263 0.29335 0.0
S807 S 0.75492 0.1853 0.27079 0.0
N808 N 0.75252 0.08615 0.25769 0.0
N809 N 0.75584 0.11764 0.28705 0.0
C810 C 0.75421 0.00829 0.28233 0.0
C811 C 0.75235 0.99139 0.26635 0.0
C812 C 0.28844 0.01529 0.0266 0.0
C813 C 0.26502 0.00326 1.01566 0.0
C814 C 0.28412 0.97996 0.04159 0.0
C815 C 0.25624 0.92989 0.04632 0.0
H816 H 0.31095 0.04743 1.02341 0.0
H817 H 0.3035 0.98605 0.04928 0.0
S818 S 0.18586 0.89436 1.02278 0.0
N819 N 0.21155 0.94962 1.01115 0.0
N820 N 0.20348 0.8827 0.03923 0.0
C821 C 0.23181 0.9251 0.0358 0.0
C822 C 0.23615 0.962 1.02053 0.0
C823 C 0.52659 0.79547 0.77419 0.0
C824 C 0.51771 0.73927 0.76083 0.0
C825 C 0.52196 0.74677 0.78843 0.0
C826 C 0.50862 0.63908 0.78992 0.0
H827 H 0.53731 0.87808 0.7737 0.0
H828 H 0.52953 0.7931 0.79833 0.0
S829 S 0.48024 0.45757 0.75856 0.0
N830 N 0.49401 0.57102 0.75008 0.0
N831 N 0.48558 0.4789 0.77681 0.0
C832 C 0.49923 0.58233 0.77669 0.0
C833 C 0.50367 0.63255 0.76217 0.0
C834 C 0.27889 0.09629 0.77853 0.0
C835 C 0.27614 0.03565 0.76485 0.0
C836 C 0.27492 0.04351 0.79258 0.0
C837 C 0.26806 0.92757 0.79361 0.0
H838 H 0.28401 0.18592 0.77844 0.0
H839 H 0.27711 0.09447 0.80271 0.0
S840 S 0.25927 0.72905 0.76121 0.0
N841 N 0.26668 0.85224 0.75329 0.0
N842 N 0.25931 0.75282 0.77958 0.0
C843 C 0.26554 0.86544 0.78001 0.0
C844 C 0.26954 0.91941 0.76569 0.0
C845 C 0.52733 0.56681 0.51824 0.0
C846 C 0.5333 0.46513 0.51032 0.0
C847 C 0.52435 0.56945 0.53401 0.0
C848 C 0.52726 0.47055 0.54264 0.0
H849 H 0.525 0.64604 0.51223 0.0
H850 H 0.52003 0.65012 0.53946 0.0
S851 S 0.54196 0.18113 0.52749 0.0
N852 N 0.54136 0.26241 0.51237 0.0
N853 N 0.53579 0.26649 0.54198 0.0
C854 C 0.53292 0.36774 0.53488 0.0
C855 C 0.53593 0.36522 0.51877 0.0
C856 C 0.78727 0.62054 0.5403 0.0
C857 C 0.78469 0.7321 0.54566 0.0
C858 C 0.78955 0.59747 0.52477 0.0
C859 C 0.78959 0.685 0.51395 0.0
H860 H 0.78704 0.55025 0.54812 0.0
H861 H 0.79121 0.50984 0.52125 0.0
S862 S 0.78501 0.99259 0.52215 0.0
N863 N 0.78347 0.93184 0.53889 0.0
N864 N 0.78778 0.88808 0.50983 0.0
C865 C 0.78759 0.79708 0.51919 0.0
C866 C 0.78513 0.82066 0.53498 0.0
C867 C 0.81141 0.66562 0.79005 0.0
C868 C 0.78683 0.66478 0.80053 0.0
C869 C 0.80774 0.71076 0.77551 0.0
C870 C 0.77925 0.75645 0.7708 0.0
H871 H 0.83319 0.62502 0.79274 0.0
H872 H 0.82671 0.70194 0.76758 0.0
S873 S 0.70961 0.7963 0.79483 0.0
N874 N 0.73449 0.73034 0.80586 0.0
N875 N 0.72762 0.81425 0.77856 0.0
C876 C 0.7555 0.76629 0.78163 0.0
C877 C 0.75927 0.72077 0.79647 0.0
C878 C 0.30054 0.13452 0.52098 0.0
C879 C 0.28592 0.22119 0.51266 0.0
C880 C 0.297 0.1257 0.53669 0.0
C881 C 0.2789 0.20379 0.54479 0.0
H882 H 0.31497 0.07238 0.51533 0.0
H883 H 0.30904 0.0584 0.54254 0.0
S884 S 0.23451 0.44386 0.52843 0.0
N885 N 0.25176 0.38453 0.51377 0.0
N886 N 0.24513 0.36872 0.54323 0.0
C887 C 0.26376 0.29006 0.53662 0.0
C888 C 0.26725 0.2986 0.52059 0.0
C889 C 0.29909 0.64693 0.29124 0.0
C890 C 0.26918 0.67032 0.29677 0.0
C891 C 0.30685 0.66552 0.27602 0.0
C892 C 0.2851 0.70887 0.26567 0.0
H893 H 0.31616 0.60757 0.29847 0.0
H894 H 0.32965 0.64018 0.27221 0.0
S895 S 0.20531 0.80326 0.27511 0.0
N896 N 0.219 0.75296 0.29114 0.0
N897 N 0.23353 0.78871 0.26267 0.0
C898 C 0.25593 0.74141 0.27137 0.0
C899 C 0.248 0.72186 0.28686 0.0
C900 C 0.99027 0.16546 0.51148 0.0
C901 C 1.01458 0.16954 0.50085 0.0
C902 C 0.99401 0.20581 0.52632 0.0
C903 C 1.02236 0.25103 0.53124 0.0
H904 H 0.96856 0.12559 0.50856 0.0
H905 H 0.97516 0.19431 0.53423 0.0
S906 S 0.09174 0.29817 0.50733 0.0
N907 N 0.06682 0.23623 0.4959 0.0
N908 N 0.07388 0.31068 0.52374 0.0
C909 C 0.04602 0.26394 0.52043 0.0
C910 C 0.04214 0.22372 0.50526 0.0
C911 C 1.01836 0.12773 0.7585 0.0
C912 C 1.02379 0.24406 0.7566 0.0
C913 C 1.01521 0.08035 0.77297 0.0
C914 C 1.01762 0.1471 0.78616 0.0
H915 H 1.01597 0.07302 0.74874 0.0
H916 H 1.01067 0.99052 0.77378 0.0
S917 S 0.03351 0.45558 0.78742 0.0
N918 N 0.0327 0.42434 0.76926 0.0
N919 N 0.02688 0.33547 0.79627 0.0
C920 C 1.02372 0.26316 0.78441 0.0
C921 C 0.02676 0.31148 0.7697 0.0
C922 C 0.99756 0.62906 0.2655 0.0
C923 C 1.01266 0.71374 0.25723 0.0
C924 C 0.99678 0.63212 0.28134 0.0
C925 C 1.0113 0.71946 0.28959 0.0
H926 H 0.98559 0.56132 0.2597 0.0
H927 H 0.98447 0.56541 0.28714 0.0
S928 S 0.05606 0.95711 0.27328 0.0
N929 N 0.04396 0.88456 0.25848 0.0
N930 N 0.04252 0.88984 0.28818 0.0
C931 C 0.02721 0.80303 0.28145 0.0
C932 C 0.02788 0.80024 0.26532 0.0
C933 C 0.0411 0.33966 1.01091 0.0
C934 C 0.04265 0.44799 1.00448 0.0
C935 C 0.04003 0.32518 0.02662 0.0
C936 C 0.04064 0.41831 0.03662 0.0
H937 H 0.04031 0.26518 1.00376 0.0
H938 H 0.0387 0.23964 0.03091 0.0
S939 S 0.04578 0.72028 1.02561 0.0
N940 N 0.04554 0.65068 1.00943 0.0
N941 N 0.04358 0.62292 0.03889 0.0
C942 C 0.04256 0.52718 0.03037 0.0
C943 C 0.04356 0.5421 1.01434 0.0
C944 C 0.64079 0.20497 0.08411 0.0
C945 C 0.625 0.1051 0.08817 0.0
C946 C 0.67291 0.21515 0.08592 0.0
C947 C 0.69049 0.12551 0.09175 0.0
H948 H 0.62837 0.27581 0.07929 0.0
H949 H 0.68412 0.2921 0.08222 0.0
S950 S 0.66034 0.85012 0.10545 0.0
N951 N 0.62946 0.91781 0.09927 0.0
N952 N 0.68965 0.93669 0.10263 0.0
C953 C 0.67493 0.02676 0.09635 0.0
C954 C 0.64226 0.01655 0.09456 0.0
C955 C 0.58943 0.94957 0.22115 0.0
C956 C 0.57956 0.96406 0.20614 0.0
C957 C 0.61926 0.90927 0.22448 0.0
C958 C 0.64057 0.88091 0.21297 0.0
H959 H 0.57477 0.97606 0.23045 0.0
H960 H 0.62616 0.90586 0.23622 0.0
S961 S 0.6244 0.88491 0.17181 0.0
N962 N 0.59223 0.93264 0.17965 0.0
N963 N 0.6481 0.85718 0.18593 0.0
C964 C 0.63008 0.88569 0.19794 0.0
C965 C 0.59969 0.92725 0.19454 0.0
C966 C 0.41165 0.87557 0.96277 0.0
C967 C 0.43129 0.96626 0.95899 0.0
C968 C 0.37956 0.88961 0.96382 0.0
C969 C 0.36555 0.99503 0.96114 0.0
H970 H 0.42107 0.79234 0.96502 0.0
H971 H 0.36568 0.81687 0.9668 0.0
S972 S 0.4064 0.26007 0.95065 0.0
N973 N 0.43427 0.1654 0.95242 0.0
N974 N 0.37395 0.1923 0.95434 0.0
C975 C 0.38485 0.08667 0.95725 0.0
C976 C 0.41766 0.07219 0.95618 0.0
C977 C 0.3935 0.56525 0.85211 0.0
C978 C 0.40188 0.54131 0.83707 0.0
C979 C 0.36349 0.60203 0.85584 0.0
C980 C 0.34047 0.61556 0.84471 0.0
H981 H 0.41072 0.56264 0.86098 0.0
H982 H 0.3588 0.62522 0.86746 0.0
S983 S 0.34918 0.54544 0.80399 0.0
N984 N 0.38363 0.52018 0.81125 0.0
N985 N 0.32737 0.58827 0.81822 0.0
C986 C 0.34786 0.58269 0.82982 0.0
C987 C 0.37849 0.546 0.82602 0.0
C988 C 0.66882 0.56693 0.59642 0.0
C989 C 0.68183 0.67624 0.59583 0.0
C990 C 0.63675 0.55016 0.59577 0.0
C991 C 0.61626 0.64196 0.59447 0.0
H992 H 0.68351 0.49288 0.59723 0.0
H993 H 0.62805 0.46436 0.59605 0.0
S994 S 0.63822 0.94613 0.59332 0.0
N995 N 0.67147 0.87804 0.59445 0.0
N996 N 0.61133 0.84735 0.59326 0.0
C997 C 0.6289 0.7521 0.59418 0.0
C998 C 0.66159 0.76903 0.59485 0.0
C999 C 0.63973 0.85399 0.71319 0.0
C1000 C 0.62126 0.75827 0.71571 0.0
C1001 C 0.67208 0.84714 0.71361 0.0
C1002 C 0.6875 0.74437 0.71663 0.0
H1003 H 0.62918 0.93523 0.71084 0.0
H1004 H 0.68503 0.92393 0.7116 0.0
S1005 S 0.65 0.46816 0.72407 0.0
N1006 N 0.62093 0.55649 0.72135 0.0
N1007 N 0.68168 0.54435 0.72216 0.0
C1008 C 0.66938 0.64773 0.71915 0.0
C1009 C 0.63634 0.65452 0.71869 0.0
C1010 C 0.42988 0.2818 0.46008 0.0
C1011 C 0.44416 0.38847 0.46146 0.0
C1012 C 0.39782 0.26945 0.46117 0.0
C1013 C 0.37853 0.36316 0.46374 0.0
H1014 H 0.44357 0.20611 0.45826 0.0
H1015 H 0.38819 0.18527 0.46017 0.0
S1016 S 0.40399 0.66234 0.46746 0.0
N1017 N 0.43638 0.59037 0.46501 0.0
N1018 N 0.37595 0.5679 0.46706 0.0
C1019 C 0.39236 0.47104 0.46485 0.0
C1020 C 0.42517 0.48355 0.46368 0.0
C1021 C 0.38919 0.22984 0.32066 0.0
C1022 C 0.41145 0.20058 0.3316 0.0
C1023 C 0.35838 0.25276 0.32467 0.0
C1024 C 0.3485 0.24785 0.33982 0.0
H1025 H 0.39591 0.24161 0.30898 0.0
H1026 H 0.34278 0.28167 0.31593 0.0
S1027 S 0.39597 0.15359 0.37239 0.0
N1028 N 0.42014 0.15158 0.35794 0.0
N1029 N 0.36239 0.19489 0.36546 0.0
C1030 C 0.36977 0.20851 0.35065 0.0
C1031 C 0.40117 0.18475 0.34655 0.0
C1032 C 0.13482 0.26941 0.59218 0.0
C1033 C 0.11435 0.18677 0.58658 0.0
C1034 C 0.16675 0.24986 0.59287 0.0
C1035 C 0.17963 0.14688 0.58794 0.0
H1036 H 0.1262 0.35058 0.59606 0.0
H1037 H 0.18143 0.31652 0.5972 0.0
S1038 S 0.13612 0.90142 0.5725 0.0
N1039 N 0.1093 -0.00286 0.57618 0.0
N1040 N 0.1692 0.95997 0.57742 0.0
C1041 C 0.15941 0.06289 0.58241 0.0
C1042 C 0.12684 0.08286 0.58175 0.0
C1043 C 0.18553 0.35891 0.72534 0.0
C1044 C 0.1978 0.35252 0.71062 0.0
C1045 C 0.15402 0.38082 0.72783 0.0
C1046 C 0.1334 0.39804 0.71574 0.0
H1047 H 0.19989 0.34005 0.73503 0.0
H1048 H 0.14554 0.37838 0.73935 0.0
S1049 S 0.15494 0.41132 0.67516 0.0
N1050 N 0.18763 0.38099 0.68388 0.0
N1051 N 0.12853 0.42247 0.68857 0.0
C1052 C 0.1459 0.4022 0.70105 0.0
C1053 C 0.17802 0.37927 0.6985 0.0
C1054 C 0.93732 0.70946 0.44814 0.0
C1055 C 0.95929 0.73707 0.45931 0.0
C1056 C 0.908 0.66741 0.45197 0.0
C1057 C 0.89935 0.65148 0.46714 0.0
H1058 H 0.94212 0.7257 0.43634 0.0
H1059 H 0.89141 0.65423 0.44299 0.0
S1060 S 0.95014 0.69029 0.50054 0.0
N1061 N 0.97165 0.73015 0.4861 0.0
N1062 N 0.91668 0.65141 0.49327 0.0
C1063 C 0.92197 0.66949 0.47833 0.0
C1064 C 0.95187 0.71215 0.47443 0.0
C1065 C 0.90509 0.74916 0.34221 0.0
C1066 C 0.92361 0.84647 0.34187 0.0
C1067 C 0.87279 0.75715 0.34239 0.0
C1068 C 0.85755 0.8628 0.34228 0.0
H1069 H 0.91556 0.6658 0.34208 0.0
H1070 H 0.85973 0.67912 0.34247 0.0
S1071 S 0.89538 0.14403 0.34238 0.0
N1072 N 0.92432 0.05272 0.34214 0.0
N1073 N 0.86358 0.06713 0.34245 0.0
C1074 C 0.87575 0.96102 0.3423 0.0
C1075 C 0.90874 0.95299 0.3421 0.0
C1076 C 0.17532 0.53841 0.10152 0.0
C1077 C 0.19909 0.54906 0.09074 0.0
C1078 C 0.14875 0.47426 0.09856 0.0
C1079 C 0.14457 0.41986 0.08454 0.0
H1080 H 0.17669 0.58361 0.11216 0.0
H1081 H 0.13048 0.47413 0.10694 0.0
S1082 S 0.20155 0.4097 0.05316 0.0
N1083 N 0.21815 0.48994 0.0661 0.0
N1084 N 0.16793 0.37139 0.06037 0.0
C1085 C 0.16907 0.42358 0.07405 0.0
C1086 C 0.1964 0.4876 0.07718 0.0
C1087 C 0.12289 0.58601 0.21001 0.0
C1088 C 0.10354 0.68202 0.20887 0.0
C1089 C 0.15511 0.59574 0.2111 0.0
C1090 C 0.16954 0.70198 0.21113 0.0
H1091 H 0.11312 0.50177 0.21023 0.0
H1092 H 0.16872 0.51912 0.21213 0.0
S1093 S 0.12974 0.98027 0.20761 0.0
N1094 N 0.10143 0.88693 0.2073 0.0
N1095 N 0.16192 0.90602 0.20928 0.0
C1096 C 0.15057 0.79896 0.20966 0.0
C1097 C 0.11765 0.78883 0.20854 0.0
C1098 C 0.89201 0.28707 0.95561 0.0
C1099 C 0.87519 0.38883 0.95589 0.0
C1100 C 0.92439 0.28698 0.95471 0.0
C1101 C 0.94137 0.38863 0.954 0.0
H1102 H 0.88018 0.20665 0.95642 0.0
H1103 H 0.93616 0.20602 0.95479 0.0
S1104 S 0.90824 0.67838 0.95317 0.0
N1105 N 0.87792 0.59453 0.9545 0.0
N1106 N 0.93865 0.59381 0.95285 0.0
C1107 C 0.9248 0.491 0.95381 0.0
C1108 C 0.89179 0.49121 0.95474 0.0
C1109 C 0.88838 0.19041 0.8225 0.0
C1110 C 0.90729 0.14048 0.8336 0.0
C1111 C 0.85832 0.22813 0.82581 0.0
C1112 C 0.84577 0.21872 0.84043 0.0
H1113 H 0.8972 0.20396 0.81119 0.0
H1114 H 0.84535 0.26934 0.81692 0.0
S1115 S 0.8844 0.08381 0.87328 0.0
N1116 N 0.91025 0.07542 0.85958 0.0
N1117 N 0.85387 0.14661 0.86586 0.0
C1118 C 0.86379 0.16348 0.85147 0.0
C1119 C 0.89444 0.1242 0.84805 0.0
loop_
_geom_bond_atom_site_label_1
_geom_bond_atom_site_label_2
_geom_bond_distance
_geom_bond_site_symmetry_2
_ccdc_geom_bond_type
Mg0 O7 2.141 . S
Mg0 O8 2.048 . S
Mg0 O9 2.048 . S
Mg0 O12 2.141 . S
C1 O2 1.313 1_545 S
C1 O8 1.195 . S
O2 C1 1.313 1_565 S
C3 O4 1.245 1_545 S
C3 O12 1.289 . S
O4 C3 1.245 1_565 S
C5 O6 1.245 . S
C5 O7 1.289 1_565 S
O6 C5 1.245 . S
O7 Mg0 2.141 . S
O7 C5 1.289 1_545 S
O8 Mg0 2.048 . S
O8 C1 1.195 . S
O9 Mg0 2.048 . S
O9 C10 1.195 . S
C10 O9 1.195 . S
C10 O11 1.313 1_545 S
O11 C10 1.313 1_565 S
O12 Mg0 2.141 . S
O12 C3 1.289 . S
Mg13 O20 2.141 . S
Mg13 O21 2.048 . S
Mg13 O22 2.048 . S
Mg13 O25 2.141 . S
C14 O15 1.313 . S
C14 O21 1.195 . S
O15 C14 1.313 . S
C16 O17 1.245 . S
C16 O25 1.289 . S
O17 C16 1.245 . S
C18 O19 1.245 . S
C18 O20 1.289 . S
O19 C18 1.245 . S
O20 Mg13 2.141 . S
O20 C18 1.289 . S
O21 Mg13 2.048 . S
O21 C14 1.195 . S
O22 Mg13 2.048 . S
O22 C23 1.195 . S
C23 O22 1.195 . S
C23 O24 1.313 . S
O24 C23 1.313 . S
O25 Mg13 2.141 . S
O25 C16 1.289 . S
Mg26 O33 2.141 . S
Mg26 O34 2.048 . S
Mg26 O35 2.048 . S
Mg26 O38 2.141 . S
C27 O28 1.313 . S
C27 O34 1.195 . S
O28 C27 1.313 . S
C29 O30 1.245 . S
C29 O38 1.289 . S
O30 C29 1.245 . S
C31 O32 1.245 . S
C31 O33 1.289 . S
O32 C31 1.245 . S
O33 Mg26 2.141 . S
O33 C31 1.289 . S
O34 Mg26 2.048 . S
O34 C27 1.195 . S
O35 Mg26 2.048 . S
O35 C36 1.195 . S
C36 O35 1.195 . S
C36 O37 1.313 . S
O37 C36 1.313 . S
O38 Mg26 2.141 . S
O38 C29 1.289 . S
Mg39 O46 2.141 . S
Mg39 O47 2.048 . S
Mg39 O48 2.048 . S
Mg39 O51 2.141 . S
C40 O41 1.313 1_545 S
C40 O47 1.195 . S
O41 C40 1.313 1_565 S
C42 O43 1.245 1_545 S
C42 O51 1.289 . S
O43 C42 1.245 1_565 S
C44 O45 1.245 . S
C44 O46 1.289 1_565 S
O45 C44 1.245 . S
O46 Mg39 2.141 . S
O46 C44 1.289 1_545 S
O47 Mg39 2.048 . S
O47 C40 1.195 . S
O48 Mg39 2.048 . S
O48 C49 1.195 . S
C49 O48 1.195 . S
C49 O50 1.313 1_545 S
O50 C49 1.313 1_565 S
O51 Mg39 2.141 . S
O51 C42 1.289 . S
Mg52 O59 2.141 . S
Mg52 O60 2.048 . S
Mg52 O61 2.048 . S
Mg52 O64 2.141 . S
C53 O54 1.313 1_565 S
C53 O60 1.195 . S
O54 C53 1.313 1_545 S
C55 O56 1.245 . S
C55 O64 1.289 1_545 S
O56 C55 1.245 . S
C57 O58 1.245 1_565 S
C57 O59 1.289 . S
O58 C57 1.245 1_545 S
O59 Mg52 2.141 . S
O59 C57 1.289 . S
O60 Mg52 2.048 . S
O60 C53 1.195 . S
O61 Mg52 2.048 . S
O61 C62 1.195 . S
C62 O61 1.195 . S
C62 O63 1.313 1_565 S
O63 C62 1.313 1_545 S
O64 Mg52 2.141 . S
O64 C55 1.289 1_565 S
Mg65 O72 2.141 . S
Mg65 O73 2.048 . S
Mg65 O74 2.048 . S
Mg65 O77 2.141 . S
C66 O67 1.313 . S
C66 O73 1.195 . S
O67 C66 1.313 . S
C68 O69 1.245 . S
C68 O77 1.289 . S
O69 C68 1.245 . S
C70 O71 1.245 . S
C70 O72 1.289 . S
O71 C70 1.245 . S
O72 Mg65 2.141 . S
O72 C70 1.289 . S
O73 Mg65 2.048 . S
O73 C66 1.195 . S
O74 Mg65 2.048 . S
O74 C75 1.195 . S
C75 O74 1.195 . S
C75 O76 1.313 . S
O76 C75 1.313 . S
O77 Mg65 2.141 . S
O77 C68 1.289 . S
Mg78 O85 2.141 . S
Mg78 O86 2.048 . S
Mg78 O87 2.048 . S
Mg78 O90 2.141 . S
C79 O80 1.313 . S
C79 O86 1.195 . S
O80 C79 1.313 . S
C81 O82 1.245 . S
C81 O90 1.289 . S
O82 C81 1.245 . S
C83 O84 1.245 . S
C83 O85 1.289 . S
O84 C83 1.245 . S
O85 Mg78 2.141 . S
O85 C83 1.289 . S
O86 Mg78 2.048 . S
O86 C79 1.195 . S
O87 Mg78 2.048 . S
O87 C88 1.195 . S
C88 O87 1.195 . S
C88 O89 1.313 . S
O89 C88 1.313 . S
O90 Mg78 2.141 . S
O90 C81 1.289 . S
Mg91 O98 2.141 . S
Mg91 O99 2.048 . S
Mg91 O100 2.048 . S
Mg91 O103 2.141 . S
C92 O93 1.313 1_565 S
C92 O99 1.195 . S
O93 C92 1.313 1_545 S
C94 O95 1.245 . S
C94 O103 1.289 1_545 S
O95 C94 1.245 . S
C96 O97 1.245 1_565 S
C96 O98 1.289 . S
O97 C96 1.245 1_545 S
O98 Mg91 2.141 . S
O98 C96 1.289 . S
O99 Mg91 2.048 . S
O99 C92 1.195 . S
O100 Mg91 2.048 . S
O100 C101 1.195 . S
C101 O100 1.195 . S
C101 O102 1.313 1_565 S
O102 C101 1.313 1_545 S
O103 Mg91 2.141 . S
O103 C94 1.289 1_565 S
Mg104 O111 2.141 . S
Mg104 O112 2.048 . S
Mg104 O113 2.048 . S
Mg104 O116 2.141 . S
C105 O106 1.313 . S
C105 O112 1.195 . S
O106 C105 1.313 . S
C107 O108 1.245 . S
C107 O116 1.289 . S
O108 C107 1.245 . S
C109 O110 1.245 . S
C109 O111 1.289 . S
O110 C109 1.245 . S
O111 Mg104 2.141 . S
O111 C109 1.289 . S
O112 Mg104 2.048 . S
O112 C105 1.195 . S
O113 Mg104 2.048 . S
O113 C114 1.195 . S
C114 O113 1.195 . S
C114 O115 1.313 . S
O115 C114 1.313 . S
O116 Mg104 2.141 . S
O116 C107 1.289 . S
Mg117 O124 2.141 . S
Mg117 O125 2.048 . S
Mg117 O126 2.048 . S
Mg117 O129 2.141 . S
C118 O119 1.313 . S
C118 O125 1.195 . S
O119 C118 1.313 . S
C120 O121 1.245 . S
C120 O129 1.289 . S
O121 C120 1.245 . S
C122 O123 1.245 . S
C122 O124 1.289 . S
O123 C122 1.245 . S
O124 Mg117 2.141 . S
O124 C122 1.289 . S
O125 Mg117 2.048 . S
O125 C118 1.195 . S
O126 Mg117 2.048 . S
O126 C127 1.195 . S
C127 O126 1.195 . S
C127 O128 1.313 . S
O128 C127 1.313 . S
O129 Mg117 2.141 . S
O129 C120 1.289 . S
Mg130 O137 2.141 . S
Mg130 O138 2.048 . S
Mg130 O139 2.048 . S
Mg130 O142 2.141 . S
C131 O132 1.313 . S
C131 O138 1.195 . S
O132 C131 1.313 . S
C133 O134 1.245 . S
C133 O142 1.289 . S
O134 C133 1.245 . S
C135 O136 1.245 . S
C135 O137 1.289 . S
O136 C135 1.245 . S
O137 Mg130 2.141 . S
O137 C135 1.289 . S
O138 Mg130 2.048 . S
O138 C131 1.195 . S
O139 Mg130 2.048 . S
O139 C140 1.195 . S
C140 O139 1.195 . S
C140 O141 1.313 . S
O141 C140 1.313 . S
O142 Mg130 2.141 . S
O142 C133 1.289 . S
Mg143 O150 2.141 . S
Mg143 O151 2.048 . S
Mg143 O152 2.048 . S
Mg143 O155 2.141 . S
C144 O145 1.313 . S
C144 O151 1.195 . S
O145 C144 1.313 . S
C146 O147 1.245 . S
C146 O155 1.289 . S
O147 C146 1.245 . S
C148 O149 1.245 . S
C148 O150 1.289 . S
O149 C148 1.245 . S
O150 Mg143 2.141 . S
O150 C148 1.289 . S
O151 Mg143 2.048 . S
O151 C144 1.195 . S
O152 Mg143 2.048 . S
O152 C153 1.195 . S
C153 O152 1.195 . S
C153 O154 1.313 . S
O154 C153 1.313 . S
O155 Mg143 2.141 . S
O155 C146 1.289 . S
Mg156 O163 2.141 . S
Mg156 O164 2.048 . S
Mg156 O165 2.048 . S
Mg156 O168 2.141 . S
C157 O158 1.313 . S
C157 O164 1.195 . S
O158 C157 1.313 . S
C159 O160 1.245 . S
C159 O168 1.289 . S
O160 C159 1.245 . S
C161 O162 1.245 . S
C161 O163 1.289 . S
O162 C161 1.245 . S
O163 Mg156 2.141 . S
O163 C161 1.289 . S
O164 Mg156 2.048 . S
O164 C157 1.195 . S
O165 Mg156 2.048 . S
O165 C166 1.195 . S
C166 O165 1.195 . S
C166 O167 1.313 . S
O167 C166 1.313 . S
O168 Mg156 2.141 . S
O168 C159 1.289 . S
Mg169 O176 2.141 . S
Mg169 O177 2.048 . S
Mg169 O178 2.048 . S
Mg169 O181 2.141 . S
C170 O171 1.313 . S
C170 O177 1.195 . S
O171 C170 1.313 . S
C172 O173 1.245 . S
C172 O181 1.289 . S
O173 C172 1.245 . S
C174 O175 1.245 . S
C174 O176 1.289 . S
O175 C174 1.245 . S
O176 Mg169 2.141 . S
O176 C174 1.289 . S
O177 Mg169 2.048 . S
O177 C170 1.195 . S
O178 Mg169 2.048 . S
O178 C179 1.195 . S
C179 O178 1.195 . S
C179 O180 1.313 . S
O180 C179 1.313 . S
O181 Mg169 2.141 . S
O181 C172 1.289 . S
Mg182 O189 2.141 . S
Mg182 O190 2.048 . S
Mg182 O191 2.048 . S
Mg182 O194 2.141 . S
C183 O184 1.313 . S
C183 O190 1.195 . S
O184 C183 1.313 . S
C185 O186 1.245 . S
C185 O194 1.289 . S
O186 C185 1.245 . S
C187 O188 1.245 . S
C187 O189 1.289 . S
O188 C187 1.245 . S
O189 Mg182 2.141 . S
O189 C187 1.289 . S
O190 Mg182 2.048 . S
O190 C183 1.195 . S
O191 Mg182 2.048 . S
O191 C192 1.195 . S
C192 O191 1.195 . S
C192 O193 1.313 . S
O193 C192 1.313 . S
O194 Mg182 2.141 . S
O194 C185 1.289 . S
Mg195 O202 2.141 . S
Mg195 O203 2.048 . S
Mg195 O204 2.048 . S
Mg195 O207 2.141 . S
C196 O197 1.313 . S
C196 O203 1.195 . S
O197 C196 1.313 . S
C198 O199 1.245 . S
C198 O207 1.289 . S
O199 C198 1.245 . S
C200 O201 1.245 . S
C200 O202 1.289 . S
O201 C200 1.245 . S
O202 Mg195 2.141 . S
O202 C200 1.289 . S
O203 Mg195 2.048 . S
O203 C196 1.195 . S
O204 Mg195 2.048 . S
O204 C205 1.195 . S
C205 O204 1.195 . S
C205 O206 1.313 . S
O206 C205 1.313 . S
O207 Mg195 2.141 . S
O207 C198 1.289 . S
Mg208 O215 2.141 . S
Mg208 O216 2.048 . S
Mg208 O217 2.048 1_655 S
Mg208 O220 2.141 . S
C209 O210 1.313 1_545 S
C209 O216 1.195 1_455 S
O210 C209 1.313 1_565 S
C211 O212 1.237 1_645 S
C211 O220 1.297 . S
O212 C211 1.237 1_465 S
C213 O214 1.245 . S
C213 O215 1.289 1_565 S
O214 C213 1.245 . S
O215 Mg208 2.141 . S
O215 C213 1.289 1_545 S
O216 Mg208 2.048 . S
O216 C209 1.195 1_655 S
O217 Mg208 2.048 1_455 S
O217 C218 1.195 . S
C218 O217 1.195 . S
C218 O219 1.313 1_545 S
O219 C218 1.313 1_565 S
O220 Mg208 2.141 . S
O220 C211 1.297 . S
Mg221 O228 2.141 . S
Mg221 O229 2.048 . S
Mg221 O230 2.048 . S
Mg221 O233 2.141 . S
C222 O223 1.313 . S
C222 O229 1.195 . S
O223 C222 1.313 . S
C224 O225 1.245 . S
C224 O233 1.289 . S
O225 C224 1.245 . S
C226 O227 1.245 . S
C226 O228 1.289 . S
O227 C226 1.245 . S
O228 Mg221 2.141 . S
O228 C226 1.289 . S
O229 Mg221 2.048 . S
O229 C222 1.195 . S
O230 Mg221 2.048 . S
O230 C231 1.195 . S
C231 O230 1.195 . S
C231 O232 1.313 . S
O232 C231 1.313 . S
O233 Mg221 2.141 . S
O233 C224 1.289 . S
Mg234 O241 2.141 . S
Mg234 O242 2.048 . S
Mg234 O243 2.048 1_655 S
Mg234 O246 2.141 . S
C235 O236 1.313 . S
C235 O242 1.195 1_455 S
O236 C235 1.313 . S
C237 O238 1.236 1_655 S
C237 O246 1.297 . S
O238 C237 1.236 1_455 S
C239 O240 1.245 . S
C239 O241 1.289 . S
O240 C239 1.245 . S
O241 Mg234 2.141 . S
O241 C239 1.289 . S
O242 Mg234 2.048 . S
O242 C235 1.195 1_655 S
O243 Mg234 2.048 1_455 S
O243 C244 1.195 . S
C244 O243 1.195 . S
C244 O245 1.313 . S
O245 C244 1.313 . S
O246 Mg234 2.141 . S
O246 C237 1.297 . S
Mg247 O254 2.141 . S
Mg247 O255 2.048 . S
Mg247 O256 2.048 . S
Mg247 O259 2.141 . S
C248 O249 1.313 1_545 S
C248 O255 1.195 . S
O249 C248 1.313 1_565 S
C250 O251 1.245 1_545 S
C250 O259 1.289 . S
O251 C250 1.245 1_565 S
C252 O253 1.245 . S
C252 O254 1.289 1_565 S
O253 C252 1.245 . S
O254 Mg247 2.141 . S
O254 C252 1.289 1_545 S
O255 Mg247 2.048 . S
O255 C248 1.195 . S
O256 Mg247 2.048 . S
O256 C257 1.195 . S
C257 O256 1.195 . S
C257 O258 1.313 1_545 S
O258 C257 1.313 1_565 S
O259 Mg247 2.141 . S
O259 C250 1.289 . S
Mg260 O267 2.141 . S
Mg260 O268 2.048 1_455 S
Mg260 O269 2.048 . S
Mg260 O272 2.141 . S
C261 O262 1.313 1_565 S
C261 O268 1.195 . S
O262 C261 1.313 1_545 S
C263 O264 1.245 . S
C263 O272 1.289 1_545 S
O264 C263 1.245 . S
C265 O266 1.237 1_465 S
C265 O267 1.297 . S
O266 C265 1.237 1_645 S
O267 Mg260 2.141 . S
O267 C265 1.297 . S
O268 Mg260 2.048 1_655 S
O268 C261 1.195 . S
O269 Mg260 2.048 . S
O269 C270 1.195 1_455 S
C270 O269 1.195 1_655 S
C270 O271 1.313 1_565 S
O271 C270 1.313 1_545 S
O272 Mg260 2.141 . S
O272 C263 1.289 1_565 S
Mg273 O280 2.141 . S
Mg273 O281 2.048 . S
Mg273 O282 2.048 . S
Mg273 O285 2.141 . S
C274 O275 1.313 . S
C274 O281 1.195 . S
O275 C274 1.313 . S
C276 O277 1.245 . S
C276 O285 1.289 . S
O277 C276 1.245 . S
C278 O279 1.245 . S
C278 O280 1.289 . S
O279 C278 1.245 . S
O280 Mg273 2.141 . S
O280 C278 1.289 . S
O281 Mg273 2.048 . S
O281 C274 1.195 . S
O282 Mg273 2.048 . S
O282 C283 1.195 . S
C283 O282 1.195 . S
C283 O284 1.313 . S
O284 C283 1.313 . S
O285 Mg273 2.141 . S
O285 C276 1.289 . S
Mg286 O293 2.141 . S
Mg286 O294 2.048 1_455 S
Mg286 O295 2.048 . S
Mg286 O298 2.141 . S
C287 O288 1.313 . S
C287 O294 1.195 . S
O288 C287 1.313 . S
C289 O290 1.245 . S
C289 O298 1.289 . S
O290 C289 1.245 . S
C291 O292 1.236 1_455 S
C291 O293 1.297 . S
O292 C291 1.236 1_655 S
O293 Mg286 2.141 . S
O293 C291 1.297 . S
O294 Mg286 2.048 1_655 S
O294 C287 1.195 . S
O295 Mg286 2.048 . S
O295 C296 1.195 1_455 S
C296 O295 1.195 1_655 S
C296 O297 1.313 . S
O297 C296 1.313 . S
O298 Mg286 2.141 . S
O298 C289 1.289 . S
Mg299 O306 2.141 . S
Mg299 O307 2.048 . S
Mg299 O308 2.048 . S
Mg299 O311 2.141 . S
C300 O301 1.313 1_565 S
C300 O307 1.195 . S
O301 C300 1.313 1_545 S
C302 O303 1.245 . S
C302 O311 1.289 1_545 S
O303 C302 1.245 . S
C304 O305 1.245 1_565 S
C304 O306 1.289 . S
O305 C304 1.245 1_545 S
O306 Mg299 2.141 . S
O306 C304 1.289 . S
O307 Mg299 2.048 . S
O307 C300 1.195 . S
O308 Mg299 2.048 . S
O308 C309 1.195 . S
C309 O308 1.195 . S
C309 O310 1.313 1_565 S
O310 C309 1.313 1_545 S
O311 Mg299 2.141 . S
O311 C302 1.289 1_565 S
Mg312 O319 2.141 . S
Mg312 O320 2.048 . S
Mg312 O321 2.048 1_655 S
Mg312 O324 2.141 . S
C313 O314 1.313 . S
C313 O320 1.195 1_455 S
O314 C313 1.313 . S
C315 O316 1.236 1_655 S
C315 O324 1.298 . S
O316 C315 1.236 1_455 S
C317 O318 1.245 . S
C317 O319 1.289 . S
O318 C317 1.245 . S
O319 Mg312 2.141 . S
O319 C317 1.289 . S
O320 Mg312 2.048 . S
O320 C313 1.195 1_655 S
O321 Mg312 2.048 1_455 S
O321 C322 1.195 . S
C322 O321 1.195 . S
C322 O323 1.313 . S
O323 C322 1.313 . S
O324 Mg312 2.141 . S
O324 C315 1.298 . S
Mg325 O332 2.141 . S
Mg325 O333 2.048 . S
Mg325 O334 2.048 . S
Mg325 O337 2.141 . S
C326 O327 1.313 . S
C326 O333 1.195 . S
O327 C326 1.313 . S
C328 O329 1.245 . S
C328 O337 1.289 . S
O329 C328 1.245 . S
C330 O331 1.245 . S
C330 O332 1.289 . S
O331 C330 1.245 . S
O332 Mg325 2.141 . S
O332 C330 1.289 . S
O333 Mg325 2.048 . S
O333 C326 1.195 . S
O334 Mg325 2.048 . S
O334 C335 1.195 . S
C335 O334 1.195 . S
C335 O336 1.313 . S
O336 C335 1.313 . S
O337 Mg325 2.141 . S
O337 C328 1.289 . S
Mg338 O345 2.141 . S
Mg338 O346 2.048 . S
Mg338 O347 2.048 1_655 S
Mg338 O350 2.141 . S
C339 O340 1.313 . S
C339 O346 1.195 1_455 S
O340 C339 1.313 . S
C341 O342 1.235 1_655 S
C341 O350 1.299 . S
O342 C341 1.235 1_455 S
C343 O344 1.245 . S
C343 O345 1.289 . S
O344 C343 1.245 . S
O345 Mg338 2.141 . S
O345 C343 1.289 . S
O346 Mg338 2.048 . S
O346 C339 1.195 1_655 S
O347 Mg338 2.048 1_455 S
O347 C348 1.195 . S
C348 O347 1.195 . S
C348 O349 1.313 . S
O349 C348 1.313 . S
O350 Mg338 2.141 . S
O350 C341 1.299 . S
Mg351 O358 2.141 . S
Mg351 O359 2.048 . S
Mg351 O360 2.048 . S
Mg351 O363 2.141 . S
C352 O353 1.313 . S
C352 O359 1.195 . S
O353 C352 1.313 . S
C354 O355 1.245 . S
C354 O363 1.289 . S
O355 C354 1.245 . S
C356 O357 1.245 . S
C356 O358 1.289 . S
O357 C356 1.245 . S
O358 Mg351 2.141 . S
O358 C356 1.289 . S
O359 Mg351 2.048 . S
O359 C352 1.195 . S
O360 Mg351 2.048 . S
O360 C361 1.195 . S
C361 O360 1.195 . S
C361 O362 1.313 . S
O362 C361 1.313 . S
O363 Mg351 2.141 . S
O363 C354 1.289 . S
Mg364 O371 2.141 . S
Mg364 O372 2.048 1_455 S
Mg364 O373 2.048 . S
Mg364 O376 2.141 . S
C365 O366 1.313 . S
C365 O372 1.195 . S
O366 C365 1.313 . S
C367 O368 1.245 . S
C367 O376 1.289 . S
O368 C367 1.245 . S
C369 O370 1.235 1_455 S
C369 O371 1.298 . S
O370 C369 1.235 1_655 S
O371 Mg364 2.141 . S
O371 C369 1.298 . S
O372 Mg364 2.048 1_655 S
O372 C365 1.195 . S
O373 Mg364 2.048 . S
O373 C374 1.195 1_455 S
C374 O373 1.195 1_655 S
C374 O375 1.313 . S
O375 C374 1.313 . S
O376 Mg364 2.141 . S
O376 C367 1.289 . S
Mg377 O384 2.141 . S
Mg377 O385 2.048 . S
Mg377 O386 2.048 . S
Mg377 O389 2.141 . S
C378 O379 1.313 . S
C378 O385 1.195 . S
O379 C378 1.313 . S
C380 O381 1.245 . S
C380 O389 1.289 . S
O381 C380 1.245 . S
C382 O383 1.245 . S
C382 O384 1.289 . S
O383 C382 1.245 . S
O384 Mg377 2.141 . S
O384 C382 1.289 . S
O385 Mg377 2.048 . S
O385 C378 1.195 . S
O386 Mg377 2.048 . S
O386 C387 1.195 . S
C387 O386 1.195 . S
C387 O388 1.313 . S
O388 C387 1.313 . S
O389 Mg377 2.141 . S
O389 C380 1.289 . S
Mg390 O397 2.141 . S
Mg390 O398 2.048 1_455 S
Mg390 O399 2.048 . S
Mg390 O402 2.141 . S
C391 O392 1.313 . S
C391 O398 1.195 . S
O392 C391 1.313 . S
C393 O394 1.245 . S
C393 O402 1.289 . S
O394 C393 1.245 . S
C395 O396 1.234 1_455 S
C395 O397 1.299 . S
O396 C395 1.234 1_655 S
O397 Mg390 2.141 . S
O397 C395 1.299 . S
O398 Mg390 2.048 1_655 S
O398 C391 1.195 . S
O399 Mg390 2.048 . S
O399 C400 1.195 1_455 S
C400 O399 1.195 1_655 S
C400 O401 1.313 . S
O401 C400 1.313 . S
O402 Mg390 2.141 . S
O402 C393 1.289 . S
Mg403 O410 2.141 . S
Mg403 O411 2.048 . S
Mg403 O412 2.048 . S
Mg403 O415 2.141 . S
C404 O405 1.313 . S
C404 O411 1.195 . S
O405 C404 1.313 . S
C406 O407 1.245 . S
C406 O415 1.289 . S
O407 C406 1.245 . S
C408 O409 1.245 . S
C408 O410 1.289 . S
O409 C408 1.245 . S
O410 Mg403 2.141 . S
O410 C408 1.289 . S
O411 Mg403 2.048 . S
O411 C404 1.195 . S
O412 Mg403 2.048 . S
O412 C413 1.195 . S
C413 O412 1.195 . S
C413 O414 1.313 . S
O414 C413 1.313 . S
O415 Mg403 2.141 . S
O415 C406 1.289 . S
C416 C417 1.369 . S
C416 C418 1.419 . S
C416 H420 0.930 . S
C417 C416 1.369 . S
C417 C426 1.429 . S
C418 C416 1.419 . S
C418 C419 1.363 . S
C418 H421 0.929 . S
C419 C418 1.363 . S
C419 C425 1.428 . S
H420 C416 0.930 . S
H421 C418 0.929 . S
S422 N423 1.613 . S
S422 N424 1.610 . S
N423 S422 1.613 . S
N423 C426 1.350 1_565 S
N424 S422 1.610 . S
N424 C425 1.351 1_565 S
C425 C419 1.428 . S
C425 N424 1.351 1_545 S
C425 C426 1.434 . S
C426 C417 1.429 . S
C426 N423 1.350 1_545 S
C426 C425 1.434 . S
C427 C428 1.369 . S
C427 C429 1.419 . S
C427 H431 0.930 1_545 S
C428 C427 1.369 . S
C428 C437 1.429 . S
C429 C427 1.419 . S
C429 C430 1.363 . S
C429 H432 0.929 . S
C430 C429 1.363 . S
C430 C436 1.428 . S
H431 C427 0.930 1_565 S
H432 C429 0.929 . S
S433 N434 1.613 . S
S433 N435 1.610 . S
N434 S433 1.613 . S
N434 C437 1.350 . S
N435 S433 1.610 . S
N435 C436 1.351 . S
C436 C430 1.428 . S
C436 N435 1.351 . S
C436 C437 1.434 . S
C437 C428 1.429 . S
C437 N434 1.350 . S
C437 C436 1.434 . S
C438 C439 1.369 . S
C438 C440 1.419 . S
C438 H442 0.930 . S
C439 C438 1.369 . S
C439 C448 1.429 . S
C440 C438 1.419 . S
C440 C441 1.363 . S
C440 H443 0.929 1_565 S
C441 C440 1.363 . S
C441 C447 1.428 . S
H442 C438 0.930 . S
H443 C440 0.929 1_545 S
S444 N445 1.613 . S
S444 N446 1.610 . S
N445 S444 1.613 . S
N445 C448 1.350 . S
N446 S444 1.610 . S
N446 C447 1.351 . S
C447 C441 1.428 . S
C447 N446 1.351 . S
C447 C448 1.434 . S
C448 C439 1.429 . S
C448 N445 1.350 . S
C448 C447 1.434 . S
C449 C450 1.369 . S
C449 C451 1.419 . S
C449 H453 0.930 1_565 S
C450 C449 1.369 . S
C450 C459 1.429 . S
C451 C449 1.419 . S
C451 C452 1.363 . S
C451 H454 0.929 1_565 S
C452 C451 1.363 . S
C452 C458 1.428 . S
H453 C449 0.930 1_545 S
H454 C451 0.929 1_545 S
S455 N456 1.613 . S
S455 N457 1.610 . S
N456 S455 1.613 . S
N456 C459 1.350 . S
N457 S455 1.610 . S
N457 C458 1.351 . S
C458 C452 1.428 . S
C458 N457 1.351 . S
C458 C459 1.434 . S
C459 C450 1.429 . S
C459 N456 1.350 . S
C459 C458 1.434 . S
C460 C461 1.369 . S
C460 C462 1.419 . S
C460 H464 0.930 . S
C461 C460 1.369 . S
C461 C470 1.429 . S
C462 C460 1.419 . S
C462 C463 1.363 . S
C462 H465 0.929 . S
C463 C462 1.363 . S
C463 C469 1.428 . S
H464 C460 0.930 . S
H465 C462 0.929 . S
S466 N467 1.613 . S
S466 N468 1.610 . S
N467 S466 1.613 . S
N467 C470 1.350 . S
N468 S466 1.610 . S
N468 C469 1.351 . S
C469 C463 1.428 . S
C469 N468 1.351 . S
C469 C470 1.434 . S
C470 C461 1.429 . S
C470 N467 1.350 . S
C470 C469 1.434 . S
C471 C472 1.369 . S
C471 C473 1.419 . S
C471 H475 0.930 . S
C472 C471 1.369 . S
C472 C481 1.429 . S
C473 C471 1.419 . S
C473 C474 1.363 . S
C473 H476 0.929 . S
C474 C473 1.363 . S
C474 C480 1.428 . S
H475 C471 0.930 . S
H476 C473 0.929 . S
S477 N478 1.613 . S
S477 N479 1.610 . S
N478 S477 1.613 . S
N478 C481 1.350 . S
N479 S477 1.610 . S
N479 C480 1.351 . S
C480 C474 1.428 . S
C480 N479 1.351 . S
C480 C481 1.434 . S
C481 C472 1.429 . S
C481 N478 1.350 . S
C481 C480 1.434 . S
C482 C483 1.369 . S
C482 C484 1.419 . S
C482 H486 0.930 . S
C483 C482 1.369 . S
C483 C492 1.429 . S
C484 C482 1.419 . S
C484 C485 1.363 . S
C484 H487 0.929 . S
C485 C484 1.363 . S
C485 C491 1.428 . S
H486 C482 0.930 . S
H487 C484 0.929 . S
S488 N489 1.613 . S
S488 N490 1.610 . S
N489 S488 1.613 . S
N489 C492 1.350 . S
N490 S488 1.610 . S
N490 C491 1.351 . S
C491 C485 1.428 . S
C491 N490 1.351 . S
C491 C492 1.434 . S
C492 C483 1.429 . S
C492 N489 1.350 . S
C492 C491 1.434 . S
C493 C494 1.369 . S
C493 C495 1.419 . S
C493 H497 0.930 . S
C494 C493 1.369 . S
C494 C503 1.429 . S
C495 C493 1.419 . S
C495 C496 1.363 . S
C495 H498 0.929 . S
C496 C495 1.363 . S
C496 C502 1.428 . S
H497 C493 0.930 . S
H498 C495 0.929 . S
S499 N500 1.613 . S
S499 N501 1.610 . S
N500 S499 1.613 . S
N500 C503 1.350 . S
N501 S499 1.610 . S
N501 C502 1.351 . S
C502 C496 1.428 . S
C502 N501 1.351 . S
C502 C503 1.434 . S
C503 C494 1.429 . S
C503 N500 1.350 . S
C503 C502 1.434 . S
C504 C505 1.369 1_455 S
C504 C506 1.419 . S
C504 H508 0.930 1_545 S
C505 C504 1.369 1_655 S
C505 C514 1.429 . S
C506 C504 1.419 . S
C506 C507 1.363 1_455 S
C506 H509 0.929 1_545 S
C507 C506 1.363 1_655 S
C507 C513 1.428 . S
H508 C504 0.930 1_565 S
H509 C506 0.929 1_565 S
S510 N511 1.613 . S
S510 N512 1.610 . S
N511 S510 1.613 . S
N511 C514 1.350 . S
N512 S510 1.610 . S
N512 C513 1.351 . S
C513 C507 1.428 . S
C513 N512 1.351 . S
C513 C514 1.434 . S
C514 C505 1.429 . S
C514 N511 1.350 . S
C514 C513 1.434 . S
C515 C516 1.369 . S
C515 C517 1.419 . S
C515 H519 0.930 . S
C516 C515 1.369 . S
C516 C525 1.429 . S
C517 C515 1.419 . S
C517 C518 1.363 . S
C517 H520 0.929 . S
C518 C517 1.363 . S
C518 C524 1.428 . S
H519 C515 0.930 . S
H520 C517 0.929 . S
S521 N522 1.613 . S
S521 N523 1.610 . S
N522 S521 1.613 . S
N522 C525 1.350 1_565 S
N523 S521 1.610 . S
N523 C524 1.351 1_565 S
C524 C518 1.428 . S
C524 N523 1.351 1_545 S
C524 C525 1.434 . S
C525 C516 1.429 . S
C525 N522 1.350 1_545 S
C525 C524 1.434 . S
C526 C527 1.393 . S
C526 C528 1.419 . S
C526 H530 0.930 . S
C527 C526 1.393 . S
C527 C536 1.405 1_455 S
C528 C526 1.419 . S
C528 C529 1.387 . S
C528 H531 0.929 . S
C529 C528 1.387 . S
C529 C535 1.404 1_455 S
H530 C526 0.930 . S
H531 C528 0.929 . S
S532 N533 1.613 1_545 S
S532 N534 1.610 . S
N533 S532 1.613 1_565 S
N533 C536 1.350 . S
N534 S532 1.610 . S
N534 C535 1.351 1_545 S
C535 C529 1.404 1_655 S
C535 N534 1.351 1_565 S
C535 C536 1.434 . S
C536 C527 1.405 1_655 S
C536 N533 1.350 . S
C536 C535 1.434 . S
C537 C538 1.369 . S
C537 C539 1.419 . S
C537 H541 0.930 . S
C538 C537 1.369 . S
C538 C547 1.429 . S
C539 C537 1.419 . S
C539 C540 1.363 . S
C539 H542 0.929 . S
C540 C539 1.363 . S
C540 C546 1.428 . S
H541 C537 0.930 . S
H542 C539 0.929 . S
S543 N544 1.613 . S
S543 N545 1.610 . S
N544 S543 1.613 . S
N544 C547 1.350 1_545 S
N545 S543 1.610 . S
N545 C546 1.351 1_545 S
C546 C540 1.428 . S
C546 N545 1.351 1_565 S
C546 C547 1.434 . S
C547 C538 1.429 . S
C547 N544 1.350 1_565 S
C547 C546 1.434 . S
C548 C549 1.369 1_455 S
C548 C550 1.419 . S
C548 H552 0.930 . S
C549 C548 1.369 1_655 S
C549 C558 1.429 . S
C550 C548 1.419 . S
C550 C551 1.363 1_455 S
C550 H553 0.929 . S
C551 C550 1.363 1_655 S
C551 C557 1.428 . S
H552 C548 0.930 . S
H553 C550 0.929 . S
S554 N555 1.613 . S
S554 N556 1.610 . S
N555 S554 1.613 . S
N555 C558 1.350 . S
N556 S554 1.610 . S
N556 C557 1.351 . S
C557 C551 1.428 . S
C557 N556 1.351 . S
C557 C558 1.434 . S
C558 C549 1.429 . S
C558 N555 1.350 . S
C558 C557 1.434 . S
C559 C560 1.369 . S
C559 C561 1.419 . S
C559 H563 0.930 . S
C560 C559 1.369 . S
C560 C569 1.429 . S
C561 C559 1.419 . S
C561 C562 1.363 . S
C561 H564 0.929 . S
C562 C561 1.363 . S
C562 C568 1.428 . S
H563 C559 0.930 . S
H564 C561 0.929 . S
S565 N566 1.613 . S
S565 N567 1.610 . S
N566 S565 1.613 . S
N566 C569 1.350 . S
N567 S565 1.610 . S
N567 C568 1.351 . S
C568 C562 1.428 . S
C568 N567 1.351 . S
C568 C569 1.434 . S
C569 C560 1.429 . S
C569 N566 1.350 . S
C569 C568 1.434 . S
C570 C571 1.369 . S
C570 C572 1.419 . S
C570 H574 0.930 . S
C571 C570 1.369 . S
C571 C580 1.429 1_455 S
C572 C570 1.419 . S
C572 C573 1.363 . S
C572 H575 0.929 . S
C573 C572 1.363 . S
C573 C579 1.428 1_455 S
H574 C570 0.930 . S
H575 C572 0.929 . S
S576 N577 1.613 . S
S576 N578 1.610 . S
N577 S576 1.613 . S
N577 C580 1.350 . S
N578 S576 1.610 . S
N578 C579 1.351 . S
C579 C573 1.428 1_655 S
C579 N578 1.351 . S
C579 C580 1.434 . S
C580 C571 1.429 1_655 S
C580 N577 1.350 . S
C580 C579 1.434 . S
C581 C582 1.369 . S
C581 C583 1.419 . S
C581 H585 0.930 . S
C582 C581 1.369 . S
C582 C591 1.429 . S
C583 C581 1.419 . S
C583 C584 1.363 . S
C583 H586 0.929 . S
C584 C583 1.363 . S
C584 C590 1.428 . S
H585 C581 0.930 . S
H586 C583 0.929 . S
S587 N588 1.613 . S
S587 N589 1.610 . S
N588 S587 1.613 . S
N588 C591 1.350 . S
N589 S587 1.610 . S
N589 C590 1.351 . S
C590 C584 1.428 . S
C590 N589 1.351 . S
C590 C591 1.434 . S
C591 C582 1.429 . S
C591 N588 1.350 . S
C591 C590 1.434 . S
C592 C593 1.369 . S
C592 C594 1.419 . S
C592 H596 0.930 . S
C593 C592 1.369 . S
C593 C602 1.429 . S
C594 C592 1.419 . S
C594 C595 1.363 . S
C594 H597 0.929 . S
C595 C594 1.363 . S
C595 C601 1.428 . S
H596 C592 0.930 . S
H597 C594 0.929 . S
S598 N599 1.613 . S
S598 N600 1.610 . S
N599 S598 1.613 . S
N599 C602 1.350 . S
N600 S598 1.610 . S
N600 C601 1.351 . S
C601 C595 1.428 . S
C601 N600 1.351 . S
C601 C602 1.434 . S
C602 C593 1.429 . S
C602 N599 1.350 . S
C602 C601 1.434 . S
C603 C604 1.369 . S
C603 C605 1.419 . S
C603 H607 0.930 . S
C604 C603 1.369 . S
C604 C613 1.429 . S
C605 C603 1.419 . S
C605 C606 1.363 . S
C605 H608 0.929 . S
C606 C605 1.363 . S
C606 C612 1.428 . S
H607 C603 0.930 . S
H608 C605 0.929 . S
S609 N610 1.613 . S
S609 N611 1.610 . S
N610 S609 1.613 . S
N610 C613 1.350 . S
N611 S609 1.610 . S
N611 C612 1.351 . S
C612 C606 1.428 . S
C612 N611 1.351 . S
C612 C613 1.434 . S
C613 C604 1.429 . S
C613 N610 1.350 . S
C613 C612 1.434 . S
C614 C615 1.369 . S
C614 C616 1.419 . S
C614 H618 0.930 . S
C615 C614 1.369 . S
C615 C624 1.429 . S
C616 C614 1.419 . S
C616 C617 1.363 . S
C616 H619 0.929 . S
C617 C616 1.363 . S
C617 C623 1.428 . S
H618 C614 0.930 . S
H619 C616 0.929 . S
S620 N621 1.613 . S
S620 N622 1.610 . S
N621 S620 1.613 . S
N621 C624 1.350 . S
N622 S620 1.610 . S
N622 C623 1.351 . S
C623 C617 1.428 . S
C623 N622 1.351 . S
C623 C624 1.434 . S
C624 C615 1.429 . S
C624 N621 1.350 . S
C624 C623 1.434 . S
C625 C626 1.369 . S
C625 C627 1.419 . S
C625 H629 0.930 . S
C626 C625 1.369 . S
C626 C635 1.429 . S
C627 C625 1.419 . S
C627 C628 1.363 . S
C627 H630 0.929 . S
C628 C627 1.363 . S
C628 C634 1.428 . S
H629 C625 0.930 . S
H630 C627 0.929 . S
S631 N632 1.613 . S
S631 N633 1.610 1_545 S
N632 S631 1.613 . S
N632 C635 1.350 1_545 S
N633 S631 1.610 1_565 S
N633 C634 1.351 . S
C634 C628 1.428 . S
C634 N633 1.351 . S
C634 C635 1.434 . S
C635 C626 1.429 . S
C635 N632 1.350 1_565 S
C635 C634 1.434 . S
C636 C637 1.369 . S
C636 C638 1.419 . S
C636 H640 0.930 . S
C637 C636 1.369 . S
C637 C646 1.429 . S
C638 C636 1.419 . S
C638 C639 1.363 . S
C638 H641 0.929 . S
C639 C638 1.363 . S
C639 C645 1.428 . S
H640 C636 0.930 . S
H641 C638 0.929 . S
S642 N643 1.613 . S
S642 N644 1.610 . S
N643 S642 1.613 . S
N643 C646 1.350 . S
N644 S642 1.610 . S
N644 C645 1.351 . S
C645 C639 1.428 . S
C645 N644 1.351 . S
C645 C646 1.434 . S
C646 C637 1.429 . S
C646 N643 1.350 . S
C646 C645 1.434 . S
C647 C648 1.369 . S
C647 C649 1.419 . S
C647 H651 0.930 . S
C648 C647 1.369 . S
C648 C657 1.429 . S
C649 C647 1.419 . S
C649 C650 1.363 . S
C649 H652 0.929 . S
C650 C649 1.363 . S
C650 C656 1.428 . S
H651 C647 0.930 . S
H652 C649 0.929 . S
S653 N654 1.613 . S
S653 N655 1.610 . S
N654 S653 1.613 . S
N654 C657 1.350 . S
N655 S653 1.610 . S
N655 C656 1.351 . S
C656 C650 1.428 . S
C656 N655 1.351 . S
C656 C657 1.434 . S
C657 C648 1.429 . S
C657 N654 1.350 . S
C657 C656 1.434 . S
C658 C659 1.369 . S
C658 C660 1.419 . S
C658 H662 0.930 . S
C659 C658 1.369 . S
C659 C668 1.429 . S
C660 C658 1.419 . S
C660 C661 1.363 . S
C660 H663 0.929 . S
C661 C660 1.363 . S
C661 C667 1.428 . S
H662 C658 0.930 . S
H663 C660 0.929 . S
S664 N665 1.613 . S
S664 N666 1.610 . S
N665 S664 1.613 . S
N665 C668 1.350 . S
N666 S664 1.610 . S
N666 C667 1.351 . S
C667 C661 1.428 . S
C667 N666 1.351 . S
C667 C668 1.434 . S
C668 C659 1.429 . S
C668 N665 1.350 . S
C668 C667 1.434 . S
C669 C670 1.369 . S
C669 C671 1.419 . S
C669 H673 0.930 . S
C670 C669 1.369 . S
C670 C679 1.429 . S
C671 C669 1.419 . S
C671 C672 1.363 . S
C671 H674 0.929 1_545 S
C672 C671 1.363 . S
C672 C678 1.428 . S
H673 C669 0.930 . S
H674 C671 0.929 1_565 S
S675 N676 1.613 . S
S675 N677 1.610 . S
N676 S675 1.613 . S
N676 C679 1.350 . S
N677 S675 1.610 . S
N677 C678 1.351 . S
C678 C672 1.428 . S
C678 N677 1.351 . S
C678 C679 1.434 . S
C679 C670 1.429 . S
C679 N676 1.350 . S
C679 C678 1.434 . S
C680 C681 1.369 . S
C680 C682 1.419 . S
C680 H684 0.930 . S
C681 C680 1.369 . S
C681 C690 1.429 . S
C682 C680 1.419 . S
C682 C683 1.363 . S
C682 H685 0.929 . S
C683 C682 1.363 . S
C683 C689 1.428 . S
H684 C680 0.930 . S
H685 C682 0.929 . S
S686 N687 1.613 . S
S686 N688 1.610 . S
N687 S686 1.613 . S
N687 C690 1.350 . S
N688 S686 1.610 . S
N688 C689 1.351 . S
C689 C683 1.428 . S
C689 N688 1.351 . S
C689 C690 1.434 . S
C690 C681 1.429 . S
C690 N687 1.350 . S
C690 C689 1.434 . S
C691 C692 1.369 . S
C691 C693 1.419 . S
C691 H695 0.930 . S
C692 C691 1.369 . S
C692 C701 1.429 . S
C693 C691 1.419 . S
C693 C694 1.363 . S
C693 H696 0.929 . S
C694 C693 1.363 . S
C694 C700 1.428 . S
H695 C691 0.930 . S
H696 C693 0.929 . S
S697 N698 1.613 . S
S697 N699 1.610 . S
N698 S697 1.613 . S
N698 C701 1.350 . S
N699 S697 1.610 . S
N699 C700 1.351 . S
C700 C694 1.428 . S
C700 N699 1.351 . S
C700 C701 1.434 . S
C701 C692 1.429 . S
C701 N698 1.350 . S
C701 C700 1.434 . S
C702 C703 1.369 . S
C702 C704 1.419 . S
C702 H706 0.930 . S
C703 C702 1.369 . S
C703 C712 1.429 . S
C704 C702 1.419 . S
C704 C705 1.363 . S
C704 H707 0.929 . S
C705 C704 1.363 . S
C705 C711 1.428 . S
H706 C702 0.930 . S
H707 C704 0.929 . S
S708 N709 1.613 . S
S708 N710 1.610 . S
N709 S708 1.613 . S
N709 C712 1.350 1_545 S
N710 S708 1.610 . S
N710 C711 1.351 1_545 S
C711 C705 1.428 . S
C711 N710 1.351 1_565 S
C711 C712 1.434 . S
C712 C703 1.429 . S
C712 N709 1.350 1_565 S
C712 C711 1.434 . S
C713 C714 1.369 . S
C713 C715 1.419 . S
C713 H717 0.930 . S
C714 C713 1.369 . S
C714 C723 1.429 . S
C715 C713 1.419 . S
C715 C716 1.363 . S
C715 H718 0.929 . S
C716 C715 1.363 . S
C716 C722 1.428 . S
H717 C713 0.930 . S
H718 C715 0.929 . S
S719 N720 1.613 . S
S719 N721 1.610 . S
N720 S719 1.613 . S
N720 C723 1.350 . S
N721 S719 1.610 . S
N721 C722 1.351 . S
C722 C716 1.428 . S
C722 N721 1.351 . S
C722 C723 1.434 . S
C723 C714 1.429 . S
C723 N720 1.350 . S
C723 C722 1.434 . S
C724 C725 1.369 . S
C724 C726 1.419 . S
C724 H728 0.930 . S
C725 C724 1.369 . S
C725 C734 1.429 . S
C726 C724 1.419 . S
C726 C727 1.363 . S
C726 H729 0.929 . S
C727 C726 1.363 . S
C727 C733 1.428 . S
H728 C724 0.930 . S
H729 C726 0.929 . S
S730 N731 1.613 . S
S730 N732 1.610 . S
N731 S730 1.613 . S
N731 C734 1.350 . S
N732 S730 1.610 . S
N732 C733 1.351 . S
C733 C727 1.428 . S
C733 N732 1.351 . S
C733 C734 1.434 . S
C734 C725 1.429 . S
C734 N731 1.350 . S
C734 C733 1.434 . S
C735 C736 1.369 . S
C735 C737 1.419 . S
C735 H739 0.930 . S
C736 C735 1.369 . S
C736 C745 1.429 . S
C737 C735 1.419 . S
C737 C738 1.363 . S
C737 H740 0.929 . S
C738 C737 1.363 . S
C738 C744 1.428 . S
H739 C735 0.930 . S
H740 C737 0.929 . S
S741 N742 1.613 . S
S741 N743 1.610 1_565 S
N742 S741 1.613 . S
N742 C745 1.350 1_565 S
N743 S741 1.610 1_545 S
N743 C744 1.351 . S
C744 C738 1.428 . S
C744 N743 1.351 . S
C744 C745 1.434 . S
C745 C736 1.429 . S
C745 N742 1.350 1_545 S
C745 C744 1.434 . S
C746 C747 1.369 . S
C746 C748 1.419 . S
C746 H750 0.930 . S
C747 C746 1.369 . S
C747 C756 1.429 . S
C748 C746 1.419 . S
C748 C749 1.363 . S
C748 H751 0.929 . S
C749 C748 1.363 . S
C749 C755 1.428 . S
H750 C746 0.930 . S
H751 C748 0.929 . S
S752 N753 1.613 1_545 S
S752 N754 1.610 . S
N753 S752 1.613 1_565 S
N753 C756 1.350 1_565 S
N754 S752 1.610 . S
N754 C755 1.351 . S
C755 C749 1.428 . S
C755 N754 1.351 . S
C755 C756 1.434 . S
C756 C747 1.429 . S
C756 N753 1.350 1_545 S
C756 C755 1.434 . S
C757 C758 1.369 . S
C757 C759 1.419 . S
C757 H761 0.930 . S
C758 C757 1.369 . S
C758 C767 1.429 . S
C759 C757 1.419 . S
C759 C760 1.363 . S
C759 H762 0.929 . S
C760 C759 1.363 . S
C760 C766 1.428 . S
H761 C757 0.930 . S
H762 C759 0.929 . S
S763 N764 1.613 . S
S763 N765 1.610 . S
N764 S763 1.613 . S
N764 C767 1.350 . S
N765 S763 1.610 . S
N765 C766 1.351 . S
C766 C760 1.428 . S
C766 N765 1.351 . S
C766 C767 1.434 . S
C767 C758 1.429 . S
C767 N764 1.350 . S
C767 C766 1.434 . S
C768 C769 1.369 1_565 S
C768 C770 1.419 1_554 S
C768 H772 0.930 . S
C769 C768 1.369 1_545 S
C769 C778 1.429 . S
C770 C768 1.419 1_556 S
C770 C771 1.363 . S
C770 H773 0.929 . S
C771 C770 1.363 . S
C771 C777 1.428 1_565 S
H772 C768 0.930 . S
H773 C770 0.929 . S
S774 N775 1.613 1_556 S
S774 N776 1.610 . S
N775 S774 1.613 1_554 S
N775 C778 1.350 . S
N776 S774 1.610 . S
N776 C777 1.351 . S
C777 C771 1.428 1_545 S
C777 N776 1.351 . S
C777 C778 1.434 1_556 S
C778 C769 1.429 . S
C778 N775 1.350 . S
C778 C777 1.434 1_554 S
C779 C780 1.369 . S
C779 C781 1.419 1_554 S
C779 H783 0.930 . S
C780 C779 1.369 . S
C780 C789 1.429 . S
C781 C779 1.419 1_556 S
C781 C782 1.363 . S
C781 H784 0.929 . S
C782 C781 1.363 . S
C782 C788 1.428 . S
H783 C779 0.930 . S
H784 C781 0.929 . S
S785 N786 1.613 . S
S785 N787 1.610 1_554 S
N786 S785 1.613 . S
N786 C789 1.350 . S
N787 S785 1.610 1_556 S
N787 C788 1.351 . S
C788 C782 1.428 . S
C788 N787 1.351 . S
C788 C789 1.434 1_556 S
C789 C780 1.429 . S
C789 N786 1.350 . S
C789 C788 1.434 1_554 S
C790 C791 1.369 . S
C790 C792 1.419 . S
C790 H794 0.930 . S
C791 C790 1.369 . S
C791 C800 1.429 . S
C792 C790 1.419 . S
C792 C793 1.363 . S
C792 H795 0.929 . S
C793 C792 1.363 . S
C793 C799 1.428 . S
H794 C790 0.930 . S
H795 C792 0.929 . S
S796 N797 1.613 . S
S796 N798 1.610 . S
N797 S796 1.613 . S
N797 C800 1.350 . S
N798 S796 1.610 . S
N798 C799 1.351 . S
C799 C793 1.428 . S
C799 N798 1.351 . S
C799 C800 1.434 . S
C800 C791 1.429 . S
C800 N797 1.350 . S
C800 C799 1.434 . S
C801 C802 1.369 1_565 S
C801 C803 1.419 . S
C801 H805 0.930 . S
C802 C801 1.369 1_545 S
C802 C811 1.429 . S
C803 C801 1.419 . S
C803 C804 1.363 . S
C803 H806 0.929 . S
C804 C803 1.363 . S
C804 C810 1.428 1_565 S
H805 C801 0.930 . S
H806 C803 0.929 . S
S807 N808 1.613 . S
S807 N809 1.610 . S
N808 S807 1.613 . S
N808 C811 1.350 . S
N809 S807 1.610 . S
N809 C810 1.351 . S
C810 C804 1.428 1_545 S
C810 N809 1.351 . S
C810 C811 1.434 . S
C811 C802 1.429 . S
C811 N808 1.350 . S
C811 C810 1.434 . S
C812 C813 1.369 . S
C812 C814 1.419 1_556 S
C812 H816 0.930 . S
C813 C812 1.369 . S
C813 C822 1.429 . S
C814 C812 1.419 1_554 S
C814 C815 1.363 . S
C814 H817 0.929 . S
C815 C814 1.363 . S
C815 C821 1.428 . S
H816 C812 0.930 . S
H817 C814 0.929 . S
S818 N819 1.574 1_554 S
S818 N820 1.649 . S
N819 S818 1.574 1_556 S
N819 C822 1.350 . S
N820 S818 1.649 . S
N820 C821 1.351 . S
C821 C815 1.428 . S
C821 N820 1.351 . S
C821 C822 1.434 1_554 S
C822 C813 1.429 . S
C822 N819 1.350 . S
C822 C821 1.434 1_556 S
C823 C824 1.369 . S
C823 C825 1.419 . S
C823 H827 0.930 . S
C824 C823 1.369 . S
C824 C833 1.429 . S
C825 C823 1.419 . S
C825 C826 1.363 . S
C825 H828 0.929 . S
C826 C825 1.363 . S
C826 C832 1.428 . S
H827 C823 0.930 . S
H828 C825 0.929 . S
S829 N830 1.613 . S
S829 N831 1.610 . S
N830 S829 1.613 . S
N830 C833 1.350 . S
N831 S829 1.610 . S
N831 C832 1.351 . S
C832 C826 1.428 . S
C832 N831 1.351 . S
C832 C833 1.434 . S
C833 C824 1.429 . S
C833 N830 1.350 . S
C833 C832 1.434 . S
C834 C835 1.369 1_565 S
C834 C836 1.419 . S
C834 H838 0.930 . S
C835 C834 1.369 1_545 S
C835 C844 1.429 . S
C836 C834 1.419 . S
C836 C837 1.363 . S
C836 H839 0.929 . S
C837 C836 1.363 . S
C837 C843 1.428 1_565 S
H838 C834 0.930 . S
H839 C836 0.929 . S
S840 N841 1.613 . S
S840 N842 1.610 . S
N841 S840 1.613 . S
N841 C844 1.350 . S
N842 S840 1.610 . S
N842 C843 1.351 . S
C843 C837 1.428 1_545 S
C843 N842 1.351 . S
C843 C844 1.434 . S
C844 C835 1.429 . S
C844 N841 1.350 . S
C844 C843 1.434 . S
C845 C846 1.369 . S
C845 C847 1.419 . S
C845 H849 0.930 . S
C846 C845 1.369 . S
C846 C855 1.429 . S
C847 C845 1.419 . S
C847 C848 1.363 . S
C847 H850 0.929 . S
C848 C847 1.363 . S
C848 C854 1.428 . S
H849 C845 0.930 . S
H850 C847 0.929 . S
S851 N852 1.613 . S
S851 N853 1.610 . S
N852 S851 1.613 . S
N852 C855 1.350 . S
N853 S851 1.610 . S
N853 C854 1.351 . S
C854 C848 1.428 . S
C854 N853 1.351 . S
C854 C855 1.434 . S
C855 C846 1.429 . S
C855 N852 1.350 . S
C855 C854 1.434 . S
C856 C857 1.369 . S
C856 C858 1.419 . S
C856 H860 0.930 . S
C857 C856 1.369 . S
C857 C866 1.429 . S
C858 C856 1.419 . S
C858 C859 1.363 . S
C858 H861 0.929 . S
C859 C858 1.363 . S
C859 C865 1.428 . S
H860 C856 0.930 . S
H861 C858 0.929 . S
S862 N863 1.613 . S
S862 N864 1.610 . S
N863 S862 1.613 . S
N863 C866 1.350 . S
N864 S862 1.610 . S
N864 C865 1.351 . S
C865 C859 1.428 . S
C865 N864 1.351 . S
C865 C866 1.434 . S
C866 C857 1.429 . S
C866 N863 1.350 . S
C866 C865 1.434 . S
C867 C868 1.369 . S
C867 C869 1.419 . S
C867 H871 0.930 . S
C868 C867 1.369 . S
C868 C877 1.429 . S
C869 C867 1.419 . S
C869 C870 1.363 . S
C869 H872 0.929 . S
C870 C869 1.363 . S
C870 C876 1.428 . S
H871 C867 0.930 . S
H872 C869 0.929 . S
S873 N874 1.613 . S
S873 N875 1.610 . S
N874 S873 1.613 . S
N874 C877 1.350 . S
N875 S873 1.610 . S
N875 C876 1.351 . S
C876 C870 1.428 . S
C876 N875 1.351 . S
C876 C877 1.434 . S
C877 C868 1.429 . S
C877 N874 1.350 . S
C877 C876 1.434 . S
C878 C879 1.369 . S
C878 C880 1.419 . S
C878 H882 0.930 . S
C879 C878 1.369 . S
C879 C888 1.429 . S
C880 C878 1.419 . S
C880 C881 1.363 . S
C880 H883 0.929 . S
C881 C880 1.363 . S
C881 C887 1.428 . S
H882 C878 0.930 . S
H883 C880 0.929 . S
S884 N885 1.613 . S
S884 N886 1.610 . S
N885 S884 1.613 . S
N885 C888 1.350 . S
N886 S884 1.610 . S
N886 C887 1.351 . S
C887 C881 1.428 . S
C887 N886 1.351 . S
C887 C888 1.434 . S
C888 C879 1.429 . S
C888 N885 1.350 . S
C888 C887 1.434 . S
C889 C890 1.369 . S
C889 C891 1.419 . S
C889 H893 0.930 . S
C890 C889 1.369 . S
C890 C899 1.429 . S
C891 C889 1.419 . S
C891 C892 1.363 . S
C891 H894 0.929 . S
C892 C891 1.363 . S
C892 C898 1.428 . S
H893 C889 0.930 . S
H894 C891 0.929 . S
S895 N896 1.613 . S
S895 N897 1.610 . S
N896 S895 1.613 . S
N896 C899 1.350 . S
N897 S895 1.610 . S
N897 C898 1.351 . S
C898 C892 1.428 . S
C898 N897 1.351 . S
C898 C899 1.434 . S
C899 C890 1.429 . S
C899 N896 1.350 . S
C899 C898 1.434 . S
C900 C901 1.369 1_545 S
C900 C902 1.419 . S
C900 H904 0.930 . S
C901 C900 1.369 1_565 S
C901 C910 1.429 1_655 S
C902 C900 1.419 . S
C902 C903 1.358 1_655 S
C902 H905 0.929 . S
C903 C902 1.358 1_455 S
C903 C909 1.433 1_545 S
H904 C900 0.930 . S
H905 C902 0.929 . S
S906 N907 1.613 . S
S906 N908 1.610 . S
N907 S906 1.613 . S
N907 C910 1.350 . S
N908 S906 1.610 . S
N908 C909 1.351 . S
C909 C903 1.433 1_565 S
C909 N908 1.351 . S
C909 C910 1.434 . S
C910 C901 1.429 1_455 S
C910 N907 1.350 . S
C910 C909 1.434 . S
C911 C912 1.368 . S
C911 C913 1.419 . S
C911 H915 0.930 . S
C912 C911 1.368 . S
C912 C921 1.430 1_455 S
C913 C911 1.419 . S
C913 C914 1.360 1_455 S
C913 H916 0.929 . S
C914 C913 1.360 1_655 S
C914 C920 1.431 . S
H915 C911 0.930 . S
H916 C913 0.929 . S
S917 N918 1.613 . S
S917 N919 1.610 . S
N918 S917 1.613 . S
N918 C921 1.350 . S
N919 S917 1.610 . S
N919 C920 1.351 . S
C920 C914 1.431 . S
C920 N919 1.351 . S
C920 C921 1.434 . S
C921 C912 1.430 1_655 S
C921 N918 1.350 . S
C921 C920 1.434 . S
C922 C923 1.366 1_455 S
C922 C924 1.419 . S
C922 H926 0.930 . S
C923 C922 1.366 1_655 S
C923 C932 1.431 . S
C924 C922 1.419 . S
C924 C925 1.352 1_455 S
C924 H927 0.929 . S
C925 C924 1.352 1_655 S
C925 C931 1.439 . S
H926 C922 0.930 . S
H927 C924 0.929 . S
S928 N929 1.613 . S
S928 N930 1.610 . S
N929 S928 1.613 . S
N929 C932 1.350 . S
N930 S928 1.610 . S
N930 C931 1.351 . S
C931 C925 1.439 . S
C931 N930 1.351 . S
C931 C932 1.434 . S
C932 C923 1.431 . S
C932 N929 1.350 . S
C932 C931 1.434 . S
C933 C934 1.367 1_455 S
C933 C935 1.419 1_556 S
C933 H937 0.930 . S
C934 C933 1.367 1_655 S
C934 C943 1.431 . S
C935 C933 1.419 1_554 S
C935 C936 1.363 . S
C935 H938 0.929 . S
C936 C935 1.363 . S
C936 C942 1.428 1_455 S
H937 C933 0.930 . S
H938 C935 0.929 . S
S939 N940 1.613 . S
S939 N941 1.610 1_556 S
N940 S939 1.613 . S
N940 C943 1.350 . S
N941 S939 1.610 1_554 S
N941 C942 1.351 . S
C942 C936 1.428 1_655 S
C942 N941 1.351 . S
C942 C943 1.434 1_554 S
C943 C934 1.431 . S
C943 N940 1.350 . S
C943 C942 1.434 1_556 S
C944 C945 1.369 . S
C944 C946 1.419 . S
C944 H948 0.930 . S
C945 C944 1.369 . S
C945 C954 1.429 . S
C946 C944 1.419 . S
C946 C947 1.363 . S
C946 H949 0.929 . S
C947 C946 1.363 . S
C947 C953 1.428 . S
H948 C944 0.930 . S
H949 C946 0.929 . S
S950 N951 1.613 . S
S950 N952 1.610 . S
N951 S950 1.613 . S
N951 C954 1.350 . S
N952 S950 1.610 . S
N952 C953 1.351 . S
C953 C947 1.428 . S
C953 N952 1.351 . S
C953 C954 1.434 . S
C954 C945 1.429 . S
C954 N951 1.350 . S
C954 C953 1.434 . S
C955 C956 1.369 . S
C955 C957 1.419 . S
C955 H959 0.930 1_545 S
C956 C955 1.369 . S
C956 C965 1.429 . S
C957 C955 1.419 . S
C957 C958 1.363 . S
C957 H960 0.929 1_545 S
C958 C957 1.363 . S
C958 C964 1.428 . S
H959 C955 0.930 1_565 S
H960 C957 0.929 1_565 S
S961 N962 1.613 . S
S961 N963 1.610 . S
N962 S961 1.613 . S
N962 C965 1.350 . S
N963 S961 1.610 . S
N963 C964 1.351 . S
C964 C958 1.428 . S
C964 N963 1.351 . S
C964 C965 1.434 . S
C965 C956 1.429 . S
C965 N962 1.350 . S
C965 C964 1.434 . S
C966 C967 1.369 . S
C966 C968 1.419 . S
C966 H970 0.930 1_565 S
C967 C966 1.369 . S
C967 C976 1.429 . S
C968 C966 1.419 . S
C968 C969 1.363 . S
C968 H971 0.929 1_565 S
C969 C968 1.363 . S
C969 C975 1.428 . S
H970 C966 0.930 1_545 S
H971 C968 0.929 1_545 S
S972 N973 1.613 . S
S972 N974 1.610 . S
N973 S972 1.613 . S
N973 C976 1.350 . S
N974 S972 1.610 . S
N974 C975 1.351 . S
C975 C969 1.428 . S
C975 N974 1.351 . S
C975 C976 1.434 . S
C976 C967 1.429 . S
C976 N973 1.350 . S
C976 C975 1.434 . S
C977 C978 1.369 . S
C977 C979 1.419 . S
C977 H981 0.930 1_565 S
C978 C977 1.369 . S
C978 C987 1.429 . S
C979 C977 1.419 . S
C979 C980 1.363 . S
C979 H982 0.929 1_565 S
C980 C979 1.363 . S
C980 C986 1.428 . S
H981 C977 0.930 1_545 S
H982 C979 0.929 1_545 S
S983 N984 1.613 . S
S983 N985 1.610 . S
N984 S983 1.613 . S
N984 C987 1.350 . S
N985 S983 1.610 . S
N985 C986 1.351 . S
C986 C980 1.428 . S
C986 N985 1.351 . S
C986 C987 1.434 . S
C987 C978 1.429 . S
C987 N984 1.350 . S
C987 C986 1.434 . S
C988 C989 1.369 . S
C988 C990 1.419 . S
C988 H992 0.930 . S
C989 C988 1.369 . S
C989 C998 1.429 . S
C990 C988 1.419 . S
C990 C991 1.363 . S
C990 H993 0.929 . S
C991 C990 1.363 . S
C991 C997 1.428 . S
H992 C988 0.930 . S
H993 C990 0.929 . S
S994 N995 1.613 . S
S994 N996 1.610 . S
N995 S994 1.613 . S
N995 C998 1.350 . S
N996 S994 1.610 . S
N996 C997 1.351 . S
C997 C991 1.428 . S
C997 N996 1.351 . S
C997 C998 1.434 . S
C998 C989 1.429 . S
C998 N995 1.350 . S
C998 C997 1.434 . S
C999 C1000 1.369 . S
C999 C1001 1.419 . S
C999 H1003 0.930 . S
C1000 C999 1.369 . S
C1000 C1009 1.429 . S
C1001 C999 1.419 . S
C1001 C1002 1.363 . S
C1001 H1004 0.929 . S
C1002 C1001 1.363 . S
C1002 C1008 1.428 . S
H1003 C999 0.930 . S
H1004 C1001 0.929 . S
S1005 N1006 1.613 . S
S1005 N1007 1.610 . S
N1006 S1005 1.613 . S
N1006 C1009 1.350 . S
N1007 S1005 1.610 . S
N1007 C1008 1.351 . S
C1008 C1002 1.428 . S
C1008 N1007 1.351 . S
C1008 C1009 1.434 . S
C1009 C1000 1.429 . S
C1009 N1006 1.350 . S
C1009 C1008 1.434 . S
C1010 C1011 1.369 . S
C1010 C1012 1.419 . S
C1010 H1014 0.930 . S
C1011 C1010 1.369 . S
C1011 C1020 1.429 . S
C1012 C1010 1.419 . S
C1012 C1013 1.363 . S
C1012 H1015 0.929 . S
C1013 C1012 1.363 . S
C1013 C1019 1.428 . S
H1014 C1010 0.930 . S
H1015 C1012 0.929 . S
S1016 N1017 1.613 . S
S1016 N1018 1.610 . S
N1017 S1016 1.613 . S
N1017 C1020 1.350 . S
N1018 S1016 1.610 . S
N1018 C1019 1.351 . S
C1019 C1013 1.428 . S
C1019 N1018 1.351 . S
C1019 C1020 1.434 . S
C1020 C1011 1.429 . S
C1020 N1017 1.350 . S
C1020 C1019 1.434 . S
C1021 C1022 1.369 . S
C1021 C1023 1.419 . S
C1021 H1025 0.930 . S
C1022 C1021 1.369 . S
C1022 C1031 1.429 . S
C1023 C1021 1.419 . S
C1023 C1024 1.363 . S
C1023 H1026 0.929 . S
C1024 C1023 1.363 . S
C1024 C1030 1.428 . S
H1025 C1021 0.930 . S
H1026 C1023 0.929 . S
S1027 N1028 1.613 . S
S1027 N1029 1.610 . S
N1028 S1027 1.613 . S
N1028 C1031 1.350 . S
N1029 S1027 1.610 . S
N1029 C1030 1.351 . S
C1030 C1024 1.428 . S
C1030 N1029 1.351 . S
C1030 C1031 1.434 . S
C1031 C1022 1.429 . S
C1031 N1028 1.350 . S
C1031 C1030 1.434 . S
C1032 C1033 1.369 . S
C1032 C1034 1.419 . S
C1032 H1036 0.930 1_545 S
C1033 C1032 1.369 . S
C1033 C1042 1.429 . S
C1034 C1032 1.419 . S
C1034 C1035 1.363 . S
C1034 H1037 0.929 1_545 S
C1035 C1034 1.363 . S
C1035 C1041 1.428 . S
H1036 C1032 0.930 1_565 S
H1037 C1034 0.929 1_565 S
S1038 N1039 1.613 . S
S1038 N1040 1.610 . S
N1039 S1038 1.613 . S
N1039 C1042 1.350 . S
N1040 S1038 1.610 . S
N1040 C1041 1.351 . S
C1041 C1035 1.428 . S
C1041 N1040 1.351 . S
C1041 C1042 1.434 . S
C1042 C1033 1.429 . S
C1042 N1039 1.350 . S
C1042 C1041 1.434 . S
C1043 C1044 1.369 . S
C1043 C1045 1.419 . S
C1043 H1047 0.930 . S
C1044 C1043 1.369 . S
C1044 C1053 1.429 . S
C1045 C1043 1.419 . S
C1045 C1046 1.363 . S
C1045 H1048 0.929 . S
C1046 C1045 1.363 . S
C1046 C1052 1.428 . S
H1047 C1043 0.930 . S
H1048 C1045 0.929 . S
S1049 N1050 1.613 . S
S1049 N1051 1.612 . S
N1050 S1049 1.613 . S
N1050 C1053 1.350 1_565 S
N1051 S1049 1.612 . S
N1051 C1052 1.349 1_565 S
C1052 C1046 1.428 . S
C1052 N1051 1.349 1_545 S
C1052 C1053 1.434 . S
C1053 C1044 1.429 . S
C1053 N1050 1.350 1_545 S
C1053 C1052 1.434 . S
C1054 C1055 1.369 . S
C1054 C1056 1.419 . S
C1054 H1058 0.930 1_565 S
C1055 C1054 1.369 . S
C1055 C1064 1.429 . S
C1056 C1054 1.419 . S
C1056 C1057 1.363 . S
C1056 H1059 0.929 1_565 S
C1057 C1056 1.363 . S
C1057 C1063 1.428 . S
H1058 C1054 0.930 1_545 S
H1059 C1056 0.929 1_545 S
S1060 N1061 1.613 . S
S1060 N1062 1.610 . S
N1061 S1060 1.613 . S
N1061 C1064 1.350 . S
N1062 S1060 1.610 . S
N1062 C1063 1.351 . S
C1063 C1057 1.428 . S
C1063 N1062 1.351 . S
C1063 C1064 1.434 . S
C1064 C1055 1.429 . S
C1064 N1061 1.350 . S
C1064 C1063 1.434 . S
C1065 C1066 1.369 . S
C1065 C1067 1.419 . S
C1065 H1069 0.930 . S
C1066 C1065 1.369 . S
C1066 C1075 1.429 . S
C1067 C1065 1.419 . S
C1067 C1068 1.363 . S
C1067 H1070 0.929 . S
C1068 C1067 1.363 . S
C1068 C1074 1.428 . S
H1069 C1065 0.930 . S
H1070 C1067 0.929 . S
S1071 N1072 1.613 . S
S1071 N1073 1.610 . S
N1072 S1071 1.613 . S
N1072 C1075 1.350 . S
N1073 S1071 1.610 . S
N1073 C1074 1.351 . S
C1074 C1068 1.428 . S
C1074 N1073 1.351 . S
C1074 C1075 1.434 . S
C1075 C1066 1.429 . S
C1075 N1072 1.350 . S
C1075 C1074 1.434 . S
C1076 C1077 1.369 . S
C1076 C1078 1.419 . S
C1076 H1080 0.930 . S
C1077 C1076 1.369 . S
C1077 C1086 1.429 . S
C1078 C1076 1.419 . S
C1078 C1079 1.363 . S
C1078 H1081 0.929 . S
C1079 C1078 1.363 . S
C1079 C1085 1.428 . S
H1080 C1076 0.930 . S
H1081 C1078 0.929 . S
S1082 N1083 1.613 . S
S1082 N1084 1.610 . S
N1083 S1082 1.613 . S
N1083 C1086 1.350 . S
N1084 S1082 1.610 . S
N1084 C1085 1.351 . S
C1085 C1079 1.428 . S
C1085 N1084 1.351 . S
C1085 C1086 1.434 . S
C1086 C1077 1.429 . S
C1086 N1083 1.350 . S
C1086 C1085 1.434 . S
C1087 C1088 1.369 . S
C1087 C1089 1.419 . S
C1087 H1091 0.930 . S
C1088 C1087 1.369 . S
C1088 C1097 1.429 . S
C1089 C1087 1.419 . S
C1089 C1090 1.363 . S
C1089 H1092 0.929 . S
C1090 C1089 1.363 . S
C1090 C1096 1.428 . S
H1091 C1087 0.930 . S
H1092 C1089 0.929 . S
S1093 N1094 1.613 . S
S1093 N1095 1.610 . S
N1094 S1093 1.613 . S
N1094 C1097 1.350 . S
N1095 S1093 1.610 . S
N1095 C1096 1.351 . S
C1096 C1090 1.428 . S
C1096 N1095 1.351 . S
C1096 C1097 1.434 . S
C1097 C1088 1.429 . S
C1097 N1094 1.350 . S
C1097 C1096 1.434 . S
C1098 C1099 1.369 . S
C1098 C1100 1.419 . S
C1098 H1102 0.930 . S
C1099 C1098 1.369 . S
C1099 C1108 1.429 . S
C1100 C1098 1.419 . S
C1100 C1101 1.363 . S
C1100 H1103 0.929 . S
C1101 C1100 1.363 . S
C1101 C1107 1.428 . S
H1102 C1098 0.930 . S
H1103 C1100 0.929 . S
S1104 N1105 1.613 . S
S1104 N1106 1.610 . S
N1105 S1104 1.613 . S
N1105 C1108 1.350 . S
N1106 S1104 1.610 . S
N1106 C1107 1.351 . S
C1107 C1101 1.428 . S
C1107 N1106 1.351 . S
C1107 C1108 1.434 . S
C1108 C1099 1.429 . S
C1108 N1105 1.350 . S
C1108 C1107 1.434 . S
C1109 C1110 1.369 . S
C1109 C1111 1.419 . S
C1109 H1113 0.930 . S
C1110 C1109 1.369 . S
C1110 C1119 1.429 . S
C1111 C1109 1.419 . S
C1111 C1112 1.363 . S
C1111 H1114 0.929 . S
C1112 C1111 1.363 . S
C1112 C1118 1.428 . S
H1113 C1109 0.930 . S
H1114 C1111 0.929 . S
S1115 N1116 1.613 . S
S1115 N1117 1.610 . S
N1116 S1115 1.613 . S
N1116 C1119 1.350 . S
N1117 S1115 1.610 . S
N1117 C1118 1.351 . S
C1118 C1112 1.428 . S
C1118 N1117 1.351 . S
C1118 C1119 1.434 . S
C1119 C1110 1.429 . S
C1119 N1116 1.350 . S
C1119 C1118 1.434 . S
C417 C3 1.500 . S
C419 C29 1.502 . S
C428 C42 1.501 . S
C430 C16 1.498 . S
C439 C83 1.500 . S
C441 C57 1.502 . S
C450 C96 1.501 . S
C452 C70 1.498 . S
C461 C107 1.500 . S
C463 C133 1.502 . S
C472 C146 1.500 . S
C474 C120 1.499 . S
C483 C161 1.500 . S
C485 C187 1.502 . S
C494 C200 1.501 . S
C496 C174 1.498 . S
C505 C211 1.502 . S
C507 C237 1.500 . S
C516 C224 1.501 . S
C518 C250 1.499 . S
C527 C291 1.501 . S
C529 C265 1.499 . S
C538 C278 1.501 . S
C540 C304 1.499 . S
C549 C341 1.502 . S
C551 C315 1.500 . S
C560 C354 1.500 . S
C562 C328 1.500 . S
C571 C395 1.502 . S
C573 C369 1.499 . S
C582 C382 1.499 . S
C584 C408 1.502 . S
C593 C330 1.507 . S
C595 C5 1.501 . S
C604 C18 1.508 . S
C606 C317 1.502 . S
C615 C31 1.507 . S
C617 C356 1.500 . S
C626 C44 1.508 . S
C628 C343 1.502 . S
C637 C380 1.503 . S
C639 C55 1.504 . S
C648 C68 1.506 . S
C650 C367 1.502 . S
C659 C81 1.499 . S
C661 C406 1.506 . S
C670 C393 1.508 . S
C672 C94 1.502 . S
C681 C109 1.505 . S
C683 C226 1.501 . S
C692 C122 1.501 . S
C694 C213 1.506 . S
C703 C135 1.500 . S
C705 C252 1.507 . S
C714 C148 1.503 . S
C716 C239 1.503 . S
C725 C159 1.503 . S
C727 C276 1.503 . S
C736 C263 1.507 . S
C738 C172 1.503 . S
C747 C302 1.505 . S
C749 C185 1.504 . S
C758 C198 1.501 . S
C760 C289 1.505 . S
C769 C1 1.504 . S
C771 C62 1.503 . S
C780 C14 1.502 . S
C782 C387 1.504 . S
C791 C27 1.504 . S
C793 C192 1.505 . S
C802 C40 1.503 . S
C804 C309 1.503 . S
C813 C75 1.504 . S
C815 C326 1.502 . S
C824 C131 1.504 . S
C826 C88 1.504 . S
C835 C248 1.504 . S
C837 C101 1.503 . S
C846 C166 1.503 . S
C848 C105 1.503 . S
C857 C118 1.502 . S
C859 C283 1.504 . S
C868 C413 1.504 . S
C870 C144 1.502 . S
C879 C179 1.504 . S
C881 C222 1.503 . S
C890 C205 1.504 . S
C892 C352 1.503 . S
C901 C270 1.504 . S
C903 C209 1.503 . S
C912 C235 1.502 . S
C914 C400 1.503 . S
C923 C339 1.502 1_655 S
C925 C296 1.503 . S
C934 C374 1.502 . S
C936 C313 1.504 . S
C945 C10 1.533 . S
C947 C23 1.528 . S
C956 C36 1.527 . S
C958 C49 1.531 . S
C967 C53 1.533 . S
C969 C66 1.528 . S
C978 C79 1.526 . S
C980 C92 1.531 . S
C989 C127 1.532 . S
C991 C114 1.528 . S
C1000 C140 1.526 . S
C1002 C153 1.532 . S
C1011 C157 1.531 . S
C1013 C170 1.528 . S
C1022 C183 1.532 . S
C1024 C196 1.527 . S
C1033 C218 1.532 . S
C1035 C231 1.527 . S
C1044 C257 1.529 . S
C1046 C244 1.531 . S
C1055 C261 1.532 . S
C1057 C274 1.527 . S
C1066 C287 1.529 . S
C1068 C300 1.530 . S
C1077 C335 1.532 . S
C1079 C322 1.526 . S
C1088 C348 1.531 . S
C1090 C361 1.530 . S
C1099 C378 1.525 . S
C1101 C365 1.531 . S
C1110 C391 1.532 . S
C1112 C404 1.529 . S
